drugbank_target|Q9Y5Y6 Suppressor of tumorigenicity 14 protein (DB00013; DB03127; DB13729)
 OpenBabel12092119573D

  0  0  0     0  0            999 V3000
M  V30 BEGIN CTAB
M  V30 COUNTS 13038 13208 0 0 0
M  V30 BEGIN ATOM
M  V30 1 H -0.908 1.98254 -0.117106 0
M  V30 2 N 0 1.576 0 0
M  V30 3 C 0.933 2.03868 1.02534 0
M  V30 4 C 1.911 0.928543 1.3348 0
M  V30 5 O 3.095 1.19667 1.45644 0
M  V30 6 C 0.222 2.43627 2.35294 0
M  V30 7 C -0.732 3.65373 2.2001 0
M  V30 8 S 0.101 5.13292 1.52614 0
M  V30 9 C 1.257 5.56322 2.86805 0
M  V30 10 H 1.49 2.90518 0.631377 0
M  V30 11 H -0.977 1.52953 0.210867 0
M  V30 12 H 0.981 2.67203 3.11629 0
M  V30 13 H -0.358 1.57376 2.7183 0
M  V30 14 H -1.165 3.90944 3.18086 0
M  V30 15 H -1.563 3.418 1.51819 0
M  V30 16 H 0.729 5.58782 3.83104 0
M  V30 17 H 1.672 6.56266 2.65933 0
M  V30 18 H 2.08 4.83886 2.90714 0
M  V30 19 N 1.4781 -0.272755 1.55222 0
M  V30 20 C 2.7261 -1.00234 1.75492 0
M  V30 21 C 3.0471 -1.8681 0.5592 0
M  V30 22 O 2.3171 -1.91215 -0.425882 0
M  V30 23 H 0.8971 -0.373076 0.647166 0
M  V30 24 H 3.5591 -0.296926 1.92625 0
M  V30 25 H 2.6551 -1.63913 2.65592 0
M  V30 26 N 2.9562 -1.48159 -0.537278 0
M  V30 27 C 4.1812 -1.59707 -1.32319 0
M  V30 28 C 4.6062 -0.254859 -1.86365 0
M  V30 29 O 3.9642 0.772378 -1.64024 0
M  V30 30 C 4.0122 -2.6412 -2.45505 0
M  V30 31 O 3.1162 -2.20774 -3.48328 0
M  V30 32 H 2.4572 -0.535791 -0.392204 0
M  V30 33 H 4.9872 -1.94092 -0.647268 0
M  V30 34 H 4.9972 -2.85166 -2.91795 0
M  V30 35 H 3.6722 -3.61567 -2.05528 0
M  V30 36 H 2.2492 -2.09911 -3.08207 0
M  V30 37 N 4.4343 0.785586 -1.36625 0
M  V30 38 C 5.7113 1.53198 -1.21613 0
M  V30 39 C 6.0913 2.10187 0.196113 0
M  V30 40 O 5.4393 1.94318 1.20219 0
M  V30 41 C 5.6493 2.62388 -2.30116 0
M  V30 42 C 6.9973 3.30167 -2.66974 0
M  V30 43 O 8.0213 2.72674 -2.29188 0
M  V30 44 O 6.8803 4.34077 -3.32023 0
M  V30 45 H 3.9743 0.677865 -0.473738 0
M  V30 46 H 6.5203 0.823739 -1.48367 0
M  V30 47 H 5.2923 2.18299 -3.24748 0
M  V30 48 H 4.9153 3.40827 -2.0475 0
M  V30 49 N 5.9124 1.20967 1.01018 0
M  V30 50 C 7.3284 0.965905 1.27053 0
M  V30 51 C 7.5284 -0.350785 1.98423 0
M  V30 52 O 6.5844 -1.07773 2.28344 0
M  V30 53 C 7.8974 2.15294 2.09926 0
M  V30 54 C 9.4454 2.19463 2.23171 0
M  V30 55 C 9.9204 3.3767 3.09424 0
M  V30 56 N 11.4114 3.37724 3.17012 0
M  V30 57 C 12.1464 4.25837 3.83993 0
M  V30 58 N 11.6424 5.24138 4.53047 0
M  V30 59 N 13.4354 4.1366 3.80581 0
M  V30 60 H 5.5864 2.0565 0.531194 0
M  V30 61 H 7.8494 0.90024 0.297106 0
M  V30 62 H 7.5554 3.10684 1.64828 0
M  V30 63 H 7.4294 2.13923 3.10672 0
M  V30 64 H 9.8164 1.24632 2.6749 0
M  V30 65 H 9.8974 2.2488 1.21912 0
M  V30 66 H 9.5414 4.32791 2.65808 0
M  V30 67 H 9.4714 3.29491 4.10784 0
M  V30 68 H 11.9624 2.6658 2.6785 0
M  V30 69 H 12.2754 5.87684 5.01844 0
M  V30 70 H 10.6204 5.28068 4.5185 0
M  V30 71 H 13.8114 3.36127 3.25785 0
M  V30 72 H 13.9844 4.82538 4.32505 0
M  V30 73 N 7.3905 -1.2043 1.01659 0
M  V30 74 C 8.3535 -2.21433 0.591616 0
M  V30 75 C 9.3535 -1.57203 -0.338226 0
M  V30 76 O 10.5435 -1.73737 -0.126918 0
M  V30 77 C 7.6755 -3.40628 -0.136058 0
M  V30 78 H 8.8685 -2.60545 1.48514 0
M  V30 79 H 6.4215 -1.33893 0.806379 0
M  V30 80 H 7.1565 -3.07019 -1.04449 0
M  V30 81 H 6.9415 -3.88475 0.531917 0
M  V30 82 H 8.4315 -4.15475 -0.420735 0
M  V30 83 N 8.8686 -0.792821 -1.36206 0
M  V30 84 C 10.2846 -0.474903 -1.52371 0
M  V30 85 C 10.4846 1.00622 -1.74578 0
M  V30 86 O 9.5406 1.79162 -1.77924 0
M  V30 87 C 10.8536 -1.3083 -2.70747 0
M  V30 88 C 12.4016 -1.30234 -2.84619 0
M  V30 89 C 12.8766 -2.11956 -4.06004 0
M  V30 90 N 14.3676 -2.09419 -4.13156 0
M  V30 91 C 15.1026 -2.69419 -5.06163 0
M  V30 92 N 14.5986 -3.3829 -6.04592 0
M  V30 93 N 16.3916 -2.59134 -4.98804 0
M  V30 94 H 8.5426 -1.75222 -1.20046 0
M  V30 95 H 10.8056 -0.745024 -0.586211 0
M  V30 96 H 10.5116 -2.35881 -2.6087 0
M  V30 97 H 10.3856 -0.95196 -3.6499 0
M  V30 98 H 12.7726 -0.259748 -2.93955 0
M  V30 99 H 12.8536 -1.69847 -1.91274 0
M  V30 100 H 12.4976 -3.16248 -3.97429 0
M  V30 101 H 12.4276 -1.69711 -4.98503 0
M  V30 102 H 14.9186 -1.59297 -3.42685 0
M  V30 103 H 15.2316 -3.81394 -6.7213 0
M  V30 104 H 13.5766 -3.42393 -6.04807 0
M  V30 105 H 16.7676 -2.04927 -4.20859 0
M  V30 106 H 16.9406 -3.06185 -5.711 0
M  V30 107 N 10.3467 1.47872 -0.545128 0
M  V30 108 C 11.2937 2.29849 0.2093 0
M  V30 109 C 12.2637 1.38313 0.919707 0
M  V30 110 O 13.4487 1.67277 0.917772 0
M  V30 111 C 10.5887 3.22019 1.24088 0
M  V30 112 C 9.7017 4.2864 0.537778 0
M  V30 113 C 8.8367 5.07973 1.5536 0
M  V30 114 C 7.8757 6.06381 0.8348 0
M  V30 115 N 7.0127 6.78717 1.79688 0
M  V30 116 H 11.8527 2.93845 -0.49591 0
M  V30 117 H 9.3897 1.44848 -0.256389 0
M  V30 118 H 11.3477 3.73868 1.85144 0
M  V30 119 H 9.9777 2.59914 1.91428 0
M  V30 120 H 9.0297 3.7994 -0.187046 0
M  V30 121 H 10.3417 4.98793 -0.0258907 0
M  V30 122 H 9.4957 5.63912 2.23803 0
M  V30 123 H 8.2347 4.37693 2.15118 0
M  V30 124 H 7.2397 5.49631 0.136388 0
M  V30 125 H 8.4647 6.78665 0.24313 0
M  V30 126 H 6.4107 6.11177 2.38326 0
M  V30 127 H 6.3277 7.44998 1.28505 0
M  V30 128 H 7.5957 7.39237 2.47282 0
M  V30 129 N 11.8248 0.280983 1.55075 0
M  V30 130 C 13.0728 -0.333455 1.9933 0
M  V30 131 C 13.3938 -1.55937 1.17085 0
M  V30 132 O 12.6638 -1.94143 0.261805 0
M  V30 133 H 11.2438 -0.126197 0.736263 0
M  V30 134 H 13.9058 0.387678 1.91005 0
M  V30 135 H 13.0018 -0.619292 3.05894 0
M  V30 136 N 13.3029 -1.57598 0.00835791 0
M  V30 137 C 14.5509 -1.90551 -0.6734 0
M  V30 138 C 14.8719 -0.883301 -1.73847 0
M  V30 139 O 14.1419 0.0781442 -1.95744 0
M  V30 140 H 12.7219 -0.703312 -0.251717 0
M  V30 141 H 15.3839 -1.94833 0.0512592 0
M  V30 142 H 14.4799 -2.9056 -1.13935 0
M  V30 143 N 14.781 0.264519 -1.55364 0
M  V30 144 C 16.029 0.993021 -1.76021 0
M  V30 145 C 16.35 1.86511 -0.569099 0
M  V30 146 O 15.62 1.91438 0.415735 0
M  V30 147 H 14.2 0.369639 -0.649135 0
M  V30 148 H 16.862 0.286707 -1.9278 0
M  V30 149 H 15.958 1.62502 -2.66457 0
M  V30 150 N 16.2591 1.48442 0.529413 0
M  V30 151 C 17.5071 1.56179 1.28267 0
M  V30 152 C 17.8281 0.237721 1.93546 0
M  V30 153 O 17.0981 -0.740779 1.81354 0
M  V30 154 H 15.6781 0.575367 0.476405 0
M  V30 155 H 18.3401 1.84909 0.61602 0
M  V30 156 H 17.4361 2.34312 2.06165 0
M  V30 157 N 17.7372 -0.778329 1.37039 0
M  V30 158 C 19.1482 -1.35421 1.28523 0
M  V30 159 C 19.4992 -1.96075 -0.0700901 0
M  V30 160 O 18.6242 -1.93352 -0.971801 0
M  V30 161 C 19.2192 -2.46211 2.32735 0
M  V30 162 C 17.7782 -2.99585 2.27873 0
M  V30 163 C 16.9252 -1.72748 2.16918 0
M  V30 164 H 19.8762 -0.5791 1.47757 0
M  V30 165 H 19.8972 -3.2552 1.9702 0
M  V30 166 H 19.4092 -2.02036 3.31365 0
M  V30 167 H 17.5102 -3.48152 1.32745 0
M  V30 168 H 17.6232 -3.55646 3.21018 0
M  V30 169 H 15.9872 -1.95416 1.63354 0
M  V30 170 H 16.7702 -1.30686 3.17452 0
M  V30 171 N 19.2153 -1.21501 -1.00376 0
M  V30 172 C 20.1623 -0.975387 -2.09177 0
M  V30 173 C 21.1323 0.0990615 -1.65804 0
M  V30 174 O 22.3173 -0.0483147 -1.90739 0
M  V30 175 C 19.4573 -0.547507 -3.40729 0
M  V30 176 C 18.5703 -1.69153 -3.97506 0
M  V30 177 C 17.7053 -1.2127 -5.17172 0
M  V30 178 C 16.7443 -2.32897 -5.66061 0
M  V30 179 N 15.8813 -1.86138 -6.76976 0
M  V30 180 H 20.7213 -1.9068 -2.29009 0
M  V30 181 H 18.2583 -0.950257 -1.12288 0
M  V30 182 H 20.2163 -0.280667 -4.16255 0
M  V30 183 H 18.8463 0.346904 -3.20931 0
M  V30 184 H 17.8983 -2.07298 -3.18954 0
M  V30 185 H 19.2103 -2.5316 -4.29781 0
M  V30 186 H 18.3643 -0.902591 -5.99948 0
M  V30 187 H 17.1033 -0.342692 -4.86495 0
M  V30 188 H 16.1083 -2.64709 -4.81881 0
M  V30 189 H 17.3333 -3.20396 -5.98768 0
M  V30 190 H 15.2793 -1.01484 -6.48103 0
M  V30 191 H 15.1963 -2.63717 -7.08512 0
M  V30 192 H 16.4643 -1.58165 -7.63285 0
M  V30 193 N 20.6934 1.19889 -1.02296 0
M  V30 194 C 21.9704 1.85148 -0.630832 0
M  V30 195 C 22.3504 1.91385 0.890782 0
M  V30 196 O 21.6984 1.42642 1.78509 0
M  V30 197 C 21.9084 3.24442 -1.28602 0
M  V30 198 C 23.2564 4.00663 -1.4055 0
M  V30 199 O 24.2804 3.33818 -1.24273 0
M  V30 200 O 23.1394 5.20387 -1.66913 0
M  V30 201 H 20.2334 0.797613 -0.218499 0
M  V30 202 H 22.7794 1.27427 -1.12074 0
M  V30 203 H 21.5514 3.14704 -2.32545 0
M  V30 204 H 21.1744 3.89802 -0.7836 0
M  V30 205 N 22.1715 0.800033 1.35784 0
M  V30 206 C 23.4185 0.377342 1.98953 0
M  V30 207 C 23.7465 -1.05378 1.6348 0
M  V30 208 O 23.0015 -1.74459 0.886707 0
M  V30 209 C 23.3005 0.500276 3.53881 0
M  V30 210 C 22.9665 1.89375 4.09204 0
M  V30 211 C 21.6285 2.27499 4.24025 0
M  V30 212 C 23.9805 2.8057 4.39238 0
M  V30 213 C 21.3085 3.562 4.66195 0
M  V30 214 C 23.6605 4.0871 4.82844 0
M  V30 215 C 22.3245 4.46843 4.95871 0
M  V30 216 H 21.5945 0.138079 0.728021 0
M  V30 217 H 24.2415 1.01955 1.62103 0
M  V30 218 H 22.5465 -0.225405 3.91151 0
M  V30 219 H 24.2435 0.154097 4.00704 0
M  V30 220 H 20.8335 1.58753 3.98115 0
M  V30 221 H 25.0175 2.52367 4.27346 0
M  V30 222 H 20.2735 3.85602 4.74469 0
M  V30 223 H 24.4475 4.79481 5.05046 0
M  V30 224 H 22.0745 5.46623 5.28306 0
M  V30 225 N 23.6496 -1.47581 0.552962 0
M  V30 226 C 24.8976 -2.02082 0.0272703 0
M  V30 227 C 25.2186 -1.4301 -1.32563 0
M  V30 228 O 24.4886 -0.603745 -1.86365 0
M  V30 229 H 23.0686 -0.746966 0.00709182 0
M  V30 230 H 25.7306 -1.81033 0.722008 0
M  V30 231 H 24.8266 -3.12034 -0.0639951 0
M  V30 232 N 25.1277 -0.289203 -1.54924 0
M  V30 233 C 26.0907 0.579144 -2.21762 0
M  V30 234 C 27.0907 1.07047 -1.1999 0
M  V30 235 O 28.2807 0.968384 -1.44803 0
M  V30 236 C 25.4127 1.80055 -2.8947 0
M  V30 237 H 26.6057 -0.00464908 -2.999 0
M  V30 238 H 24.1587 -0.0399306 -1.56249 0
M  V30 239 H 24.8937 2.42449 -2.15381 0
M  V30 240 H 24.6787 1.45602 -3.64064 0
M  V30 241 H 26.1687 2.41773 -3.40493 0
M  V30 242 N 26.6058 1.57591 -0.0167156 0
M  V30 243 C 27.8538 1.90906 0.663285 0
M  V30 244 C 28.1748 0.892509 1.73376 0
M  V30 245 O 27.4448 -0.0677623 1.95783 0
M  V30 246 H 26.0248 0.704637 0.247983 0
M  V30 247 H 28.6868 1.94803 -0.0615909 0
M  V30 248 H 27.7828 2.9116 1.12393 0
M  V30 249 N 28.0839 -0.256276 1.55502 0
M  V30 250 C 29.0139 -1.32102 1.92539 0
M  V30 251 C 29.9949 -1.50684 0.789194 0
M  V30 252 O 31.1799 -1.63449 1.04872 0
M  V30 253 C 28.3099 -2.67752 2.21192 0
M  V30 254 C 27.2639 -2.63878 3.36975 0
M  V30 255 C 26.5899 -4.03236 3.51147 0
M  V30 256 C 27.8899 -2.21682 4.72921 0
M  V30 257 H 29.5839 -1.01351 2.81724 0
M  V30 258 H 27.1299 -0.486105 1.35547 0
M  V30 259 H 29.0829 -3.42365 2.45691 0
M  V30 260 H 27.8069 -3.0012 1.28824 0
M  V30 261 H 26.4659 -1.91722 3.12471 0
M  V30 262 H 26.1139 -4.32854 2.56216 0
M  V30 263 H 25.8139 -4.01535 4.29003 0
M  V30 264 H 27.3379 -4.79563 3.77957 0
M  V30 265 H 28.7519 -2.86023 4.96854 0
M  V30 266 H 27.1489 -2.3111 5.53812 0
M  V30 267 H 28.2189 -1.16833 4.70615 0
M  V30 268 N 29.562 -1.4872 -0.521534 0
M  V30 269 C 30.509 -1.63871 -1.62527 0
M  V30 270 C 31.479 -0.480559 -1.58996 0
M  V30 271 O 32.664 -0.705085 -1.77294 0
M  V30 272 C 29.804 -1.69227 -3.00759 0
M  V30 273 C 28.917 -2.96207 -3.14461 0
M  V30 274 C 28.052 -2.92671 -4.43303 0
M  V30 275 C 27.091 -4.14318 -4.50563 0
M  V30 276 N 26.228 -4.0881 -5.70805 0
M  V30 277 H 31.068 -2.58123 -1.48918 0
M  V30 278 H 28.605 -1.28 -0.724878 0
M  V30 279 H 30.563 -1.70314 -3.80853 0
M  V30 280 H 29.193 -0.784586 -3.1312 0
M  V30 281 H 28.245 -3.04826 -2.27564 0
M  V30 282 H 29.557 -3.86192 -3.15686 0
M  V30 283 H 28.711 -2.92206 -5.31696 0
M  V30 284 H 27.45 -2.00429 -4.44612 0
M  V30 285 H 26.455 -4.15049 -3.60575 0
M  V30 286 H 27.68 -5.07729 -4.50986 0
M  V30 287 H 25.626 -3.19394 -5.72995 0
M  V30 288 H 25.543 -4.92509 -5.7356 0
M  V30 289 H 26.811 -4.12418 -6.61462 0
M  V30 290 N 31.0401 0.771051 -1.3745 0
M  V30 291 C 32.2701 1.55789 -1.35696 0
M  V30 292 C 32.6781 1.89107 0.0594523 0
M  V30 293 O 32.0211 1.51984 1.03183 0
M  V30 294 C 32.0831 2.89515 -2.13123 0
M  V30 295 C 31.7471 2.78829 -3.62082 0
M  V30 296 C 32.7441 2.49812 -4.5595 0
M  V30 297 C 30.4291 2.9683 -4.05213 0
M  V30 298 C 32.4231 2.38923 -5.90927 0
M  V30 299 C 30.1101 2.85562 -5.40276 0
M  V30 300 C 31.1081 2.56649 -6.32946 0
M  V30 301 O 30.7961 2.45408 -7.65526 0
M  V30 302 H 30.5281 0.489257 -0.466481 0
M  V30 303 H 33.0821 0.963446 -1.81403 0
M  V30 304 H 31.3121 3.51081 -1.62107 0
M  V30 305 H 33.0011 3.50915 -2.03994 0
M  V30 306 H 33.7671 2.3559 -4.23937 0
M  V30 307 H 29.6461 3.18335 -3.33442 0
M  V30 308 H 33.1901 2.16277 -6.63227 0
M  V30 309 H 29.0871 2.99351 -5.71891 0
M  V30 310 H 29.8551 2.60753 -7.75855 0
M  V30 311 N 32.5182 1.22032 0.997298 0
M  V30 312 C 33.4662 0.983634 2.10778 0
M  V30 313 C 34.4602 -0.0717564 1.69248 0
M  V30 314 O 35.6662 0.080304 1.79821 0
M  V30 315 H 32.0412 0.300877 0.689186 0
M  V30 316 H 34.0122 1.92606 2.27916 0
M  V30 317 C 32.7612 0.57326 3.42942 0
M  V30 318 H 32.0842 1.37702 3.75338 0
M  V30 319 H 33.5242 0.447031 4.21637 0
M  V30 320 C 31.9832 -0.7167 3.29188 0
M  V30 321 O 32.5132 -1.77027 3.60589 0
M  V30 322 N 30.7192 -0.686167 2.82383 0
M  V30 323 H 30.2662 0.171507 2.57028 0
M  V30 324 H 30.2242 -1.54955 2.73562 0
M  V30 325 N 33.9963 -1.19345 1.0293 0
M  V30 326 C 35.2213 -1.93538 0.745511 0
M  V30 327 C 35.6463 -1.75007 -0.689511 0
M  V30 328 O 35.0043 -1.05265 -1.47611 0
M  V30 329 C 35.0523 -3.43336 1.10239 0
M  V30 330 O 34.1563 -4.11806 0.221289 0
M  V30 331 H 33.4973 -0.604193 0.275404 0
M  V30 332 H 36.0273 -1.5141 1.37609 0
M  V30 333 H 36.0373 -3.94004 1.05947 0
M  V30 334 H 34.7123 -3.56146 2.14786 0
M  V30 335 H 33.2893 -3.715 0.322842 0
M  V30 336 N 35.4744 -0.807222 -1.35358 0
M  V30 337 C 36.8904 -0.491038 -1.51858 0
M  V30 338 C 37.0904 0.987648 -1.75635 0
M  V30 339 O 36.1464 1.77265 -1.79815 0
M  V30 340 C 37.4594 -1.33695 -2.69344 0
M  V30 341 C 39.0074 -1.33246 -2.83222 0
M  V30 342 C 39.4824 -2.1625 -4.03733 0
M  V30 343 N 40.9734 -2.1379 -4.10911 0
M  V30 344 C 41.7084 -2.74772 -5.03277 0
M  V30 345 N 41.2044 -3.44684 -6.0097 0
M  V30 346 N 42.9974 -2.6441 -4.96028 0
M  V30 347 H 35.1484 -1.76485 -1.18181 0
M  V30 348 H 37.4114 -0.751199 -0.578276 0
M  V30 349 H 37.1174 -2.38634 -2.58354 0
M  V30 350 H 36.9914 -0.990618 -3.6396 0
M  V30 351 H 39.3784 -0.290911 -2.93663 0
M  V30 352 H 39.4594 -1.71866 -1.89461 0
M  V30 353 H 39.1034 -3.20445 -3.94052 0
M  V30 354 H 39.0334 -1.74989 -4.96675 0
M  V30 355 H 41.5244 -1.62923 -3.40976 0
M  V30 356 H 41.8374 -3.88501 -6.68047 0
M  V30 357 H 40.1824 -3.48788 -6.01142 0
M  V30 358 H 43.3734 -2.0938 -4.18662 0
M  V30 359 H 43.5464 -3.12225 -5.6782 0
M  V30 360 N 36.9525 1.47285 -0.560781 0
M  V30 361 C 37.9025 2.27073 0.205384 0
M  V30 362 C 38.8865 1.34569 0.882044 0
M  V30 363 O 40.0785 1.58899 0.77976 0
M  V30 364 C 37.2075 3.20414 1.23247 0
M  V30 365 C 36.2935 4.20399 0.559041 0
M  V30 366 N 36.6845 5.04423 -0.372927 0
M  V30 367 C 34.9825 4.38536 0.812522 0
M  V30 368 C 35.6835 5.76655 -0.764446 0
M  V30 369 N 34.6595 5.43471 -0.11848 0
M  V30 370 H 38.4615 2.89422 -0.511117 0
M  V30 371 H 35.9755 1.57868 -0.380975 0
M  V30 372 H 37.9725 3.76262 1.79534 0
M  V30 373 H 36.6325 2.59623 1.95002 0
M  V30 374 H 37.6435 5.1248 -0.747287 0
M  V30 375 H 34.3205 3.88913 1.51832 0
M  V30 376 H 35.7105 6.54238 -1.53045 0
M  V30 377 N 38.4306 0.297415 1.54768 0
M  V30 378 C 39.3406 -0.58983 2.27064 0
M  V30 379 C 40.3566 -1.15144 1.30453 0
M  V30 380 O 41.5326 -1.17699 1.63428 0
M  V30 381 C 38.5976 -1.74714 2.9946 0
M  V30 382 C 37.6586 -1.21997 4.11601 0
M  V30 383 C 36.8916 -2.32212 4.80535 0
M  V30 384 O 37.1146 -3.52036 4.48806 0
M  V30 385 O 36.0486 -1.99106 5.68014 0
M  V30 386 H 39.8746 -0.00348199 3.037 0
M  V30 387 H 37.4596 0.0640035 1.49263 0
M  V30 388 H 39.3416 -2.42147 3.44881 0
M  V30 389 H 38.0166 -2.32016 2.25722 0
M  V30 390 H 36.9236 -0.511458 3.70587 0
M  V30 391 H 38.2566 -0.692419 4.87305 0
M  V30 392 N 39.9087 -1.5758 0.0250728 0
M  V30 393 C 40.8557 -2.09973 -0.958129 0
M  V30 394 C 41.8257 -1.00085 -1.3256 0
M  V30 395 O 43.0107 -1.27481 -1.41962 0
M  V30 396 C 40.1507 -2.62812 -2.2366 0
M  V30 397 C 39.2637 -3.86693 -1.92594 0
M  V30 398 C 38.3987 -4.27941 -3.14707 0
M  V30 399 C 37.4377 -5.44591 -2.79442 0
M  V30 400 N 36.5747 -5.81014 -3.94167 0
M  V30 401 H 41.4147 -2.937 -0.504428 0
M  V30 402 H 38.9517 -1.45172 -0.237392 0
M  V30 403 H 40.9097 -2.91536 -2.98434 0
M  V30 404 H 39.5397 -1.81922 -2.66654 0
M  V30 405 H 38.5917 -3.64723 -1.0808 0
M  V30 406 H 39.9037 -4.71547 -1.62619 0
M  V30 407 H 39.0577 -4.58079 -3.97804 0
M  V30 408 H 37.7967 -3.41845 -3.4784 0
M  V30 409 H 36.8017 -5.1415 -1.94755 0
M  V30 410 H 38.0267 -6.32382 -2.47528 0
M  V30 411 H 35.9727 -4.97874 -4.2715 0
M  V30 412 H 35.8897 -6.60498 -3.67801 0
M  V30 413 H 37.1577 -6.15756 -4.7798 0
M  V30 414 N 41.3868 0.248026 -1.55636 0
M  V30 415 C 42.6328 0.97767 -1.77678 0
M  V30 416 C 42.9658 1.85016 -0.590135 0
M  V30 417 O 42.2408 1.90095 0.411611 0
M  V30 418 C 42.5238 1.83914 -3.09593 0
M  V30 419 C 42.3768 0.99491 -4.38659 0
M  V30 420 C 43.6958 2.82183 -3.37729 0
M  V30 421 H 40.8148 0.354005 -0.646413 0
M  V30 422 H 43.4568 0.248253 -1.88371 0
M  V30 423 H 41.6068 2.46104 -3.00608 0
M  V30 424 H 43.2788 0.391789 -4.59633 0
M  V30 425 H 41.5218 0.299231 -4.32767 0
M  V30 426 H 42.1928 1.63145 -5.2734 0
M  V30 427 H 44.6688 2.30129 -3.4667 0
M  V30 428 H 43.5448 3.39582 -4.31249 0
M  V30 429 H 43.8058 3.58588 -2.58586 0
M  V30 430 N 42.8649 1.48995 0.513639 0
M  V30 431 C 43.8129 1.65199 1.63744 0
M  V30 432 C 44.8069 0.51809 1.61283 0
M  V30 433 O 46.0129 0.697335 1.65943 0
M  V30 434 H 42.3879 0.52069 0.542574 0
M  V30 435 H 44.3589 2.59552 1.47226 0
M  V30 436 C 43.1079 1.72409 3.01945 0
M  V30 437 H 42.4309 2.59029 3.04539 0
M  V30 438 H 43.8709 1.87785 3.80148 0
M  V30 439 C 42.3299 0.46618 3.33659 0
M  V30 440 O 42.8599 -0.413744 3.99564 0
M  V30 441 N 41.0659 0.332931 2.88687 0
M  V30 442 H 40.6129 1.04996 2.35231 0
M  V30 443 H 40.5709 -0.507665 3.10274 0
M  V30 444 N 44.343 -0.763751 1.37857 0
M  V30 445 C 45.591 -1.51957 1.33243 0
M  V30 446 C 45.912 -1.94835 -0.0801709 0
M  V30 447 O 45.182 -1.66894 -1.02582 0
M  V30 448 H 43.762 -0.563626 0.49024 0
M  V30 449 H 46.424 -0.908504 1.7243 0
M  V30 450 H 45.52 -2.41523 1.97669 0
M  V30 451 N 45.8211 -1.22559 -0.990812 0
M  V30 452 C 46.7511 -1.0218 -2.09956 0
M  V30 453 C 47.7321 0.0579394 -1.70001 0
M  V30 454 O 48.9171 -0.104684 -1.93918 0
M  V30 455 C 46.0471 -0.601023 -3.4206 0
M  V30 456 C 45.0011 -1.62694 -3.95872 0
M  V30 457 C 44.3271 -1.06193 -5.24049 0
M  V30 458 C 45.6271 -3.01743 -4.2632 0
M  V30 459 H 47.3211 -1.94916 -2.27262 0
M  V30 460 H 44.8671 -0.938566 -1.09211 0
M  V30 461 H 46.8201 -0.445561 -4.19038 0
M  V30 462 H 45.5441 0.362005 -3.24588 0
M  V30 463 H 44.2031 -1.77021 -3.21028 0
M  V30 464 H 43.8511 -0.0901903 -5.02919 0
M  V30 465 H 43.5511 -1.74732 -5.61019 0
M  V30 466 H 45.0751 -0.918092 -6.03658 0
M  V30 467 H 46.4891 -2.90777 -4.94087 0
M  V30 468 H 44.8861 -3.67425 -4.74467 0
M  V30 469 H 45.9561 -3.51518 -3.34011 0
M  V30 470 N 47.2992 1.18797 -1.03562 0
M  V30 471 C 48.2092 2.25913 -0.632505 0
M  V30 472 C 49.2252 1.70668 0.338882 0
M  V30 473 O 50.4012 2.00453 0.195076 0
M  V30 474 C 47.4662 3.467 0.00350942 0
M  V30 475 C 46.5272 4.17098 -1.01624 0
M  V30 476 C 45.7602 5.32119 -0.410478 0
M  V30 477 O 45.9832 5.64976 0.784725 0
M  V30 478 O 44.9172 5.9107 -1.13667 0
M  V30 479 H 48.7432 2.62648 -1.52478 0
M  V30 480 H 46.3282 1.25781 -0.806195 0
M  V30 481 H 48.2102 4.19878 0.35781 0
M  V30 482 H 46.8852 3.11798 0.869686 0
M  V30 483 H 45.7922 3.4601 -1.42224 0
M  V30 484 H 47.1252 4.55987 -1.85301 0
M  V30 485 N 48.7773 0.814389 1.34928 0
M  V30 486 C 49.6873 0.231978 2.3345 0
M  V30 487 C 50.7033 -0.629139 1.62228 0
M  V30 488 O 51.8793 -0.539052 1.94052 0
M  V30 489 C 48.9443 -0.603482 3.41407 0
M  V30 490 C 48.0053 0.279037 4.28392 0
M  V30 491 C 47.2383 -0.516643 5.31193 0
M  V30 492 O 47.4613 -1.75068 5.4287 0
M  V30 493 O 46.3953 0.0965652 6.01823 0
M  V30 494 H 50.2213 1.04721 2.85074 0
M  V30 495 H 47.8063 0.576343 1.37836 0
M  V30 496 H 49.6883 -1.07908 4.0735 0
M  V30 497 H 48.3633 -1.39618 2.92042 0
M  V30 498 H 47.2703 0.801948 3.65403 0
M  V30 499 H 48.6033 1.03588 4.81176 0
M  V30 500 N 50.2554 -1.46986 0.568584 0
M  V30 501 C 51.5034 -2.02041 0.0487022 0
M  V30 502 C 51.8244 -1.44408 -1.31039 0
M  V30 503 O 51.0944 -0.623477 -1.85714 0
M  V30 504 H 49.6744 -0.746849 0.015014 0
M  V30 505 H 52.3364 -1.80257 0.741168 0
M  V30 506 H 51.4324 -3.12085 -0.0308961 0
M  V30 507 N 51.7335 -0.305618 -1.54608 0
M  V30 508 C 52.9795 0.302746 -2.00528 0
M  V30 509 C 53.3125 1.53184 -1.19367 0
M  V30 510 O 52.5875 1.92598 -0.271321 0
M  V30 511 C 52.8705 0.654756 -3.54097 0
M  V30 512 C 52.7235 -0.583793 -4.45995 0
M  V30 513 C 54.0425 1.47947 -4.14487 0
M  V30 514 H 51.1615 0.108564 -0.72896 0
M  V30 515 H 53.8035 -0.418634 -1.85331 0
M  V30 516 H 51.9535 1.26935 -3.67178 0
M  V30 517 H 53.6255 -1.22224 -4.44814 0
M  V30 518 H 51.8685 -1.21615 -4.16404 0
M  V30 519 H 52.5395 -0.293287 -5.5122 0
M  V30 520 H 55.0155 0.96013 -4.04871 0
M  V30 521 H 53.8915 1.69454 -5.22088 0
M  V30 522 H 54.1525 2.47011 -3.66658 0
M  V30 523 N 53.2116 1.57565 -0.0334293 0
M  V30 524 C 54.1216 2.13943 0.962572 0
M  V30 525 C 55.1376 1.09276 1.35406 0
M  V30 526 O 56.3136 1.41355 1.4346 0
M  V30 527 C 53.3786 2.65887 2.22497 0
M  V30 528 C 52.4396 3.85286 1.8935 0
M  V30 529 C 51.6726 4.34743 3.09571 0
M  V30 530 O 51.8956 3.83352 4.22371 0
M  V30 531 O 50.8296 5.26538 2.91618 0
M  V30 532 H 54.6556 2.99333 0.513169 0
M  V30 533 H 52.2406 1.4822 0.18743 0
M  V30 534 H 54.1226 2.99346 2.96598 0
M  V30 535 H 52.7976 1.83578 2.6661 0
M  V30 536 H 51.7046 3.56746 1.1262 0
M  V30 537 H 53.0376 4.68771 1.5005 0
M  V30 538 N 54.6897 -0.239769 1.55765 0
M  V30 539 C 55.9367 -0.966801 1.7793 0
M  V30 540 C 56.2647 -1.85046 0.599015 0
M  V30 541 O 55.5197 -1.91197 -0.417395 0
M  V30 542 C 55.8187 -1.852 3.05672 0
M  V30 543 C 55.4847 -1.1231 4.36689 0
M  V30 544 C 54.1467 -0.921689 4.72291 0
M  V30 545 C 56.4987 -0.607019 5.17653 0
M  V30 546 C 53.8267 -0.191996 5.86386 0
M  V30 547 C 56.1787 0.109241 6.32506 0
M  V30 548 C 54.8427 0.322073 6.66723 0
M  V30 549 H 54.1127 -0.353778 0.651093 0
M  V30 550 H 56.7597 -0.23634 1.90036 0
M  V30 551 H 55.0647 -2.64975 2.8861 0
M  V30 552 H 56.7617 -2.41635 3.20021 0
M  V30 553 H 53.3517 -1.29004 4.08725 0
M  V30 554 H 57.5357 -0.750153 4.90598 0
M  V30 555 H 52.7917 -0.0166949 6.11398 0
M  V30 556 H 56.9657 0.516737 6.9448 0
M  V30 557 H 54.5927 0.88944 7.54979 0
M  V30 558 N 56.1678 -1.49265 -0.50573 0
M  V30 559 C 57.0978 -1.68495 -1.61653 0
M  V30 560 C 58.0788 -0.53366 -1.61512 0
M  V30 561 O 59.2638 -0.76897 -1.78327 0
M  V30 562 C 56.3938 -1.74709 -3.00157 0
M  V30 563 C 55.3478 -2.89581 -3.15162 0
M  V30 564 C 54.6738 -2.80903 -4.5497 0
M  V30 565 C 55.9738 -4.30578 -2.95634 0
M  V30 566 H 57.6678 -2.61493 -1.45814 0
M  V30 567 H 55.2138 -1.25838 -0.70005 0
M  V30 568 H 57.1668 -1.86748 -3.77761 0
M  V30 569 H 55.8908 -0.783067 -3.17074 0
M  V30 570 H 54.5498 -2.77136 -2.39982 0
M  V30 571 H 54.1978 -1.82419 -4.68756 0
M  V30 572 H 53.8978 -3.57999 -4.65951 0
M  V30 573 H 55.4218 -2.94944 -5.34641 0
M  V30 574 H 56.8358 -4.4373 -3.63011 0
M  V30 575 H 55.2328 -5.0886 -3.18091 0
M  V30 576 H 56.3028 -4.45352 -1.91806 0
M  V30 577 N 57.6459 0.756429 -1.3826 0
M  V30 578 C 59.0569 1.33359 -1.30661 0
M  V30 579 C 59.4079 1.96161 0.0388875 0
M  V30 580 O 58.5329 1.94874 0.940918 0
M  V30 581 C 59.1279 2.42477 -2.36622 0
M  V30 582 C 57.6869 2.95922 -2.3261 0
M  V30 583 C 56.8339 1.69275 -2.19639 0
M  V30 584 H 59.7849 0.55552 -1.4866 0
M  V30 585 H 59.8059 3.22345 -2.02174 0
M  V30 586 H 59.3179 1.96739 -3.34538 0
M  V30 587 H 57.4189 3.45996 -1.38267 0
M  V30 588 H 57.5319 3.50494 -3.26636 0
M  V30 589 H 55.8959 1.92793 -1.66442 0
M  V30 590 H 56.6789 1.25619 -3.19491 0
M  V30 591 N 59.124 1.23083 0.984299 0
M  V30 592 C 60.37 1.06214 1.72761 0
M  V30 593 C 60.703 -0.400584 1.90024 0
M  V30 594 O 59.978 -1.29672 1.44967 0
M  V30 595 C 60.261 1.78375 3.12817 0
M  V30 596 C 60.114 3.32296 3.03149 0
M  V30 597 C 61.433 1.54309 4.12161 0
M  V30 598 H 58.552 0.387251 0.627061 0
M  V30 599 H 61.194 1.51536 1.14616 0
M  V30 600 H 59.344 1.39848 3.62457 0
M  V30 601 H 61.016 3.8032 2.61064 0
M  V30 602 H 59.259 3.6153 2.39747 0
M  V30 603 H 59.93 3.77972 4.02295 0
M  V30 604 H 62.406 1.87791 3.71314 0
M  V30 605 H 61.282 2.07281 5.08258 0
M  V30 606 H 61.543 0.477572 4.39513 0
M  V30 607 N 60.6021 -1.18246 1.0419 0
M  V30 608 C 61.5501 -2.23968 0.627792 0
M  V30 609 C 62.5441 -1.65828 -0.346019 0
M  V30 610 O 63.7501 -1.78733 -0.213175 0
M  V30 611 H 60.1251 -0.728939 0.184802 0
M  V30 612 H 62.0961 -2.56202 1.52981 0
M  V30 613 C 60.8451 -3.47699 0.00796591 0
M  V30 614 H 60.1681 -3.92734 0.748347 0
M  V30 615 H 61.6081 -4.23294 -0.24455 0
M  V30 616 C 60.0671 -3.13153 -1.24246 0
M  V30 617 O 60.5971 -3.27003 -2.33307 0
M  V30 618 N 58.8031 -2.67467 -1.13622 0
M  V30 619 H 58.3501 -2.56396 -0.248734 0
M  V30 620 H 58.3081 -2.44724 -1.97377 0
M  V30 621 N 62.0802 -0.821533 -1.34494 0
M  V30 622 C 63.0282 -0.230702 -2.31453 0
M  V30 623 C 64.0222 0.627793 -1.57338 0
M  V30 624 O 65.2282 0.519288 -1.72347 0
M  V30 625 H 61.6032 -0.0558577 -0.749923 0
M  V30 626 H 63.5742 -1.06332 -2.78812 0
M  V30 627 C 62.3232 0.59391 -3.4259 0
M  V30 628 H 61.6462 -0.0573588 -3.99759 0
M  V30 629 H 63.0862 0.973446 -4.12674 0
M  V30 630 C 61.5452 1.76568 -2.86924 0
M  V30 631 O 62.0752 2.8638 -2.81691 0
M  V30 632 N 60.2812 1.58198 -2.43766 0
M  V30 633 H 59.8282 0.68872 -2.48222 0
M  V30 634 H 59.7862 2.36752 -2.06871 0
M  V30 635 N 63.5583 1.46682 -0.576371 0
M  V30 636 C 64.8043 2.02712 -0.0596221 0
M  V30 637 C 65.1373 1.44765 1.29448 0
M  V30 638 O 64.4123 0.610355 1.84675 0
M  V30 639 C 64.6953 3.60098 0.0129503 0
M  V30 640 C 64.5483 4.28441 -1.3696 0
M  V30 641 C 65.8673 4.34224 0.71678 0
M  V30 642 H 62.9863 0.736637 -0.0231407 0
M  V30 643 H 65.6283 1.74898 -0.742351 0
M  V30 644 H 63.7783 3.83926 0.594378 0
M  V30 645 H 65.4503 4.15896 -1.9957 0
M  V30 646 H 63.6933 3.8805 -1.93907 0
M  V30 647 H 64.3643 5.3716 -1.27135 0
M  V30 648 H 66.8403 4.15503 0.222908 0
M  V30 649 H 65.7163 5.43936 0.73657 0
M  V30 650 H 65.9773 4.04823 1.77682 0
M  V30 651 N 65.0364 0.313813 1.54444 0
M  V30 652 C 65.9834 -0.55655 2.23989 0
M  V30 653 C 66.9534 -1.11943 1.22711 0
M  V30 654 O 68.1384 -1.16158 1.51367 0
M  V30 655 C 65.2784 -1.71635 2.99392 0
M  V30 656 C 64.3914 -1.18364 4.15468 0
M  V30 657 C 63.5264 -2.30834 4.78424 0
M  V30 658 C 62.5654 -1.74762 5.86622 0
M  V30 659 N 61.7024 -2.80855 6.43479 0
M  V30 660 H 66.5424 0.0430893 2.97969 0
M  V30 661 H 64.0794 0.0330359 1.47063 0
M  V30 662 H 66.0374 -2.39868 3.41349 0
M  V30 663 H 64.6674 -2.28742 2.27765 0
M  V30 664 H 63.7194 -0.393163 3.78363 0
M  V30 665 H 65.0314 -0.733262 4.93381 0
M  V30 666 H 64.1854 -3.0699 5.23299 0
M  V30 667 H 62.9244 -2.79204 3.99871 0
M  V30 668 H 61.9294 -0.970995 5.41158 0
M  V30 669 H 63.1544 -1.2728 6.67066 0
M  V30 670 H 61.1004 -3.28535 5.67804 0
M  V30 671 H 61.0174 -2.40351 7.16776 0
M  V30 672 H 62.2854 -3.5687 6.93011 0
M  V30 673 N 66.5145 -1.57545 0.0417849 0
M  V30 674 C 67.4615 -2.10977 -0.935805 0
M  V30 675 C 68.4315 -1.01486 -1.31491 0
M  V30 676 O 69.6165 -1.2898 -1.40602 0
M  V30 677 C 66.7565 -2.65169 -2.2086 0
M  V30 678 C 65.8695 -3.88714 -1.88482 0
M  V30 679 C 65.0045 -4.31254 -3.1015 0
M  V30 680 C 64.0435 -5.47524 -2.7365 0
M  V30 681 N 63.1805 -5.85162 -3.87982 0
M  V30 682 H 68.0205 -2.94218 -0.473249 0
M  V30 683 H 65.5575 -1.45415 -0.221981 0
M  V30 684 H 67.5155 -2.94685 -2.95325 0
M  V30 685 H 66.1455 -1.8474 -2.64709 0
M  V30 686 H 65.1975 -3.65849 -1.04205 0
M  V30 687 H 66.5095 -4.73245 -1.57608 0
M  V30 688 H 65.6635 -4.62273 -3.92923 0
M  V30 689 H 64.4025 -3.45516 -3.44195 0
M  V30 690 H 63.4075 -5.16187 -1.89291 0
M  V30 691 H 64.6325 -6.34971 -2.40807 0
M  V30 692 H 62.5785 -5.02377 -4.21846 0
M  V30 693 H 62.4955 -6.64362 -3.60775 0
M  V30 694 H 63.7635 -6.20791 -4.71422 0
M  V30 695 N 67.9926 0.231505 -1.5589 0
M  V30 696 C 69.2386 0.95877 -1.78705 0
M  V30 697 C 69.5716 1.8438 -0.609725 0
M  V30 698 O 68.8466 1.90521 0.391426 0
M  V30 699 C 69.1296 1.8062 -3.11526 0
M  V30 700 C 68.9826 0.948328 -4.39689 0
M  V30 701 C 70.3016 2.78585 -3.40703 0
M  V30 702 H 67.4206 0.347129 -0.650131 0
M  V30 703 H 70.0626 0.228259 -1.88624 0
M  V30 704 H 68.2126 2.42902 -3.03201 0
M  V30 705 H 69.8846 0.343016 -4.60023 0
M  V30 706 H 68.1276 0.253314 -4.3306 0
M  V30 707 H 68.7986 1.57543 -5.29041 0
M  V30 708 H 71.2746 2.26439 -3.49091 0
M  V30 709 H 70.1506 3.34988 -4.34826 0
M  V30 710 H 70.4116 3.55825 -2.62375 0
M  V30 711 N 69.4707 1.49531 0.497807 0
M  V30 712 C 70.3807 1.69176 1.62532 0
M  V30 713 C 71.3967 0.5744 1.64246 0
M  V30 714 O 72.5727 0.849497 1.82608 0
M  V30 715 C 69.6377 1.75695 2.98885 0
M  V30 716 C 68.6987 2.9929 3.07773 0
M  V30 717 C 67.9317 3.05488 4.37622 0
M  V30 718 O 68.1547 2.19192 5.26603 0
M  V30 719 O 67.0887 3.9798 4.51548 0
M  V30 720 H 70.9147 2.647 1.48887 0
M  V30 721 H 68.4997 1.3331 0.674441 0
M  V30 722 H 70.3817 1.82317 3.79919 0
M  V30 723 H 69.0567 0.8335 3.12785 0
M  V30 724 H 67.9637 2.98183 2.25915 0
M  V30 725 H 69.2967 3.91125 2.98801 0
M  V30 726 N 70.9488 -0.749086 1.3866 0
M  V30 727 C 71.8958 -1.86291 1.36251 0
M  V30 728 C 72.8658 -1.64578 0.224347 0
M  V30 729 O 74.0508 -1.86181 0.417279 0
M  V30 730 C 71.1908 -3.23644 1.19786 0
M  V30 731 C 70.3038 -3.57158 2.43027 0
M  V30 732 C 69.4388 -4.83838 2.19258 0
M  V30 733 C 68.4778 -5.10152 3.38247 0
M  V30 734 N 67.6148 -6.28029 3.13884 0
M  V30 735 H 72.4548 -1.87685 2.3147 0
M  V30 736 H 69.9918 -0.917287 1.14997 0
M  V30 737 H 71.9498 -4.0291 1.08254 0
M  V30 738 H 70.5798 -3.21566 0.282031 0
M  V30 739 H 69.6318 -2.72701 2.65214 0
M  V30 740 H 70.9438 -3.7253 3.31697 0
M  V30 741 H 70.0978 -5.71057 2.04888 0
M  V30 742 H 68.8368 -4.70614 1.2796 0
M  V30 743 H 67.8418 -4.21401 3.53131 0
M  V30 744 H 69.0668 -5.25271 4.30427 0
M  V30 745 H 67.0128 -6.1612 2.25238 0
M  V30 746 H 66.9298 -6.43922 3.96106 0
M  V30 747 H 68.1978 -7.18124 3.03179 0
M  V30 748 N 72.4269 -1.23603 -0.977757 0
M  V30 749 C 73.3769 -0.986664 -2.05545 0
M  V30 750 C 74.3609 0.0683009 -1.60755 0
M  V30 751 O 75.5529 -0.144162 -1.76412 0
M  V30 752 C 72.6819 -0.582623 -3.3832 0
M  V30 753 C 71.7679 -1.67313 -3.89701 0
M  V30 754 N 72.1589 -2.90394 -4.14132 0
M  V30 755 C 70.4569 -1.54832 -4.18262 0
M  V30 756 C 71.1579 -3.61017 -4.56116 0
M  V30 757 N 70.1339 -2.8854 -4.60701 0
M  V30 758 H 73.9359 -1.92139 -2.22396 0
M  V30 759 H 71.4499 -1.1358 -1.16074 0
M  V30 760 H 73.4469 -0.38524 -4.15116 0
M  V30 761 H 72.1069 0.34503 -3.22862 0
M  V30 762 H 73.1179 -3.26673 -4.01877 0
M  V30 763 H 69.7949 -0.687969 -4.11793 0
M  V30 764 H 71.1849 -4.66544 -4.83514 0
M  V30 765 N 73.905 1.17692 -1.04816 0
M  V30 766 C 75.153 1.87488 -0.754497 0
M  V30 767 C 75.474 1.81205 0.720407 0
M  V30 768 O 74.744 1.23544 1.52032 0
M  V30 769 H 73.324 0.694101 -0.276102 0
M  V30 770 H 75.986 1.42793 -1.32651 0
M  V30 771 H 75.082 2.93328 -1.06606 0
M  V30 772 N 75.3831 0.828654 1.34056 0
M  V30 773 C 76.7941 0.477534 1.8049 0
M  V30 774 C 77.1451 -1.00258 1.6865 0
M  V30 775 O 76.2701 -1.78057 1.22982 0
M  V30 776 C 76.8651 0.860018 3.27703 0
M  V30 777 C 75.4241 0.561185 3.72193 0
M  V30 778 C 74.5711 1.07385 2.55663 0
M  V30 779 H 77.5221 1.0183 1.21722 0
M  V30 780 H 77.5431 0.166038 3.80138 0
M  V30 781 H 77.0551 1.93731 3.36288 0
M  V30 782 H 75.1561 -0.506465 3.69142 0
M  V30 783 H 75.2691 1.10926 4.66082 0
M  V30 784 H 73.6331 0.495149 2.49841 0
M  V30 785 H 74.4161 2.15771 2.67016 0
M  V30 786 N 76.8612 -1.46375 0.584142 0
M  V30 787 C 78.1092 -2.01978 0.0701287 0
M  V30 788 C 78.4302 -1.4579 -1.295 0
M  V30 789 O 77.7002 -0.64314 -1.85042 0
M  V30 790 H 76.2802 -0.746648 0.0229345 0
M  V30 791 H 78.9422 -1.79461 0.760245 0
M  V30 792 H 78.0382 -3.121 0.0022064 0
M  V30 793 N 78.3393 -0.321999 -1.54275 0
M  V30 794 C 79.7553 0.0306999 -1.5957 0
M  V30 795 C 79.9553 1.50614 -1.33857 0
M  V30 796 O 79.0113 2.2619 -1.12223 0
M  V30 797 C 80.3243 -0.386122 -2.98211 0
M  V30 798 C 81.8723 -0.336647 -3.11184 0
M  V30 799 C 82.3473 -0.728607 -4.52167 0
M  V30 800 N 83.8383 -0.681952 -4.58152 0
M  V30 801 C 84.5733 -0.957449 -5.6535 0
M  V30 802 N 84.0693 -1.3 -6.80494 0
M  V30 803 N 85.8623 -0.883113 -5.55119 0
M  V30 804 H 78.0133 -1.28332 -1.69247 0
M  V30 805 H 80.2763 -0.521716 -0.791528 0
M  V30 806 H 79.9823 -1.41404 -3.22022 0
M  V30 807 H 79.8563 0.249662 -3.76373 0
M  V30 808 H 82.2433 0.682058 -2.8711 0
M  V30 809 H 82.3243 -1.00734 -2.3513 0
M  V30 810 H 81.9683 -1.74522 -4.76974 0
M  V30 811 H 81.8983 -0.0356152 -5.26588 0
M  V30 812 H 84.3893 -0.428985 -3.75457 0
M  V30 813 H 84.7023 -1.49563 -7.58189 0
M  V30 814 H 83.0473 -1.33824 -6.81994 0
M  V30 815 H 86.2383 -0.615001 -4.64042 0
M  V30 816 H 86.4113 -1.10118 -6.38575 0
M  V30 817 N 79.8174 1.5752 -0.0501392 0
M  V30 818 C 81.0634 1.93755 0.618901 0
M  V30 819 C 81.4184 0.928514 1.68512 0
M  V30 820 O 80.7114 -0.0524613 1.91528 0
M  V30 821 C 80.9054 3.34467 1.25963 0
M  V30 822 C 80.7344 4.48965 0.257 0
M  V30 823 C 79.5044 5.05075 -0.150656 0
M  V30 824 C 81.7024 5.11891 -0.497166 0
M  V30 825 N 79.6844 6.03104 -1.14626 0
M  V30 826 C 81.0554 6.05216 -1.34588 0
M  V30 827 C 83.1104 4.9479 -0.55559 0
M  V30 828 C 81.8134 6.83277 -2.24778 0
M  V30 829 C 83.8394 5.73477 -1.44492 0
M  V30 830 C 83.2014 6.66433 -2.28136 0
M  V30 831 H 79.3004 0.756479 0.198149 0
M  V30 832 H 81.8844 1.94316 -0.122229 0
M  V30 833 H 80.0554 3.34685 1.97079 0
M  V30 834 H 81.7874 3.57994 1.88739 0
M  V30 835 H 78.5424 4.7305 0.228094 0
M  V30 836 H 78.9664 6.56813 -1.64092 0
M  V30 837 H 83.6084 4.2273 0.0768625 0
M  V30 838 H 81.3264 7.54629 -2.89069 0
M  V30 839 H 84.9124 5.62273 -1.49468 0
M  V30 840 H 83.7924 7.26258 -2.95835 0
M  V30 841 N 81.2955 -0.223234 1.56011 0
M  V30 842 C 82.5415 -0.949279 1.79211 0
M  V30 843 C 82.8745 -1.84054 0.619494 0
M  V30 844 O 82.1495 -1.90726 -0.381317 0
M  V30 845 C 82.4325 -1.78965 3.12479 0
M  V30 846 C 82.2855 -0.924997 4.40186 0
M  V30 847 C 83.6045 -2.76774 3.42175 0
M  V30 848 H 80.7235 -0.343676 0.651963 0
M  V30 849 H 83.3655 -0.218253 1.88742 0
M  V30 850 H 81.5155 -2.41291 3.04485 0
M  V30 851 H 83.1875 -0.318615 4.60198 0
M  V30 852 H 81.4305 -0.230344 4.33188 0
M  V30 853 H 82.1015 -1.54735 5.29869 0
M  V30 854 H 84.5775 -2.24584 3.50287 0
M  V30 855 H 83.4535 -3.32678 4.36597 0
M  V30 856 H 83.7145 -3.54429 2.64258 0
M  V30 857 N 82.7736 -1.49793 -0.48987 0
M  V30 858 C 84.0196 -1.60078 -1.24511 0
M  V30 859 C 84.3526 -0.291608 -1.91998 0
M  V30 860 O 83.6276 0.705647 -1.81248 0
M  V30 861 C 83.9106 -2.76791 -2.30345 0
M  V30 862 C 83.7636 -4.17535 -1.67286 0
M  V30 863 C 85.0826 -2.89111 -3.31817 0
M  V30 864 H 82.2016 -0.582645 -0.451324 0
M  V30 865 H 84.8436 -1.82117 -0.541612 0
M  V30 866 H 82.9936 -2.5813 -2.90346 0
M  V30 867 H 84.6656 -4.4774 -1.11026 0
M  V30 868 H 82.9086 -4.22665 -0.976577 0
M  V30 869 H 83.5796 -4.95094 -2.44103 0
M  V30 870 H 86.0556 -3.06133 -2.81819 0
M  V30 871 H 84.9316 -3.72433 -4.03219 0
M  V30 872 H 85.1926 -1.9893 -3.94815 0
M  V30 873 N 84.2517 0.741722 -1.39055 0
M  V30 874 C 85.1817 1.869 -1.39966 0
M  V30 875 C 86.1627 1.6804 -0.26392 0
M  V30 876 O 87.3477 1.88458 -0.468755 0
M  V30 877 C 84.4777 3.24572 -1.23574 0
M  V30 878 C 83.4317 3.58056 -2.34477 0
M  V30 879 C 82.7577 4.94593 -2.0318 0
M  V30 880 C 84.0577 3.61716 -3.76774 0
M  V30 881 H 85.7517 1.86395 -2.34302 0
M  V30 882 H 83.2977 0.895361 -1.1278 0
M  V30 883 H 85.2507 4.031 -1.22834 0
M  V30 884 H 83.9747 3.25587 -0.257045 0
M  V30 885 H 82.6337 2.81854 -2.34423 0
M  V30 886 H 82.2817 4.92181 -1.03765 0
M  V30 887 H 81.9817 5.17964 -2.77465 0
M  V30 888 H 83.5057 5.75486 -2.04079 0
M  V30 889 H 84.9197 4.30335 -3.78794 0
M  V30 890 H 83.3167 3.96603 -4.50362 0
M  V30 891 H 84.3867 2.61672 -4.08235 0
M  V30 892 N 85.7298 1.2412 0.971189 0
M  V30 893 C 86.6928 1.03156 2.04674 0
M  V30 894 C 87.6928 -0.00990322 1.60797 0
M  V30 895 O 88.8828 0.230729 1.72665 0
M  V30 896 C 86.0148 0.562765 3.36223 0
M  V30 897 H 87.2078 1.98614 2.24705 0
M  V30 898 H 84.7608 1.06293 1.14593 0
M  V30 899 H 85.4958 -0.395176 3.21883 0
M  V30 900 H 85.2808 1.31441 3.69413 0
M  V30 901 H 86.7708 0.437015 4.15307 0
M  V30 902 N 87.2079 -1.17134 1.05439 0
M  V30 903 C 88.1709 -2.19439 0.661764 0
M  V30 904 C 89.1709 -1.58199 -0.288042 0
M  V30 905 O 90.3609 -1.74053 -0.0715803 0
M  V30 906 C 87.4929 -3.40889 -0.0276209 0
M  V30 907 H 88.6859 -2.55688 1.56728 0
M  V30 908 H 86.2389 -1.31259 0.848567 0
M  V30 909 H 86.9739 -3.10187 -0.94629 0
M  V30 910 H 86.7589 -3.86586 0.655238 0
M  V30 911 H 88.2489 -4.16603 -0.288342 0
M  V30 912 N 88.686 -0.835752 -1.33615 0
M  V30 913 C 89.932 -0.430596 -1.98176 0
M  V30 914 C 90.265 1.00684 -1.66061 0
M  V30 915 O 89.54 1.70339 -0.938877 0
M  V30 916 C 89.823 -0.648065 -3.5422 0
M  V30 917 C 89.676 -2.13255 -3.96033 0
M  V30 918 C 90.995 -0.0922113 -4.40003 0
M  V30 919 H 88.114 -0.157924 -0.719881 0
M  V30 920 H 90.756 -1.05069 -1.58305 0
M  V30 921 H 88.906 -0.120237 -3.88314 0
M  V30 922 H 90.578 -2.725 -3.72211 0
M  V30 923 H 88.821 -2.61823 -3.45878 0
M  V30 924 H 89.492 -2.23547 -5.04708 0
M  V30 925 H 91.968 -0.543343 -4.12537 0
M  V30 926 H 90.844 -0.274083 -5.48215 0
M  V30 927 H 91.105 1.00378 -4.30554 0
M  V30 928 N 90.1641 1.46063 -0.591896 0
M  V30 929 C 91.0941 2.33172 0.123673 0
M  V30 930 C 92.0751 1.45897 0.87453 0
M  V30 931 O 93.2601 1.74698 0.848181 0
M  V30 932 C 90.3901 3.28336 1.13194 0
M  V30 933 C 89.3441 4.25124 0.495324 0
M  V30 934 C 88.6701 5.09863 1.61071 0
M  V30 935 C 89.9701 5.19143 -0.573425 0
M  V30 936 H 91.6641 2.93252 -0.603646 0
M  V30 937 H 89.2101 1.41014 -0.291741 0
M  V30 938 H 91.1631 3.88137 1.64097 0
M  V30 939 H 89.8871 2.66383 1.88965 0
M  V30 940 H 88.5461 3.66599 0.00729452 0
M  V30 941 H 88.1941 4.44288 2.35832 0
M  V30 942 H 87.8941 5.75417 1.19035 0
M  V30 943 H 89.4181 5.72529 2.12233 0
M  V30 944 H 90.8321 5.73106 -0.1491 0
M  V30 945 H 89.2291 5.93089 -0.914636 0
M  V30 946 H 90.2991 4.62519 -1.45617 0
M  V30 947 N 91.6422 0.330177 1.54103 0
M  V30 948 C 92.8912 -0.271336 1.99867 0
M  V30 949 C 93.2042 -1.52723 1.22209 0
M  V30 950 O 94.4102 -2.20515 1.58383 0
M  V30 951 C 92.8662 -0.534032 3.55916 0
M  V30 952 C 92.4742 0.705193 4.42415 0
M  V30 953 C 94.2182 -1.09514 4.1013 0
M  V30 954 C 92.1252 0.414035 5.89949 0
M  V30 955 H 91.0552 -0.105166 0.74663 0
M  V30 956 H 93.7062 0.443429 1.78062 0
M  V30 957 H 92.0882 -1.30915 3.73734 0
M  V30 958 H 93.2622 1.4804 4.36372 0
M  V30 959 H 91.5772 1.18698 3.99124 0
M  V30 960 H 94.1742 -1.3277 5.17954 0
M  V30 961 H 94.5172 -2.04656 3.62521 0
M  V30 962 H 95.0502 -0.381038 3.95971 0
M  V30 963 H 91.7892 1.33481 6.41766 0
M  V30 964 H 91.3092 -0.323336 5.98928 0
M  V30 965 H 92.9882 0.0263105 6.46995 0
M  V30 966 N 93.1203 -1.57491 0.0584922 0
M  V30 967 C 94.3683 -1.92597 -0.612436 0
M  V30 968 C 94.6893 -0.938162 -1.70949 0
M  V30 969 O 93.9593 0.0158301 -1.95894 0
M  V30 970 H 92.5393 -0.710964 -0.229214 0
M  V30 971 H 95.2013 -1.94571 0.113218 0
M  V30 972 H 94.2973 -2.94038 -1.04633 0
M  V30 973 N 94.5984 0.214957 -1.56127 0
M  V30 974 C 95.5284 1.2695 -1.95974 0
M  V30 975 C 96.5094 1.48539 -0.828868 0
M  V30 976 O 97.6944 1.60611 -1.09168 0
M  V30 977 C 94.8244 2.61794 -2.28214 0
M  V30 978 C 93.7784 2.54851 -3.43853 0
M  V30 979 C 93.1044 3.93785 -3.61715 0
M  V30 980 C 94.4044 2.09065 -4.78632 0
M  V30 981 H 96.0984 0.93846 -2.84312 0
M  V30 982 H 93.6444 0.449996 -1.36788 0
M  V30 983 H 95.5974 3.35731 -2.54682 0
M  V30 984 H 94.3214 2.96599 -1.36736 0
M  V30 985 H 92.9804 1.8337 -3.17444 0
M  V30 986 H 92.6284 4.25908 -2.67602 0
M  V30 987 H 92.3284 3.90019 -4.39498 0
M  V30 988 H 93.8524 4.69374 -3.90539 0
M  V30 989 H 95.2664 2.7275 -5.04262 0
M  V30 990 H 93.6634 2.16346 -5.59745 0
M  V30 991 H 94.7334 1.04315 -4.73547 0
M  V30 992 N 96.0765 1.50051 0.48192 0
M  V30 993 C 97.0065 1.71046 1.58951 0
M  V30 994 C 97.9875 0.559288 1.60642 0
M  V30 995 O 99.1725 0.797243 1.77081 0
M  V30 996 C 96.3025 1.79462 2.97339 0
M  V30 997 C 95.2565 2.94558 3.10515 0
M  V30 998 C 94.5825 2.88105 4.50444 0
M  V30 999 C 95.8825 4.35227 2.88747 0
M  V30 1000 H 97.5765 2.6378 1.41635 0
M  V30 1001 H 95.1225 1.26936 0.679942 0
M  V30 1002 H 97.0755 1.92734 3.74742 0
M  V30 1003 H 95.7995 0.833412 3.15788 0
M  V30 1004 H 94.4585 2.80918 2.35543 0
M  V30 1005 H 94.1065 1.89853 4.65795 0
M  V30 1006 H 93.8065 3.65366 4.60197 0
M  V30 1007 H 95.3305 3.03412 5.29881 0
M  V30 1008 H 96.7445 4.49449 3.55905 0
M  V30 1009 H 95.1415 5.13856 3.09955 0
M  V30 1010 H 96.2115 4.48347 1.84696 0
M  V30 1011 N 97.5546 -0.734337 1.39446 0
M  V30 1012 C 98.4846 -1.86155 1.40955 0
M  V30 1013 C 99.4656 -1.67898 0.272827 0
M  V30 1014 O 100.651 -1.88207 0.478743 0
M  V30 1015 C 97.7806 -3.23912 1.25294 0
M  V30 1016 C 96.7346 -3.56808 2.36373 0
M  V30 1017 C 96.0606 -4.93508 2.058 0
M  V30 1018 C 97.3606 -3.59713 3.78687 0
M  V30 1019 H 99.0546 -1.8515 2.35287 0
M  V30 1020 H 96.6006 -0.889367 1.13253 0
M  V30 1021 H 98.5536 -4.02443 1.2497 0
M  V30 1022 H 97.2776 -3.25446 0.274308 0
M  V30 1023 H 95.9366 -2.80606 2.35914 0
M  V30 1024 H 95.5846 -4.91623 1.06374 0
M  V30 1025 H 95.2846 -5.16486 2.80208 0
M  V30 1026 H 96.8086 -5.74396 2.07128 0
M  V30 1027 H 98.2226 -4.2832 3.81071 0
M  V30 1028 H 96.6196 -3.94209 4.52459 0
M  V30 1029 H 97.6896 -2.59504 4.09617 0
M  V30 1030 N 99.0327 -1.24633 -0.964593 0
M  V30 1031 C 100.279 -1.08949 -1.71049 0
M  V30 1032 C 100.612 0.370302 -1.90637 0
M  V30 1033 O 99.8867 1.27349 -1.47011 0
M  V30 1034 C 100.17 -1.83329 -3.0994 0
M  V30 1035 C 100.023 -3.37077 -2.97824 0
M  V30 1036 C 101.342 -1.60846 -4.09654 0
M  V30 1037 H 98.4607 -0.397178 -0.620821 0
M  V30 1038 H 101.103 -1.5334 -1.12191 0
M  V30 1039 H 99.2527 -1.45597 -3.60186 0
M  V30 1040 H 100.925 -3.84425 -2.5498 0
M  V30 1041 H 99.1677 -3.65298 -2.33965 0
M  V30 1042 H 99.8387 -3.84324 -3.96231 0
M  V30 1043 H 102.315 -1.93674 -3.68279 0
M  V30 1044 H 101.191 -2.1534 -5.04896 0
M  V30 1045 H 101.452 -0.547434 -4.38698 0
M  V30 1046 N 100.511 1.16574 -1.06058 0
M  V30 1047 C 101.441 2.23057 -0.690488 0
M  V30 1048 C 102.422 1.67141 0.315901 0
M  V30 1049 O 103.607 1.93253 0.191556 0
M  V30 1050 C 100.737 3.47222 -0.073625 0
M  V30 1051 C 99.6908 4.16016 -1.00573 0
M  V30 1052 C 99.0168 5.34104 -0.252289 0
M  V30 1053 C 100.317 4.67264 -2.33371 0
M  V30 1054 H 102.011 2.54271 -1.58072 0
M  V30 1055 H 99.5568 1.22218 -0.76149 0
M  V30 1056 H 101.51 4.20939 0.19714 0
M  V30 1057 H 100.234 3.15302 0.85161 0
M  V30 1058 H 98.8928 3.44223 -1.2612 0
M  V30 1059 H 98.5408 4.98437 0.675988 0
M  V30 1060 H 98.2408 5.81072 -0.873455 0
M  V30 1061 H 99.7648 6.10599 0.0109857 0
M  V30 1062 H 101.179 5.32573 -2.12223 0
M  V30 1063 H 99.5758 5.24843 -2.90963 0
M  V30 1064 H 100.646 3.83602 -2.96611 0
M  V30 1065 N 101.989 0.842826 1.3317 0
M  V30 1066 C 102.919 0.294028 2.31641 0
M  V30 1067 C 103.9 -0.600401 1.59151 0
M  V30 1068 O 105.085 -0.523124 1.87022 0
M  V30 1069 C 102.215 -0.528416 3.43257 0
M  V30 1070 C 101.169 0.27056 4.27144 0
M  V30 1071 C 100.495 -0.675881 5.30411 0
M  V30 1072 C 101.795 1.48981 5.00602 0
M  V30 1073 H 103.489 1.11681 2.77791 0
M  V30 1074 H 101.035 0.538478 1.33553 0
M  V30 1075 H 102.988 -0.922674 4.11175 0
M  V30 1076 H 101.712 -1.38445 2.95805 0
M  V30 1077 H 100.371 0.646427 3.60856 0
M  V30 1078 H 100.019 -1.52842 4.79216 0
M  V30 1079 H 99.7189 -0.145374 5.8742 0
M  V30 1080 H 101.243 -1.06757 6.01195 0
M  V30 1081 H 102.657 1.16849 5.61266 0
M  V30 1082 H 101.054 1.95739 5.6728 0
M  V30 1083 H 102.124 2.25746 4.29147 0
M  V30 1084 N 103.467 -1.45747 0.599634 0
M  V30 1085 C 104.715 -2.01893 0.0915472 0
M  V30 1086 C 105.036 -1.47155 -1.27946 0
M  V30 1087 O 104.306 -0.66273 -1.84349 0
M  V30 1088 H 102.886 -0.746363 0.0308524 0
M  V30 1089 H 105.548 -1.78645 0.779237 0
M  V30 1090 H 104.644 -3.1208 0.0353086 0
M  V30 1091 N 104.945 -0.338344 -1.53925 0
M  V30 1092 C 106.194 0.260732 -2.00008 0
M  V30 1093 C 106.507 1.52073 -1.23017 0
M  V30 1094 O 107.713 2.19672 -1.5955 0
M  V30 1095 C 106.169 0.51515 -3.56194 0
M  V30 1096 C 105.777 -0.728645 -4.42035 0
M  V30 1097 C 107.521 1.07337 -4.10706 0
M  V30 1098 C 105.428 -0.445315 -5.89721 0
M  V30 1099 H 104.358 0.101205 -0.747177 0
M  V30 1100 H 107.009 -0.452866 -1.77824 0
M  V30 1101 H 105.391 1.28932 -3.74423 0
M  V30 1102 H 106.565 -1.50352 -4.35581 0
M  V30 1103 H 104.88 -1.20813 -3.98489 0
M  V30 1104 H 107.477 1.30022 -5.18651 0
M  V30 1105 H 107.82 2.0273 -3.63602 0
M  V30 1106 H 108.353 0.360034 -3.96167 0
M  V30 1107 H 105.092 -1.36883 -6.41049 0
M  V30 1108 H 104.612 0.291569 -5.99091 0
M  V30 1109 H 106.291 -0.0606218 -6.46972 0
M  V30 1110 N 106.423 1.57458 -0.0668435 0
M  V30 1111 C 107.671 1.92919 0.602214 0
M  V30 1112 C 107.992 0.947215 1.70449 0
M  V30 1113 O 107.262 -0.00544117 1.95899 0
M  V30 1114 H 105.842 0.71217 0.22544 0
M  V30 1115 H 108.504 1.94508 -0.123535 0
M  V30 1116 H 107.6 2.94589 1.03073 0
M  V30 1117 N 107.901 -0.206675 1.56239 0
M  V30 1118 C 109.148 -0.928842 1.79941 0
M  V30 1119 C 109.476 -1.83734 0.638131 0
M  V30 1120 O 108.731 -1.92039 -0.376746 0
M  V30 1121 C 109.03 -1.78675 3.09532 0
M  V30 1122 C 108.696 -1.03022 4.38973 0
M  V30 1123 C 107.358 -0.821302 4.74139 0
M  V30 1124 C 109.71 -0.497081 5.18824 0
M  V30 1125 C 107.038 -0.0675719 5.86661 0
M  V30 1126 C 109.39 0.24338 6.32132 0
M  V30 1127 C 108.054 0.463422 6.65889 0
M  V30 1128 H 107.324 -0.339887 0.658451 0
M  V30 1129 H 109.971 -0.195977 1.90495 0
M  V30 1130 H 108.276 -2.58794 2.94165 0
M  V30 1131 H 109.973 -2.34792 3.25075 0
M  V30 1132 H 106.563 -1.20306 4.11369 0
M  V30 1133 H 110.747 -0.645921 4.92079 0
M  V30 1134 H 106.003 0.112995 6.11296 0
M  V30 1135 H 110.177 0.66393 6.93228 0
M  V30 1136 H 107.804 1.04938 7.52922 0
M  V30 1137 N 109.379 -1.50304 -0.473955 0
M  V30 1138 C 110.309 -1.71886 -1.58042 0
M  V30 1139 C 111.29 -0.567799 -1.60344 0
M  V30 1140 O 112.475 -0.806623 -1.76656 0
M  V30 1141 C 109.605 -1.81036 -2.96384 0
M  V30 1142 C 108.559 -2.962 -3.08949 0
M  V30 1143 C 107.885 -2.9049 -4.48909 0
M  V30 1144 C 109.185 -4.36752 -2.86434 0
M  V30 1145 H 110.879 -2.64527 -1.40234 0
M  V30 1146 H 108.425 -1.27295 -0.673201 0
M  V30 1147 H 110.378 -1.94719 -3.73714 0
M  V30 1148 H 109.102 -0.850147 -3.15341 0
M  V30 1149 H 107.761 -2.82164 -2.3405 0
M  V30 1150 H 107.409 -1.92321 -4.64781 0
M  V30 1151 H 107.109 -3.67802 -4.58253 0
M  V30 1152 H 108.633 -3.06218 -5.28264 0
M  V30 1153 H 110.047 -4.5133 -3.53517 0
M  V30 1154 H 108.444 -5.15493 -3.07225 0
M  V30 1155 H 109.514 -4.49321 -1.82316 0
M  V30 1156 N 110.857 0.726932 -1.39834 0
M  V30 1157 C 112.103 1.48884 -1.377 0
M  V30 1158 C 112.436 1.94185 0.0244852 0
M  V30 1159 O 111.711 1.67361 0.990986 0
M  V30 1160 C 111.994 2.72288 -2.3565 0
M  V30 1161 C 111.847 2.32956 -3.84775 0
M  V30 1162 C 113.166 3.74414 -2.31306 0
M  V30 1163 H 110.285 0.540062 -0.5015 0
M  V30 1164 H 112.927 0.830547 -1.70886 0
M  V30 1165 H 111.077 3.28457 -2.07481 0
M  V30 1166 H 112.749 1.82356 -4.23726 0
M  V30 1167 H 110.992 1.65088 -4.01159 0
M  V30 1168 H 111.663 3.21362 -4.4881 0
M  V30 1169 H 114.139 3.27849 -2.56231 0
M  V30 1170 H 113.015 4.58414 -3.01907 0
M  V30 1171 H 113.276 4.21909 -1.32081 0
M  V30 1172 N 112.336 1.25143 0.95797 0
M  V30 1173 C 113.582 1.10863 1.70531 0
M  V30 1174 C 113.937 -0.347391 1.89238 0
M  V30 1175 O 113.23 -1.25262 1.44983 0
M  V30 1176 C 113.424 1.79272 3.09187 0
M  V30 1177 C 113.253 3.31376 3.04006 0
M  V30 1178 C 112.023 4.0062 3.07948 0
M  V30 1179 C 114.221 4.27825 2.8543 0
M  V30 1180 N 112.203 5.39526 2.9289 0
M  V30 1181 C 113.574 5.53794 2.78769 0
M  V30 1182 C 115.629 4.1828 2.70085 0
M  V30 1183 C 114.332 6.7131 2.58331 0
M  V30 1184 C 116.358 5.35485 2.51017 0
M  V30 1185 C 115.72 6.60393 2.45073 0
M  V30 1186 H 111.819 0.460362 0.632132 0
M  V30 1187 H 114.403 1.58196 1.13499 0
M  V30 1188 H 112.574 1.34439 3.64391 0
M  V30 1189 H 114.306 1.57764 3.72683 0
M  V30 1190 H 111.061 3.51855 3.17009 0
M  V30 1191 H 111.485 6.12416 2.88574 0
M  V30 1192 H 116.127 3.22461 2.73457 0
M  V30 1193 H 113.845 7.67243 2.53701 0
M  V30 1194 H 117.431 5.29959 2.40073 0
M  V30 1195 H 116.311 7.49557 2.30509 0
M  V30 1196 N 113.814 -1.1601 1.06675 0
M  V30 1197 C 114.764 -2.18512 0.650888 0
M  V30 1198 C 115.748 -1.57677 -0.320441 0
M  V30 1199 O 116.94 -1.76482 -0.135266 0
M  V30 1200 C 114.069 -3.43273 0.0429255 0
M  V30 1201 C 113.155 -4.11176 1.03898 0
M  V30 1202 N 113.546 -4.54672 2.216 0
M  V30 1203 C 111.844 -4.37417 0.870779 0
M  V30 1204 C 112.545 -5.07248 2.84736 0
M  V30 1205 N 111.521 -5.0037 2.12441 0
M  V30 1206 H 115.323 -2.49863 1.54745 0
M  V30 1207 H 112.837 -1.32503 0.938975 0
M  V30 1208 H 114.834 -4.16006 -0.272857 0
M  V30 1209 H 113.494 -3.13408 -0.84884 0
M  V30 1210 H 114.505 -4.4828 2.59356 0
M  V30 1211 H 111.182 -4.17488 0.0313293 0
M  V30 1212 H 112.572 -5.50912 3.84636 0
M  V30 1213 N 115.292 -0.849877 -1.32721 0
M  V30 1214 C 116.222 -0.306308 -2.31482 0
M  V30 1215 C 117.203 0.591952 -1.59468 0
M  V30 1216 O 118.388 0.513199 -1.87296 0
M  V30 1217 C 115.518 0.510204 -3.43532 0
M  V30 1218 C 114.472 -0.293209 -4.26994 0
M  V30 1219 C 113.798 0.647743 -5.30762 0
M  V30 1220 C 115.098 -1.51634 -4.99804 0
M  V30 1221 H 116.792 -1.13153 -2.77195 0
M  V30 1222 H 114.338 -0.545553 -1.33266 0
M  V30 1223 H 116.291 0.900856 -4.11658 0
M  V30 1224 H 115.015 1.36874 -2.96535 0
M  V30 1225 H 113.674 -0.665555 -3.60508 0
M  V30 1226 H 113.322 1.50299 -4.8002 0
M  V30 1227 H 113.022 0.11422 -5.87489 0
M  V30 1228 H 114.546 1.03567 -6.01753 0
M  V30 1229 H 115.96 -1.19824 -5.60638 0
M  V30 1230 H 114.357 -1.98745 -5.66234 0
M  V30 1231 H 115.427 -2.28018 -4.27943 0
M  V30 1232 N 116.77 1.45427 -0.607355 0
M  V30 1233 C 117.702 2.2871 0.149752 0
M  V30 1234 C 118.715 1.39937 0.831958 0
M  V30 1235 O 119.904 1.64313 0.697385 0
M  V30 1236 C 117.004 3.15673 1.23304 0
M  V30 1237 C 116.177 4.32722 0.637996 0
M  V30 1238 C 115.236 5.00895 1.61215 0
M  V30 1239 O 114.262 5.57697 1.13854 0
M  V30 1240 N 115.464 5.00159 2.94655 0
M  V30 1241 H 118.229 2.94328 -0.564882 0
M  V30 1242 H 115.79 1.55612 -0.446823 0
M  V30 1243 H 117.782 3.58144 1.88454 0
M  V30 1244 H 116.352 2.51965 1.8502 0
M  V30 1245 H 115.572 3.93734 -0.191572 0
M  V30 1246 H 116.86 5.08321 0.220665 0
M  V30 1247 H 116.258 4.553 3.35735 0
M  V30 1248 H 114.815 5.46495 3.55228 0
M  V30 1249 N 118.248 0.346503 1.53744 0
M  V30 1250 C 119.478 -0.250047 2.05081 0
M  V30 1251 C 119.886 -1.44529 1.22098 0
M  V30 1252 O 119.229 -1.81992 0.249917 0
M  V30 1253 C 119.291 -0.725934 3.52094 0
M  V30 1254 C 118.955 0.350053 4.55657 0
M  V30 1255 C 119.952 1.19372 5.0601 0
M  V30 1256 C 117.637 0.504827 4.99757 0
M  V30 1257 C 119.631 2.17768 5.99046 0
M  V30 1258 C 117.318 1.49218 5.92602 0
M  V30 1259 C 118.316 2.32706 6.42135 0
M  V30 1260 O 118.004 3.2976 7.33153 0
M  V30 1261 H 117.736 -0.0515469 0.674032 0
M  V30 1262 H 120.29 0.497559 1.99282 0
M  V30 1263 H 118.52 -1.52483 3.55367 0
M  V30 1264 H 120.209 -1.24336 3.86388 0
M  V30 1265 H 120.975 1.08525 4.72702 0
M  V30 1266 H 116.854 -0.135178 4.60802 0
M  V30 1267 H 120.398 2.82971 6.37631 0
M  V30 1268 H 116.295 1.6012 6.25325 0
M  V30 1269 H 117.063 3.25265 7.51096 0
M  V30 1270 N 119.726 -1.57421 0.075193 0
M  V30 1271 C 121.142 -1.57099 -0.281444 0
M  V30 1272 C 121.342 -1.08486 -1.69803 0
M  V30 1273 O 120.398 -0.752279 -2.41033 0
M  V30 1274 C 121.711 -3.00571 -0.0880041 0
M  V30 1275 C 123.259 -3.12605 -0.157281 0
M  V30 1276 C 123.734 -4.57999 0.0079207 0
M  V30 1277 N 125.225 -4.63176 -0.0475725 0
M  V30 1278 C 125.96 -5.73373 0.0557876 0
M  V30 1279 N 125.456 -6.92473 0.21286 0
M  V30 1280 N 127.249 -5.621 -0.00152098 0
M  V30 1281 H 119.4 -1.87335 1.00098 0
M  V30 1282 H 121.663 -0.86377 0.390646 0
M  V30 1283 H 121.369 -3.40262 0.889629 0
M  V30 1284 H 121.243 -3.67754 -0.838875 0
M  V30 1285 H 123.63 -2.72798 -1.1254 0
M  V30 1286 H 123.711 -2.48053 0.62475 0
M  V30 1287 H 123.355 -4.98496 0.972824 0
M  V30 1288 H 123.285 -5.20586 -0.793556 0
M  V30 1289 H 125.776 -3.7753 -0.167244 0
M  V30 1290 H 126.089 -7.72279 0.283781 0
M  V30 1291 H 124.434 -6.94556 0.248267 0
M  V30 1292 H 127.625 -4.67938 -0.122958 0
M  V30 1293 H 127.798 -6.47948 0.0824844 0
M  V30 1294 N 121.204 0.198386 -1.56346 0
M  V30 1295 C 122.481 0.944982 -1.71258 0
M  V30 1296 C 122.861 2.0151 -0.629048 0
M  V30 1297 O 122.209 2.25639 0.360473 0
M  V30 1298 C 122.419 1.5344 -3.1346 0
M  V30 1299 C 123.767 2.01778 -3.73591 0
M  V30 1300 O 124.791 1.63288 -3.16568 0
M  V30 1301 O 123.65 2.72594 -4.73661 0
M  V30 1302 H 120.744 0.442939 -0.69838 0
M  V30 1303 H 123.29 0.188342 -1.68652 0
M  V30 1304 H 122.062 0.762869 -3.83792 0
M  V30 1305 H 121.685 2.35596 -3.20282 0
M  V30 1306 N 122.682 1.50554 0.465978 0
M  V30 1307 C 123.928 1.62038 1.21949 0
M  V30 1308 C 124.261 0.322116 1.9151 0
M  V30 1309 O 123.536 -0.676723 1.82348 0
M  V30 1310 C 123.819 2.80421 2.25912 0
M  V30 1311 C 123.672 4.20144 1.60622 0
M  V30 1312 C 124.991 2.94354 3.27176 0
M  V30 1313 H 122.11 0.589752 0.441998 0
M  V30 1314 H 124.752 1.82956 0.51257 0
M  V30 1315 H 122.902 2.62717 2.86203 0
M  V30 1316 H 124.574 4.49449 1.03889 0
M  V30 1317 H 122.817 4.24165 0.909211 0
M  V30 1318 H 123.488 4.98914 2.36196 0
M  V30 1319 H 125.964 3.10578 2.76913 0
M  V30 1320 H 124.84 3.788 3.97242 0
M  V30 1321 H 125.101 2.05186 3.916 0
M  V30 1322 N 124.16 -0.719506 1.40217 0
M  V30 1323 C 125.576 -1.02707 1.22161 0
M  V30 1324 C 125.776 -2.0128 0.0940557 0
M  V30 1325 O 124.832 -2.46452 -0.549318 0
M  V30 1326 C 126.145 -1.57454 2.56181 0
M  V30 1327 C 127.693 -1.69458 2.63159 0
M  V30 1328 C 128.168 -2.27611 3.97438 0
M  V30 1329 N 129.659 -2.35002 3.99159 0
M  V30 1330 C 130.394 -2.80972 4.99842 0
M  V30 1331 N 129.89 -3.26723 6.10921 0
M  V30 1332 N 131.683 -2.80321 4.87213 0
M  V30 1333 H 123.834 -0.0660492 2.12297 0
M  V30 1334 H 126.097 -0.0919077 0.943534 0
M  V30 1335 H 125.803 -0.924873 3.39321 0
M  V30 1336 H 125.677 -2.56036 2.76993 0
M  V30 1337 H 128.064 -2.33543 1.80393 0
M  V30 1338 H 128.145 -0.694867 2.46181 0
M  V30 1339 H 127.789 -1.6415 4.80643 0
M  V30 1340 H 127.719 -3.2829 4.11744 0
M  V30 1341 H 130.21 -2.02685 3.18947 0
M  V30 1342 H 130.523 -3.60355 6.8364 0
M  V30 1343 H 128.868 -3.24692 6.14492 0
M  V30 1344 H 132.059 -2.43912 3.9953 0
M  V30 1345 H 132.232 -3.15831 5.65822 0
M  V30 1346 N 125.638 -1.25649 -0.95132 0
M  V30 1347 C 126.884 -1.10757 -1.69884 0
M  V30 1348 C 127.217 0.350061 -1.91019 0
M  V30 1349 O 126.492 1.25783 -1.48354 0
M  V30 1350 C 126.775 -1.86606 -3.07978 0
M  V30 1351 C 126.628 -3.40217 -2.94232 0
M  V30 1352 C 127.947 -1.65182 -4.07925 0
M  V30 1353 H 125.066 -0.40374 -0.616574 0
M  V30 1354 H 127.708 -1.54521 -1.10558 0
M  V30 1355 H 125.858 -1.49409 -3.58621 0
M  V30 1356 H 127.53 -3.87108 -2.50889 0
M  V30 1357 H 125.773 -3.67759 -2.30078 0
M  V30 1358 H 126.444 -3.88505 -3.92133 0
M  V30 1359 H 128.92 -1.9757 -3.66204 0
M  V30 1360 H 127.796 -2.20683 -5.02583 0
M  V30 1361 H 128.057 -0.593933 -4.38092 0
M  V30 1362 N 127.117 1.15442 -1.07289 0
M  V30 1363 C 128.049 2.19773 -0.650585 0
M  V30 1364 C 129.062 1.60076 0.296572 0
M  V30 1365 O 130.251 1.78293 0.0859905 0
M  V30 1366 C 127.351 3.38838 0.0650398 0
M  V30 1367 C 126.524 4.2808 -0.898141 0
M  V30 1368 C 125.583 5.2574 -0.219926 0
M  V30 1369 O 124.609 5.62654 -0.860773 0
M  V30 1370 N 125.811 5.71205 1.03466 0
M  V30 1371 H 128.576 2.56622 -1.54808 0
M  V30 1372 H 126.137 1.30551 -0.957494 0
M  V30 1373 H 128.129 4.01222 0.529415 0
M  V30 1374 H 126.699 3.00409 0.864466 0
M  V30 1375 H 125.919 3.62804 -1.54165 0
M  V30 1376 H 127.207 4.84577 -1.5512 0
M  V30 1377 H 126.605 5.43325 1.57526 0
M  V30 1378 H 125.162 6.35633 1.44272 0
M  V30 1379 N 128.595 0.856903 1.32268 0
M  V30 1380 C 129.542 0.301172 2.28827 0
M  V30 1381 C 130.512 -0.593104 1.5515 0
M  V30 1382 O 131.697 -0.527537 1.83362 0
M  V30 1383 C 128.837 -0.502523 3.41422 0
M  V30 1384 C 127.95 0.417797 4.29975 0
M  V30 1385 C 127.085 -0.398749 5.29701 0
M  V30 1386 C 126.124 0.518827 6.09897 0
M  V30 1387 N 125.261 -0.260674 7.01616 0
M  V30 1388 H 130.101 1.12983 2.75751 0
M  V30 1389 H 127.638 0.568582 1.35667 0
M  V30 1390 H 129.596 -0.984141 4.05426 0
M  V30 1391 H 128.226 -1.29599 2.95642 0
M  V30 1392 H 127.278 1.01781 3.66531 0
M  V30 1393 H 128.59 1.12191 4.86019 0
M  V30 1394 H 127.744 -0.943435 5.9932 0
M  V30 1395 H 126.483 -1.13622 4.7428 0
M  V30 1396 H 125.488 1.07538 5.39181 0
M  V30 1397 H 126.713 1.25495 6.67404 0
M  V30 1398 H 124.659 -0.981198 6.4862 0
M  V30 1399 H 124.576 0.384364 7.55022 0
M  V30 1400 H 125.844 -0.787014 7.75517 0
M  V30 1401 N 130.073 -1.45103 0.615059 0
M  V30 1402 C 131.319 -2.02483 0.113347 0
M  V30 1403 C 131.652 -1.48146 -1.25564 0
M  V30 1404 O 130.927 -0.659104 -1.82992 0
M  V30 1405 C 131.21 -3.60005 0.0825278 0
M  V30 1406 C 131.063 -4.2466 1.48271 0
M  V30 1407 C 132.382 -4.35972 -0.601401 0
M  V30 1408 H 129.501 -0.735764 0.0426632 0
M  V30 1409 H 132.143 -1.72868 0.788461 0
M  V30 1410 H 130.293 -3.85367 -0.492378 0
M  V30 1411 H 131.965 -4.10458 2.10527 0
M  V30 1412 H 130.208 -3.82772 2.04127 0
M  V30 1413 H 130.879 -5.336 1.41332 0
M  V30 1414 H 133.355 -4.15947 -0.112666 0
M  V30 1415 H 132.231 -5.45697 -0.592097 0
M  V30 1416 H 132.492 -4.09391 -1.66887 0
M  V30 1417 N 131.551 -0.354651 -1.53558 0
M  V30 1418 C 132.798 0.238443 -2.01091 0
M  V30 1419 C 133.126 1.49663 -1.24222 0
M  V30 1420 O 132.381 1.93049 -0.321003 0
M  V30 1421 C 132.68 0.587121 -3.52545 0
M  V30 1422 C 132.346 -0.575472 -4.47213 0
M  V30 1423 C 131.008 -0.894497 -4.72813 0
M  V30 1424 C 133.36 -1.35489 -5.03281 0
M  V30 1425 C 130.688 -1.99511 -5.51736 0
M  V30 1426 C 133.04 -2.44583 -5.83405 0
M  V30 1427 C 131.704 -2.77033 -6.07296 0
M  V30 1428 H 130.974 0.0872526 -0.735845 0
M  V30 1429 H 133.621 -0.484859 -1.8526 0
M  V30 1430 H 131.926 1.39129 -3.66265 0
M  V30 1431 H 133.623 1.05809 -3.86789 0
M  V30 1432 H 130.213 -0.316774 -4.27428 0
M  V30 1433 H 134.397 -1.12167 -4.83459 0
M  V30 1434 H 129.653 -2.25063 -5.68469 0
M  V30 1435 H 133.827 -3.05401 -6.25862 0
M  V30 1436 H 131.454 -3.6244 -6.68237 0
M  V30 1437 N 133.029 1.57378 -0.0835403 0
M  V30 1438 C 133.977 2.14602 0.89714 0
M  V30 1439 C 134.971 1.08589 1.30018 0
M  V30 1440 O 136.177 1.26952 1.27606 0
M  V30 1441 H 132.552 0.686346 0.3073 0
M  V30 1442 H 134.523 2.95845 0.38969 0
M  V30 1443 C 133.272 2.73188 2.15089 0
M  V30 1444 H 132.595 3.54442 1.84962 0
M  V30 1445 H 134.035 3.1681 2.81793 0
M  V30 1446 C 132.494 1.68517 2.91725 0
M  V30 1447 O 133.024 1.11718 3.85852 0
M  V30 1448 N 131.23 1.39277 2.55049 0
M  V30 1449 H 130.777 1.85655 1.78577 0
M  V30 1450 H 130.735 0.694791 3.06627 0
M  V30 1451 N 134.507 -0.190092 1.56449 0
M  V30 1452 C 135.755 -0.907908 1.80559 0
M  V30 1453 C 136.076 -1.83583 0.657438 0
M  V30 1454 O 135.346 -1.93203 -0.323924 0
M  V30 1455 H 133.926 -0.338247 0.666032 0
M  V30 1456 H 136.588 -0.194403 1.93928 0
M  V30 1457 H 135.684 -1.49604 2.73907 0
M  V30 1458 N 135.985 -1.50799 -0.457987 0
M  V30 1459 C 137.215 -1.65977 -1.23025 0
M  V30 1460 C 137.623 -0.347918 -1.85974 0
M  V30 1461 O 136.966 0.68148 -1.70592 0
M  V30 1462 C 137.028 -2.70309 -2.3701 0
M  V30 1463 C 136.692 -4.135 -1.94594 0
M  V30 1464 C 137.689 -4.98949 -1.46101 0
M  V30 1465 C 135.374 -4.5949 -2.02915 0
M  V30 1466 C 137.368 -6.28442 -1.06489 0
M  V30 1467 C 135.055 -5.88984 -1.62914 0
M  V30 1468 C 136.053 -6.73286 -1.1478 0
M  V30 1469 O 135.741 -8.00362 -0.75339 0
M  V30 1470 H 135.473 -0.56064 -0.377702 0
M  V30 1471 H 138.027 -1.97857 -0.551537 0
M  V30 1472 H 136.257 -2.337 -3.08093 0
M  V30 1473 H 137.946 -2.74574 -2.98938 0
M  V30 1474 H 138.712 -4.6463 -1.39084 0
M  V30 1475 H 134.591 -3.94009 -2.39328 0
M  V30 1476 H 138.135 -6.94194 -0.688488 0
M  V30 1477 H 134.032 -6.22822 -1.69595 0
M  V30 1478 H 134.8 -8.13744 -0.88108 0
M  V30 1479 N 137.463 0.71206 -1.40597 0
M  V30 1480 C 138.396 1.83582 -1.35546 0
M  V30 1481 C 139.374 1.61032 -0.225284 0
M  V30 1482 O 140.558 1.83998 -0.409519 0
M  V30 1483 C 137.685 3.19983 -1.11034 0
M  V30 1484 C 136.731 3.61355 -2.2655 0
M  V30 1485 S 137.564 3.68062 -3.88961 0
M  V30 1486 C 138.72 5.07216 -3.66719 0
M  V30 1487 H 138.953 1.87586 -2.30648 0
M  V30 1488 H 136.486 0.879182 -1.26924 0
M  V30 1489 H 138.444 3.98734 -0.975761 0
M  V30 1490 H 137.105 3.13608 -0.175798 0
M  V30 1491 H 136.298 4.60403 -2.0505 0
M  V30 1492 H 135.9 2.8987 -2.36329 0
M  V30 1493 H 138.192 5.94238 -3.25404 0
M  V30 1494 H 139.135 5.33753 -4.6531 0
M  V30 1495 H 139.543 4.77976 -3.00332 0
M  V30 1496 N 138.941 1.26152 0.944643 0
M  V30 1497 C 140.357 1.03189 1.21754 0
M  V30 1498 C 140.557 -0.245112 2.00004 0
M  V30 1499 O 139.613 -0.955176 2.33736 0
M  V30 1500 C 140.926 2.26119 1.98219 0
M  V30 1501 C 142.474 2.30984 2.11224 0
M  V30 1502 C 142.949 3.53597 2.91089 0
M  V30 1503 N 144.44 3.54053 2.98664 0
M  V30 1504 C 145.175 4.45593 3.60881 0
M  V30 1505 N 144.671 5.47416 4.24626 0
M  V30 1506 N 146.464 4.33252 3.58119 0
M  V30 1507 H 138.615 2.08177 0.421437 0
M  V30 1508 H 140.878 0.914723 0.248969 0
M  V30 1509 H 140.584 3.18984 1.48128 0
M  V30 1510 H 140.458 2.3009 2.98895 0
M  V30 1511 H 142.845 1.38635 2.60508 0
M  V30 1512 H 142.926 2.31026 1.09821 0
M  V30 1513 H 142.57 4.46273 2.42493 0
M  V30 1514 H 142.5 3.50802 3.92741 0
M  V30 1515 H 144.991 2.80403 2.53343 0
M  V30 1516 H 145.304 6.13459 4.69987 0
M  V30 1517 H 143.649 5.51278 4.23223 0
M  V30 1518 H 146.84 3.52924 3.0751 0
M  V30 1519 H 147.013 5.04786 4.06319 0
M  V30 1520 N 140.419 -1.14872 1.07899 0
M  V30 1521 C 141.668 -1.85135 0.800499 0
M  V30 1522 C 141.981 -1.83547 -0.676014 0
M  V30 1523 O 143.187 -2.49548 -1.06948 0
M  V30 1524 C 141.643 -3.3231 1.38197 0
M  V30 1525 C 141.251 -3.42329 2.8899 0
M  V30 1526 C 142.995 -4.0772 1.18174 0
M  V30 1527 C 140.902 -4.83684 3.403 0
M  V30 1528 H 139.832 -0.693563 0.29578 0
M  V30 1529 H 142.483 -1.29532 1.29976 0
M  V30 1530 H 140.865 -3.87618 0.810431 0
M  V30 1531 H 142.039 -2.97097 3.52236 0
M  V30 1532 H 140.354 -2.80369 3.07867 0
M  V30 1533 H 142.951 -5.12049 1.5398 0
M  V30 1534 H 143.294 -4.16124 0.12117 0
M  V30 1535 H 143.827 -3.58696 1.71994 0
M  V30 1536 H 140.566 -4.80465 4.45907 0
M  V30 1537 H 140.086 -5.29474 2.81811 0
M  V30 1538 H 141.765 -5.52558 3.36584 0
M  V30 1539 N 141.898 -0.863906 -1.31812 0
M  V30 1540 C 143.126 -0.486111 -2.01108 0
M  V30 1541 C 143.541 0.919755 -1.64882 0
M  V30 1542 O 142.898 1.60162 -0.874893 0
M  V30 1543 C 142.949 -0.626435 -3.56031 0
M  V30 1544 O 142.67 -1.97693 -3.90959 0
M  V30 1545 C 144.171 -0.248857 -4.42601 0
M  V30 1546 H 141.391 -0.190052 -0.643523 0
M  V30 1547 H 143.935 -1.1634 -1.68182 0
M  V30 1548 H 142.09 0.00322717 -3.874 0
M  V30 1549 H 142.504 -1.98034 -4.85678 0
M  V30 1550 H 143.978 -0.398016 -5.50563 0
M  V30 1551 H 144.455 0.811489 -4.31638 0
M  V30 1552 H 145.061 -0.853971 -4.16638 0
M  V30 1553 N 143.376 1.44774 -0.622745 0
M  V30 1554 C 144.324 2.32387 0.0994683 0
M  V30 1555 C 145.318 1.46859 0.844326 0
M  V30 1556 O 146.524 1.63254 0.758174 0
M  V30 1557 H 142.899 0.750273 0.0509291 0
M  V30 1558 H 144.87 2.91062 -0.65767 0
M  V30 1559 C 143.619 3.30723 1.07319 0
M  V30 1560 H 142.942 3.96541 0.509462 0
M  V30 1561 H 144.382 3.94725 1.54817 0
M  V30 1562 C 142.841 2.59021 2.15429 0
M  V30 1563 O 143.371 2.38286 3.23393 0
M  V30 1564 N 141.577 2.189 1.91131 0
M  V30 1565 H 141.124 2.35964 1.03337 0
M  V30 1566 H 141.082 1.71251 2.63668 0
M  V30 1567 N 144.854 0.36279 1.53368 0
M  V30 1568 C 145.764 -0.492994 2.29362 0
M  V30 1569 C 146.78 -1.09507 1.35219 0
M  V30 1570 O 147.956 -1.10662 1.68273 0
M  V30 1571 C 145.021 -1.61855 3.066 0
M  V30 1572 C 144.082 -1.04429 4.16405 0
M  V30 1573 C 143.315 -2.11621 4.89951 0
M  V30 1574 O 143.538 -3.32684 4.63333 0
M  V30 1575 O 142.472 -1.74835 5.75948 0
M  V30 1576 H 146.298 0.125331 3.03441 0
M  V30 1577 H 143.883 0.127253 1.48857 0
M  V30 1578 H 145.765 -2.27302 3.54841 0
M  V30 1579 H 144.44 -2.22233 2.3536 0
M  V30 1580 H 143.347 -0.353819 3.72423 0
M  V30 1581 H 144.68 -0.485113 4.89804 0
M  V30 1582 N 146.332 -1.57332 0.0918853 0
M  V30 1583 C 147.28 -2.15075 -0.885747 0
M  V30 1584 C 148.274 -1.09277 -1.29441 0
M  V30 1585 O 149.48 -1.27627 -1.26931 0
M  V30 1586 H 145.855 -0.687966 -0.303656 0
M  V30 1587 H 147.826 -2.96047 -0.373995 0
M  V30 1588 C 146.575 -2.74325 -2.13638 0
M  V30 1589 H 145.898 -3.55418 -1.8308 0
M  V30 1590 H 147.338 -3.183 -2.80109 0
M  V30 1591 C 145.797 -1.70062 -2.90827 0
M  V30 1592 O 146.327 -1.13763 -3.85254 0
M  V30 1593 N 144.533 -1.40628 -2.54307 0
M  V30 1594 H 144.08 -1.866 -1.7759 0
M  V30 1595 H 144.038 -0.711043 -3.06254 0
M  V30 1596 N 147.81 0.181792 -1.56548 0
M  V30 1597 C 149.057 0.900097 -1.81396 0
M  V30 1598 C 149.385 1.82695 -0.667281 0
M  V30 1599 O 148.64 1.92614 0.346146 0
M  V30 1600 C 148.939 1.73728 -3.12335 0
M  V30 1601 C 148.605 0.960255 -4.40556 0
M  V30 1602 C 147.267 0.745766 -4.75386 0
M  V30 1603 C 149.619 0.414477 -5.19549 0
M  V30 1604 C 146.947 -0.0257694 -5.86694 0
M  V30 1605 C 149.299 -0.343916 -6.31664 0
M  V30 1606 C 147.963 -0.569301 -6.65068 0
M  V30 1607 H 147.233 0.329369 -0.663775 0
M  V30 1608 H 149.88 0.165647 -1.90782 0
M  V30 1609 H 148.185 2.54081 -2.98245 0
M  V30 1610 H 149.882 2.29591 -3.28769 0
M  V30 1611 H 146.472 1.13746 -4.13231 0
M  V30 1612 H 150.656 0.567554 -4.93044 0
M  V30 1613 H 145.912 -0.210233 -6.11038 0
M  V30 1614 H 150.086 -0.774133 -6.92084 0
M  V30 1615 H 147.713 -1.16903 -7.51158 0
M  V30 1616 N 149.288 1.51039 0.449983 0
M  V30 1617 C 150.534 1.63322 1.20223 0
M  V30 1618 C 150.867 0.34241 1.91158 0
M  V30 1619 O 150.142 -0.657344 1.83055 0
M  V30 1620 C 150.425 2.82801 2.22925 0
M  V30 1621 C 150.278 4.21823 1.56157 0
M  V30 1622 C 151.597 2.97807 3.24035 0
M  V30 1623 H 148.716 0.594407 0.435718 0
M  V30 1624 H 151.358 1.83489 0.493136 0
M  V30 1625 H 149.508 2.65738 2.834 0
M  V30 1626 H 151.18 4.50526 0.991162 0
M  V30 1627 H 149.423 4.25105 0.864172 0
M  V30 1628 H 150.094 5.01391 2.30891 0
M  V30 1629 H 152.57 3.13497 2.73603 0
M  V30 1630 H 151.446 3.82992 3.93202 0
M  V30 1631 H 151.707 2.09328 3.89402 0
M  V30 1632 N 150.766 -0.704594 1.40972 0
M  V30 1633 C 152.043 -1.45847 1.30338 0
M  V30 1634 C 152.423 -2.10973 -0.0732344 0
M  V30 1635 O 151.771 -2.00997 -1.08685 0
M  V30 1636 C 151.981 -2.48525 2.45023 0
M  V30 1637 C 153.329 -3.1404 2.8577 0
M  V30 1638 O 154.353 -2.58848 2.44696 0
M  V30 1639 O 153.212 -4.13981 3.56766 0
M  V30 1640 H 150.306 -0.649092 0.512454 0
M  V30 1641 H 152.852 -0.735836 1.52917 0
M  V30 1642 H 151.624 -1.98994 3.36923 0
M  V30 1643 H 151.247 -3.2831 2.24272 0
M  V30 1644 N 152.244 -1.26651 -0.937939 0
M  V30 1645 C 153.207 -1.08546 -2.01867 0
M  V30 1646 C 154.207 -0.0327327 -1.60767 0
M  V30 1647 O 155.397 -0.276427 -1.71993 0
M  V30 1648 C 152.529 -0.651711 -3.34613 0
M  V30 1649 H 153.722 -2.04502 -2.1936 0
M  V30 1650 H 151.275 -1.09294 -1.11734 0
M  V30 1651 H 152.01 0.309696 -3.22818 0
M  V30 1652 H 151.795 -1.41189 -3.65798 0
M  V30 1653 H 153.285 -0.546973 -4.14002 0
M  V30 1654 N 153.722 1.14298 -1.08507 0
M  V30 1655 C 154.952 1.88945 -0.835663 0
M  V30 1656 C 155.36 1.78894 0.615928 0
M  V30 1657 O 154.703 1.1468 1.43506 0
M  V30 1658 C 154.765 3.39585 -1.17994 0
M  V30 1659 C 154.429 3.7342 -2.63451 0
M  V30 1660 C 155.426 3.73454 -3.61702 0
M  V30 1661 C 153.111 4.03368 -2.99332 0
M  V30 1662 C 155.105 4.02961 -4.93864 0
M  V30 1663 C 152.792 4.32538 -4.31687 0
M  V30 1664 C 153.79 4.32318 -5.28763 0
M  V30 1665 O 153.478 4.6078 -6.58739 0
M  V30 1666 H 153.21 0.605307 -0.300965 0
M  V30 1667 H 155.764 1.45673 -1.44806 0
M  V30 1668 H 153.994 3.83315 -0.51055 0
M  V30 1669 H 155.683 3.9554 -0.911182 0
M  V30 1670 H 156.449 3.50403 -3.35325 0
M  V30 1671 H 152.328 4.02692 -2.24411 0
M  V30 1672 H 155.872 4.02704 -5.69627 0
M  V30 1673 H 151.769 4.55059 -4.57812 0
M  V30 1674 H 152.537 4.78492 -6.64069 0
M  V30 1675 N 155.201 0.870884 1.31352 0
M  V30 1676 C 156.111 0.330783 2.32256 0
M  V30 1677 C 157.127 -0.559767 1.6475 0
M  V30 1678 O 158.303 -0.456263 1.96164 0
M  V30 1679 C 155.368 -0.458137 3.4366 0
M  V30 1680 C 154.429 0.460482 4.26823 0
M  V30 1681 C 153.662 -0.290881 5.32907 0
M  V30 1682 O 153.885 -1.51885 5.49806 0
M  V30 1683 O 152.819 0.351732 6.00871 0
M  V30 1684 H 156.645 1.16718 2.80376 0
M  V30 1685 H 154.23 0.634285 1.35267 0
M  V30 1686 H 156.112 -0.905343 4.1156 0
M  V30 1687 H 154.787 -1.27106 2.97701 0
M  V30 1688 H 153.694 0.956207 3.61673 0
M  V30 1689 H 155.027 1.23903 4.7635 0
M  V30 1690 N 156.679 -1.44442 0.630414 0
M  V30 1691 C 157.627 -2.32437 -0.0871428 0
M  V30 1692 C 158.621 -1.47304 -0.836525 0
M  V30 1693 O 159.827 -1.63653 -0.749506 0
M  V30 1694 H 156.202 -0.750533 -0.0469495 0
M  V30 1695 H 158.173 -2.90709 0.673096 0
M  V30 1696 C 156.922 -3.31288 -1.05563 0
M  V30 1697 H 156.245 -3.96805 -0.488426 0
M  V30 1698 H 157.685 -3.9554 -1.52721 0
M  V30 1699 C 156.144 -2.6016 -2.14052 0
M  V30 1700 O 156.674 -2.39997 -3.22124 0
M  V30 1701 N 154.88 -2.19911 -1.89967 0
M  V30 1702 H 154.427 -2.36509 -1.02085 0
M  V30 1703 H 154.385 -1.72646 -2.62756 0
M  V30 1704 N 158.157 -0.370918 -1.53173 0
M  V30 1705 C 159.382 0.220293 -2.06227 0
M  V30 1706 C 159.807 1.41243 -1.24225 0
M  V30 1707 O 159.165 1.79387 -0.262645 0
M  V30 1708 C 159.213 0.586663 -3.55796 0
M  V30 1709 O 158.317 1.68317 -3.76488 0
M  V30 1710 H 157.658 0.0308099 -0.663285 0
M  V30 1711 H 160.188 -0.533068 -1.97534 0
M  V30 1712 H 160.198 0.85617 -3.98916 0
M  V30 1713 H 158.873 -0.285013 -4.14922 0
M  V30 1714 H 157.45 1.40881 -3.45264 0
M  V30 1715 N 159.635 1.57281 -0.100228 0
M  V30 1716 C 160.583 2.15542 0.874328 0
M  V30 1717 C 161.577 1.09962 1.28859 0
M  V30 1718 O 162.783 1.28298 1.26252 0
M  V30 1719 H 159.158 0.689567 0.300003 0
M  V30 1720 H 161.129 2.96241 0.35829 0
M  V30 1721 C 159.878 2.75454 2.1218 0
M  V30 1722 H 159.201 3.56384 1.81193 0
M  V30 1723 H 160.641 3.19781 2.78417 0
M  V30 1724 C 159.1 1.71602 2.89921 0
M  V30 1725 O 159.63 1.15804 3.84646 0
M  V30 1726 N 157.836 1.41975 2.53558 0
M  V30 1727 H 157.383 1.87539 1.76598 0
M  V30 1728 H 157.341 0.727274 3.05873 0
M  V30 1729 N 161.113 -0.173488 1.56642 0
M  V30 1730 C 162.338 -0.910149 1.86363 0
M  V30 1731 C 162.763 -1.75132 0.686318 0
M  V30 1732 O 162.121 -1.77595 -0.364643 0
M  V30 1733 C 162.169 -1.76447 3.14482 0
M  V30 1734 O 161.273 -2.86584 2.96553 0
M  V30 1735 H 160.614 -0.255086 0.613047 0
M  V30 1736 H 163.144 -0.172283 2.03873 0
M  V30 1737 H 163.154 -2.16483 3.45831 0
M  V30 1738 H 161.829 -1.14658 3.99783 0
M  V30 1739 H 160.406 -2.50146 2.76553 0
M  V30 1740 N 162.591 -1.51276 -0.441967 0
M  V30 1741 C 163.819 -1.67516 -1.21434 0
M  V30 1742 C 164.234 -0.37055 -1.85128 0
M  V30 1743 O 163.591 0.650498 -1.70513 0
M  V30 1744 C 163.642 -2.78748 -2.30177 0
M  V30 1745 O 163.363 -4.04154 -1.69089 0
M  V30 1746 C 164.864 -3.06217 -3.20541 0
M  V30 1747 H 162.084 -0.562276 -0.366178 0
M  V30 1748 H 164.628 -1.97666 -0.524244 0
M  V30 1749 H 162.783 -2.5121 -2.94911 0
M  V30 1750 H 163.197 -4.65894 -2.40922 0
M  V30 1751 H 164.671 -3.8764 -3.92987 0
M  V30 1752 H 165.148 -2.18439 -3.81026 0
M  V30 1753 H 165.754 -3.35397 -2.61513 0
M  V30 1754 N 164.069 0.697108 -1.41344 0
M  V30 1755 C 164.979 1.84088 -1.45427 0
M  V30 1756 C 165.995 1.70545 -0.34501 0
M  V30 1757 O 167.171 1.92488 -0.592492 0
M  V30 1758 C 164.236 3.20056 -1.33286 0
M  V30 1759 C 163.297 3.45718 -2.54514 0
M  V30 1760 C 162.53 4.75199 -2.42944 0
M  V30 1761 O 162.753 5.51579 -1.45318 0
M  V30 1762 O 161.687 5.0161 -3.32672 0
M  V30 1763 H 165.513 1.836 -2.41919 0
M  V30 1764 H 163.098 0.849966 -1.22866 0
M  V30 1765 H 164.98 4.01236 -1.28794 0
M  V30 1766 H 163.655 3.2123 -0.39909 0
M  V30 1767 H 162.562 2.64474 -2.64583 0
M  V30 1768 H 163.895 3.49356 -3.46715 0
M  V30 1769 N 165.547 1.27147 0.931209 0
M  V30 1770 C 166.794 1.13278 1.67852 0
M  V30 1771 C 167.122 -0.32204 1.91815 0
M  V30 1772 O 166.377 -1.25224 1.50391 0
M  V30 1773 C 166.676 1.8579 3.05314 0
M  V30 1774 C 166.342 3.35657 3.01073 0
M  V30 1775 C 165.004 3.76536 2.99623 0
M  V30 1776 C 167.356 4.31299 2.92627 0
M  V30 1777 C 164.684 5.11426 2.87506 0
M  V30 1778 C 167.036 5.66242 2.82051 0
M  V30 1779 C 165.7 6.06418 2.7895 0
M  V30 1780 H 164.97 0.414515 0.614214 0
M  V30 1781 H 167.617 1.57712 1.08624 0
M  V30 1782 H 165.922 1.33854 3.68226 0
M  V30 1783 H 167.619 1.72491 3.62005 0
M  V30 1784 H 164.209 3.03146 3.02986 0
M  V30 1785 H 168.393 4.00692 2.92848 0
M  V30 1786 H 163.649 5.41705 2.83489 0
M  V30 1787 H 167.823 6.40026 2.74481 0
M  V30 1788 H 165.45 7.10895 2.69318 0
M  V30 1789 N 167.025 -1.13721 1.09112 0
M  V30 1790 C 168.271 -1.85198 0.826414 0
M  V30 1791 C 168.604 -1.83129 -0.646319 0
M  V30 1792 O 167.879 -1.2671 -1.47563 0
M  V30 1793 C 168.162 -3.33507 1.35812 0
M  V30 1794 C 168.015 -3.44108 2.89672 0
M  V30 1795 C 169.334 -4.28838 0.989256 0
M  V30 1796 H 166.453 -0.67243 0.301675 0
M  V30 1797 H 169.095 -1.33499 1.35197 0
M  V30 1798 H 167.245 -3.77666 0.911082 0
M  V30 1799 H 168.917 -3.08684 3.428 0
M  V30 1800 H 167.16 -2.85087 3.26967 0
M  V30 1801 H 167.831 -4.48388 3.21951 0
M  V30 1802 H 170.307 -3.92734 1.37475 0
M  V30 1803 H 169.183 -5.31051 1.38838 0
M  V30 1804 H 169.444 -4.4198 -0.102924 0
M  V30 1805 N 168.503 -0.877838 -1.30888 0
M  V30 1806 C 169.728 -0.506629 -2.01117 0
M  V30 1807 C 170.153 0.895564 -1.65412 0
M  V30 1808 O 169.511 1.5923 -0.866922 0
M  V30 1809 C 169.559 -0.680223 -3.54126 0
M  V30 1810 O 168.663 0.277033 -4.11468 0
M  V30 1811 H 168.004 -0.200518 -0.633 0
M  V30 1812 H 170.534 -1.18342 -1.66902 0
M  V30 1813 H 170.544 -0.5765 -4.03907 0
M  V30 1814 H 169.219 -1.70261 -3.79452 0
M  V30 1815 H 167.796 0.127606 -3.72682 0
M  V30 1816 N 169.982 1.44106 -0.638065 0
M  V30 1817 C 170.912 2.33448 0.0494287 0
M  V30 1818 C 171.893 1.48606 0.827672 0
M  V30 1819 O 173.078 1.77308 0.792173 0
M  V30 1820 C 170.208 3.31771 1.02691 0
M  V30 1821 C 169.162 4.26485 0.359823 0
M  V30 1822 C 168.488 5.14729 1.44769 0
M  V30 1823 C 169.788 5.17056 -0.738296 0
M  V30 1824 H 171.482 2.91183 -0.696636 0
M  V30 1825 H 169.028 1.40014 -0.336456 0
M  V30 1826 H 170.981 3.93161 1.51666 0
M  V30 1827 H 169.705 2.7226 1.80395 0
M  V30 1828 H 168.364 3.66437 -0.10934 0
M  V30 1829 H 168.012 4.51566 2.21578 0
M  V30 1830 H 167.712 5.78913 1.00668 0
M  V30 1831 H 169.236 5.78991 1.93911 0
M  V30 1832 H 170.65 5.72342 -0.331354 0
M  V30 1833 H 169.047 5.89879 -1.10286 0
M  V30 1834 H 170.117 4.57652 -1.60258 0
M  V30 1835 N 171.46 0.379036 1.52974 0
M  V30 1836 C 172.423 -0.448865 2.24762 0
M  V30 1837 C 173.423 -0.998689 1.26027 0
M  V30 1838 O 174.613 -0.882313 1.50203 0
M  V30 1839 C 171.745 -1.62872 2.99476 0
M  V30 1840 H 172.938 0.179491 2.99362 0
M  V30 1841 H 170.491 0.13096 1.5575 0
M  V30 1842 H 171.226 -2.29479 2.29151 0
M  V30 1843 H 171.011 -1.24128 3.71934 0
M  V30 1844 H 172.501 -2.2151 3.5401 0
M  V30 1845 N 172.938 -1.57226 0.108567 0
M  V30 1846 C 174.163 -1.99604 -0.563303 0
M  V30 1847 C 174.588 -0.987563 -1.6009 0
M  V30 1848 O 173.946 0.0421687 -1.81251 0
M  V30 1849 C 173.994 -3.40902 -1.17552 0
M  V30 1850 O 173.098 -3.42896 -2.2912 0
M  V30 1851 H 172.439 -0.648704 -0.1417 0
M  V30 1852 H 174.969 -2.03679 0.193961 0
M  V30 1853 H 174.979 -3.78886 -1.51357 0
M  V30 1854 H 173.654 -4.1382 -0.415445 0
M  V30 1855 H 172.231 -3.1672 -1.96832 0
M  V30 1856 N 174.416 0.165178 -1.56732 0
M  V30 1857 C 175.363 1.2044 -1.96883 0
M  V30 1858 C 176.333 1.43664 -0.833657 0
M  V30 1859 O 177.518 1.56302 -1.09427 0
M  V30 1860 C 174.658 2.53727 -2.33916 0
M  V30 1861 C 173.771 2.3783 -3.6064 0
M  V30 1862 C 172.906 3.64026 -3.86857 0
M  V30 1863 C 171.945 3.43088 -5.06909 0
M  V30 1864 N 171.082 4.61369 -5.29229 0
M  V30 1865 H 175.922 0.854996 -2.85471 0
M  V30 1866 H 173.459 0.41076 -1.41249 0
M  V30 1867 H 175.417 3.31419 -2.53411 0
M  V30 1868 H 174.047 2.8665 -1.48431 0
M  V30 1869 H 173.099 1.51282 -3.49024 0
M  V30 1870 H 174.411 2.18308 -4.4849 0
M  V30 1871 H 173.565 4.50152 -4.06753 0
M  V30 1872 H 172.304 3.86533 -2.97394 0
M  V30 1873 H 171.309 2.55349 -4.86906 0
M  V30 1874 H 172.534 3.21997 -5.97909 0
M  V30 1875 H 170.48 4.84084 -4.42718 0
M  V30 1876 H 170.397 4.44783 -6.11313 0
M  V30 1877 H 171.665 5.48761 -5.53608 0
M  V30 1878 N 175.894 1.51508 0.433938 0
M  V30 1879 C 177.14 1.64588 1.18484 0
M  V30 1880 C 177.473 0.362666 1.90784 0
M  V30 1881 O 176.748 -0.637892 1.83742 0
M  V30 1882 C 177.031 2.85149 2.19913 0
M  V30 1883 C 176.884 4.23456 1.51674 0
M  V30 1884 C 178.203 3.01227 3.20858 0
M  V30 1885 H 175.322 0.598994 0.429389 0
M  V30 1886 H 177.964 1.84002 0.473647 0
M  V30 1887 H 176.114 2.68729 2.80566 0
M  V30 1888 H 177.786 4.51552 0.943322 0
M  V30 1889 H 176.029 4.25998 0.819035 0
M  V30 1890 H 176.7 5.03812 2.2556 0
M  V30 1891 H 179.176 3.16382 2.70263 0
M  V30 1892 H 178.052 3.87141 3.89118 0
M  V30 1893 H 178.313 2.13447 3.8716 0
M  V30 1894 N 177.372 -0.689602 1.41712 0
M  V30 1895 C 178.319 -1.80345 1.44029 0
M  V30 1896 C 179.289 -1.63478 0.293948 0
M  V30 1897 O 180.474 -1.84244 0.495869 0
M  V30 1898 C 177.614 -3.18272 1.33405 0
M  V30 1899 C 176.727 -3.46529 2.57956 0
M  V30 1900 C 175.862 -4.74103 2.39582 0
M  V30 1901 C 174.901 -4.95347 3.5958 0
M  V30 1902 N 174.038 -6.14151 3.40239 0
M  V30 1903 H 178.878 -1.77698 2.39222 0
M  V30 1904 H 176.415 -0.867688 1.18784 0
M  V30 1905 H 178.373 -3.97956 1.25246 0
M  V30 1906 H 177.003 -3.2008 0.418164 0
M  V30 1907 H 176.055 -2.61207 2.76542 0
M  V30 1908 H 177.367 -3.58126 3.47199 0
M  V30 1909 H 176.521 -5.61853 2.28924 0
M  V30 1910 H 175.26 -4.64763 1.47805 0
M  V30 1911 H 174.265 -4.06044 3.70686 0
M  V30 1912 H 175.49 -5.06542 4.52318 0
M  V30 1913 H 173.436 -6.06013 2.51167 0
M  V30 1914 H 173.353 -6.26543 4.23061 0
M  V30 1915 H 174.621 -7.04619 3.33365 0
M  V30 1916 N 178.85 -1.27639 -0.924453 0
M  V30 1917 C 180.127 -1.04887 -1.651 0
M  V30 1918 C 180.507 0.415327 -2.06974 0
M  V30 1919 O 179.855 1.39923 -1.80648 0
M  V30 1920 C 180.065 -2.01348 -2.85061 0
M  V30 1921 C 181.413 -2.30899 -3.56329 0
M  V30 1922 O 182.437 -1.99348 -2.95193 0
M  V30 1923 O 181.296 -2.84699 -4.66485 0
M  V30 1924 H 178.39 -0.400083 -0.723784 0
M  V30 1925 H 180.936 -1.38916 -0.974703 0
M  V30 1926 H 179.708 -3.0008 -2.51133 0
M  V30 1927 H 179.331 -1.679 -3.6041 0
M  V30 1928 N 180.328 1.1314 -1.09713 0
M  V30 1929 C 181.291 2.16831 -0.742751 0
M  V30 1930 C 182.291 1.59159 0.229129 0
M  V30 1931 O 183.481 1.74199 0.00693237 0
M  V30 1932 C 180.613 3.40756 -0.0989168 0
M  V30 1933 H 181.806 2.49695 -1.66109 0
M  V30 1934 H 179.359 1.2802 -0.896699 0
M  V30 1935 H 180.094 3.13485 0.830514 0
M  V30 1936 H 179.879 3.83888 -0.798265 0
M  V30 1937 H 181.369 4.17386 0.133524 0
M  V30 1938 N 181.806 0.884767 1.30421 0
M  V30 1939 C 182.736 0.367574 2.30589 0
M  V30 1940 C 183.717 -0.549464 1.60981 0
M  V30 1941 O 184.902 -0.46336 1.88591 0
M  V30 1942 C 182.032 -0.418944 3.44764 0
M  V30 1943 C 180.986 0.406316 4.26067 0
M  V30 1944 C 180.312 -0.506793 5.32293 0
M  V30 1945 C 181.612 1.64832 4.95608 0
M  V30 1946 H 183.306 1.20462 2.74097 0
M  V30 1947 H 180.852 0.580695 1.31772 0
M  V30 1948 H 182.805 -0.791395 4.13902 0
M  V30 1949 H 181.529 -1.28964 3.0006 0
M  V30 1950 H 180.188 0.760903 3.58617 0
M  V30 1951 H 179.836 -1.37519 4.83836 0
M  V30 1952 H 179.536 0.0415828 5.87585 0
M  V30 1953 H 181.06 -0.875764 6.04287 0
M  V30 1954 H 182.474 1.34646 5.57264 0
M  V30 1955 H 180.871 2.13688 5.60765 0
M  V30 1956 H 181.941 2.39284 4.21748 0
M  V30 1957 N 183.284 -1.43765 0.645699 0
M  V30 1958 C 184.231 -2.30745 -0.0504648 0
M  V30 1959 C 185.201 -1.4432 -0.822241 0
M  V30 1960 O 186.386 -1.73202 -0.800358 0
M  V30 1961 C 183.526 -3.29802 -1.0161 0
M  V30 1962 C 182.639 -4.31326 -0.241219 0
M  V30 1963 C 181.774 -5.17469 -1.19998 0
M  V30 1964 C 180.813 -6.10691 -0.415094 0
M  V30 1965 N 179.95 -6.89483 -1.32506 0
M  V30 1966 H 184.79 -2.8973 0.697155 0
M  V30 1967 H 182.327 -1.42738 0.355563 0
M  V30 1968 H 184.285 -3.85734 -1.58949 0
M  V30 1969 H 182.915 -2.72483 -1.73069 0
M  V30 1970 H 181.967 -3.77749 0.448334 0
M  V30 1971 H 183.279 -4.9743 0.369437 0
M  V30 1972 H 182.433 -5.7799 -1.84424 0
M  V30 1973 H 181.172 -4.51473 -1.84455 0
M  V30 1974 H 180.177 -5.49265 0.242565 0
M  V30 1975 H 181.402 -6.78727 0.224966 0
M  V30 1976 H 179.348 -6.26142 -1.95657 0
M  V30 1977 H 179.265 -7.52081 -0.768783 0
M  V30 1978 H 180.533 -7.54516 -1.9577 0
M  V30 1979 N 184.763 -0.387143 -1.52771 0
M  V30 1980 C 185.693 0.440551 -2.29306 0
M  V30 1981 C 186.674 1.06535 -1.32606 0
M  V30 1982 O 187.859 1.07853 -1.61497 0
M  V30 1983 C 184.989 1.56919 -3.09829 0
M  V30 1984 C 183.943 1.07054 -4.14395 0
M  V30 1985 C 183.269 2.29109 -4.83129 0
M  V30 1986 C 184.569 0.140015 -5.22112 0
M  V30 1987 H 186.263 -0.198026 -2.98744 0
M  V30 1988 H 183.809 -0.09668 -1.43675 0
M  V30 1989 H 185.762 2.15503 -3.62128 0
M  V30 1990 H 184.486 2.23532 -2.3812 0
M  V30 1991 H 183.145 0.507247 -3.63074 0
M  V30 1992 H 182.793 2.94227 -4.0797 0
M  V30 1993 H 182.493 1.96406 -5.53804 0
M  V30 1994 H 184.017 2.88339 -5.38231 0
M  V30 1995 H 185.431 0.633978 -5.69784 0
M  V30 1996 H 183.828 -0.0971485 -6.00021 0
M  V30 1997 H 184.898 -0.811711 -4.78058 0
M  V30 1998 N 186.241 1.57166 -0.116904 0
M  V30 1999 C 187.171 2.18222 0.830759 0
M  V30 2000 C 188.152 1.12167 1.27877 0
M  V30 2001 O 189.337 1.40394 1.34176 0
M  V30 2002 C 186.467 2.77996 2.08172 0
M  V30 2003 C 185.421 3.89614 1.77157 0
M  V30 2004 C 184.747 4.36187 3.09265 0
M  V30 2005 C 186.047 5.1181 1.04151 0
M  V30 2006 H 187.741 2.97664 0.321992 0
M  V30 2007 H 185.287 1.4318 0.153434 0
M  V30 2008 H 187.24 3.19366 2.74924 0
M  V30 2009 H 185.964 1.9584 2.6137 0
M  V30 2010 H 184.623 3.48816 1.12796 0
M  V30 2011 H 184.271 3.50893 3.60393 0
M  V30 2012 H 183.971 5.11455 2.89288 0
M  V30 2013 H 185.495 4.80207 3.77139 0
M  V30 2014 H 186.909 5.50214 1.61052 0
M  V30 2015 H 185.306 5.92648 0.942762 0
M  V30 2016 H 186.376 4.84892 0.0279022 0
M  V30 2017 N 187.719 -0.156864 1.56817 0
M  V30 2018 C 188.949 -0.885031 1.86684 0
M  V30 2019 C 189.357 -1.75696 0.701954 0
M  V30 2020 O 188.7 -1.80569 -0.337732 0
M  V30 2021 C 188.762 -1.80092 3.11138 0
M  V30 2022 C 188.426 -1.10714 4.43386 0
M  V30 2023 C 189.423 -0.465714 5.1781 0
M  V30 2024 C 187.108 -1.09959 4.90117 0
M  V30 2025 C 189.102 0.174002 6.37162 0
M  V30 2026 C 186.789 -0.456055 6.09396 0
M  V30 2027 C 187.787 0.179622 6.82764 0
M  V30 2028 O 187.475 0.812975 7.99779 0
M  V30 2029 H 187.207 -0.261813 0.623242 0
M  V30 2030 H 189.761 -0.157383 2.04796 0
M  V30 2031 H 187.991 -2.56926 2.89009 0
M  V30 2032 H 189.68 -2.40018 3.27332 0
M  V30 2033 H 190.446 -0.463427 4.82781 0
M  V30 2034 H 186.325 -1.58378 4.3294 0
M  V30 2035 H 189.869 0.670765 6.94368 0
M  V30 2036 H 185.766 -0.455975 6.43888 0
M  V30 2037 H 186.534 0.71366 8.15383 0
M  V30 2038 N 189.197 -1.51736 -0.425897 0
M  V30 2039 C 190.422 -1.69082 -1.20108 0
M  V30 2040 C 190.847 -0.392398 -1.83962 0
M  V30 2041 O 190.205 0.64858 -1.69302 0
M  V30 2042 C 190.253 -2.81604 -2.25237 0
M  V30 2043 O 189.357 -2.46004 -3.30992 0
M  V30 2044 H 188.698 -0.563408 -0.35138 0
M  V30 2045 H 191.228 -1.98358 -0.501512 0
M  V30 2046 H 191.238 -3.06025 -2.69838 0
M  V30 2047 H 189.913 -3.75817 -1.78142 0
M  V30 2048 H 188.49 -2.32195 -2.91787 0
M  V30 2049 N 190.675 0.682077 -1.42076 0
M  V30 2050 C 191.923 1.4393 -1.41876 0
M  V30 2051 C 192.244 1.94971 -0.0335599 0
M  V30 2052 O 191.514 1.72591 0.926773 0
M  V30 2053 H 190.094 0.534085 -0.522267 0
M  V30 2054 H 192.756 0.806427 -1.77434 0
M  V30 2055 H 191.852 2.29588 -2.11414 0
M  V30 2056 N 192.153 1.28127 0.917671 0
M  V30 2057 C 193.399 1.15223 1.66888 0
M  V30 2058 C 193.732 -0.299293 1.9188 0
M  V30 2059 O 193.007 -1.21805 1.51637 0
M  V30 2060 C 193.29 1.94706 3.02922 0
M  V30 2061 C 193.143 3.47898 2.85109 0
M  V30 2062 C 194.462 1.75939 4.03402 0
M  V30 2063 H 191.581 0.419946 0.605652 0
M  V30 2064 H 194.223 1.57398 1.06423 0
M  V30 2065 H 192.373 1.58864 3.54534 0
M  V30 2066 H 194.045 3.93624 2.40537 0
M  V30 2067 H 192.288 3.7373 2.20246 0
M  V30 2068 H 192.959 3.98765 3.81694 0
M  V30 2069 H 195.435 2.07209 3.60837 0
M  V30 2070 H 194.311 2.33931 4.96556 0
M  V30 2071 H 194.572 0.709877 4.36364 0
M  V30 2072 N 193.631 -1.12557 1.10312 0
M  V30 2073 C 195.042 -1.65574 0.862678 0
M  V30 2074 C 195.393 -1.86566 -0.607256 0
M  V30 2075 O 194.518 -1.59121 -1.46662 0
M  V30 2076 C 195.113 -3.00776 1.55947 0
M  V30 2077 C 193.672 -3.50748 1.36576 0
M  V30 2078 C 192.819 -2.25797 1.60968 0
M  V30 2079 H 195.77 -0.963552 1.26101 0
M  V30 2080 H 195.791 -3.67185 0.997753 0
M  V30 2081 H 195.303 -2.85465 2.62928 0
M  V30 2082 H 193.404 -3.71245 0.317531 0
M  V30 2083 H 193.517 -4.30289 2.10686 0
M  V30 2084 H 191.881 -2.32841 1.03234 0
M  V30 2085 H 192.664 -2.13043 2.69198 0
M  V30 2086 N 195.109 -0.891671 -1.2995 0
M  V30 2087 C 196.356 -0.513501 -1.95881 0
M  V30 2088 C 196.684 0.938655 -1.70351 0
M  V30 2089 O 195.939 1.67936 -1.00478 0
M  V30 2090 C 196.238 -0.742868 -3.49594 0
M  V30 2091 C 195.904 -2.17114 -3.95186 0
M  V30 2092 C 194.566 -2.56169 -4.07346 0
M  V30 2093 C 196.918 -3.10162 -4.18866 0
M  V30 2094 C 194.246 -3.87469 -4.4055 0
M  V30 2095 C 196.598 -4.41001 -4.53542 0
M  V30 2096 C 195.262 -4.79941 -4.63911 0
M  V30 2097 H 194.532 -0.187903 -0.71678 0
M  V30 2098 H 197.179 -1.1288 -1.54694 0
M  V30 2099 H 195.484 -0.044586 -3.91775 0
M  V30 2100 H 197.181 -0.429767 -3.9869 0
M  V30 2101 H 193.771 -1.85801 -3.86233 0
M  V30 2102 H 197.955 -2.81206 -4.08946 0
M  V30 2103 H 193.211 -4.17371 -4.46779 0
M  V30 2104 H 197.385 -5.13133 -4.70815 0
M  V30 2105 H 195.012 -5.81719 -4.89395 0
M  V30 2106 N 196.587 1.43421 -0.653314 0
M  V30 2107 C 197.517 2.33487 0.0246656 0
M  V30 2108 C 198.498 1.49475 0.811863 0
M  V30 2109 O 199.683 1.78139 0.773322 0
M  V30 2110 C 196.813 3.32841 0.99166 0
M  V30 2111 C 195.767 4.26842 0.314568 0
M  V30 2112 C 195.093 5.16236 1.39302 0
M  V30 2113 C 196.393 5.16243 -0.793095 0
M  V30 2114 H 198.087 2.90427 -0.727481 0
M  V30 2115 H 195.633 1.39649 -0.351287 0
M  V30 2116 H 197.586 3.94747 1.47487 0
M  V30 2117 H 196.31 2.74158 1.77497 0
M  V30 2118 H 194.969 3.663 -0.148199 0
M  V30 2119 H 194.617 4.53891 2.16776 0
M  V30 2120 H 194.317 5.79948 0.945223 0
M  V30 2121 H 195.841 5.81015 1.87759 0
M  V30 2122 H 197.255 5.71958 -0.392039 0
M  V30 2123 H 195.652 5.88676 -1.16536 0
M  V30 2124 H 196.722 4.55927 -1.65103 0
M  V30 2125 N 198.065 0.39524 1.52563 0
M  V30 2126 C 199.313 -0.184678 2.01254 0
M  V30 2127 C 199.634 -1.46822 1.28329 0
M  V30 2128 O 198.904 -1.91666 0.405094 0
M  V30 2129 H 197.484 -0.0712355 0.743596 0
M  V30 2130 H 200.146 0.528293 1.87603 0
M  V30 2131 H 199.242 -0.390681 3.09645 0
M  V30 2132 N 199.544 -1.57102 0.125237 0
M  V30 2133 C 200.955 -1.82384 -0.399142 0
M  V30 2134 C 201.306 -1.04276 -1.66195 0
M  V30 2135 O 200.431 -0.281269 -2.14564 0
M  V30 2136 C 201.026 -3.30821 -0.730932 0
M  V30 2137 C 199.585 -3.56762 -1.19992 0
M  V30 2138 C 198.732 -2.7649 -0.211792 0
M  V30 2139 H 201.683 -1.54786 0.350277 0
M  V30 2140 H 201.704 -3.4579 -1.58775 0
M  V30 2141 H 201.216 -3.87643 0.188345 0
M  V30 2142 H 199.317 -3.05305 -2.13588 0
M  V30 2143 H 199.43 -4.65317 -1.14093 0
M  V30 2144 H 197.794 -2.4489 -0.700085 0
M  V30 2145 H 198.577 -3.36073 0.700691 0
M  V30 2146 N 201.022 0.148545 -1.56898 0
M  V30 2147 C 202.252 0.875118 -1.8715 0
M  V30 2148 C 202.66 1.75322 -0.711262 0
M  V30 2149 O 202.003 1.80745 0.328151 0
M  V30 2150 C 202.065 1.7844 -3.12089 0
M  V30 2151 C 201.729 1.08361 -4.43967 0
M  V30 2152 C 202.726 0.438247 -5.1805 0
M  V30 2153 C 200.411 1.07358 -4.90693 0
M  V30 2154 C 202.405 -0.20779 -6.37061 0
M  V30 2155 C 200.092 0.42373 -6.09629 0
M  V30 2156 C 201.09 -0.215829 -6.82659 0
M  V30 2157 O 200.778 -0.855378 -7.99336 0
M  V30 2158 H 200.51 0.258504 -0.624621 0
M  V30 2159 H 203.064 0.14652 -2.04877 0
M  V30 2160 H 201.294 2.55389 -2.90367 0
M  V30 2161 H 202.983 2.38279 -3.286 0
M  V30 2162 H 203.749 0.437817 -4.8302 0
M  V30 2163 H 199.628 1.5608 -4.33774 0
M  V30 2164 H 203.172 -0.70758 -6.94002 0
M  V30 2165 H 199.069 0.421822 -6.4412 0
M  V30 2166 H 199.837 -0.756892 -8.14993 0
M  V30 2167 N 202.5 1.5196 0.417844 0
M  V30 2168 C 203.45 1.7106 1.5074 0
M  V30 2169 C 204.434 0.564487 1.50673 0
M  V30 2170 O 205.626 0.821206 1.56797 0
M  V30 2171 C 202.755 1.85677 2.88754 0
M  V30 2172 C 201.841 3.06133 2.93502 0
M  V30 2173 N 202.232 4.28987 2.67962 0
M  V30 2174 C 200.53 3.05787 3.24669 0
M  V30 2175 C 201.231 5.10395 2.79055 0
M  V30 2176 N 200.207 4.45455 3.11561 0
M  V30 2177 H 204.009 2.63696 1.29775 0
M  V30 2178 H 201.523 1.49873 0.625436 0
M  V30 2179 H 203.52 1.97475 3.67164 0
M  V30 2180 H 202.18 0.942348 3.10725 0
M  V30 2181 H 203.191 4.57607 2.4252 0
M  V30 2182 H 199.868 2.2405 3.52289 0
M  V30 2183 H 201.258 6.18247 2.63097 0
M  V30 2184 N 203.978 -0.674533 1.42435 0
M  V30 2185 C 204.925 -1.78807 1.45934 0
M  V30 2186 C 205.895 -1.63157 0.311271 0
M  V30 2187 O 207.08 -1.83707 0.515383 0
M  V30 2188 C 204.22 -3.16839 1.36773 0
M  V30 2189 C 203.333 -3.43774 2.61617 0
M  V30 2190 C 202.468 -4.71536 2.44597 0
M  V30 2191 C 201.507 -4.91505 3.64814 0
M  V30 2192 N 200.644 -6.10508 3.46734 0
M  V30 2193 H 205.484 -1.75151 2.41093 0
M  V30 2194 H 203.021 -0.85504 1.19697 0
M  V30 2195 H 204.979 -3.96606 1.29459 0
M  V30 2196 H 203.609 -3.19619 0.452089 0
M  V30 2197 H 202.661 -2.58259 2.79297 0
M  V30 2198 H 203.973 -3.54423 3.50978 0
M  V30 2199 H 203.127 -5.59393 2.3487 0
M  V30 2200 H 201.866 -4.6317 1.52726 0
M  V30 2201 H 200.871 -4.0209 3.74972 0
M  V30 2202 H 202.096 -5.01716 4.57665 0
M  V30 2203 H 200.042 -6.03315 2.5758 0
M  V30 2204 H 199.959 -6.2202 4.29682 0
M  V30 2205 H 201.227 -7.01044 3.40819 0
M  V30 2206 N 205.456 -1.28612 -0.910864 0
M  V30 2207 C 206.366 -1.14643 -2.0468 0
M  V30 2208 C 207.382 -0.0723121 -1.7385 0
M  V30 2209 O 208.558 -0.282178 -1.99413 0
M  V30 2210 C 205.623 -0.812561 -3.37044 0
M  V30 2211 C 204.684 -1.96935 -3.81465 0
M  V30 2212 C 203.917 -1.65131 -5.07511 0
M  V30 2213 O 204.14 -0.567013 -5.67575 0
M  V30 2214 O 203.074 -2.49585 -5.47714 0
M  V30 2215 H 206.9 -2.1001 -2.19384 0
M  V30 2216 H 204.485 -1.07958 -1.03274 0
M  V30 2217 H 206.367 -0.640441 -4.16505 0
M  V30 2218 H 205.042 0.111426 -3.23508 0
M  V30 2219 H 203.949 -2.19664 -3.02818 0
M  V30 2220 H 205.282 -2.87414 -3.99567 0
M  V30 2221 N 206.934 1.1197 -1.10907 0
M  V30 2222 C 208.159 1.87942 -0.877064 0
M  V30 2223 C 208.584 1.79341 0.567314 0
M  V30 2224 O 207.942 1.15184 1.40009 0
M  V30 2225 C 207.99 3.34926 -1.33629 0
M  V30 2226 O 207.094 4.09303 -0.504447 0
M  V30 2227 H 206.435 0.583785 -0.316371 0
M  V30 2228 H 208.965 1.4157 -1.47712 0
M  V30 2229 H 208.975 3.8577 -1.32837 0
M  V30 2230 H 207.65 3.40504 -2.3881 0
M  V30 2231 H 206.227 3.68393 -0.577993 0
M  V30 2232 N 208.412 0.89855 1.29475 0
M  V30 2233 C 209.375 0.380272 2.26023 0
M  V30 2234 C 210.375 -0.484891 1.53315 0
M  V30 2235 O 211.565 -0.290108 1.71767 0
M  V30 2236 C 208.697 -0.45651 3.3783 0
M  V30 2237 H 209.89 1.23295 2.73383 0
M  V30 2238 H 207.443 0.676589 1.40897 0
M  V30 2239 H 208.178 -1.32922 2.95808 0
M  V30 2240 H 207.963 0.163393 3.91759 0
M  V30 2241 H 209.453 -0.810466 4.0966 0
M  V30 2242 N 209.89 -1.43072 0.660911 0
M  V30 2243 C 211.136 -2.0202 0.177708 0
M  V30 2244 C 211.469 -1.52066 -1.20787 0
M  V30 2245 O 210.744 -0.716987 -1.80802 0
M  V30 2246 C 211.027 -3.59561 0.197019 0
M  V30 2247 C 210.88 -4.19727 1.61706 0
M  V30 2248 C 212.199 -4.37664 -0.462396 0
M  V30 2249 H 209.318 -0.734034 0.0660494 0
M  V30 2250 H 211.96 -1.70272 0.843058 0
M  V30 2251 H 210.11 -3.86739 -0.369527 0
M  V30 2252 H 211.782 -4.03553 2.23479 0
M  V30 2253 H 210.025 -3.76084 2.16201 0
M  V30 2254 H 210.696 -5.28834 1.58237 0
M  V30 2255 H 213.172 -4.16095 0.0197215 0
M  V30 2256 H 212.048 -5.47305 -0.418188 0
M  V30 2257 H 212.309 -4.14493 -1.53778 0
M  V30 2258 N 211.368 -0.403325 -1.52352 0
M  V30 2259 C 212.596 0.174012 -2.06167 0
M  V30 2260 C 213.011 1.39347 -1.27388 0
M  V30 2261 O 212.368 1.79597 -0.324201 0
M  V30 2262 C 212.419 0.530223 -3.5759 0
M  V30 2263 O 212.14 -0.640806 -4.33388 0
M  V30 2264 C 213.641 1.16192 -4.27802 0
M  V30 2265 H 210.861 0.0229464 -0.670608 0
M  V30 2266 H 213.405 -0.572604 -1.9632 0
M  V30 2267 H 211.56 1.22673 -3.67464 0
M  V30 2268 H 211.974 -0.344851 -5.23365 0
M  V30 2269 H 213.448 1.36141 -5.34948 0
M  V30 2270 H 213.925 2.13335 -3.83907 0
M  V30 2271 H 214.531 0.505775 -4.22282 0
M  V30 2272 N 212.846 1.57033 -0.133567 0
M  V30 2273 C 213.809 2.14897 0.796995 0
M  V30 2274 C 214.809 1.0874 1.18458 0
M  V30 2275 O 215.999 1.34446 1.1077 0
M  V30 2276 C 213.131 2.70112 2.07973 0
M  V30 2277 H 214.324 2.98457 0.293873 0
M  V30 2278 H 211.877 1.55871 0.115787 0
M  V30 2279 H 212.612 1.9018 2.62682 0
M  V30 2280 H 212.397 3.47764 1.81115 0
M  V30 2281 H 213.887 3.14738 2.74462 0
M  V30 2282 N 214.325 -0.140222 1.56975 0
M  V30 2283 C 215.572 -0.851687 1.83719 0
M  V30 2284 C 215.9 -1.80862 0.715485 0
M  V30 2285 O 215.155 -1.93464 -0.294956 0
M  V30 2286 C 215.454 -1.65386 3.16832 0
M  V30 2287 C 215.12 -0.843112 4.42947 0
M  V30 2288 C 213.782 -0.619464 4.77196 0
M  V30 2289 C 216.134 -0.276582 5.20466 0
M  V30 2290 C 213.462 0.181312 5.8642 0
M  V30 2291 C 215.814 0.51127 6.30531 0
M  V30 2292 C 214.478 0.745432 6.63325 0
M  V30 2293 H 213.748 -0.311654 0.672274 0
M  V30 2294 H 216.395 -0.115006 1.91154 0
M  V30 2295 H 214.7 -2.46084 3.04877 0
M  V30 2296 H 216.397 -2.20793 3.34741 0
M  V30 2297 H 212.987 -1.0275 4.16101 0
M  V30 2298 H 217.171 -0.436632 4.94376 0
M  V30 2299 H 212.427 0.372165 6.10266 0
M  V30 2300 H 216.601 0.957354 6.89788 0
M  V30 2301 H 214.228 1.36778 7.47794 0
M  V30 2302 N 215.803 -1.52179 -0.40978 0
M  V30 2303 C 217.028 -1.70347 -1.18308 0
M  V30 2304 C 217.453 -0.411887 -1.83535 0
M  V30 2305 O 216.811 0.630587 -1.6998 0
M  V30 2306 C 216.859 -2.83977 -2.22238 0
M  V30 2307 O 215.963 -2.495 -3.28365 0
M  V30 2308 H 215.304 -0.567103 -0.345384 0
M  V30 2309 H 217.834 -1.98879 -0.480445 0
M  V30 2310 H 217.844 -3.0887 -2.66577 0
M  V30 2311 H 216.519 -3.77685 -1.74146 0
M  V30 2312 H 215.096 -2.35277 -2.89308 0
M  V30 2313 N 217.281 0.66697 -1.42791 0
M  V30 2314 C 218.191 1.80962 -1.49299 0
M  V30 2315 C 219.207 1.69775 -0.381108 0
M  V30 2316 O 220.383 1.91188 -0.633188 0
M  V30 2317 C 217.448 3.17156 -1.40045 0
M  V30 2318 C 216.509 3.40242 -2.6179 0
M  V30 2319 C 215.742 4.69939 -2.52969 0
M  V30 2320 O 215.965 5.48372 -1.56985 0
M  V30 2321 O 214.899 4.94441 -3.43237 0
M  V30 2322 H 218.725 1.78427 -2.45759 0
M  V30 2323 H 216.31 0.823713 -1.24641 0
M  V30 2324 H 218.192 3.98413 -1.37276 0
M  V30 2325 H 216.867 3.20312 -0.467138 0
M  V30 2326 H 215.774 2.58802 -2.70134 0
M  V30 2327 H 217.107 3.41923 -3.54047 0
M  V30 2328 N 218.759 1.29093 0.90403 0
M  V30 2329 C 220.007 1.16583 1.65085 0
M  V30 2330 C 220.328 -0.283933 1.92922 0
M  V30 2331 O 219.598 -1.19509 1.55224 0
M  V30 2332 H 218.178 0.428467 0.611903 0
M  V30 2333 H 220.84 1.61959 1.08422 0
M  V30 2334 H 219.936 1.71266 2.6091 0
M  V30 2335 N 220.237 -1.11381 1.11499 0
M  V30 2336 C 221.462 -1.87475 0.887019 0
M  V30 2337 C 221.887 -1.79639 -0.557796 0
M  V30 2338 O 221.245 -1.15924 -1.39396 0
M  V30 2339 C 221.293 -3.34213 1.35403 0
M  V30 2340 O 220.397 -4.0903 0.526146 0
M  V30 2341 H 219.738 -0.582099 0.319463 0
M  V30 2342 H 222.268 -1.40785 1.48461 0
M  V30 2343 H 222.278 -3.8506 1.34881 0
M  V30 2344 H 220.953 -3.39232 2.40612 0
M  V30 2345 H 219.53 -3.68082 0.597522 0
M  V30 2346 N 221.715 -0.905404 -1.28997 0
M  V30 2347 C 222.961 -0.535039 -1.95615 0
M  V30 2348 C 223.294 0.917404 -1.71165 0
M  V30 2349 O 222.569 1.65123 -1.02785 0
M  V30 2350 C 222.852 -0.834918 -3.50287 0
M  V30 2351 C 222.705 -2.33948 -3.84172 0
M  V30 2352 C 224.024 -0.325318 -4.38896 0
M  V30 2353 H 221.143 -0.195861 -0.710498 0
M  V30 2354 H 223.785 -1.13313 -1.52513 0
M  V30 2355 H 221.935 -0.325904 -3.87131 0
M  V30 2356 H 223.607 -2.91847 -3.57243 0
M  V30 2357 H 221.85 -2.79789 -3.31513 0
M  V30 2358 H 222.521 -2.49987 -4.92149 0
M  V30 2359 H 224.997 -0.761256 -4.09077 0
M  V30 2360 H 223.873 -0.564295 -5.45992 0
M  V30 2361 H 224.134 0.774144 -4.35269 0
M  V30 2362 N 223.193 1.4272 -0.668489 0
M  V30 2363 C 224.442 2.00846 -0.185389 0
M  V30 2364 C 224.755 1.53442 1.21305 0
M  V30 2365 O 225.961 2.03944 1.79218 0
M  V30 2366 C 224.417 3.58805 -0.280591 0
M  V30 2367 C 224.025 4.15198 -1.68268 0
M  V30 2368 C 225.769 4.24255 0.14412 0
M  V30 2369 C 223.676 5.655 -1.73099 0
M  V30 2370 H 222.606 0.751145 -0.0655475 0
M  V30 2371 H 225.257 1.63516 -0.832752 0
M  V30 2372 H 223.639 3.93608 0.434553 0
M  V30 2373 H 224.813 3.91866 -2.42441 0
M  V30 2374 H 223.128 3.62176 -2.05469 0
M  V30 2375 H 225.725 5.34547 0.128086 0
M  V30 2376 H 226.068 3.99277 1.17827 0
M  V30 2377 H 226.601 3.94389 -0.519798 0
M  V30 2378 H 223.34 5.95268 -2.74475 0
M  V30 2379 H 222.86 5.90842 -1.03274 0
M  V30 2380 H 224.539 6.29808 -1.48158 0
M  V30 2381 N 224.671 0.411399 1.52136 0
M  V30 2382 C 225.634 -0.401089 2.25663 0
M  V30 2383 C 226.634 -0.971732 1.28117 0
M  V30 2384 O 227.824 -0.850254 1.52041 0
M  V30 2385 C 224.956 -1.56483 3.02863 0
M  V30 2386 H 226.149 0.24295 2.98914 0
M  V30 2387 H 223.702 0.163968 1.55438 0
M  V30 2388 H 224.437 -2.24567 2.33967 0
M  V30 2389 H 224.222 -1.16211 3.74483 0
M  V30 2390 H 225.712 -2.13951 3.58629 0
M  V30 2391 N 226.149 -1.5696 0.141893 0
M  V30 2392 C 227.379 -2.00031 -0.516828 0
M  V30 2393 C 227.787 -1.02091 -1.59293 0
M  V30 2394 O 227.13 -0.00909657 -1.83698 0
M  V30 2395 C 227.192 -3.39534 -1.1814 0
M  V30 2396 C 226.856 -4.56313 -0.250513 0
M  V30 2397 C 227.853 -5.17295 0.519839 0
M  V30 2398 C 225.538 -5.02061 -0.154907 0
M  V30 2399 C 227.532 -6.2243 1.3733 0
M  V30 2400 C 225.219 -6.07053 0.702161 0
M  V30 2401 C 226.217 -6.67106 1.46487 0
M  V30 2402 O 225.905 -7.70066 2.30767 0
M  V30 2403 H 225.637 -0.661451 -0.139493 0
M  V30 2404 H 228.191 -2.04086 0.231926 0
M  V30 2405 H 226.421 -3.32302 -1.97769 0
M  V30 2406 H 228.11 -3.66745 -1.73933 0
M  V30 2407 H 228.876 -4.82852 0.45598 0
M  V30 2408 H 224.755 -4.5505 -0.7383 0
M  V30 2409 H 228.299 -6.69233 1.96909 0
M  V30 2410 H 224.196 -6.40923 0.76733 0
M  V30 2411 H 224.964 -7.87264 2.23959 0
M  V30 2412 N 227.627 0.131896 -1.57047 0
M  V30 2413 C 228.857 0.855219 -1.88068 0
M  V30 2414 C 229.265 1.74557 -0.729817 0
M  V30 2415 O 228.608 1.81083 0.308962 0
M  V30 2416 C 228.67 1.75119 -3.13964 0
M  V30 2417 C 228.334 1.03646 -4.45091 0
M  V30 2418 C 229.331 0.383276 -5.18485 0
M  V30 2419 C 227.016 1.02148 -4.91804 0
M  V30 2420 C 229.01 -0.275347 -6.36805 0
M  V30 2421 C 226.697 0.359047 -6.10044 0
M  V30 2422 C 227.695 -0.288222 -6.82392 0
M  V30 2423 O 227.383 -0.94011 -7.98384 0
M  V30 2424 H 227.115 0.251864 -0.627328 0
M  V30 2425 H 229.669 0.124782 -2.05021 0
M  V30 2426 H 227.899 2.52295 -2.9306 0
M  V30 2427 H 229.588 2.3478 -3.31109 0
M  V30 2428 H 230.354 0.386562 -4.83457 0
M  V30 2429 H 226.233 1.5147 -4.35405 0
M  V30 2430 H 229.777 -0.781148 -6.93213 0
M  V30 2431 H 225.674 0.35348 -6.44531 0
M  V30 2432 H 226.442 -0.84329 -8.14144 0
M  V30 2433 N 229.106 1.52395 0.401703 0
M  V30 2434 C 230.352 1.68019 1.14635 0
M  V30 2435 C 230.707 0.408722 1.88009 0
M  V30 2436 O 230 -0.597133 1.82057 0
M  V30 2437 C 230.194 2.84578 2.16217 0
M  V30 2438 C 230.023 4.22938 1.5282 0
M  V30 2439 C 228.793 4.88352 1.29772 0
M  V30 2440 C 230.991 5.04778 0.985094 0
M  V30 2441 N 228.973 6.10726 0.623455 0
M  V30 2442 C 230.344 6.1845 0.438172 0
M  V30 2443 C 232.399 4.90057 0.880275 0
M  V30 2444 C 231.102 7.19013 -0.203306 0
M  V30 2445 C 233.128 5.9086 0.252639 0
M  V30 2446 C 232.49 7.03829 -0.283573 0
M  V30 2447 H 228.589 0.668413 0.405892 0
M  V30 2448 H 231.173 1.89717 0.437674 0
M  V30 2449 H 229.344 2.64483 2.84435 0
M  V30 2450 H 231.076 2.89202 2.83098 0
M  V30 2451 H 227.831 4.46846 1.56926 0
M  V30 2452 H 228.255 6.76323 0.302733 0
M  V30 2453 H 232.897 4.02938 1.28065 0
M  V30 2454 H 230.615 8.05751 -0.615726 0
M  V30 2455 H 234.201 5.81543 0.172954 0
M  V30 2456 H 233.081 7.80493 -0.761575 0
M  V30 2457 N 230.584 -0.659388 1.43143 0
M  V30 2458 C 231.809 -1.45221 1.48073 0
M  V30 2459 C 232.234 -1.87845 0.097995 0
M  V30 2460 O 231.592 -1.56985 -0.90694 0
M  V30 2461 C 231.64 -2.66748 2.42647 0
M  V30 2462 O 230.744 -3.65583 1.90848 0
M  V30 2463 H 230.085 -0.435669 0.501088 0
M  V30 2464 H 232.615 -0.807432 1.87994 0
M  V30 2465 H 232.625 -3.14637 2.59745 0
M  V30 2466 H 231.3 -2.35067 3.43098 0
M  V30 2467 H 229.877 -3.24693 1.83381 0
M  V30 2468 N 232.062 -1.29571 -0.897171 0
M  V30 2469 C 232.972 -1.16808 -2.03453 0
M  V30 2470 C 233.988 -0.0907471 -1.73763 0
M  V30 2471 O 235.164 -0.303312 -1.99103 0
M  V30 2472 C 232.229 -0.848264 -3.36163 0
M  V30 2473 C 231.29 -2.0097 -3.79354 0
M  V30 2474 C 230.523 -1.70505 -5.05731 0
M  V30 2475 O 230.746 -0.62718 -5.66941 0
M  V30 2476 O 229.68 -2.5538 -5.45036 0
M  V30 2477 H 233.506 -2.12325 -2.17144 0
M  V30 2478 H 231.091 -1.09047 -1.02123 0
M  V30 2479 H 232.973 -0.684581 -4.15802 0
M  V30 2480 H 231.648 0.0771071 -3.23608 0
M  V30 2481 H 230.555 -2.22863 -3.00471 0
M  V30 2482 H 231.888 -2.91636 -3.96496 0
M  V30 2483 N 233.54 1.10788 -1.12088 0
M  V30 2484 C 234.787 1.82671 -0.873931 0
M  V30 2485 C 235.115 1.85004 0.600311 0
M  V30 2486 O 234.37 1.30365 1.45957 0
M  V30 2487 C 234.669 3.29294 -1.38926 0
M  V30 2488 C 234.335 3.47113 -2.87791 0
M  V30 2489 C 232.997 3.51684 -3.28439 0
M  V30 2490 C 235.349 3.52808 -3.83635 0
M  V30 2491 C 232.677 3.59513 -4.63646 0
M  V30 2492 C 235.029 3.62169 -5.18668 0
M  V30 2493 C 233.693 3.65003 -5.58864 0
M  V30 2494 H 232.963 0.668441 -0.319794 0
M  V30 2495 H 235.61 1.30613 -1.40045 0
M  V30 2496 H 233.915 3.83894 -0.783122 0
M  V30 2497 H 235.612 3.83416 -1.17443 0
M  V30 2498 H 232.202 3.4423 -2.5535 0
M  V30 2499 H 236.386 3.4853 -3.53328 0
M  V30 2500 H 231.642 3.59987 -4.94185 0
M  V30 2501 H 235.816 3.6552 -5.92763 0
M  V30 2502 H 233.443 3.70822 -6.63623 0
M  V30 2503 N 235.018 0.912232 1.28515 0
M  V30 2504 C 236.243 0.559774 1.99703 0
M  V30 2505 C 236.668 -0.851393 1.67729 0
M  V30 2506 O 236.026 -1.56875 0.908834 0
M  V30 2507 C 236.074 0.773874 3.52198 0
M  V30 2508 O 235.178 -0.167842 4.12058 0
M  V30 2509 H 234.519 0.21723 0.627461 0
M  V30 2510 H 237.049 1.22725 1.63706 0
M  V30 2511 H 237.059 0.683386 4.02236 0
M  V30 2512 H 235.734 1.80261 3.74805 0
M  V30 2513 H 234.311 -0.0287509 3.72889 0
M  V30 2514 N 236.496 -1.42363 0.676048 0
M  V30 2515 C 237.745 -2.00745 0.196037 0
M  V30 2516 C 238.058 -1.54083 -1.20489 0
M  V30 2517 O 239.264 -2.04891 -1.78134 0
M  V30 2518 C 237.72 -3.58651 0.299616 0
M  V30 2519 C 237.328 -4.143 1.70468 0
M  V30 2520 C 239.072 -4.24326 -0.121619 0
M  V30 2521 C 236.979 -5.64574 1.76096 0
M  V30 2522 H 235.909 -0.750787 0.0695301 0
M  V30 2523 H 238.56 -1.63072 0.841412 0
M  V30 2524 H 236.942 -3.93833 -0.413673 0
M  V30 2525 H 238.116 -3.90575 2.44515 0
M  V30 2526 H 236.431 -3.61081 2.07387 0
M  V30 2527 H 239.028 -5.34607 -0.0997362 0
M  V30 2528 H 239.371 -3.99897 -1.15708 0
M  V30 2529 H 239.904 -3.94108 0.540706 0
M  V30 2530 H 236.643 -5.93804 2.77628 0
M  V30 2531 H 236.163 -5.90286 1.06406 0
M  V30 2532 H 237.842 -6.29013 1.51496 0
M  V30 2533 N 237.974 -0.419461 -1.51915 0
M  V30 2534 C 239.385 0.0477853 -1.86639 0
M  V30 2535 C 239.736 1.43531 -1.33766 0
M  V30 2536 O 238.861 2.05401 -0.68113 0
M  V30 2537 C 239.456 0.0934885 -3.38671 0
M  V30 2538 C 238.015 0.505097 -3.72996 0
M  V30 2539 C 237.162 -0.313792 -2.75519 0
M  V30 2540 H 240.113 -0.636088 -1.45395 0
M  V30 2541 H 240.134 0.906667 -3.6954 0
M  V30 2542 H 239.646 -0.916501 -3.77123 0
M  V30 2543 H 237.747 1.52135 -3.40126 0
M  V30 2544 H 237.86 0.242309 -4.78487 0
M  V30 2545 H 236.224 0.225363 -2.53701 0
M  V30 2546 H 237.007 -1.32232 -3.16812 0
M  V30 2547 N 239.452 1.56882 -0.150215 0
M  V30 2548 C 240.384 2.14057 0.819286 0
M  V30 2549 C 241.397 1.09082 1.20851 0
M  V30 2550 O 242.586 1.36347 1.15203 0
M  V30 2551 C 239.686 2.65102 2.11127 0
M  V30 2552 C 238.859 3.94511 1.88891 0
M  V30 2553 C 237.918 4.30834 3.02107 0
M  V30 2554 O 236.944 4.99099 2.73659 0
M  V30 2555 N 238.146 3.90676 4.29363 0
M  V30 2556 H 240.911 2.97871 0.330618 0
M  V30 2557 H 238.472 1.61866 0.0332538 0
M  V30 2558 H 240.464 2.86411 2.85921 0
M  V30 2559 H 239.034 1.85994 2.51247 0
M  V30 2560 H 238.254 3.81795 0.981152 0
M  V30 2561 H 239.542 4.7907 1.71376 0
M  V30 2562 H 238.94 3.35677 4.55343 0
M  V30 2563 H 237.497 4.1703 5.00928 0
M  V30 2564 N 240.93 -0.123565 1.57115 0
M  V30 2565 C 241.88 -1.1575 1.96433 0
M  V30 2566 C 242.864 -1.37313 0.838686 0
M  V30 2567 O 244.056 -1.38482 1.10235 0
M  V30 2568 C 241.185 -2.48526 2.36833 0
M  V30 2569 C 240.271 -2.30457 3.5602 0
M  V30 2570 N 240.662 -1.8219 4.71848 0
M  V30 2571 C 238.96 -2.61129 3.61563 0
M  V30 2572 C 239.661 -1.77721 5.53886 0
M  V30 2573 N 238.637 -2.21899 4.96248 0
M  V30 2574 H 242.439 -0.776797 2.83449 0
M  V30 2575 H 239.953 -0.331364 1.58983 0
M  V30 2576 H 241.95 -3.233 2.63216 0
M  V30 2577 H 240.61 -2.87358 1.5118 0
M  V30 2578 H 241.621 -1.51805 4.95152 0
M  V30 2579 H 238.298 -3.03678 2.86507 0
M  V30 2580 H 239.688 -1.41697 6.56789 0
M  V30 2581 N 242.408 -1.52605 -0.393616 0
M  V30 2582 C 243.338 -1.80022 -1.48709 0
M  V30 2583 C 244.319 -0.651995 -1.57108 0
M  V30 2584 O 245.504 -0.89913 -1.72132 0
M  V30 2585 C 242.634 -1.96492 -2.86371 0
M  V30 2586 C 241.588 -3.12161 -2.92813 0
M  V30 2587 C 240.914 -3.13877 -4.3288 0
M  V30 2588 C 242.214 -4.51322 -2.6288 0
M  V30 2589 H 243.908 -2.71589 -1.26015 0
M  V30 2590 H 241.454 -1.30684 -0.604778 0
M  V30 2591 H 243.407 -2.14255 -3.62867 0
M  V30 2592 H 242.131 -1.01611 -3.10391 0
M  V30 2593 H 240.79 -2.94173 -2.18764 0
M  V30 2594 H 240.438 -2.16687 -4.53933 0
M  V30 2595 H 240.138 -3.91576 -4.38112 0
M  V30 2596 H 241.662 -3.33789 -5.1129 0
M  V30 2597 H 243.076 -4.69435 -3.29096 0
M  V30 2598 H 241.473 -5.31053 -2.79468 0
M  V30 2599 H 242.543 -4.58353 -1.58242 0
M  V30 2600 N 243.887 0.651787 -1.4349 0
M  V30 2601 C 245.133 1.41376 -1.45398 0
M  V30 2602 C 245.466 1.94041 -0.0784823 0
M  V30 2603 O 244.741 1.72379 0.900878 0
M  V30 2604 C 245.024 2.59414 -2.49752 0
M  V30 2605 C 244.877 2.12232 -3.96582 0
M  V30 2606 C 246.196 3.61626 -2.50827 0
M  V30 2607 H 243.315 0.512719 -0.529422 0
M  V30 2608 H 245.957 0.738796 -1.75048 0
M  V30 2609 H 244.107 3.16997 -2.246 0
M  V30 2610 H 245.779 1.59639 -4.32797 0
M  V30 2611 H 244.022 1.43592 -4.09346 0
M  V30 2612 H 244.693 2.9712 -4.65214 0
M  V30 2613 H 247.169 3.13805 -2.7325 0
M  V30 2614 H 246.045 4.41766 -3.25783 0
M  V30 2615 H 246.306 4.14314 -1.5426 0
M  V30 2616 N 245.365 1.30045 0.890287 0
M  V30 2617 C 246.275 1.17885 2.02831 0
M  V30 2618 C 247.291 0.0999609 1.73713 0
M  V30 2619 O 248.467 0.313867 1.98939 0
M  V30 2620 C 245.532 0.866079 3.35708 0
M  V30 2621 C 244.593 2.02979 3.78283 0
M  V30 2622 C 243.826 1.73184 5.0482 0
M  V30 2623 O 244.049 0.657237 5.66601 0
M  V30 2624 O 242.983 2.58267 5.43674 0
M  V30 2625 H 246.809 2.13474 2.16015 0
M  V30 2626 H 244.394 1.09587 1.01543 0
M  V30 2627 H 246.276 0.706623 4.15433 0
M  V30 2628 H 244.951 -0.0599443 3.23644 0
M  V30 2629 H 243.858 2.24454 2.99285 0
M  V30 2630 H 245.191 2.93734 3.94944 0
M  V30 2631 N 246.843 -1.10192 1.12674 0
M  V30 2632 C 247.753 -2.20172 0.810026 0
M  V30 2633 C 248.769 -1.72821 -0.202188 0
M  V30 2634 O 249.945 -2.01369 -0.0351691 0
M  V30 2635 C 247.01 -3.45631 0.272007 0
M  V30 2636 C 246.071 -4.07704 1.34447 0
M  V30 2637 C 245.304 -5.27175 0.832029 0
M  V30 2638 O 245.527 -5.69425 -0.333284 0
M  V30 2639 O 244.461 -5.80168 1.60277 0
M  V30 2640 H 248.287 -2.49701 1.72867 0
M  V30 2641 H 245.872 -1.18977 0.903597 0
M  V30 2642 H 247.754 -4.21394 -0.0230219 0
M  V30 2643 H 246.429 -3.17723 -0.619164 0
M  V30 2644 H 245.336 -3.33614 1.6927 0
M  V30 2645 H 246.669 -4.3982 2.2095 0
M  V30 2646 N 248.321 -0.919034 -1.28029 0
M  V30 2647 C 249.284 -0.416182 -2.2539 0
M  V30 2648 C 250.284 0.460438 -1.54067 0
M  V30 2649 O 251.474 0.262744 -1.72207 0
M  V30 2650 C 248.606 0.402707 -3.38513 0
M  V30 2651 H 249.799 -1.27629 -2.71387 0
M  V30 2652 H 247.352 -0.698919 -1.39803 0
M  V30 2653 H 248.087 1.282 -2.97885 0
M  V30 2654 H 247.872 -0.225698 -3.9145 0
M  V30 2655 H 249.362 0.745191 -4.10897 0
M  V30 2656 N 249.799 1.42003 -0.683588 0
M  V30 2657 C 250.709 2.34597 -0.0109075 0
M  V30 2658 C 251.725 1.55576 0.779245 0
M  V30 2659 O 252.901 1.88107 0.719555 0
M  V30 2660 C 249.966 3.34199 0.922588 0
M  V30 2661 C 249.027 4.29115 0.125984 0
M  V30 2662 C 248.26 5.23959 1.01502 0
M  V30 2663 O 248.483 5.23952 2.25456 0
M  V30 2664 O 247.417 6.00053 0.47111 0
M  V30 2665 H 251.243 2.93675 -0.773853 0
M  V30 2666 H 248.828 1.42654 -0.443861 0
M  V30 2667 H 250.71 3.95365 1.45823 0
M  V30 2668 H 249.385 2.77582 1.66523 0
M  V30 2669 H 248.292 3.71335 -0.453969 0
M  V30 2670 H 249.625 4.88798 -0.577736 0
M  V30 2671 N 251.277 0.427512 1.51691 0
M  V30 2672 C 252.693 0.0792977 1.59403 0
M  V30 2673 C 252.893 -1.41035 1.43914 0
M  V30 2674 O 251.949 -2.17922 1.27539 0
M  V30 2675 C 253.262 0.590636 2.94842 0
M  V30 2676 C 254.81 0.550215 3.08126 0
M  V30 2677 C 255.285 1.03836 4.46074 0
M  V30 2678 N 256.776 0.995943 4.52366 0
M  V30 2679 C 257.511 1.34463 5.57411 0
M  V30 2680 N 257.007 1.76569 6.69922 0
M  V30 2681 N 258.8 1.26343 5.47717 0
M  V30 2682 H 250.951 1.39687 1.60004 0
M  V30 2683 H 253.214 0.575003 0.753708 0
M  V30 2684 H 252.92 1.63251 3.11516 0
M  V30 2685 H 252.794 0.0102061 3.77199 0
M  V30 2686 H 255.181 -0.482654 2.91126 0
M  V30 2687 H 255.262 1.16693 2.27632 0
M  V30 2688 H 254.906 2.06965 4.63819 0
M  V30 2689 H 254.836 0.398286 5.25092 0
M  V30 2690 H 257.327 0.68661 3.7161 0
M  V30 2691 H 257.64 2.01438 7.46085 0
M  V30 2692 H 255.985 1.80488 6.71155 0
M  V30 2693 H 259.176 0.933209 4.58703 0
M  V30 2694 H 259.349 1.53846 6.29472 0
M  V30 2695 N 252.755 -1.56801 0.158532 0
M  V30 2696 C 254.001 -1.96781 -0.490405 0
M  V30 2697 C 254.334 -1.04397 -1.63753 0
M  V30 2698 O 253.609 -0.0885805 -1.94298 0
M  V30 2699 C 253.892 -3.4635 -0.985594 0
M  V30 2700 C 253.745 -4.49512 0.160824 0
M  V30 2701 C 255.064 -3.98697 -1.86355 0
M  V30 2702 H 252.183 -0.715482 -0.176788 0
M  V30 2703 H 254.825 -1.88451 0.242088 0
M  V30 2704 H 252.975 -3.53579 -1.60978 0
M  V30 2705 H 254.647 -4.54353 0.797537 0
M  V30 2706 H 252.89 -4.26013 0.818256 0
M  V30 2707 H 253.561 -5.51531 -0.227569 0
M  V30 2708 H 256.037 -3.94019 -1.33746 0
M  V30 2709 H 254.913 -5.03792 -2.17909 0
M  V30 2710 H 255.174 -3.41744 -2.8047 0
M  V30 2711 N 254.233 0.115231 -1.57178 0
M  V30 2712 C 255.166 1.17166 -1.95825 0
M  V30 2713 C 256.144 1.39912 -0.828463 0
M  V30 2714 O 257.328 1.54004 -1.08697 0
M  V30 2715 C 254.455 2.52478 -2.25771 0
M  V30 2716 C 253.501 2.46136 -3.48309 0
M  V30 2717 S 254.334 1.89736 -5.0076 0
M  V30 2718 C 255.49 3.26713 -5.33863 0
M  V30 2719 H 255.723 0.842103 -2.85124 0
M  V30 2720 H 253.256 0.322136 -1.51002 0
M  V30 2721 H 255.214 3.30332 -2.43702 0
M  V30 2722 H 253.875 2.82609 -1.37079 0
M  V30 2723 H 253.068 3.45819 -3.66641 0
M  V30 2724 H 252.67 1.76404 -3.29784 0
M  V30 2725 H 254.962 4.22935 -5.29275 0
M  V30 2726 H 255.905 3.13205 -6.35065 0
M  V30 2727 H 256.313 3.25316 -4.61335 0
M  V30 2728 N 255.711 1.52812 0.385517 0
M  V30 2729 C 256.674 1.77188 1.45386 0
M  V30 2730 C 257.674 0.641953 1.4743 0
M  V30 2731 O 258.864 0.910033 1.4854 0
M  V30 2732 C 255.996 1.87582 2.8465 0
M  V30 2733 H 257.189 2.72583 1.25054 0
M  V30 2734 H 254.742 1.43586 0.617467 0
M  V30 2735 H 255.477 0.941849 3.10322 0
M  V30 2736 H 255.262 2.69748 2.84567 0
M  V30 2737 H 256.752 2.08102 3.62054 0
M  V30 2738 N 257.189 -0.644168 1.43834 0
M  V30 2739 C 258.099 -1.78563 1.52159 0
M  V30 2740 C 259.115 -1.69147 0.408069 0
M  V30 2741 O 260.291 -1.90156 0.663524 0
M  V30 2742 C 257.356 -3.14888 1.45073 0
M  V30 2743 C 256.417 -3.36034 2.6717 0
M  V30 2744 C 255.65 -4.65855 2.60413 0
M  V30 2745 O 255.873 -5.45805 1.65689 0
M  V30 2746 O 254.807 -4.88918 3.5106 0
M  V30 2747 H 258.633 -1.74494 2.48567 0
M  V30 2748 H 256.218 -0.80378 1.25935 0
M  V30 2749 H 258.1 -3.96179 1.43597 0
M  V30 2750 H 256.775 -3.19528 0.518037 0
M  V30 2751 H 255.682 -2.54472 2.74217 0
M  V30 2752 H 257.015 -3.36247 3.59442 0
M  V30 2753 N 258.668 -1.30515 -0.883378 0
M  V30 2754 C 259.578 -1.18959 -2.02203 0
M  V30 2755 C 260.594 -0.109172 -1.73657 0
M  V30 2756 O 261.77 -0.324413 -1.9877 0
M  V30 2757 C 258.835 -0.883871 -3.35244 0
M  V30 2758 C 257.896 -2.04982 -3.77201 0
M  V30 2759 C 257.129 -1.75859 -5.03894 0
M  V30 2760 O 257.352 -0.687276 -5.66244 0
M  V30 2761 O 256.286 -2.61146 -5.42297 0
M  V30 2762 H 260.112 -2.14616 -2.1488 0
M  V30 2763 H 257.697 -1.10124 -1.0096 0
M  V30 2764 H 259.579 -0.728644 -4.15053 0
M  V30 2765 H 258.254 0.0427798 -3.23672 0
M  V30 2766 H 257.161 -2.26038 -2.9809 0
M  V30 2767 H 258.494 -2.95825 -3.93381 0
M  V30 2768 N 260.146 1.09593 -1.13257 0
M  V30 2769 C 261.562 1.33775 -0.870423 0
M  V30 2770 C 261.762 1.95327 0.494926 0
M  V30 2771 O 260.818 2.19853 1.2418 0
M  V30 2772 C 262.131 2.25106 -1.99369 0
M  V30 2773 C 263.679 2.3862 -2.02558 0
M  V30 2774 C 264.154 3.33285 -3.14142 0
M  V30 2775 N 265.645 3.40857 -3.13641 0
M  V30 2776 C 266.38 4.14101 -3.96621 0
M  V30 2777 N 265.876 4.90157 -4.8961 0
M  V30 2778 N 267.669 4.09808 -3.84726 0
M  V30 2779 H 259.82 0.680136 -2.01216 0
M  V30 2780 H 262.083 0.362133 -0.876107 0
M  V30 2781 H 261.789 1.87103 -2.97801 0
M  V30 2782 H 261.663 3.25481 -1.90635 0
M  V30 2783 H 264.05 2.75887 -1.0474 0
M  V30 2784 H 264.131 1.38028 -2.15364 0
M  V30 2785 H 263.775 2.96741 -4.12198 0
M  V30 2786 H 263.705 4.33776 -2.98574 0
M  V30 2787 H 266.196 2.86624 -2.46282 0
M  V30 2788 H 266.509 5.4347 -5.49418 0
M  V30 2789 H 264.854 4.89251 -4.93617 0
M  V30 2790 H 268.045 3.4949 -3.11408 0
M  V30 2791 H 268.218 4.66629 -4.49623 0
M  V30 2792 N 261.624 0.925811 1.2754 0
M  V30 2793 C 262.87 0.566092 1.94739 0
M  V30 2794 C 263.203 -0.890057 1.72603 0
M  V30 2795 O 262.478 -1.63467 1.05399 0
M  V30 2796 C 262.761 0.89054 3.48915 0
M  V30 2797 C 262.614 2.4003 3.80402 0
M  V30 2798 C 263.933 0.395101 4.38323 0
M  V30 2799 H 261.052 0.20714 0.707292 0
M  V30 2800 H 263.694 1.15725 1.50691 0
M  V30 2801 H 261.844 0.387452 3.86563 0
M  V30 2802 H 263.516 2.97494 3.52555 0
M  V30 2803 H 261.759 2.85028 3.2702 0
M  V30 2804 H 262.43 2.57785 4.8811 0
M  V30 2805 H 264.906 0.826241 4.07814 0
M  V30 2806 H 263.782 0.651086 5.45025 0
M  V30 2807 H 264.043 -0.704798 4.36446 0
M  V30 2808 N 263.102 -1.41638 0.69111 0
M  V30 2809 C 264.348 -2.01598 0.220519 0
M  V30 2810 C 264.681 -1.54594 -1.17535 0
M  V30 2811 O 263.956 -0.755177 -1.79241 0
M  V30 2812 C 264.239 -3.59062 0.273243 0
M  V30 2813 C 264.092 -4.16203 1.70573 0
M  V30 2814 C 265.411 -4.38546 -0.369457 0
M  V30 2815 H 262.53 -0.732468 0.0816045 0
M  V30 2816 H 265.172 -1.68445 0.878986 0
M  V30 2817 H 263.322 -3.87435 -0.287411 0
M  V30 2818 H 264.994 -3.98722 2.31989 0
M  V30 2819 H 263.237 -3.71414 2.2413 0
M  V30 2820 H 263.908 -5.25358 1.69419 0
M  V30 2821 H 266.384 -4.1596 0.107977 0
M  V30 2822 H 265.26 -5.48069 -0.302002 0
M  V30 2823 H 265.521 -4.17662 -1.44951 0
M  V30 2824 N 264.58 -0.43555 -1.51462 0
M  V30 2825 C 265.513 0.421989 -2.24264 0
M  V30 2826 C 266.491 1.02619 -1.26127 0
M  V30 2827 O 267.675 1.069 -1.55257 0
M  V30 2828 C 264.802 1.588 -2.99166 0
M  V30 2829 C 263.848 1.10465 -4.11946 0
M  V30 2830 S 264.681 0.048146 -5.35478 0
M  V30 2831 C 265.837 1.21887 -6.13917 0
M  V30 2832 H 266.07 -0.196102 -2.96653 0
M  V30 2833 H 263.603 -0.220054 -1.52824 0
M  V30 2834 H 265.561 2.25647 -3.42919 0
M  V30 2835 H 264.222 2.1775 -2.26371 0
M  V30 2836 H 263.415 1.97654 -4.63626 0
M  V30 2837 H 263.017 0.51445 -3.70445 0
M  V30 2838 H 265.309 2.13756 -6.42895 0
M  V30 2839 H 266.252 0.742076 -7.04201 0
M  V30 2840 H 266.66 1.45663 -5.45383 0
M  V30 2841 N 266.058 1.56714 -0.166846 0
M  V30 2842 C 266.988 2.20754 0.760913 0
M  V30 2843 C 267.969 1.16178 1.24244 0
M  V30 2844 O 269.154 1.44592 1.29641 0
M  V30 2845 C 266.284 2.84478 1.99223 0
M  V30 2846 C 265.238 3.95053 1.64672 0
M  V30 2847 C 264.564 4.45805 2.95232 0
M  V30 2848 C 265.864 5.14865 0.878155 0
M  V30 2849 H 267.558 2.98537 0.22713 0
M  V30 2850 H 265.104 1.43596 0.107805 0
M  V30 2851 H 267.057 3.27951 2.64624 0
M  V30 2852 H 265.781 2.04056 2.55007 0
M  V30 2853 H 264.44 3.52228 1.01641 0
M  V30 2854 H 264.088 3.62181 3.49047 0
M  V30 2855 H 263.788 5.204 2.7287 0
M  V30 2856 H 265.312 4.91962 3.6167 0
M  V30 2857 H 266.726 5.55059 1.43466 0
M  V30 2858 H 265.123 5.95348 0.753738 0
M  V30 2859 H 266.193 4.84735 -0.126377 0
M  V30 2860 N 267.536 -0.106894 1.57237 0
M  V30 2861 C 268.947 -0.662723 1.74542 0
M  V30 2862 C 269.298 -1.7971 0.787319 0
M  V30 2863 O 268.423 -2.16368 -0.0369636 0
M  V30 2864 C 269.018 -1.20896 3.16496 0
M  V30 2865 C 267.577 -1.71096 3.35266 0
M  V30 2866 C 266.724 -0.615642 2.7038 0
M  V30 2867 H 269.675 0.119106 1.58252 0
M  V30 2868 H 269.696 -2.07847 3.18716 0
M  V30 2869 H 269.208 -0.383122 3.86204 0
M  V30 2870 H 267.309 -2.56119 2.70618 0
M  V30 2871 H 267.422 -1.81208 4.43509 0
M  V30 2872 H 265.786 -1.05222 2.31949 0
M  V30 2873 H 266.569 0.199419 3.4272 0
M  V30 2874 N 269.014 -1.53014 -0.377408 0
M  V30 2875 C 270.425 -1.60438 -0.954798 0
M  V30 2876 C 270.776 -0.464418 -1.90624 0
M  V30 2877 O 269.901 0.41087 -2.12464 0
M  V30 2878 C 270.496 -2.90797 -1.73847 0
M  V30 2879 C 269.055 -3.00595 -2.26538 0
M  V30 2880 C 268.202 -2.55645 -1.07429 0
M  V30 2881 H 271.153 -1.57926 -0.156575 0
M  V30 2882 H 271.174 -2.77935 -2.5987 0
M  V30 2883 H 270.686 -3.73746 -1.04574 0
M  V30 2884 H 268.787 -2.22208 -2.99089 0
M  V30 2885 H 268.9 -4.05456 -2.5523 0
M  V30 2886 H 267.264 -2.10239 -1.43777 0
M  V30 2887 H 268.047 -3.41 -0.396728 0
M  V30 2888 N 270.492 0.636531 -1.44174 0
M  V30 2889 C 271.908 0.954104 -1.27941 0
M  V30 2890 C 272.108 2.0039 -0.211248 0
M  V30 2891 O 271.164 2.49236 0.404695 0
M  V30 2892 C 272.477 1.4225 -2.64925 0
M  V30 2893 C 274.025 1.53827 -2.72592 0
M  V30 2894 C 274.5 2.04053 -4.10032 0
M  V30 2895 N 275.991 2.11331 -4.12182 0
M  V30 2896 C 276.726 2.51352 -5.15374 0
M  V30 2897 N 276.222 2.90549 -6.2893 0
M  V30 2898 N 278.015 2.51438 -5.02728 0
M  V30 2899 H 270.166 -0.0578386 -2.12321 0
M  V30 2900 H 272.429 0.0367406 -0.947288 0
M  V30 2901 H 272.135 0.725466 -3.44136 0
M  V30 2902 H 272.009 2.39451 -2.9145 0
M  V30 2903 H 274.396 2.22628 -1.93702 0
M  V30 2904 H 274.477 0.550154 -2.49814 0
M  V30 2905 H 274.121 1.35848 -4.89395 0
M  V30 2906 H 274.051 3.03726 -4.30184 0
M  V30 2907 H 276.542 1.83745 -3.30222 0
M  V30 2908 H 276.855 3.19884 -7.03487 0
M  V30 2909 H 275.2 2.88313 -6.32377 0
M  V30 2910 H 278.391 2.20203 -4.13072 0
M  V30 2911 H 278.564 2.82304 -5.83274 0
M  V30 2912 N 271.97 1.30982 0.876444 0
M  V30 2913 C 272.933 1.18054 1.96459 0
M  V30 2914 C 273.933 0.109399 1.60427 0
M  V30 2915 O 275.123 0.358173 1.70478 0
M  V30 2916 C 272.255 0.810616 3.31122 0
M  V30 2917 H 273.448 2.14735 2.09354 0
M  V30 2918 H 271.001 1.145 1.06392 0
M  V30 2919 H 271.736 -0.155322 3.23928 0
M  V30 2920 H 271.521 1.58481 3.58645 0
M  V30 2921 H 273.011 0.743876 4.10921 0
M  V30 2922 N 273.449 -1.08991 1.13837 0
M  V30 2923 C 274.865 -1.33312 0.877506 0
M  V30 2924 C 275.065 -1.95587 -0.48456 0
M  V30 2925 O 274.121 -2.20509 -1.23013 0
M  V30 2926 C 275.434 -2.24045 2.0056 0
M  V30 2927 C 276.982 -2.37542 2.03821 0
M  V30 2928 C 277.457 -3.31614 3.15905 0
M  V30 2929 N 278.948 -3.39189 3.15445 0
M  V30 2930 C 279.683 -4.11992 3.98811 0
M  V30 2931 N 279.179 -4.87553 4.92203 0
M  V30 2932 N 280.972 -4.07762 3.86894 0
M  V30 2933 H 273.123 -0.669456 2.01574 0
M  V30 2934 H 275.386 -0.357482 0.878015 0
M  V30 2935 H 275.092 -1.85521 2.98789 0
M  V30 2936 H 274.966 -3.24466 1.92359 0
M  V30 2937 H 277.353 -2.75327 1.06202 0
M  V30 2938 H 277.434 -1.36884 2.16093 0
M  V30 2939 H 277.078 -2.94551 4.13766 0
M  V30 2940 H 277.008 -4.32186 3.0087 0
M  V30 2941 H 279.499 -2.85314 2.47799 0
M  V30 2942 H 279.812 -5.40549 5.52292 0
M  V30 2943 H 278.157 -4.86627 4.96205 0
M  V30 2944 H 281.348 -3.47833 3.13257 0
M  V30 2945 H 281.521 -4.64238 4.52092 0
M  V30 2946 N 274.927 -0.932562 -1.27047 0
M  V30 2947 C 276.152 -0.591474 -1.98787 0
M  V30 2948 C 276.577 0.824601 -1.69062 0
M  V30 2949 O 275.935 1.5541 -0.933677 0
M  V30 2950 C 275.983 -0.829808 -3.50922 0
M  V30 2951 O 275.087 0.102266 -4.12273 0
M  V30 2952 H 274.428 -0.227185 -0.623926 0
M  V30 2953 H 276.958 -1.25314 -1.61733 0
M  V30 2954 H 276.968 -0.747292 -4.01098 0
M  V30 2955 H 275.643 -1.86201 -3.7189 0
M  V30 2956 H 274.22 -0.0305761 -3.72887 0
M  V30 2957 N 276.405 1.4127 -0.698611 0
M  V30 2958 C 277.335 2.33447 -0.049629 0
M  V30 2959 C 278.316 1.51982 0.763898 0
M  V30 2960 O 279.501 1.80509 0.716257 0
M  V30 2961 C 276.631 3.35828 0.885267 0
M  V30 2962 C 275.585 4.27627 0.178613 0
M  V30 2963 C 274.911 5.20406 1.22807 0
M  V30 2964 C 276.211 5.13459 -0.956933 0
M  V30 2965 H 277.905 2.87966 -0.81951 0
M  V30 2966 H 275.451 1.38461 -0.395538 0
M  V30 2967 H 277.404 3.9924 1.34854 0
M  V30 2968 H 276.128 2.79666 1.68685 0
M  V30 2969 H 274.787 3.65643 -0.26466 0
M  V30 2970 H 274.435 4.60558 2.02226 0
M  V30 2971 H 274.135 5.82661 0.760239 0
M  V30 2972 H 275.659 5.86695 1.69179 0
M  V30 2973 H 277.073 5.70421 -0.573805 0
M  V30 2974 H 275.47 5.8467 -1.35205 0
M  V30 2975 H 276.54 4.50443 -1.79524 0
M  V30 2976 N 277.883 0.443576 1.51229 0
M  V30 2977 C 278.83 -0.364716 2.279 0
M  V30 2978 C 279.8 -1.0114 1.31757 0
M  V30 2979 O 280.985 -1.02912 1.60667 0
M  V30 2980 C 278.125 -1.45644 3.12861 0
M  V30 2981 C 277.238 -0.827269 4.24005 0
M  V30 2982 C 276.373 -1.89456 4.96266 0
M  V30 2983 C 275.412 -1.24416 5.99322 0
M  V30 2984 N 274.549 -2.25309 6.64966 0
M  V30 2985 H 279.389 0.295464 2.96532 0
M  V30 2986 H 276.926 0.157554 1.46254 0
M  V30 2987 H 278.884 -2.10076 3.6045 0
M  V30 2988 H 277.514 -2.08616 2.46331 0
M  V30 2989 H 276.566 -0.0710839 3.80334 0
M  V30 2990 H 277.878 -0.312481 4.9782 0
M  V30 2991 H 277.032 -2.61535 5.47434 0
M  V30 2992 H 275.771 -2.4431 4.22095 0
M  V30 2993 H 274.776 -0.508868 5.4744 0
M  V30 2994 H 276.001 -0.702882 6.75453 0
M  V30 2995 H 273.947 -2.79231 5.93604 0
M  V30 2996 H 273.864 -1.78739 7.34567 0
M  V30 2997 H 275.132 -2.96853 7.20763 0
M  V30 2998 N 279.361 -1.56624 0.175154 0
M  V30 2999 C 280.586 -2.01813 -0.478137 0
M  V30 3000 C 281.011 -1.05457 -1.55757 0
M  V30 3001 O 280.369 -0.0347439 -1.81267 0
M  V30 3002 C 280.417 -3.45581 -1.02987 0
M  V30 3003 O 279.521 -3.52305 -2.14371 0
M  V30 3004 H 278.862 -0.65413 -0.114059 0
M  V30 3005 H 281.392 -2.02673 0.280173 0
M  V30 3006 H 281.402 -3.84965 -1.35151 0
M  V30 3007 H 280.077 -4.1521 -0.239556 0
M  V30 3008 H 278.654 -3.24783 -1.83222 0
M  V30 3009 N 280.839 0.0985539 -1.57292 0
M  V30 3010 C 282.086 0.802678 -1.85912 0
M  V30 3011 C 282.414 1.78901 -0.763186 0
M  V30 3012 O 281.669 1.94178 0.243559 0
M  V30 3013 C 281.968 1.56927 -3.21105 0
M  V30 3014 C 281.634 0.725376 -4.45027 0
M  V30 3015 C 280.296 0.492726 -4.78671 0
M  V30 3016 C 282.648 0.138493 -5.21016 0
M  V30 3017 C 279.976 -0.336727 -5.85733 0
M  V30 3018 C 282.328 -0.678264 -6.28953 0
M  V30 3019 C 280.992 -0.921039 -6.61115 0
M  V30 3020 H 280.262 0.293721 -0.680301 0
M  V30 3021 H 282.909 0.0642841 -1.91392 0
M  V30 3022 H 281.214 2.37914 -3.11294 0
M  V30 3023 H 282.911 2.11841 -3.40477 0
M  V30 3024 H 279.501 0.916815 -4.18679 0
M  V30 3025 H 283.685 0.305404 -4.95359 0
M  V30 3026 H 278.941 -0.533836 -6.09065 0
M  V30 3027 H 283.115 -1.1399 -6.87007 0
M  V30 3028 H 280.742 -1.56556 -7.43905 0
M  V30 3029 N 282.317 1.53212 0.369288 0
M  V30 3030 C 283.563 1.69466 1.11397 0
M  V30 3031 C 283.896 0.443257 1.89074 0
M  V30 3032 O 283.171 -0.559386 1.86282 0
M  V30 3033 C 283.454 2.9422 2.07621 0
M  V30 3034 C 283.307 4.29508 1.33577 0
M  V30 3035 C 284.626 3.14565 3.07794 0
M  V30 3036 H 281.745 0.616667 0.403597 0
M  V30 3037 H 284.387 1.85845 0.395179 0
M  V30 3038 H 282.537 2.80387 2.68916 0
M  V30 3039 H 284.209 4.55147 0.750955 0
M  V30 3040 H 282.452 4.29088 0.637618 0
M  V30 3041 H 283.123 5.12926 2.03989 0
M  V30 3042 H 285.599 3.2756 2.56601 0
M  V30 3043 H 284.475 4.03297 3.72348 0
M  V30 3044 H 284.736 2.29675 3.77759 0
M  V30 3045 N 283.795 -0.628877 1.44509 0
M  V30 3046 C 285.041 -1.39045 1.47629 0
M  V30 3047 C 285.374 -1.93892 0.109343 0
M  V30 3048 O 284.649 -1.7379 -0.87334 0
M  V30 3049 C 284.932 -2.55408 2.53848 0
M  V30 3050 C 284.785 -2.05896 3.99909 0
M  V30 3051 C 286.104 -3.5759 2.56549 0
M  V30 3052 H 283.223 -0.504232 0.537512 0
M  V30 3053 H 285.865 -0.710854 1.76201 0
M  V30 3054 H 284.015 -3.13384 2.29615 0
M  V30 3055 H 285.687 -1.52734 4.35282 0
M  V30 3056 H 283.93 -1.37061 4.11578 0
M  V30 3057 H 284.601 -2.89681 4.69882 0
M  V30 3058 H 287.077 -3.09419 2.78207 0
M  V30 3059 H 285.953 -4.36527 3.32769 0
M  V30 3060 H 286.214 -4.11808 1.60832 0
M  V30 3061 N 285.273 -1.31445 -0.869486 0
M  V30 3062 C 286.501 -1.24122 -1.65534 0
M  V30 3063 C 286.916 0.193387 -1.87807 0
M  V30 3064 O 286.273 1.12557 -1.43656 0
M  V30 3065 C 286.324 -1.98229 -3.02304 0
M  V30 3066 O 286.045 -3.3609 -2.81026 0
M  V30 3067 C 287.546 -1.97751 -3.96749 0
M  V30 3068 H 284.766 -0.428868 -0.516055 0
M  V30 3069 H 287.31 -1.73328 -1.08525 0
M  V30 3070 H 285.465 -1.52782 -3.56001 0
M  V30 3071 H 285.879 -3.7383 -3.67902 0
M  V30 3072 H 287.353 -2.54114 -4.90031 0
M  V30 3073 H 287.83 -0.960137 -4.28577 0
M  V30 3074 H 288.436 -2.43079 -3.48988 0
M  V30 3075 N 286.751 1.08385 -1.14413 0
M  V30 3076 C 287.976 1.85057 -0.936413 0
M  V30 3077 C 288.401 1.81055 0.509971 0
M  V30 3078 O 287.759 1.1958 1.36273 0
M  V30 3079 C 287.807 3.30505 -1.44217 0
M  V30 3080 O 286.911 4.07491 -0.634409 0
M  V30 3081 H 286.252 0.573425 -0.334784 0
M  V30 3082 H 288.782 1.36799 -1.52142 0
M  V30 3083 H 288.792 3.81348 -1.45043 0
M  V30 3084 H 287.467 3.32734 -2.49522 0
M  V30 3085 H 286.044 3.66368 -0.694902 0
M  V30 3086 N 288.23 0.939286 1.26551 0
M  V30 3087 C 289.476 0.586715 1.94128 0
M  V30 3088 C 289.809 -0.8717 1.73537 0
M  V30 3089 O 289.084 -1.62339 1.07127 0
M  V30 3090 C 289.367 0.927497 3.4795 0
M  V30 3091 C 289.22 2.44052 3.77834 0
M  V30 3092 C 290.539 0.441569 4.37879 0
M  V30 3093 H 287.658 0.21463 0.705055 0
M  V30 3094 H 290.3 1.17316 1.49455 0
M  V30 3095 H 288.45 0.428431 3.8613 0
M  V30 3096 H 290.122 3.01216 3.4938 0
M  V30 3097 H 288.365 2.8848 3.23978 0
M  V30 3098 H 289.036 2.62947 4.85348 0
M  V30 3099 H 291.512 0.869448 4.06915 0
M  V30 3100 H 290.388 0.708856 5.44304 0
M  V30 3101 H 290.649 -0.658467 4.37169 0
M  V30 3102 N 289.708 -1.40897 0.706093 0
M  V30 3103 C 290.954 -2.01352 0.241889 0
M  V30 3104 C 291.287 -1.55832 -1.15888 0
M  V30 3105 O 290.562 -0.774145 -1.7843 0
M  V30 3106 C 290.845 -3.58752 0.311311 0
M  V30 3107 C 290.698 -4.1437 1.74978 0
M  V30 3108 C 292.017 -4.38914 -0.322922 0
M  V30 3109 H 289.136 -0.731562 0.0893687 0
M  V30 3110 H 291.778 -1.67504 0.896802 0
M  V30 3111 H 289.928 -3.87718 -0.246302 0
M  V30 3112 H 291.6 -3.96239 2.36205 0
M  V30 3113 H 289.843 -3.69016 2.28057 0
M  V30 3114 H 290.514 -5.23532 1.74981 0
M  V30 3115 H 292.99 -4.15822 0.152089 0
M  V30 3116 H 291.866 -5.48358 -0.243855 0
M  V30 3117 H 292.127 -4.19176 -1.40513 0
M  V30 3118 N 291.186 -0.45159 -1.50991 0
M  V30 3119 C 292.149 0.341117 -2.26647 0
M  V30 3120 C 293.149 0.937422 -1.30649 0
M  V30 3121 O 294.339 0.809644 -1.54241 0
M  V30 3122 C 291.471 1.48398 -3.06905 0
M  V30 3123 H 292.664 -0.322117 -2.98165 0
M  V30 3124 H 290.217 -0.205122 -1.54948 0
M  V30 3125 H 290.952 2.18284 -2.39838 0
M  V30 3126 H 290.737 1.06241 -3.77432 0
M  V30 3127 H 292.227 2.04367 -3.64176 0
M  V30 3128 N 292.664 1.56529 -0.183458 0
M  V30 3129 C 293.911 1.97244 0.458357 0
M  V30 3130 C 294.239 1.06992 1.62428 0
M  V30 3131 O 293.494 0.106542 1.9541 0
M  V30 3132 C 293.793 3.43939 0.971637 0
M  V30 3133 C 293.459 4.5083 -0.0796784 0
M  V30 3134 C 292.121 4.79786 -0.368584 0
M  V30 3135 C 294.473 5.15138 -0.792638 0
M  V30 3136 C 291.801 5.70345 -1.37563 0
M  V30 3137 C 294.153 6.06784 -1.78875 0
M  V30 3138 C 292.817 6.34102 -2.08497 0
M  V30 3139 H 292.087 0.721768 0.167725 0
M  V30 3140 H 294.734 1.89472 -0.277976 0
M  V30 3141 H 293.039 3.48724 1.78602 0
M  V30 3142 H 294.736 3.72791 1.47744 0
M  V30 3143 H 291.326 4.28317 0.155668 0
M  V30 3144 H 295.51 4.92868 -0.582659 0
M  V30 3145 H 290.766 5.89789 -1.61118 0
M  V30 3146 H 294.94 6.55677 -2.3465 0
M  V30 3147 H 292.567 7.04074 -2.86678 0
M  V30 3148 N 294.142 -0.090211 1.57342 0
M  V30 3149 C 295.553 -0.644173 1.75235 0
M  V30 3150 C 295.904 -1.78865 0.806335 0
M  V30 3151 O 295.029 -2.16395 -0.0140128 0
M  V30 3152 C 295.624 -1.17532 3.1776 0
M  V30 3153 C 294.183 -1.67531 3.37061 0
M  V30 3154 C 293.33 -0.58693 2.71017 0
M  V30 3155 H 296.281 0.135884 1.58117 0
M  V30 3156 H 296.302 -2.04455 3.20902 0
M  V30 3157 H 295.814 -0.342138 3.86589 0
M  V30 3158 H 293.915 -2.53234 2.73319 0
M  V30 3159 H 294.028 -1.76493 4.45406 0
M  V30 3160 H 292.392 -1.02756 2.33052 0
M  V30 3161 H 293.175 0.235758 3.4249 0
M  V30 3162 N 295.62 -1.53406 -0.361157 0
M  V30 3163 C 296.848 -1.73717 -1.12383 0
M  V30 3164 C 297.263 -0.468161 -1.82904 0
M  V30 3165 O 296.62 0.559198 -1.73722 0
M  V30 3166 C 296.671 -2.90558 -2.15078 0
M  V30 3167 O 296.392 -4.12549 -1.47428 0
M  V30 3168 C 297.893 -3.22777 -3.03858 0
M  V30 3169 H 295.113 -0.580896 -0.335858 0
M  V30 3170 H 297.657 -2.00167 -0.418728 0
M  V30 3171 H 295.812 -2.66489 -2.8118 0
M  V30 3172 H 296.226 -4.78009 -2.15887 0
M  V30 3173 H 297.7 -4.07927 -3.71887 0
M  V30 3174 H 298.177 -2.38329 -3.68912 0
M  V30 3175 H 298.783 -3.48787 -2.43367 0
M  V30 3176 N 297.098 0.621204 -1.44841 0
M  V30 3177 C 298.375 1.38 -1.38619 0
M  V30 3178 C 298.755 2.11041 -0.0498935 0
M  V30 3179 O 298.103 2.06992 0.967816 0
M  V30 3180 C 298.313 2.33817 -2.59096 0
M  V30 3181 C 299.661 2.96844 -3.03593 0
M  V30 3182 O 300.685 2.44141 -2.59371 0
M  V30 3183 O 299.544 3.92476 -3.80296 0
M  V30 3184 H 296.638 0.61811 -0.549426 0
M  V30 3185 H 299.184 0.645429 -1.56947 0
M  V30 3186 H 297.956 1.79012 -3.47952 0
M  V30 3187 H 297.579 3.14676 -2.43032 0
M  V30 3188 N 298.576 1.31904 0.862503 0
M  V30 3189 C 299.801 1.25135 1.65397 0
M  V30 3190 C 300.226 -0.179 1.87246 0
M  V30 3191 O 299.584 -1.1277 1.4196 0
M  V30 3192 C 299.632 2.00832 2.99498 0
M  V30 3193 O 298.736 1.35075 3.89652 0
M  V30 3194 H 298.077 0.431655 0.504549 0
M  V30 3195 H 300.607 1.74094 1.07483 0
M  V30 3196 H 300.617 2.10709 3.49379 0
M  V30 3197 H 299.292 3.04847 2.82916 0
M  V30 3198 H 297.869 1.33696 3.48109 0
M  V30 3199 N 300.054 -1.07777 1.14986 0
M  V30 3200 C 301.001 -2.14867 0.842672 0
M  V30 3201 C 301.971 -1.6486 -0.202552 0
M  V30 3202 O 303.156 -1.90668 -0.0710568 0
M  V30 3203 C 300.296 -3.43486 0.333363 0
M  V30 3204 C 299.409 -4.07306 1.43965 0
M  V30 3205 C 298.544 -5.23744 0.886914 0
M  V30 3206 C 297.583 -5.79517 1.97043 0
M  V30 3207 N 296.72 -6.87291 1.4344 0
M  V30 3208 H 301.56 -2.40485 1.75986 0
M  V30 3209 H 299.097 -1.1801 0.878179 0
M  V30 3210 H 301.055 -4.17195 0.0198163 0
M  V30 3211 H 299.685 -3.18133 -0.546916 0
M  V30 3212 H 298.737 -3.31293 1.86946 0
M  V30 3213 H 300.049 -4.44771 2.25788 0
M  V30 3214 H 299.203 -6.04419 0.525651 0
M  V30 3215 H 297.942 -4.87685 0.0377957 0
M  V30 3216 H 296.947 -4.97491 2.34057 0
M  V30 3217 H 298.172 -6.17632 2.82325 0
M  V30 3218 H 296.118 -6.5318 0.607567 0
M  V30 3219 H 296.035 -7.23617 2.18895 0
M  V30 3220 H 297.303 -7.71682 1.10124 0
M  V30 3221 N 301.532 -0.945985 -1.26051 0
M  V30 3222 C 302.76 -0.613025 -1.9761 0
M  V30 3223 C 303.175 0.813035 -1.70397 0
M  V30 3224 O 302.532 1.54274 -0.974979 0
M  V30 3225 C 302.583 -0.85159 -3.51326 0
M  V30 3226 O 302.304 -2.22157 -3.77595 0
M  V30 3227 C 303.805 -0.529831 -4.40122 0
M  V30 3228 H 301.025 -0.230593 -0.630133 0
M  V30 3229 H 303.569 -1.268 -1.60443 0
M  V30 3230 H 301.724 -0.243151 -3.86636 0
M  V30 3231 H 302.138 -2.2852 -4.721 0
M  V30 3232 H 303.612 -0.747348 -5.46917 0
M  V30 3233 H 304.089 0.535341 -4.35925 0
M  V30 3234 H 304.695 -1.11721 -4.10364 0
M  V30 3235 N 303.011 1.40521 -0.713556 0
M  V30 3236 C 304.257 2.01221 -0.252564 0
M  V30 3237 C 304.59 1.56444 1.1506 0
M  V30 3238 O 303.865 0.783597 1.78017 0
M  V30 3239 C 304.148 3.58582 -0.330332 0
M  V30 3240 C 304.001 4.13437 -1.77173 0
M  V30 3241 C 305.32 4.39079 0.299641 0
M  V30 3242 H 302.439 0.731077 -0.0932471 0
M  V30 3243 H 305.081 1.67026 -0.905673 0
M  V30 3244 H 303.231 3.87844 0.225737 0
M  V30 3245 H 304.903 3.9498 -2.38303 0
M  V30 3246 H 303.146 3.67801 -2.3001 0
M  V30 3247 H 303.817 5.22597 -1.77755 0
M  V30 3248 H 306.293 4.15735 -0.174139 0
M  V30 3249 H 305.169 5.4848 0.214771 0
M  V30 3250 H 305.43 4.19915 1.38288 0
M  V30 3251 N 304.489 0.459591 1.5075 0
M  V30 3252 C 305.421 -0.37665 2.26084 0
M  V30 3253 C 306.434 -0.967109 1.30961 0
M  V30 3254 O 307.623 -0.857468 1.56556 0
M  V30 3255 C 304.723 -1.54112 3.01832 0
M  V30 3256 C 303.896 -1.06553 4.24223 0
M  V30 3257 C 302.955 -2.1027 4.82362 0
M  V30 3258 O 301.981 -1.68798 5.43595 0
M  V30 3259 N 303.183 -3.42974 4.68347 0
M  V30 3260 H 305.948 0.269124 2.98489 0
M  V30 3261 H 303.509 0.28972 1.59287 0
M  V30 3262 H 305.501 -2.23165 3.37608 0
M  V30 3263 H 304.071 -2.0918 2.32298 0
M  V30 3264 H 303.291 -0.201274 3.93686 0
M  V30 3265 H 304.579 -0.725516 5.03601 0
M  V30 3266 H 303.977 -3.79385 4.19623 0
M  V30 3267 H 302.534 -4.07858 5.08424 0
M  V30 3268 N 305.967 -1.56429 0.191757 0
M  V30 3269 C 307.383 -1.58754 -0.164137 0
M  V30 3270 C 307.583 -1.20782 -1.61288 0
M  V30 3271 O 306.639 -0.928999 -2.34789 0
M  V30 3272 C 307.952 -3.00396 0.135195 0
M  V30 3273 C 309.5 -3.1291 0.0750351 0
M  V30 3274 C 309.975 -4.56679 0.347632 0
M  V30 3275 N 311.466 -4.62252 0.296131 0
M  V30 3276 C 312.201 -5.71379 0.480948 0
M  V30 3277 N 311.697 -6.88986 0.725933 0
M  V30 3278 N 313.49 -5.60563 0.415435 0
M  V30 3279 H 305.641 -1.79393 1.13718 0
M  V30 3280 H 307.904 -0.832414 0.453643 0
M  V30 3281 H 307.61 -3.32726 1.13958 0
M  V30 3282 H 307.484 -3.72963 -0.563773 0
M  V30 3283 H 309.871 -2.80394 -0.919948 0
M  V30 3284 H 309.952 -2.42736 0.807029 0
M  V30 3285 H 309.596 -4.89907 1.33992 0
M  V30 3286 H 309.526 -5.25039 -0.405212 0
M  V30 3287 H 312.017 -3.7773 0.113259 0
M  V30 3288 H 312.33 -7.68046 0.855857 0
M  V30 3289 H 310.675 -6.90801 0.762788 0
M  V30 3290 H 313.866 -4.67561 0.224486 0
M  V30 3291 H 314.039 -6.45551 0.562889 0
M  V30 3292 N 307.445 0.0818655 -1.57387 0
M  V30 3293 C 308.673 0.796108 -1.9097 0
M  V30 3294 C 309.088 1.71626 -0.786757 0
M  V30 3295 O 308.445 1.80908 0.240513 0
M  V30 3296 C 308.496 1.59829 -3.24248 0
M  V30 3297 O 308.217 0.715131 -4.32224 0
M  V30 3298 C 309.718 2.41442 -3.7178 0
M  V30 3299 H 306.938 0.22691 -0.631469 0
M  V30 3300 H 309.482 0.0551439 -2.04426 0
M  V30 3301 H 307.637 2.29163 -3.12351 0
M  V30 3302 H 308.051 1.27205 -5.08841 0
M  V30 3303 H 309.525 2.932 -4.67694 0
M  V30 3304 H 310.002 3.2051 -3.00283 0
M  V30 3305 H 310.608 1.77283 -3.86589 0
M  V30 3306 N 308.923 1.53595 0.353017 0
M  V30 3307 C 309.855 1.77219 1.45348 0
M  V30 3308 C 310.868 0.65324 1.49119 0
M  V30 3309 O 312.057 0.929775 1.52373 0
M  V30 3310 C 309.157 1.84841 2.84055 0
M  V30 3311 C 308.33 3.14649 3.03833 0
M  V30 3312 C 307.389 3.13351 4.22727 0
M  V30 3313 O 306.415 3.87107 4.17297 0
M  V30 3314 N 307.617 2.35052 5.30783 0
M  V30 3315 H 310.382 2.72178 1.25457 0
M  V30 3316 H 307.943 1.52528 0.542833 0
M  V30 3317 H 309.935 1.81435 3.61751 0
M  V30 3318 H 308.505 0.971114 2.97133 0
M  V30 3319 H 307.725 3.31256 2.13689 0
M  V30 3320 H 309.013 4.00411 3.13925 0
M  V30 3321 H 308.411 1.74663 5.38061 0
M  V30 3322 H 306.968 2.37453 6.07009 0
M  V30 3323 N 310.401 -0.613514 1.45168 0
M  V30 3324 C 311.678 -1.37263 1.39349 0
M  V30 3325 C 312.058 -2.11012 0.0610848 0
M  V30 3326 O 311.406 -2.07502 -0.956825 0
M  V30 3327 C 311.616 -2.3244 2.60332 0
M  V30 3328 C 312.964 -2.9523 3.05163 0
M  V30 3329 O 313.988 -2.42762 2.60663 0
M  V30 3330 O 312.847 -3.90454 3.82372 0
M  V30 3331 H 309.941 -0.615188 0.552696 0
M  V30 3332 H 312.487 -0.637097 1.57287 0
M  V30 3333 H 311.259 -1.77164 3.48896 0
M  V30 3334 H 310.882 -3.13383 2.44698 0
M  V30 3335 N 311.879 -1.3236 -0.855495 0
M  V30 3336 C 312.827 -1.2118 -1.9854 0
M  V30 3337 C 313.821 -0.116788 -1.68997 0
M  V30 3338 O 315.027 -0.279657 -1.77814 0
M  V30 3339 H 311.402 -0.375608 -0.651477 0
M  V30 3340 H 313.373 -2.16743 -2.05098 0
M  V30 3341 C 312.122 -0.950849 -3.34446 0
M  V30 3342 H 311.445 -1.78563 -3.57708 0
M  V30 3343 H 312.885 -0.912863 -4.14057 0
M  V30 3344 C 311.344 0.346404 -3.35114 0
M  V30 3345 O 311.874 1.35855 -3.7803 0
M  V30 3346 N 310.08 0.36808 -2.88259 0
M  V30 3347 H 309.627 -0.456102 -2.5353 0
M  V30 3348 H 309.585 1.23591 -2.89089 0
M  V30 3349 N 313.357 1.07166 -1.15556 0
M  V30 3350 C 314.582 1.84053 -0.955988 0
M  V30 3351 C 315.007 1.81586 0.490739 0
M  V30 3352 O 314.365 1.21018 1.34997 0
M  V30 3353 C 314.413 3.28957 -1.47714 0
M  V30 3354 O 313.517 4.06795 -0.677593 0
M  V30 3355 H 312.858 0.569842 -0.340847 0
M  V30 3356 H 315.388 1.35178 -1.53584 0
M  V30 3357 H 315.398 3.79788 -1.4908 0
M  V30 3358 H 314.073 3.30068 -2.53037 0
M  V30 3359 H 312.65 3.6561 -0.733721 0
M  V30 3360 N 314.835 0.952656 1.25548 0
M  V30 3361 C 316.075 0.614013 1.9496 0
M  V30 3362 C 316.439 -0.833215 1.72978 0
M  V30 3363 O 317.64 -1.28135 2.36294 0
M  V30 3364 C 315.911 0.960562 3.4425 0
M  V30 3365 S 317.47 0.734195 4.32614 0
M  V30 3366 H 314.288 0.225754 0.674208 0
M  V30 3367 H 316.89 1.22641 1.52248 0
M  V30 3368 H 315.594 2.01103 3.57751 0
M  V30 3369 H 315.125 0.338336 3.91942 0
M  V30 3370 H 317.14 -0.395995 4.94617 0
M  V30 3371 N 316.313 -1.40141 0.720998 0
M  V30 3372 C 317.538 -2.05618 0.271258 0
M  V30 3373 C 317.963 -1.53978 -1.08039 0
M  V30 3374 O 317.321 -0.677463 -1.68167 0
M  V30 3375 C 317.369 -3.59609 0.267197 0
M  V30 3376 O 316.473 -4.05526 -0.749814 0
M  V30 3377 H 315.814 -0.651904 0.126162 0
M  V30 3378 H 318.344 -1.79439 0.982997 0
M  V30 3379 H 318.354 -4.0786 0.106744 0
M  V30 3380 H 317.029 -3.96559 1.25354 0
M  V30 3381 H 315.606 -3.68722 -0.556644 0
M  V30 3382 N 317.792 -0.46758 -1.50504 0
M  V30 3383 C 319.039 0.0886219 -2.02306 0
M  V30 3384 C 319.367 1.40037 -1.34981 0
M  V30 3385 O 318.622 1.90136 -0.463318 0
M  V30 3386 C 318.921 0.323995 -3.55928 0
M  V30 3387 C 318.587 -0.905618 -4.41712 0
M  V30 3388 C 317.249 -1.24275 -4.64875 0
M  V30 3389 C 319.601 -1.72448 -4.91845 0
M  V30 3390 C 316.929 -2.39888 -5.35417 0
M  V30 3391 C 319.281 -2.87185 -5.63656 0
M  V30 3392 C 317.945 -3.21317 -5.85074 0
M  V30 3393 H 317.215 0.0324291 -0.74029 0
M  V30 3394 H 319.862 -0.620945 -1.81153 0
M  V30 3395 H 318.167 1.11577 -3.75577 0
M  V30 3396 H 319.864 0.76826 -3.93572 0
M  V30 3397 H 316.454 -0.632956 -4.239 0
M  V30 3398 H 320.638 -1.4772 -4.73806 0
M  V30 3399 H 315.894 -2.66611 -5.50208 0
M  V30 3400 H 320.068 -3.50985 -6.01484 0
M  V30 3401 H 317.695 -4.1101 -6.39511 0
M  V30 3402 N 319.27 1.56325 -0.20005 0
M  V30 3403 C 320.518 1.97329 0.436547 0
M  V30 3404 C 320.839 1.08826 1.61808 0
M  V30 3405 O 320.109 0.160604 1.95241 0
M  V30 3406 H 318.689 0.728714 0.164272 0
M  V30 3407 H 321.351 1.92761 -0.287937 0
M  V30 3408 H 320.447 3.02264 0.777353 0
M  V30 3409 N 320.748 -0.0735177 1.57428 0
M  V30 3410 C 321.678 -1.0879 2.06608 0
M  V30 3411 C 322.659 -1.40473 0.959237 0
M  V30 3412 O 323.844 -1.5013 1.23185 0
M  V30 3413 C 320.974 -2.40183 2.50857 0
M  V30 3414 C 319.928 -2.22858 3.65402 0
M  V30 3415 C 319.254 -3.59619 3.957 0
M  V30 3416 C 320.554 -1.65123 4.95511 0
M  V30 3417 H 322.248 -0.678673 2.91607 0
M  V30 3418 H 319.794 -0.325013 1.40284 0
M  V30 3419 H 321.747 -3.11437 2.83874 0
M  V30 3420 H 320.471 -2.83083 1.62885 0
M  V30 3421 H 319.13 -1.54045 3.32664 0
M  V30 3422 H 318.778 -4.00086 3.04861 0
M  V30 3423 H 318.478 -3.48866 4.72828 0
M  V30 3424 H 320.002 -4.32306 4.31212 0
M  V30 3425 H 321.416 -2.26241 5.26771 0
M  V30 3426 H 319.813 -1.65071 5.7695 0
M  V30 3427 H 320.883 -0.612559 4.81015 0
M  V30 3428 N 322.226 -1.5378 -0.344866 0
M  V30 3429 C 323.176 -1.78057 -1.42407 0
M  V30 3430 C 324.16 -0.635732 -1.47808 0
M  V30 3431 O 325.352 -0.89508 -1.527 0
M  V30 3432 C 322.481 -1.99242 -2.79566 0
M  V30 3433 C 321.567 -3.19787 -2.78562 0
M  V30 3434 N 321.958 -4.41284 -2.47189 0
M  V30 3435 C 320.256 -3.2093 -3.0971 0
M  V30 3436 C 320.957 -5.23128 -2.54385 0
M  V30 3437 N 319.933 -4.59813 -2.89953 0
M  V30 3438 H 323.735 -2.69588 -1.17046 0
M  V30 3439 H 321.249 -1.52687 -0.553217 0
M  V30 3440 H 323.246 -2.14768 -3.57324 0
M  V30 3441 H 321.906 -1.08953 -3.05875 0
M  V30 3442 H 322.917 -4.68657 -2.20411 0
M  V30 3443 H 319.594 -2.40603 -3.41199 0
M  V30 3444 H 320.984 -6.30096 -2.333 0
M  V30 3445 N 323.704 0.605807 -1.45491 0
M  V30 3446 C 324.667 1.69836 -1.5391 0
M  V30 3447 C 325.667 1.55261 -0.418424 0
M  V30 3448 O 326.857 1.60296 -0.681965 0
M  V30 3449 C 323.989 3.09117 -1.43734 0
M  V30 3450 H 325.182 1.63738 -2.51257 0
M  V30 3451 H 322.735 0.821689 -1.32959 0
M  V30 3452 H 323.47 3.20791 -0.475788 0
M  V30 3453 H 323.255 3.21104 -2.25021 0
M  V30 3454 H 324.745 3.88696 -1.52661 0
M  V30 3455 N 325.182 1.32811 0.848464 0
M  V30 3456 C 326.598 1.11937 1.13764 0
M  V30 3457 C 326.798 -0.0960789 2.01271 0
M  V30 3458 O 325.854 -0.779165 2.40178 0
M  V30 3459 C 327.167 2.402 1.809 0
M  V30 3460 C 328.715 2.46016 1.93508 0
M  V30 3461 C 329.19 3.74215 2.64059 0
M  V30 3462 N 330.681 3.75232 2.71579 0
M  V30 3463 C 331.416 4.71134 3.26833 0
M  V30 3464 N 330.912 5.77406 3.8285 0
M  V30 3465 N 332.705 4.58623 3.24995 0
M  V30 3466 H 324.856 2.1073 0.265855 0
M  V30 3467 H 327.119 0.930671 0.180431 0
M  V30 3468 H 326.825 3.29093 1.24058 0
M  V30 3469 H 326.699 2.51628 2.81004 0
M  V30 3470 H 329.086 1.57577 2.49506 0
M  V30 3471 H 329.167 2.38536 0.923811 0
M  V30 3472 H 328.811 4.63031 2.08722 0
M  V30 3473 H 328.741 3.78968 3.65637 0
M  V30 3474 H 331.232 2.98423 2.31845 0
M  V30 3475 H 331.545 6.46632 4.23187 0
M  V30 3476 H 329.89 5.81152 3.81165 0
M  V30 3477 H 333.081 3.74762 2.80484 0
M  V30 3478 H 333.254 5.33535 3.67756 0
M  V30 3479 N 326.66 -1.06551 1.16123 0
M  V30 3480 C 327.908 -1.78947 0.939267 0
M  V30 3481 C 328.229 -1.87532 -0.534476 0
M  V30 3482 O 327.499 -1.38211 -1.38833 0
M  V30 3483 H 326.079 -0.662807 0.344523 0
M  V30 3484 H 328.741 -1.28725 1.46342 0
M  V30 3485 H 327.837 -2.81117 1.35572 0
M  V30 3486 N 328.138 -0.959301 -1.25041 0
M  V30 3487 C 329.384 -0.617525 -1.9317 0
M  V30 3488 C 329.717 0.843981 -1.74902 0
M  V30 3489 O 328.992 1.60615 -1.09696 0
M  V30 3490 C 329.275 -0.982736 -3.46431 0
M  V30 3491 C 329.128 -2.50032 -3.73904 0
M  V30 3492 C 330.447 -0.511176 -4.37121 0
M  V30 3493 H 327.566 -0.22582 -0.701552 0
M  V30 3494 H 330.208 -1.19679 -1.4757 0
M  V30 3495 H 328.358 -0.489806 -3.854 0
M  V30 3496 H 330.03 -3.06737 -3.44544 0
M  V30 3497 H 328.273 -2.93598 -3.19348 0
M  V30 3498 H 328.944 -2.70635 -4.81103 0
M  V30 3499 H 331.42 -0.934075 -4.0548 0
M  V30 3500 H 330.296 -0.795361 -5.43107 0
M  V30 3501 H 330.557 0.588834 -4.38161 0
M  V30 3502 N 329.616 1.39756 -0.72842 0
M  V30 3503 C 330.526 2.34444 -0.0855374 0
M  V30 3504 C 331.542 1.57976 0.729356 0
M  V30 3505 O 332.718 1.90301 0.659346 0
M  V30 3506 C 329.783 3.36965 0.815798 0
M  V30 3507 C 328.844 4.29299 -0.0105996 0
M  V30 3508 C 328.077 5.26923 0.84781 0
M  V30 3509 O 328.3 5.30859 2.08673 0
M  V30 3510 O 327.234 6.01249 0.279969 0
M  V30 3511 H 331.06 2.91065 -0.866892 0
M  V30 3512 H 328.645 1.4117 -0.48902 0
M  V30 3513 H 330.527 3.99804 1.33171 0
M  V30 3514 H 329.202 2.82739 1.57608 0
M  V30 3515 H 328.109 3.69703 -0.571877 0
M  V30 3516 H 329.442 4.86712 -0.73295 0
M  V30 3517 N 331.094 0.475555 1.50254 0
M  V30 3518 C 332.024 -0.30611 2.31485 0
M  V30 3519 C 333.005 -0.986228 1.38591 0
M  V30 3520 O 334.19 -0.982541 1.67511 0
M  V30 3521 C 331.32 -1.38588 3.1845 0
M  V30 3522 C 330.274 -0.827115 4.19932 0
M  V30 3523 C 329.6 -2.00551 4.95665 0
M  V30 3524 C 330.9 0.16463 5.2204 0
M  V30 3525 H 332.594 0.371866 2.97082 0
M  V30 3526 H 330.14 0.180282 1.42867 0
M  V30 3527 H 332.093 -1.94023 3.74076 0
M  V30 3528 H 330.817 -2.09269 2.50747 0
M  V30 3529 H 329.476 -0.294702 3.65414 0
M  V30 3530 H 329.124 -2.6994 4.2443 0
M  V30 3531 H 328.824 -1.63784 5.64313 0
M  V30 3532 H 330.348 -2.56468 5.54127 0
M  V30 3533 H 331.762 -0.300699 5.72511 0
M  V30 3534 H 330.159 0.446813 5.98434 0
M  V30 3535 H 331.229 1.08905 4.72512 0
M  V30 3536 N 332.573 -1.56217 0.208337 0
M  V30 3537 C 333.506 -2.15633 -0.746842 0
M  V30 3538 C 334.484 -1.09685 -1.20034 0
M  V30 3539 O 335.668 -1.3787 -1.28547 0
M  V30 3540 C 332.795 -2.72594 -2.01023 0
M  V30 3541 C 331.841 -3.91251 -1.69779 0
M  V30 3542 S 332.674 -5.28962 -0.834209 0
M  V30 3543 C 333.83 -5.89353 -2.10745 0
M  V30 3544 H 334.063 -2.96315 -0.241789 0
M  V30 3545 H 331.596 -1.54398 -0.00682183 0
M  V30 3546 H 333.554 -3.06053 -2.73572 0
M  V30 3547 H 332.215 -1.91929 -2.48641 0
M  V30 3548 H 331.408 -4.29562 -2.63614 0
M  V30 3549 H 331.01 -3.58869 -1.05303 0
M  V30 3550 H 333.302 -6.04522 -3.05875 0
M  V30 3551 H 334.245 -6.85661 -1.76845 0
M  V30 3552 H 334.653 -5.1807 -2.24196 0
M  V30 3553 N 334.051 0.0651679 -1.57465 0
M  V30 3554 C 335.467 0.420105 -1.53972 0
M  V30 3555 C 335.667 1.78782 -0.929474 0
M  V30 3556 O 334.723 2.46771 -0.534839 0
M  V30 3557 C 336.036 0.355084 -2.98596 0
M  V30 3558 C 337.584 0.434792 -3.09965 0
M  V30 3559 C 338.059 0.399609 -4.56253 0
M  V30 3560 N 339.55 0.459488 -4.60915 0
M  V30 3561 C 340.285 0.454584 -5.71595 0
M  V30 3562 N 339.781 0.404102 -6.9162 0
M  V30 3563 N 341.574 0.501635 -5.59857 0
M  V30 3564 H 333.725 -0.830328 -1.95498 0
M  V30 3565 H 335.988 -0.312244 -0.895102 0
M  V30 3566 H 335.694 -0.583357 -3.46828 0
M  V30 3567 H 335.568 1.16275 -3.58831 0
M  V30 3568 H 337.955 1.36366 -2.61703 0
M  V30 3569 H 338.036 -0.40157 -2.52628 0
M  V30 3570 H 337.68 -0.525436 -5.05175 0
M  V30 3571 H 337.61 1.25359 -5.11461 0
M  V30 3572 H 340.101 0.502482 -3.74544 0
M  V30 3573 H 340.414 0.404468 -7.71741 0
M  V30 3574 H 338.759 0.37069 -6.94011 0
M  V30 3575 H 341.95 0.538812 -4.64989 0
M  V30 3576 H 342.123 0.494345 -6.46112 0
M  V30 3577 N 335.529 1.53961 0.336706 0
M  V30 3578 C 336.776 1.71536 1.07618 0
M  V30 3579 C 337.104 0.482125 1.8843 0
M  V30 3580 O 336.359 -0.536142 1.88213 0
M  V30 3581 C 336.658 2.93493 2.03953 0
M  V30 3582 C 336.324 4.28811 1.39399 0
M  V30 3583 C 334.986 4.65602 1.21523 0
M  V30 3584 C 337.338 5.12844 0.929541 0
M  V30 3585 C 334.666 5.84037 0.558312 0
M  V30 3586 C 337.018 6.31951 0.286505 0
M  V30 3587 C 335.682 6.67432 0.0954869 0
M  V30 3588 H 334.952 0.627696 0.393801 0
M  V30 3589 H 337.599 1.88186 0.354715 0
M  V30 3590 H 335.904 2.71475 2.82504 0
M  V30 3591 H 337.601 3.04285 2.61174 0
M  V30 3592 H 334.191 3.99858 1.54311 0
M  V30 3593 H 338.375 4.84947 1.05548 0
M  V30 3594 H 333.631 6.10097 0.398995 0
M  V30 3595 H 337.805 6.96352 -0.0814376 0
M  V30 3596 H 335.432 7.59063 -0.415579 0
M  V30 3597 N 337.007 -0.598083 1.45811 0
M  V30 3598 C 338.235 -1.38322 1.53866 0
M  V30 3599 C 338.65 -1.87992 0.174479 0
M  V30 3600 O 338.007 -1.62756 -0.825627 0
M  V30 3601 C 338.058 -2.58125 2.53089 0
M  V30 3602 O 337.779 -2.10516 3.84206 0
M  V30 3603 C 339.28 -3.50869 2.70935 0
M  V30 3604 H 336.5 -0.423093 0.520801 0
M  V30 3605 H 339.044 -0.728527 1.91083 0
M  V30 3606 H 337.199 -3.19615 2.18917 0
M  V30 3607 H 337.613 -2.88425 4.38077 0
M  V30 3608 H 339.087 -4.31451 3.44317 0
M  V30 3609 H 339.564 -4.01822 1.77301 0
M  V30 3610 H 340.17 -2.95225 3.06141 0
M  V30 3611 N 338.485 -1.33259 -0.841409 0
M  V30 3612 C 339.713 -1.27605 -1.62864 0
M  V30 3613 C 340.128 0.153507 -1.88175 0
M  V30 3614 O 339.485 1.09485 -1.46011 0
M  V30 3615 C 339.536 -2.04596 -2.98031 0
M  V30 3616 O 339.257 -3.41975 -2.73834 0
M  V30 3617 C 340.758 -2.06122 -3.92465 0
M  V30 3618 H 337.978 -0.439718 -0.506842 0
M  V30 3619 H 340.522 -1.75591 -1.04824 0
M  V30 3620 H 338.677 -1.60299 -3.5268 0
M  V30 3621 H 339.091 -3.81549 -3.59889 0
M  V30 3622 H 340.565 -2.64451 -4.84531 0
M  V30 3623 H 341.042 -1.05083 -4.26444 0
M  V30 3624 H 341.648 -2.50427 -3.43753 0
M  V30 3625 N 339.963 1.05934 -1.16686 0
M  V30 3626 C 341.374 1.60263 -0.957745 0
M  V30 3627 C 341.725 1.89789 0.49745 0
M  V30 3628 O 340.85 1.67401 1.37135 0
M  V30 3629 C 341.445 2.91172 -1.73218 0
M  V30 3630 C 340.004 3.42188 -1.56794 0
M  V30 3631 C 339.151 2.16028 -1.73859 0
M  V30 3632 H 342.102 0.888392 -1.31504 0
M  V30 3633 H 342.123 3.60744 -1.21014 0
M  V30 3634 H 341.635 2.6965 -2.79124 0
M  V30 3635 H 339.736 3.68762 -0.533437 0
M  V30 3636 H 339.849 4.17273 -2.35414 0
M  V30 3637 H 338.213 2.26426 -1.16633 0
M  V30 3638 H 338.996 1.96985 -2.81161 0
M  V30 3639 N 341.441 0.965919 1.2453 0
M  V30 3640 C 342.689 0.625593 1.92174 0
M  V30 3641 C 343.01 -0.841652 1.75901 0
M  V30 3642 O 342.28 -1.60061 1.12948 0
M  V30 3643 H 340.86 0.228388 0.71123 0
M  V30 3644 H 343.522 1.2266 1.51461 0
M  V30 3645 H 342.618 0.864653 2.99884 0
M  V30 3646 N 342.919 -1.39368 0.735821 0
M  V30 3647 C 344.166 -2.00497 0.284123 0
M  V30 3648 C 344.494 -1.58387 -1.12889 0
M  V30 3649 O 343.749 -0.804359 -1.78406 0
M  V30 3650 C 344.048 -3.5583 0.334651 0
M  V30 3651 C 343.714 -4.17593 1.7008 0
M  V30 3652 C 342.376 -4.34176 2.07472 0
M  V30 3653 C 344.728 -4.51848 2.59775 0
M  V30 3654 C 342.056 -4.82304 3.34065 0
M  V30 3655 C 344.408 -5.01384 3.85741 0
M  V30 3656 C 343.072 -5.16175 4.23225 0
M  V30 3657 H 342.342 -0.73367 0.103968 0
M  V30 3658 H 344.989 -1.66683 0.942825 0
M  V30 3659 H 343.294 -3.89674 -0.407625 0
M  V30 3660 H 344.991 -4.00986 -0.0329927 0
M  V30 3661 H 341.581 -4.05087 1.40008 0
M  V30 3662 H 345.765 -4.38653 2.32157 0
M  V30 3663 H 341.021 -4.91941 3.63049 0
M  V30 3664 H 345.195 -5.26863 4.55399 0
M  V30 3665 H 342.822 -5.5323 5.21384 0
M  V30 3666 N 344.397 -0.483516 -1.5 0
M  V30 3667 C 345.808 -0.0314176 -1.86674 0
M  V30 3668 C 346.159 1.37728 -1.39733 0
M  V30 3669 O 345.284 2.02327 -0.767635 0
M  V30 3670 C 345.879 -0.0502376 -3.38763 0
M  V30 3671 C 344.438 0.346442 -3.74802 0
M  V30 3672 C 343.585 -0.430366 -2.7394 0
M  V30 3673 H 346.536 -0.697182 -1.42566 0
M  V30 3674 H 346.557 0.749116 -3.73053 0
M  V30 3675 H 346.069 -1.07563 -3.72897 0
M  V30 3676 H 344.17 1.37572 -3.46273 0
M  V30 3677 H 344.283 0.0391486 -4.79084 0
M  V30 3678 H 342.647 0.117557 -2.54429 0
M  V30 3679 H 343.43 -1.4555 -3.10918 0
M  V30 3680 N 345.875 1.56104 -0.216619 0
M  V30 3681 C 347.152 1.89988 0.465165 0
M  V30 3682 C 347.532 1.13326 1.78102 0
M  V30 3683 O 346.88 0.241033 2.27225 0
M  V30 3684 C 347.09 3.42646 0.662939 0
M  V30 3685 C 348.438 4.13311 0.972602 0
M  V30 3686 O 349.462 3.48217 0.749901 0
M  V30 3687 O 348.321 5.28396 1.39499 0
M  V30 3688 H 345.415 0.78979 0.245276 0
M  V30 3689 H 347.961 1.67721 -0.258436 0
M  V30 3690 H 346.733 3.90399 -0.26543 0
M  V30 3691 H 346.356 3.70677 1.43821 0
M  V30 3692 N 347.353 -0.0568162 1.57498 0
M  V30 3693 C 348.578 -0.769402 1.92601 0
M  V30 3694 C 349.003 -1.69559 0.814336 0
M  V30 3695 O 348.361 -1.79811 -0.231903 0
M  V30 3696 C 348.409 -1.52634 3.26704 0
M  V30 3697 O 347.513 -2.63797 3.16994 0
M  V30 3698 H 346.854 -0.208909 0.63028 0
M  V30 3699 H 349.384 -0.0205798 2.0459 0
M  V30 3700 H 349.394 -1.90234 3.60936 0
M  V30 3701 H 348.069 -0.846875 4.07186 0
M  V30 3702 H 346.646 -2.28943 2.94346 0
M  V30 3703 N 348.832 -1.54138 -0.328536 0
M  V30 3704 C 350.243 -1.63395 -0.903272 0
M  V30 3705 C 350.594 -0.524828 -1.8905 0
M  V30 3706 O 349.719 0.343068 -2.13663 0
M  V30 3707 C 350.314 -2.9618 -1.64507 0
M  V30 3708 C 348.873 -3.0765 -2.1686 0
M  V30 3709 C 348.02 -2.58933 -0.992416 0
M  V30 3710 H 350.971 -1.58344 -0.106253 0
M  V30 3711 H 350.992 -2.86061 -2.50897 0
M  V30 3712 H 350.504 -3.76884 -0.926302 0
M  V30 3713 H 348.605 -2.31611 -2.91868 0
M  V30 3714 H 348.718 -4.1337 -2.42202 0
M  V30 3715 H 347.082 -2.14706 -1.37016 0
M  V30 3716 H 347.865 -3.42089 -0.288041 0
M  V30 3717 N 350.31 0.590341 -1.46126 0
M  V30 3718 C 351.54 1.37304 -1.54373 0
M  V30 3719 C 351.948 1.88332 -0.181071 0
M  V30 3720 O 351.291 1.63852 0.830559 0
M  V30 3721 C 351.353 2.6012 -2.48149 0
M  V30 3722 C 351.017 2.30613 -3.94546 0
M  V30 3723 C 352.014 1.89915 -4.83971 0
M  V30 3724 C 349.699 2.42993 -4.39613 0
M  V30 3725 C 351.693 1.61981 -6.16475 0
M  V30 3726 C 349.38 2.14672 -5.72153 0
M  V30 3727 C 350.378 1.7423 -6.60404 0
M  V30 3728 O 350.066 1.46251 -7.90485 0
M  V30 3729 H 349.798 0.426086 -0.524811 0
M  V30 3730 H 352.352 0.72539 -1.92165 0
M  V30 3731 H 350.582 3.27664 -2.05361 0
M  V30 3732 H 352.271 3.22182 -2.46887 0
M  V30 3733 H 353.037 1.79872 -4.50412 0
M  V30 3734 H 348.916 2.73435 -3.71153 0
M  V30 3735 H 352.46 1.30341 -6.85315 0
M  V30 3736 H 348.357 2.24337 -6.05263 0
M  V30 3737 H 349.125 1.6016 -8.02677 0
M  V30 3738 N 351.788 1.33704 0.83433 0
M  V30 3739 C 353.199 1.22813 1.4062 0
M  V30 3740 C 353.55 -0.151107 1.95617 0
M  V30 3741 O 352.675 -1.05092 1.89168 0
M  V30 3742 C 353.27 2.22355 2.55624 0
M  V30 3743 C 351.829 2.1529 3.08751 0
M  V30 3744 C 350.976 2.09589 1.8157 0
M  V30 3745 H 353.927 1.45236 0.639702 0
M  V30 3746 H 353.948 1.83391 3.33389 0
M  V30 3747 H 353.46 3.22728 2.15566 0
M  V30 3748 H 351.561 1.18235 3.53343 0
M  V30 3749 H 351.674 3.06038 3.68616 0
M  V30 3750 H 350.038 1.55134 2.02004 0
M  V30 3751 H 350.821 3.11777 1.43701 0
M  V30 3752 N 353.266 -1.05314 1.17247 0
M  V30 3753 C 354.229 -2.112 0.890357 0
M  V30 3754 C 355.229 -1.60359 -0.118943 0
M  V30 3755 O 356.419 -1.73833 0.113086 0
M  V30 3756 C 353.551 -3.39266 0.333422 0
M  V30 3757 H 354.744 -2.37659 1.82916 0
M  V30 3758 H 352.297 -1.21538 0.982758 0
M  V30 3759 H 353.032 -3.18462 -0.612587 0
M  V30 3760 H 352.817 -3.77477 1.06082 0
M  V30 3761 H 354.307 -4.17315 0.154322 0
M  V30 3762 N 354.744 -0.972509 -1.24016 0
M  V30 3763 C 355.694 -0.477561 -2.22942 0
M  V30 3764 C 356.678 0.44308 -1.54679 0
M  V30 3765 O 357.87 0.273219 -1.74879 0
M  V30 3766 C 354.999 0.226348 -3.42553 0
M  V30 3767 C 354.085 -0.713403 -4.18057 0
M  V30 3768 N 354.476 -1.8527 -4.70647 0
M  V30 3769 C 352.774 -0.525145 -4.42898 0
M  V30 3770 C 353.475 -2.44089 -5.28011 0
M  V30 3771 N 352.451 -1.72556 -5.15486 0
M  V30 3772 H 356.253 -1.34678 -2.61226 0
M  V30 3773 H 353.767 -0.832196 -1.39457 0
M  V30 3774 H 355.764 0.598184 -4.12586 0
M  V30 3775 H 354.424 1.09195 -3.05788 0
M  V30 3776 H 355.435 -2.2341 -4.67235 0
M  V30 3777 H 352.112 0.296096 -4.16449 0
M  V30 3778 H 353.502 -3.40259 -5.79374 0
M  V30 3779 N 356.222 1.38976 -0.743202 0
M  V30 3780 C 357.185 2.28901 -0.117014 0
M  V30 3781 C 358.185 1.46698 0.658503 0
M  V30 3782 O 359.375 1.67274 0.486305 0
M  V30 3783 C 356.507 3.30309 0.84315 0
M  V30 3784 H 357.7 2.8578 -0.909373 0
M  V30 3785 H 355.253 1.47761 -0.509547 0
M  V30 3786 H 355.988 2.785 1.66157 0
M  V30 3787 H 355.773 3.91029 0.289594 0
M  V30 3788 H 357.263 3.97577 1.2776 0
M  V30 3789 N 357.7 0.491464 1.49741 0
M  V30 3790 C 359.116 0.146835 1.58923 0
M  V30 3791 C 359.316 -1.34804 1.49767 0
M  V30 3792 O 358.372 -2.12317 1.36667 0
M  V30 3793 C 359.685 0.715157 2.92072 0
M  V30 3794 C 361.233 0.680407 3.05515 0
M  V30 3795 C 361.708 1.22663 4.41269 0
M  V30 3796 N 363.199 1.18691 4.47735 0
M  V30 3797 C 363.934 1.57984 5.51207 0
M  V30 3798 N 363.43 2.04824 6.6183 0
M  V30 3799 N 365.223 1.49459 5.41866 0
M  V30 3800 H 357.374 1.46347 1.53936 0
M  V30 3801 H 359.637 0.606453 0.728642 0
M  V30 3802 H 359.343 1.76317 3.04311 0
M  V30 3803 H 359.217 0.17018 3.76816 0
M  V30 3804 H 361.604 -0.358743 2.92911 0
M  V30 3805 H 361.685 1.26242 2.22478 0
M  V30 3806 H 361.329 2.26451 4.54623 0
M  V30 3807 H 361.259 0.620637 5.2293 0
M  V30 3808 H 363.75 0.843605 3.68364 0
M  V30 3809 H 364.063 2.32901 7.3687 0
M  V30 3810 H 362.408 2.08791 6.62896 0
M  V30 3811 H 365.599 1.12692 4.54333 0
M  V30 3812 H 365.772 1.80406 6.22381 0
M  V30 3813 N 359.178 -1.55987 0.224894 0
M  V30 3814 C 360.418 -2.00293 -0.407706 0
M  V30 3815 C 360.782 -1.1093 -1.56711 0
M  V30 3816 O 361.983 -1.44597 -2.26595 0
M  V30 3817 C 360.254 -3.47675 -0.82805 0
M  V30 3818 S 361.813 -4.14 -1.45429 0
M  V30 3819 H 358.631 -0.699152 -0.129256 0
M  V30 3820 H 361.233 -1.92609 0.334967 0
M  V30 3821 H 359.937 -4.10392 0.0253964 0
M  V30 3822 H 359.468 -3.59239 -1.60345 0
M  V30 3823 H 361.483 -4.13465 -2.74337 0
M  V30 3824 N 360.656 0.0484629 -1.57525 0
M  V30 3825 C 361.588 1.08222 -2.02041 0
M  V30 3826 C 362.601 1.33621 -0.930012 0
M  V30 3827 O 363.79 1.3145 -1.20761 0
M  V30 3828 C 360.89 2.42818 -2.36416 0
M  V30 3829 C 360.063 2.37049 -3.67596 0
M  V30 3830 C 359.122 3.53937 -3.89378 0
M  V30 3831 O 358.148 3.34308 -4.60681 0
M  V30 3832 N 359.35 4.75126 -3.3352 0
M  V30 3833 H 362.115 0.702946 -2.9134 0
M  V30 3834 H 359.676 0.236745 -1.6016 0
M  V30 3835 H 361.668 3.197 -2.48141 0
M  V30 3836 H 360.238 2.72661 -1.52888 0
M  V30 3837 H 359.458 1.45395 -3.66407 0
M  V30 3838 H 360.746 2.30318 -4.53686 0
M  V30 3839 H 360.144 4.93976 -2.75688 0
M  V30 3840 H 358.701 5.49439 -3.50656 0
M  V30 3841 N 362.134 1.5431 0.320358 0
M  V30 3842 C 363.38 1.73859 1.05568 0
M  V30 3843 C 363.735 0.507807 1.85578 0
M  V30 3844 O 363.028 -0.499789 1.84967 0
M  V30 3845 C 363.222 2.95639 2.00828 0
M  V30 3846 C 363.051 4.30444 1.30186 0
M  V30 3847 C 361.821 4.94544 1.03703 0
M  V30 3848 C 364.019 5.0929 0.716138 0
M  V30 3849 N 362.001 6.13172 0.298846 0
M  V30 3850 C 363.372 6.19903 0.109729 0
M  V30 3851 C 365.427 4.94034 0.619269 0
M  V30 3852 C 364.13 7.16924 -0.584153 0
M  V30 3853 C 366.156 5.91369 -0.0609184 0
M  V30 3854 C 365.518 7.01336 -0.656258 0
M  V30 3855 H 361.617 0.688988 0.36989 0
M  V30 3856 H 364.201 1.9177 0.336494 0
M  V30 3857 H 362.372 2.79188 2.70016 0
M  V30 3858 H 364.104 3.03802 2.6737 0
M  V30 3859 H 360.859 4.54536 1.33019 0
M  V30 3860 H 361.283 6.76977 -0.0561964 0
M  V30 3861 H 365.925 4.0916 1.06526 0
M  V30 3862 H 363.643 8.01354 -1.04197 0
M  V30 3863 H 367.229 5.81642 -0.135552 0
M  V30 3864 H 366.109 7.75359 -1.17423 0
M  V30 3865 N 363.613 -0.582584 1.46437 0
M  V30 3866 C 364.576 -1.67366 1.56592 0
M  V30 3867 C 365.576 -1.54575 0.443072 0
M  V30 3868 O 366.766 -1.59191 0.707381 0
M  V30 3869 C 363.898 -3.06791 1.48634 0
M  V30 3870 H 365.091 -1.5972 2.5383 0
M  V30 3871 H 362.644 -0.800432 1.34249 0
M  V30 3872 H 363.379 -3.19993 0.526763 0
M  V30 3873 H 363.164 -3.17484 2.30101 0
M  V30 3874 H 364.654 -3.86218 1.58826 0
M  V30 3875 N 365.091 -1.34144 -0.827227 0
M  V30 3876 C 366.021 -1.28005 -1.95287 0
M  V30 3877 C 367.002 -0.158321 -1.69362 0
M  V30 3878 O 368.187 -0.349987 -1.9102 0
M  V30 3879 C 365.317 -1.03036 -3.31664 0
M  V30 3880 C 364.271 -2.11628 -3.72019 0
M  V30 3881 C 363.597 -1.71854 -5.0633 0
M  V30 3882 C 364.897 -3.53417 -3.8457 0
M  V30 3883 H 366.591 -2.22187 -2.00682 0
M  V30 3884 H 364.137 -1.0696 -0.964135 0
M  V30 3885 H 366.09 -0.973863 -4.09993 0
M  V30 3886 H 364.814 -0.0529391 -3.26557 0
M  V30 3887 H 363.473 -2.16339 -2.95961 0
M  V30 3888 H 363.121 -0.727841 -4.97706 0
M  V30 3889 H 362.821 -2.44531 -5.34302 0
M  V30 3890 H 364.345 -1.67692 -5.87122 0
M  V30 3891 H 365.759 -3.51142 -4.5318 0
M  V30 3892 H 364.156 -4.24679 -4.2399 0
M  V30 3893 H 365.226 -3.91072 -2.86689 0
M  V30 3894 N 366.569 1.04691 -1.17803 0
M  V30 3895 C 367.985 1.29963 -0.926379 0
M  V30 3896 C 368.185 1.97251 0.411635 0
M  V30 3897 O 367.241 2.24922 1.14744 0
M  V30 3898 C 368.554 2.16447 -2.08737 0
M  V30 3899 C 370.102 2.29814 -2.12496 0
M  V30 3900 C 370.577 3.19661 -3.27995 0
M  V30 3901 N 372.068 3.27247 -3.27816 0
M  V30 3902 C 372.803 3.96906 -4.13827 0
M  V30 3903 N 372.299 4.6895 -5.09959 0
M  V30 3904 N 374.092 3.93122 -4.01761 0
M  V30 3905 H 366.243 0.594182 -2.0392 0
M  V30 3906 H 368.506 0.324649 -0.890678 0
M  V30 3907 H 368.212 1.74304 -3.05469 0
M  V30 3908 H 368.086 3.17103 -2.04268 0
M  V30 3909 H 370.473 2.71196 -1.16347 0
M  V30 3910 H 370.554 1.2877 -2.21025 0
M  V30 3911 H 370.198 2.78991 -4.24413 0
M  V30 3912 H 370.128 4.20722 -3.16703 0
M  V30 3913 H 372.619 2.75921 -2.58217 0
M  V30 3914 H 372.932 5.19679 -5.71974 0
M  V30 3915 H 371.277 4.67875 -5.13924 0
M  V30 3916 H 374.468 3.35967 -3.2595 0
M  V30 3917 H 374.641 4.47139 -4.6901 0
M  V30 3918 N 368.047 0.979072 1.23499 0
M  V30 3919 C 369.295 0.645941 1.91499 0
M  V30 3920 C 369.616 -0.822948 1.76784 0
M  V30 3921 O 368.886 -1.58854 1.14639 0
M  V30 3922 H 367.466 0.235919 0.708767 0
M  V30 3923 H 370.128 1.2426 1.50152 0
M  V30 3924 H 369.224 0.896411 2.9895 0
M  V30 3925 N 369.525 -1.3858 0.750561 0
M  V30 3926 C 370.802 -1.94231 0.231009 0
M  V30 3927 C 371.182 -1.68611 -1.27018 0
M  V30 3928 O 370.53 -1.02296 -2.04323 0
M  V30 3929 C 370.74 -3.44123 0.581428 0
M  V30 3930 C 372.088 -4.2116 0.539389 0
M  V30 3931 O 373.112 -3.52391 0.519541 0
M  V30 3932 O 371.971 -5.43749 0.54765 0
M  V30 3933 H 369.065 -0.825639 0.0474263 0
M  V30 3934 H 371.611 -1.4799 0.830478 0
M  V30 3935 H 370.383 -3.56267 1.61833 0
M  V30 3936 H 370.006 -3.97573 -0.0462047 0
M  V30 3937 N 371.003 -0.499398 -1.49478 0
M  V30 3938 C 371.966 0.268838 -2.27618 0
M  V30 3939 C 372.966 0.895383 -1.33565 0
M  V30 3940 O 374.156 0.760164 -1.56739 0
M  V30 3941 C 371.288 1.38559 -3.11471 0
M  V30 3942 H 372.481 -0.416812 -2.96989 0
M  V30 3943 H 370.034 -0.254313 -1.54217 0
M  V30 3944 H 370.769 2.10544 -2.46661 0
M  V30 3945 H 370.554 0.941797 -3.80621 0
M  V30 3946 H 372.044 1.92678 -3.70493 0
M  V30 3947 N 372.481 1.55866 -0.233164 0
M  V30 3948 C 373.758 1.90471 0.444988 0
M  V30 3949 C 374.138 1.15209 1.7689 0
M  V30 3950 O 373.486 0.265119 2.26957 0
M  V30 3951 C 373.696 3.4333 0.626559 0
M  V30 3952 C 375.044 4.14319 0.92871 0
M  V30 3953 O 376.068 3.48993 0.712926 0
M  V30 3954 O 374.927 5.29846 1.33887 0
M  V30 3955 H 372.021 0.792347 0.236885 0
M  V30 3956 H 374.567 1.67437 -0.276211 0
M  V30 3957 H 373.339 3.90095 -0.306822 0
M  V30 3958 H 372.962 3.72181 1.39881 0
M  V30 3959 N 373.959 -0.0401083 1.57549 0
M  V30 3960 C 375.184 -0.748931 1.93406 0
M  V30 3961 C 375.609 -1.68686 0.832274 0
M  V30 3962 O 374.967 -1.80047 -0.212818 0
M  V30 3963 C 375.015 -1.4916 3.28304 0
M  V30 3964 O 374.119 -2.6042 3.19774 0
M  V30 3965 H 373.46 -0.202212 0.63246 0
M  V30 3966 H 375.99 0.00112086 2.046 0
M  V30 3967 H 376 -1.86395 3.62934 0
M  V30 3968 H 374.675 -0.80364 4.08062 0
M  V30 3969 H 373.252 -2.25808 2.96758 0
M  V30 3970 N 375.437 -1.54477 -0.31217 0
M  V30 3971 C 376.683 -1.73483 -1.0503 0
M  V30 3972 C 377.016 -0.513125 -1.87298 0
M  V30 3973 O 376.291 0.489864 -1.8823 0
M  V30 3974 C 376.574 -3.01723 -1.96558 0
M  V30 3975 C 376.427 -4.3417 -1.17545 0
M  V30 3976 C 377.746 -3.25772 -2.95907 0
M  V30 3977 H 374.865 -0.631222 -0.380432 0
M  V30 3978 H 377.507 -1.87184 -0.325932 0
M  V30 3979 H 375.657 -2.90174 -2.58324 0
M  V30 3980 H 377.329 -4.5762 -0.581513 0
M  V30 3981 H 375.572 -4.31159 -0.477925 0
M  V30 3982 H 376.243 -5.20143 -1.84811 0
M  V30 3983 H 378.719 -3.36857 -2.44267 0
M  V30 3984 H 377.595 -4.16838 -3.57123 0
M  V30 3985 H 377.856 -2.43537 -3.68974 0
M  V30 3986 N 376.915 0.57481 -1.46744 0
M  V30 3987 C 377.845 1.69337 -1.60771 0
M  V30 3988 C 378.826 1.63825 -0.457736 0
M  V30 3989 O 380.011 1.8172 -0.684947 0
M  V30 3990 C 377.141 3.0798 -1.60517 0
M  V30 3991 C 376.095 3.28327 -2.74564 0
M  V30 3992 C 375.421 4.67578 -2.59373 0
M  V30 3993 C 376.721 3.15398 -4.16319 0
M  V30 3994 H 378.415 1.57853 -2.54407 0
M  V30 3995 H 375.961 0.75799 -1.22436 0
M  V30 3996 H 377.914 3.86061 -1.68923 0
M  V30 3997 H 376.638 3.20381 -0.634305 0
M  V30 3998 H 375.297 2.52649 -2.65639 0
M  V30 3999 H 374.945 4.76755 -1.60353 0
M  V30 4000 H 374.645 4.82144 -3.35873 0
M  V30 4001 H 376.169 5.47817 -2.69682 0
M  V30 4002 H 377.583 3.83315 -4.26313 0
M  V30 4003 H 375.98 3.41482 -4.93468 0
M  V30 4004 H 377.05 2.12372 -4.3592 0
M  V30 4005 N 378.394 1.34581 0.820102 0
M  V30 4006 C 379.619 1.30333 1.61332 0
M  V30 4007 C 380.044 -0.119339 1.87721 0
M  V30 4008 O 379.402 -1.08197 1.45475 0
M  V30 4009 C 379.45 2.10258 2.92957 0
M  V30 4010 O 378.554 1.47404 3.85157 0
M  V30 4011 H 377.895 0.447488 0.490561 0
M  V30 4012 H 380.425 1.77425 1.01889 0
M  V30 4013 H 380.435 2.21718 3.42498 0
M  V30 4014 H 379.11 3.13693 2.73074 0
M  V30 4015 H 377.687 1.44703 3.43679 0
M  V30 4016 N 379.872 -1.04064 1.18357 0
M  V30 4017 C 380.802 -2.14001 0.934113 0
M  V30 4018 C 381.783 -1.69616 -0.128186 0
M  V30 4019 O 382.968 -1.94185 0.0244093 0
M  V30 4020 C 380.098 -3.44253 0.459066 0
M  V30 4021 C 379.052 -4.02261 1.46185 0
M  V30 4022 C 378.378 -5.27992 0.844322 0
M  V30 4023 C 379.678 -4.38432 2.83856 0
M  V30 4024 H 381.372 -2.35127 1.85352 0
M  V30 4025 H 378.918 -1.12998 0.892604 0
M  V30 4026 H 380.871 -4.20522 0.271907 0
M  V30 4027 H 379.595 -3.22813 -0.495912 0
M  V30 4028 H 378.254 -3.28074 1.63595 0
M  V30 4029 H 377.902 -5.02862 -0.117845 0
M  V30 4030 H 377.602 -5.67765 1.51384 0
M  V30 4031 H 379.126 -6.06938 0.667693 0
M  V30 4032 H 380.54 -5.05688 2.70098 0
M  V30 4033 H 378.937 -4.89254 3.47491 0
M  V30 4034 H 380.007 -3.4826 3.37406 0
M  V30 4035 N 381.35 -0.985608 -1.22978 0
M  V30 4036 C 382.578 -0.675582 -1.95559 0
M  V30 4037 C 382.993 0.758413 -1.72897 0
M  V30 4038 O 382.35 1.51094 -1.02357 0
M  V30 4039 C 382.401 -0.96293 -3.48439 0
M  V30 4040 O 382.122 -2.34057 -3.70336 0
M  V30 4041 C 383.623 -0.669585 -4.38214 0
M  V30 4042 H 380.843 -0.250523 -0.622478 0
M  V30 4043 H 383.387 -1.3184 -1.56328 0
M  V30 4044 H 381.542 -0.366033 -3.85667 0
M  V30 4045 H 381.956 -2.43424 -4.64591 0
M  V30 4046 H 383.43 -0.920967 -5.44263 0
M  V30 4047 H 383.907 0.396383 -4.37408 0
M  V30 4048 H 384.513 -1.2472 -4.06602 0
M  V30 4049 N 382.828 1.3818 -0.7579 0
M  V30 4050 C 384.075 2.00019 -0.315985 0
M  V30 4051 C 384.403 1.60163 1.10355 0
M  V30 4052 O 383.658 0.83264 1.77103 0
M  V30 4053 C 383.957 3.55252 -0.391218 0
M  V30 4054 C 383.623 4.14834 -1.76702 0
M  V30 4055 C 382.285 4.30821 -2.14353 0
M  V30 4056 C 384.637 4.47658 -2.66931 0
M  V30 4057 C 381.965 4.76928 -3.41696 0
M  V30 4058 C 384.317 4.95184 -3.93669 0
M  V30 4059 C 382.981 5.09377 -4.31383 0
M  V30 4060 H 382.251 0.731923 -0.115627 0
M  V30 4061 H 384.898 1.65161 -0.969223 0
M  V30 4062 H 383.203 3.90273 0.34558 0
M  V30 4063 H 384.9 4.00988 -0.030805 0
M  V30 4064 H 381.49 4.02808 -1.46435 0
M  V30 4065 H 385.674 4.34904 -2.39106 0
M  V30 4066 H 380.93 4.86103 -3.70829 0
M  V30 4067 H 385.104 5.19551 -4.63724 0
M  V30 4068 H 382.731 5.44865 -5.30119 0
M  V30 4069 N 384.306 0.507319 1.49211 0
M  V30 4070 C 385.722 0.163682 1.58758 0
M  V30 4071 C 385.922 -1.33208 1.51188 0
M  V30 4072 O 384.978 -2.10855 1.38911 0
M  V30 4073 C 386.291 0.746095 2.91297 0
M  V30 4074 C 387.839 0.712773 3.04776 0
M  V30 4075 C 388.314 1.27336 4.39943 0
M  V30 4076 N 389.805 1.23433 4.46451 0
M  V30 4077 C 390.54 1.63821 5.495 0
M  V30 4078 N 390.036 2.11832 6.5962 0
M  V30 4079 N 391.829 1.55198 5.4025 0
M  V30 4080 H 383.98 1.47972 1.52375 0
M  V30 4081 H 386.243 0.614147 0.722168 0
M  V30 4082 H 385.949 1.79534 3.02424 0
M  V30 4083 H 385.823 0.210137 3.76614 0
M  V30 4084 H 388.21 -0.327656 2.93275 0
M  V30 4085 H 388.291 1.28595 2.21127 0
M  V30 4086 H 387.935 2.3126 4.52196 0
M  V30 4087 H 387.865 0.676066 5.22242 0
M  V30 4088 H 390.356 0.882627 3.67448 0
M  V30 4089 H 390.669 2.40703 7.34358 0
M  V30 4090 H 389.014 2.1581 6.60644 0
M  V30 4091 H 392.205 1.17505 4.53112 0
M  V30 4092 H 392.378 1.86997 6.20432 0
M  V30 4093 N 385.784 -1.5574 0.241426 0
M  V30 4094 C 387.009 -2.0366 -0.392111 0
M  V30 4095 C 387.434 -1.11969 -1.51144 0
M  V30 4096 O 386.792 -0.111594 -1.80956 0
M  V30 4097 C 386.84 -3.49638 -0.882371 0
M  V30 4098 O 385.944 -3.6108 -1.99235 0
M  V30 4099 H 385.285 -0.658379 -0.0862122 0
M  V30 4100 H 387.815 -2.01302 0.365881 0
M  V30 4101 H 387.825 -3.90351 -1.18702 0
M  V30 4102 H 386.5 -4.15852 -0.0632361 0
M  V30 4103 H 385.077 -3.32262 -1.69282 0
M  V30 4104 N 387.262 0.0317525 -1.57568 0
M  V30 4105 C 388.509 0.723104 -1.89149 0
M  V30 4106 C 388.837 1.75504 -0.838377 0
M  V30 4107 O 388.092 1.95037 0.160982 0
M  V30 4108 C 388.391 1.43167 -3.27472 0
M  V30 4109 C 388.057 0.535972 -4.47703 0
M  V30 4110 C 386.719 0.289262 -4.8033 0
M  V30 4111 C 389.071 -0.0826125 -5.21135 0
M  V30 4112 C 386.399 -0.584853 -5.83778 0
M  V30 4113 C 388.751 -0.944414 -6.25511 0
M  V30 4114 C 387.415 -1.20061 -6.56614 0
M  V30 4115 H 386.685 0.264602 -0.692146 0
M  V30 4116 H 389.332 -0.0169496 -1.91492 0
M  V30 4117 H 387.637 2.24497 -3.21105 0
M  V30 4118 H 389.334 1.97209 -3.49155 0
M  V30 4119 H 385.924 0.738414 -4.22191 0
M  V30 4120 H 390.108 0.0950302 -4.96209 0
M  V30 4121 H 385.364 -0.79168 -6.06253 0
M  V30 4122 H 389.538 -1.43026 -6.81554 0
M  V30 4123 H 387.165 -1.87967 -7.36595 0
M  V30 4124 N 388.74 1.54641 0.303973 0
M  V30 4125 C 390.017 1.64455 1.05896 0
M  V30 4126 C 390.397 0.490923 2.05312 0
M  V30 4127 O 389.745 -0.512685 2.22674 0
M  V30 4128 C 389.955 3.02331 1.74347 0
M  V30 4129 C 391.303 3.59045 2.26653 0
M  V30 4130 O 392.327 3.04764 1.84384 0
M  V30 4131 O 391.186 4.54081 3.04093 0
M  V30 4132 H 388.28 0.666729 0.489287 0
M  V30 4133 H 390.826 1.66986 0.302298 0
M  V30 4134 H 389.598 3.77734 1.02142 0
M  V30 4135 H 389.221 3.03565 2.56777 0
M  V30 4136 N 390.218 -0.567019 1.47046 0
M  V30 4137 C 391.148 -1.68482 1.61667 0
M  V30 4138 C 392.129 -1.6358 0.466418 0
M  V30 4139 O 393.314 -1.81354 0.694574 0
M  V30 4140 C 390.444 -3.07124 1.62148 0
M  V30 4141 C 389.398 -3.26867 2.76301 0
M  V30 4142 C 388.724 -4.66196 2.61849 0
M  V30 4143 C 390.024 -3.13186 4.17986 0
M  V30 4144 H 391.718 -1.56502 2.5524 0
M  V30 4145 H 389.264 -0.751486 1.22836 0
M  V30 4146 H 391.217 -3.8516 1.70968 0
M  V30 4147 H 389.941 -3.2004 0.651287 0
M  V30 4148 H 388.6 -2.51237 2.66975 0
M  V30 4149 H 388.248 -4.75898 1.62879 0
M  V30 4150 H 387.948 -4.80356 3.38425 0
M  V30 4151 H 389.472 -5.46379 2.72584 0
M  V30 4152 H 390.886 -3.81049 4.2834 0
M  V30 4153 H 389.283 -3.3886 4.95272 0
M  V30 4154 H 390.353 -2.10057 4.3704 0
M  V30 4155 N 391.696 -1.35014 -0.812953 0
M  V30 4156 C 392.659 -1.27292 -1.90602 0
M  V30 4157 C 393.659 -0.185817 -1.59723 0
M  V30 4158 O 394.849 -0.439102 -1.68575 0
M  V30 4159 C 391.981 -0.967676 -3.26877 0
M  V30 4160 H 393.174 -2.24479 -1.9887 0
M  V30 4161 H 390.727 -1.19446 -1.00808 0
M  V30 4162 H 391.462 0.0005954 -3.243 0
M  V30 4163 H 391.247 -1.75412 -3.50675 0
M  V30 4164 H 392.737 -0.939085 -4.06904 0
M  V30 4165 N 393.175 1.03435 -1.18907 0
M  V30 4166 C 394.4 1.80919 -1.01406 0
M  V30 4167 C 394.825 1.83055 0.432721 0
M  V30 4168 O 394.183 1.25252 1.31079 0
M  V30 4169 C 394.231 3.24091 -1.58105 0
M  V30 4170 O 393.335 4.04434 -0.806669 0
M  V30 4171 H 392.676 0.558709 -0.358803 0
M  V30 4172 H 395.206 1.30223 -1.57807 0
M  V30 4173 H 395.216 3.74853 -1.61087 0
M  V30 4174 H 393.891 3.21851 -2.6341 0
M  V30 4175 H 392.468 3.63091 -0.849666 0
M  V30 4176 N 394.653 0.992116 1.22453 0
M  V30 4177 C 395.893 0.675727 1.92907 0
M  V30 4178 C 396.257 -0.777762 1.75542 0
M  V30 4179 O 397.458 -1.20553 2.40251 0
M  V30 4180 C 395.729 1.0696 3.4102 0
M  V30 4181 S 397.288 0.871456 4.30059 0
M  V30 4182 H 394.106 0.247089 0.666684 0
M  V30 4183 H 396.708 1.27423 1.48269 0
M  V30 4184 H 395.412 2.12383 3.51172 0
M  V30 4185 H 394.943 0.462858 3.90668 0
M  V30 4186 H 396.958 -0.238436 4.95627 0
M  V30 4187 N 396.131 -1.37776 0.765217 0
M  V30 4188 C 397.408 -1.93975 0.251596 0
M  V30 4189 C 397.788 -1.69949 -1.25222 0
M  V30 4190 O 397.136 -1.04457 -2.03226 0
M  V30 4191 C 397.346 -3.43487 0.617895 0
M  V30 4192 C 398.694 -4.20564 0.584029 0
M  V30 4193 O 399.718 -3.5182 0.556888 0
M  V30 4194 O 398.577 -5.43138 0.605291 0
M  V30 4195 H 395.671 -0.82509 0.0561806 0
M  V30 4196 H 398.217 -1.47101 0.846128 0
M  V30 4197 H 396.989 -3.5453 1.65602 0
M  V30 4198 H 396.612 -3.976 -0.00403411 0
M  V30 4199 N 397.609 -0.515225 -1.4894 0
M  V30 4200 C 398.519 0.259774 -2.33157 0
M  V30 4201 C 399.535 0.953501 -1.45548 0
M  V30 4202 O 400.711 0.931735 -1.78552 0
M  V30 4203 C 397.776 1.30193 -3.21326 0
M  V30 4204 C 396.837 0.620129 -4.24797 0
M  V30 4205 C 396.07 1.61263 -5.08753 0
M  V30 4206 O 396.293 2.84389 -4.94448 0
M  V30 4207 O 395.227 1.16013 -5.90614 0
M  V30 4208 H 399.053 -0.429932 -3.00641 0
M  V30 4209 H 396.638 -0.276346 -1.46822 0
M  V30 4210 H 398.52 1.90455 -3.75905 0
M  V30 4211 H 397.195 1.97431 -2.56521 0
M  V30 4212 H 396.102 -0.0226019 -3.74093 0
M  V30 4213 H 397.435 -0.0100493 -4.92199 0
M  V30 4214 N 399.087 1.5561 -0.249682 0
M  V30 4215 C 400.503 1.59254 0.105103 0
M  V30 4216 C 400.703 1.26685 1.56694 0
M  V30 4217 O 399.759 1.0155 2.31179 0
M  V30 4218 C 401.072 2.99687 -0.246592 0
M  V30 4219 C 402.62 3.12416 -0.191118 0
M  V30 4220 C 403.095 4.55074 -0.516885 0
M  V30 4221 N 404.586 4.60835 -0.467489 0
M  V30 4222 C 405.321 5.69201 -0.69268 0
M  V30 4223 N 404.817 6.85817 -0.981146 0
M  V30 4224 N 406.61 5.58635 -0.623198 0
M  V30 4225 H 398.761 1.75049 -1.20298 0
M  V30 4226 H 401.024 0.815003 -0.484225 0
M  V30 4227 H 400.73 3.28267 -1.26228 0
M  V30 4228 H 400.604 3.74798 0.424962 0
M  V30 4229 H 402.991 2.83615 0.815247 0
M  V30 4230 H 403.072 2.39573 -0.896563 0
M  V30 4231 H 402.716 4.84596 -1.52082 0
M  V30 4232 H 402.646 5.26181 0.210068 0
M  V30 4233 H 405.137 3.7705 -0.253373 0
M  V30 4234 H 405.45 7.64341 -1.14032 0
M  V30 4235 H 403.795 6.87494 -1.01865 0
M  V30 4236 H 406.986 4.66406 -0.397863 0
M  V30 4237 H 407.159 6.43017 -0.802093 0
M  V30 4238 N 400.565 -0.0233959 1.57583 0
M  V30 4239 C 401.813 -0.711654 1.89156 0
M  V30 4240 C 402.134 -1.75591 0.848096 0
M  V30 4241 O 401.404 -1.95547 -0.117566 0
M  V30 4242 H 399.984 -0.265835 0.698098 0
M  V30 4243 H 402.646 0.0119948 1.94896 0
M  V30 4244 H 401.742 -1.19766 2.88206 0
M  V30 4245 N 402.043 -1.548 -0.295768 0
M  V30 4246 C 403.268 -1.78653 -1.05346 0
M  V30 4247 C 403.693 -0.546894 -1.79974 0
M  V30 4248 O 403.051 0.502763 -1.7419 0
M  V30 4249 C 403.099 -2.99679 -2.00561 0
M  V30 4250 O 402.203 -2.7317 -3.08953 0
M  V30 4251 H 401.544 -0.59116 -0.302367 0
M  V30 4252 H 404.074 -2.01895 -0.331598 0
M  V30 4253 H 404.084 -3.27793 -2.42932 0
M  V30 4254 H 402.759 -3.89562 -1.4565 0
M  V30 4255 H 401.336 -2.56089 -2.71059 0
M  V30 4256 N 403.521 0.559213 -1.47345 0
M  V30 4257 C 404.798 1.31997 -1.44348 0
M  V30 4258 C 405.178 2.1064 -0.139358 0
M  V30 4259 O 404.526 2.1091 0.879153 0
M  V30 4260 C 404.736 2.22618 -2.68779 0
M  V30 4261 C 406.084 2.83701 -3.1591 0
M  V30 4262 O 407.108 2.32921 -2.69493 0
M  V30 4263 O 405.967 3.75993 -3.966 0
M  V30 4264 H 403.061 0.594251 -0.575147 0
M  V30 4265 H 405.607 0.578282 -1.59543 0
M  V30 4266 H 404.379 1.64093 -3.55231 0
M  V30 4267 H 404.002 3.04085 -2.5616 0
M  V30 4268 N 404.999 1.35443 0.805782 0
M  V30 4269 C 405.929 1.31095 1.93226 0
M  V30 4270 C 406.91 0.185244 1.69088 0
M  V30 4271 O 408.095 0.380332 1.90439 0
M  V30 4272 C 405.225 1.08299 3.29983 0
M  V30 4273 C 404.179 2.17519 3.68605 0
M  V30 4274 C 403.505 1.79887 5.03532 0
M  V30 4275 C 404.805 3.5949 3.78898 0
M  V30 4276 H 406.499 2.25352 1.97122 0
M  V30 4277 H 404.045 1.0848 0.946996 0
M  V30 4278 H 405.998 1.03897 4.08391 0
M  V30 4279 H 404.722 0.104885 3.26432 0
M  V30 4280 H 403.381 2.2102 2.92482 0
M  V30 4281 H 403.029 0.80693 4.96485 0
M  V30 4282 H 402.729 2.53001 5.30344 0
M  V30 4283 H 404.253 1.77011 5.84379 0
M  V30 4284 H 405.667 3.58307 4.47536 0
M  V30 4285 H 404.064 4.31371 4.1718 0
M  V30 4286 H 405.134 3.95584 2.80431 0
M  V30 4287 N 406.477 -1.02803 1.19454 0
M  V30 4288 C 407.723 -1.76478 0.999171 0
M  V30 4289 C 408.056 -1.88456 -0.468828 0
M  V30 4290 O 407.331 -1.40198 -1.34814 0
M  V30 4291 C 407.614 -3.19044 1.66981 0
M  V30 4292 C 407.467 -3.14932 3.21151 0
M  V30 4293 C 408.786 -4.17456 1.39349 0
M  V30 4294 H 405.905 -0.640614 0.364393 0
M  V30 4295 H 408.547 -1.20005 1.47305 0
M  V30 4296 H 406.697 -3.67263 1.2669 0
M  V30 4297 H 408.369 -2.74605 3.70661 0
M  V30 4298 H 406.612 -2.52625 3.52652 0
M  V30 4299 H 407.283 -4.1566 3.63223 0
M  V30 4300 H 409.759 -3.77842 1.74283 0
M  V30 4301 H 408.635 -5.154 1.88823 0
M  V30 4302 H 408.896 -4.40949 0.318813 0
M  V30 4303 N 407.956 -0.998596 -1.21925 0
M  V30 4304 C 409.184 -0.696286 -1.94832 0
M  V30 4305 C 409.599 0.740032 -1.73692 0
M  V30 4306 O 408.956 1.5 -1.03953 0
M  V30 4307 C 409.007 -0.999833 -3.47398 0
M  V30 4308 O 408.728 -2.37972 -3.67833 0
M  V30 4309 C 410.229 -0.716025 -4.37479 0
M  V30 4310 H 407.449 -0.257111 -0.619786 0
M  V30 4311 H 409.993 -1.33491 -1.54921 0
M  V30 4312 H 408.148 -0.406918 -3.85257 0
M  V30 4313 H 408.562 -2.48338 -4.61983 0
M  V30 4314 H 410.036 -0.978642 -5.43256 0
M  V30 4315 H 410.513 0.349968 -4.37803 0
M  V30 4316 H 411.119 -1.29025 -4.05256 0
M  V30 4317 N 409.434 1.37368 -0.772513 0
M  V30 4318 C 410.68 1.99969 -0.337681 0
M  V30 4319 C 411.013 1.61184 1.08321 0
M  V30 4320 O 410.288 0.858395 1.74533 0
M  V30 4321 C 410.571 3.56858 -0.482121 0
M  V30 4322 C 410.424 4.0555 -1.94549 0
M  V30 4323 C 411.743 4.39955 0.113143 0
M  V30 4324 H 408.862 0.726464 -0.124171 0
M  V30 4325 H 411.504 1.63034 -0.975699 0
M  V30 4326 H 409.654 3.88452 0.0610361 0
M  V30 4327 H 411.326 3.84518 -2.54841 0
M  V30 4328 H 409.569 3.57715 -2.45403 0
M  V30 4329 H 410.24 5.14587 -1.9976 0
M  V30 4330 H 412.716 4.14623 -0.35031 0
M  V30 4331 H 411.592 5.48897 -0.0180514 0
M  V30 4332 H 411.853 4.25403 1.20354 0
M  V30 4333 N 410.912 0.523116 1.48665 0
M  V30 4334 C 412.142 -0.00961724 2.06598 0
M  V30 4335 C 412.55 -1.29333 1.38093 0
M  V30 4336 O 411.893 -1.77846 0.46007 0
M  V30 4337 C 411.955 -0.311135 3.58151 0
M  V30 4338 C 411.619 0.878092 4.48485 0
M  V30 4339 C 412.616 1.77464 4.88674 0
M  V30 4340 C 410.301 1.08315 4.90483 0
M  V30 4341 C 412.295 2.86021 5.69623 0
M  V30 4342 C 409.982 2.17187 5.71203 0
M  V30 4343 C 410.98 3.05873 6.10681 0
M  V30 4344 O 410.668 4.12862 6.89783 0
M  V30 4345 H 410.4 0.0272658 0.67545 0
M  V30 4346 H 412.954 0.726156 1.92136 0
M  V30 4347 H 411.184 -1.10079 3.70701 0
M  V30 4348 H 412.873 -0.785125 3.98234 0
M  V30 4349 H 413.639 1.62813 4.56855 0
M  V30 4350 H 409.518 0.402149 4.59243 0
M  V30 4351 H 413.062 3.55272 6.00356 0
M  V30 4352 H 408.959 2.31824 6.02435 0
M  V30 4353 H 409.727 4.10487 7.08126 0
M  V30 4354 N 412.39 -1.55475 0.257931 0
M  V30 4355 C 413.338 -2.23244 -0.653076 0
M  V30 4356 C 414.332 -1.22366 -1.17144 0
M  V30 4357 O 415.538 -1.40347 -1.12706 0
M  V30 4358 H 411.913 -0.716247 -0.229117 0
M  V30 4359 H 413.884 -2.98343 -0.0584788 0
M  V30 4360 C 412.633 -2.95401 -1.83395 0
M  V30 4361 H 411.956 -3.72802 -1.44424 0
M  V30 4362 H 413.396 -3.46165 -2.44838 0
M  V30 4363 C 411.855 -1.99895 -2.71189 0
M  V30 4364 O 412.385 -1.53909 -3.71046 0
M  V30 4365 N 410.591 -1.6676 -2.3799 0
M  V30 4366 H 410.138 -2.04352 -1.56837 0
M  V30 4367 H 410.096 -1.03127 -2.97005 0
M  V30 4368 N 413.868 0.0150385 -1.57593 0
M  V30 4369 C 415.096 0.714395 -1.94175 0
M  V30 4370 C 415.511 1.68135 -0.858841 0
M  V30 4371 O 414.868 1.81766 0.163567 0
M  V30 4372 C 414.919 1.45933 -3.30735 0
M  V30 4373 O 414.64 0.531167 -4.34868 0
M  V30 4374 C 416.141 2.25456 -3.81686 0
M  V30 4375 H 413.361 0.199923 -0.640525 0
M  V30 4376 H 415.905 -0.0316096 -2.04476 0
M  V30 4377 H 414.06 2.15709 -3.21789 0
M  V30 4378 H 414.474 1.05509 -5.13778 0
M  V30 4379 H 415.948 2.731 -4.79709 0
M  V30 4380 H 416.425 3.07485 -3.13607 0
M  V30 4381 H 417.031 1.60727 -3.9376 0
M  V30 4382 N 415.346 1.54954 0.287554 0
M  V30 4383 C 416.276 1.89839 1.35954 0
M  V30 4384 C 417.257 0.758675 1.52244 0
M  V30 4385 O 418.442 1.01557 1.65529 0
M  V30 4386 C 415.572 2.15753 2.72154 0
M  V30 4387 C 414.526 3.3159 2.70614 0
M  V30 4388 C 413.852 3.42952 4.10229 0
M  V30 4389 C 415.152 4.68359 2.31165 0
M  V30 4390 H 416.846 2.79625 1.07007 0
M  V30 4391 H 414.392 1.3454 0.513316 0
M  V30 4392 H 416.345 2.38743 3.47246 0
M  V30 4393 H 415.069 1.22752 3.02654 0
M  V30 4394 H 413.728 3.08545 1.97979 0
M  V30 4395 H 413.376 2.47443 4.37928 0
M  V30 4396 H 413.076 4.20826 4.10097 0
M  V30 4397 H 414.6 3.68218 4.87081 0
M  V30 4398 H 416.014 4.9099 2.95976 0
M  V30 4399 H 414.411 5.49044 2.42221 0
M  V30 4400 H 415.481 4.68165 1.26291 0
M  V30 4401 N 416.824 -0.551391 1.4764 0
M  V30 4402 C 418.049 -1.33837 1.58437 0
M  V30 4403 C 418.474 -1.866 0.237063 0
M  V30 4404 O 417.832 -1.6328 -0.787994 0
M  V30 4405 C 417.88 -2.48014 2.61766 0
M  V30 4406 O 416.984 -3.50419 2.1744 0
M  V30 4407 H 416.325 -0.397299 0.532024 0
M  V30 4408 H 418.855 -0.665759 1.93465 0
M  V30 4409 H 418.865 -2.94503 2.82369 0
M  V30 4410 H 417.54 -2.08969 3.5959 0
M  V30 4411 H 416.117 -3.10196 2.06961 0
M  V30 4412 N 418.302 -1.35869 -0.798587 0
M  V30 4413 C 419.713 -1.26498 -1.37314 0
M  V30 4414 C 420.064 0.0991899 -1.95949 0
M  V30 4415 O 419.189 1.0004 -1.91888 0
M  V30 4416 C 419.784 -2.29054 -2.49639 0
M  V30 4417 C 418.343 -2.234 -3.02935 0
M  V30 4418 C 417.49 -2.14329 -1.75949 0
M  V30 4419 H 420.441 -1.46881 -0.600971 0
M  V30 4420 H 420.462 -1.92166 -3.28409 0
M  V30 4421 H 419.974 -3.2833 -2.06933 0
M  V30 4422 H 418.075 -1.27562 -3.50084 0
M  V30 4423 H 418.188 -3.15703 -3.60372 0
M  V30 4424 H 416.552 -1.60435 -1.9782 0
M  V30 4425 H 417.335 -3.15477 -1.35384 0
M  V30 4426 N 419.78 1.02168 -1.19998 0
M  V30 4427 C 420.713 2.10232 -0.887558 0
M  V30 4428 C 421.691 1.61827 0.158317 0
M  V30 4429 O 422.875 1.88471 0.0330249 0
M  V30 4430 C 420.002 3.37092 -0.32964 0
M  V30 4431 C 419.048 4.0438 -1.3557 0
M  V30 4432 S 419.881 4.48956 -2.91888 0
M  V30 4433 C 421.037 5.79024 -2.37658 0
M  V30 4434 H 421.27 2.36409 -1.80272 0
M  V30 4435 H 418.803 1.15211 -1.0279 0
M  V30 4436 H 420.761 4.10498 -0.0142824 0
M  V30 4437 H 419.422 3.08996 0.563941 0
M  V30 4438 H 418.615 4.95632 -0.9146 0
M  V30 4439 H 418.217 3.37176 -1.61828 0
M  V30 4440 H 420.509 6.53942 -1.77103 0
M  V30 4441 H 421.452 6.27924 -3.27287 0
M  V30 4442 H 421.86 5.35043 -1.79971 0
M  V30 4443 N 421.258 1.00505 1.21394 0
M  V30 4444 C 422.168 0.574806 2.27449 0
M  V30 4445 C 423.184 -0.382206 1.6975 0
M  V30 4446 O 424.36 -0.246027 1.99892 0
M  V30 4447 C 421.425 -0.0917414 3.46579 0
M  V30 4448 C 420.486 0.909758 4.1955 0
M  V30 4449 C 419.719 0.274924 5.32991 0
M  V30 4450 O 419.942 -0.928254 5.62796 0
M  V30 4451 O 418.876 0.985877 5.93771 0
M  V30 4452 H 422.702 1.45744 2.66444 0
M  V30 4453 H 420.287 0.773923 1.27792 0
M  V30 4454 H 422.169 -0.464551 4.18832 0
M  V30 4455 H 420.844 -0.948755 3.09484 0
M  V30 4456 H 419.751 1.33372 3.49518 0
M  V30 4457 H 421.084 1.73636 4.60555 0
M  V30 4458 N 422.737 -1.36956 0.779787 0
M  V30 4459 C 424.148 -1.82094 0.412156 0
M  V30 4460 C 424.499 -1.64926 -1.06273 0
M  V30 4461 O 423.624 -1.16483 -1.82375 0
M  V30 4462 C 424.219 -3.3059 0.741319 0
M  V30 4463 C 422.778 -3.73974 0.426641 0
M  V30 4464 C 421.925 -2.59368 0.980987 0
M  V30 4465 H 424.876 -1.25314 0.973758 0
M  V30 4466 H 424.897 -3.80489 0.028887 0
M  V30 4467 H 424.409 -3.43054 1.81482 0
M  V30 4468 H 422.51 -3.67076 -0.639215 0
M  V30 4469 H 422.623 -4.69778 0.940515 0
M  V30 4470 H 420.987 -2.51463 0.404757 0
M  V30 4471 H 421.77 -2.74621 2.06005 0
M  V30 4472 N 424.215 -0.530993 -1.48385 0
M  V30 4473 C 425.165 0.251092 -2.26613 0
M  V30 4474 C 426.149 0.908977 -1.32765 0
M  V30 4475 O 427.341 0.811616 -1.57295 0
M  V30 4476 C 424.47 1.29677 -3.17866 0
M  V30 4477 C 423.556 0.643627 -4.19188 0
M  V30 4478 N 423.947 -0.271223 -5.05072 0
M  V30 4479 C 422.245 0.900711 -4.3681 0
M  V30 4480 C 422.946 -0.648109 -5.78078 0
M  V30 4481 N 421.922 -0.00895987 -5.43599 0
M  V30 4482 H 425.724 -0.452702 -2.90393 0
M  V30 4483 H 423.238 -0.349091 -1.58604 0
M  V30 4484 H 425.235 1.87079 -3.72568 0
M  V30 4485 H 423.895 2.00193 -2.55642 0
M  V30 4486 H 424.906 -0.643883 -5.13882 0
M  V30 4487 H 421.583 1.59636 -3.85775 0
M  V30 4488 H 422.973 -1.39833 -6.57188 0
M  V30 4489 N 425.693 1.55336 -0.266172 0
M  V30 4490 C 426.656 2.20878 0.612001 0
M  V30 4491 C 427.656 1.18388 1.08816 0
M  V30 4492 O 428.846 1.4335 0.989774 0
M  V30 4493 C 425.978 2.86765 1.84332 0
M  V30 4494 H 427.171 2.99873 0.0398718 0
M  V30 4495 H 424.724 1.56291 -0.0167309 0
M  V30 4496 H 425.459 2.11759 2.45619 0
M  V30 4497 H 425.244 3.61862 1.5099 0
M  V30 4498 H 426.734 3.36867 2.46801 0
M  V30 4499 N 427.171 -0.0066808 1.57599 0
M  V30 4500 C 428.101 -0.999296 2.11036 0
M  V30 4501 C 429.082 -1.36278 1.01795 0
M  V30 4502 O 430.267 -1.4477 1.29442 0
M  V30 4503 C 427.397 -2.29328 2.60818 0
M  V30 4504 C 426.351 -2.07159 3.74525 0
M  V30 4505 C 425.677 -3.42512 4.10596 0
M  V30 4506 C 426.977 -1.43959 5.02069 0
M  V30 4507 H 428.671 -0.554382 2.94223 0
M  V30 4508 H 426.217 -0.265221 1.41536 0
M  V30 4509 H 428.17 -2.99117 2.96828 0
M  V30 4510 H 426.894 -2.7592 1.74745 0
M  V30 4511 H 425.553 -1.39797 3.38899 0
M  V30 4512 H 425.201 -3.86795 3.21556 0
M  V30 4513 H 424.901 -3.28498 4.87199 0
M  V30 4514 H 426.425 -4.13628 4.4916 0
M  V30 4515 H 427.839 -2.03696 5.35893 0
M  V30 4516 H 426.236 -1.40452 5.83432 0
M  V30 4517 H 427.306 -0.407992 4.83181 0
M  V30 4518 N 428.649 -1.55105 -0.279332 0
M  V30 4519 C 429.895 -1.75672 -1.01327 0
M  V30 4520 C 430.228 -0.552739 -1.86168 0
M  V30 4521 O 429.503 0.449827 -1.89227 0
M  V30 4522 C 429.786 -3.05825 -1.90114 0
M  V30 4523 C 429.639 -4.36565 -1.08309 0
M  V30 4524 C 430.958 -3.31975 -2.8893 0
M  V30 4525 H 428.077 -0.639149 -0.366957 0
M  V30 4526 H 430.719 -1.87833 -0.286154 0
M  V30 4527 H 428.869 -2.95588 -2.52111 0
M  V30 4528 H 430.541 -4.58751 -0.484314 0
M  V30 4529 H 428.784 -4.32076 -0.386362 0
M  V30 4530 H 429.455 -5.23946 -1.73737 0
M  V30 4531 H 431.931 -3.41963 -2.37067 0
M  V30 4532 H 430.807 -4.2432 -3.48201 0
M  V30 4533 H 431.068 -2.51309 -3.63725 0
M  V30 4534 N 430.127 0.543554 -1.4793 0
M  V30 4535 C 431.059 1.665 -1.57513 0
M  V30 4536 C 432.072 1.56156 -0.460333 0
M  V30 4537 O 433.261 1.62865 -0.730573 0
M  V30 4538 C 430.361 3.05063 -1.47614 0
M  V30 4539 C 429.534 3.41024 -2.739 0
M  V30 4540 C 428.593 4.58809 -2.57645 0
M  V30 4541 O 427.619 4.62707 -3.31498 0
M  V30 4542 N 428.821 5.56149 -1.66368 0
M  V30 4543 H 431.586 1.5872 -2.5422 0
M  V30 4544 H 429.147 0.730517 -1.44482 0
M  V30 4545 H 431.139 3.81712 -1.34455 0
M  V30 4546 H 429.709 3.06994 -0.589359 0
M  V30 4547 H 428.929 2.53687 -3.01723 0
M  V30 4548 H 430.217 3.61831 -3.57709 0
M  V30 4549 H 429.615 5.55767 -1.05543 0
M  V30 4550 H 428.172 6.32071 -1.59154 0
M  V30 4551 N 431.605 1.3629 0.791371 0
M  V30 4552 C 432.535 1.33137 1.91825 0
M  V30 4553 C 433.516 0.203168 1.68882 0
M  V30 4554 O 434.701 0.400509 1.90025 0
M  V30 4555 C 431.831 1.11793 3.28816 0
M  V30 4556 C 430.785 2.21417 3.66277 0
M  V30 4557 C 430.111 1.85218 5.01596 0
M  V30 4558 C 431.411 3.63489 3.75064 0
M  V30 4559 H 433.105 2.2743 1.9472 0
M  V30 4560 H 430.651 1.09479 0.935437 0
M  V30 4561 H 432.604 1.08222 4.07266 0
M  V30 4562 H 431.328 0.139501 3.26302 0
M  V30 4563 H 429.987 2.2411 2.90121 0
M  V30 4564 H 429.635 0.859544 4.95602 0
M  V30 4565 H 429.335 2.58611 5.27631 0
M  V30 4566 H 430.859 1.832 5.82469 0
M  V30 4567 H 432.273 3.63034 4.43711 0
M  V30 4568 H 430.67 4.35771 4.12582 0
M  V30 4569 H 431.74 3.98536 2.76219 0
M  V30 4570 N 433.083 -1.0153 1.20538 0
M  V30 4571 C 434.323 -1.76689 1.02763 0
M  V30 4572 C 434.687 -1.87065 -0.432513 0
M  V30 4573 O 435.888 -2.58684 -0.730481 0
M  V30 4574 C 434.159 -3.14707 1.69393 0
M  V30 4575 S 435.718 -4.05886 1.66738 0
M  V30 4576 H 432.536 -0.608076 0.368463 0
M  V30 4577 H 435.138 -1.21558 1.53114 0
M  V30 4578 H 433.842 -3.04782 2.74838 0
M  V30 4579 H 433.373 -3.74913 1.19179 0
M  V30 4580 H 435.388 -4.91221 0.70117 0
M  V30 4581 N 434.561 -1.01147 -1.20859 0
M  V30 4582 C 435.809 -0.696486 -1.89719 0
M  V30 4583 C 436.13 0.775788 -1.78904 0
M  V30 4584 O 435.4 1.55759 -1.18811 0
M  V30 4585 H 433.98 -0.254628 -0.702263 0
M  V30 4586 H 436.642 -1.28197 -1.46804 0
M  V30 4587 H 435.738 -0.975357 -2.96468 0
M  V30 4588 N 436.039 1.36541 -0.78704 0
M  V30 4589 C 437.267 2.03561 -0.370199 0
M  V30 4590 C 437.682 1.59347 1.01263 0
M  V30 4591 O 437.039 0.781781 1.64907 0
M  V30 4592 C 437.09 3.59033 -0.421614 0
M  V30 4593 O 436.811 4.01634 -1.7499 0
M  V30 4594 C 438.312 4.433 0.00489763 0
M  V30 4595 H 435.532 0.653346 -0.152904 0
M  V30 4596 H 438.076 1.74566 -1.06522 0
M  V30 4597 H 436.231 3.86746 0.224971 0
M  V30 4598 H 436.645 4.96217 -1.69909 0
M  V30 4599 H 438.119 5.51939 -0.0822184 0
M  V30 4600 H 438.596 4.26285 1.05723 0
M  V30 4601 H 439.202 4.20843 -0.614085 0
M  V30 4602 N 437.518 0.538854 1.48102 0
M  V30 4603 C 438.748 0.0122958 2.06596 0
M  V30 4604 C 439.156 -1.27861 1.39457 0
M  V30 4605 O 438.499 -1.77348 0.478907 0
M  V30 4606 C 438.561 -0.273131 3.58461 0
M  V30 4607 C 438.225 0.92561 4.47528 0
M  V30 4608 C 439.222 1.82637 4.86765 0
M  V30 4609 C 436.907 1.13511 4.89306 0
M  V30 4610 C 438.901 2.92047 5.66558 0
M  V30 4611 C 436.588 2.23233 5.68868 0
M  V30 4612 C 437.586 3.12333 6.07402 0
M  V30 4613 O 437.274 4.20155 6.85365 0
M  V30 4614 H 437.006 0.0344283 0.675123 0
M  V30 4615 H 439.56 0.746494 1.91355 0
M  V30 4616 H 437.79 -1.06141 3.71848 0
M  V30 4617 H 439.479 -0.742842 3.99045 0
M  V30 4618 H 440.245 1.67649 4.55103 0
M  V30 4619 H 436.124 0.450835 4.5879 0
M  V30 4620 H 439.668 3.6162 5.96554 0
M  V30 4621 H 435.565 2.38201 5.99942 0
M  V30 4622 H 436.333 4.17975 7.03732 0
M  V30 4623 N 438.996 -1.55193 0.274407 0
M  V30 4624 C 440.407 -1.85358 -0.223488 0
M  V30 4625 C 440.758 -1.19642 -1.555 0
M  V30 4626 O 439.883 -0.484498 -2.10907 0
M  V30 4627 C 440.478 -3.36282 -0.412285 0
M  V30 4628 C 439.037 -3.66574 -0.854413 0
M  V30 4629 C 438.184 -2.7725 0.0527056 0
M  V30 4630 H 441.135 -1.50743 0.496215 0
M  V30 4631 H 441.156 -3.59349 -1.25094 0
M  V30 4632 H 440.668 -3.84083 0.556965 0
M  V30 4633 H 438.769 -3.24273 -1.83516 0
M  V30 4634 H 438.882 -4.74073 -0.692226 0
M  V30 4635 H 437.246 -2.50447 -0.463484 0
M  V30 4636 H 438.029 -3.27865 1.01783 0
M  V30 4637 N 440.474 -0.00167713 -1.576 0
M  V30 4638 C 441.885 0.54091 -1.78693 0
M  V30 4639 C 442.236 1.7386 -0.909247 0
M  V30 4640 O 441.361 2.16109 -0.112176 0
M  V30 4641 C 441.956 0.98806 -3.24072 0
M  V30 4642 C 440.515 1.47594 -3.46256 0
M  V30 4643 C 439.662 0.42792 -2.73978 0
M  V30 4644 H 442.613 -0.22784 -1.57056 0
M  V30 4645 H 442.634 1.85398 -3.32277 0
M  V30 4646 H 442.146 0.116164 -3.87926 0
M  V30 4647 H 440.247 2.36868 -2.87618 0
M  V30 4648 H 440.36 1.50225 -4.54939 0
M  V30 4649 H 438.724 0.889934 -2.38647 0
M  V30 4650 H 439.507 -0.435038 -3.40532 0
M  V30 4651 N 441.952 1.55251 0.271103 0
M  V30 4652 C 443.177 1.80306 1.02491 0
M  V30 4653 C 443.602 0.575457 1.79081 0
M  V30 4654 O 442.96 -0.474987 1.74967 0
M  V30 4655 C 443.008 3.02832 1.95768 0
M  V30 4656 O 442.112 2.78051 3.04568 0
M  V30 4657 H 441.453 0.595896 0.292923 0
M  V30 4658 H 443.983 2.02397 0.299436 0
M  V30 4659 H 443.993 3.31616 2.37686 0
M  V30 4660 H 442.668 3.9183 1.39434 0
M  V30 4661 H 441.245 2.60369 2.66951 0
M  V30 4662 N 443.43 -0.535701 1.48216 0
M  V30 4663 C 444.66 -1.3148 1.59363 0
M  V30 4664 C 445.068 -1.8753 0.250844 0
M  V30 4665 O 444.411 -1.66821 -0.769174 0
M  V30 4666 C 444.473 -2.50731 2.57632 0
M  V30 4667 C 444.137 -2.15811 4.02833 0
M  V30 4668 C 445.134 -1.71822 4.90686 0
M  V30 4669 C 442.819 -2.26509 4.48329 0
M  V30 4670 C 444.813 -1.3899 6.22062 0
M  V30 4671 C 442.5 -1.93289 5.79726 0
M  V30 4672 C 443.498 -1.49599 6.66415 0
M  V30 4673 O 443.186 -1.16812 7.95368 0
M  V30 4674 H 442.918 -0.406315 0.540263 0
M  V30 4675 H 445.472 -0.653569 1.94725 0
M  V30 4676 H 443.702 -3.19817 2.1738 0
M  V30 4677 H 445.391 -3.12797 2.58675 0
M  V30 4678 H 446.157 -1.63031 4.56778 0
M  V30 4679 H 442.036 -2.59471 3.81045 0
M  V30 4680 H 445.58 -1.04816 6.89681 0
M  V30 4681 H 441.477 -2.01718 6.13172 0
M  V30 4682 H 442.245 -1.30259 8.08069 0
M  V30 4683 N 444.908 -1.36708 -0.784132 0
M  V30 4684 C 445.856 -1.31533 -1.91838 0
M  V30 4685 C 446.85 -0.206205 -1.6814 0
M  V30 4686 O 448.056 -0.373519 -1.76082 0
M  V30 4687 H 444.431 -0.409613 -0.630651 0
M  V30 4688 H 446.402 -2.2731 -1.9332 0
M  V30 4689 C 445.151 -1.12679 -3.28936 0
M  V30 4690 H 444.474 -1.97274 -3.4774 0
M  V30 4691 H 445.914 -1.13106 -4.08636 0
M  V30 4692 C 444.373 0.168281 -3.36479 0
M  V30 4693 O 444.903 1.15625 -3.84699 0
M  V30 4694 N 443.109 0.214762 -2.89805 0
M  V30 4695 H 442.656 -0.589852 -2.50756 0
M  V30 4696 H 442.614 1.08094 -2.95234 0
M  V30 4697 N 446.386 1.0089 -1.21074 0
M  V30 4698 C 447.316 2.1145 -0.990523 0
M  V30 4699 C 448.297 1.69897 0.0831699 0
M  V30 4700 O 449.482 1.94052 -0.0758853 0
M  V30 4701 C 446.612 3.42914 -0.550177 0
M  V30 4702 C 445.566 3.98244 -1.56799 0
M  V30 4703 C 444.892 5.25568 -0.984013 0
M  V30 4704 C 446.192 4.30752 -2.95381 0
M  V30 4705 H 447.886 2.3013 -1.91521 0
M  V30 4706 H 445.432 1.10592 -0.92225 0
M  V30 4707 H 447.385 4.19653 -0.383305 0
M  V30 4708 H 446.109 3.24014 0.41015 0
M  V30 4709 H 444.768 3.23621 -1.72236 0
M  V30 4710 H 444.416 5.02998 -0.0155216 0
M  V30 4711 H 444.116 5.63551 -1.66384 0
M  V30 4712 H 445.64 6.04955 -0.828378 0
M  V30 4713 H 447.054 4.98349 -2.8341 0
M  V30 4714 H 445.451 4.79869 -3.60341 0
M  V30 4715 H 446.521 3.39192 -3.46521 0
M  V30 4716 N 447.864 1.01787 1.20321 0
M  V30 4717 C 449.092 0.727194 1.937 0
M  V30 4718 C 449.507 -0.712305 1.74848 0
M  V30 4719 O 448.864 -1.48327 1.06327 0
M  V30 4720 C 448.915 1.05497 3.45764 0
M  V30 4721 O 448.636 2.43794 3.64 0
M  V30 4722 C 450.137 0.785534 4.36285 0
M  V30 4723 H 447.357 0.266939 0.615617 0
M  V30 4724 H 449.901 1.35939 1.52777 0
M  V30 4725 H 448.056 0.468158 3.84561 0
M  V30 4726 H 448.47 2.55656 4.57974 0
M  V30 4727 H 449.944 1.06495 5.4163 0
M  V30 4728 H 450.421 -0.280273 4.38305 0
M  V30 4729 H 451.027 1.35456 4.03152 0
M  V30 4730 N 449.342 -1.36122 0.79427 0
M  V30 4731 C 450.589 -1.99111 0.368905 0
M  V30 4732 C 450.917 -1.63032 -1.0607 0
M  V30 4733 O 450.172 -0.879303 -1.74833 0
M  V30 4734 C 450.471 -3.5409 0.48527 0
M  V30 4735 C 450.137 -4.10003 1.87638 0
M  V30 4736 C 448.799 -4.24986 2.257 0
M  V30 4737 C 451.151 -4.40423 2.78706 0
M  V30 4738 C 448.479 -4.67701 3.54221 0
M  V30 4739 C 450.831 -4.84573 4.0666 0
M  V30 4740 C 449.495 -4.97761 4.44737 0
M  V30 4741 H 448.765 -0.7286 0.134992 0
M  V30 4742 H 451.412 -1.62534 1.01267 0
M  V30 4743 H 449.717 -3.91052 -0.241984 0
M  V30 4744 H 451.414 -4.00766 0.137109 0
M  V30 4745 H 448.004 -3.98784 1.57064 0
M  V30 4746 H 452.188 -4.28412 2.50553 0
M  V30 4747 H 447.444 -4.761 3.83587 0
M  V30 4748 H 451.618 -5.07074 4.77336 0
M  V30 4749 H 449.245 -5.30618 5.44379 0
M  V30 4750 N 450.82 -0.546701 -1.47814 0
M  V30 4751 C 451.77 0.227042 -2.26867 0
M  V30 4752 C 452.754 0.894844 -1.33721 0
M  V30 4753 O 453.946 0.794887 -1.58147 0
M  V30 4754 C 451.075 1.26299 -3.19223 0
M  V30 4755 C 450.161 0.59913 -4.19847 0
M  V30 4756 N 450.552 -0.324777 -5.04756 0
M  V30 4757 C 448.85 0.854331 -4.37741 0
M  V30 4758 C 449.551 -0.709386 -5.77358 0
M  V30 4759 N 448.527 -0.0666153 -5.43559 0
M  V30 4760 H 452.329 -0.483476 -2.89896 0
M  V30 4761 H 449.843 -0.365893 -1.58224 0
M  V30 4762 H 451.84 1.83116 -3.74532 0
M  V30 4763 H 450.5 1.97471 -2.57751 0
M  V30 4764 H 451.511 -0.698351 -5.1317 0
M  V30 4765 H 448.188 1.55536 -3.87447 0
M  V30 4766 H 449.578 -1.46796 -6.55668 0
M  V30 4767 N 452.299 1.55045 -0.282633 0
M  V30 4768 C 453.524 2.04628 0.337977 0
M  V30 4769 C 453.949 1.15937 1.48123 0
M  V30 4770 O 453.307 0.159532 1.80597 0
M  V30 4771 C 453.355 3.51854 0.78936 0
M  V30 4772 O 452.459 3.66236 1.89592 0
M  V30 4773 H 451.8 0.660434 0.0687261 0
M  V30 4774 H 454.33 2.00261 -0.419124 0
M  V30 4775 H 454.34 3.93361 1.08311 0
M  V30 4776 H 453.015 4.15873 -0.0470419 0
M  V30 4777 H 451.592 3.36633 1.60413 0
M  V30 4778 N 453.777 0.010035 1.57597 0
M  V30 4779 C 455.002 -0.687021 1.95691 0
M  V30 4780 C 455.427 -1.65952 0.885519 0
M  V30 4781 O 454.785 -1.80633 -0.15543 0
M  V30 4782 C 454.833 -1.3864 3.32884 0
M  V30 4783 O 453.937 -2.50115 3.27897 0
M  V30 4784 H 453.278 -0.181989 0.638573 0
M  V30 4785 H 455.808 0.0662122 2.04493 0
M  V30 4786 H 455.818 -1.74754 3.6868 0
M  V30 4787 H 454.493 -0.673411 4.10412 0
M  V30 4788 H 453.07 -2.16253 3.03791 0
M  V30 4789 N 455.255 -1.55392 -0.262866 0
M  V30 4790 C 456.187 -1.85392 -1.34768 0
M  V30 4791 C 457.2 -0.739069 -1.45057 0
M  V30 4792 O 458.389 -1.01703 -1.46693 0
M  V30 4793 C 455.489 -2.01088 -2.72795 0
M  V30 4794 C 454.662 -3.31828 -2.84972 0
M  V30 4795 C 453.721 -3.37464 -4.03738 0
M  V30 4796 O 452.747 -4.10778 -3.94018 0
M  V30 4797 N 453.949 -2.65599 -5.16176 0
M  V30 4798 H 456.714 -2.79029 -1.09375 0
M  V30 4799 H 454.275 -1.55434 -0.452981 0
M  V30 4800 H 456.267 -2.02217 -3.50557 0
M  V30 4801 H 454.837 -1.1427 -2.90966 0
M  V30 4802 H 454.057 -3.43152 -1.94012 0
M  V30 4803 H 455.345 -4.18032 -2.90045 0
M  V30 4804 H 454.743 -2.05736 -5.26962 0
M  V30 4805 H 453.3 -2.72439 -5.92132 0
M  V30 4806 N 456.733 0.527833 -1.48498 0
M  V30 4807 C 457.681 1.65313 -1.63628 0
M  V30 4808 C 458.675 1.6177 -0.502676 0
M  V30 4809 O 459.881 1.66601 -0.681469 0
M  V30 4810 H 456.256 0.547518 -0.515488 0
M  V30 4811 H 458.227 1.49696 -2.58135 0
M  V30 4812 C 456.976 3.03576 -1.6952 0
M  V30 4813 H 456.299 3.06997 -2.56111 0
M  V30 4814 H 457.739 3.81923 -1.84149 0
M  V30 4815 C 456.198 3.34089 -0.43432 0
M  V30 4816 O 456.728 3.99151 0.451852 0
M  V30 4817 N 454.934 2.88991 -0.305368 0
M  V30 4818 H 454.481 2.36222 -1.02747 0
M  V30 4819 H 454.439 3.09776 0.537249 0
M  V30 4820 N 458.211 1.37122 0.776871 0
M  V30 4821 C 459.457 1.32243 1.53752 0
M  V30 4822 C 459.79 -0.0944745 1.9397 0
M  V30 4823 O 459.065 -1.05068 1.6368 0
M  V30 4824 C 459.348 2.25681 2.80607 0
M  V30 4825 C 459.201 3.76127 2.46676 0
M  V30 4826 C 460.52 2.17657 3.82509 0
M  V30 4827 H 457.639 0.481704 0.557791 0
M  V30 4828 H 460.281 1.6778 0.891612 0
M  V30 4829 H 458.431 1.95505 3.35723 0
M  V30 4830 H 460.103 4.16877 1.97513 0
M  V30 4831 H 458.346 3.94946 1.79443 0
M  V30 4832 H 459.017 4.36933 3.37333 0
M  V30 4833 H 461.493 2.44245 3.36873 0
M  V30 4834 H 460.369 2.85185 4.69 0
M  V30 4835 H 460.63 1.16785 4.26396 0
M  V30 4836 N 459.689 -1.00246 1.21608 0
M  V30 4837 C 460.619 -2.10921 1.00172 0
M  V30 4838 C 461.6 -1.69938 -0.0741587 0
M  V30 4839 O 462.785 -1.94009 0.0861753 0
M  V30 4840 C 459.915 -3.42618 0.568355 0
M  V30 4841 C 458.869 -3.97407 1.58909 0
M  V30 4842 C 458.195 -5.25038 1.01187 0
M  V30 4843 C 459.495 -4.2918 2.97661 0
M  V30 4844 H 461.189 -2.29112 1.92739 0
M  V30 4845 H 458.735 -1.10101 0.928102 0
M  V30 4846 H 460.688 -4.19444 0.405555 0
M  V30 4847 H 459.412 -3.24227 -0.392961 0
M  V30 4848 H 458.071 -3.22703 1.73949 0
M  V30 4849 H 457.719 -5.02982 0.0421965 0
M  V30 4850 H 457.419 -5.62661 1.6937 0
M  V30 4851 H 458.943 -6.04507 0.860448 0
M  V30 4852 H 460.357 -4.96839 2.86049 0
M  V30 4853 H 458.754 -4.77952 3.6288 0
M  V30 4854 H 459.824 -3.3735 3.48315 0
M  V30 4855 N 461.167 -1.02423 -1.1978 0
M  V30 4856 C 462.097 -0.62157 -2.25075 0
M  V30 4857 C 463.078 0.367148 -1.6609 0
M  V30 4858 O 464.263 0.250892 -1.92573 0
M  V30 4859 C 461.393 0.0331826 -3.47284 0
M  V30 4860 C 460.347 -0.877323 -4.18912 0
M  V30 4861 C 459.673 -0.0879296 -5.34628 0
M  V30 4862 C 460.973 -2.18892 -4.74219 0
M  V30 4863 H 462.667 -1.50179 -2.59011 0
M  V30 4864 H 460.213 -0.723547 -1.24502 0
M  V30 4865 H 462.166 0.326488 -4.20133 0
M  V30 4866 H 460.89 0.948164 -3.12534 0
M  V30 4867 H 459.549 -1.15475 -3.47938 0
M  V30 4868 H 459.197 0.828941 -4.96123 0
M  V30 4869 H 458.897 -0.694359 -5.83483 0
M  V30 4870 H 460.421 0.198743 -6.10276 0
M  V30 4871 H 461.835 -1.95746 -5.38847 0
M  V30 4872 H 460.232 -2.74686 -5.33542 0
M  V30 4873 H 461.302 -2.84674 -3.92541 0
M  V30 4874 N 462.645 1.35699 -0.801477 0
M  V30 4875 C 463.894 1.98165 -0.375979 0
M  V30 4876 C 464.207 1.64306 1.06127 0
M  V30 4877 O 465.413 2.20097 1.58964 0
M  V30 4878 C 463.869 3.54497 -0.621305 0
M  V30 4879 C 463.477 3.9727 -2.07076 0
M  V30 4880 C 465.221 4.23697 -0.26091 0
M  V30 4881 C 463.128 5.46427 -2.26211 0
M  V30 4882 H 462.058 0.741478 -0.136844 0
M  V30 4883 H 464.709 1.54834 -0.984814 0
M  V30 4884 H 463.091 3.95958 0.0574112 0
M  V30 4885 H 464.265 3.66974 -2.78687 0
M  V30 4886 H 462.58 3.40943 -2.39054 0
M  V30 4887 H 465.177 5.33334 -0.381994 0
M  V30 4888 H 465.52 4.0869 0.792344 0
M  V30 4889 H 466.053 3.87639 -0.893339 0
M  V30 4890 H 462.792 5.66396 -3.29963 0
M  V30 4891 H 462.312 5.78309 -1.59119 0
M  V30 4892 H 463.991 6.12819 -2.07513 0
M  V30 4893 N 464.123 0.554532 1.47522 0
M  V30 4894 C 465.351 0.034257 2.06872 0
M  V30 4895 C 465.766 -1.25826 1.40759 0
M  V30 4896 O 465.123 -1.75425 0.503217 0
M  V30 4897 C 465.174 -0.167827 3.6111 0
M  V30 4898 O 464.895 1.07351 4.24744 0
M  V30 4899 C 466.396 -0.72569 4.3732 0
M  V30 4900 H 463.616 0.0446275 0.669514 0
M  V30 4901 H 466.16 0.767181 1.89564 0
M  V30 4902 H 464.315 -0.850872 3.7794 0
M  V30 4903 H 464.729 0.869563 5.17242 0
M  V30 4904 H 466.203 -0.816394 5.45929 0
M  V30 4905 H 466.68 -1.73635 4.0342 0
M  V30 4906 H 467.286 -0.0784292 4.25228 0
M  V30 4907 N 465.601 -1.54893 0.290851 0
M  V30 4908 C 466.531 -2.26103 -0.583084 0
M  V30 4909 C 467.512 -1.25684 -1.14619 0
M  V30 4910 O 468.697 -1.54436 -1.17741 0
M  V30 4911 C 465.827 -2.99409 -1.75987 0
M  V30 4912 C 464.781 -4.0689 -1.32758 0
M  V30 4913 C 464.107 -4.67856 -2.58872 0
M  V30 4914 C 465.407 -5.20215 -0.46624 0
M  V30 4915 H 467.101 -2.99398 0.0108214 0
M  V30 4916 H 464.647 -1.43998 0.00664468 0
M  V30 4917 H 466.6 -3.47943 -2.37727 0
M  V30 4918 H 465.324 -2.23675 -2.37985 0
M  V30 4919 H 463.983 -3.59191 -0.733299 0
M  V30 4920 H 463.631 -3.88772 -3.19163 0
M  V30 4921 H 463.331 -5.40438 -2.30653 0
M  V30 4922 H 464.855 -5.19147 -3.21433 0
M  V30 4923 H 466.269 -5.64704 -0.989047 0
M  V30 4924 H 464.666 -5.99455 -0.27826 0
M  V30 4925 H 465.736 -4.82198 0.511173 0
M  V30 4926 N 467.08 -0.0183926 -1.57589 0
M  V30 4927 C 468.329 0.66185 -1.90532 0
M  V30 4928 C 468.642 1.73904 -0.895366 0
M  V30 4929 O 469.848 2.47518 -1.11566 0
M  V30 4930 C 468.304 1.22844 -3.38286 0
M  V30 4931 C 467.912 0.185103 -4.47617 0
M  V30 4932 C 469.656 1.88581 -3.80312 0
M  V30 4933 C 467.563 0.762723 -5.86461 0
M  V30 4934 H 466.493 0.250972 -0.711006 0
M  V30 4935 H 469.144 -0.0819435 -1.83317 0
M  V30 4936 H 467.526 2.0235 -3.40398 0
M  V30 4937 H 468.7 -0.58671 -4.5705 0
M  V30 4938 H 467.015 -0.372889 -4.14727 0
M  V30 4939 H 469.612 2.32735 -4.81392 0
M  V30 4940 H 469.955 2.72408 -3.14801 0
M  V30 4941 H 470.488 1.15782 -3.80578 0
M  V30 4942 H 467.227 -0.0371713 -6.55489 0
M  V30 4943 H 466.747 1.50327 -5.80656 0
M  V30 4944 H 468.426 1.25576 -6.34697 0
M  V30 4945 N 468.558 1.5553 0.254621 0
M  V30 4946 C 469.786 1.81046 1.00149 0
M  V30 4947 C 470.201 0.593047 1.79244 0
M  V30 4948 O 469.558 -0.438196 1.77161 0
M  V30 4949 C 469.609 3.04684 1.94551 0
M  V30 4950 O 469.33 4.21725 1.18658 0
M  V30 4951 C 470.831 3.42943 2.80901 0
M  V30 4952 H 468.051 0.602653 0.295044 0
M  V30 4953 H 470.595 2.02576 0.279842 0
M  V30 4954 H 468.75 2.85226 2.62154 0
M  V30 4955 H 469.164 4.91746 1.82445 0
M  V30 4956 H 470.638 4.32576 3.42902 0
M  V30 4957 H 471.115 2.63176 3.51617 0
M  V30 4958 H 471.721 3.64724 2.18762 0
M  V30 4959 N 470.036 -0.519951 1.48776 0
M  V30 4960 C 470.984 -1.64443 1.64503 0
M  V30 4961 C 471.978 -1.61501 0.511248 0
M  V30 4962 O 473.184 -1.66238 0.690294 0
M  V30 4963 H 469.559 -0.544776 0.518385 0
M  V30 4964 H 471.53 -1.48325 2.58925 0
M  V30 4965 C 470.279 -3.02673 1.71127 0
M  V30 4966 H 469.602 -3.05635 2.57735 0
M  V30 4967 H 471.042 -3.80941 1.86172 0
M  V30 4968 C 469.501 -3.33854 0.452032 0
M  V30 4969 O 470.031 -3.99385 -0.430678 0
M  V30 4970 N 468.237 -2.88825 0.32069 0
M  V30 4971 H 467.784 -2.35674 1.03998 0
M  V30 4972 H 467.742 -3.10056 -0.520814 0
M  V30 4973 N 471.514 -1.37532 -0.769588 0
M  V30 4974 C 472.742 -1.36059 -1.55871 0
M  V30 4975 C 473.157 0.053544 -1.88724 0
M  V30 4976 O 472.514 1.01591 -1.5161 0
M  V30 4977 C 472.565 -2.20107 -2.86767 0
M  V30 4978 O 472.286 -3.56009 -2.55321 0
M  V30 4979 C 473.787 -2.26636 -3.80987 0
M  V30 4980 H 471.007 -0.465967 -0.482821 0
M  V30 4981 H 473.551 -1.80901 -0.953686 0
M  V30 4982 H 471.706 -1.78768 -3.43687 0
M  V30 4983 H 472.12 -4.0009 -3.39158 0
M  V30 4984 H 473.594 -2.89763 -4.69831 0
M  V30 4985 H 474.071 -1.2754 -4.20274 0
M  V30 4986 H 474.677 -2.68296 -3.29996 0
M  V30 4987 N 472.992 0.995999 -1.22138 0
M  V30 4988 C 473.902 2.11985 -1.00496 0
M  V30 4989 C 474.918 1.7394 0.0457701 0
M  V30 4990 O 476.094 2.00868 -0.146273 0
M  V30 4991 C 473.159 3.41779 -0.582086 0
M  V30 4992 C 472.22 3.93943 -1.70608 0
M  V30 4993 C 471.453 5.17542 -1.30328 0
M  V30 4994 O 471.676 5.70114 -0.180743 0
M  V30 4995 O 470.61 5.63382 -2.11861 0
M  V30 4996 H 474.436 2.33123 -1.94647 0
M  V30 4997 H 472.021 1.10358 -1.00705 0
M  V30 4998 H 473.903 4.1989 -0.356467 0
M  V30 4999 H 472.578 3.22007 0.330592 0
M  V30 5000 H 471.485 3.17019 -1.98619 0
M  V30 5001 H 472.818 4.18141 -2.59651 0
M  V30 5002 N 474.47 1.03057 1.19235 0
M  V30 5003 C 475.886 0.747947 1.40989 0
M  V30 5004 C 476.086 -0.666752 1.90149 0
M  V30 5005 O 475.142 -1.43249 2.07933 0
M  V30 5006 C 476.455 1.7855 2.41951 0
M  V30 5007 C 478.003 1.80524 2.55695 0
M  V30 5008 C 478.478 2.83243 3.59913 0
M  V30 5009 N 479.969 2.8207 3.67411 0
M  V30 5010 C 480.704 3.58204 4.47747 0
M  V30 5011 N 480.2 4.44057 5.31775 0
M  V30 5012 N 481.993 3.46738 4.42413 0
M  V30 5013 H 474.144 1.94367 0.856468 0
M  V30 5014 H 476.407 0.840412 0.438647 0
M  V30 5015 H 476.113 2.79973 2.12857 0
M  V30 5016 H 475.987 1.6092 3.41152 0
M  V30 5017 H 478.374 0.79778 2.84112 0
M  V30 5018 H 478.455 2.02229 1.56643 0
M  V30 5019 H 478.099 3.84161 3.32239 0
M  V30 5020 H 478.029 2.58795 4.5862 0
M  V30 5021 H 480.52 2.19803 3.074 0
M  V30 5022 H 480.833 4.98884 5.90199 0
M  V30 5023 H 479.178 4.48129 5.3123 0
M  V30 5024 H 482.369 2.79077 3.75811 0
M  V30 5025 H 482.542 4.06322 5.04783 0
M  V30 5026 N 475.948 -1.35272 0.808662 0
M  V30 5027 C 477.364 -1.51806 0.492653 0
M  V30 5028 C 477.564 -1.7574 -0.985778 0
M  V30 5029 O 476.62 -1.80003 -1.77074 0
M  V30 5030 C 477.933 -2.69202 1.33981 0
M  V30 5031 C 479.481 -2.8308 1.33547 0
M  V30 5032 C 479.956 -4.03502 2.16679 0
M  V30 5033 N 481.447 -4.10684 2.14227 0
M  V30 5034 C 482.182 -5.02984 2.75308 0
M  V30 5035 N 481.678 -6.00603 3.45323 0
M  V30 5036 N 483.471 -4.95746 2.64938 0
M  V30 5037 H 475.622 -1.17993 1.76611 0
M  V30 5038 H 477.885 -0.577476 0.751814 0
M  V30 5039 H 477.591 -2.581 2.38909 0
M  V30 5040 H 477.465 -3.63854 0.994491 0
M  V30 5041 H 479.852 -2.93631 0.294036 0
M  V30 5042 H 479.933 -1.89278 1.72068 0
M  V30 5043 H 479.577 -3.93711 3.20864 0
M  V30 5044 H 479.507 -4.96489 1.75517 0
M  V30 5045 H 481.998 -3.40802 1.63285 0
M  V30 5046 H 482.311 -6.67633 3.89212 0
M  V30 5047 H 480.656 -6.0077 3.49428 0
M  V30 5048 H 483.847 -4.18439 2.09825 0
M  V30 5049 H 484.02 -5.67487 3.12829 0
M  V30 5050 N 477.426 -0.562348 -1.47226 0
M  V30 5051 C 478.376 0.202967 -2.27095 0
M  V30 5052 C 479.36 0.880611 -1.34663 0
M  V30 5053 O 480.552 0.778069 -1.58981 0
M  V30 5054 C 477.681 1.22906 -3.20545 0
M  V30 5055 C 476.767 0.554566 -4.20459 0
M  V30 5056 N 477.158 -0.378295 -5.04383 0
M  V30 5057 C 475.456 0.807854 -4.38623 0
M  V30 5058 C 476.157 -0.770583 -5.76573 0
M  V30 5059 N 475.133 -0.124263 -5.43458 0
M  V30 5060 H 478.935 -0.514196 -2.89367 0
M  V30 5061 H 476.449 -0.382655 -1.57827 0
M  V30 5062 H 478.446 1.79134 -3.76453 0
M  V30 5063 H 477.106 1.94726 -2.59831 0
M  V30 5064 H 478.117 -0.75274 -5.124 0
M  V30 5065 H 474.794 1.51418 -3.89075 0
M  V30 5066 H 476.184 -1.53742 -6.54074 0
M  V30 5067 N 478.904 1.54736 -0.299062 0
M  V30 5068 C 480.315 1.8569 0.193971 0
M  V30 5069 C 480.666 1.22101 1.53577 0
M  V30 5070 O 479.791 0.51799 2.10109 0
M  V30 5071 C 480.386 3.36895 0.358733 0
M  V30 5072 C 478.945 3.67887 0.795986 0
M  V30 5073 C 478.092 2.77131 -0.096807 0
M  V30 5074 H 481.043 1.49934 -0.520134 0
M  V30 5075 H 481.064 3.61294 1.19361 0
M  V30 5076 H 480.576 3.83148 -0.617998 0
M  V30 5077 H 478.677 3.27151 1.78334 0
M  V30 5078 H 478.79 4.75114 0.616718 0
M  V30 5079 H 477.154 2.51153 0.423581 0
M  V30 5080 H 477.937 3.26204 -1.06986 0
M  V30 5081 N 480.382 0.0267497 1.57577 0
M  V30 5082 C 481.63 -0.651116 1.91324 0
M  V30 5083 C 481.951 -1.72804 0.90353 0
M  V30 5084 O 481.221 -1.95822 -0.0552946 0
M  V30 5085 H 479.801 -0.243491 0.706202 0
M  V30 5086 H 482.463 0.0739935 1.94759 0
M  V30 5087 H 481.559 -1.10536 2.9187 0
M  V30 5088 N 481.861 -1.55662 -0.24637 0
M  V30 5089 C 483.108 -1.77519 -0.974335 0
M  V30 5090 C 483.436 -0.591165 -1.85298 0
M  V30 5091 O 482.691 0.425497 -1.91018 0
M  V30 5092 C 482.99 -3.04885 -1.86494 0
M  V30 5093 C 482.656 -4.36209 -1.14161 0
M  V30 5094 C 481.318 -4.71896 -0.941701 0
M  V30 5095 C 483.67 -5.17391 -0.628957 0
M  V30 5096 C 480.998 -5.86299 -0.216852 0
M  V30 5097 C 483.35 -6.32546 0.0824273 0
M  V30 5098 C 482.014 -6.66853 0.293807 0
M  V30 5099 H 481.284 -0.649588 -0.356535 0
M  V30 5100 H 483.931 -1.89934 -0.244394 0
M  V30 5101 H 482.236 -2.87484 -2.66196 0
M  V30 5102 H 483.933 -3.18994 -2.42989 0
M  V30 5103 H 480.523 -4.08174 -1.30736 0
M  V30 5104 H 484.707 -4.90276 -0.770943 0
M  V30 5105 H 479.963 -6.11385 -0.0426124 0
M  V30 5106 H 484.137 -6.94693 0.487292 0
M  V30 5107 H 481.764 -7.55349 0.857428 0
M  V30 5108 N 483.339 0.512053 -1.4905 0
M  V30 5109 C 484.249 1.64139 -1.67617 0
M  V30 5110 C 485.265 1.64786 -0.558701 0
M  V30 5111 O 486.441 1.8341 -0.832034 0
M  V30 5112 C 483.506 3.00548 -1.72835 0
M  V30 5113 C 482.567 3.10615 -2.96339 0
M  V30 5114 C 481.8 4.40517 -3.01298 0
M  V30 5115 O 482.023 5.28671 -2.14157 0
M  V30 5116 O 480.957 4.55325 -3.93653 0
M  V30 5117 H 484.783 1.51407 -2.63267 0
M  V30 5118 H 482.368 0.687131 -1.32661 0
M  V30 5119 H 484.25 3.81641 -1.78683 0
M  V30 5120 H 482.925 3.13566 -0.803616 0
M  V30 5121 H 481.832 2.2875 -2.96014 0
M  V30 5122 H 483.165 3.0252 -3.88256 0
M  V30 5123 N 484.817 1.37938 0.762283 0
M  V30 5124 C 485.78 1.34279 1.85747 0
M  V30 5125 C 486.78 0.244969 1.58923 0
M  V30 5126 O 487.97 0.501365 1.66829 0
M  V30 5127 C 485.102 1.08833 3.23061 0
M  V30 5128 H 486.295 2.31705 1.90401 0
M  V30 5129 H 483.848 1.23105 0.963057 0
M  V30 5130 H 484.583 0.119767 3.24079 0
M  V30 5131 H 484.368 1.88306 3.43923 0
M  V30 5132 H 485.858 1.08946 4.03138 0
M  V30 5133 N 486.295 -0.989507 1.22664 0
M  V30 5134 C 487.523 -1.76496 1.07967 0
M  V30 5135 C 487.938 -1.85148 -0.369543 0
M  V30 5136 O 487.295 -1.32408 -1.25596 0
M  V30 5137 C 487.346 -3.19642 1.68853 0
M  V30 5138 O 487.067 -3.11453 3.08105 0
M  V30 5139 C 488.568 -4.13621 1.59475 0
M  V30 5140 H 485.788 -0.55418 0.378319 0
M  V30 5141 H 488.332 -1.24378 1.62328 0
M  V30 5142 H 486.487 -3.68816 1.18547 0
M  V30 5143 H 486.901 -4.01499 3.37489 0
M  V30 5144 H 488.375 -5.11801 2.06795 0
M  V30 5145 H 488.852 -4.35718 0.55191 0
M  V30 5146 H 489.458 -3.70346 2.09103 0
M  V30 5147 N 487.773 -1.03688 -1.18687 0
M  V30 5148 C 489.02 -0.73803 -1.88572 0
M  V30 5149 C 489.348 0.733973 -1.8012 0
M  V30 5150 O 488.603 1.55098 -1.19344 0
M  V30 5151 C 488.902 -1.14477 -3.3857 0
M  V30 5152 C 488.568 -2.61641 -3.67226 0
M  V30 5153 C 487.23 -3.01846 -3.74757 0
M  V30 5154 C 489.582 -3.56812 -3.79914 0
M  V30 5155 C 486.91 -4.36118 -3.92451 0
M  V30 5156 C 489.262 -4.90799 -3.99123 0
M  V30 5157 C 487.926 -5.3068 -4.04888 0
M  V30 5158 H 487.196 -0.270064 -0.690034 0
M  V30 5159 H 489.843 -1.3012 -1.40503 0
M  V30 5160 H 488.148 -0.500337 -3.88592 0
M  V30 5161 H 489.845 -0.89095 -3.90977 0
M  V30 5162 H 486.435 -2.29498 -3.61979 0
M  V30 5163 H 490.619 -3.26899 -3.73431 0
M  V30 5164 H 485.875 -4.66542 -3.95157 0
M  V30 5165 H 490.049 -5.64451 -4.07882 0
M  V30 5166 H 487.676 -6.34733 -4.18351 0
M  V30 5167 N 489.251 1.34841 -0.815825 0
M  V30 5168 C 490.498 1.98499 -0.400535 0
M  V30 5169 C 490.826 1.64699 1.03463 0
M  V30 5170 O 490.081 0.907006 1.73412 0
M  V30 5171 C 490.38 3.53273 -0.541541 0
M  V30 5172 C 490.046 4.06966 -1.94138 0
M  V30 5173 C 488.708 4.21341 -2.32433 0
M  V30 5174 C 491.06 4.35933 -2.85677 0
M  V30 5175 C 488.388 4.62007 -3.61617 0
M  V30 5176 C 490.74 4.78042 -4.14317 0
M  V30 5177 C 489.404 4.90622 -4.52599 0
M  V30 5178 H 488.674 0.72636 -0.146566 0
M  V30 5179 H 491.321 1.60902 -1.0384 0
M  V30 5180 H 489.626 3.91387 0.179741 0
M  V30 5181 H 491.323 4.00497 -0.20085 0
M  V30 5182 H 487.913 3.96235 -1.63388 0
M  V30 5183 H 492.097 4.24372 -2.57337 0
M  V30 5184 H 487.353 4.69937 -3.91113 0
M  V30 5185 H 491.527 4.99415 -4.85342 0
M  V30 5186 H 489.154 5.2189 -5.52752 0
M  V30 5187 N 490.729 0.570148 1.46925 0
M  V30 5188 C 491.661 -0.207909 2.28255 0
M  V30 5189 C 492.674 -0.867301 1.37774 0
M  V30 5190 O 493.863 -0.738976 1.62485 0
M  V30 5191 C 490.963 -1.31298 3.12433 0
M  V30 5192 C 490.136 -0.747915 4.30958 0
M  V30 5193 C 489.195 -1.7391 4.9663 0
M  V30 5194 O 488.221 -1.2801 5.54619 0
M  V30 5195 N 489.423 -3.07288 4.92498 0
M  V30 5196 H 492.188 0.489794 2.95671 0
M  V30 5197 H 489.749 0.407076 1.56699 0
M  V30 5198 H 491.741 -1.97507 3.53232 0
M  V30 5199 H 490.311 -1.91373 2.47175 0
M  V30 5200 H 489.531 0.0913066 3.94094 0
M  V30 5201 H 490.819 -0.349958 5.07595 0
M  V30 5202 H 490.217 -3.47213 4.46609 0
M  V30 5203 H 488.774 -3.69021 5.37277 0
M  V30 5204 N 492.207 -1.54576 0.307264 0
M  V30 5205 C 493.137 -2.26708 -0.55907 0
M  V30 5206 C 494.118 -1.26893 -1.1328 0
M  V30 5207 O 495.303 -1.55677 -1.16097 0
M  V30 5208 C 492.433 -3.01259 -1.72801 0
M  V30 5209 C 491.387 -4.08275 -1.28435 0
M  V30 5210 C 490.713 -4.70575 -2.53895 0
M  V30 5211 C 492.013 -5.2068 -0.411038 0
M  V30 5212 H 493.707 -2.9937 0.042576 0
M  V30 5213 H 491.253 -1.43983 0.0219173 0
M  V30 5214 H 493.206 -3.50444 -2.34023 0
M  V30 5215 H 491.93 -2.26187 -2.356 0
M  V30 5216 H 490.589 -3.59949 -0.695161 0
M  V30 5217 H 490.237 -3.92136 -3.15021 0
M  V30 5218 H 489.937 -5.42854 -2.24908 0
M  V30 5219 H 491.461 -5.22527 -3.15908 0
M  V30 5220 H 492.875 -5.65721 -0.929097 0
M  V30 5221 H 491.272 -5.99716 -0.214664 0
M  V30 5222 H 492.342 -4.81629 0.562287 0
M  V30 5223 N 493.685 -0.035106 -1.57561 0
M  V30 5224 C 495.096 0.502885 -1.798 0
M  V30 5225 C 495.447 1.71892 -0.945921 0
M  V30 5226 O 494.572 2.15822 -0.157991 0
M  V30 5227 C 495.167 0.919097 -3.26095 0
M  V30 5228 C 493.726 1.40216 -3.49308 0
M  V30 5229 C 492.873 0.369709 -2.74824 0
M  V30 5230 H 495.824 -0.261102 -1.56537 0
M  V30 5231 H 495.845 1.78308 -3.36135 0
M  V30 5232 H 495.357 0.0338526 -3.88085 0
M  V30 5233 H 493.458 2.30714 -2.92578 0
M  V30 5234 H 493.571 1.40541 -4.58023 0
M  V30 5235 H 491.935 0.839113 -2.40481 0
M  V30 5236 H 492.718 -0.507173 -3.39533 0
M  V30 5237 N 495.163 1.55791 0.238111 0
M  V30 5238 C 496.579 1.48411 0.587045 0
M  V30 5239 C 496.779 0.72702 1.87927 0
M  V30 5240 O 495.835 0.259942 2.51158 0
M  V30 5241 C 497.148 2.92873 0.681623 0
M  V30 5242 C 498.696 3.03295 0.773363 0
M  V30 5243 C 499.171 4.49082 0.899428 0
M  V30 5244 N 500.662 4.53056 0.964075 0
M  V30 5245 C 501.397 5.63117 1.08104 0
M  V30 5246 N 500.893 6.82969 1.16299 0
M  V30 5247 N 502.686 5.50933 1.11488 0
M  V30 5248 H 494.837 2.0345 -0.610076 0
M  V30 5249 H 497.1 0.924034 -0.211813 0
M  V30 5250 H 496.806 3.51142 -0.19802 0
M  V30 5251 H 496.68 3.43851 1.55069 0
M  V30 5252 H 499.067 2.45101 1.64346 0
M  V30 5253 H 499.148 2.55513 -0.121034 0
M  V30 5254 H 498.792 5.07889 0.0338586 0
M  V30 5255 H 498.722 4.94553 1.809 0
M  V30 5256 H 501.213 3.66737 0.91173 0
M  V30 5257 H 501.526 7.62598 1.25155 0
M  V30 5258 H 499.871 6.85712 1.13241 0
M  V30 5259 H 503.062 4.56231 1.0474 0
M  V30 5260 H 503.235 6.36743 1.20259 0
M  V30 5261 N 496.642 -0.504142 1.49319 0
M  V30 5262 C 497.575 -1.62361 1.60356 0
M  V30 5263 C 498.553 -1.56169 0.45277 0
M  V30 5264 O 499.737 -1.76271 0.667892 0
M  V30 5265 C 496.864 -3.00864 1.55559 0
M  V30 5266 C 495.91 -3.25328 2.75797 0
M  V30 5267 S 496.743 -3.08791 4.37503 0
M  V30 5268 C 497.899 -4.49695 4.35345 0
M  V30 5269 H 498.132 -1.52753 2.55056 0
M  V30 5270 H 495.665 -0.689065 1.38171 0
M  V30 5271 H 497.623 -3.8073 1.53477 0
M  V30 5272 H 496.284 -3.0789 0.621515 0
M  V30 5273 H 495.477 -4.2643 2.68651 0
M  V30 5274 H 495.079 -2.53179 2.75275 0
M  V30 5275 H 497.371 -5.41721 4.06871 0
M  V30 5276 H 498.314 -4.61891 5.36714 0
M  V30 5277 H 498.722 -4.30227 3.65465 0
M  V30 5278 N 498.12 -1.38341 -0.754957 0
M  V30 5279 C 499.345 -1.37882 -1.5493 0
M  V30 5280 C 499.77 0.0296385 -1.88077 0
M  V30 5281 O 499.128 1.01133 -1.50472 0
M  V30 5282 C 499.176 -2.23996 -2.82592 0
M  V30 5283 O 498.28 -1.65612 -3.77686 0
M  V30 5284 H 497.621 -0.470384 -0.468652 0
M  V30 5285 H 500.151 -1.82084 -0.933082 0
M  V30 5286 H 500.161 -2.37806 -3.3153 0
M  V30 5287 H 498.836 -3.26365 -2.57796 0
M  V30 5288 H 497.413 -1.60936 -3.36384 0
M  V30 5289 N 499.598 0.982988 -1.23187 0
M  V30 5290 C 500.823 1.76455 -1.08988 0
M  V30 5291 C 501.248 1.84726 0.354691 0
M  V30 5292 O 500.606 1.30699 1.25649 0
M  V30 5293 C 500.654 3.17094 -1.71708 0
M  V30 5294 O 499.758 4.00648 -0.977477 0
M  V30 5295 H 499.099 0.542988 -0.382177 0
M  V30 5296 H 501.629 1.23413 -1.63188 0
M  V30 5297 H 501.639 3.67684 -1.76841 0
M  V30 5298 H 500.314 3.10389 -2.76823 0
M  V30 5299 H 498.891 3.59161 -1.0029 0
M  V30 5300 N 501.076 1.04316 1.18135 0
M  V30 5301 C 502.316 0.756937 1.89868 0
M  V30 5302 C 502.68 -0.702609 1.78682 0
M  V30 5303 O 503.881 -1.10255 2.45148 0
M  V30 5304 C 502.152 1.21327 3.36176 0
M  V30 5305 S 503.711 1.05307 4.25976 0
M  V30 5306 H 500.529 0.275143 0.655604 0
M  V30 5307 H 503.131 1.33597 1.42731 0
M  V30 5308 H 501.835 2.27086 3.41848 0
M  V30 5309 H 501.366 0.628137 3.88353 0
M  V30 5310 H 503.381 -0.0280093 4.96192 0
M  V30 5311 N 502.554 -1.34406 0.822964 0
M  V30 5312 C 503.802 -1.97892 0.410245 0
M  V30 5313 C 504.123 -1.65567 -1.03017 0
M  V30 5314 O 503.393 -0.94642 -1.71522 0
M  V30 5315 H 501.973 -0.732049 0.148707 0
M  V30 5316 H 504.635 -1.64043 1.05242 0
M  V30 5317 H 503.731 -3.07579 0.529284 0
M  V30 5318 N 504.032 -0.577932 -1.46621 0
M  V30 5319 C 505.28 -0.061566 -2.02006 0
M  V30 5320 C 505.601 1.30117 -1.4524 0
M  V30 5321 O 504.871 1.85313 -0.63529 0
M  V30 5322 H 503.451 -0.0197692 -0.746738 0
M  V30 5323 H 506.113 -0.752631 -1.79782 0
M  V30 5324 H 505.209 0.0110238 -3.12098 0
M  V30 5325 N 505.51 1.54411 -0.315457 0
M  V30 5326 C 506.926 1.59556 0.037464 0
M  V30 5327 C 507.126 1.33217 1.5118 0
M  V30 5328 O 506.182 1.11264 2.26664 0
M  V30 5329 C 507.495 2.98372 -0.373477 0
M  V30 5330 C 509.043 3.11324 -0.323452 0
M  V30 5331 C 509.518 4.52472 -0.709433 0
M  V30 5332 N 511.009 4.58437 -0.662524 0
M  V30 5333 C 511.744 5.65751 -0.933474 0
M  V30 5334 N 511.24 6.81039 -1.27114 0
M  V30 5335 N 513.033 5.55489 -0.859573 0
M  V30 5336 H 505.184 1.6979 -1.27614 0
M  V30 5337 H 507.447 0.793732 -0.518356 0
M  V30 5338 H 507.153 3.22618 -1.40037 0
M  V30 5339 H 507.027 3.76264 0.265615 0
M  V30 5340 H 509.414 2.86818 0.694223 0
M  V30 5341 H 509.495 2.35555 -0.997367 0
M  V30 5342 H 509.139 4.7771 -1.72498 0
M  V30 5343 H 509.069 5.26598 -0.0132923 0
M  V30 5344 H 511.56 3.75636 -0.413065 0
M  V30 5345 H 511.873 7.58816 -1.46348 0
M  V30 5346 H 510.218 6.82555 -1.30932 0
M  V30 5347 H 513.409 4.64299 -0.595324 0
M  V30 5348 H 513.582 6.39036 -1.0741 0
M  V30 5349 N 506.988 0.0434614 1.5754 0
M  V30 5350 C 507.918 -0.931651 2.14109 0
M  V30 5351 C 508.899 -1.32971 1.06079 0
M  V30 5352 O 510.084 -1.40579 1.33982 0
M  V30 5353 C 507.214 -2.20914 2.67982 0
M  V30 5354 C 506.168 -1.95139 3.80926 0
M  V30 5355 C 505.494 -3.29276 4.21285 0
M  V30 5356 C 506.794 -1.27913 5.06395 0
M  V30 5357 H 508.488 -0.460497 2.95837 0
M  V30 5358 H 506.034 -0.220058 1.42309 0
M  V30 5359 H 507.987 -2.89522 3.06194 0
M  V30 5360 H 506.711 -2.70221 1.83434 0
M  V30 5361 H 505.37 -1.28945 3.43175 0
M  V30 5362 H 505.018 -3.76369 3.33699 0
M  V30 5363 H 504.718 -3.12831 4.97404 0
M  V30 5364 H 506.242 -3.99129 4.62091 0
M  V30 5365 H 507.656 -1.86544 5.42102 0
M  V30 5366 H 506.053 -1.2182 5.87605 0
M  V30 5367 H 507.123 -0.254066 4.84234 0
M  V30 5368 N 508.466 -1.55915 -0.229846 0
M  V30 5369 C 509.882 -1.48721 -0.579166 0
M  V30 5370 C 510.082 -0.736976 -1.87539 0
M  V30 5371 O 509.138 -0.273258 -2.51017 0
M  V30 5372 C 510.451 -2.9323 -0.666082 0
M  V30 5373 C 511.999 -3.03701 -0.757267 0
M  V30 5374 C 512.474 -4.49552 -0.8756 0
M  V30 5375 N 513.965 -4.53561 -0.940035 0
M  V30 5376 C 514.7 -5.63683 -1.05116 0
M  V30 5377 N 514.196 -6.83576 -1.12675 0
M  V30 5378 N 515.989 -5.51516 -1.08565 0
M  V30 5379 H 508.14 -2.03123 0.620857 0
M  V30 5380 H 510.403 -0.922898 0.21671 0
M  V30 5381 H 510.109 -3.51032 0.21664 0
M  V30 5382 H 509.983 -3.44668 -1.53243 0
M  V30 5383 H 512.37 -2.45969 -1.63043 0
M  V30 5384 H 512.451 -2.55446 0.134583 0
M  V30 5385 H 512.095 -5.079 -0.00692351 0
M  V30 5386 H 512.025 -4.95506 -1.78274 0
M  V30 5387 H 514.516 -3.67215 -0.892269 0
M  V30 5388 H 514.829 -7.63251 -1.21109 0
M  V30 5389 H 513.174 -6.86303 -1.09603 0
M  V30 5390 H 516.365 -4.5678 -1.02319 0
M  V30 5391 H 516.538 -6.37372 -1.1688 0
M  V30 5392 N 509.944 0.496216 -1.49584 0
M  V30 5393 C 510.891 1.59722 -1.66606 0
M  V30 5394 C 511.861 1.58158 -0.507477 0
M  V30 5395 O 513.046 1.76072 -0.735076 0
M  V30 5396 C 510.186 2.97844 -1.74308 0
M  V30 5397 C 509.299 3.09388 -3.01502 0
M  V30 5398 C 508.434 4.38271 -3.00153 0
M  V30 5399 C 507.473 4.43466 -4.21906 0
M  V30 5400 N 506.61 5.63784 -4.1844 0
M  V30 5401 H 511.45 1.44515 -2.60613 0
M  V30 5402 H 508.987 0.703048 -1.29212 0
M  V30 5403 H 510.945 3.77907 -1.76754 0
M  V30 5404 H 509.575 3.11743 -0.837619 0
M  V30 5405 H 508.627 2.22357 -3.08645 0
M  V30 5406 H 509.939 3.09085 -3.91494 0
M  V30 5407 H 509.093 5.2666 -3.01188 0
M  V30 5408 H 507.832 4.41146 -2.07947 0
M  V30 5409 H 506.837 3.53478 -4.21109 0
M  V30 5410 H 508.062 4.42303 -5.1531 0
M  V30 5411 H 506.008 5.67491 -3.29074 0
M  V30 5412 H 505.925 5.65118 -5.02173 0
M  V30 5413 H 507.193 6.54367 -4.23585 0
M  V30 5414 N 511.423 1.38739 0.74761 0
M  V30 5415 C 512.386 1.36241 1.84312 0
M  V30 5416 C 513.386 0.261811 1.58654 0
M  V30 5417 O 514.576 0.519031 1.66288 0
M  V30 5418 C 511.708 1.12253 3.21888 0
M  V30 5419 H 512.901 2.33712 1.87933 0
M  V30 5420 H 510.454 1.2412 0.949946 0
M  V30 5421 H 511.189 0.154133 3.23934 0
M  V30 5422 H 510.974 1.91943 3.41907 0
M  V30 5423 H 512.464 1.13215 4.0196 0
M  V30 5424 N 512.901 -0.976442 1.23707 0
M  V30 5425 C 513.833 -2.07212 0.979574 0
M  V30 5426 C 514.846 -1.6273 -0.0478528 0
M  V30 5427 O 516.035 -1.77506 0.18815 0
M  V30 5428 C 513.135 -3.35835 0.45479 0
M  V30 5429 C 512.308 -4.09268 1.54331 0
M  V30 5430 C 511.367 -5.16166 1.02271 0
M  V30 5431 O 510.393 -5.42827 1.71254 0
M  V30 5432 N 511.595 -5.80313 -0.147419 0
M  V30 5433 H 514.36 -2.29878 1.92292 0
M  V30 5434 H 511.921 -1.14343 1.14618 0
M  V30 5435 H 513.913 -4.04597 0.0914631 0
M  V30 5436 H 512.483 -3.10106 -0.394068 0
M  V30 5437 H 511.703 -3.34906 2.07923 0
M  V30 5438 H 512.991 -4.55095 2.27522 0
M  V30 5439 H 512.389 -5.61043 -0.724353 0
M  V30 5440 H 510.946 -6.50231 -0.451972 0
M  V30 5441 N 514.379 -1.04941 -1.1758 0
M  V30 5442 C 515.627 -0.756492 -1.87408 0
M  V30 5443 C 515.948 0.718478 -1.81281 0
M  V30 5444 O 515.218 1.519 -1.23706 0
M  V30 5445 H 513.798 -0.276841 -0.693807 0
M  V30 5446 H 516.46 -1.32803 -1.42652 0
M  V30 5447 H 515.556 -1.06918 -2.93215 0
M  V30 5448 N 515.857 1.33968 -0.830081 0
M  V30 5449 C 517.085 2.0228 -0.434773 0
M  V30 5450 C 517.5 1.62487 0.961419 0
M  V30 5451 O 516.857 0.833849 1.62337 0
M  V30 5452 C 516.908 3.5751 -0.535625 0
M  V30 5453 O 516.629 3.95864 -1.87679 0
M  V30 5454 C 518.13 4.43091 -0.136137 0
M  V30 5455 H 515.35 0.648151 -0.173613 0
M  V30 5456 H 517.894 1.71089 -1.12022 0
M  V30 5457 H 516.049 3.87266 0.101817 0
M  V30 5458 H 516.463 4.9056 -1.85609 0
M  V30 5459 H 517.937 5.51398 -0.257772 0
M  V30 5460 H 518.414 4.29433 0.921076 0
M  V30 5461 H 519.02 4.18677 -0.747662 0
M  V30 5462 N 517.335 0.585699 1.46312 0
M  V30 5463 C 518.582 0.0724211 2.0237 0
M  V30 5464 C 518.91 -1.28868 1.45683 0
M  V30 5465 O 518.165 -1.85853 0.612945 0
M  V30 5466 C 518.464 -0.0401312 3.57377 0
M  V30 5467 C 518.13 1.25376 4.33119 0
M  V30 5468 C 516.792 1.60824 4.5353 0
M  V30 5469 C 519.144 2.10987 4.76586 0
M  V30 5470 C 516.472 2.81676 5.14661 0
M  V30 5471 C 518.824 3.31068 5.39052 0
M  V30 5472 C 517.488 3.66794 5.5769 0
M  V30 5473 H 516.758 0.0265007 0.740526 0
M  V30 5474 H 519.405 0.762935 1.75646 0
M  V30 5475 H 517.71 -0.813791 3.83255 0
M  V30 5476 H 519.407 -0.453078 3.98432 0
M  V30 5477 H 515.997 0.967808 4.1753 0
M  V30 5478 H 520.181 1.84904 4.60569 0
M  V30 5479 H 515.437 3.0949 5.27282 0
M  V30 5480 H 519.611 3.97672 5.71691 0
M  V30 5481 H 517.238 4.60529 6.04828 0
M  V30 5482 N 518.813 -1.54241 0.323641 0
M  V30 5483 C 519.761 -2.25813 -0.557804 0
M  V30 5484 C 520.755 -1.27225 -1.11849 0
M  V30 5485 O 521.961 -1.45001 -1.06652 0
M  V30 5486 H 518.336 -0.72532 -0.198532 0
M  V30 5487 H 520.307 -2.98322 0.0681112 0
M  V30 5488 C 519.056 -3.02913 -1.70701 0
M  V30 5489 H 518.379 -3.78593 -1.28482 0
M  V30 5490 H 519.819 -3.56238 -2.29935 0
M  V30 5491 C 518.278 -2.11217 -2.62467 0
M  V30 5492 O 518.808 -1.69508 -3.64184 0
M  V30 5493 N 517.014 -1.76704 -2.30703 0
M  V30 5494 H 516.561 -2.1082 -1.48029 0
M  V30 5495 H 516.519 -1.15631 -2.92364 0
M  V30 5496 N 520.291 -0.0518155 -1.57515 0
M  V30 5497 C 521.516 0.634896 -1.97443 0
M  V30 5498 C 521.941 1.63546 -0.929207 0
M  V30 5499 O 521.299 1.80981 0.107484 0
M  V30 5500 C 521.347 1.29765 -3.36442 0
M  V30 5501 O 520.451 2.41333 -3.34413 0
M  V30 5502 H 519.792 0.164994 -0.643174 0
M  V30 5503 H 522.322 -0.120407 -2.04245 0
M  V30 5504 H 522.332 1.64918 -3.73184 0
M  V30 5505 H 521.007 0.564361 -4.12053 0
M  V30 5506 H 519.584 2.08122 -3.09418 0
M  V30 5507 N 521.769 1.56035 0.221574 0
M  V30 5508 C 523.18 1.69229 0.788567 0
M  V30 5509 C 523.531 0.653814 1.84986 0
M  V30 5510 O 522.656 -0.195065 2.15519 0
M  V30 5511 C 523.251 3.06809 1.43713 0
M  V30 5512 C 521.81 3.21858 1.95152 0
M  V30 5513 C 520.957 2.65155 0.811685 0
M  V30 5514 H 523.908 1.587 -0.00307894 0
M  V30 5515 H 523.929 3.02666 2.30594 0
M  V30 5516 H 523.441 3.82369 0.664475 0
M  V30 5517 H 521.542 2.51167 2.7522 0
M  V30 5518 H 521.655 4.29073 2.1315 0
M  V30 5519 H 520.019 2.23635 1.21899 0
M  V30 5520 H 520.802 3.43261 0.0516987 0
M  V30 5521 N 523.247 -0.488276 1.49845 0
M  V30 5522 C 524.477 -1.26344 1.63465 0
M  V30 5523 C 524.885 -1.86637 0.310379 0
M  V30 5524 O 524.228 -1.69184 -0.715712 0
M  V30 5525 C 524.29 -2.42407 2.65479 0
M  V30 5526 C 523.954 -2.02886 4.09495 0
M  V30 5527 C 524.951 -1.56124 4.95904 0
M  V30 5528 C 522.636 -2.12131 4.55308 0
M  V30 5529 C 524.63 -1.19129 6.26169 0
M  V30 5530 C 522.317 -1.74747 5.85582 0
M  V30 5531 C 523.315 -1.28322 6.70837 0
M  V30 5532 O 523.003 -0.914491 7.98682 0
M  V30 5533 H 522.735 -0.388921 0.552916 0
M  V30 5534 H 525.289 -0.591288 1.96705 0
M  V30 5535 H 523.519 -3.12739 2.27445 0
M  V30 5536 H 525.208 -3.04409 2.68495 0
M  V30 5537 H 525.974 -1.48417 4.61733 0
M  V30 5538 H 521.853 -2.47217 3.89107 0
M  V30 5539 H 525.397 -0.828211 6.92666 0
M  V30 5540 H 521.294 -1.82109 6.19279 0
M  V30 5541 H 522.062 -1.04485 8.11804 0
M  V30 5542 N 524.725 -1.39134 -0.740242 0
M  V30 5543 C 525.955 -1.39132 -1.52728 0
M  V30 5544 C 526.363 0.0173133 -1.89192 0
M  V30 5545 O 525.706 0.997715 -1.54244 0
M  V30 5546 C 525.768 -2.1952 -2.84695 0
M  V30 5547 C 525.432 -3.68203 -2.70695 0
M  V30 5548 C 526.429 -4.61401 -2.39593 0
M  V30 5549 C 524.114 -4.11724 -2.8773 0
M  V30 5550 C 526.108 -5.96102 -2.25701 0
M  V30 5551 C 523.795 -5.46503 -2.73456 0
M  V30 5552 C 524.793 -6.38506 -2.42486 0
M  V30 5553 O 524.481 -7.70803 -2.28295 0
M  V30 5554 H 524.213 -0.477263 -0.478744 0
M  V30 5555 H 526.767 -1.83504 -0.922799 0
M  V30 5556 H 524.997 -1.69888 -3.47383 0
M  V30 5557 H 526.686 -2.1176 -3.46284 0
M  V30 5558 H 527.452 -4.29079 -2.26088 0
M  V30 5559 H 523.331 -3.4045 -3.10829 0
M  V30 5560 H 526.875 -6.6788 -2.0145 0
M  V30 5561 H 522.772 -5.78417 -2.86538 0
M  V30 5562 H 523.54 -7.8147 -2.43405 0
M  V30 5563 N 526.204 0.969867 -1.24223 0
M  V30 5564 C 527.615 1.52717 -1.07399 0
M  V30 5565 C 527.966 1.92956 0.355298 0
M  V30 5566 O 527.091 1.77112 1.2434 0
M  V30 5567 C 527.686 2.77521 -1.94339 0
M  V30 5568 C 526.245 3.29615 -1.81744 0
M  V30 5569 C 525.392 2.02537 -1.89405 0
M  V30 5570 H 528.343 0.788399 -1.37732 0
M  V30 5571 H 528.364 3.50773 -1.47439 0
M  V30 5572 H 527.876 2.48203 -2.98357 0
M  V30 5573 H 525.977 3.63789 -0.805505 0
M  V30 5574 H 526.09 3.98661 -2.65718 0
M  V30 5575 H 524.454 2.17151 -1.33108 0
M  V30 5576 H 525.237 1.75587 -2.94999 0
M  V30 5577 N 527.682 1.05563 1.17022 0
M  V30 5578 C 528.93 0.76642 1.87004 0
M  V30 5579 C 529.251 -0.708854 1.8166 0
M  V30 5580 O 528.521 -1.51242 1.2451 0
M  V30 5581 H 527.101 0.280516 0.692329 0
M  V30 5582 H 529.763 1.33557 1.41945 0
M  V30 5583 H 528.859 1.08472 2.92644 0
M  V30 5584 N 529.16 -1.33526 0.837174 0
M  V30 5585 C 530.11 -2.2672 0.241269 0
M  V30 5586 C 531.094 -1.49183 -0.602756 0
M  V30 5587 O 532.286 -1.71052 -0.455002 0
M  V30 5588 C 529.415 -3.38294 -0.584125 0
M  V30 5589 C 528.501 -4.23231 0.271315 0
M  V30 5590 N 528.892 -4.87473 1.34922 0
M  V30 5591 C 527.19 -4.45962 0.0580589 0
M  V30 5592 C 527.891 -5.50685 1.87405 0
M  V30 5593 N 526.867 -5.30732 1.17578 0
M  V30 5594 H 530.669 -2.73903 1.06558 0
M  V30 5595 H 528.183 -1.47411 0.68145 0
M  V30 5596 H 530.18 -4.04044 -1.02731 0
M  V30 5597 H 528.84 -2.9266 -1.40643 0
M  V30 5598 H 529.851 -4.88077 1.7321 0
M  V30 5599 H 526.528 -4.11052 -0.730938 0
M  V30 5600 H 527.918 -6.11845 2.77661 0
M  V30 5601 N 530.638 -0.59345 -1.46 0
M  V30 5602 C 531.868 -0.0889642 -2.06408 0
M  V30 5603 C 532.276 1.22597 -1.44106 0
M  V30 5604 O 531.619 1.75448 -0.544398 0
M  V30 5605 C 531.681 0.139902 -3.59228 0
M  V30 5606 C 531.345 -1.09107 -4.43784 0
M  V30 5607 C 532.342 -2.00577 -4.79651 0
M  V30 5608 C 530.027 -1.31593 -4.84756 0
M  V30 5609 C 532.021 -3.12873 -5.55328 0
M  V30 5610 C 529.708 -2.44192 -5.60191 0
M  V30 5611 C 530.706 -3.34661 -5.95392 0
M  V30 5612 O 530.394 -4.45302 -6.69299 0
M  V30 5613 H 530.126 -0.0594613 -0.67338 0
M  V30 5614 H 532.68 -0.817 -1.88452 0
M  V30 5615 H 530.91 0.922672 -3.75531 0
M  V30 5616 H 532.599 0.594228 -4.01527 0
M  V30 5617 H 533.365 -1.84425 -4.48567 0
M  V30 5618 H 529.244 -0.620801 -4.56801 0
M  V30 5619 H 532.788 -3.83511 -5.82722 0
M  V30 5620 H 528.685 -2.60303 -5.90688 0
M  V30 5621 H 529.453 -4.43805 -6.87735 0
M  V30 5622 N 532.116 1.54067 -0.331816 0
M  V30 5623 C 533.527 1.86059 0.15454 0
M  V30 5624 C 533.878 1.25331 1.50952 0
M  V30 5625 O 533.003 0.562441 2.08963 0
M  V30 5626 C 533.598 3.37581 0.287192 0
M  V30 5627 C 532.157 3.69493 0.717773 0
M  V30 5628 C 531.304 2.76863 -0.155569 0
M  V30 5629 H 534.255 1.48797 -0.55182 0
M  V30 5630 H 534.276 3.63744 1.11671 0
M  V30 5631 H 533.788 3.81751 -0.699131 0
M  V30 5632 H 531.889 3.3086 1.71354 0
M  V30 5633 H 532.002 4.76315 0.5158 0
M  V30 5634 H 530.366 2.51995 0.370213 0
M  V30 5635 H 531.149 3.23861 -1.13881 0
M  V30 5636 N 533.594 0.0601682 1.57485 0
M  V30 5637 C 535.005 -0.474217 1.80577 0
M  V30 5638 C 535.356 -1.70365 0.973147 0
M  V30 5639 O 534.481 -2.15544 0.192306 0
M  V30 5640 C 535.076 -0.867102 3.27516 0
M  V30 5641 C 533.635 -1.34642 3.51495 0
M  V30 5642 C 532.782 -0.32594 2.75378 0
M  V30 5643 H 535.733 0.285973 1.56102 0
M  V30 5644 H 535.754 -1.72938 3.38929 0
M  V30 5645 H 535.266 0.0278927 3.8809 0
M  V30 5646 H 533.367 -2.2603 2.96212 0
M  V30 5647 H 533.48 -1.33237 4.60201 0
M  V30 5648 H 531.844 -0.800749 2.41785 0
M  V30 5649 H 532.627 0.561125 3.38683 0
M  V30 5650 N 535.072 -1.5615 -0.213296 0
M  V30 5651 C 536.02 -1.93953 -1.28394 0
M  V30 5652 C 537.014 -0.822592 -1.48087 0
M  V30 5653 O 538.22 -1.00748 -1.49164 0
M  V30 5654 H 534.595 -0.61648 -0.430646 0
M  V30 5655 H 536.566 -2.83275 -0.937977 0
M  V30 5656 C 535.315 -2.27969 -2.62537 0
M  V30 5657 H 534.638 -3.13432 -2.48194 0
M  V30 5658 H 536.078 -2.58297 -3.36242 0
M  V30 5659 C 534.537 -1.10775 -3.18167 0
M  V30 5660 O 535.067 -0.373201 -3.99963 0
M  V30 5661 N 533.273 -0.889377 -2.76656 0
M  V30 5662 H 532.82 -1.48843 -2.10246 0
M  V30 5663 H 532.778 -0.107 -3.14218 0
M  V30 5664 N 536.55 0.480323 -1.50102 0
M  V30 5665 C 537.799 1.22979 -1.59872 0
M  V30 5666 C 538.112 1.93282 -0.30022 0
M  V30 5667 O 539.318 2.70086 -0.276709 0
M  V30 5668 C 537.774 2.23408 -2.82164 0
M  V30 5669 C 537.382 1.5895 -4.18854 0
M  V30 5670 C 539.126 2.99055 -3.01275 0
M  V30 5671 C 537.033 2.57611 -5.32344 0
M  V30 5672 H 535.963 0.462707 -0.59533 0
M  V30 5673 H 538.614 0.501291 -1.7652 0
M  V30 5674 H 536.996 2.99511 -2.59055 0
M  V30 5675 H 538.17 0.887 -4.52182 0
M  V30 5676 H 536.485 0.956191 -4.05273 0
M  V30 5677 H 539.082 3.72876 -3.83233 0
M  V30 5678 H 539.425 3.57897 -2.12639 0
M  V30 5679 H 539.958 2.30066 -3.24522 0
M  V30 5680 H 536.697 2.03521 -6.23105 0
M  V30 5681 H 536.217 3.26041 -5.03445 0
M  V30 5682 H 537.896 3.19627 -5.62537 0
M  V30 5683 N 538.028 1.39524 0.732853 0
M  V30 5684 C 539.305 1.27373 1.48444 0
M  V30 5685 C 539.685 -0.115725 2.10783 0
M  V30 5686 O 539.033 -1.12713 1.98766 0
M  V30 5687 C 539.243 2.39966 2.53412 0
M  V30 5688 C 540.591 2.79384 3.19733 0
M  V30 5689 O 541.615 2.39431 2.63725 0
M  V30 5690 O 540.474 3.48353 4.21085 0
M  V30 5691 H 537.568 0.499272 0.659285 0
M  V30 5692 H 540.114 1.51403 0.766496 0
M  V30 5693 H 538.886 3.32845 2.05742 0
M  V30 5694 H 538.509 2.17612 3.32762 0
M  V30 5695 N 539.506 -0.963266 1.24736 0
M  V30 5696 C 540.746 -1.72172 1.10165 0
M  V30 5697 C 541.11 -1.88731 -0.352784 0
M  V30 5698 O 542.311 -2.61549 -0.620107 0
M  V30 5699 C 540.582 -3.0724 1.82589 0
M  V30 5700 S 542.141 -3.98449 1.83803 0
M  V30 5701 H 538.959 -0.591901 0.393922 0
M  V30 5702 H 541.561 -1.14955 1.58132 0
M  V30 5703 H 540.265 -2.92851 2.87518 0
M  V30 5704 H 539.796 -3.69521 1.34973 0
M  V30 5705 H 541.811 -4.87805 0.908883 0
M  V30 5706 N 540.985 -1.06182 -1.16461 0
M  V30 5707 C 542.213 -0.798583 -1.90867 0
M  V30 5708 C 542.628 0.646921 -1.77371 0
M  V30 5709 O 541.985 1.44279 -1.11758 0
M  V30 5710 C 542.036 -1.18258 -3.4161 0
M  V30 5711 O 541.757 -2.57135 -3.54701 0
M  V30 5712 C 543.258 -0.946917 -4.33069 0
M  V30 5713 H 540.478 -0.289603 -0.605286 0
M  V30 5714 H 543.022 -1.41515 -1.47627 0
M  V30 5715 H 541.177 -0.610562 -3.82558 0
M  V30 5716 H 541.591 -2.72477 -4.4817 0
M  V30 5717 H 543.065 -1.26523 -5.37304 0
M  V30 5718 H 543.542 0.117406 -4.39043 0
M  V30 5719 H 544.148 -1.50326 -3.97847 0
M  V30 5720 N 542.463 1.3308 -0.844243 0
M  V30 5721 C 543.709 1.98304 -0.452453 0
M  V30 5722 C 544.064 1.65645 0.978746 0
M  V30 5723 O 543.357 0.928849 1.6758 0
M  V30 5724 C 543.551 3.52045 -0.616354 0
M  V30 5725 C 543.38 3.99643 -2.06193 0
M  V30 5726 C 542.15 4.27224 -2.69829 0
M  V30 5727 C 544.348 4.15471 -3.03131 0
M  V30 5728 N 542.33 4.60998 -4.05406 0
M  V30 5729 C 543.701 4.52665 -4.23668 0
M  V30 5730 C 545.756 3.97776 -2.99465 0
M  V30 5731 C 544.459 4.74011 -5.41023 0
M  V30 5732 C 546.485 4.20301 -4.16055 0
M  V30 5733 C 545.847 4.57801 -5.35348 0
M  V30 5734 H 541.946 0.752122 -0.214096 0
M  V30 5735 H 544.53 1.61096 -1.09344 0
M  V30 5736 H 542.701 3.884 -0.00513205 0
M  V30 5737 H 544.433 4.04228 -0.19548 0
M  V30 5738 H 541.188 4.18911 -2.20931 0
M  V30 5739 H 541.612 4.82087 -4.75312 0
M  V30 5740 H 546.254 3.67893 -2.08362 0
M  V30 5741 H 543.972 5.02753 -6.32665 0
M  V30 5742 H 547.558 4.08122 -4.14641 0
M  V30 5743 H 546.438 4.74884 -6.24063 0
M  V30 5744 N 543.941 0.601185 1.45683 0
M  V30 5745 C 544.889 -0.133955 2.32214 0
M  V30 5746 C 545.883 -0.866034 1.45589 0
M  V30 5747 O 547.089 -0.782326 1.6211 0
M  V30 5748 H 543.464 -0.0620613 0.749435 0
M  V30 5749 H 545.435 0.614389 2.92007 0
M  V30 5750 C 544.184 -1.12216 3.29094 0
M  V30 5751 H 543.507 -0.568273 3.95741 0
M  V30 5752 H 544.947 -1.60659 3.92383 0
M  V30 5753 C 543.406 -2.19251 2.55794 0
M  V30 5754 O 543.936 -3.26894 2.33459 0
M  V30 5755 N 542.142 -1.9436 2.16039 0
M  V30 5756 H 541.689 -1.06829 2.34404 0
M  V30 5757 H 541.647 -2.66181 1.67318 0
M  V30 5758 N 545.419 -1.53889 0.339982 0
M  V30 5759 C 546.668 -2.00035 -0.258604 0
M  V30 5760 C 546.981 -1.23179 -1.51942 0
M  V30 5761 O 548.187 -1.59784 -2.19503 0
M  V30 5762 C 546.643 -3.56249 -0.511359 0
M  V30 5763 C 546.251 -4.41957 0.733349 0
M  V30 5764 C 547.995 -4.1082 -1.069 0
M  V30 5765 C 545.902 -5.89673 0.451591 0
M  V30 5766 H 544.832 -0.747284 -0.10041 0
M  V30 5767 H 547.483 -1.77776 0.454758 0
M  V30 5768 H 545.865 -3.7456 -1.28533 0
M  V30 5769 H 547.039 -4.35421 1.50815 0
M  V30 5770 H 545.354 -3.9836 1.21237 0
M  V30 5771 H 547.951 -5.18789 -1.2947 0
M  V30 5772 H 548.294 -3.63817 -2.02343 0
M  V30 5773 H 548.827 -3.96205 -0.355817 0
M  V30 5774 H 545.566 -6.40903 1.37565 0
M  V30 5775 H 545.086 -5.99122 -0.285193 0
M  V30 5776 H 546.765 -6.46965 0.0675067 0
M  V30 5777 N 546.897 -0.0685191 -1.57451 0
M  V30 5778 C 547.807 0.914677 -2.16034 0
M  V30 5779 C 548.823 1.32938 -1.12265 0
M  V30 5780 O 549.999 1.40275 -1.44516 0
M  V30 5781 C 547.064 2.16519 -2.70777 0
M  V30 5782 C 546.125 1.80721 -3.89408 0
M  V30 5783 C 545.358 2.9981 -4.41531 0
M  V30 5784 O 545.581 4.13727 -3.92666 0
M  V30 5785 O 544.515 2.79817 -5.32903 0
M  V30 5786 H 548.341 0.446364 -3.00402 0
M  V30 5787 H 545.926 0.154367 -1.486 0
M  V30 5788 H 547.808 2.89856 -3.05878 0
M  V30 5789 H 546.483 2.62454 -1.89471 0
M  V30 5790 H 545.39 1.04646 -3.59166 0
M  V30 5791 H 546.723 1.39571 -4.71997 0
M  V30 5792 N 548.375 1.56261 0.205012 0
M  V30 5793 C 549.621 1.80306 0.9283 0
M  V30 5794 C 549.954 0.640932 1.83319 0
M  V30 5795 O 549.229 -0.359032 1.91158 0
M  V30 5796 C 549.512 3.14547 1.75306 0
M  V30 5797 C 549.365 4.41236 0.873562 0
M  V30 5798 C 550.684 3.45382 2.72762 0
M  V30 5799 H 547.803 0.655929 0.336044 0
M  V30 5800 H 550.445 1.88984 0.196211 0
M  V30 5801 H 548.595 3.0728 2.37721 0
M  V30 5802 H 550.267 4.60539 0.264887 0
M  V30 5803 H 548.51 4.33427 0.179773 0
M  V30 5804 H 549.181 5.31639 1.48541 0
M  V30 5805 H 551.657 3.52884 2.20481 0
M  V30 5806 H 550.533 4.40449 3.2756 0
M  V30 5807 H 550.794 2.68377 3.51321 0
M  V30 5808 N 549.853 -0.472356 1.50355 0
M  V30 5809 C 551.264 -1.05326 1.54154 0
M  V30 5810 C 551.615 -1.93155 0.344303 0
M  V30 5811 O 550.74 -2.09479 -0.542928 0
M  V30 5812 C 551.335 -1.91691 2.79356 0
M  V30 5813 C 549.894 -2.44892 2.8584 0
M  V30 5814 C 549.041 -1.23205 2.48426 0
M  V30 5815 H 551.992 -0.255027 1.56637 0
M  V30 5816 H 552.013 -2.76742 2.6114 0
M  V30 5817 H 551.525 -1.27741 3.66475 0
M  V30 5818 H 549.626 -3.12399 2.0307 0
M  V30 5819 H 549.739 -2.80086 3.88701 0
M  V30 5820 H 548.103 -1.56643 2.00836 0
M  V30 5821 H 548.886 -0.609194 3.37852 0
M  V30 5822 N 551.331 -1.39911 -0.725443 0
M  V30 5823 C 552.279 -1.39552 -1.86086 0
M  V30 5824 C 553.273 -0.277334 -1.67114 0
M  V30 5825 O 554.479 -0.447865 -1.74339 0
M  V30 5826 H 550.854 -0.435993 -0.612711 0
M  V30 5827 H 552.825 -2.35305 -1.83505 0
M  V30 5828 C 551.574 -1.26529 -3.2386 0
M  V30 5829 H 550.897 -2.11845 -3.3906 0
M  V30 5830 H 552.337 -1.30336 -4.03471 0
M  V30 5831 C 550.796 0.0254168 -3.3689 0
M  V30 5832 O 551.326 0.992048 -3.89257 0
M  V30 5833 N 549.532 0.0916528 -2.90455 0
M  V30 5834 H 549.079 -0.695675 -2.48028 0
M  V30 5835 H 549.037 0.954745 -2.99553 0
M  V30 5836 N 552.809 0.956637 -1.25245 0
M  V30 5837 C 553.757 2.0743 -1.0524 0
M  V30 5838 C 554.751 1.69392 0.0160725 0
M  V30 5839 O 555.957 1.7946 -0.139382 0
M  V30 5840 H 552.332 0.678921 -0.323373 0
M  V30 5841 H 554.303 2.2146 -1.99995 0
M  V30 5842 C 553.052 3.40872 -0.685702 0
M  V30 5843 H 552.375 3.70607 -1.49968 0
M  V30 5844 H 553.815 4.19939 -0.585415 0
M  V30 5845 C 552.274 3.31367 0.608082 0
M  V30 5846 O 552.804 3.66214 1.65076 0
M  V30 5847 N 551.01 2.84486 0.592955 0
M  V30 5848 H 550.557 2.56326 -0.25592 0
M  V30 5849 H 550.515 2.78509 1.45877 0
M  V30 5850 N 554.287 1.06798 1.15896 0
M  V30 5851 C 555.219 0.641263 2.20046 0
M  V30 5852 C 556.232 -0.303355 1.59949 0
M  V30 5853 O 557.421 -0.0935478 1.78255 0
M  V30 5854 C 554.521 -0.0794029 3.38807 0
M  V30 5855 C 553.694 0.879986 4.28457 0
M  V30 5856 C 552.753 0.197638 5.25829 0
M  V30 5857 O 551.779 0.836913 5.63014 0
M  V30 5858 N 552.981 -1.05886 5.70761 0
M  V30 5859 H 555.746 1.53718 2.57276 0
M  V30 5860 H 553.307 0.951951 1.30956 0
M  V30 5861 H 555.299 -0.546418 4.00994 0
M  V30 5862 H 553.869 -0.877193 3.0004 0
M  V30 5863 H 553.089 1.52625 3.63454 0
M  V30 5864 H 554.377 1.53065 4.8523 0
M  V30 5865 H 553.775 -1.59828 5.42652 0
M  V30 5866 H 552.332 -1.46965 6.35015 0
M  V30 5867 N 555.766 -1.3263 0.851289 0
M  V30 5868 C 556.716 -2.26451 0.265302 0
M  V30 5869 C 557.7 -1.49814 -0.586899 0
M  V30 5870 O 558.892 -1.71525 -0.436834 0
M  V30 5871 C 556.021 -3.38895 -0.548212 0
M  V30 5872 C 555.107 -4.2292 0.316189 0
M  V30 5873 N 555.498 -4.86014 1.40084 0
M  V30 5874 C 553.796 -4.45876 0.105356 0
M  V30 5875 C 554.497 -5.48667 1.93235 0
M  V30 5876 N 553.473 -5.29455 1.232 0
M  V30 5877 H 557.275 -2.72757 1.09457 0
M  V30 5878 H 554.789 -1.4668 0.697047 0
M  V30 5879 H 556.786 -4.05111 -0.984402 0
M  V30 5880 H 555.446 -2.94135 -1.37531 0
M  V30 5881 H 556.457 -4.86212 1.78377 0
M  V30 5882 H 553.134 -4.11804 -0.687299 0
M  V30 5883 H 554.524 -6.08865 2.84135 0
M  V30 5884 N 557.244 -0.608902 -1.45362 0
M  V30 5885 C 558.49 -0.104762 -2.02529 0
M  V30 5886 C 558.823 1.26191 -1.47613 0
M  V30 5887 O 558.098 1.8327 -0.65134 0
M  V30 5888 C 558.381 -0.0672661 -3.60037 0
M  V30 5889 C 558.234 -1.4647 -4.25284 0
M  V30 5890 C 559.553 0.619877 -4.35713 0
M  V30 5891 H 556.672 -0.0395438 -0.735938 0
M  V30 5892 H 559.314 -0.781126 -1.73201 0
M  V30 5893 H 557.464 0.50871 -3.85155 0
M  V30 5894 H 559.136 -2.08785 -4.11347 0
M  V30 5895 H 557.379 -2.02502 -3.83634 0
M  V30 5896 H 558.05 -1.39069 -5.34195 0
M  V30 5897 H 560.526 0.130297 -4.15896 0
M  V30 5898 H 559.402 0.615224 -5.45441 0
M  V30 5899 H 559.663 1.68621 -4.0868 0
M  V30 5900 N 558.722 1.53707 -0.348139 0
M  V30 5901 C 559.669 2.25173 0.506518 0
M  V30 5902 C 560.639 1.25174 1.09182 0
M  V30 5903 O 561.824 1.53917 1.12757 0
M  V30 5904 C 558.964 3.03141 1.64923 0
M  V30 5905 C 558.077 4.18002 1.0908 0
M  V30 5906 C 557.212 4.83447 2.20119 0
M  V30 5907 C 556.251 5.90369 1.61651 0
M  V30 5908 N 555.388 6.49575 2.66451 0
M  V30 5909 H 560.228 2.97799 -0.109452 0
M  V30 5910 H 557.765 1.46953 -0.0657866 0
M  V30 5911 H 559.723 3.46607 2.32205 0
M  V30 5912 H 558.353 2.32803 2.23612 0
M  V30 5913 H 557.405 3.79145 0.308783 0
M  V30 5914 H 558.717 4.94892 0.623178 0
M  V30 5915 H 557.871 5.30008 2.95257 0
M  V30 5916 H 556.61 4.05991 2.70227 0
M  V30 5917 H 555.615 5.43186 0.850209 0
M  V30 5918 H 556.84 6.69735 1.1239 0
M  V30 5919 H 554.786 5.74981 3.15805 0
M  V30 5920 H 554.703 7.21952 2.24325 0
M  V30 5921 H 555.971 7.00789 3.41344 0
M  V30 5922 N 560.2 0.0768682 1.57412 0
M  V30 5923 C 561.446 -0.591961 1.93968 0
M  V30 5924 C 561.779 -1.68954 0.9575 0
M  V30 5925 O 561.054 -1.94496 -0.0124675 0
M  V30 5926 C 561.337 -1.16418 3.40762 0
M  V30 5927 C 561.19 -0.0728933 4.49741 0
M  V30 5928 C 562.509 -2.06814 3.88479 0
M  V30 5929 H 559.628 -0.213716 0.705333 0
M  V30 5930 H 562.27 0.14387 1.89455 0
M  V30 5931 H 560.42 -1.79128 3.4474 0
M  V30 5932 H 562.092 0.560446 4.57883 0
M  V30 5933 H 560.335 0.595859 4.29688 0
M  V30 5934 H 561.006 -0.513755 5.49604 0
M  V30 5935 H 563.482 -1.54033 3.8654 0
M  V30 5936 H 562.358 -2.43785 4.91793 0
M  V30 5937 H 562.619 -2.97844 3.26713 0
M  V30 5938 N 561.678 -1.56367 -0.196722 0
M  V30 5939 C 563.094 -1.49916 -0.54749 0
M  V30 5940 C 563.294 -0.77659 -1.85934 0
M  V30 5941 O 562.35 -0.32644 -2.50381 0
M  V30 5942 C 563.663 -2.94577 -0.603734 0
M  V30 5943 C 565.211 -3.05239 -0.692677 0
M  V30 5944 C 565.686 -4.51308 -0.780046 0
M  V30 5945 N 567.177 -4.55453 -0.843616 0
M  V30 5946 C 567.912 -5.65786 -0.931358 0
M  V30 5947 N 567.408 -6.85812 -0.981503 0
M  V30 5948 N 569.201 -5.53695 -0.968421 0
M  V30 5949 H 561.352 -2.01761 0.663803 0
M  V30 5950 H 563.615 -0.918094 0.236238 0
M  V30 5951 H 563.321 -3.50494 0.29105 0
M  V30 5952 H 563.195 -3.47841 -1.45898 0
M  V30 5953 H 565.582 -2.49372 -1.57789 0
M  V30 5954 H 565.663 -2.55103 0.188736 0
M  V30 5955 H 565.307 -5.078 0.100811 0
M  V30 5956 H 565.237 -4.99176 -1.67724 0
M  V30 5957 H 567.728 -3.69025 -0.814176 0
M  V30 5958 H 568.041 -7.65648 -1.04892 0
M  V30 5959 H 566.386 -6.88474 -0.950208 0
M  V30 5960 H 569.577 -4.58848 -0.926072 0
M  V30 5961 H 569.75 -6.39708 -1.03334 0
M  V30 5962 N 563.156 0.464375 -1.50603 0
M  V30 5963 C 564.403 1.21596 -1.61928 0
M  V30 5964 C 564.731 1.91804 -0.322737 0
M  V30 5965 O 563.986 1.83065 0.691776 0
M  V30 5966 C 564.285 2.278 -2.75394 0
M  V30 5967 C 563.951 1.74797 -4.1564 0
M  V30 5968 C 562.613 1.60063 -4.53799 0
M  V30 5969 C 564.965 1.35548 -5.03266 0
M  V30 5970 C 562.293 1.04514 -5.77316 0
M  V30 5971 C 564.645 0.814381 -6.27336 0
M  V30 5972 C 563.309 0.653726 -6.64291 0
M  V30 5973 H 562.579 0.444951 -0.592536 0
M  V30 5974 H 565.226 0.510964 -1.84557 0
M  V30 5975 H 563.531 3.04233 -2.46879 0
M  V30 5976 H 565.228 2.85723 -2.81359 0
M  V30 5977 H 561.818 1.87234 -3.8554 0
M  V30 5978 H 566.002 1.45763 -4.74412 0
M  V30 5979 H 561.258 0.908186 -6.04617 0
M  V30 5980 H 565.432 0.501626 -6.94591 0
M  V30 5981 H 563.059 0.22114 -7.59878 0
M  V30 5982 N 564.634 1.40294 0.718013 0
M  V30 5983 C 565.581 1.40367 1.8321 0
M  V30 5984 C 566.551 0.260952 1.64037 0
M  V30 5985 O 567.736 0.458648 1.85205 0
M  V30 5986 C 564.876 1.26965 3.20895 0
M  V30 5987 C 563.989 2.50922 3.51656 0
M  V30 5988 C 563.124 2.29981 4.78834 0
M  V30 5989 C 562.163 3.49527 5.02491 0
M  V30 5990 N 561.3 3.27796 6.20882 0
M  V30 5991 H 566.14 2.35593 1.82482 0
M  V30 5992 H 563.677 1.17012 0.891444 0
M  V30 5993 H 565.635 1.17202 4.00399 0
M  V30 5994 H 564.265 0.353591 3.20858 0
M  V30 5995 H 563.317 2.71223 2.66725 0
M  V30 5996 H 564.629 3.39913 3.65048 0
M  V30 5997 H 563.783 2.17558 5.66351 0
M  V30 5998 H 562.522 1.38411 4.67647 0
M  V30 5999 H 561.527 3.6243 4.1343 0
M  V30 6000 H 562.752 4.42021 5.15553 0
M  V30 6001 H 560.698 2.38906 6.1095 0
M  V30 6002 H 560.615 4.10351 6.34939 0
M  V30 6003 H 561.883 3.19101 7.11193 0
M  V30 6004 N 566.112 -0.949982 1.2575 0
M  V30 6005 C 567.359 -1.69515 1.10774 0
M  V30 6006 C 567.687 -1.91316 -0.350479 0
M  V30 6007 O 566.942 -1.48515 -1.27443 0
M  V30 6008 C 567.241 -3.08039 1.81237 0
M  V30 6009 C 566.907 -3.06023 3.31151 0
M  V30 6010 C 565.569 -3.0518 3.72047 0
M  V30 6011 C 567.921 -2.98998 4.26907 0
M  V30 6012 C 565.249 -2.95067 5.07102 0
M  V30 6013 C 567.601 -2.90426 5.61992 0
M  V30 6014 C 566.265 -2.87922 6.0221 0
M  V30 6015 H 565.535 -0.6203 0.405351 0
M  V30 6016 H 568.182 -1.10953 1.56082 0
M  V30 6017 H 566.487 -3.70172 1.28373 0
M  V30 6018 H 568.184 -3.64526 1.67098 0
M  V30 6019 H 564.774 -3.07453 2.98614 0
M  V30 6020 H 568.958 -2.98764 3.963 0
M  V30 6021 H 564.214 -2.915 5.37436 0
M  V30 6022 H 568.388 -2.83952 6.35881 0
M  V30 6023 H 566.015 -2.79841 7.06819 0
M  V30 6024 N 567.59 -1.07411 -1.15328 0
M  V30 6025 C 568.837 -0.797649 -1.86128 0
M  V30 6026 C 569.165 0.676298 -1.82364 0
M  V30 6027 O 568.42 1.51223 -1.24218 0
M  V30 6028 C 568.719 -1.25191 -3.34757 0
M  V30 6029 C 568.385 -2.73191 -3.58716 0
M  V30 6030 C 567.047 -3.13616 -3.64964 0
M  V30 6031 C 569.399 -3.68718 -3.6837 0
M  V30 6032 C 566.727 -4.48383 -3.78377 0
M  V30 6033 C 569.079 -5.03248 -3.83306 0
M  V30 6034 C 567.743 -5.43293 -3.878 0
M  V30 6035 H 567.013 -0.29188 -0.681092 0
M  V30 6036 H 569.66 -1.34524 -1.36292 0
M  V30 6037 H 567.965 -0.623712 -3.86804 0
M  V30 6038 H 569.662 -1.01489 -3.87945 0
M  V30 6039 H 566.252 -2.40898 -3.54494 0
M  V30 6040 H 570.436 -3.38614 -3.62842 0
M  V30 6041 H 565.692 -4.78877 -3.80114 0
M  V30 6042 H 569.866 -5.77142 -3.89718 0
M  V30 6043 H 567.493 -6.47721 -3.97946 0
M  V30 6044 N 569.068 1.32177 -0.85831 0
M  V30 6045 C 570.298 2.01021 -0.476889 0
M  V30 6046 C 570.706 1.64653 0.931995 0
M  V30 6047 O 570.049 0.865713 1.62022 0
M  V30 6048 C 570.111 3.55413 -0.540528 0
M  V30 6049 C 569.775 4.1522 -1.90895 0
M  V30 6050 C 570.772 4.3318 -2.87491 0
M  V30 6051 C 568.457 4.51212 -2.20709 0
M  V30 6052 C 570.451 4.86306 -4.1205 0
M  V30 6053 C 568.138 5.04042 -3.45521 0
M  V30 6054 C 569.136 5.21538 -4.41007 0
M  V30 6055 O 568.824 5.73238 -5.63608 0
M  V30 6056 H 568.556 0.650059 -0.18547 0
M  V30 6057 H 571.11 1.69648 -1.15796 0
M  V30 6058 H 569.34 3.86196 0.19741 0
M  V30 6059 H 571.029 4.05526 -0.174191 0
M  V30 6060 H 571.795 4.05704 -2.65762 0
M  V30 6061 H 567.674 4.36878 -1.4717 0
M  V30 6062 H 571.218 4.99877 -4.86589 0
M  V30 6063 H 567.115 5.30952 -3.67098 0
M  V30 6064 H 567.883 5.91625 -5.65617 0
M  V30 6065 N 570.547 0.616602 1.45037 0
M  V30 6066 C 571.477 -0.0840787 2.33349 0
M  V30 6067 C 572.458 -0.849641 1.4736 0
M  V30 6068 O 573.643 -0.818407 1.76113 0
M  V30 6069 C 570.773 -1.07604 3.3021 0
M  V30 6070 C 569.727 -0.423096 4.25904 0
M  V30 6071 C 569.053 -1.52394 5.12523 0
M  V30 6072 C 570.353 0.661457 5.18095 0
M  V30 6073 H 572.047 0.653333 2.92185 0
M  V30 6074 H 569.593 0.315634 1.40498 0
M  V30 6075 H 571.546 -1.57485 3.90866 0
M  V30 6076 H 570.27 -1.84416 2.69552 0
M  V30 6077 H 568.929 0.05493 3.66559 0
M  V30 6078 H 568.577 -2.28257 4.48227 0
M  V30 6079 H 568.277 -1.09251 5.77354 0
M  V30 6080 H 569.801 -2.02485 5.76049 0
M  V30 6081 H 571.215 0.246353 5.7277 0
M  V30 6082 H 569.612 1.01517 5.91451 0
M  V30 6083 H 570.682 1.53446 4.59981 0
M  V30 6084 N 572.025 -1.5352 0.356285 0
M  V30 6085 C 572.955 -2.28372 -0.486661 0
M  V30 6086 C 573.936 -1.30432 -1.09185 0
M  V30 6087 O 575.121 -1.59291 -1.11085 0
M  V30 6088 C 572.251 -3.06604 -1.63129 0
M  V30 6089 C 571.205 -4.12154 -1.15381 0
M  V30 6090 C 570.531 -4.78415 -2.38796 0
M  V30 6091 C 571.831 -5.21724 -0.245179 0
M  V30 6092 H 573.525 -2.99083 0.137797 0
M  V30 6093 H 571.071 -1.43841 0.0677134 0
M  V30 6094 H 573.024 -3.57712 -2.22755 0
M  V30 6095 H 571.748 -2.33568 -2.28284 0
M  V30 6096 H 570.407 -3.61978 -0.580294 0
M  V30 6097 H 570.055 -4.01959 -3.02387 0
M  V30 6098 H 569.755 -5.49734 -2.07524 0
M  V30 6099 H 571.279 -5.32313 -2.99125 0
M  V30 6100 H 572.693 -5.68391 -0.748646 0
M  V30 6101 H 571.09 -6.00095 -0.0237608 0
M  V30 6102 H 572.16 -4.79596 0.715229 0
M  V30 6103 N 573.503 -0.0852151 -1.57369 0
M  V30 6104 C 574.413 0.891712 -2.16992 0
M  V30 6105 C 575.429 1.3174 -1.13669 0
M  V30 6106 O 576.605 1.38735 -1.45995 0
M  V30 6107 C 573.67 2.13635 -2.73059 0
M  V30 6108 C 572.731 1.7658 -3.91303 0
M  V30 6109 C 571.964 2.95111 -4.44686 0
M  V30 6110 O 572.187 4.09539 -3.97032 0
M  V30 6111 O 571.121 2.74149 -5.35841 0
M  V30 6112 H 574.947 0.414477 -3.00858 0
M  V30 6113 H 572.532 0.138598 -1.48756 0
M  V30 6114 H 574.414 2.86595 -3.08935 0
M  V30 6115 H 573.089 2.6043 -1.92244 0
M  V30 6116 H 571.996 1.00831 -3.60255 0
M  V30 6117 H 573.329 1.34557 -4.7345 0
M  V30 6118 N 574.981 1.5647 0.188427 0
M  V30 6119 C 576.392 1.70864 0.752494 0
M  V30 6120 C 576.743 0.692905 1.83557 0
M  V30 6121 O 575.868 -0.149307 2.15884 0
M  V30 6122 C 576.463 3.09789 1.37173 0
M  V30 6123 C 575.022 3.25925 1.88281 0
M  V30 6124 C 574.169 2.66817 0.755259 0
M  V30 6125 H 577.12 1.58657 -0.0367408 0
M  V30 6126 H 577.141 3.07489 2.24122 0
M  V30 6127 H 576.653 3.83693 0.583219 0
M  V30 6128 H 574.754 2.56948 2.6983 0
M  V30 6129 H 574.867 4.33498 2.04001 0
M  V30 6130 H 573.231 2.2617 1.17128 0
M  V30 6131 H 574.014 3.43294 -0.0211237 0
M  V30 6132 N 576.459 -0.456382 1.50847 0
M  V30 6133 C 577.707 -1.20497 1.62249 0
M  V30 6134 C 578.028 -1.92156 0.331839 0
M  V30 6135 O 577.298 -1.84751 -0.651443 0
M  V30 6136 H 575.878 -0.447775 0.597918 0
M  V30 6137 H 578.54 -0.525099 1.87693 0
M  V30 6138 H 577.636 -1.94492 2.44089 0
M  V30 6139 N 577.937 -1.40673 -0.710563 0
M  V30 6140 C 579.183 -1.39428 -1.47267 0
M  V30 6141 C 579.516 0.00182129 -1.942 0
M  V30 6142 O 578.791 0.971387 -1.68506 0
M  V30 6143 C 579.074 -2.38812 -2.6952 0
M  V30 6144 C 578.927 -3.87467 -2.28449 0
M  V30 6145 C 580.246 -2.3566 -3.71689 0
M  V30 6146 H 577.365 -0.507768 -0.534173 0
M  V30 6147 H 580.007 -1.71843 -0.810547 0
M  V30 6148 H 578.157 -2.113 -3.26013 0
M  V30 6149 H 579.829 -4.25825 -1.77399 0
M  V30 6150 H 578.072 -4.03058 -1.60395 0
M  V30 6151 H 578.743 -4.5253 -3.16103 0
M  V30 6152 H 581.219 -2.6004 -3.24836 0
M  V30 6153 H 580.095 -3.07237 -4.54859 0
M  V30 6154 H 580.356 -1.36996 -4.20339 0
M  V30 6155 N 579.415 0.9433 -1.26252 0
M  V30 6156 C 580.826 1.50404 -1.10614 0
M  V30 6157 C 581.177 1.93666 0.31429 0
M  V30 6158 O 580.302 1.79709 1.20555 0
M  V30 6159 C 580.897 2.73336 -2.00182 0
M  V30 6160 C 579.456 3.25686 -1.88695 0
M  V30 6161 C 578.603 1.98474 -1.93658 0
M  V30 6162 H 581.554 0.759006 -1.39373 0
M  V30 6163 H 581.575 3.47567 -1.54847 0
M  V30 6164 H 581.087 2.41818 -3.03555 0
M  V30 6165 H 579.188 3.61998 -0.882489 0
M  V30 6166 H 579.301 3.92935 -2.74115 0
M  V30 6167 H 577.665 2.14278 -1.37684 0
M  V30 6168 H 578.448 1.6929 -2.98657 0
M  V30 6169 N 580.893 1.08022 1.14757 0
M  V30 6170 C 581.856 0.71048 2.1791 0
M  V30 6171 C 582.856 -0.252731 1.58801 0
M  V30 6172 O 584.046 -0.0327915 1.74169 0
M  V30 6173 C 581.178 0.0483203 3.40866 0
M  V30 6174 H 582.371 1.62384 2.52134 0
M  V30 6175 H 579.924 0.877595 1.29337 0
M  V30 6176 H 580.659 -0.876959 3.12218 0
M  V30 6177 H 580.444 0.741189 3.85031 0
M  V30 6178 H 581.934 -0.195471 4.17142 0
M  V30 6179 N 582.371 -1.3172 0.865308 0
M  V30 6180 C 583.619 -1.96487 0.472995 0
M  V30 6181 C 583.94 -1.68761 -0.976975 0
M  V30 6182 O 583.21 -1.00051 -1.68424 0
M  V30 6183 H 581.79 -0.726947 0.171922 0
M  V30 6184 H 584.452 -1.60612 1.10407 0
M  V30 6185 H 583.548 -3.0574 0.62687 0
M  V30 6186 N 583.85 -0.624285 -1.44708 0
M  V30 6187 C 585.077 -0.132919 -2.06473 0
M  V30 6188 C 585.493 1.18967 -1.46602 0
M  V30 6189 O 584.85 1.72824 -0.586341 0
M  V30 6190 C 584.901 -0.00465418 -3.615 0
M  V30 6191 O 584.622 -1.27494 -4.19138 0
M  V30 6192 C 586.123 0.516213 -4.40284 0
M  V30 6193 H 583.343 -0.0765201 -0.666623 0
M  V30 6194 H 585.887 -0.856751 -1.85688 0
M  V30 6195 H 584.042 0.669583 -3.8157 0
M  V30 6196 H 584.456 -1.11536 -5.12504 0
M  V30 6197 H 585.93 0.554994 -5.49203 0
M  V30 6198 H 586.407 1.5419 -4.11245 0
M  V30 6199 H 587.013 -0.124542 -4.25118 0
M  V30 6200 N 585.328 1.53329 -0.364422 0
M  V30 6201 C 586.568 2.0315 0.22572 0
M  V30 6202 C 586.932 1.24589 1.46087 0
M  V30 6203 O 588.133 1.64411 2.12656 0
M  V30 6204 C 586.404 3.53718 0.511663 0
M  V30 6205 S 587.963 4.25412 1.07564 0
M  V30 6206 H 584.781 0.70795 0.0657843 0
M  V30 6207 H 587.383 1.88811 -0.507019 0
M  V30 6208 H 586.087 4.08497 -0.394784 0
M  V30 6209 H 585.618 3.72217 1.27351 0
M  V30 6210 H 587.633 4.36486 2.35997 0
M  V30 6211 N 586.806 0.0935595 1.57322 0
M  V30 6212 C 588.217 -0.435807 1.81542 0
M  V30 6213 C 588.568 -1.68263 1.00907 0
M  V30 6214 O 587.693 -2.15087 0.237983 0
M  V30 6215 C 588.288 -0.797436 3.29282 0
M  V30 6216 C 586.847 -1.27155 3.54272 0
M  V30 6217 C 585.994 -0.267455 2.76007 0
M  V30 6218 H 588.945 0.31902 1.5546 0
M  V30 6219 H 588.966 -1.6571 3.42521 0
M  V30 6220 H 588.478 0.110206 3.87943 0
M  V30 6221 H 586.579 -2.19696 3.00939 0
M  V30 6222 H 586.692 -1.23445 4.62923 0
M  V30 6223 H 585.056 -0.749282 2.43429 0
M  V30 6224 H 585.839 0.632839 3.37417 0
M  V30 6225 N 588.284 -1.56567 -0.180126 0
M  V30 6226 C 589.231 -1.95725 -1.22313 0
M  V30 6227 C 590.201 -0.819911 -1.44453 0
M  V30 6228 O 591.386 -1.07931 -1.57339 0
M  V30 6229 C 588.526 -2.31484 -2.55947 0
M  V30 6230 C 587.639 -3.58354 -2.4126 0
M  V30 6231 C 586.774 -3.83366 -3.67701 0
M  V30 6232 C 585.813 -5.03612 -3.47909 0
M  V30 6233 N 584.95 -5.24802 -4.66398 0
M  V30 6234 H 589.79 -2.84642 -0.882198 0
M  V30 6235 H 587.327 -1.4085 -0.42422 0
M  V30 6236 H 589.285 -2.50237 -3.33822 0
M  V30 6237 H 587.915 -1.45689 -2.88053 0
M  V30 6238 H 586.967 -3.47565 -1.54606 0
M  V30 6239 H 588.279 -4.46386 -2.22577 0
M  V30 6240 H 587.433 -4.02439 -4.54013 0
M  V30 6241 H 586.172 -2.93692 -3.89353 0
M  V30 6242 H 585.177 -4.84447 -2.59983 0
M  V30 6243 H 586.402 -5.94809 -3.27688 0
M  V30 6244 H 584.348 -4.38079 -4.88286 0
M  V30 6245 H 584.265 -6.07041 -4.50596 0
M  V30 6246 H 585.533 -5.48346 -5.54019 0
M  V30 6247 N 589.762 0.448376 -1.51087 0
M  V30 6248 C 591.039 1.20926 -1.53741 0
M  V30 6249 C 591.419 2.09025 -0.295222 0
M  V30 6250 O 590.767 2.16851 0.720283 0
M  V30 6251 C 590.977 2.02067 -2.84552 0
M  V30 6252 C 592.325 2.59486 -3.36084 0
M  V30 6253 O 593.349 2.12289 -2.86028 0
M  V30 6254 O 592.208 3.45539 -4.23397 0
M  V30 6255 H 589.302 0.549951 -0.617643 0
M  V30 6256 H 591.848 0.458344 -1.63393 0
M  V30 6257 H 590.62 1.37291 -3.66425 0
M  V30 6258 H 590.243 2.84246 -2.78011 0
M  V30 6259 N 591.24 1.41047 0.703093 0
M  V30 6260 C 592.47 1.43133 1.48985 0
M  V30 6261 C 592.878 0.0328537 1.89171 0
M  V30 6262 O 592.221 -0.956469 1.56835 0
M  V30 6263 C 592.283 2.26991 2.78775 0
M  V30 6264 C 591.947 3.7525 2.60837 0
M  V30 6265 C 592.944 4.67591 2.27276 0
M  V30 6266 C 590.629 4.19208 2.76712 0
M  V30 6267 C 592.623 6.01877 2.09817 0
M  V30 6268 C 590.31 5.53561 2.5887 0
M  V30 6269 C 591.308 6.4471 2.25472 0
M  V30 6270 O 590.996 7.76584 2.07778 0
M  V30 6271 H 590.728 0.489788 0.465922 0
M  V30 6272 H 593.282 1.85886 0.873822 0
M  V30 6273 H 591.512 1.79038 3.42757 0
M  V30 6274 H 593.201 2.20867 3.40547 0
M  V30 6275 H 593.967 4.34923 2.14633 0
M  V30 6276 H 589.846 3.48572 3.01693 0
M  V30 6277 H 593.39 6.72986 1.83671 0
M  V30 6278 H 589.287 5.85811 2.71102 0
M  V30 6279 H 590.055 7.87649 2.22601 0
M  V30 6280 N 592.718 -0.936591 1.26751 0
M  V30 6281 C 593.964 -1.6858 1.12733 0
M  V30 6282 C 594.297 -1.91414 -0.327745 0
M  V30 6283 O 593.572 -1.49812 -1.24043 0
M  V30 6284 C 593.855 -3.05779 1.90187 0
M  V30 6285 C 593.708 -2.90242 3.43627 0
M  V30 6286 C 595.027 -4.0597 1.69931 0
M  V30 6287 H 592.146 -0.61182 0.410908 0
M  V30 6288 H 594.788 -1.08747 1.55801 0
M  V30 6289 H 592.938 -3.56853 1.53584 0
M  V30 6290 H 594.61 -2.46354 3.9001 0
M  V30 6291 H 592.853 -2.2577 3.70419 0
M  V30 6292 H 593.524 -3.87572 3.93055 0
M  V30 6293 H 596 -3.63874 2.0183 0
M  V30 6294 H 594.876 -4.99974 2.26534 0
M  V30 6295 H 595.137 -4.37369 0.64502 0
M  V30 6296 N 594.196 -1.08629 -1.14182 0
M  V30 6297 C 595.106 -0.730126 -2.22949 0
M  V30 6298 C 596.122 0.26436 -1.7198 0
M  V30 6299 O 597.298 0.107742 -2.01112 0
M  V30 6300 C 594.363 -0.147227 -3.46387 0
M  V30 6301 C 593.424 -1.19662 -4.12286 0
M  V30 6302 C 592.657 -0.641437 -5.29831 0
M  V30 6303 O 592.88 0.538351 -5.67854 0
M  V30 6304 O 591.814 -1.39257 -5.85569 0
M  V30 6305 H 595.64 -1.63753 -2.55771 0
M  V30 6306 H 593.225 -0.860118 -1.22157 0
M  V30 6307 H 595.107 0.174923 -4.21037 0
M  V30 6308 H 593.782 0.733304 -3.15285 0
M  V30 6309 H 592.689 -1.57133 -3.395 0
M  V30 6310 H 594.022 -2.0495 -4.475 0
M  V30 6311 N 595.674 1.31259 -0.872281 0
M  V30 6312 C 596.923 1.95893 -0.480493 0
M  V30 6313 C 597.236 1.697 0.972688 0
M  V30 6314 O 598.442 2.28214 1.47073 0
M  V30 6315 C 596.898 3.50705 -0.808342 0
M  V30 6316 C 596.506 3.85735 -2.27844 0
M  V30 6317 C 598.25 4.21719 -0.485136 0
M  V30 6318 C 596.157 5.33668 -2.54858 0
M  V30 6319 H 595.087 0.733182 -0.175955 0
M  V30 6320 H 597.738 1.49396 -1.0655 0
M  V30 6321 H 596.12 3.95706 -0.152558 0
M  V30 6322 H 597.294 3.51686 -2.97748 0
M  V30 6323 H 595.609 3.27792 -2.56791 0
M  V30 6324 H 598.206 5.30559 -0.664166 0
M  V30 6325 H 598.549 4.12316 0.574592 0
M  V30 6326 H 599.082 3.82359 -1.09756 0
M  V30 6327 H 595.821 5.48109 -3.59523 0
M  V30 6328 H 595.341 5.69061 -1.8955 0
M  V30 6329 H 597.02 6.00958 -2.39706 0
M  V30 6330 N 597.152 0.631951 1.44375 0
M  V30 6331 C 598.1 -0.0846693 2.32446 0
M  V30 6332 C 599.094 -0.834957 1.47393 0
M  V30 6333 O 600.3 -0.747764 1.63733 0
M  V30 6334 H 596.675 -0.0461508 0.750583 0
M  V30 6335 H 598.646 0.67619 2.90638 0
M  V30 6336 C 597.395 -1.05211 3.314 0
M  V30 6337 H 596.718 -0.484203 3.96857 0
M  V30 6338 H 598.158 -1.523 3.95703 0
M  V30 6339 C 596.617 -2.13776 2.60387 0
M  V30 6340 O 597.147 -3.21869 2.4034 0
M  V30 6341 N 595.353 -1.89733 2.20113 0
M  V30 6342 H 594.9 -1.01833 2.36618 0
M  V30 6343 H 594.858 -2.62572 1.72926 0
M  V30 6344 N 598.631 -1.53133 0.372548 0
M  V30 6345 C 599.879 -2.00958 -0.214534 0
M  V30 6346 C 600.2 -1.26135 -1.48711 0
M  V30 6347 O 599.47 -0.376597 -1.92246 0
M  V30 6348 H 598.05 -0.742456 -0.0822664 0
M  V30 6349 H 600.712 -1.88367 0.500385 0
M  V30 6350 H 599.808 -3.09031 -0.436605 0
M  V30 6351 N 600.109 -0.101901 -1.5727 0
M  V30 6352 C 601.019 0.868647 -2.17926 0
M  V30 6353 C 602.035 1.30527 -1.1506 0
M  V30 6354 O 603.211 1.37178 -1.47459 0
M  V30 6355 C 600.276 2.10727 -2.75309 0
M  V30 6356 C 599.337 1.7242 -3.93154 0
M  V30 6357 C 598.57 2.90377 -4.47791 0
M  V30 6358 O 598.793 4.05305 -4.01353 0
M  V30 6359 O 597.727 2.6845 -5.38719 0
M  V30 6360 H 601.553 0.382544 -3.01281 0
M  V30 6361 H 599.138 0.122812 -1.48894 0
M  V30 6362 H 601.02 2.83303 -3.11958 0
M  V30 6363 H 599.695 2.58376 -1.94996 0
M  V30 6364 H 598.602 0.970039 -3.61305 0
M  V30 6365 H 599.935 1.29528 -4.74851 0
M  V30 6366 N 601.587 1.56661 0.17182 0
M  V30 6367 C 602.534 1.96371 1.21273 0
M  V30 6368 C 603.504 0.82756 1.44016 0
M  V30 6369 O 604.689 1.08764 1.56764 0
M  V30 6370 C 601.829 2.32838 2.54716 0
M  V30 6371 C 600.942 3.59628 2.39356 0
M  V30 6372 C 600.077 3.85311 3.65662 0
M  V30 6373 C 599.116 5.0545 3.45234 0
M  V30 6374 N 598.253 5.27268 4.63608 0
M  V30 6375 H 603.093 2.85106 0.86709 0
M  V30 6376 H 600.63 1.41073 0.416744 0
M  V30 6377 H 602.588 2.52004 3.3249 0
M  V30 6378 H 601.218 1.47214 2.87277 0
M  V30 6379 H 600.27 3.4838 1.52761 0
M  V30 6380 H 601.582 4.4756 2.20207 0
M  V30 6381 H 600.736 4.04841 4.51872 0
M  V30 6382 H 599.475 2.95753 3.8779 0
M  V30 6383 H 598.48 4.85819 2.5741 0
M  V30 6384 H 599.705 5.96538 3.24529 0
M  V30 6385 H 597.651 4.40662 4.85956 0
M  V30 6386 H 597.568 6.09422 4.4737 0
M  V30 6387 H 598.836 5.51277 5.51103 0
M  V30 6388 N 603.065 -0.440357 1.51323 0
M  V30 6389 C 604.295 -1.21079 1.67402 0
M  V30 6390 C 604.703 -1.85555 0.369599 0
M  V30 6391 O 604.046 -1.71375 -0.661525 0
M  V30 6392 C 604.108 -2.33839 2.73056 0
M  V30 6393 C 603.772 -1.89755 4.15743 0
M  V30 6394 C 604.769 -1.40268 5.0062 0
M  V30 6395 C 602.454 -1.97539 4.61826 0
M  V30 6396 C 604.448 -0.991474 6.29642 0
M  V30 6397 C 602.135 -1.56029 5.90845 0
M  V30 6398 C 603.133 -1.06915 6.7458 0
M  V30 6399 O 602.821 -0.659933 8.01187 0
M  V30 6400 H 602.553 -0.371133 0.56501 0
M  V30 6401 H 605.107 -0.528409 1.98487 0
M  V30 6402 H 603.337 -3.05345 2.37279 0
M  V30 6403 H 605.026 -2.95713 2.78044 0
M  V30 6404 H 605.792 -1.33652 4.66221 0
M  V30 6405 H 601.671 -2.34713 3.96776 0
M  V30 6406 H 605.215 -0.607425 6.9495 0
M  V30 6407 H 601.112 -1.62315 6.24759 0
M  V30 6408 H 601.88 -0.786052 8.14717 0
M  V30 6409 N 604.543 -1.41418 -0.695603 0
M  V30 6410 C 605.783 -1.42241 -1.46788 0
M  V30 6411 C 606.147 -0.0300827 -1.91976 0
M  V30 6412 O 607.348 0.0868914 -2.6866 0
M  V30 6413 C 605.619 -2.4011 -2.6473 0
M  V30 6414 S 607.178 -2.59462 -3.53871 0
M  V30 6415 H 603.996 -0.503893 -0.50161 0
M  V30 6416 H 606.598 -1.77855 -0.811654 0
M  V30 6417 H 605.302 -3.40073 -2.29736 0
M  V30 6418 H 604.833 -2.05849 -3.35246 0
M  V30 6419 H 606.848 -1.862 -4.59939 0
M  V30 6420 N 606.021 0.929856 -1.27246 0
M  V30 6421 C 607.269 1.674 -1.13233 0
M  V30 6422 C 607.59 1.92311 0.322744 0
M  V30 6423 O 606.86 1.52784 1.22612 0
M  V30 6424 H 605.44 0.620411 -0.416052 0
M  V30 6425 H 608.102 1.11663 -1.59741 0
M  V30 6426 H 607.198 2.64308 -1.65975 0
M  V30 6427 N 607.499 1.09233 1.13605 0
M  V30 6428 C 608.409 0.741939 2.22559 0
M  V30 6429 C 609.425 -0.255236 1.72118 0
M  V30 6430 O 610.601 -0.0970747 2.01166 0
M  V30 6431 C 607.666 0.165595 3.46304 0
M  V30 6432 C 606.727 1.21846 4.11645 0
M  V30 6433 C 605.96 0.669526 5.29484 0
M  V30 6434 O 606.183 -0.508228 5.68131 0
M  V30 6435 O 605.117 1.42361 5.84822 0
M  V30 6436 H 608.943 1.65107 2.54899 0
M  V30 6437 H 606.528 0.866584 1.21699 0
M  V30 6438 H 608.41 -0.152592 4.21124 0
M  V30 6439 H 607.085 -0.716573 3.15669 0
M  V30 6440 H 605.992 1.58931 3.38662 0
M  V30 6441 H 607.325 2.07321 4.46407 0
M  V30 6442 N 608.977 -1.30795 0.87923 0
M  V30 6443 C 610.393 -1.48981 0.57243 0
M  V30 6444 C 610.593 -1.80719 -0.891236 0
M  V30 6445 O 609.649 -1.89136 -1.67283 0
M  V30 6446 C 610.962 -2.61721 1.48063 0
M  V30 6447 C 612.51 -2.75603 1.48365 0
M  V30 6448 C 612.985 -3.91449 2.37763 0
M  V30 6449 N 614.476 -3.98751 2.35695 0
M  V30 6450 C 615.211 -4.87684 3.01583 0
M  V30 6451 N 614.707 -5.81454 3.76674 0
M  V30 6452 N 616.5 -4.81005 2.90844 0
M  V30 6453 H 608.651 -1.08465 1.82617 0
M  V30 6454 H 610.914 -0.536813 0.781368 0
M  V30 6455 H 610.62 -2.45073 2.52254 0
M  V30 6456 H 610.494 -3.58071 1.18596 0
M  V30 6457 H 612.881 -2.9166 0.44927 0
M  V30 6458 H 612.962 -1.79891 1.81859 0
M  V30 6459 H 612.606 -3.76149 3.41283 0
M  V30 6460 H 612.536 -4.86487 2.01589 0
M  V30 6461 H 615.027 -3.31668 1.81121 0
M  V30 6462 H 615.34 -6.46063 4.24054 0
M  V30 6463 H 613.685 -5.81403 3.80782 0
M  V30 6464 H 616.876 -4.06728 2.31711 0
M  V30 6465 H 617.049 -5.50107 3.42471 0
M  V30 6466 N 610.455 -0.639598 -1.44038 0
M  V30 6467 C 611.68 -0.153117 -2.06834 0
M  V30 6468 C 612.105 1.16676 -1.47541 0
M  V30 6469 O 611.463 1.71769 -0.580093 0
M  V30 6470 C 611.511 -0.0609169 -3.60549 0
M  V30 6471 O 610.615 0.98071 -4.00569 0
M  V30 6472 H 609.956 -0.0886402 -0.658057 0
M  V30 6473 H 612.486 -0.878674 -1.84771 0
M  V30 6474 H 612.496 0.126892 -4.07803 0
M  V30 6475 H 611.171 -1.0245 -4.03084 0
M  V30 6476 H 609.748 0.766789 -3.64931 0
M  V30 6477 N 611.933 1.52934 -0.380664 0
M  V30 6478 C 612.865 2.23822 0.493581 0
M  V30 6479 C 613.878 1.25761 1.03383 0
M  V30 6480 O 615.067 1.5189 0.937633 0
M  V30 6481 C 612.167 2.9342 1.69582 0
M  V30 6482 C 611.34 4.18115 1.28445 0
M  V30 6483 C 610.399 4.70788 2.35042 0
M  V30 6484 O 609.425 5.34093 1.96807 0
M  V30 6485 N 610.627 4.49899 3.66839 0
M  V30 6486 H 613.392 2.99484 -0.11371 0
M  V30 6487 H 610.953 1.60577 -0.206587 0
M  V30 6488 H 612.945 3.2556 2.40401 0
M  V30 6489 H 611.515 2.21119 2.20965 0
M  V30 6490 H 610.735 3.92109 0.405503 0
M  V30 6491 H 612.023 4.99152 0.986132 0
M  V30 6492 H 611.421 3.99349 4.0067 0
M  V30 6493 H 609.978 4.86551 4.33718 0
M  V30 6494 N 613.412 0.11024 1.57214 0
M  V30 6495 C 614.659 -0.54987 1.94891 0
M  V30 6496 C 614.987 -1.67243 0.992984 0
M  V30 6497 O 614.242 -1.95694 0.0152703 0
M  V30 6498 C 614.541 -1.13102 3.39032 0
M  V30 6499 C 614.207 -0.130713 4.5071 0
M  V30 6500 C 612.869 0.14437 4.80983 0
M  V30 6501 C 615.221 0.551472 5.18274 0
M  V30 6502 C 612.549 1.10807 5.76141 0
M  V30 6503 C 614.901 1.50375 6.14467 0
M  V30 6504 C 613.565 1.78691 6.43138 0
M  V30 6505 H 612.835 -0.201212 0.713158 0
M  V30 6506 H 615.482 0.189288 1.90562 0
M  V30 6507 H 613.787 -1.94675 3.40013 0
M  V30 6508 H 615.484 -1.64973 3.65493 0
M  V30 6509 H 612.074 -0.355301 4.27125 0
M  V30 6510 H 616.258 0.35211 4.95049 0
M  V30 6511 H 611.514 1.3343 5.96663 0
M  V30 6512 H 615.688 2.03808 6.65909 0
M  V30 6513 H 613.315 2.53522 7.1668 0
M  V30 6514 N 614.89 -1.56749 -0.16351 0
M  V30 6515 C 616.136 -1.82704 -0.880168 0
M  V30 6516 C 616.469 -0.689311 -1.81555 0
M  V30 6517 O 615.744 0.308224 -1.92042 0
M  V30 6518 C 616.027 -3.19084 -1.66905 0
M  V30 6519 C 615.88 -4.43397 -0.756269 0
M  V30 6520 C 617.199 -3.52493 -2.63509 0
M  V30 6521 H 614.318 -0.664608 -0.318535 0
M  V30 6522 H 616.96 -1.89438 -0.146036 0
M  V30 6523 H 615.11 -3.13475 -2.2949 0
M  V30 6524 H 616.782 -4.61079 -0.14269 0
M  V30 6525 H 615.025 -4.33752 -0.0647944 0
M  V30 6526 H 615.696 -5.3539 -1.34393 0
M  V30 6527 H 618.172 -3.58606 -2.11047 0
M  V30 6528 H 617.048 -4.48979 -3.15767 0
M  V30 6529 H 617.309 -2.77597 -3.44082 0
M  V30 6530 N 616.368 0.432326 -1.51554 0
M  V30 6531 C 617.614 1.18309 -1.64714 0
M  V30 6532 C 617.947 1.90745 -0.364696 0
M  V30 6533 O 617.222 1.8381 0.635936 0
M  V30 6534 C 617.505 2.1961 -2.85383 0
M  V30 6535 C 617.358 1.51223 -4.23617 0
M  V30 6536 C 618.677 3.20538 -3.01569 0
M  V30 6537 H 615.796 0.428751 -0.599451 0
M  V30 6538 H 618.438 0.471689 -1.84052 0
M  V30 6539 H 616.588 2.8028 -2.69027 0
M  V30 6540 H 618.26 0.938516 -4.51652 0
M  V30 6541 H 616.503 0.814501 -4.26085 0
M  V30 6542 H 617.174 2.25024 -5.04052 0
M  V30 6543 H 619.65 2.69926 -3.16669 0
M  V30 6544 H 618.526 3.88706 -3.87555 0
M  V30 6545 H 618.787 3.86933 -2.13859 0
M  V30 6546 N 617.846 1.41785 0.688094 0
M  V30 6547 C 619.074 1.44915 1.47673 0
M  V30 6548 C 619.489 0.0565786 1.88715 0
M  V30 6549 O 618.846 -0.92579 1.57275 0
M  V30 6550 C 618.897 2.36452 2.73446 0
M  V30 6551 O 618.618 3.7029 2.34131 0
M  V30 6552 C 620.119 2.48463 3.67125 0
M  V30 6553 H 617.339 0.493324 0.454832 0
M  V30 6554 H 619.883 1.86153 0.846594 0
M  V30 6555 H 618.038 1.98502 3.3268 0
M  V30 6556 H 618.452 4.19183 3.15255 0
M  V30 6557 H 619.926 3.16662 4.52138 0
M  V30 6558 H 620.403 1.51826 4.12123 0
M  V30 6559 H 621.009 2.8708 3.13792 0
M  V30 6560 N 619.324 -0.923095 1.27737 0
M  V30 6561 C 620.549 -1.71054 1.17283 0
M  V30 6562 C 620.974 -1.86208 -0.266153 0
M  V30 6563 O 620.332 -1.36545 -1.1927 0
M  V30 6564 C 620.38 -3.0854 1.86642 0
M  V30 6565 O 619.484 -3.95528 1.16752 0
M  V30 6566 H 618.825 -0.524136 0.407649 0
M  V30 6567 H 621.355 -1.15487 1.6889 0
M  V30 6568 H 621.365 -3.58828 1.94182 0
M  V30 6569 H 620.04 -2.96828 2.91317 0
M  V30 6570 H 618.617 -3.53967 1.17312 0
M  V30 6571 N 620.802 -1.09834 -1.13024 0
M  V30 6572 C 621.75 -0.736283 -2.20639 0
M  V30 6573 C 622.744 0.264725 -1.67319 0
M  V30 6574 O 623.95 0.125745 -1.7956 0
M  V30 6575 H 620.325 -0.220136 -0.719058 0
M  V30 6576 H 622.296 -1.65295 -2.48436 0
M  V30 6577 C 621.045 -0.177544 -3.47246 0
M  V30 6578 H 620.368 -0.939009 -3.88616 0
M  V30 6579 H 621.808 0.0378007 -4.23983 0
M  V30 6580 C 620.267 1.08824 -3.1884 0
M  V30 6581 O 620.797 2.1708 -3.37993 0
M  V30 6582 N 619.003 1.00442 -2.7269 0
M  V30 6583 H 618.55 0.123383 -2.57304 0
M  V30 6584 H 618.508 1.85206 -2.5406 0
M  V30 6585 N 622.28 1.30327 -0.886154 0
M  V30 6586 C 623.505 2.0079 -0.519425 0
M  V30 6587 C 623.93 1.65979 0.885013 0
M  V30 6588 O 623.288 0.877043 1.58675 0
M  V30 6589 C 623.336 3.53686 -0.702758 0
M  V30 6590 O 622.44 4.11637 0.250828 0
M  V30 6591 H 621.781 0.63171 -0.204544 0
M  V30 6592 H 624.311 1.66145 -1.19402 0
M  V30 6593 H 624.321 4.03531 -0.602207 0
M  V30 6594 H 622.996 3.78361 -1.72673 0
M  V30 6595 H 621.573 3.72755 0.103873 0
M  V30 6596 N 623.758 0.647228 1.43697 0
M  V30 6597 C 624.706 -0.0600105 2.32523 0
M  V30 6598 C 625.7 -0.819277 1.48271 0
M  V30 6599 O 626.906 -0.730356 1.64517 0
M  V30 6600 H 623.281 -0.0381872 0.75103 0
M  V30 6601 H 625.252 0.706978 2.89904 0
M  V30 6602 C 624.001 -1.0169 3.32497 0
M  V30 6603 H 623.324 -0.442083 3.97348 0
M  V30 6604 H 624.764 -1.48095 3.97296 0
M  V30 6605 C 623.223 -2.11002 2.6264 0
M  V30 6606 O 623.753 -3.19302 2.4374 0
M  V30 6607 N 621.959 -1.87388 2.22113 0
M  V30 6608 H 621.506 -0.993174 2.37684 0
M  V30 6609 H 621.464 -2.60723 1.75701 0
M  V30 6610 N 625.236 -1.5273 0.388769 0
M  V30 6611 C 626.183 -2.26437 -0.446639 0
M  V30 6612 C 627.153 -1.28025 -1.05824 0
M  V30 6613 O 628.338 -1.56852 -1.08637 0
M  V30 6614 C 625.478 -3.07407 -1.56828 0
M  V30 6615 C 624.591 -4.20747 -0.979589 0
M  V30 6616 C 623.726 -4.89113 -2.07224 0
M  V30 6617 C 622.765 -5.94447 -1.45942 0
M  V30 6618 N 621.902 -6.56411 -2.49135 0
M  V30 6619 H 626.742 -2.97404 0.18837 0
M  V30 6620 H 624.279 -1.46727 0.104725 0
M  V30 6621 H 626.237 -3.52642 -2.22934 0
M  V30 6622 H 624.867 -2.3865 -2.17361 0
M  V30 6623 H 623.919 -3.7983 -0.208151 0
M  V30 6624 H 625.231 -4.9637 -0.491747 0
M  V30 6625 H 624.385 -5.3765 -2.81101 0
M  V30 6626 H 623.124 -4.13013 -2.59368 0
M  V30 6627 H 622.129 -5.4525 -0.705894 0
M  V30 6628 H 623.354 -6.7248 -0.945932 0
M  V30 6629 H 621.3 -5.83152 -3.00449 0
M  V30 6630 H 621.217 -7.27645 -2.05105 0
M  V30 6631 H 622.485 -7.09592 -3.22644 0
M  V30 6632 N 626.714 -0.118576 -1.57153 0
M  V30 6633 C 627.963 0.539339 -1.94355 0
M  V30 6634 C 628.276 1.67858 -1.00415 0
M  V30 6635 O 629.482 2.39922 -1.27081 0
M  V30 6636 C 627.938 1.01082 -3.45414 0
M  V30 6637 C 627.546 -0.0999402 -4.47889 0
M  V30 6638 C 629.29 1.64013 -3.91535 0
M  V30 6639 C 627.197 0.388212 -5.90124 0
M  V30 6640 H 626.127 0.205247 -0.725527 0
M  V30 6641 H 628.778 -0.19836 -1.82425 0
M  V30 6642 H 627.16 1.80292 -3.52577 0
M  V30 6643 H 628.334 -0.876189 -4.52393 0
M  V30 6644 H 626.649 -0.635885 -4.11516 0
M  V30 6645 H 629.246 2.01649 -4.95219 0
M  V30 6646 H 629.589 2.51836 -3.31488 0
M  V30 6647 H 630.122 0.913439 -3.87171 0
M  V30 6648 H 626.861 -0.453963 -6.53926 0
M  V30 6649 H 626.381 1.13095 -5.89041 0
M  V30 6650 H 628.06 0.849574 -6.41398 0
M  V30 6651 N 628.193 1.56834 0.155195 0
M  V30 6652 C 629.421 1.87049 0.884326 0
M  V30 6653 C 629.836 0.705839 1.7511 0
M  V30 6654 O 629.193 -0.324641 1.79589 0
M  V30 6655 C 629.244 3.1644 1.74781 0
M  V30 6656 O 628.965 4.28417 0.915978 0
M  V30 6657 C 630.466 3.60113 2.58522 0
M  V30 6658 H 627.686 0.620196 0.25612 0
M  V30 6659 H 630.23 2.03946 0.150445 0
M  V30 6660 H 628.385 3.01321 2.43484 0
M  V30 6661 H 628.799 5.02353 1.50803 0
M  V30 6662 H 630.273 4.53508 3.14698 0
M  V30 6663 H 630.75 2.85005 3.34169 0
M  V30 6664 H 631.356 3.77898 1.95124 0
M  V30 6665 N 629.671 -0.424282 1.51781 0
M  V30 6666 C 630.917 -1.17434 1.6534 0
M  V30 6667 C 631.25 -1.90549 0.374806 0
M  V30 6668 O 630.525 -1.84145 -0.626179 0
M  V30 6669 C 630.808 -2.18093 2.86544 0
M  V30 6670 C 630.661 -1.48975 4.24413 0
M  V30 6671 C 631.98 -3.18934 3.03264 0
M  V30 6672 H 629.099 -0.425566 0.601716 0
M  V30 6673 H 631.741 -0.461921 1.84299 0
M  V30 6674 H 629.891 -2.78849 2.7051 0
M  V30 6675 H 631.563 -0.914551 4.52143 0
M  V30 6676 H 629.806 -0.791893 4.26511 0
M  V30 6677 H 630.477 -2.22347 5.05238 0
M  V30 6678 H 632.953 -2.68243 3.18096 0
M  V30 6679 H 631.829 -3.86645 3.89611 0
M  V30 6680 H 632.09 -3.85793 2.15908 0
M  V30 6681 N 631.149 -1.42148 -0.680565 0
M  V30 6682 C 632.565 -1.24947 -0.992995 0
M  V30 6683 C 632.765 -0.149527 -2.00944 0
M  V30 6684 O 631.821 0.481145 -2.47873 0
M  V30 6685 C 633.134 -2.60426 -1.5033 0
M  V30 6686 C 634.682 -2.67733 -1.62137 0
M  V30 6687 C 635.157 -4.03564 -2.16565 0
M  V30 6688 N 636.648 -4.05488 -2.23905 0
M  V30 6689 C 637.383 -5.07401 -2.67081 0
M  V30 6690 N 636.879 -6.19698 -3.09751 0
M  V30 6691 N 638.672 -4.94758 -2.66778 0
M  V30 6692 H 630.823 -2.12399 -0.0074788 0
M  V30 6693 H 633.086 -0.94571 -0.0658529 0
M  V30 6694 H 632.792 -3.41743 -0.830947 0
M  V30 6695 H 632.666 -2.83949 -2.483 0
M  V30 6696 H 635.053 -1.86765 -2.2848 0
M  V30 6697 H 635.134 -2.48004 -0.626713 0
M  V30 6698 H 634.778 -4.84987 -1.50833 0
M  V30 6699 H 634.708 -4.20641 -3.1681 0
M  V30 6700 H 637.199 -3.24415 -1.93812 0
M  V30 6701 H 637.512 -6.93318 -3.41365 0
M  V30 6702 H 635.857 -6.23212 -3.07623 0
M  V30 6703 H 639.048 -4.06105 -2.32801 0
M  V30 6704 H 639.221 -5.74317 -3.00107 0
M  V30 6705 N 632.627 0.916307 -1.28225 0
M  V30 6706 C 633.874 1.66518 -1.1523 0
M  V30 6707 C 634.202 1.92178 0.299632 0
M  V30 6708 O 633.457 1.51842 1.2346 0
M  V30 6709 C 633.756 3.03125 -1.8934 0
M  V30 6710 C 633.422 2.97135 -3.39148 0
M  V30 6711 C 632.084 2.95208 -3.80007 0
M  V30 6712 C 634.436 2.87574 -4.34685 0
M  V30 6713 C 631.764 2.81518 -5.14747 0
M  V30 6714 C 634.116 2.75424 -5.69495 0
M  V30 6715 C 632.78 2.71854 -6.09632 0
M  V30 6716 H 632.05 0.609334 -0.421655 0
M  V30 6717 H 634.697 1.06776 -1.58969 0
M  V30 6718 H 633.002 3.66639 -1.38143 0
M  V30 6719 H 634.699 3.59968 -1.76704 0
M  V30 6720 H 631.289 2.99428 -3.06661 0
M  V30 6721 H 635.473 2.88152 -4.04082 0
M  V30 6722 H 630.729 2.77148 -5.44976 0
M  V30 6723 H 634.903 2.66993 -6.43185 0
M  V30 6724 H 632.53 2.61003 -7.1399 0
M  V30 6725 N 634.105 1.10431 1.1244 0
M  V30 6726 C 635.055 0.722378 2.16254 0
M  V30 6727 C 636.039 -0.268427 1.58645 0
M  V30 6728 O 637.231 -0.077169 1.76832 0
M  V30 6729 C 634.36 0.155763 3.42946 0
M  V30 6730 C 633.446 1.17361 4.07538 0
M  V30 6731 N 633.837 2.36429 4.47141 0
M  V30 6732 C 632.135 1.01412 4.34317 0
M  V30 6733 C 632.836 3.01259 4.97612 0
M  V30 6734 N 631.812 2.28777 4.93115 0
M  V30 6735 H 635.614 1.62876 2.4464 0
M  V30 6736 H 633.128 0.982031 1.29344 0
M  V30 6737 H 635.125 -0.135936 4.16678 0
M  V30 6738 H 633.785 -0.745339 3.1603 0
M  V30 6739 H 634.796 2.73954 4.39511 0
M  V30 6740 H 631.473 0.168574 4.1716 0
M  V30 6741 H 632.863 4.02541 5.37968 0
M  V30 6742 N 635.583 -1.29855 0.893053 0
M  V30 6743 C 636.808 -2.00512 0.530066 0
M  V30 6744 C 637.233 -1.66446 -0.876199 0
M  V30 6745 O 636.591 -0.885446 -1.58207 0
M  V30 6746 C 636.639 -3.53308 0.721505 0
M  V30 6747 O 635.743 -4.11764 -0.228994 0
M  V30 6748 H 635.084 -0.630617 0.207891 0
M  V30 6749 H 637.614 -1.6551 1.20282 0
M  V30 6750 H 637.624 -4.03206 0.623599 0
M  V30 6751 H 636.299 -3.77439 1.74678 0
M  V30 6752 H 634.876 -3.72805 -0.0841034 0
M  V30 6753 N 637.061 -0.65484 -1.43351 0
M  V30 6754 C 638.338 -0.0987371 -1.95351 0
M  V30 6755 C 638.718 1.38161 -1.59608 0
M  V30 6756 O 638.066 2.10791 -0.882021 0
M  V30 6757 C 638.276 -0.346684 -3.47274 0
M  V30 6758 C 639.624 -0.25249 -4.23849 0
M  V30 6759 O 640.648 -0.279332 -3.55103 0
M  V30 6760 O 639.507 -0.177584 -5.46211 0
M  V30 6761 H 636.601 0.0086829 -0.826954 0
M  V30 6762 H 639.147 -0.728189 -1.53282 0
M  V30 6763 H 637.919 -1.37296 -3.66423 0
M  V30 6764 H 637.542 0.315757 -3.96344 0
M  V30 6765 N 638.539 1.52521 -0.396863 0
M  V30 6766 C 639.471 2.24333 0.469814 0
M  V30 6767 C 640.484 1.2685 1.02043 0
M  V30 6768 O 641.673 1.52876 0.92147 0
M  V30 6769 C 638.773 2.95202 1.66461 0
M  V30 6770 C 637.946 4.19454 1.24003 0
M  V30 6771 C 637.005 4.73255 2.30036 0
M  V30 6772 O 636.031 5.36151 1.91131 0
M  V30 6773 N 637.233 4.53765 3.62047 0
M  V30 6774 H 639.998 2.99347 -0.145468 0
M  V30 6775 H 637.559 1.60348 -0.223606 0
M  V30 6776 H 639.551 3.28092 2.36934 0
M  V30 6777 H 638.121 2.2345 2.18607 0
M  V30 6778 H 637.341 3.92517 0.363892 0
M  V30 6779 H 638.629 5.0017 0.933135 0
M  V30 6780 H 638.027 4.03576 3.96412 0
M  V30 6781 H 636.584 4.91124 4.28533 0
M  V30 6782 N 640.017 0.126909 1.57088 0
M  V30 6783 C 641.242 -0.53997 2.00248 0
M  V30 6784 C 641.667 -1.58927 1.00618 0
M  V30 6785 O 641.025 -1.81288 -0.0210131 0
M  V30 6786 C 641.073 -1.13565 3.4225 0
M  V30 6787 O 640.177 -2.25103 3.45547 0
M  V30 6788 H 639.518 -0.13412 0.650314 0
M  V30 6789 H 642.048 0.217718 2.03438 0
M  V30 6790 H 642.058 -1.46925 3.80627 0
M  V30 6791 H 640.733 -0.367122 4.14277 0
M  V30 6792 H 639.31 -1.93123 3.18995 0
M  V30 6793 N 641.495 -1.56914 -0.146875 0
M  V30 6794 C 642.725 -1.87243 -0.873126 0
M  V30 6795 C 643.133 -0.713127 -1.75246 0
M  V30 6796 O 642.476 0.326228 -1.8078 0
M  V30 6797 C 642.538 -3.12279 -1.78107 0
M  V30 6798 C 642.202 -4.44082 -1.07889 0
M  V30 6799 C 643.199 -5.18096 -0.432734 0
M  V30 6800 C 640.884 -4.90807 -1.06836 0
M  V30 6801 C 642.878 -6.37039 0.214569 0
M  V30 6802 C 640.565 -6.09674 -0.417243 0
M  V30 6803 C 641.563 -6.82636 0.223093 0
M  V30 6804 O 641.251 -7.99245 0.863884 0
M  V30 6805 H 640.983 -0.624896 -0.257839 0
M  V30 6806 H 643.537 -2.04892 -0.14434 0
M  V30 6807 H 641.767 -2.90639 -2.5508 0
M  V30 6808 H 643.456 -3.28854 -2.37929 0
M  V30 6809 H 644.222 -4.83066 -0.432677 0
M  V30 6810 H 640.101 -4.3394 -1.55618 0
M  V30 6811 H 643.645 -6.93927 0.714965 0
M  V30 6812 H 639.542 -6.44165 -0.414967 0
M  V30 6813 H 640.31 -8.14912 0.765564 0
M  V30 6814 N 642.974 0.416227 -1.52004 0
M  V30 6815 C 644.202 1.18573 -1.69553 0
M  V30 6816 C 644.617 1.84472 -0.401919 0
M  V30 6817 O 643.974 1.71593 0.621463 0
M  V30 6818 C 644.025 2.25413 -2.82615 0
M  V30 6819 O 643.746 1.62205 -4.06966 0
M  V30 6820 C 645.247 3.15297 -3.11613 0
M  V30 6821 H 642.467 0.356582 -0.56841 0
M  V30 6822 H 645.011 0.490618 -1.98528 0
M  V30 6823 H 643.166 2.90604 -2.56179 0
M  V30 6824 H 643.58 2.3298 -4.69916 0
M  V30 6825 H 645.054 3.86351 -3.94255 0
M  V30 6826 H 645.531 3.77264 -2.24874 0
M  V30 6827 H 646.137 2.55783 -3.39787 0
M  V30 6828 N 644.452 1.42507 0.673017 0
M  V30 6829 C 645.729 1.33554 1.42908 0
M  V30 6830 C 646.109 -0.0262211 2.11084 0
M  V30 6831 O 645.457 -1.04181 2.03368 0
M  V30 6832 C 645.667 2.50498 2.43006 0
M  V30 6833 C 647.015 2.92694 3.07596 0
M  V30 6834 O 648.039 2.50401 2.53333 0
M  V30 6835 O 646.898 3.65899 4.05931 0
M  V30 6836 H 643.992 0.526785 0.637516 0
M  V30 6837 H 646.538 1.54518 0.701591 0
M  V30 6838 H 645.31 3.41272 1.9144 0
M  V30 6839 H 644.933 2.3153 3.23233 0
M  V30 6840 N 645.93 -0.909495 1.28709 0
M  V30 6841 C 647.158 -1.69272 1.18973 0
M  V30 6842 C 647.573 -1.87123 -0.251048 0
M  V30 6843 O 646.93 -1.40127 -1.16922 0
M  V30 6844 C 646.981 -3.08257 1.88839 0
M  V30 6845 O 646.702 -2.91228 3.27289 0
M  V30 6846 C 648.203 -4.02642 1.85457 0
M  V30 6847 H 645.423 -0.528999 0.412797 0
M  V30 6848 H 647.967 -1.13803 1.69909 0
M  V30 6849 H 646.122 -3.6053 1.41762 0
M  V30 6850 H 646.536 -3.79223 3.6234 0
M  V30 6851 H 648.01 -4.97613 2.38925 0
M  V30 6852 H 648.487 -4.31327 0.827893 0
M  V30 6853 H 649.093 -3.56298 2.32233 0
M  V30 6854 N 647.408 -1.11026 -1.11852 0
M  V30 6855 C 648.656 -0.854769 -1.83134 0
M  V30 6856 C 648.977 0.621375 -1.84835 0
M  V30 6857 O 648.247 1.45129 -1.31584 0
M  V30 6858 H 646.827 -0.313229 -0.678157 0
M  V30 6859 H 649.489 -1.40178 -1.35411 0
M  V30 6860 H 648.585 -1.22311 -2.87135 0
M  V30 6861 N 648.886 1.2938 -0.899927 0
M  V30 6862 C 650.133 1.9555 -0.525963 0
M  V30 6863 C 650.461 1.70945 0.927789 0
M  V30 6864 O 649.716 1.01545 1.67293 0
M  V30 6865 C 650.015 3.49114 -0.765113 0
M  V30 6866 C 649.681 3.93796 -2.19626 0
M  V30 6867 C 648.343 4.05707 -2.58758 0
M  V30 6868 C 650.695 4.16883 -3.12823 0
M  V30 6869 C 648.023 4.38074 -3.90267 0
M  V30 6870 C 650.375 4.50725 -4.4388 0
M  V30 6871 C 649.039 4.60845 -4.82885 0
M  V30 6872 H 648.309 0.715569 -0.192463 0
M  V30 6873 H 650.956 1.53972 -1.13863 0
M  V30 6874 H 649.261 3.91738 -0.069531 0
M  V30 6875 H 650.958 3.98409 -0.455144 0
M  V30 6876 H 647.548 3.85042 -1.88256 0
M  V30 6877 H 651.732 4.07147 -2.83804 0
M  V30 6878 H 646.988 4.44112 -4.20207 0
M  V30 6879 H 651.162 4.67538 -5.16121 0
M  V30 6880 H 648.789 4.85681 -5.84823 0
M  V30 6881 N 650.364 0.662433 1.43002 0
M  V30 6882 C 651.294 -0.00979809 2.33498 0
M  V30 6883 C 652.275 -0.802329 1.49989 0
M  V30 6884 O 653.46 -0.761964 1.78627 0
M  V30 6885 C 650.59 -0.970446 3.33466 0
M  V30 6886 C 649.544 -0.287383 4.27034 0
M  V30 6887 C 648.87 -1.36012 5.17112 0
M  V30 6888 C 650.17 0.82595 5.15728 0
M  V30 6889 H 651.864 0.745959 2.89958 0
M  V30 6890 H 649.41 0.360172 1.39423 0
M  V30 6891 H 651.363 -1.44971 3.95679 0
M  V30 6892 H 650.087 -1.75748 2.75282 0
M  V30 6893 H 648.746 0.17152 3.66199 0
M  V30 6894 H 648.394 -2.13882 4.55262 0
M  V30 6895 H 648.094 -0.908276 5.80538 0
M  V30 6896 H 649.618 -1.84056 5.82199 0
M  V30 6897 H 651.032 0.42845 5.71697 0
M  V30 6898 H 649.429 1.20282 5.87922 0
M  V30 6899 H 650.499 1.68003 4.54866 0
M  V30 6900 N 651.842 -1.52309 0.404946 0
M  V30 6901 C 652.805 -2.25491 -0.410651 0
M  V30 6902 C 653.805 -1.27704 -0.977154 0
M  V30 6903 O 654.995 -1.51679 -0.856691 0
M  V30 6904 C 652.127 -3.02197 -1.57765 0
M  V30 6905 H 653.32 -2.99015 0.230277 0
M  V30 6906 H 650.873 -1.55506 0.157377 0
M  V30 6907 H 651.608 -2.33013 -2.25556 0
M  V30 6908 H 651.393 -3.73987 -1.17797 0
M  V30 6909 H 652.883 -3.57719 -2.15469 0
M  V30 6910 N 653.32 -0.135238 -1.57019 0
M  V30 6911 C 654.23 0.822226 -2.19719 0
M  V30 6912 C 655.246 1.28057 -1.17802 0
M  V30 6913 O 656.422 1.3402 -1.50335 0
M  V30 6914 C 653.487 2.0484 -2.79717 0
M  V30 6915 C 652.548 1.64042 -3.96723 0
M  V30 6916 C 651.781 2.80814 -4.53849 0
M  V30 6917 O 652.004 3.967 -4.0986 0
M  V30 6918 O 650.938 2.56963 -5.44292 0
M  V30 6919 H 654.764 0.318552 -3.02025 0
M  V30 6920 H 652.349 0.0912021 -1.49121 0
M  V30 6921 H 654.231 2.76622 -3.17897 0
M  V30 6922 H 652.906 2.54182 -2.00432 0
M  V30 6923 H 651.813 0.893182 -3.63281 0
M  V30 6924 H 653.146 1.19426 -4.77492 0
M  V30 6925 N 654.798 1.5699 0.138552 0
M  V30 6926 C 656.028 1.87704 0.863184 0
M  V30 6927 C 656.436 0.722411 1.74865 0
M  V30 6928 O 655.779 -0.316636 1.80951 0
M  V30 6929 C 655.841 3.13219 1.76449 0
M  V30 6930 C 655.505 4.44648 1.05532 0
M  V30 6931 C 656.502 5.18318 0.405252 0
M  V30 6932 C 654.187 4.91367 1.04231 0
M  V30 6933 C 656.181 6.36916 -0.24835 0
M  V30 6934 C 653.868 6.09887 0.384904 0
M  V30 6935 C 654.866 6.82508 -0.259292 0
M  V30 6936 O 654.554 7.98775 -0.906258 0
M  V30 6937 H 654.286 0.626255 0.254521 0
M  V30 6938 H 656.84 2.04966 0.133472 0
M  V30 6939 H 655.07 2.91988 2.53535 0
M  V30 6940 H 656.759 3.30111 2.36181 0
M  V30 6941 H 657.525 4.83289 0.407053 0
M  V30 6942 H 653.404 4.34759 1.53315 0
M  V30 6943 H 656.948 6.93538 -0.751755 0
M  V30 6944 H 652.845 6.44376 0.380799 0
M  V30 6945 H 653.613 8.14494 -0.80877 0
M  V30 6946 N 656.276 -0.40816 1.52223 0
M  V30 6947 C 657.206 -1.5042 1.78595 0
M  V30 6948 C 658.187 -1.57723 0.636974 0
M  V30 6949 O 659.372 -1.72982 0.882664 0
M  V30 6950 C 656.502 -2.88232 1.93751 0
M  V30 6951 C 655.456 -2.95779 3.09352 0
M  V30 6952 C 654.782 -4.35855 3.09732 0
M  V30 6953 C 656.082 -2.67175 4.48793 0
M  V30 6954 H 657.776 -1.28601 2.70374 0
M  V30 6955 H 655.322 -0.617221 1.30101 0
M  V30 6956 H 657.275 -3.64895 2.10783 0
M  V30 6957 H 655.999 -3.11347 0.986443 0
M  V30 6958 H 654.658 -2.21561 2.92072 0
M  V30 6959 H 654.306 -4.55981 2.12346 0
M  V30 6960 H 654.006 -4.41829 3.87377 0
M  V30 6961 H 655.53 -5.14451 3.28895 0
M  V30 6962 H 656.944 -3.3356 4.66273 0
M  V30 6963 H 655.341 -2.84523 5.28362 0
M  V30 6964 H 656.411 -1.62609 4.56822 0
M  V30 6965 N 657.755 -1.42862 -0.66545 0
M  V30 6966 C 658.98 -1.47456 -1.45848 0
M  V30 6967 C 659.405 -0.0900312 -1.87884 0
M  V30 6968 O 658.763 0.913587 -1.56599 0
M  V30 6969 C 658.811 -2.41514 -2.67774 0
M  V30 6970 O 657.915 -1.89296 -3.66389 0
M  V30 6971 H 657.256 -0.499236 -0.437789 0
M  V30 6972 H 659.786 -1.8765 -0.815394 0
M  V30 6973 H 659.796 -2.58409 -3.15735 0
M  V30 6974 H 658.471 -3.42099 -2.36519 0
M  V30 6975 H 657.048 -1.82003 -3.25468 0
M  V30 6976 N 659.233 0.902656 -1.29189 0
M  V30 6977 C 660.463 1.68394 -1.19695 0
M  V30 6978 C 660.871 1.87602 0.245384 0
M  V30 6979 O 660.214 1.41084 1.17648 0
M  V30 6980 C 660.276 3.09094 -1.83578 0
M  V30 6981 C 659.94 3.1313 -3.32864 0
M  V30 6982 C 660.937 2.93497 -4.29134 0
M  V30 6983 C 658.622 3.3529 -3.74013 0
M  V30 6984 C 660.616 2.95953 -5.64527 0
M  V30 6985 C 658.303 3.37377 -5.09529 0
M  V30 6986 C 659.301 3.1773 -6.04596 0
M  V30 6987 O 658.989 3.196 -7.37639 0
M  V30 6988 H 658.721 0.532815 -0.416034 0
M  V30 6989 H 661.275 1.1374 -1.71033 0
M  V30 6990 H 659.505 3.65338 -1.26747 0
M  V30 6991 H 661.194 3.69297 -1.68447 0
M  V30 6992 H 661.96 2.76192 -3.98677 0
M  V30 6993 H 657.839 3.49623 -3.00474 0
M  V30 6994 H 661.383 2.80536 -6.38706 0
M  V30 6995 H 657.28 3.54213 -5.39633 0
M  V30 6996 H 658.048 3.35887 -7.46406 0
M  V30 6997 N 660.711 1.11618 1.11262 0
M  V30 6998 C 661.988 0.777876 1.79467 0
M  V30 6999 C 662.368 -0.733774 1.97937 0
M  V30 7000 O 661.716 -1.66443 1.56554 0
M  V30 7001 C 661.926 1.5431 3.13032 0
M  V30 7002 C 663.274 1.72357 3.88044 0
M  V30 7003 O 664.298 1.5075 3.22727 0
M  V30 7004 O 663.157 2.08276 5.05256 0
M  V30 7005 H 660.251 0.282018 0.777428 0
M  V30 7006 H 662.797 1.21971 1.17988 0
M  V30 7007 H 661.569 2.57132 2.94956 0
M  V30 7008 H 661.192 1.09495 3.82226 0
M  V30 7009 N 662.189 -1.289 0.906776 0
M  V30 7010 C 663.414 -1.99939 0.551303 0
M  V30 7011 C 663.839 -1.67366 -0.858496 0
M  V30 7012 O 663.197 -0.902176 -1.57259 0
M  V30 7013 C 663.245 -3.52523 0.758937 0
M  V30 7014 O 662.349 -4.11983 -0.185308 0
M  V30 7015 H 661.69 -0.628376 0.214568 0
M  V30 7016 H 664.22 -1.64225 1.2203 0
M  V30 7017 H 664.23 -4.02522 0.666329 0
M  V30 7018 H 662.905 -3.75566 1.78671 0
M  V30 7019 H 661.482 -3.72873 -0.0445577 0
M  V30 7020 N 663.667 -0.670007 -1.42649 0
M  V30 7021 C 664.892 -0.196955 -2.06463 0
M  V30 7022 C 665.317 1.1352 -1.49983 0
M  V30 7023 O 664.675 1.705 -0.616397 0
M  V30 7024 C 664.723 -0.137381 -3.60338 0
M  V30 7025 O 663.827 0.895523 -4.02559 0
M  V30 7026 H 663.168 -0.102579 -0.656029 0
M  V30 7027 H 665.698 -0.917669 -1.82866 0
M  V30 7028 H 665.708 0.0403625 -4.0798 0
M  V30 7029 H 664.383 -1.10977 -4.0082 0
M  V30 7030 H 662.96 0.689209 -3.66476 0
M  V30 7031 N 665.145 1.52092 -0.413018 0
M  V30 7032 C 666.422 1.94356 0.22024 0
M  V30 7033 C 666.802 1.35017 1.62277 0
M  V30 7034 O 666.15 0.527511 2.22328 0
M  V30 7035 C 666.36 3.48289 0.222638 0
M  V30 7036 C 667.708 4.22313 0.440098 0
M  V30 7037 O 668.732 3.54919 0.301826 0
M  V30 7038 O 667.591 5.41829 0.712984 0
M  V30 7039 H 664.685 0.814536 0.14304 0
M  V30 7040 H 667.231 1.63083 -0.469242 0
M  V30 7041 H 666.003 3.83872 -0.758836 0
M  V30 7042 H 665.626 3.85934 0.956057 0
M  V30 7043 N 666.623 0.143563 1.56945 0
M  V30 7044 C 668.034 -0.37783 1.82837 0
M  V30 7045 C 668.385 -1.64967 1.06209 0
M  V30 7046 O 667.51 -2.14221 0.306291 0
M  V30 7047 C 668.105 -0.692274 3.31652 0
M  V30 7048 C 666.664 -1.1582 3.58138 0
M  V30 7049 C 665.811 -0.17951 2.76718 0
M  V30 7050 H 668.762 0.368317 1.54367 0
M  V30 7051 H 668.783 -1.54729 3.47619 0
M  V30 7052 H 668.295 0.233572 3.87397 0
M  V30 7053 H 666.396 -2.10011 3.07776 0
M  V30 7054 H 666.509 -1.08655 4.66616 0
M  V30 7055 H 664.873 -0.671458 2.4569 0
M  V30 7056 H 665.656 0.739865 3.35233 0
M  V30 7057 N 668.101 -1.57061 -0.130224 0
M  V30 7058 C 669.341 -1.86071 -0.845993 0
M  V30 7059 C 669.705 -0.73009 -1.77577 0
M  V30 7060 O 670.906 -0.901663 -2.53226 0
M  V30 7061 C 669.177 -3.20293 -1.58579 0
M  V30 7062 S 670.736 -3.70905 -2.34467 0
M  V30 7063 H 667.554 -0.652434 -0.282579 0
M  V30 7064 H 670.156 -1.95218 -0.10498 0
M  V30 7065 H 668.86 -4.00533 -0.894509 0
M  V30 7066 H 668.391 -3.14195 -2.36739 0
M  V30 7067 H 670.406 -3.41509 -3.59981 0
M  V30 7068 N 669.579 0.400081 -1.52437 0
M  V30 7069 C 670.99 0.97851 -1.59003 0
M  V30 7070 C 671.341 1.91293 -0.436068 0
M  V30 7071 O 670.466 2.1183 0.442365 0
M  V30 7072 C 671.061 1.78145 -2.88184 0
M  V30 7073 C 669.62 2.30976 -2.97199 0
M  V30 7074 C 668.767 1.11212 -2.54022 0
M  V30 7075 H 671.718 0.180002 -1.57676 0
M  V30 7076 H 671.739 2.63968 -2.74046 0
M  V30 7077 H 671.251 1.1011 -3.72152 0
M  V30 7078 H 669.352 3.02355 -2.17744 0
M  V30 7079 H 669.465 2.61221 -4.01622 0
M  V30 7080 H 667.829 1.46882 -2.08081 0
M  V30 7081 H 668.612 0.447307 -3.40373 0
M  V30 7082 N 671.057 1.43213 0.657864 0
M  V30 7083 C 672.305 1.44298 1.41501 0
M  V30 7084 C 672.626 0.0666478 1.94886 0
M  V30 7085 O 671.896 -0.897345 1.74139 0
M  V30 7086 H 670.476 0.531257 0.525143 0
M  V30 7087 H 673.138 1.78777 0.776195 0
M  V30 7088 H 672.234 2.1528 2.25966 0
M  V30 7089 N 672.536 -0.895792 1.29666 0
M  V30 7090 C 673.468 -2.00563 1.10937 0
M  V30 7091 C 674.481 -1.62705 0.055734 0
M  V30 7092 O 675.67 -1.7595 0.300656 0
M  V30 7093 C 672.77 -3.32262 0.667448 0
M  V30 7094 C 671.943 -3.98625 1.80047 0
M  V30 7095 C 671.002 -5.08617 1.3489 0
M  V30 7096 O 670.028 -5.30837 2.05429 0
M  V30 7097 N 671.23 -5.80076 0.221937 0
M  V30 7098 H 673.995 -2.17184 2.06522 0
M  V30 7099 H 671.556 -1.06822 1.21658 0
M  V30 7100 H 673.548 -4.03196 0.348586 0
M  V30 7101 H 672.118 -3.11985 -0.196055 0
M  V30 7102 H 671.338 -3.21005 2.28801 0
M  V30 7103 H 672.626 -4.39704 2.56003 0
M  V30 7104 H 672.024 -5.64514 -0.366084 0
M  V30 7105 H 670.581 -6.51789 -0.0375346 0
M  V30 7106 N 674.014 -1.12206 -1.10668 0
M  V30 7107 C 675.261 -0.875875 -1.82578 0
M  V30 7108 C 675.589 0.598342 -1.85068 0
M  V30 7109 O 674.844 1.45818 -1.3052 0
M  V30 7110 C 675.143 -1.39276 -3.29146 0
M  V30 7111 C 674.809 -2.8816 -3.46806 0
M  V30 7112 C 673.471 -3.28813 -3.51334 0
M  V30 7113 C 675.823 -3.8401 -3.52399 0
M  V30 7114 C 673.151 -4.64028 -3.59019 0
M  V30 7115 C 675.503 -5.19053 -3.61617 0
M  V30 7116 C 674.167 -5.59252 -3.64408 0
M  V30 7117 H 673.437 -0.320505 -0.6681 0
M  V30 7118 H 676.084 -1.40184 -1.30464 0
M  V30 7119 H 674.389 -0.787207 -3.8381 0
M  V30 7120 H 676.086 -1.17851 -3.83291 0
M  V30 7121 H 672.676 -2.55716 -3.43958 0
M  V30 7122 H 676.86 -3.53698 -3.48154 0
M  V30 7123 H 672.116 -4.94568 -3.59461 0
M  V30 7124 H 676.29 -5.93152 -3.64889 0
M  V30 7125 H 673.917 -6.64017 -3.70116 0
M  V30 7126 N 675.492 1.28418 -0.913599 0
M  V30 7127 C 676.72 1.99106 -0.562536 0
M  V30 7128 C 677.135 1.68273 0.856137 0
M  V30 7129 O 676.492 0.935401 1.56705 0
M  V30 7130 C 676.543 3.5338 -0.761903 0
M  V30 7131 O 676.264 3.83127 -2.12475 0
M  V30 7132 C 677.765 4.41328 -0.417651 0
M  V30 7133 H 674.985 0.635798 -0.214481 0
M  V30 7134 H 677.529 1.63618 -1.22676 0
M  V30 7135 H 675.684 3.8713 -0.144676 0
M  V30 7136 H 676.098 4.77763 -2.16431 0
M  V30 7137 H 677.572 5.48642 -0.607919 0
M  V30 7138 H 678.049 4.34422 0.646108 0
M  V30 7139 H 678.655 4.13074 -1.01241 0
M  V30 7140 N 676.97 0.677563 1.42291 0
M  V30 7141 C 678.21 0.204894 2.0337 0
M  V30 7142 C 678.574 -1.16744 1.5243 0
M  V30 7143 O 679.775 -1.73492 2.05314 0
M  V30 7144 C 678.046 0.240742 3.56588 0
M  V30 7145 S 679.605 -0.16052 4.38506 0
M  V30 7146 H 676.423 0.0839932 0.706021 0
M  V30 7147 H 679.025 0.891332 1.73999 0
M  V30 7148 H 677.729 1.24184 3.91161 0
M  V30 7149 H 677.26 -0.465439 3.90637 0
M  V30 7150 H 679.275 -1.39315 4.76241 0
M  V30 7151 N 678.448 -1.51871 0.421078 0
M  V30 7152 C 679.864 -1.59435 0.0725398 0
M  V30 7153 C 680.064 -1.43315 -1.41644 0
M  V30 7154 O 679.12 -1.26614 -2.18461 0
M  V30 7155 C 680.433 -2.9509 0.578132 0
M  V30 7156 C 681.981 -3.08356 0.537149 0
M  V30 7157 C 682.456 -4.4651 1.01945 0
M  V30 7158 N 683.947 -4.52784 0.976758 0
M  V30 7159 C 684.682 -5.57976 1.32099 0
M  V30 7160 N 684.178 -6.70664 1.73727 0
M  V30 7161 N 685.971 -5.48248 1.2402 0
M  V30 7162 H 678.122 -1.60595 1.39007 0
M  V30 7163 H 680.385 -0.756138 0.571803 0
M  V30 7164 H 680.091 -3.12205 1.61929 0
M  V30 7165 H 679.965 -3.772 -0.00578374 0
M  V30 7166 H 682.352 -2.90919 -0.494991 0
M  V30 7167 H 682.433 -2.28125 1.15727 0
M  V30 7168 H 682.077 -4.64692 2.04997 0
M  V30 7169 H 682.007 -5.25256 0.376023 0
M  V30 7170 H 684.498 -3.71898 0.670851 0
M  V30 7171 H 684.811 -7.46932 1.98274 0
M  V30 7172 H 683.156 -6.71914 1.77641 0
M  V30 7173 H 686.347 -4.59095 0.913756 0
M  V30 7174 H 686.52 -6.30119 1.51176 0
M  V30 7175 N 679.926 -0.151884 -1.56866 0
M  V30 7176 C 681.154 0.504813 -2.00647 0
M  V30 7177 C 681.569 1.58098 -1.03201 0
M  V30 7178 O 680.926 1.82476 -0.0297814 0
M  V30 7179 C 680.977 1.10099 -3.44326 0
M  V30 7180 O 680.698 0.0678021 -4.38048 0
M  V30 7181 C 682.199 1.83782 -4.03409 0
M  V30 7182 H 679.419 0.130989 -0.65809 0
M  V30 7183 H 681.963 -0.247903 -2.02992 0
M  V30 7184 H 680.118 1.8043 -3.42817 0
M  V30 7185 H 680.532 0.505237 -5.22061 0
M  V30 7186 H 682.006 2.2078 -5.05925 0
M  V30 7187 H 682.483 2.72557 -3.44397 0
M  V30 7188 H 683.089 1.18138 -4.08563 0
M  V30 7189 N 681.404 1.57128 0.121893 0
M  V30 7190 C 682.652 1.84335 0.828548 0
M  V30 7191 C 682.973 0.736632 1.80551 0
M  V30 7192 O 682.243 -0.23962 1.94429 0
M  V30 7193 H 680.823 0.680108 0.30897 0
M  V30 7194 H 683.485 1.9459 0.109906 0
M  V30 7195 H 682.581 2.80152 1.37554 0
M  V30 7196 N 682.882 -0.391992 1.52647 0
M  V30 7197 C 684.298 -0.731848 1.41831 0
M  V30 7198 C 684.498 -1.9423 0.536361 0
M  V30 7199 O 683.554 -2.52499 0.00866571 0
M  V30 7200 C 684.867 -0.969743 2.84634 0
M  V30 7201 C 686.415 -1.0714 2.94092 0
M  V30 7202 C 686.89 -1.34195 4.37899 0
M  V30 7203 N 688.381 -1.41023 4.41211 0
M  V30 7204 C 689.116 -1.63616 5.49561 0
M  V30 7205 N 688.612 -1.83699 6.68002 0
M  V30 7206 N 690.405 -1.65771 5.371 0
M  V30 7207 H 682.556 0.404547 2.08512 0
M  V30 7208 H 684.819 0.11879 0.940528 0
M  V30 7209 H 684.525 -0.152465 3.51369 0
M  V30 7210 H 684.399 -1.88523 3.26709 0
M  V30 7211 H 686.786 -1.87925 2.27526 0
M  V30 7212 H 686.867 -0.133887 2.55449 0
M  V30 7213 H 686.511 -0.539207 5.0503 0
M  V30 7214 H 686.441 -2.29226 4.74092 0
M  V30 7215 H 688.932 -1.27223 3.55841 0
M  V30 7216 H 689.245 -2.00437 7.46354 0
M  V30 7217 H 687.59 -1.8093 6.71036 0
M  V30 7218 H 690.781 -1.4963 4.43541 0
M  V30 7219 H 690.954 -1.83038 6.21612 0
M  V30 7220 N 684.36 -1.4356 -0.65026 0
M  V30 7221 C 685.6 -1.46839 -1.42188 0
M  V30 7222 C 685.964 -0.0911433 -1.91784 0
M  V30 7223 O 687.165 0.00137545 -2.688 0
M  V30 7224 C 685.436 -2.48411 -2.56957 0
M  V30 7225 S 686.995 -2.70589 -3.45438 0
M  V30 7226 H 683.813 -0.519596 -0.485325 0
M  V30 7227 H 686.415 -1.80347 -0.75466 0
M  V30 7228 H 685.119 -3.47209 -2.18801 0
M  V30 7229 H 684.65 -2.16411 -3.28527 0
M  V30 7230 H 686.665 -2.00738 -4.53782 0
M  V30 7231 N 685.838 0.888903 -1.30139 0
M  V30 7232 C 687.087 1.63507 -1.18103 0
M  V30 7233 C 687.4 1.93808 0.264141 0
M  V30 7234 O 688.606 2.66744 0.505966 0
M  V30 7235 C 687.062 2.94673 -2.0663 0
M  V30 7236 C 686.67 2.71926 -3.56034 0
M  V30 7237 C 688.414 3.72626 -2.03346 0
M  V30 7238 C 686.321 3.98884 -4.3663 0
M  V30 7239 H 685.251 0.613426 -0.438435 0
M  V30 7240 H 687.902 0.984427 -1.54859 0
M  V30 7241 H 686.284 3.61009 -1.62754 0
M  V30 7242 H 687.458 2.14116 -4.08033 0
M  V30 7243 H 685.773 2.07353 -3.61101 0
M  V30 7244 H 688.37 4.66775 -2.60816 0
M  V30 7245 H 688.713 4.03712 -1.016 0
M  V30 7246 H 689.246 3.13147 -2.45324 0
M  V30 7247 H 685.985 3.72959 -5.39056 0
M  V30 7248 H 685.505 4.56214 -3.89396 0
M  V30 7249 H 687.184 4.66938 -4.47859 0
M  V30 7250 N 687.317 1.12792 1.10072 0
M  V30 7251 C 688.733 0.864745 1.34143 0
M  V30 7252 C 688.933 -0.503201 1.95116 0
M  V30 7253 O 687.989 -1.25111 2.19325 0
M  V30 7254 C 689.302 1.98413 2.25949 0
M  V30 7255 C 690.85 2.01545 2.39476 0
M  V30 7256 C 691.325 3.12727 3.34613 0
M  V30 7257 N 692.816 3.12194 3.42183 0
M  V30 7258 C 693.551 3.94862 4.15779 0
M  V30 7259 N 693.047 4.87528 4.92228 0
M  V30 7260 N 694.84 3.82985 4.11435 0
M  V30 7261 H 686.991 2.00926 0.68866 0
M  V30 7262 H 689.254 0.874564 0.365844 0
M  V30 7263 H 688.96 2.97005 1.88364 0
M  V30 7264 H 688.834 1.89254 3.26287 0
M  V30 7265 H 691.221 1.0357 2.76328 0
M  V30 7266 H 691.302 2.14777 1.3894 0
M  V30 7267 H 690.946 4.10936 2.98486 0
M  V30 7268 H 690.876 2.96732 4.35037 0
M  V30 7269 H 693.367 2.45065 2.87666 0
M  V30 7270 H 693.68 5.47109 5.45794 0
M  V30 7271 H 692.025 4.91539 4.9134 0
M  V30 7272 H 695.216 3.09923 3.50807 0
M  V30 7273 H 695.389 4.47641 4.68531 0
M  V30 7274 N 688.795 -1.27931 0.920396 0
M  V30 7275 C 689.742 -2.27085 0.412422 0
M  V30 7276 C 690.712 -1.57858 -0.516725 0
M  V30 7277 O 691.897 -1.85717 -0.437475 0
M  V30 7278 C 689.037 -3.43466 -0.335399 0
M  V30 7279 C 688.15 -4.27425 0.627017 0
M  V30 7280 C 687.285 -5.31016 -0.139916 0
M  V30 7281 C 686.324 -6.06641 0.815683 0
M  V30 7282 N 685.461 -7.02052 0.0818439 0
M  V30 7283 H 690.301 -2.69913 1.26298 0
M  V30 7284 H 687.838 -1.32732 0.634076 0
M  V30 7285 H 689.796 -4.09744 -0.785226 0
M  V30 7286 H 688.426 -3.01611 -1.15025 0
M  V30 7287 H 687.478 -3.6113 1.19537 0
M  V30 7288 H 688.79 -4.79969 1.35763 0
M  V30 7289 H 687.944 -6.03208 -0.649998 0
M  V30 7290 H 686.683 -4.79257 -0.903543 0
M  V30 7291 H 685.688 -5.33294 1.33708 0
M  V30 7292 H 686.913 -6.60489 1.57897 0
M  V30 7293 H 684.859 -6.52634 -0.663671 0
M  V30 7294 H 684.776 -7.52249 0.752163 0
M  V30 7295 H 686.044 -7.78432 -0.407825 0
M  V30 7296 N 690.273 -0.685099 -1.4193 0
M  V30 7297 C 691.183 -0.013404 -2.34596 0
M  V30 7298 C 692.199 0.777589 -1.55658 0
M  V30 7299 O 693.375 0.717553 -1.88184 0
M  V30 7300 C 690.44 0.919031 -3.34297 0
M  V30 7301 C 689.501 0.121417 -4.29128 0
M  V30 7302 C 688.734 1.00944 -5.24067 0
M  V30 7303 O 688.957 2.24898 -5.24192 0
M  V30 7304 O 687.891 0.464724 -6.00103 0
M  V30 7305 H 691.717 -0.776978 -2.93593 0
M  V30 7306 H 689.302 -0.445379 -1.42607 0
M  V30 7307 H 691.184 1.45402 -3.9552 0
M  V30 7308 H 689.859 1.66228 -2.77759 0
M  V30 7309 H 688.766 -0.45792 -3.71287 0
M  V30 7310 H 690.099 -0.582937 -4.88736 0
M  V30 7311 N 691.751 1.51645 -0.429126 0
M  V30 7312 C 692.681 2.30434 0.377148 0
M  V30 7313 C 693.662 1.35493 1.02838 0
M  V30 7314 O 694.847 1.6441 1.03359 0
M  V30 7315 C 691.977 3.14038 1.48315 0
M  V30 7316 C 690.931 4.1719 0.955855 0
M  V30 7317 C 690.257 4.89263 2.15698 0
M  V30 7318 C 691.557 5.223 -0.00402136 0
M  V30 7319 H 693.251 2.98085 -0.280336 0
M  V30 7320 H 690.797 1.43354 -0.136265 0
M  V30 7321 H 692.75 3.67933 2.05435 0
M  V30 7322 H 691.474 2.44193 2.16881 0
M  V30 7323 H 690.133 3.64335 0.406929 0
M  V30 7324 H 689.781 4.15929 2.82864 0
M  V30 7325 H 689.481 5.59009 1.81059 0
M  V30 7326 H 691.005 5.45978 2.73387 0
M  V30 7327 H 692.419 5.71315 0.476607 0
M  V30 7328 H 690.816 5.99525 -0.26258 0
M  V30 7329 H 691.886 4.75638 -0.943236 0
M  V30 7330 N 693.229 0.160201 1.56784 0
M  V30 7331 C 694.645 -0.196089 1.58391 0
M  V30 7332 C 694.845 -1.63689 1.17508 0
M  V30 7333 O 693.901 -2.36613 0.881506 0
M  V30 7334 C 695.214 0.0746449 3.00607 0
M  V30 7335 C 696.762 0.0119762 3.12998 0
M  V30 7336 C 697.237 0.255551 4.57286 0
M  V30 7337 N 698.728 0.202938 4.62755 0
M  V30 7338 C 699.463 0.365731 5.72232 0
M  V30 7339 N 698.959 0.586972 6.90309 0
M  V30 7340 N 700.752 0.302411 5.61286 0
M  V30 7341 H 692.903 1.1008 1.81648 0
M  V30 7342 H 695.166 0.436779 0.841384 0
M  V30 7343 H 694.872 1.07231 3.34954 0
M  V30 7344 H 694.746 -0.638802 3.71751 0
M  V30 7345 H 697.133 -0.976254 2.78484 0
M  V30 7346 H 697.214 0.75796 2.44313 0
M  V30 7347 H 696.858 1.24094 4.92507 0
M  V30 7348 H 696.788 -0.510912 5.24116 0
M  V30 7349 H 699.279 0.0371328 3.77882 0
M  V30 7350 H 699.592 0.700941 7.69615 0
M  V30 7351 H 697.937 0.623453 6.92198 0
M  V30 7352 H 701.128 0.130238 4.67919 0
M  V30 7353 H 701.301 0.432712 6.46554 0
M  V30 7354 N 694.707 -1.5719 -0.113559 0
M  V30 7355 C 695.947 -1.86958 -0.82621 0
M  V30 7356 C 696.311 -0.748884 -1.76793 0
M  V30 7357 O 697.512 -0.92847 -2.52256 0
M  V30 7358 C 695.783 -3.21957 -1.55173 0
M  V30 7359 S 697.342 -3.73371 -2.3052 0
M  V30 7360 H 694.16 -0.655394 -0.275643 0
M  V30 7361 H 696.762 -1.95318 -0.0842684 0
M  V30 7362 H 695.466 -4.01459 -0.851977 0
M  V30 7363 H 694.997 -3.16688 -2.33393 0
M  V30 7364 H 697.012 -3.45308 -3.56338 0
M  V30 7365 N 696.185 0.383891 -1.52853 0
M  V30 7366 C 697.462 1.14296 -1.58732 0
M  V30 7367 C 697.842 2.07585 -0.383611 0
M  V30 7368 O 697.19 2.1971 0.627661 0
M  V30 7369 C 697.4 1.89816 -2.92867 0
M  V30 7370 C 698.748 2.44998 -3.46787 0
M  V30 7371 O 699.772 1.99966 -2.94774 0
M  V30 7372 O 698.631 3.2727 -4.37672 0
M  V30 7373 H 695.725 0.52326 -0.640413 0
M  V30 7374 H 698.271 0.388631 -1.6519 0
M  V30 7375 H 697.043 1.21626 -3.71918 0
M  V30 7376 H 696.666 2.72199 -2.89816 0
M  V30 7377 N 697.663 1.43903 0.642637 0
M  V30 7378 C 698.911 1.45791 1.39962 0
M  V30 7379 C 699.232 0.0873144 1.94804 0
M  V30 7380 O 698.502 -0.878825 1.75081 0
M  V30 7381 H 697.082 0.536797 0.519479 0
M  V30 7382 H 699.744 1.7959 0.757189 0
M  V30 7383 H 698.84 2.17665 2.2367 0
M  V30 7384 N 699.141 -0.881989 1.30609 0
M  V30 7385 C 700.387 -1.63649 1.20791 0
M  V30 7386 C 700.742 -1.90966 -0.234437 0
M  V30 7387 O 700.035 -1.52163 -1.16434 0
M  V30 7388 C 700.229 -2.97999 1.97311 0
M  V30 7389 C 700.058 -2.83798 3.48839 0
M  V30 7390 C 698.828 -2.83622 4.18195 0
M  V30 7391 C 701.026 -2.59529 4.44015 0
M  V30 7392 N 699.008 -2.60344 5.55962 0
M  V30 7393 C 700.379 -2.45401 5.69366 0
M  V30 7394 C 702.434 -2.44777 4.33576 0
M  V30 7395 C 701.137 -2.18023 6.85462 0
M  V30 7396 C 703.163 -2.18785 5.49443 0
M  V30 7397 C 702.525 -2.05436 6.73777 0
M  V30 7398 H 698.624 -0.603687 0.497077 0
M  V30 7399 H 701.208 -1.03908 1.64655 0
M  V30 7400 H 699.379 -3.55767 1.55834 0
M  V30 7401 H 701.111 -3.6266 1.79611 0
M  V30 7402 H 697.866 -2.95562 3.70054 0
M  V30 7403 H 698.29 -2.51709 6.28468 0
M  V30 7404 H 702.932 -2.53831 3.38126 0
M  V30 7405 H 700.65 -2.07707 7.8095 0
M  V30 7406 H 704.236 -2.08188 5.43276 0
M  V30 7407 H 703.116 -1.85605 7.61919 0
M  V30 7408 N 700.619 -1.13374 -1.09472 0
M  V30 7409 C 701.582 -0.813639 -2.14272 0
M  V30 7410 C 702.582 0.176677 -1.59826 0
M  V30 7411 O 703.772 -0.0503441 -1.74127 0
M  V30 7412 C 700.904 -0.210897 -3.40247 0
M  V30 7413 H 702.097 -1.74229 -2.44099 0
M  V30 7414 H 699.65 -0.938304 -1.25002 0
M  V30 7415 H 700.385 0.726998 -3.16046 0
M  V30 7416 H 700.17 -0.924048 -3.81056 0
M  V30 7417 H 701.66 -0.00377603 -4.176 0
M  V30 7418 N 702.098 1.27442 -0.927168 0
M  V30 7419 C 703.375 1.89473 -0.485742 0
M  V30 7420 C 703.755 1.83922 1.03614 0
M  V30 7421 O 703.103 1.28409 1.89007 0
M  V30 7422 C 703.313 3.33417 -1.03123 0
M  V30 7423 C 704.661 4.10333 -1.0914 0
M  V30 7424 O 705.685 3.4243 -0.98082 0
M  V30 7425 O 704.544 5.31737 -1.26165 0
M  V30 7426 H 701.638 0.812124 -0.156154 0
M  V30 7427 H 704.184 1.35713 -1.01882 0
M  V30 7428 H 702.956 3.31747 -2.07508 0
M  V30 7429 H 702.579 3.94695 -0.479767 0
M  V30 7430 N 703.576 0.692616 1.41565 0
M  V30 7431 C 704.816 0.226453 2.03142 0
M  V30 7432 C 705.18 -1.1512 1.5366 0
M  V30 7433 O 706.381 -1.71305 2.07143 0
M  V30 7434 C 704.652 0.27855 3.56313 0
M  V30 7435 S 706.211 -0.114001 4.38652 0
M  V30 7436 H 703.029 0.0914767 0.705091 0
M  V30 7437 H 705.631 0.909737 1.73043 0
M  V30 7438 H 704.335 1.28325 3.89821 0
M  V30 7439 H 703.866 -0.423981 3.91109 0
M  V30 7440 H 705.881 -1.34256 4.77692 0
M  V30 7441 N 705.054 -1.51416 0.437162 0
M  V30 7442 C 706.282 -2.06503 -0.128045 0
M  V30 7443 C 706.697 -1.30461 -1.36475 0
M  V30 7444 O 706.054 -0.364127 -1.78831 0
M  V30 7445 C 706.105 -3.58683 -0.450437 0
M  V30 7446 O 705.826 -4.31853 0.737186 0
M  V30 7447 C 707.327 -4.30284 -1.06633 0
M  V30 7448 H 704.547 -0.670952 -0.00800269 0
M  V30 7449 H 707.091 -1.94996 0.616193 0
M  V30 7450 H 705.246 -3.70106 -1.14457 0
M  V30 7451 H 705.66 -5.22467 0.461347 0
M  V30 7452 H 707.134 -5.37848 -1.24191 0
M  V30 7453 H 707.611 -3.88564 -2.0473 0
M  V30 7454 H 708.217 -4.23304 -0.411585 0
M  V30 7455 N 706.532 -0.168513 -1.56696 0
M  V30 7456 C 707.809 0.523367 -1.88468 0
M  V30 7457 C 708.189 1.81503 -1.07796 0
M  V30 7458 O 707.537 2.27859 -0.171045 0
M  V30 7459 C 707.747 0.767991 -3.40445 0
M  V30 7460 C 709.095 1.09924 -4.10124 0
M  V30 7461 O 710.119 0.856625 -3.45746 0
M  V30 7462 O 708.978 1.55681 -5.23856 0
M  V30 7463 H 706.072 0.269447 -0.781874 0
M  V30 7464 H 708.618 -0.206739 -1.68436 0
M  V30 7465 H 707.39 -0.145254 -3.9103 0
M  V30 7466 H 707.013 1.55151 -3.66079 0
M  V30 7467 N 708.01 1.57248 0.105221 0
M  V30 7468 C 708.96 1.9777 1.1345 0
M  V30 7469 C 709.944 0.854654 1.36325 0
M  V30 7470 O 711.136 1.11844 1.37186 0
M  V30 7471 C 708.265 2.39717 2.45745 0
M  V30 7472 C 707.351 3.58686 2.26286 0
M  V30 7473 N 707.742 4.73942 1.76671 0
M  V30 7474 C 706.04 3.64586 2.56891 0
M  V30 7475 C 706.741 5.55923 1.71245 0
M  V30 7476 N 705.717 4.98803 2.16093 0
M  V30 7477 H 709.519 2.84336 0.743664 0
M  V30 7478 H 707.033 1.59359 0.312787 0
M  V30 7479 H 709.03 2.66971 3.20206 0
M  V30 7480 H 707.69 1.54523 2.85574 0
M  V30 7481 H 708.701 4.9689 1.46016 0
M  V30 7482 H 705.378 2.90031 3.00314 0
M  V30 7483 H 706.768 6.58398 1.34022 0
M  V30 7484 N 709.488 -0.375779 1.53054 0
M  V30 7485 C 710.713 -1.14484 1.7294 0
M  V30 7486 C 711.138 -1.82572 0.452668 0
M  V30 7487 O 710.496 -1.71343 -0.592567 0
M  V30 7488 C 710.544 -2.15857 2.88857 0
M  V30 7489 O 709.648 -3.22725 2.56753 0
M  V30 7490 H 708.989 -0.332666 0.574656 0
M  V30 7491 H 711.519 -0.436025 1.999 0
M  V30 7492 H 711.529 -2.59631 3.14731 0
M  V30 7493 H 710.204 -1.65689 3.81471 0
M  V30 7494 H 708.781 -2.83996 2.41663 0
M  V30 7495 N 710.966 -1.44241 -0.634997 0
M  V30 7496 C 712.243 -1.37296 -1.39317 0
M  V30 7497 C 712.623 -0.0297532 -2.11079 0
M  V30 7498 O 711.971 0.987524 -2.06059 0
M  V30 7499 C 712.181 -2.56853 -2.36279 0
M  V30 7500 C 713.529 -3.00747 -2.99728 0
M  V30 7501 O 714.553 -2.5703 -2.46605 0
M  V30 7502 O 713.412 -3.76533 -3.96087 0
M  V30 7503 H 710.506 -0.543503 -0.623325 0
M  V30 7504 H 713.052 -1.56324 -0.660376 0
M  V30 7505 H 711.824 -3.46228 -1.82324 0
M  V30 7506 H 711.447 -2.40019 -3.16981 0
M  V30 7507 N 712.444 0.87505 -1.31075 0
M  V30 7508 C 713.354 2.01441 -1.20244 0
M  V30 7509 C 714.37 1.73584 -0.120227 0
M  V30 7510 O 715.546 1.98559 -0.337063 0
M  V30 7511 C 712.611 3.34675 -0.905199 0
M  V30 7512 C 711.672 3.75889 -2.0738 0
M  V30 7513 C 710.905 5.02764 -1.79064 0
M  V30 7514 O 711.128 5.65795 -0.723318 0
M  V30 7515 O 710.062 5.40623 -2.64594 0
M  V30 7516 H 713.888 2.13509 -2.1598 0
M  V30 7517 H 711.473 1.00257 -1.10765 0
M  V30 7518 H 713.355 4.1458 -0.755057 0
M  V30 7519 H 712.03 3.23692 0.0221695 0
M  V30 7520 H 710.937 2.96645 -2.27931 0
M  V30 7521 H 712.27 3.91489 -2.98324 0
M  V30 7522 N 713.922 1.13953 1.08869 0
M  V30 7523 C 714.852 0.844824 2.17681 0
M  V30 7524 C 715.833 -0.198213 1.68941 0
M  V30 7525 O 717.018 -0.0559073 1.9412 0
M  V30 7526 C 714.148 0.316325 3.45856 0
M  V30 7527 C 713.102 1.29426 4.07962 0
M  V30 7528 C 712.428 0.625275 5.31031 0
M  V30 7529 C 713.728 2.65484 4.49795 0
M  V30 7530 H 715.422 1.75471 2.42591 0
M  V30 7531 H 712.968 0.845116 1.16592 0
M  V30 7532 H 714.921 0.0977876 4.21287 0
M  V30 7533 H 713.645 -0.628972 3.20486 0
M  V30 7534 H 712.304 1.49889 3.34558 0
M  V30 7535 H 711.952 -0.325678 5.01945 0
M  V30 7536 H 711.652 1.27777 5.73539 0
M  V30 7537 H 713.176 0.416152 6.0918 0
M  V30 7538 H 714.59 2.48957 5.16424 0
M  V30 7539 H 712.987 3.26963 5.03205 0
M  V30 7540 H 714.057 3.22717 3.61914 0
M  V30 7541 N 715.4 -1.26948 0.933913 0
M  V30 7542 C 716.348 -2.2862 0.428463 0
M  V30 7543 C 717.342 -1.62144 -0.490464 0
M  V30 7544 O 718.548 -1.76167 -0.36948 0
M  V30 7545 H 714.923 -0.742363 0.120003 0
M  V30 7546 H 716.894 -2.68659 1.29865 0
M  V30 7547 C 715.643 -3.46423 -0.29774 0
M  V30 7548 H 714.966 -3.97792 0.400183 0
M  V30 7549 H 716.406 -4.19505 -0.615736 0
M  V30 7550 C 714.865 -3.01017 -1.51295 0
M  V30 7551 O 715.395 -3.05226 -2.61151 0
M  V30 7552 N 713.601 -2.56442 -1.36696 0
M  V30 7553 H 713.148 -2.53217 -0.473178 0
M  V30 7554 H 713.106 -2.26424 -2.18127 0
M  V30 7555 N 716.879 -0.700114 -1.41195 0
M  V30 7556 C 718.119 -0.237223 -2.03019 0
M  V30 7557 C 718.483 1.14304 -1.54268 0
M  V30 7558 O 719.684 1.70204 -2.08048 0
M  V30 7559 C 717.955 -0.297442 -3.5616 0
M  V30 7560 S 719.514 0.0907367 -4.38706 0
M  V30 7561 H 716.332 -0.0952147 -0.704596 0
M  V30 7562 H 718.934 -0.918901 -1.72559 0
M  V30 7563 H 717.638 -1.30391 -3.89135 0
M  V30 7564 H 717.169 0.403233 -3.91328 0
M  V30 7565 H 719.184 1.31721 -4.78397 0
M  V30 7566 N 718.357 1.51182 -0.445186 0
M  V30 7567 C 719.582 2.07056 0.119445 0
M  V30 7568 C 720.007 1.30966 1.35016 0
M  V30 7569 O 719.365 0.349827 1.77893 0
M  V30 7570 C 719.413 3.58234 0.412428 0
M  V30 7571 O 718.517 3.84249 1.49754 0
M  V30 7572 H 717.858 0.663998 -0.00157797 0
M  V30 7573 H 720.388 1.94699 -0.628779 0
M  V30 7574 H 720.398 4.02617 0.660583 0
M  V30 7575 H 719.073 4.13038 -0.487049 0
M  V30 7576 H 717.65 3.51724 1.23873 0
M  V30 7577 N 719.835 0.176821 1.56605 0
M  V30 7578 C 721.075 -0.469104 1.98944 0
M  V30 7579 C 721.439 -1.60048 1.06059 0
M  V30 7580 O 722.64 -2.30934 1.3756 0
M  V30 7581 C 720.911 -0.934571 3.44965 0
M  V30 7582 S 722.47 -1.58091 4.09332 0
M  V30 7583 H 719.288 -0.150695 0.694847 0
M  V30 7584 H 721.89 0.27558 1.93548 0
M  V30 7585 H 720.594 -0.100814 4.10276 0
M  V30 7586 H 720.125 -1.71316 3.54139 0
M  V30 7587 H 722.14 -2.86922 4.04834 0
M  V30 7588 N 721.313 -1.57302 -0.09688 0
M  V30 7589 C 722.59 -1.7701 -0.832272 0
M  V30 7590 C 722.97 -0.758025 -1.97021 0
M  V30 7591 O 722.318 0.213824 -2.27497 0
M  V30 7592 C 722.528 -3.22725 -1.32851 0
M  V30 7593 C 723.876 -3.85856 -1.772 0
M  V30 7594 O 724.9 -3.26464 -1.42478 0
M  V30 7595 O 723.759 -4.90295 -2.41398 0
M  V30 7596 H 720.853 -0.725558 -0.396856 0
M  V30 7597 H 723.399 -1.69516 -0.0789005 0
M  V30 7598 H 722.171 -3.87921 -0.51312 0
M  V30 7599 H 721.794 -3.34845 -2.14394 0
M  V30 7600 N 722.791 0.367657 -1.53252 0
M  V30 7601 C 723.754 1.43308 -1.78873 0
M  V30 7602 C 724.754 1.46671 -0.659115 0
M  V30 7603 O 725.944 1.47468 -0.927306 0
M  V30 7604 C 723.076 2.82442 -1.90892 0
M  V30 7605 H 724.269 1.21864 -2.74024 0
M  V30 7606 H 721.822 0.600668 -1.44297 0
M  V30 7607 H 722.557 3.09202 -0.978 0
M  V30 7608 H 722.342 2.81399 -2.73051 0
M  V30 7609 H 723.832 3.59601 -2.12314 0
M  V30 7610 N 724.269 1.44576 0.627338 0
M  V30 7611 C 725.517 1.47267 1.38408 0
M  V30 7612 C 725.838 0.107971 1.94701 0
M  V30 7613 O 725.108 -0.860206 1.76004 0
M  V30 7614 H 723.688 0.542276 0.513756 0
M  V30 7615 H 726.35 1.80383 0.738099 0
M  V30 7616 H 725.446 2.20025 2.21349 0
M  V30 7617 N 725.747 -0.868086 1.31537 0
M  V30 7618 C 726.697 -1.96321 1.1594 0
M  V30 7619 C 727.681 -1.60748 0.0698962 0
M  V30 7620 O 728.873 -1.74524 0.295011 0
M  V30 7621 C 726.002 -3.32073 0.870789 0
M  V30 7622 C 725.088 -3.73907 2.00136 0
M  V30 7623 N 725.479 -3.87685 3.24859 0
M  V30 7624 C 723.777 -4.03433 1.90152 0
M  V30 7625 C 724.478 -4.23454 3.98825 0
M  V30 7626 N 723.454 -4.34242 3.27009 0
M  V30 7627 H 727.256 -2.05088 2.10514 0
M  V30 7628 H 724.77 -1.059 1.23122 0
M  V30 7629 H 726.767 -4.10279 0.740034 0
M  V30 7630 H 725.427 -3.24631 -0.0667068 0
M  V30 7631 H 726.438 -3.72363 3.59953 0
M  V30 7632 H 723.115 -4.0437 1.03879 0
M  V30 7633 H 724.505 -4.41696 5.06314 0
M  V30 7634 N 727.225 -1.14528 -1.08264 0
M  V30 7635 C 728.157 -0.791325 -2.15106 0
M  V30 7636 C 729.17 0.192449 -1.61659 0
M  V30 7637 O 730.359 -0.0294704 -1.78476 0
M  V30 7638 C 727.459 -0.154183 -3.38549 0
M  V30 7639 C 726.632 -1.17305 -4.21377 0
M  V30 7640 C 725.691 -0.559401 -5.23218 0
M  V30 7641 O 724.717 -1.22277 -5.55911 0
M  V30 7642 N 725.919 0.663159 -5.767 0
M  V30 7643 H 728.684 -1.71076 -2.46075 0
M  V30 7644 H 726.245 -1.0399 -1.24087 0
M  V30 7645 H 728.237 0.268884 -4.03806 0
M  V30 7646 H 726.807 0.668418 -3.0537 0
M  V30 7647 H 726.027 -1.773 -3.52077 0
M  V30 7648 H 727.315 -1.86128 -4.73533 0
M  V30 7649 H 726.713 1.22066 -5.52373 0
M  V30 7650 H 725.27 1.02871 -6.43631 0
M  V30 7651 N 728.703 1.26451 -0.940633 0
M  V30 7652 C 729.95 1.93778 -0.587909 0
M  V30 7653 C 730.278 1.73811 0.872935 0
M  V30 7654 O 729.533 1.06816 1.63978 0
M  V30 7655 C 729.832 3.46503 -0.875794 0
M  V30 7656 C 729.498 3.86609 -2.32043 0
M  V30 7657 C 728.16 3.97269 -2.71534 0
M  V30 7658 C 730.512 4.0672 -3.25927 0
M  V30 7659 C 727.84 4.25436 -4.04006 0
M  V30 7660 C 730.192 4.36375 -4.57995 0
M  V30 7661 C 728.856 4.45249 -4.97302 0
M  V30 7662 H 728.126 0.709084 -0.215131 0
M  V30 7663 H 730.773 1.50272 -1.18704 0
M  V30 7664 H 729.078 3.91319 -0.194124 0
M  V30 7665 H 730.775 3.96759 -0.581665 0
M  V30 7666 H 727.365 3.78858 -2.00411 0
M  V30 7667 H 731.549 3.97912 -2.96614 0
M  V30 7668 H 726.805 4.30519 -4.34124 0
M  V30 7669 H 730.979 4.50882 -5.30734 0
M  V30 7670 H 728.606 4.66829 -5.99979 0
M  V30 7671 N 730.181 0.707592 1.40822 0
M  V30 7672 C 731.409 0.253073 2.05346 0
M  V30 7673 C 731.824 -1.10218 1.53289 0
M  V30 7674 O 731.181 -1.69112 0.686105 0
M  V30 7675 C 731.232 0.215411 3.60858 0
M  V30 7676 O 730.953 1.51714 4.10992 0
M  V30 7677 C 732.454 -0.258636 4.42545 0
M  V30 7678 H 729.674 0.115256 0.661027 0
M  V30 7679 H 732.218 0.963555 1.80377 0
M  V30 7680 H 730.373 -0.445978 3.84824 0
M  V30 7681 H 730.787 1.41226 5.05129 0
M  V30 7682 H 732.261 -0.233849 5.51504 0
M  V30 7683 H 732.738 -1.2995 4.19535 0
M  V30 7684 H 733.344 0.372186 4.23668 0
M  V30 7685 N 731.66 -1.50943 0.453197 0
M  V30 7686 C 732.9 -2.0412 -0.106894 0
M  V30 7687 C 733.264 -1.32895 -1.38575 0
M  V30 7688 O 734.465 -1.76529 -2.02709 0
M  V30 7689 C 732.736 -3.561 -0.304565 0
M  V30 7690 S 734.295 -4.3096 -0.825784 0
M  V30 7691 H 731.113 -0.710581 -0.0243969 0
M  V30 7692 H 733.715 -1.85534 0.616239 0
M  V30 7693 H 732.419 -4.055 0.632277 0
M  V30 7694 H 731.95 -3.79009 -1.05433 0
M  V30 7695 H 733.965 -4.49503 -2.10147 0
M  V30 7696 N 733.138 -0.185124 -1.56509 0
M  V30 7697 C 734.085 0.739729 -2.18624 0
M  V30 7698 C 735.055 1.217 -1.13042 0
M  V30 7699 O 736.24 1.28268 -1.41251 0
M  V30 7700 C 733.38 1.95787 -2.84186 0
M  V30 7701 C 732.493 1.52289 -4.04267 0
M  V30 7702 C 731.628 2.69576 -4.57714 0
M  V30 7703 C 730.667 2.22636 -5.70175 0
M  V30 7704 N 729.804 3.33065 -6.18071 0
M  V30 7705 H 734.644 0.203269 -2.97306 0
M  V30 7706 H 732.181 0.0885946 -1.46833 0
M  V30 7707 H 734.139 2.67253 -3.20361 0
M  V30 7708 H 732.769 2.4678 -2.08085 0
M  V30 7709 H 731.821 0.704458 -3.7382 0
M  V30 7710 H 733.133 1.13843 -4.85635 0
M  V30 7711 H 732.287 3.4918 -4.96143 0
M  V30 7712 H 731.026 3.1129 -3.75433 0
M  V30 7713 H 730.031 1.41483 -5.31284 0
M  V30 7714 H 731.256 1.81964 -6.54267 0
M  V30 7715 H 729.202 3.74328 -5.38715 0
M  V30 7716 H 729.119 2.98756 -6.94464 0
M  V30 7717 H 730.387 4.12912 -6.61153 0
M  V30 7718 N 734.616 1.57351 0.0885366 0
M  V30 7719 C 735.564 2.03542 1.12576 0
M  V30 7720 C 736.558 0.937668 1.41082 0
M  V30 7721 O 737.764 1.12283 1.40686 0
M  V30 7722 H 734.139 0.648752 0.380296 0
M  V30 7723 H 736.11 2.89833 0.709906 0
M  V30 7724 C 734.859 2.4811 2.43591 0
M  V30 7725 H 734.182 3.32164 2.22502 0
M  V30 7726 H 735.622 2.842 3.14653 0
M  V30 7727 C 734.081 1.35708 3.08359 0
M  V30 7728 O 734.611 0.689852 3.95732 0
M  V30 7729 N 732.817 1.10641 2.68713 0
M  V30 7730 H 732.364 1.6508 1.97753 0
M  V30 7731 H 732.322 0.356355 3.12374 0
M  V30 7732 N 736.094 -0.359525 1.53444 0
M  V30 7733 C 737.041 -1.44073 1.8031 0
M  V30 7734 C 738.011 -1.52946 0.647811 0
M  V30 7735 O 739.196 -1.68739 0.890614 0
M  V30 7736 C 736.336 -2.80941 2.00416 0
M  V30 7737 C 735.449 -2.80986 3.28132 0
M  V30 7738 C 734.584 -4.09468 3.38393 0
M  V30 7739 C 733.623 -4.03679 4.60119 0
M  V30 7740 N 732.76 -5.23821 4.675 0
M  V30 7741 H 737.6 -1.20464 2.72566 0
M  V30 7742 H 735.137 -0.583859 1.35017 0
M  V30 7743 H 737.095 -3.60459 2.1006 0
M  V30 7744 H 735.725 -3.02936 1.11489 0
M  V30 7745 H 734.777 -1.93666 3.27411 0
M  V30 7746 H 736.089 -2.72583 4.17732 0
M  V30 7747 H 735.243 -4.97404 3.47382 0
M  V30 7748 H 733.982 -4.20632 2.4682 0
M  V30 7749 H 732.987 -3.14129 4.51224 0
M  V30 7750 H 734.212 -3.94112 5.5304 0
M  V30 7751 H 732.158 -5.35559 3.7883 0
M  V30 7752 H 732.075 -5.17611 5.51013 0
M  V30 7753 H 733.343 -6.13572 4.8078 0
M  V30 7754 N 737.572 -1.44907 -0.619662 0
M  V30 7755 C 738.819 -1.48292 -1.37898 0
M  V30 7756 C 739.147 -0.119933 -1.9413 0
M  V30 7757 O 738.402 0.879834 -1.74807 0
M  V30 7758 C 738.701 -2.50002 -2.55409 0
M  V30 7759 C 738.367 -3.95031 -2.17397 0
M  V30 7760 C 737.029 -4.34524 -2.06743 0
M  V30 7761 C 739.381 -4.86287 -1.87548 0
M  V30 7762 C 736.709 -5.63183 -1.64445 0
M  V30 7763 C 739.061 -6.15346 -1.4674 0
M  V30 7764 C 737.725 -6.53781 -1.34636 0
M  V30 7765 H 736.995 -0.542638 -0.504603 0
M  V30 7766 H 739.642 -1.78186 -0.701581 0
M  V30 7767 H 737.947 -2.13634 -3.28433 0
M  V30 7768 H 739.644 -2.49864 -3.13639 0
M  V30 7769 H 736.234 -3.63793 -2.26611 0
M  V30 7770 H 740.418 -4.56522 -1.94682 0
M  V30 7771 H 735.674 -5.91769 -1.53687 0
M  V30 7772 H 739.848 -6.85508 -1.22685 0
M  V30 7773 H 737.475 -7.53375 -1.01634 0
M  V30 7774 N 739.05 0.861098 -1.31996 0
M  V30 7775 C 740.29 1.62873 -1.23498 0
M  V30 7776 C 740.654 1.90938 0.201692 0
M  V30 7777 O 741.855 2.6565 0.410305 0
M  V30 7778 C 740.126 2.91759 -2.06426 0
M  V30 7779 S 741.685 3.82583 -2.14885 0
M  V30 7780 H 738.503 0.558726 -0.439712 0
M  V30 7781 H 741.105 1.02025 -1.66767 0
M  V30 7782 H 739.809 2.69077 -3.0988 0
M  V30 7783 H 739.34 3.57627 -1.6391 0
M  V30 7784 H 741.355 4.7904 -1.29364 0
M  V30 7785 N 740.528 1.15101 1.07655 0
M  V30 7786 C 741.475 0.844958 2.14777 0
M  V30 7787 C 742.445 -0.200798 1.64882 0
M  V30 7788 O 743.63 -0.0690278 1.90675 0
M  V30 7789 C 740.77 0.337018 3.4345 0
M  V30 7790 C 739.883 1.44398 4.07153 0
M  V30 7791 C 739.018 0.892487 5.23649 0
M  V30 7792 C 738.057 1.9766 5.79307 0
M  V30 7793 N 737.194 1.44171 6.87138 0
M  V30 7794 H 742.034 1.76242 2.40297 0
M  V30 7795 H 739.571 0.879435 1.17917 0
M  V30 7796 H 741.529 0.024256 4.17193 0
M  V30 7797 H 740.159 -0.543531 3.18191 0
M  V30 7798 H 739.211 1.87299 3.31094 0
M  V30 7799 H 740.523 2.26262 4.4453 0
M  V30 7800 H 739.677 0.532083 6.04362 0
M  V30 7801 H 738.416 0.0429854 4.87681 0
M  V30 7802 H 737.421 2.34586 4.97242 0
M  V30 7803 H 738.646 2.82982 6.17331 0
M  V30 7804 H 736.592 0.614518 6.53115 0
M  V30 7805 H 736.509 2.19665 7.23383 0
M  V30 7806 H 737.777 1.10945 7.71564 0
M  V30 7807 N 742.006 -1.2595 0.947325 0
M  V30 7808 C 743.417 -1.75389 0.639963 0
M  V30 7809 C 743.768 -1.77081 -0.844788 0
M  V30 7810 O 742.893 -1.3869 -1.66114 0
M  V30 7811 C 743.488 -3.18506 1.15496 0
M  V30 7812 C 742.047 -3.65534 0.897894 0
M  V30 7813 C 741.194 -2.44818 1.30228 0
M  V30 7814 H 744.145 -1.1194 1.12495 0
M  V30 7815 H 744.166 -3.77045 0.511627 0
M  V30 7816 H 743.678 -3.17243 2.23559 0
M  V30 7817 H 741.779 -3.72221 -0.168096 0
M  V30 7818 H 741.892 -4.54039 1.52922 0
M  V30 7819 H 740.256 -2.44291 0.720678 0
M  V30 7820 H 741.039 -2.46251 2.39198 0
M  V30 7821 N 743.484 -0.715051 -1.40445 0
M  V30 7822 C 744.414 -0.0768699 -2.33373 0
M  V30 7823 C 745.395 0.746109 -1.52863 0
M  V30 7824 O 746.58 0.695142 -1.81332 0
M  V30 7825 C 743.71 0.846014 -3.36838 0
M  V30 7826 C 742.664 0.128694 -4.27806 0
M  V30 7827 C 741.99 1.16726 -5.21804 0
M  V30 7828 C 743.29 -1.01679 -5.12307 0
M  V30 7829 H 744.984 -0.853061 -2.8699 0
M  V30 7830 H 742.53 -0.41167 -1.3799 0
M  V30 7831 H 744.483 1.30185 -4.00786 0
M  V30 7832 H 743.207 1.6541 -2.81615 0
M  V30 7833 H 741.866 -0.307314 -3.6531 0
M  V30 7834 H 741.514 1.96838 -4.62887 0
M  V30 7835 H 741.214 0.692188 -5.83509 0
M  V30 7836 H 742.738 1.62321 -5.88629 0
M  V30 7837 H 744.152 -0.640337 -5.69713 0
M  V30 7838 H 742.549 -1.4202 -5.83053 0
M  V30 7839 H 743.619 -1.84769 -4.48317 0
M  V30 7840 N 744.962 1.50701 -0.461195 0
M  V30 7841 C 746.209 2.02267 0.0971971 0
M  V30 7842 C 746.537 1.34387 1.40608 0
M  V30 7843 O 745.792 0.455254 1.90331 0
M  V30 7844 C 746.091 3.55788 0.33908 0
M  V30 7845 C 745.757 4.42092 -0.886885 0
M  V30 7846 C 744.419 4.65398 -1.22304 0
M  V30 7847 C 746.771 4.92571 -1.70361 0
M  V30 7848 C 744.099 5.36429 -2.37616 0
M  V30 7849 C 746.451 5.64868 -2.84793 0
M  V30 7850 C 745.115 5.86431 -3.18834 0
M  V30 7851 H 744.385 0.740146 0.0355669 0
M  V30 7852 H 747.032 1.81415 -0.61326 0
M  V30 7853 H 745.337 3.751 1.13168 0
M  V30 7854 H 747.034 3.93243 0.784937 0
M  V30 7855 H 743.624 4.24165 -0.614981 0
M  V30 7856 H 747.808 4.74428 -1.4571 0
M  V30 7857 H 743.064 5.51333 -2.64276 0
M  V30 7858 H 747.238 6.02966 -3.48432 0
M  V30 7859 H 744.865 6.41248 -4.08296 0
M  V30 7860 N 746.441 0.193421 1.56409 0
M  V30 7861 C 747.687 -0.43983 1.98588 0
M  V30 7862 C 748.042 -1.59353 1.07816 0
M  V30 7863 O 747.335 -1.9121 0.122226 0
M  V30 7864 C 747.529 -0.949718 3.44551 0
M  V30 7865 C 747.358 0.153045 4.49439 0
M  V30 7866 C 746.128 0.610119 5.01603 0
M  V30 7867 C 748.326 0.961397 5.05234 0
M  V30 7868 N 746.308 1.69088 5.90155 0
M  V30 7869 C 747.679 1.8916 5.90439 0
M  V30 7870 C 749.734 1.004 4.87672 0
M  V30 7871 C 748.437 2.86086 6.5996 0
M  V30 7872 C 750.463 1.96131 5.57931 0
M  V30 7873 C 749.825 2.87895 6.42881 0
M  V30 7874 H 745.924 -0.128415 0.771384 0
M  V30 7875 H 748.508 0.29873 1.92395 0
M  V30 7876 H 746.679 -1.65772 3.51246 0
M  V30 7877 H 748.411 -1.55344 3.73698 0
M  V30 7878 H 745.166 0.203771 4.73161 0
M  V30 7879 H 745.59 2.23241 6.39134 0
M  V30 7880 H 750.232 0.308536 4.21673 0
M  V30 7881 H 747.95 3.56609 7.25159 0
M  V30 7882 H 751.536 2.00066 5.46319 0
M  V30 7883 H 750.416 3.60763 6.9629 0
M  V30 7884 N 747.919 -1.57396 -0.0801906 0
M  V30 7885 C 749.165 -1.87113 -0.782083 0
M  V30 7886 C 749.498 -0.78458 -1.77646 0
M  V30 7887 O 748.773 0.205993 -1.93406 0
M  V30 7888 C 749.056 -3.27483 -1.49756 0
M  V30 7889 C 748.909 -4.46782 -0.520171 0
M  V30 7890 C 750.228 -3.65965 -2.44454 0
M  V30 7891 H 747.347 -0.680559 -0.282858 0
M  V30 7892 H 749.989 -1.89946 -0.0454139 0
M  V30 7893 H 748.139 -3.25199 -2.12551 0
M  V30 7894 H 749.811 -4.61187 0.101919 0
M  V30 7895 H 748.054 -4.33485 0.165219 0
M  V30 7896 H 748.725 -5.41761 -1.05824 0
M  V30 7897 H 751.201 -3.69289 -1.91742 0
M  V30 7898 H 750.077 -4.65086 -2.91524 0
M  V30 7899 H 750.338 -2.95446 -3.28883 0
M  V30 7900 N 749.397 0.351382 -1.53633 0
M  V30 7901 C 750.637 1.10102 -1.72212 0
M  V30 7902 C 751.001 1.86128 -0.471198 0
M  V30 7903 O 752.202 2.63445 -0.533887 0
M  V30 7904 C 750.473 2.02348 -2.94602 0
M  V30 7905 S 752.032 2.84641 -3.33954 0
M  V30 7906 H 748.85 0.372145 -0.60583 0
M  V30 7907 H 751.452 0.38044 -1.91763 0
M  V30 7908 H 750.156 1.45283 -3.83824 0
M  V30 7909 H 749.687 2.78856 -2.77493 0
M  V30 7910 H 751.702 4.04724 -2.87076 0
M  V30 7911 N 750.875 1.45233 0.611969 0
M  V30 7912 C 752.152 1.39495 1.37115 0
M  V30 7913 C 752.532 0.0633303 2.11005 0
M  V30 7914 O 751.88 -0.954617 2.07604 0
M  V30 7915 C 752.09 2.60579 2.32163 0
M  V30 7916 C 753.438 3.05477 2.94905 0
M  V30 7917 O 754.462 2.60921 2.42485 0
M  V30 7918 O 753.321 3.82787 3.90047 0
M  V30 7919 H 750.415 0.55335 0.614599 0
M  V30 7920 H 752.961 1.57355 0.635423 0
M  V30 7921 H 751.733 3.49085 1.76793 0
M  V30 7922 H 751.356 2.45031 3.13122 0
M  V30 7923 N 752.353 -0.854086 1.3245 0
M  V30 7924 C 753.578 -1.64597 1.26185 0
M  V30 7925 C 754.003 -1.87357 -0.167074 0
M  V30 7926 O 753.361 -1.42675 -1.11864 0
M  V30 7927 C 753.409 -2.98213 2.02734 0
M  V30 7928 O 752.513 -3.88784 1.37554 0
M  V30 7929 H 751.854 -0.50179 0.434859 0
M  V30 7930 H 754.384 -1.06372 1.74775 0
M  V30 7931 H 754.394 -3.4803 2.1293 0
M  V30 7932 H 753.069 -2.80969 3.06642 0
M  V30 7933 H 751.646 -3.4725 1.3591 0
M  V30 7934 N 753.831 -1.1567 -1.07043 0
M  V30 7935 C 755.077 -0.9349 -1.79965 0
M  V30 7936 C 755.41 0.536464 -1.86643 0
M  V30 7937 O 754.685 1.39781 -1.35247 0
M  V30 7938 C 754.968 -1.55371 -3.24857 0
M  V30 7939 C 754.821 -3.09589 -3.26305 0
M  V30 7940 C 756.14 -1.24209 -4.22209 0
M  V30 7941 H 753.259 -0.341061 -0.653335 0
M  V30 7942 H 755.901 -1.42883 -1.25237 0
M  V30 7943 H 754.051 -1.13368 -3.71591 0
M  V30 7944 H 755.723 -3.60521 -2.87789 0
M  V30 7945 H 753.966 -3.43315 -2.65174 0
M  V30 7946 H 754.637 -3.48002 -4.28484 0
M  V30 7947 H 757.113 -1.60548 -3.8388 0
M  V30 7948 H 755.989 -1.70119 -5.21872 0
M  V30 7949 H 756.25 -0.15964 -4.41812 0
M  V30 7950 N 755.309 1.25446 -0.953992 0
M  V30 7951 C 756.257 2.27909 -0.46478 0
M  V30 7952 C 757.251 1.62904 0.464607 0
M  V30 7953 O 758.457 1.76733 0.341407 0
M  V30 7954 H 754.832 0.74036 -0.131798 0
M  V30 7955 H 756.803 2.66559 -1.34122 0
M  V30 7956 C 755.552 3.46853 0.242589 0
M  V30 7957 H 754.875 3.97105 -0.463418 0
M  V30 7958 H 756.315 4.20432 0.548919 0
M  V30 7959 C 754.774 3.03386 1.46487 0
M  V30 7960 O 755.304 3.09342 2.56262 0
M  V30 7961 N 753.51 2.58584 1.32599 0
M  V30 7962 H 753.057 2.53938 0.432834 0
M  V30 7963 H 753.015 2.29866 2.14497 0
M  V30 7964 N 756.787 0.722489 1.40064 0
M  V30 7965 C 758.064 0.191829 1.94657 0
M  V30 7966 C 758.444 -1.30389 1.66018 0
M  V30 7967 O 757.792 -2.06342 0.981588 0
M  V30 7968 C 758.002 0.511978 3.45224 0
M  V30 7969 C 759.35 0.454426 4.22161 0
M  V30 7970 O 760.374 0.448438 3.53366 0
M  V30 7971 O 759.233 0.437986 5.44742 0
M  V30 7972 H 756.327 0.0307821 0.826427 0
M  V30 7973 H 758.873 0.800493 1.49634 0
M  V30 7974 H 757.645 1.54622 3.59455 0
M  V30 7975 H 757.268 -0.126296 3.97399 0
M  V30 7976 N 758.265 -1.50454 0.469181 0
M  V30 7977 C 759.505 -2.04222 -0.0852381 0
M  V30 7978 C 759.869 -1.34357 -1.37158 0
M  V30 7979 O 761.07 -1.78669 -2.00825 0
M  V30 7980 C 759.341 -3.56403 -0.266778 0
M  V30 7981 S 760.9 -4.31811 -0.780028 0
M  V30 7982 H 757.718 -0.7108 -0.0168589 0
M  V30 7983 H 760.32 -1.8487 0.635883 0
M  V30 7984 H 759.024 -4.04807 0.67525 0
M  V30 7985 H 758.555 -3.80106 -1.01407 0
M  V30 7986 H 760.57 -4.51706 -2.05368 0
M  V30 7987 N 759.743 -0.201713 -1.56304 0
M  V30 7988 C 760.991 0.434447 -1.97375 0
M  V30 7989 C 761.312 1.61692 -1.08998 0
M  V30 7990 O 760.582 1.95223 -0.162682 0
M  V30 7991 H 759.162 0.163497 -0.728888 0
M  V30 7992 H 761.824 -0.289988 -1.92731 0
M  V30 7993 H 760.92 0.774136 -3.02347 0
M  V30 7994 N 761.222 1.57436 0.0718424 0
M  V30 7995 C 762.499 1.78312 0.804006 0
M  V30 7996 C 762.879 0.789273 1.9579 0
M  V30 7997 O 762.227 -0.177605 2.27809 0
M  V30 7998 C 762.437 3.24798 1.277 0
M  V30 7999 C 763.785 3.88627 1.71039 0
M  V30 8000 O 764.809 3.28689 1.37266 0
M  V30 8001 O 763.668 4.94073 2.33567 0
M  V30 8002 H 760.762 0.73178 0.385262 0
M  V30 8003 H 763.308 1.69621 0.0519219 0
M  V30 8004 H 762.08 3.88688 0.45134 0
M  V30 8005 H 761.703 3.38213 2.0904 0
M  V30 8006 N 762.7 -0.34323 1.53817 0
M  V30 8007 C 763.648 -1.44176 1.82527 0
M  V30 8008 C 764.642 -1.54452 0.695772 0
M  V30 8009 O 765.848 -1.57072 0.879114 0
M  V30 8010 H 762.223 -0.480729 0.578277 0
M  V30 8011 H 764.194 -1.17176 2.74431 0
M  V30 8012 C 762.943 -2.80695 2.05197 0
M  V30 8013 H 762.266 -2.73554 2.91561 0
M  V30 8014 H 763.706 -3.56679 2.29251 0
M  V30 8015 C 762.165 -3.26322 0.837589 0
M  V30 8016 O 762.695 -4.01683 0.0371631 0
M  V30 8017 N 760.901 -2.83128 0.654724 0
M  V30 8018 H 760.448 -2.21965 1.30725 0
M  V30 8019 H 760.406 -3.14011 -0.156345 0
M  V30 8020 N 764.178 -1.45556 -0.604258 0
M  V30 8021 C 765.403 -1.53509 -1.39462 0
M  V30 8022 C 765.828 -0.169638 -1.87333 0
M  V30 8023 O 765.186 0.846346 -1.60333 0
M  V30 8024 C 765.234 -2.52654 -2.5729 0
M  V30 8025 O 764.338 -2.04666 -3.5803 0
M  V30 8026 H 763.679 -0.517355 -0.416221 0
M  V30 8027 H 766.209 -1.90939 -0.735072 0
M  V30 8028 H 766.219 -2.71568 -3.04491 0
M  V30 8029 H 764.894 -3.51823 -2.21797 0
M  V30 8030 H 763.471 -1.95643 -3.17456 0
M  V30 8031 N 765.656 0.84705 -1.32902 0
M  V30 8032 C 766.933 1.58583 -1.14503 0
M  V30 8033 C 767.313 2.09075 0.291724 0
M  V30 8034 O 766.661 1.88636 1.28952 0
M  V30 8035 C 766.871 2.72605 -2.17916 0
M  V30 8036 C 768.219 3.41993 -2.51646 0
M  V30 8037 O 769.243 2.82838 -2.1652 0
M  V30 8038 O 768.102 4.48761 -3.1189 0
M  V30 8039 H 765.196 0.698756 -0.442345 0
M  V30 8040 H 767.742 0.890516 -1.44457 0
M  V30 8041 H 766.514 2.32876 -3.14459 0
M  V30 8042 H 766.137 3.49807 -1.89 0
M  V30 8043 N 767.134 1.16236 1.06428 0
M  V30 8044 C 768.044 0.881976 2.1739 0
M  V30 8045 C 769.06 -0.145259 1.73393 0
M  V30 8046 O 770.236 0.0310558 2.01376 0
M  V30 8047 C 767.301 0.385496 3.4455 0
M  V30 8048 C 766.362 1.47779 4.03063 0
M  V30 8049 C 765.595 1.0049 5.24154 0
M  V30 8050 O 765.818 -0.145889 5.70213 0
M  V30 8051 O 764.752 1.79265 5.74585 0
M  V30 8052 H 768.578 1.80983 2.43883 0
M  V30 8053 H 766.163 0.942226 1.15942 0
M  V30 8054 H 768.045 0.115536 4.21242 0
M  V30 8055 H 766.72 -0.514369 3.19587 0
M  V30 8056 H 765.627 1.80147 3.27869 0
M  V30 8057 H 766.96 2.35291 4.32318 0
M  V30 8058 N 768.612 -1.24939 0.960631 0
M  V30 8059 C 769.544 -2.24879 0.442937 0
M  V30 8060 C 770.557 -1.56615 -0.444464 0
M  V30 8061 O 771.746 -1.76715 -0.251776 0
M  V30 8062 C 768.846 -3.36757 -0.380537 0
M  V30 8063 C 768.019 -4.34587 0.495283 0
M  V30 8064 C 767.078 -5.25502 -0.270995 0
M  V30 8065 O 766.104 -5.68227 0.332661 0
M  V30 8066 N 767.306 -5.59077 -1.56249 0
M  V30 8067 H 770.071 -2.69932 1.30218 0
M  V30 8068 H 767.632 -1.38907 0.83166 0
M  V30 8069 H 769.624 -3.94542 -0.90103 0
M  V30 8070 H 768.194 -2.91045 -1.14067 0
M  V30 8071 H 767.414 -3.75593 1.19682 0
M  V30 8072 H 768.702 -4.96925 1.09285 0
M  V30 8073 H 768.1 -5.2628 -2.07476 0
M  V30 8074 H 766.657 -6.19421 -2.02882 0
M  V30 8075 N 770.09 -0.729906 -1.39679 0
M  V30 8076 C 771.338 -0.275077 -2.00219 0
M  V30 8077 C 771.659 1.1401 -1.58199 0
M  V30 8078 O 770.929 1.77546 -0.827904 0
M  V30 8079 H 769.509 -0.0987127 -0.740449 0
M  V30 8080 H 772.171 -0.93873 -1.70804 0
M  V30 8081 H 771.267 -0.319446 -3.10461 0
M  V30 8082 N 771.568 1.50203 -0.477153 0
M  V30 8083 C 772.808 2.04265 0.0744065 0
M  V30 8084 C 773.172 1.35082 1.36443 0
M  V30 8085 O 774.373 1.79732 1.99875 0
M  V30 8086 C 772.644 3.56539 0.247874 0
M  V30 8087 S 774.203 4.32219 0.757117 0
M  V30 8088 H 771.021 0.71088 0.0130891 0
M  V30 8089 H 773.623 1.8453 -0.645678 0
M  V30 8090 H 772.327 4.04443 -0.696709 0
M  V30 8091 H 771.858 3.80638 0.993896 0
M  V30 8092 H 773.873 4.52789 2.0297 0
M  V30 8093 N 773.046 0.209999 1.56195 0
M  V30 8094 C 774.271 -0.433064 2.02828 0
M  V30 8095 C 774.696 -1.5337 1.08901 0
M  V30 8096 O 774.054 -1.81144 0.0751132 0
M  V30 8097 C 774.102 -0.952635 3.47789 0
M  V30 8098 O 773.206 -2.0647 3.56993 0
M  V30 8099 H 772.547 -0.0994594 0.656509 0
M  V30 8100 H 775.077 0.32525 2.01998 0
M  V30 8101 H 775.087 -1.26542 3.8788 0
M  V30 8102 H 773.762 -0.147007 4.1564 0
M  V30 8103 H 772.339 -1.75942 3.28784 0
M  V30 8104 N 774.524 -1.57472 -0.0634922 0
M  V30 8105 C 775.764 -1.89491 -0.766312 0
M  V30 8106 C 776.128 -0.80475 -1.74321 0
M  V30 8107 O 777.329 -1.00825 -2.49174 0
M  V30 8108 C 775.6 -3.26731 -1.44851 0
M  V30 8109 S 777.159 -3.80516 -2.18525 0
M  V30 8110 H 773.977 -0.663832 -0.254653 0
M  V30 8111 H 776.579 -1.95488 -0.0220867 0
M  V30 8112 H 775.283 -4.03967 -0.723824 0
M  V30 8113 H 774.814 -3.23953 -2.232 0
M  V30 8114 H 776.829 -3.5647 -3.45172 0
M  V30 8115 N 776.003 0.335068 -1.53997 0
M  V30 8116 C 777.414 0.910191 -1.6301 0
M  V30 8117 C 777.765 1.89271 -0.516809 0
M  V30 8118 O 776.89 2.13516 0.352123 0
M  V30 8119 C 777.485 1.65761 -2.9548 0
M  V30 8120 C 776.044 2.18163 -3.06728 0
M  V30 8121 C 775.191 1.00338 -2.5851 0
M  V30 8122 H 778.142 0.112965 -1.58297 0
M  V30 8123 H 778.163 2.52107 -2.84995 0
M  V30 8124 H 777.675 0.94227 -3.76488 0
M  V30 8125 H 775.776 2.92847 -2.30372 0
M  V30 8126 H 775.889 2.43952 -4.1234 0
M  V30 8127 H 774.253 1.37925 -2.14124 0
M  V30 8128 H 775.036 0.30254 -3.41964 0
M  V30 8129 N 777.481 1.45874 0.596531 0
M  V30 8130 C 778.444 1.54988 1.68853 0
M  V30 8131 C 779.444 0.428302 1.54991 0
M  V30 8132 O 780.634 0.692158 1.59859 0
M  V30 8133 C 777.766 1.457 3.08195 0
M  V30 8134 H 778.959 2.52294 1.62135 0
M  V30 8135 H 776.512 1.33479 0.813206 0
M  V30 8136 H 777.247 0.496204 3.20481 0
M  V30 8137 H 777.032 2.27061 3.19665 0
M  V30 8138 H 778.522 1.55133 3.87716 0
M  V30 8139 N 778.959 -0.83999 1.33349 0
M  V30 8140 C 779.891 -1.95678 1.19344 0
M  V30 8141 C 780.904 -1.62322 0.124692 0
M  V30 8142 O 782.093 -1.74516 0.375012 0
M  V30 8143 C 779.193 -3.29133 0.807771 0
M  V30 8144 C 778.366 -3.9063 1.96792 0
M  V30 8145 C 777.425 -5.02438 1.56341 0
M  V30 8146 O 776.451 -5.21646 2.27759 0
M  V30 8147 N 777.653 -5.78612 0.467767 0
M  V30 8148 H 780.418 -2.08229 2.15548 0
M  V30 8149 H 777.979 -1.01566 1.26079 0
M  V30 8150 H 779.971 -4.01355 0.519282 0
M  V30 8151 H 778.541 -3.12535 -0.063555 0
M  V30 8152 H 777.761 -3.11011 2.4221 0
M  V30 8153 H 779.049 -4.2845 2.74422 0
M  V30 8154 H 778.447 -5.65559 -0.126324 0
M  V30 8155 H 777.004 -6.51362 0.238945 0
M  V30 8156 N 780.437 -1.16799 -1.0581 0
M  V30 8157 C 781.665 -0.97687 -1.82387 0
M  V30 8158 C 782.08 0.474917 -1.82729 0
M  V30 8159 O 781.437 1.3297 -1.25001 0
M  V30 8160 C 781.488 -1.50279 -3.28783 0
M  V30 8161 O 781.209 -2.89772 -3.28578 0
M  V30 8162 C 782.71 -1.35538 -4.22071 0
M  V30 8163 H 779.93 -0.345977 -0.574927 0
M  V30 8164 H 782.474 -1.54942 -1.33466 0
M  V30 8165 H 780.629 -0.972414 -3.74997 0
M  V30 8166 H 781.043 -3.13954 -4.20159 0
M  V30 8167 H 782.517 -1.7716 -5.22799 0
M  V30 8168 H 782.994 -0.301598 -4.38163 0
M  V30 8169 H 783.6 -1.87562 -3.81708 0
M  V30 8170 N 781.915 1.24427 -0.967243 0
M  V30 8171 C 783.162 1.92487 -0.62888 0
M  V30 8172 C 783.49 1.75623 0.835871 0
M  V30 8173 O 782.745 1.1027 1.61675 0
M  V30 8174 C 783.044 3.44568 -0.949096 0
M  V30 8175 C 782.71 3.816 -2.40192 0
M  V30 8176 C 781.372 3.9142 -2.799 0
M  V30 8177 C 783.724 3.99715 -3.34481 0
M  V30 8178 C 781.052 4.16771 -4.12939 0
M  V30 8179 C 783.404 4.26562 -4.67148 0
M  V30 8180 C 782.068 4.34601 -5.06634 0
M  V30 8181 H 781.338 0.704361 -0.230124 0
M  V30 8182 H 783.985 1.4772 -1.21864 0
M  V30 8183 H 782.29 3.90819 -0.277085 0
M  V30 8184 H 783.987 3.95436 -0.665692 0
M  V30 8185 H 780.577 3.74522 -2.08402 0
M  V30 8186 H 784.761 3.91531 -3.04987 0
M  V30 8187 H 780.017 4.21214 -4.43158 0
M  V30 8188 H 784.191 4.39523 -5.40178 0
M  V30 8189 H 781.818 4.53998 -6.09746 0
M  V30 8190 N 783.393 0.737304 1.3929 0
M  V30 8191 C 784.809 0.413132 1.5416 0
M  V30 8192 C 785.009 -1.07574 1.70382 0
M  V30 8193 O 784.065 -1.86185 1.70562 0
M  V30 8194 C 785.378 1.19817 2.75798 0
M  V30 8195 C 786.926 1.18662 2.89635 0
M  V30 8196 C 787.401 1.95427 4.14213 0
M  V30 8197 N 788.892 1.92605 4.21257 0
M  V30 8198 C 789.627 2.48808 5.16606 0
M  V30 8199 N 789.123 3.13659 6.1773 0
M  V30 8200 N 790.916 2.38829 5.08839 0
M  V30 8201 H 783.067 1.70243 1.27008 0
M  V30 8202 H 785.33 0.720802 0.61575 0
M  V30 8203 H 785.036 2.25179 2.70161 0
M  V30 8204 H 784.91 0.804144 3.68529 0
M  V30 8205 H 787.297 0.141112 2.94762 0
M  V30 8206 H 787.378 1.62003 1.97961 0
M  V30 8207 H 787.022 2.9998 4.09847 0
M  V30 8208 H 786.952 1.4949 5.04936 0
M  V30 8209 H 789.443 1.45362 3.48824 0
M  V30 8210 H 789.756 3.54006 6.8695 0
M  V30 8211 H 788.101 3.17749 6.1811 0
M  V30 8212 H 791.292 1.87806 4.28773 0
M  V30 8213 H 791.465 2.82929 5.82971 0
M  V30 8214 N 784.871 -1.49948 0.485112 0
M  V30 8215 C 786.111 -2.04301 -0.0635728 0
M  V30 8216 C 786.475 -1.35804 -1.35725 0
M  V30 8217 O 787.676 -1.80789 -1.98919 0
M  V30 8218 C 785.947 -3.56666 -0.228962 0
M  V30 8219 S 787.506 -4.32614 -0.734185 0
M  V30 8220 H 784.324 -0.710939 -0.00931895 0
M  V30 8221 H 786.926 -1.84185 0.655455 0
M  V30 8222 H 785.63 -4.04068 0.718148 0
M  V30 8223 H 785.161 -3.8116 -0.973696 0
M  V30 8224 H 787.176 -4.53859 -2.00565 0
M  V30 8225 N 786.349 -0.21828 -1.56081 0
M  V30 8226 C 787.574 0.422302 -2.03055 0
M  V30 8227 C 787.999 1.5279 -1.09713 0
M  V30 8228 O 787.357 1.81102 -0.0847187 0
M  V30 8229 C 787.405 0.934177 -3.48289 0
M  V30 8230 O 786.509 2.04574 -3.58083 0
M  V30 8231 H 785.85 0.0959764 -0.657027 0
M  V30 8232 H 788.38 -0.335958 -2.01823 0
M  V30 8233 H 788.39 1.24484 -3.88546 0
M  V30 8234 H 787.065 0.124963 -4.15712 0
M  V30 8235 H 785.642 1.74196 -3.29712 0
M  V30 8236 N 787.827 1.57504 0.0551401 0
M  V30 8237 C 788.775 2.05884 1.08233 0
M  V30 8238 C 789.769 0.967383 1.39061 0
M  V30 8239 O 790.975 1.15242 1.38273 0
M  V30 8240 H 787.35 0.656673 0.366449 0
M  V30 8241 H 789.321 2.91273 0.648269 0
M  V30 8242 C 788.07 2.53221 2.38273 0
M  V30 8243 H 787.393 3.36809 2.15406 0
M  V30 8244 H 788.833 2.9081 3.08554 0
M  V30 8245 C 787.292 1.42218 3.05411 0
M  V30 8246 O 787.822 0.773638 3.9418 0
M  V30 8247 N 786.028 1.16316 2.66306 0
M  V30 8248 H 785.575 1.69237 1.94207 0
M  V30 8249 H 785.533 0.422534 3.11548 0
M  V30 8250 N 789.305 -0.326896 1.54172 0
M  V30 8251 C 790.553 -1.06313 1.71878 0
M  V30 8252 C 790.874 -1.88652 0.493498 0
M  V30 8253 O 790.144 -1.89608 -0.492522 0
M  V30 8254 H 788.724 -0.39549 0.633716 0
M  V30 8255 H 791.386 -0.364139 1.91468 0
M  V30 8256 H 790.482 -1.73105 2.59694 0
M  V30 8257 N 790.784 -1.46188 -0.588786 0
M  V30 8258 C 791.731 -1.56292 -1.69828 0
M  V30 8259 C 792.701 -0.407581 -1.61022 0
M  V30 8260 O 793.886 -0.623532 -1.80324 0
M  V30 8261 C 791.026 -1.55341 -3.08161 0
M  V30 8262 C 790.139 -2.81564 -3.27636 0
M  V30 8263 C 789.274 -2.72158 -4.56183 0
M  V30 8264 C 788.313 -3.93348 -4.68981 0
M  V30 8265 N 787.45 -3.82365 -5.88848 0
M  V30 8266 H 792.29 -2.51066 -1.6053 0
M  V30 8267 H 789.827 -1.24562 -0.782474 0
M  V30 8268 H 791.785 -1.52776 -3.88221 0
M  V30 8269 H 790.415 -0.641034 -3.16371 0
M  V30 8270 H 789.467 -2.94136 -2.41223 0
M  V30 8271 H 790.779 -3.714 -3.32962 0
M  V30 8272 H 789.933 -2.67665 -5.44464 0
M  V30 8273 H 788.672 -1.79953 -4.53286 0
M  V30 8274 H 787.677 -3.98181 -3.7912 0
M  V30 8275 H 788.902 -4.86643 -4.73662 0
M  V30 8276 H 786.848 -2.92942 -5.86959 0
M  V30 8277 H 786.765 -4.65851 -5.95415 0
M  V30 8278 H 788.033 -3.81836 -6.79575 0
M  V30 8279 N 792.262 0.832906 -1.33792 0
M  V30 8280 C 793.502 1.60217 -1.26925 0
M  V30 8281 C 793.866 1.91323 0.161146 0
M  V30 8282 O 795.067 2.66461 0.353864 0
M  V30 8283 C 793.338 2.87314 -2.12568 0
M  V30 8284 S 794.897 3.77939 -2.22952 0
M  V30 8285 H 791.715 0.549273 -0.451464 0
M  V30 8286 H 794.317 0.984648 -1.68893 0
M  V30 8287 H 793.021 2.62444 -3.15518 0
M  V30 8288 H 792.552 3.5407 -1.71459 0
M  V30 8289 H 794.567 4.76188 -1.39496 0
M  V30 8290 N 793.74 1.17359 1.05189 0
M  V30 8291 C 794.67 0.91365 2.14883 0
M  V30 8292 C 795.651 -0.144365 1.69486 0
M  V30 8293 O 796.836 0.00587861 1.94199 0
M  V30 8294 C 793.966 0.426196 3.44675 0
M  V30 8295 C 792.92 1.4234 4.03638 0
M  V30 8296 C 792.246 0.793902 5.28773 0
M  V30 8297 C 793.546 2.7966 4.41121 0
M  V30 8298 H 795.24 1.831 2.36885 0
M  V30 8299 H 792.786 0.881781 1.13845 0
M  V30 8300 H 794.739 0.231767 4.20762 0
M  V30 8301 H 793.463 -0.526693 3.22325 0
M  V30 8302 H 792.122 1.60457 3.2962 0
M  V30 8303 H 791.77 -0.165824 5.02727 0
M  V30 8304 H 791.47 1.45959 5.69183 0
M  V30 8305 H 792.994 0.609747 6.07548 0
M  V30 8306 H 794.408 2.6526 5.08242 0
M  V30 8307 H 792.805 3.42807 4.92548 0
M  V30 8308 H 793.875 3.34068 3.51464 0
M  V30 8309 N 795.218 -1.23913 0.973828 0
M  V30 8310 C 796.443 -1.96735 0.656511 0
M  V30 8311 C 796.868 -1.71682 -0.768571 0
M  V30 8312 O 796.226 -0.984267 -1.52256 0
M  V30 8313 C 796.274 -3.48004 0.944735 0
M  V30 8314 O 795.378 -4.12387 0.0333357 0
M  V30 8315 H 794.719 -0.616119 0.247575 0
M  V30 8316 H 797.249 -1.57525 1.30564 0
M  V30 8317 H 797.259 -3.98424 0.87876 0
M  V30 8318 H 795.934 -3.65567 1.98328 0
M  V30 8319 H 794.511 -3.72585 0.153157 0
M  V30 8320 N 796.696 -0.74468 -1.38897 0
M  V30 8321 C 797.643 -0.111064 -2.30533 0
M  V30 8322 C 798.613 0.719276 -1.49719 0
M  V30 8323 O 799.798 0.677244 -1.78376 0
M  V30 8324 C 796.938 0.78292 -3.36102 0
M  V30 8325 C 796.051 -0.0610817 -4.31957 0
M  V30 8326 C 795.186 0.835075 -5.24595 0
M  V30 8327 C 794.225 -0.0130974 -6.12099 0
M  V30 8328 N 793.362 0.839525 -6.97063 0
M  V30 8329 H 798.202 -0.898113 -2.84144 0
M  V30 8330 H 795.739 -0.454537 -1.39901 0
M  V30 8331 H 797.697 1.31578 -3.95908 0
M  V30 8332 H 796.327 1.53585 -2.83922 0
M  V30 8333 H 795.379 -0.711469 -3.73687 0
M  V30 8334 H 796.691 -0.716482 -4.93627 0
M  V30 8335 H 795.845 1.43542 -5.89475 0
M  V30 8336 H 794.584 1.52423 -4.63269 0
M  V30 8337 H 793.589 -0.626179 -5.46223 0
M  V30 8338 H 794.814 -0.699181 -6.75491 0
M  V30 8339 H 792.76 1.5138 -6.38295 0
M  V30 8340 H 792.677 0.240823 -7.55616 0
M  V30 8341 H 793.945 1.42513 -7.66362 0
M  V30 8342 N 798.174 1.49689 -0.493057 0
M  V30 8343 C 799.399 2.07331 0.0535114 0
M  V30 8344 C 799.824 1.35196 1.30781 0
M  V30 8345 O 799.182 0.406246 1.7669 0
M  V30 8346 C 799.23 3.59364 0.29825 0
M  V30 8347 O 798.334 3.88819 1.37454 0
M  V30 8348 H 797.675 0.663612 -0.0227018 0
M  V30 8349 H 800.205 1.926 -0.690402 0
M  V30 8350 H 800.215 4.04515 0.532159 0
M  V30 8351 H 798.89 4.1128 -0.618207 0
M  V30 8352 H 797.467 3.55487 1.12621 0
M  V30 8353 N 799.652 0.226554 1.55963 0
M  V30 8354 C 800.584 -0.713907 2.17798 0
M  V30 8355 C 801.597 -1.15387 1.14846 0
M  V30 8356 O 802.786 -1.08416 1.41804 0
M  V30 8357 C 799.886 -1.97945 2.75084 0
M  V30 8358 C 799.059 -1.69424 4.03255 0
M  V30 8359 C 798.118 -2.80734 4.45056 0
M  V30 8360 O 797.144 -2.4899 5.11852 0
M  V30 8361 N 798.346 -4.09797 4.11152 0
M  V30 8362 H 801.111 -0.18494 2.99129 0
M  V30 8363 H 798.672 0.0457346 1.61835 0
M  V30 8364 H 800.664 -2.71611 3.00016 0
M  V30 8365 H 799.234 -2.41876 1.98027 0
M  V30 8366 H 798.454 -0.793767 3.86126 0
M  V30 8367 H 799.742 -1.47806 4.86858 0
M  V30 8368 H 799.14 -4.38429 3.57486 0
M  V30 8369 H 797.697 -4.79992 4.40966 0
M  V30 8370 N 801.13 -1.57531 -0.0467866 0
M  V30 8371 C 802.062 -2.02156 -1.08007 0
M  V30 8372 C 803.075 -0.931434 -1.33522 0
M  V30 8373 O 804.264 -1.209 -1.31321 0
M  V30 8374 C 801.364 -2.36675 -2.42566 0
M  V30 8375 C 800.537 -3.67848 -2.36658 0
M  V30 8376 C 799.596 -3.89754 -3.53523 0
M  V30 8377 O 798.622 -4.61036 -3.33818 0
M  V30 8378 N 799.824 -3.34025 -4.74771 0
M  V30 8379 H 802.589 -2.91414 -0.699845 0
M  V30 8380 H 800.15 -1.60185 -0.235041 0
M  V30 8381 H 802.142 -2.48482 -3.19435 0
M  V30 8382 H 800.712 -1.53178 -2.72498 0
M  V30 8383 H 799.932 -3.66561 -1.45005 0
M  V30 8384 H 801.22 -4.53931 -2.29835 0
M  V30 8385 H 800.618 -2.76214 -4.93683 0
M  V30 8386 H 799.175 -3.51241 -5.49066 0
M  V30 8387 N 802.608 0.318715 -1.54344 0
M  V30 8388 C 803.848 1.06425 -1.74508 0
M  V30 8389 C 804.212 1.85087 -0.510572 0
M  V30 8390 O 805.413 2.62253 -0.589647 0
M  V30 8391 C 803.684 1.96054 -2.98827 0
M  V30 8392 S 805.243 2.77493 -3.39916 0
M  V30 8393 H 802.061 0.35921 -0.613587 0
M  V30 8394 H 804.663 0.339679 -1.92526 0
M  V30 8395 H 803.367 1.37109 -3.8682 0
M  V30 8396 H 802.898 2.72908 -2.83346 0
M  V30 8397 H 804.913 3.98544 -2.95596 0
M  V30 8398 N 804.086 1.46499 0.581025 0
M  V30 8399 C 805.034 1.57562 1.71105 0
M  V30 8400 C 806.028 0.44403 1.63477 0
M  V30 8401 O 807.234 0.620964 1.6895 0
M  V30 8402 H 803.609 0.495415 0.565746 0
M  V30 8403 H 805.58 2.5257 1.58905 0
M  V30 8404 C 804.329 1.58465 3.0949 0
M  V30 8405 H 803.652 2.44877 3.16031 0
M  V30 8406 H 805.092 1.70261 3.88313 0
M  V30 8407 C 803.551 0.313596 3.35437 0
M  V30 8408 O 804.081 -0.595456 3.97262 0
M  V30 8409 N 802.287 0.200986 2.89904 0
M  V30 8410 H 801.834 0.941643 2.39773 0
M  V30 8411 H 801.792 -0.648577 3.07638 0
M  V30 8412 N 805.565 -0.825799 1.34232 0
M  V30 8413 C 806.813 -1.57873 1.26177 0
M  V30 8414 C 807.134 -1.94267 -0.168904 0
M  V30 8415 O 806.404 -1.62045 -1.10084 0
M  V30 8416 H 804.984 -0.585388 0.464037 0
M  V30 8417 H 807.646 -0.986163 1.6811 0
M  V30 8418 H 806.742 -2.50283 1.86453 0
M  V30 8419 N 807.043 -1.17915 -1.04565 0
M  V30 8420 C 807.99 -0.901605 -2.12461 0
M  V30 8421 C 808.96 0.157011 -1.65356 0
M  V30 8422 O 810.145 0.0184494 -1.90791 0
M  V30 8423 C 807.285 -0.42796 -3.42436 0
M  V30 8424 C 806.398 -1.55142 -4.03181 0
M  V30 8425 C 805.533 -1.03101 -5.21098 0
M  V30 8426 C 804.572 -2.1295 -5.73863 0
M  V30 8427 N 803.709 -1.62339 -6.83074 0
M  V30 8428 H 808.549 -1.82551 -2.3554 0
M  V30 8429 H 806.086 -0.910389 -1.15544 0
M  V30 8430 H 808.044 -0.134859 -4.16982 0
M  V30 8431 H 806.674 0.458977 -3.1952 0
M  V30 8432 H 805.726 -1.96011 -3.26012 0
M  V30 8433 H 807.038 -2.37968 -4.38375 0
M  V30 8434 H 806.192 -0.692132 -6.02739 0
M  V30 8435 H 804.931 -0.17227 -4.87396 0
M  V30 8436 H 803.936 -2.47687 -4.90847 0
M  V30 8437 H 805.161 -2.9925 -6.09611 0
M  V30 8438 H 803.107 -0.787464 -6.51256 0
M  V30 8439 H 803.024 -2.38767 -7.17305 0
M  V30 8440 H 804.292 -1.31363 -7.68351 0
M  V30 8441 N 808.521 1.23394 -0.980386 0
M  V30 8442 C 809.798 1.87242 -0.565667 0
M  V30 8443 C 810.178 1.88151 0.957197 0
M  V30 8444 O 809.526 1.36309 1.8339 0
M  V30 8445 C 809.736 3.28743 -1.17172 0
M  V30 8446 C 811.084 4.05335 -1.26446 0
M  V30 8447 O 812.108 3.37962 -1.12517 0
M  V30 8448 O 810.967 5.25908 -1.48604 0
M  V30 8449 H 808.061 0.80477 -0.190459 0
M  V30 8450 H 810.607 1.3127 -1.07547 0
M  V30 8451 H 809.379 3.22647 -2.21392 0
M  V30 8452 H 809.002 3.92305 -0.646739 0
M  V30 8453 N 809.999 0.752036 1.385 0
M  V30 8454 C 811.276 0.233075 1.94206 0
M  V30 8455 C 811.656 -1.26838 1.68746 0
M  V30 8456 O 811.004 -2.04214 1.02513 0
M  V30 8457 C 811.214 0.58509 3.44061 0
M  V30 8458 C 812.562 0.543871 4.21102 0
M  V30 8459 O 813.586 0.523291 3.52335 0
M  V30 8460 O 812.445 0.553436 5.4369 0
M  V30 8461 H 809.539 0.0483049 0.825588 0
M  V30 8462 H 812.085 0.832053 1.47902 0
M  V30 8463 H 810.857 1.62212 3.56094 0
M  V30 8464 H 810.48 -0.0419738 3.97578 0
M  V30 8465 N 811.477 -1.49425 0.500989 0
M  V30 8466 C 812.717 -2.04357 -0.0419004 0
M  V30 8467 C 813.081 -1.37236 -1.34277 0
M  V30 8468 O 814.282 -1.82889 -1.9699 0
M  V30 8469 C 812.553 -3.56889 -0.19112 0
M  V30 8470 S 814.112 -4.33369 -0.688259 0
M  V30 8471 H 810.93 -0.710998 -0.00177796 0
M  V30 8472 H 813.532 -1.83479 0.674953 0
M  V30 8473 H 812.236 -4.03283 0.760964 0
M  V30 8474 H 811.767 -3.82171 -0.933214 0
M  V30 8475 H 813.782 -4.55961 -1.9574 0
M  V30 8476 N 812.955 -0.234822 -1.55841 0
M  V30 8477 C 814.203 0.392483 -1.98252 0
M  V30 8478 C 814.524 1.59344 -1.12404 0
M  V30 8479 O 813.794 1.94834 -0.204055 0
M  V30 8480 H 812.374 0.147999 -0.732192 0
M  V30 8481 H 815.036 -0.330804 -1.92072 0
M  V30 8482 H 814.132 0.709829 -3.03921 0
M  V30 8483 N 814.433 1.57553 0.0384317 0
M  V30 8484 C 815.71 1.79977 0.766002 0
M  V30 8485 C 816.09 0.830625 1.94072 0
M  V30 8486 O 815.438 -0.129243 2.28134 0
M  V30 8487 C 815.648 3.27434 1.20781 0
M  V30 8488 C 816.996 3.92167 1.62758 0
M  V30 8489 O 818.02 3.31527 1.30263 0
M  V30 8490 O 816.879 4.98917 2.23035 0
M  V30 8491 H 813.973 0.739787 0.369654 0
M  V30 8492 H 816.519 1.69693 0.0159312 0
M  V30 8493 H 815.291 3.89558 0.368792 0
M  V30 8494 H 814.914 3.42571 2.01819 0
M  V30 8495 N 815.911 -0.310526 1.54511 0
M  V30 8496 C 817.159 -1.04484 1.72996 0
M  V30 8497 C 817.48 -1.88118 0.513479 0
M  V30 8498 O 816.75 -1.90119 -0.472384 0
M  V30 8499 H 815.33 -0.388747 0.637875 0
M  V30 8500 H 817.992 -0.343811 1.91844 0
M  V30 8501 H 817.088 -1.70341 2.61515 0
M  V30 8502 N 817.389 -1.46805 -0.573248 0
M  V30 8503 C 818.614 -1.56433 -1.36175 0
M  V30 8504 C 819.039 -0.209336 -1.86932 0
M  V30 8505 O 818.397 0.812146 -1.62092 0
M  V30 8506 C 818.445 -2.58055 -2.51873 0
M  V30 8507 O 817.549 -2.12214 -3.53609 0
M  V30 8508 H 816.89 -0.526068 -0.405153 0
M  V30 8509 H 819.42 -1.92456 -0.694405 0
M  V30 8510 H 819.43 -2.77966 -2.98662 0
M  V30 8511 H 818.105 -3.56448 -2.14284 0
M  V30 8512 H 816.682 -2.02333 -3.13234 0
M  V30 8513 N 818.867 0.818669 -1.34668 0
M  V30 8514 C 820.144 1.56118 -1.17841 0
M  V30 8515 C 820.524 2.09646 0.24731 0
M  V30 8516 O 819.872 1.91329 1.24922 0
M  V30 8517 C 820.082 2.67922 -2.23649 0
M  V30 8518 C 821.43 3.36579 -2.58843 0
M  V30 8519 O 822.454 2.78182 -2.22471 0
M  V30 8520 O 821.313 4.42045 -3.21339 0
M  V30 8521 H 818.407 0.689216 -0.457067 0
M  V30 8522 H 820.953 0.859674 -1.46314 0
M  V30 8523 H 819.725 2.26153 -3.19328 0
M  V30 8524 H 819.348 3.45719 -1.96377 0
M  V30 8525 N 820.346 1.18468 1.03938 0
M  V30 8526 C 821.256 0.927889 2.1547 0
M  V30 8527 C 822.272 -0.108447 1.73662 0
M  V30 8528 O 823.448 0.0737636 2.01265 0
M  V30 8529 C 820.513 0.458494 3.43655 0
M  V30 8530 C 819.574 1.56295 3.99838 0
M  V30 8531 C 818.807 1.11586 5.21904 0
M  V30 8532 O 819.03 -0.0249057 5.70395 0
M  V30 8533 O 817.964 1.91412 5.70653 0
M  V30 8534 H 821.79 1.86116 2.39989 0
M  V30 8535 H 819.375 0.966607 1.13917 0
M  V30 8536 H 821.257 0.204861 4.20902 0
M  V30 8537 H 819.932 -0.446464 3.20606 0
M  V30 8538 H 818.839 1.87061 3.23974 0
M  V30 8539 H 820.172 2.44408 4.2723 0
M  V30 8540 N 821.824 -1.22873 0.986916 0
M  V30 8541 C 822.787 -2.2281 0.537442 0
M  V30 8542 C 823.787 -1.56331 -0.37646 0
M  V30 8543 O 824.977 -1.73376 -0.169247 0
M  V30 8544 C 822.109 -3.40195 -0.219082 0
M  V30 8545 H 823.302 -2.64089 1.42116 0
M  V30 8546 H 820.855 -1.35819 0.773488 0
M  V30 8547 H 821.59 -3.04381 -1.11905 0
M  V30 8548 H 821.375 -3.89657 0.437026 0
M  V30 8549 H 822.865 -4.14326 -0.521926 0
M  V30 8550 N 823.302 -0.75937 -1.38099 0
M  V30 8551 C 824.527 -0.327859 -2.04792 0
M  V30 8552 C 824.952 1.03752 -1.56899 0
M  V30 8553 O 824.31 1.66235 -0.723581 0
M  V30 8554 C 824.358 -0.366264 -3.58735 0
M  V30 8555 O 823.462 0.637697 -4.0744 0
M  V30 8556 H 822.803 -0.144092 -0.648177 0
M  V30 8557 H 825.333 -1.03211 -1.7666 0
M  V30 8558 H 825.343 -0.219179 -4.07411 0
M  V30 8559 H 824.018 -1.36243 -3.92951 0
M  V30 8560 H 822.595 0.454749 -3.70117 0
M  V30 8561 N 824.78 1.49157 -0.508906 0
M  V30 8562 C 826.02 2.04376 0.0310623 0
M  V30 8563 C 826.384 1.37946 1.33547 0
M  V30 8564 O 827.585 1.83931 1.96017 0
M  V30 8565 C 825.856 3.56985 0.172191 0
M  V30 8566 S 827.415 4.33728 0.665267 0
M  V30 8567 H 824.233 0.710997 -0.00199266 0
M  V30 8568 H 826.835 1.83119 -0.684674 0
M  V30 8569 H 825.539 4.02874 -0.78234 0
M  V30 8570 H 825.07 3.82661 0.912933 0
M  V30 8571 H 827.085 4.56992 1.9332 0
M  V30 8572 N 826.258 0.243083 1.55714 0
M  V30 8573 C 827.669 -0.260788 1.8487 0
M  V30 8574 C 828.02 -1.57879 1.16485 0
M  V30 8575 O 827.145 -2.1184 0.441908 0
M  V30 8576 C 827.74 -0.479954 3.35383 0
M  V30 8577 C 826.299 -0.928096 3.64778 0
M  V30 8578 C 825.446 -0.00316416 2.773 0
M  V30 8579 H 828.397 0.465743 1.51712 0
M  V30 8580 H 828.418 -1.32308 3.56756 0
M  V30 8581 H 827.93 0.479468 3.85127 0
M  V30 8582 H 826.031 -1.90012 3.20509 0
M  V30 8583 H 826.144 -0.7876 4.72582 0
M  V30 8584 H 824.508 -0.513849 2.49463 0
M  V30 8585 H 825.291 0.951562 3.29849 0
M  V30 8586 N 827.736 -1.57571 -0.0300757 0
M  V30 8587 C 828.683 -2.06492 -1.03101 0
M  V30 8588 C 829.653 -0.953862 -1.3598 0
M  V30 8589 O 830.838 -1.22436 -1.46335 0
M  V30 8590 C 827.978 -2.54826 -2.32718 0
M  V30 8591 C 827.091 -3.79718 -2.06006 0
M  V30 8592 C 826.226 -4.16668 -3.29487 0
M  V30 8593 C 825.265 -5.3448 -2.98324 0
M  V30 8594 N 824.402 -5.66867 -4.14254 0
M  V30 8595 H 829.242 -2.91755 -0.606877 0
M  V30 8596 H 826.779 -1.44252 -0.288038 0
M  V30 8597 H 828.737 -2.80916 -3.08451 0
M  V30 8598 H 827.367 -1.72481 -2.72856 0
M  V30 8599 H 826.419 -3.60718 -1.20774 0
M  V30 8600 H 827.731 -4.65569 -1.79017 0
M  V30 8601 H 826.885 -4.43881 -4.13588 0
M  V30 8602 H 825.624 -3.29466 -3.59588 0
M  V30 8603 H 824.629 -5.07021 -2.12625 0
M  V30 8604 H 825.854 -6.23334 -2.69502 0
M  V30 8605 H 823.8 -4.82625 -4.44308 0
M  V30 8606 H 823.717 -6.47226 -3.90685 0
M  V30 8607 H 824.985 -5.98656 -4.99231 0
M  V30 8608 N 829.214 0.302327 -1.54673 0
M  V30 8609 C 830.46 1.03924 -1.74149 0
M  V30 8610 C 830.793 1.86968 -0.525041 0
M  V30 8611 O 830.068 1.88538 0.477868 0
M  V30 8612 C 830.351 1.94633 -3.02969 0
M  V30 8613 C 830.204 1.14778 -4.34909 0
M  V30 8614 C 831.523 2.93826 -3.27649 0
M  V30 8615 H 828.642 0.376405 -0.633631 0
M  V30 8616 H 831.284 0.314007 -1.87387 0
M  V30 8617 H 829.434 2.56471 -2.91813 0
M  V30 8618 H 831.106 0.552363 -4.57981 0
M  V30 8619 H 829.349 0.450462 -4.31455 0
M  V30 8620 H 830.02 1.81495 -5.21309 0
M  V30 8621 H 832.496 2.42117 -3.38406 0
M  V30 8622 H 831.372 3.54462 -4.19104 0
M  V30 8623 H 831.633 3.67416 -2.45882 0
M  V30 8624 N 830.692 1.47107 0.565454 0
M  V30 8625 C 831.64 1.59368 1.69424 0
M  V30 8626 C 832.634 0.461344 1.62997 0
M  V30 8627 O 833.84 0.638849 1.68282 0
M  V30 8628 H 830.215 0.501387 0.560459 0
M  V30 8629 H 832.186 2.54242 1.56217 0
M  V30 8630 C 830.935 1.61739 3.07792 0
M  V30 8631 H 830.258 2.48215 3.13416 0
M  V30 8632 H 831.698 1.7437 3.86486 0
M  V30 8633 C 830.157 0.349156 3.35086 0
M  V30 8634 O 830.687 -0.553287 3.97871 0
M  V30 8635 N 828.893 0.231723 2.89675 0
M  V30 8636 H 828.44 0.967021 2.3876 0
M  V30 8637 H 828.398 -0.615911 3.08308 0
M  V30 8638 N 832.17 -0.811516 1.35101 0
M  V30 8639 C 833.416 -1.57068 1.28287 0
M  V30 8640 C 833.749 -1.93667 -0.143808 0
M  V30 8641 O 833.024 -1.60953 -1.09199 0
M  V30 8642 C 833.307 -2.86259 2.18466 0
M  V30 8643 C 833.16 -2.56168 3.69727 0
M  V30 8644 C 834.479 -3.87924 2.07852 0
M  V30 8645 H 831.598 -0.569869 0.467353 0
M  V30 8646 H 834.24 -0.934023 1.65457 0
M  V30 8647 H 832.39 -3.4059 1.86898 0
M  V30 8648 H 834.062 -2.08059 4.11715 0
M  V30 8649 H 832.305 -1.89436 3.90252 0
M  V30 8650 H 832.976 -3.48344 4.28206 0
M  V30 8651 H 835.452 -3.4298 2.35593 0
M  V30 8652 H 834.328 -4.76106 2.73157 0
M  V30 8653 H 834.589 -4.2923 1.05896 0
M  V30 8654 N 833.648 -1.19017 -1.03309 0
M  V30 8655 C 834.894 -0.991681 -1.769 0
M  V30 8656 C 835.227 0.476813 -1.88255 0
M  V30 8657 O 834.502 1.35407 -1.39625 0
M  V30 8658 C 834.785 -1.65627 -3.19749 0
M  V30 8659 C 834.638 -3.19813 -3.1629 0
M  V30 8660 C 835.957 -1.37579 -4.18043 0
M  V30 8661 H 833.076 -0.361674 -0.642153 0
M  V30 8662 H 835.718 -1.46795 -1.20628 0
M  V30 8663 H 833.868 -1.25132 -3.67796 0
M  V30 8664 H 835.54 -3.69494 -2.76174 0
M  V30 8665 H 833.783 -3.51578 -2.54117 0
M  V30 8666 H 834.454 -3.61457 -4.17196 0
M  V30 8667 H 836.93 -1.72679 -3.78578 0
M  V30 8668 H 835.806 -1.86636 -5.16196 0
M  V30 8669 H 836.067 -0.300118 -4.4108 0
M  V30 8670 N 835.127 1.22348 -0.993418 0
M  V30 8671 C 836.355 1.95125 -0.688021 0
M  V30 8672 C 836.77 1.73377 0.747388 0
M  V30 8673 O 836.127 1.03317 1.50439 0
M  V30 8674 C 836.178 3.47819 -0.985097 0
M  V30 8675 O 835.899 3.68838 -2.3641 0
M  V30 8676 C 837.4 4.37779 -0.697474 0
M  V30 8677 H 834.62 0.62087 -0.254481 0
M  V30 8678 H 837.164 1.55485 -1.32833 0
M  V30 8679 H 835.319 3.85426 -0.390583 0
M  V30 8680 H 835.733 4.63032 -2.46377 0
M  V30 8681 H 837.207 5.43666 -0.955604 0
M  V30 8682 H 837.684 4.37651 0.368524 0
M  V30 8683 H 838.29 4.05799 -1.27306 0
M  V30 8684 N 836.605 0.766683 1.37694 0
M  V30 8685 C 837.845 0.333815 2.01656 0
M  V30 8686 C 838.209 -1.06813 1.59546 0
M  V30 8687 O 839.41 -1.60084 2.15932 0
M  V30 8688 C 837.681 0.467032 3.54335 0
M  V30 8689 S 839.24 0.118679 4.38639 0
M  V30 8690 H 836.058 0.128723 0.699251 0
M  V30 8691 H 838.66 1.00018 1.67978 0
M  V30 8692 H 837.364 1.48808 3.82471 0
M  V30 8693 H 836.895 -0.216066 3.92806 0
M  V30 8694 H 838.91 -1.08746 4.84137 0
M  V30 8695 N 838.083 -1.48885 0.516809 0
M  V30 8696 C 839.311 -2.06892 -0.0184017 0
M  V30 8697 C 839.726 -1.37511 -1.29368 0
M  V30 8698 O 839.083 -0.458409 -1.76649 0
M  V30 8699 C 839.134 -3.60566 -0.259673 0
M  V30 8700 O 838.855 -4.27338 0.965065 0
M  V30 8701 C 840.356 -4.35331 -0.836751 0
M  V30 8702 H 837.576 -0.670433 0.0275743 0
M  V30 8703 H 840.12 -1.91455 0.718689 0
M  V30 8704 H 838.275 -3.75653 -0.94678 0
M  V30 8705 H 838.689 -5.19287 0.737647 0
M  V30 8706 H 840.163 -5.43675 -0.955065 0
M  V30 8707 H 840.64 -3.9887 -1.83845 0
M  V30 8708 H 841.246 -4.2489 -0.186622 0
M  V30 8709 N 839.561 -0.251338 -1.55583 0
M  V30 8710 C 840.508 0.646337 -2.21565 0
M  V30 8711 C 841.478 1.16796 -1.18102 0
M  V30 8712 O 842.663 1.22162 -1.46564 0
M  V30 8713 C 839.803 1.83557 -2.92234 0
M  V30 8714 C 838.916 1.35006 -4.10363 0
M  V30 8715 C 838.051 2.4992 -4.68736 0
M  V30 8716 C 837.09 1.98253 -5.79105 0
M  V30 8717 N 836.227 3.06551 -6.31642 0
M  V30 8718 H 841.067 0.0769881 -2.97901 0
M  V30 8719 H 838.604 0.026238 -1.47077 0
M  V30 8720 H 840.562 2.53425 -3.31408 0
M  V30 8721 H 839.192 2.37733 -2.18364 0
M  V30 8722 H 838.244 0.545274 -3.76472 0
M  V30 8723 H 839.556 0.931435 -4.90026 0
M  V30 8724 H 838.71 3.27823 -5.10507 0
M  V30 8725 H 837.449 2.95086 -3.88298 0
M  V30 8726 H 836.454 1.18822 -5.36807 0
M  V30 8727 H 837.679 1.54051 -6.61396 0
M  V30 8728 H 835.625 3.51143 -5.54107 0
M  V30 8729 H 835.542 2.69033 -7.06511 0
M  V30 8730 H 836.81 3.84499 -6.78071 0
M  V30 8731 N 841.039 1.57585 0.0217189 0
M  V30 8732 C 841.989 2.03506 1.02807 0
M  V30 8733 C 842.973 0.925716 1.31603 0
M  V30 8734 O 844.165 1.18958 1.31065 0
M  V30 8735 C 841.294 2.52407 2.32693 0
M  V30 8736 C 840.38 3.70176 2.06955 0
M  V30 8737 N 840.771 4.82641 1.513 0
M  V30 8738 C 839.069 3.77691 2.37204 0
M  V30 8739 C 839.77 5.64218 1.41536 0
M  V30 8740 N 838.746 5.09557 1.89348 0
M  V30 8741 H 842.548 2.87878 0.591899 0
M  V30 8742 H 840.062 1.60793 0.227875 0
M  V30 8743 H 842.059 2.83569 3.05605 0
M  V30 8744 H 840.719 1.69444 2.76982 0
M  V30 8745 H 841.73 5.03931 1.19472 0
M  V30 8746 H 838.407 3.05542 2.84517 0
M  V30 8747 H 839.797 6.64576 0.989333 0
M  V30 8748 N 842.517 -0.29412 1.54831 0
M  V30 8749 C 843.745 -1.04724 1.78439 0
M  V30 8750 C 844.16 -1.80695 0.547239 0
M  V30 8751 O 843.517 -1.75989 -0.483141 0
M  V30 8752 C 843.568 -2.02242 2.99634 0
M  V30 8753 O 843.289 -1.29352 4.18568 0
M  V30 8754 C 844.79 -2.89537 3.35683 0
M  V30 8755 H 842.01 -0.310285 0.594949 0
M  V30 8756 H 844.554 -0.331306 2.01798 0
M  V30 8757 H 842.709 -2.69328 2.78462 0
M  V30 8758 H 843.123 -1.94901 4.86943 0
M  V30 8759 H 844.597 -3.538 4.23709 0
M  V30 8760 H 845.074 -3.58201 2.54143 0
M  V30 8761 H 845.68 -2.27973 3.59038 0
M  V30 8762 N 843.995 -1.47404 -0.557645 0
M  V30 8763 C 845.225 -1.57393 -1.33832 0
M  V30 8764 C 845.633 -0.222978 -1.87881 0
M  V30 8765 O 844.976 0.793854 -1.65661 0
M  V30 8766 C 845.038 -2.53882 -2.54528 0
M  V30 8767 C 844.702 -3.99585 -2.21767 0
M  V30 8768 C 845.699 -4.88082 -1.79087 0
M  V30 8769 C 843.384 -4.44917 -2.3314 0
M  V30 8770 C 845.378 -6.1993 -1.48209 0
M  V30 8771 C 843.065 -5.76793 -2.01874 0
M  V30 8772 C 844.063 -6.64121 -1.59476 0
M  V30 8773 O 843.751 -7.93546 -1.28607 0
M  V30 8774 H 843.483 -0.534172 -0.41429 0
M  V30 8775 H 846.037 -1.93733 -0.682404 0
M  V30 8776 H 844.267 -2.12609 -3.23009 0
M  V30 8777 H 845.956 -2.54003 -3.16603 0
M  V30 8778 H 846.722 -4.54307 -1.69794 0
M  V30 8779 H 842.601 -3.77152 -2.65099 0
M  V30 8780 H 846.145 -6.88049 -1.15043 0
M  V30 8781 H 842.042 -6.1011 -2.10799 0
M  V30 8782 H 842.81 -8.06046 -1.42241 0
M  V30 8783 N 845.473 0.80434 -1.35529 0
M  V30 8784 C 846.889 1.10023 -1.15616 0
M  V30 8785 C 847.089 2.01478 0.0298535 0
M  V30 8786 O 846.145 2.42609 0.699778 0
M  V30 8787 C 847.458 1.72905 -2.46017 0
M  V30 8788 C 849.006 1.85315 -2.52245 0
M  V30 8789 C 849.481 2.51612 -3.82695 0
M  V30 8790 N 850.972 2.59095 -3.83958 0
M  V30 8791 C 851.707 3.11167 -4.81625 0
M  V30 8792 N 851.203 3.63659 -5.89681 0
M  V30 8793 N 852.996 3.09741 -4.6906 0
M  V30 8794 H 845.147 0.196428 -2.1149 0
M  V30 8795 H 847.41 0.149735 -0.9361 0
M  V30 8796 H 847.116 1.13171 -3.32994 0
M  V30 8797 H 846.99 2.72579 -2.6073 0
M  V30 8798 H 849.377 2.44191 -1.65695 0
M  V30 8799 H 849.458 0.844886 -2.41444 0
M  V30 8800 H 849.102 1.93385 -4.69643 0
M  V30 8801 H 849.032 3.5298 -3.90785 0
M  V30 8802 H 851.523 2.21908 -3.05884 0
M  V30 8803 H 851.836 4.01699 -6.60195 0
M  V30 8804 H 850.181 3.61852 -5.9337 0
M  V30 8805 H 853.372 2.68011 -3.83781 0
M  V30 8806 H 853.545 3.50016 -5.45338 0
M  V30 8807 N 846.951 1.19563 1.02676 0
M  V30 8808 C 848.191 1.01072 1.77662 0
M  V30 8809 C 848.555 -0.450344 1.86644 0
M  V30 8810 O 849.756 -0.755132 2.57975 0
M  V30 8811 C 848.027 1.66383 3.16309 0
M  V30 8812 S 849.586 1.62858 4.07459 0
M  V30 8813 H 846.404 0.362644 0.611564 0
M  V30 8814 H 849.006 1.51947 1.23014 0
M  V30 8815 H 847.71 2.71917 3.07391 0
M  V30 8816 H 847.241 1.15596 3.76033 0
M  V30 8817 H 849.256 0.654265 4.91868 0
M  V30 8818 N 848.429 -1.21819 0.999893 0
M  V30 8819 C 849.359 -2.26282 0.576096 0
M  V30 8820 C 850.34 -1.65317 -0.400537 0
M  V30 8821 O 851.525 -1.92028 -0.28964 0
M  V30 8822 C 848.655 -3.47147 -0.103145 0
M  V30 8823 C 847.609 -4.20594 0.792745 0
M  V30 8824 C 846.935 -5.34696 -0.0198026 0
M  V30 8825 C 848.235 -4.78533 2.09293 0
M  V30 8826 H 849.929 -2.61984 1.4493 0
M  V30 8827 H 847.475 -1.25935 0.698316 0
M  V30 8828 H 849.428 -4.1939 -0.411068 0
M  V30 8829 H 848.152 -3.1056 -1.01094 0
M  V30 8830 H 846.811 -3.50194 1.08442 0
M  V30 8831 H 846.459 -4.94352 -0.928729 0
M  V30 8832 H 846.159 -5.84764 0.576661 0
M  V30 8833 H 847.683 -6.09752 -0.321659 0
M  V30 8834 H 849.097 -5.42682 1.8485 0
M  V30 8835 H 847.494 -5.38968 2.63881 0
M  V30 8836 H 848.564 -3.98197 2.76708 0
M  V30 8837 N 849.908 -0.773975 -1.37286 0
M  V30 8838 C 850.856 -0.149581 -2.32119 0
M  V30 8839 C 851.85 0.682457 -1.55045 0
M  V30 8840 O 853.056 0.579269 -1.70424 0
M  V30 8841 H 849.431 -0.0295857 -0.751418 0
M  V30 8842 H 851.402 -0.965117 -2.82362 0
M  V30 8843 C 850.151 0.713409 -3.40302 0
M  V30 8844 H 849.474 0.0825416 -3.99715 0
M  V30 8845 H 850.914 1.11723 -4.09016 0
M  V30 8846 C 849.373 1.86498 -2.80571 0
M  V30 8847 O 849.903 2.9606 -2.71498 0
M  V30 8848 N 848.109 1.66629 -2.38082 0
M  V30 8849 H 847.656 0.775145 -2.45661 0
M  V30 8850 H 847.614 2.43845 -1.98461 0
M  V30 8851 N 851.386 1.48609 -0.524698 0
M  V30 8852 C 852.634 2.02097 0.0112991 0
M  V30 8853 C 852.955 1.40455 1.35268 0
M  V30 8854 O 852.225 0.56807 1.87483 0
M  V30 8855 H 850.805 0.746966 0.00716426 0
M  V30 8856 H 853.467 1.82378 -0.687329 0
M  V30 8857 H 852.563 3.11855 0.123531 0
M  V30 8858 N 852.864 0.259585 1.55447 0
M  V30 8859 C 853.794 -0.62852 2.24882 0
M  V30 8860 C 854.775 -1.17128 1.23349 0
M  V30 8861 O 855.96 -1.20829 1.52033 0
M  V30 8862 C 853.09 -1.81983 2.95803 0
M  V30 8863 C 852.044 -1.40929 4.04132 0
M  V30 8864 C 851.37 -2.68246 4.62545 0
M  V30 8865 C 852.67 -0.570956 5.1917 0
M  V30 8866 H 854.364 -0.0495021 2.99359 0
M  V30 8867 H 851.91 -0.0223688 1.43983 0
M  V30 8868 H 853.863 -2.44689 3.43082 0
M  V30 8869 H 852.587 -2.42444 2.18835 0
M  V30 8870 H 851.246 -0.805519 3.57641 0
M  V30 8871 H 850.894 -3.26931 3.82263 0
M  V30 8872 H 850.594 -2.41495 5.35681 0
M  V30 8873 H 852.118 -3.31827 5.12565 0
M  V30 8874 H 853.532 -1.10262 5.62597 0
M  V30 8875 H 851.929 -0.398979 5.98772 0
M  V30 8876 H 852.999 0.413918 4.8313 0
M  V30 8877 N 854.342 -1.57594 -0.0133615 0
M  V30 8878 C 855.582 -1.91834 -0.705639 0
M  V30 8879 C 855.946 -0.859801 -1.71672 0
M  V30 8880 O 857.147 -1.08702 -2.4584 0
M  V30 8881 C 855.418 -3.31174 -1.34383 0
M  V30 8882 S 856.977 -3.87275 -2.06309 0
M  V30 8883 H 853.795 -0.671598 -0.233404 0
M  V30 8884 H 856.397 -1.95459 0.0401173 0
M  V30 8885 H 855.101 -4.06065 -0.594939 0
M  V30 8886 H 854.632 -3.3089 -2.12781 0
M  V30 8887 H 856.647 -3.67271 -3.33657 0
M  V30 8888 N 855.82 0.285905 -1.54985 0
M  V30 8889 C 856.75 1.35752 -1.89983 0
M  V30 8890 C 857.731 1.52163 -0.760295 0
M  V30 8891 O 858.916 1.65421 -1.01733 0
M  V30 8892 C 856.046 2.71925 -2.16042 0
M  V30 8893 C 855 2.70261 -3.31878 0
M  V30 8894 C 854.326 4.09864 -3.43388 0
M  V30 8895 C 855.626 2.30667 -4.68604 0
M  V30 8896 H 857.32 1.06709 -2.79738 0
M  V30 8897 H 854.866 0.511884 -1.34595 0
M  V30 8898 H 856.819 3.46992 -2.39113 0
M  V30 8899 H 855.543 3.02523 -1.23074 0
M  V30 8900 H 854.202 1.97651 -3.08755 0
M  V30 8901 H 853.85 4.37664 -2.47909 0
M  V30 8902 H 853.55 4.09648 -4.21262 0
M  V30 8903 H 855.074 4.86689 -3.68736 0
M  V30 8904 H 856.488 2.95453 -4.91305 0
M  V30 8905 H 854.885 2.41637 -5.49301 0
M  V30 8906 H 855.955 1.25793 -4.68299 0
M  V30 8907 N 857.298 1.47698 0.54982 0
M  V30 8908 C 858.523 1.58579 1.33669 0
M  V30 8909 C 858.948 0.239049 1.86575 0
M  V30 8910 O 858.306 -0.786256 1.63364 0
M  V30 8911 C 858.354 2.62029 2.47736 0
M  V30 8912 O 857.458 2.17813 3.50188 0
M  V30 8913 H 856.799 0.532447 0.396732 0
M  V30 8914 H 859.329 1.93536 0.6637 0
M  V30 8915 H 859.339 2.82682 2.94202 0
M  V30 8916 H 858.014 3.59812 2.08586 0
M  V30 8917 H 856.591 2.07291 3.09976 0
M  V30 8918 N 858.776 -0.797141 1.35954 0
M  V30 8919 C 859.723 -1.90944 1.2965 0
M  V30 8920 C 860.693 -1.65262 0.166628 0
M  V30 8921 O 861.878 -1.87527 0.351883 0
M  V30 8922 C 859.018 -3.27637 1.08389 0
M  V30 8923 C 858.131 -3.65442 2.30382 0
M  V30 8924 C 857.266 -4.91213 2.02195 0
M  V30 8925 C 856.305 -5.21674 3.20191 0
M  V30 8926 N 855.442 -6.38627 2.91719 0
M  V30 8927 H 860.282 -1.95668 2.24762 0
M  V30 8928 H 857.819 -0.95696 1.11717 0
M  V30 8929 H 859.777 -4.06451 0.940912 0
M  V30 8930 H 858.407 -3.22355 0.169351 0
M  V30 8931 H 857.459 -2.81813 2.55511 0
M  V30 8932 H 858.771 -3.83907 3.18461 0
M  V30 8933 H 857.925 -5.77876 1.84783 0
M  V30 8934 H 856.664 -4.74803 1.11416 0
M  V30 8935 H 855.669 -4.33498 3.38171 0
M  V30 8936 H 856.894 -5.40009 4.11786 0
M  V30 8937 H 854.84 -6.23623 2.03543 0
M  V30 8938 H 854.757 -6.57387 3.73334 0
M  V30 8939 H 856.025 -7.28292 2.77868 0
M  V30 8940 N 860.254 -1.20106 -1.0204 0
M  V30 8941 C 861.502 -1.0069 -1.75231 0
M  V30 8942 C 861.823 0.462491 -1.89436 0
M  V30 8943 O 861.093 1.33455 -1.4341 0
M  V30 8944 H 859.673 -0.369576 -0.649171 0
M  V30 8945 H 862.335 -1.51149 -1.23044 0
M  V30 8946 H 861.431 -1.46205 -2.75736 0
M  V30 8947 N 861.732 1.21287 -1.00634 0
M  V30 8948 C 862.68 2.25733 -0.561026 0
M  V30 8949 C 863.674 1.64728 0.395095 0
M  V30 8950 O 864.88 1.78022 0.266141 0
M  V30 8951 H 861.255 0.734104 -0.163081 0
M  V30 8952 H 863.226 2.60631 -1.45307 0
M  V30 8953 C 861.975 3.47569 0.0952587 0
M  V30 8954 H 861.298 3.94782 -0.631427 0
M  V30 8955 H 862.738 4.22382 0.370105 0
M  V30 8956 C 861.197 3.09326 1.33488 0
M  V30 8957 O 861.727 3.19933 2.42912 0
M  V30 8958 N 859.933 2.63976 1.21512 0
M  V30 8959 H 859.48 2.55545 0.324741 0
M  V30 8960 H 859.438 2.38757 2.04555 0
M  V30 8961 N 863.21 0.781244 1.36873 0
M  V30 8962 C 864.621 0.414093 1.8205 0
M  V30 8963 C 864.972 -1.06098 1.65039 0
M  V30 8964 O 864.097 -1.82251 1.16677 0
M  V30 8965 C 864.692 0.744837 3.30511 0
M  V30 8966 C 863.251 0.430621 3.73929 0
M  V30 8967 C 862.398 0.983746 2.59264 0
M  V30 8968 H 865.349 0.975091 1.2521 0
M  V30 8969 H 865.37 0.032936 3.80486 0
M  V30 8970 H 864.882 1.81847 3.42861 0
M  V30 8971 H 862.983 -0.635308 3.67144 0
M  V30 8972 H 863.096 0.945514 4.69677 0
M  V30 8973 H 861.46 0.407433 2.5142 0
M  V30 8974 H 862.243 2.06297 2.74402 0
M  V30 8975 N 864.689 -1.48329 0.532571 0
M  V30 8976 C 865.599 -2.33445 -0.232546 0
M  V30 8977 C 866.615 -1.46651 -0.93645 0
M  V30 8978 O 867.791 -1.79627 -0.910834 0
M  V30 8979 C 864.856 -3.22824 -1.26434 0
M  V30 8980 C 863.917 -4.25492 -0.570511 0
M  V30 8981 C 863.15 -5.10601 -1.55315 0
M  V30 8982 O 863.373 -4.97733 -2.78599 0
M  V30 8983 O 862.307 -5.91927 -1.09112 0
M  V30 8984 H 866.133 -3.00119 0.464988 0
M  V30 8985 H 863.718 -1.46489 0.293462 0
M  V30 8986 H 865.6 -3.78103 -1.86055 0
M  V30 8987 H 864.275 -2.58807 -1.94424 0
M  V30 8988 H 863.182 -3.74041 0.0662587 0
M  V30 8989 H 864.515 -4.92154 0.0674904 0
M  V30 8990 N 866.167 -0.267825 -1.55308 0
M  V30 8991 C 867.407 0.352316 -2.01341 0
M  V30 8992 C 867.771 1.53593 -1.1521 0
M  V30 8993 O 868.972 2.22521 -1.50791 0
M  V30 8994 C 867.243 0.731857 -3.49827 0
M  V30 8995 S 868.802 1.33956 -4.17853 0
M  V30 8996 H 865.62 0.109927 -0.702451 0
M  V30 8997 H 868.222 -0.387955 -1.91612 0
M  V30 8998 H 866.926 -0.138561 -4.10166 0
M  V30 8999 H 866.457 1.50378 -3.63525 0
M  V30 9000 H 868.472 2.62831 -4.20874 0
M  V30 9001 N 867.645 1.57599 0.00500368 0
M  V30 9002 C 868.922 1.81561 0.727654 0
M  V30 9003 C 869.302 0.871604 1.92266 0
M  V30 9004 O 868.65 -0.0808232 2.28357 0
M  V30 9005 C 868.86 3.29922 1.13809 0
M  V30 9006 C 870.208 3.95531 1.54403 0
M  V30 9007 O 871.232 3.34215 1.23202 0
M  V30 9008 O 870.091 5.03535 2.12402 0
M  V30 9009 H 867.185 0.747462 0.353878 0
M  V30 9010 H 869.731 1.69688 -0.0200667 0
M  V30 9011 H 868.503 3.90253 0.286078 0
M  V30 9012 H 868.126 3.46775 1.94507 0
M  V30 9013 N 869.123 -0.277682 1.55134 0
M  V30 9014 C 870.371 -1.00791 1.75173 0
M  V30 9015 C 870.692 -1.86987 0.553266 0
M  V30 9016 O 869.962 -1.91079 -0.43195 0
M  V30 9017 H 868.542 -0.375129 0.645978 0
M  V30 9018 H 871.204 -0.303041 1.9253 0
M  V30 9019 H 870.3 -1.64756 2.6507 0
M  V30 9020 N 870.601 -1.47988 -0.541979 0
M  V30 9021 C 871.548 -1.61615 -1.6477 0
M  V30 9022 C 872.518 -0.458602 -1.59644 0
M  V30 9023 O 873.703 -0.680585 -1.78249 0
M  V30 9024 C 870.843 -1.65066 -3.03063 0
M  V30 9025 C 869.956 -2.91845 -3.18513 0
M  V30 9026 C 869.091 -2.86534 -4.47294 0
M  V30 9027 C 868.13 -4.0807 -4.5623 0
M  V30 9028 N 867.267 -4.00905 -5.76385 0
M  V30 9029 H 872.107 -2.56046 -1.52461 0
M  V30 9030 H 869.644 -1.26989 -0.742449 0
M  V30 9031 H 871.602 -1.65049 -3.83164 0
M  V30 9032 H 870.232 -0.74136 -3.14171 0
M  V30 9033 H 869.284 -3.01661 -2.31743 0
M  V30 9034 H 870.596 -3.81804 -3.20978 0
M  V30 9035 H 869.75 -2.84851 -5.35672 0
M  V30 9036 H 868.489 -1.94283 -4.47332 0
M  V30 9037 H 867.494 -4.10041 -3.66261 0
M  V30 9038 H 868.719 -5.01465 -4.5794 0
M  V30 9039 H 866.665 -3.11467 -5.77342 0
M  V30 9040 H 866.582 -4.84557 -5.80293 0
M  V30 9041 H 867.85 -4.03263 -6.67083 0
M  V30 9042 N 872.079 0.78992 -1.36375 0
M  V30 9043 C 872.989 1.93386 -1.32812 0
M  V30 9044 C 874.005 1.72468 -0.230377 0
M  V30 9045 O 875.181 1.96014 -0.462657 0
M  V30 9046 C 872.246 3.2824 -1.11621 0
M  V30 9047 C 871.307 3.61939 -2.30865 0
M  V30 9048 C 870.54 4.90359 -2.10675 0
M  V30 9049 O 870.763 5.6005 -1.08168 0
M  V30 9050 O 869.697 5.22702 -2.9844 0
M  V30 9051 H 873.523 1.99342 -2.29121 0
M  V30 9052 H 871.108 0.9301 -1.16917 0
M  V30 9053 H 872.99 4.08939 -1.01719 0
M  V30 9054 H 871.665 3.23178 -0.183732 0
M  V30 9055 H 870.572 2.81549 -2.46335 0
M  V30 9056 H 871.905 3.71725 -3.22617 0
M  V30 9057 N 873.557 1.20646 1.01402 0
M  V30 9058 C 874.834 0.927176 1.72229 0
M  V30 9059 C 875.214 -0.563382 2.03443 0
M  V30 9060 O 874.562 -1.52576 1.70096 0
M  V30 9061 C 874.772 1.80285 2.98828 0
M  V30 9062 C 876.12 2.04624 3.72041 0
M  V30 9063 O 877.144 1.77559 3.0879 0
M  V30 9064 O 876.003 2.50347 4.85787 0
M  V30 9065 H 873.097 0.346891 0.75073 0
M  V30 9066 H 875.643 1.31532 1.07227 0
M  V30 9067 H 874.415 2.81204 2.72102 0
M  V30 9068 H 874.038 1.41495 3.71571 0
M  V30 9069 N 875.035 -1.20752 1.01276 0
M  V30 9070 C 876.275 -1.91733 0.708372 0
M  V30 9071 C 876.639 -1.76836 -0.747855 0
M  V30 9072 O 877.84 -2.42262 -1.16458 0
M  V30 9073 C 876.111 -3.39155 1.12732 0
M  V30 9074 S 877.67 -4.28518 0.944325 0
M  V30 9075 H 874.488 -0.662394 0.25837 0
M  V30 9076 H 877.09 -1.46085 1.29921 0
M  V30 9077 H 875.794 -3.47516 2.18313 0
M  V30 9078 H 875.325 -3.89826 0.5291 0
M  V30 9079 H 877.34 -4.9596 -0.154278 0
M  V30 9080 N 876.513 -0.788492 -1.36457 0
M  V30 9081 C 877.738 -0.371224 -2.04051 0
M  V30 9082 C 878.163 1.004 -1.59064 0
M  V30 9083 O 877.521 1.64663 -0.758679 0
M  V30 9084 C 877.569 -0.442275 -3.57877 0
M  V30 9085 O 876.673 0.55113 -4.08701 0
M  V30 9086 H 876.014 -0.157808 -0.644975 0
M  V30 9087 H 878.544 -1.06935 -1.74431 0
M  V30 9088 H 878.554 -0.305548 -4.06854 0
M  V30 9089 H 877.229 -1.44547 -3.89973 0
M  V30 9090 H 875.806 0.37614 -3.70998 0
M  V30 9091 N 877.991 1.48044 -0.54043 0
M  V30 9092 C 879.268 1.95523 0.0547302 0
M  V30 9093 C 879.648 1.48284 1.5025 0
M  V30 9094 O 878.996 0.714037 2.17057 0
M  V30 9095 C 879.206 3.48923 -0.0733393 0
M  V30 9096 C 880.554 4.24523 0.0806026 0
M  V30 9097 O 881.578 3.562 -5.58687e-05 0
M  V30 9098 O 880.437 5.45922 0.251216 0
M  V30 9099 H 877.531 0.823728 0.073493 0
M  V30 9100 H 880.077 1.5852 -0.605768 0
M  V30 9101 H 878.849 3.76059 -1.08144 0
M  V30 9102 H 878.472 3.92648 0.625536 0
M  V30 9103 N 879.47 0.276058 1.55163 0
M  V30 9104 C 880.718 -0.339782 1.99223 0
M  V30 9105 C 881.039 -1.56307 1.16589 0
M  V30 9106 O 880.309 -1.94225 0.25564 0
M  V30 9107 H 878.889 -0.128534 0.735859 0
M  V30 9108 H 881.551 0.381612 1.91128 0
M  V30 9109 H 880.647 -0.629 3.05696 0
M  V30 9110 N 880.948 -1.576 0.00335426 0
M  V30 9111 C 882.173 -1.95398 -0.695311 0
M  V30 9112 C 882.598 -0.878476 -1.66326 0
M  V30 9113 O 881.956 0.163086 -1.80565 0
M  V30 9114 C 882.004 -3.32293 -1.40049 0
M  V30 9115 O 881.108 -3.26834 -2.51502 0
M  V30 9116 H 880.449 -0.637796 -0.184694 0
M  V30 9117 H 882.979 -2.04519 0.057543 0
M  V30 9118 H 882.989 -3.67936 -1.76316 0
M  V30 9119 H 881.664 -4.10123 -0.690803 0
M  V30 9120 H 880.241 -3.02872 -2.17539 0
M  V30 9121 N 882.426 0.269451 -1.5528 0
M  V30 9122 C 883.703 1.02207 -1.66773 0
M  V30 9123 C 884.083 2.04168 -0.536536 0
M  V30 9124 O 883.431 2.23761 0.462956 0
M  V30 9125 C 883.641 1.67569 -3.0614 0
M  V30 9126 C 884.989 2.18599 -3.64005 0
M  V30 9127 O 886.013 1.7755 -3.08795 0
M  V30 9128 O 884.872 2.93903 -4.60742 0
M  V30 9129 H 881.966 0.474314 -0.677462 0
M  V30 9130 H 884.512 0.265026 -1.67618 0
M  V30 9131 H 883.284 0.937029 -3.79915 0
M  V30 9132 H 882.907 2.49951 -3.09209 0
M  V30 9133 N 883.904 1.48273 0.534124 0
M  V30 9134 C 884.814 1.65162 1.66609 0
M  V30 9135 C 885.83 0.534177 1.65598 0
M  V30 9136 O 887.006 0.804715 1.84625 0
M  V30 9137 C 884.071 1.68354 3.03081 0
M  V30 9138 C 883.132 2.91696 3.1498 0
M  V30 9139 C 882.365 2.94725 4.44941 0
M  V30 9140 O 882.588 2.06285 5.31792 0
M  V30 9141 O 881.522 3.8685 4.61119 0
M  V30 9142 H 885.348 2.60991 1.55298 0
M  V30 9143 H 882.933 1.31626 0.706749 0
M  V30 9144 H 884.815 1.72998 3.84252 0
M  V30 9145 H 883.49 0.756978 3.14725 0
M  V30 9146 H 882.397 2.92586 2.33119 0
M  V30 9147 H 883.73 3.83722 3.0825 0
M  V30 9148 N 885.382 -0.782676 1.36792 0
M  V30 9149 C 886.329 -1.89558 1.31667 0
M  V30 9150 C 887.299 -1.65076 0.184147 0
M  V30 9151 O 888.484 -1.87143 0.371753 0
M  V30 9152 C 885.624 -3.26469 1.11858 0
M  V30 9153 C 884.737 -3.62978 2.34245 0
M  V30 9154 C 883.872 -4.89041 2.07394 0
M  V30 9155 C 882.911 -5.18249 3.25706 0
M  V30 9156 N 882.048 -6.35497 2.98476 0
M  V30 9157 H 886.888 -1.93274 2.26824 0
M  V30 9158 H 884.425 -0.945057 1.12726 0
M  V30 9159 H 886.383 -4.05431 0.983968 0
M  V30 9160 H 885.013 -3.22158 0.203531 0
M  V30 9161 H 884.065 -2.79087 2.58485 0
M  V30 9162 H 885.377 -3.80507 3.22514 0
M  V30 9163 H 884.531 -5.75883 1.90901 0
M  V30 9164 H 883.27 -4.73594 1.16446 0
M  V30 9165 H 882.275 -4.29887 3.4275 0
M  V30 9166 H 883.5 -5.35611 4.1749 0
M  V30 9167 H 881.446 -6.21429 2.10146 0
M  V30 9168 H 881.363 -6.5339 3.80286 0
M  V30 9169 H 882.631 -7.25304 2.85577 0
M  V30 9170 N 886.86 -1.21182 -1.00761 0
M  V30 9171 C 888.137 -0.936297 -1.71735 0
M  V30 9172 C 888.517 0.552585 -2.03739 0
M  V30 9173 O 887.865 1.51672 -1.70903 0
M  V30 9174 C 888.075 -1.81867 -2.97868 0
M  V30 9175 C 889.423 -2.06594 -3.7095 0
M  V30 9176 O 890.447 -1.79194 -3.07844 0
M  V30 9177 O 889.306 -2.5292 -4.84452 0
M  V30 9178 H 886.4 -0.350867 -0.74888 0
M  V30 9179 H 888.946 -1.32098 -1.06527 0
M  V30 9180 H 887.718 -2.82643 -2.70607 0
M  V30 9181 H 887.341 -1.43463 -3.70815 0
M  V30 9182 N 888.338 1.20213 -1.01915 0
M  V30 9183 C 889.578 1.91354 -0.71853 0
M  V30 9184 C 889.942 1.77231 0.738466 0
M  V30 9185 O 891.143 2.42876 1.15172 0
M  V30 9186 C 889.414 3.38552 -1.14529 0
M  V30 9187 S 890.973 4.28011 -0.967037 0
M  V30 9188 H 887.791 0.661015 -0.261879 0
M  V30 9189 H 890.393 1.45394 -1.30694 0
M  V30 9190 H 889.097 3.46354 -2.20153 0
M  V30 9191 H 888.628 3.8954 -0.549766 0
M  V30 9192 H 890.643 4.96035 0.127974 0
M  V30 9193 N 889.816 0.795718 1.36037 0
M  V30 9194 C 891.093 0.294743 1.93367 0
M  V30 9195 C 891.473 -1.21406 1.72696 0
M  V30 9196 O 890.821 -2.00849 1.08959 0
M  V30 9197 C 891.031 0.694254 3.42025 0
M  V30 9198 C 892.379 0.677566 4.19159 0
M  V30 9199 O 893.403 0.635119 3.50492 0
M  V30 9200 O 892.262 0.726127 5.41655 0
M  V30 9201 H 889.356 0.0745459 0.823633 0
M  V30 9202 H 891.902 0.878685 1.4518 0
M  V30 9203 H 890.674 1.73458 3.50753 0
M  V30 9204 H 890.297 0.0845338 3.9751 0
M  V30 9205 N 891.294 -1.47756 0.548274 0
M  V30 9206 C 892.534 -2.04387 0.0231354 0
M  V30 9207 C 892.898 -1.41438 -1.29843 0
M  V30 9208 O 894.099 -1.89064 -1.91072 0
M  V30 9209 C 892.37 -3.57316 -0.077482 0
M  V30 9210 S 893.929 -4.35339 -0.550038 0
M  V30 9211 H 890.747 -0.710694 0.0208428 0
M  V30 9212 H 893.349 -1.81239 0.732984 0
M  V30 9213 H 892.053 -4.00658 0.88888 0
M  V30 9214 H 891.584 -3.84947 -0.811157 0
M  V30 9215 H 893.599 -4.61957 -1.81135 0
M  V30 9216 N 892.772 -0.284283 -1.55015 0
M  V30 9217 C 894.02 0.329212 -1.99401 0
M  V30 9218 C 894.341 1.55687 -1.17416 0
M  V30 9219 O 893.611 1.94087 -0.265937 0
M  V30 9220 H 892.191 0.12463 -0.73653 0
M  V30 9221 H 894.853 -0.391743 -1.90922 0
M  V30 9222 H 893.949 0.61278 -3.06025 0
M  V30 9223 N 894.251 1.57596 -0.0117121 0
M  V30 9224 C 895.181 2.12188 0.9746 0
M  V30 9225 C 896.162 1.03379 1.35081 0
M  V30 9226 O 897.347 1.31123 1.4325 0
M  V30 9227 C 894.477 2.63477 2.26268 0
M  V30 9228 C 893.431 3.76917 2.02774 0
M  V30 9229 C 892.757 4.14566 3.37697 0
M  V30 9230 C 894.057 5.03715 1.38089 0
M  V30 9231 H 895.751 2.9485 0.520007 0
M  V30 9232 H 893.297 1.41836 0.248685 0
M  V30 9233 H 895.25 3.00299 2.95633 0
M  V30 9234 H 893.974 1.77953 2.73862 0
M  V30 9235 H 892.633 3.40507 1.35832 0
M  V30 9236 H 892.281 3.26048 3.83016 0
M  V30 9237 H 891.981 4.91 3.22789 0
M  V30 9238 H 893.505 4.53956 4.08358 0
M  V30 9239 H 894.919 5.38233 1.97428 0
M  V30 9240 H 893.316 5.85032 1.33634 0
M  V30 9241 H 894.386 4.83624 0.351575 0
M  V30 9242 N 895.729 -0.261212 1.5542 0
M  V30 9243 C 897.145 -0.609012 1.47524 0
M  V30 9244 C 897.345 -1.88986 0.699042 0
M  V30 9245 O 896.401 -2.51517 0.222628 0
M  V30 9246 C 897.714 -0.725025 2.91828 0
M  V30 9247 C 899.262 -0.818302 3.02114 0
M  V30 9248 C 899.737 -0.965996 4.47697 0
M  V30 9249 N 901.228 -1.03123 4.51575 0
M  V30 9250 C 901.963 -1.16451 5.6145 0
M  V30 9251 N 901.459 -1.26425 6.81167 0
M  V30 9252 N 903.252 -1.19655 5.49217 0
M  V30 9253 H 895.403 0.579807 2.04333 0
M  V30 9254 H 897.666 0.198072 0.927077 0
M  V30 9255 H 897.372 0.145871 3.51397 0
M  V30 9256 H 897.246 -1.60156 3.41511 0
M  V30 9257 H 899.633 -1.67966 2.42634 0
M  V30 9258 H 899.714 0.0830895 2.55665 0
M  V30 9259 H 899.358 -0.109251 5.07782 0
M  V30 9260 H 899.288 -1.88221 4.91813 0
M  V30 9261 H 901.779 -0.966072 3.65343 0
M  V30 9262 H 902.092 -1.36462 7.60656 0
M  V30 9263 H 900.437 -1.23408 6.83956 0
M  V30 9264 H 903.628 -1.11501 4.54626 0
M  V30 9265 H 903.801 -1.29698 6.34888 0
M  V30 9266 N 897.207 -1.48554 -0.526253 0
M  V30 9267 C 898.432 -1.60686 -1.31129 0
M  V30 9268 C 898.857 -0.268701 -1.86171 0
M  V30 9269 O 898.215 0.760167 -1.64594 0
M  V30 9270 C 898.263 -2.65938 -2.43536 0
M  V30 9271 O 897.367 -2.23356 -3.46678 0
M  V30 9272 H 896.708 -0.538691 -0.388211 0
M  V30 9273 H 899.238 -1.94567 -0.632826 0
M  V30 9274 H 899.248 -2.87327 -2.89668 0
M  V30 9275 H 897.923 -3.63085 -2.02835 0
M  V30 9276 H 896.5 -2.12196 -3.06639 0
M  V30 9277 N 898.685 0.775411 -1.37205 0
M  V30 9278 C 899.932 1.53384 -1.32211 0
M  V30 9279 C 900.26 1.9427 0.0944958 0
M  V30 9280 O 899.515 1.64059 1.06692 0
M  V30 9281 C 899.814 2.81377 -2.20367 0
M  V30 9282 C 899.48 2.59561 -3.68699 0
M  V30 9283 C 898.142 2.53319 -4.09124 0
M  V30 9284 C 900.494 2.39939 -4.62686 0
M  V30 9285 C 897.822 2.25442 -5.41658 0
M  V30 9286 C 900.174 2.13586 -5.95453 0
M  V30 9287 C 898.838 2.05786 -6.34987 0
M  V30 9288 H 898.108 0.561271 -0.483793 0
M  V30 9289 H 900.755 0.893466 -1.6938 0
M  V30 9290 H 899.06 3.49954 -1.76181 0
M  V30 9291 H 900.757 3.39238 -2.13819 0
M  V30 9292 H 897.347 2.6528 -3.36637 0
M  V30 9293 H 901.531 2.43753 -4.32317 0
M  V30 9294 H 896.787 2.17896 -5.71254 0
M  V30 9295 H 900.961 1.97401 -6.67837 0
M  V30 9296 H 898.588 1.83948 -7.37609 0
M  V30 9297 N 900.163 1.21714 1.00117 0
M  V30 9298 C 901.391 1.06278 1.77518 0
M  V30 9299 C 901.806 -0.387193 1.84787 0
M  V30 9300 O 901.163 -1.26854 1.31203 0
M  V30 9301 C 901.214 1.65795 3.21239 0
M  V30 9302 O 900.935 3.05119 3.14378 0
M  V30 9303 C 902.436 1.55521 4.15124 0
M  V30 9304 H 899.656 0.373013 0.557765 0
M  V30 9305 H 902.2 1.61133 1.25922 0
M  V30 9306 H 900.355 1.15022 3.69931 0
M  V30 9307 H 900.769 3.33643 4.04701 0
M  V30 9308 H 902.243 2.01902 5.13751 0
M  V30 9309 H 902.72 0.510307 4.36225 0
M  V30 9310 H 903.326 2.0556 3.72324 0
M  V30 9311 N 901.641 -1.19671 1.02551 0
M  V30 9312 C 903.057 -1.41305 0.741963 0
M  V30 9313 C 903.257 -1.89865 -0.674807 0
M  V30 9314 O 902.313 -2.07323 -1.44129 0
M  V30 9315 C 903.626 -2.42706 1.77522 0
M  V30 9316 C 905.174 -2.56458 1.79438 0
M  V30 9317 C 905.649 -3.61111 2.81715 0
M  V30 9318 N 907.14 -3.68603 2.8051 0
M  V30 9319 C 907.875 -4.49262 3.56302 0
M  V30 9320 N 907.371 -5.33653 4.41799 0
M  V30 9321 N 909.164 -4.43879 3.44859 0
M  V30 9322 H 901.315 -0.8647 1.94002 0
M  V30 9323 H 903.578 -0.442206 0.838545 0
M  V30 9324 H 903.284 -2.14042 2.79068 0
M  V30 9325 H 903.158 -3.41831 1.59472 0
M  V30 9326 H 905.545 -2.84447 0.78573 0
M  V30 9327 H 905.626 -1.57499 2.01563 0
M  V30 9328 H 905.27 -3.33864 3.82749 0
M  V30 9329 H 905.2 -4.59713 2.56849 0
M  V30 9330 H 907.691 -3.08329 2.18498 0
M  V30 9331 H 908.004 -5.92308 4.96378 0
M  V30 9332 H 906.349 -5.33125 4.45873 0
M  V30 9333 H 909.54 -3.7699 2.77482 0
M  V30 9334 H 909.713 -5.06501 4.04179 0
M  V30 9335 N 903.119 -0.802921 -1.35613 0
M  V30 9336 C 904.051 -0.168461 -2.2858 0
M  V30 9337 C 905.064 0.630123 -1.50111 0
M  V30 9338 O 906.253 0.463086 -1.72388 0
M  V30 9339 C 903.353 0.783943 -3.29708 0
M  V30 9340 C 902.526 0.0325165 -4.37388 0
M  V30 9341 C 901.585 0.902859 -5.18396 0
M  V30 9342 O 900.611 0.355144 -5.68091 0
M  V30 9343 N 901.813 2.22542 -5.36149 0
M  V30 9344 H 904.578 -0.96709 -2.83668 0
M  V30 9345 H 902.139 -0.658043 -1.47924 0
M  V30 9346 H 904.131 1.37034 -3.80794 0
M  V30 9347 H 902.701 1.48339 -2.75162 0
M  V30 9348 H 901.921 -0.735057 -3.87286 0
M  V30 9349 H 903.209 -0.485499 -5.06478 0
M  V30 9350 H 902.607 2.69439 -4.97412 0
M  V30 9351 H 901.164 2.76113 -5.90428 0
M  V30 9352 N 904.597 1.47463 -0.556102 0
M  V30 9353 C 905.56 2.28478 0.181743 0
M  V30 9354 C 906.56 1.36886 0.843738 0
M  V30 9355 O 907.75 1.59527 0.69977 0
M  V30 9356 C 904.882 3.16534 1.26566 0
M  V30 9357 H 906.075 2.95182 -0.529892 0
M  V30 9358 H 903.628 1.53134 -0.313005 0
M  V30 9359 H 904.363 2.5452 2.00973 0
M  V30 9360 H 904.148 3.83939 0.795798 0
M  V30 9361 H 905.638 3.77579 1.78393 0
M  V30 9362 N 906.075 0.2925 1.54862 0
M  V30 9363 C 907.491 -0.0611461 1.59483 0
M  V30 9364 C 907.691 -1.53141 1.30958 0
M  V30 9365 O 906.747 -2.28291 1.07887 0
M  V30 9366 C 908.06 0.329143 2.98893 0
M  V30 9367 C 909.608 0.2772 3.1177 0
M  V30 9368 C 910.083 0.642185 4.53475 0
M  V30 9369 N 911.574 0.594396 4.5937 0
M  V30 9370 C 912.309 0.849385 5.67074 0
M  V30 9371 N 911.805 1.1699 6.82851 0
M  V30 9372 N 913.598 0.777016 5.56704 0
M  V30 9373 H 905.749 1.25079 1.71665 0
M  V30 9374 H 908.012 0.506516 0.80134 0
M  V30 9375 H 907.718 1.35233 3.24661 0
M  V30 9376 H 907.592 -0.321442 3.75828 0
M  V30 9377 H 909.979 -0.736725 2.85756 0
M  V30 9378 H 910.06 0.962289 2.3701 0
M  V30 9379 H 909.704 1.65388 4.80218 0
M  V30 9380 H 909.634 -0.0648831 5.2656 0
M  V30 9381 H 912.125 0.357256 3.76208 0
M  V30 9382 H 912.438 1.35067 7.60905 0
M  V30 9383 H 910.783 1.20785 6.84424 0
M  V30 9384 H 913.974 0.526333 4.65132 0
M  V30 9385 H 914.147 0.979113 6.4056 0
M  V30 9386 N 907.553 -1.57587 0.0200696 0
M  V30 9387 C 908.799 -1.91708 -0.661503 0
M  V30 9388 C 909.132 -0.895968 -1.72296 0
M  V30 9389 O 908.407 0.082577 -1.94325 0
M  V30 9390 C 908.69 -3.36344 -1.28627 0
M  V30 9391 C 908.543 -4.49186 -0.234982 0
M  V30 9392 C 909.862 -3.80771 -2.20685 0
M  V30 9393 H 906.981 -0.69717 -0.239005 0
M  V30 9394 H 909.623 -1.8985 0.0754764 0
M  V30 9395 H 907.773 -3.38058 -1.91439 0
M  V30 9396 H 909.445 -4.59606 0.395011 0
M  V30 9397 H 907.688 -4.31557 0.440565 0
M  V30 9398 H 908.359 -5.47395 -0.711558 0
M  V30 9399 H 910.835 -3.80735 -1.67868 0
M  V30 9400 H 909.711 -4.82685 -2.61356 0
M  V30 9401 H 909.972 -3.15764 -3.09428 0
M  V30 9402 N 909.032 0.252966 -1.55557 0
M  V30 9403 C 910.278 0.983306 -1.77367 0
M  V30 9404 C 910.611 1.85203 -0.584258 0
M  V30 9405 O 909.886 1.89963 0.417644 0
M  V30 9406 C 910.169 1.84896 -3.09007 0
M  V30 9407 C 910.022 1.00883 -4.38341 0
M  V30 9408 C 911.341 2.83254 -3.36831 0
M  V30 9409 H 908.46 0.356056 -0.645286 0
M  V30 9410 H 911.102 0.254232 -1.88291 0
M  V30 9411 H 909.252 2.47058 -2.99825 0
M  V30 9412 H 910.924 0.40638 -4.59507 0
M  V30 9413 H 909.167 0.31297 -4.3267 0
M  V30 9414 H 909.838 1.64818 -5.2682 0
M  V30 9415 H 912.314 2.31228 -3.45937 0
M  V30 9416 H 911.19 3.40949 -4.30169 0
M  V30 9417 H 911.451 3.59407 -2.57447 0
M  V30 9418 N 910.51 1.48831 0.518367 0
M  V30 9419 C 911.758 1.57128 1.27103 0
M  V30 9420 C 912.079 0.252098 1.93364 0
M  V30 9421 O 911.349 -0.727281 1.819 0
M  V30 9422 H 909.929 0.578891 0.472116 0
M  V30 9423 H 912.591 1.85361 0.602262 0
M  V30 9424 H 911.687 2.35838 2.04418 0
M  V30 9425 N 911.988 -0.768124 1.37614 0
M  V30 9426 C 913.236 -1.52379 1.3276 0
M  V30 9427 C 913.557 -1.94809 -0.0863564 0
M  V30 9428 O 912.827 -1.66568 -1.03112 0
M  V30 9429 H 911.407 -0.565179 0.488448 0
M  V30 9430 H 914.069 -0.913974 1.72141 0
M  V30 9431 H 913.165 -2.4215 1.96901 0
M  V30 9432 N 913.466 -1.22244 -0.994698 0
M  V30 9433 C 914.694 -1.07218 -1.76952 0
M  V30 9434 C 915.109 0.377388 -1.8499 0
M  V30 9435 O 914.466 1.26157 -1.31874 0
M  V30 9436 C 914.517 -1.67496 -3.20355 0
M  V30 9437 O 914.238 -3.06782 -3.12756 0
M  V30 9438 C 915.739 -1.57721 -4.14294 0
M  V30 9439 H 912.959 -0.375966 -0.555779 0
M  V30 9440 H 915.503 -1.61799 -1.25065 0
M  V30 9441 H 913.658 -1.16982 -3.69315 0
M  V30 9442 H 914.072 -3.35784 -4.02926 0
M  V30 9443 H 915.546 -2.04623 -5.12673 0
M  V30 9444 H 916.023 -0.533434 -4.35949 0
M  V30 9445 H 916.629 -2.07531 -3.71229 0
M  V30 9446 N 914.944 1.19125 -1.03184 0
M  V30 9447 C 916.221 1.84674 -0.644574 0
M  V30 9448 C 916.601 1.92042 0.876534 0
M  V30 9449 O 915.949 1.43965 1.77444 0
M  V30 9450 C 916.159 3.23477 -1.3101 0
M  V30 9451 C 917.507 3.99608 -1.43524 0
M  V30 9452 O 918.531 3.32886 -1.2675 0
M  V30 9453 O 917.39 5.19132 -1.70776 0
M  V30 9454 H 914.484 0.795968 -0.22442 0
M  V30 9455 H 917.03 1.2659 -1.13018 0
M  V30 9456 H 915.802 3.12967 -2.34878 0
M  V30 9457 H 915.425 3.89209 -0.812547 0
M  V30 9458 N 916.422 0.810101 1.35185 0
M  V30 9459 C 917.385 0.22852 2.28058 0
M  V30 9460 C 918.385 -0.586168 1.49735 0
M  V30 9461 O 919.575 -0.40414 1.69447 0
M  V30 9462 C 916.707 -0.681041 3.34028 0
M  V30 9463 H 917.9 1.04768 2.81005 0
M  V30 9464 H 915.453 0.58101 1.451 0
M  V30 9465 H 916.188 -1.52375 2.86273 0
M  V30 9466 H 915.973 -0.0985276 3.91976 0
M  V30 9467 H 917.463 -1.08217 4.03335 0
M  V30 9468 N 917.9 -1.47166 0.563914 0
M  V30 9469 C 919.177 -1.95586 -0.0236172 0
M  V30 9470 C 919.557 -1.50655 -1.47872 0
M  V30 9471 O 918.905 -0.748479 -2.15894 0
M  V30 9472 C 919.115 -3.48762 0.128841 0
M  V30 9473 C 920.463 -4.24598 -0.0130544 0
M  V30 9474 O 921.487 -3.56155 0.0567242 0
M  V30 9475 O 920.346 -5.46253 -0.164332 0
M  V30 9476 H 917.44 -0.824793 -0.0603789 0
M  V30 9477 H 919.986 -1.57536 0.63091 0
M  V30 9478 H 918.758 -3.74291 1.14113 0
M  V30 9479 H 918.381 -3.93594 -0.56299 0
M  V30 9480 N 919.378 -0.300708 -1.54705 0
M  V30 9481 C 920.288 0.584996 -2.27189 0
M  V30 9482 C 921.304 1.14866 -1.30697 0
M  V30 9483 O 922.48 1.17351 -1.63679 0
M  V30 9484 C 919.545 1.74076 -2.99831 0
M  V30 9485 C 918.606 1.2112 -4.1186 0
M  V30 9486 C 917.839 2.31188 -4.81028 0
M  V30 9487 O 918.062 3.5108 -4.49554 0
M  V30 9488 O 916.996 1.97897 -5.68437 0
M  V30 9489 H 920.822 -0.00298177 -3.037 0
M  V30 9490 H 918.407 -0.0671802 -1.49249 0
M  V30 9491 H 920.289 2.41413 -3.45395 0
M  V30 9492 H 918.964 2.31535 -2.26215 0
M  V30 9493 H 917.871 0.50357 -3.70695 0
M  V30 9494 H 919.204 0.682046 -4.87452 0
M  V30 9495 N 920.856 1.57574 -0.0284266 0
M  V30 9496 C 922.104 1.91393 0.649079 0
M  V30 9497 C 922.425 0.905368 1.72708 0
M  V30 9498 O 921.695 -0.0532107 1.95828 0
M  V30 9499 H 920.275 0.70646 0.24274 0
M  V30 9500 H 922.937 1.94752 -0.076066 0
M  V30 9501 H 922.033 2.91988 1.10226 0
M  V30 9502 N 922.334 -0.244713 1.55689 0
M  V30 9503 C 923.244 -1.32447 1.93636 0
M  V30 9504 C 924.26 -1.52541 0.837086 0
M  V30 9505 O 925.436 -1.66121 1.13867 0
M  V30 9506 C 922.501 -2.65864 2.22525 0
M  V30 9507 C 921.562 -2.54273 3.45896 0
M  V30 9508 C 920.795 -3.81327 3.73397 0
M  V30 9509 O 921.018 -4.83307 3.02936 0
M  V30 9510 O 919.952 -3.79829 4.66919 0
M  V30 9511 H 923.778 -1.03255 2.85608 0
M  V30 9512 H 921.363 -0.445652 1.42598 0
M  V30 9513 H 923.245 -3.447 2.42404 0
M  V30 9514 H 921.92 -2.94784 1.33731 0
M  V30 9515 H 920.827 -1.73715 3.31321 0
M  V30 9516 H 922.16 -2.30297 4.34999 0
M  V30 9517 N 923.813 -1.49104 -0.510467 0
M  V30 9518 C 925.059 -1.59322 -1.26444 0
M  V30 9519 C 925.414 -0.27219 -1.90465 0
M  V30 9520 O 924.707 0.726762 -1.77281 0
M  V30 9521 C 924.901 -2.68259 -2.36161 0
M  V30 9522 C 924.73 -4.10827 -1.82897 0
M  V30 9523 C 923.5 -4.77732 -1.64623 0
M  V30 9524 C 925.698 -4.96367 -1.34625 0
M  V30 9525 N 923.68 -6.04646 -1.06189 0
M  V30 9526 C 925.051 -6.13685 -0.882656 0
M  V30 9527 C 927.106 -4.8244 -1.2311 0
M  V30 9528 C 925.809 -7.18609 -0.315306 0
M  V30 9529 C 927.835 -5.87504 -0.677726 0
M  V30 9530 C 927.197 -7.04043 -0.224308 0
M  V30 9531 H 923.296 -0.637429 -0.453 0
M  V30 9532 H 925.88 -1.8607 -0.573237 0
M  V30 9533 H 924.051 -2.433 -3.02753 0
M  V30 9534 H 925.783 -2.68052 -3.032 0
M  V30 9535 H 922.538 -4.34377 -1.88716 0
M  V30 9536 H 922.962 -6.72383 -0.78927 0
M  V30 9537 H 927.604 -3.92663 -1.56766 0
M  V30 9538 H 925.322 -8.08093 0.0335425 0
M  V30 9539 H 928.908 -5.78785 -0.591535 0
M  V30 9540 H 927.788 -7.83952 0.197212 0
M  V30 9541 N 925.291 0.760815 -1.38019 0
M  V30 9542 C 926.702 1.33773 -1.30237 0
M  V30 9543 C 927.053 1.96148 0.0451153 0
M  V30 9544 O 926.178 1.94574 0.9471 0
M  V30 9545 C 926.773 2.43227 -2.35851 0
M  V30 9546 C 925.332 2.96659 -2.31669 0
M  V30 9547 C 924.479 1.69972 -2.191 0
M  V30 9548 H 927.43 0.560237 -1.48482 0
M  V30 9549 H 927.451 3.22985 -2.01149 0
M  V30 9550 H 926.963 1.978 -3.33911 0
M  V30 9551 H 925.064 3.46433 -1.37167 0
M  V30 9552 H 925.177 3.51529 -3.25521 0
M  V30 9553 H 923.541 1.9332 -1.65829 0
M  V30 9554 H 924.324 1.26633 -3.19091 0
M  V30 9555 N 926.769 1.22769 0.988202 0
M  V30 9556 C 928.015 1.06672 1.73184 0
M  V30 9557 C 928.37 -0.393434 1.88334 0
M  V30 9558 O 927.663 -1.2876 1.41885 0
M  V30 9559 C 927.857 1.71679 3.13466 0
M  V30 9560 C 927.686 3.23864 3.11997 0
M  V30 9561 C 926.456 3.92991 3.17626 0
M  V30 9562 C 928.654 4.20737 2.95778 0
M  V30 9563 N 926.636 5.32224 3.05959 0
M  V30 9564 C 928.007 5.46831 2.92191 0
M  V30 9565 C 930.062 4.1157 2.80205 0
M  V30 9566 C 928.765 6.64811 2.74624 0
M  V30 9567 C 930.791 5.29205 2.64 0
M  V30 9568 C 930.153 6.5422 2.61104 0
M  V30 9569 H 926.252 0.44481 0.64317 0
M  V30 9570 H 928.836 1.55381 1.17323 0
M  V30 9571 H 927.007 1.25513 3.67561 0
M  V30 9572 H 928.739 1.48629 3.76419 0
M  V30 9573 H 925.494 3.4402 3.25495 0
M  V30 9574 H 925.918 6.05197 3.03423 0
M  V30 9575 H 930.56 3.15697 2.81239 0
M  V30 9576 H 928.278 7.60828 2.72336 0
M  V30 9577 H 931.864 5.23947 2.52925 0
M  V30 9578 H 930.744 7.43713 2.48719 0
M  V30 9579 N 928.247 -1.18576 1.03814 0
M  V30 9580 C 929.179 -2.21607 0.585055 0
M  V30 9581 C 930.192 -1.59125 -0.343963 0
M  V30 9582 O 931.381 -1.77959 -0.138882 0
M  V30 9583 C 928.481 -3.38495 -0.165602 0
M  V30 9584 C 927.654 -4.30557 0.770662 0
M  V30 9585 C 926.713 -5.26161 0.0637534 0
M  V30 9586 O 925.739 -5.64961 0.693359 0
M  V30 9587 N 926.941 -5.67882 -1.20377 0
M  V30 9588 H 929.706 -2.61104 1.47121 0
M  V30 9589 H 927.267 -1.33336 0.918316 0
M  V30 9590 H 929.259 -3.99474 -0.648292 0
M  V30 9591 H 927.829 -2.97711 -0.953268 0
M  V30 9592 H 927.049 -3.67221 1.43326 0
M  V30 9593 H 928.337 -4.88969 1.40667 0
M  V30 9594 H 927.735 -5.38409 -1.73586 0
M  V30 9595 H 926.292 -6.31069 -1.63079 0
M  V30 9596 N 929.725 -0.817259 -1.34754 0
M  V30 9597 C 930.971 -0.403244 -1.98751 0
M  V30 9598 C 931.304 1.02963 -1.64658 0
M  V30 9599 O 930.579 1.71617 -0.915314 0
M  V30 9600 C 930.862 -0.599188 -3.5508 0
M  V30 9601 C 930.715 -2.07777 -3.98934 0
M  V30 9602 C 932.034 -0.0315656 -4.40089 0
M  V30 9603 H 929.153 -0.147988 -0.721989 0
M  V30 9604 H 931.795 -1.02877 -1.59738 0
M  V30 9605 H 929.945 -0.0667116 -3.88443 0
M  V30 9606 H 931.617 -2.67345 -3.75931 0
M  V30 9607 H 929.86 -2.57031 -3.49453 0
M  V30 9608 H 930.531 -2.16571 -5.07741 0
M  V30 9609 H 933.007 -0.48644 -4.13247 0
M  V30 9610 H 931.883 -0.198507 -5.48541 0
M  V30 9611 H 932.144 1.06302 -4.2913 0
M  V30 9612 N 931.203 1.46865 -0.571711 0
M  V30 9613 C 932.428 2.07323 -0.0564655 0
M  V30 9614 C 932.853 1.41938 1.23431 0
M  V30 9615 O 932.211 0.499334 1.74288 0
M  V30 9616 C 932.259 3.6044 0.107339 0
M  V30 9617 O 931.363 3.95558 1.1665 0
M  V30 9618 H 930.704 0.661475 -0.0578465 0
M  V30 9619 H 933.234 1.88669 -0.791524 0
M  V30 9620 H 933.244 4.06767 0.316987 0
M  V30 9621 H 931.919 4.07425 -0.835348 0
M  V30 9622 H 930.496 3.60957 0.936189 0
M  V30 9623 N 932.681 0.308908 1.54543 0
M  V30 9624 C 933.611 -0.556657 2.26768 0
M  V30 9625 C 934.592 -1.13145 1.27013 0
M  V30 9626 O 935.777 -1.15931 1.558 0
M  V30 9627 C 932.907 -1.72481 3.01443 0
M  V30 9628 C 931.861 -1.28001 4.08411 0
M  V30 9629 C 931.187 -2.53395 4.70845 0
M  V30 9630 C 932.487 -0.405497 5.20724 0
M  V30 9631 H 934.181 0.0457618 2.99365 0
M  V30 9632 H 931.727 0.0234495 1.43981 0
M  V30 9633 H 933.68 -2.3365 3.50693 0
M  V30 9634 H 932.404 -2.35359 2.26437 0
M  V30 9635 H 931.063 -0.69133 3.60022 0
M  V30 9636 H 930.711 -3.14604 3.92471 0
M  V30 9637 H 930.411 -2.2433 5.43093 0
M  V30 9638 H 931.935 -3.15352 5.22863 0
M  V30 9639 H 933.349 -0.923076 5.6582 0
M  V30 9640 H 931.746 -0.208282 5.99738 0
M  V30 9641 H 932.816 0.567412 4.81569 0
M  V30 9642 N 934.159 -1.57557 0.0367827 0
M  V30 9643 C 935.109 -2.07182 -0.95183 0
M  V30 9644 C 936.093 -0.973921 -1.28076 0
M  V30 9645 O 937.285 -1.23741 -1.26559 0
M  V30 9646 C 934.414 -2.60869 -2.23164 0
M  V30 9647 C 933.5 -3.77602 -1.93074 0
M  V30 9648 N 933.891 -4.87923 -1.33283 0
M  V30 9649 C 932.189 -3.86234 -2.23023 0
M  V30 9650 C 932.89 -5.69083 -1.20498 0
M  V30 9651 N 931.866 -5.16233 -1.70306 0
M  V30 9652 H 935.668 -2.89876 -0.484647 0
M  V30 9653 H 933.182 -1.61528 -0.16804 0
M  V30 9654 H 935.179 -2.94716 -2.9487 0
M  V30 9655 H 933.839 -1.79607 -2.70502 0
M  V30 9656 H 934.85 -5.08018 -1.00686 0
M  V30 9657 H 931.527 -3.15891 -2.72981 0
M  V30 9658 H 932.917 -6.6779 -0.741999 0
M  V30 9659 N 935.637 0.236453 -1.55816 0
M  V30 9660 C 936.6 1.27633 -1.90375 0
M  V30 9661 C 937.6 1.40557 -0.781048 0
M  V30 9662 O 938.79 1.39078 -1.04895 0
M  V30 9663 C 935.922 2.65247 -2.14142 0
M  V30 9664 H 937.115 0.982019 -2.83366 0
M  V30 9665 H 934.668 0.476215 -1.48869 0
M  V30 9666 H 935.403 2.99801 -1.23653 0
M  V30 9667 H 935.188 2.57246 -2.95917 0
M  V30 9668 H 936.678 3.40313 -2.42026 0
M  V30 9669 N 937.115 1.49373 0.502552 0
M  V30 9670 C 938.045 1.68839 1.61294 0
M  V30 9671 C 939.026 0.537096 1.61398 0
M  V30 9672 O 940.211 0.772764 1.78163 0
M  V30 9673 C 937.341 1.75347 2.99784 0
M  V30 9674 C 936.295 2.90251 3.14545 0
M  V30 9675 C 935.621 2.8187 4.54371 0
M  V30 9676 C 936.921 4.31207 2.94717 0
M  V30 9677 H 938.615 2.61803 1.45257 0
M  V30 9678 H 936.161 1.25987 0.697371 0
M  V30 9679 H 938.114 1.87552 3.77362 0
M  V30 9680 H 936.838 0.789814 3.16906 0
M  V30 9681 H 935.497 2.77646 2.39392 0
M  V30 9682 H 935.145 1.83416 4.68367 0
M  V30 9683 H 934.845 3.5899 4.65188 0
M  V30 9684 H 936.369 2.96081 5.34012 0
M  V30 9685 H 937.783 4.44501 3.62065 0
M  V30 9686 H 936.18 5.09536 3.17007 0
M  V30 9687 H 937.25 4.45759 1.90857 0
M  V30 9688 N 938.594 -0.753485 1.38421 0
M  V30 9689 C 939.842 -1.50962 1.34368 0
M  V30 9690 C 940.163 -1.94889 -0.0656895 0
M  V30 9691 O 939.433 -1.67652 -1.01339 0
M  V30 9692 H 938.013 -0.559967 0.494415 0
M  V30 9693 H 940.675 -0.895665 1.73101 0
M  V30 9694 H 939.771 -2.40048 1.99458 0
M  V30 9695 N 940.072 -1.23292 -0.981677 0
M  V30 9696 C 941.004 -0.970782 -2.07626 0
M  V30 9697 C 942.017 0.0547506 -1.62708 0
M  V30 9698 O 943.206 -0.180623 -1.77584 0
M  V30 9699 C 940.306 -0.44055 -3.36024 0
M  V30 9700 C 939.479 -1.52595 -4.09919 0
M  V30 9701 C 938.538 -1.00082 -5.16595 0
M  V30 9702 O 937.564 -1.68951 -5.43548 0
M  V30 9703 N 938.766 0.172017 -5.80245 0
M  V30 9704 H 941.531 -1.91316 -2.30691 0
M  V30 9705 H 939.092 -1.14133 -1.14828 0
M  V30 9706 H 941.084 -0.0743111 -4.04632 0
M  V30 9707 H 939.654 0.407211 -3.09936 0
M  V30 9708 H 938.874 -2.06501 -3.35784 0
M  V30 9709 H 940.162 -2.2559 -4.56055 0
M  V30 9710 H 939.56 0.748129 -5.60731 0
M  V30 9711 H 938.117 0.479532 -6.50034 0
M  V30 9712 N 941.55 1.18024 -1.04442 0
M  V30 9713 C 942.798 1.87727 -0.74854 0
M  V30 9714 C 943.119 1.80975 0.726156 0
M  V30 9715 O 942.389 1.23061 1.52423 0
M  V30 9716 H 940.969 0.694974 -0.273897 0
M  V30 9717 H 943.631 1.43213 -1.32197 0
M  V30 9718 H 942.727 2.93665 -1.05674 0
M  V30 9719 N 943.028 0.824394 1.34319 0
M  V30 9720 C 943.978 0.219624 2.2694 0
M  V30 9721 C 944.962 -0.616964 1.48601 0
M  V30 9722 O 946.154 -0.471303 1.7061 0
M  V30 9723 C 943.283 -0.616379 3.37721 0
M  V30 9724 C 942.369 0.230917 4.23471 0
M  V30 9725 N 942.76 1.30264 4.88738 0
M  V30 9726 C 941.058 0.0155016 4.45997 0
M  V30 9727 C 941.759 1.82141 5.52449 0
M  V30 9728 N 940.735 1.12508 5.3183 0
M  V30 9729 H 944.537 1.03939 2.74907 0
M  V30 9730 H 942.051 0.667353 1.48055 0
M  V30 9731 H 944.048 -1.06582 4.03046 0
M  V30 9732 H 942.708 -1.43429 2.91304 0
M  V30 9733 H 943.719 1.68545 4.89707 0
M  V30 9734 H 940.396 -0.770128 4.10336 0
M  V30 9735 H 941.786 2.7181 6.14466 0
M  V30 9736 N 944.506 -1.46559 0.579492 0
M  V30 9737 C 945.755 -2.01606 0.0615735 0
M  V30 9738 C 946.068 -1.45695 -1.30508 0
M  V30 9739 O 947.274 -1.92541 -1.91416 0
M  V30 9740 C 945.73 -3.59851 0.059496 0
M  V30 9741 C 945.338 -4.24757 1.42427 0
M  V30 9742 C 947.082 -4.22567 -0.404646 0
M  V30 9743 C 944.989 -5.75072 1.38009 0
M  V30 9744 H 943.919 -0.753754 0.0192491 0
M  V30 9745 H 946.57 -1.68326 0.73066 0
M  V30 9746 H 944.952 -3.90193 -0.675691 0
M  V30 9747 H 946.126 -4.06029 2.17893 0
M  V30 9748 H 944.441 -3.74121 1.82817 0
M  V30 9749 H 947.038 -5.32748 -0.456441 0
M  V30 9750 H 947.381 -3.91279 -1.42149 0
M  V30 9751 H 947.914 -3.96839 0.276376 0
M  V30 9752 H 944.653 -6.11014 2.37364 0
M  V30 9753 H 944.173 -5.96073 0.667583 0
M  V30 9754 H 945.852 -6.37724 1.09163 0
M  V30 9755 N 945.984 -0.3171 -1.54377 0
M  V30 9756 C 947.224 0.288083 -2.0236 0
M  V30 9757 C 947.588 1.4985 -1.20038 0
M  V30 9758 O 948.789 2.17611 -1.57794 0
M  V30 9759 C 947.06 0.620192 -3.51978 0
M  V30 9760 S 948.619 1.20595 -4.21903 0
M  V30 9761 H 945.437 0.0875231 -0.705592 0
M  V30 9762 H 948.039 -0.448719 -1.90281 0
M  V30 9763 H 946.743 -0.268982 -4.09518 0
M  V30 9764 H 946.274 1.38736 -3.68125 0
M  V30 9765 H 948.289 2.49308 -4.29022 0
M  V30 9766 N 947.462 1.57535 -0.0451378 0
M  V30 9767 C 948.71 1.92071 0.628743 0
M  V30 9768 C 949.031 0.923635 1.71738 0
M  V30 9769 O 948.301 -0.0324376 1.95873 0
M  V30 9770 H 946.881 0.708995 0.235233 0
M  V30 9771 H 949.543 1.9466 -0.0967177 0
M  V30 9772 H 948.639 2.9314 1.07123 0
M  V30 9773 N 948.94 -0.228186 1.55939 0
M  V30 9774 C 949.903 -1.26621 1.91049 0
M  V30 9775 C 950.903 -1.40141 0.788491 0
M  V30 9776 O 952.093 -1.3852 1.05631 0
M  V30 9777 C 949.225 -2.64108 2.15545 0
M  V30 9778 H 950.418 -0.966978 2.83883 0
M  V30 9779 H 947.971 -0.468313 1.49119 0
M  V30 9780 H 948.706 -2.99141 1.25241 0
M  V30 9781 H 948.491 -2.55673 2.97277 0
M  V30 9782 H 949.981 -3.39025 2.43827 0
M  V30 9783 N 950.418 -1.49637 -0.494624 0
M  V30 9784 C 951.643 -1.63431 -1.27691 0
M  V30 9785 C 952.068 -0.30813 -1.85559 0
M  V30 9786 O 951.426 0.725083 -1.66169 0
M  V30 9787 C 951.474 -2.71043 -2.3784 0
M  V30 9788 O 950.578 -2.3066 -3.41862 0
M  V30 9789 H 949.919 -0.546804 -0.376698 0
M  V30 9790 H 952.449 -1.95866 -0.591413 0
M  V30 9791 H 952.459 -2.93406 -2.83508 0
M  V30 9792 H 951.134 -3.67306 -1.95088 0
M  V30 9793 H 949.711 -2.18652 -3.02069 0
M  V30 9794 N 951.896 0.746133 -1.38819 0
M  V30 9795 C 952.826 1.87344 -1.39372 0
M  V30 9796 C 953.807 1.68123 -0.258583 0
M  V30 9797 O 954.992 1.88606 -0.462769 0
M  V30 9798 C 952.122 3.24962 -1.22543 0
M  V30 9799 C 951.076 3.58799 -2.33339 0
M  V30 9800 C 950.402 4.95235 -2.01609 0
M  V30 9801 C 951.702 3.62911 -3.75624 0
M  V30 9802 H 953.396 1.87138 -2.33709 0
M  V30 9803 H 950.942 0.898937 -1.12495 0
M  V30 9804 H 952.895 4.03488 -1.21554 0
M  V30 9805 H 951.619 3.25667 -0.246707 0
M  V30 9806 H 950.278 2.82596 -2.33527 0
M  V30 9807 H 949.926 4.92508 -1.02202 0
M  V30 9808 H 949.626 5.18843 -2.75819 0
M  V30 9809 H 951.15 5.76131 -2.02251 0
M  V30 9810 H 952.564 4.31535 -3.77426 0
M  V30 9811 H 950.961 3.98031 -4.491 0
M  V30 9812 H 952.031 2.62967 -4.07402 0
M  V30 9813 N 953.375 1.23811 0.975125 0
M  V30 9814 C 954.624 1.06741 1.71141 0
M  V30 9815 C 954.937 -0.394986 1.9157 0
M  V30 9816 O 956.143 -0.685723 2.62698 0
M  V30 9817 C 954.599 1.86168 3.08009 0
M  V30 9818 C 954.207 3.36771 2.95448 0
M  V30 9819 C 955.951 1.77604 3.85561 0
M  V30 9820 C 953.858 4.0857 4.2758 0
M  V30 9821 H 952.788 0.395819 0.64175 0
M  V30 9822 H 955.439 1.47825 1.0872 0
M  V30 9823 H 953.821 1.37893 3.71216 0
M  V30 9824 H 954.995 3.92571 2.41298 0
M  V30 9825 H 953.31 3.46205 2.31368 0
M  V30 9826 H 955.907 2.28556 4.83391 0
M  V30 9827 H 956.25 0.739837 4.09673 0
M  V30 9828 H 956.783 2.23519 3.29065 0
M  V30 9829 H 953.522 5.12518 4.08663 0
M  V30 9830 H 953.042 3.57556 4.81574 0
M  V30 9831 H 954.721 4.15157 4.9624 0
M  V30 9832 N 954.853 -1.17469 1.05066 0
M  V30 9833 C 956.078 -1.92162 0.780298 0
M  V30 9834 C 956.503 -1.76222 -0.657832 0
M  V30 9835 O 955.861 -1.0791 -1.45688 0
M  V30 9836 C 955.909 -3.41292 1.16414 0
M  V30 9837 O 955.013 -4.1134 0.295531 0
M  V30 9838 H 954.354 -0.599127 0.286257 0
M  V30 9839 H 956.884 -1.48903 1.40318 0
M  V30 9840 H 956.894 -3.92029 1.13036 0
M  V30 9841 H 955.569 -3.52214 2.21175 0
M  V30 9842 H 954.146 -3.70857 0.389797 0
M  V30 9843 N 956.331 -0.831506 -1.3388 0
M  V30 9844 C 957.742 -0.481375 -1.80388 0
M  V30 9845 C 958.093 0.998993 -1.68863 0
M  V30 9846 O 957.218 1.77795 -1.2336 0
M  V30 9847 C 957.813 -0.86699 -3.27519 0
M  V30 9848 C 956.372 -0.569105 -3.72073 0
M  V30 9849 C 955.519 -1.07929 -2.55434 0
M  V30 9850 H 958.47 -1.02089 -1.21505 0
M  V30 9851 H 958.491 -0.174128 -3.80101 0
M  V30 9852 H 958.003 -1.94447 -3.35875 0
M  V30 9853 H 956.104 0.498607 -3.69249 0
M  V30 9854 H 956.217 -1.11918 -4.65845 0
M  V30 9855 H 954.581 -0.500465 -2.49735 0
M  V30 9856 H 955.364 -2.16339 -2.66556 0
M  V30 9857 N 957.809 1.4625 -0.587256 0
M  V30 9858 C 958.757 2.32076 0.156108 0
M  V30 9859 C 959.751 1.44756 0.879887 0
M  V30 9860 O 960.957 1.61356 0.797759 0
M  V30 9861 H 957.332 0.748808 0.0692098 0
M  V30 9862 H 959.303 2.9258 -0.586497 0
M  V30 9863 C 958.052 3.28008 1.15352 0
M  V30 9864 H 957.375 3.9518 0.60601 0
M  V30 9865 H 958.815 3.90832 1.64396 0
M  V30 9866 C 957.274 2.53691 2.21681 0
M  V30 9867 O 957.804 2.30329 3.29107 0
M  V30 9868 N 956.01 2.14174 1.96412 0
M  V30 9869 H 955.557 2.33374 1.09061 0
M  V30 9870 H 955.515 1.6477 2.67765 0
M  V30 9871 N 959.287 0.325282 1.54207 0
M  V30 9872 C 960.533 -0.269944 2.01601 0
M  V30 9873 C 960.888 -1.49643 1.20933 0
M  V30 9874 O 960.181 -1.89486 0.283838 0
M  V30 9875 C 960.375 -0.654292 3.5136 0
M  V30 9876 C 960.204 0.533397 4.46525 0
M  V30 9877 C 958.974 1.03304 4.94628 0
M  V30 9878 C 961.172 1.38613 4.95269 0
M  V30 9879 N 959.154 2.18495 5.73701 0
M  V30 9880 C 960.525 2.38519 5.72284 0
M  V30 9881 C 962.58 1.41369 4.77409 0
M  V30 9882 C 961.283 3.40988 6.3334 0
M  V30 9883 C 963.309 2.4271 5.39301 0
M  V30 9884 C 962.671 3.41343 6.16169 0
M  V30 9885 H 958.77 -0.0625778 0.779492 0
M  V30 9886 H 961.354 0.460711 1.89171 0
M  V30 9887 H 959.525 -1.35408 3.64032 0
M  V30 9888 H 961.257 -1.23114 3.85519 0
M  V30 9889 H 958.012 0.604045 4.69732 0
M  V30 9890 H 958.436 2.76605 6.17915 0
M  V30 9891 H 963.078 0.664796 4.17541 0
M  V30 9892 H 960.796 4.16784 6.92327 0
M  V30 9893 H 964.382 2.45647 5.27398 0
M  V30 9894 H 963.262 4.18476 6.6321 0
M  V30 9895 N 960.765 -1.57509 0.0534917 0
M  V30 9896 C 961.695 -2.14698 -0.917999 0
M  V30 9897 C 962.676 -1.06924 -1.32292 0
M  V30 9898 O 963.861 -1.34875 -1.39723 0
M  V30 9899 C 960.991 -2.69383 -2.19203 0
M  V30 9900 C 959.945 -3.82161 -1.9271 0
M  V30 9901 C 959.271 -4.23373 -3.26587 0
M  V30 9902 C 960.571 -5.07199 -1.24686 0
M  V30 9903 H 962.265 -2.96125 -0.44165 0
M  V30 9904 H 959.811 -1.42446 -0.210993 0
M  V30 9905 H 961.764 -3.08031 -2.87567 0
M  V30 9906 H 960.488 -1.85151 -2.69048 0
M  V30 9907 H 959.147 -3.43989 -1.26757 0
M  V30 9908 H 958.795 -3.36089 -3.74237 0
M  V30 9909 H 958.495 -4.99385 -3.09658 0
M  V30 9910 H 960.019 -4.64623 -3.96178 0
M  V30 9911 H 961.433 -5.43279 -1.83088 0
M  V30 9912 H 959.83 -5.88369 -1.18076 0
M  V30 9913 H 960.9 -4.84386 -0.223227 0
M  V30 9914 N 962.243 0.219913 -1.56058 0
M  V30 9915 C 963.489 0.945463 -1.79412 0
M  V30 9916 C 963.822 1.83922 -0.62341 0
M  V30 9917 O 963.097 1.90806 0.377256 0
M  V30 9918 C 963.38 1.783 -3.1286 0
M  V30 9919 C 963.233 0.915626 -4.40382 0
M  V30 9920 C 964.552 2.76045 -3.42764 0
M  V30 9921 H 961.671 0.342288 -0.652693 0
M  V30 9922 H 964.313 0.214235 -1.88788 0
M  V30 9923 H 962.463 2.40642 -3.04998 0
M  V30 9924 H 964.135 0.30882 -4.60265 0
M  V30 9925 H 962.378 0.221124 -4.33236 0
M  V30 9926 H 963.049 1.53607 -5.30197 0
M  V30 9927 H 965.525 2.23838 -3.50764 0
M  V30 9928 H 964.401 3.31748 -4.37304 0
M  V30 9929 H 964.662 3.53866 -2.65012 0
M  V30 9930 N 963.721 1.49897 0.486681 0
M  V30 9931 C 964.946 1.64106 1.26823 0
M  V30 9932 C 965.371 0.317967 1.85393 0
M  V30 9933 O 964.729 -0.71626 1.66551 0
M  V30 9934 C 964.777 2.72301 2.36399 0
M  V30 9935 O 963.881 2.32469 3.40634 0
M  V30 9936 H 963.222 0.548794 0.373793 0
M  V30 9937 H 965.752 1.96177 0.581017 0
M  V30 9938 H 965.762 2.94906 2.81948 0
M  V30 9939 H 964.437 3.68335 1.93137 0
M  V30 9940 H 963.014 2.20251 3.00905 0
M  V30 9941 N 965.199 -0.738761 1.39212 0
M  V30 9942 C 966.162 -1.83441 1.37412 0
M  V30 9943 C 967.162 -1.58484 0.271908 0
M  V30 9944 O 968.352 -1.65954 0.529609 0
M  V30 9945 C 965.484 -3.21167 1.143 0
M  V30 9946 H 966.677 -1.86441 2.34904 0
M  V30 9947 H 964.23 -0.942023 1.24722 0
M  V30 9948 H 964.965 -3.23829 0.174756 0
M  V30 9949 H 964.75 -3.40678 1.94116 0
M  V30 9950 H 966.24 -4.01231 1.15773 0
M  V30 9951 N 966.677 -1.24326 -0.968545 0
M  V30 9952 C 967.64 -1.03591 -2.04454 0
M  V30 9953 C 968.64 0.0064809 -1.60799 0
M  V30 9954 O 969.83 -0.234404 -1.72616 0
M  V30 9955 C 966.962 -0.56992 -3.36102 0
M  V30 9956 H 968.155 -1.99092 -2.24282 0
M  V30 9957 H 965.708 -1.06537 -1.14366 0
M  V30 9958 H 966.443 0.388325 -3.21967 0
M  V30 9959 H 966.228 -1.32227 -3.69132 0
M  V30 9960 H 967.718 -0.445854 -4.15213 0
M  V30 9961 N 968.156 1.1691 -1.05688 0
M  V30 9962 C 969.106 2.19056 -0.632339 0
M  V30 9963 C 970.09 1.574 0.333797 0
M  V30 9964 O 971.282 1.76361 0.150223 0
M  V30 9965 C 968.411 3.43297 -0.0138209 0
M  V30 9966 C 967.497 4.12042 -1.00408 0
M  V30 9967 N 967.888 4.56535 -2.17737 0
M  V30 9968 C 966.186 4.38139 -0.833663 0
M  V30 9969 C 966.887 5.09644 -2.80425 0
M  V30 9970 N 965.863 5.02153 -2.08191 0
M  V30 9971 H 969.665 2.51165 -1.52621 0
M  V30 9972 H 967.179 1.33294 -0.927707 0
M  V30 9973 H 969.176 4.1576 0.308117 0
M  V30 9974 H 967.836 3.12677 0.87538 0
M  V30 9975 H 968.847 4.50463 -2.55546 0
M  V30 9976 H 965.524 4.175 0.00406684 0
M  V30 9977 H 966.914 5.54153 -3.79952 0
M  V30 9978 N 969.634 0.838594 1.33437 0
M  V30 9979 C 970.874 0.440239 1.99603 0
M  V30 9980 C 971.238 -0.982061 1.64984 0
M  V30 9981 O 972.439 -1.48413 2.24114 0
M  V30 9982 C 970.71 0.654201 3.51362 0
M  V30 9983 S 972.269 0.351025 4.37394 0
M  V30 9984 H 969.087 0.165608 0.691444 0
M  V30 9985 H 971.689 1.08782 1.6244 0
M  V30 9986 H 970.393 1.68873 3.74045 0
M  V30 9987 H 969.924 -0.00754449 3.93399 0
M  V30 9988 H 971.939 -0.829298 4.89221 0
M  V30 9989 N 971.112 -1.45937 0.595003 0
M  V30 9990 C 972.342 -2.06399 0.0911607 0
M  V30 9991 C 972.75 -1.44236 -1.22444 0
M  V30 9992 O 972.093 -0.546265 -1.7539 0
M  V30 9993 C 972.155 -3.59242 -0.136079 0
M  V30 9994 C 971.819 -4.43668 1.09579 0
M  V30 9995 C 972.816 -4.79437 2.01088 0
M  V30 9996 C 970.501 -4.84616 1.32109 0
M  V30 9997 C 972.495 -5.54995 3.13464 0
M  V30 9998 C 970.182 -5.5993 2.44788 0
M  V30 9999 C 971.18 -5.95035 3.35294 0
M  V30 10000 O 970.868 -6.68825 4.46014 0
M  V30 10001 H 970.6 -0.673316 0.0601779 0
M  V30 10002 H 973.154 -1.88365 0.819005 0
M  V30 10003 H 971.384 -3.75629 -0.918676 0
M  V30 10004 H 973.073 -4.0159 -0.589954 0
M  V30 10005 H 973.839 -4.48371 1.84902 0
M  V30 10006 H 969.718 -4.56735 0.625662 0
M  V30 10007 H 973.262 -5.82314 3.84131 0
M  V30 10008 H 969.159 -5.90411 2.60931 0
M  V30 10009 H 969.927 -6.87262 4.44537 0
M  V30 10010 N 972.59 -0.333456 -1.54032 0
M  V30 10011 C 973.839 0.267081 -1.99924 0
M  V30 10012 C 974.152 1.52463 -1.22534 0
M  V30 10013 O 975.358 2.20178 -1.58852 0
M  V30 10014 C 973.814 0.526456 -3.56029 0
M  V30 10015 C 973.422 -0.714607 -4.42264 0
M  V30 10016 C 975.166 1.0864 -4.10363 0
M  V30 10017 C 973.073 -0.42659 -5.89859 0
M  V30 10018 H 972.003 0.103577 -0.746852 0
M  V30 10019 H 974.654 -0.447218 -1.77967 0
M  V30 10020 H 973.036 1.3012 -3.74012 0
M  V30 10021 H 974.21 -1.48968 -4.36056 0
M  V30 10022 H 972.525 -1.19547 -3.9887 0
M  V30 10023 H 975.122 1.31668 -5.18235 0
M  V30 10024 H 975.465 2.03884 -3.62956 0
M  V30 10025 H 975.998 0.37261 -3.96051 0
M  V30 10026 H 972.737 -1.34847 -6.4148 0
M  V30 10027 H 972.257 0.310588 -5.98995 0
M  V30 10028 H 973.936 -0.0400807 -6.46988 0
M  V30 10029 N 974.068 1.57479 -0.061844 0
M  V30 10030 C 975.345 1.84484 0.649993 0
M  V30 10031 C 975.725 0.952366 1.88396 0
M  V30 10032 O 975.073 0.0161035 2.28494 0
M  V30 10033 C 975.283 3.34452 0.997133 0
M  V30 10034 C 976.631 4.01724 1.37488 0
M  V30 10035 O 977.655 3.3914 1.08916 0
M  V30 10036 O 976.514 5.12091 1.90854 0
M  V30 10037 H 973.608 0.761798 0.321858 0
M  V30 10038 H 976.154 1.6945 -0.0920192 0
M  V30 10039 H 974.926 3.91115 0.120301 0
M  V30 10040 H 974.549 3.54713 1.79624 0
M  V30 10041 N 975.546 -0.211634 1.56173 0
M  V30 10042 C 976.823 -0.959467 1.70451 0
M  V30 10043 C 977.203 -2.02036 0.611942 0
M  V30 10044 O 976.551 -2.25325 -0.37959 0
M  V30 10045 C 976.761 -1.56092 3.12148 0
M  V30 10046 C 978.109 -2.04939 3.71867 0
M  V30 10047 O 979.133 -1.65966 3.15172 0
M  V30 10048 O 977.992 -2.766 4.71333 0
M  V30 10049 H 975.086 -0.448844 0.6946 0
M  V30 10050 H 977.632 -0.202633 1.68486 0
M  V30 10051 H 976.404 -0.79538 3.83131 0
M  V30 10052 H 976.027 -2.38303 3.18273 0
M  V30 10053 N 977.024 -1.50153 -0.478725 0
M  V30 10054 C 978.44 -1.3741 -0.811833 0
M  V30 10055 C 978.64 -0.424303 -1.96982 0
M  V30 10056 O 977.696 0.13588 -2.52134 0
M  V30 10057 C 979.009 -2.78616 -1.13108 0
M  V30 10058 C 980.557 -2.87477 -1.23798 0
M  V30 10059 C 981.032 -4.295 -1.5904 0
M  V30 10060 N 982.523 -4.32415 -1.66047 0
M  V30 10061 C 983.258 -5.39295 -1.94805 0
M  V30 10062 N 982.754 -6.56392 -2.21635 0
M  V30 10063 N 984.547 -5.26731 -1.96243 0
M  V30 10064 H 976.698 -2.10486 0.284531 0
M  V30 10065 H 978.961 -0.945786 0.0647585 0
M  V30 10066 H 978.667 -3.49921 -0.35334 0
M  V30 10067 H 978.541 -3.15382 -2.06915 0
M  V30 10068 H 980.928 -2.16396 -2.00641 0
M  V30 10069 H 981.009 -2.54264 -0.279888 0
M  V30 10070 H 980.653 -5.01115 -0.827404 0
M  V30 10071 H 980.583 -4.60194 -2.55987 0
M  V30 10072 H 983.074 -3.47975 -1.47383 0
M  V30 10073 H 983.387 -7.33658 -2.4283 0
M  V30 10074 H 981.732 -6.59579 -2.19043 0
M  V30 10075 H 984.923 -4.34249 -1.74773 0
M  V30 10076 H 985.096 -6.10115 -2.1832 0
M  V30 10077 N 978.502 0.731368 -1.39602 0
M  V30 10078 C 979.75 1.48805 -1.36753 0
M  V30 10079 C 980.071 1.94969 0.034676 0
M  V30 10080 O 979.341 1.69243 0.986591 0
M  V30 10081 H 977.921 0.55203 -0.503261 0
M  V30 10082 H 980.583 0.868013 -1.74504 0
M  V30 10083 H 979.679 2.36844 -2.03252 0
M  V30 10084 N 979.98 1.24838 0.961938 0
M  V30 10085 C 981.227 1.09151 1.70564 0
M  V30 10086 C 981.555 -0.368719 1.90973 0
M  V30 10087 O 980.81 -1.28854 1.47293 0
M  V30 10088 C 981.109 1.78289 3.09754 0
M  V30 10089 C 980.775 3.28216 3.09169 0
M  V30 10090 C 979.437 3.69118 3.08716 0
M  V30 10091 C 981.789 4.24035 3.03058 0
M  V30 10092 C 979.117 5.04263 2.99892 0
M  V30 10093 C 981.469 5.59195 2.95776 0
M  V30 10094 C 980.133 5.99436 2.93655 0
M  V30 10095 H 979.403 0.399414 0.624139 0
M  V30 10096 H 982.05 1.55016 1.12438 0
M  V30 10097 H 980.355 1.24835 3.7138 0
M  V30 10098 H 982.052 1.63612 3.66104 0
M  V30 10099 H 978.642 2.95667 3.10289 0
M  V30 10100 H 982.826 3.93431 3.02532 0
M  V30 10101 H 978.082 5.3463 2.96615 0
M  V30 10102 H 982.256 6.33142 2.90007 0
M  V30 10103 H 979.883 7.04116 2.86573 0
M  V30 10104 N 981.458 -1.16348 1.06306 0
M  V30 10105 C 982.874 -1.38873 0.786543 0
M  V30 10106 C 983.074 -1.91915 -0.614061 0
M  V30 10107 O 982.13 -2.11804 -1.3746 0
M  V30 10108 C 983.443 -2.36936 1.85154 0
M  V30 10109 C 984.991 -2.5062 1.87506 0
M  V30 10110 C 985.466 -3.51965 2.9306 0
M  V30 10111 N 986.957 -3.59492 2.92095 0
M  V30 10112 C 987.692 -4.37699 3.70415 0
M  V30 10113 N 987.188 -5.19327 4.58553 0
M  V30 10114 N 988.981 -4.32683 3.58806 0
M  V30 10115 H 981.132 -0.802542 1.96655 0
M  V30 10116 H 983.395 -0.415304 0.852189 0
M  V30 10117 H 983.101 -2.05056 2.85736 0
M  V30 10118 H 982.975 -3.36585 1.70267 0
M  V30 10119 H 985.362 -2.81804 0.875827 0
M  V30 10120 H 985.443 -1.51006 2.06472 0
M  V30 10121 H 985.087 -3.21518 3.93177 0
M  V30 10122 H 985.017 -4.51309 2.71344 0
M  V30 10123 H 987.508 -3.01222 2.28197 0
M  V30 10124 H 987.821 -5.76216 5.1497 0
M  V30 10125 H 986.166 -5.1867 4.62608 0
M  V30 10126 H 989.357 -3.67971 2.89335 0
M  V30 10127 H 989.53 -4.93386 4.20088 0
M  V30 10128 N 982.937 -0.845659 -1.3299 0
M  V30 10129 C 984.167 -0.457686 -2.01467 0
M  V30 10130 C 984.575 0.947664 -1.63756 0
M  V30 10131 O 983.918 1.62841 -0.850213 0
M  V30 10132 C 983.98 -0.506589 -3.55913 0
M  V30 10133 C 983.644 -1.86924 -4.17023 0
M  V30 10134 C 984.641 -2.83344 -4.35904 0
M  V30 10135 C 982.326 -2.16394 -4.53298 0
M  V30 10136 C 984.32 -4.07391 -4.90216 0
M  V30 10137 C 982.007 -3.40695 -5.07316 0
M  V30 10138 C 983.005 -4.3601 -5.25722 0
M  V30 10139 O 982.693 -5.58112 -5.7859 0
M  V30 10140 H 982.425 -0.179258 -0.651799 0
M  V30 10141 H 984.979 -1.14172 -1.70745 0
M  V30 10142 H 983.209 0.234253 -3.8599 0
M  V30 10143 H 984.898 -0.135487 -4.05674 0
M  V30 10144 H 985.664 -2.61879 -4.08221 0
M  V30 10145 H 981.543 -1.42994 -4.38262 0
M  V30 10146 H 985.087 -4.81796 -5.04498 0
M  V30 10147 H 980.984 -3.62014 -5.3443 0
M  V30 10148 H 981.752 -5.59946 -5.96995 0
M  V30 10149 N 984.415 1.45619 -0.602734 0
M  V30 10150 C 985.64 2.07157 -0.100429 0
M  V30 10151 C 986.065 1.44524 1.20393 0
M  V30 10152 O 985.423 0.536191 1.7319 0
M  V30 10153 C 985.471 3.60587 0.0308604 0
M  V30 10154 O 984.575 3.97944 1.08234 0
M  V30 10155 H 983.916 0.6601 -0.0718643 0
M  V30 10156 H 986.446 1.86948 -0.831366 0
M  V30 10157 H 986.456 4.07348 0.230634 0
M  V30 10158 H 985.131 4.05561 -0.921581 0
M  V30 10159 H 983.708 3.62862 0.859414 0
M  V30 10160 N 985.893 0.34162 1.53853 0
M  V30 10161 C 987.17 -0.310664 1.93117 0
M  V30 10162 C 987.55 -1.68398 1.273 0
M  V30 10163 O 986.898 -2.24546 0.423225 0
M  V30 10164 C 987.108 -0.384867 3.46871 0
M  V30 10165 C 988.456 -0.636621 4.198 0
M  V30 10166 O 989.48 -0.467061 3.53125 0
M  V30 10167 O 988.339 -0.964962 5.37913 0
M  V30 10168 H 985.433 -0.180881 0.806977 0
M  V30 10169 H 987.979 0.392656 1.65095 0
M  V30 10170 H 986.751 0.57894 3.86994 0
M  V30 10171 H 986.374 -1.13505 3.81054 0
M  V30 10172 N 987.371 -1.57444 0.0701946 0
M  V30 10173 C 988.782 -1.80875 -0.462709 0
M  V30 10174 C 989.133 -0.983975 -1.69742 0
M  V30 10175 O 988.258 -0.206027 -2.15417 0
M  V30 10176 C 988.853 -3.28062 -0.84623 0
M  V30 10177 C 987.412 -3.52345 -1.32401 0
M  V30 10178 C 986.559 -2.7558 -0.308399 0
M  V30 10179 H 989.51 -1.55917 0.295907 0
M  V30 10180 H 989.531 -3.40023 -1.70776 0
M  V30 10181 H 989.043 -3.88064 0.0526033 0
M  V30 10182 H 987.144 -2.97645 -2.24139 0
M  V30 10183 H 987.257 -4.6104 -1.30304 0
M  V30 10184 H 985.621 -2.4229 -0.785337 0
M  V30 10185 H 986.404 -3.38319 0.582679 0
M  V30 10186 N 988.849 0.203349 -1.56283 0
M  V30 10187 C 990.077 0.941426 -1.84241 0
M  V30 10188 C 990.492 1.77197 -0.651658 0
M  V30 10189 O 989.849 1.78506 0.379713 0
M  V30 10190 C 989.9 1.84429 -3.10915 0
M  V30 10191 O 989.621 1.04729 -4.25398 0
M  V30 10192 C 991.122 2.69474 -3.51993 0
M  V30 10193 H 988.342 0.27507 -0.612027 0
M  V30 10194 H 990.886 0.213088 -2.03387 0
M  V30 10195 H 989.041 2.52635 -2.93691 0
M  V30 10196 H 989.455 1.66179 -4.97478 0
M  V30 10197 H 990.929 3.28495 -4.43616 0
M  V30 10198 H 991.406 3.42775 -2.74594 0
M  V30 10199 H 992.012 2.06652 -3.71719 0
M  V30 10200 N 990.327 1.50405 0.470755 0
M  V30 10201 C 991.259 1.65447 1.58619 0
M  V30 10202 C 992.272 0.535949 1.53725 0
M  V30 10203 O 993.461 0.80914 1.59107 0
M  V30 10204 C 990.561 1.62318 2.975 0
M  V30 10205 C 989.734 2.90207 3.27259 0
M  V30 10206 C 988.793 2.79717 4.45696 0
M  V30 10207 O 987.819 3.53672 4.45987 0
M  V30 10208 N 989.021 1.93296 5.47373 0
M  V30 10209 H 991.786 2.61659 1.46132 0
M  V30 10210 H 989.347 1.47873 0.659178 0
M  V30 10211 H 991.339 1.52912 3.747 0
M  V30 10212 H 989.909 0.738392 3.03754 0
M  V30 10213 H 989.129 3.13737 2.38669 0
M  V30 10214 H 990.417 3.74931 3.43953 0
M  V30 10215 H 989.815 1.32524 5.49958 0
M  V30 10216 H 988.372 1.89793 6.23556 0
M  V30 10217 N 991.805 -0.723954 1.39988 0
M  V30 10218 C 993.051 -1.48476 1.3902 0
M  V30 10219 C 993.406 -1.92397 -0.0105439 0
M  V30 10220 O 992.699 -1.64683 -0.979294 0
M  V30 10221 C 992.893 -2.73004 2.30659 0
M  V30 10222 C 992.722 -2.41261 3.79504 0
M  V30 10223 C 991.492 -2.33013 4.48367 0
M  V30 10224 C 993.69 -2.06078 4.71207 0
M  V30 10225 N 991.672 -1.93856 5.82489 0
M  V30 10226 C 993.043 -1.77455 5.94062 0
M  V30 10227 C 995.098 -1.92642 4.59123 0
M  V30 10228 C 993.801 -1.36748 7.06182 0
M  V30 10229 C 995.827 -1.53338 5.71175 0
M  V30 10230 C 995.189 -1.25607 6.93111 0
M  V30 10231 H 991.288 -0.54172 0.563971 0
M  V30 10232 H 993.872 -0.840344 1.75631 0
M  V30 10233 H 992.043 -3.35209 1.96188 0
M  V30 10234 H 993.775 -3.39286 2.20606 0
M  V30 10235 H 990.53 -2.50476 4.01944 0
M  V30 10236 H 990.954 -1.7684 6.53496 0
M  V30 10237 H 995.596 -2.12745 3.65376 0
M  V30 10238 H 993.314 -1.15386 7.9982 0
M  V30 10239 H 996.9 -1.43532 5.63817 0
M  V30 10240 H 995.78 -0.956505 7.78345 0
M  V30 10241 N 993.283 -1.25346 -0.955304 0
M  V30 10242 C 994.511 -1.12793 -1.73451 0
M  V30 10243 C 994.926 0.318344 -1.86097 0
M  V30 10244 O 994.283 1.21897 -1.35821 0
M  V30 10245 C 994.334 -1.77603 -3.14864 0
M  V30 10246 O 994.055 -3.16577 -3.02837 0
M  V30 10247 C 995.556 -1.70821 -4.09066 0
M  V30 10248 H 992.776 -0.393457 -0.543537 0
M  V30 10249 H 995.32 -1.65696 -1.19855 0
M  V30 10250 H 993.475 -1.28673 -3.65407 0
M  V30 10251 H 993.889 -3.48433 -3.92039 0
M  V30 10252 H 995.363 -2.2083 -5.05903 0
M  V30 10253 H 995.84 -0.671858 -4.34031 0
M  V30 10254 H 996.446 -2.19237 -3.64438 0
M  V30 10255 N 994.761 1.15782 -1.06922 0
M  V30 10256 C 995.724 2.18578 -0.689654 0
M  V30 10257 C 996.724 1.58553 0.267872 0
M  V30 10258 O 997.914 1.7413 0.0494097 0
M  V30 10259 C 995.046 3.40896 -0.0157919 0
M  V30 10260 H 996.239 2.53672 -1.59971 0
M  V30 10261 H 993.792 1.30168 -0.865214 0
M  V30 10262 H 994.527 3.11367 0.906712 0
M  V30 10263 H 994.312 3.85721 -0.704415 0
M  V30 10264 H 995.802 4.16937 0.235266 0
M  V30 10265 N 996.239 0.8527 1.3254 0
M  V30 10266 C 997.486 0.455123 1.97319 0
M  V30 10267 C 997.814 -0.988814 1.67489 0
M  V30 10268 O 997.069 -1.70845 0.954483 0
M  V30 10269 C 997.368 0.638757 3.51646 0
M  V30 10270 C 997.034 2.05287 4.01458 0
M  V30 10271 C 995.696 2.43963 4.14771 0
M  V30 10272 C 998.048 2.9759 4.27889 0
M  V30 10273 C 995.376 3.7422 4.51859 0
M  V30 10274 C 997.728 4.27343 4.66434 0
M  V30 10275 C 996.392 4.65957 4.77954 0
M  V30 10276 H 995.662 0.166541 0.722042 0
M  V30 10277 H 998.309 1.08238 1.57977 0
M  V30 10278 H 996.614 -0.0717394 3.91734 0
M  V30 10279 H 998.311 0.311219 3.9979 0
M  V30 10280 H 994.901 1.74253 3.91579 0
M  V30 10281 H 999.085 2.68942 4.17114 0
M  V30 10282 H 994.341 4.03923 4.58973 0
M  V30 10283 H 998.515 4.9893 4.85841 0
M  V30 10284 H 996.142 5.66934 5.06449 0
M  V30 10285 N 997.718 -1.45297 0.610449 0
M  V30 10286 C 998.648 -2.33311 -0.0939698 0
M  V30 10287 C 999.629 -1.46999 -0.85588 0
M  V30 10288 O 1000.81 -1.75764 -0.825865 0
M  V30 10289 C 997.944 -3.29751 -1.09003 0
M  V30 10290 C 996.898 -4.2572 -0.441146 0
M  V30 10291 C 996.224 -5.11873 -1.54566 0
M  V30 10292 C 997.524 -5.1837 0.639489 0
M  V30 10293 H 999.218 -2.92459 0.640941 0
M  V30 10294 H 996.764 -1.40631 0.309675 0
M  V30 10295 H 998.717 -3.90195 -1.59141 0
M  V30 10296 H 997.441 -2.68768 -1.85557 0
M  V30 10297 H 996.1 -3.66579 0.0393908 0
M  V30 10298 H 995.748 -4.47256 -2.30155 0
M  V30 10299 H 995.448 -5.76886 -1.11698 0
M  V30 10300 H 996.972 -5.75185 -2.04925 0
M  V30 10301 H 998.386 -5.7287 0.22207 0
M  V30 10302 H 996.783 -5.91876 0.990089 0
M  V30 10303 H 997.853 -4.60627 1.51495 0
M  V30 10304 N 999.196 -0.349774 -1.5367 0
M  V30 10305 C 1000.44 0.244343 -2.00617 0
M  V30 10306 C 1000.76 1.50567 -1.23914 0
M  V30 10307 O 1000.03 1.92784 -0.348016 0
M  V30 10308 H 998.615 0.0932792 -0.741153 0
M  V30 10309 H 1001.28 -0.472367 -1.89089 0
M  V30 10310 H 1000.37 0.482433 -3.08349 0
M  V30 10311 N 1000.67 1.57404 -0.0785433 0
M  V30 10312 C 1001.6 2.16131 0.883726 0
M  V30 10313 C 1002.58 1.09015 1.30575 0
M  V30 10314 O 1003.77 1.3708 1.37559 0
M  V30 10315 C 1000.9 2.72836 2.1489 0
M  V30 10316 C 999.854 3.85178 1.86605 0
M  V30 10317 C 999.18 4.28516 3.1981 0
M  V30 10318 C 1000.48 5.09118 1.16601 0
M  V30 10319 H 1002.17 2.9679 0.394484 0
M  V30 10320 H 999.72 1.42763 0.188304 0
M  V30 10321 H 1001.67 3.12567 2.8263 0
M  V30 10322 H 1000.4 1.89408 2.66068 0
M  V30 10323 H 999.056 3.45962 1.21268 0
M  V30 10324 H 998.704 3.42 3.68843 0
M  V30 10325 H 998.404 5.04249 3.01674 0
M  V30 10326 H 999.928 4.70868 3.88737 0
M  V30 10327 H 1001.34 5.46123 1.74422 0
M  V30 10328 H 999.739 5.90173 1.087 0
M  V30 10329 H 1000.81 4.8468 0.146138 0
M  V30 10330 N 1002.15 -0.195058 1.56388 0
M  V30 10331 C 1003.1 -1.24584 1.90952 0
M  V30 10332 C 1004.09 -1.40993 0.77522 0
M  V30 10333 O 1005.28 -1.43363 1.03808 0
M  V30 10334 C 1002.41 -2.59064 2.25258 0
M  V30 10335 C 1001.49 -2.46447 3.45145 0
M  V30 10336 N 1001.88 -2.0351 4.63052 0
M  V30 10337 C 1000.18 -2.77339 3.49283 0
M  V30 10338 C 1000.88 -2.02785 5.45209 0
M  V30 10339 N 999.859 -2.4429 4.85616 0
M  V30 10340 H 1003.66 -0.9052 2.79613 0
M  V30 10341 H 1001.17 -0.403493 1.57308 0
M  V30 10342 H 1003.17 -3.34963 2.48205 0
M  V30 10343 H 1001.83 -2.93951 1.37924 0
M  V30 10344 H 1002.84 -1.74219 4.87717 0
M  V30 10345 H 999.52 -3.16423 2.72365 0
M  V30 10346 H 1000.91 -1.71489 6.49647 0
M  V30 10347 N 1003.63 -1.50653 -0.462772 0
M  V30 10348 C 1004.91 -1.5258 -1.22387 0
M  V30 10349 C 1005.29 -0.275263 -2.09298 0
M  V30 10350 O 1004.63 0.740943 -2.16153 0
M  V30 10351 C 1004.84 -2.82611 -2.04773 0
M  V30 10352 C 1006.19 -3.33592 -2.62681 0
M  V30 10353 O 1007.22 -2.83989 -2.15008 0
M  V30 10354 O 1006.08 -4.20081 -3.49563 0
M  V30 10355 H 1003.17 -0.612367 -0.55582 0
M  V30 10356 H 1005.72 -1.62948 -0.473914 0
M  V30 10357 H 1004.49 -3.65098 -1.40781 0
M  V30 10358 H 1004.11 -2.75286 -2.86886 0
M  V30 10359 N 1005.11 0.71652 -1.4037 0
M  V30 10360 C 1006.04 1.84138 -1.36477 0
M  V30 10361 C 1007.05 1.6054 -0.27033 0
M  V30 10362 O 1008.24 1.70431 -0.530612 0
M  V30 10363 C 1005.34 3.20523 -1.10082 0
M  V30 10364 C 1004.52 3.71326 -2.31162 0
M  V30 10365 C 1003.57 4.86322 -2.00942 0
M  V30 10366 O 1002.6 4.99022 -2.73799 0
M  V30 10367 N 1003.8 5.72051 -0.986812 0
M  V30 10368 H 1006.57 1.87977 -2.3342 0
M  V30 10369 H 1004.13 0.89802 -1.34712 0
M  V30 10370 H 1006.12 3.95049 -0.878526 0
M  V30 10371 H 1004.69 3.11838 -0.21809 0
M  V30 10372 H 1003.91 2.87941 -2.69227 0
M  V30 10373 H 1005.2 4.02003 -3.11883 0
M  V30 10374 H 1004.6 5.64399 -0.383381 0
M  V30 10375 H 1003.15 6.46565 -0.824419 0
M  V30 10376 N 1006.59 1.25851 0.948643 0
M  V30 10377 C 1007.81 1.13813 1.73382 0
M  V30 10378 C 1008.24 -0.303615 1.85633 0
M  V30 10379 O 1007.59 -1.21997 1.34114 0
M  V30 10380 C 1007.64 1.80388 3.12238 0
M  V30 10381 O 1006.75 1.08759 3.978 0
M  V30 10382 H 1006.09 0.397006 0.532243 0
M  V30 10383 H 1008.62 1.66529 1.18866 0
M  V30 10384 H 1008.63 1.86913 3.62667 0
M  V30 10385 H 1007.3 2.85278 3.02637 0
M  V30 10386 H 1005.88 1.10157 3.56258 0
M  V30 10387 N 1008.06 -1.15214 1.07534 0
M  V30 10388 C 1009 -2.19634 0.655261 0
M  V30 10389 C 1010.01 -1.60139 -0.293165 0
M  V30 10390 O 1011.2 -1.78311 -0.0821957 0
M  V30 10391 C 1008.3 -3.38851 -0.0578281 0
M  V30 10392 C 1007.47 -4.27888 0.90725 0
M  V30 10393 C 1006.53 -5.25692 0.231115 0
M  V30 10394 O 1005.56 -5.62469 0.872746 0
M  V30 10395 N 1006.76 -5.71424 -1.0225 0
M  V30 10396 H 1009.52 -2.56292 1.55353 0
M  V30 10397 H 1007.08 -1.30347 0.960271 0
M  V30 10398 H 1009.08 -4.01334 -0.520874 0
M  V30 10399 H 1007.65 -3.00593 -0.858071 0
M  V30 10400 H 1006.87 -3.62475 1.54937 0
M  V30 10401 H 1008.15 -4.84246 1.56151 0
M  V30 10402 H 1007.55 -5.43659 -1.56369 0
M  V30 10403 H 1006.11 -6.35938 -1.42919 0
M  V30 10404 N 1009.54 -0.859717 -1.32086 0
M  V30 10405 C 1010.96 -0.55025 -1.49815 0
M  V30 10406 C 1011.16 0.917966 -1.79376 0
M  V30 10407 O 1010.21 1.70073 -1.86632 0
M  V30 10408 C 1011.53 -1.44161 -2.6389 0
M  V30 10409 C 1013.08 -1.44257 -2.77775 0
M  V30 10410 C 1013.55 -2.31926 -3.94936 0
M  V30 10411 N 1015.04 -2.2975 -4.02206 0
M  V30 10412 C 1015.78 -2.9431 -4.92107 0
M  V30 10413 N 1015.27 -3.68001 -5.86981 0
M  V30 10414 N 1017.07 -2.83671 -4.8527 0
M  V30 10415 H 1009.22 -1.80987 -1.11164 0
M  V30 10416 H 1011.48 -0.773313 -0.548353 0
M  V30 10417 H 1011.19 -2.48588 -2.4879 0
M  V30 10418 H 1011.06 -1.13268 -3.59792 0
M  V30 10419 H 1013.45 -0.405923 -2.92295 0
M  V30 10420 H 1013.53 -1.79169 -1.82571 0
M  V30 10421 H 1013.17 -3.35661 -3.81174 0
M  V30 10422 H 1013.1 -1.94344 -4.89426 0
M  V30 10423 H 1015.59 -1.76177 -3.3432 0
M  V30 10424 H 1015.91 -4.14417 -6.52287 0
M  V30 10425 H 1014.25 -3.72109 -5.86992 0
M  V30 10426 H 1017.44 -2.25647 -4.10123 0
M  V30 10427 H 1017.61 -3.34267 -5.5513 0
M  V30 10428 N 1011.02 1.44971 -0.618145 0
M  V30 10429 C 1012.25 2.07039 -0.122395 0
M  V30 10430 C 1012.67 1.45793 1.18853 0
M  V30 10431 O 1012.03 0.55453 1.72611 0
M  V30 10432 C 1012.08 3.60599 -0.0073864 0
M  V30 10433 O 1011.18 3.99069 1.04007 0
M  V30 10434 H 1010.52 0.6593 -0.0788615 0
M  V30 10435 H 1013.05 1.86055 -0.851147 0
M  V30 10436 H 1013.06 4.07569 0.187417 0
M  V30 10437 H 1011.74 4.04561 -0.964544 0
M  V30 10438 H 1010.31 3.63753 0.820879 0
M  V30 10439 N 1012.5 0.357919 1.53482 0
M  V30 10440 C 1013.46 -0.479797 2.24122 0
M  V30 10441 C 1014.46 -1.01596 1.24639 0
M  V30 10442 O 1015.65 -0.902928 1.48973 0
M  V30 10443 C 1012.78 -1.66983 2.97203 0
M  V30 10444 H 1013.98 0.138219 2.99581 0
M  V30 10445 H 1011.53 0.109484 1.55916 0
M  V30 10446 H 1012.26 -2.32615 2.25966 0
M  V30 10447 H 1012.05 -1.29242 3.70188 0
M  V30 10448 H 1013.54 -2.26367 3.50924 0
M  V30 10449 N 1013.98 -1.5736 0.0868897 0
M  V30 10450 C 1015.39 -1.81356 -0.443499 0
M  V30 10451 C 1015.74 -1.00192 -1.68689 0
M  V30 10452 O 1014.86 -0.228863 -2.15186 0
M  V30 10453 C 1015.46 -3.28941 -0.811387 0
M  V30 10454 C 1014.02 -3.53729 -1.28656 0
M  V30 10455 C 1013.16 -2.75891 -0.279153 0
M  V30 10456 H 1016.12 -1.55594 0.312427 0
M  V30 10457 H 1016.14 -3.41815 -1.6716 0
M  V30 10458 H 1015.65 -3.87987 0.0937598 0
M  V30 10459 H 1013.75 -3.00005 -2.2097 0
M  V30 10460 H 1013.86 -4.62396 -1.25406 0
M  V30 10461 H 1012.23 -2.4311 -0.759595 0
M  V30 10462 H 1013.01 -3.37682 0.618529 0
M  V30 10463 N 1015.45 0.186762 -1.56489 0
M  V30 10464 C 1016.7 0.904063 -1.80752 0
M  V30 10465 C 1017.02 1.83443 -0.661343 0
M  V30 10466 O 1016.29 1.93272 0.319811 0
M  V30 10467 H 1014.87 0.336828 -0.66675 0
M  V30 10468 H 1017.54 0.190275 -1.93969 0
M  V30 10469 H 1016.63 1.49021 -2.74225 0
M  V30 10470 N 1016.93 1.50896 0.454776 0
M  V30 10471 C 1018.18 1.6294 1.20741 0
M  V30 10472 C 1018.51 0.336339 1.91265 0
M  V30 10473 O 1017.79 -0.663153 1.82846 0
M  V30 10474 C 1018.07 2.82092 2.23822 0
M  V30 10475 C 1017.92 4.21326 1.57495 0
M  V30 10476 C 1019.24 2.96777 3.24979 0
M  V30 10477 H 1016.36 0.59302 0.437603 0
M  V30 10478 H 1019 1.83331 0.498959 0
M  V30 10479 H 1017.15 2.64837 2.84243 0
M  V30 10480 H 1018.82 4.50209 1.00546 0
M  V30 10481 H 1017.07 4.24829 0.877664 0
M  V30 10482 H 1017.74 5.00656 2.32482 0
M  V30 10483 H 1020.21 3.12627 2.74597 0
M  V30 10484 H 1019.09 3.81742 3.94416 0
M  V30 10485 H 1019.35 2.08091 3.90065 0
M  V30 10486 N 1018.41 -0.709066 1.40748 0
M  V30 10487 C 1019.34 -1.83412 1.37451 0
M  V30 10488 C 1020.36 -1.60394 0.27884 0
M  V30 10489 O 1021.54 -1.70147 0.539642 0
M  V30 10490 C 1018.64 -3.19935 1.1178 0
M  V30 10491 C 1017.82 -3.70095 2.33128 0
M  V30 10492 C 1016.88 -4.85249 2.03518 0
M  V30 10493 O 1015.9 -4.97563 2.76442 0
M  V30 10494 N 1017.1 -5.7152 1.01714 0
M  V30 10495 H 1019.87 -1.86736 2.34414 0
M  V30 10496 H 1017.43 -0.890863 1.35186 0
M  V30 10497 H 1019.42 -3.94578 0.899464 0
M  V30 10498 H 1017.99 -3.11718 0.234624 0
M  V30 10499 H 1017.21 -2.8651 2.70751 0
M  V30 10500 H 1018.5 -4.00344 3.1401 0
M  V30 10501 H 1017.9 -5.64188 0.413307 0
M  V30 10502 H 1016.46 -6.46119 0.858696 0
M  V30 10503 N 1019.89 -1.26353 -0.941956 0
M  V30 10504 C 1020.8 -1.09618 -2.07415 0
M  V30 10505 C 1021.82 -0.0298963 -1.73974 0
M  V30 10506 O 1022.99 -0.233466 -2.00042 0
M  V30 10507 C 1020.06 -0.73013 -3.38925 0
M  V30 10508 C 1019.12 -1.87574 -3.86153 0
M  V30 10509 C 1018.35 -1.52706 -5.11387 0
M  V30 10510 O 1018.57 -0.428438 -5.68789 0
M  V30 10511 O 1017.51 -2.36154 -5.53638 0
M  V30 10512 H 1021.33 -2.04598 -2.2444 0
M  V30 10513 H 1018.92 -1.05407 -1.05876 0
M  V30 10514 H 1020.8 -0.538684 -4.17943 0
M  V30 10515 H 1019.48 0.190282 -3.2314 0
M  V30 10516 H 1018.38 -2.12214 -3.08084 0
M  V30 10517 H 1019.72 -2.77585 -4.06457 0
M  V30 10518 N 1021.37 1.14642 -1.08144 0
M  V30 10519 C 1022.78 1.37604 -0.808537 0
M  V30 10520 C 1022.98 1.92868 0.583452 0
M  V30 10521 O 1022.04 2.13964 1.34073 0
M  V30 10522 C 1023.35 2.3396 -1.889 0
M  V30 10523 C 1024.9 2.47605 -1.9147 0
M  V30 10524 C 1025.38 3.47258 -2.98623 0
M  V30 10525 N 1026.87 3.548 -2.97777 0
M  V30 10526 C 1027.6 4.31751 -3.77331 0
M  V30 10527 N 1027.1 5.11966 -4.66757 0
M  V30 10528 N 1028.89 4.2692 -3.65645 0
M  V30 10529 H 1021.04 0.771154 -1.97906 0
M  V30 10530 H 1023.3 0.401694 -0.858688 0
M  V30 10531 H 1023.01 2.00484 -2.88962 0
M  V30 10532 H 1022.88 3.33833 -1.756 0
M  V30 10533 H 1025.27 2.80375 -0.920548 0
M  V30 10534 H 1025.35 1.47702 -2.08848 0
M  V30 10535 H 1025 3.15223 -3.98243 0
M  V30 10536 H 1024.93 4.46935 -2.7849 0
M  V30 10537 H 1027.42 2.97553 -2.3296 0
M  V30 10538 H 1027.73 5.67951 -5.24072 0
M  V30 10539 H 1026.08 5.11245 -4.70801 0
M  V30 10540 H 1029.27 3.63322 -2.95152 0
M  V30 10541 H 1029.44 4.8664 -4.27885 0
M  V30 10542 N 1022.85 0.866709 1.31628 0
M  V30 10543 C 1024.26 0.558188 1.49521 0
M  V30 10544 C 1024.46 -0.90844 1.7986 0
M  V30 10545 O 1023.52 -1.6908 1.87531 0
M  V30 10546 C 1024.83 1.45559 2.63122 0
M  V30 10547 C 1026.38 1.45728 2.77006 0
M  V30 10548 C 1026.85 2.34017 3.937 0
M  V30 10549 N 1028.34 2.31879 4.00982 0
M  V30 10550 C 1029.08 2.96915 4.90539 0
M  V30 10551 N 1028.58 3.71109 5.85021 0
M  V30 10552 N 1030.37 2.86241 4.83759 0
M  V30 10553 H 1022.52 1.81574 1.10203 0
M  V30 10554 H 1024.78 0.77621 0.544244 0
M  V30 10555 H 1024.49 2.49904 2.47469 0
M  V30 10556 H 1024.36 1.15174 3.59186 0
M  V30 10557 H 1026.75 0.421419 2.92075 0
M  V30 10558 H 1026.83 1.80134 1.81619 0
M  V30 10559 H 1026.47 3.37678 3.79389 0
M  V30 10560 H 1026.4 1.96937 4.88388 0
M  V30 10561 H 1028.9 1.77948 3.33381 0
M  V30 10562 H 1029.21 4.1787 6.5008 0
M  V30 10563 H 1027.55 3.75217 5.8501 0
M  V30 10564 H 1030.74 2.27819 4.08921 0
M  V30 10565 H 1030.92 3.37206 5.5335 0
M  V30 10566 N 1024.32 -1.44642 0.625825 0
M  V30 10567 C 1025.25 -2.33397 -0.0692188 0
M  V30 10568 C 1026.23 -1.47898 -0.840241 0
M  V30 10569 O 1027.42 -1.7663 -0.807176 0
M  V30 10570 C 1024.55 -3.30888 -1.055 0
M  V30 10571 C 1023.5 -4.26164 -0.395968 0
M  V30 10572 C 1022.83 -5.13483 -1.49128 0
M  V30 10573 C 1024.13 -5.17663 0.694433 0
M  V30 10574 H 1025.82 -2.91763 0.671925 0
M  V30 10575 H 1023.37 -1.40294 0.324573 0
M  V30 10576 H 1025.32 -3.91861 -1.54993 0
M  V30 10577 H 1024.05 -2.7072 -1.82696 0
M  V30 10578 H 1022.71 -3.66516 0.0782691 0
M  V30 10579 H 1022.35 -4.49672 -2.25399 0
M  V30 10580 H 1022.05 -5.78038 -1.05573 0
M  V30 10581 H 1023.58 -5.77327 -1.98813 0
M  V30 10582 H 1024.99 -5.72602 0.282818 0
M  V30 10583 H 1023.39 -5.90793 1.05281 0
M  V30 10584 H 1024.46 -4.58994 1.56372 0
M  V30 10585 N 1025.8 -0.366053 -1.5329 0
M  V30 10586 C 1026.75 0.480205 -2.25749 0
M  V30 10587 C 1027.72 1.07713 -1.2644 0
M  V30 10588 O 1028.9 1.10953 -1.55222 0
M  V30 10589 C 1026.04 1.61374 -3.05045 0
M  V30 10590 C 1025.16 1.04194 -4.19246 0
M  V30 10591 C 1024.29 2.14462 -4.85983 0
M  V30 10592 C 1023.33 1.5475 -5.92215 0
M  V30 10593 N 1022.47 2.58852 -6.52641 0
M  V30 10594 H 1027.31 -0.144199 -2.97651 0
M  V30 10595 H 1024.84 -0.0829321 -1.46866 0
M  V30 10596 H 1026.8 2.28144 -3.49294 0
M  V30 10597 H 1025.43 2.2088 -2.35397 0
M  V30 10598 H 1024.48 0.264514 -3.79479 0
M  V30 10599 H 1025.8 0.565379 -4.95585 0
M  V30 10600 H 1024.95 2.89051 -5.33418 0
M  V30 10601 H 1023.69 2.6547 -4.09117 0
M  V30 10602 H 1022.69 0.786759 -5.44142 0
M  V30 10603 H 1023.92 1.04566 -6.71001 0
M  V30 10604 H 1021.87 3.09073 -5.78627 0
M  V30 10605 H 1021.78 2.15884 -7.24521 0
M  V30 10606 H 1023.05 3.33142 -7.04724 0
M  V30 10607 N 1027.28 1.57312 -0.0952337 0
M  V30 10608 C 1028.7 1.57445 0.261416 0
M  V30 10609 C 1028.9 1.10639 1.68408 0
M  V30 10610 O 1027.95 0.782912 2.40056 0
M  V30 10611 C 1029.26 3.00659 0.0497206 0
M  V30 10612 C 1030.81 3.1278 0.117459 0
M  V30 10613 C 1031.29 4.57952 -0.0662441 0
M  V30 10614 N 1032.78 4.63199 -0.0114146 0
M  V30 10615 C 1033.51 5.73255 -0.128799 0
M  V30 10616 N 1033.01 6.92146 -0.301026 0
M  V30 10617 N 1034.8 5.62056 -0.0700599 0
M  V30 10618 H 1026.95 1.86045 -1.02475 0
M  V30 10619 H 1029.22 0.858726 -0.401614 0
M  V30 10620 H 1028.92 3.39102 -0.932888 0
M  V30 10621 H 1028.8 3.68792 0.791975 0
M  V30 10622 H 1031.18 2.74209 1.09057 0
M  V30 10623 H 1031.26 2.47238 -0.656288 0
M  V30 10624 H 1030.91 4.97217 -1.03623 0
M  V30 10625 H 1030.84 5.21555 0.727198 0
M  V30 10626 H 1033.33 3.77712 0.119154 0
M  V30 10627 H 1033.64 7.71855 -0.382104 0
M  V30 10628 H 1031.99 6.94184 -0.336695 0
M  V30 10629 H 1035.18 4.68057 0.0633587 0
M  V30 10630 H 1035.35 6.4779 -0.164991 0
M  V30 10631 N 1028.76 -0.17846 1.56586 0
M  V30 10632 C 1030.01 -0.894502 1.8078 0
M  V30 10633 C 1030.32 -1.8372 0.67129 0
M  V30 10634 O 1031.53 -2.59509 0.797971 0
M  V30 10635 C 1029.98 -1.64109 3.20306 0
M  V30 10636 C 1029.59 -0.742387 4.41806 0
M  V30 10637 C 1031.33 -2.34578 3.53798 0
M  V30 10638 C 1029.24 -1.4888 5.72354 0
M  V30 10639 H 1028.17 -0.33776 0.674117 0
M  V30 10640 H 1030.82 -0.14752 1.82906 0
M  V30 10641 H 1029.2 -2.43257 3.12477 0
M  V30 10642 H 1030.38 0.011615 4.60799 0
M  V30 10643 H 1028.69 -0.147705 4.16138 0
M  V30 10644 H 1031.29 -2.91004 4.48577 0
M  V30 10645 H 1031.63 -3.09572 2.78336 0
M  V30 10646 H 1032.17 -1.62381 3.63149 0
M  V30 10647 H 1028.9 -0.781325 6.50827 0
M  V30 10648 H 1028.42 -2.21631 5.57351 0
M  V30 10649 H 1030.1 -2.03819 6.14058 0
M  V30 10650 N 1030.24 -1.51135 -0.446768 0
M  V30 10651 C 1031.48 -1.62571 -1.19388 0
M  V30 10652 C 1031.8 -0.3432 -1.92566 0
M  V30 10653 O 1033 -0.336804 -2.69403 0
M  V30 10654 C 1031.46 -2.87071 -2.17068 0
M  V30 10655 C 1031.07 -4.22291 -1.49581 0
M  V30 10656 C 1032.81 -3.07862 -2.9227 0
M  V30 10657 C 1030.72 -5.3795 -2.45689 0
M  V30 10658 H 1029.65 -0.60549 -0.449331 0
M  V30 10659 H 1032.3 -1.77593 -0.461846 0
M  V30 10660 H 1030.68 -2.65662 -2.93666 0
M  V30 10661 H 1031.86 -4.54046 -0.786054 0
M  V30 10662 H 1030.17 -4.07302 -0.865677 0
M  V30 10663 H 1032.77 -3.91444 -3.64246 0
M  V30 10664 H 1033.11 -2.20559 -3.53072 0
M  V30 10665 H 1033.64 -3.29566 -2.2278 0
M  V30 10666 H 1030.38 -6.27484 -1.89591 0
M  V30 10667 H 1029.9 -5.10583 -3.14746 0
M  V30 10668 H 1031.58 -5.69517 -3.07017 0
M  V30 10669 N 1031.71 0.701592 -1.41122 0
M  V30 10670 C 1032.94 1.49553 -1.43696 0
M  V30 10671 C 1033.36 1.88053 -0.0421865 0
M  V30 10672 O 1032.72 1.54223 0.953144 0
M  V30 10673 C 1032.77 2.73834 -2.34622 0
M  V30 10674 O 1031.87 3.71088 -1.7991 0
M  V30 10675 H 1031.21 0.450352 -0.487933 0
M  V30 10676 H 1033.74 0.862886 -1.85514 0
M  V30 10677 H 1033.75 3.22209 -2.5029 0
M  V30 10678 H 1032.43 2.45149 -3.35969 0
M  V30 10679 H 1031.01 3.29994 -1.73661 0
M  V30 10680 N 1033.19 1.2685 0.935242 0
M  V30 10681 C 1034.14 1.05586 2.02078 0
M  V30 10682 C 1035.13 -0.013699 1.60894 0
M  V30 10683 O 1036.32 0.203956 1.75821 0
M  V30 10684 C 1033.45 0.697118 3.36148 0
M  V30 10685 C 1032.53 1.80444 3.83798 0
M  V30 10686 N 1032.92 3.04283 4.04037 0
M  V30 10687 C 1031.22 1.68939 4.12766 0
M  V30 10688 C 1031.92 3.7629 4.436 0
M  V30 10689 N 1030.9 3.04011 4.50642 0
M  V30 10690 H 1034.7 1.99577 2.15746 0
M  V30 10691 H 1032.21 1.17455 1.12153 0
M  V30 10692 H 1034.21 0.525915 4.1357 0
M  V30 10693 H 1032.87 -0.235247 3.23847 0
M  V30 10694 H 1033.88 3.40125 3.90558 0
M  V30 10695 H 1030.56 0.827341 4.0922 0
M  V30 10696 H 1031.95 4.82687 4.67401 0
M  V30 10697 N 1034.67 -1.14067 1.0875 0
M  V30 10698 C 1036.08 -1.66747 0.839778 0
M  V30 10699 C 1036.43 -1.85711 -0.632909 0
M  V30 10700 O 1035.56 -1.57084 -1.48841 0
M  V30 10701 C 1036.15 -3.02896 1.51787 0
M  V30 10702 C 1034.71 -3.52596 1.3173 0
M  V30 10703 C 1033.86 -2.27994 1.57841 0
M  V30 10704 H 1036.81 -0.980838 1.24761 0
M  V30 10705 H 1036.83 -3.68526 0.947057 0
M  V30 10706 H 1036.34 -2.89062 2.58969 0
M  V30 10707 H 1034.44 -3.71647 0.266339 0
M  V30 10708 H 1034.56 -4.33151 2.04736 0
M  V30 10709 H 1032.92 -2.34241 1.00015 0
M  V30 10710 H 1033.7 -2.16732 2.66237 0
M  V30 10711 N 1036.15 -0.873678 -1.31166 0
M  V30 10712 C 1037.4 -0.486457 -1.9657 0
M  V30 10713 C 1037.72 0.962042 -1.69041 0
M  V30 10714 O 1036.98 1.69305 -0.981543 0
M  V30 10715 C 1037.28 -0.69462 -3.50585 0
M  V30 10716 C 1036.94 -2.11647 -3.98141 0
M  V30 10717 C 1035.61 -2.50531 -4.10838 0
M  V30 10718 C 1037.96 -3.0436 -4.23101 0
M  V30 10719 C 1035.29 -3.81361 -4.45848 0
M  V30 10720 C 1037.64 -4.34709 -4.59577 0
M  V30 10721 C 1036.3 -4.73502 -4.70481 0
M  V30 10722 H 1035.57 -0.178007 -0.719301 0
M  V30 10723 H 1038.22 -1.10737 -1.56235 0
M  V30 10724 H 1036.52 0.00940878 -3.91799 0
M  V30 10725 H 1038.22 -0.374782 -3.99245 0
M  V30 10726 H 1034.81 -1.8046 -3.88757 0
M  V30 10727 H 1038.99 -2.75544 -4.12782 0
M  V30 10728 H 1034.25 -4.11174 -4.52488 0
M  V30 10729 H 1038.42 -5.06596 -4.77842 0
M  V30 10730 H 1036.05 -5.74919 -4.97365 0
M  V30 10731 N 1037.63 1.44308 -0.633487 0
M  V30 10732 C 1038.87 2.02023 -0.138917 0
M  V30 10733 C 1039.2 1.49841 1.24008 0
M  V30 10734 O 1038.46 0.673718 1.83738 0
M  V30 10735 C 1038.76 3.57316 -0.0773886 0
M  V30 10736 C 1038.42 4.28762 -1.39548 0
M  V30 10737 C 1037.08 4.47997 -1.75648 0
M  V30 10738 C 1039.44 4.69391 -2.26542 0
M  V30 10739 C 1036.76 5.05121 -2.98445 0
M  V30 10740 C 1039.12 5.27876 -3.48612 0
M  V30 10741 C 1037.78 5.45329 -3.84932 0
M  V30 10742 H 1037.05 0.739254 -0.0508333 0
M  V30 10743 H 1039.7 1.73043 -0.820271 0
M  V30 10744 H 1038 3.85724 0.687345 0
M  V30 10745 H 1039.7 3.99706 0.321837 0
M  V30 10746 H 1036.29 4.14122 -1.10456 0
M  V30 10747 H 1040.47 4.54241 -1.99946 0
M  V30 10748 H 1035.73 5.16821 -3.26658 0
M  V30 10749 H 1039.9 5.58307 -4.16253 0
M  V30 10750 H 1037.53 5.8936 -4.80166 0
M  V30 10751 N 1039.1 0.374177 1.53094 0
M  V30 10752 C 1040.05 -0.48326 2.27524 0
M  V30 10753 C 1041.05 -1.07606 1.30833 0
M  V30 10754 O 1042.25 -1.01827 1.48429 0
M  V30 10755 H 1038.63 -0.174578 0.731455 0
M  V30 10756 H 1040.6 0.166156 2.97937 0
M  V30 10757 C 1039.35 -1.6065 3.08362 0
M  V30 10758 H 1038.67 -1.15966 3.82612 0
M  V30 10759 H 1040.11 -2.18099 3.63606 0
M  V30 10760 C 1038.57 -2.55381 2.19732 0
M  V30 10761 O 1039.1 -3.58414 1.8139 0
M  V30 10762 N 1037.31 -2.24769 1.84194 0
M  V30 10763 H 1036.85 -1.41018 2.15573 0
M  V30 10764 H 1036.81 -2.88404 1.25181 0
M  V30 10765 N 1040.58 -1.57259 0.103575 0
M  V30 10766 C 1041.86 -1.86143 -0.600852 0
M  V30 10767 C 1042.24 -1.00198 -1.85805 0
M  V30 10768 O 1041.59 -0.0766791 -2.28371 0
M  V30 10769 C 1041.8 -3.36978 -0.908108 0
M  V30 10770 C 1043.15 -4.05228 -1.26788 0
M  V30 10771 O 1044.17 -3.41908 -0.998859 0
M  V30 10772 O 1043.03 -5.16971 -1.7721 0
M  V30 10773 H 1040.12 -0.770064 -0.301547 0
M  V30 10774 H 1042.67 -1.69147 0.136914 0
M  V30 10775 H 1041.44 -3.91296 -0.0165615 0
M  V30 10776 H 1041.06 -3.5935 -1.70156 0
M  V30 10777 N 1042.06 0.170153 -1.56679 0
M  V30 10778 C 1043.31 0.886592 -1.8206 0
M  V30 10779 C 1043.64 1.82194 -0.680839 0
M  V30 10780 O 1042.89 1.92866 0.331822 0
M  V30 10781 C 1043.19 1.71402 -3.13618 0
M  V30 10782 C 1042.86 0.927489 -4.41258 0
M  V30 10783 C 1041.52 0.710417 -4.75927 0
M  V30 10784 C 1043.87 0.375855 -5.19843 0
M  V30 10785 C 1041.2 -0.0693691 -5.86659 0
M  V30 10786 C 1043.55 -0.390849 -6.31391 0
M  V30 10787 C 1042.21 -0.61871 -6.64626 0
M  V30 10788 H 1041.48 0.324427 -0.666204 0
M  V30 10789 H 1044.13 0.151464 -1.909 0
M  V30 10790 H 1042.44 2.51858 -3.00125 0
M  V30 10791 H 1044.13 2.27141 -3.30466 0
M  V30 10792 H 1040.72 1.10672 -4.14065 0
M  V30 10793 H 1044.91 0.530897 -4.93452 0
M  V30 10794 H 1040.16 -0.255637 -6.10865 0
M  V30 10795 H 1044.34 -0.825544 -6.9149 0
M  V30 10796 H 1041.96 -1.22482 -7.50268 0
M  V30 10797 N 1043.54 1.5137 0.438746 0
M  V30 10798 C 1044.77 1.67774 1.21077 0
M  V30 10799 C 1045.18 0.374489 1.85049 0
M  V30 10800 O 1044.54 -0.646867 1.70651 0
M  V30 10801 C 1044.59 2.79238 2.29584 0
M  V30 10802 O 1044.31 4.04513 1.68228 0
M  V30 10803 C 1045.81 3.06898 3.19888 0
M  V30 10804 H 1043.03 0.563054 0.364981 0
M  V30 10805 H 1045.58 1.97777 0.520035 0
M  V30 10806 H 1043.73 2.51837 2.94375 0
M  V30 10807 H 1044.14 4.66405 2.3993 0
M  V30 10808 H 1045.62 3.88476 3.92162 0
M  V30 10809 H 1046.1 2.19249 3.80561 0
M  V30 10810 H 1046.7 3.35952 2.60799 0
M  V30 10811 N 1045.02 -0.694098 1.41492 0
M  V30 10812 C 1046.26 -1.45415 1.40929 0
M  V30 10813 C 1046.59 -1.94491 0.0189301 0
M  V30 10814 O 1045.85 -1.7 -0.96945 0
M  V30 10815 C 1046.15 -2.6805 2.36398 0
M  V30 10816 C 1045.81 -2.37623 3.83205 0
M  V30 10817 C 1044.47 -2.29035 4.23198 0
M  V30 10818 C 1046.83 -2.12555 4.75888 0
M  V30 10819 C 1044.15 -1.93478 5.5388 0
M  V30 10820 C 1046.51 -1.78506 6.06892 0
M  V30 10821 C 1045.17 -1.68415 6.45905 0
M  V30 10822 H 1044.44 -0.53211 0.515694 0
M  V30 10823 H 1047.09 -0.793193 1.74301 0
M  V30 10824 H 1045.39 -3.39086 1.96285 0
M  V30 10825 H 1047.09 -3.26194 2.33234 0
M  V30 10826 H 1043.68 -2.45202 3.51531 0
M  V30 10827 H 1047.86 -2.18133 4.45793 0
M  V30 10828 H 1043.12 -1.84219 5.82986 0
M  V30 10829 H 1047.29 -1.58128 6.7821 0
M  V30 10830 H 1044.92 -1.40631 7.47079 0
M  V30 10831 N 1046.49 -1.27344 -0.928501 0
M  V30 10832 C 1047.77 -1.04362 -1.65433 0
M  V30 10833 C 1048.15 0.421896 -2.06841 0
M  V30 10834 O 1047.5 1.40496 -1.80203 0
M  V30 10835 C 1047.71 -2.00442 -2.85699 0
M  V30 10836 C 1049.06 -2.29767 -3.57061 0
M  V30 10837 O 1050.08 -1.98409 -2.95825 0
M  V30 10838 O 1048.94 -2.83217 -4.67387 0
M  V30 10839 H 1046.03 -0.397783 -0.72505 0
M  V30 10840 H 1048.58 -1.38606 -0.979109 0
M  V30 10841 H 1047.35 -2.99281 -2.52085 0
M  V30 10842 H 1046.98 -1.66755 -3.60941 0
M  V30 10843 N 1047.97 1.13488 -1.09353 0
M  V30 10844 C 1049.2 1.88319 -0.849681 0
M  V30 10845 C 1049.61 1.79347 0.602616 0
M  V30 10846 O 1048.95 1.15744 1.4265 0
M  V30 10847 C 1049.02 3.38698 -1.20514 0
M  V30 10848 C 1048.68 3.71452 -2.66219 0
M  V30 10849 C 1049.68 3.70755 -3.64467 0
M  V30 10850 C 1047.36 4.01132 -3.02321 0
M  V30 10851 C 1049.36 3.9928 -4.96845 0
M  V30 10852 C 1047.04 4.29318 -4.3489 0
M  V30 10853 C 1048.04 4.28376 -5.31961 0
M  V30 10854 O 1047.73 4.55872 -6.62145 0
M  V30 10855 H 1047.46 0.603053 -0.305455 0
M  V30 10856 H 1050.01 1.44592 -1.45884 0
M  V30 10857 H 1048.24 3.82925 -0.539022 0
M  V30 10858 H 1049.93 3.94852 -0.940552 0
M  V30 10859 H 1050.7 3.47901 -3.3792 0
M  V30 10860 H 1046.58 4.01013 -2.27398 0
M  V30 10861 H 1050.12 3.9846 -5.72604 0
M  V30 10862 H 1046.02 4.51644 -4.61181 0
M  V30 10863 H 1046.79 4.73544 -6.67607 0
M  V30 10864 N 1049.45 0.880621 1.30701 0
M  V30 10865 C 1050.73 0.41712 1.91101 0
M  V30 10866 C 1051.11 -1.10177 1.80067 0
M  V30 10867 O 1050.46 -1.93513 1.21511 0
M  V30 10868 C 1050.67 0.910364 3.36917 0
M  V30 10869 C 1052.01 0.942764 4.14001 0
M  V30 10870 O 1053.04 0.856733 3.45743 0
M  V30 10871 O 1051.9 1.06913 5.3594 0
M  V30 10872 H 1048.99 0.126775 0.817225 0
M  V30 10873 H 1051.54 0.969236 1.39298 0
M  V30 10874 H 1050.31 1.95414 3.39012 0
M  V30 10875 H 1049.93 0.337164 3.96168 0
M  V30 10876 N 1050.93 -1.4397 0.641131 0
M  V30 10877 C 1052.18 -2.01163 0.147026 0
M  V30 10878 C 1052.49 -1.51099 -1.24211 0
M  V30 10879 O 1053.7 -2.00487 -1.83078 0
M  V30 10880 C 1052.15 -3.59275 0.212068 0
M  V30 10881 C 1051.76 -4.18334 1.60314 0
M  V30 10882 C 1053.51 -4.23903 -0.225057 0
M  V30 10883 C 1051.41 -5.68701 1.62276 0
M  V30 10884 H 1050.34 -0.75226 0.051201 0
M  V30 10885 H 1052.99 -1.65075 0.801396 0
M  V30 10886 H 1051.38 -3.92708 -0.509589 0
M  V30 10887 H 1052.55 -3.96422 2.34918 0
M  V30 10888 H 1050.86 -3.66031 1.9852 0
M  V30 10889 H 1053.46 -5.34205 -0.230074 0
M  V30 10890 H 1053.8 -3.96956 -1.25426 0
M  V30 10891 H 1054.34 -3.95309 0.44444 0
M  V30 10892 H 1051.08 -6.00397 2.63066 0
M  V30 10893 H 1050.6 -5.92705 0.919797 0
M  V30 10894 H 1052.28 -6.32521 1.36112 0
M  V30 10895 N 1052.41 -0.382291 -1.52893 0
M  V30 10896 C 1053.37 0.44408 -2.24857 0
M  V30 10897 C 1054.37 0.996004 -1.26239 0
M  V30 10898 O 1055.56 0.879114 -1.5039 0
M  V30 10899 C 1052.69 1.62234 -2.99822 0
M  V30 10900 H 1053.89 -0.185862 -2.99324 0
M  V30 10901 H 1051.44 -0.134275 -1.55722 0
M  V30 10902 H 1052.17 2.28991 -2.29638 0
M  V30 10903 H 1051.96 1.23336 -3.72197 0
M  V30 10904 H 1053.45 2.20756 -3.54481 0
M  V30 10905 N 1053.89 1.57202 -0.111913 0
M  V30 10906 C 1054.82 2.17957 0.837683 0
M  V30 10907 C 1055.8 1.1176 1.28233 0
M  V30 10908 O 1056.98 1.39967 1.34621 0
M  V30 10909 C 1054.11 2.77333 2.09054 0
M  V30 10910 C 1053.07 3.8905 1.78393 0
M  V30 10911 C 1052.39 4.35203 3.10649 0
M  V30 10912 C 1053.69 5.11477 1.05775 0
M  V30 10913 H 1055.39 2.9756 0.331441 0
M  V30 10914 H 1052.93 1.43131 0.157979 0
M  V30 10915 H 1054.88 3.18492 2.75936 0
M  V30 10916 H 1053.61 1.95009 2.6199 0
M  V30 10917 H 1052.27 3.48456 1.13903 0
M  V30 10918 H 1051.92 3.49747 3.61506 0
M  V30 10919 H 1051.62 5.10534 2.9091 0
M  V30 10920 H 1053.14 4.79007 3.78661 0
M  V30 10921 H 1054.55 5.497 1.62798 0
M  V30 10922 H 1052.95 5.92346 0.961573 0
M  V30 10923 H 1054.02 4.84881 0.043297 0
M  V30 10924 N 1055.36 -0.161842 1.56767 0
M  V30 10925 C 1056.29 -1.20226 2.0017 0
M  V30 10926 C 1057.27 -1.4564 0.878807 0
M  V30 10927 O 1058.46 -1.56813 1.14557 0
M  V30 10928 C 1055.59 -2.53897 2.36968 0
M  V30 10929 C 1054.54 -2.43033 3.52305 0
M  V30 10930 C 1053.87 -3.81281 3.74872 0
M  V30 10931 C 1055.17 -1.927 4.85453 0
M  V30 10932 H 1056.86 -0.84142 2.87333 0
M  V30 10933 H 1054.41 -0.403309 1.38237 0
M  V30 10934 H 1056.36 -3.26893 2.6593 0
M  V30 10935 H 1055.09 -2.91787 1.46724 0
M  V30 10936 H 1053.75 -1.7249 3.23485 0
M  V30 10937 H 1053.39 -4.1658 2.81904 0
M  V30 10938 H 1053.09 -3.74877 4.52483 0
M  V30 10939 H 1054.62 -4.55848 4.06245 0
M  V30 10940 H 1056.03 -2.55477 5.13229 0
M  V30 10941 H 1054.43 -1.97222 5.66766 0
M  V30 10942 H 1055.5 -0.881816 4.76814 0
M  V30 10943 N 1056.84 -1.516 -0.430713 0
M  V30 10944 C 1057.75 -1.76247 -1.54836 0
M  V30 10945 C 1058.77 -0.646985 -1.61524 0
M  V30 10946 O 1059.94 -0.929987 -1.78643 0
M  V30 10947 C 1057.01 -1.88833 -2.90763 0
M  V30 10948 C 1056.07 -3.12701 -2.94137 0
M  V30 10949 C 1055.3 -3.24676 -4.23581 0
M  V30 10950 O 1055.53 -2.42429 -5.16318 0
M  V30 10951 O 1054.46 -4.17697 -4.33374 0
M  V30 10952 H 1058.29 -2.71069 -1.3695 0
M  V30 10953 H 1055.87 -1.36182 -0.614396 0
M  V30 10954 H 1057.75 -1.99057 -3.71422 0
M  V30 10955 H 1056.43 -0.971987 -3.08762 0
M  V30 10956 H 1055.33 -3.0795 -2.1241 0
M  V30 10957 H 1056.67 -4.04045 -2.81084 0
M  V30 10958 N 1058.32 0.686584 -1.41858 0
M  V30 10959 C 1059.25 1.81264 -1.47193 0
M  V30 10960 C 1060.23 1.66875 -0.329657 0
M  V30 10961 O 1061.42 1.86473 -0.542347 0
M  V30 10962 C 1058.55 3.19472 -1.36216 0
M  V30 10963 C 1057.5 3.4858 -2.48347 0
M  V30 10964 C 1056.83 4.86239 -2.22432 0
M  V30 10965 C 1058.13 3.46653 -3.90678 0
M  V30 10966 H 1059.82 1.77057 -2.41436 0
M  V30 10967 H 1057.37 0.850415 -1.16206 0
M  V30 10968 H 1059.32 3.97969 -1.38558 0
M  V30 10969 H 1058.04 3.24327 -0.384611 0
M  V30 10970 H 1056.7 2.72437 -2.45303 0
M  V30 10971 H 1056.35 4.8773 -1.22999 0
M  V30 10972 H 1056.05 5.06677 -2.97577 0
M  V30 10973 H 1057.57 5.67034 -2.26505 0
M  V30 10974 H 1058.99 4.15139 -3.95389 0
M  V30 10975 H 1057.38 3.78625 -4.65578 0
M  V30 10976 H 1058.45 2.45451 -4.18189 0
M  V30 10977 N 1059.8 1.27835 0.921735 0
M  V30 10978 C 1060.71 1.12904 2.05645 0
M  V30 10979 C 1061.72 0.0575704 1.73905 0
M  V30 10980 O 1062.9 0.265261 1.99645 0
M  V30 10981 C 1059.96 0.783957 3.3772 0
M  V30 10982 C 1059.03 1.93694 3.8312 0
M  V30 10983 C 1058.26 1.60823 5.08893 0
M  V30 10984 O 1058.48 0.518873 5.68035 0
M  V30 10985 O 1057.42 2.44932 5.49811 0
M  V30 10986 H 1061.24 2.08143 2.21157 0
M  V30 10987 H 1058.83 1.07078 1.04185 0
M  V30 10988 H 1060.71 0.605107 4.17033 0
M  V30 10989 H 1059.38 -0.138849 3.23402 0
M  V30 10990 H 1058.29 2.17089 3.04669 0
M  V30 10991 H 1059.62 2.84016 4.0199 0
M  V30 10992 N 1061.28 -1.12907 1.09954 0
M  V30 10993 C 1062.22 -2.18485 0.743848 0
M  V30 10994 C 1063.19 -1.63766 -0.277494 0
M  V30 10995 O 1064.38 -1.90146 -0.157899 0
M  V30 10996 C 1061.52 -3.44649 0.176437 0
M  V30 10997 C 1060.63 -4.13445 1.25248 0
M  V30 10998 C 1059.77 -5.27242 0.647242 0
M  V30 10999 C 1058.8 -5.87897 1.70421 0
M  V30 11000 N 1057.94 -6.93116 1.1196 0
M  V30 11001 H 1062.78 -2.48257 1.64841 0
M  V30 11002 H 1060.32 -1.21891 0.823471 0
M  V30 11003 H 1062.28 -4.16852 -0.170384 0
M  V30 11004 H 1060.91 -3.15309 -0.69137 0
M  V30 11005 H 1059.96 -3.39471 1.7165 0
M  V30 11006 H 1061.27 -4.54601 2.05279 0
M  V30 11007 H 1060.42 -6.06186 0.249579 0
M  V30 11008 H 1059.16 -4.87351 -0.184556 0
M  V30 11009 H 1058.17 -5.07643 2.11136 0
M  V30 11010 H 1059.39 -6.2986 2.53877 0
M  V30 11011 H 1057.34 -6.55271 0.309181 0
M  V30 11012 H 1057.26 -7.32843 1.85681 0
M  V30 11013 H 1058.52 -7.759 0.748326 0
M  V30 11014 N 1062.75 -0.88754 -1.30232 0
M  V30 11015 C 1064.16 -0.55745 -1.78184 0
M  V30 11016 C 1064.52 0.926474 -1.72948 0
M  V30 11017 O 1063.64 1.72403 -1.3079 0
M  V30 11018 C 1064.24 -1.00512 -3.23547 0
M  V30 11019 C 1062.79 -0.726402 -3.69324 0
M  V30 11020 C 1061.94 -1.18666 -2.50627 0
M  V30 11021 H 1064.89 -1.07151 -1.17066 0
M  V30 11022 H 1064.91 -0.335185 -3.79021 0
M  V30 11023 H 1064.43 -2.08517 -3.27326 0
M  V30 11024 H 1062.53 0.341548 -3.71031 0
M  V30 11025 H 1062.64 -1.31575 -4.60679 0
M  V30 11026 H 1061 -0.605936 -2.47387 0
M  V30 11027 H 1061.79 -2.2745 -2.57141 0
M  V30 11028 N 1064.23 1.43628 -0.648757 0
M  V30 11029 C 1065.2 2.29172 0.0360713 0
M  V30 11030 C 1066.2 1.41974 0.754976 0
M  V30 11031 O 1067.39 1.63654 0.5969 0
M  V30 11032 C 1064.52 3.23942 1.0618 0
M  V30 11033 H 1065.71 2.91214 -0.716544 0
M  V30 11034 H 1063.26 1.50833 -0.409759 0
M  V30 11035 H 1064 2.66786 1.8438 0
M  V30 11036 H 1063.78 3.88223 0.550016 0
M  V30 11037 H 1065.27 3.8816 1.54019 0
M  V30 11038 N 1065.71 0.390394 1.52688 0
M  V30 11039 C 1066.62 -0.451543 2.30213 0
M  V30 11040 C 1067.64 -1.07051 1.37172 0
M  V30 11041 O 1068.81 -1.07609 1.70242 0
M  V30 11042 C 1065.88 -1.56299 3.0947 0
M  V30 11043 C 1064.94 -0.969017 4.18221 0
M  V30 11044 C 1064.17 -2.0275 4.93688 0
M  V30 11045 O 1064.39 -3.24273 4.69258 0
M  V30 11046 O 1063.33 -1.64418 5.79008 0
M  V30 11047 H 1067.15 0.180042 3.03166 0
M  V30 11048 H 1064.74 0.154082 1.48603 0
M  V30 11049 H 1066.62 -2.20864 3.58883 0
M  V30 11050 H 1065.3 -2.17952 2.3933 0
M  V30 11051 H 1064.2 -0.286587 3.73001 0
M  V30 11052 H 1065.54 -0.396687 4.90599 0
M  V30 11053 N 1067.19 -1.57141 0.120249 0
M  V30 11054 C 1068.42 -1.993 -0.544346 0
M  V30 11055 C 1068.83 -0.998858 -1.60684 0
M  V30 11056 O 1068.17 0.0162197 -1.83693 0
M  V30 11057 C 1068.23 -3.37874 -1.22808 0
M  V30 11058 C 1067.9 -4.55924 -0.313374 0
M  V30 11059 C 1068.89 -5.17962 0.448501 0
M  V30 11060 C 1066.58 -5.018 -0.224082 0
M  V30 11061 C 1068.57 -6.24264 1.28739 0
M  V30 11062 C 1066.26 -6.07963 0.618437 0
M  V30 11063 C 1067.26 -6.69061 1.3728 0
M  V30 11064 O 1066.94 -7.73173 2.20133 0
M  V30 11065 H 1066.68 -0.659466 -0.148596 0
M  V30 11066 H 1069.23 -2.04387 0.203779 0
M  V30 11067 H 1067.46 -3.29545 -2.02329 0
M  V30 11068 H 1069.15 -3.64314 -1.7897 0
M  V30 11069 H 1069.92 -4.83434 0.389395 0
M  V30 11070 H 1065.79 -4.53989 -0.80094 0
M  V30 11071 H 1069.34 -6.71883 1.87667 0
M  V30 11072 H 1065.24 -6.4192 0.678932 0
M  V30 11073 H 1066 -7.90276 2.13088 0
M  V30 11074 N 1068.67 0.153526 -1.5685 0
M  V30 11075 C 1069.89 0.886343 -1.87507 0
M  V30 11076 C 1070.32 1.74244 -0.708565 0
M  V30 11077 O 1069.67 1.78045 0.341997 0
M  V30 11078 C 1069.72 1.72428 -3.16703 0
M  V30 11079 O 1068.83 2.82784 -3.00178 0
M  V30 11080 H 1068.17 0.247259 -0.616246 0
M  V30 11081 H 1070.7 0.146306 -2.04076 0
M  V30 11082 H 1070.71 2.12062 -3.4856 0
M  V30 11083 H 1069.38 1.09558 -4.01211 0
M  V30 11084 H 1067.96 2.46604 -2.79716 0
M  V30 11085 N 1070.14 1.51827 0.422667 0
M  V30 11086 C 1071.37 1.69337 1.19748 0
M  V30 11087 C 1071.79 0.396312 1.83878 0
M  V30 11088 O 1071.15 -0.644976 1.6944 0
M  V30 11089 C 1071.2 2.82082 2.24637 0
M  V30 11090 O 1070.3 2.46708 3.30468 0
M  V30 11091 H 1069.65 0.564154 0.35018 0
M  V30 11092 H 1072.18 1.98465 0.497289 0
M  V30 11093 H 1072.19 3.06599 2.69186 0
M  V30 11094 H 1070.86 3.76195 1.77341 0
M  V30 11095 H 1069.44 2.32815 2.91293 0
M  V30 11096 N 1071.62 -0.679052 1.4222 0
M  V30 11097 C 1072.56 -1.80369 1.39794 0
M  V30 11098 C 1073.53 -1.60462 0.262806 0
M  V30 11099 O 1074.72 -1.82992 0.452352 0
M  V30 11100 C 1071.84 -3.17305 1.18471 0
M  V30 11101 C 1070.89 -3.55969 2.34922 0
M  V30 11102 S 1071.72 -3.58884 3.97445 0
M  V30 11103 C 1072.88 -4.98519 3.78457 0
M  V30 11104 H 1073.11 -1.82152 2.34964 0
M  V30 11105 H 1070.65 -0.84932 1.28942 0
M  V30 11106 H 1072.6 -3.96348 1.06856 0
M  V30 11107 H 1071.26 -3.13112 0.248944 0
M  V30 11108 H 1070.46 -4.55491 2.1574 0
M  V30 11109 H 1070.06 -2.84275 2.4303 0
M  V30 11110 H 1072.35 -5.86481 3.39184 0
M  V30 11111 H 1073.29 -5.22748 4.77641 0
M  V30 11112 H 1073.7 -4.70836 3.11406 0
M  V30 11113 N 1073.1 -1.28322 -0.914942 0
M  V30 11114 C 1074.35 -1.15578 -1.66642 0
M  V30 11115 C 1074.68 0.295209 -1.91943 0
M  V30 11116 O 1073.95 1.21482 -1.51896 0
M  V30 11117 C 1074.24 -1.9535 -3.02507 0
M  V30 11118 C 1074.09 -3.48504 -2.84367 0
M  V30 11119 C 1075.41 -1.76798 -4.03027 0
M  V30 11120 H 1072.53 -0.421234 -0.604757 0
M  V30 11121 H 1075.17 -1.57625 -1.06087 0
M  V30 11122 H 1073.32 -1.59619 -3.54195 0
M  V30 11123 H 1074.99 -3.94135 -2.39699 0
M  V30 11124 H 1073.24 -3.74198 -2.1945 0
M  V30 11125 H 1073.91 -3.99576 -3.80845 0
M  V30 11126 H 1076.38 -2.07977 -3.60395 0
M  V30 11127 H 1075.26 -2.34987 -4.96057 0
M  V30 11128 H 1075.52 -0.719162 -4.36211 0
M  V30 11129 N 1074.58 1.12322 -1.10551 0
M  V30 11130 C 1075.99 1.35858 -0.837543 0
M  V30 11131 C 1076.19 1.94062 0.54241 0
M  V30 11132 O 1075.25 2.1676 1.29505 0
M  V30 11133 C 1076.56 2.299 -1.9382 0
M  V30 11134 C 1078.11 2.43488 -1.96679 0
M  V30 11135 C 1078.59 3.40846 -3.05922 0
M  V30 11136 N 1080.08 3.48404 -3.05236 0
M  V30 11137 C 1080.81 4.2365 -3.86405 0
M  V30 11138 N 1080.31 5.01951 -4.77512 0
M  V30 11139 N 1082.1 4.19068 -3.74618 0
M  V30 11140 H 1074.25 0.729002 -1.99498 0
M  V30 11141 H 1076.52 0.38339 -0.867016 0
M  V30 11142 H 1076.22 1.94309 -2.9315 0
M  V30 11143 H 1076.1 3.30033 -1.82641 0
M  V30 11144 H 1078.48 2.78359 -0.979813 0
M  V30 11145 H 1078.56 1.43239 -2.11934 0
M  V30 11146 H 1078.21 3.06704 -4.04839 0
M  V30 11147 H 1078.14 4.40927 -2.87907 0
M  V30 11148 H 1080.63 2.92545 -2.39219 0
M  V30 11149 H 1080.94 5.56707 -5.36002 0
M  V30 11150 H 1079.29 5.01143 -4.8154 0
M  V30 11151 H 1082.48 3.5698 -3.02792 0
M  V30 11152 H 1082.65 4.77455 -4.38111 0
M  V30 11153 N 1076.06 0.894434 1.2976 0
M  V30 11154 C 1077.47 0.566892 1.77885 0
M  V30 11155 C 1077.82 -0.917289 1.73437 0
M  V30 11156 O 1076.94 -1.71707 1.31703 0
M  V30 11157 C 1077.54 1.02227 3.2301 0
M  V30 11158 C 1076.1 0.745978 3.68934 0
M  V30 11159 C 1075.24 1.19993 2.49994 0
M  V30 11160 H 1078.2 1.0777 1.16496 0
M  V30 11161 H 1078.22 0.355281 3.78838 0
M  V30 11162 H 1077.73 2.1025 3.26215 0
M  V30 11163 H 1075.83 -0.321866 3.71207 0
M  V30 11164 H 1075.94 1.34017 4.59974 0
M  V30 11165 H 1074.31 0.619047 2.47063 0
M  V30 11166 H 1075.09 2.28811 2.55931 0
M  V30 11167 N 1077.53 -1.43282 0.656365 0
M  V30 11168 C 1078.78 -2.00996 0.168354 0
M  V30 11169 C 1079.1 -1.52408 -1.22601 0
M  V30 11170 O 1080.3 -2.02417 -1.80941 0
M  V30 11171 C 1078.76 -3.5903 0.250161 0
M  V30 11172 C 1078.37 -4.1661 1.64742 0
M  V30 11173 C 1080.11 -4.24118 -0.180084 0
M  V30 11174 C 1078.02 -5.66948 1.68299 0
M  V30 11175 H 1076.95 -0.751674 0.0591769 0
M  V30 11176 H 1079.6 -1.64216 0.818859 0
M  V30 11177 H 1077.98 -3.93226 -0.467908 0
M  V30 11178 H 1079.15 -3.93908 2.3911 0
M  V30 11179 H 1077.47 -3.63905 2.02391 0
M  V30 11180 H 1080.07 -5.34419 -0.173401 0
M  V30 11181 H 1080.41 -3.98264 -1.21208 0
M  V30 11182 H 1080.94 -3.94816 0.486343 0
M  V30 11183 H 1077.68 -5.97573 2.69419 0
M  V30 11184 H 1077.2 -5.91697 0.98261 0
M  V30 11185 H 1078.88 -6.31041 1.42813 0
M  V30 11186 N 1079.01 -0.398486 -1.52479 0
M  V30 11187 C 1080.25 0.180412 -2.03602 0
M  V30 11188 C 1080.62 1.43276 -1.27812 0
M  V30 11189 O 1081.82 2.08941 -1.69107 0
M  V30 11190 C 1080.09 0.432744 -3.5477 0
M  V30 11191 S 1081.65 0.980612 -4.27703 0
M  V30 11192 H 1078.47 0.0499981 -0.70924 0
M  V30 11193 H 1081.07 -0.548952 -1.87635 0
M  V30 11194 H 1079.77 -0.48568 -4.07516 0
M  V30 11195 H 1079.3 1.19028 -3.74961 0
M  V30 11196 H 1081.32 2.26216 -4.41634 0
M  V30 11197 N 1080.49 1.57075 -0.12858 0
M  V30 11198 C 1081.42 2.18833 0.814519 0
M  V30 11199 C 1082.4 1.13114 1.2704 0
M  V30 11200 O 1083.59 1.41387 1.33129 0
M  V30 11201 C 1080.72 2.79535 2.06101 0
M  V30 11202 C 1079.67 3.9092 1.74257 0
M  V30 11203 C 1079 4.38473 3.06015 0
M  V30 11204 C 1080.3 5.1257 1.00345 0
M  V30 11205 H 1081.99 2.97895 0.299862 0
M  V30 11206 H 1079.54 1.4329 0.14279 0
M  V30 11207 H 1081.49 3.21401 2.72543 0
M  V30 11208 H 1080.21 1.97777 2.59907 0
M  V30 11209 H 1078.87 3.49645 1.102 0
M  V30 11210 H 1078.52 3.53561 3.57776 0
M  V30 11211 H 1078.22 5.13591 2.85479 0
M  V30 11212 H 1079.75 4.82997 3.7356 0
M  V30 11213 H 1081.16 5.51395 1.56959 0
M  V30 11214 H 1079.56 5.93333 0.898693 0
M  V30 11215 H 1080.63 4.84899 -0.0081335 0
M  V30 11216 N 1081.97 -0.145205 1.5693 0
M  V30 11217 C 1083.38 -0.705089 1.72874 0
M  V30 11218 C 1083.73 -1.81577 0.743261 0
M  V30 11219 O 1082.86 -2.16214 -0.0897153 0
M  V30 11220 C 1083.45 -1.28578 3.13454 0
M  V30 11221 C 1082.01 -1.79221 3.30994 0
M  V30 11222 C 1081.16 -0.681392 2.68798 0
M  V30 11223 H 1084.11 0.0804798 1.58496 0
M  V30 11224 H 1084.13 -2.15558 3.13552 0
M  V30 11225 H 1083.64 -0.477186 3.85155 0
M  V30 11226 H 1081.74 -2.62642 2.64292 0
M  V30 11227 H 1081.86 -1.91969 4.38959 0
M  V30 11228 H 1080.22 -1.10847 2.29314 0
M  V30 11229 H 1081 0.115786 3.43105 0
M  V30 11230 N 1083.45 -1.52049 -0.414609 0
M  V30 11231 C 1084.72 -1.56397 -1.17471 0
M  V30 11232 C 1085.1 -0.34171 -2.08316 0
M  V30 11233 O 1084.45 0.6718 -2.18401 0
M  V30 11234 C 1084.66 -2.88983 -1.95678 0
M  V30 11235 C 1086.01 -3.41781 -2.51935 0
M  V30 11236 O 1087.03 -2.90686 -2.05865 0
M  V30 11237 O 1085.89 -4.30989 -3.36022 0
M  V30 11238 H 1082.99 -0.62974 -0.536056 0
M  V30 11239 H 1085.53 -1.64374 -0.421834 0
M  V30 11240 H 1084.31 -3.69392 -1.29094 0
M  V30 11241 H 1083.93 -2.84274 -2.77983 0
M  V30 11242 N 1084.93 0.6715 -1.42579 0
M  V30 11243 C 1085.89 1.76676 -1.46008 0
M  V30 11244 C 1086.89 1.57007 -0.347213 0
M  V30 11245 O 1088.08 1.63238 -0.608185 0
M  V30 11246 C 1085.21 3.15348 -1.29494 0
M  V30 11247 H 1086.4 1.75021 -2.43531 0
M  V30 11248 H 1083.96 0.881444 -1.29075 0
M  V30 11249 H 1084.69 3.22626 -0.32906 0
M  V30 11250 H 1084.48 3.31028 -2.10149 0
M  V30 11251 H 1085.97 3.95251 -1.34784 0
M  V30 11252 N 1086.4 1.28806 0.908124 0
M  V30 11253 C 1087.63 1.19271 1.69674 0
M  V30 11254 C 1088.05 -0.244403 1.86505 0
M  V30 11255 O 1087.41 -1.17668 1.37927 0
M  V30 11256 C 1087.46 1.9023 3.06341 0
M  V30 11257 O 1086.56 1.2136 3.94139 0
M  V30 11258 H 1085.9 0.413738 0.519343 0
M  V30 11259 H 1088.43 1.70227 1.13508 0
M  V30 11260 H 1088.44 1.98356 3.56537 0
M  V30 11261 H 1087.12 2.94762 2.93408 0
M  V30 11262 H 1085.7 1.21435 3.52573 0
M  V30 11263 N 1087.88 -1.11734 1.11145 0
M  V30 11264 C 1088.83 -2.15789 0.736133 0
M  V30 11265 C 1089.82 -1.58813 -0.25832 0
M  V30 11266 O 1091.01 -1.76877 -0.0659078 0
M  V30 11267 C 1088.14 -3.4284 0.177597 0
M  V30 11268 C 1087.22 -4.06783 1.19953 0
M  V30 11269 N 1087.61 -4.45626 2.39271 0
M  V30 11270 C 1085.91 -4.33663 1.04176 0
M  V30 11271 C 1086.61 -4.95684 3.04422 0
M  V30 11272 N 1085.59 -4.91648 2.31912 0
M  V30 11273 H 1089.39 -2.43598 1.6443 0
M  V30 11274 H 1086.9 -1.28716 0.990247 0
M  V30 11275 H 1088.9 -4.16756 -0.109402 0
M  V30 11276 H 1087.56 -3.16498 -0.725201 0
M  V30 11277 H 1088.57 -4.37757 2.76747 0
M  V30 11278 H 1085.25 -4.17044 0.195132 0
M  V30 11279 H 1086.64 -5.35394 4.05959 0
M  V30 11280 N 1089.36 -0.901303 -1.29284 0
M  V30 11281 C 1090.61 -0.528826 -1.95784 0
M  V30 11282 C 1090.94 0.922833 -1.70873 0
M  V30 11283 O 1090.21 1.65448 -1.0226 0
M  V30 11284 C 1090.5 -0.823793 -3.50551 0
M  V30 11285 C 1090.35 -2.32727 -3.84913 0
M  V30 11286 C 1091.67 -0.311382 -4.38997 0
M  V30 11287 H 1088.79 -0.193604 -0.711116 0
M  V30 11288 H 1091.43 -1.12828 -1.52872 0
M  V30 11289 H 1089.58 -0.313612 -3.87232 0
M  V30 11290 H 1091.25 -2.90712 -3.58168 0
M  V30 11291 H 1089.49 -2.78735 -3.32399 0
M  V30 11292 H 1090.17 -2.48423 -4.9294 0
M  V30 11293 H 1092.64 -0.748265 -4.09317 0
M  V30 11294 H 1091.52 -0.546957 -5.46168 0
M  V30 11295 H 1091.78 0.787959 -4.35021 0
M  V30 11296 N 1090.84 1.42931 -0.663954 0
M  V30 11297 C 1092.08 2.01683 -0.181738 0
M  V30 11298 C 1092.41 1.52437 1.20802 0
M  V30 11299 O 1091.67 0.71254 1.82267 0
M  V30 11300 C 1091.97 3.57072 -0.153163 0
M  V30 11301 C 1091.63 4.25706 -1.48612 0
M  V30 11302 C 1090.29 4.4417 -1.85111 0
M  V30 11303 C 1092.65 4.6448 -2.36448 0
M  V30 11304 C 1089.97 4.98677 -3.09092 0
M  V30 11305 C 1092.33 5.20362 -3.5973 0
M  V30 11306 C 1090.99 5.37041 -3.96412 0
M  V30 11307 H 1090.26 0.73801 -0.0665026 0
M  V30 11308 H 1092.91 1.71264 -0.856791 0
M  V30 11309 H 1091.21 3.87095 0.605372 0
M  V30 11310 H 1092.91 4.00299 0.236981 0
M  V30 11311 H 1089.5 4.11686 -1.19215 0
M  V30 11312 H 1093.68 4.49898 -2.09537 0
M  V30 11313 H 1088.94 5.09776 -3.37547 0
M  V30 11314 H 1093.11 5.49352 -4.28001 0
M  V30 11315 H 1090.74 5.79042 -4.92559 0
M  V30 11316 N 1092.32 0.406567 1.52266 0
M  V30 11317 C 1093.73 -0.063607 1.86592 0
M  V30 11318 C 1094.08 -1.4466 1.32544 0
M  V30 11319 O 1093.2 -2.05971 0.663692 0
M  V30 11320 C 1093.8 -0.122198 3.3858 0
M  V30 11321 C 1092.36 -0.536701 3.72554 0
M  V30 11322 C 1091.5 0.290422 2.75775 0
M  V30 11323 H 1094.45 0.623738 1.45929 0
M  V30 11324 H 1094.48 -0.937964 3.68758 0
M  V30 11325 H 1093.99 0.884495 3.77887 0
M  V30 11326 H 1092.09 -1.55013 3.38824 0
M  V30 11327 H 1092.2 -0.282867 4.78264 0
M  V30 11328 H 1090.57 -0.246864 2.53501 0
M  V30 11329 H 1091.35 1.29541 3.17921 0
M  V30 11330 N 1093.79 -1.57004 0.136909 0
M  V30 11331 C 1094.76 -2.15066 -0.792419 0
M  V30 11332 C 1095.76 -1.08991 -1.18226 0
M  V30 11333 O 1096.95 -1.34681 -1.10484 0
M  V30 11334 C 1094.08 -2.70554 -2.07397 0
M  V30 11335 H 1095.27 -2.98519 -0.28752 0
M  V30 11336 H 1092.83 -1.55895 -0.112469 0
M  V30 11337 H 1093.56 -1.90739 -2.62277 0
M  V30 11338 H 1093.35 -3.48149 -1.80374 0
M  V30 11339 H 1094.84 -3.15322 -2.73792 0
M  V30 11340 N 1095.27 0.136881 -1.57004 0
M  V30 11341 C 1096.52 0.8461 -1.83536 0
M  V30 11342 C 1096.84 1.81246 -0.71937 0
M  V30 11343 O 1096.11 1.94191 0.258161 0
M  V30 11344 H 1094.69 0.315446 -0.677128 0
M  V30 11345 H 1097.35 0.128469 -1.94476 0
M  V30 11346 H 1096.45 1.40221 -2.78827 0
M  V30 11347 N 1096.75 1.52266 0.40654 0
M  V30 11348 C 1097.7 1.75794 1.4955 0
M  V30 11349 C 1098.67 0.600472 1.54866 0
M  V30 11350 O 1099.85 0.838305 1.71397 0
M  V30 11351 C 1096.99 1.91682 2.86971 0
M  V30 11352 C 1096.11 3.19337 2.90943 0
M  V30 11353 C 1095.24 3.25641 4.1968 0
M  V30 11354 C 1094.28 4.47488 4.17637 0
M  V30 11355 N 1093.42 4.51171 5.37949 0
M  V30 11356 H 1098.26 2.68733 1.28789 0
M  V30 11357 H 1095.79 1.33157 0.625102 0
M  V30 11358 H 1097.75 1.98877 3.66748 0
M  V30 11359 H 1096.38 1.02121 3.06221 0
M  V30 11360 H 1095.43 3.21301 2.03642 0
M  V30 11361 H 1096.75 4.09153 2.85299 0
M  V30 11362 H 1095.9 3.31922 5.07851 0
M  V30 11363 H 1094.64 2.33769 4.28023 0
M  V30 11364 H 1093.64 4.41351 3.27856 0
M  V30 11365 H 1094.87 5.40659 4.10932 0
M  V30 11366 H 1092.81 3.62182 5.46955 0
M  V30 11367 H 1092.73 5.34835 5.3431 0
M  V30 11368 H 1094 4.61685 6.28066 0
M  V30 11369 N 1098.23 -0.663929 1.42933 0
M  V30 11370 C 1099.19 -1.75899 1.46943 0
M  V30 11371 C 1100.19 -1.5682 0.355535 0
M  V30 11372 O 1101.38 -1.62914 0.616833 0
M  V30 11373 C 1098.51 -3.14657 1.31164 0
M  V30 11374 H 1099.71 -1.73727 2.44456 0
M  V30 11375 H 1097.26 -0.874587 1.2954 0
M  V30 11376 H 1097.99 -3.22447 0.346165 0
M  V30 11377 H 1097.78 -3.29909 2.11902 0
M  V30 11378 H 1099.27 -3.9453 1.36878 0
M  V30 11379 N 1099.71 -1.29285 -0.901281 0
M  V30 11380 C 1100.96 -1.16538 -1.64626 0
M  V30 11381 C 1101.27 0.282623 -1.93547 0
M  V30 11382 O 1102.47 0.531396 -2.66249 0
M  V30 11383 C 1100.93 -2.03809 -2.96631 0
M  V30 11384 C 1100.54 -3.53423 -2.75311 0
M  V30 11385 C 1102.28 -1.99782 -3.7455 0
M  V30 11386 C 1100.19 -4.32804 -4.03032 0
M  V30 11387 H 1099.12 -0.432561 -0.617581 0
M  V30 11388 H 1101.77 -1.53912 -0.999159 0
M  V30 11389 H 1100.15 -1.59302 -3.62545 0
M  V30 11390 H 1101.33 -4.05971 -2.18 0
M  V30 11391 H 1099.64 -3.59106 -2.10789 0
M  V30 11392 H 1102.24 -2.5635 -4.69243 0
M  V30 11393 H 1102.58 -0.97743 -4.04663 0
M  V30 11394 H 1103.11 -2.42324 -3.15474 0
M  V30 11395 H 1099.85 -5.35473 -3.78086 0
M  V30 11396 H 1099.37 -3.85025 -4.59909 0
M  V30 11397 H 1101.05 -4.43383 -4.71191 0
M  V30 11398 N 1101.18 1.11143 -1.11736 0
M  V30 11399 C 1102.43 1.8341 -0.879329 0
M  V30 11400 C 1102.79 1.83174 0.588657 0
M  V30 11401 O 1102.08 1.27609 1.42922 0
M  V30 11402 C 1102.27 3.29733 -1.3788 0
M  V30 11403 C 1102.1 3.44222 -2.89381 0
M  V30 11404 C 1100.87 3.57065 -3.57537 0
M  V30 11405 C 1103.07 3.38246 -3.8742 0
M  V30 11406 N 1101.05 3.60056 -4.97225 0
M  V30 11407 C 1102.42 3.47894 -5.13196 0
M  V30 11408 C 1104.48 3.21797 -3.79935 0
M  V30 11409 C 1103.18 3.4279 -6.32367 0
M  V30 11410 C 1105.21 3.18011 -4.98621 0
M  V30 11411 C 1104.57 3.28234 -6.23251 0
M  V30 11412 H 1100.67 0.686248 -0.374951 0
M  V30 11413 H 1103.25 1.32962 -1.42229 0
M  V30 11414 H 1101.42 3.78691 -0.86298 0
M  V30 11415 H 1103.15 3.89924 -1.08359 0
M  V30 11416 H 1099.91 3.59759 -3.08011 0
M  V30 11417 H 1100.33 3.65181 -5.70063 0
M  V30 11418 H 1104.98 3.12777 -2.84482 0
M  V30 11419 H 1102.69 3.50577 -7.28094 0
M  V30 11420 H 1106.28 3.06446 -4.94552 0
M  V30 11421 H 1105.16 3.25297 -7.13549 0
M  V30 11422 N 1102.66 0.908147 1.28804 0
M  V30 11423 C 1103.91 0.539201 1.95501 0
M  V30 11424 C 1104.24 -0.913759 1.7136 0
M  V30 11425 O 1103.52 -1.64904 1.03136 0
M  V30 11426 C 1103.8 0.842372 3.50109 0
M  V30 11427 C 1103.65 2.34765 3.83673 0
M  V30 11428 C 1104.97 0.334658 4.38826 0
M  V30 11429 H 1102.09 0.197373 0.71008 0
M  V30 11430 H 1104.73 1.13637 1.52272 0
M  V30 11431 H 1102.88 0.334143 3.8706 0
M  V30 11432 H 1104.55 2.92607 3.56621 0
M  V30 11433 H 1102.8 2.80494 3.30916 0
M  V30 11434 H 1103.47 2.51034 4.91616 0
M  V30 11435 H 1105.94 0.769961 4.08914 0
M  V30 11436 H 1104.82 0.575914 5.4587 0
M  V30 11437 H 1105.08 -0.764878 4.35433 0
M  V30 11438 N 1104.14 -1.42577 0.671525 0
M  V30 11439 C 1105.37 -2.05924 0.200731 0
M  V30 11440 C 1105.78 -1.50434 -1.14083 0
M  V30 11441 O 1105.14 -0.642845 -1.70803 0
M  V30 11442 C 1105.19 -3.61289 0.123505 0
M  V30 11443 O 1104.91 -4.1472 1.41205 0
M  V30 11444 C 1106.41 -4.41743 -0.371178 0
M  V30 11445 H 1103.63 -0.663746 0.0983958 0
M  V30 11446 H 1106.18 -1.82771 0.917338 0
M  V30 11447 H 1104.33 -3.83565 -0.543769 0
M  V30 11448 H 1104.75 -5.0856 1.28325 0
M  V30 11449 H 1106.22 -5.50731 -0.374128 0
M  V30 11450 H 1106.7 -4.16092 -1.40585 0
M  V30 11451 H 1107.3 -4.24478 0.264244 0
M  V30 11452 N 1105.62 -0.414636 -1.52048 0
M  V30 11453 C 1106.87 0.159034 -2.01473 0
M  V30 11454 C 1107.19 1.45176 -1.30188 0
M  V30 11455 O 1106.46 1.91134 -0.429469 0
M  V30 11456 H 1105.04 0.0617604 -0.744443 0
M  V30 11457 H 1107.7 -0.552141 -1.86916 0
M  V30 11458 H 1106.8 0.351217 -3.10118 0
M  V30 11459 N 1107.1 1.56929 -0.145233 0
M  V30 11460 C 1108.34 1.97141 0.500689 0
M  V30 11461 C 1108.7 1.02864 1.62594 0
M  V30 11462 O 1107.99 0.0633701 1.91495 0
M  V30 11463 C 1108.18 3.41467 1.05522 0
M  V30 11464 C 1108.01 4.49698 -0.0147676 0
M  V30 11465 C 1106.78 5.03242 -0.455585 0
M  V30 11466 C 1108.98 5.07952 -0.80558 0
M  V30 11467 N 1106.96 5.95075 -1.5086 0
M  V30 11468 C 1108.33 5.95977 -1.70914 0
M  V30 11469 C 1110.39 4.90529 -0.853564 0
M  V30 11470 C 1109.09 6.68445 -2.65656 0
M  V30 11471 C 1111.12 5.63698 -1.78881 0
M  V30 11472 C 1110.48 6.5143 -2.6799 0
M  V30 11473 H 1106.58 0.767071 0.152075 0
M  V30 11474 H 1109.16 1.93222 -0.239426 0
M  V30 11475 H 1107.33 3.45983 1.76495 0
M  V30 11476 H 1109.07 3.68745 1.66762 0
M  V30 11477 H 1105.82 4.73564 -0.0581751 0
M  V30 11478 H 1106.25 6.45697 -2.03482 0
M  V30 11479 H 1110.89 4.22422 -0.178723 0
M  V30 11480 H 1108.61 7.35782 -3.34141 0
M  V30 11481 H 1112.19 5.52213 -1.83172 0
M  V30 11482 H 1111.07 7.07054 -3.39181 0
M  V30 11483 N 1108.58 -0.128553 1.57075 0
M  V30 11484 C 1109.82 -0.836355 1.83982 0
M  V30 11485 C 1110.14 -1.80862 0.728971 0
M  V30 11486 O 1109.41 -1.94326 -0.247859 0
M  V30 11487 H 1107.99 -0.31185 0.678792 0
M  V30 11488 H 1110.66 -0.118153 1.94542 0
M  V30 11489 H 1109.75 -1.38741 2.79567 0
M  V30 11490 N 1110.05 -1.5248 -0.398459 0
M  V30 11491 C 1111 -1.72965 -1.4855 0
M  V30 11492 C 1111.99 -0.583628 -1.49942 0
M  V30 11493 O 1113.18 -0.841106 -1.55738 0
M  V30 11494 C 1110.31 -1.89339 -2.86366 0
M  V30 11495 C 1109.39 -3.09845 -2.8958 0
M  V30 11496 N 1109.79 -4.32365 -2.62477 0
M  V30 11497 C 1108.08 -3.09897 -3.20749 0
M  V30 11498 C 1108.78 -5.13908 -2.72532 0
M  V30 11499 N 1107.76 -4.49387 -3.05864 0
M  V30 11500 H 1111.56 -2.65327 -1.26406 0
M  V30 11501 H 1109.08 -1.50658 -0.606299 0
M  V30 11502 H 1111.07 -2.02134 -3.64619 0
M  V30 11503 H 1109.73 -0.981841 -3.095 0
M  V30 11504 H 1110.74 -4.60659 -2.36673 0
M  V30 11505 H 1107.42 -2.28518 -3.49408 0
M  V30 11506 H 1108.81 -6.21548 -2.55202 0
M  V30 11507 N 1111.53 0.65634 -1.43283 0
M  V30 11508 C 1112.76 1.44408 -1.48168 0
M  V30 11509 C 1113.17 1.88542 -0.0986016 0
M  V30 11510 O 1112.53 1.59298 0.890527 0
M  V30 11511 C 1112.58 2.68111 -2.42484 0
M  V30 11512 O 1112.3 2.25824 -3.75413 0
M  V30 11513 C 1113.8 3.61499 -2.56579 0
M  V30 11514 H 1111.02 0.443731 -0.503333 0
M  V30 11515 H 1113.57 0.804917 -1.87993 0
M  V30 11516 H 1111.72 3.28175 -2.05863 0
M  V30 11517 H 1112.14 3.05839 -4.26102 0
M  V30 11518 H 1113.61 4.44972 -3.26655 0
M  V30 11519 H 1114.09 4.08639 -1.60969 0
M  V30 11520 H 1114.69 3.07319 -2.93998 0
M  V30 11521 N 1113.01 1.29761 0.894412 0
M  V30 11522 C 1113.94 1.1115 2.00445 0
M  V30 11523 C 1114.95 0.0574655 1.62699 0
M  V30 11524 O 1116.14 0.302528 1.75918 0
M  V30 11525 C 1113.24 0.670984 3.32191 0
M  V30 11526 C 1112.42 1.80471 3.98433 0
M  V30 11527 C 1111.48 1.35431 5.08473 0
M  V30 11528 O 1110.5 2.05994 5.30618 0
M  V30 11529 N 1111.7 0.22811 5.80052 0
M  V30 11530 H 1114.47 2.06753 2.16964 0
M  V30 11531 H 1112.03 1.21772 1.06692 0
M  V30 11532 H 1114.02 0.352877 4.03159 0
M  V30 11533 H 1112.59 -0.192735 3.12005 0
M  V30 11534 H 1111.81 2.29142 3.20761 0
M  V30 11535 H 1113.1 2.56471 4.39431 0
M  V30 11536 H 1112.5 -0.360076 5.64553 0
M  V30 11537 H 1111.05 -0.0305985 6.51793 0
M  V30 11538 N 1114.49 -1.10549 1.12324 0
M  V30 11539 C 1115.72 -1.86 0.899312 0
M  V30 11540 C 1116.13 -1.80881 -0.554854 0
M  V30 11541 O 1115.47 -1.19485 -1.39531 0
M  V30 11542 C 1115.53 -3.35384 1.29452 0
M  V30 11543 C 1115.19 -3.64263 2.75974 0
M  V30 11544 C 1116.19 -3.60962 3.74169 0
M  V30 11545 C 1113.88 -3.92976 3.1285 0
M  V30 11546 C 1115.87 -3.85966 5.07256 0
M  V30 11547 C 1113.56 -4.17637 4.4612 0
M  V30 11548 C 1114.56 -4.14122 5.43132 0
M  V30 11549 O 1114.24 -4.38156 6.73999 0
M  V30 11550 H 1113.98 -0.594743 0.321337 0
M  V30 11551 H 1116.53 -1.40674 1.49667 0
M  V30 11552 H 1114.76 -3.81361 0.640358 0
M  V30 11553 H 1116.45 -3.9222 1.04491 0
M  V30 11554 H 1117.21 -3.38819 3.47025 0
M  V30 11555 H 1113.09 -3.94843 2.3795 0
M  V30 11556 H 1116.64 -3.83138 5.82967 0
M  V30 11557 H 1112.53 -4.39258 4.72993 0
M  V30 11558 H 1113.3 -4.55677 6.79927 0
M  V30 11559 N 1115.97 -0.914965 -1.28321 0
M  V30 11560 C 1117.21 -0.547665 -1.94538 0
M  V30 11561 C 1117.53 0.911834 -1.72368 0
M  V30 11562 O 1116.8 1.64481 -1.06408 0
M  V30 11563 H 1115.38 -0.199549 -0.719853 0
M  V30 11564 H 1118.05 -1.16459 -1.5628 0
M  V30 11565 H 1117.14 -0.743138 -3.03124 0
M  V30 11566 N 1117.44 1.42219 -0.679077 0
M  V30 11567 C 1118.69 2.01081 -0.202718 0
M  V30 11568 C 1119.01 1.53986 1.19639 0
M  V30 11569 O 1118.28 0.763359 1.80415 0
M  V30 11570 H 1116.86 0.743526 -0.0719547 0
M  V30 11571 H 1119.52 1.74077 -0.876544 0
M  V30 11572 H 1118.62 3.11411 -0.207314 0
M  V30 11573 N 1118.92 0.422693 1.51826 0
M  V30 11574 C 1120.15 -0.147744 2.06372 0
M  V30 11575 C 1120.56 -1.37714 1.29152 0
M  V30 11576 O 1119.92 -1.7917 0.347046 0
M  V30 11577 C 1119.97 -0.484642 3.58237 0
M  V30 11578 O 1119.69 0.695944 4.32537 0
M  V30 11579 C 1121.19 -1.10734 4.29247 0
M  V30 11580 H 1118.41 -0.0144047 0.670845 0
M  V30 11581 H 1120.96 0.597558 1.95575 0
M  V30 11582 H 1119.11 -1.17984 3.68997 0
M  V30 11583 H 1119.53 0.411471 5.22884 0
M  V30 11584 H 1121 -1.29318 5.36639 0
M  V30 11585 H 1121.48 -2.08429 3.86593 0
M  V30 11586 H 1122.08 -0.451958 4.22892 0
M  V30 11587 N 1120.4 -1.5685 0.153553 0
M  V30 11588 C 1121.65 -1.95946 -0.494936 0
M  V30 11589 C 1121.97 -1.03975 -1.64967 0
M  V30 11590 O 1121.24 -0.102572 -1.95631 0
M  V30 11591 H 1119.82 -0.723516 -0.185833 0
M  V30 11592 H 1122.48 -1.93531 0.230585 0
M  V30 11593 H 1121.58 -2.99823 -0.866743 0
M  V30 11594 N 1121.88 0.120221 -1.57141 0
M  V30 11595 C 1122.84 1.13159 -1.99318 0
M  V30 11596 C 1123.84 1.34376 -0.883158 0
M  V30 11597 O 1125.03 1.30914 -1.14922 0
M  V30 11598 C 1122.16 2.48632 -2.33227 0
M  V30 11599 H 1123.36 0.769119 -2.8987 0
M  V30 11600 H 1120.91 0.364475 -1.51991 0
M  V30 11601 H 1121.64 2.89802 -1.45551 0
M  V30 11602 H 1121.43 2.34587 -3.14184 0
M  V30 11603 H 1122.92 3.21423 -2.66603 0
M  V30 11604 N 1123.36 1.52689 0.390367 0
M  V30 11605 C 1124.29 1.80338 1.48325 0
M  V30 11606 C 1125.27 0.655338 1.56969 0
M  V30 11607 O 1126.45 0.902792 1.7194 0
M  V30 11608 C 1123.58 1.97101 2.85952 0
M  V30 11609 C 1122.54 3.12783 2.92148 0
M  V30 11610 C 1121.86 3.14798 4.32211 0
M  V30 11611 C 1123.16 4.5188 2.61919 0
M  V30 11612 H 1124.86 2.71857 1.25437 0
M  V30 11613 H 1122.4 1.30813 0.601995 0
M  V30 11614 H 1124.36 2.15027 3.62411 0
M  V30 11615 H 1123.08 1.02271 3.10174 0
M  V30 11616 H 1121.74 2.94638 2.18137 0
M  V30 11617 H 1121.39 2.17653 4.53471 0
M  V30 11618 H 1121.09 3.92507 4.37278 0
M  V30 11619 H 1122.61 3.34877 5.10578 0
M  V30 11620 H 1124.02 4.70134 3.28096 0
M  V30 11621 H 1122.42 5.31647 2.78337 0
M  V30 11622 H 1123.49 4.58689 1.57266 0
M  V30 11623 N 1124.83 -0.648732 1.43629 0
M  V30 11624 C 1126.08 -1.40446 1.44768 0
M  V30 11625 C 1126.4 -1.95447 0.0773445 0
M  V30 11626 O 1127.6 -2.71479 -0.0337942 0
M  V30 11627 C 1126.06 -2.54194 2.54781 0
M  V30 11628 C 1125.67 -2.05781 3.97942 0
M  V30 11629 C 1127.41 -3.31529 2.65121 0
M  V30 11630 C 1125.32 -3.16767 4.99412 0
M  V30 11631 H 1124.25 -0.527717 0.538545 0
M  V30 11632 H 1126.9 -0.699756 1.69634 0
M  V30 11633 H 1125.28 -3.27156 2.23125 0
M  V30 11634 H 1126.45 -1.398 4.39081 0
M  V30 11635 H 1124.77 -1.41312 3.91688 0
M  V30 11636 H 1127.37 -4.14233 3.38105 0
M  V30 11637 H 1127.71 -3.79855 1.70341 0
M  V30 11638 H 1128.24 -2.65649 2.961 0
M  V30 11639 H 1124.98 -2.73404 5.9576 0
M  V30 11640 H 1124.5 -3.81445 4.62882 0
M  V30 11641 H 1126.18 -3.81827 5.22319 0
M  V30 11642 N 1126.31 -1.30234 -0.887518 0
M  V30 11643 C 1127.24 -1.18969 -2.00919 0
M  V30 11644 C 1128.22 -0.080952 -1.69907 0
M  V30 11645 O 1129.41 -0.262546 -1.92417 0
M  V30 11646 C 1126.54 -0.878094 -3.36016 0
M  V30 11647 C 1125.49 -1.94449 -3.81279 0
M  V30 11648 C 1124.82 -1.48594 -5.13638 0
M  V30 11649 C 1126.12 -3.35519 -4.00281 0
M  V30 11650 H 1127.81 -2.12808 -2.10602 0
M  V30 11651 H 1125.36 -1.02454 -1.01189 0
M  V30 11652 H 1127.31 -0.785954 -4.14006 0
M  V30 11653 H 1126.04 0.0959779 -3.26459 0
M  V30 11654 H 1124.69 -2.02622 -3.05516 0
M  V30 11655 H 1124.34 -0.500204 -5.00507 0
M  V30 11656 H 1124.04 -2.19921 -5.44893 0
M  V30 11657 H 1125.57 -1.40754 -5.94156 0
M  V30 11658 H 1126.98 -3.30119 -4.68716 0
M  V30 11659 H 1125.38 -4.0491 -4.42909 0
M  V30 11660 H 1126.45 -3.77597 -3.04218 0
M  V30 11661 N 1127.79 1.09952 -1.12909 0
M  V30 11662 C 1128.72 2.16257 -0.759305 0
M  V30 11663 C 1129.74 1.61355 0.216427 0
M  V30 11664 O 1130.92 1.785 -0.00297224 0
M  V30 11665 C 1128.02 3.38741 -0.103908 0
M  V30 11666 C 1127.2 4.23072 -1.11037 0
M  V30 11667 C 1126.26 5.23991 -0.481667 0
M  V30 11668 O 1125.28 5.57665 -1.14011 0
M  V30 11669 N 1126.48 5.75652 0.748698 0
M  V30 11670 H 1129.25 2.48588 -1.67405 0
M  V30 11671 H 1126.81 1.25617 -1.02137 0
M  V30 11672 H 1128.8 4.03362 0.328799 0
M  V30 11673 H 1127.37 3.04344 0.713677 0
M  V30 11674 H 1126.59 3.5467 -1.72054 0
M  V30 11675 H 1127.88 4.76244 -1.79078 0
M  V30 11676 H 1127.28 5.505 1.30253 0
M  V30 11677 H 1125.84 6.42033 1.12415 0
M  V30 11678 N 1129.27 0.921757 1.27833 0
M  V30 11679 C 1130.22 0.414838 2.27041 0
M  V30 11680 C 1131.19 -0.515045 1.57913 0
M  V30 11681 O 1132.37 -0.435499 1.85763 0
M  V30 11682 C 1129.51 -0.331744 3.43502 0
M  V30 11683 C 1128.62 0.631565 4.27358 0
M  V30 11684 C 1127.76 -0.134265 5.3103 0
M  V30 11685 C 1126.8 0.822138 6.06554 0
M  V30 11686 N 1125.93 0.0893149 7.02043 0
M  V30 11687 H 1130.77 1.26585 2.69778 0
M  V30 11688 H 1128.31 0.635488 1.32665 0
M  V30 11689 H 1130.27 -0.780866 4.09827 0
M  V30 11690 H 1128.9 -1.14704 3.01733 0
M  V30 11691 H 1127.95 1.19922 3.61003 0
M  V30 11692 H 1129.26 1.36274 4.79824 0
M  V30 11693 H 1128.42 -0.643579 6.03277 0
M  V30 11694 H 1127.16 -0.898443 4.79353 0
M  V30 11695 H 1126.16 1.34275 5.33151 0
M  V30 11696 H 1127.39 1.586 6.6032 0
M  V30 11697 H 1125.33 -0.656725 6.52704 0
M  V30 11698 H 1125.25 0.760167 7.52169 0
M  V30 11699 H 1126.52 -0.399541 7.78475 0
M  V30 11700 N 1130.75 -1.41857 0.686609 0
M  V30 11701 C 1131.99 -2.0097 0.213378 0
M  V30 11702 C 1132.32 -1.54618 -1.1882 0
M  V30 11703 O 1131.59 -0.772916 -1.80008 0
M  V30 11704 H 1130.17 -0.743134 0.0758968 0
M  V30 11705 H 1132.83 -1.73609 0.885763 0
M  V30 11706 H 1131.92 -3.11296 0.223826 0
M  V30 11707 N 1132.22 -0.430739 -1.51599 0
M  V30 11708 C 1133.13 0.390347 -2.3133 0
M  V30 11709 C 1134.15 1.03376 -1.39962 0
M  V30 11710 O 1135.33 1.03057 -1.73035 0
M  V30 11711 C 1132.39 1.48039 -3.13505 0
M  V30 11712 C 1131.45 0.857792 -4.20643 0
M  V30 11713 C 1130.69 1.89589 -4.9889 0
M  V30 11714 O 1130.91 3.11717 -4.77691 0
M  V30 11715 O 1129.84 1.49009 -5.83164 0
M  V30 11716 H 1133.67 -0.260358 -3.02582 0
M  V30 11717 H 1131.25 -0.193428 -1.48143 0
M  V30 11718 H 1133.14 2.11272 -3.64612 0
M  V30 11719 H 1131.81 2.1153 -2.45024 0
M  V30 11720 H 1130.72 0.187592 -3.73629 0
M  V30 11721 H 1132.05 0.266474 -4.91478 0
M  V30 11722 N 1133.7 1.56767 -0.161869 0
M  V30 11723 C 1134.95 1.95769 0.485536 0
M  V30 11724 C 1135.26 1.05006 1.65025 0
M  V30 11725 O 1136.47 1.33649 2.36326 0
M  V30 11726 C 1134.93 3.4807 0.915176 0
M  V30 11727 C 1134.53 4.47443 -0.223416 0
M  V30 11728 C 1136.28 3.95909 1.53153 0
M  V30 11729 C 1134.19 5.90971 0.225325 0
M  V30 11730 H 1133.12 0.730911 0.185161 0
M  V30 11731 H 1135.77 1.81808 -0.248592 0
M  V30 11732 H 1134.15 3.57415 1.705 0
M  V30 11733 H 1135.32 4.49805 -1.00061 0
M  V30 11734 H 1133.64 4.09606 -0.749127 0
M  V30 11735 H 1136.23 5.00592 1.87915 0
M  V30 11736 H 1136.58 3.38307 2.42599 0
M  V30 11737 H 1137.11 3.89542 0.806322 0
M  V30 11738 H 1133.85 6.52426 -0.634124 0
M  V30 11739 H 1133.37 5.91936 0.96808 0
M  V30 11740 H 1135.05 6.43497 0.672373 0
M  V30 11741 N 1135.18 -0.111886 1.57202 0
M  V30 11742 C 1136.6 -0.465629 1.52657 0
M  V30 11743 C 1136.8 -1.81463 0.875989 0
M  V30 11744 O 1135.85 -2.4825 0.461345 0
M  V30 11745 C 1137.17 -0.443571 2.9741 0
M  V30 11746 C 1138.71 -0.52662 3.08538 0
M  V30 11747 C 1139.19 -0.53488 4.54866 0
M  V30 11748 N 1140.68 -0.596117 4.59348 0
M  V30 11749 C 1141.41 -0.624073 5.69994 0
M  V30 11750 N 1140.91 -0.609245 6.90116 0
M  V30 11751 N 1142.7 -0.667619 5.58121 0
M  V30 11752 H 1134.85 0.771925 1.97876 0
M  V30 11753 H 1137.12 0.285534 0.903977 0
M  V30 11754 H 1136.82 0.480138 3.48407 0
M  V30 11755 H 1136.7 -1.26876 3.55221 0
M  V30 11756 H 1139.08 -1.44075 2.57539 0
M  V30 11757 H 1139.17 0.326396 2.53709 0
M  V30 11758 H 1138.81 0.375233 5.06512 0
M  V30 11759 H 1138.74 -1.40488 5.07514 0
M  V30 11760 H 1141.23 -0.613452 3.72888 0
M  V30 11761 H 1141.54 -0.633396 7.702 0
M  V30 11762 H 1139.89 -0.576557 6.92604 0
M  V30 11763 H 1143.08 -0.676616 4.63184 0
M  V30 11764 H 1143.25 -0.685938 6.44359 0
M  V30 11765 N 1136.66 -1.52894 -0.382264 0
M  V30 11766 C 1137.9 -1.68515 -1.12829 0
M  V30 11767 C 1138.24 -0.427211 -1.89443 0
M  V30 11768 O 1137.51 0.57516 -1.85801 0
M  V30 11769 C 1137.8 -2.92449 -2.10108 0
M  V30 11770 C 1137.65 -4.2836 -1.37214 0
M  V30 11771 C 1138.97 -3.11944 -3.1045 0
M  V30 11772 H 1136.09 -0.613223 -0.408811 0
M  V30 11773 H 1138.73 -1.85503 -0.410921 0
M  V30 11774 H 1136.88 -2.78097 -2.71283 0
M  V30 11775 H 1138.55 -4.54493 -0.789516 0
M  V30 11776 H 1136.79 -4.28532 -0.673973 0
M  V30 11777 H 1137.46 -5.11178 -2.0833 0
M  V30 11778 H 1139.94 -3.25372 -2.59369 0
M  V30 11779 H 1138.82 -4.00125 -3.75754 0
M  V30 11780 H 1139.08 -2.26465 -3.79692 0
M  V30 11781 N 1138.14 0.641106 -1.43971 0
M  V30 11782 C 1139.39 1.39676 -1.45511 0
M  V30 11783 C 1139.7 1.95403 -0.0877084 0
M  V30 11784 O 1140.91 2.71493 0.0193965 0
M  V30 11785 C 1139.36 2.52839 -2.56126 0
M  V30 11786 C 1138.97 2.03668 -3.99028 0
M  V30 11787 C 1140.71 3.30118 -2.66875 0
M  V30 11788 C 1138.62 3.14114 -5.01085 0
M  V30 11789 H 1137.55 0.524854 -0.541336 0
M  V30 11790 H 1140.2 0.69075 -1.70003 0
M  V30 11791 H 1138.58 3.25968 -2.24857 0
M  V30 11792 H 1139.76 1.3747 -4.39817 0
M  V30 11793 H 1138.07 1.39233 -3.92432 0
M  V30 11794 H 1140.67 4.12434 -3.40297 0
M  V30 11795 H 1141.01 3.78946 -1.72353 0
M  V30 11796 H 1141.55 2.64075 -2.97505 0
M  V30 11797 H 1138.28 2.70241 -5.97202 0
M  V30 11798 H 1137.8 3.78985 -4.64898 0
M  V30 11799 H 1139.48 3.79051 -5.24337 0
M  V30 11800 N 1139.62 1.30703 0.880598 0
M  V30 11801 C 1140.56 1.17369 2.00817 0
M  V30 11802 C 1141.56 0.0845159 1.69189 0
M  V30 11803 O 1142.76 0.245673 1.78316 0
M  V30 11804 H 1139.14 0.363107 0.658527 0
M  V30 11805 H 1141.11 2.12789 2.09197 0
M  V30 11806 C 1139.86 0.886851 3.362 0
M  V30 11807 H 1139.18 1.71704 3.61051 0
M  V30 11808 H 1140.62 0.83368 4.15723 0
M  V30 11809 C 1139.08 -0.410293 3.34392 0
M  V30 11810 O 1139.61 -1.43044 3.75368 0
M  V30 11811 N 1137.82 -0.423023 2.87505 0
M  V30 11812 H 1137.36 0.407637 2.54354 0
M  V30 11813 H 1137.32 -1.29086 2.86678 0
M  V30 11814 N 1141.09 -1.09351 1.1349 0
M  V30 11815 C 1142.03 -2.15852 0.770763 0
M  V30 11816 C 1143.04 -1.61468 -0.207866 0
M  V30 11817 O 1144.23 -1.78496 0.0124385 0
M  V30 11818 C 1141.33 -3.38681 0.121871 0
M  V30 11819 C 1140.5 -4.22477 1.13279 0
M  V30 11820 C 1139.56 -5.23728 0.509448 0
M  V30 11821 O 1138.59 -5.57052 1.16967 0
M  V30 11822 N 1139.79 -5.76041 -0.718159 0
M  V30 11823 H 1142.55 -2.47696 1.6872 0
M  V30 11824 H 1140.11 -1.25074 1.02801 0
M  V30 11825 H 1142.11 -4.03531 -0.307404 0
M  V30 11826 H 1140.68 -3.04718 -0.697527 0
M  V30 11827 H 1139.9 -3.53753 1.73933 0
M  V30 11828 H 1141.18 -4.75288 1.81601 0
M  V30 11829 H 1140.58 -5.51183 -1.27331 0
M  V30 11830 H 1139.14 -6.4262 -1.09008 0
M  V30 11831 N 1142.57 -0.928524 -1.27343 0
M  V30 11832 C 1143.8 -0.585734 -1.98436 0
M  V30 11833 C 1144.21 0.83644 -1.69261 0
M  V30 11834 O 1143.57 1.55603 -0.953626 0
M  V30 11835 C 1143.62 -0.803092 -3.52467 0
M  V30 11836 O 1143.34 -2.16932 -3.80621 0
M  V30 11837 C 1144.84 -0.469127 -4.40811 0
M  V30 11838 H 1142.06 -0.221887 -0.633251 0
M  V30 11839 H 1144.61 -1.24577 -1.62175 0
M  V30 11840 H 1142.76 -0.189846 -3.86935 0
M  V30 11841 H 1143.18 -2.21992 -4.75205 0
M  V30 11842 H 1144.65 -0.671906 -5.47895 0
M  V30 11843 H 1145.13 0.595365 -4.35146 0
M  V30 11844 H 1145.73 -1.06055 -4.11865 0
M  V30 11845 N 1144.05 1.41491 -0.694123 0
M  V30 11846 C 1145.28 2.05579 -0.233466 0
M  V30 11847 C 1145.69 1.5223 1.11675 0
M  V30 11848 O 1145.05 0.669937 1.69759 0
M  V30 11849 C 1145.1 3.61047 -0.180967 0
M  V30 11850 O 1144.82 4.12421 -1.47785 0
M  V30 11851 C 1146.32 4.42278 0.300853 0
M  V30 11852 H 1143.54 0.662097 -0.108943 0
M  V30 11853 H 1146.09 1.81288 -0.946299 0
M  V30 11854 H 1144.24 3.84381 0.482678 0
M  V30 11855 H 1144.66 5.06454 -1.364 0
M  V30 11856 H 1146.13 5.51256 0.286464 0
M  V30 11857 H 1146.61 4.18276 1.33948 0
M  V30 11858 H 1147.21 4.24004 -0.331741 0
M  V30 11859 N 1145.53 0.438773 1.51369 0
M  V30 11860 C 1146.77 -0.126367 2.04009 0
M  V30 11861 C 1147.13 -1.39837 1.31566 0
M  V30 11862 O 1148.33 -2.04384 1.74587 0
M  V30 11863 C 1146.6 -0.338531 3.55793 0
M  V30 11864 S 1148.16 -0.866869 4.30152 0
M  V30 11865 H 1144.98 -0.0311763 0.710316 0
M  V30 11866 H 1147.58 0.598507 1.86113 0
M  V30 11867 H 1146.29 0.593555 4.06085 0
M  V30 11868 H 1145.82 -1.09044 3.77985 0
M  V30 11869 H 1147.83 -2.14427 4.47477 0
M  V30 11870 N 1147.01 -1.56678 0.170181 0
M  V30 11871 C 1147.92 -2.21496 -0.773079 0
M  V30 11872 C 1148.93 -1.20626 -1.25401 0
M  V30 11873 O 1150.11 -1.53283 -1.30638 0
M  V30 11874 C 1147.17 -2.8421 -1.98558 0
M  V30 11875 C 1146.23 -4.00278 -1.55164 0
M  V30 11876 C 1145.47 -4.59992 -2.70634 0
M  V30 11877 O 1145.69 -4.18595 -3.87472 0
M  V30 11878 O 1144.62 -5.49881 -2.44775 0
M  V30 11879 H 1148.45 -3.02659 -0.251195 0
M  V30 11880 H 1146.03 -1.49288 -0.0579621 0
M  V30 11881 H 1147.92 -3.2398 -2.69472 0
M  V30 11882 H 1146.59 -2.06045 -2.49654 0
M  V30 11883 H 1145.5 -3.6518 -0.812038 0
M  V30 11884 H 1146.83 -4.80033 -1.0876 0
M  V30 11885 N 1148.48 0.103547 -1.57259 0
M  V30 11886 C 1149.43 1.14513 -2.02459 0
M  V30 11887 C 1150.43 1.4197 -0.924163 0
M  V30 11888 O 1151.63 1.41751 -1.10936 0
M  V30 11889 H 1148.01 0.386469 -0.645094 0
M  V30 11890 H 1149.98 0.737531 -2.89142 0
M  V30 11891 C 1148.73 2.45948 -2.45775 0
M  V30 11892 H 1148.05 2.25662 -3.30026 0
M  V30 11893 H 1149.49 3.17351 -2.81184 0
M  V30 11894 C 1147.95 3.09639 -1.32759 0
M  V30 11895 O 1148.48 3.96372 -0.652059 0
M  V30 11896 N 1146.68 2.69757 -1.08072 0
M  V30 11897 H 1146.23 1.9932 -1.63185 0
M  V30 11898 H 1146.19 3.127 -0.326532 0
M  V30 11899 N 1149.96 1.53094 0.37415 0
M  V30 11900 C 1150.89 1.81901 1.46404 0
M  V30 11901 C 1151.87 0.671949 1.56265 0
M  V30 11902 O 1153.06 0.920978 1.70973 0
M  V30 11903 C 1150.19 2.00123 2.83845 0
M  V30 11904 C 1149.14 3.15864 2.88814 0
M  V30 11905 C 1148.47 3.19364 4.28848 0
M  V30 11906 C 1149.77 4.54633 2.57112 0
M  V30 11907 H 1151.46 2.73172 1.22546 0
M  V30 11908 H 1149.01 1.31444 0.588087 0
M  V30 11909 H 1150.96 2.18859 3.6011 0
M  V30 11910 H 1149.68 1.05555 3.09072 0
M  V30 11911 H 1148.34 2.96935 2.15 0
M  V30 11912 H 1147.99 2.2245 4.51137 0
M  V30 11913 H 1147.69 3.97123 4.3309 0
M  V30 11914 H 1149.22 3.40273 5.06997 0
M  V30 11915 H 1150.63 4.73587 3.23091 0
M  V30 11916 H 1149.03 5.34569 2.72683 0
M  V30 11917 H 1150.1 4.60331 1.52392 0
M  V30 11918 N 1151.44 -0.633461 1.44309 0
M  V30 11919 C 1152.37 -1.75676 1.53819 0
M  V30 11920 C 1153.35 -1.65537 0.391365 0
M  V30 11921 O 1154.54 -1.84332 0.611181 0
M  V30 11922 C 1151.67 -3.14197 1.47979 0
M  V30 11923 C 1150.62 -3.39122 2.61113 0
M  V30 11924 C 1149.95 -4.77648 2.40325 0
M  V30 11925 C 1151.25 -3.31914 4.03274 0
M  V30 11926 H 1152.94 -1.67974 2.47841 0
M  V30 11927 H 1150.49 -0.8067 1.19283 0
M  V30 11928 H 1152.44 -3.92553 1.53233 0
M  V30 11929 H 1151.16 -3.22677 0.504718 0
M  V30 11930 H 1149.82 -2.63145 2.55245 0
M  V30 11931 H 1149.47 -4.82829 1.41016 0
M  V30 11932 H 1149.17 -4.95284 3.16177 0
M  V30 11933 H 1150.69 -5.58237 2.47394 0
M  V30 11934 H 1152.11 -4.00178 4.10524 0
M  V30 11935 H 1150.5 -3.61085 4.7931 0
M  V30 11936 H 1151.57 -2.29761 4.2701 0
M  V30 11937 N 1152.92 -1.31168 -0.873655 0
M  V30 11938 C 1154.33 -1.18584 -1.44203 0
M  V30 11939 C 1154.68 0.209114 -1.95082 0
M  V30 11940 O 1153.81 1.10662 -1.85965 0
M  V30 11941 C 1154.4 -2.14668 -2.62112 0
M  V30 11942 C 1152.96 -2.06029 -3.15006 0
M  V30 11943 C 1152.11 -2.04106 -1.87712 0
M  V30 11944 H 1155.06 -1.43273 -0.682536 0
M  V30 11945 H 1155.08 -1.73413 -3.38686 0
M  V30 11946 H 1154.59 -3.16186 -2.25051 0
M  V30 11947 H 1152.69 -1.07693 -3.56697 0
M  V30 11948 H 1152.8 -2.9496 -3.77539 0
M  V30 11949 H 1151.17 -1.49069 -2.0652 0
M  V30 11950 H 1151.95 -3.07373 -1.52894 0
M  V30 11951 N 1154.4 1.08748 -1.14068 0
M  V30 11952 C 1155.33 2.1544 -0.782199 0
M  V30 11953 C 1156.34 1.61575 0.199301 0
M  V30 11954 O 1157.53 1.78487 -0.0219044 0
M  V30 11955 C 1154.63 3.38611 -0.13983 0
M  V30 11956 C 1153.8 4.2187 -1.15518 0
M  V30 11957 C 1152.86 5.23451 -0.537216 0
M  V30 11958 O 1151.89 5.56424 -1.1992 0
M  V30 11959 N 1153.09 5.76413 0.6876 0
M  V30 11960 H 1155.86 2.46798 -1.70032 0
M  V30 11961 H 1153.42 1.24527 -1.03463 0
M  V30 11962 H 1155.41 4.03688 0.285999 0
M  V30 11963 H 1153.98 3.05084 0.681357 0
M  V30 11964 H 1153.2 3.52825 -1.75806 0
M  V30 11965 H 1154.49 4.74318 -1.84119 0
M  V30 11966 H 1153.88 5.51851 1.24406 0
M  V30 11967 H 1152.44 6.43189 1.05599 0
M  V30 11968 N 1155.87 0.935264 1.26849 0
M  V30 11969 C 1156.81 0.397539 2.25726 0
M  V30 11970 C 1157.82 -0.475928 1.55688 0
M  V30 11971 O 1159.01 -0.287329 1.76172 0
M  V30 11972 C 1156.11 -0.448308 3.35922 0
M  V30 11973 C 1155.28 0.407624 4.35496 0
M  V30 11974 C 1154.34 -0.376815 5.24849 0
M  V30 11975 O 1153.37 0.218109 5.68782 0
M  V30 11976 N 1154.57 -1.67481 5.55815 0
M  V30 11977 H 1157.33 1.24753 2.72501 0
M  V30 11978 H 1154.89 0.803505 1.40554 0
M  V30 11979 H 1156.89 -0.980338 3.92647 0
M  V30 11980 H 1155.46 -1.19908 2.88688 0
M  V30 11981 H 1154.68 1.12091 3.77928 0
M  V30 11982 H 1155.96 0.992512 4.99026 0
M  V30 11983 H 1155.36 -2.18037 5.21993 0
M  V30 11984 H 1153.92 -2.15321 6.15207 0
M  V30 11985 N 1157.35 -1.41121 0.701616 0
M  V30 11986 C 1158.6 -2.00359 0.232214 0
M  V30 11987 C 1158.91 -1.56231 -1.17691 0
M  V30 11988 O 1160.12 -2.08071 -1.74409 0
M  V30 11989 C 1158.58 -3.58052 0.364257 0
M  V30 11990 C 1158.18 -4.11158 1.77913 0
M  V30 11991 C 1159.93 -4.24476 -0.0450628 0
M  V30 11992 C 1157.84 -5.61306 1.8625 0
M  V30 11993 H 1156.77 -0.749411 0.0830609 0
M  V30 11994 H 1159.42 -1.61528 0.870689 0
M  V30 11995 H 1157.8 -3.94515 -0.342569 0
M  V30 11996 H 1158.97 -3.86101 2.5152 0
M  V30 11997 H 1157.29 -3.57282 2.13866 0
M  V30 11998 H 1159.88 -5.347 -0.00329209 0
M  V30 11999 H 1160.23 -4.01919 -1.08477 0
M  V30 12000 H 1160.76 -3.93069 0.611704 0
M  V30 12001 H 1157.5 -5.88699 2.88294 0
M  V30 12002 H 1157.02 -5.88271 1.17036 0
M  V30 12003 H 1158.7 -6.26179 1.62817 0
M  V30 12004 N 1158.83 -0.446794 -1.51134 0
M  V30 12005 C 1160.06 0.114893 -2.06581 0
M  V30 12006 C 1160.47 1.35642 -1.31327 0
M  V30 12007 O 1159.83 1.78595 -0.375506 0
M  V30 12008 C 1159.88 0.427589 -3.58962 0
M  V30 12009 O 1159.6 -0.764669 -4.31375 0
M  V30 12010 C 1161.1 1.03891 -4.30954 0
M  V30 12011 H 1158.32 0.00373031 -0.67099 0
M  V30 12012 H 1160.87 -0.628596 -1.94599 0
M  V30 12013 H 1159.02 1.12099 -3.70827 0
M  V30 12014 H 1159.44 -0.494605 -5.22163 0
M  V30 12015 H 1160.91 1.20764 -5.38628 0
M  V30 12016 H 1161.39 2.02252 -3.8986 0
M  V30 12017 H 1161.99 0.384623 -4.23557 0
M  V30 12018 N 1160.31 1.56586 -0.178487 0
M  V30 12019 C 1161.72 1.83633 0.337009 0
M  V30 12020 C 1162.07 1.09857 1.6256 0
M  V30 12021 O 1161.2 0.353933 2.13486 0
M  V30 12022 C 1161.79 3.33112 0.618225 0
M  V30 12023 C 1160.35 3.60629 1.07814 0
M  V30 12024 C 1159.5 2.7705 0.117825 0
M  V30 12025 H 1162.45 1.53508 -0.402612 0
M  V30 12026 H 1162.47 3.5098 1.46947 0
M  V30 12027 H 1161.98 3.8678 -0.319808 0
M  V30 12028 H 1160.08 3.12378 2.03103 0
M  V30 12029 H 1160.19 4.68921 0.982339 0
M  V30 12030 H 1158.56 2.47125 0.616563 0
M  V30 12031 H 1159.34 3.33501 -0.814356 0
M  V30 12032 N 1161.79 -0.095206 1.57312 0
M  V30 12033 C 1163.2 -0.449411 1.53142 0
M  V30 12034 C 1163.4 -1.80523 0.895187 0
M  V30 12035 O 1162.46 -2.47746 0.487649 0
M  V30 12036 C 1163.77 -0.412002 2.97864 0
M  V30 12037 C 1165.32 -0.493866 3.09079 0
M  V30 12038 C 1165.79 -0.486606 4.55408 0
M  V30 12039 N 1167.29 -0.547363 4.59955 0
M  V30 12040 C 1168.02 -0.563582 5.70624 0
M  V30 12041 N 1167.52 -0.536015 6.90723 0
M  V30 12042 N 1169.31 -0.608385 5.58798 0
M  V30 12043 H 1161.46 0.792869 1.97047 0
M  V30 12044 H 1163.72 0.295106 0.900898 0
M  V30 12045 H 1163.43 0.517064 3.47878 0
M  V30 12046 H 1163.3 -1.23102 3.56547 0
M  V30 12047 H 1165.69 -1.41335 2.59053 0
M  V30 12048 H 1165.77 0.353286 2.53349 0
M  V30 12049 H 1165.42 0.428935 5.06086 0
M  V30 12050 H 1165.35 -1.35097 5.08976 0
M  V30 12051 H 1167.84 -0.573867 3.73517 0
M  V30 12052 H 1168.15 -0.551671 7.70828 0
M  V30 12053 H 1166.49 -0.503064 6.93177 0
M  V30 12054 H 1169.69 -0.627451 4.63876 0
M  V30 12055 H 1169.86 -0.617556 6.45051 0
M  V30 12056 N 1163.26 -1.53291 -0.366026 0
M  V30 12057 C 1164.2 -1.7448 -1.47079 0
M  V30 12058 C 1165.18 -0.593147 -1.51395 0
M  V30 12059 O 1166.36 -0.825686 -1.69454 0
M  V30 12060 C 1163.49 -1.82319 -2.85443 0
M  V30 12061 C 1162.53 -3.04285 -2.98852 0
M  V30 12062 S 1163.37 -4.63812 -2.67653 0
M  V30 12063 C 1164.52 -4.74499 -4.08168 0
M  V30 12064 H 1164.75 -2.67911 -1.28884 0
M  V30 12065 H 1162.29 -1.43874 -0.560335 0
M  V30 12066 H 1164.25 -1.87521 -3.65166 0
M  V30 12067 H 1162.91 -0.899398 -3.00948 0
M  V30 12068 H 1162.1 -3.06379 -4.00185 0
M  V30 12069 H 1161.7 -2.97193 -2.27051 0
M  V30 12070 H 1163.99 -4.54527 -5.02406 0
M  V30 12071 H 1164.94 -5.76558 -4.1108 0
M  V30 12072 H 1165.34 -4.03136 -3.95147 0
M  V30 12073 N 1164.74 0.6258 -1.44643 0
M  V30 12074 C 1165.68 1.75056 -1.46392 0
M  V30 12075 C 1166.65 1.59376 -0.322179 0
M  V30 12076 O 1167.84 1.81187 -0.519956 0
M  V30 12077 C 1164.96 3.12689 -1.30166 0
M  V30 12078 C 1164.01 3.47005 -2.47972 0
M  V30 12079 S 1164.84 3.43885 -4.10491 0
M  V30 12080 C 1166 4.84129 -3.96698 0
M  V30 12081 H 1166.23 1.73306 -2.41562 0
M  V30 12082 H 1163.77 0.800879 -1.32005 0
M  V30 12083 H 1165.72 3.9211 -1.21492 0
M  V30 12084 H 1164.38 3.11972 -0.364982 0
M  V30 12085 H 1163.58 4.47171 -2.32496 0
M  V30 12086 H 1163.18 2.75059 -2.53414 0
M  V30 12087 H 1165.47 5.73488 -3.60718 0
M  V30 12088 H 1166.41 5.0466 -4.96713 0
M  V30 12089 H 1166.82 4.58954 -3.28666 0
M  V30 12090 N 1166.22 1.31629 0.866686 0
M  V30 12091 C 1167.46 1.22806 1.63395 0
M  V30 12092 C 1167.82 -0.209785 1.9085 0
M  V30 12093 O 1169.03 -0.421562 2.65474 0
M  V30 12094 C 1167.3 2.05187 2.92631 0
M  V30 12095 S 1168.86 2.13261 3.83491 0
M  V30 12096 H 1165.67 0.437339 0.560585 0
M  V30 12097 H 1168.28 1.66333 1.02731 0
M  V30 12098 H 1166.98 3.08736 2.70389 0
M  V30 12099 H 1166.51 1.62393 3.58318 0
M  V30 12100 H 1168.53 1.27333 4.79584 0
M  V30 12101 N 1167.7 -1.08142 1.14644 0
M  V30 12102 C 1168.95 -1.80849 0.917685 0
M  V30 12103 C 1169.28 -1.86123 -0.554249 0
M  V30 12104 O 1168.55 -1.33907 -1.41065 0
M  V30 12105 C 1168.84 -3.26325 1.52264 0
M  V30 12106 C 1168.69 -3.29244 3.06461 0
M  V30 12107 C 1170.01 -4.23375 1.20175 0
M  V30 12108 H 1167.13 -0.656559 0.334812 0
M  V30 12109 H 1169.77 -1.26595 1.41682 0
M  V30 12110 H 1167.92 -3.72656 1.09817 0
M  V30 12111 H 1169.59 -2.91216 3.57758 0
M  V30 12112 H 1167.83 -2.68438 3.40769 0
M  V30 12113 H 1168.51 -4.31785 3.43897 0
M  V30 12114 H 1170.98 -3.85394 1.56877 0
M  V30 12115 H 1169.86 -5.23472 1.65132 0
M  V30 12116 H 1170.12 -4.41944 0.117474 0
M  V30 12117 N 1169.18 -0.941978 -1.26351 0
M  V30 12118 C 1170.43 -0.588806 -1.93333 0
M  V30 12119 C 1170.75 0.875067 -1.74263 0
M  V30 12120 O 1170.02 1.62187 -1.09873 0
M  V30 12121 H 1168.6 -0.214774 -0.715459 0
M  V30 12122 H 1171.26 -1.19747 -1.53774 0
M  V30 12123 H 1170.35 -0.807267 -3.01479 0
M  V30 12124 N 1170.66 1.40747 -0.709091 0
M  V30 12125 C 1171.9 2.01003 -0.24581 0
M  V30 12126 C 1172.23 1.56203 1.15891 0
M  V30 12127 O 1171.49 0.770166 1.79908 0
M  V30 12128 C 1171.78 3.56404 -0.266685 0
M  V30 12129 C 1171.45 4.20762 -1.6208 0
M  V30 12130 C 1170.11 4.38056 -1.99148 0
M  V30 12131 C 1172.46 4.56723 -2.51105 0
M  V30 12132 C 1169.79 4.88591 -3.248 0
M  V30 12133 C 1172.14 5.08654 -3.76103 0
M  V30 12134 C 1170.81 5.24158 -4.13297 0
M  V30 12135 H 1170.08 0.73552 -0.0899481 0
M  V30 12136 H 1172.73 1.68451 -0.910844 0
M  V30 12137 H 1171.03 3.88825 0.481915 0
M  V30 12138 H 1172.73 4.0085 0.109509 0
M  V30 12139 H 1169.32 4.07685 -1.32252 0
M  V30 12140 H 1173.5 4.43004 -2.23744 0
M  V30 12141 H 1168.76 4.98779 -3.53595 0
M  V30 12142 H 1172.93 5.35457 -4.45262 0
M  V30 12143 H 1170.56 5.63079 -5.10731 0
M  V30 12144 N 1172.13 0.454803 1.50895 0
M  V30 12145 C 1173.06 -0.337982 2.31041 0
M  V30 12146 C 1174.04 -1.00523 1.37219 0
M  V30 12147 O 1175.23 -1.00553 1.66141 0
M  V30 12148 C 1172.36 -1.42964 3.1651 0
M  V30 12149 C 1171.31 -0.884907 4.18752 0
M  V30 12150 C 1170.64 -2.07363 4.92854 0
M  V30 12151 C 1171.94 0.0926716 5.22218 0
M  V30 12152 H 1173.63 0.33089 2.97566 0
M  V30 12153 H 1171.18 0.160577 1.43102 0
M  V30 12154 H 1173.13 -1.9916 3.71367 0
M  V30 12155 H 1171.86 -2.12705 2.47839 0
M  V30 12156 H 1170.52 -0.345031 3.64973 0
M  V30 12157 H 1170.16 -2.75764 4.2067 0
M  V30 12158 H 1169.86 -1.71545 5.62002 0
M  V30 12159 H 1171.39 -2.6408 5.5054 0
M  V30 12160 H 1172.8 -0.379568 5.72042 0
M  V30 12161 H 1171.2 0.3643 5.98993 0
M  V30 12162 H 1172.27 1.02383 4.73968 0
M  V30 12163 N 1173.61 -1.56489 0.186789 0
M  V30 12164 C 1174.84 -2.02163 -0.463126 0
M  V30 12165 C 1175.26 -1.06612 -1.54969 0
M  V30 12166 O 1174.62 -0.0482139 -1.81236 0
M  V30 12167 C 1174.67 -3.46337 -1.00416 0
M  V30 12168 O 1173.77 -3.53889 -2.11747 0
M  V30 12169 H 1173.11 -0.65496 -0.109194 0
M  V30 12170 H 1175.64 -2.02459 0.295227 0
M  V30 12171 H 1175.65 -3.85959 -1.32287 0
M  V30 12172 H 1174.33 -4.15376 -0.208693 0
M  V30 12173 H 1172.9 -3.26136 -1.80803 0
M  V30 12174 N 1175.09 0.086862 -1.5736 0
M  V30 12175 C 1176.34 0.787281 -1.86135 0
M  V30 12176 C 1176.66 1.78866 -0.776667 0
M  V30 12177 O 1175.93 1.94915 0.19625 0
M  V30 12178 H 1174.51 0.293744 -0.686821 0
M  V30 12179 H 1177.17 0.0665326 -1.94786 0
M  V30 12180 H 1176.27 1.3128 -2.83147 0
M  V30 12181 N 1176.57 1.53483 0.357892 0
M  V30 12182 C 1177.82 1.69701 1.09754 0
M  V30 12183 C 1178.14 0.455389 1.89608 0
M  V30 12184 O 1177.41 -0.530623 1.88577 0
M  V30 12185 H 1175.99 0.62562 0.408178 0
M  V30 12186 H 1178.65 1.90696 0.402641 0
M  V30 12187 H 1177.74 2.56154 1.78302 0
M  V30 12188 N 1178.05 -0.61812 1.44973 0
M  V30 12189 C 1179.29 -1.37944 1.48658 0
M  V30 12190 C 1179.62 -1.93805 0.123749 0
M  V30 12191 O 1178.9 -1.74434 -0.860401 0
M  V30 12192 C 1179.18 -2.53515 2.55739 0
M  V30 12193 C 1179.04 -2.02918 4.01428 0
M  V30 12194 C 1180.35 -3.55674 2.59199 0
M  V30 12195 H 1177.47 -0.500223 0.541244 0
M  V30 12196 H 1180.12 -0.69774 1.76725 0
M  V30 12197 H 1178.27 -3.11669 2.31937 0
M  V30 12198 H 1179.94 -1.49494 4.36405 0
M  V30 12199 H 1178.18 -1.33999 4.12586 0
M  V30 12200 H 1178.85 -2.86181 4.72021 0
M  V30 12201 H 1181.33 -3.07343 2.80499 0
M  V30 12202 H 1180.2 -4.34042 3.36004 0
M  V30 12203 H 1180.46 -4.10601 1.63888 0
M  V30 12204 N 1179.52 -1.32087 -0.859693 0
M  V30 12205 C 1180.8 -1.12984 -1.59668 0
M  V30 12206 C 1181.18 0.311661 -2.08787 0
M  V30 12207 O 1180.53 1.30746 -1.87397 0
M  V30 12208 C 1180.74 -2.15305 -2.74672 0
M  V30 12209 C 1182.09 -2.48371 -3.44379 0
M  V30 12210 O 1183.11 -2.13811 -2.84891 0
M  V30 12211 O 1181.97 -3.07594 -4.51717 0
M  V30 12212 H 1179.06 -0.435657 -0.702945 0
M  V30 12213 H 1181.61 -1.43601 -0.90426 0
M  V30 12214 H 1180.38 -3.12223 -2.35866 0
M  V30 12215 H 1180 -1.85653 -3.51594 0
M  V30 12216 N 1181 1.07532 -1.15215 0
M  V30 12217 C 1182.23 1.84356 -0.950139 0
M  V30 12218 C 1182.65 1.81429 0.496502 0
M  V30 12219 O 1182.01 1.20589 1.35381 0
M  V30 12220 C 1182.06 3.29425 -1.46669 0
M  V30 12221 O 1181.16 4.07008 -0.664674 0
M  V30 12222 H 1180.5 0.570921 -0.339036 0
M  V30 12223 H 1183.03 1.35665 -1.53154 0
M  V30 12224 H 1183.04 3.8026 -1.47873 0
M  V30 12225 H 1181.72 3.3087 -2.51988 0
M  V30 12226 H 1180.29 3.65841 -0.72211 0
M  V30 12227 N 1182.48 0.948665 1.2585 0
M  V30 12228 C 1183.72 0.60782 1.95154 0
M  V30 12229 C 1184.08 -0.838703 1.72713 0
M  V30 12230 O 1185.29 -1.28885 2.35886 0
M  V30 12231 C 1183.56 0.949628 3.44553 0
M  V30 12232 S 1185.12 0.720456 4.32845 0
M  V30 12233 H 1181.93 0.223613 0.674921 0
M  V30 12234 H 1184.54 1.22157 1.52636 0
M  V30 12235 H 1183.24 1.99966 3.58388 0
M  V30 12236 H 1182.77 0.325891 3.92048 0
M  V30 12237 H 1184.79 -0.411697 4.94489 0
M  V30 12238 N 1183.96 -1.40369 0.716545 0
M  V30 12239 C 1184.89 -2.29186 0.0251905 0
M  V30 12240 C 1185.9 -1.45877 -0.722761 0
M  V30 12241 O 1187.09 -1.69155 -0.569982 0
M  V30 12242 C 1184.19 -3.24161 -0.988589 0
M  V30 12243 C 1183.37 -4.36329 -0.30597 0
M  V30 12244 C 1182.42 -5.11736 -1.22527 0
M  V30 12245 O 1181.45 -5.64758 -0.7097 0
M  V30 12246 N 1182.65 -5.21183 -2.55634 0
M  V30 12247 H 1185.42 -2.8916 0.787808 0
M  V30 12248 H 1182.98 -1.51749 0.564253 0
M  V30 12249 H 1184.97 -3.71479 -1.60578 0
M  V30 12250 H 1183.54 -2.65347 -1.65256 0
M  V30 12251 H 1182.76 -3.91125 0.491432 0
M  V30 12252 H 1184.05 -5.08523 0.167827 0
M  V30 12253 H 1183.45 -4.7959 -3.00017 0
M  V30 12254 H 1182 -5.72005 -3.12495 0
M  V30 12255 N 1185.44 -0.462799 -1.50652 0
M  V30 12256 C 1186.68 0.0948568 -2.01877 0
M  V30 12257 C 1187.01 1.4096 -1.34741 0
M  V30 12258 O 1186.28 1.89671 -0.49006 0
M  V30 12259 H 1184.86 0.0380453 -0.746031 0
M  V30 12260 H 1187.52 -0.611327 -1.85064 0
M  V30 12261 H 1186.61 0.252378 -3.11078 0
M  V30 12262 N 1186.91 1.56388 -0.195085 0
M  V30 12263 C 1188.19 1.89329 0.491303 0
M  V30 12264 C 1188.57 1.10861 1.79647 0
M  V30 12265 O 1187.92 0.209696 2.27536 0
M  V30 12266 C 1188.13 3.417 0.710096 0
M  V30 12267 C 1189.48 4.11931 1.02947 0
M  V30 12268 O 1190.5 3.4715 0.797817 0
M  V30 12269 O 1189.36 5.26423 1.46767 0
M  V30 12270 H 1186.45 0.786335 0.256137 0
M  V30 12271 H 1189 1.68061 -0.235298 0
M  V30 12272 H 1187.77 3.90727 -0.211604 0
M  V30 12273 H 1187.4 3.6866 1.48916 0
M  V30 12274 N 1188.39 -0.0785156 1.57404 0
M  V30 12275 C 1189.62 -0.795871 1.91522 0
M  V30 12276 C 1190.04 -1.70665 0.790892 0
M  V30 12277 O 1189.4 -1.79474 -0.25666 0
M  V30 12278 C 1189.45 -1.57121 3.24569 0
M  V30 12279 O 1188.55 -2.6814 3.13328 0
M  V30 12280 H 1187.89 -0.217575 0.627341 0
M  V30 12281 H 1190.42 -0.0487724 2.04542 0
M  V30 12282 H 1190.43 -1.9519 3.5828 0
M  V30 12283 H 1189.11 -0.902909 4.05981 0
M  V30 12284 H 1187.69 -2.32978 2.91163 0
M  V30 12285 N 1189.87 -1.5367 -0.349747 0
M  V30 12286 C 1191.12 -1.70281 -1.08853 0
M  V30 12287 C 1191.44 -0.465438 -1.89364 0
M  V30 12288 O 1190.71 0.520615 -1.88856 0
M  V30 12289 H 1189.29 -0.627775 -0.404854 0
M  V30 12290 H 1191.95 -1.90906 -0.392523 0
M  V30 12291 H 1191.05 -2.57096 -1.76941 0
M  V30 12292 N 1191.35 0.610423 -1.45298 0
M  V30 12293 C 1192.6 1.3668 -1.48872 0
M  V30 12294 C 1192.92 1.94562 -0.130686 0
M  V30 12295 O 1192.19 1.76996 0.839607 0
M  V30 12296 H 1190.77 0.507393 -0.548235 0
M  V30 12297 H 1193.43 0.716997 -1.81232 0
M  V30 12298 H 1192.53 2.18766 -2.22593 0
M  V30 12299 N 1192.83 1.32541 0.852676 0
M  V30 12300 C 1194.24 1.20863 1.42299 0
M  V30 12301 C 1194.59 -0.178051 1.9539 0
M  V30 12302 O 1193.71 -1.07689 1.87702 0
M  V30 12303 C 1194.31 2.18811 2.58664 0
M  V30 12304 C 1192.87 2.11015 3.11689 0
M  V30 12305 C 1192.01 2.07067 1.84441 0
M  V30 12306 H 1194.97 1.44341 0.659657 0
M  V30 12307 H 1194.99 1.78779 3.35884 0
M  V30 12308 H 1194.5 3.19726 2.19993 0
M  V30 12309 H 1192.6 1.13354 3.54939 0
M  V30 12310 H 1192.71 3.00929 3.72799 0
M  V30 12311 H 1191.08 1.52335 2.04123 0
M  V30 12312 H 1191.86 3.09767 1.47984 0
M  V30 12313 N 1194.3 -1.0692 1.15784 0
M  V30 12314 C 1195.23 -2.16216 0.881649 0
M  V30 12315 C 1196.22 -1.69253 -0.16951 0
M  V30 12316 O 1197.4 -1.94186 -0.0229511 0
M  V30 12317 C 1194.53 -3.4527 0.374982 0
M  V30 12318 C 1193.48 -4.05706 1.36332 0
M  V30 12319 C 1192.81 -5.29894 0.715317 0
M  V30 12320 C 1194.11 -4.45224 2.7308 0
M  V30 12321 H 1195.8 -2.39577 1.79563 0
M  V30 12322 H 1193.35 -1.15141 0.864784 0
M  V30 12323 H 1195.3 -4.2106 0.169279 0
M  V30 12324 H 1194.03 -3.21508 -0.574485 0
M  V30 12325 H 1192.69 -3.31965 1.55546 0
M  V30 12326 H 1192.33 -5.02425 -0.240436 0
M  V30 12327 H 1192.03 -5.71287 1.37494 0
M  V30 12328 H 1193.56 -6.08386 0.519489 0
M  V30 12329 H 1194.97 -5.12124 2.57686 0
M  V30 12330 H 1193.37 -4.97583 3.35457 0
M  V30 12331 H 1194.44 -3.56384 3.28813 0
M  V30 12332 N 1195.78 -0.955326 -1.25345 0
M  V30 12333 C 1197.01 -0.627233 -1.97688 0
M  V30 12334 C 1197.43 0.793973 -1.70522 0
M  V30 12335 O 1196.79 1.537 -0.961556 0
M  V30 12336 C 1196.84 -0.892969 -3.49369 0
M  V30 12337 O 1195.94 0.0278871 -4.12391 0
M  V30 12338 H 1195.28 -0.238402 -0.619726 0
M  V30 12339 H 1197.81 -1.28211 -1.59446 0
M  V30 12340 H 1197.82 -0.819517 -3.99685 0
M  V30 12341 H 1196.5 -1.92879 -3.6847 0
M  V30 12342 H 1195.08 -0.0978295 -3.72772 0
M  V30 12343 N 1197.26 1.39987 -0.723979 0
M  V30 12344 C 1198.49 2.0556 -0.275634 0
M  V30 12345 C 1198.91 1.54207 1.07711 0
M  V30 12346 O 1198.27 0.681041 1.68022 0
M  V30 12347 C 1198.32 3.59551 -0.27485 0
M  V30 12348 O 1197.42 4.05685 0.741182 0
M  V30 12349 H 1196.76 0.651634 -0.12755 0
M  V30 12350 H 1199.29 1.79229 -0.986814 0
M  V30 12351 H 1199.3 4.07837 -0.115425 0
M  V30 12352 H 1197.98 3.96291 -1.26198 0
M  V30 12353 H 1196.55 3.6884 0.548795 0
M  V30 12354 N 1198.74 0.470782 1.50404 0
M  V30 12355 C 1199.99 -0.0844409 2.02624 0
M  V30 12356 C 1200.32 -1.39398 1.3521 0
M  V30 12357 O 1199.59 -1.88542 0.477707 0
M  V30 12358 C 1199.88 -0.268563 3.59097 0
M  V30 12359 C 1199.73 1.06198 4.37084 0
M  V30 12360 C 1201.05 -1.02324 4.28039 0
M  V30 12361 H 1198.17 -0.0292141 0.736421 0
M  V30 12362 H 1200.81 0.616312 1.79726 0
M  V30 12363 H 1198.96 -0.865441 3.78738 0
M  V30 12364 H 1200.63 1.69541 4.29015 0
M  V30 12365 H 1198.87 1.65868 4.00837 0
M  V30 12366 H 1199.55 0.886795 5.4483 0
M  V30 12367 H 1202.02 -0.517325 4.12872 0
M  V30 12368 H 1200.9 -1.12087 5.37334 0
M  V30 12369 H 1201.16 -2.05974 3.91187 0
M  V30 12370 N 1200.22 -1.56282 0.203376 0
M  V30 12371 C 1201.13 -2.23086 -0.725922 0
M  V30 12372 C 1202.14 -1.23258 -1.22814 0
M  V30 12373 O 1203.32 -1.5602 -1.27357 0
M  V30 12374 C 1200.38 -2.88358 -1.92485 0
M  V30 12375 C 1199.45 -4.03479 -1.46639 0
M  V30 12376 C 1198.68 -4.65629 -2.60816 0
M  V30 12377 O 1198.9 -4.2672 -3.78506 0
M  V30 12378 O 1197.84 -5.54949 -2.33056 0
M  V30 12379 H 1201.66 -3.03124 -0.18694 0
M  V30 12380 H 1199.25 -1.49377 -0.0262829 0
M  V30 12381 H 1201.13 -3.29623 -2.62539 0
M  V30 12382 H 1199.8 -2.11294 -2.45228 0
M  V30 12383 H 1198.71 -3.66821 -0.734396 0
M  V30 12384 H 1200.04 -4.82232 -0.985535 0
M  V30 12385 N 1201.7 0.070167 -1.57444 0
M  V30 12386 C 1202.66 1.06761 -2.02817 0
M  V30 12387 C 1203.66 1.31498 -0.925462 0
M  V30 12388 O 1204.85 1.27192 -1.19029 0
M  V30 12389 C 1201.98 2.41086 -2.41019 0
M  V30 12390 H 1203.17 0.67651 -2.9217 0
M  V30 12391 H 1200.73 0.315936 -1.53074 0
M  V30 12392 H 1201.46 2.85025 -1.54697 0
M  V30 12393 H 1201.25 2.24472 -3.21488 0
M  V30 12394 H 1202.74 3.12778 -2.76694 0
M  V30 12395 N 1203.17 1.53854 0.341593 0
M  V30 12396 C 1204.45 1.61823 1.09875 0
M  V30 12397 C 1204.83 0.440711 2.06448 0
M  V30 12398 O 1204.18 -0.566833 2.21358 0
M  V30 12399 C 1204.39 2.9799 1.81668 0
M  V30 12400 C 1205.74 3.53411 2.35341 0
M  V30 12401 O 1206.76 3.00177 1.91761 0
M  V30 12402 O 1205.62 4.4653 3.15076 0
M  V30 12403 H 1202.71 0.654599 0.5054 0
M  V30 12404 H 1205.26 1.66199 0.342929 0
M  V30 12405 H 1204.03 3.7513 1.11323 0
M  V30 12406 H 1203.65 2.97213 2.64103 0
M  V30 12407 N 1204.65 -0.602709 1.4562 0
M  V30 12408 C 1205.9 -1.35889 1.49595 0
M  V30 12409 C 1206.22 -1.9449 0.141002 0
M  V30 12410 O 1205.49 -1.77438 -0.830209 0
M  V30 12411 H 1204.07 -0.504478 0.550918 0
M  V30 12412 H 1206.73 -0.707376 1.8161 0
M  V30 12413 H 1205.83 -2.17583 2.2375 0
M  V30 12414 N 1206.13 -1.32992 -0.845635 0
M  V30 12415 C 1207.55 -1.12179 -1.13526 0
M  V30 12416 C 1207.75 0.091795 -2.01291 0
M  V30 12417 O 1206.8 0.774051 -2.40343 0
M  V30 12418 C 1208.11 -2.40584 -1.80388 0
M  V30 12419 C 1209.66 -2.46427 -1.92984 0
M  V30 12420 C 1210.14 -3.74776 -2.63261 0
M  V30 12421 N 1211.63 -3.75809 -2.7078 0
M  V30 12422 C 1212.36 -4.71829 -3.2583 0
M  V30 12423 N 1211.86 -5.78219 -3.81621 0
M  V30 12424 N 1213.65 -4.59313 -3.24018 0
M  V30 12425 H 1205.8 -2.10786 -0.261369 0
M  V30 12426 H 1208.07 -0.931053 -0.17845 0
M  V30 12427 H 1207.77 -3.29357 -1.23357 0
M  V30 12428 H 1207.65 -2.52225 -2.80468 0
M  V30 12429 H 1210.03 -1.58108 -2.4917 0
M  V30 12430 H 1210.11 -2.38732 -0.918732 0
M  V30 12431 H 1209.76 -4.63474 -2.07736 0
M  V30 12432 H 1209.69 -3.79746 -3.6483 0
M  V30 12433 H 1212.18 -2.98916 -2.31209 0
M  V30 12434 H 1212.49 -6.47531 -4.2181 0
M  V30 12435 H 1210.84 -5.81962 -3.79927 0
M  V30 12436 H 1214.03 -3.75358 -2.79685 0
M  V30 12437 H 1214.2 -5.34316 -3.6662 0
M  V30 12438 N 1207.61 1.06304 -1.1635 0
M  V30 12439 C 1208.86 1.78487 -0.939423 0
M  V30 12440 C 1209.17 1.8817 0.533998 0
M  V30 12441 O 1210.38 2.56981 0.875962 0
M  V30 12442 C 1208.83 3.20796 -1.63149 0
M  V30 12443 C 1208.44 3.19281 -3.14267 0
M  V30 12444 C 1210.18 3.97514 -1.48938 0
M  V30 12445 C 1208.09 4.56309 -3.76213 0
M  V30 12446 H 1207.02 0.668973 -0.347837 0
M  V30 12447 H 1209.67 1.19237 -1.3948 0
M  V30 12448 H 1208.05 3.80305 -1.10382 0
M  V30 12449 H 1209.23 2.69356 -3.73877 0
M  V30 12450 H 1207.54 2.56062 -3.28362 0
M  V30 12451 H 1210.14 4.98808 -1.926 0
M  V30 12452 H 1210.48 4.13986 -0.438319 0
M  V30 12453 H 1211.02 3.44528 -1.98861 0
M  V30 12454 H 1207.75 4.45042 -4.81267 0
M  V30 12455 H 1207.27 5.06429 -3.21388 0
M  V30 12456 H 1208.95 5.25266 -3.77762 0
M  V30 12457 N 1209.09 0.96196 1.24836 0
M  V30 12458 C 1210.33 0.620715 1.92752 0
M  V30 12459 C 1210.66 -0.843308 1.75267 0
M  V30 12460 O 1209.92 -1.62141 1.09584 0
M  V30 12461 C 1210.21 0.934481 3.44967 0
M  V30 12462 C 1209.88 2.38572 3.82615 0
M  V30 12463 C 1208.54 2.78238 3.92603 0
M  V30 12464 C 1210.89 3.32784 4.01129 0
M  V30 12465 C 1208.22 4.11169 4.18518 0
M  V30 12466 C 1210.57 4.65336 4.28539 0
M  V30 12467 C 1209.24 5.04788 4.36745 0
M  V30 12468 H 1208.51 0.227136 0.70533 0
M  V30 12469 H 1211.16 1.21237 1.48236 0
M  V30 12470 H 1209.46 0.260516 3.90933 0
M  V30 12471 H 1211.16 0.648923 3.95715 0
M  V30 12472 H 1207.75 2.06812 3.75402 0
M  V30 12473 H 1211.93 3.03325 3.9282 0
M  V30 12474 H 1207.19 4.41368 4.23089 0
M  V30 12475 H 1211.36 5.3831 4.41809 0
M  V30 12476 H 1208.99 6.07816 4.56579 0
M  V30 12477 N 1210.56 -1.39601 0.731392 0
M  V30 12478 C 1211.5 -2.29147 0.0494974 0
M  V30 12479 C 1212.51 -1.46635 -0.707248 0
M  V30 12480 O 1213.7 -1.6975 -0.552008 0
M  V30 12481 C 1210.8 -3.25191 -0.954152 0
M  V30 12482 C 1209.97 -4.36629 -0.259674 0
M  V30 12483 C 1209.03 -5.13007 -1.17092 0
M  V30 12484 O 1208.06 -5.65479 -0.64976 0
M  V30 12485 N 1209.26 -5.23865 -2.50092 0
M  V30 12486 H 1212.02 -2.88308 0.818433 0
M  V30 12487 H 1209.58 -1.51142 0.580316 0
M  V30 12488 H 1211.58 -3.73161 -1.56629 0
M  V30 12489 H 1210.15 -2.67085 -1.62432 0
M  V30 12490 H 1209.37 -3.90582 0.532888 0
M  V30 12491 H 1210.65 -5.08317 0.221753 0
M  V30 12492 H 1210.05 -4.82745 -2.94913 0
M  V30 12493 H 1208.61 -5.75288 -3.0641 0
M  V30 12494 N 1212.04 -0.478751 -1.50152 0
M  V30 12495 C 1213.01 0.300181 -2.27226 0
M  V30 12496 C 1214.01 0.913705 -1.32318 0
M  V30 12497 O 1215.2 0.781692 -1.55677 0
M  V30 12498 C 1212.33 1.42838 -3.09532 0
M  V30 12499 H 1213.52 -0.375845 -2.97536 0
M  V30 12500 H 1211.07 -0.233037 -1.54553 0
M  V30 12501 H 1211.81 2.13923 -2.43737 0
M  V30 12502 H 1211.59 0.994161 -3.79287 0
M  V30 12503 H 1213.08 1.97765 -3.67802 0
M  V30 12504 N 1213.52 1.56172 -0.211661 0
M  V30 12505 C 1214.77 1.97648 0.421871 0
M  V30 12506 C 1215.09 1.10026 1.60995 0
M  V30 12507 O 1214.36 0.175109 1.95116 0
M  V30 12508 H 1212.94 0.729914 0.158852 0
M  V30 12509 H 1215.6 1.92542 -0.302254 0
M  V30 12510 H 1214.7 3.02834 0.754868 0
M  V30 12511 N 1215 -0.0618163 1.57479 0
M  V30 12512 C 1216.24 -0.760193 1.88013 0
M  V30 12513 C 1216.58 -1.76718 0.805258 0
M  V30 12514 O 1215.85 -1.93633 -0.183408 0
M  V30 12515 C 1216.14 -1.45924 3.29208 0
M  V30 12516 C 1215.99 -0.467994 4.47359 0
M  V30 12517 C 1217.31 -2.40166 3.68793 0
M  V30 12518 H 1214.43 -0.274896 0.683814 0
M  V30 12519 H 1217.07 -0.0232433 1.89986 0
M  V30 12520 H 1215.22 -2.08741 3.27657 0
M  V30 12521 H 1216.89 0.155735 4.61037 0
M  V30 12522 H 1215.13 0.215797 4.33263 0
M  V30 12523 H 1215.8 -0.994942 5.42959 0
M  V30 12524 H 1218.28 -1.87419 3.71501 0
M  V30 12525 H 1217.16 -2.86076 4.68457 0
M  V30 12526 H 1217.42 -3.25413 2.99264 0
M  V30 12527 N 1216.48 -1.54033 -0.333429 0
M  V30 12528 C 1217.72 -1.72019 -1.07411 0
M  V30 12529 C 1218.06 -0.487265 -1.87988 0
M  V30 12530 O 1217.33 0.515757 -1.87537 0
M  V30 12531 C 1217.61 -2.98986 -2.00698 0
M  V30 12532 C 1217.47 -4.32509 -1.23517 0
M  V30 12533 C 1218.79 -3.21663 -3.00368 0
M  V30 12534 H 1215.9 -0.625919 -0.389094 0
M  V30 12535 H 1218.55 -1.86717 -0.351697 0
M  V30 12536 H 1216.7 -2.86586 -2.62298 0
M  V30 12537 H 1218.37 -4.56775 -0.644522 0
M  V30 12538 H 1216.61 -4.3046 -0.537298 0
M  V30 12539 H 1217.28 -5.17547 -1.91962 0
M  V30 12540 H 1219.76 -3.33459 -2.48886 0
M  V30 12541 H 1218.63 -4.11877 -3.62834 0
M  V30 12542 H 1218.9 -2.3843 -3.72295 0
M  V30 12543 N 1217.95 0.594978 -1.45938 0
M  V30 12544 C 1219.18 1.38482 -1.54394 0
M  V30 12545 C 1219.6 1.87222 -0.181563 0
M  V30 12546 O 1218.96 1.60869 0.836119 0
M  V30 12547 C 1219.01 2.55676 -2.54287 0
M  V30 12548 O 1218.11 3.5672 -2.06941 0
M  V30 12549 H 1217.46 0.412918 -0.519995 0
M  V30 12550 H 1219.99 0.722899 -1.91404 0
M  V30 12551 H 1220 3.02756 -2.73501 0
M  V30 12552 H 1218.67 2.19552 -3.53228 0
M  V30 12553 H 1217.25 3.16204 -1.97661 0
M  V30 12554 N 1219.43 1.33438 0.838571 0
M  V30 12555 C 1220.68 1.26106 1.59589 0
M  V30 12556 C 1221.03 -0.171524 1.91634 0
M  V30 12557 O 1220.33 -1.11368 1.55909 0
M  V30 12558 C 1220.52 2.07002 2.9135 0
M  V30 12559 C 1220.35 3.57981 2.72175 0
M  V30 12560 C 1219.12 4.27293 2.69719 0
M  V30 12561 C 1221.32 4.52308 2.4479 0
M  V30 12562 N 1219.3 5.64221 2.41925 0
M  V30 12563 C 1220.67 5.77127 2.26549 0
M  V30 12564 C 1222.73 4.4139 2.3039 0
M  V30 12565 C 1221.43 6.9226 1.95368 0
M  V30 12566 C 1223.45 5.56339 2.00602 0
M  V30 12567 C 1222.82 6.80167 1.83173 0
M  V30 12568 H 1218.92 0.516656 0.587018 0
M  V30 12569 H 1221.5 1.67982 0.984382 0
M  V30 12570 H 1219.67 1.67446 3.50452 0
M  V30 12571 H 1221.4 1.91437 3.56558 0
M  V30 12572 H 1218.16 3.79571 2.83236 0
M  V30 12573 H 1218.58 6.36403 2.30911 0
M  V30 12574 H 1223.22 3.46289 2.42577 0
M  V30 12575 H 1220.94 7.87357 1.81918 0
M  V30 12576 H 1224.53 5.49827 1.90214 0
M  V30 12577 H 1223.41 7.67609 1.60455 0
M  V30 12578 N 1220.91 -1.05686 1.16912 0
M  V30 12579 C 1222.16 -1.78244 0.95254 0
M  V30 12580 C 1222.48 -1.87924 -0.520525 0
M  V30 12581 O 1221.75 -1.39239 -1.37802 0
M  V30 12582 H 1220.33 -0.660228 0.349439 0
M  V30 12583 H 1222.99 -1.27634 1.47294 0
M  V30 12584 H 1222.09 -2.80102 1.37657 0
M  V30 12585 N 1222.39 -0.968567 -1.24324 0
M  V30 12586 C 1223.67 -0.547774 -1.87773 0
M  V30 12587 C 1224.05 0.975107 -1.87229 0
M  V30 12588 O 1223.39 1.84683 -1.34553 0
M  V30 12589 C 1223.6 -1.1403 -3.29846 0
M  V30 12590 C 1224.95 -1.22572 -4.06523 0
M  V30 12591 O 1225.98 -1.09287 -3.3902 0
M  V30 12592 O 1224.83 -1.43579 -5.27302 0
M  V30 12593 H 1221.93 -0.182771 -0.806551 0
M  V30 12594 H 1224.47 -1.06289 -1.3229 0
M  V30 12595 H 1223.25 -2.18303 -3.24745 0
M  V30 12596 H 1222.87 -0.609275 -3.92904 0
M  V30 12597 N 1223.87 1.39211 -0.738786 0
M  V30 12598 C 1225.11 2.0004 -0.28782 0
M  V30 12599 C 1225.44 1.58921 1.13 0
M  V30 12600 O 1224.71 0.839193 1.77015 0
M  V30 12601 H 1223.29 0.739805 -0.103425 0
M  V30 12602 H 1225.95 1.70202 -0.949587 0
M  V30 12603 H 1225.04 3.10251 -0.339208 0
M  V30 12604 N 1225.34 0.486708 1.49896 0
M  V30 12605 C 1226.58 -0.0613987 2.04308 0
M  V30 12606 C 1226.95 -1.3558 1.35948 0
M  V30 12607 O 1228.15 -1.98726 1.81001 0
M  V30 12608 C 1226.42 -0.225167 3.5669 0
M  V30 12609 S 1227.98 -0.729581 4.32692 0
M  V30 12610 H 1224.8 -0.00856238 0.710948 0
M  V30 12611 H 1227.4 0.657414 1.84115 0
M  V30 12612 H 1226.1 0.722447 4.03991 0
M  V30 12613 H 1225.63 -0.969639 3.81263 0
M  V30 12614 H 1227.65 -2.00082 4.54072 0
M  V30 12615 N 1226.82 -1.56058 0.219941 0
M  V30 12616 C 1227.79 -2.18964 -0.677303 0
M  V30 12617 C 1228.79 -1.15105 -1.12283 0
M  V30 12618 O 1229.98 -1.40348 -1.03189 0
M  V30 12619 C 1227.11 -2.81167 -1.92764 0
M  V30 12620 H 1228.3 -2.99623 -0.128877 0
M  V30 12621 H 1225.85 -1.56272 -0.0296744 0
M  V30 12622 H 1226.59 -2.04374 -2.51797 0
M  V30 12623 H 1226.37 -3.5722 -1.61666 0
M  V30 12624 H 1227.86 -3.29391 -2.56693 0
M  V30 12625 N 1228.3 0.053464 -1.57509 0
M  V30 12626 C 1229.23 1.08863 -2.01696 0
M  V30 12627 C 1230.25 1.33916 -0.925765 0
M  V30 12628 O 1231.44 1.31833 -1.20343 0
M  V30 12629 C 1228.54 2.43567 -2.35644 0
M  V30 12630 C 1227.71 2.38215 -3.66841 0
M  V30 12631 C 1226.77 3.55172 -3.88252 0
M  V30 12632 O 1225.79 3.35769 -4.59617 0
M  V30 12633 N 1227 4.76182 -3.3201 0
M  V30 12634 H 1229.76 0.712192 -2.91115 0
M  V30 12635 H 1227.32 0.241829 -1.60084 0
M  V30 12636 H 1229.31 3.20486 -2.47125 0
M  V30 12637 H 1227.88 2.73145 -1.52022 0
M  V30 12638 H 1227.1 1.46557 -3.65943 0
M  V30 12639 H 1228.39 2.31757 -4.52953 0
M  V30 12640 H 1227.79 4.94849 -2.74118 0
M  V30 12641 H 1226.35 5.5055 -3.4891 0
M  V30 12642 N 1229.78 1.54207 0.325255 0
M  V30 12643 C 1231.2 1.44879 0.669492 0
M  V30 12644 C 1231.4 0.620298 1.91715 0
M  V30 12645 O 1230.45 0.118435 2.52222 0
M  V30 12646 C 1231.76 2.88581 0.845077 0
M  V30 12647 C 1233.31 2.98472 0.942527 0
M  V30 12648 C 1233.79 4.4332 1.15029 0
M  V30 12649 N 1235.28 4.46925 1.21707 0
M  V30 12650 C 1236.01 5.56155 1.39568 0
M  V30 12651 N 1235.51 6.75357 1.54483 0
M  V30 12652 N 1237.3 5.43799 1.42263 0
M  V30 12653 H 1229.45 2.06556 -0.494819 0
M  V30 12654 H 1231.72 0.934474 -0.159568 0
M  V30 12655 H 1231.42 3.517 -0.000442996 0
M  V30 12656 H 1231.3 3.34596 1.74141 0
M  V30 12657 H 1233.68 2.35481 1.77855 0
M  V30 12658 H 1233.76 2.5579 0.0226995 0
M  V30 12659 H 1233.41 5.06896 0.319127 0
M  V30 12660 H 1233.34 4.8361 2.08397 0
M  V30 12661 H 1235.83 3.61036 1.11632 0
M  V30 12662 H 1236.14 7.54363 1.67799 0
M  V30 12663 H 1234.49 6.78268 1.51584 0
M  V30 12664 H 1237.68 4.49627 1.30205 0
M  V30 12665 H 1237.85 6.28982 1.5584 0
M  V30 12666 N 1231.26 -0.58723 1.46251 0
M  V30 12667 C 1232.21 -1.71771 1.56836 0
M  V30 12668 C 1233.2 -1.63664 0.437096 0
M  V30 12669 O 1234.41 -1.69212 0.613797 0
M  V30 12670 H 1230.78 -0.567841 0.493012 0
M  V30 12671 H 1232.75 -1.59974 2.51895 0
M  V30 12672 C 1231.5 -3.10159 1.57152 0
M  V30 12673 H 1230.82 -3.17066 2.43535 0
M  V30 12674 H 1232.26 -3.89032 1.68613 0
M  V30 12675 C 1230.72 -3.35567 0.299374 0
M  V30 12676 O 1231.25 -3.97006 -0.612291 0
M  V30 12677 N 1229.46 -2.89987 0.188695 0
M  V30 12678 H 1229.01 -2.4017 0.93147 0
M  V30 12679 H 1228.96 -3.0736 -0.661612 0
M  V30 12680 N 1232.74 -1.33881 -0.831482 0
M  V30 12681 C 1233.68 -1.24748 -1.94182 0
M  V30 12682 C 1234.65 -0.124516 -1.65633 0
M  V30 12683 O 1235.84 -0.304045 -1.88362 0
M  V30 12684 C 1232.98 -1.00016 -3.30289 0
M  V30 12685 C 1232.09 -2.21007 -3.71187 0
M  V30 12686 C 1231.23 -1.89629 -4.962 0
M  V30 12687 C 1230.26 -3.06811 -5.29654 0
M  V30 12688 N 1229.4 -2.75372 -6.45844 0
M  V30 12689 H 1234.24 -2.19709 -2.01325 0
M  V30 12690 H 1231.78 -1.09245 -0.985081 0
M  V30 12691 H 1233.74 -0.837167 -4.08714 0
M  V30 12692 H 1232.37 -0.0872582 -3.22682 0
M  V30 12693 H 1231.42 -2.48256 -2.88224 0
M  V30 12694 H 1232.73 -3.08587 -3.91887 0
M  V30 12695 H 1231.88 -1.70016 -5.82391 0
M  V30 12696 H 1230.62 -0.992964 -4.77485 0
M  V30 12697 H 1229.63 -3.27029 -4.41964 0
M  V30 12698 H 1230.85 -3.97909 -5.50314 0
M  V30 12699 H 1228.8 -1.87607 -6.28601 0
M  V30 12700 H 1228.72 -3.56483 -6.66675 0
M  V30 12701 H 1229.98 -2.59244 -7.35128 0
M  V30 12702 N 1234.21 1.05064 -1.1747 0
M  V30 12703 C 1235.62 1.59547 -0.969628 0
M  V30 12704 C 1235.98 1.90153 0.483332 0
M  V30 12705 O 1235.1 1.68415 1.35887 0
M  V30 12706 C 1235.7 2.89877 -1.75377 0
M  V30 12707 C 1234.25 3.41013 -1.59332 0
M  V30 12708 C 1233.4 2.1473 -1.7546 0
M  V30 12709 H 1236.35 0.878595 -1.3216 0
M  V30 12710 H 1236.37 3.59834 -1.23691 0
M  V30 12711 H 1235.89 2.67569 -2.8112 0
M  V30 12712 H 1233.99 3.68355 -0.560827 0
M  V30 12713 H 1234.1 4.15512 -2.38509 0
M  V30 12714 H 1232.46 2.25553 -1.18313 0
M  V30 12715 H 1233.25 1.9489 -2.82618 0
M  V30 12716 N 1235.69 0.975146 1.23809 0
M  V30 12717 C 1236.94 0.639858 1.91704 0
M  V30 12718 C 1237.26 -0.828557 1.76522 0
M  V30 12719 O 1236.53 -1.59217 1.14135 0
M  V30 12720 H 1235.11 0.233667 0.709513 0
M  V30 12721 H 1237.77 1.23782 1.50545 0
M  V30 12722 H 1236.87 0.886915 2.99233 0
M  V30 12723 N 1237.17 -1.38817 0.746158 0
M  V30 12724 C 1238.42 -2.00577 0.299458 0
M  V30 12725 C 1238.75 -1.59087 -1.11378 0
M  V30 12726 O 1238.02 -0.824932 -1.7614 0
M  V30 12727 C 1238.31 -3.57713 0.413932 0
M  V30 12728 C 1238.16 -4.09189 1.86774 0
M  V30 12729 C 1239.48 -4.39659 -0.197082 0
M  V30 12730 H 1236.6 -0.728702 0.110285 0
M  V30 12731 H 1239.24 -1.64866 0.944408 0
M  V30 12732 H 1237.39 -3.88265 -0.135155 0
M  V30 12733 H 1239.06 -3.89311 2.47456 0
M  V30 12734 H 1237.3 -3.62333 2.38532 0
M  V30 12735 H 1237.98 -5.18305 1.89904 0
M  V30 12736 H 1240.45 -4.15216 0.271121 0
M  V30 12737 H 1239.33 -5.48832 -0.0867011 0
M  V30 12738 H 1239.59 -4.23028 -1.2845 0
M  V30 12739 N 1238.65 -0.49465 -1.49636 0
M  V30 12740 C 1239.88 0.0490417 -2.06542 0
M  V30 12741 C 1240.29 1.31945 -1.35599 0
M  V30 12742 O 1239.63 1.78691 -0.426047 0
M  V30 12743 C 1239.69 0.379426 -3.57492 0
M  V30 12744 C 1239.35 -0.792345 -4.50079 0
M  V30 12745 C 1240.35 -1.68106 -4.91972 0
M  V30 12746 C 1238.04 -0.98935 -4.9246 0
M  V30 12747 C 1240.03 -2.75099 -5.74978 0
M  V30 12748 C 1237.72 -2.06247 -5.75244 0
M  V30 12749 C 1238.72 -2.94163 -6.16407 0
M  V30 12750 O 1238.4 -3.99623 -6.97536 0
M  V30 12751 H 1238.14 -0.0143708 -0.675847 0
M  V30 12752 H 1240.69 -0.689358 -1.93486 0
M  V30 12753 H 1238.92 1.17133 -3.68533 0
M  V30 12754 H 1240.61 0.860979 -3.96664 0
M  V30 12755 H 1241.37 -1.54065 -4.59879 0
M  V30 12756 H 1237.25 -0.314435 -4.59926 0
M  V30 12757 H 1240.8 -3.4375 -6.07027 0
M  V30 12758 H 1236.69 -2.20285 -6.06749 0
M  V30 12759 H 1237.46 -3.96899 -7.15831 0
M  V30 12760 N 1240.13 1.55939 -0.228214 0
M  V30 12761 C 1241.35 2.0287 0.406348 0
M  V30 12762 C 1241.77 1.1079 1.52876 0
M  V30 12763 O 1241.13 0.118747 1.82113 0
M  V30 12764 C 1241.18 3.49286 0.931734 0
M  V30 12765 O 1240.9 4.37857 -0.145933 0
M  V30 12766 C 1242.4 4.11893 1.63887 0
M  V30 12767 H 1239.62 0.663696 0.0987358 0
M  V30 12768 H 1242.16 2.01541 -0.346616 0
M  V30 12769 H 1240.32 3.5121 1.63494 0
M  V30 12770 H 1240.73 5.23904 0.250005 0
M  V30 12771 H 1242.21 5.16091 1.95841 0
M  V30 12772 H 1242.68 3.57281 2.55435 0
M  V30 12773 H 1243.29 4.13839 0.980697 0
M  V30 12774 N 1241.6 -0.0451101 1.57535 0
M  V30 12775 C 1243.02 -0.400463 1.54494 0
M  V30 12776 C 1243.22 -1.77584 0.952166 0
M  V30 12777 O 1242.28 -2.46069 0.566221 0
M  V30 12778 C 1243.59 -0.31703 2.99024 0
M  V30 12779 C 1245.14 -0.395284 3.10494 0
M  V30 12780 C 1245.61 -0.341475 4.56725 0
M  V30 12781 N 1247.1 -0.400755 4.61463 0
M  V30 12782 C 1247.84 -0.381757 5.72128 0
M  V30 12783 N 1247.33 -0.315995 6.92079 0
M  V30 12784 N 1249.13 -0.4303 5.60451 0
M  V30 12785 H 1241.28 0.855156 1.94424 0
M  V30 12786 H 1243.54 0.323618 0.891053 0
M  V30 12787 H 1243.25 0.627477 3.46057 0
M  V30 12788 H 1243.12 -1.11696 3.60283 0
M  V30 12789 H 1245.51 -1.33022 2.63418 0
M  V30 12790 H 1245.59 0.433709 2.52096 0
M  V30 12791 H 1245.23 0.589725 5.04465 0
M  V30 12792 H 1245.16 -1.18836 5.13016 0
M  V30 12793 H 1247.65 -0.454745 3.75154 0
M  V30 12794 H 1247.97 -0.306158 7.72193 0
M  V30 12795 H 1246.31 -0.282281 6.94427 0
M  V30 12796 H 1249.5 -0.479555 4.65637 0
M  V30 12797 H 1249.68 -0.412025 6.46689 0
M  V30 12798 N 1243.08 -1.54377 -0.317073 0
M  V30 12799 C 1244.01 -1.8721 -1.39552 0
M  V30 12800 C 1244.99 -0.729483 -1.53664 0
M  V30 12801 O 1246.18 -0.983799 -1.67437 0
M  V30 12802 C 1243.31 -2.1052 -2.76222 0
M  V30 12803 C 1242.26 -3.26366 -2.76892 0
M  V30 12804 C 1241.59 -3.35061 -4.16699 0
M  V30 12805 C 1242.89 -4.63862 -2.40061 0
M  V30 12806 H 1244.58 -2.77532 -1.12323 0
M  V30 12807 H 1242.13 -1.33536 -0.538897 0
M  V30 12808 H 1244.08 -2.32073 -3.51739 0
M  V30 12809 H 1242.81 -1.16953 -3.04942 0
M  V30 12810 H 1241.46 -3.0471 -2.03831 0
M  V30 12811 H 1241.11 -2.39041 -4.4257 0
M  V30 12812 H 1240.81 -4.12923 -4.18053 0
M  V30 12813 H 1242.34 -3.58856 -4.94019 0
M  V30 12814 H 1243.75 -4.85252 -3.05292 0
M  V30 12815 H 1242.15 -5.44321 -2.52655 0
M  V30 12816 H 1243.22 -4.6567 -1.35202 0
M  V30 12817 N 1244.56 0.579466 -1.4656 0
M  V30 12818 C 1245.97 1.1616 -1.46164 0
M  V30 12819 C 1246.32 1.95134 -0.20423 0
M  V30 12820 O 1245.45 2.05022 0.692457 0
M  V30 12821 C 1246.04 2.11322 -2.64818 0
M  V30 12822 C 1244.6 2.64852 -2.67452 0
M  V30 12823 C 1243.75 1.40786 -2.38903 0
M  V30 12824 H 1246.7 0.367229 -1.54393 0
M  V30 12825 H 1246.72 2.94839 -2.4052 0
M  V30 12826 H 1246.23 1.53815 -3.56318 0
M  V30 12827 H 1244.33 3.26219 -1.80032 0
M  V30 12828 H 1244.45 3.07366 -3.67509 0
M  V30 12829 H 1242.81 1.70707 -1.89027 0
M  V30 12830 H 1243.59 0.851049 -3.32584 0
M  V30 12831 N 1246.04 1.3432 0.824371 0
M  V30 12832 C 1246.97 1.2842 1.95014 0
M  V30 12833 C 1247.95 0.161925 1.69328 0
M  V30 12834 O 1249.13 0.354052 1.90945 0
M  V30 12835 C 1246.26 1.03741 3.31444 0
M  V30 12836 C 1245.22 2.12419 3.71567 0
M  V30 12837 C 1244.54 1.72931 5.05963 0
M  V30 12838 C 1245.84 3.54235 3.83817 0
M  V30 12839 H 1247.54 2.22614 2.00209 0
M  V30 12840 H 1245.08 1.07165 0.961856 0
M  V30 12841 H 1247.04 0.982586 4.09784 0
M  V30 12842 H 1245.76 0.0598892 3.26545 0
M  V30 12843 H 1244.42 2.16968 2.955 0
M  V30 12844 H 1244.07 0.738433 4.9755 0
M  V30 12845 H 1243.77 2.45668 5.3378 0
M  V30 12846 H 1245.29 1.68941 5.86763 0
M  V30 12847 H 1246.71 3.52106 4.52432 0
M  V30 12848 H 1245.1 4.25581 4.23085 0
M  V30 12849 H 1246.17 3.91682 2.85856 0
M  V30 12850 N 1247.52 -1.0444 1.18026 0
M  V30 12851 C 1248.76 -1.77575 0.973314 0
M  V30 12852 C 1249.09 -1.88032 -0.4974 0
M  V30 12853 O 1248.35 -1.38214 -1.38548 0
M  V30 12854 C 1248.65 -3.21134 1.56869 0
M  V30 12855 C 1248.31 -3.30718 3.0649 0
M  V30 12856 C 1246.97 -3.33041 3.47328 0
M  V30 12857 C 1249.33 -3.3112 4.02503 0
M  V30 12858 C 1246.65 -3.33404 4.82762 0
M  V30 12859 C 1249.01 -3.33023 5.37846 0
M  V30 12860 C 1247.67 -3.33636 5.78138 0
M  V30 12861 H 1246.94 -0.649793 0.356161 0
M  V30 12862 H 1249.59 -1.22693 1.47033 0
M  V30 12863 H 1247.89 -3.78992 0.993584 0
M  V30 12864 H 1249.59 -3.76358 1.38404 0
M  V30 12865 H 1246.18 -3.29628 2.7394 0
M  V30 12866 H 1250.36 -3.2852 3.72006 0
M  V30 12867 H 1245.62 -3.32194 5.13281 0
M  V30 12868 H 1249.79 -3.32283 6.12014 0
M  V30 12869 H 1247.42 -3.33671 6.83058 0
M  V30 12870 N 1248.99 -0.981699 -1.2329 0
M  V30 12871 C 1250.41 -0.690539 -1.43888 0
M  V30 12872 C 1250.61 0.742816 -1.87309 0
M  V30 12873 O 1249.67 1.5151 -2.01993 0
M  V30 12874 C 1250.98 -1.68657 -2.48948 0
M  V30 12875 C 1252.53 -1.70076 -2.62761 0
M  V30 12876 C 1253 -2.68513 -3.71032 0
M  V30 12877 N 1254.49 -2.67039 -3.78476 0
M  V30 12878 C 1255.23 -3.39874 -4.61815 0
M  V30 12879 N 1254.72 -4.22273 -5.49233 0
M  V30 12880 N 1256.52 -3.28633 -4.56023 0
M  V30 12881 H 1248.67 -1.90758 -0.934077 0
M  V30 12882 H 1250.93 -0.822058 -0.472149 0
M  V30 12883 H 1250.64 -2.7117 -2.23964 0
M  V30 12884 H 1250.51 -1.47045 -3.47358 0
M  V30 12885 H 1252.9 -0.682673 -2.87095 0
M  V30 12886 H 1252.98 -1.95754 -1.64663 0
M  V30 12887 H 1252.62 -3.70464 -3.47446 0
M  V30 12888 H 1252.55 -2.40109 -4.68674 0
M  V30 12889 H 1255.04 -2.07241 -3.16006 0
M  V30 12890 H 1255.36 -4.74702 -6.09818 0
M  V30 12891 H 1253.7 -4.26364 -5.48852 0
M  V30 12892 H 1256.89 -2.6371 -3.86749 0
M  V30 12893 H 1257.07 -3.85656 -5.20743 0
M  V30 12894 N 1250.47 1.3842 -0.753509 0
M  V30 12895 C 1251.75 1.94181 -0.235142 0
M  V30 12896 C 1252.13 1.68881 1.26659 0
M  V30 12897 O 1251.48 1.02731 2.04104 0
M  V30 12898 C 1251.69 3.43998 -0.588751 0
M  V30 12899 C 1253.04 4.21044 -0.548352 0
M  V30 12900 O 1254.06 3.52279 -0.52704 0
M  V30 12901 O 1252.92 5.43631 -0.559221 0
M  V30 12902 H 1250.01 0.825536 -0.0491834 0
M  V30 12903 H 1252.56 1.47813 -0.833626 0
M  V30 12904 H 1251.33 3.55921 -1.6259 0
M  V30 12905 H 1250.95 3.97582 0.0377429 0
M  V30 12906 N 1251.95 0.502579 1.49372 0
M  V30 12907 C 1253.2 -0.0334303 2.03373 0
M  V30 12908 C 1253.55 -1.34548 1.3753 0
M  V30 12909 O 1252.84 -1.84894 0.502484 0
M  V30 12910 C 1253.04 -0.240835 3.56588 0
M  V30 12911 C 1252.87 1.04956 4.37281 0
M  V30 12912 C 1251.64 1.6018 4.7924 0
M  V30 12913 C 1253.84 1.95323 4.75766 0
M  V30 12914 N 1251.82 2.83793 5.44366 0
M  V30 12915 C 1253.19 3.03516 5.40628 0
M  V30 12916 C 1255.24 1.95982 4.57707 0
M  V30 12917 C 1253.95 4.12396 5.89341 0
M  V30 12918 C 1255.97 3.03839 5.07382 0
M  V30 12919 C 1255.33 4.10749 5.72245 0
M  V30 12920 H 1251.43 0.0285863 0.781477 0
M  V30 12921 H 1254.02 0.677787 1.82522 0
M  V30 12922 H 1252.19 -0.921111 3.7732 0
M  V30 12923 H 1253.92 -0.773993 3.9723 0
M  V30 12924 H 1250.68 1.14674 4.59507 0
M  V30 12925 H 1251.1 3.46654 5.81515 0
M  V30 12926 H 1255.74 1.14632 4.06963 0
M  V30 12927 H 1253.46 4.94542 6.39104 0
M  V30 12928 H 1257.05 3.0537 4.95218 0
M  V30 12929 H 1255.93 4.92833 6.09988 0
M  V30 12930 N 1253.43 -1.55816 0.23648 0
M  V30 12931 C 1254.68 -1.97862 -0.391579 0
M  V30 12932 C 1254.99 -1.1276 -1.59827 0
M  V30 12933 O 1256.2 -1.44772 -2.29681 0
M  V30 12934 C 1254.65 -3.5204 -0.748065 0
M  V30 12935 C 1254.26 -4.45867 0.436643 0
M  V30 12936 C 1256 -4.02766 -1.3409 0
M  V30 12937 C 1253.91 -5.91373 0.0568909 0
M  V30 12938 H 1252.84 -0.738913 -0.150078 0
M  V30 12939 H 1255.49 -1.80415 0.335052 0
M  V30 12940 H 1253.87 -3.65143 -1.53254 0
M  V30 12941 H 1255.05 -4.44519 1.21408 0
M  V30 12942 H 1253.36 -4.05565 0.943702 0
M  V30 12943 H 1255.96 -5.08987 -1.63817 0
M  V30 12944 H 1256.3 -3.49496 -2.26182 0
M  V30 12945 H 1256.84 -3.92946 -0.619548 0
M  V30 12946 H 1253.58 -6.48657 0.944682 0
M  V30 12947 H 1253.1 -5.95881 -0.684557 0
M  V30 12948 H 1254.77 -6.45972 -0.364586 0
M  V30 12949 N 1254.91 0.036755 -1.57557 0
M  V30 12950 C 1255.85 1.03975 -2.06053 0
M  V30 12951 C 1256.82 1.36384 -0.948089 0
M  V30 12952 O 1258.01 1.46853 -1.21815 0
M  V30 12953 C 1255.15 2.33796 -2.53837 0
M  V30 12954 C 1254.26 2.07614 -3.78841 0
M  V30 12955 C 1253.4 3.3125 -4.15267 0
M  V30 12956 C 1252.44 3.00587 -5.33211 0
M  V30 12957 N 1251.57 4.16653 -5.65106 0
M  V30 12958 H 1256.41 0.61924 -2.91495 0
M  V30 12959 H 1253.95 0.294151 -1.44129 0
M  V30 12960 H 1255.91 3.09639 -2.79606 0
M  V30 12961 H 1254.54 2.73584 -1.71323 0
M  V30 12962 H 1253.59 1.22302 -3.60203 0
M  V30 12963 H 1254.9 1.80989 -4.64806 0
M  V30 12964 H 1254.06 4.15466 -4.42123 0
M  V30 12965 H 1252.79 3.60981 -3.27939 0
M  V30 12966 H 1251.8 2.14772 -5.06115 0
M  V30 12967 H 1253.02 2.72142 -6.22186 0
M  V30 12968 H 1250.97 4.4635 -4.80737 0
M  V30 12969 H 1250.89 3.93425 -6.45564 0
M  V30 12970 H 1252.16 5.01764 -5.96534 0
M  V30 12971 N 1256.39 1.54543 0.308881 0
M  V30 12972 C 1257.3 1.87994 1.4034 0
M  V30 12973 C 1258.31 0.773294 1.55872 0
M  V30 12974 O 1259.49 1.069 1.70688 0
M  V30 12975 C 1256.55 2.11341 2.74838 0
M  V30 12976 C 1255.61 3.35086 2.68358 0
M  V30 12977 C 1254.85 3.5731 3.96441 0
M  V30 12978 O 1255.07 2.82692 4.9542 0
M  V30 12979 O 1254 4.50814 3.98811 0
M  V30 12980 H 1257.83 2.81094 1.14976 0
M  V30 12981 H 1255.41 1.40634 0.504236 0
M  V30 12982 H 1257.3 2.27943 3.54429 0
M  V30 12983 H 1255.97 1.21427 3.00062 0
M  V30 12984 H 1254.88 3.23855 1.87267 0
M  V30 12985 H 1256.21 4.25104 2.48087 0
M  V30 12986 N 1257.86 -0.571685 1.46866 0
M  V30 12987 C 1258.81 -1.70098 1.58649 0
M  V30 12988 C 1259.81 -1.63191 0.45443 0
M  V30 12989 O 1261.01 -1.68551 0.63171 0
M  V30 12990 H 1257.39 -0.56258 0.499007 0
M  V30 12991 H 1259.36 -1.57293 2.53577 0
M  V30 12992 C 1258.11 -3.08475 1.60433 0
M  V30 12993 H 1257.43 -3.14465 2.46884 0
M  V30 12994 H 1258.87 -3.87221 1.7273 0
M  V30 12995 C 1257.33 -3.35231 0.334948 0
M  V30 12996 O 1257.86 -3.97633 -0.570149 0
M  V30 12997 N 1256.06 -2.8977 0.219441 0
M  V30 12998 H 1255.61 -2.39168 0.956891 0
M  V30 12999 H 1255.57 -3.08044 -0.628975 0
M  V30 13000 N 1259.34 -1.34755 -0.817236 0
M  V30 13001 C 1260.57 -1.30522 -1.60536 0
M  V30 13002 C 1260.98 0.119541 -1.88421 0
M  V30 13003 O 1260.34 1.06833 -1.47962 0
M  V30 13004 C 1260.39 -2.09939 -2.94292 0
M  V30 13005 O 1260.11 -3.46858 -2.67621 0
M  V30 13006 C 1261.61 -2.13168 -3.88683 0
M  V30 13007 H 1258.83 -0.448789 -0.498828 0
M  V30 13008 H 1261.38 -1.77453 -1.01639 0
M  V30 13009 H 1259.53 -1.66634 -3.49731 0
M  V30 13010 H 1259.95 -3.87979 -3.52949 0
M  V30 13011 H 1261.42 -2.73147 -4.79682 0
M  V30 13012 H 1261.9 -1.12758 -4.24479 0
M  V30 13013 H 1262.5 -2.56587 -3.39181 0
M  V30 13014 N 1260.82 1.03812 -1.18578 0
M  V30 13015 C 1262.07 1.76706 -0.980776 0
M  V30 13016 C 1262.39 1.88729 0.490562 0
M  V30 13017 O 1261.66 1.41413 1.35569 0
M  V30 13018 H 1260.24 0.654586 -0.359898 0
M  V30 13019 H 1262.9 1.25274 -1.49306 0
M  V30 13020 H 1262 2.77876 -1.42096 0
M  V30 13021 N 1262.3 0.988223 1.22768 0
M  V30 13022 C 1263.54 0.662441 1.91676 0
M  V30 13023 C 1263.88 -0.802931 1.76824 0
M  V30 13024 O 1263.15 -1.58011 1.13415 0
M  V30 13025 C 1263.43 1.06332 3.44043 0
M  V30 13026 C 1263.29 2.5869 3.67967 0
M  V30 13027 C 1264.61 0.613058 4.35809 0
M  V30 13028 H 1261.73 0.242132 0.69609 0
M  V30 13029 H 1264.37 1.23091 1.44736 0
M  V30 13030 H 1262.52 0.579623 3.84152 0
M  V30 13031 H 1264.19 3.14694 3.37291 0
M  V30 13032 H 1262.43 3.00971 3.12408 0
M  V30 13033 H 1263.1 2.8179 4.74656 0
M  V30 13034 H 1265.58 1.02846 4.0319 0
M  V30 13035 H 1264.46 0.921901 5.41103 0
M  V30 13036 H 1264.72 -0.48641 4.39416 0
M  V30 13037 O 1263.81 -1.34237 0.89792 0
M  V30 13038 H 1264.51 -1.8691 0.508347 0
M  V30 END ATOM
M  V30 BEGIN BOND
M  V30 END BOND
M  V30 END CTAB
M  END
$$$$
