drugbank_target|Q8XJ01 Penicillin-binding protein 1A (DB00229; DB00267; DB00301; DB00417; DB00447; DB00456; DB00713; DB00833; DB00948; DB01061; DB01066; DB01112; DB01139; DB01147; DB01604; DB01605; DB04133)
 OpenBabel12092119343D

  0  0  0     0  0            999 V3000
M  V30 BEGIN CTAB
M  V30 COUNTS 10590 10688 0 0 0
M  V30 BEGIN ATOM
M  V30 1 H -0.908 1.98254 -0.117106 0
M  V30 2 N 0 1.576 0 0
M  V30 3 C 0.933 2.03868 1.02534 0
M  V30 4 C 1.911 0.928543 1.3348 0
M  V30 5 O 3.095 1.19667 1.45644 0
M  V30 6 C 0.222 2.43627 2.35294 0
M  V30 7 C -0.732 3.65373 2.2001 0
M  V30 8 S 0.101 5.13292 1.52614 0
M  V30 9 C 1.257 5.56322 2.86805 0
M  V30 10 H 1.49 2.90518 0.631377 0
M  V30 11 H -0.977 1.52953 0.210867 0
M  V30 12 H 0.981 2.67203 3.11629 0
M  V30 13 H -0.358 1.57376 2.7183 0
M  V30 14 H -1.165 3.90944 3.18086 0
M  V30 15 H -1.563 3.418 1.51819 0
M  V30 16 H 0.729 5.58782 3.83104 0
M  V30 17 H 1.672 6.56266 2.65933 0
M  V30 18 H 2.08 4.83886 2.90714 0
M  V30 19 N 1.4781 -0.272755 1.55222 0
M  V30 20 C 2.7061 -1.02255 1.79865 0
M  V30 21 C 3.1211 -1.79924 0.572088 0
M  V30 22 O 2.4781 -1.76638 -0.458842 0
M  V30 23 C 2.5291 -1.98094 3.02392 0
M  V30 24 O 2.2501 -1.23572 4.20311 0
M  V30 25 C 3.7511 -2.84884 3.39641 0
M  V30 26 H 0.9711 -0.302057 0.599168 0
M  V30 27 H 3.5151 -0.303465 2.02236 0
M  V30 28 H 1.6701 -2.65465 2.82147 0
M  V30 29 H 2.0841 -1.88172 4.89583 0
M  V30 30 H 3.5581 -3.47927 4.28545 0
M  V30 31 H 4.0351 -3.54665 2.59055 0
M  V30 32 H 4.6411 -2.23003 3.62146 0
M  V30 33 N 2.9562 -1.48159 -0.537278 0
M  V30 34 C 3.8662 -1.64807 -1.6696 0
M  V30 35 C 4.8822 -0.530651 -1.65711 0
M  V30 36 O 6.0582 -0.800784 -1.84796 0
M  V30 37 C 3.1232 -1.67708 -3.03438 0
M  V30 38 C 2.1842 -2.91025 -3.156 0
M  V30 39 C 1.4172 -2.93778 -4.45567 0
M  V30 40 O 1.6402 -2.05153 -5.3223 0
M  V30 41 O 0.5742 -3.85868 -4.61941 0
M  V30 42 H 4.4002 -2.6066 -1.55853 0
M  V30 43 H 1.9852 -1.31475 -0.709549 0
M  V30 44 H 3.8672 -1.7218 -3.84619 0
M  V30 45 H 2.5422 -0.750278 -3.14885 0
M  V30 46 H 1.4492 -2.92089 -2.33741 0
M  V30 47 H 2.7822 -3.83065 -3.09066 0
M  V30 48 N 4.4343 0.785586 -1.36625 0
M  V30 49 C 5.8503 1.08419 -1.17122 0
M  V30 50 C 6.0503 2.015 0.00208491 0
M  V30 51 O 5.1063 2.43551 0.666278 0
M  V30 52 C 6.4193 1.69498 -2.48377 0
M  V30 53 C 7.9673 1.81821 -2.54775 0
M  V30 54 C 8.4423 2.46315 -3.86126 0
M  V30 55 N 9.9333 2.53779 -3.87492 0
M  V30 56 C 10.6683 3.045 -4.85868 0
M  V30 57 N 10.1643 3.55499 -5.94637 0
M  V30 58 N 11.9573 3.03247 -4.73284 0
M  V30 59 H 4.1083 0.167264 -2.1174 0
M  V30 60 H 6.3713 0.13682 -0.938075 0
M  V30 61 H 6.0773 1.08571 -3.34522 0
M  V30 62 H 5.9513 2.6896 -2.64462 0
M  V30 63 H 8.3383 2.41884 -1.69045 0
M  V30 64 H 8.4193 0.811532 -2.42586 0
M  V30 65 H 8.0633 1.86895 -4.72263 0
M  V30 66 H 7.9933 3.47561 -3.95612 0
M  V30 67 H 10.4843 2.17672 -3.08913 0
M  V30 68 H 10.7973 3.92562 -6.65669 0
M  V30 69 H 9.1423 3.5364 -5.98301 0
M  V30 70 H 12.3333 2.62696 -3.87438 0
M  V30 71 H 12.5063 3.42467 -5.50109 0
M  V30 72 N 5.9124 1.20967 1.01018 0
M  V30 73 C 6.8594 0.964281 2.09691 0
M  V30 74 C 7.8294 -0.107853 1.65749 0
M  V30 75 O 9.0144 0.0381987 1.90762 0
M  V30 76 C 6.1544 0.52943 3.41015 0
M  V30 77 C 5.2674 1.67043 3.98398 0
M  V30 78 C 4.4024 1.18525 5.17808 0
M  V30 79 C 3.4414 2.29892 5.67288 0
M  V30 80 N 2.5784 1.82546 6.77954 0
M  V30 81 H 7.4184 1.89463 2.30017 0
M  V30 82 H 4.9554 0.944289 1.1279 0
M  V30 83 H 6.9134 0.258588 4.16398 0
M  V30 84 H 5.5434 -0.363919 3.20742 0
M  V30 85 H 4.5954 2.05603 3.20049 0
M  V30 86 H 5.9074 2.50877 4.31117 0
M  V30 87 H 5.0614 0.870762 6.00419 0
M  V30 88 H 3.8004 0.316887 4.86669 0
M  V30 89 H 2.8054 2.6215 4.83278 0
M  V30 90 H 4.0304 3.17216 6.00459 0
M  V30 91 H 1.9764 0.980454 6.48632 0
M  V30 92 H 1.8934 2.59956 7.09901 0
M  V30 93 H 3.1614 1.54115 7.64113 0
M  V30 94 N 7.3905 -1.2043 1.01659 0
M  V30 95 C 8.8065 -1.41852 0.731442 0
M  V30 96 C 9.0065 -1.89358 -0.688898 0
M  V30 97 O 8.0625 -2.06247 -1.45666 0
M  V30 98 C 9.3755 -2.44019 1.75714 0
M  V30 99 C 10.9235 -2.57785 1.77527 0
M  V30 100 C 11.3985 -3.63194 2.79023 0
M  V30 101 N 12.8895 -3.70678 2.77763 0
M  V30 102 C 13.6245 -4.51897 3.52954 0
M  V30 103 N 13.1205 -5.36921 4.37821 0
M  V30 104 N 14.9135 -4.4643 3.41551 0
M  V30 105 H 7.0645 -0.879093 1.93354 0
M  V30 106 H 9.3275 -0.448425 0.835236 0
M  V30 107 H 9.0335 -2.1611 2.77469 0
M  V30 108 H 8.9075 -3.43007 1.56927 0
M  V30 109 H 11.2945 -2.85023 0.764569 0
M  V30 110 H 11.3755 -1.58992 2.00387 0
M  V30 111 H 11.0195 -3.36699 3.80258 0
M  V30 112 H 10.9495 -4.61609 2.53425 0
M  V30 113 H 13.4405 -3.09944 2.16201 0
M  V30 114 H 13.7535 -5.95981 4.91962 0
M  V30 115 H 12.0985 -5.36424 4.41899 0
M  V30 116 H 15.2895 -3.79042 2.74672 0
M  V30 117 H 15.4625 -5.09491 4.00404 0
M  V30 118 N 8.8686 -0.792821 -1.36206 0
M  V30 119 C 9.7786 -0.194808 -2.3379 0
M  V30 120 C 10.7946 0.654869 -1.61206 0
M  V30 121 O 11.9706 0.569856 -1.9317 0
M  V30 122 C 9.0356 0.657721 -3.40404 0
M  V30 123 C 8.0966 -0.210849 -4.28782 0
M  V30 124 C 7.3296 0.601086 -5.30304 0
M  V30 125 O 7.5526 1.83682 -5.40016 0
M  V30 126 O 6.4866 -0.000808277 -6.019 0
M  V30 127 H 10.3126 -1.00172 -2.86704 0
M  V30 128 H 7.8976 -0.554341 -1.38735 0
M  V30 129 H 9.7796 1.14375 -4.05581 0
M  V30 130 H 8.4546 1.44247 -2.89784 0
M  V30 131 H 7.3616 -0.743714 -3.66633 0
M  V30 132 H 8.6946 -0.959195 -4.82763 0
M  V30 133 N 10.3467 1.47872 -0.545128 0
M  V30 134 C 11.2967 2.26842 0.229456 0
M  V30 135 C 12.2807 1.33626 0.896267 0
M  V30 136 O 13.4727 1.58063 0.79657 0
M  V30 137 C 10.6017 3.19089 1.26638 0
M  V30 138 C 9.6877 4.19783 0.603598 0
M  V30 139 N 10.0787 5.0479 -0.319405 0
M  V30 140 C 8.3767 4.3765 0.858989 0
M  V30 141 C 9.0777 5.77433 -0.703241 0
M  V30 142 N 8.0537 5.43566 -0.0608309 0
M  V30 143 H 11.8557 2.89947 -0.480391 0
M  V30 144 H 9.3697 1.58263 -0.364209 0
M  V30 145 H 11.3667 3.74337 1.83515 0
M  V30 146 H 10.0267 2.5754 1.97745 0
M  V30 147 H 11.0377 5.13244 -0.692889 0
M  V30 148 H 7.7147 3.87281 1.55948 0
M  V30 149 H 9.1047 6.55824 -1.46098 0
M  V30 150 N 11.8248 0.280983 1.55075 0
M  V30 151 C 12.7718 -0.603937 2.22758 0
M  V30 152 C 13.7418 -1.1452 1.20309 0
M  V30 153 O 14.9268 -1.19343 1.48869 0
M  V30 154 C 12.0668 -1.77947 2.95684 0
M  V30 155 C 11.1798 -1.2715 4.12864 0
M  V30 156 C 10.3148 -2.4093 4.7342 0
M  V30 157 C 9.3538 -1.87165 5.82783 0
M  V30 158 N 8.4908 -2.94441 6.37377 0
M  V30 159 H 13.3308 -0.020124 2.97993 0
M  V30 160 H 10.8678 0.00183425 1.471 0
M  V30 161 H 12.8258 -2.47055 3.36184 0
M  V30 162 H 11.4558 -2.33522 2.22861 0
M  V30 163 H 10.5078 -0.473331 3.77444 0
M  V30 164 H 11.8198 -0.837751 4.91715 0
M  V30 165 H 10.9738 -3.18021 5.1667 0
M  V30 166 H 9.7128 -2.87623 3.93859 0
M  V30 167 H 8.7178 -1.08556 5.38976 0
M  V30 168 H 9.9428 -1.41401 6.64216 0
M  V30 169 H 7.8888 -3.40505 5.60707 0
M  V30 170 H 7.8058 -2.55501 7.11516 0
M  V30 171 H 9.0738 -3.71489 6.85285 0
M  V30 172 N 13.3029 -1.57598 0.00835791 0
M  V30 173 C 14.5799 -1.82172 -0.712235 0
M  V30 174 C 14.9599 -0.887873 -1.9152 0
M  V30 175 O 14.3079 0.06146 -2.28417 0
M  V30 176 C 14.5179 -3.30875 -1.11008 0
M  V30 177 C 15.8659 -3.96826 -1.51044 0
M  V30 178 O 16.8899 -3.35248 -1.20364 0
M  V30 179 O 15.7489 -5.05318 -2.08125 0
M  V30 180 H 12.8429 -0.750435 -0.347529 0
M  V30 181 H 15.3889 -1.69665 0.0344523 0
M  V30 182 H 14.1609 -3.90481 -0.252982 0
M  V30 183 H 13.7839 -3.48412 -1.9156 0
M  V30 184 N 14.781 0.264519 -1.55364 0
M  V30 185 C 16.197 0.61215 -1.47394 0
M  V30 186 C 16.397 1.89134 -0.695018 0
M  V30 187 O 15.453 2.51563 -0.217275 0
M  V30 188 C 16.766 0.731235 -2.91674 0
M  V30 189 C 18.314 0.82473 -3.01939 0
M  V30 190 C 18.789 0.975522 -4.4749 0
M  V30 191 N 20.28 1.04083 -4.51354 0
M  V30 192 C 21.015 1.17646 -5.61201 0
M  V30 193 N 20.511 1.27874 -6.80896 0
M  V30 194 N 22.304 1.20823 -5.48961 0
M  V30 195 H 14.455 -0.575456 -2.04456 0
M  V30 196 H 16.718 -0.196099 -0.927496 0
M  V30 197 H 16.424 -0.138392 -3.51428 0
M  V30 198 H 16.298 1.60883 -3.41169 0
M  V30 199 H 18.685 1.68482 -2.42276 0
M  V30 200 H 18.766 -0.0776479 -2.55682 0
M  V30 201 H 18.41 0.120058 -5.07758 0
M  V30 202 H 18.34 1.89268 -4.91412 0
M  V30 203 H 20.831 0.973846 -3.65136 0
M  V30 204 H 21.144 1.38081 -7.60364 0
M  V30 205 H 19.489 1.24863 -6.83692 0
M  V30 206 H 22.68 1.12469 -4.54388 0
M  V30 207 H 22.853 1.31049 -6.3461 0
M  V30 208 N 16.2591 1.48442 0.529413 0
M  V30 209 C 17.2061 1.63007 1.63394 0
M  V30 210 C 18.1761 0.47212 1.59249 0
M  V30 211 O 19.3611 0.695673 1.77666 0
M  V30 212 C 16.5011 1.6763 3.01653 0
M  V30 213 C 15.6141 2.94535 3.16027 0
M  V30 214 C 14.7491 2.90316 4.44849 0
M  V30 215 C 13.7881 4.11923 4.52754 0
M  V30 216 N 12.9251 4.05777 5.72965 0
M  V30 217 H 17.7651 2.5733 1.50285 0
M  V30 218 H 15.3021 1.27613 0.731656 0
M  V30 219 H 17.2601 1.68292 3.81751 0
M  V30 220 H 15.8901 0.76797 3.13532 0
M  V30 221 H 14.9421 3.03615 2.29177 0
M  V30 222 H 16.2541 3.84512 3.17729 0
M  V30 223 H 15.4081 2.89382 5.33238 0
M  V30 224 H 14.1471 1.98068 4.45668 0
M  V30 225 H 13.1521 4.13131 3.62771 0
M  V30 226 H 14.3771 5.0533 4.53672 0
M  V30 227 H 12.3231 3.16351 5.74681 0
M  V30 228 H 12.2401 4.8946 5.76164 0
M  V30 229 H 13.5081 4.08904 6.6364 0
M  V30 230 N 17.7372 -0.778329 1.37039 0
M  V30 231 C 18.6692 -1.90034 1.2814 0
M  V30 232 C 19.6822 -1.61585 0.198558 0
M  V30 233 O 20.8712 -1.72625 0.454175 0
M  V30 234 C 17.9712 -3.25108 0.956968 0
M  V30 235 C 17.1442 -3.81253 2.14394 0
M  V30 236 C 16.2032 -4.94789 1.79082 0
M  V30 237 O 15.2292 -5.10721 2.51301 0
M  V30 238 N 16.4312 -5.75878 0.731043 0
M  V30 239 H 19.1962 -1.98186 2.24816 0
M  V30 240 H 16.7572 -0.957129 1.30578 0
M  V30 241 H 18.7492 -3.9857 0.701701 0
M  V30 242 H 17.3192 -3.125 0.0789812 0
M  V30 243 H 16.5392 -2.99647 2.56135 0
M  V30 244 H 17.8272 -4.15495 2.93668 0
M  V30 245 H 17.2252 -5.65547 0.131618 0
M  V30 246 H 15.7822 -6.49596 0.535622 0
M  V30 247 N 19.2153 -1.21501 -1.00376 0
M  V30 248 C 20.1633 -0.972442 -2.11297 0
M  V30 249 C 21.1573 0.080731 -1.69208 0
M  V30 250 O 22.3633 -0.0707666 -1.79861 0
M  V30 251 H 18.7383 -0.297218 -0.690772 0
M  V30 252 H 20.7093 -1.91394 -2.28934 0
M  V30 253 C 19.4583 -0.555065 -3.43241 0
M  V30 254 H 18.7813 -1.35709 -3.76062 0
M  V30 255 H 20.2213 -0.424664 -4.21868 0
M  V30 256 C 18.6803 0.734147 -3.28804 0
M  V30 257 O 19.2103 1.78937 -3.59645 0
M  V30 258 N 17.4163 0.701133 -2.82015 0
M  V30 259 H 16.9633 -0.157874 -2.57116 0
M  V30 260 H 16.9213 1.56403 -2.72737 0
M  V30 261 N 20.6934 1.19889 -1.02296 0
M  V30 262 C 21.6404 2.22901 -0.598651 0
M  V30 263 C 22.6104 1.61588 0.384521 0
M  V30 264 O 23.7954 1.88697 0.282522 0
M  V30 265 C 20.9354 3.45063 0.0504476 0
M  V30 266 C 20.0484 4.20783 -0.978053 0
M  V30 267 C 19.1834 5.30356 -0.299338 0
M  V30 268 C 18.2224 5.97826 -1.31416 0
M  V30 269 N 17.3594 6.98975 -0.661667 0
M  V30 270 H 22.1994 2.58554 -1.48169 0
M  V30 271 H 19.7364 1.27039 -0.741584 0
M  V30 272 H 21.6944 4.14831 0.443971 0
M  V30 273 H 20.3244 3.10084 0.897097 0
M  V30 274 H 19.3764 3.50018 -1.48969 0
M  V30 275 H 20.6884 4.67109 -1.74958 0
M  V30 276 H 19.8424 6.06516 0.149347 0
M  V30 277 H 18.5814 4.85084 0.504445 0
M  V30 278 H 17.5864 5.20422 -1.77317 0
M  V30 279 H 18.8114 6.45183 -2.11933 0
M  V30 280 H 16.7574 6.55886 0.122132 0
M  V30 281 H 16.6744 7.43461 -1.37117 0
M  V30 282 H 17.9424 7.7914 -0.236785 0
M  V30 283 N 22.1715 0.800033 1.35784 0
M  V30 284 C 23.1195 0.193851 2.31791 0
M  V30 285 C 24.1135 -0.652744 1.56319 0
M  V30 286 O 25.3195 -0.546641 1.71499 0
M  V30 287 H 21.6945 0.04392 0.750716 0
M  V30 288 H 23.6655 1.01883 2.80468 0
M  V30 289 C 22.4145 -0.648338 3.41602 0
M  V30 290 H 21.7375 -0.00624665 3.998 0
M  V30 291 H 23.1775 -1.03898 4.11073 0
M  V30 292 C 21.6365 -1.8111 2.84079 0
M  V30 293 O 22.1665 -2.90825 2.77099 0
M  V30 294 N 20.3725 -1.62056 2.41218 0
M  V30 295 H 19.9195 -0.728123 2.47095 0
M  V30 296 H 19.8775 -2.40013 2.03079 0
M  V30 297 N 23.6496 -1.47581 0.552962 0
M  V30 298 C 24.8746 -2.07378 0.0300593 0
M  V30 299 C 25.2996 -1.40355 -1.25229 0
M  V30 300 O 24.6576 -0.477099 -1.7491 0
M  V30 301 C 24.7056 -3.60274 -0.153231 0
M  V30 302 O 23.8096 -3.94041 -1.21678 0
M  V30 303 H 23.1506 -0.662158 0.0494182 0
M  V30 304 H 25.6806 -1.89662 0.767434 0
M  V30 305 H 25.6906 -4.0633 -0.368761 0
M  V30 306 H 24.3656 -4.08455 0.783397 0
M  V30 307 H 22.9426 -3.59735 -0.982079 0
M  V30 308 N 25.1277 -0.289203 -1.54924 0
M  V30 309 C 26.5387 0.205791 -1.85562 0
M  V30 310 C 26.8897 1.54351 -1.2112 0
M  V30 311 O 26.0147 2.10435 -0.504601 0
M  V30 312 C 26.6097 0.380177 -3.3666 0
M  V30 313 C 25.1687 0.819395 -3.67373 0
M  V30 314 C 24.3157 -0.079159 -2.77187 0
M  V30 315 H 27.2667 -0.510577 -1.50262 0
M  V30 316 H 27.2877 1.21659 -3.60526 0
M  V30 317 H 26.7997 -0.593589 -3.83534 0
M  V30 318 H 24.9007 1.80413 -3.26009 0
M  V30 319 H 25.0137 0.646957 -4.74712 0
M  V30 320 H 23.3777 0.439565 -2.50878 0
M  V30 321 H 24.1607 -1.04906 -3.26878 0
M  V30 322 N 26.6058 1.57591 -0.0167156 0
M  V30 323 C 27.5528 2.09462 0.969251 0
M  V30 324 C 28.5228 0.99381 1.33089 0
M  V30 325 O 29.7078 1.26726 1.42636 0
M  V30 326 C 26.8478 2.61622 2.25051 0
M  V30 327 C 25.9608 3.85666 1.94642 0
M  V30 328 C 25.0958 4.26266 3.16972 0
M  V30 329 C 24.1348 5.43101 2.82326 0
M  V30 330 N 23.2718 5.78915 3.97243 0
M  V30 331 H 28.1118 2.93428 0.519997 0
M  V30 332 H 25.6488 1.45044 0.245087 0
M  V30 333 H 27.6068 2.89949 2.99976 0
M  V30 334 H 26.2368 1.80505 2.67615 0
M  V30 335 H 25.2888 3.64145 1.10013 0
M  V30 336 H 26.6008 4.70678 1.65117 0
M  V30 337 H 25.7548 4.55963 4.00228 0
M  V30 338 H 24.4938 3.39996 3.49648 0
M  V30 339 H 23.4988 5.1311 1.97479 0
M  V30 340 H 24.7238 6.3106 2.50879 0
M  V30 341 H 22.6698 4.95602 4.29785 0
M  V30 342 H 22.5868 6.58539 3.71299 0
M  V30 343 H 23.8548 6.13212 4.81239 0
M  V30 344 N 28.0839 -0.256276 1.55502 0
M  V30 345 C 29.0319 -1.33694 1.90338 0
M  V30 346 C 30.0259 -1.50299 0.781441 0
M  V30 347 O 31.2319 -1.51885 0.965966 0
M  V30 348 H 27.6069 -0.447483 0.60437 0
M  V30 349 H 29.5779 -1.01574 2.8058 0
M  V30 350 C 28.3269 -2.68724 2.20642 0
M  V30 351 H 27.6499 -2.56743 3.06469 0
M  V30 352 H 29.0899 -3.43237 2.48926 0
M  V30 353 C 27.5489 -3.21101 1.01959 0
M  V30 354 O 28.0789 -4.0084 0.262762 0
M  V30 355 N 26.2849 -2.79003 0.812746 0
M  V30 356 H 25.8319 -2.14271 1.42989 0
M  V30 357 H 25.7899 -3.14393 0.0203076 0
M  V30 358 N 29.562 -1.4872 -0.521534 0
M  V30 359 C 30.494 -1.59968 -1.64143 0
M  V30 360 C 31.507 -0.483463 -1.55456 0
M  V30 361 O 32.696 -0.75467 -1.61762 0
M  V30 362 C 29.796 -1.52127 -3.02838 0
M  V30 363 C 28.969 -2.78932 -3.36921 0
M  V30 364 C 28.028 -2.64428 -4.54933 0
M  V30 365 O 27.054 -3.38331 -4.57735 0
M  V30 366 N 28.256 -1.74606 -5.53618 0
M  V30 367 H 31.021 -2.56548 -1.54929 0
M  V30 368 H 28.582 -1.45551 -0.708988 0
M  V30 369 H 30.574 -1.40106 -3.79674 0
M  V30 370 H 29.144 -0.634868 -3.06085 0
M  V30 371 H 28.364 -3.05455 -2.4918 0
M  V30 372 H 29.652 -3.63041 -3.56481 0
M  V30 373 H 29.05 -1.13782 -5.54139 0
M  V30 374 H 27.607 -1.6852 -6.29638 0
M  V30 375 N 31.0401 0.771051 -1.3745 0
M  V30 376 C 32.2651 1.56529 -1.36065 0
M  V30 377 C 32.6901 1.88029 0.0515859 0
M  V30 378 O 32.0481 1.49282 1.02882 0
M  V30 379 C 32.0961 2.85187 -2.20683 0
M  V30 380 O 31.2001 3.79593 -1.61193 0
M  V30 381 H 30.5411 0.47411 -0.464883 0
M  V30 382 H 33.0711 0.954269 -1.80983 0
M  V30 383 H 33.0811 3.34283 -2.33921 0
M  V30 384 H 31.7561 2.61588 -3.23334 0
M  V30 385 H 30.3331 3.38239 -1.56999 0
M  V30 386 N 32.5182 1.22032 0.997298 0
M  V30 387 C 33.4652 0.986467 2.08656 0
M  V30 388 C 34.4352 -0.0902671 1.65855 0
M  V30 389 O 35.6202 0.0584294 1.90711 0
M  V30 390 C 32.7602 0.565569 3.40434 0
M  V30 391 C 31.8732 1.71259 3.96604 0
M  V30 392 C 31.0082 1.24011 5.16522 0
M  V30 393 C 30.0472 2.35896 5.64818 0
M  V30 394 N 29.1842 1.89726 6.7598 0
M  V30 395 H 34.0242 1.91892 2.27994 0
M  V30 396 H 31.5612 0.956199 1.11782 0
M  V30 397 H 33.5192 0.302738 4.161 0
M  V30 398 H 32.1492 -0.329879 3.2111 0
M  V30 399 H 31.2012 2.08986 3.17851 0
M  V30 400 H 32.5132 2.55436 4.28432 0
M  V30 401 H 31.6672 0.934395 5.99461 0
M  V30 402 H 30.4062 0.368487 4.86306 0
M  V30 403 H 29.4112 2.67261 4.8047 0
M  V30 404 H 30.6362 3.23567 5.97061 0
M  V30 405 H 28.5822 1.0492 6.47555 0
M  V30 406 H 28.4992 2.67471 7.07103 0
M  V30 407 H 29.7672 1.62211 7.62435 0
M  V30 408 N 33.9963 -1.19345 1.0293 0
M  V30 409 C 35.2423 -1.89318 0.727083 0
M  V30 410 C 35.5753 -1.79446 -0.742483 0
M  V30 411 O 34.8503 -1.1871 -1.54072 0
M  V30 412 C 35.1333 -3.40238 1.17942 0
M  V30 413 C 34.9863 -3.58979 2.71024 0
M  V30 414 C 36.3053 -4.33479 0.760548 0
M  V30 415 H 33.4243 -0.687475 0.265606 0
M  V30 416 H 36.0663 -1.40477 1.2793 0
M  V30 417 H 34.2163 -3.81964 0.709608 0
M  V30 418 H 35.8883 -3.26421 3.25955 0
M  V30 419 H 34.1313 -3.02018 3.11396 0
M  V30 420 H 34.8023 -4.64823 2.9773 0
M  V30 421 H 37.2783 -3.99469 1.16464 0
M  V30 422 H 36.1543 -5.37664 1.10493 0
M  V30 423 H 36.4153 -4.40813 -0.337063 0
M  V30 424 N 35.4744 -0.807222 -1.35358 0
M  V30 425 C 36.7024 -0.400377 -2.02989 0
M  V30 426 C 37.1174 0.988859 -1.60832 0
M  V30 427 O 36.4744 1.63729 -0.806175 0
M  V30 428 C 36.5254 -0.474867 -3.58368 0
M  V30 429 O 36.2464 -1.80933 -3.98992 0
M  V30 430 C 37.7474 -0.0609112 -4.43258 0
M  V30 431 H 34.9674 -0.162587 -0.651004 0
M  V30 432 H 37.5114 -1.09102 -1.72965 0
M  V30 433 H 35.6664 0.167534 -3.87038 0
M  V30 434 H 36.0804 -1.77256 -4.9364 0
M  V30 435 H 37.5544 -0.164145 -5.51756 0
M  V30 436 H 38.0314 0.993831 -4.27808 0
M  V30 437 H 38.6374 -0.676492 -4.19885 0
M  V30 438 N 36.9525 1.47285 -0.560781 0
M  V30 439 C 37.8995 2.30058 0.18491 0
M  V30 440 C 38.8695 1.39281 0.904986 0
M  V30 441 O 40.0545 1.68241 0.899979 0
M  V30 442 C 37.1945 3.23317 1.20666 0
M  V30 443 C 36.3075 4.29186 0.492285 0
M  V30 444 C 35.4425 5.09592 1.49964 0
M  V30 445 C 34.4815 6.07232 0.770439 0
M  V30 446 N 33.6185 6.80584 1.72479 0
M  V30 447 H 38.4585 2.93302 -0.527048 0
M  V30 448 H 35.9955 1.44568 -0.271738 0
M  V30 449 H 37.9535 3.75811 1.81168 0
M  V30 450 H 36.5835 2.61929 1.88661 0
M  V30 451 H 35.6355 3.7972 -0.227333 0
M  V30 452 H 36.9475 4.98738 -0.0787929 0
M  V30 453 H 36.1015 5.66254 2.17809 0
M  V30 454 H 34.8405 4.3995 2.10464 0
M  V30 455 H 33.8455 5.49745 0.0780846 0
M  V30 456 H 35.0705 6.78884 0.171134 0
M  V30 457 H 33.0165 6.1367 2.3183 0
M  V30 458 H 32.9335 7.46319 1.20596 0
M  V30 459 H 34.2015 7.41818 2.39428 0
M  V30 460 N 38.4306 0.297415 1.54768 0
M  V30 461 C 39.6776 -0.312913 2.00068 0
M  V30 462 C 40.0056 -1.54171 1.18582 0
M  V30 463 O 39.2606 -1.94108 0.249133 0
M  V30 464 C 39.5596 -0.717561 3.50123 0
M  V30 465 C 39.2256 0.409095 4.4904 0
M  V30 466 C 37.8876 0.718399 4.75807 0
M  V30 467 C 40.2396 1.16717 5.07963 0
M  V30 468 C 37.5676 1.78896 5.5876 0
M  V30 469 C 39.9196 2.22762 5.92081 0
M  V30 470 C 38.5836 2.54303 6.1716 0
M  V30 471 H 37.8536 -0.114503 0.7321 0
M  V30 472 H 40.5006 0.415767 1.86932 0
M  V30 473 H 38.8056 -1.52627 3.60849 0
M  V30 474 H 40.5026 -1.20091 3.82595 0
M  V30 475 H 37.0926 0.157918 4.28309 0
M  V30 476 H 41.2766 0.941466 4.87289 0
M  V30 477 H 36.5326 2.0381 5.7643 0
M  V30 478 H 40.7066 2.81962 6.36765 0
M  V30 479 H 38.3336 3.3739 6.81229 0
M  V30 480 N 39.9087 -1.5758 0.0250728 0
M  V30 481 C 40.8387 -2.13007 -0.956575 0
M  V30 482 C 41.8197 -1.0452 -1.342 0
M  V30 483 O 43.0047 -1.32332 -1.42133 0
M  V30 484 C 40.1347 -2.65386 -2.24026 0
M  V30 485 C 39.0887 -3.78623 -1.99571 0
M  V30 486 C 38.4147 -4.17414 -3.3417 0
M  V30 487 C 39.7147 -5.04867 -1.33814 0
M  V30 488 H 41.4087 -2.9528 -0.494991 0
M  V30 489 H 38.9547 -1.42042 -0.236651 0
M  V30 490 H 40.9077 -3.02794 -2.93076 0
M  V30 491 H 39.6317 -1.80268 -2.72343 0
M  V30 492 H 38.2907 -3.41646 -1.32941 0
M  V30 493 H 37.9387 -3.29284 -3.80238 0
M  V30 494 H 37.6387 -4.93719 -3.18615 0
M  V30 495 H 39.1627 -4.57402 -4.04495 0
M  V30 496 H 40.5767 -5.39888 -1.92857 0
M  V30 497 H 38.9737 -5.86144 -1.28669 0
M  V30 498 H 40.0437 -4.83904 -0.310561 0
M  V30 499 N 41.3868 0.248026 -1.55636 0
M  V30 500 C 42.3338 1.30707 -1.90222 0
M  V30 501 C 43.3038 1.47881 -0.756332 0
M  V30 502 O 44.4888 1.61883 -1.00988 0
M  V30 503 C 41.6288 2.65769 -2.20138 0
M  V30 504 C 40.7418 2.56612 -3.47526 0
M  V30 505 C 39.8768 3.8402 -3.67017 0
M  V30 506 C 38.9158 3.69476 -4.8801 0
M  V30 507 N 38.0528 4.88774 -5.04029 0
M  V30 508 H 42.8928 1.00512 -2.80538 0
M  V30 509 H 40.4298 0.485055 -1.38873 0
M  V30 510 H 42.3878 3.44386 -2.35487 0
M  V30 511 H 41.0178 2.94115 -1.33027 0
M  V30 512 H 40.0698 1.69571 -3.40514 0
M  V30 513 H 41.3818 2.41774 -4.36287 0
M  V30 514 H 40.5358 4.7108 -3.8232 0
M  V30 515 H 39.2748 4.01754 -2.76487 0
M  V30 516 H 38.2798 2.80799 -4.72686 0
M  V30 517 H 39.5048 3.53238 -5.8 0
M  V30 518 H 37.4508 5.0687 -4.16435 0
M  V30 519 H 37.3678 4.76562 -5.86877 0
M  V30 520 H 38.6358 5.77335 -5.23741 0
M  V30 521 N 42.8649 1.48995 0.513639 0
M  V30 522 C 44.1109 1.59053 1.26783 0
M  V30 523 C 44.4659 0.268136 1.90522 0
M  V30 524 O 43.7589 -0.730534 1.77126 0
M  V30 525 C 43.9529 2.67756 2.36731 0
M  V30 526 C 43.7819 4.10437 1.83771 0
M  V30 527 C 42.5519 4.7738 1.65639 0
M  V30 528 C 44.7499 4.9608 1.35681 0
M  V30 529 N 42.7319 6.04419 1.07476 0
M  V30 530 C 44.1029 6.13496 0.895715 0
M  V30 531 C 46.1579 4.82177 1.24136 0
M  V30 532 C 44.8609 7.1854 0.3306 0
M  V30 533 C 46.8869 5.87358 0.690229 0
M  V30 534 C 46.2489 7.03993 0.239292 0
M  V30 535 H 42.3479 0.636463 0.454355 0
M  V30 536 H 44.9319 1.85948 0.577196 0
M  V30 537 H 43.1029 2.42655 3.03271 0
M  V30 538 H 44.8349 2.67406 3.0377 0
M  V30 539 H 41.5899 4.33974 1.8964 0
M  V30 540 H 42.0139 6.72214 0.803579 0
M  V30 541 H 46.6559 3.92329 1.57601 0
M  V30 542 H 44.3739 8.08098 -0.0163435 0
M  V30 543 H 47.9599 5.78658 0.603852 0
M  V30 544 H 46.8399 7.83992 -0.180526 0
M  V30 545 N 44.343 -0.763751 1.37857 0
M  V30 546 C 45.59 -1.52257 1.33506 0
M  V30 547 C 45.918 -1.94343 -0.078022 0
M  V30 548 O 45.173 -1.64958 -1.05297 0
M  V30 549 C 45.472 -2.79499 2.22745 0
M  V30 550 C 45.138 -2.56426 3.70886 0
M  V30 551 C 43.8 -2.49842 4.11257 0
M  V30 552 C 46.152 -2.36008 4.64704 0
M  V30 553 C 43.48 -2.20841 5.43549 0
M  V30 554 C 45.832 -2.0853 5.97242 0
M  V30 555 C 44.496 -2.00396 6.36709 0
M  V30 556 H 43.766 -0.557149 0.488534 0
M  V30 557 H 46.413 -0.879073 1.70131 0
M  V30 558 H 44.718 -3.48447 1.79142 0
M  V30 559 H 46.415 -3.37413 2.16688 0
M  V30 560 H 43.005 -2.62416 3.38874 0
M  V30 561 H 47.189 -2.40079 4.34368 0
M  V30 562 H 42.445 -2.13045 5.73081 0
M  V30 563 H 46.619 -1.91732 6.69486 0
M  V30 564 H 44.246 -1.77688 7.39142 0
M  V30 565 N 45.8211 -1.22559 -0.990812 0
M  V30 566 C 47.0681 -1.05141 -1.73065 0
M  V30 567 C 47.3961 0.413191 -1.9006 0
M  V30 568 O 46.6511 1.32257 -1.44245 0
M  V30 569 C 46.9501 -1.71011 -3.13831 0
M  V30 570 C 46.6161 -3.20911 -3.16745 0
M  V30 571 C 45.2781 -3.61812 -3.17247 0
M  V30 572 C 47.6301 -4.16846 -3.12872 0
M  V30 573 C 44.9581 -4.97127 -3.1158 0
M  V30 574 C 47.3101 -5.5214 -3.08746 0
M  V30 575 C 45.9741 -5.92419 -3.07565 0
M  V30 576 H 45.2441 -0.384738 -0.633291 0
M  V30 577 H 47.8911 -1.5235 -1.16025 0
M  V30 578 H 46.1961 -1.16133 -3.74193 0
M  V30 579 H 47.8931 -1.55023 -3.69823 0
M  V30 580 H 44.4831 -2.88344 -3.17105 0
M  V30 581 H 48.6671 -3.86263 -3.11632 0
M  V30 582 H 43.9231 -5.27562 -3.09012 0
M  V30 583 H 48.0971 -6.26201 -3.04705 0
M  V30 584 H 45.7241 -6.97236 -3.02929 0
M  V30 585 N 47.2992 1.18797 -1.03562 0
M  V30 586 C 48.5482 1.87978 -0.731235 0
M  V30 587 C 48.8612 1.80911 0.743671 0
M  V30 588 O 50.0672 2.45407 1.16137 0
M  V30 589 C 48.5232 3.3721 -1.25768 0
M  V30 590 C 48.1312 3.52818 -2.76085 0
M  V30 591 C 49.8752 4.11825 -1.0296 0
M  V30 592 C 47.7822 4.9598 -3.22114 0
M  V30 593 H 46.7122 0.704063 -0.269835 0
M  V30 594 H 49.3632 1.34266 -1.25079 0
M  V30 595 H 47.7452 3.90359 -0.666011 0
M  V30 596 H 48.9192 3.09965 -3.40966 0
M  V30 597 H 47.2342 2.91602 -2.97249 0
M  V30 598 H 49.8312 5.17411 -1.34869 0
M  V30 599 H 50.1742 4.16287 0.0333546 0
M  V30 600 H 50.7072 3.64833 -1.58562 0
M  V30 601 H 47.4462 4.96684 -4.27768 0
M  V30 602 H 46.9662 5.39569 -2.61965 0
M  V30 603 H 48.6452 5.6467 -3.15844 0
M  V30 604 N 48.7773 0.814389 1.34928 0
M  V30 605 C 50.0253 0.397636 1.9815 0
M  V30 606 C 50.3463 -1.04069 1.64908 0
M  V30 607 O 49.6163 -1.72121 0.93548 0
M  V30 608 H 48.1963 0.144043 0.732981 0
M  V30 609 H 50.8583 1.04195 1.6471 0
M  V30 610 H 49.9543 0.509688 3.0791 0
M  V30 611 N 50.2554 -1.46986 0.568584 0
M  V30 612 C 51.5044 -2.01646 0.0465894 0
M  V30 613 C 51.8174 -1.44721 -1.31587 0
M  V30 614 O 53.0234 -1.91113 -1.92842 0
M  V30 615 C 51.4794 -3.59885 0.032752 0
M  V30 616 C 51.0874 -4.25804 1.39266 0
M  V30 617 C 52.8314 -4.22255 -0.436038 0
M  V30 618 C 50.7384 -5.76081 1.33732 0
M  V30 619 H 49.6684 -0.753876 0.013647 0
M  V30 620 H 52.3194 -1.68864 0.718131 0
M  V30 621 H 50.7014 -3.8968 -0.704669 0
M  V30 622 H 51.8754 -4.07637 2.1487 0
M  V30 623 H 50.1904 -3.7547 1.80032 0
M  V30 624 H 52.7874 -5.32394 -0.49602 0
M  V30 625 H 53.1304 -3.90212 -1.45053 0
M  V30 626 H 53.6634 -3.97033 0.246877 0
M  V30 627 H 50.4024 -6.12761 2.32817 0
M  V30 628 H 49.9224 -5.96553 0.623267 0
M  V30 629 H 51.6014 -6.38518 1.0442 0
M  V30 630 N 51.7335 -0.305618 -1.54608 0
M  V30 631 C 52.6635 0.561482 -2.26649 0
M  V30 632 C 53.6445 1.13415 -1.26772 0
M  V30 633 O 54.8295 1.16262 -1.55553 0
M  V30 634 C 51.9595 1.73122 -3.01075 0
M  V30 635 C 50.9135 1.2887 -4.08138 0
M  V30 636 C 50.2395 2.54396 -4.70305 0
M  V30 637 C 51.5395 0.416578 -5.20636 0
M  V30 638 H 53.2335 -0.0393902 -2.99374 0
M  V30 639 H 50.7795 -0.020385 -1.43986 0
M  V30 640 H 52.7325 2.34396 -3.50195 0
M  V30 641 H 51.4565 2.3584 -2.25936 0
M  V30 642 H 50.1155 0.698991 -3.59875 0
M  V30 643 H 49.7635 3.15439 -3.918 0
M  V30 644 H 49.4635 2.25486 -5.42614 0
M  V30 645 H 50.9875 3.16464 -5.2219 0
M  V30 646 H 52.4015 0.935116 -5.65622 0
M  V30 647 H 50.7985 0.221046 -5.99693 0
M  V30 648 H 51.8685 -0.557162 -4.81688 0
M  V30 649 N 53.2116 1.57565 -0.0334293 0
M  V30 650 C 54.1416 2.13511 0.945265 0
M  V30 651 C 55.1226 1.05231 1.33643 0
M  V30 652 O 56.3076 1.33084 1.41429 0
M  V30 653 C 53.4376 2.6657 2.22616 0
M  V30 654 C 52.3916 3.79676 1.97561 0
M  V30 655 C 51.7176 4.1918 3.31952 0
M  V30 656 C 53.0176 5.0557 1.31135 0
M  V30 657 H 54.7116 2.95538 0.479325 0
M  V30 658 H 52.2576 1.42166 0.229115 0
M  V30 659 H 54.2106 3.04344 2.91466 0
M  V30 660 H 52.9346 1.8171 2.71384 0
M  V30 661 H 51.5936 3.42347 1.31127 0
M  V30 662 H 51.2416 3.31296 3.78487 0
M  V30 663 H 50.9416 4.95402 3.15992 0
M  V30 664 H 52.4656 4.59541 4.02063 0
M  V30 665 H 53.8796 5.40903 1.89992 0
M  V30 666 H 52.2766 5.86818 1.25559 0
M  V30 667 H 53.3466 4.84062 0.284894 0
M  V30 668 N 54.6897 -0.239769 1.55765 0
M  V30 669 C 55.6197 -1.30052 1.9393 0
M  V30 670 C 56.6007 -1.49839 0.805132 0
M  V30 671 O 57.7857 -1.62328 1.06599 0
M  V30 672 C 54.9157 -2.65391 2.2402 0
M  V30 673 C 53.8697 -2.60289 3.39755 0
M  V30 674 C 53.1957 -3.99489 3.55405 0
M  V30 675 C 54.4957 -2.16654 4.75246 0
M  V30 676 H 56.1897 -0.983573 2.82783 0
M  V30 677 H 53.7357 -0.471701 1.36055 0
M  V30 678 H 55.6887 -3.3974 2.49308 0
M  V30 679 H 54.4127 -2.98736 1.32 0
M  V30 680 H 53.0717 -1.88398 3.14487 0
M  V30 681 H 52.7197 -4.30112 2.60793 0
M  V30 682 H 52.4197 -3.96962 4.33238 0
M  V30 683 H 53.9437 -4.75528 3.83022 0
M  V30 684 H 55.3577 -2.80737 4.99859 0
M  V30 685 H 53.7547 -2.25223 5.56232 0
M  V30 686 H 54.8247 -1.11835 4.71827 0
M  V30 687 N 56.1678 -1.49265 -0.50573 0
M  V30 688 C 57.4158 -1.582 -1.25766 0
M  V30 689 C 57.7368 -0.268482 -1.93143 0
M  V30 690 O 57.0068 0.711833 -1.8251 0
M  V30 691 H 55.5868 -0.582873 -0.467191 0
M  V30 692 H 58.2488 -1.85865 -0.586525 0
M  V30 693 H 57.3448 -2.37563 -2.02412 0
M  V30 694 N 57.6459 0.756429 -1.3826 0
M  V30 695 C 58.8949 1.51082 -1.3363 0
M  V30 696 C 59.2079 1.95467 0.0720068 0
M  V30 697 O 60.4139 2.7043 0.240834 0
M  V30 698 C 58.8699 2.72893 -2.34644 0
M  V30 699 C 58.4779 2.35544 -3.81081 0
M  V30 700 C 60.2219 3.50791 -2.39052 0
M  V30 701 C 58.1289 3.53948 -4.73787 0
M  V30 702 H 57.0589 0.56727 -0.49671 0
M  V30 703 H 59.7099 0.827147 -1.638 0
M  V30 704 H 58.0919 3.43227 -1.97513 0
M  V30 705 H 59.2659 1.72894 -4.27135 0
M  V30 706 H 57.5809 1.70786 -3.79764 0
M  V30 707 H 60.1779 4.38823 -3.05513 0
M  V30 708 H 60.5209 3.91745 -1.40861 0
M  V30 709 H 61.0539 2.87467 -2.74968 0
M  V30 710 H 57.7929 3.18064 -5.73163 0
M  V30 711 H 57.3129 4.15651 -4.32428 0
M  V30 712 H 58.9919 4.20566 -4.91663 0
M  V30 713 N 59.124 1.23083 0.984299 0
M  V30 714 C 60.352 1.08714 1.76037 0
M  V30 715 C 60.767 -0.361691 1.85303 0
M  V30 716 O 60.124 -1.25034 1.32939 0
M  V30 717 C 60.175 1.70206 3.18923 0
M  V30 718 O 59.896 3.09423 3.10144 0
M  V30 719 C 61.397 1.61227 4.12941 0
M  V30 720 H 58.617 0.380664 0.552572 0
M  V30 721 H 61.161 1.62853 1.23689 0
M  V30 722 H 59.316 1.20109 3.6831 0
M  V30 723 H 59.73 3.39188 4.00065 0
M  V30 724 H 61.204 2.08962 5.10919 0
M  V30 725 H 61.681 0.570375 4.35481 0
M  V30 726 H 62.287 2.10671 3.69456 0
M  V30 727 N 60.6021 -1.18246 1.0419 0
M  V30 728 C 61.5651 -2.20128 0.638452 0
M  V30 729 C 62.5651 -1.57885 -0.304805 0
M  V30 730 O 63.7551 -1.73967 -0.0900369 0
M  V30 731 C 60.8871 -3.4084 -0.0637751 0
M  V30 732 H 62.0801 -2.57336 1.54007 0
M  V30 733 H 59.6331 -1.32152 0.834598 0
M  V30 734 H 60.3681 -3.09166 -0.979136 0
M  V30 735 H 60.1531 -3.8726 0.614198 0
M  V30 736 H 61.6431 -4.16274 -0.332512 0
M  V30 737 N 62.0802 -0.821533 -1.34494 0
M  V30 738 C 63.3262 -0.409552 -1.98622 0
M  V30 739 C 63.6592 1.0244 -1.64984 0
M  V30 740 O 62.9342 1.71325 -0.920758 0
M  V30 741 C 63.2172 -0.610458 -3.54888 0
M  V30 742 C 63.0702 -2.09043 -3.98273 0
M  V30 743 C 64.3892 -0.0455379 -4.40076 0
M  V30 744 H 61.5082 -0.15028 -0.721516 0
M  V30 745 H 64.1502 -1.03384 -1.59411 0
M  V30 746 H 62.3002 -0.079044 -3.8842 0
M  V30 747 H 63.9722 -2.68537 -3.75081 0
M  V30 748 H 62.2152 -2.58139 -3.48635 0
M  V30 749 H 62.8862 -2.18182 -5.07051 0
M  V30 750 H 65.3622 -0.499557 -4.1309 0
M  V30 751 H 64.2382 -0.215922 -5.48475 0
M  V30 752 H 64.4992 1.04939 -4.29465 0
M  V30 753 N 63.5583 1.46682 -0.576371 0
M  V30 754 C 64.7863 2.06798 -0.0649635 0
M  V30 755 C 65.2013 1.42612 1.23723 0
M  V30 756 O 64.5583 0.529203 1.74659 0
M  V30 757 C 64.6093 3.6132 0.114202 0
M  V30 758 O 64.3303 4.23104 -1.13644 0
M  V30 759 C 65.8313 4.38349 0.66069 0
M  V30 760 H 63.0513 0.668778 -0.0545616 0
M  V30 761 H 65.5953 1.88404 -0.795237 0
M  V30 762 H 63.7503 3.79162 0.794673 0
M  V30 763 H 64.1643 5.15894 -0.946253 0
M  V30 764 H 65.6383 5.47081 0.73526 0
M  V30 765 H 66.1153 4.05953 1.67627 0
M  V30 766 H 66.7213 4.25297 0.0152951 0
M  V30 767 N 65.0364 0.313813 1.54444 0
M  V30 768 C 66.2824 -0.292108 2.00685 0
M  V30 769 C 66.6154 -1.52548 1.20177 0
M  V30 770 O 65.8904 -1.92452 0.281531 0
M  V30 771 C 66.1734 -0.635968 3.5444 0
M  V30 772 C 66.0264 0.607437 4.4568 0
M  V30 773 C 67.3454 -1.45747 4.15266 0
M  V30 774 H 64.4644 -0.104697 0.729526 0
M  V30 775 H 67.1064 0.428457 1.85106 0
M  V30 776 H 65.2564 -1.24986 3.67846 0
M  V30 777 H 66.9284 1.24581 4.44159 0
M  V30 778 H 65.1714 1.23822 4.15753 0
M  V30 779 H 65.8424 0.322515 5.51057 0
M  V30 780 H 68.3184 -0.938645 4.05375 0
M  V30 781 H 67.1944 -1.66683 5.2298 0
M  V30 782 H 67.4554 -2.45063 3.67963 0
M  V30 783 N 66.5145 -1.57545 0.0417849 0
M  V30 784 C 67.7605 -1.92601 -0.635021 0
M  V30 785 C 68.0935 -0.919627 -1.71045 0
M  V30 786 O 67.3685 0.0557892 -1.9442 0
M  V30 787 C 67.6515 -3.38085 -1.23979 0
M  V30 788 C 67.5045 -4.49467 -0.173057 0
M  V30 789 C 68.8235 -3.83776 -2.15416 0
M  V30 790 H 65.9425 -0.700397 -0.229374 0
M  V30 791 H 68.5845 -1.89728 0.101633 0
M  V30 792 H 66.7345 -3.40664 -1.86762 0
M  V30 793 H 68.4065 -4.59018 0.458312 0
M  V30 794 H 66.6495 -4.30909 0.499996 0
M  V30 795 H 67.3205 -5.48323 -0.636054 0
M  V30 796 H 69.7965 -3.83013 -1.62605 0
M  V30 797 H 68.6725 -4.8624 -2.54679 0
M  V30 798 H 68.9335 -3.19998 -3.05047 0
M  V30 799 N 67.9926 0.231505 -1.5589 0
M  V30 800 C 69.2406 0.955461 -1.78088 0
M  V30 801 C 69.5616 1.85262 -0.608533 0
M  V30 802 O 68.8316 1.92277 0.375035 0
M  V30 803 H 67.4116 0.355787 -0.656829 0
M  V30 804 H 70.0736 0.245751 -1.93344 0
M  V30 805 H 69.1696 1.56814 -2.69844 0
M  V30 806 N 69.4707 1.49531 0.497807 0
M  V30 807 C 70.7197 1.58426 1.24837 0
M  V30 808 C 71.0327 0.277643 1.93619 0
M  V30 809 O 72.2387 0.24517 2.70391 0
M  V30 810 C 70.6947 2.79538 2.26686 0
M  V30 811 C 70.3027 4.16971 1.63828 0
M  V30 812 C 72.0467 2.97764 3.0255 0
M  V30 813 C 69.9537 5.29301 2.63807 0
M  V30 814 H 68.8837 0.58989 0.469623 0
M  V30 815 H 71.5347 1.75923 0.521857 0
M  V30 816 H 69.9167 2.55542 3.02514 0
M  V30 817 H 71.0907 4.51116 0.939711 0
M  V30 818 H 69.4057 4.04129 1.00342 0
M  V30 819 H 72.0027 3.78856 3.77323 0
M  V30 820 H 72.3457 2.08448 3.60354 0
M  V30 821 H 72.8787 3.21815 2.33838 0
M  V30 822 H 69.6177 6.20687 2.10779 0
M  V30 823 H 69.1377 4.99606 3.31894 0
M  V30 824 H 70.8167 5.58768 3.2617 0
M  V30 825 N 70.9488 -0.749086 1.3866 0
M  V30 826 C 72.1788 -1.53611 1.38157 0
M  V30 827 C 72.5868 -1.89177 -0.0293595 0
M  V30 828 O 71.9298 -1.53606 -1.00752 0
M  V30 829 C 71.9918 -2.86087 2.17702 0
M  V30 830 C 71.6558 -2.73034 3.66472 0
M  V30 831 C 72.6528 -2.42526 4.59866 0
M  V30 832 C 70.3378 -2.90345 4.09884 0
M  V30 833 C 72.3318 -2.29492 5.94653 0
M  V30 834 C 70.0188 -2.7693 5.4475 0
M  V30 835 C 71.0168 -2.46547 6.36949 0
M  V30 836 O 70.7048 -2.33199 7.69333 0
M  V30 837 H 70.4368 -0.481773 0.474205 0
M  V30 838 H 72.9908 -0.934465 1.82912 0
M  V30 839 H 71.2208 -3.48458 1.67672 0
M  V30 840 H 72.9098 -3.47625 2.09551 0
M  V30 841 H 73.6758 -2.28816 4.27631 0
M  V30 842 H 69.5548 -3.1299 3.38464 0
M  V30 843 H 73.0988 -2.05698 6.66584 0
M  V30 844 H 68.9958 -2.90215 5.76581 0
M  V30 845 H 69.7638 -2.48376 7.79905 0
M  V30 846 N 72.4269 -1.23603 -0.977757 0
M  V30 847 C 73.6729 -1.07129 -1.72195 0
M  V30 848 C 74.0059 0.390501 -1.90233 0
M  V30 849 O 73.2809 1.28902 -1.45653 0
M  V30 850 C 73.5639 -1.80031 -3.11867 0
M  V30 851 C 73.4169 -3.33899 -3.01383 0
M  V30 852 C 74.7359 -1.56492 -4.11337 0
M  V30 853 H 71.8549 -0.390571 -0.624999 0
M  V30 854 H 74.4969 -1.52142 -1.13811 0
M  V30 855 H 72.6469 -1.41768 -3.6171 0
M  V30 856 H 74.3189 -3.81699 -2.59043 0
M  V30 857 H 72.5619 -3.62796 -2.37827 0
M  V30 858 H 73.2329 -3.801 -4.00285 0
M  V30 859 H 75.7089 -1.89757 -3.70313 0
M  V30 860 H 74.5849 -2.09973 -5.07151 0
M  V30 861 H 74.8459 -0.500874 -4.39254 0
M  V30 862 N 73.905 1.17692 -1.04816 0
M  V30 863 C 74.835 2.23777 -0.666791 0
M  V30 864 C 75.816 1.66796 0.33361 0
M  V30 865 O 77.001 1.93039 0.212042 0
M  V30 866 C 74.131 3.47281 -0.0367933 0
M  V30 867 C 73.085 4.17059 -0.961546 0
M  V30 868 C 72.411 5.34342 -0.195626 0
M  V30 869 C 73.711 4.69713 -2.28402 0
M  V30 870 H 75.405 2.55933 -1.55367 0
M  V30 871 H 72.951 1.23019 -0.748484 0
M  V30 872 H 74.904 4.20706 0.241775 0
M  V30 873 H 73.628 3.14381 0.885004 0
M  V30 874 H 72.287 3.45541 -1.22462 0
M  V30 875 H 71.935 4.97692 0.728816 0
M  V30 876 H 71.635 5.81966 -0.811775 0
M  V30 877 H 73.159 6.10553 0.0757473 0
M  V30 878 H 74.573 5.34794 -2.06563 0
M  V30 879 H 72.97 5.279 -2.8538 0
M  V30 880 H 74.04 3.86726 -2.92525 0
M  V30 881 N 75.3831 0.828654 1.34056 0
M  V30 882 C 76.6081 0.431637 2.02859 0
M  V30 883 C 77.0331 -0.956339 1.61975 0
M  V30 884 O 76.3911 -1.62338 0.807228 0
M  V30 885 C 76.4391 0.548323 3.56407 0
M  V30 886 O 75.5431 -0.429556 4.10157 0
M  V30 887 H 74.8841 0.176886 0.640006 0
M  V30 888 H 77.4141 1.12066 1.71179 0
M  V30 889 H 77.4241 0.426196 4.05768 0
M  V30 890 H 76.0991 1.5606 3.8551 0
M  V30 891 H 74.6761 -0.265836 3.71951 0
M  V30 892 N 76.8612 -1.46375 0.584142 0
M  V30 893 C 78.1102 -2.01585 0.0679741 0
M  V30 894 C 78.4232 -1.46109 -1.30045 0
M  V30 895 O 79.6292 -1.93148 -1.90804 0
M  V30 896 C 78.0852 -3.5983 0.0709207 0
M  V30 897 C 77.6932 -4.24303 1.43775 0
M  V30 898 C 79.4372 -4.22693 -0.391228 0
M  V30 899 C 77.3442 -5.74631 1.39834 0
M  V30 900 H 76.2742 -0.753689 0.0216421 0
M  V30 901 H 78.9252 -1.68093 0.736001 0
M  V30 902 H 77.3072 -3.90405 -0.663299 0
M  V30 903 H 78.4812 -4.05335 2.19181 0
M  V30 904 H 76.7962 -3.73539 1.84004 0
M  V30 905 H 79.3932 -5.3289 -0.439524 0
M  V30 906 H 79.7362 -3.91728 -1.40906 0
M  V30 907 H 80.2692 -3.96749 0.288974 0
M  V30 908 H 77.0082 -6.10258 2.39303 0
M  V30 909 H 76.5282 -5.95858 0.686505 0
M  V30 910 H 78.2072 -6.37375 1.11187 0
M  V30 911 N 78.3393 -0.321999 -1.54275 0
M  V30 912 C 79.5883 0.281931 -1.9972 0
M  V30 913 C 79.9013 1.53369 -1.21397 0
M  V30 914 O 81.1073 2.21352 -1.57211 0
M  V30 915 C 79.5633 0.5529 -3.55628 0
M  V30 916 C 79.1713 -0.681721 -4.42783 0
M  V30 917 C 80.9153 1.11687 -4.09544 0
M  V30 918 C 78.8223 -0.382742 -5.9016 0
M  V30 919 H 77.7523 0.109124 -0.746062 0
M  V30 920 H 80.4033 -0.43398 -1.78294 0
M  V30 921 H 78.7853 1.32896 -3.73035 0
M  V30 922 H 79.9593 -1.45723 -4.37151 0
M  V30 923 H 78.2743 -1.1658 -3.99748 0
M  V30 924 H 80.8713 1.35515 -5.17242 0
M  V30 925 H 81.2143 2.06575 -3.61431 0
M  V30 926 H 81.7473 0.402032 -3.95763 0
M  V30 927 H 78.4863 -1.30076 -6.42464 0
M  V30 928 H 78.0063 0.355094 -5.98748 0
M  V30 929 H 79.6853 0.00800157 -6.47 0
M  V30 930 N 79.8174 1.5752 -0.0501392 0
M  V30 931 C 81.2334 1.56631 0.306402 0
M  V30 932 C 81.4334 1.0577 1.71508 0
M  V30 933 O 80.4894 0.713837 2.422 0
M  V30 934 C 81.8024 3.00393 0.135811 0
M  V30 935 C 83.3504 3.12315 0.206993 0
M  V30 936 C 83.8254 4.57954 0.064944 0
M  V30 937 N 85.3164 4.63041 0.121254 0
M  V30 938 C 86.0514 5.73389 0.0354381 0
M  V30 939 N 85.5474 6.92724 -0.102666 0
M  V30 940 N 87.3404 5.62026 0.090946 0
M  V30 941 H 79.4914 1.88903 -0.971046 0
M  V30 942 H 81.7544 0.869876 -0.376855 0
M  V30 943 H 81.4604 3.41635 -0.835384 0
M  V30 944 H 81.3344 3.66373 0.897275 0
M  V30 945 H 83.7214 2.70973 1.16866 0
M  V30 946 H 83.8024 2.49016 -0.585208 0
M  V30 947 H 83.4464 4.99981 -0.893394 0
M  V30 948 H 83.3764 5.19258 0.876277 0
M  V30 949 H 85.8674 3.77216 0.227284 0
M  V30 950 H 86.1804 7.72633 -0.160882 0
M  V30 951 H 84.5254 6.94864 -0.137737 0
M  V30 952 H 87.7164 4.67684 0.197388 0
M  V30 953 H 87.8894 6.47997 0.0206089 0
M  V30 954 N 81.2955 -0.223234 1.56011 0
M  V30 955 C 82.5205 -0.968978 1.83373 0
M  V30 956 C 82.9455 -1.77227 0.630254 0
M  V30 957 O 82.3035 -1.76345 -0.420959 0
M  V30 958 C 82.3515 -1.86363 3.08709 0
M  V30 959 O 81.4555 -2.95873 2.87285 0
M  V30 960 H 80.7965 -0.274461 0.604622 0
M  V30 961 H 83.3265 -0.237056 2.03222 0
M  V30 962 H 83.3365 -2.27376 3.38768 0
M  V30 963 H 82.0115 -1.27319 3.95933 0
M  V30 964 H 80.5885 -2.58818 2.68454 0
M  V30 965 N 82.7736 -1.49793 -0.48987 0
M  V30 966 C 83.9986 -1.63836 -1.27172 0
M  V30 967 C 84.4236 -0.31402 -1.8546 0
M  V30 968 O 83.7816 0.719803 -1.66399 0
M  V30 969 C 83.8296 -2.71797 -2.36978 0
M  V30 970 O 82.9336 -2.31744 -3.41128 0
M  V30 971 H 82.2746 -0.547997 -0.37496 0
M  V30 972 H 84.8046 -1.96053 -0.585191 0
M  V30 973 H 84.8146 -2.94305 -2.82575 0
M  V30 974 H 83.4896 -3.67923 -1.93921 0
M  V30 975 H 82.0666 -2.1961 -3.01373 0
M  V30 976 N 84.2517 0.741722 -1.39055 0
M  V30 977 C 85.6627 1.31966 -1.32068 0
M  V30 978 C 86.0137 1.96192 0.0180797 0
M  V30 979 O 85.1387 1.95861 0.920196 0
M  V30 980 C 85.7337 2.39954 -2.39181 0
M  V30 981 C 84.2927 2.93438 -2.35735 0
M  V30 982 C 83.4397 1.66936 -2.21422 0
M  V30 983 H 86.3907 0.539721 -1.4924 0
M  V30 984 H 86.4117 3.20182 -2.05581 0
M  V30 985 H 85.9237 1.9318 -3.36605 0
M  V30 986 H 84.0247 3.4451 -1.41929 0
M  V30 987 H 84.1377 3.4701 -3.30335 0
M  V30 988 H 82.5017 1.91016 -1.68478 0
M  V30 989 H 83.2847 1.22224 -3.20806 0
M  V30 990 N 85.7298 1.2412 0.971189 0
M  V30 991 C 86.6398 1.04747 2.09917 0
M  V30 992 C 87.6558 -0.0107162 1.73997 0
M  V30 993 O 88.8318 0.186714 2.00533 0
M  V30 994 C 85.8968 0.650828 3.40537 0
M  V30 995 C 84.9578 1.7851 3.90426 0
M  V30 996 C 84.1908 1.40729 5.14812 0
M  V30 997 O 84.4138 0.29557 5.69634 0
M  V30 998 O 83.3478 2.23168 5.58999 0
M  V30 999 H 87.1738 1.99304 2.29154 0
M  V30 1000 H 84.7588 1.02908 1.08307 0
M  V30 1001 H 86.6408 0.440992 4.19086 0
M  V30 1002 H 85.3158 -0.265649 3.22608 0
M  V30 1003 H 84.2228 2.04966 3.12953 0
M  V30 1004 H 85.5558 2.68023 4.12825 0
M  V30 1005 N 87.2079 -1.17134 1.05439 0
M  V30 1006 C 88.1379 -2.2342 0.678649 0
M  V30 1007 C 89.1189 -1.66971 -0.32476 0
M  V30 1008 O 90.3039 -1.93149 -0.201802 0
M  V30 1009 C 87.4339 -3.47256 0.0552099 0
M  V30 1010 C 86.3879 -4.16543 0.98365 0
M  V30 1011 C 85.7139 -5.34231 0.223961 0
M  V30 1012 C 87.0139 -4.68495 2.3089 0
M  V30 1013 H 88.7079 -2.55105 1.56722 0
M  V30 1014 H 86.2539 -1.2262 0.754998 0
M  V30 1015 H 88.2069 -4.20828 -0.21946 0
M  V30 1016 H 86.9309 -3.14846 -0.868319 0
M  V30 1017 H 85.5899 -3.44887 1.24293 0
M  V30 1018 H 85.2379 -4.98071 -0.702412 0
M  V30 1019 H 84.9379 -5.81527 0.842627 0
M  V30 1020 H 86.4619 -6.10585 -0.0433671 0
M  V30 1021 H 87.8759 -5.33691 2.09396 0
M  V30 1022 H 86.2729 -5.26379 2.88176 0
M  V30 1023 H 87.3429 -3.85169 2.94572 0
M  V30 1024 N 88.686 -0.835752 -1.33615 0
M  V30 1025 C 89.963 -0.352017 -1.92406 0
M  V30 1026 C 90.343 1.16225 -1.76224 0
M  V30 1027 O 89.691 1.97526 -1.14873 0
M  V30 1028 C 89.901 -0.795485 -3.39813 0
M  V30 1029 C 91.249 -0.801703 -4.16963 0
M  V30 1030 O 92.273 -0.738889 -3.48452 0
M  V30 1031 O 91.132 -0.886607 -5.3926 0
M  V30 1032 H 88.226 -0.0989641 -0.821057 0
M  V30 1033 H 90.772 -0.921397 -1.42507 0
M  V30 1034 H 89.544 -1.83795 -3.45449 0
M  V30 1035 H 89.167 -0.202505 -3.97084 0
M  V30 1036 N 90.1641 1.46063 -0.591896 0
M  V30 1037 C 91.4101 2.02638 -0.0811191 0
M  V30 1038 C 91.7431 1.4613 1.27905 0
M  V30 1039 O 91.0181 0.629908 1.84017 0
M  V30 1040 C 91.3011 3.60091 -0.0252436 0
M  V30 1041 C 91.1541 4.26965 -1.41496 0
M  V30 1042 C 92.4731 4.3496 0.670685 0
M  V30 1043 H 89.5921 0.73635 -0.0309524 0
M  V30 1044 H 92.2341 1.741 -0.760859 0
M  V30 1045 H 90.3841 3.84535 0.553624 0
M  V30 1046 H 92.0561 4.13756 -2.0397 0
M  V30 1047 H 90.2991 3.85971 -1.98011 0
M  V30 1048 H 90.9701 5.35781 -1.32825 0
M  V30 1049 H 93.4461 4.15716 0.178825 0
M  V30 1050 H 92.3221 5.44686 0.678837 0
M  V30 1051 H 92.5831 4.06685 1.73379 0
M  V30 1052 N 91.6422 0.330177 1.54103 0
M  V30 1053 C 92.5742 -0.566902 2.22079 0
M  V30 1054 C 93.5872 -1.07462 1.22294 0
M  V30 1055 O 94.7762 -0.987065 1.48726 0
M  V30 1056 C 91.8762 -1.79138 2.87685 0
M  V30 1057 C 91.0492 -1.42123 4.13666 0
M  V30 1058 C 90.1082 -2.50394 4.62806 0
M  V30 1059 O 89.1342 -2.14261 5.27334 0
M  V30 1060 N 90.3362 -3.81433 4.37595 0
M  V30 1061 H 93.1012 0.0151844 2.99696 0
M  V30 1062 H 90.6622 0.153681 1.61169 0
M  V30 1063 H 92.6542 -2.50975 3.1748 0
M  V30 1064 H 91.2242 -2.28115 2.13734 0
M  V30 1065 H 90.4442 -0.534201 3.90564 0
M  V30 1066 H 91.7322 -1.14971 4.9564 0
M  V30 1067 H 91.1302 -4.13584 3.8596 0
M  V30 1068 H 89.6872 -4.4948 4.72029 0
M  V30 1069 N 93.1203 -1.57491 0.0584922 0
M  V30 1070 C 94.0833 -2.1085 -0.898617 0
M  V30 1071 C 95.0833 -1.02964 -1.23511 0
M  V30 1072 O 96.2733 -1.29007 -1.17059 0
M  V30 1073 C 93.4053 -2.59881 -2.20623 0
M  V30 1074 H 94.5983 -2.96715 -0.435936 0
M  V30 1075 H 92.1513 -1.55141 -0.190023 0
M  V30 1076 H 92.8863 -1.77431 -2.71457 0
M  V30 1077 H 92.6713 -3.38727 -1.97501 0
M  V30 1078 H 94.1613 -3.01285 -2.89166 0
M  V30 1079 N 94.5984 0.214957 -1.56127 0
M  V30 1080 C 95.8474 0.936451 -1.78643 0
M  V30 1081 C 96.1604 1.85237 -0.628229 0
M  V30 1082 O 97.3664 2.613 -0.737186 0
M  V30 1083 C 95.8224 1.7154 -3.16389 0
M  V30 1084 C 95.4304 0.845299 -4.39953 0
M  V30 1085 C 97.1744 2.42772 -3.48227 0
M  V30 1086 C 95.0814 1.62198 -5.68723 0
M  V30 1087 H 94.0114 0.353401 -0.666051 0
M  V30 1088 H 96.6624 0.190169 -1.82512 0
M  V30 1089 H 95.0444 2.50484 -3.06715 0
M  V30 1090 H 96.2184 0.0959353 -4.607 0
M  V30 1091 H 94.5334 0.244789 -4.1568 0
M  V30 1092 H 97.1304 3.01394 -4.41663 0
M  V30 1093 H 97.4734 3.15984 -2.71035 0
M  V30 1094 H 98.0064 1.70813 -3.5926 0
M  V30 1095 H 94.7454 0.933011 -6.48826 0
M  V30 1096 H 94.2654 2.34579 -5.52026 0
M  V30 1097 H 95.9444 2.18095 -6.09133 0
M  V30 1098 N 96.0765 1.50051 0.48192 0
M  V30 1099 C 97.0085 1.64263 1.59844 0
M  V30 1100 C 98.0215 0.52451 1.54119 0
M  V30 1101 O 99.2105 0.797293 1.59704 0
M  V30 1102 C 96.3105 1.60102 2.98698 0
M  V30 1103 C 95.4835 2.87767 3.29407 0
M  V30 1104 C 94.5425 2.76397 4.47762 0
M  V30 1105 O 93.5685 3.50348 4.48603 0
M  V30 1106 N 94.7705 1.89222 5.48794 0
M  V30 1107 H 97.5355 2.60566 1.48073 0
M  V30 1108 H 95.0965 1.47379 0.670149 0
M  V30 1109 H 97.0885 1.50123 3.75826 0
M  V30 1110 H 95.6585 0.715798 3.04294 0
M  V30 1111 H 94.8785 3.11954 2.40994 0
M  V30 1112 H 96.1665 3.72365 3.4673 0
M  V30 1113 H 95.5645 1.28434 5.50928 0
M  V30 1114 H 94.1215 1.85154 6.24949 0
M  V30 1115 N 97.5546 -0.734337 1.39446 0
M  V30 1116 C 98.7796 -1.52866 1.40167 0
M  V30 1117 C 99.2046 -1.881 -0.00171513 0
M  V30 1118 O 98.5626 -1.51957 -0.988879 0
M  V30 1119 C 98.6106 -2.79235 2.28167 0
M  V30 1120 O 97.7146 -3.75185 1.71201 0
M  V30 1121 H 97.0556 -0.461618 0.477289 0
M  V30 1122 H 99.5856 -0.905949 1.8345 0
M  V30 1123 H 99.5956 -3.27963 2.42702 0
M  V30 1124 H 98.2706 -2.52923 3.30156 0
M  V30 1125 H 96.8476 -3.33958 1.65912 0
M  V30 1126 N 99.0327 -1.24633 -0.964593 0
M  V30 1127 C 99.9627 -1.06611 -2.07741 0
M  V30 1128 C 100.944 0.0218666 -1.70086 0
M  V30 1129 O 102.129 -0.145793 -1.93652 0
M  V30 1130 C 99.2587 -0.673444 -3.40708 0
M  V30 1131 C 98.2127 -1.71054 -3.92332 0
M  V30 1132 C 97.5387 -1.17285 -5.21678 0
M  V30 1133 C 98.8387 -3.10718 -4.19824 0
M  V30 1134 H 100.533 -1.99693 -2.23076 0
M  V30 1135 H 98.0787 -0.96152 -1.07195 0
M  V30 1136 H 100.032 -0.534345 -4.17998 0
M  V30 1137 H 98.7557 0.293073 -3.25282 0
M  V30 1138 H 97.4147 -1.83791 -3.17201 0
M  V30 1139 H 97.0627 -0.196847 -5.02615 0
M  V30 1140 H 96.7627 -1.86592 -5.57187 0
M  V30 1141 H 98.2867 -1.04593 -6.01575 0
M  V30 1142 H 99.7007 -3.01192 -4.87808 0
M  V30 1143 H 98.0977 -3.77406 -4.66567 0
M  V30 1144 H 99.1677 -3.58524 -3.26479 0
M  V30 1145 N 100.511 1.16574 -1.06058 0
M  V30 1146 C 101.459 2.22941 -0.663343 0
M  V30 1147 C 102.453 1.66358 0.319593 0
M  V30 1148 O 103.659 1.7905 0.184713 0
M  V30 1149 H 100.034 0.725907 -0.196376 0
M  V30 1150 H 102.005 2.53736 -1.57037 0
M  V30 1151 C 100.754 3.47642 -0.0632808 0
M  V30 1152 H 100.077 3.91493 -0.810733 0
M  V30 1153 H 101.517 4.2363 0.177177 0
M  V30 1154 C 99.9758 3.1509 1.19248 0
M  V30 1155 O 100.506 3.30673 2.28075 0
M  V30 1156 N 98.7118 2.6924 1.09353 0
M  V30 1157 H 98.2588 2.5676 0.207912 0
M  V30 1158 H 98.2168 2.47833 1.93458 0
M  V30 1159 N 101.989 0.842826 1.3317 0
M  V30 1160 C 102.921 0.236245 2.27979 0
M  V30 1161 C 103.934 -0.585282 1.51915 0
M  V30 1162 O 105.123 -0.411705 1.73687 0
M  V30 1163 C 102.223 -0.685717 3.3189 0
M  V30 1164 C 101.396 0.0973448 4.37292 0
M  V30 1165 C 100.455 -0.748565 5.20848 0
M  V30 1166 O 99.4809 -0.186339 5.68895 0
M  V30 1167 N 100.683 -2.06527 5.42519 0
M  V30 1168 H 103.448 1.05088 2.80672 0
M  V30 1169 H 101.009 0.701667 1.45905 0
M  V30 1170 H 103.001 -1.25669 3.84694 0
M  V30 1171 H 101.571 -1.40105 2.79445 0
M  V30 1172 H 100.791 0.849706 3.84933 0
M  V30 1173 H 102.079 0.635643 5.04814 0
M  V30 1174 H 101.477 -2.54554 5.05192 0
M  V30 1175 H 100.034 -2.58464 5.98364 0
M  V30 1176 N 103.467 -1.45747 0.599634 0
M  V30 1177 C 104.878 -1.85853 0.177681 0
M  V30 1178 C 105.229 -1.50102 -1.26348 0
M  V30 1179 O 104.354 -0.923905 -1.95686 0
M  V30 1180 C 104.949 -3.37326 0.315688 0
M  V30 1181 C 103.508 -3.76365 -0.0515144 0
M  V30 1182 C 102.655 -2.69722 0.643822 0
M  V30 1183 H 105.606 -1.36661 0.806814 0
M  V30 1184 H 105.627 -3.77778 -0.454321 0
M  V30 1185 H 105.139 -3.63315 1.36468 0
M  V30 1186 H 103.24 -3.55993 -1.09999 0
M  V30 1187 H 103.353 -4.77916 0.336594 0
M  V30 1188 H 101.717 -2.54567 0.0822881 0
M  V30 1189 H 102.5 -2.98549 1.6948 0
M  V30 1190 N 104.945 -0.338344 -1.53925 0
M  V30 1191 C 106.17 0.263987 -2.05713 0
M  V30 1192 C 106.595 1.43847 -1.21201 0
M  V30 1193 O 105.953 1.79904 -0.224535 0
M  V30 1194 C 106.001 0.662 -3.54471 0
M  V30 1195 O 105.105 1.76265 -3.72833 0
M  V30 1196 H 104.446 0.0448722 -0.662482 0
M  V30 1197 H 106.976 -0.491048 -1.9862 0
M  V30 1198 H 106.986 0.940594 -3.9701 0
M  V30 1199 H 105.661 -0.196937 -4.15433 0
M  V30 1200 H 104.238 1.48173 -3.42198 0
M  V30 1201 N 106.423 1.57458 -0.0668435 0
M  V30 1202 C 107.672 1.92477 0.602947 0
M  V30 1203 C 107.985 0.948419 1.71068 0
M  V30 1204 O 109.191 1.19124 2.43971 0
M  V30 1205 C 107.647 3.41903 1.12383 0
M  V30 1206 C 107.255 4.47975 0.04737 0
M  V30 1207 C 108.999 3.85931 1.76797 0
M  V30 1208 C 106.906 5.88529 0.582022 0
M  V30 1209 H 105.836 0.718387 0.22899 0
M  V30 1210 H 108.487 1.82978 -0.138276 0
M  V30 1211 H 106.869 3.46459 1.91787 0
M  V30 1212 H 108.043 4.55029 -0.726978 0
M  V30 1213 H 106.358 4.13384 -0.500243 0
M  V30 1214 H 108.955 4.88322 2.17821 0
M  V30 1215 H 109.298 3.23029 2.62599 0
M  V30 1216 H 109.831 3.83958 1.04024 0
M  V30 1217 H 106.57 6.55065 -0.238721 0
M  V30 1218 H 106.09 5.85004 1.324 0
M  V30 1219 H 107.769 6.38258 1.05999 0
M  V30 1220 N 107.901 -0.206675 1.56239 0
M  V30 1221 C 108.831 -1.25909 1.96645 0
M  V30 1222 C 109.812 -1.48097 0.836734 0
M  V30 1223 O 110.997 -1.6003 1.10019 0
M  V30 1224 C 108.127 -2.6058 2.29599 0
M  V30 1225 C 107.081 -2.53024 3.452 0
M  V30 1226 C 106.407 -3.91861 3.63798 0
M  V30 1227 C 107.707 -2.06524 4.79734 0
M  V30 1228 H 109.401 -0.923369 2.84806 0
M  V30 1229 H 106.947 -0.442735 1.37025 0
M  V30 1230 H 108.9 -3.34375 2.56459 0
M  V30 1231 H 107.624 -2.95869 1.38307 0
M  V30 1232 H 106.283 -1.81684 3.18412 0
M  V30 1233 H 105.931 -4.24483 2.69857 0
M  V30 1234 H 105.631 -3.87683 4.4156 0
M  V30 1235 H 107.155 -4.67296 3.93022 0
M  V30 1236 H 108.569 -2.70072 5.05702 0
M  V30 1237 H 106.966 -2.13374 5.60885 0
M  V30 1238 H 108.036 -1.01802 4.74093 0
M  V30 1239 N 109.379 -1.50304 -0.473955 0
M  V30 1240 C 110.609 -1.64663 -1.24778 0
M  V30 1241 C 111.017 -0.328174 -1.86332 0
M  V30 1242 O 110.36 0.699536 -1.69859 0
M  V30 1243 C 110.422 -2.6778 -2.39863 0
M  V30 1244 C 110.086 -4.11413 -1.98969 0
M  V30 1245 C 111.083 -4.97372 -1.51385 0
M  V30 1246 C 108.768 -4.57312 -2.07777 0
M  V30 1247 C 110.762 -6.27277 -1.13148 0
M  V30 1248 C 108.449 -5.87223 -1.69152 0
M  V30 1249 C 109.447 -6.72031 -1.21915 0
M  V30 1250 O 109.135 -7.99518 -0.838237 0
M  V30 1251 H 108.867 -0.556602 -0.383627 0
M  V30 1252 H 111.421 -1.9726 -0.572491 0
M  V30 1253 H 109.651 -2.30419 -3.10554 0
M  V30 1254 H 111.34 -2.71388 -3.01833 0
M  V30 1255 H 112.106 -4.63128 -1.44004 0
M  V30 1256 H 107.985 -3.91449 -2.43493 0
M  V30 1257 H 111.529 -6.93425 -0.762077 0
M  V30 1258 H 107.426 -6.20989 -1.76191 0
M  V30 1259 H 108.194 -8.12764 -0.967339 0
M  V30 1260 N 110.857 0.726932 -1.39834 0
M  V30 1261 C 112.134 1.47902 -1.28001 0
M  V30 1262 C 112.514 2.1083 0.106789 0
M  V30 1263 O 111.862 1.99242 1.11869 0
M  V30 1264 C 112.072 2.52392 -2.41038 0
M  V30 1265 C 113.42 3.18546 -2.80737 0
M  V30 1266 O 114.444 2.62708 -2.40547 0
M  V30 1267 O 113.303 4.19604 -3.50135 0
M  V30 1268 H 110.397 0.657163 -0.502062 0
M  V30 1269 H 112.943 0.760071 -1.51727 0
M  V30 1270 H 111.715 2.04329 -3.33715 0
M  V30 1271 H 111.338 3.31837 -2.19021 0
M  V30 1272 N 112.336 1.25143 0.95797 0
M  V30 1273 C 113.613 1.00472 1.67823 0
M  V30 1274 C 113.993 -0.470056 2.058 0
M  V30 1275 O 113.341 -1.44663 1.76875 0
M  V30 1276 C 113.551 1.9372 2.90299 0
M  V30 1277 C 114.899 2.21371 3.62326 0
M  V30 1278 O 115.923 1.91451 3.00375 0
M  V30 1279 O 114.782 2.72231 4.7387 0
M  V30 1280 H 111.876 0.380752 0.734137 0
M  V30 1281 H 114.422 1.36283 1.01119 0
M  V30 1282 H 113.194 2.93316 2.59001 0
M  V30 1283 H 112.817 1.58286 3.64735 0
M  V30 1284 N 113.814 -1.1601 1.06675 0
M  V30 1285 C 114.746 -2.20115 0.638921 0
M  V30 1286 C 115.759 -1.59916 -0.305057 0
M  V30 1287 O 116.948 -1.78245 -0.0954446 0
M  V30 1288 C 114.048 -3.38798 -0.0830083 0
M  V30 1289 C 113.221 -4.2855 0.875426 0
M  V30 1290 C 112.28 -5.25849 0.192042 0
M  V30 1291 O 111.306 -5.63102 0.830921 0
M  V30 1292 N 112.508 -5.70648 -1.06493 0
M  V30 1293 H 115.273 -2.57439 1.53444 0
M  V30 1294 H 112.834 -1.31057 0.950557 0
M  V30 1295 H 114.826 -4.00936 -0.550685 0
M  V30 1296 H 113.396 -2.99947 -0.880386 0
M  V30 1297 H 112.616 -3.63617 1.52238 0
M  V30 1298 H 113.904 -4.85393 1.52548 0
M  V30 1299 H 113.302 -5.42482 -1.60405 0
M  V30 1300 H 111.859 -6.34859 -1.47641 0
M  V30 1301 N 115.292 -0.849877 -1.32721 0
M  V30 1302 C 116.54 -0.450032 -1.97026 0
M  V30 1303 C 116.861 0.996604 -1.67609 0
M  V30 1304 O 116.131 1.6958 -0.980786 0
M  V30 1305 H 114.711 -0.163426 -0.728904 0
M  V30 1306 H 117.373 -1.08526 -1.6189 0
M  V30 1307 H 116.469 -0.591146 -3.0645 0
M  V30 1308 N 116.77 1.45427 -0.607355 0
M  V30 1309 C 117.718 2.32269 0.12411 0
M  V30 1310 C 118.712 1.45955 0.859854 0
M  V30 1311 O 119.918 1.6244 0.775447 0
M  V30 1312 H 116.293 0.749691 0.0588839 0
M  V30 1313 H 118.264 2.91743 -0.626762 0
M  V30 1314 C 117.013 3.29567 1.1082 0
M  V30 1315 H 116.336 3.95978 0.551492 0
M  V30 1316 H 117.776 3.93061 1.58995 0
M  V30 1317 C 116.235 2.56722 2.18164 0
M  V30 1318 O 116.765 2.34842 3.25902 0
M  V30 1319 N 114.971 2.16861 1.93442 0
M  V30 1320 H 114.518 2.34855 1.05834 0
M  V30 1321 H 114.476 1.68444 2.65469 0
M  V30 1322 N 118.248 0.346503 1.53744 0
M  V30 1323 C 119.495 -0.249104 2.00962 0
M  V30 1324 C 119.823 -1.5032 1.23426 0
M  V30 1325 O 119.078 -1.93217 0.310761 0
M  V30 1326 C 119.377 -0.605809 3.52228 0
M  V30 1327 C 119.043 0.551747 4.47512 0
M  V30 1328 C 117.705 0.86941 4.73281 0
M  V30 1329 C 120.057 1.32818 5.03993 0
M  V30 1330 C 117.385 1.96582 5.52786 0
M  V30 1331 C 119.737 2.41486 5.84694 0
M  V30 1332 C 118.401 2.73808 6.08757 0
M  V30 1333 H 117.671 -0.0911538 0.735372 0
M  V30 1334 H 120.318 0.475027 1.85515 0
M  V30 1335 H 118.623 -1.4107 3.65522 0
M  V30 1336 H 120.32 -1.07858 3.86222 0
M  V30 1337 H 116.91 0.294102 4.2759 0
M  V30 1338 H 121.094 1.09602 4.84047 0
M  V30 1339 H 116.35 2.22045 5.69654 0
M  V30 1340 H 120.524 3.02078 6.27473 0
M  V30 1341 H 118.151 3.58892 6.7015 0
M  V30 1342 N 119.726 -1.57421 0.075193 0
M  V30 1343 C 120.659 -2.08528 -0.926904 0
M  V30 1344 C 121.637 -0.991171 -1.28898 0
M  V30 1345 O 122.821 -1.26479 -1.39769 0
M  V30 1346 C 119.948 -2.54576 -2.23402 0
M  V30 1347 C 118.994 -3.75454 -2.02327 0
M  V30 1348 S 119.827 -5.19989 -1.27951 0
M  V30 1349 C 120.983 -5.69372 -2.59935 0
M  V30 1350 H 121.216 -2.932 -0.492048 0
M  V30 1351 H 118.749 -1.53785 -0.137651 0
M  V30 1352 H 120.707 -2.81767 -2.98526 0
M  V30 1353 H 119.368 -1.70166 -2.64012 0
M  V30 1354 H 118.561 -4.05675 -2.99071 0
M  V30 1355 H 118.163 -3.48654 -1.35339 0
M  V30 1356 H 120.455 -5.76424 -3.56008 0
M  V30 1357 H 121.398 -6.68207 -2.34319 0
M  V30 1358 H 121.806 -4.97205 -2.67296 0
M  V30 1359 N 121.204 0.198386 -1.56346 0
M  V30 1360 C 122.481 0.944982 -1.71258 0
M  V30 1361 C 122.861 2.0151 -0.629048 0
M  V30 1362 O 122.209 2.25639 0.360473 0
M  V30 1363 C 122.419 1.5344 -3.1346 0
M  V30 1364 C 123.767 2.01778 -3.73591 0
M  V30 1365 O 124.791 1.63288 -3.16568 0
M  V30 1366 O 123.65 2.72594 -4.73661 0
M  V30 1367 H 120.744 0.442939 -0.69838 0
M  V30 1368 H 123.29 0.188342 -1.68652 0
M  V30 1369 H 122.062 0.762869 -3.83792 0
M  V30 1370 H 121.685 2.35596 -3.20282 0
M  V30 1371 N 122.682 1.50554 0.465978 0
M  V30 1372 C 123.63 1.70324 1.58406 0
M  V30 1373 C 124.624 0.569139 1.59553 0
M  V30 1374 O 125.83 0.749776 1.63641 0
M  V30 1375 H 122.205 0.537688 0.525734 0
M  V30 1376 H 124.176 2.64104 1.38894 0
M  V30 1377 C 122.925 1.81928 2.96307 0
M  V30 1378 H 122.248 2.68586 2.96144 0
M  V30 1379 H 123.688 1.99784 3.73982 0
M  V30 1380 C 122.147 0.572095 3.32007 0
M  V30 1381 O 122.677 -0.286416 4.00678 0
M  V30 1382 N 120.883 0.424606 2.87481 0
M  V30 1383 H 120.43 1.12427 2.31771 0
M  V30 1384 H 120.388 -0.408697 3.11732 0
M  V30 1385 N 124.16 -0.719506 1.40217 0
M  V30 1386 C 125.406 -1.48152 1.38488 0
M  V30 1387 C 125.739 -1.94195 -0.0141867 0
M  V30 1388 O 125.014 -1.67884 -0.982096 0
M  V30 1389 C 125.297 -2.71035 2.37091 0
M  V30 1390 C 125.15 -2.30912 3.86005 0
M  V30 1391 C 126.469 -3.73182 2.33288 0
M  V30 1392 H 123.588 -0.537395 0.504357 0
M  V30 1393 H 126.23 -0.821472 1.71324 0
M  V30 1394 H 124.38 -3.27352 2.0922 0
M  V30 1395 H 126.052 -1.80107 4.24687 0
M  V30 1396 H 124.295 -1.62958 4.02029 0
M  V30 1397 H 124.966 -3.18978 4.50508 0
M  V30 1398 H 127.442 -3.26485 2.57966 0
M  V30 1399 H 126.318 -4.56806 3.04334 0
M  V30 1400 H 126.579 -4.21202 1.34317 0
M  V30 1401 N 125.638 -1.25649 -0.95132 0
M  V30 1402 C 126.887 -1.09988 -1.69073 0
M  V30 1403 C 127.2 0.358355 -1.92289 0
M  V30 1404 O 128.406 0.635466 -2.63958 0
M  V30 1405 C 126.862 -1.92012 -3.044 0
M  V30 1406 C 126.47 -3.42347 -2.88968 0
M  V30 1407 C 128.214 -1.8493 -3.82101 0
M  V30 1408 C 126.121 -4.16655 -4.19705 0
M  V30 1409 H 125.051 -0.407993 -0.63408 0
M  V30 1410 H 127.702 -1.49873 -1.05879 0
M  V30 1411 H 126.084 -1.44952 -3.68517 0
M  V30 1412 H 127.258 -3.97104 -2.33762 0
M  V30 1413 H 125.573 -3.50557 -2.24719 0
M  V30 1414 H 128.17 -2.37739 -4.78941 0
M  V30 1415 H 128.513 -0.817883 -4.08187 0
M  V30 1416 H 129.046 -2.29758 -3.2474 0
M  V30 1417 H 125.785 -5.20224 -3.98807 0
M  V30 1418 H 125.305 -3.66681 -4.74663 0
M  V30 1419 H 126.984 -4.24551 -4.88227 0
M  V30 1420 N 127.117 1.15442 -1.07289 0
M  V30 1421 C 128.345 1.90096 -0.81676 0
M  V30 1422 C 128.76 1.7798 0.629966 0
M  V30 1423 O 128.117 1.1313 1.43206 0
M  V30 1424 C 128.168 3.40466 -1.21512 0
M  V30 1425 O 127.889 3.52232 -2.60508 0
M  V30 1426 C 129.39 4.32145 -0.988198 0
M  V30 1427 H 126.61 0.602495 -0.295366 0
M  V30 1428 H 129.154 1.4627 -1.42918 0
M  V30 1429 H 127.309 3.81958 -0.647039 0
M  V30 1430 H 127.723 4.45549 -2.76742 0
M  V30 1431 H 129.197 5.36072 -1.31645 0
M  V30 1432 H 129.674 4.39135 0.0755063 0
M  V30 1433 H 130.28 3.96395 -1.54115 0
M  V30 1434 N 128.595 0.856903 1.32268 0
M  V30 1435 C 130.011 0.547061 1.49931 0
M  V30 1436 C 130.211 -0.921781 1.7918 0
M  V30 1437 O 129.267 -1.70469 1.8627 0
M  V30 1438 C 130.58 1.43599 2.64196 0
M  V30 1439 C 132.128 1.43665 2.78081 0
M  V30 1440 C 132.603 2.31085 3.95428 0
M  V30 1441 N 134.094 2.28893 4.02694 0
M  V30 1442 C 134.829 2.93262 4.92732 0
M  V30 1443 N 134.325 3.66751 5.87763 0
M  V30 1444 N 136.118 2.82638 4.85873 0
M  V30 1445 H 128.269 1.8075 1.11549 0
M  V30 1446 H 130.532 0.772144 0.549997 0
M  V30 1447 H 130.238 2.48058 2.49319 0
M  V30 1448 H 130.112 1.12502 3.60032 0
M  V30 1449 H 132.499 0.399701 2.92381 0
M  V30 1450 H 132.58 1.7878 1.82952 0
M  V30 1451 H 132.224 3.34849 3.81888 0
M  V30 1452 H 132.154 1.93302 4.89839 0
M  V30 1453 H 134.645 1.75466 3.34694 0
M  V30 1454 H 134.958 4.13027 6.53168 0
M  V30 1455 H 133.303 3.70859 5.87783 0
M  V30 1456 H 136.494 2.24774 4.10602 0
M  V30 1457 H 136.667 3.33084 5.55841 0
M  V30 1458 N 130.073 -1.45103 0.615059 0
M  V30 1459 C 130.983 -2.34382 -0.101034 0
M  V30 1460 C 131.999 -1.51681 -0.852585 0
M  V30 1461 O 133.175 -1.8446 -0.808484 0
M  V30 1462 C 130.24 -3.29417 -1.08099 0
M  V30 1463 C 129.301 -4.28025 -0.330577 0
M  V30 1464 C 128.534 -5.1852 -1.26385 0
M  V30 1465 O 128.757 -5.12598 -2.50198 0
M  V30 1466 O 127.691 -5.97122 -0.756866 0
M  V30 1467 H 131.517 -2.97033 0.632855 0
M  V30 1468 H 129.102 -1.4461 0.375293 0
M  V30 1469 H 130.984 -3.87958 -1.6452 0
M  V30 1470 H 129.659 -2.69321 -1.79577 0
M  V30 1471 H 128.566 -3.73078 0.276283 0
M  V30 1472 H 129.899 -4.90997 0.343866 0
M  V30 1473 N 131.551 -0.354651 -1.53558 0
M  V30 1474 C 132.483 0.5315 -2.22952 0
M  V30 1475 C 133.496 1.05503 -1.23988 0
M  V30 1476 O 134.685 0.963279 -1.50277 0
M  V30 1477 C 131.785 1.74538 -2.90499 0
M  V30 1478 C 130.958 1.35524 -4.15875 0
M  V30 1479 C 130.017 2.42999 -4.66731 0
M  V30 1480 O 129.043 2.05844 -5.30676 0
M  V30 1481 N 130.245 3.74423 -4.43608 0
M  V30 1482 H 133.01 -0.0628615 -2.99634 0
M  V30 1483 H 130.571 -0.179302 -1.60904 0
M  V30 1484 H 132.563 2.45892 -3.21433 0
M  V30 1485 H 131.133 2.24686 -2.17336 0
M  V30 1486 H 130.353 0.471998 -3.91364 0
M  V30 1487 H 131.641 1.07071 -4.97406 0
M  V30 1488 H 131.039 4.07391 -3.92491 0
M  V30 1489 H 129.596 4.41913 -4.7912 0
M  V30 1490 N 133.029 1.57378 -0.0835403 0
M  V30 1491 C 134.445 1.57246 0.273109 0
M  V30 1492 C 134.645 1.09385 1.69225 0
M  V30 1493 O 133.701 0.765051 2.40631 0
M  V30 1494 C 135.014 3.00614 0.0720628 0
M  V30 1495 C 136.562 3.12684 0.1407 0
M  V30 1496 C 137.037 4.57989 -0.0322094 0
M  V30 1497 N 138.528 4.63194 0.0230085 0
M  V30 1498 C 139.263 5.73335 -0.0861941 0
M  V30 1499 N 138.759 6.9235 -0.24958 0
M  V30 1500 N 140.552 5.62093 -0.0282886 0
M  V30 1501 H 132.703 1.86801 -1.0109 0
M  V30 1502 H 134.966 0.861687 -0.395222 0
M  V30 1503 H 134.672 3.39786 -0.907662 0
M  V30 1504 H 134.546 3.68193 0.81936 0
M  V30 1505 H 136.933 2.73391 1.11092 0
M  V30 1506 H 137.014 2.47719 -0.637896 0
M  V30 1507 H 136.658 4.97973 -0.999247 0
M  V30 1508 H 136.588 5.21 0.765937 0
M  V30 1509 H 139.079 3.77613 0.14722 0
M  V30 1510 H 139.392 7.72117 -0.324733 0
M  V30 1511 H 137.737 6.94415 -0.285097 0
M  V30 1512 H 140.928 4.67997 0.0981408 0
M  V30 1513 H 141.101 6.47895 -0.116845 0
M  V30 1514 N 134.507 -0.190092 1.56449 0
M  V30 1515 C 135.737 -0.92443 1.84764 0
M  V30 1516 C 136.145 -1.77146 0.664529 0
M  V30 1517 O 135.488 -1.79812 -0.375957 0
M  V30 1518 C 135.55 -1.86651 3.07248 0
M  V30 1519 C 135.214 -1.20094 4.40938 0
M  V30 1520 C 136.211 -0.575445 5.16706 0
M  V30 1521 C 133.896 -1.2033 4.87674 0
M  V30 1522 C 135.89 0.0388111 6.37388 0
M  V30 1523 C 133.577 -0.585214 6.08291 0
M  V30 1524 C 134.575 0.0347578 6.82991 0
M  V30 1525 O 134.263 0.643147 8.01323 0
M  V30 1526 H 133.995 -0.274974 0.617548 0
M  V30 1527 H 136.549 -0.200788 2.04416 0
M  V30 1528 H 134.779 -2.62998 2.83494 0
M  V30 1529 H 136.468 -2.46907 3.22167 0
M  V30 1530 H 137.234 -0.565728 4.81689 0
M  V30 1531 H 133.113 -1.67526 4.29484 0
M  V30 1532 H 136.657 0.523329 6.95634 0
M  V30 1533 H 132.554 -0.592451 6.42775 0
M  V30 1534 H 133.322 0.540545 8.16713 0
M  V30 1535 N 135.985 -1.50799 -0.457987 0
M  V30 1536 C 137.231 -1.62683 -1.21088 0
M  V30 1537 C 137.564 -0.332268 -1.91336 0
M  V30 1538 O 136.839 0.667043 -1.82704 0
M  V30 1539 C 137.122 -2.81615 -2.24422 0
M  V30 1540 C 136.975 -4.20989 -1.58392 0
M  V30 1541 C 138.294 -2.96085 -3.2561 0
M  V30 1542 H 135.413 -0.592087 -0.438864 0
M  V30 1543 H 138.055 -1.83225 -0.50286 0
M  V30 1544 H 136.205 -2.64231 -2.84806 0
M  V30 1545 H 137.877 -4.49994 -1.01504 0
M  V30 1546 H 136.12 -4.24641 -0.886704 0
M  V30 1547 H 136.791 -5.0016 -2.33547 0
M  V30 1548 H 139.267 -3.12042 -2.75262 0
M  V30 1549 H 138.143 -3.80902 -3.95228 0
M  V30 1550 H 138.404 -2.0726 -3.90507 0
M  V30 1551 N 137.463 0.71206 -1.40597 0
M  V30 1552 C 138.709 1.47416 -1.39271 0
M  V30 1553 C 139.042 1.942 0.00388791 0
M  V30 1554 O 138.317 1.68403 0.973179 0
M  V30 1555 C 138.6 2.69774 -2.38525 0
M  V30 1556 C 138.453 2.28861 -3.87224 0
M  V30 1557 C 139.772 3.71939 -2.35264 0
M  V30 1558 H 136.891 0.534713 -0.5072 0
M  V30 1559 H 139.533 0.812375 -1.71757 0
M  V30 1560 H 137.683 3.26238 -2.10953 0
M  V30 1561 H 139.355 1.77852 -4.25636 0
M  V30 1562 H 137.598 1.60824 -4.02887 0
M  V30 1563 H 138.269 3.16584 -4.52193 0
M  V30 1564 H 140.745 3.25113 -2.59694 0
M  V30 1565 H 139.621 4.55186 -3.06753 0
M  V30 1566 H 139.882 4.20484 -1.36549 0
M  V30 1567 N 138.941 1.26152 0.944643 0
M  V30 1568 C 139.888 1.07408 2.04285 0
M  V30 1569 C 140.858 -0.0198413 1.66088 0
M  V30 1570 O 142.043 0.139264 1.90291 0
M  V30 1571 C 139.183 0.70945 3.37729 0
M  V30 1572 C 138.296 1.87926 3.88983 0
M  V30 1573 C 137.431 1.45807 5.10797 0
M  V30 1574 C 136.47 2.5964 5.54305 0
M  V30 1575 N 135.607 2.18226 6.67324 0
M  V30 1576 H 140.447 2.01389 2.1965 0
M  V30 1577 H 137.984 1.00275 1.07626 0
M  V30 1578 H 139.942 0.478948 4.14442 0
M  V30 1579 H 138.572 -0.193389 3.2222 0
M  V30 1580 H 137.624 2.22279 3.08701 0
M  V30 1581 H 138.936 2.73377 4.17213 0
M  V30 1582 H 138.09 1.18781 5.94959 0
M  V30 1583 H 136.829 0.574414 4.84305 0
M  V30 1584 H 135.834 2.87399 4.68702 0
M  V30 1585 H 137.059 3.48599 5.828 0
M  V30 1586 H 135.005 1.3229 6.42523 0
M  V30 1587 H 134.922 2.97221 6.95123 0
M  V30 1588 H 136.19 1.94403 7.54869 0
M  V30 1589 N 140.419 -1.14872 1.07899 0
M  V30 1590 C 141.644 -1.90202 0.826926 0
M  V30 1591 C 142.069 -1.77774 -0.614664 0
M  V30 1592 O 141.427 -1.11431 -1.43013 0
M  V30 1593 C 141.475 -3.38352 1.24702 0
M  V30 1594 O 140.579 -4.10497 0.39575 0
M  V30 1595 H 139.92 -0.591968 0.300782 0
M  V30 1596 H 142.45 -1.45437 1.43907 0
M  V30 1597 H 142.46 -3.89156 1.22563 0
M  V30 1598 H 141.135 -3.46715 2.29698 0
M  V30 1599 H 139.712 -3.69796 0.480117 0
M  V30 1600 N 141.898 -0.863906 -1.31812 0
M  V30 1601 C 142.808 -0.318461 -2.32428 0
M  V30 1602 C 143.824 0.568496 -1.64451 0
M  V30 1603 O 145 0.46666 -1.95919 0
M  V30 1604 C 142.065 0.476355 -3.43412 0
M  V30 1605 C 141.126 -0.43784 -4.27061 0
M  V30 1606 C 140.359 0.319138 -5.32745 0
M  V30 1607 O 140.582 1.54799 -5.48993 0
M  V30 1608 O 139.516 -0.319861 -6.01049 0
M  V30 1609 H 143.342 -1.15229 -2.80991 0
M  V30 1610 H 140.927 -0.627103 -1.35602 0
M  V30 1611 H 142.809 0.927156 -4.11074 0
M  V30 1612 H 141.484 1.28683 -2.97022 0
M  V30 1613 H 140.391 -0.937013 -3.62175 0
M  V30 1614 H 141.724 -1.21375 -4.77 0
M  V30 1615 N 143.376 1.44774 -0.622745 0
M  V30 1616 C 144.286 2.34433 0.0886031 0
M  V30 1617 C 145.302 1.52131 0.844529 0
M  V30 1618 O 146.478 1.84886 0.798691 0
M  V30 1619 C 143.543 3.29986 1.0635 0
M  V30 1620 C 142.604 4.28195 0.307873 0
M  V30 1621 C 141.837 5.19183 1.23633 0
M  V30 1622 O 142.06 5.13918 2.47476 0
M  V30 1623 O 140.994 5.97515 0.725189 0
M  V30 1624 H 144.82 2.96693 -0.648599 0
M  V30 1625 H 142.405 1.44408 -0.382957 0
M  V30 1626 H 144.287 3.88825 1.6246 0
M  V30 1627 H 142.962 2.70269 1.78146 0
M  V30 1628 H 141.869 3.72927 -0.296064 0
M  V30 1629 H 143.202 4.90808 -0.3699 0
M  V30 1630 N 144.854 0.36279 1.53368 0
M  V30 1631 C 146.103 -0.22888 2.00397 0
M  V30 1632 C 146.416 -1.50096 1.25421 0
M  V30 1633 O 147.622 -2.17106 1.63025 0
M  V30 1634 C 146.078 -0.458417 3.56969 0
M  V30 1635 C 145.686 0.798877 4.4082 0
M  V30 1636 C 147.43 -1.00789 4.12361 0
M  V30 1637 C 145.337 0.539078 5.88938 0
M  V30 1638 H 144.267 -0.089305 0.748693 0
M  V30 1639 H 146.918 0.481099 1.77081 0
M  V30 1640 H 145.3 -1.22959 3.76427 0
M  V30 1641 H 146.474 1.57262 4.33134 0
M  V30 1642 H 144.789 1.27137 3.96516 0
M  V30 1643 H 147.386 -1.21754 5.20653 0
M  V30 1644 H 147.729 -1.9692 3.66781 0
M  V30 1645 H 148.262 -0.296961 3.9669 0
M  V30 1646 H 145.001 1.47064 6.3879 0
M  V30 1647 H 144.521 -0.196222 5.99479 0
M  V30 1648 H 146.2 0.163542 6.46793 0
M  V30 1649 N 146.332 -1.57332 0.0918853 0
M  V30 1650 C 147.743 -1.81496 -0.437739 0
M  V30 1651 C 148.094 -1.00727 -1.6837 0
M  V30 1652 O 147.219 -0.235694 -2.15113 0
M  V30 1653 C 147.814 -3.29197 -0.800939 0
M  V30 1654 C 146.373 -3.54136 -1.27532 0
M  V30 1655 C 145.52 -2.75979 -0.270392 0
M  V30 1656 H 148.471 -1.55494 0.317366 0
M  V30 1657 H 148.492 -3.42344 -1.66074 0
M  V30 1658 H 148.004 -3.87955 0.106078 0
M  V30 1659 H 146.105 -3.00705 -2.20016 0
M  V30 1660 H 146.218 -4.62792 -1.23938 0
M  V30 1661 H 144.582 -2.43349 -0.751872 0
M  V30 1662 H 145.365 -3.37484 0.629248 0
M  V30 1663 N 147.81 0.181792 -1.56548 0
M  V30 1664 C 149.087 0.926765 -1.72251 0
M  V30 1665 C 149.467 2.00831 -0.650386 0
M  V30 1666 O 148.815 2.26008 0.336521 0
M  V30 1667 C 149.025 1.50106 -3.1507 0
M  V30 1668 C 150.373 1.97805 -3.75711 0
M  V30 1669 O 151.397 1.59922 -3.18282 0
M  V30 1670 O 150.256 2.67555 -4.76525 0
M  V30 1671 H 147.35 0.435506 -0.703039 0
M  V30 1672 H 149.896 0.170443 -1.68842 0
M  V30 1673 H 148.668 0.72212 -3.84579 0
M  V30 1674 H 148.291 2.32186 -3.22763 0
M  V30 1675 N 149.288 1.51039 0.449983 0
M  V30 1676 C 150.236 1.71995 1.5659 0
M  V30 1677 C 151.23 0.586029 1.5894 0
M  V30 1678 O 152.436 0.76709 1.62837 0
M  V30 1679 H 148.811 0.543233 0.520001 0
M  V30 1680 H 150.782 2.65562 1.36085 0
M  V30 1681 C 149.531 1.8506 2.9436 0
M  V30 1682 H 148.854 2.71712 2.93279 0
M  V30 1683 H 150.294 2.0374 3.71842 0
M  V30 1684 C 148.753 0.607277 3.31382 0
M  V30 1685 O 149.283 -0.243903 4.00959 0
M  V30 1686 N 147.489 0.455073 2.87015 0
M  V30 1687 H 147.036 1.14879 2.30566 0
M  V30 1688 H 146.994 -0.375611 3.12148 0
M  V30 1689 N 150.766 -0.704594 1.40972 0
M  V30 1690 C 151.696 -1.83124 1.44872 0
M  V30 1691 C 152.677 -1.67281 0.30838 0
M  V30 1692 O 153.862 -1.87149 0.518556 0
M  V30 1693 C 150.992 -3.21181 1.32136 0
M  V30 1694 C 149.946 -3.51714 2.43888 0
M  V30 1695 C 149.272 -4.89032 2.16222 0
M  V30 1696 C 150.572 -3.516 3.86232 0
M  V30 1697 H 152.266 -1.80117 2.39161 0
M  V30 1698 H 149.812 -0.865145 1.15114 0
M  V30 1699 H 151.765 -3.99702 1.33479 0
M  V30 1700 H 150.489 -3.24791 0.343279 0
M  V30 1701 H 149.148 -2.75539 2.41813 0
M  V30 1702 H 148.796 -4.89256 1.16778 0
M  V30 1703 H 148.496 -5.10426 2.911 0
M  V30 1704 H 150.02 -5.69873 2.19265 0
M  V30 1705 H 151.434 -4.2014 3.9007 0
M  V30 1706 H 149.831 -3.84523 4.60719 0
M  V30 1707 H 150.901 -2.50757 4.15029 0
M  V30 1708 N 152.244 -1.26651 -0.937939 0
M  V30 1709 C 153.191 -1.0849 -2.03712 0
M  V30 1710 C 154.161 0.011033 -1.66096 0
M  V30 1711 O 155.346 -0.149353 -1.90215 0
M  V30 1712 C 152.486 -0.72735 -3.37348 0
M  V30 1713 C 151.599 -1.89986 -3.87981 0
M  V30 1714 C 150.734 -1.48513 -5.10017 0
M  V30 1715 C 149.773 -2.62575 -5.5292 0
M  V30 1716 N 148.91 -2.21762 -6.66158 0
M  V30 1717 H 153.75 -2.02551 -2.18579 0
M  V30 1718 H 151.287 -1.00844 -1.07093 0
M  V30 1719 H 153.245 -0.50092 -4.14182 0
M  V30 1720 H 151.875 0.176298 -3.22318 0
M  V30 1721 H 150.927 -2.23913 -3.07518 0
M  V30 1722 H 152.239 -2.75586 -4.15757 0
M  V30 1723 H 151.393 -1.21934 -5.94321 0
M  V30 1724 H 150.132 -0.60009 -4.83994 0
M  V30 1725 H 149.137 -2.8988 -4.67172 0
M  V30 1726 H 150.362 -3.51685 -5.80943 0
M  V30 1727 H 148.308 -1.35696 -6.41812 0
M  V30 1728 H 148.225 -3.00903 -6.93537 0
M  V30 1729 H 149.493 -1.98403 -7.53828 0
M  V30 1730 N 153.722 1.14298 -1.08507 0
M  V30 1731 C 154.669 2.19414 -0.715965 0
M  V30 1732 C 155.639 1.63399 0.298326 0
M  V30 1733 O 156.824 1.89929 0.182101 0
M  V30 1734 C 153.964 3.44845 -0.132534 0
M  V30 1735 C 153.077 4.15007 -1.19973 0
M  V30 1736 C 152.212 5.28024 -0.580048 0
M  V30 1737 C 151.251 5.9002 -1.62921 0
M  V30 1738 N 150.388 6.94485 -1.03125 0
M  V30 1739 H 155.228 2.50336 -1.61666 0
M  V30 1740 H 152.765 1.2293 -0.807882 0
M  V30 1741 H 154.723 4.16601 0.223454 0
M  V30 1742 H 153.353 3.14403 0.731467 0
M  V30 1743 H 152.405 3.41629 -1.67313 0
M  V30 1744 H 153.717 4.57178 -1.99473 0
M  V30 1745 H 152.871 6.06455 -0.172364 0
M  V30 1746 H 151.61 4.87076 0.246603 0
M  V30 1747 H 150.615 5.10291 -2.04654 0
M  V30 1748 H 151.84 6.33042 -2.45835 0
M  V30 1749 H 149.786 6.55612 -0.225711 0
M  V30 1750 H 149.703 7.35148 -1.76334 0
M  V30 1751 H 150.971 7.7679 -0.649458 0
M  V30 1752 N 155.201 0.870884 1.31352 0
M  V30 1753 C 156.164 0.332243 2.26779 0
M  V30 1754 C 157.164 -0.517302 1.52252 0
M  V30 1755 O 158.354 -0.326477 1.71113 0
M  V30 1756 C 155.486 -0.528066 3.36785 0
M  V30 1757 H 156.679 1.17469 2.75937 0
M  V30 1758 H 154.232 0.64655 1.423 0
M  V30 1759 H 154.967 -1.39167 2.92922 0
M  V30 1760 H 154.752 0.0802582 3.92018 0
M  V30 1761 H 156.242 -0.897179 4.07849 0
M  V30 1762 N 156.679 -1.44442 0.630414 0
M  V30 1763 C 157.926 -2.02052 0.134617 0
M  V30 1764 C 158.254 -1.49576 -1.24327 0
M  V30 1765 O 157.509 -0.669806 -1.83881 0
M  V30 1766 C 157.808 -3.57332 0.0697835 0
M  V30 1767 C 157.474 -4.29058 1.38635 0
M  V30 1768 C 156.136 -4.4837 1.74694 0
M  V30 1769 C 158.488 -4.69872 2.25543 0
M  V30 1770 C 155.816 -5.05756 2.97369 0
M  V30 1771 C 158.168 -5.28616 3.47487 0
M  V30 1772 C 156.832 -5.46147 3.8377 0
M  V30 1773 H 156.102 -0.739361 0.0492598 0
M  V30 1774 H 158.749 -1.73217 0.816586 0
M  V30 1775 H 157.054 -3.85577 -0.695553 0
M  V30 1776 H 158.751 -3.99637 -0.330344 0
M  V30 1777 H 155.341 -4.14357 1.09574 0
M  V30 1778 H 159.525 -4.54666 1.98979 0
M  V30 1779 H 154.781 -5.17515 3.25558 0
M  V30 1780 H 158.955 -5.59192 4.15063 0
M  V30 1781 H 156.582 -5.9038 4.7891 0
M  V30 1782 N 158.157 -0.370918 -1.53173 0
M  V30 1783 C 159.403 0.217423 -2.01631 0
M  V30 1784 C 159.736 1.47983 -1.25756 0
M  V30 1785 O 159.011 1.91274 -0.352764 0
M  V30 1786 C 159.294 0.503982 -3.56556 0
M  V30 1787 C 159.147 -0.77243 -4.43118 0
M  V30 1788 C 160.466 1.30234 -4.20389 0
M  V30 1789 H 157.585 0.0775486 -0.732909 0
M  V30 1790 H 160.227 -0.496863 -1.83388 0
M  V30 1791 H 158.377 1.11248 -3.72231 0
M  V30 1792 H 160.049 -1.4098 -4.39229 0
M  V30 1793 H 158.292 -1.39167 -4.10871 0
M  V30 1794 H 158.963 -0.526815 -5.4948 0
M  V30 1795 H 161.439 0.787546 -4.08579 0
M  V30 1796 H 160.315 1.47158 -5.28806 0
M  V30 1797 H 160.576 2.31237 -3.76805 0
M  V30 1798 N 159.635 1.57281 -0.100228 0
M  V30 1799 C 160.598 2.13158 0.842398 0
M  V30 1800 C 161.598 1.06202 1.20738 0
M  V30 1801 O 162.788 1.32066 1.13597 0
M  V30 1802 C 159.92 2.65639 2.13655 0
M  V30 1803 H 161.113 2.97766 0.357114 0
M  V30 1804 H 158.666 1.5559 0.148823 0
M  V30 1805 H 159.401 1.84566 2.66657 0
M  V30 1806 H 159.186 3.43844 1.88451 0
M  V30 1807 H 160.676 3.08846 2.81077 0
M  V30 1808 N 161.113 -0.173488 1.56642 0
M  V30 1809 C 162.362 -0.888758 1.81063 0
M  V30 1810 C 162.675 -1.83506 0.67712 0
M  V30 1811 O 163.881 -2.59254 0.806206 0
M  V30 1812 C 162.337 -1.63091 3.20826 0
M  V30 1813 C 161.945 -0.728357 4.4204 0
M  V30 1814 C 163.689 -2.33454 3.54541 0
M  V30 1815 C 161.596 -1.47062 5.72823 0
M  V30 1816 H 160.526 -0.335618 0.675186 0
M  V30 1817 H 163.177 -0.141712 1.82952 0
M  V30 1818 H 161.559 -2.42263 3.13248 0
M  V30 1819 H 162.733 0.0262449 4.60793 0
M  V30 1820 H 161.048 -0.134492 4.16183 0
M  V30 1821 H 163.645 -2.89578 4.49498 0
M  V30 1822 H 163.988 -3.08687 2.79317 0
M  V30 1823 H 164.521 -1.61227 3.63663 0
M  V30 1824 H 161.26 -0.760658 6.51072 0
M  V30 1825 H 160.78 -2.1986 5.58052 0
M  V30 1826 H 162.459 -2.01868 6.14702 0
M  V30 1827 N 162.591 -1.51276 -0.441967 0
M  V30 1828 C 163.501 -1.75092 -1.56141 0
M  V30 1829 C 164.517 -0.634963 -1.62001 0
M  V30 1830 O 165.693 -0.916686 -1.79329 0
M  V30 1831 C 162.758 -1.86666 -2.92158 0
M  V30 1832 C 161.819 -3.10506 -2.96453 0
M  V30 1833 C 161.052 -3.21519 -4.25982 0
M  V30 1834 O 161.275 -2.38586 -5.18105 0
M  V30 1835 O 160.209 -4.14465 -4.36466 0
M  V30 1836 H 164.035 -2.70044 -1.38961 0
M  V30 1837 H 161.62 -1.35722 -0.624499 0
M  V30 1838 H 163.502 -1.96292 -3.72891 0
M  V30 1839 H 162.177 -0.949014 -3.09476 0
M  V30 1840 H 161.084 -3.06363 -2.14692 0
M  V30 1841 H 162.417 -4.01945 -2.84079 0
M  V30 1842 N 164.069 0.697108 -1.41344 0
M  V30 1843 C 165.346 1.45154 -1.31109 0
M  V30 1844 C 165.726 2.11009 0.0620449 0
M  V30 1845 O 165.074 2.01571 1.07618 0
M  V30 1846 C 165.284 2.47223 -2.46337 0
M  V30 1847 C 166.632 3.1252 -2.87431 0
M  V30 1848 O 167.656 2.57547 -2.46065 0
M  V30 1849 O 166.515 4.12083 -3.58957 0
M  V30 1850 H 163.609 0.646365 -0.515889 0
M  V30 1851 H 166.155 0.727716 -1.53305 0
M  V30 1852 H 164.927 1.97204 -3.37974 0
M  V30 1853 H 164.55 3.27116 -2.2601 0
M  V30 1854 N 165.547 1.27147 0.931209 0
M  V30 1855 C 166.457 1.11372 2.06478 0
M  V30 1856 C 167.473 0.044645 1.73943 0
M  V30 1857 O 168.649 0.250417 1.99837 0
M  V30 1858 C 165.714 0.758838 3.38294 0
M  V30 1859 C 164.775 1.90841 3.84549 0
M  V30 1860 C 164.008 1.57036 5.10074 0
M  V30 1861 O 164.231 0.476645 5.68405 0
M  V30 1862 O 163.165 2.40839 5.51616 0
M  V30 1863 H 166.991 2.06493 2.22698 0
M  V30 1864 H 164.576 1.06301 1.04978 0
M  V30 1865 H 166.458 0.574098 4.17471 0
M  V30 1866 H 165.133 -0.162879 3.2329 0
M  V30 1867 H 164.04 2.14819 3.06274 0
M  V30 1868 H 165.373 2.81021 4.04089 0
M  V30 1869 N 167.025 -1.13721 1.09112 0
M  V30 1870 C 168.441 -1.36914 0.820174 0
M  V30 1871 C 168.641 -1.93356 -0.567079 0
M  V30 1872 O 167.697 -2.15093 -1.32255 0
M  V30 1873 C 169.01 -2.3235 1.90877 0
M  V30 1874 C 170.558 -2.45973 1.93562 0
M  V30 1875 C 171.033 -3.44714 3.01556 0
M  V30 1876 N 172.524 -3.52263 3.00775 0
M  V30 1877 C 173.259 -4.28536 3.80978 0
M  V30 1878 N 172.755 -5.07991 4.71081 0
M  V30 1879 N 174.548 -4.23804 3.69251 0
M  V30 1880 H 166.699 -0.754348 1.98553 0
M  V30 1881 H 168.962 -0.3944 0.862063 0
M  V30 1882 H 168.668 -1.98027 2.90651 0
M  V30 1883 H 168.542 -3.32332 1.78424 0
M  V30 1884 H 170.929 -2.79584 0.944286 0
M  V30 1885 H 171.01 -1.45926 2.10093 0
M  V30 1886 H 170.654 -3.11835 4.00901 0
M  V30 1887 H 170.584 -4.44558 2.82269 0
M  V30 1888 H 173.075 -2.95567 2.35475 0
M  V30 1889 H 173.388 -5.63487 5.28869 0
M  V30 1890 H 171.733 -5.07235 4.75119 0
M  V30 1891 H 174.924 -3.60806 2.98222 0
M  V30 1892 H 175.097 -4.82995 4.31995 0
M  V30 1893 N 168.503 -0.877838 -1.30888 0
M  V30 1894 C 169.75 -0.492696 -1.96415 0
M  V30 1895 C 170.078 0.956671 -1.69346 0
M  V30 1896 O 169.333 1.68993 -0.986913 0
M  V30 1897 C 169.632 -0.705748 -3.50363 0
M  V30 1898 C 169.298 -2.1291 -3.97467 0
M  V30 1899 C 167.96 -2.51834 -4.1004 0
M  V30 1900 C 170.312 -3.05702 -4.22132 0
M  V30 1901 C 167.64 -3.82775 -4.44635 0
M  V30 1902 C 169.992 -4.36166 -4.58194 0
M  V30 1903 C 168.656 -4.74993 -4.68975 0
M  V30 1904 H 167.926 -0.18029 -0.718733 0
M  V30 1905 H 170.573 -1.11233 -1.55883 0
M  V30 1906 H 168.878 -0.00303058 -3.918 0
M  V30 1907 H 170.575 -0.387456 -3.99124 0
M  V30 1908 H 167.165 -1.81694 -3.88182 0
M  V30 1909 H 171.349 -2.76853 -4.11906 0
M  V30 1910 H 166.605 -4.12609 -4.51181 0
M  V30 1911 H 170.779 -5.08111 -4.76231 0
M  V30 1912 H 168.406 -5.76495 -4.95537 0
M  V30 1913 N 169.982 1.44106 -0.638065 0
M  V30 1914 C 171.212 2.06037 -0.152394 0
M  V30 1915 C 171.62 1.47808 1.18108 0
M  V30 1916 O 170.963 0.598092 1.73691 0
M  V30 1917 C 171.025 3.59488 0.0293714 0
M  V30 1918 C 170.689 4.4022 -1.22702 0
M  V30 1919 C 171.686 4.73256 -2.15232 0
M  V30 1920 C 169.371 4.8048 -1.46437 0
M  V30 1921 C 171.365 5.45444 -3.29802 0
M  V30 1922 C 169.052 5.52417 -2.61303 0
M  V30 1923 C 170.05 5.84819 -3.52811 0
M  V30 1924 O 169.738 6.55289 -4.65673 0
M  V30 1925 H 169.47 0.671233 -0.0801401 0
M  V30 1926 H 172.024 1.85851 -0.874563 0
M  V30 1927 H 170.254 3.78191 0.806758 0
M  V30 1928 H 171.943 4.03164 0.470475 0
M  V30 1929 H 172.709 4.42684 -1.98131 0
M  V30 1930 H 168.588 4.54676 -0.760977 0
M  V30 1931 H 172.132 5.70653 -4.01249 0
M  V30 1932 H 168.029 5.82404 -2.78344 0
M  V30 1933 H 168.797 6.73762 -4.64744 0
M  V30 1934 N 171.46 0.379036 1.52974 0
M  V30 1935 C 172.37 -0.468639 2.29872 0
M  V30 1936 C 173.386 -1.08067 1.36373 0
M  V30 1937 O 174.562 -1.08871 1.69438 0
M  V30 1938 C 171.627 -1.58594 3.083 0
M  V30 1939 C 170.688 -1.00007 4.17489 0
M  V30 1940 C 169.921 -2.06413 4.92168 0
M  V30 1941 O 170.144 -3.27751 4.66835 0
M  V30 1942 O 169.078 -1.68717 5.7777 0
M  V30 1943 H 172.904 0.157508 3.03291 0
M  V30 1944 H 170.489 0.143035 1.48714 0
M  V30 1945 H 172.371 -2.23525 3.57232 0
M  V30 1946 H 171.046 -2.19724 2.37703 0
M  V30 1947 H 169.953 -0.314299 3.72777 0
M  V30 1948 H 171.286 -0.433135 4.90291 0
M  V30 1949 N 172.938 -1.57226 0.108567 0
M  V30 1950 C 173.888 -2.11305 -0.856396 0
M  V30 1951 C 174.872 -1.03129 -1.23504 0
M  V30 1952 O 176.064 -1.29381 -1.20787 0
M  V30 1953 C 173.193 -2.70771 -2.11041 0
M  V30 1954 C 172.279 -3.86011 -1.7566 0
M  V30 1955 N 172.67 -4.93492 -1.10902 0
M  V30 1956 C 170.968 -3.95999 -2.05185 0
M  V30 1957 C 171.669 -5.73984 -0.944308 0
M  V30 1958 N 170.645 -5.2346 -1.46596 0
M  V30 1959 H 174.447 -2.91784 -0.352002 0
M  V30 1960 H 171.961 -1.62126 -0.0942324 0
M  V30 1961 H 173.958 -3.07851 -2.81128 0
M  V30 1962 H 172.618 -1.91751 -2.62034 0
M  V30 1963 H 173.629 -5.1208 -0.774235 0
M  V30 1964 H 170.306 -3.28007 -2.58298 0
M  V30 1965 H 171.696 -6.70479 -0.436813 0
M  V30 1966 N 174.416 0.165178 -1.56732 0
M  V30 1967 C 175.363 1.2044 -1.96883 0
M  V30 1968 C 176.333 1.43664 -0.833657 0
M  V30 1969 O 177.518 1.56302 -1.09427 0
M  V30 1970 C 174.658 2.53727 -2.33916 0
M  V30 1971 C 173.771 2.3783 -3.6064 0
M  V30 1972 C 172.906 3.64026 -3.86857 0
M  V30 1973 C 171.945 3.43088 -5.06909 0
M  V30 1974 N 171.082 4.61369 -5.29229 0
M  V30 1975 H 175.922 0.854996 -2.85471 0
M  V30 1976 H 173.459 0.41076 -1.41249 0
M  V30 1977 H 175.417 3.31419 -2.53411 0
M  V30 1978 H 174.047 2.8665 -1.48431 0
M  V30 1979 H 173.099 1.51282 -3.49024 0
M  V30 1980 H 174.411 2.18308 -4.4849 0
M  V30 1981 H 173.565 4.50152 -4.06753 0
M  V30 1982 H 172.304 3.86533 -2.97394 0
M  V30 1983 H 171.309 2.55349 -4.86906 0
M  V30 1984 H 172.534 3.21997 -5.97909 0
M  V30 1985 H 170.48 4.84084 -4.42718 0
M  V30 1986 H 170.397 4.44783 -6.11313 0
M  V30 1987 H 171.665 5.48761 -5.53608 0
M  V30 1988 N 175.894 1.51508 0.433938 0
M  V30 1989 C 177.142 1.6402 1.18075 0
M  V30 1990 C 177.463 0.360328 1.91642 0
M  V30 1991 O 176.733 -0.623945 1.85698 0
M  V30 1992 H 175.313 0.6045 0.43885 0
M  V30 1993 H 177.975 1.88452 0.497178 0
M  V30 1994 H 177.071 2.46949 1.90847 0
M  V30 1995 N 177.372 -0.689602 1.41712 0
M  V30 1996 C 178.621 -1.44534 1.40686 0
M  V30 1997 C 178.934 -1.95588 0.0213352 0
M  V30 1998 O 180.14 -2.71271 -0.111534 0
M  V30 1999 C 178.596 -2.61387 2.47396 0
M  V30 2000 C 178.204 -2.17094 3.91885 0
M  V30 2001 C 179.948 -3.38986 2.55517 0
M  V30 2002 C 177.855 -3.3094 4.90135 0
M  V30 2003 H 176.785 -0.542925 0.52321 0
M  V30 2004 H 179.436 -0.748054 1.6756 0
M  V30 2005 H 177.818 -3.33412 2.13664 0
M  V30 2006 H 178.992 -1.52318 4.34897 0
M  V30 2007 H 177.307 -1.52473 3.8748 0
M  V30 2008 H 179.904 -4.23747 3.26102 0
M  V30 2009 H 180.247 -3.84578 1.59391 0
M  V30 2010 H 180.78 -2.74021 2.8837 0
M  V30 2011 H 177.519 -2.90355 5.87685 0
M  V30 2012 H 177.039 -3.94546 4.51767 0
M  V30 2013 H 178.718 -3.9663 5.11169 0
M  V30 2014 N 178.85 -1.27639 -0.924453 0
M  V30 2015 C 180.127 -1.04887 -1.651 0
M  V30 2016 C 180.507 0.415327 -2.06974 0
M  V30 2017 O 179.855 1.39923 -1.80648 0
M  V30 2018 C 180.065 -2.01348 -2.85061 0
M  V30 2019 C 181.413 -2.30899 -3.56329 0
M  V30 2020 O 182.437 -1.99348 -2.95193 0
M  V30 2021 O 181.296 -2.84699 -4.66485 0
M  V30 2022 H 178.39 -0.400083 -0.723784 0
M  V30 2023 H 180.936 -1.38916 -0.974703 0
M  V30 2024 H 179.708 -3.0008 -2.51133 0
M  V30 2025 H 179.331 -1.679 -3.6041 0
M  V30 2026 N 180.328 1.1314 -1.09713 0
M  V30 2027 C 181.577 1.83838 -0.829851 0
M  V30 2028 C 181.89 1.84599 0.646728 0
M  V30 2029 O 183.096 2.51218 1.02965 0
M  V30 2030 C 181.552 3.30069 -1.43466 0
M  V30 2031 C 181.16 3.37688 -2.94399 0
M  V30 2032 C 182.904 4.05788 -1.24645 0
M  V30 2033 C 180.811 4.78209 -3.47952 0
M  V30 2034 H 179.741 0.68877 -0.306777 0
M  V30 2035 H 182.392 1.27448 -1.3202 0
M  V30 2036 H 180.774 3.8628 -0.871996 0
M  V30 2037 H 181.948 2.91456 -3.56918 0
M  V30 2038 H 180.263 2.75436 -3.12289 0
M  V30 2039 H 182.86 5.09535 -1.62107 0
M  V30 2040 H 183.203 4.15878 -0.187357 0
M  V30 2041 H 183.736 3.55915 -1.77678 0
M  V30 2042 H 180.475 4.73311 -4.53495 0
M  V30 2043 H 179.995 5.24924 -2.90198 0
M  V30 2044 H 181.674 5.47133 -3.45332 0
M  V30 2045 N 181.806 0.884767 1.30421 0
M  V30 2046 C 182.753 0.349642 2.28136 0
M  V30 2047 C 183.723 -0.560061 1.56373 0
M  V30 2048 O 184.908 -0.488524 1.8444 0
M  V30 2049 C 182.048 -0.42999 3.42411 0
M  V30 2050 C 181.161 0.508907 4.28992 0
M  V30 2051 C 180.296 -0.286301 5.30428 0
M  V30 2052 C 179.335 0.648079 6.08659 0
M  V30 2053 N 178.472 -0.111792 7.02011 0
M  V30 2054 H 183.312 1.18807 2.73293 0
M  V30 2055 H 180.849 0.597231 1.3443 0
M  V30 2056 H 182.807 -0.897923 4.07423 0
M  V30 2057 H 181.437 -1.23299 2.98324 0
M  V30 2058 H 180.489 1.09533 3.64289 0
M  V30 2059 H 181.801 1.22475 4.8353 0
M  V30 2060 H 180.955 -0.816098 6.01186 0
M  V30 2061 H 179.694 -1.03536 4.76583 0
M  V30 2062 H 178.699 1.18951 5.36778 0
M  V30 2063 H 179.924 1.39623 6.64592 0
M  V30 2064 H 177.87 -0.843395 6.50556 0
M  V30 2065 H 177.787 0.544429 7.54037 0
M  V30 2066 H 179.055 -0.622339 7.77012 0
M  V30 2067 N 183.284 -1.43765 0.645699 0
M  V30 2068 C 184.7 -1.56509 0.312591 0
M  V30 2069 C 184.9 -1.6307 -1.18365 0
M  V30 2070 O 183.956 -1.58167 -1.96824 0
M  V30 2071 C 185.269 -2.82968 1.01733 0
M  V30 2072 C 186.817 -2.96701 0.996865 0
M  V30 2073 C 187.292 -4.25982 1.68236 0
M  V30 2074 N 188.783 -4.32829 1.64964 0
M  V30 2075 C 189.518 -5.31613 2.14885 0
M  V30 2076 N 189.014 -6.36718 2.73061 0
M  V30 2077 N 190.807 -5.23217 2.05428 0
M  V30 2078 H 182.958 -1.3775 1.61675 0
M  V30 2079 H 185.221 -0.661067 0.679481 0
M  V30 2080 H 184.927 -2.84156 2.0724 0
M  V30 2081 H 184.801 -3.72957 0.564177 0
M  V30 2082 H 187.188 -2.95058 -0.0497719 0
M  V30 2083 H 187.269 -2.08022 1.48865 0
M  V30 2084 H 186.913 -4.28386 2.72852 0
M  V30 2085 H 186.843 -5.13545 1.16529 0
M  V30 2086 H 189.334 -3.57493 1.22503 0
M  V30 2087 H 189.647 -7.08401 3.08848 0
M  V30 2088 H 187.992 -6.37362 2.77118 0
M  V30 2089 H 191.183 -4.40019 1.59689 0
M  V30 2090 H 191.356 -6.00045 2.44643 0
M  V30 2091 N 184.763 -0.387143 -1.52771 0
M  V30 2092 C 186.012 0.19697 -2.00736 0
M  V30 2093 C 186.325 1.48082 -1.27793 0
M  V30 2094 O 187.531 2.14485 -1.66458 0
M  V30 2095 C 185.987 0.401568 -3.57653 0
M  V30 2096 C 185.595 -0.868907 -4.39493 0
M  V30 2097 C 187.339 0.942164 -4.13912 0
M  V30 2098 C 185.246 -0.632705 -5.88006 0
M  V30 2099 H 184.176 0.0773827 -0.750019 0
M  V30 2100 H 186.827 -0.50921 -1.76293 0
M  V30 2101 H 185.209 1.16954 -3.78335 0
M  V30 2102 H 186.383 -1.64133 -4.30577 0
M  V30 2103 H 184.698 -1.33429 -3.94443 0
M  V30 2104 H 187.295 1.13455 -5.22525 0
M  V30 2105 H 187.638 1.9106 -3.69867 0
M  V30 2106 H 188.171 0.233814 -3.97112 0
M  V30 2107 H 184.91 -1.57208 -6.36369 0
M  V30 2108 H 184.43 0.100825 -5.99715 0
M  V30 2109 H 186.109 -0.26642 -6.46451 0
M  V30 2110 N 186.241 1.57166 -0.116904 0
M  V30 2111 C 187.488 1.95123 0.541603 0
M  V30 2112 C 187.816 1.00006 1.6682 0
M  V30 2113 O 187.071 0.0235658 1.95686 0
M  V30 2114 C 187.37 3.39508 1.11664 0
M  V30 2115 C 187.036 4.50762 0.111606 0
M  V30 2116 C 185.698 4.80918 -0.164758 0
M  V30 2117 C 188.05 5.18036 -0.573438 0
M  V30 2118 C 185.378 5.75666 -1.13249 0
M  V30 2119 C 187.73 6.13824 -1.52978 0
M  V30 2120 C 186.394 6.42374 -1.81415 0
M  V30 2121 H 185.664 0.714005 0.198187 0
M  V30 2122 H 188.311 1.9048 -0.197365 0
M  V30 2123 H 186.616 3.40835 1.93232 0
M  V30 2124 H 188.313 3.66189 1.63422 0
M  V30 2125 H 184.903 4.27272 0.337192 0
M  V30 2126 H 189.087 4.94896 -0.373092 0
M  V30 2127 H 184.343 5.96092 -1.35958 0
M  V30 2128 H 188.517 6.65039 -2.06629 0
M  V30 2129 H 186.144 7.15599 -2.56557 0
M  V30 2130 N 187.719 -0.156864 1.56817 0
M  V30 2131 C 188.967 -0.869404 1.82444 0
M  V30 2132 C 189.288 -1.82147 0.69623 0
M  V30 2133 O 188.558 -1.93847 -0.28287 0
M  V30 2134 H 187.138 -0.324043 0.673056 0
M  V30 2135 H 189.8 -0.153224 1.94297 0
M  V30 2136 H 188.896 -1.43761 2.77019 0
M  V30 2137 N 189.197 -1.51736 -0.425897 0
M  V30 2138 C 190.443 -1.65214 -1.1761 0
M  V30 2139 C 190.776 -0.372778 -1.90589 0
M  V30 2140 O 190.051 0.628139 -1.84078 0
M  V30 2141 C 190.334 -2.86312 -2.18398 0
M  V30 2142 C 190.187 -4.24254 -1.49426 0
M  V30 2143 C 191.506 -3.02925 -3.19256 0
M  V30 2144 H 188.625 -0.601263 -0.426206 0
M  V30 2145 H 191.267 -1.8425 -0.463882 0
M  V30 2146 H 189.417 -2.70213 -2.79137 0
M  V30 2147 H 191.089 -4.52046 -0.919362 0
M  V30 2148 H 189.332 -4.26426 -0.796432 0
M  V30 2149 H 190.003 -5.05001 -2.22885 0
M  V30 2150 H 192.479 -3.1781 -2.68581 0
M  V30 2151 H 191.355 -3.89199 -3.8706 0
M  V30 2152 H 191.616 -2.15497 -3.86023 0
M  V30 2153 N 190.675 0.682077 -1.42076 0
M  V30 2154 C 191.924 1.43786 -1.41451 0
M  V30 2155 C 192.237 1.95574 -0.0317074 0
M  V30 2156 O 193.443 2.71326 0.0971462 0
M  V30 2157 C 191.899 2.60071 -2.48779 0
M  V30 2158 C 191.507 2.15013 -3.93031 0
M  V30 2159 C 193.251 3.37626 -2.57311 0
M  V30 2160 C 191.158 3.28336 -4.91883 0
M  V30 2161 H 190.088 0.540143 -0.526082 0
M  V30 2162 H 192.739 0.739157 -1.67955 0
M  V30 2163 H 191.121 3.32275 -2.15429 0
M  V30 2164 H 192.295 1.5001 -4.35699 0
M  V30 2165 H 190.61 1.50416 -3.88284 0
M  V30 2166 H 193.207 4.22012 -3.28345 0
M  V30 2167 H 193.55 3.83727 -1.61429 0
M  V30 2168 H 194.083 2.72488 -2.89819 0
M  V30 2169 H 190.822 2.87234 -5.89217 0
M  V30 2170 H 190.342 3.92145 -4.53853 0
M  V30 2171 H 192.021 3.93913 -5.13265 0
M  V30 2172 N 192.153 1.28127 0.917671 0
M  V30 2173 C 193.116 1.11744 2.00115 0
M  V30 2174 C 194.116 0.0583052 1.60694 0
M  V30 2175 O 195.306 0.303755 1.71531 0
M  V30 2176 C 192.438 0.704862 3.33533 0
M  V30 2177 H 193.631 2.07966 2.16079 0
M  V30 2178 H 191.184 1.11058 1.09981 0
M  V30 2179 H 191.919 -0.258299 3.2327 0
M  V30 2180 H 191.704 1.4699 3.63505 0
M  V30 2181 H 193.194 0.612768 4.1308 0
M  V30 2182 N 193.631 -1.12557 1.10312 0
M  V30 2183 C 194.856 -1.88405 0.867085 0
M  V30 2184 C 195.281 -1.79038 -0.576817 0
M  V30 2185 O 194.639 -1.14439 -1.40618 0
M  V30 2186 C 194.687 -3.3563 1.31851 0
M  V30 2187 O 193.791 -4.09565 0.482734 0
M  V30 2188 H 193.132 -0.585455 0.313271 0
M  V30 2189 H 195.662 -1.42352 1.4696 0
M  V30 2190 H 195.672 -3.86469 1.3079 0
M  V30 2191 H 194.347 -3.41765 2.37001 0
M  V30 2192 H 192.924 -3.68695 0.558448 0
M  V30 2193 N 195.109 -0.891671 -1.2995 0
M  V30 2194 C 196.057 -0.353066 -2.29905 0
M  V30 2195 C 197.051 0.543509 -1.60444 0
M  V30 2196 O 198.257 0.4272 -1.74857 0
M  V30 2197 H 194.632 -0.095531 -0.745907 0
M  V30 2198 H 196.603 -1.20961 -2.72784 0
M  V30 2199 C 195.352 0.411475 -3.45257 0
M  V30 2200 H 194.675 -0.269182 -3.98893 0
M  V30 2201 H 196.115 0.753328 -4.17254 0
M  V30 2202 C 194.574 1.6111 -2.9588 0
M  V30 2203 O 195.104 2.71045 -2.96475 0
M  V30 2204 N 193.31 1.45054 -2.51809 0
M  V30 2205 H 192.857 0.556175 -2.51524 0
M  V30 2206 H 192.815 2.25453 -2.1913 0
M  V30 2207 N 196.587 1.43421 -0.653314 0
M  V30 2208 C 197.836 2.01032 -0.164076 0
M  V30 2209 C 198.149 1.52147 1.22926 0
M  V30 2210 O 199.355 2.02031 1.81371 0
M  V30 2211 C 197.811 3.59082 -0.24252 0
M  V30 2212 C 197.419 4.1696 -1.63855 0
M  V30 2213 C 199.163 4.24079 0.18911 0
M  V30 2214 C 197.07 5.67304 -1.67092 0
M  V30 2215 H 196 0.751798 -0.0575769 0
M  V30 2216 H 198.651 1.6439 -0.815362 0
M  V30 2217 H 197.033 3.93125 0.476276 0
M  V30 2218 H 198.207 3.94416 -2.38271 0
M  V30 2219 H 196.522 3.64335 -2.01616 0
M  V30 2220 H 199.119 5.34381 0.184775 0
M  V30 2221 H 199.462 3.98005 1.22056 0
M  V30 2222 H 199.995 3.94918 -0.477938 0
M  V30 2223 H 196.734 5.98145 -2.68146 0
M  V30 2224 H 196.254 5.91904 -0.970014 0
M  V30 2225 H 197.933 6.31344 -1.4147 0
M  V30 2226 N 198.065 0.39524 1.52563 0
M  V30 2227 C 199.012 -0.437036 2.26624 0
M  V30 2228 C 199.982 -1.05281 1.28472 0
M  V30 2229 O 201.167 -1.07971 1.57311 0
M  V30 2230 C 198.307 -1.55524 3.08069 0
M  V30 2231 C 197.42 -0.961745 4.21158 0
M  V30 2232 C 196.555 -2.05149 4.89987 0
M  V30 2233 C 195.594 -1.4342 5.95061 0
M  V30 2234 N 194.731 -2.46351 6.57462 0
M  V30 2235 H 199.571 0.200976 2.97322 0
M  V30 2236 H 197.108 0.110944 1.46681 0
M  V30 2237 H 199.066 -2.21437 3.53584 0
M  V30 2238 H 197.696 -2.16348 2.3957 0
M  V30 2239 H 196.748 -0.192048 3.79915 0
M  V30 2240 H 198.06 -0.470701 4.96574 0
M  V30 2241 H 197.214 -2.78819 5.38837 0
M  V30 2242 H 195.953 -2.57615 4.14109 0
M  V30 2243 H 194.958 -0.682774 5.45544 0
M  V30 2244 H 196.183 -0.917416 6.72875 0
M  V30 2245 H 194.129 -2.97975 5.8442 0
M  V30 2246 H 194.046 -2.02019 7.28508 0
M  V30 2247 H 195.314 -3.19633 7.10954 0
M  V30 2248 N 199.544 -1.57102 0.125237 0
M  V30 2249 C 200.792 -1.95021 -0.530198 0
M  V30 2250 C 201.113 -1.00982 -1.66816 0
M  V30 2251 O 200.383 -0.0672693 -1.95784 0
M  V30 2252 H 198.963 -0.720046 -0.198853 0
M  V30 2253 H 201.625 -1.93916 0.19564 0
M  V30 2254 H 200.721 -2.98211 -0.920681 0
M  V30 2255 N 201.022 0.148545 -1.56898 0
M  V30 2256 C 201.969 1.18345 -1.98149 0
M  V30 2257 C 202.939 1.42772 -0.848848 0
M  V30 2258 O 204.124 1.55132 -1.11079 0
M  V30 2259 C 201.264 2.51231 -2.36594 0
M  V30 2260 C 200.377 2.33991 -3.63142 0
M  V30 2261 C 199.512 3.59902 -3.90697 0
M  V30 2262 C 198.551 3.37692 -5.1052 0
M  V30 2263 N 197.688 4.5573 -5.34092 0
M  V30 2264 H 202.528 0.82467 -2.86362 0
M  V30 2265 H 200.065 0.395756 -1.41676 0
M  V30 2266 H 202.023 3.28713 -2.56912 0
M  V30 2267 H 200.653 2.85059 -1.51463 0
M  V30 2268 H 199.705 1.47572 -3.50609 0
M  V30 2269 H 201.017 2.13539 -4.5078 0
M  V30 2270 H 200.171 4.45813 -4.11505 0
M  V30 2271 H 198.91 3.83357 -3.01477 0
M  V30 2272 H 197.915 2.5017 -4.89587 0
M  V30 2273 H 199.14 3.15637 -6.0129 0
M  V30 2274 H 197.086 4.79361 -4.47827 0
M  V30 2275 H 197.003 4.38274 -6.15996 0
M  V30 2276 H 198.271 5.42858 -5.59397 0
M  V30 2277 N 202.5 1.5196 0.417844 0
M  V30 2278 C 203.43 1.77634 1.51554 0
M  V30 2279 C 204.411 0.626918 1.58126 0
M  V30 2280 O 205.596 0.871632 1.7354 0
M  V30 2281 C 202.726 1.91911 2.8946 0
M  V30 2282 C 201.68 3.07463 2.97743 0
M  V30 2283 C 201.006 3.06951 4.37819 0
M  V30 2284 C 202.306 4.47082 2.70027 0
M  V30 2285 H 204 2.6955 1.3032 0
M  V30 2286 H 201.546 1.29706 0.625492 0
M  V30 2287 H 203.499 2.08455 3.6623 0
M  V30 2288 H 202.223 0.966598 3.11969 0
M  V30 2289 H 200.882 2.90656 2.23416 0
M  V30 2290 H 200.53 2.09438 4.57323 0
M  V30 2291 H 200.23 3.84556 4.44286 0
M  V30 2292 H 201.754 3.25613 5.16535 0
M  V30 2293 H 203.168 4.6414 3.36522 0
M  V30 2294 H 201.565 5.2654 2.87881 0
M  V30 2295 H 202.635 4.55777 1.65514 0
M  V30 2296 N 203.978 -0.674533 1.42435 0
M  V30 2297 C 205.203 -1.46784 1.46524 0
M  V30 2298 C 205.628 -1.87938 0.078066 0
M  V30 2299 O 204.986 -1.56014 -0.92354 0
M  V30 2300 C 205.034 -2.69307 2.39805 0
M  V30 2301 O 204.138 -3.67587 1.86959 0
M  V30 2302 H 203.479 -0.440959 0.496439 0
M  V30 2303 H 206.009 -0.827326 1.87127 0
M  V30 2304 H 206.019 -3.17374 2.56393 0
M  V30 2305 H 204.694 -2.38692 3.40586 0
M  V30 2306 H 203.271 -3.2662 1.79927 0
M  V30 2307 N 205.456 -1.28612 -0.910864 0
M  V30 2308 C 206.704 -1.15705 -1.65701 0
M  V30 2309 C 207.025 0.29416 -1.92769 0
M  V30 2310 O 206.295 1.20331 -1.54588 0
M  V30 2311 H 204.875 -0.425216 -0.614167 0
M  V30 2312 H 207.537 -1.61381 -1.0928 0
M  V30 2313 H 206.633 -1.6988 -2.61815 0
M  V30 2314 N 206.934 1.1197 -1.10907 0
M  V30 2315 C 208.159 1.87942 -0.877064 0
M  V30 2316 C 208.584 1.79341 0.567314 0
M  V30 2317 O 207.942 1.15184 1.40009 0
M  V30 2318 C 207.99 3.34926 -1.33629 0
M  V30 2319 O 207.094 4.09303 -0.504447 0
M  V30 2320 H 206.435 0.583785 -0.316371 0
M  V30 2321 H 208.965 1.4157 -1.47712 0
M  V30 2322 H 208.975 3.8577 -1.32837 0
M  V30 2323 H 207.65 3.40504 -2.3881 0
M  V30 2324 H 206.227 3.68393 -0.577993 0
M  V30 2325 N 208.412 0.89855 1.29475 0
M  V30 2326 C 209.36 0.365253 2.29714 0
M  V30 2327 C 210.354 -0.534993 1.6073 0
M  V30 2328 O 211.56 -0.417921 1.75081 0
M  V30 2329 H 207.935 0.0994853 0.74539 0
M  V30 2330 H 209.906 1.22406 2.72138 0
M  V30 2331 C 208.655 -0.393159 3.4547 0
M  V30 2332 H 207.978 0.290332 3.98744 0
M  V30 2333 H 209.418 -0.731189 4.17648 0
M  V30 2334 C 207.877 -1.59539 2.9673 0
M  V30 2335 O 208.407 -2.69469 2.97908 0
M  V30 2336 N 206.613 -1.43716 2.52575 0
M  V30 2337 H 206.16 -0.542828 2.51816 0
M  V30 2338 H 206.118 -2.24288 2.20323 0
M  V30 2339 N 209.89 -1.43072 0.660911 0
M  V30 2340 C 211.118 -2.06067 0.185422 0
M  V30 2341 C 211.533 -1.49582 -1.15198 0
M  V30 2342 O 210.89 -0.630134 -1.71276 0
M  V30 2343 C 210.941 -3.61371 0.0966523 0
M  V30 2344 O 210.662 -4.15758 1.38119 0
M  V30 2345 C 212.163 -4.41455 -0.403996 0
M  V30 2346 H 209.383 -0.664459 0.0934604 0
M  V30 2347 H 211.927 -1.83447 0.90373 0
M  V30 2348 H 210.082 -3.8315 -0.572259 0
M  V30 2349 H 210.496 -5.09499 1.24542 0
M  V30 2350 H 211.97 -5.50437 -0.415045 0
M  V30 2351 H 212.447 -4.15036 -1.43674 0
M  V30 2352 H 213.053 -4.24663 0.232691 0
M  V30 2353 N 211.368 -0.403325 -1.52352 0
M  V30 2354 C 212.614 0.174605 -2.02047 0
M  V30 2355 C 212.947 1.45282 -1.28867 0
M  V30 2356 O 212.222 1.90483 -0.393257 0
M  V30 2357 C 212.505 0.428238 -3.57545 0
M  V30 2358 C 212.358 -0.866248 -4.4138 0
M  V30 2359 C 213.677 1.21287 -4.23057 0
M  V30 2360 H 210.796 0.0619851 -0.734389 0
M  V30 2361 H 213.438 -0.53565 -1.82293 0
M  V30 2362 H 211.588 1.03327 -3.74507 0
M  V30 2363 H 213.26 -1.50265 -4.3614 0
M  V30 2364 H 211.503 -1.47851 -4.07827 0
M  V30 2365 H 212.174 -0.643249 -5.48239 0
M  V30 2366 H 214.65 0.700703 -4.10158 0
M  V30 2367 H 213.526 1.35909 -5.31808 0
M  V30 2368 H 213.787 2.23193 -3.81625 0
M  V30 2369 N 212.846 1.57033 -0.133567 0
M  V30 2370 C 213.778 2.13176 0.841944 0
M  V30 2371 C 214.791 1.07794 1.22001 0
M  V30 2372 O 215.98 1.35117 1.16643 0
M  V30 2373 C 213.08 2.62847 2.13926 0
M  V30 2374 C 212.253 3.92486 1.93064 0
M  V30 2375 C 211.312 4.27605 3.0666 0
M  V30 2376 O 210.338 4.96168 2.78937 0
M  V30 2377 N 211.54 3.861 4.33483 0
M  V30 2378 H 214.305 2.97503 0.362192 0
M  V30 2379 H 211.866 1.61821 0.05042 0
M  V30 2380 H 213.858 2.83363 2.88942 0
M  V30 2381 H 212.428 1.83319 2.53205 0
M  V30 2382 H 211.648 3.80732 1.02159 0
M  V30 2383 H 212.936 4.77225 1.76447 0
M  V30 2384 H 212.334 3.30828 4.58878 0
M  V30 2385 H 210.891 4.11694 5.05323 0
M  V30 2386 N 214.325 -0.140222 1.56975 0
M  V30 2387 C 215.573 -0.850005 1.83356 0
M  V30 2388 C 215.894 -1.81399 0.71551 0
M  V30 2389 O 215.164 -1.94136 -0.262294 0
M  V30 2390 H 213.744 -0.316886 0.676456 0
M  V30 2391 H 216.406 -0.132608 1.94448 0
M  V30 2392 H 215.502 -1.40814 2.78528 0
M  V30 2393 N 215.803 -1.52179 -0.40978 0
M  V30 2394 C 216.766 -1.74853 -1.48186 0
M  V30 2395 C 217.766 -0.618417 -1.48433 0
M  V30 2396 O 218.956 -0.886286 -1.49969 0
M  V30 2397 C 216.088 -1.8303 -2.87598 0
M  V30 2398 H 217.281 -2.70559 -1.29374 0
M  V30 2399 H 214.834 -1.42586 -0.640233 0
M  V30 2400 H 215.569 -0.89236 -3.11781 0
M  V30 2401 H 215.354 -2.65187 -2.88822 0
M  V30 2402 H 216.844 -2.02316 -3.65319 0
M  V30 2403 N 217.281 0.66697 -1.42791 0
M  V30 2404 C 218.506 1.46004 -1.47301 0
M  V30 2405 C 218.931 1.87894 -0.0880317 0
M  V30 2406 O 218.289 1.56502 0.915253 0
M  V30 2407 C 218.337 2.68031 -2.41229 0
M  V30 2408 O 217.441 3.6659 -1.88906 0
M  V30 2409 H 216.782 0.43832 -0.49877 0
M  V30 2410 H 219.312 0.817391 -1.87563 0
M  V30 2411 H 219.322 3.1601 -2.58073 0
M  V30 2412 H 217.997 2.36883 -3.41847 0
M  V30 2413 H 216.574 3.25661 -1.81656 0
M  V30 2414 N 218.759 1.29093 0.90403 0
M  V30 2415 C 219.987 1.19689 1.68766 0
M  V30 2416 C 220.402 -0.243113 1.87228 0
M  V30 2417 O 219.759 -1.16326 1.40621 0
M  V30 2418 C 219.81 1.90144 3.07453 0
M  V30 2419 O 219.531 3.2852 2.89838 0
M  V30 2420 C 221.032 1.87162 4.01852 0
M  V30 2421 H 218.252 0.415035 0.527244 0
M  V30 2422 H 220.796 1.7039 1.13082 0
M  V30 2423 H 218.951 1.43289 3.59926 0
M  V30 2424 H 219.365 3.63944 3.77684 0
M  V30 2425 H 220.839 2.41032 4.96596 0
M  V30 2426 H 221.316 0.84617 4.30972 0
M  V30 2427 H 221.922 2.33741 3.5531 0
M  V30 2428 N 220.237 -1.11381 1.11499 0
M  V30 2429 C 221.486 -1.82494 0.858993 0
M  V30 2430 C 221.799 -1.85605 -0.617278 0
M  V30 2431 O 223.005 -2.52824 -0.989552 0
M  V30 2432 C 221.461 -3.27745 1.48699 0
M  V30 2433 C 221.069 -3.32961 2.99735 0
M  V30 2434 C 222.813 -4.03754 1.31085 0
M  V30 2435 C 220.72 -4.72612 3.55516 0
M  V30 2436 H 219.65 -0.683802 0.317696 0
M  V30 2437 H 222.301 -1.25331 1.34031 0
M  V30 2438 H 220.683 -3.84844 0.933339 0
M  V30 2439 H 221.857 -2.85741 3.61509 0
M  V30 2440 H 220.172 -2.70433 3.16631 0
M  V30 2441 H 222.769 -5.06891 1.70192 0
M  V30 2442 H 223.112 -4.15527 0.253496 0
M  V30 2443 H 223.645 -3.53043 1.83318 0
M  V30 2444 H 220.384 -4.66036 4.60967 0
M  V30 2445 H 219.904 -5.2024 2.98513 0
M  V30 2446 H 221.583 -5.4157 3.53992 0
M  V30 2447 N 221.715 -0.905404 -1.28997 0
M  V30 2448 C 222.943 -0.549846 -1.9946 0
M  V30 2449 C 223.358 0.866834 -1.67724 0
M  V30 2450 O 222.715 1.57298 -0.925404 0
M  V30 2451 C 222.766 -0.739387 -3.53858 0
M  V30 2452 O 222.487 -2.10031 -3.84472 0
M  V30 2453 C 223.988 -0.389541 -4.41585 0
M  V30 2454 H 221.208 -0.210429 -0.637151 0
M  V30 2455 H 223.752 -1.21632 -1.64396 0
M  V30 2456 H 221.907 -0.120023 -3.87214 0
M  V30 2457 H 222.321 -2.13385 -4.79132 0
M  V30 2458 H 223.795 -0.572972 -5.49018 0
M  V30 2459 H 224.272 0.673756 -4.34001 0
M  V30 2460 H 224.878 -0.986089 -4.1371 0
M  V30 2461 N 223.193 1.4272 -0.668489 0
M  V30 2462 C 224.125 2.2914 0.052613 0
M  V30 2463 C 225.138 1.43339 0.771857 0
M  V30 2464 O 226.327 1.67123 0.627067 0
M  V30 2465 C 223.427 3.20618 1.09804 0
M  V30 2466 C 222.6 4.35039 0.45389 0
M  V30 2467 C 221.659 5.07282 1.39825 0
M  V30 2468 O 220.685 5.62024 0.900978 0
M  V30 2469 N 221.887 5.12206 2.73176 0
M  V30 2470 H 224.652 2.91668 -0.689209 0
M  V30 2471 H 222.213 1.53577 -0.512422 0
M  V30 2472 H 224.205 3.65815 1.73094 0
M  V30 2473 H 222.775 2.59585 1.74167 0
M  V30 2474 H 221.995 3.92567 -0.358396 0
M  V30 2475 H 223.283 5.088 0.00486972 0
M  V30 2476 H 222.681 4.6913 3.16122 0
M  V30 2477 H 221.238 5.61069 3.31729 0
M  V30 2478 N 224.671 0.411399 1.52136 0
M  V30 2479 C 225.603 -0.448386 2.24771 0
M  V30 2480 C 226.616 -1.00828 1.27818 0
M  V30 2481 O 227.805 -0.906841 1.53749 0
M  V30 2482 C 224.905 -1.63636 2.96777 0
M  V30 2483 C 224.078 -1.19995 4.20618 0
M  V30 2484 C 223.137 -2.25509 4.75428 0
M  V30 2485 O 222.163 -1.86007 5.3795 0
M  V30 2486 N 223.365 -3.577 4.57199 0
M  V30 2487 H 226.13 0.174025 2.99194 0
M  V30 2488 H 223.691 0.238897 1.60128 0
M  V30 2489 H 225.683 -2.33793 3.30338 0
M  V30 2490 H 224.253 -2.16465 2.25526 0
M  V30 2491 H 223.473 -0.326421 3.92846 0
M  V30 2492 H 224.761 -0.885365 5.01038 0
M  V30 2493 H 224.159 -3.92543 4.07341 0
M  V30 2494 H 222.716 -4.23827 4.95191 0
M  V30 2495 N 226.149 -1.5696 0.141893 0
M  V30 2496 C 227.079 -2.19516 -0.795936 0
M  V30 2497 C 228.06 -1.14187 -1.26077 0
M  V30 2498 O 229.245 -1.42511 -1.31925 0
M  V30 2499 C 226.375 -2.81272 -2.03723 0
M  V30 2500 C 225.329 -3.92384 -1.70936 0
M  V30 2501 C 224.655 -4.41052 -3.02287 0
M  V30 2502 C 225.955 -5.13403 -0.959954 0
M  V30 2503 H 227.649 -2.98138 -0.274596 0
M  V30 2504 H 225.195 -1.43406 -0.130636 0
M  V30 2505 H 227.148 -3.237 -2.69808 0
M  V30 2506 H 225.872 -1.99973 -2.58221 0
M  V30 2507 H 224.531 -3.50566 -1.07232 0
M  V30 2508 H 224.179 -3.56582 -3.54765 0
M  V30 2509 H 223.879 -5.15993 -2.81114 0
M  V30 2510 H 225.403 -4.86146 -3.69451 0
M  V30 2511 H 226.817 -5.52706 -1.52279 0
M  V30 2512 H 225.214 -5.94073 -0.848357 0
M  V30 2513 H 226.284 -4.84875 0.0492434 0
M  V30 2514 N 227.627 0.131896 -1.57047 0
M  V30 2515 C 228.876 0.84044 -1.83356 0
M  V30 2516 C 229.189 1.81646 -0.725535 0
M  V30 2517 O 230.395 2.57025 -0.874659 0
M  V30 2518 C 228.851 1.54528 -3.25037 0
M  V30 2519 C 228.459 0.610902 -4.43815 0
M  V30 2520 C 230.203 2.23972 -3.60606 0
M  V30 2521 C 228.11 1.31823 -5.76521 0
M  V30 2522 H 227.04 0.317599 -0.683847 0
M  V30 2523 H 229.691 0.0931561 -1.83263 0
M  V30 2524 H 228.073 2.33873 -3.19561 0
M  V30 2525 H 229.247 -0.148407 -4.60561 0
M  V30 2526 H 227.562 0.0241016 -4.16393 0
M  V30 2527 H 230.159 2.77558 -4.57018 0
M  V30 2528 H 230.502 3.01173 -2.87403 0
M  V30 2529 H 231.035 1.51529 -3.6781 0
M  V30 2530 H 227.774 0.587771 -6.52859 0
M  V30 2531 H 227.294 2.04987 -5.63685 0
M  V30 2532 H 228.973 1.855 -6.19838 0
M  V30 2533 N 229.106 1.52395 0.401703 0
M  V30 2534 C 230.053 1.76268 1.48991 0
M  V30 2535 C 231.023 0.605386 1.54675 0
M  V30 2536 O 232.208 0.843742 1.7113 0
M  V30 2537 C 229.348 1.92592 2.86361 0
M  V30 2538 C 228.461 3.20259 2.89928 0
M  V30 2539 C 227.596 3.26972 4.18644 0
M  V30 2540 C 226.635 4.48812 4.16214 0
M  V30 2541 N 225.772 4.52877 5.36514 0
M  V30 2542 H 230.612 2.6914 1.27935 0
M  V30 2543 H 228.149 1.33355 0.620871 0
M  V30 2544 H 230.107 2.0004 3.66115 0
M  V30 2545 H 228.737 1.03093 3.05895 0
M  V30 2546 H 227.789 3.21945 2.02621 0
M  V30 2547 H 229.101 4.10056 2.83999 0
M  V30 2548 H 228.255 3.33533 5.06794 0
M  V30 2549 H 226.994 2.35126 4.27278 0
M  V30 2550 H 225.999 4.4239 3.26453 0
M  V30 2551 H 227.224 5.41961 4.09213 0
M  V30 2552 H 225.17 3.63917 5.45802 0
M  V30 2553 H 225.087 5.36529 5.32609 0
M  V30 2554 H 226.355 4.63676 6.26597 0
M  V30 2555 N 230.584 -0.659388 1.43143 0
M  V30 2556 C 231.532 -1.79374 1.4808 0
M  V30 2557 C 232.526 -1.65639 0.354988 0
M  V30 2558 O 233.732 -1.7206 0.528704 0
M  V30 2559 H 230.107 -0.591705 0.4641 0
M  V30 2560 H 232.078 -1.72329 2.43609 0
M  V30 2561 C 230.827 -3.17606 1.41499 0
M  V30 2562 H 230.15 -3.28809 2.27431 0
M  V30 2563 H 231.59 -3.96951 1.49015 0
M  V30 2564 C 230.049 -3.36642 0.131765 0
M  V30 2565 O 230.579 -3.93461 -0.809386 0
M  V30 2566 N 228.785 -2.90567 0.0439396 0
M  V30 2567 H 228.332 -2.44513 0.810619 0
M  V30 2568 H 228.29 -3.03681 -0.813969 0
M  V30 2569 N 232.062 -1.29571 -0.897171 0
M  V30 2570 C 233.025 -1.14913 -1.98312 0
M  V30 2571 C 234.025 -0.0838629 -1.60581 0
M  V30 2572 O 235.215 -0.331006 -1.71026 0
M  V30 2573 C 232.347 -0.757835 -3.3237 0
M  V30 2574 H 233.54 -2.11377 -2.12743 0
M  V30 2575 H 231.093 -1.12793 -1.08201 0
M  V30 2576 H 231.828 0.206837 -3.2364 0
M  V30 2577 H 231.613 -1.52755 -3.61121 0
M  V30 2578 H 233.103 -0.678408 -4.12053 0
M  V30 2579 N 233.54 1.10788 -1.12088 0
M  V30 2580 C 234.786 1.82942 -0.875226 0
M  V30 2581 C 235.119 1.84779 0.597538 0
M  V30 2582 O 234.394 1.30578 1.44152 0
M  V30 2583 C 234.677 3.29789 -1.44606 0
M  V30 2584 C 234.53 3.36307 -2.98693 0
M  V30 2585 C 235.849 4.26064 -1.10261 0
M  V30 2586 H 232.968 0.664195 -0.319397 0
M  V30 2587 H 235.61 1.29867 -1.38689 0
M  V30 2588 H 233.76 3.75118 -1.01089 0
M  V30 2589 H 235.432 2.99487 -3.50864 0
M  V30 2590 H 233.675 2.76318 -3.34411 0
M  V30 2591 H 234.346 4.39694 -3.33726 0
M  V30 2592 H 236.822 3.88951 -1.4784 0
M  V30 2593 H 235.698 5.27183 -1.52869 0
M  V30 2594 H 235.959 4.42098 -0.0142953 0
M  V30 2595 N 235.018 0.912232 1.28515 0
M  V30 2596 C 235.948 0.416403 2.29757 0
M  V30 2597 C 236.929 -0.515194 1.6211 0
M  V30 2598 O 238.114 -0.423253 1.89532 0
M  V30 2599 C 235.244 -0.34572 3.45575 0
M  V30 2600 C 234.198 0.496599 4.25109 0
M  V30 2601 C 233.524 -0.393771 5.33248 0
M  V30 2602 C 234.824 1.75307 4.92001 0
M  V30 2603 H 236.518 1.26249 2.7148 0
M  V30 2604 H 234.064 0.608515 1.30511 0
M  V30 2605 H 236.017 -0.703422 4.15488 0
M  V30 2606 H 234.741 -1.2257 3.02728 0
M  V30 2607 H 233.4 0.8368 3.56922 0
M  V30 2608 H 233.048 -1.27225 4.86644 0
M  V30 2609 H 232.748 0.166209 5.87365 0
M  V30 2610 H 234.272 -0.747389 6.06009 0
M  V30 2611 H 235.686 1.46437 5.54283 0
M  V30 2612 H 234.083 2.25534 5.56106 0
M  V30 2613 H 235.153 2.48176 4.16577 0
M  V30 2614 N 236.496 -1.42363 0.676048 0
M  V30 2615 C 237.724 -2.05859 0.207268 0
M  V30 2616 C 238.139 -1.50796 -1.13605 0
M  V30 2617 O 237.496 -0.648265 -1.70598 0
M  V30 2618 C 237.547 -3.61248 0.134975 0
M  V30 2619 O 237.268 -4.1427 1.42521 0
M  V30 2620 C 238.769 -4.41859 -0.357151 0
M  V30 2621 H 235.989 -0.663431 0.100503 0
M  V30 2622 H 238.533 -1.82479 0.923136 0
M  V30 2623 H 236.688 -3.83735 -0.531588 0
M  V30 2624 H 237.102 -5.0815 1.29939 0
M  V30 2625 H 238.576 -5.50847 -0.356641 0
M  V30 2626 H 239.053 -4.16536 -1.39264 0
M  V30 2627 H 239.659 -4.24392 0.27772 0
M  V30 2628 N 237.974 -0.419461 -1.51915 0
M  V30 2629 C 238.922 0.415502 -2.28859 0
M  V30 2630 C 239.916 1.03674 -1.3397 0
M  V30 2631 O 241.122 0.973757 -1.51387 0
M  V30 2632 H 237.497 0.152786 -0.736315 0
M  V30 2633 H 239.468 -0.254531 -2.97312 0
M  V30 2634 C 238.217 1.51425 -3.12995 0
M  V30 2635 H 237.54 1.04556 -3.85886 0
M  V30 2636 H 238.98 2.07208 -3.6992 0
M  V30 2637 C 237.439 2.48745 -2.27217 0
M  V30 2638 O 237.969 3.52871 -1.9195 0
M  V30 2639 N 236.175 2.19202 -1.90785 0
M  V30 2640 H 235.722 1.34556 -2.19664 0
M  V30 2641 H 235.68 2.84561 -1.33687 0
M  V30 2642 N 239.452 1.56882 -0.150215 0
M  V30 2643 C 240.362 2.20494 0.801222 0
M  V30 2644 C 241.378 1.19019 1.26927 0
M  V30 2645 O 242.554 1.51607 1.32579 0
M  V30 2646 C 239.619 2.81659 2.02161 0
M  V30 2647 C 238.68 3.9827 1.60249 0
M  V30 2648 C 237.913 4.56508 2.7647 0
M  V30 2649 O 238.136 4.13627 3.92771 0
M  V30 2650 O 237.07 5.46719 2.51757 0
M  V30 2651 H 240.896 3.02315 0.289717 0
M  V30 2652 H 238.481 1.49202 0.0769684 0
M  V30 2653 H 240.363 3.20522 2.73576 0
M  V30 2654 H 239.038 2.02849 2.52258 0
M  V30 2655 H 237.945 3.64117 0.858477 0
M  V30 2656 H 239.278 4.78609 1.14864 0
M  V30 2657 N 240.93 -0.123565 1.57115 0
M  V30 2658 C 242.176 -0.833386 1.84885 0
M  V30 2659 C 242.509 -1.79742 0.735292 0
M  V30 2660 O 241.784 -1.92764 -0.25925 0
M  V30 2661 C 242.067 -1.5873 3.23228 0
M  V30 2662 C 241.92 -0.643183 4.45178 0
M  V30 2663 C 243.239 -2.54453 3.59085 0
M  V30 2664 H 240.358 -0.301518 0.6725 0
M  V30 2665 H 243 -0.097778 1.89748 0
M  V30 2666 H 241.15 -2.21438 3.19214 0
M  V30 2667 H 242.822 -0.0253015 4.61293 0
M  V30 2668 H 241.065 0.0456139 4.33776 0
M  V30 2669 H 241.736 -1.20724 5.38637 0
M  V30 2670 H 244.212 -2.01853 3.63861 0
M  V30 2671 H 243.088 -3.04238 4.5687 0
M  V30 2672 H 243.349 -3.36906 2.86264 0
M  V30 2673 N 242.408 -1.52605 -0.393616 0
M  V30 2674 C 243.633 -1.71592 -1.16495 0
M  V30 2675 C 244.058 -0.43133 -1.83088 0
M  V30 2676 O 243.416 0.612523 -1.7064 0
M  V30 2677 C 243.464 -2.86318 -2.19213 0
M  V30 2678 O 242.568 -2.52969 -3.257 0
M  V30 2679 H 241.909 -0.570734 -0.33935 0
M  V30 2680 H 244.439 -1.99377 -0.459324 0
M  V30 2681 H 244.449 -3.1168 -2.63286 0
M  V30 2682 H 243.124 -3.79511 -1.7013 0
M  V30 2683 H 241.701 -2.38332 -2.86797 0
M  V30 2684 N 243.887 0.651787 -1.4349 0
M  V30 2685 C 245.117 1.43728 -1.48411 0
M  V30 2686 C 245.525 1.8893 -0.10103 0
M  V30 2687 O 244.868 1.60182 0.899307 0
M  V30 2688 C 244.93 2.70411 -2.36893 0
M  V30 2689 C 244.594 2.4714 -3.8441 0
M  V30 2690 C 245.591 2.10271 -4.75481 0
M  V30 2691 C 243.276 2.6142 -4.28912 0
M  V30 2692 C 245.27 1.87982 -6.0905 0
M  V30 2693 C 242.957 2.38746 -5.62533 0
M  V30 2694 C 243.955 2.02083 -6.5242 0
M  V30 2695 O 243.643 1.79647 -7.8357 0
M  V30 2696 H 243.375 0.447962 -0.506267 0
M  V30 2697 H 245.929 0.80624 -1.88915 0
M  V30 2698 H 244.159 3.36079 -1.91278 0
M  V30 2699 H 245.848 3.32364 -2.33 0
M  V30 2700 H 246.614 1.98814 -4.42378 0
M  V30 2701 H 242.493 2.88931 -3.59222 0
M  V30 2702 H 246.037 1.5929 -6.7917 0
M  V30 2703 H 241.934 2.49806 -5.95203 0
M  V30 2704 H 242.702 1.9406 -7.95162 0
M  V30 2705 N 245.365 1.30045 0.890287 0
M  V30 2706 C 246.275 1.17885 2.02831 0
M  V30 2707 C 247.291 0.0999609 1.73713 0
M  V30 2708 O 248.467 0.313867 1.98939 0
M  V30 2709 C 245.532 0.866079 3.35708 0
M  V30 2710 C 244.593 2.02979 3.78283 0
M  V30 2711 C 243.826 1.73184 5.0482 0
M  V30 2712 O 244.049 0.657237 5.66601 0
M  V30 2713 O 242.983 2.58267 5.43674 0
M  V30 2714 H 246.809 2.13474 2.16015 0
M  V30 2715 H 244.394 1.09587 1.01543 0
M  V30 2716 H 246.276 0.706623 4.15433 0
M  V30 2717 H 244.951 -0.0599443 3.23644 0
M  V30 2718 H 243.858 2.24454 2.99285 0
M  V30 2719 H 245.191 2.93734 3.94944 0
M  V30 2720 N 246.843 -1.10192 1.12674 0
M  V30 2721 C 248.259 -1.34235 0.863317 0
M  V30 2722 C 248.459 -1.95062 -0.505277 0
M  V30 2723 O 247.515 -2.19192 -1.25345 0
M  V30 2724 C 248.828 -2.2616 1.98172 0
M  V30 2725 C 250.376 -2.3969 2.0129 0
M  V30 2726 C 250.851 -3.34946 3.1237 0
M  V30 2727 N 252.342 -3.42515 3.11829 0
M  V30 2728 C 253.077 -4.16199 3.94419 0
M  V30 2729 N 252.573 -4.92747 4.87004 0
M  V30 2730 N 254.366 -4.11843 3.82547 0
M  V30 2731 H 246.517 -0.690798 2.00853 0
M  V30 2732 H 248.78 -0.366774 0.874174 0
M  V30 2733 H 248.486 -1.8868 2.96804 0
M  V30 2734 H 248.36 -3.26488 1.88906 0
M  V30 2735 H 250.747 -2.76438 1.03276 0
M  V30 2736 H 250.828 -1.39169 2.14629 0
M  V30 2737 H 250.472 -2.98923 4.10619 0
M  V30 2738 H 250.402 -4.35353 2.96269 0
M  V30 2739 H 252.893 -2.87926 2.44759 0
M  V30 2740 H 253.206 -5.46376 5.46528 0
M  V30 2741 H 251.551 -4.91862 4.91016 0
M  V30 2742 H 254.742 -3.51136 3.0955 0
M  V30 2743 H 254.915 -4.69007 4.47142 0
M  V30 2744 N 248.321 -0.919034 -1.28029 0
M  V30 2745 C 249.268 -0.410005 -2.27129 0
M  V30 2746 C 250.238 0.518405 -1.57803 0
M  V30 2747 O 251.423 0.439451 -1.8567 0
M  V30 2748 C 248.563 0.339054 -3.4343 0
M  V30 2749 C 247.676 -0.622468 -4.27492 0
M  V30 2750 C 246.811 0.145567 -5.31001 0
M  V30 2751 C 245.85 -0.809226 -6.06727 0
M  V30 2752 N 244.987 -0.0743728 -7.02061 0
M  V30 2753 H 249.827 -1.26011 -2.70047 0
M  V30 2754 H 247.364 -0.632663 -1.328 0
M  V30 2755 H 249.322 0.789586 -4.0966 0
M  V30 2756 H 247.952 1.15346 -3.01488 0
M  V30 2757 H 247.004 -1.19153 -3.61257 0
M  V30 2758 H 248.316 -1.35252 -4.80113 0
M  V30 2759 H 247.47 0.656417 -6.03139 0
M  V30 2760 H 246.209 0.908643 -4.79161 0
M  V30 2761 H 245.214 -1.3314 -5.33436 0
M  V30 2762 H 246.439 -1.57194 -6.60656 0
M  V30 2763 H 244.385 0.670616 -6.52563 0
M  V30 2764 H 244.302 -0.744157 -7.52329 0
M  V30 2765 H 245.57 0.416109 -7.78389 0
M  V30 2766 N 249.799 1.42003 -0.683588 0
M  V30 2767 C 251.048 2.00638 -0.206681 0
M  V30 2768 C 251.361 1.5472 1.19671 0
M  V30 2769 O 252.567 2.05833 1.77045 0
M  V30 2770 C 251.023 3.58487 -0.318632 0
M  V30 2771 C 250.631 4.1339 -1.72663 0
M  V30 2772 C 252.375 4.24384 0.0991141 0
M  V30 2773 C 250.282 5.63633 -1.79087 0
M  V30 2774 H 249.212 0.750408 -0.0735107 0
M  V30 2775 H 251.863 1.62624 -0.850048 0
M  V30 2776 H 250.245 3.94047 0.392781 0
M  V30 2777 H 251.419 3.89273 -2.46583 0
M  V30 2778 H 249.734 3.59976 -2.09299 0
M  V30 2779 H 252.331 5.34652 0.0713833 0
M  V30 2780 H 252.674 4.00505 1.13586 0
M  V30 2781 H 253.207 3.93816 -0.561599 0
M  V30 2782 H 249.946 5.92323 -2.80774 0
M  V30 2783 H 249.466 5.89714 -1.09535 0
M  V30 2784 H 251.145 6.28201 -1.5483 0
M  V30 2785 N 251.277 0.427512 1.51691 0
M  V30 2786 C 252.224 -0.388867 2.275 0
M  V30 2787 C 253.194 -1.02532 1.30677 0
M  V30 2788 O 254.379 -1.0461 1.59566 0
M  V30 2789 C 251.519 -1.48954 3.11298 0
M  V30 2790 C 250.632 -0.872194 4.23104 0
M  V30 2791 C 249.767 -1.94709 4.94228 0
M  V30 2792 C 248.806 -1.30766 5.97969 0
M  V30 2793 N 247.943 -2.32349 6.62539 0
M  V30 2794 H 252.783 0.263997 2.96828 0
M  V30 2795 H 250.32 0.142033 1.46413 0
M  V30 2796 H 252.278 -2.13887 3.58201 0
M  V30 2797 H 250.908 -2.11217 2.44105 0
M  V30 2798 H 249.96 -0.111419 3.80237 0
M  V30 2799 H 251.272 -0.365264 4.97461 0
M  V30 2800 H 250.426 -2.67327 5.44629 0
M  V30 2801 H 249.165 -2.48773 4.1948 0
M  V30 2802 H 248.17 -0.566902 5.4687 0
M  V30 2803 H 249.395 -0.774483 6.74669 0
M  V30 2804 H 247.341 -2.85511 5.90609 0
M  V30 2805 H 247.258 -1.8652 7.3263 0
M  V30 2806 H 248.526 -3.04481 7.17574 0
M  V30 2807 N 252.755 -1.56801 0.158532 0
M  V30 2808 C 253.665 -2.20916 -0.789518 0
M  V30 2809 C 254.681 -1.1969 -1.26294 0
M  V30 2810 O 255.857 -1.52308 -1.31773 0
M  V30 2811 C 252.922 -2.82727 -2.00665 0
M  V30 2812 C 251.983 -3.99114 -1.58134 0
M  V30 2813 C 251.216 -4.57968 -2.74045 0
M  V30 2814 O 251.439 -4.15704 -3.90572 0
M  V30 2815 O 250.373 -5.48047 -2.48855 0
M  V30 2816 H 254.199 -3.02464 -0.273681 0
M  V30 2817 H 251.784 -1.4924 -0.0690548 0
M  V30 2818 H 253.666 -3.21968 -2.71872 0
M  V30 2819 H 252.341 -2.04184 -2.51179 0
M  V30 2820 H 251.248 -3.64567 -0.839155 0
M  V30 2821 H 252.581 -4.79212 -1.12325 0
M  V30 2822 N 254.233 0.115231 -1.57178 0
M  V30 2823 C 255.166 1.17166 -1.95825 0
M  V30 2824 C 256.144 1.39912 -0.828463 0
M  V30 2825 O 257.328 1.54004 -1.08697 0
M  V30 2826 C 254.455 2.52478 -2.25771 0
M  V30 2827 C 253.501 2.46136 -3.48309 0
M  V30 2828 S 254.334 1.89736 -5.0076 0
M  V30 2829 C 255.49 3.26713 -5.33863 0
M  V30 2830 H 255.723 0.842103 -2.85124 0
M  V30 2831 H 253.256 0.322136 -1.51002 0
M  V30 2832 H 255.214 3.30332 -2.43702 0
M  V30 2833 H 253.875 2.82609 -1.37079 0
M  V30 2834 H 253.068 3.45819 -3.66641 0
M  V30 2835 H 252.67 1.76404 -3.29784 0
M  V30 2836 H 254.962 4.22935 -5.29275 0
M  V30 2837 H 255.905 3.13205 -6.35065 0
M  V30 2838 H 256.313 3.25316 -4.61335 0
M  V30 2839 N 255.711 1.52812 0.385517 0
M  V30 2840 C 256.941 1.71658 1.14966 0
M  V30 2841 C 257.349 0.436253 1.84102 0
M  V30 2842 O 256.692 -0.599313 1.73649 0
M  V30 2843 C 256.754 2.81309 2.23843 0
M  V30 2844 C 256.418 4.22313 1.74644 0
M  V30 2845 C 257.415 5.05352 1.22129 0
M  V30 2846 C 255.1 4.68648 1.80761 0
M  V30 2847 C 257.094 6.32807 0.763838 0
M  V30 2848 C 254.781 5.96086 1.34627 0
M  V30 2849 C 255.779 6.77996 0.825264 0
M  V30 2850 O 255.467 8.03045 0.370669 0
M  V30 2851 H 255.199 0.578022 0.350523 0
M  V30 2852 H 257.753 2.00263 0.456509 0
M  V30 2853 H 255.983 2.48133 2.96592 0
M  V30 2854 H 257.672 2.88524 2.85497 0
M  V30 2855 H 258.438 4.70736 1.16758 0
M  V30 2856 H 254.317 4.04979 2.20256 0
M  V30 2857 H 257.861 6.96689 0.356494 0
M  V30 2858 H 253.758 6.30205 1.39686 0
M  V30 2859 H 254.526 8.17021 0.491829 0
M  V30 2860 N 257.189 -0.644168 1.43834 0
M  V30 2861 C 258.119 -1.76814 1.52509 0
M  V30 2862 C 259.1 -1.65823 0.379052 0
M  V30 2863 O 260.285 -1.84781 0.597466 0
M  V30 2864 C 257.415 -3.15288 1.4564 0
M  V30 2865 C 256.369 -3.41053 2.58586 0
M  V30 2866 C 255.695 -4.79421 2.36769 0
M  V30 2867 C 256.995 -3.34902 4.00797 0
M  V30 2868 H 258.689 -1.69812 2.46586 0
M  V30 2869 H 256.235 -0.815542 1.1868 0
M  V30 2870 H 258.188 -3.93681 1.50311 0
M  V30 2871 H 256.912 -3.23043 0.480725 0
M  V30 2872 H 255.571 -2.65035 2.53282 0
M  V30 2873 H 255.219 -4.83863 1.37424 0
M  V30 2874 H 254.919 -4.9762 3.12487 0
M  V30 2875 H 256.443 -5.6006 2.43238 0
M  V30 2876 H 257.857 -4.03218 4.07539 0
M  V30 2877 H 256.254 -3.64637 4.76613 0
M  V30 2878 H 257.324 -2.32928 4.25291 0
M  V30 2879 N 258.668 -1.30515 -0.883378 0
M  V30 2880 C 259.631 -1.1701 -1.97082 0
M  V30 2881 C 260.631 -0.10089 -1.60483 0
M  V30 2882 O 261.821 -0.349127 -1.70666 0
M  V30 2883 C 258.953 -0.793045 -3.31547 0
M  V30 2884 H 260.146 -2.13622 -2.10489 0
M  V30 2885 H 257.699 -1.13935 -1.06998 0
M  V30 2886 H 258.434 0.172499 -3.23841 0
M  V30 2887 H 258.219 -1.56576 -3.5948 0
M  V30 2888 H 259.709 -0.722073 -4.1131 0
M  V30 2889 N 260.146 1.09593 -1.13257 0
M  V30 2890 C 261.076 2.18214 -0.830946 0
M  V30 2891 C 262.057 1.68812 0.208966 0
M  V30 2892 O 263.242 1.9408 0.0682666 0
M  V30 2893 C 260.372 3.46051 -0.294296 0
M  V30 2894 C 259.326 4.08778 -1.26826 0
M  V30 2895 C 258.652 5.31419 -0.591449 0
M  V30 2896 C 259.952 4.51476 -2.62615 0
M  V30 2897 H 261.646 2.43703 -1.73923 0
M  V30 2898 H 259.192 1.17128 -0.837675 0
M  V30 2899 H 261.145 4.2134 -0.0709606 0
M  V30 2900 H 259.869 3.20079 0.649366 0
M  V30 2901 H 258.528 3.35505 -1.47756 0
M  V30 2902 H 258.176 5.01727 0.357633 0
M  V30 2903 H 257.876 5.74341 -1.24123 0
M  V30 2904 H 259.4 6.09433 -0.377355 0
M  V30 2905 H 260.814 5.17999 -2.45663 0
M  V30 2906 H 259.211 5.05277 -3.23752 0
M  V30 2907 H 260.281 3.63962 -3.20406 0
M  V30 2908 N 261.624 0.925811 1.2754 0
M  V30 2909 C 262.534 0.428993 2.30644 0
M  V30 2910 C 263.55 -0.489387 1.66976 0
M  V30 2911 O 264.726 -0.372653 1.97922 0
M  V30 2912 C 261.791 -0.311967 3.45294 0
M  V30 2913 C 260.852 0.641098 4.24486 0
M  V30 2914 C 260.085 -0.0645955 5.33661 0
M  V30 2915 O 260.308 -1.28429 5.55754 0
M  V30 2916 O 259.242 0.606265 5.98839 0
M  V30 2917 H 263.068 1.28504 2.75173 0
M  V30 2918 H 260.653 0.691086 1.32455 0
M  V30 2919 H 262.535 -0.729972 4.15029 0
M  V30 2920 H 261.21 -1.14365 3.02824 0
M  V30 2921 H 260.117 1.10874 3.57292 0
M  V30 2922 H 261.45 1.43995 4.70666 0
M  V30 2923 N 263.102 -1.41638 0.69111 0
M  V30 2924 C 264.032 -2.3347 0.037248 0
M  V30 2925 C 265.013 -1.51575 -0.771947 0
M  V30 2926 O 266.198 -1.80126 -0.72582 0
M  V30 2927 C 263.328 -3.35354 -0.903064 0
M  V30 2928 C 262.282 -4.27526 -0.201288 0
M  V30 2929 C 261.608 -5.19747 -1.25565 0
M  V30 2930 C 262.908 -5.13959 0.929689 0
M  V30 2931 H 264.602 -2.88397 0.804227 0
M  V30 2932 H 262.148 -1.38669 0.388189 0
M  V30 2933 H 264.101 -3.98519 -1.36969 0
M  V30 2934 H 262.825 -2.78767 -1.70166 0
M  V30 2935 H 261.484 -3.65779 0.245265 0
M  V30 2936 H 261.132 -4.59479 -2.04666 0
M  V30 2937 H 260.832 -5.8225 -0.791128 0
M  V30 2938 H 262.356 -5.85789 -1.72288 0
M  V30 2939 H 263.77 -5.70718 0.543546 0
M  V30 2940 H 262.167 -5.85379 1.32103 0
M  V30 2941 H 263.237 -4.51389 1.77133 0
M  V30 2942 N 264.58 -0.43555 -1.51462 0
M  V30 2943 C 265.49 0.383001 -2.31453 0
M  V30 2944 C 266.506 1.02931 -1.4029 0
M  V30 2945 O 267.682 1.02507 -1.73362 0
M  V30 2946 C 264.747 1.47043 -3.13973 0
M  V30 2947 C 263.808 0.844433 -4.20913 0
M  V30 2948 C 263.041 1.88004 -4.9949 0
M  V30 2949 O 263.264 3.10199 -4.78678 0
M  V30 2950 O 262.198 1.47157 -5.83634 0
M  V30 2951 H 266.024 -0.269964 -3.02498 0
M  V30 2952 H 263.609 -0.19813 -1.4808 0
M  V30 2953 H 265.491 2.10113 -3.65281 0
M  V30 2954 H 264.166 2.10751 -2.45695 0
M  V30 2955 H 263.073 0.175729 -3.73687 0
M  V30 2956 H 264.406 0.250869 -4.9156 0
M  V30 2957 N 266.058 1.56714 -0.166846 0
M  V30 2958 C 267.005 2.17746 0.765193 0
M  V30 2959 C 267.975 1.11614 1.23011 0
M  V30 2960 O 269.16 1.39745 1.29908 0
M  V30 2961 C 266.3 2.81882 1.9909 0
M  V30 2962 C 265.413 4.02462 1.56997 0
M  V30 2963 C 264.548 4.54537 2.749 0
M  V30 2964 C 263.587 5.67538 2.29275 0
M  V30 2965 N 262.724 6.14142 3.40255 0
M  V30 2966 H 267.564 2.97048 0.237952 0
M  V30 2967 H 265.101 1.4672 0.105725 0
M  V30 2968 H 267.059 3.17221 2.70974 0
M  V30 2969 H 265.689 2.05191 2.49192 0
M  V30 2970 H 264.741 3.72973 0.748037 0
M  V30 2971 H 266.053 4.84273 1.19503 0
M  V30 2972 H 265.207 4.92035 3.54946 0
M  V30 2973 H 263.946 3.71774 3.1565 0
M  V30 2974 H 262.951 5.29597 1.47674 0
M  V30 2975 H 264.176 6.52099 1.89588 0
M  V30 2976 H 262.122 5.3431 3.8059 0
M  V30 2977 H 262.039 6.9093 3.06841 0
M  V30 2978 H 263.307 6.56289 4.206 0
M  V30 2979 N 267.536 -0.106894 1.57237 0
M  V30 2980 C 268.486 -1.1366 1.9765 0
M  V30 2981 C 269.47 -1.36416 0.853203 0
M  V30 2982 O 270.662 -1.37305 1.11697 0
M  V30 2983 C 267.791 -2.46 2.39455 0
M  V30 2984 C 266.877 -2.26668 3.58445 0
M  V30 2985 N 267.268 -1.77176 4.73754 0
M  V30 2986 C 265.566 -2.57279 3.64312 0
M  V30 2987 C 266.267 -1.71836 5.5574 0
M  V30 2988 N 265.243 -2.16623 4.98573 0
M  V30 2989 H 269.045 -0.74669 2.84256 0
M  V30 2990 H 266.559 -0.314483 1.59326 0
M  V30 2991 H 268.556 -3.2049 2.6663 0
M  V30 2992 H 267.216 -2.85738 1.54219 0
M  V30 2993 H 268.227 -1.46545 4.96734 0
M  V30 2994 H 264.904 -3.00622 2.89711 0
M  V30 2995 H 266.294 -1.34723 6.58255 0
M  V30 2996 N 269.014 -1.53014 -0.377408 0
M  V30 2997 C 269.944 -1.81589 -1.46791 0
M  V30 2998 C 270.925 -0.668622 -1.56408 0
M  V30 2999 O 272.11 -0.917337 -1.71168 0
M  V30 3000 C 269.24 -1.99519 -2.8427 0
M  V30 3001 C 268.194 -3.15249 -2.89486 0
M  V30 3002 C 267.52 -3.18451 -4.29527 0
M  V30 3003 C 268.82 -4.54084 -2.58079 0
M  V30 3004 H 270.514 -2.7291 -1.23127 0
M  V30 3005 H 268.06 -1.31319 -0.590883 0
M  V30 3006 H 270.013 -2.18092 -3.60575 0
M  V30 3007 H 268.737 -1.04897 -3.09296 0
M  V30 3008 H 267.396 -2.96477 -2.15631 0
M  V30 3009 H 267.044 -2.2149 -4.5161 0
M  V30 3010 H 266.744 -3.962 -4.33934 0
M  V30 3011 H 268.268 -3.39193 -5.07721 0
M  V30 3012 H 269.682 -4.72899 -3.24098 0
M  V30 3013 H 268.079 -5.33987 -2.7382 0
M  V30 3014 H 269.149 -4.60006 -1.53372 0
M  V30 3015 N 270.492 0.636531 -1.44174 0
M  V30 3016 C 271.717 1.42847 -1.50364 0
M  V30 3017 C 272.142 1.87665 -0.127867 0
M  V30 3018 O 271.5 1.58408 0.88185 0
M  V30 3019 C 271.548 2.62854 -2.4686 0
M  V30 3020 O 270.652 3.62501 -1.9664 0
M  V30 3021 H 269.993 0.427642 -0.507955 0
M  V30 3022 H 272.523 0.777422 -1.89255 0
M  V30 3023 H 272.533 3.10465 -2.64718 0
M  V30 3024 H 271.208 2.29578 -3.46795 0
M  V30 3025 H 269.785 3.21735 -1.88523 0
M  V30 3026 N 271.97 1.30982 0.876444 0
M  V30 3027 C 272.917 1.18085 1.98304 0
M  V30 3028 C 273.887 0.0682263 1.6596 0
M  V30 3029 O 275.072 0.239937 1.89285 0
M  V30 3030 C 272.212 0.887475 3.33493 0
M  V30 3031 C 271.325 2.08281 3.78475 0
M  V30 3032 C 270.46 1.72678 5.0235 0
M  V30 3033 C 269.499 2.88657 5.39762 0
M  V30 3034 N 268.636 2.53292 6.54819 0
M  V30 3035 H 273.476 2.1275 2.08666 0
M  V30 3036 H 271.013 1.05839 1.02159 0
M  V30 3037 H 272.971 0.697961 4.1132 0
M  V30 3038 H 271.601 -0.022315 3.22792 0
M  V30 3039 H 270.653 2.3833 2.96484 0
M  V30 3040 H 271.965 2.95108 4.02135 0
M  V30 3041 H 271.119 1.50151 5.87826 0
M  V30 3042 H 269.858 0.830327 4.8058 0
M  V30 3043 H 268.863 3.1184 4.52809 0
M  V30 3044 H 270.088 3.79002 5.63502 0
M  V30 3045 H 268.034 1.66163 6.34607 0
M  V30 3046 H 267.951 3.3365 6.7839 0
M  V30 3047 H 269.219 2.34143 7.43503 0
M  V30 3048 N 273.449 -1.08991 1.13837 0
M  V30 3049 C 274.726 -1.77863 0.813876 0
M  V30 3050 C 275.106 -1.99375 -0.693746 0
M  V30 3051 O 274.454 -1.59875 -1.63255 0
M  V30 3052 C 274.664 -3.0986 1.60586 0
M  V30 3053 C 276.012 -3.84493 1.8014 0
M  V30 3054 O 277.036 -3.19624 1.57222 0
M  V30 3055 O 275.895 -5.00957 2.18413 0
M  V30 3056 H 272.989 -0.771589 0.297624 0
M  V30 3057 H 275.535 -1.15507 1.24323 0
M  V30 3058 H 274.307 -2.89715 2.63022 0
M  V30 3059 H 273.93 -3.79942 1.17173 0
M  V30 3060 N 274.927 -0.932562 -1.27047 0
M  V30 3061 C 275.837 -0.441219 -2.30414 0
M  V30 3062 C 276.853 0.480525 -1.67233 0
M  V30 3063 O 278.029 0.362151 -1.98117 0
M  V30 3064 C 275.094 0.293651 -3.45454 0
M  V30 3065 C 274.155 -0.663601 -4.2414 0
M  V30 3066 C 273.388 0.0362932 -5.33688 0
M  V30 3067 O 273.611 1.2548 -5.56427 0
M  V30 3068 O 272.545 -0.638015 -5.98509 0
M  V30 3069 H 276.371 -1.29962 -2.74488 0
M  V30 3070 H 273.956 -0.6981 -1.32087 0
M  V30 3071 H 275.838 0.707951 -4.15411 0
M  V30 3072 H 274.513 1.12758 -3.03426 0
M  V30 3073 H 273.42 -1.12768 -3.56699 0
M  V30 3074 H 274.753 -1.46489 -4.69896 0
M  V30 3075 N 276.405 1.4127 -0.698611 0
M  V30 3076 C 277.654 2.00408 -0.227949 0
M  V30 3077 C 277.967 1.55981 1.18023 0
M  V30 3078 O 279.173 2.07699 1.74852 0
M  V30 3079 C 277.629 3.58129 -0.356636 0
M  V30 3080 C 277.237 4.11536 -1.77037 0
M  V30 3081 C 278.981 4.24466 0.0540969 0
M  V30 3082 C 276.888 5.61701 -1.85055 0
M  V30 3083 H 275.818 0.749586 -0.0814657 0
M  V30 3084 H 278.469 1.61713 -0.867249 0
M  V30 3085 H 276.851 3.94442 0.350965 0
M  V30 3086 H 278.025 3.86636 -2.50698 0
M  V30 3087 H 276.34 3.57736 -2.13105 0
M  V30 3088 H 278.937 5.34698 0.0146723 0
M  V30 3089 H 279.28 4.01687 1.09332 0
M  V30 3090 H 279.813 3.93198 -0.603337 0
M  V30 3091 H 276.552 5.89312 -2.8704 0
M  V30 3092 H 276.072 5.88519 -1.15783 0
M  V30 3093 H 277.751 6.26524 -1.61484 0
M  V30 3094 N 277.883 0.443576 1.51229 0
M  V30 3095 C 278.813 -0.355142 2.30783 0
M  V30 3096 C 279.794 -1.0154 1.36468 0
M  V30 3097 O 280.979 -1.01785 1.65389 0
M  V30 3098 C 278.109 -1.45312 3.15439 0
M  V30 3099 C 277.063 -0.916002 4.18083 0
M  V30 3100 C 276.389 -2.1102 4.91299 0
M  V30 3101 C 277.689 0.0538602 5.22272 0
M  V30 3102 H 279.383 0.308767 2.97804 0
M  V30 3103 H 276.929 0.149937 1.43217 0
M  V30 3104 H 278.882 -2.01914 3.69876 0
M  V30 3105 H 277.606 -2.14541 2.46252 0
M  V30 3106 H 276.265 -0.372145 3.64706 0
M  V30 3107 H 275.913 -2.78882 4.18609 0
M  V30 3108 H 275.613 -1.75717 5.60712 0
M  V30 3109 H 277.137 -2.68164 5.48562 0
M  V30 3110 H 278.551 -0.422069 5.71744 0
M  V30 3111 H 276.948 0.319776 5.99247 0
M  V30 3112 H 278.018 0.98858 4.74716 0
M  V30 3113 N 279.361 -1.56624 0.175154 0
M  V30 3114 C 280.589 -2.01374 -0.474971 0
M  V30 3115 C 281.004 -1.05537 -1.56548 0
M  V30 3116 O 280.361 -0.0568668 -1.82411 0
M  V30 3117 C 280.412 -3.45923 -1.04975 0
M  V30 3118 O 280.133 -4.381 -0.00276605 0
M  V30 3119 C 281.634 -4.06093 -1.77773 0
M  V30 3120 H 278.854 -0.659962 -0.121206 0
M  V30 3121 H 281.398 -2.02601 0.27801 0
M  V30 3122 H 279.553 -3.45458 -1.75321 0
M  V30 3123 H 279.967 -5.22753 -0.427681 0
M  V30 3124 H 281.441 -5.09147 -2.13245 0
M  V30 3125 H 281.918 -3.48405 -2.67414 0
M  V30 3126 H 282.524 -4.10272 -1.12059 0
M  V30 3127 N 280.839 0.0985539 -1.57292 0
M  V30 3128 C 282.067 0.816318 -1.90115 0
M  V30 3129 C 282.482 1.72451 -0.768509 0
M  V30 3130 O 281.839 1.80643 0.259687 0
M  V30 3131 C 281.89 1.63259 -3.22535 0
M  V30 3132 O 281.611 0.760934 -4.31441 0
M  V30 3133 C 283.112 2.45372 -3.69199 0
M  V30 3134 H 280.332 0.233595 -0.629027 0
M  V30 3135 H 282.876 0.0768229 -2.04356 0
M  V30 3136 H 281.031 2.32463 -3.09903 0
M  V30 3137 H 281.445 1.32595 -5.07463 0
M  V30 3138 H 282.919 2.98144 -4.64558 0
M  V30 3139 H 283.396 3.23677 -2.96867 0
M  V30 3140 H 284.002 1.81373 -3.84687 0
M  V30 3141 N 282.317 1.53212 0.369288 0
M  V30 3142 C 283.547 1.72868 1.13139 0
M  V30 3143 C 283.955 0.455754 1.83629 0
M  V30 3144 O 283.298 -0.580861 1.74275 0
M  V30 3145 C 283.36 2.83667 2.20847 0
M  V30 3146 C 283.024 4.24142 1.70155 0
M  V30 3147 C 284.021 5.06619 1.16763 0
M  V30 3148 C 281.706 4.70539 1.7578 0
M  V30 3149 C 283.7 6.33581 0.696678 0
M  V30 3150 C 281.387 5.97481 1.28297 0
M  V30 3151 C 282.385 6.78833 0.753307 0
M  V30 3152 O 282.073 8.03393 0.285475 0
M  V30 3153 H 281.805 0.581707 0.344373 0
M  V30 3154 H 284.359 2.00736 0.435243 0
M  V30 3155 H 282.589 2.51265 2.93944 0
M  V30 3156 H 284.278 2.91536 2.82421 0
M  V30 3157 H 285.044 4.71948 1.11758 0
M  V30 3158 H 280.923 4.07293 2.15949 0
M  V30 3159 H 284.467 6.97027 0.282581 0
M  V30 3160 H 280.364 6.31651 1.32994 0
M  V30 3161 H 281.132 8.17497 0.405145 0
M  V30 3162 N 283.795 -0.628877 1.44509 0
M  V30 3163 C 284.725 -1.75187 1.54376 0
M  V30 3164 C 285.706 -1.65411 0.396618 0
M  V30 3165 O 286.891 -1.84137 0.617031 0
M  V30 3166 C 284.021 -3.13725 1.48976 0
M  V30 3167 C 282.975 -3.38291 2.62189 0
M  V30 3168 C 282.301 -4.76883 2.41841 0
M  V30 3169 C 283.601 -3.30632 4.04326 0
M  V30 3170 H 285.295 -1.67187 2.48373 0
M  V30 3171 H 282.841 -0.802909 1.19538 0
M  V30 3172 H 284.794 -3.92064 1.54478 0
M  V30 3173 H 283.518 -3.22515 0.514961 0
M  V30 3174 H 282.177 -2.62334 2.56079 0
M  V30 3175 H 281.825 -4.82378 1.42548 0
M  V30 3176 H 281.525 -4.94278 3.17747 0
M  V30 3177 H 283.049 -5.57449 2.49165 0
M  V30 3178 H 284.463 -3.98873 4.11793 0
M  V30 3179 H 282.86 -3.59561 4.80454 0
M  V30 3180 H 283.93 -2.28404 4.27738 0
M  V30 3181 N 285.273 -1.31445 -0.869486 0
M  V30 3182 C 286.221 -1.19067 -1.99814 0
M  V30 3183 C 287.215 -0.0988569 -1.69111 0
M  V30 3184 O 288.421 -0.260781 -1.78101 0
M  V30 3185 H 284.796 -0.368677 -0.655425 0
M  V30 3186 H 286.767 -2.14555 -2.07385 0
M  V30 3187 C 285.516 -0.915323 -3.35436 0
M  V30 3188 H 284.839 -1.74759 -3.59582 0
M  V30 3189 H 286.279 -0.868895 -4.15001 0
M  V30 3190 C 284.738 0.381928 -3.34728 0
M  V30 3191 O 285.268 1.39857 -3.76567 0
M  V30 3192 N 283.474 0.398633 -2.87853 0
M  V30 3193 H 283.021 -0.429186 -2.54 0
M  V30 3194 H 282.979 1.26651 -2.87762 0
M  V30 3195 N 286.751 1.08385 -1.14413 0
M  V30 3196 C 287.979 1.84517 -0.936001 0
M  V30 3197 C 288.394 1.81626 0.515503 0
M  V30 3198 O 287.751 1.22008 1.35721 0
M  V30 3199 C 287.802 3.32049 -1.42918 0
M  V30 3200 O 287.523 3.34951 -2.82381 0
M  V30 3201 C 289.024 4.24986 -1.26103 0
M  V30 3202 H 286.244 0.582491 -0.333084 0
M  V30 3203 H 288.788 1.36885 -1.5193 0
M  V30 3204 H 286.943 3.7707 -0.888641 0
M  V30 3205 H 287.357 4.27048 -3.04517 0
M  V30 3206 H 288.831 5.26615 -1.6547 0
M  V30 3207 H 289.308 4.38726 -0.20392 0
M  V30 3208 H 289.914 3.85791 -1.79012 0
M  V30 3209 N 288.23 0.939286 1.26551 0
M  V30 3210 C 289.479 0.581601 1.93133 0
M  V30 3211 C 289.792 -0.883224 1.74524 0
M  V30 3212 O 290.998 -1.3502 2.35546 0
M  V30 3213 C 289.454 0.989425 3.46032 0
M  V30 3214 C 289.062 2.47573 3.73379 0
M  V30 3215 C 290.806 0.703544 4.18629 0
M  V30 3216 C 288.713 2.82235 5.19709 0
M  V30 3217 H 287.643 0.213803 0.723052 0
M  V30 3218 H 290.294 1.14167 1.4366 0
M  V30 3219 H 288.676 0.357902 3.94379 0
M  V30 3220 H 289.85 3.15614 3.35744 0
M  V30 3221 H 288.165 2.73471 3.1401 0
M  V30 3222 H 290.762 0.938869 5.26393 0
M  V30 3223 H 291.105 -0.359639 4.14744 0
M  V30 3224 H 291.638 1.2947 3.76141 0
M  V30 3225 H 288.377 3.87509 5.28694 0
M  V30 3226 H 287.897 2.18854 5.58447 0
M  V30 3227 H 289.576 2.70599 5.87695 0
M  V30 3228 N 289.708 -1.40897 0.706093 0
M  V30 3229 C 291.119 -1.84023 0.315052 0
M  V30 3230 C 291.47 -1.5906 -1.14866 0
M  V30 3231 O 290.595 -1.06651 -1.88293 0
M  V30 3232 C 291.19 -3.34055 0.565038 0
M  V30 3233 C 289.749 -3.7571 0.227806 0
M  V30 3234 C 288.896 -2.64204 0.842122 0
M  V30 3235 H 291.847 -1.303 0.905963 0
M  V30 3236 H 291.868 -3.80107 -0.172843 0
M  V30 3237 H 291.38 -3.52192 1.63042 0
M  V30 3238 H 289.481 -3.63172 -0.832895 0
M  V30 3239 H 289.594 -4.74103 0.690174 0
M  V30 3240 H 287.958 -2.53255 0.270893 0
M  V30 3241 H 288.741 -2.85155 1.91158 0
M  V30 3242 N 291.186 -0.45159 -1.50991 0
M  V30 3243 C 292.119 0.398179 -2.24699 0
M  V30 3244 C 293.097 1.01276 -1.27208 0
M  V30 3245 O 294.281 1.05247 -1.56382 0
M  V30 3246 C 291.408 1.55618 -3.00833 0
M  V30 3247 C 290.454 1.0609 -4.13095 0
M  V30 3248 S 291.287 -0.00865136 -5.35499 0
M  V30 3249 C 292.443 1.15369 -6.15175 0
M  V30 3250 H 292.676 -0.227555 -2.96428 0
M  V30 3251 H 290.209 -0.236251 -1.52582 0
M  V30 3252 H 292.167 2.21997 -3.45293 0
M  V30 3253 H 290.828 2.15337 -2.28667 0
M  V30 3254 H 290.021 1.92726 -4.65696 0
M  V30 3255 H 289.623 0.47513 -3.7097 0
M  V30 3256 H 291.915 2.06925 -6.45126 0
M  V30 3257 H 292.858 0.667344 -7.04948 0
M  V30 3258 H 293.266 1.3987 -5.46897 0
M  V30 3259 N 292.664 1.56529 -0.183458 0
M  V30 3260 C 293.912 1.96855 0.457452 0
M  V30 3261 C 294.233 1.07104 1.62953 0
M  V30 3262 O 293.503 0.139887 1.954 0
M  V30 3263 H 292.083 0.72693 0.171992 0
M  V30 3264 H 294.745 1.93056 -0.267476 0
M  V30 3265 H 293.841 3.01423 0.809368 0
M  V30 3266 N 294.142 -0.090211 1.57342 0
M  V30 3267 C 295.39 -0.791241 1.85967 0
M  V30 3268 C 295.711 -1.7903 0.772859 0
M  V30 3269 O 294.981 -1.94872 -0.200398 0
M  V30 3270 H 293.561 -0.295205 0.686195 0
M  V30 3271 H 296.223 -0.0706782 1.94772 0
M  V30 3272 H 295.319 -1.31882 2.82867 0
M  V30 3273 N 295.62 -1.53406 -0.361157 0
M  V30 3274 C 296.85 -1.73465 -1.1222 0
M  V30 3275 C 297.258 -0.465486 -1.83384 0
M  V30 3276 O 296.601 0.571611 -1.7458 0
M  V30 3277 C 296.663 -2.84834 -2.19339 0
M  V30 3278 C 296.327 -4.25038 -1.67903 0
M  V30 3279 C 297.324 -5.07231 -1.14074 0
M  V30 3280 C 295.009 -4.71464 -1.73282 0
M  V30 3281 C 297.003 -6.33942 -0.663068 0
M  V30 3282 C 294.69 -5.98153 -1.25127 0
M  V30 3283 C 295.688 -6.79223 -0.717296 0
M  V30 3284 O 295.376 -8.03533 -0.242865 0
M  V30 3285 H 295.108 -0.583526 -0.341283 0
M  V30 3286 H 297.662 -2.00964 -0.424591 0
M  V30 3287 H 295.892 -2.5282 -2.92607 0
M  V30 3288 H 297.581 -2.9303 -2.80871 0
M  V30 3289 H 298.347 -4.72534 -1.09254 0
M  V30 3290 H 294.226 -4.08432 -2.13786 0
M  V30 3291 H 297.77 -6.97167 -0.245612 0
M  V30 3292 H 293.667 -6.32347 -1.29642 0
M  V30 3293 H 294.435 -8.177 -0.361786 0
M  V30 3294 N 297.098 0.621204 -1.44841 0
M  V30 3295 C 298.03 1.74615 -1.48466 0
M  V30 3296 C 299.043 1.58377 -0.37691 0
M  V30 3297 O 300.232 1.66508 -0.643215 0
M  V30 3298 C 297.332 3.12459 -1.31236 0
M  V30 3299 C 296.505 3.55064 -2.55438 0
M  V30 3300 C 295.564 4.71821 -2.32963 0
M  V30 3301 O 294.59 4.79628 -3.06505 0
M  V30 3302 N 295.792 5.64186 -1.36654 0
M  V30 3303 H 298.557 1.71973 -2.45449 0
M  V30 3304 H 296.118 0.806077 -1.40407 0
M  V30 3305 H 298.11 3.88302 -1.14032 0
M  V30 3306 H 296.68 3.09686 -0.4258 0
M  V30 3307 H 295.9 2.69324 -2.87851 0
M  V30 3308 H 297.188 3.80284 -3.38026 0
M  V30 3309 H 296.586 5.6058 -0.759344 0
M  V30 3310 H 295.143 6.39618 -1.25425 0
M  V30 3311 N 298.576 1.31904 0.862503 0
M  V30 3312 C 299.806 1.24817 1.64634 0
M  V30 3313 C 300.214 -0.187579 1.88268 0
M  V30 3314 O 299.557 -1.13253 1.44635 0
M  V30 3315 C 299.619 1.92996 3.03303 0
M  V30 3316 C 299.283 3.42336 3.02746 0
M  V30 3317 C 300.28 4.37956 2.80162 0
M  V30 3318 C 297.965 3.84147 3.2363 0
M  V30 3319 C 299.959 5.73361 2.78453 0
M  V30 3320 C 297.646 5.19663 3.21549 0
M  V30 3321 C 298.644 6.14081 2.98988 0
M  V30 3322 O 298.332 7.47118 2.96766 0
M  V30 3323 H 298.064 0.432222 0.519769 0
M  V30 3324 H 300.618 1.7445 1.08427 0
M  V30 3325 H 298.848 1.37922 3.61268 0
M  V30 3326 H 300.537 1.79723 3.63943 0
M  V30 3327 H 301.303 4.06981 2.63802 0
M  V30 3328 H 297.182 3.11083 3.40218 0
M  V30 3329 H 300.726 6.4703 2.60763 0
M  V30 3330 H 296.623 5.5027 3.37451 0
M  V30 3331 H 297.391 7.56382 3.12775 0
M  V30 3332 N 300.054 -1.07777 1.14986 0
M  V30 3333 C 301.302 -1.79934 0.920235 0
M  V30 3334 C 301.623 -1.86955 -0.554336 0
M  V30 3335 O 300.893 -1.36731 -1.40291 0
M  V30 3336 H 299.473 -0.666424 0.337473 0
M  V30 3337 H 302.135 -1.3027 1.44968 0
M  V30 3338 H 301.231 -2.82539 1.32583 0
M  V30 3339 N 301.532 -0.945985 -1.26051 0
M  V30 3340 C 302.778 -0.597002 -1.93814 0
M  V30 3341 C 303.111 0.862484 -1.73997 0
M  V30 3342 O 302.386 1.61769 -1.07986 0
M  V30 3343 C 302.669 -0.945937 -3.47454 0
M  V30 3344 C 302.522 -2.46052 -3.76535 0
M  V30 3345 C 303.841 -0.464785 -4.37639 0
M  V30 3346 H 300.96 -0.218366 -0.703907 0
M  V30 3347 H 303.602 -1.18107 -1.48831 0
M  V30 3348 H 301.752 -0.448902 -3.85898 0
M  V30 3349 H 303.424 -3.03065 -3.47778 0
M  V30 3350 H 301.667 -2.90194 -3.22444 0
M  V30 3351 H 302.338 -2.65517 -4.83947 0
M  V30 3352 H 304.814 -0.891016 -4.06448 0
M  V30 3353 H 303.69 -0.737712 -5.4392 0
M  V30 3354 H 303.951 0.635274 -4.37512 0
M  V30 3355 N 303.011 1.40521 -0.713556 0
M  V30 3356 C 304.236 2.05759 -0.26035 0
M  V30 3357 C 304.661 1.53403 1.08854 0
M  V30 3358 O 304.019 0.668535 1.68524 0
M  V30 3359 C 304.067 3.59745 -0.248122 0
M  V30 3360 O 303.171 4.05123 0.77131 0
M  V30 3361 H 302.512 0.652564 -0.122703 0
M  V30 3362 H 305.042 1.79958 -0.973467 0
M  V30 3363 H 305.052 4.07911 -0.0851129 0
M  V30 3364 H 303.727 3.97218 -1.2325 0
M  V30 3365 H 302.304 3.68422 0.57619 0
M  V30 3366 N 304.489 0.459591 1.5075 0
M  V30 3367 C 305.452 -0.329093 2.26825 0
M  V30 3368 C 306.452 -0.930481 1.31144 0
M  V30 3369 O 307.642 -0.801453 1.54669 0
M  V30 3370 C 304.774 -1.46768 3.07688 0
M  V30 3371 H 305.967 0.337924 2.9799 0
M  V30 3372 H 303.52 0.213336 1.54837 0
M  V30 3373 H 304.255 -2.17009 2.40993 0
M  V30 3374 H 304.04 -1.04238 3.77991 0
M  V30 3375 H 305.53 -2.02433 3.65254 0
M  V30 3376 N 305.967 -1.56429 0.191757 0
M  V30 3377 C 306.93 -2.17707 -0.716688 0
M  V30 3378 C 307.93 -1.13061 -1.14341 0
M  V30 3379 O 309.12 -1.38464 -1.05704 0
M  V30 3380 C 306.252 -2.77644 -1.97804 0
M  V30 3381 H 307.445 -2.99342 -0.1829 0
M  V30 3382 H 304.998 -1.56193 -0.0578566 0
M  V30 3383 H 305.733 -1.99799 -2.55443 0
M  V30 3384 H 305.518 -3.54246 -1.68083 0
M  V30 3385 H 307.008 -3.24708 -2.62592 0
M  V30 3386 N 307.445 0.0818655 -1.57387 0
M  V30 3387 C 308.408 1.08265 -2.02018 0
M  V30 3388 C 309.408 1.32183 -0.915664 0
M  V30 3389 O 310.598 1.28073 -1.18081 0
M  V30 3390 C 307.73 2.42871 -2.39221 0
M  V30 3391 H 308.923 0.698204 -2.91659 0
M  V30 3392 H 306.476 0.327303 -1.52835 0
M  V30 3393 H 307.211 2.86167 -1.52575 0
M  V30 3394 H 306.996 2.26855 -3.19811 0
M  V30 3395 H 308.486 3.14826 -2.74362 0
M  V30 3396 N 308.923 1.53595 0.353017 0
M  V30 3397 C 309.855 1.77219 1.45348 0
M  V30 3398 C 310.868 0.65324 1.49119 0
M  V30 3399 O 312.057 0.929775 1.52373 0
M  V30 3400 C 309.157 1.84841 2.84055 0
M  V30 3401 C 308.33 3.14649 3.03833 0
M  V30 3402 C 307.389 3.13351 4.22727 0
M  V30 3403 O 306.415 3.87107 4.17297 0
M  V30 3404 N 307.617 2.35052 5.30783 0
M  V30 3405 H 310.382 2.72178 1.25457 0
M  V30 3406 H 307.943 1.52528 0.542833 0
M  V30 3407 H 309.935 1.81435 3.61751 0
M  V30 3408 H 308.505 0.971114 2.97133 0
M  V30 3409 H 307.725 3.31256 2.13689 0
M  V30 3410 H 309.013 4.00411 3.13925 0
M  V30 3411 H 308.411 1.74663 5.38061 0
M  V30 3412 H 306.968 2.37453 6.07009 0
M  V30 3413 N 310.401 -0.613514 1.45168 0
M  V30 3414 C 311.817 -0.933629 1.29443 0
M  V30 3415 C 312.017 -2.00028 0.243101 0
M  V30 3416 O 311.073 -2.49848 -0.364992 0
M  V30 3417 C 312.386 -1.38018 2.67155 0
M  V30 3418 C 313.934 -1.49471 2.75004 0
M  V30 3419 C 314.409 -1.97503 4.13227 0
M  V30 3420 N 315.9 -2.04746 4.15491 0
M  V30 3421 C 316.635 -2.43121 5.19307 0
M  V30 3422 N 316.131 -2.80506 6.33473 0
M  V30 3423 N 317.924 -2.43408 5.06664 0
M  V30 3424 H 310.075 0.0916097 2.12202 0
M  V30 3425 H 312.338 -0.0216655 0.947752 0
M  V30 3426 H 312.044 -0.670625 3.45247 0
M  V30 3427 H 311.918 -2.34784 2.95222 0
M  V30 3428 H 314.305 -2.19519 1.9722 0
M  V30 3429 H 314.386 -0.510342 2.50657 0
M  V30 3430 H 314.03 -1.28045 4.91495 0
M  V30 3431 H 313.96 -2.96843 4.34962 0
M  V30 3432 H 316.451 -1.78468 3.33103 0
M  V30 3433 H 316.764 -3.08652 7.08487 0
M  V30 3434 H 315.109 -2.78216 6.36884 0
M  V30 3435 H 318.3 -2.13604 4.16523 0
M  V30 3436 H 318.473 -2.72989 5.87691 0
M  V30 3437 N 311.879 -1.3236 -0.855495 0
M  V30 3438 C 313.126 -1.22872 -1.60962 0
M  V30 3439 C 313.454 0.209658 -1.93367 0
M  V30 3440 O 312.709 1.16243 -1.57436 0
M  V30 3441 C 313.008 -2.03275 -2.93963 0
M  V30 3442 C 312.674 -3.5264 -2.80991 0
M  V30 3443 C 311.336 -3.93364 -2.7716 0
M  V30 3444 C 313.688 -4.47626 -2.66983 0
M  V30 3445 C 311.016 -5.27319 -2.572 0
M  V30 3446 C 313.368 -5.81723 -2.48558 0
M  V30 3447 C 312.032 -6.2165 -2.4312 0
M  V30 3448 H 311.302 -0.44962 -0.589001 0
M  V30 3449 H 313.949 -1.63777 -0.992442 0
M  V30 3450 H 312.254 -1.55095 -3.59795 0
M  V30 3451 H 313.951 -1.93303 -3.51333 0
M  V30 3452 H 310.541 -3.20295 -2.84797 0
M  V30 3453 H 314.725 -4.17084 -2.68988 0
M  V30 3454 H 309.981 -5.57311 -2.51424 0
M  V30 3455 H 314.155 -6.5494 -2.36699 0
M  V30 3456 H 311.782 -7.25388 -2.27412 0
M  V30 3457 N 313.357 1.07166 -1.15556 0
M  V30 3458 C 314.604 1.79798 -0.931604 0
M  V30 3459 C 314.932 1.8682 0.54115 0
M  V30 3460 O 314.187 1.34942 1.41736 0
M  V30 3461 C 314.486 3.24707 -1.49332 0
M  V30 3462 C 314.152 3.37781 -2.98688 0
M  V30 3463 C 312.814 3.41057 -3.39461 0
M  V30 3464 C 315.166 3.40424 -3.94665 0
M  V30 3465 C 312.494 3.4458 -4.74849 0
M  V30 3466 C 314.846 3.45485 -5.29927 0
M  V30 3467 C 313.51 3.47039 -5.70193 0
M  V30 3468 H 312.78 0.657928 -0.340898 0
M  V30 3469 H 315.427 1.26091 -1.44129 0
M  V30 3470 H 313.732 3.81208 -0.904859 0
M  V30 3471 H 315.429 3.79486 -1.29582 0
M  V30 3472 H 312.019 3.35932 -2.66172 0
M  V30 3473 H 316.203 3.37113 -3.64237 0
M  V30 3474 H 311.459 3.44083 -5.05388 0
M  V30 3475 H 315.633 3.46476 -6.04092 0
M  V30 3476 H 313.26 3.49522 -6.75084 0
M  V30 3477 N 314.835 0.952656 1.25548 0
M  V30 3478 C 316.06 0.623025 1.97821 0
M  V30 3479 C 316.485 -0.7976 1.70352 0
M  V30 3480 O 315.843 -1.53905 0.958283 0
M  V30 3481 C 315.891 0.885532 3.49558 0
M  V30 3482 O 314.995 -0.0366641 4.12384 0
M  V30 3483 H 314.336 0.237082 0.620232 0
M  V30 3484 H 316.866 1.27871 1.59719 0
M  V30 3485 H 316.876 0.811009 3.99858 0
M  V30 3486 H 315.551 1.92094 3.6888 0
M  V30 3487 H 314.128 0.0898954 3.72792 0
M  V30 3488 N 316.313 -1.40141 0.720998 0
M  V30 3489 C 317.26 -2.30688 0.071919 0
M  V30 3490 C 318.23 -1.48476 -0.744584 0
M  V30 3491 O 319.415 -1.77201 -0.707423 0
M  V30 3492 C 316.555 -3.34724 -0.839855 0
M  V30 3493 C 315.668 -4.31998 -0.0122438 0
M  V30 3494 C 314.803 -5.23102 -0.923995 0
M  V30 3495 C 313.842 -6.12033 -0.0907969 0
M  V30 3496 N 312.979 -6.95537 -0.957718 0
M  V30 3497 H 317.819 -2.85628 0.849755 0
M  V30 3498 H 315.356 -1.40653 0.430726 0
M  V30 3499 H 317.314 -3.93618 -1.38279 0
M  V30 3500 H 315.944 -2.81274 -1.58381 0
M  V30 3501 H 314.996 -3.74841 0.64794 0
M  V30 3502 H 316.308 -4.94772 0.632595 0
M  V30 3503 H 315.462 -5.86953 -1.53527 0
M  V30 3504 H 314.201 -4.60615 -1.60264 0
M  V30 3505 H 313.206 -5.47207 0.533377 0
M  V30 3506 H 314.431 -6.76581 0.584428 0
M  V30 3507 H 312.377 -6.35633 -1.62192 0
M  V30 3508 H 312.294 -7.55099 -0.36904 0
M  V30 3509 H 313.562 -7.63832 -1.555 0
M  V30 3510 N 317.792 -0.46758 -1.50504 0
M  V30 3511 C 318.74 0.342482 -2.30065 0
M  V30 3512 C 319.734 0.993596 -1.37201 0
M  V30 3513 O 320.94 0.925102 -1.54408 0
M  V30 3514 H 317.315 0.129283 -0.740803 0
M  V30 3515 H 319.286 -0.34899 -2.96352 0
M  V30 3516 C 318.035 1.4139 -3.17654 0
M  V30 3517 H 317.358 0.922264 -3.89017 0
M  V30 3518 H 318.798 1.95335 -3.76325 0
M  V30 3519 C 317.257 2.4139 -2.35016 0
M  V30 3520 O 317.787 3.46586 -2.03079 0
M  V30 3521 N 315.993 2.13021 -1.97662 0
M  V30 3522 H 315.54 1.27499 -2.23834 0
M  V30 3523 H 315.498 2.80164 -1.42673 0
M  V30 3524 N 319.27 1.56325 -0.20005 0
M  V30 3525 C 320.516 1.98012 0.438059 0
M  V30 3526 C 320.849 1.08702 1.60927 0
M  V30 3527 O 320.124 0.140064 1.93995 0
M  V30 3528 C 320.407 3.48841 0.893419 0
M  V30 3529 C 320.26 4.48928 -0.279947 0
M  V30 3530 C 321.579 4.03498 1.75719 0
M  V30 3531 H 318.698 0.719918 0.157757 0
M  V30 3532 H 321.34 1.87743 -0.291968 0
M  V30 3533 H 319.49 3.57723 1.51547 0
M  V30 3534 H 321.162 4.52079 -0.91772 0
M  V30 3535 H 319.405 4.23694 -0.930919 0
M  V30 3536 H 320.076 5.5194 0.0812601 0
M  V30 3537 H 322.552 3.97427 1.23253 0
M  V30 3538 H 321.428 5.09393 2.04476 0
M  V30 3539 H 321.689 3.4906 2.71311 0
M  V30 3540 N 320.748 -0.0735177 1.57428 0
M  V30 3541 C 321.973 -0.789787 1.91774 0
M  V30 3542 C 322.398 -1.70413 0.796306 0
M  V30 3543 O 321.756 -1.79555 -0.250961 0
M  V30 3544 C 321.804 -1.5609 3.25067 0
M  V30 3545 O 320.908 -2.67144 3.14178 0
M  V30 3546 H 320.249 -0.215582 0.628029 0
M  V30 3547 H 322.779 -0.0422781 2.04556 0
M  V30 3548 H 322.789 -1.94052 3.58898 0
M  V30 3549 H 321.464 -0.890015 4.06265 0
M  V30 3550 H 320.041 -2.32052 2.91901 0
M  V30 3551 N 322.226 -1.5378 -0.344866 0
M  V30 3552 C 323.503 -1.61589 -1.10219 0
M  V30 3553 C 323.883 -0.436316 -2.06542 0
M  V30 3554 O 323.231 0.571543 -2.21237 0
M  V30 3555 C 323.441 -2.97602 -1.82301 0
M  V30 3556 C 324.789 -3.5291 -2.36093 0
M  V30 3557 O 325.813 -2.99768 -1.924 0
M  V30 3558 O 324.672 -4.45859 -3.16026 0
M  V30 3559 H 321.766 -0.653522 -0.506792 0
M  V30 3560 H 324.312 -1.66126 -0.346465 0
M  V30 3561 H 323.084 -3.74893 -1.12121 0
M  V30 3562 H 322.707 -2.9665 -2.64735 0
M  V30 3563 N 323.704 0.605807 -1.45491 0
M  V30 3564 C 324.634 1.72709 -1.57143 0
M  V30 3565 C 325.615 1.6476 -0.422884 0
M  V30 3566 O 326.8 1.83132 -0.646247 0
M  V30 3567 C 323.93 3.11316 -1.53948 0
M  V30 3568 C 322.884 3.34077 -2.67537 0
M  V30 3569 C 322.21 4.72975 -2.49397 0
M  V30 3570 C 323.51 3.24158 -4.09535 0
M  V30 3571 H 325.204 1.63214 -2.51001 0
M  V30 3572 H 322.75 0.78379 -1.208 0
M  V30 3573 H 324.703 3.89557 -1.60696 0
M  V30 3574 H 323.427 3.21655 -0.566205 0
M  V30 3575 H 322.086 2.58227 -2.6022 0
M  V30 3576 H 321.734 4.8005 -1.50205 0
M  V30 3577 H 321.434 4.8916 -3.25571 0
M  V30 3578 H 322.958 5.53414 -2.58002 0
M  V30 3579 H 324.372 3.92271 -4.18086 0
M  V30 3580 H 322.769 3.51872 -4.86113 0
M  V30 3581 H 323.839 2.2157 -4.31317 0
M  V30 3582 N 325.182 1.32811 0.848464 0
M  V30 3583 C 326.13 1.22231 1.97895 0
M  V30 3584 C 327.124 0.125749 1.68933 0
M  V30 3585 O 328.33 0.289083 1.77663 0
M  V30 3586 H 324.705 0.379058 0.649476 0
M  V30 3587 H 326.676 2.17828 2.03945 0
M  V30 3588 C 325.425 0.968572 3.33937 0
M  V30 3589 H 324.748 1.80458 3.56756 0
M  V30 3590 H 326.188 0.934808 4.13567 0
M  V30 3591 C 324.647 -0.328628 3.35293 0
M  V30 3592 O 325.177 -1.33848 3.78745 0
M  V30 3593 N 323.383 -0.352788 2.88451 0
M  V30 3594 H 322.93 0.469541 2.53285 0
M  V30 3595 H 322.888 -1.22057 2.89741 0
M  V30 3596 N 326.66 -1.06551 1.16123 0
M  V30 3597 C 327.59 -2.15935 0.88851 0
M  V30 3598 C 328.571 -1.69306 -0.164135 0
M  V30 3599 O 329.756 -1.94193 -0.0167857 0
M  V30 3600 C 326.886 -3.45149 0.385942 0
M  V30 3601 C 325.84 -4.05271 1.3762 0
M  V30 3602 C 325.166 -5.29664 0.732137 0
M  V30 3603 C 326.466 -4.44355 2.74493 0
M  V30 3604 H 328.16 -2.39006 1.80323 0
M  V30 3605 H 325.706 -1.14866 0.868435 0
M  V30 3606 H 327.659 -4.21004 0.182647 0
M  V30 3607 H 326.383 -3.21689 -0.564274 0
M  V30 3608 H 325.042 -3.3147 1.56599 0
M  V30 3609 H 324.69 -5.02499 -0.224483 0
M  V30 3610 H 324.39 -5.70848 1.39307 0
M  V30 3611 H 325.914 -6.08218 0.538802 0
M  V30 3612 H 327.328 -5.11303 2.59311 0
M  V30 3613 H 325.725 -4.96515 3.37035 0
M  V30 3614 H 326.795 -3.55339 3.29943 0
M  V30 3615 N 328.138 -0.959301 -1.25041 0
M  V30 3616 C 329.384 -0.617525 -1.9317 0
M  V30 3617 C 329.717 0.843981 -1.74902 0
M  V30 3618 O 328.992 1.60615 -1.09696 0
M  V30 3619 C 329.275 -0.982736 -3.46431 0
M  V30 3620 C 329.128 -2.50032 -3.73904 0
M  V30 3621 C 330.447 -0.511176 -4.37121 0
M  V30 3622 H 327.566 -0.22582 -0.701552 0
M  V30 3623 H 330.208 -1.19679 -1.4757 0
M  V30 3624 H 328.358 -0.489806 -3.854 0
M  V30 3625 H 330.03 -3.06737 -3.44544 0
M  V30 3626 H 328.273 -2.93598 -3.19348 0
M  V30 3627 H 328.944 -2.70635 -4.81103 0
M  V30 3628 H 331.42 -0.934075 -4.0548 0
M  V30 3629 H 330.296 -0.795361 -5.43107 0
M  V30 3630 H 330.557 0.588834 -4.38161 0
M  V30 3631 N 329.616 1.39756 -0.72842 0
M  V30 3632 C 330.526 2.34444 -0.0855374 0
M  V30 3633 C 331.542 1.57976 0.729356 0
M  V30 3634 O 332.718 1.90301 0.659346 0
M  V30 3635 C 329.783 3.36965 0.815798 0
M  V30 3636 C 328.844 4.29299 -0.0105996 0
M  V30 3637 C 328.077 5.26923 0.84781 0
M  V30 3638 O 328.3 5.30859 2.08673 0
M  V30 3639 O 327.234 6.01249 0.279969 0
M  V30 3640 H 331.06 2.91065 -0.866892 0
M  V30 3641 H 328.645 1.4117 -0.48902 0
M  V30 3642 H 330.527 3.99804 1.33171 0
M  V30 3643 H 329.202 2.82739 1.57608 0
M  V30 3644 H 328.109 3.69703 -0.571877 0
M  V30 3645 H 329.442 4.86712 -0.73295 0
M  V30 3646 N 331.094 0.475555 1.50254 0
M  V30 3647 C 332.334 -0.0765802 2.04256 0
M  V30 3648 C 332.698 -1.36587 1.34937 0
M  V30 3649 O 333.899 -2.00066 1.79519 0
M  V30 3650 C 332.17 -0.251668 3.56513 0
M  V30 3651 S 333.729 -0.761716 4.32138 0
M  V30 3652 H 330.547 -0.0138456 0.710865 0
M  V30 3653 H 333.149 0.643714 1.84598 0
M  V30 3654 H 331.853 0.692404 4.04517 0
M  V30 3655 H 331.384 -0.997946 3.80532 0
M  V30 3656 H 333.399 -2.03451 4.52573 0
M  V30 3657 N 332.573 -1.56217 0.208337 0
M  V30 3658 C 333.536 -2.18455 -0.693557 0
M  V30 3659 C 334.536 -1.14268 -1.13135 0
M  V30 3660 O 335.726 -1.39577 -1.0423 0
M  V30 3661 C 332.858 -2.79727 -1.94848 0
M  V30 3662 H 334.051 -2.99519 -0.15114 0
M  V30 3663 H 331.604 -1.56245 -0.041287 0
M  V30 3664 H 332.339 -2.02497 -2.53309 0
M  V30 3665 H 332.124 -3.56009 -1.64316 0
M  V30 3666 H 333.614 -3.27475 -2.59133 0
M  V30 3667 N 334.051 0.0651679 -1.57465 0
M  V30 3668 C 335.281 0.774683 -1.91526 0
M  V30 3669 C 335.689 1.71305 -0.803196 0
M  V30 3670 O 335.032 1.82231 0.231881 0
M  V30 3671 C 335.094 1.61645 -3.21109 0
M  V30 3672 C 334.758 0.846753 -4.49087 0
M  V30 3673 C 335.755 0.163024 -5.19644 0
M  V30 3674 C 333.44 0.811966 -4.95694 0
M  V30 3675 C 335.434 -0.54519 -6.35064 0
M  V30 3676 C 333.121 0.0999836 -6.11018 0
M  V30 3677 C 334.119 -0.577388 -6.80555 0
M  V30 3678 O 333.807 -1.27789 -7.93678 0
M  V30 3679 H 333.539 0.225031 -0.637446 0
M  V30 3680 H 336.093 0.0377134 -2.05365 0
M  V30 3681 H 334.323 2.39638 -3.03497 0
M  V30 3682 H 336.012 2.20525 -3.40769 0
M  V30 3683 H 336.778 0.181163 -4.84662 0
M  V30 3684 H 332.657 1.32867 -4.41438 0
M  V30 3685 H 336.201 -1.07446 -6.89276 0
M  V30 3686 H 332.098 0.0797945 -6.45451 0
M  V30 3687 H 332.866 -1.18784 -8.09835 0
M  V30 3688 N 335.529 1.53961 0.336706 0
M  V30 3689 C 336.459 1.85417 1.41925 0
M  V30 3690 C 337.44 0.709856 1.5458 0
M  V30 3691 O 338.625 0.962396 1.68676 0
M  V30 3692 C 335.755 2.06985 2.78881 0
M  V30 3693 C 334.709 3.22813 2.81026 0
M  V30 3694 C 334.035 3.29727 4.20932 0
M  V30 3695 C 335.335 4.60767 2.45949 0
M  V30 3696 H 337.029 2.76079 1.15848 0
M  V30 3697 H 334.575 1.32839 0.555859 0
M  V30 3698 H 336.528 2.27575 3.54665 0
M  V30 3699 H 335.252 1.13061 3.06406 0
M  V30 3700 H 333.911 3.0209 2.07695 0
M  V30 3701 H 333.559 2.33385 4.45579 0
M  V30 3702 H 333.259 4.07566 4.23277 0
M  V30 3703 H 334.783 3.52536 4.98549 0
M  V30 3704 H 336.197 4.81325 3.11446 0
M  V30 3705 H 334.594 5.4106 2.59566 0
M  V30 3706 H 335.664 4.6391 1.41122 0
M  V30 3707 N 337.007 -0.598083 1.45811 0
M  V30 3708 C 338.255 -1.35413 1.50026 0
M  V30 3709 C 338.576 -1.94444 0.147177 0
M  V30 3710 O 337.846 -1.77701 -0.824571 0
M  V30 3711 H 336.426 -0.502727 0.552517 0
M  V30 3712 H 339.088 -0.701606 1.81834 0
M  V30 3713 H 338.184 -2.16871 2.2444 0
M  V30 3714 N 338.485 -1.33259 -0.841409 0
M  V30 3715 C 339.733 -1.24326 -1.59334 0
M  V30 3716 C 340.054 0.191564 -1.94057 0
M  V30 3717 O 339.324 1.11967 -1.60749 0
M  V30 3718 H 337.904 -0.457174 -0.590763 0
M  V30 3719 H 340.566 -1.66947 -1.00571 0
M  V30 3720 H 339.662 -1.8352 -2.52442 0
M  V30 3721 N 339.963 1.05934 -1.16686 0
M  V30 3722 C 340.893 2.1546 -0.899949 0
M  V30 3723 C 341.874 1.69391 0.155154 0
M  V30 3724 O 343.059 1.94199 0.00648693 0
M  V30 3725 C 340.189 3.44939 -0.404241 0
M  V30 3726 C 339.143 4.04536 -1.39767 0
M  V30 3727 C 338.469 5.29268 -0.760216 0
M  V30 3728 C 339.769 4.42893 -2.76845 0
M  V30 3729 H 341.463 2.38046 -1.81588 0
M  V30 3730 H 339.009 1.14404 -0.874514 0
M  V30 3731 H 340.962 4.20901 -0.204971 0
M  V30 3732 H 339.686 3.21983 0.547206 0
M  V30 3733 H 338.345 3.30635 -1.58355 0
M  V30 3734 H 337.993 5.02611 0.197831 0
M  V30 3735 H 337.693 5.70101 -1.42332 0
M  V30 3736 H 339.217 6.07924 -0.57105 0
M  V30 3737 H 340.631 5.09921 -2.62019 0
M  V30 3738 H 339.028 4.94721 -3.39663 0
M  V30 3739 H 340.098 3.53584 -3.31823 0
M  V30 3740 N 341.441 0.965919 1.2453 0
M  V30 3741 C 342.669 0.644385 1.96609 0
M  V30 3742 C 343.084 -0.785823 1.71669 0
M  V30 3743 O 342.441 -1.52703 0.999399 0
M  V30 3744 C 342.492 0.907375 3.49927 0
M  V30 3745 O 342.213 2.28136 3.74013 0
M  V30 3746 C 343.714 0.599784 4.39224 0
M  V30 3747 H 340.934 0.240588 0.626385 0
M  V30 3748 H 343.478 1.29337 1.58405 0
M  V30 3749 H 341.633 0.304631 3.862 0
M  V30 3750 H 342.047 2.36002 4.68405 0
M  V30 3751 H 343.521 0.834263 5.45659 0
M  V30 3752 H 343.998 -0.465921 4.36722 0
M  V30 3753 H 344.604 1.18235 4.08535 0
M  V30 3754 N 342.919 -1.39368 0.735821 0
M  V30 3755 C 343.851 -2.2913 0.0567723 0
M  V30 3756 C 344.864 -1.46859 -0.702589 0
M  V30 3757 O 346.053 -1.69925 -0.546616 0
M  V30 3758 C 343.153 -3.25492 -0.943823 0
M  V30 3759 C 342.326 -4.36709 -0.24581 0
M  V30 3760 C 341.385 -5.13376 -1.15463 0
M  V30 3761 O 340.411 -5.65683 -0.631803 0
M  V30 3762 N 341.613 -5.24656 -2.48427 0
M  V30 3763 H 344.378 -2.88047 0.827582 0
M  V30 3764 H 341.939 -1.50957 0.585112 0
M  V30 3765 H 343.931 -3.73657 -1.55443 0
M  V30 3766 H 342.501 -2.676 -1.61583 0
M  V30 3767 H 341.721 -3.9041 0.545286 0
M  V30 3768 H 343.009 -5.08244 0.237891 0
M  V30 3769 H 342.407 -4.83679 -2.93379 0
M  V30 3770 H 340.964 -5.76258 -3.04582 0
M  V30 3771 N 344.397 -0.483516 -1.5 0
M  V30 3772 C 345.36 0.292965 -2.2732 0
M  V30 3773 C 346.36 0.909499 -1.32608 0
M  V30 3774 O 347.55 0.776745 -1.55924 0
M  V30 3775 C 344.682 1.41854 -3.09984 0
M  V30 3776 H 345.875 -0.385289 -2.97415 0
M  V30 3777 H 343.428 -0.237942 -1.54478 0
M  V30 3778 H 344.163 2.13148 -2.44414 0
M  V30 3779 H 343.948 0.982114 -3.79601 0
M  V30 3780 H 345.438 1.96597 -3.68429 0
M  V30 3781 N 345.875 1.56104 -0.216619 0
M  V30 3782 C 347.286 1.844 0.292128 0
M  V30 3783 C 347.637 1.13788 1.59833 0
M  V30 3784 O 346.762 0.405888 2.12559 0
M  V30 3785 C 347.357 3.3452 0.53681 0
M  V30 3786 C 345.916 3.63151 0.989876 0
M  V30 3787 C 345.063 2.77255 0.0502302 0
M  V30 3788 H 348.014 1.52481 -0.439926 0
M  V30 3789 H 348.035 3.54459 1.38345 0
M  V30 3790 H 347.547 3.85885 -0.414031 0
M  V30 3791 H 345.648 3.17238 1.95425 0
M  V30 3792 H 345.761 4.71177 0.867698 0
M  V30 3793 H 344.125 2.48555 0.556117 0
M  V30 3794 H 344.908 3.31416 -0.89544 0
M  V30 3795 N 347.353 -0.0568162 1.57498 0
M  V30 3796 C 348.581 -0.765626 1.92213 0
M  V30 3797 C 348.996 -1.70353 0.813961 0
M  V30 3798 O 348.353 -1.81268 -0.211701 0
M  V30 3799 C 348.404 -1.5465 3.2675 0
M  V30 3800 O 348.125 -0.646278 4.33307 0
M  V30 3801 C 349.626 -2.35497 3.75574 0
M  V30 3802 H 346.846 -0.216835 0.634999 0
M  V30 3803 H 349.39 -0.0226146 2.04487 0
M  V30 3804 H 347.545 -2.24165 3.15957 0
M  V30 3805 H 347.959 -1.19093 5.108 0
M  V30 3806 H 349.433 -2.85722 4.72299 0
M  V30 3807 H 349.91 -3.15692 3.05344 0
M  V30 3808 H 350.516 -1.7111 3.8936 0
M  V30 3809 N 348.832 -1.54138 -0.328536 0
M  V30 3810 C 350.057 -1.76378 -1.09112 0
M  V30 3811 C 350.482 -0.508596 -1.81094 0
M  V30 3812 O 349.84 0.539598 -1.73084 0
M  V30 3813 C 349.888 -2.95358 -2.06872 0
M  V30 3814 O 348.992 -2.66556 -3.14677 0
M  V30 3815 H 348.333 -0.584614 -0.314838 0
M  V30 3816 H 350.863 -2.01146 -0.374348 0
M  V30 3817 H 350.873 -3.22566 -2.4983 0
M  V30 3818 H 349.548 -3.86385 -1.5388 0
M  V30 3819 H 348.125 -2.50282 -2.7643 0
M  V30 3820 N 350.31 0.590341 -1.46126 0
M  V30 3821 C 351.54 1.37304 -1.54373 0
M  V30 3822 C 351.948 1.88332 -0.181071 0
M  V30 3823 O 351.291 1.63852 0.830559 0
M  V30 3824 C 351.353 2.6012 -2.48149 0
M  V30 3825 C 351.017 2.30613 -3.94546 0
M  V30 3826 C 352.014 1.89915 -4.83971 0
M  V30 3827 C 349.699 2.42993 -4.39613 0
M  V30 3828 C 351.693 1.61981 -6.16475 0
M  V30 3829 C 349.38 2.14672 -5.72153 0
M  V30 3830 C 350.378 1.7423 -6.60404 0
M  V30 3831 O 350.066 1.46251 -7.90485 0
M  V30 3832 H 349.798 0.426086 -0.524811 0
M  V30 3833 H 352.352 0.72539 -1.92165 0
M  V30 3834 H 350.582 3.27664 -2.05361 0
M  V30 3835 H 352.271 3.22182 -2.46887 0
M  V30 3836 H 353.037 1.79872 -4.50412 0
M  V30 3837 H 348.916 2.73435 -3.71153 0
M  V30 3838 H 352.46 1.30341 -6.85315 0
M  V30 3839 H 348.357 2.24337 -6.05263 0
M  V30 3840 H 349.125 1.6016 -8.02677 0
M  V30 3841 N 351.788 1.33704 0.83433 0
M  V30 3842 C 353.065 1.16011 1.57483 0
M  V30 3843 C 353.445 -0.27176 2.09343 0
M  V30 3844 O 352.793 -1.27146 1.89858 0
M  V30 3845 C 353.003 2.20507 2.70514 0
M  V30 3846 C 354.351 2.54898 3.39577 0
M  V30 3847 O 355.375 2.19209 2.80759 0
M  V30 3848 O 354.234 3.16158 4.45765 0
M  V30 3849 H 351.328 0.448992 0.694503 0
M  V30 3850 H 353.874 1.453 0.876691 0
M  V30 3851 H 352.646 3.16667 2.29865 0
M  V30 3852 H 352.269 1.92329 3.47987 0
M  V30 3853 N 353.266 -1.05314 1.17247 0
M  V30 3854 C 354.514 -1.77941 0.958194 0
M  V30 3855 C 354.835 -1.88089 -0.514556 0
M  V30 3856 O 354.105 -1.39676 -1.37359 0
M  V30 3857 H 352.685 -0.659116 0.351533 0
M  V30 3858 H 355.347 -1.27166 1.47699 0
M  V30 3859 H 354.443 -2.79663 1.38546 0
M  V30 3860 N 354.744 -0.972509 -1.24016 0
M  V30 3861 C 355.674 -0.525548 -2.27509 0
M  V30 3862 C 356.655 0.437262 -1.64384 0
M  V30 3863 O 357.84 0.332343 -1.91335 0
M  V30 3864 C 354.97 0.180448 -3.46831 0
M  V30 3865 C 353.924 -0.698859 -4.22256 0
M  V30 3866 C 353.25 0.138903 -5.3452 0
M  V30 3867 C 354.55 -1.98582 -4.83076 0
M  V30 3868 H 356.244 -1.39058 -2.65148 0
M  V30 3869 H 353.79 -0.67009 -1.27459 0
M  V30 3870 H 355.743 0.504387 -4.18371 0
M  V30 3871 H 354.467 1.07987 -3.08231 0
M  V30 3872 H 353.126 -1.00614 -3.52523 0
M  V30 3873 H 352.774 1.03862 -4.9216 0
M  V30 3874 H 352.474 -0.446259 -5.85903 0
M  V30 3875 H 353.998 0.457404 -6.08884 0
M  V30 3876 H 355.412 -1.72715 -5.46665 0
M  V30 3877 H 353.809 -2.5181 -5.44713 0
M  V30 3878 H 354.879 -2.67769 -4.04262 0
M  V30 3879 N 356.222 1.38976 -0.743202 0
M  V30 3880 C 357.447 2.05161 -0.303936 0
M  V30 3881 C 357.872 1.55677 1.05576 0
M  V30 3882 O 357.23 0.704131 1.67068 0
M  V30 3883 C 357.278 3.59138 -0.324373 0
M  V30 3884 O 356.382 4.06668 0.685204 0
M  V30 3885 H 355.723 0.649815 -0.136518 0
M  V30 3886 H 358.253 1.77852 -1.01142 0
M  V30 3887 H 358.263 4.07639 -0.171618 0
M  V30 3888 H 356.938 3.94515 -1.31647 0
M  V30 3889 H 355.515 3.69561 0.497913 0
M  V30 3890 N 357.7 0.491464 1.49741 0
M  V30 3891 C 358.61 -0.296835 2.32715 0
M  V30 3892 C 359.626 -0.976536 1.44013 0
M  V30 3893 O 360.802 -0.960023 1.77047 0
M  V30 3894 C 357.867 -1.35288 3.19215 0
M  V30 3895 C 356.928 -0.687632 4.23757 0
M  V30 3896 C 356.161 -1.69336 5.06123 0
M  V30 3897 O 356.384 -2.92219 4.89861 0
M  V30 3898 O 355.318 -1.25394 5.88693 0
M  V30 3899 H 359.144 0.382048 3.01287 0
M  V30 3900 H 356.729 0.252953 1.47243 0
M  V30 3901 H 358.611 -1.96411 3.72828 0
M  V30 3902 H 357.286 -2.01487 2.53347 0
M  V30 3903 H 356.193 -0.0369159 3.74082 0
M  V30 3904 H 357.526 -0.0682566 4.92153 0
M  V30 3905 N 359.178 -1.55987 0.224894 0
M  V30 3906 C 360.141 -2.19178 -0.670348 0
M  V30 3907 C 361.141 -1.15461 -1.11917 0
M  V30 3908 O 362.331 -1.40675 -1.02743 0
M  V30 3909 C 359.463 -2.81777 -1.9187 0
M  V30 3910 H 360.656 -2.99662 -0.119364 0
M  V30 3911 H 358.209 -1.5628 -0.0247128 0
M  V30 3912 H 358.944 -2.05172 -2.51147 0
M  V30 3913 H 358.729 -3.57732 -1.60531 0
M  V30 3914 H 360.219 -3.30205 -2.55645 0
M  V30 3915 N 360.656 0.0484629 -1.57525 0
M  V30 3916 C 361.604 1.07359 -2.06341 0
M  V30 3917 C 362.598 1.3865 -0.973269 0
M  V30 3918 O 363.804 1.37783 -1.15827 0
M  V30 3919 H 360.179 0.363662 -0.65822 0
M  V30 3920 H 362.15 0.635916 -2.91545 0
M  V30 3921 C 360.899 2.37198 -2.54229 0
M  V30 3922 H 360.222 2.13977 -3.37719 0
M  V30 3923 H 361.662 3.07319 -2.92115 0
M  V30 3924 C 360.121 3.04805 -1.43511 0
M  V30 3925 O 360.651 3.93848 -0.79034 0
M  V30 3926 N 358.857 2.65811 -1.17444 0
M  V30 3927 H 358.404 1.93488 -1.70059 0
M  V30 3928 H 358.362 3.11366 -0.435737 0
M  V30 3929 N 362.134 1.5431 0.320358 0
M  V30 3930 C 363.081 1.83918 1.39438 0
M  V30 3931 C 364.051 0.686525 1.51248 0
M  V30 3932 O 365.236 0.933269 1.66417 0
M  V30 3933 C 362.376 2.075 2.75749 0
M  V30 3934 C 361.489 3.35177 2.72544 0
M  V30 3935 C 360.624 3.48704 4.00723 0
M  V30 3936 C 359.663 4.70244 3.91838 0
M  V30 3937 N 358.8 4.80679 5.11754 0
M  V30 3938 H 363.64 2.75544 1.13489 0
M  V30 3939 H 361.177 1.36459 0.549309 0
M  V30 3940 H 363.135 2.19166 3.54996 0
M  V30 3941 H 361.765 1.19163 3 0
M  V30 3942 H 360.817 3.32233 1.85271 0
M  V30 3943 H 362.129 4.24534 2.61863 0
M  V30 3944 H 361.283 3.59928 4.88402 0
M  V30 3945 H 360.022 2.57445 4.14214 0
M  V30 3946 H 359.027 4.59072 3.02544 0
M  V30 3947 H 360.252 5.6289 3.7991 0
M  V30 3948 H 358.198 3.92337 5.25745 0
M  V30 3949 H 358.115 5.64007 5.0342 0
M  V30 3950 H 359.383 4.96239 6.01138 0
M  V30 3951 N 363.613 -0.582584 1.46437 0
M  V30 3952 C 364.523 -1.71949 1.59595 0
M  V30 3953 C 365.539 -1.67264 0.479443 0
M  V30 3954 O 366.715 -1.87171 0.743579 0
M  V30 3955 C 363.78 -3.08452 1.58298 0
M  V30 3956 C 362.841 -3.244 2.81182 0
M  V30 3957 C 362.074 -4.54391 2.79937 0
M  V30 3958 O 362.297 -5.38287 1.8869 0
M  V30 3959 O 361.231 -4.73588 3.71481 0
M  V30 3960 H 365.057 -1.63795 2.55744 0
M  V30 3961 H 362.642 -0.749643 1.29231 0
M  V30 3962 H 364.524 -3.89732 1.60271 0
M  V30 3963 H 363.199 -3.17043 0.653094 0
M  V30 3964 H 362.106 -2.42613 2.84763 0
M  V30 3965 H 363.439 -3.20699 3.7338 0
M  V30 3966 N 365.091 -1.34144 -0.827227 0
M  V30 3967 C 366.039 -1.25364 -1.95925 0
M  V30 3968 C 367.033 -0.152608 -1.68711 0
M  V30 3969 O 368.239 -0.317311 -1.77181 0
M  V30 3970 H 364.614 -0.389342 -0.643364 0
M  V30 3971 H 366.585 -2.21045 -2.00454 0
M  V30 3972 C 365.334 -1.02158 -3.32354 0
M  V30 3973 H 364.657 -1.86111 -3.5384 0
M  V30 3974 H 366.097 -1.00048 -4.12027 0
M  V30 3975 C 364.556 0.275244 -3.35774 0
M  V30 3976 O 365.086 1.27806 -3.80826 0
M  V30 3977 N 363.292 0.306853 -2.88975 0
M  V30 3978 H 362.839 -0.509777 -2.52506 0
M  V30 3979 H 362.797 1.17432 -2.91646 0
M  V30 3980 N 366.569 1.04691 -1.17803 0
M  V30 3981 C 367.98 1.59238 -0.974689 0
M  V30 3982 C 368.331 1.90306 0.477292 0
M  V30 3983 O 367.456 1.68846 1.35352 0
M  V30 3984 C 368.051 2.89318 -1.76296 0
M  V30 3985 C 366.61 3.40506 -1.60414 0
M  V30 3986 C 365.757 2.14172 -1.76141 0
M  V30 3987 H 368.708 0.874395 -1.32439 0
M  V30 3988 H 368.729 3.5944 -1.24833 0
M  V30 3989 H 368.241 2.66675 -2.81968 0
M  V30 3990 H 366.342 3.68175 -0.572519 0
M  V30 3991 H 366.455 4.14753 -2.39827 0
M  V30 3992 H 364.819 2.25176 -1.19028 0
M  V30 3993 H 365.602 1.93992 -2.83235 0
M  V30 3994 N 368.047 0.979072 1.23499 0
M  V30 3995 C 369.272 0.664845 1.96455 0
M  V30 3996 C 369.697 -0.761287 1.72006 0
M  V30 3997 O 369.055 -1.51837 0.990713 0
M  V30 3998 C 369.103 0.959479 3.47601 0
M  V30 3999 O 368.207 0.0508168 4.12369 0
M  V30 4000 H 367.548 0.250185 0.615064 0
M  V30 4001 H 370.078 1.31231 1.5697 0
M  V30 4002 H 370.088 0.895642 3.98048 0
M  V30 4003 H 368.763 1.99876 3.64723 0
M  V30 4004 H 367.34 0.16895 3.72517 0
M  V30 4005 N 369.525 -1.3858 0.750561 0
M  V30 4006 C 370.941 -1.53759 0.427824 0
M  V30 4007 C 371.141 -1.71401 -1.05943 0
M  V30 4008 O 370.197 -1.72331 -1.84549 0
M  V30 4009 C 371.51 -2.74642 1.22443 0
M  V30 4010 C 373.058 -2.88489 1.2142 0
M  V30 4011 C 373.533 -4.12329 1.9937 0
M  V30 4012 N 375.024 -4.194 1.96616 0
M  V30 4013 C 375.759 -5.14209 2.53727 0
M  V30 4014 N 375.255 -6.14709 3.19539 0
M  V30 4015 N 377.048 -5.06537 2.43673 0
M  V30 4016 H 369.199 -1.25377 1.71447 0
M  V30 4017 H 371.462 -0.608844 0.726645 0
M  V30 4018 H 371.168 -2.68 2.27747 0
M  V30 4019 H 371.042 -3.67745 0.839273 0
M  V30 4020 H 373.429 -2.94614 0.169232 0
M  V30 4021 H 373.51 -1.96406 1.63885 0
M  V30 4022 H 373.154 -4.06966 3.03877 0
M  V30 4023 H 373.084 -5.03486 1.54302 0
M  V30 4024 H 375.575 -3.47421 1.48684 0
M  V30 4025 H 375.888 -6.8354 3.60545 0
M  V30 4026 H 374.233 -6.1505 3.23633 0
M  V30 4027 H 377.424 -4.26962 1.91889 0
M  V30 4028 H 377.597 -5.80245 2.88479 0
M  V30 4029 N 371.003 -0.499398 -1.49478 0
M  V30 4030 C 372.233 0.0424839 -2.06556 0
M  V30 4031 C 372.641 1.31514 -1.36018 0
M  V30 4032 O 371.984 1.78555 -0.431718 0
M  V30 4033 C 372.046 0.368074 -3.57611 0
M  V30 4034 C 371.71 -0.806631 -4.49825 0
M  V30 4035 C 372.707 -1.69667 -4.91436 0
M  V30 4036 C 370.392 -1.00498 -4.92144 0
M  V30 4037 C 372.386 -2.76923 -5.74101 0
M  V30 4038 C 370.073 -2.08072 -5.74586 0
M  V30 4039 C 371.071 -2.96119 -6.15469 0
M  V30 4040 O 370.759 -4.01836 -6.96264 0
M  V30 4041 H 370.491 -0.0165165 -0.675798 0
M  V30 4042 H 373.045 -0.695497 -1.93267 0
M  V30 4043 H 371.275 1.15963 -3.68903 0
M  V30 4044 H 372.964 0.848381 -3.96935 0
M  V30 4045 H 373.73 -1.55524 -4.59388 0
M  V30 4046 H 369.609 -0.329036 -4.59824 0
M  V30 4047 H 373.153 -3.45676 -6.05932 0
M  V30 4048 H 369.05 -2.22211 -6.06047 0
M  V30 4049 H 369.818 -3.9917 -7.14567 0
M  V30 4050 N 372.481 1.55866 -0.233164 0
M  V30 4051 C 373.411 2.23783 0.666599 0
M  V30 4052 C 374.392 1.21343 1.19205 0
M  V30 4053 O 375.577 1.4996 1.23392 0
M  V30 4054 C 372.707 2.92671 1.86978 0
M  V30 4055 C 371.661 4.01682 1.47768 0
M  V30 4056 C 370.987 4.57926 2.76058 0
M  V30 4057 C 372.287 5.18126 0.658993 0
M  V30 4058 H 373.981 2.99232 0.100306 0
M  V30 4059 H 371.527 1.43924 0.046804 0
M  V30 4060 H 373.48 3.3888 2.50476 0
M  V30 4061 H 372.204 2.14688 2.46123 0
M  V30 4062 H 370.863 3.56222 0.866106 0
M  V30 4063 H 370.511 3.76659 3.33372 0
M  V30 4064 H 370.211 5.31505 2.50552 0
M  V30 4065 H 371.735 5.06859 3.40479 0
M  V30 4066 H 373.149 5.60644 1.19795 0
M  V30 4067 H 371.546 5.98009 0.500552 0
M  V30 4068 H 372.616 4.83763 -0.331856 0
M  V30 4069 N 373.959 -0.0401083 1.57549 0
M  V30 4070 C 374.907 -1.06264 2.06908 0
M  V30 4071 C 375.901 -1.38132 0.980608 0
M  V30 4072 O 377.107 -1.37167 1.16556 0
M  V30 4073 H 373.482 -0.360166 0.660139 0
M  V30 4074 H 375.453 -0.620445 2.91878 0
M  V30 4075 C 374.202 -2.35846 2.55483 0
M  V30 4076 H 373.525 -2.12183 3.38849 0
M  V30 4077 H 374.965 -3.05765 2.93741 0
M  V30 4078 C 373.424 -3.0404 1.45126 0
M  V30 4079 O 373.954 -3.93424 0.811216 0
M  V30 4080 N 372.16 -2.65184 1.18852 0
M  V30 4081 H 371.707 -1.92584 1.71083 0
M  V30 4082 H 371.665 -3.1113 0.452244 0
M  V30 4083 N 375.437 -1.54477 -0.31217 0
M  V30 4084 C 376.853 -1.45442 -0.657185 0
M  V30 4085 C 377.053 -0.63653 -1.91182 0
M  V30 4086 O 376.109 -0.139815 -2.52113 0
M  V30 4087 C 377.422 -2.89287 -0.82058 0
M  V30 4088 C 378.97 -2.9926 -0.917188 0
M  V30 4089 C 379.445 -4.44279 -1.11267 0
M  V30 4090 N 380.936 -4.4794 -1.17914 0
M  V30 4091 C 381.671 -5.57318 -1.34848 0
M  V30 4092 N 381.167 -6.76642 -1.48752 0
M  V30 4093 N 382.96 -5.44986 -1.37647 0
M  V30 4094 H 375.111 -2.06129 0.512313 0
M  V30 4095 H 377.374 -0.933088 0.167485 0
M  V30 4096 H 377.08 -3.51687 0.0302604 0
M  V30 4097 H 376.954 -3.36061 -1.71298 0
M  V30 4098 H 379.341 -2.36981 -1.75852 0
M  V30 4099 H 379.422 -2.558 -0.00101257 0
M  V30 4100 H 379.066 -5.07149 -0.27614 0
M  V30 4101 H 378.996 -4.85359 -2.04289 0
M  V30 4102 H 381.487 -3.61969 -1.08567 0
M  V30 4103 H 381.8 -7.55758 -1.61397 0
M  V30 4104 H 380.145 -6.79529 -1.45828 0
M  V30 4105 H 383.336 -4.50715 -1.26388 0
M  V30 4106 H 383.509 -6.3028 -1.50501 0
M  V30 4107 N 376.915 0.57481 -1.46744 0
M  V30 4108 C 378.143 1.35856 -1.56047 0
M  V30 4109 C 378.558 1.87691 -0.204365 0
M  V30 4110 O 377.915 1.64049 0.79963 0
M  V30 4111 C 377.966 2.54066 -2.57163 0
M  V30 4112 O 377.687 2.04377 -3.87507 0
M  V30 4113 C 379.188 3.46514 -2.76483 0
M  V30 4114 H 376.408 0.414754 -0.527466 0
M  V30 4115 H 378.952 0.698035 -1.92218 0
M  V30 4116 H 377.107 3.16092 -2.23974 0
M  V30 4117 H 377.521 2.81419 -4.4261 0
M  V30 4118 H 378.995 4.25919 -3.51137 0
M  V30 4119 H 379.472 3.98951 -1.83671 0
M  V30 4120 H 380.078 2.90318 -3.10799 0
M  V30 4121 N 378.394 1.34581 0.820102 0
M  V30 4122 C 379.341 1.2639 1.93117 0
M  V30 4123 C 380.311 0.138554 1.65521 0
M  V30 4124 O 381.496 0.320004 1.88097 0
M  V30 4125 C 378.636 1.02812 3.29429 0
M  V30 4126 C 377.749 2.24146 3.693 0
M  V30 4127 C 376.884 1.93829 4.94574 0
M  V30 4128 C 375.923 3.1129 5.27034 0
M  V30 4129 N 375.06 2.80838 6.43486 0
M  V30 4130 H 379.9 2.21408 1.99455 0
M  V30 4131 H 377.437 1.10077 0.975784 0
M  V30 4132 H 379.395 0.871788 4.0799 0
M  V30 4133 H 378.025 0.114612 3.22596 0
M  V30 4134 H 377.077 2.50691 2.86109 0
M  V30 4135 H 378.389 3.11899 3.89257 0
M  V30 4136 H 377.543 1.74948 5.80929 0
M  V30 4137 H 376.282 1.03341 4.76626 0
M  V30 4138 H 375.287 3.30764 4.39175 0
M  V30 4139 H 376.512 4.02561 5.4692 0
M  V30 4140 H 374.458 1.92929 6.26988 0
M  V30 4141 H 374.375 3.62123 6.63629 0
M  V30 4142 H 375.643 2.65467 7.32903 0
M  V30 4143 N 379.872 -1.04064 1.18357 0
M  V30 4144 C 381.097 -1.81454 1.00445 0
M  V30 4145 C 381.522 -1.82823 -0.442423 0
M  V30 4146 O 380.88 -1.24555 -1.31741 0
M  V30 4147 C 380.928 -3.24925 1.56384 0
M  V30 4148 O 380.032 -4.04856 0.785209 0
M  V30 4149 H 379.373 -0.560604 0.355835 0
M  V30 4150 H 381.903 -1.31059 1.57114 0
M  V30 4151 H 381.913 -3.75702 1.59097 0
M  V30 4152 H 380.588 -3.23244 2.61699 0
M  V30 4153 H 379.165 -3.63537 0.830399 0
M  V30 4154 N 381.35 -0.985608 -1.22978 0
M  V30 4155 C 382.596 -0.65836 -1.91816 0
M  V30 4156 C 382.929 0.806692 -1.76653 0
M  V30 4157 O 382.204 1.58252 -1.13078 0
M  V30 4158 C 382.487 -1.056 -3.44268 0
M  V30 4159 C 382.34 -2.57906 -3.68516 0
M  V30 4160 C 383.659 -0.603781 -4.35939 0
M  V30 4161 H 380.778 -0.24065 -0.696604 0
M  V30 4162 H 383.42 -1.22783 -1.44998 0
M  V30 4163 H 381.57 -0.571445 -3.84274 0
M  V30 4164 H 383.242 -3.13976 -3.3796 0
M  V30 4165 H 381.485 -3.00305 -3.13048 0
M  V30 4166 H 382.156 -2.80779 -4.75255 0
M  V30 4167 H 384.632 -1.01987 -4.03408 0
M  V30 4168 H 383.508 -0.910383 -5.41298 0
M  V30 4169 H 383.769 0.495761 -4.39312 0
M  V30 4170 N 382.828 1.3818 -0.7579 0
M  V30 4171 C 383.758 2.33027 -0.148597 0
M  V30 4172 C 384.739 1.55085 0.69875 0
M  V30 4173 O 385.924 1.83384 0.639053 0
M  V30 4174 C 383.054 3.3928 0.742034 0
M  V30 4175 C 382.008 4.28 -0.00291946 0
M  V30 4176 C 381.334 5.25146 1.00625 0
M  V30 4177 C 382.634 5.08938 -1.17385 0
M  V30 4178 H 384.328 2.84231 -0.940909 0
M  V30 4179 H 381.874 1.36659 -0.453908 0
M  V30 4180 H 383.827 4.046 1.17799 0
M  V30 4181 H 382.551 2.86569 1.56671 0
M  V30 4182 H 381.21 3.64192 -0.419504 0
M  V30 4183 H 380.858 4.68721 1.8251 0
M  V30 4184 H 380.558 5.85361 0.512428 0
M  V30 4185 H 382.082 5.93342 1.44143 0
M  V30 4186 H 383.496 5.67474 -0.815224 0
M  V30 4187 H 381.893 5.7841 -1.59882 0
M  V30 4188 H 382.963 4.42424 -1.98468 0
M  V30 4189 N 384.306 0.507319 1.49211 0
M  V30 4190 C 385.553 -0.0349529 2.0247 0
M  V30 4191 C 385.881 -1.36409 1.38647 0
M  V30 4192 O 385.136 -1.88841 0.513566 0
M  V30 4193 C 385.435 -0.229513 3.56662 0
M  V30 4194 C 385.101 1.02241 4.39156 0
M  V30 4195 C 383.763 1.36557 4.61417 0
M  V30 4196 C 386.115 1.85428 4.871 0
M  V30 4197 C 383.443 2.53999 5.28868 0
M  V30 4198 C 385.795 3.02028 5.55843 0
M  V30 4199 C 384.459 3.36717 5.76349 0
M  V30 4200 H 383.729 -0.0127902 0.74089 0
M  V30 4201 H 386.376 0.668756 1.79443 0
M  V30 4202 H 384.681 -1.0158 3.78403 0
M  V30 4203 H 386.378 -0.663641 3.9547 0
M  V30 4204 H 382.968 0.745124 4.22073 0
M  V30 4205 H 387.152 1.6023 4.69723 0
M  V30 4206 H 382.408 2.81105 5.42946 0
M  V30 4207 H 386.582 3.66808 5.91967 0
M  V30 4208 H 384.209 4.27821 6.28389 0
M  V30 4209 N 385.784 -1.5574 0.241426 0
M  V30 4210 C 386.731 -2.21149 -0.660432 0
M  V30 4211 C 387.701 -1.17356 -1.17545 0
M  V30 4212 O 388.886 -1.45784 -1.23093 0
M  V30 4213 C 386.026 -2.91059 -1.85414 0
M  V30 4214 C 385.139 -4.09495 -1.37616 0
M  V30 4215 C 384.274 -4.67135 -2.529 0
M  V30 4216 C 383.313 -5.77831 -2.01936 0
M  V30 4217 N 382.45 -6.29677 -3.10566 0
M  V30 4218 H 387.29 -2.97845 -0.095955 0
M  V30 4219 H 384.827 -1.47057 -0.0356024 0
M  V30 4220 H 386.785 -3.29788 -2.5553 0
M  V30 4221 H 385.415 -2.16846 -2.39118 0
M  V30 4222 H 384.467 -3.76117 -0.569235 0
M  V30 4223 H 385.779 -4.89423 -0.962618 0
M  V30 4224 H 384.933 -5.08409 -3.31067 0
M  V30 4225 H 383.672 -3.86411 -2.97553 0
M  V30 4226 H 382.677 -5.36039 -1.22238 0
M  V30 4227 H 383.902 -6.60402 -1.58259 0
M  V30 4228 H 381.848 -5.5186 -3.54664 0
M  V30 4229 H 381.765 -7.04783 -2.73526 0
M  V30 4230 H 383.033 -6.75609 -3.88809 0
M  V30 4231 N 387.262 0.0317525 -1.57568 0
M  V30 4232 C 388.195 1.06621 -2.0176 0
M  V30 4233 C 389.173 1.35323 -0.901462 0
M  V30 4234 O 390.357 1.48025 -1.16708 0
M  V30 4235 C 387.484 2.40155 -2.38837 0
M  V30 4236 C 386.53 2.27327 -3.60867 0
M  V30 4237 S 387.363 1.62925 -5.10113 0
M  V30 4238 C 388.519 2.97955 -5.5043 0
M  V30 4239 H 388.752 0.689781 -2.89187 0
M  V30 4240 H 386.285 0.24164 -1.52497 0
M  V30 4241 H 388.243 3.1695 -2.6087 0
M  V30 4242 H 386.904 2.74946 -1.51867 0
M  V30 4243 H 386.097 3.25898 -3.84456 0
M  V30 4244 H 385.699 1.58675 -3.38671 0
M  V30 4245 H 387.991 3.94285 -5.5095 0
M  V30 4246 H 388.934 2.79102 -6.50775 0
M  V30 4247 H 389.342 3.00404 -4.77931 0
M  V30 4248 N 388.74 1.54641 0.303973 0
M  V30 4249 C 389.69 1.8177 1.37636 0
M  V30 4250 C 390.674 0.674697 1.46071 0
M  V30 4251 O 391.866 0.935251 1.50273 0
M  V30 4252 C 388.995 2.06584 2.74186 0
M  V30 4253 C 388.081 3.2706 2.69986 0
M  V30 4254 N 388.472 4.47682 2.35402 0
M  V30 4255 C 386.77 3.29028 3.01092 0
M  V30 4256 C 387.471 5.29689 2.40426 0
M  V30 4257 N 386.447 4.67339 2.7766 0
M  V30 4258 H 390.249 2.72596 1.09857 0
M  V30 4259 H 387.763 1.541 0.51254 0
M  V30 4260 H 389.76 2.24166 3.51504 0
M  V30 4261 H 388.42 1.17024 3.02879 0
M  V30 4262 H 389.431 4.74336 2.07908 0
M  V30 4263 H 386.108 2.49565 3.34699 0
M  V30 4264 H 387.498 6.3606 2.16512 0
M  V30 4265 N 390.218 -0.567019 1.47046 0
M  V30 4266 C 391.128 -1.70247 1.6141 0
M  V30 4267 C 392.144 -1.66746 0.497157 0
M  V30 4268 O 393.32 -1.86371 0.763389 0
M  V30 4269 C 390.385 -3.06756 1.61561 0
M  V30 4270 C 389.446 -3.21399 2.84607 0
M  V30 4271 C 388.679 -4.51396 2.84741 0
M  V30 4272 O 388.902 -5.36255 1.94388 0
M  V30 4273 O 387.836 -4.69621 3.76483 0
M  V30 4274 H 391.662 -1.61073 2.57467 0
M  V30 4275 H 389.247 -0.735894 1.30019 0
M  V30 4276 H 391.129 -3.8801 1.64396 0
M  V30 4277 H 389.804 -3.16333 0.686684 0
M  V30 4278 H 388.711 -2.39579 2.8732 0
M  V30 4279 H 390.044 -3.16721 3.76761 0
M  V30 4280 N 391.696 -1.35014 -0.812953 0
M  V30 4281 C 392.626 -1.30069 -1.93919 0
M  V30 4282 C 393.607 -0.176275 -1.69184 0
M  V30 4283 O 394.792 -0.370227 -1.90638 0
M  V30 4284 C 391.922 -1.06547 -3.30552 0
M  V30 4285 C 390.876 -2.15561 -3.69753 0
M  V30 4286 C 390.202 -1.77214 -5.04479 0
M  V30 4287 C 391.502 -3.57476 -3.808 0
M  V30 4288 H 393.196 -2.24303 -1.98314 0
M  V30 4289 H 390.742 -1.07977 -0.952736 0
M  V30 4290 H 392.695 -1.01729 -4.08937 0
M  V30 4291 H 391.419 -0.0875719 -3.26483 0
M  V30 4292 H 390.078 -2.19466 -2.9365 0
M  V30 4293 H 389.726 -0.780589 -4.96906 0
M  V30 4294 H 389.426 -2.50184 -5.31678 0
M  V30 4295 H 390.95 -1.7391 -5.8531 0
M  V30 4296 H 392.364 -3.55929 -4.4943 0
M  V30 4297 H 390.761 -4.29152 -4.19462 0
M  V30 4298 H 391.831 -3.94091 -2.82525 0
M  V30 4299 N 393.175 1.03435 -1.18907 0
M  V30 4300 C 394.423 1.76394 -0.986382 0
M  V30 4301 C 394.744 1.88883 0.484567 0
M  V30 4302 O 394.014 1.41843 1.3512 0
M  V30 4303 H 392.594 0.65344 -0.361975 0
M  V30 4304 H 395.256 1.248 -1.49703 0
M  V30 4305 H 394.352 2.77424 -1.42978 0
M  V30 4306 N 394.653 0.992116 1.22453 0
M  V30 4307 C 395.883 0.684949 1.94915 0
M  V30 4308 C 396.291 -0.754292 1.73514 0
M  V30 4309 O 395.634 -1.52056 1.03076 0
M  V30 4310 C 395.696 0.910054 3.47791 0
M  V30 4311 C 395.36 2.33363 3.92926 0
M  V30 4312 C 396.357 3.31308 4.00663 0
M  V30 4313 C 394.042 2.66785 4.25595 0
M  V30 4314 C 396.036 4.6075 4.40441 0
M  V30 4315 C 393.723 3.96446 4.65053 0
M  V30 4316 C 394.721 4.9324 4.72444 0
M  V30 4317 O 394.409 6.20584 5.1101 0
M  V30 4318 H 394.141 0.25258 0.62704 0
M  V30 4319 H 396.695 1.32939 1.56577 0
M  V30 4320 H 394.925 0.208443 3.86138 0
M  V30 4321 H 396.614 0.598257 4.01467 0
M  V30 4322 H 397.38 3.0682 3.75615 0
M  V30 4323 H 393.259 1.92148 4.19047 0
M  V30 4324 H 396.803 5.363 4.46126 0
M  V30 4325 H 392.7 4.20724 4.89552 0
M  V30 4326 H 393.468 6.24509 5.29085 0
M  V30 4327 N 396.131 -1.37776 0.765217 0
M  V30 4328 C 397.38 -1.99092 0.323307 0
M  V30 4329 C 397.693 -1.61434 -1.10446 0
M  V30 4330 O 398.899 -2.15805 -1.64743 0
M  V30 4331 C 397.355 -3.56019 0.527098 0
M  V30 4332 C 396.963 -4.0262 1.96471 0
M  V30 4333 C 398.707 -4.2424 0.148483 0
M  V30 4334 C 396.614 -5.52233 2.11644 0
M  V30 4335 H 395.544 -0.744846 0.117137 0
M  V30 4336 H 398.195 -1.57391 0.943417 0
M  V30 4337 H 396.577 -3.95667 -0.162372 0
M  V30 4338 H 397.751 -3.74234 2.68859 0
M  V30 4339 H 396.066 -3.47161 2.29931 0
M  V30 4340 H 398.663 -5.34159 0.240456 0
M  V30 4341 H 399.006 -4.06446 -0.900422 0
M  V30 4342 H 399.539 -3.89872 0.79025 0
M  V30 4343 H 396.278 -5.74945 3.1483 0
M  V30 4344 H 395.798 -5.82324 1.4373 0
M  V30 4345 H 397.477 -6.18106 1.91193 0
M  V30 4346 N 397.609 -0.515225 -1.4894 0
M  V30 4347 C 398.834 0.022727 -2.07388 0
M  V30 4348 C 399.259 1.2876 -1.37122 0
M  V30 4349 O 398.617 1.76067 -0.432431 0
M  V30 4350 C 398.665 0.244869 -3.59768 0
M  V30 4351 O 397.769 1.31667 -3.90817 0
M  V30 4352 H 397.11 -0.0325506 -0.663202 0
M  V30 4353 H 399.64 -0.718918 -1.91553 0
M  V30 4354 H 399.65 0.47205 -4.0526 0
M  V30 4355 H 398.325 -0.679194 -4.10317 0
M  V30 4356 H 396.902 1.07331 -3.5712 0
M  V30 4357 N 399.087 1.5561 -0.249682 0
M  V30 4358 C 400.312 2.03865 0.381305 0
M  V30 4359 C 400.737 1.12769 1.50548 0
M  V30 4360 O 400.095 0.121189 1.80895 0
M  V30 4361 C 400.143 3.50101 0.863816 0
M  V30 4362 O 399.247 3.62132 1.97318 0
M  V30 4363 H 398.588 0.658827 0.0827194 0
M  V30 4364 H 401.118 2.01105 -0.376552 0
M  V30 4365 H 401.128 3.90975 1.1663 0
M  V30 4366 H 399.803 4.1588 0.0411816 0
M  V30 4367 H 398.38 3.33155 1.67517 0
M  V30 4368 N 400.565 -0.0233959 1.57583 0
M  V30 4369 C 401.475 -1.03907 2.10334 0
M  V30 4370 C 402.491 -1.39257 1.04323 0
M  V30 4371 O 403.667 -1.48462 1.36091 0
M  V30 4372 C 400.732 -2.31938 2.57693 0
M  V30 4373 C 399.793 -2.03117 3.78209 0
M  V30 4374 C 399.026 -3.25043 4.233 0
M  V30 4375 O 399.249 -4.35916 3.67876 0
M  V30 4376 O 398.183 -3.10411 5.15683 0
M  V30 4377 H 402.009 -0.620748 2.97288 0
M  V30 4378 H 399.594 -0.240743 1.47448 0
M  V30 4379 H 401.476 -3.07196 2.88458 0
M  V30 4380 H 400.151 -2.73055 1.73847 0
M  V30 4381 H 399.058 -1.25408 3.52454 0
M  V30 4382 H 400.391 -1.66852 4.63056 0
M  V30 4383 N 402.043 -1.548 -0.295768 0
M  V30 4384 C 402.975 -1.82492 -1.3867 0
M  V30 4385 C 403.988 -0.708134 -1.46592 0
M  V30 4386 O 405.177 -0.985686 -1.48817 0
M  V30 4387 C 402.277 -1.95256 -2.76999 0
M  V30 4388 C 401.45 -3.25709 -2.91946 0
M  V30 4389 C 400.509 -3.28824 -4.10806 0
M  V30 4390 O 399.535 -4.02328 -4.02643 0
M  V30 4391 N 400.737 -2.5459 -5.21694 0
M  V30 4392 H 403.502 -2.76646 -1.15269 0
M  V30 4393 H 401.063 -1.54438 -0.485849 0
M  V30 4394 H 403.055 -1.94736 -3.54768 0
M  V30 4395 H 401.625 -1.08072 -2.93324 0
M  V30 4396 H 400.845 -3.38959 -2.01247 0
M  V30 4397 H 402.133 -4.11786 -2.98847 0
M  V30 4398 H 401.531 -1.94512 -5.31208 0
M  V30 4399 H 400.088 -2.59818 -5.97778 0
M  V30 4400 N 403.521 0.559213 -1.47345 0
M  V30 4401 C 404.751 1.33999 -1.57251 0
M  V30 4402 C 405.159 1.87905 -0.220978 0
M  V30 4403 O 404.502 1.65577 0.795617 0
M  V30 4404 C 404.564 2.54798 -2.53611 0
M  V30 4405 C 404.228 2.22192 -3.99349 0
M  V30 4406 C 405.225 1.79607 -4.87891 0
M  V30 4407 C 402.91 2.33613 -4.44669 0
M  V30 4408 C 404.904 1.48868 -6.19772 0
M  V30 4409 C 402.591 2.02487 -5.76578 0
M  V30 4410 C 403.589 1.60183 -6.63951 0
M  V30 4411 O 403.277 1.29451 -7.93409 0
M  V30 4412 H 403.009 0.414858 -0.533731 0
M  V30 4413 H 405.563 0.684465 -1.9366 0
M  V30 4414 H 403.793 3.23235 -2.12265 0
M  V30 4415 H 405.482 3.16873 -2.53666 0
M  V30 4416 H 406.248 1.70278 -4.54126 0
M  V30 4417 H 402.127 2.65501 -3.76869 0
M  V30 4418 H 405.671 1.15775 -6.87926 0
M  V30 4419 H 401.568 2.11448 -6.09885 0
M  V30 4420 H 402.336 1.43098 -8.05894 0
M  V30 4421 N 404.999 1.35443 0.805782 0
M  V30 4422 C 405.947 1.28465 1.93906 0
M  V30 4423 C 406.941 0.17943 1.68447 0
M  V30 4424 O 408.147 0.345459 1.76654 0
M  V30 4425 H 404.522 0.399528 0.637088 0
M  V30 4426 H 406.493 2.24206 1.96912 0
M  V30 4427 C 405.242 1.07432 3.30687 0
M  V30 4428 H 404.565 1.91716 3.50835 0
M  V30 4429 H 406.005 1.06591 4.10383 0
M  V30 4430 C 404.464 -0.22179 3.36169 0
M  V30 4431 O 404.994 -1.21731 3.82811 0
M  V30 4432 N 403.2 -0.260841 2.89427 0
M  V30 4433 H 402.747 0.549884 2.51663 0
M  V30 4434 H 402.705 -1.12777 2.93477 0
M  V30 4435 N 406.477 -1.02803 1.19454 0
M  V30 4436 C 407.754 -1.73299 0.907013 0
M  V30 4437 C 408.134 -2.02772 -0.587086 0
M  V30 4438 O 407.482 -1.68304 -1.54551 0
M  V30 4439 C 407.692 -3.00912 1.76785 0
M  V30 4440 C 409.04 -3.74403 2.00268 0
M  V30 4441 O 410.064 -3.10841 1.73943 0
M  V30 4442 O 408.923 -4.88675 2.4466 0
M  V30 4443 H 406.017 -0.754727 0.338106 0
M  V30 4444 H 408.563 -1.08754 1.30271 0
M  V30 4445 H 407.335 -2.75366 2.7801 0
M  V30 4446 H 406.958 -3.73197 1.37149 0
M  V30 4447 N 407.956 -0.998596 -1.21925 0
M  V30 4448 C 408.919 -0.558679 -2.22287 0
M  V30 4449 C 409.919 0.361525 -1.56683 0
M  V30 4450 O 411.109 0.152695 -1.73529 0
M  V30 4451 C 408.241 0.18661 -3.40389 0
M  V30 4452 H 409.434 -1.4463 -2.62721 0
M  V30 4453 H 406.987 -0.786413 -1.35075 0
M  V30 4454 H 407.722 1.08996 -3.05435 0
M  V30 4455 H 407.507 -0.474188 -3.89222 0
M  V30 4456 H 408.997 0.482367 -4.14805 0
M  V30 4457 N 409.434 1.37368 -0.772513 0
M  V30 4458 C 410.683 1.98918 -0.333861 0
M  V30 4459 C 410.996 1.62017 1.09589 0
M  V30 4460 O 412.202 2.16676 1.63596 0
M  V30 4461 C 410.658 3.55735 -0.545971 0
M  V30 4462 C 410.266 4.01573 -1.98603 0
M  V30 4463 C 412.01 4.24156 -0.170979 0
M  V30 4464 C 409.917 5.51102 -2.1457 0
M  V30 4465 H 408.847 0.744214 -0.121085 0
M  V30 4466 H 411.498 1.56888 -0.95175 0
M  V30 4467 H 409.88 3.95748 0.141387 0
M  V30 4468 H 411.054 3.72803 -2.7084 0
M  V30 4469 H 409.369 3.45937 -2.31769 0
M  V30 4470 H 411.966 5.34024 -0.26878 0
M  V30 4471 H 412.309 4.06917 0.878855 0
M  V30 4472 H 412.842 3.89447 -0.810914 0
M  V30 4473 H 409.581 5.73268 -3.17875 0
M  V30 4474 H 409.101 5.81554 -1.46817 0
M  V30 4475 H 410.78 6.17083 -1.94468 0
M  V30 4476 N 410.912 0.523116 1.48665 0
M  V30 4477 C 411.86 -0.256859 2.31177 0
M  V30 4478 C 412.854 -0.94199 1.40794 0
M  V30 4479 O 414.06 -0.867157 1.57735 0
M  V30 4480 H 410.435 -0.1017 0.745091 0
M  V30 4481 H 412.406 0.458739 2.94853 0
M  V30 4482 C 411.155 -1.29503 3.22683 0
M  V30 4483 H 410.478 -0.777248 3.92172 0
M  V30 4484 H 411.918 -1.81233 3.83315 0
M  V30 4485 C 410.377 -2.32501 2.43813 0
M  V30 4486 O 410.907 -3.3881 2.15803 0
M  V30 4487 N 409.113 -2.05538 2.05432 0
M  V30 4488 H 408.66 -1.19104 2.28412 0
M  V30 4489 H 408.618 -2.74676 1.52973 0
M  V30 4490 N 412.39 -1.55475 0.257931 0
M  V30 4491 C 413.3 -2.2549 -0.647425 0
M  V30 4492 C 414.316 -1.2748 -1.18427 0
M  V30 4493 O 415.492 -1.6038 -1.2182 0
M  V30 4494 C 412.557 -2.94916 -1.82278 0
M  V30 4495 C 411.618 -4.08363 -1.32432 0
M  V30 4496 C 410.851 -4.74469 -2.44366 0
M  V30 4497 O 411.074 -4.39701 -3.63344 0
M  V30 4498 O 410.008 -5.62763 -2.13497 0
M  V30 4499 H 413.834 -3.03593 -0.0807707 0
M  V30 4500 H 411.419 -1.49377 0.0259962 0
M  V30 4501 H 413.301 -3.38606 -2.50846 0
M  V30 4502 H 411.976 -2.19744 -2.37685 0
M  V30 4503 H 410.883 -3.69166 -0.605605 0
M  V30 4504 H 412.216 -4.85385 -0.816211 0
M  V30 4505 N 413.868 0.0150385 -1.57593 0
M  V30 4506 C 415.117 0.702115 -1.89085 0
M  V30 4507 C 415.43 1.75764 -0.858277 0
M  V30 4508 O 416.636 2.49829 -1.0629 0
M  V30 4509 C 415.092 1.29992 -3.35604 0
M  V30 4510 C 414.7 0.280007 -4.47124 0
M  V30 4511 C 416.444 1.96606 -3.76227 0
M  V30 4512 C 414.351 0.886949 -5.84711 0
M  V30 4513 H 413.281 0.265997 -0.705522 0
M  V30 4514 H 415.932 -0.0430408 -1.8345 0
M  V30 4515 H 414.314 2.09525 -3.36029 0
M  V30 4516 H 415.488 -0.489631 -4.58191 0
M  V30 4517 H 413.803 -0.284835 -4.15425 0
M  V30 4518 H 416.4 2.42893 -4.76347 0
M  V30 4519 H 416.743 2.79024 -3.08952 0
M  V30 4520 H 417.276 1.23828 -3.78036 0
M  V30 4521 H 414.015 0.101876 -6.55421 0
M  V30 4522 H 413.535 1.6261 -5.77337 0
M  V30 4523 H 415.214 1.39011 -6.3189 0
M  V30 4524 N 415.346 1.54954 0.287554 0
M  V30 4525 C 416.623 1.65569 1.04146 0
M  V30 4526 C 417.003 0.512672 2.0478 0
M  V30 4527 O 416.351 -0.489038 2.23205 0
M  V30 4528 C 416.561 3.04163 1.71131 0
M  V30 4529 C 417.909 3.61429 2.22832 0
M  V30 4530 O 418.933 3.06702 1.81141 0
M  V30 4531 O 417.792 4.57281 2.9926 0
M  V30 4532 H 414.886 0.671881 0.482188 0
M  V30 4533 H 417.432 1.67297 0.28457 0
M  V30 4534 H 416.204 3.78796 0.981303 0
M  V30 4535 H 415.827 3.06271 2.53543 0
M  V30 4536 N 416.824 -0.551391 1.4764 0
M  V30 4537 C 418.052 -1.33357 1.58189 0
M  V30 4538 C 418.467 -1.87342 0.234199 0
M  V30 4539 O 417.824 -1.65301 -0.77343 0
M  V30 4540 C 417.875 -2.49942 2.61173 0
M  V30 4541 O 417.596 -1.98187 3.90709 0
M  V30 4542 C 419.097 -3.42072 2.8196 0
M  V30 4543 H 416.317 -0.40631 0.533998 0
M  V30 4544 H 418.861 -0.667367 1.93304 0
M  V30 4545 H 417.016 -3.12489 2.28975 0
M  V30 4546 H 417.43 -2.74342 4.47031 0
M  V30 4547 H 418.904 -4.20278 3.57869 0
M  V30 4548 H 419.381 -3.95978 1.89995 0
M  V30 4549 H 419.987 -2.85336 3.15378 0
M  V30 4550 N 418.302 -1.35869 -0.798587 0
M  V30 4551 C 419.25 -1.29491 -1.93222 0
M  V30 4552 C 420.244 -0.18836 -1.6835 0
M  V30 4553 O 421.45 -0.354822 -1.76468 0
M  V30 4554 H 417.825 -0.402901 -0.63496 0
M  V30 4555 H 419.796 -2.25247 -1.9572 0
M  V30 4556 C 418.545 -1.09184 -3.30112 0
M  V30 4557 H 417.868 -1.93574 -3.49813 0
M  V30 4558 H 419.308 -1.08766 -4.09812 0
M  V30 4559 C 417.767 0.203959 -3.36282 0
M  V30 4560 O 418.297 1.19699 -3.83451 0
M  V30 4561 N 416.503 0.245488 -2.89561 0
M  V30 4562 H 416.05 -0.563223 -2.51367 0
M  V30 4563 H 416.008 1.11219 -2.94071 0
M  V30 4564 N 419.78 1.02168 -1.19998 0
M  V30 4565 C 421.028 1.75338 -1.00504 0
M  V30 4566 C 421.349 1.89387 0.464506 0
M  V30 4567 O 420.619 1.43268 1.33608 0
M  V30 4568 H 419.199 0.649564 -0.368885 0
M  V30 4569 H 421.861 1.23205 -1.51018 0
M  V30 4570 H 420.957 2.75892 -1.45912 0
M  V30 4571 N 421.258 1.00505 1.21394 0
M  V30 4572 C 422.507 0.683159 1.89778 0
M  V30 4573 C 422.82 -0.789471 1.7896 0
M  V30 4574 O 424.026 -1.22344 2.42372 0
M  V30 4575 C 422.482 1.17146 3.40301 0
M  V30 4576 C 422.09 2.67017 3.5973 0
M  V30 4577 C 423.834 0.924461 4.14311 0
M  V30 4578 C 421.741 3.09387 5.04017 0
M  V30 4579 H 420.671 0.25183 0.710702 0
M  V30 4580 H 423.322 1.21622 1.37406 0
M  V30 4581 H 421.704 0.566451 3.91928 0
M  V30 4582 H 422.878 3.32968 3.18542 0
M  V30 4583 H 421.193 2.89732 2.99073 0
M  V30 4584 H 423.79 1.21658 5.20676 0
M  V30 4585 H 424.133 -0.139286 4.16067 0
M  V30 4586 H 424.666 1.49226 3.6875 0
M  V30 4587 H 421.405 4.14989 5.07409 0
M  V30 4588 H 420.925 2.48149 5.46061 0
M  V30 4589 H 422.604 3.01371 5.72525 0
M  V30 4590 N 422.737 -1.36956 0.779787 0
M  V30 4591 C 423.684 -2.30175 0.169697 0
M  V30 4592 C 424.654 -1.51501 -0.68094 0
M  V30 4593 O 425.839 -1.80042 -0.631629 0
M  V30 4594 C 422.979 -3.37985 -0.697131 0
M  V30 4595 C 422.092 -4.31661 0.170992 0
M  V30 4596 C 421.227 -5.2655 -0.701298 0
M  V30 4597 C 420.266 -6.11867 0.168869 0
M  V30 4598 N 419.403 -6.98973 -0.661855 0
M  V30 4599 H 424.243 -2.81767 0.970135 0
M  V30 4600 H 421.78 -1.38699 0.489994 0
M  V30 4601 H 423.738 -3.99128 -1.2146 0
M  V30 4602 H 422.368 -2.87739 -1.46309 0
M  V30 4603 H 421.42 -3.71756 0.80634 0
M  V30 4604 H 422.732 -4.91644 0.841875 0
M  V30 4605 H 421.886 -5.92937 -1.28494 0
M  V30 4606 H 420.625 -4.66998 -1.40584 0
M  V30 4607 H 419.63 -5.44452 0.764986 0
M  V30 4608 H 420.855 -6.73493 0.870863 0
M  V30 4609 H 418.801 -6.41941 -1.35086 0
M  V30 4610 H 418.718 -7.55984 -0.0484447 0
M  V30 4611 H 419.986 -7.6974 -1.22963 0
M  V30 4612 N 424.215 -0.530993 -1.48385 0
M  V30 4613 C 425.462 0.0027373 -2.025 0
M  V30 4614 C 425.79 1.34186 -1.40799 0
M  V30 4615 O 425.045 1.88 -0.543544 0
M  V30 4616 C 425.344 0.172742 -3.56982 0
M  V30 4617 C 425.01 -1.09215 -4.37473 0
M  V30 4618 C 423.672 -1.43881 -4.59186 0
M  V30 4619 C 426.024 -1.93153 -4.84088 0
M  V30 4620 C 423.352 -2.62381 -5.2476 0
M  V30 4621 C 425.704 -3.10833 -5.50968 0
M  V30 4622 C 424.368 -3.45843 -5.70919 0
M  V30 4623 H 423.638 0.00100165 -0.740999 0
M  V30 4624 H 426.285 -0.697219 -1.78357 0
M  V30 4625 H 424.59 0.955473 -3.79971 0
M  V30 4626 H 426.287 0.600642 -3.96476 0
M  V30 4627 H 422.877 -0.812177 -4.20834 0
M  V30 4628 H 427.061 -1.67683 -4.67115 0
M  V30 4629 H 422.317 -2.89707 -5.38405 0
M  V30 4630 H 426.491 -3.7618 -5.86056 0
M  V30 4631 H 424.118 -4.37764 -6.21503 0
M  V30 4632 N 425.693 1.55336 -0.266172 0
M  V30 4633 C 426.921 2.03801 0.356756 0
M  V30 4634 C 427.336 1.14485 1.50129 0
M  V30 4635 O 426.693 0.163121 1.8177 0
M  V30 4636 C 426.744 3.51455 0.846281 0
M  V30 4637 O 426.465 4.37371 -0.252663 0
M  V30 4638 C 427.966 4.15767 1.53794 0
M  V30 4639 H 425.186 0.665906 0.0825218 0
M  V30 4640 H 427.73 2.00636 -0.39566 0
M  V30 4641 H 425.885 3.55092 1.54881 0
M  V30 4642 H 426.299 5.24358 0.122173 0
M  V30 4643 H 427.773 5.20714 1.83198 0
M  V30 4644 H 428.25 3.63404 2.46646 0
M  V30 4645 H 428.856 4.16107 0.879488 0
M  V30 4646 N 427.171 -0.0066808 1.57599 0
M  V30 4647 C 428.582 -0.550379 1.78403 0
M  V30 4648 C 428.933 -1.74339 0.900014 0
M  V30 4649 O 428.058 -2.16166 0.100713 0
M  V30 4650 C 428.653 -1.00523 3.23544 0
M  V30 4651 C 427.212 -1.49428 3.45468 0
M  V30 4652 C 426.359 -0.442444 2.73748 0
M  V30 4653 H 429.31 0.219508 1.57175 0
M  V30 4654 H 429.331 -1.87157 3.31289 0
M  V30 4655 H 428.843 -0.136735 3.87859 0
M  V30 4656 H 426.944 -2.3839 2.86358 0
M  V30 4657 H 427.057 -1.52635 4.54136 0
M  V30 4658 H 425.421 -0.902578 2.38171 0
M  V30 4659 H 426.204 0.416973 3.40758 0
M  V30 4660 N 428.649 -1.55105 -0.279332 0
M  V30 4661 C 429.597 -1.88333 -1.36505 0
M  V30 4662 C 430.591 -0.759043 -1.51443 0
M  V30 4663 O 431.797 -0.943312 -1.53302 0
M  V30 4664 H 428.172 -0.59766 -0.456406 0
M  V30 4665 H 430.143 -2.79041 -1.05728 0
M  V30 4666 C 428.892 -2.16628 -2.7197 0
M  V30 4667 H 428.215 -3.02624 -2.61264 0
M  V30 4668 H 429.655 -2.43803 -3.46895 0
M  V30 4669 C 428.114 -0.971807 -3.22579 0
M  V30 4670 O 428.644 -0.203228 -4.01186 0
M  V30 4671 N 426.85 -0.771238 -2.80179 0
M  V30 4672 H 426.397 -1.39792 -2.1637 0
M  V30 4673 H 426.355 0.0263667 -3.14389 0
M  V30 4674 N 430.127 0.543554 -1.4793 0
M  V30 4675 C 431.075 1.67039 -1.61866 0
M  V30 4676 C 432.069 1.62294 -0.48549 0
M  V30 4677 O 433.275 1.67315 -0.66376 0
M  V30 4678 H 429.65 0.552954 -0.509652 0
M  V30 4679 H 431.621 1.52426 -2.56533 0
M  V30 4680 C 430.37 3.05357 -1.6629 0
M  V30 4681 H 429.693 3.09696 -2.5284 0
M  V30 4682 H 431.133 3.83855 -1.80088 0
M  V30 4683 C 429.592 3.34531 -0.398861 0
M  V30 4684 O 430.122 3.98649 0.494162 0
M  V30 4685 N 428.328 2.89299 -0.2747 0
M  V30 4686 H 427.875 2.37298 -1.00236 0
M  V30 4687 H 427.833 3.09188 0.570075 0
M  V30 4688 N 431.605 1.3629 0.791371 0
M  V30 4689 C 432.552 1.30458 1.90393 0
M  V30 4690 C 433.522 0.173632 1.6519 0
M  V30 4691 O 434.707 0.35983 1.87376 0
M  V30 4692 C 431.847 1.09777 3.27174 0
M  V30 4693 C 430.96 2.31929 3.64462 0
M  V30 4694 C 430.095 2.04276 4.90352 0
M  V30 4695 C 429.134 3.224 5.20312 0
M  V30 4696 N 428.271 2.94424 6.37385 0
M  V30 4697 H 433.111 2.25589 1.94714 0
M  V30 4698 H 430.648 1.12122 0.952216 0
M  V30 4699 H 432.606 0.958133 4.06049 0
M  V30 4700 H 431.236 0.183014 3.22281 0
M  V30 4701 H 430.288 2.56703 2.80727 0
M  V30 4702 H 431.6 3.20085 3.82553 0
M  V30 4703 H 430.754 1.87231 5.77087 0
M  V30 4704 H 429.493 1.13428 4.74326 0
M  V30 4705 H 428.498 3.40005 4.32061 0
M  V30 4706 H 429.723 4.14071 5.38258 0
M  V30 4707 H 427.669 2.06185 6.22755 0
M  V30 4708 H 427.586 3.76118 6.55798 0
M  V30 4709 H 428.854 2.80953 7.27108 0
M  V30 4710 N 433.083 -1.0153 1.20538 0
M  V30 4711 C 434.013 -2.11972 0.979295 0
M  V30 4712 C 434.994 -1.6985 -0.0921787 0
M  V30 4713 O 436.179 -1.94089 0.0655932 0
M  V30 4714 C 433.309 -3.43201 0.531984 0
M  V30 4715 C 432.263 -3.9907 1.54685 0
M  V30 4716 C 431.589 -5.26082 0.956127 0
M  V30 4717 C 432.889 -4.32313 2.93092 0
M  V30 4718 H 434.583 -2.31143 1.90298 0
M  V30 4719 H 432.129 -1.11079 0.916372 0
M  V30 4720 H 434.082 -4.1985 0.361044 0
M  V30 4721 H 432.806 -3.23792 -0.427327 0
M  V30 4722 H 431.465 -3.2453 1.70517 0
M  V30 4723 H 431.113 -5.02999 -0.0111538 0
M  V30 4724 H 430.813 -5.64426 1.63393 0
M  V30 4725 H 432.337 -6.05386 0.796284 0
M  V30 4726 H 433.751 -4.99845 2.80763 0
M  V30 4727 H 432.148 -4.81774 3.57791 0
M  V30 4728 H 433.218 -3.41025 3.44717 0
M  V30 4729 N 434.561 -1.01147 -1.20859 0
M  V30 4730 C 435.786 -0.716698 -1.94623 0
M  V30 4731 C 436.211 0.715415 -1.73964 0
M  V30 4732 O 435.569 1.49157 -1.03062 0
M  V30 4733 C 435.617 -1.0513 -3.44935 0
M  V30 4734 O 434.721 -0.160131 -4.12089 0
M  V30 4735 H 434.062 -0.266404 -0.608214 0
M  V30 4736 H 436.592 -1.35346 -1.53436 0
M  V30 4737 H 436.602 -1.00086 -3.95533 0
M  V30 4738 H 435.277 -2.09475 -3.59295 0
M  V30 4739 H 433.854 -0.267657 -3.71938 0
M  V30 4740 N 436.039 1.36541 -0.78704 0
M  V30 4741 C 436.986 2.30082 -0.181901 0
M  V30 4742 C 437.956 1.5186 0.672896 0
M  V30 4743 O 439.141 1.80374 0.622072 0
M  V30 4744 C 436.281 3.3835 0.679197 0
M  V30 4745 C 435.394 4.31565 -0.193882 0
M  V30 4746 C 434.529 5.26915 0.673364 0
M  V30 4747 C 433.568 6.11769 -0.201315 0
M  V30 4748 N 432.705 6.99315 0.624777 0
M  V30 4749 H 437.545 2.81248 -0.985064 0
M  V30 4750 H 435.082 1.38437 -0.497342 0
M  V30 4751 H 437.04 3.99767 1.19341 0
M  V30 4752 H 435.67 2.8851 1.44781 0
M  V30 4753 H 434.722 3.71323 -0.826044 0
M  V30 4754 H 436.034 4.91191 -0.867937 0
M  V30 4755 H 435.188 5.9361 1.25348 0
M  V30 4756 H 433.927 4.67737 1.38105 0
M  V30 4757 H 432.932 5.44039 -0.793849 0
M  V30 4758 H 434.157 6.73022 -0.906568 0
M  V30 4759 H 432.103 6.42648 1.3168 0
M  V30 4760 H 432.02 7.56 0.00835237 0
M  V30 4761 H 433.288 7.70382 1.18879 0
M  V30 4762 N 437.518 0.538854 1.48102 0
M  V30 4763 C 438.746 0.0123136 2.06896 0
M  V30 4764 C 439.161 -1.27312 1.39417 0
M  V30 4765 O 438.518 -1.75949 0.484582 0
M  V30 4766 C 438.569 -0.206118 3.60912 0
M  V30 4767 O 438.29 1.0284 4.25859 0
M  V30 4768 C 439.791 -0.772033 4.36526 0
M  V30 4769 H 437.011 0.0375239 0.66995 0
M  V30 4770 H 439.555 0.747032 1.90367 0
M  V30 4771 H 437.71 -0.89091 3.77017 0
M  V30 4772 H 438.124 0.814654 5.18135 0
M  V30 4773 H 439.598 -0.874251 5.45033 0
M  V30 4774 H 440.075 -1.77904 4.01555 0
M  V30 4775 H 440.681 -0.123526 4.25121 0
M  V30 4776 N 438.996 -1.55193 0.274407 0
M  V30 4777 C 439.944 -2.23924 -0.629362 0
M  V30 4778 C 440.938 -1.23602 -1.1584 0
M  V30 4779 O 442.144 -1.41535 -1.11211 0
M  V30 4780 H 438.519 -0.718637 -0.221507 0
M  V30 4781 H 440.49 -2.98388 -0.0268322 0
M  V30 4782 C 439.239 -2.97329 -1.80252 0
M  V30 4783 H 438.562 -3.74313 -1.40462 0
M  V30 4784 H 440.002 -3.48743 -2.41152 0
M  V30 4785 C 438.461 -2.0276 -2.69054 0
M  V30 4786 O 438.991 -1.57836 -3.69392 0
M  V30 4787 N 437.197 -1.69275 -2.36208 0
M  V30 4788 H 436.744 -2.06004 -1.54661 0
M  V30 4789 H 436.702 -1.06271 -2.95895 0
M  V30 4790 N 440.474 -0.00167713 -1.576 0
M  V30 4791 C 441.721 0.68282 -1.90641 0
M  V30 4792 C 442.049 1.73686 -0.875415 0
M  V30 4793 O 441.304 1.95334 0.119575 0
M  V30 4794 C 441.603 1.36189 -3.30435 0
M  V30 4795 C 441.269 0.440887 -4.48739 0
M  V30 4796 C 439.931 0.187312 -4.80835 0
M  V30 4797 C 442.283 -0.193134 -5.20842 0
M  V30 4798 C 439.611 -0.70855 -5.82406 0
M  V30 4799 C 441.963 -1.07688 -6.23367 0
M  V30 4800 C 440.627 -1.33962 -6.53919 0
M  V30 4801 H 439.897 0.249862 -0.697603 0
M  V30 4802 H 442.544 -0.0575642 -1.91413 0
M  V30 4803 H 440.849 2.17636 -3.25794 0
M  V30 4804 H 442.546 1.89759 -3.5326 0
M  V30 4805 H 439.136 0.648694 -4.23663 0
M  V30 4806 H 443.32 -0.0102445 -4.96299 0
M  V30 4807 H 438.576 -0.920097 -6.04437 0
M  V30 4808 H 442.75 -1.57451 -6.78367 0
M  V30 4809 H 440.377 -2.03549 -7.32442 0
M  V30 4810 N 441.952 1.55251 0.271103 0
M  V30 4811 C 442.862 1.9136 1.35714 0
M  V30 4812 C 443.878 0.811075 1.5394 0
M  V30 4813 O 445.054 1.11031 1.6803 0
M  V30 4814 C 442.119 2.1798 2.69603 0
M  V30 4815 C 441.18 3.4153 2.60107 0
M  V30 4816 C 440.413 3.66871 3.8761 0
M  V30 4817 O 440.636 2.94689 4.8838 0
M  V30 4818 O 439.57 4.60405 3.87699 0
M  V30 4819 H 443.396 2.83815 1.08088 0
M  V30 4820 H 440.981 1.41821 0.469792 0
M  V30 4821 H 442.863 2.36518 3.48765 0
M  V30 4822 H 441.538 1.28708 2.97012 0
M  V30 4823 H 440.445 3.28325 1.79314 0
M  V30 4824 H 441.778 4.31027 2.37647 0
M  V30 4825 N 443.43 -0.535701 1.48216 0
M  V30 4826 C 444.676 -1.2913 1.57153 0
M  V30 4827 C 445.031 -1.90899 0.239823 0
M  V30 4828 O 444.324 -1.76022 -0.756748 0
M  V30 4829 C 444.518 -2.4068 2.64212 0
M  V30 4830 C 444.347 -1.89844 4.07663 0
M  V30 4831 C 443.117 -1.72708 4.74869 0
M  V30 4832 C 445.315 -1.43031 4.94011 0
M  V30 4833 N 443.297 -1.16437 6.02757 0
M  V30 4834 C 444.668 -0.986691 6.12098 0
M  V30 4835 C 446.723 -1.3128 4.80281 0
M  V30 4836 C 445.426 -0.437231 7.1797 0
M  V30 4837 C 447.452 -0.777346 5.86269 0
M  V30 4838 C 446.814 -0.343774 7.03561 0
M  V30 4839 H 442.913 -0.463753 0.629648 0
M  V30 4840 H 445.497 -0.604736 1.8507 0
M  V30 4841 H 443.668 -3.06839 2.38126 0
M  V30 4842 H 445.4 -3.07706 2.62867 0
M  V30 4843 H 442.155 -1.96061 4.31111 0
M  V30 4844 H 442.579 -0.903281 6.70947 0
M  V30 4845 H 447.221 -1.63408 3.89946 0
M  V30 4846 H 444.939 -0.103621 8.08034 0
M  V30 4847 H 448.525 -0.689688 5.77698 0
M  V30 4848 H 447.405 0.0641219 7.84174 0
M  V30 4849 N 444.908 -1.36708 -0.784132 0
M  V30 4850 C 446.155 -1.31231 -1.54222 0
M  V30 4851 C 446.483 0.106864 -1.94206 0
M  V30 4852 O 445.738 1.07734 -1.63376 0
M  V30 4853 C 446.037 -2.18571 -2.82774 0
M  V30 4854 C 445.703 -3.67039 -2.61903 0
M  V30 4855 C 444.365 -4.07503 -2.55919 0
M  V30 4856 C 446.717 -4.61149 -2.4288 0
M  V30 4857 C 444.045 -5.40211 -2.28886 0
M  V30 4858 C 446.397 -5.94081 -2.17373 0
M  V30 4859 C 445.061 -6.33664 -2.09825 0
M  V30 4860 H 444.331 -0.48021 -0.56434 0
M  V30 4861 H 446.978 -1.68807 -0.904233 0
M  V30 4862 H 445.283 -1.73949 -3.51068 0
M  V30 4863 H 446.98 -2.11655 -3.40592 0
M  V30 4864 H 443.57 -3.34941 -2.67418 0
M  V30 4865 H 447.754 -4.30756 -2.46501 0
M  V30 4866 H 443.01 -5.69855 -2.21529 0
M  V30 4867 H 447.184 -6.66566 -2.01649 0
M  V30 4868 H 444.811 -7.36423 -1.88641 0
M  V30 4869 N 446.386 1.0089 -1.21074 0
M  V30 4870 C 447.614 1.78191 -1.05145 0
M  V30 4871 C 448.029 1.84537 0.398952 0
M  V30 4872 O 447.386 1.30393 1.27687 0
M  V30 4873 C 447.437 3.22288 -1.63746 0
M  V30 4874 O 447.158 3.16315 -3.03111 0
M  V30 4875 C 448.659 4.16106 -1.52875 0
M  V30 4876 H 445.879 0.560129 -0.369454 0
M  V30 4877 H 448.423 1.26945 -1.60328 0
M  V30 4878 H 446.578 3.70655 -1.12664 0
M  V30 4879 H 446.992 4.06817 -3.31059 0
M  V30 4880 H 448.466 5.15026 -1.98626 0
M  V30 4881 H 448.943 4.36541 -0.482521 0
M  V30 4882 H 449.549 3.73625 -2.03185 0
M  V30 4883 N 447.864 1.01787 1.20321 0
M  V30 4884 C 449.28 0.732951 1.41774 0
M  V30 4885 C 449.48 -0.686883 1.89431 0
M  V30 4886 O 448.536 -1.45446 2.06402 0
M  V30 4887 C 449.849 1.75973 2.43832 0
M  V30 4888 C 451.397 1.77802 2.57596 0
M  V30 4889 C 451.872 2.7941 3.62897 0
M  V30 4890 N 453.363 2.78157 3.70382 0
M  V30 4891 C 454.098 3.53434 4.51521 0
M  V30 4892 N 453.594 4.38392 5.36455 0
M  V30 4893 N 455.387 3.42026 4.46066 0
M  V30 4894 H 447.538 1.93447 0.877035 0
M  V30 4895 H 449.801 0.835712 0.447536 0
M  V30 4896 H 449.507 2.77699 2.15815 0
M  V30 4897 H 449.381 1.57292 3.4284 0
M  V30 4898 H 451.768 0.767602 2.84942 0
M  V30 4899 H 451.849 2.00557 1.58779 0
M  V30 4900 H 451.493 3.80616 3.36295 0
M  V30 4901 H 451.423 2.53916 4.61339 0
M  V30 4902 H 453.914 2.16531 3.09714 0
M  V30 4903 H 454.227 4.92596 5.95457 0
M  V30 4904 H 452.572 4.4247 5.35953 0
M  V30 4905 H 455.763 2.75075 3.78749 0
M  V30 4906 H 455.936 4.00946 5.09064 0
M  V30 4907 N 449.342 -1.36122 0.79427 0
M  V30 4908 C 450.753 -1.81646 0.431446 0
M  V30 4909 C 451.104 -1.66043 -1.04518 0
M  V30 4910 O 450.229 -1.1841 -1.8113 0
M  V30 4911 C 450.824 -3.29785 0.776341 0
M  V30 4912 C 449.383 -3.73501 0.466282 0
M  V30 4913 C 448.53 -2.58313 1.00844 0
M  V30 4914 H 451.481 -1.24274 0.986995 0
M  V30 4915 H 451.502 -3.80437 0.0692413 0
M  V30 4916 H 451.014 -3.4111 1.8511 0
M  V30 4917 H 449.115 -3.67733 -0.600245 0
M  V30 4918 H 449.228 -4.68754 0.990288 0
M  V30 4919 H 447.592 -2.5102 0.431406 0
M  V30 4920 H 448.375 -2.72421 2.08906 0
M  V30 4921 N 450.82 -0.546701 -1.47814 0
M  V30 4922 C 451.783 0.196287 -2.28358 0
M  V30 4923 C 452.783 0.852437 -1.36346 0
M  V30 4924 O 453.973 0.709913 -1.59078 0
M  V30 4925 C 451.105 1.28579 -3.15722 0
M  V30 4926 H 452.298 -0.511086 -2.95513 0
M  V30 4927 H 449.851 -0.303248 -1.5333 0
M  V30 4928 H 450.586 2.0259 -2.53235 0
M  V30 4929 H 450.371 0.820229 -3.83425 0
M  V30 4930 H 451.861 1.80793 -3.76435 0
M  V30 4931 N 452.299 1.55045 -0.282633 0
M  V30 4932 C 453.548 1.98938 0.332667 0
M  V30 4933 C 453.861 1.17455 1.56409 0
M  V30 4934 O 455.067 1.51527 2.25282 0
M  V30 4935 C 453.523 3.54105 0.643226 0
M  V30 4936 C 453.131 4.44374 -0.568814 0
M  V30 4937 C 454.875 4.06569 1.22074 0
M  V30 4938 C 452.782 5.90943 -0.232426 0
M  V30 4939 H 451.712 0.743043 0.128075 0
M  V30 4940 H 454.363 1.79341 -0.388464 0
M  V30 4941 H 452.745 3.69532 1.42346 0
M  V30 4942 H 453.919 4.40718 -1.34551 0
M  V30 4943 H 452.234 4.02585 -1.06369 0
M  V30 4944 H 454.831 5.13626 1.48635 0
M  V30 4945 H 455.174 3.56057 2.15707 0
M  V30 4946 H 455.707 3.94612 0.502621 0
M  V30 4947 H 452.446 6.45567 -1.13683 0
M  V30 4948 H 451.966 5.9765 0.507357 0
M  V30 4949 H 453.645 6.4677 0.172657 0
M  V30 4950 N 453.777 0.010035 1.57597 0
M  V30 4951 C 455.005 -0.683413 1.95287 0
M  V30 4952 C 455.42 -1.66747 0.885481 0
M  V30 4953 O 454.777 -1.82003 -0.134629 0
M  V30 4954 C 454.828 -1.40652 3.33015 0
M  V30 4955 O 454.549 -0.461916 4.35658 0
M  V30 4956 C 456.05 -2.19356 3.85225 0
M  V30 4957 H 453.27 -0.189708 0.643624 0
M  V30 4958 H 455.814 0.0641359 2.04399 0
M  V30 4959 H 453.969 -2.10562 3.2518 0
M  V30 4960 H 454.383 -0.973215 5.15392 0
M  V30 4961 H 455.857 -2.65433 4.83993 0
M  V30 4962 H 456.334 -3.02457 3.18459 0
M  V30 4963 H 456.94 -1.54442 3.96267 0
M  V30 4964 N 455.255 -1.55392 -0.262866 0
M  V30 4965 C 456.187 -1.85392 -1.34768 0
M  V30 4966 C 457.2 -0.739069 -1.45057 0
M  V30 4967 O 458.389 -1.01703 -1.46693 0
M  V30 4968 C 455.489 -2.01088 -2.72795 0
M  V30 4969 C 454.662 -3.31828 -2.84972 0
M  V30 4970 C 453.721 -3.37464 -4.03738 0
M  V30 4971 O 452.747 -4.10778 -3.94018 0
M  V30 4972 N 453.949 -2.65599 -5.16176 0
M  V30 4973 H 456.714 -2.79029 -1.09375 0
M  V30 4974 H 454.275 -1.55434 -0.452981 0
M  V30 4975 H 456.267 -2.02217 -3.50557 0
M  V30 4976 H 454.837 -1.1427 -2.90966 0
M  V30 4977 H 454.057 -3.43152 -1.94012 0
M  V30 4978 H 455.345 -4.18032 -2.90045 0
M  V30 4979 H 454.743 -2.05736 -5.26962 0
M  V30 4980 H 453.3 -2.72439 -5.92132 0
M  V30 4981 N 456.733 0.527833 -1.48498 0
M  V30 4982 C 457.979 1.28545 -1.56857 0
M  V30 4983 C 458.312 1.92678 -0.242651 0
M  V30 4984 O 457.587 1.79394 0.751545 0
M  V30 4985 C 457.87 2.37314 -2.70839 0
M  V30 4986 C 457.723 1.77858 -4.13142 0
M  V30 4987 C 459.042 3.39068 -2.80573 0
M  V30 4988 H 456.161 0.466006 -0.570971 0
M  V30 4989 H 458.803 0.587784 -1.8068 0
M  V30 4990 H 456.953 2.96821 -2.50658 0
M  V30 4991 H 458.625 1.22385 -4.44769 0
M  V30 4992 H 456.868 1.08383 -4.20042 0
M  V30 4993 H 457.539 2.56624 -4.88721 0
M  V30 4994 H 460.015 2.89518 -2.98862 0
M  V30 4995 H 458.891 4.12566 -3.6205 0
M  V30 4996 H 459.152 3.9975 -1.88818 0
M  V30 4997 N 458.211 1.37122 0.776871 0
M  V30 4998 C 459.158 1.3247 1.88998 0
M  V30 4999 C 460.128 0.191143 1.64997 0
M  V30 5000 O 461.313 0.379683 1.86984 0
M  V30 5001 C 458.453 1.13241 3.25992 0
M  V30 5002 C 457.566 2.35782 3.61982 0
M  V30 5003 C 456.701 2.09465 4.88158 0
M  V30 5004 C 455.74 3.279 5.16864 0
M  V30 5005 N 454.877 3.01167 6.34226 0
M  V30 5006 H 459.717 2.27642 1.9231 0
M  V30 5007 H 457.254 1.13125 0.94027 0
M  V30 5008 H 459.212 1.00115 4.0501 0
M  V30 5009 H 457.842 0.217186 3.22069 0
M  V30 5010 H 456.894 2.59666 2.77989 0
M  V30 5011 H 458.206 3.24125 3.79137 0
M  V30 5012 H 457.36 1.93341 5.75069 0
M  V30 5013 H 456.099 1.18452 4.73097 0
M  V30 5014 H 455.104 3.44569 4.2843 0
M  V30 5015 H 456.329 4.19757 5.33836 0
M  V30 5016 H 454.275 2.12779 6.20533 0
M  V30 5017 H 454.192 3.83052 6.51772 0
M  V30 5018 H 455.46 2.88649 7.24087 0
M  V30 5019 N 459.689 -1.00246 1.21608 0
M  V30 5020 C 460.621 -2.09244 0.935401 0
M  V30 5021 C 461.634 -1.62592 -0.0823594 0
M  V30 5022 O 462.823 -1.77865 0.150456 0
M  V30 5023 C 459.923 -3.36724 0.383453 0
M  V30 5024 C 459.096 -4.1245 1.45615 0
M  V30 5025 C 458.155 -5.18219 0.912991 0
M  V30 5026 O 457.181 -5.46337 1.59701 0
M  V30 5027 N 458.383 -5.7987 -0.270478 0
M  V30 5028 H 461.148 -2.33905 1.87373 0
M  V30 5029 H 458.709 -1.16748 1.12167 0
M  V30 5030 H 460.701 -4.047 0.00562157 0
M  V30 5031 H 459.271 -3.09201 -0.459758 0
M  V30 5032 H 458.491 -3.39241 2.00772 0
M  V30 5033 H 459.779 -4.59819 2.17817 0
M  V30 5034 H 459.177 -5.59381 -0.843195 0
M  V30 5035 H 457.734 -6.49126 -0.589794 0
M  V30 5036 N 461.167 -1.02423 -1.1978 0
M  V30 5037 C 462.444 -0.632802 -1.85081 0
M  V30 5038 C 462.824 0.888745 -1.9148 0
M  V30 5039 O 462.172 1.78357 -1.42832 0
M  V30 5040 C 462.382 -1.28947 -3.24305 0
M  V30 5041 C 463.73 -1.40976 -4.00513 0
M  V30 5042 O 464.754 -1.24628 -3.33686 0
M  V30 5043 O 463.613 -1.67467 -5.20209 0
M  V30 5044 H 460.707 -0.219348 -0.79738 0
M  V30 5045 H 463.253 -1.12209 -1.27307 0
M  V30 5046 H 462.025 -2.3288 -3.14456 0
M  V30 5047 H 461.648 -0.787748 -3.89718 0
M  V30 5048 N 462.645 1.35699 -0.801477 0
M  V30 5049 C 463.575 2.32436 -0.222658 0
M  V30 5050 C 464.556 1.5723 0.649057 0
M  V30 5051 O 465.741 1.85324 0.580387 0
M  V30 5052 C 462.871 3.41469 0.633719 0
M  V30 5053 C 461.825 4.27774 -0.139083 0
M  V30 5054 C 461.151 5.28082 0.838666 0
M  V30 5055 C 462.451 5.04946 -1.33517 0
M  V30 5056 H 464.145 2.81094 -1.03086 0
M  V30 5057 H 461.691 1.35146 -0.497155 0
M  V30 5058 H 463.644 4.08143 1.04868 0
M  V30 5059 H 462.368 2.91408 1.47475 0
M  V30 5060 H 461.027 3.62673 -0.535156 0
M  V30 5061 H 460.675 4.7429 1.67506 0
M  V30 5062 H 460.375 5.86695 0.32594 0
M  V30 5063 H 461.899 5.97628 1.25194 0
M  V30 5064 H 463.313 5.64593 -0.995349 0
M  V30 5065 H 461.71 5.7303 -1.78202 0
M  V30 5066 H 462.78 4.35886 -2.12442 0
M  V30 5067 N 464.123 0.554532 1.47522 0
M  V30 5068 C 465.056 -0.242442 2.26908 0
M  V30 5069 C 466.034 -0.922722 1.33883 0
M  V30 5070 O 467.218 -0.942244 1.63261 0
M  V30 5071 C 464.345 -1.34525 3.10839 0
M  V30 5072 C 463.391 -0.773805 4.19422 0
M  V30 5073 S 464.224 0.377525 5.34168 0
M  V30 5074 C 465.38 -0.727164 6.21662 0
M  V30 5075 H 465.613 0.431218 2.94156 0
M  V30 5076 H 463.146 0.3408 1.50592 0
M  V30 5077 H 465.104 -1.97683 3.59766 0
M  V30 5078 H 463.765 -1.99073 2.42958 0
M  V30 5079 H 462.958 -1.60187 4.77866 0
M  V30 5080 H 462.56 -0.218448 3.73361 0
M  V30 5081 H 464.852 -1.61992 6.57849 0
M  V30 5082 H 465.795 -0.180135 7.07871 0
M  V30 5083 H 466.203 -1.01863 5.55233 0
M  V30 5084 N 465.601 -1.54893 0.290851 0
M  V30 5085 C 466.878 -1.91991 -0.373989 0
M  V30 5086 C 467.258 -1.21694 -1.72493 0
M  V30 5087 O 466.606 -0.34917 -2.25816 0
M  V30 5088 C 466.816 -3.45419 -0.498703 0
M  V30 5089 C 468.164 -4.1748 -0.774298 0
M  V30 5090 O 469.188 -3.51398 -0.582908 0
M  V30 5091 O 468.047 -5.3445 -1.14129 0
M  V30 5092 H 465.141 -0.800593 -0.207315 0
M  V30 5093 H 467.687 -1.66297 0.338164 0
M  V30 5094 H 466.459 -3.88688 0.451392 0
M  V30 5095 H 466.082 -3.77117 -1.25972 0
M  V30 5096 N 467.08 -0.0183926 -1.57589 0
M  V30 5097 C 468.027 0.967022 -2.09565 0
M  V30 5098 C 468.997 1.32983 -0.995225 0
M  V30 5099 O 470.182 1.42501 -1.26878 0
M  V30 5100 C 467.322 2.24772 -2.61861 0
M  V30 5101 C 466.435 1.94232 -3.85873 0
M  V30 5102 C 465.57 3.16518 -4.26603 0
M  V30 5103 C 464.609 2.81748 -5.43401 0
M  V30 5104 N 463.746 3.96626 -5.79338 0
M  V30 5105 H 468.586 0.516874 -2.93483 0
M  V30 5106 H 466.123 0.243544 -1.4507 0
M  V30 5107 H 468.081 2.99667 -2.90268 0
M  V30 5108 H 466.711 2.67423 -1.8079 0
M  V30 5109 H 465.763 1.09625 -3.64262 0
M  V30 5110 H 467.075 1.64616 -4.70853 0
M  V30 5111 H 466.229 3.99743 -4.56389 0
M  V30 5112 H 464.968 3.49286 -3.40368 0
M  V30 5113 H 463.973 1.96933 -5.1332 0
M  V30 5114 H 465.198 2.50207 -6.31327 0
M  V30 5115 H 463.144 4.29257 -4.96059 0
M  V30 5116 H 463.061 3.70598 -6.58933 0
M  V30 5117 H 464.329 4.80586 -6.13724 0
M  V30 5118 N 468.558 1.5553 0.254621 0
M  V30 5119 C 469.788 1.80784 1.00004 0
M  V30 5120 C 470.196 0.59071 1.79742 0
M  V30 5121 O 469.539 -0.449988 1.78103 0
M  V30 5122 C 469.601 2.99268 1.99196 0
M  V30 5123 C 469.265 4.35595 1.38224 0
M  V30 5124 C 470.262 5.13884 0.788611 0
M  V30 5125 C 467.947 4.82281 1.40393 0
M  V30 5126 C 469.941 6.37004 0.224783 0
M  V30 5127 C 467.628 6.05351 0.836243 0
M  V30 5128 C 468.626 6.82551 0.24769 0
M  V30 5129 O 468.314 8.03297 -0.311249 0
M  V30 5130 H 468.046 0.60565 0.300274 0
M  V30 5131 H 470.6 2.03411 0.285143 0
M  V30 5132 H 468.83 2.72377 2.74496 0
M  V30 5133 H 470.519 3.11682 2.60018 0
M  V30 5134 H 471.285 4.78938 0.764423 0
M  V30 5135 H 467.164 4.22189 1.85142 0
M  V30 5136 H 470.708 6.97203 -0.235235 0
M  V30 5137 H 466.605 6.39776 0.857733 0
M  V30 5138 H 467.373 8.1825 -0.20237 0
M  V30 5139 N 470.036 -0.519951 1.48776 0
M  V30 5140 C 470.983 -1.62352 1.64044 0
M  V30 5141 C 471.953 -1.58945 0.482251 0
M  V30 5142 O 473.138 -1.77219 0.706971 0
M  V30 5143 C 470.278 -3.00579 1.69547 0
M  V30 5144 C 469.391 -3.14145 2.96541 0
M  V30 5145 C 468.526 -4.42991 2.93142 0
M  V30 5146 C 467.565 -4.50122 4.14797 0
M  V30 5147 N 466.702 -5.7037 4.09418 0
M  V30 5148 H 471.542 -1.48643 2.58281 0
M  V30 5149 H 469.079 -0.723516 1.28077 0
M  V30 5150 H 471.037 -3.80671 1.70719 0
M  V30 5151 H 469.667 -3.13036 0.787918 0
M  V30 5152 H 468.719 -2.27239 3.05068 0
M  V30 5153 H 470.031 -3.15275 3.86527 0
M  V30 5154 H 469.185 -5.31385 2.92772 0
M  V30 5155 H 467.924 -4.44398 2.00902 0
M  V30 5156 H 466.929 -3.60133 4.15433 0
M  V30 5157 H 468.154 -4.50445 5.08208 0
M  V30 5158 H 466.1 -5.72655 3.20004 0
M  V30 5159 H 466.017 -5.73036 4.93119 0
M  V30 5160 H 467.285 -6.61023 4.13121 0
M  V30 5161 N 471.514 -1.37532 -0.769588 0
M  V30 5162 C 472.744 -1.35861 -1.55645 0
M  V30 5163 C 473.152 0.0574398 -1.89113 0
M  V30 5164 O 472.495 1.03021 -1.52093 0
M  V30 5165 C 472.557 -2.13431 -2.89288 0
M  V30 5166 C 472.221 -3.62378 -2.78444 0
M  V30 5167 C 473.218 -4.56215 -2.49326 0
M  V30 5168 C 470.903 -4.05529 -2.96398 0
M  V30 5169 C 472.897 -5.91181 -2.38294 0
M  V30 5170 C 470.584 -5.40579 -2.84987 0
M  V30 5171 C 471.582 -6.33218 -2.55975 0
M  V30 5172 O 471.27 -7.65787 -2.44594 0
M  V30 5173 H 471.002 -0.467001 -0.48876 0
M  V30 5174 H 473.556 -1.81505 -0.961515 0
M  V30 5175 H 471.786 -1.62481 -3.50909 0
M  V30 5176 H 473.475 -2.04368 -3.50697 0
M  V30 5177 H 474.241 -4.24187 -2.35139 0
M  V30 5178 H 470.12 -3.33781 -3.1798 0
M  V30 5179 H 473.664 -6.63457 -2.15571 0
M  V30 5180 H 469.561 -5.72209 -2.98743 0
M  V30 5181 H 470.329 -7.76132 -2.59927 0
M  V30 5182 N 472.992 0.995999 -1.22138 0
M  V30 5183 C 474.22 1.77066 -1.07029 0
M  V30 5184 C 474.635 1.8495 0.379357 0
M  V30 5185 O 473.992 1.3174 1.26297 0
M  V30 5186 C 474.043 3.20533 -1.67155 0
M  V30 5187 O 473.764 3.13082 -3.06449 0
M  V30 5188 C 475.265 4.14461 -1.5728 0
M  V30 5189 H 472.485 0.556179 -0.375374 0
M  V30 5190 H 475.029 1.25238 -1.61666 0
M  V30 5191 H 473.184 3.6944 -1.16589 0
M  V30 5192 H 473.598 4.03283 -3.35355 0
M  V30 5193 H 475.072 5.1289 -2.04078 0
M  V30 5194 H 475.549 4.36005 -0.528795 0
M  V30 5195 H 476.155 3.71449 -2.07136 0
M  V30 5196 N 474.47 1.03057 1.19235 0
M  V30 5197 C 475.402 0.570932 2.21975 0
M  V30 5198 C 476.415 -0.354088 1.58903 0
M  V30 5199 O 477.604 -0.150211 1.77867 0
M  V30 5200 C 474.704 -0.187152 3.38383 0
M  V30 5201 C 473.877 0.743231 4.31039 0
M  V30 5202 C 472.936 0.0302493 5.26191 0
M  V30 5203 O 471.962 0.657371 5.65391 0
M  V30 5204 N 473.164 -1.23991 5.67104 0
M  V30 5205 H 475.929 1.45456 2.62036 0
M  V30 5206 H 473.49 0.909807 1.33918 0
M  V30 5207 H 475.482 -0.673715 3.99053 0
M  V30 5208 H 474.052 -0.972205 2.97098 0
M  V30 5209 H 473.272 1.40985 3.68126 0
M  V30 5210 H 474.56 1.3755 4.89854 0
M  V30 5211 H 473.958 -1.77011 5.37293 0
M  V30 5212 H 472.515 -1.67093 6.30018 0
M  V30 5213 N 475.948 -1.35272 0.808662 0
M  V30 5214 C 476.858 -2.33546 0.222079 0
M  V30 5215 C 477.874 -1.6196 -0.636011 0
M  V30 5216 O 479.05 -1.93822 -0.547274 0
M  V30 5217 C 476.115 -3.41148 -0.61795 0
M  V30 5218 C 475.176 -4.28507 0.260875 0
M  V30 5219 C 474.409 -5.3097 -0.539156 0
M  V30 5220 O 474.632 -5.42123 -1.77367 0
M  V30 5221 O 473.566 -6.01858 0.0710526 0
M  V30 5222 H 477.392 -2.85515 1.03512 0
M  V30 5223 H 474.977 -1.38079 0.570495 0
M  V30 5224 H 476.859 -4.06889 -1.09634 0
M  V30 5225 H 475.534 -2.91447 -1.40855 0
M  V30 5226 H 474.441 -3.6574 0.786451 0
M  V30 5227 H 475.774 -4.81611 1.01547 0
M  V30 5228 N 477.426 -0.562348 -1.47226 0
M  V30 5229 C 478.336 0.185466 -2.33866 0
M  V30 5230 C 479.352 0.906713 -1.48508 0
M  V30 5231 O 480.528 0.874458 -1.81425 0
M  V30 5232 C 477.593 1.19904 -3.25306 0
M  V30 5233 C 476.654 0.484669 -4.26555 0
M  V30 5234 C 475.887 1.44996 -5.13626 0
M  V30 5235 O 476.11 2.68515 -5.03245 0
M  V30 5236 O 475.044 0.971642 -5.94006 0
M  V30 5237 H 478.87 -0.525361 -2.99121 0
M  V30 5238 H 476.455 -0.322916 -1.45868 0
M  V30 5239 H 478.337 1.78399 -3.81774 0
M  V30 5240 H 477.012 1.8917 -2.62672 0
M  V30 5241 H 475.919 -0.141605 -3.73832 0
M  V30 5242 H 477.252 -0.166634 -4.91918 0
M  V30 5243 N 478.904 1.54736 -0.299062 0
M  V30 5244 C 480.15 2.00397 0.311244 0
M  V30 5245 C 480.483 1.18716 1.53688 0
M  V30 5246 O 479.758 0.263154 1.92712 0
M  V30 5247 C 480.041 3.53817 0.669761 0
M  V30 5248 C 479.894 4.46239 -0.564882 0
M  V30 5249 C 481.213 4.13856 1.49702 0
M  V30 5250 H 478.332 0.728493 0.111653 0
M  V30 5251 H 480.974 1.85506 -0.410774 0
M  V30 5252 H 479.124 3.66637 1.28491 0
M  V30 5253 H 480.796 4.45328 -1.20337 0
M  V30 5254 H 479.039 4.16916 -1.19849 0
M  V30 5255 H 479.71 5.5134 -0.269918 0
M  V30 5256 H 482.186 4.04461 0.977284 0
M  V30 5257 H 481.062 5.21365 1.71666 0
M  V30 5258 H 481.323 3.65608 2.48563 0
M  V30 5259 N 480.382 0.0267497 1.57577 0
M  V30 5260 C 481.659 -0.690926 1.82991 0
M  V30 5261 C 482.039 -1.90471 0.910164 0
M  V30 5262 O 481.387 -2.28474 -0.0347985 0
M  V30 5263 C 481.597 -1.07139 3.32148 0
M  V30 5264 C 482.945 -1.46402 3.98562 0
M  V30 5265 O 483.969 -1.16443 3.36629 0
M  V30 5266 O 482.828 -2.02214 5.07712 0
M  V30 5267 H 479.922 -0.338747 0.75444 0
M  V30 5268 H 482.468 0.0542506 1.69613 0
M  V30 5269 H 481.24 -0.207394 3.9075 0
M  V30 5270 H 480.863 -1.87481 3.50623 0
M  V30 5271 N 481.861 -1.55662 -0.24637 0
M  V30 5272 C 482.808 -1.90361 -1.30504 0
M  V30 5273 C 483.778 -0.757905 -1.47801 0
M  V30 5274 O 484.963 -1.01161 -1.61775 0
M  V30 5275 C 482.103 -2.2042 -2.65535 0
M  V30 5276 C 481.216 -3.47799 -2.56242 0
M  V30 5277 C 480.351 -3.67426 -3.8363 0
M  V30 5278 C 479.39 -4.88403 -3.68956 0
M  V30 5279 N 478.527 -5.04548 -4.88237 0
M  V30 5280 H 483.367 -2.80645 -1.00213 0
M  V30 5281 H 480.904 -1.38924 -0.483577 0
M  V30 5282 H 482.862 -2.35853 -3.44135 0
M  V30 5283 H 481.492 -1.3334 -2.93973 0
M  V30 5284 H 480.544 -3.40694 -1.69208 0
M  V30 5285 H 481.856 -4.36544 -2.4131 0
M  V30 5286 H 481.01 -3.82821 -4.70673 0
M  V30 5287 H 479.749 -2.76914 -4.01459 0
M  V30 5288 H 478.754 -4.72984 -2.80296 0
M  V30 5289 H 479.979 -5.80375 -3.52621 0
M  V30 5290 H 477.925 -4.16974 -5.06427 0
M  V30 5291 H 477.842 -5.87384 -4.75937 0
M  V30 5292 H 479.11 -5.24355 -5.76777 0
M  V30 5293 N 483.339 0.512053 -1.4905 0
M  V30 5294 C 484.269 1.62365 -1.67809 0
M  V30 5295 C 485.25 1.61737 -0.526809 0
M  V30 5296 O 486.435 1.78651 -0.761404 0
M  V30 5297 C 483.565 3.00895 -1.73435 0
M  V30 5298 C 482.519 3.16387 -2.88242 0
M  V30 5299 C 481.845 4.56157 -2.78971 0
M  V30 5300 C 483.145 2.97457 -4.29321 0
M  V30 5301 H 484.839 1.46921 -2.60873 0
M  V30 5302 H 482.385 0.705379 -1.2554 0
M  V30 5303 H 484.338 3.78549 -1.85145 0
M  V30 5304 H 483.062 3.17403 -0.769619 0
M  V30 5305 H 481.721 2.41155 -2.76116 0
M  V30 5306 H 481.369 4.69525 -1.8043 0
M  V30 5307 H 481.069 4.67465 -3.5602 0
M  V30 5308 H 482.593 5.35886 -2.92675 0
M  V30 5309 H 484.007 3.64888 -4.42187 0
M  V30 5310 H 482.404 3.20245 -5.07507 0
M  V30 5311 H 483.474 1.93692 -4.44535 0
M  V30 5312 N 484.817 1.37938 0.762283 0
M  V30 5313 C 486.066 1.32989 1.51647 0
M  V30 5314 C 486.379 -0.0802922 1.95435 0
M  V30 5315 O 487.585 -0.252295 2.70325 0
M  V30 5316 C 486.041 2.33485 2.73885 0
M  V30 5317 C 485.649 3.80079 2.37157 0
M  V30 5318 C 487.393 2.37563 3.51801 0
M  V30 5319 C 485.3 4.72283 3.55954 0
M  V30 5320 H 484.23 0.494301 0.56937 0
M  V30 5321 H 486.881 1.63448 0.834083 0
M  V30 5322 H 485.263 1.96056 3.44061 0
M  V30 5323 H 486.437 4.26398 1.74704 0
M  V30 5324 H 484.752 3.79037 1.72395 0
M  V30 5325 H 487.349 3.0365 4.40114 0
M  V30 5326 H 487.692 1.39199 3.92338 0
M  V30 5327 H 488.225 2.73747 2.8863 0
M  V30 5328 H 484.964 5.7181 3.2049 0
M  V30 5329 H 484.484 4.30663 4.1748 0
M  V30 5330 H 486.163 4.89876 4.22647 0
M  V30 5331 N 486.295 -0.989507 1.22664 0
M  V30 5332 C 487.258 -2.06183 1.00106 0
M  V30 5333 C 488.258 -1.60765 -0.0337726 0
M  V30 5334 O 489.448 -1.72989 0.205072 0
M  V30 5335 C 486.58 -3.37021 0.51279 0
M  V30 5336 H 487.773 -2.27629 1.95256 0
M  V30 5337 H 485.326 -1.16158 1.0458 0
M  V30 5338 H 486.061 -3.21261 -0.442917 0
M  V30 5339 H 485.846 -3.71323 1.25942 0
M  V30 5340 H 487.336 -4.1591 0.375315 0
M  V30 5341 N 487.773 -1.03688 -1.18687 0
M  V30 5342 C 488.721 -0.618292 -2.24232 0
M  V30 5343 C 489.715 0.353045 -1.6568 0
M  V30 5344 O 490.921 0.220749 -1.78641 0
M  V30 5345 H 487.296 -0.181711 -0.729716 0
M  V30 5346 H 489.267 -1.51893 -2.56848 0
M  V30 5347 C 488.016 0.00677342 -3.47699 0
M  V30 5348 H 487.339 -0.731692 -3.93047 0
M  V30 5349 H 488.779 0.262492 -4.23187 0
M  V30 5350 C 487.238 1.25572 -3.12623 0
M  V30 5351 O 487.768 2.34691 -3.26011 0
M  V30 5352 N 485.974 1.14755 -2.66982 0
M  V30 5353 H 485.521 0.259601 -2.56289 0
M  V30 5354 H 485.479 1.98412 -2.43885 0
M  V30 5355 N 489.251 1.34841 -0.815825 0
M  V30 5356 C 490.499 1.98107 -0.399744 0
M  V30 5357 C 490.82 1.65019 1.03894 0
M  V30 5358 O 490.09 0.937311 1.72021 0
M  V30 5359 H 488.67 0.732827 -0.144823 0
M  V30 5360 H 491.332 1.64599 -1.0437 0
M  V30 5361 H 490.428 3.07856 -0.512965 0
M  V30 5362 N 490.729 0.570148 1.46925 0
M  V30 5363 C 491.977 0.0508523 2.02036 0
M  V30 5364 C 492.298 -1.30885 1.44548 0
M  V30 5365 O 491.568 -1.85647 0.625453 0
M  V30 5366 H 490.148 0.0158088 0.746833 0
M  V30 5367 H 492.81 0.743086 1.80178 0
M  V30 5368 H 491.906 -0.027575 3.12088 0
M  V30 5369 N 492.207 -1.54576 0.307264 0
M  V30 5370 C 493.137 -2.26708 -0.55907 0
M  V30 5371 C 494.118 -1.26893 -1.1328 0
M  V30 5372 O 495.303 -1.55677 -1.16097 0
M  V30 5373 C 492.433 -3.01259 -1.72801 0
M  V30 5374 C 491.387 -4.08275 -1.28435 0
M  V30 5375 C 490.713 -4.70575 -2.53895 0
M  V30 5376 C 492.013 -5.2068 -0.411038 0
M  V30 5377 H 493.707 -2.9937 0.042576 0
M  V30 5378 H 491.253 -1.43983 0.0219173 0
M  V30 5379 H 493.206 -3.50444 -2.34023 0
M  V30 5380 H 491.93 -2.26187 -2.356 0
M  V30 5381 H 490.589 -3.59949 -0.695161 0
M  V30 5382 H 490.237 -3.92136 -3.15021 0
M  V30 5383 H 489.937 -5.42854 -2.24908 0
M  V30 5384 H 491.461 -5.22527 -3.15908 0
M  V30 5385 H 492.875 -5.65721 -0.929097 0
M  V30 5386 H 491.272 -5.99716 -0.214664 0
M  V30 5387 H 492.342 -4.81629 0.562287 0
M  V30 5388 N 493.685 -0.035106 -1.57561 0
M  V30 5389 C 494.632 0.94474 -2.10578 0
M  V30 5390 C 495.602 1.3192 -1.00927 0
M  V30 5391 O 496.787 1.41147 -1.28382 0
M  V30 5392 C 493.927 2.21982 -2.64231 0
M  V30 5393 C 493.04 1.90128 -3.87911 0
M  V30 5394 C 492.175 3.11975 -4.29936 0
M  V30 5395 C 491.214 2.75968 -5.46359 0
M  V30 5396 N 490.351 3.90459 -5.83512 0
M  V30 5397 H 495.191 0.485717 -2.94015 0
M  V30 5398 H 492.728 0.228143 -1.4532 0
M  V30 5399 H 494.686 2.96572 -2.9343 0
M  V30 5400 H 493.316 2.6549 -1.83616 0
M  V30 5401 H 492.368 1.05755 -3.65404 0
M  V30 5402 H 493.68 1.59613 -4.72573 0
M  V30 5403 H 492.834 3.9488 -4.60603 0
M  V30 5404 H 491.573 3.45657 -3.44053 0
M  V30 5405 H 490.578 1.91478 -5.1538 0
M  V30 5406 H 491.803 2.43497 -6.33945 0
M  V30 5407 H 489.749 4.23971 -5.00584 0
M  V30 5408 H 489.666 3.63588 -6.62827 0
M  V30 5409 H 490.934 4.7405 -6.18787 0
M  V30 5410 N 495.163 1.55791 0.238111 0
M  V30 5411 C 496.412 1.77234 0.962868 0
M  V30 5412 C 496.725 0.600661 1.86149 0
M  V30 5413 O 497.931 0.698315 2.62366 0
M  V30 5414 C 496.387 3.13808 1.76218 0
M  V30 5415 C 495.995 4.3865 0.910518 0
M  V30 5416 C 497.739 3.44585 2.47914 0
M  V30 5417 C 495.646 5.66252 1.70623 0
M  V30 5418 H 494.576 0.660731 0.36325 0
M  V30 5419 H 497.227 1.8221 0.217242 0
M  V30 5420 H 495.609 3.02963 2.55009 0
M  V30 5421 H 496.783 4.60507 0.164316 0
M  V30 5422 H 495.098 4.15271 0.30647 0
M  V30 5423 H 497.695 4.3714 3.07917 0
M  V30 5424 H 498.038 2.66314 3.19973 0
M  V30 5425 H 498.571 3.56685 1.76127 0
M  V30 5426 H 495.31 6.47369 1.02923 0
M  V30 5427 H 494.83 5.48483 2.42748 0
M  V30 5428 H 496.509 6.05829 2.27114 0
M  V30 5429 N 496.642 -0.504142 1.49319 0
M  V30 5430 C 497.872 -1.28071 1.62116 0
M  V30 5431 C 498.28 -1.86955 0.290566 0
M  V30 5432 O 497.623 -1.68415 -0.733616 0
M  V30 5433 C 497.685 -2.4521 2.62893 0
M  V30 5434 C 497.349 -2.07218 4.0732 0
M  V30 5435 C 498.346 -1.61375 4.94221 0
M  V30 5436 C 496.031 -2.16949 4.53033 0
M  V30 5437 C 498.025 -1.25763 6.2487 0
M  V30 5438 C 495.712 -1.80949 5.83696 0
M  V30 5439 C 496.71 -1.3543 6.69438 0
M  V30 5440 O 496.398 -0.99915 7.97667 0
M  V30 5441 H 496.13 -0.394763 0.54876 0
M  V30 5442 H 498.684 -0.612118 1.96067 0
M  V30 5443 H 496.914 -3.15134 2.24115 0
M  V30 5444 H 498.603 -3.0724 2.65252 0
M  V30 5445 H 499.369 -1.53306 4.60133 0
M  V30 5446 H 495.248 -2.5133 3.86463 0
M  V30 5447 H 498.792 -0.901631 6.91749 0
M  V30 5448 H 494.689 -1.88667 6.17313 0
M  V30 5449 H 495.457 -1.13089 8.1065 0
M  V30 5450 N 498.12 -1.38341 -0.754957 0
M  V30 5451 C 499.348 -1.37704 -1.54419 0
M  V30 5452 C 499.763 0.0335243 -1.8877 0
M  V30 5453 O 499.12 0.999773 -1.52679 0
M  V30 5454 C 499.171 -2.23136 -2.84416 0
M  V30 5455 O 498.892 -3.58697 -2.51531 0
M  V30 5456 C 500.393 -2.30664 -3.78562 0
M  V30 5457 H 497.613 -0.471061 -0.477852 0
M  V30 5458 H 500.157 -1.81902 -0.934446 0
M  V30 5459 H 498.312 -1.82403 -3.41772 0
M  V30 5460 H 498.726 -4.03665 -3.34896 0
M  V30 5461 H 500.2 -2.9473 -4.66732 0
M  V30 5462 H 500.677 -1.3199 -4.18898 0
M  V30 5463 H 501.283 -2.71781 -3.27131 0
M  V30 5464 N 499.598 0.982988 -1.23187 0
M  V30 5465 C 500.823 1.76455 -1.08988 0
M  V30 5466 C 501.248 1.84726 0.354691 0
M  V30 5467 O 500.606 1.30699 1.25649 0
M  V30 5468 C 500.654 3.17094 -1.71708 0
M  V30 5469 O 499.758 4.00648 -0.977477 0
M  V30 5470 H 499.099 0.542988 -0.382177 0
M  V30 5471 H 501.629 1.23413 -1.63188 0
M  V30 5472 H 501.639 3.67684 -1.76841 0
M  V30 5473 H 500.314 3.10389 -2.76823 0
M  V30 5474 H 498.891 3.59161 -1.0029 0
M  V30 5475 N 501.076 1.04316 1.18135 0
M  V30 5476 C 502.009 0.580823 2.20685 0
M  V30 5477 C 502.987 -0.385943 1.57953 0
M  V30 5478 O 504.171 -0.299654 1.86103 0
M  V30 5479 C 501.298 -0.151162 3.38363 0
M  V30 5480 C 500.344 0.769247 4.19505 0
M  V30 5481 S 501.177 2.25352 4.85774 0
M  V30 5482 C 502.333 1.53246 6.0685 0
M  V30 5483 H 502.566 1.44968 2.5956 0
M  V30 5484 H 500.099 0.85434 1.28609 0
M  V30 5485 H 502.057 -0.567315 4.06561 0
M  V30 5486 H 500.718 -0.995936 2.97892 0
M  V30 5487 H 499.911 0.203335 5.0359 0
M  V30 5488 H 499.513 1.12436 3.56699 0
M  V30 5489 H 501.805 0.82689 6.72435 0
M  V30 5490 H 502.748 2.35044 6.67952 0
M  V30 5491 H 503.156 1.0237 5.5514 0
M  V30 5492 N 502.554 -1.34406 0.822964 0
M  V30 5493 C 503.831 -1.92733 0.333641 0
M  V30 5494 C 504.211 -1.75107 -1.17901 0
M  V30 5495 O 503.559 -1.12983 -1.98613 0
M  V30 5496 C 503.769 -3.40557 0.763023 0
M  V30 5497 C 505.117 -4.17709 0.761879 0
M  V30 5498 O 506.141 -3.49141 0.705606 0
M  V30 5499 O 505 -5.40082 0.835109 0
M  V30 5500 H 502.094 -0.821964 0.0911249 0
M  V30 5501 H 504.64 -1.4338 0.907757 0
M  V30 5502 H 503.412 -3.47187 1.8049 0
M  V30 5503 H 503.035 -3.97259 0.164605 0
M  V30 5504 N 504.032 -0.577932 -1.46621 0
M  V30 5505 C 505.448 -0.239242 -1.57797 0
M  V30 5506 C 505.648 1.25843 -1.57371 0
M  V30 5507 O 504.704 2.03988 -1.48813 0
M  V30 5508 C 506.017 -0.884227 -2.87405 0
M  V30 5509 C 507.565 -0.857373 -3.01028 0
M  V30 5510 C 508.04 -1.48181 -4.33366 0
M  V30 5511 N 509.531 -1.44593 -4.40053 0
M  V30 5512 C 510.266 -1.89852 -5.41058 0
M  V30 5513 N 509.762 -2.43062 -6.48762 0
M  V30 5514 N 511.555 -1.80797 -5.3223 0
M  V30 5515 H 503.706 -1.55073 -1.45142 0
M  V30 5516 H 505.969 -0.647903 -0.692044 0
M  V30 5517 H 505.675 -1.93759 -2.93514 0
M  V30 5518 H 505.549 -0.389585 -3.75183 0
M  V30 5519 H 507.936 0.187357 -2.94505 0
M  V30 5520 H 508.017 -1.38999 -2.14739 0
M  V30 5521 H 507.661 -2.52572 -4.40647 0
M  V30 5522 H 507.591 -0.924464 -5.18422 0
M  V30 5523 H 510.082 -1.05694 -3.62819 0
M  V30 5524 H 510.395 -2.75466 -7.22038 0
M  V30 5525 H 508.74 -2.47085 -6.49595 0
M  V30 5526 H 511.931 -1.38989 -4.46989 0
M  V30 5527 H 512.104 -2.16385 -6.10804 0
M  V30 5528 N 505.51 1.54411 -0.315457 0
M  V30 5529 C 506.458 2.25514 0.569771 0
M  V30 5530 C 507.452 1.2663 1.12522 0
M  V30 5531 O 508.658 1.44434 1.07419 0
M  V30 5532 H 505.033 0.724257 0.202376 0
M  V30 5533 H 507.004 2.98354 -0.0522895 0
M  V30 5534 C 505.753 3.02004 1.72305 0
M  V30 5535 H 505.076 3.77906 1.30488 0
M  V30 5536 H 506.516 3.55014 2.31821 0
M  V30 5537 C 504.975 2.09822 2.63583 0
M  V30 5538 O 505.505 1.67574 3.65078 0
M  V30 5539 N 503.711 1.75478 2.31637 0
M  V30 5540 H 503.258 2.10032 1.49145 0
M  V30 5541 H 503.216 1.14079 2.92973 0
M  V30 5542 N 506.988 0.0434614 1.5754 0
M  V30 5543 C 507.918 -0.931651 2.14109 0
M  V30 5544 C 508.899 -1.32971 1.06079 0
M  V30 5545 O 510.084 -1.40579 1.33982 0
M  V30 5546 C 507.214 -2.20914 2.67982 0
M  V30 5547 C 506.168 -1.95139 3.80926 0
M  V30 5548 C 505.494 -3.29276 4.21285 0
M  V30 5549 C 506.794 -1.27913 5.06395 0
M  V30 5550 H 508.488 -0.460497 2.95837 0
M  V30 5551 H 506.034 -0.220058 1.42309 0
M  V30 5552 H 507.987 -2.89522 3.06194 0
M  V30 5553 H 506.711 -2.70221 1.83434 0
M  V30 5554 H 505.37 -1.28945 3.43175 0
M  V30 5555 H 505.018 -3.76369 3.33699 0
M  V30 5556 H 504.718 -3.12831 4.97404 0
M  V30 5557 H 506.242 -3.99129 4.62091 0
M  V30 5558 H 507.656 -1.86544 5.42102 0
M  V30 5559 H 506.053 -1.2182 5.87605 0
M  V30 5560 H 507.123 -0.254066 4.84234 0
M  V30 5561 N 508.466 -1.55915 -0.229846 0
M  V30 5562 C 509.398 -1.88209 -1.30805 0
M  V30 5563 C 510.411 -0.769672 -1.43457 0
M  V30 5564 O 511.6 -1.04792 -1.44502 0
M  V30 5565 C 508.7 -2.06829 -2.68468 0
M  V30 5566 C 507.873 -3.37798 -2.77869 0
M  V30 5567 C 506.932 -3.45952 -3.96489 0
M  V30 5568 O 505.958 -4.19043 -3.85216 0
M  V30 5569 N 507.16 -2.76488 -5.10426 0
M  V30 5570 H 509.925 -2.81286 -1.03431 0
M  V30 5571 H 507.486 -1.5636 -0.41991 0
M  V30 5572 H 509.478 -2.09608 -3.46189 0
M  V30 5573 H 508.048 -1.20416 -2.88477 0
M  V30 5574 H 507.268 -3.4719 -1.86689 0
M  V30 5575 H 508.556 -4.24091 -2.81113 0
M  V30 5576 H 507.954 -2.16868 -5.2248 0
M  V30 5577 H 506.511 -2.84938 -5.8622 0
M  V30 5578 N 509.944 0.496216 -1.49584 0
M  V30 5579 C 510.892 1.61805 -1.67098 0
M  V30 5580 C 511.886 1.60667 -0.536877 0
M  V30 5581 O 513.092 1.65118 -0.716654 0
M  V30 5582 H 509.467 0.53646 -0.526986 0
M  V30 5583 H 511.438 1.44187 -2.61252 0
M  V30 5584 C 510.187 2.99912 -1.75921 0
M  V30 5585 H 509.51 3.01496 -2.62565 0
M  V30 5586 H 510.95 3.77931 -1.92209 0
M  V30 5587 C 509.409 3.33092 -0.505088 0
M  V30 5588 O 509.939 4.00019 0.367085 0
M  V30 5589 N 508.145 2.88278 -0.366599 0
M  V30 5590 H 507.692 2.33989 -1.07735 0
M  V30 5591 H 507.65 3.10846 0.47142 0
M  V30 5592 N 511.423 1.38739 0.74761 0
M  V30 5593 C 512.371 1.36573 1.88283 0
M  V30 5594 C 513.365 0.250712 1.67534 0
M  V30 5595 O 514.571 0.420073 1.7503 0
M  V30 5596 H 510.946 0.42619 0.619569 0
M  V30 5597 H 512.917 2.32356 1.87226 0
M  V30 5598 C 511.666 1.21361 3.25832 0
M  V30 5599 H 510.989 2.06424 3.42388 0
M  V30 5600 H 512.429 1.23901 4.05493 0
M  V30 5601 C 510.888 -0.0790099 3.36807 0
M  V30 5602 O 511.418 -1.05385 3.8763 0
M  V30 5603 N 509.624 -0.13785 2.90273 0
M  V30 5604 H 509.171 0.656128 2.49104 0
M  V30 5605 H 509.129 -1.00228 2.97996 0
M  V30 5606 N 512.901 -0.976442 1.23707 0
M  V30 5607 C 514.147 -1.72081 1.07312 0
M  V30 5608 C 514.48 -1.90275 -0.388476 0
M  V30 5609 O 513.755 -1.4579 -1.28746 0
M  V30 5610 C 514.038 -3.11675 1.80363 0
M  V30 5611 C 513.891 -3.01027 3.3422 0
M  V30 5612 C 515.21 -4.1117 1.5693 0
M  V30 5613 H 512.329 -0.624583 0.391236 0
M  V30 5614 H 514.971 -1.13649 1.52263 0
M  V30 5615 H 513.121 -3.61559 1.42153 0
M  V30 5616 H 514.793 -2.58637 3.81975 0
M  V30 5617 H 513.036 -2.3744 3.63049 0
M  V30 5618 H 513.707 -3.9988 3.80525 0
M  V30 5619 H 516.183 -3.7011 1.90151 0
M  V30 5620 H 515.059 -5.06928 2.10513 0
M  V30 5621 H 515.32 -4.392 0.505548 0
M  V30 5622 N 514.379 -1.04941 -1.1758 0
M  V30 5623 C 515.311 -0.606174 -2.21039 0
M  V30 5624 C 516.324 0.328763 -1.59446 0
M  V30 5625 O 517.513 0.121895 -1.78083 0
M  V30 5626 C 514.613 0.133294 -3.38638 0
M  V30 5627 C 513.786 -0.811711 -4.29802 0
M  V30 5628 C 512.845 -0.113958 -5.26077 0
M  V30 5629 O 511.871 -0.747237 -5.64274 0
M  V30 5630 N 513.073 1.14953 -5.69004 0
M  V30 5631 H 515.838 -1.49606 -2.59689 0
M  V30 5632 H 513.399 -0.930997 -1.32454 0
M  V30 5633 H 515.391 0.610144 -4.00074 0
M  V30 5634 H 513.961 0.924816 -2.98607 0
M  V30 5635 H 513.181 -1.46824 -3.65837 0
M  V30 5636 H 514.469 -1.45326 -4.87604 0
M  V30 5637 H 513.867 1.68441 -5.40041 0
M  V30 5638 H 512.424 1.57049 -6.32597 0
M  V30 5639 N 515.857 1.33968 -0.830081 0
M  V30 5640 C 516.804 2.29387 -0.255008 0
M  V30 5641 C 517.774 1.53923 0.624243 0
M  V30 5642 O 518.959 1.82262 0.564372 0
M  V30 5643 C 516.099 3.4034 0.571209 0
M  V30 5644 C 515.212 4.30729 -0.331083 0
M  V30 5645 C 514.347 5.2879 0.505389 0
M  V30 5646 C 513.386 6.10819 -0.395843 0
M  V30 5647 N 512.523 7.00948 0.401979 0
M  V30 5648 H 517.363 2.77972 -1.07404 0
M  V30 5649 H 514.9 1.36785 -0.541133 0
M  V30 5650 H 516.858 4.03361 1.06562 0
M  V30 5651 H 515.488 2.9297 1.35529 0
M  V30 5652 H 514.54 3.68507 -0.943759 0
M  V30 5653 H 515.852 4.88181 -1.02377 0
M  V30 5654 H 515.006 5.97297 1.06399 0
M  V30 5655 H 513.745 4.71894 1.23155 0
M  V30 5656 H 512.75 5.41238 -0.966529 0
M  V30 5657 H 513.975 6.69797 -1.12023 0
M  V30 5658 H 511.921 6.46512 1.11168 0
M  V30 5659 H 511.838 7.55643 -0.232167 0
M  V30 5660 H 513.106 7.73774 0.943102 0
M  V30 5661 N 517.335 0.585699 1.46312 0
M  V30 5662 C 518.581 0.0725284 2.0267 0
M  V30 5663 C 518.914 -1.28523 1.45586 0
M  V30 5664 O 518.189 -1.84283 0.622101 0
M  V30 5665 C 518.472 0.0099788 3.60099 0
M  V30 5666 C 518.325 1.39685 4.27561 0
M  V30 5667 C 519.644 -0.689117 4.34671 0
M  V30 5668 H 516.763 0.0278307 0.736474 0
M  V30 5669 H 519.405 0.753472 1.74421 0
M  V30 5670 H 517.555 -0.56992 3.84297 0
M  V30 5671 H 519.227 2.02215 4.14617 0
M  V30 5672 H 517.47 1.96374 3.86807 0
M  V30 5673 H 518.141 1.30553 5.36339 0
M  V30 5674 H 520.617 -0.196446 4.15636 0
M  V30 5675 H 519.493 -0.701921 5.44393 0
M  V30 5676 H 519.754 -1.75101 4.05946 0
M  V30 5677 N 518.813 -1.54241 0.323641 0
M  V30 5678 C 519.743 -2.27289 -0.534993 0
M  V30 5679 C 520.724 -1.28087 -1.11927 0
M  V30 5680 O 521.909 -1.56899 -1.14439 0
M  V30 5681 C 519.039 -3.03075 -1.69596 0
M  V30 5682 C 517.993 -4.09614 -1.24098 0
M  V30 5683 C 517.319 -4.73242 -2.4889 0
M  V30 5684 C 518.619 -5.21087 -0.355789 0
M  V30 5685 H 520.313 -2.99308 0.0743257 0
M  V30 5686 H 517.859 -1.43952 0.0371874 0
M  V30 5687 H 519.812 -3.52907 -2.30293 0
M  V30 5688 H 518.536 -2.28673 -2.33187 0
M  V30 5689 H 517.195 -3.60666 -0.656945 0
M  V30 5690 H 516.843 -3.95455 -3.10845 0
M  V30 5691 H 516.543 -5.45209 -2.19138 0
M  V30 5692 H 518.067 -5.25848 -3.10348 0
M  V30 5693 H 519.481 -5.66675 -0.869042 0
M  V30 5694 H 517.878 -5.9991 -0.151045 0
M  V30 5695 H 518.948 -4.81005 0.613339 0
M  V30 5696 N 520.291 -0.0518155 -1.57515 0
M  V30 5697 C 521.568 0.661727 -1.84067 0
M  V30 5698 C 521.948 1.88999 -0.940351 0
M  V30 5699 O 521.296 2.285 -0.00155404 0
M  V30 5700 C 521.506 1.01841 -3.3381 0
M  V30 5701 C 522.854 1.40043 -4.00841 0
M  V30 5702 O 523.878 1.11073 -3.38439 0
M  V30 5703 O 522.737 1.94111 -5.10865 0
M  V30 5704 H 519.831 0.326702 -0.759733 0
M  V30 5705 H 522.377 -0.0812277 -1.69505 0
M  V30 5706 H 521.149 0.145202 -3.91031 0
M  V30 5707 H 520.772 1.81879 -3.53562 0
M  V30 5708 N 521.769 1.56035 0.221574 0
M  V30 5709 C 523.046 1.69837 0.970301 0
M  V30 5710 C 523.426 0.599065 2.02421 0
M  V30 5711 O 522.774 -0.393929 2.25079 0
M  V30 5712 C 522.984 3.11148 1.58076 0
M  V30 5713 C 524.332 3.70555 2.07302 0
M  V30 5714 O 525.356 3.14109 1.6797 0
M  V30 5715 O 524.215 4.69562 2.79596 0
M  V30 5716 H 521.309 0.691727 0.453257 0
M  V30 5717 H 523.855 1.68353 0.213358 0
M  V30 5718 H 522.627 3.82617 0.819759 0
M  V30 5719 H 522.25 3.16749 2.40324 0
M  V30 5720 N 523.247 -0.488276 1.49845 0
M  V30 5721 C 524.658 -1.06955 1.53028 0
M  V30 5722 C 525.009 -1.9351 0.323797 0
M  V30 5723 O 524.134 -2.08891 -0.565116 0
M  V30 5724 C 524.729 -1.94643 2.77307 0
M  V30 5725 C 523.288 -2.4791 2.83227 0
M  V30 5726 C 522.435 -1.25833 2.47106 0
M  V30 5727 H 525.386 -0.271626 1.56358 0
M  V30 5728 H 525.407 -2.79496 2.5819 0
M  V30 5729 H 524.919 -1.31621 3.65099 0
M  V30 5730 H 523.02 -3.14535 1.99745 0
M  V30 5731 H 523.133 -2.84193 3.85709 0
M  V30 5732 H 521.497 -1.58764 1.99163 0
M  V30 5733 H 522.28 -0.644993 3.37186 0
M  V30 5734 N 524.725 -1.39134 -0.740242 0
M  V30 5735 C 525.673 -1.3757 -1.87556 0
M  V30 5736 C 526.667 -0.259593 -1.67399 0
M  V30 5737 O 527.873 -0.429349 -1.74804 0
M  V30 5738 H 524.248 -0.42947 -0.6173 0
M  V30 5739 H 526.219 -2.33345 -1.85991 0
M  V30 5740 C 524.968 -1.23087 -3.25184 0
M  V30 5741 H 524.291 -2.08237 -3.41288 0
M  V30 5742 H 525.731 -1.26049 -4.0483 0
M  V30 5743 C 524.19 0.0611471 -3.36845 0
M  V30 5744 O 524.72 1.03328 -3.88183 0
M  V30 5745 N 522.926 0.122454 -2.90342 0
M  V30 5746 H 522.473 -0.669329 -2.48752 0
M  V30 5747 H 522.431 0.986463 -2.98523 0
M  V30 5748 N 526.204 0.969867 -1.24223 0
M  V30 5749 C 527.152 2.08535 -1.03034 0
M  V30 5750 C 528.146 1.69366 0.0340379 0
M  V30 5751 O 529.352 1.79597 -0.12034 0
M  V30 5752 H 525.727 0.682313 -0.316154 0
M  V30 5753 H 527.698 2.23569 -1.97635 0
M  V30 5754 C 526.447 3.4158 -0.649509 0
M  V30 5755 H 525.77 3.72177 -1.46028 0
M  V30 5756 H 527.21 4.20536 -0.540841 0
M  V30 5757 C 525.669 3.30703 0.643194 0
M  V30 5758 O 526.199 3.64443 1.68951 0
M  V30 5759 N 524.405 2.83841 0.623095 0
M  V30 5760 H 523.952 2.56583 -0.228719 0
M  V30 5761 H 523.91 2.76946 1.48823 0
M  V30 5762 N 527.682 1.05563 1.17022 0
M  V30 5763 C 528.912 0.787307 1.91011 0
M  V30 5764 C 529.32 -0.661256 1.77268 0
M  V30 5765 O 528.663 -1.46379 1.10991 0
M  V30 5766 C 528.725 1.09313 3.42478 0
M  V30 5767 C 528.389 2.53863 3.80004 0
M  V30 5768 C 529.386 3.52081 3.82538 0
M  V30 5769 C 527.071 2.88969 4.10855 0
M  V30 5770 C 529.065 4.83449 4.15399 0
M  V30 5771 C 526.752 4.2054 4.43384 0
M  V30 5772 C 527.75 5.17589 4.45635 0
M  V30 5773 O 527.438 6.46799 4.77395 0
M  V30 5774 H 527.17 0.285463 0.61277 0
M  V30 5775 H 529.724 1.41051 1.49311 0
M  V30 5776 H 527.954 0.412833 3.8449 0
M  V30 5777 H 529.643 0.810224 3.97731 0
M  V30 5778 H 530.409 3.26299 3.58823 0
M  V30 5779 H 526.288 2.1409 4.08272 0
M  V30 5780 H 529.832 5.59194 4.1707 0
M  V30 5781 H 525.729 4.46083 4.66563 0
M  V30 5782 H 526.497 6.51677 4.95237 0
M  V30 5783 N 529.16 -1.33526 0.837174 0
M  V30 5784 C 530.107 -2.29248 0.267169 0
M  V30 5785 C 531.077 -1.54252 -0.616071 0
M  V30 5786 O 532.262 -1.82559 -0.554699 0
M  V30 5787 C 529.402 -3.40638 -0.553152 0
M  V30 5788 C 528.515 -4.30548 0.353921 0
M  V30 5789 C 527.65 -5.29051 -0.477339 0
M  V30 5790 C 526.689 -6.106 0.42823 0
M  V30 5791 N 525.826 -7.01152 -0.364801 0
M  V30 5792 H 530.666 -2.77398 1.08877 0
M  V30 5793 H 528.203 -1.36496 0.54838 0
M  V30 5794 H 530.161 -4.03921 -1.04422 0
M  V30 5795 H 528.791 -2.93685 -1.33973 0
M  V30 5796 H 527.843 -3.68001 0.963289 0
M  V30 5797 H 529.155 -4.87631 1.04964 0
M  V30 5798 H 528.309 -5.97853 -1.0323 0
M  V30 5799 H 527.048 -4.72541 -1.2065 0
M  V30 5800 H 526.053 -5.40718 0.995219 0
M  V30 5801 H 527.278 -6.69193 1.15573 0
M  V30 5802 H 525.224 -6.47092 -1.07738 0
M  V30 5803 H 525.141 -7.5551 0.272238 0
M  V30 5804 H 526.409 -7.74263 -0.902054 0
M  V30 5805 N 530.638 -0.59345 -1.46 0
M  V30 5806 C 531.601 0.123538 -2.28867 0
M  V30 5807 C 532.601 0.808628 -1.38989 0
M  V30 5808 O 533.791 0.658945 -1.61256 0
M  V30 5809 C 530.923 1.1847 -3.19653 0
M  V30 5810 H 532.116 -0.604843 -2.93737 0
M  V30 5811 H 529.669 -0.351875 -1.52288 0
M  V30 5812 H 530.404 1.94431 -2.59552 0
M  V30 5813 H 530.189 0.69783 -3.8584 0
M  V30 5814 H 531.679 1.68726 -3.81997 0
M  V30 5815 N 532.116 1.54067 -0.331816 0
M  V30 5816 C 533.365 1.99895 0.269209 0
M  V30 5817 C 533.678 1.22371 1.52593 0
M  V30 5818 O 534.884 1.58618 2.20347 0
M  V30 5819 C 533.34 3.55972 0.530244 0
M  V30 5820 C 532.948 4.4234 -0.709901 0
M  V30 5821 C 534.692 4.10247 1.09077 0
M  V30 5822 C 532.599 5.89905 -0.420312 0
M  V30 5823 H 531.529 0.746741 0.104371 0
M  V30 5824 H 534.18 1.78014 -0.445324 0
M  V30 5825 H 532.562 3.73873 1.30518 0
M  V30 5826 H 533.736 4.36215 -1.48504 0
M  V30 5827 H 532.051 3.98997 -1.19123 0
M  V30 5828 H 534.648 5.18095 1.32219 0
M  V30 5829 H 534.991 3.62739 2.0427 0
M  V30 5830 H 535.524 3.96011 0.376824 0
M  V30 5831 H 532.263 6.41623 -1.34164 0
M  V30 5832 H 531.783 5.98962 0.316962 0
M  V30 5833 H 533.462 6.46991 -0.0331956 0
M  V30 5834 N 533.594 0.0601682 1.57485 0
M  V30 5835 C 534.822 -0.620937 1.97363 0
M  V30 5836 C 535.237 -1.63846 0.938082 0
M  V30 5837 O 534.594 -1.82339 -0.0766578 0
M  V30 5838 C 534.645 -1.29987 3.37321 0
M  V30 5839 O 534.366 -0.323081 4.36907 0
M  V30 5840 C 535.867 -2.06989 3.92008 0
M  V30 5841 H 533.087 -0.169135 0.649334 0
M  V30 5842 H 535.631 0.129132 2.04092 0
M  V30 5843 H 533.786 -2.0011 3.31715 0
M  V30 5844 H 534.2 -0.808754 5.18227 0
M  V30 5845 H 535.674 -2.49901 4.92192 0
M  V30 5846 H 536.151 -2.92173 3.2792 0
M  V30 5847 H 536.757 -1.41757 4.0098 0
M  V30 5848 N 535.072 -1.5615 -0.213296 0
M  V30 5849 C 536.02 -1.93953 -1.28394 0
M  V30 5850 C 537.014 -0.822592 -1.48087 0
M  V30 5851 O 538.22 -1.00748 -1.49164 0
M  V30 5852 H 534.595 -0.61648 -0.430646 0
M  V30 5853 H 536.566 -2.83275 -0.937977 0
M  V30 5854 C 535.315 -2.27969 -2.62537 0
M  V30 5855 H 534.638 -3.13432 -2.48194 0
M  V30 5856 H 536.078 -2.58297 -3.36242 0
M  V30 5857 C 534.537 -1.10775 -3.18167 0
M  V30 5858 O 535.067 -0.373201 -3.99963 0
M  V30 5859 N 533.273 -0.889377 -2.76656 0
M  V30 5860 H 532.82 -1.48843 -2.10246 0
M  V30 5861 H 532.778 -0.107 -3.14218 0
M  V30 5862 N 536.55 0.480323 -1.50102 0
M  V30 5863 C 537.498 1.60024 -1.68805 0
M  V30 5864 C 538.492 1.60089 -0.553888 0
M  V30 5865 O 539.698 1.64349 -0.734127 0
M  V30 5866 H 536.073 0.530841 -0.532646 0
M  V30 5867 H 538.044 1.41408 -2.62767 0
M  V30 5868 C 536.793 2.98029 -1.79092 0
M  V30 5869 H 536.116 2.98694 -2.65748 0
M  V30 5870 H 537.556 3.75871 -1.96206 0
M  V30 5871 C 536.015 3.32538 -0.540388 0
M  V30 5872 O 536.545 4.00386 0.324637 0
M  V30 5873 N 534.751 2.87873 -0.397154 0
M  V30 5874 H 534.298 2.32834 -1.1021 0
M  V30 5875 H 534.256 3.11328 0.438425 0
M  V30 5876 N 538.028 1.39524 0.732853 0
M  V30 5877 C 539.439 1.32905 1.31122 0
M  V30 5878 C 539.79 -0.00558708 1.96199 0
M  V30 5879 O 538.915 -0.907706 1.96443 0
M  V30 5880 C 539.51 2.40704 2.38426 0
M  V30 5881 C 538.069 2.37599 2.91931 0
M  V30 5882 C 537.216 2.2248 1.65523 0
M  V30 5883 H 540.167 1.49581 0.530207 0
M  V30 5884 H 540.188 2.07616 3.18867 0
M  V30 5885 H 539.7 3.37829 1.91033 0
M  V30 5886 H 537.801 1.44119 3.43599 0
M  V30 5887 H 537.914 3.32538 3.44899 0
M  V30 5888 H 536.278 1.69691 1.8994 0
M  V30 5889 H 537.061 3.21577 1.20178 0
M  V30 5890 N 539.506 -0.963266 1.24736 0
M  V30 5891 C 540.454 -2.07985 1.04139 0
M  V30 5892 C 541.448 -1.69381 -0.0250556 0
M  V30 5893 O 542.654 -1.79531 0.129863 0
M  V30 5894 H 539.029 -0.680627 0.319768 0
M  V30 5895 H 541 -2.22517 1.98818 0
M  V30 5896 C 539.749 -3.4123 0.667615 0
M  V30 5897 H 539.072 -3.71397 1.48 0
M  V30 5898 H 540.512 -4.20244 0.563136 0
M  V30 5899 C 538.971 -3.3104 -0.625647 0
M  V30 5900 O 539.501 -3.65334 -1.67016 0
M  V30 5901 N 537.707 -2.84168 -0.608033 0
M  V30 5902 H 537.254 -2.56458 0.242323 0
M  V30 5903 H 537.212 -2.77732 -1.47352 0
M  V30 5904 N 540.985 -1.06182 -1.16461 0
M  V30 5905 C 541.895 -0.682671 -2.24448 0
M  V30 5906 C 542.911 0.30078 -1.71381 0
M  V30 5907 O 544.087 0.150376 -2.00838 0
M  V30 5908 C 541.152 -0.0737202 -3.46622 0
M  V30 5909 C 540.213 -1.10889 -4.14731 0
M  V30 5910 C 539.446 -0.528908 -5.31073 0
M  V30 5911 O 539.669 0.65868 -5.66584 0
M  V30 5912 O 538.603 -1.26805 -5.88391 0
M  V30 5913 H 542.429 -1.58291 -2.59187 0
M  V30 5914 H 540.014 -0.834013 -1.23954 0
M  V30 5915 H 541.896 0.264192 -4.20571 0
M  V30 5916 H 540.571 0.800015 -3.13658 0
M  V30 5917 H 539.478 -1.49896 -3.42756 0
M  V30 5918 H 540.811 -1.95412 -4.51747 0
M  V30 5919 N 542.463 1.3308 -0.844243 0
M  V30 5920 C 543.41 2.29104 -0.279323 0
M  V30 5921 C 544.38 1.54577 0.607882 0
M  V30 5922 O 545.565 1.8285 0.545009 0
M  V30 5923 C 542.705 3.40927 0.53508 0
M  V30 5924 C 541.818 4.30354 -0.376749 0
M  V30 5925 C 540.953 5.29297 0.449276 0
M  V30 5926 C 539.992 6.10365 -0.460606 0
M  V30 5927 N 539.129 7.01335 0.327612 0
M  V30 5928 H 543.969 2.76817 -1.10346 0
M  V30 5929 H 541.506 1.36203 -0.555611 0
M  V30 5930 H 543.464 4.04469 1.02278 0
M  V30 5931 H 542.094 2.94391 1.32414 0
M  V30 5932 H 541.146 3.67485 -0.982791 0
M  V30 5933 H 542.458 4.87067 -1.07549 0
M  V30 5934 H 541.612 5.98392 1.00058 0
M  V30 5935 H 540.351 4.73174 1.18143 0
M  V30 5936 H 539.356 5.40182 -1.02388 0
M  V30 5937 H 540.581 6.68571 -1.1912 0
M  V30 5938 H 538.527 6.47655 1.04305 0
M  V30 5939 H 538.444 7.55355 -0.3123 0
M  V30 5940 H 539.712 7.74731 0.86098 0
M  V30 5941 N 543.941 0.601185 1.45683 0
M  V30 5942 C 544.889 -0.133955 2.32214 0
M  V30 5943 C 545.883 -0.866034 1.45589 0
M  V30 5944 O 547.089 -0.782326 1.6211 0
M  V30 5945 H 543.464 -0.0620613 0.749435 0
M  V30 5946 H 545.435 0.614389 2.92007 0
M  V30 5947 C 544.184 -1.12216 3.29094 0
M  V30 5948 H 543.507 -0.568273 3.95741 0
M  V30 5949 H 544.947 -1.60659 3.92383 0
M  V30 5950 C 543.406 -2.19251 2.55794 0
M  V30 5951 O 543.936 -3.26894 2.33459 0
M  V30 5952 N 542.142 -1.9436 2.16039 0
M  V30 5953 H 541.689 -1.06829 2.34404 0
M  V30 5954 H 541.647 -2.66181 1.67318 0
M  V30 5955 N 545.419 -1.53889 0.339982 0
M  V30 5956 C 546.329 -2.28604 -0.526988 0
M  V30 5957 C 547.345 -1.33578 -1.11503 0
M  V30 5958 O 548.521 -1.66612 -1.13148 0
M  V30 5959 C 545.586 -3.04164 -1.66389 0
M  V30 5960 C 544.647 -4.14809 -1.10599 0
M  V30 5961 C 543.88 -4.86756 -2.18871 0
M  V30 5962 O 544.103 -4.58343 -3.39526 0
M  V30 5963 O 543.037 -5.73289 -1.83366 0
M  V30 5964 H 546.863 -3.03594 0.0802707 0
M  V30 5965 H 544.448 -1.4903 0.105141 0
M  V30 5966 H 546.33 -3.51427 -2.32544 0
M  V30 5967 H 545.005 -2.32035 -2.25703 0
M  V30 5968 H 543.912 -3.71857 -0.409067 0
M  V30 5969 H 545.245 -4.89029 -0.557771 0
M  V30 5970 N 546.897 -0.0685191 -1.57451 0
M  V30 5971 C 548.174 0.642167 -1.84758 0
M  V30 5972 C 548.554 1.87991 -0.960344 0
M  V30 5973 O 547.902 2.28485 -0.0257894 0
M  V30 5974 C 548.112 0.982946 -3.34872 0
M  V30 5975 C 549.46 1.35784 -4.02303 0
M  V30 5976 O 550.484 1.07477 -3.39598 0
M  V30 5977 O 549.343 1.88681 -5.12895 0
M  V30 5978 H 546.437 0.318625 -0.763156 0
M  V30 5979 H 548.983 -0.0992015 -1.6941 0
M  V30 5980 H 547.755 0.10372 -3.91163 0
M  V30 5981 H 547.378 1.78119 -3.55471 0
M  V30 5982 N 548.375 1.56261 0.205012 0
M  V30 5983 C 549.623 1.79684 0.925096 0
M  V30 5984 C 549.944 0.63989 1.84202 0
M  V30 5985 O 549.214 -0.342345 1.92885 0
M  V30 5986 H 547.794 0.662774 0.344587 0
M  V30 5987 H 550.456 1.93734 0.212899 0
M  V30 5988 H 549.552 2.72467 1.52211 0
M  V30 5989 N 549.853 -0.472356 1.50355 0
M  V30 5990 C 551.099 -1.22634 1.6152 0
M  V30 5991 C 551.432 -1.91645 0.313995 0
M  V30 5992 O 550.707 -1.82059 -0.684446 0
M  V30 5993 C 550.99 -2.27099 2.7946 0
M  V30 5994 C 550.843 -1.62402 4.19459 0
M  V30 5995 C 552.162 -3.28421 2.92964 0
M  V30 5996 H 549.281 -0.444494 0.587873 0
M  V30 5997 H 551.923 -0.520321 1.82737 0
M  V30 5998 H 550.073 -2.87314 2.61501 0
M  V30 5999 H 551.745 -1.05793 4.49005 0
M  V30 6000 H 549.988 -0.927184 4.23776 0
M  V30 6001 H 550.659 -2.38309 4.97909 0
M  V30 6002 H 553.135 -2.78227 3.09401 0
M  V30 6003 H 552.011 -3.98845 3.77113 0
M  V30 6004 H 552.272 -3.92467 2.03525 0
M  V30 6005 N 551.331 -1.39911 -0.725443 0
M  V30 6006 C 552.561 -1.40744 -1.51244 0
M  V30 6007 C 552.969 -0.00275403 -1.892 0
M  V30 6008 O 552.312 0.981299 -1.55294 0
M  V30 6009 C 552.374 -2.22527 -2.82351 0
M  V30 6010 C 552.038 -3.71053 -2.66774 0
M  V30 6011 C 553.035 -4.63916 -2.34686 0
M  V30 6012 C 550.72 -4.14753 -2.83347 0
M  V30 6013 C 552.714 -5.98463 -2.19366 0
M  V30 6014 C 550.401 -5.49372 -2.67644 0
M  V30 6015 C 551.399 -6.41042 -2.357 0
M  V30 6016 O 551.087 -7.73181 -2.20107 0
M  V30 6017 H 550.819 -0.482314 -0.473655 0
M  V30 6018 H 553.373 -1.84472 -0.903284 0
M  V30 6019 H 551.603 -1.73563 -3.45562 0
M  V30 6020 H 553.292 -2.15421 -3.44018 0
M  V30 6021 H 554.058 -4.31453 -2.21525 0
M  V30 6022 H 549.937 -3.43728 -3.072 0
M  V30 6023 H 553.481 -6.69979 -1.94354 0
M  V30 6024 H 549.378 -5.81424 -2.80387 0
M  V30 6025 H 550.146 -7.84008 -2.35103 0
M  V30 6026 N 552.809 0.956637 -1.25245 0
M  V30 6027 C 553.756 2.053 -1.05454 0
M  V30 6028 C 554.726 1.66062 0.0356889 0
M  V30 6029 O 555.911 1.90415 -0.121099 0
M  V30 6030 C 553.051 3.38391 -0.677191 0
M  V30 6031 C 552.164 3.90758 -1.84206 0
M  V30 6032 C 551.299 5.12165 -1.40926 0
M  V30 6033 C 550.338 5.56757 -2.54338 0
M  V30 6034 N 549.475 6.69376 -2.11848 0
M  V30 6035 H 554.315 2.21562 -1.99284 0
M  V30 6036 H 551.852 1.08578 -0.992434 0
M  V30 6037 H 553.81 4.1488 -0.43938 0
M  V30 6038 H 552.44 3.22021 0.224127 0
M  V30 6039 H 551.492 3.10808 -2.19323 0
M  V30 6040 H 552.804 4.19802 -2.69383 0
M  V30 6041 H 551.958 5.96065 -1.13098 0
M  V30 6042 H 550.697 4.84832 -0.528175 0
M  V30 6043 H 549.702 4.71423 -2.82913 0
M  V30 6044 H 550.927 5.861 -3.43022 0
M  V30 6045 H 548.873 6.43756 -1.26153 0
M  V30 6046 H 548.79 6.97927 -2.90574 0
M  V30 6047 H 550.058 7.5669 -1.87191 0
M  V30 6048 N 554.287 1.06798 1.15896 0
M  V30 6049 C 555.217 0.704677 2.22613 0
M  V30 6050 C 556.198 -0.305252 1.67339 0
M  V30 6051 O 557.383 -0.179247 1.93371 0
M  V30 6052 C 554.513 0.0957325 3.47168 0
M  V30 6053 C 553.467 1.0322 4.15367 0
M  V30 6054 C 552.793 0.286293 5.33933 0
M  V30 6055 C 554.093 2.36341 4.65768 0
M  V30 6056 H 555.787 1.59688 2.53259 0
M  V30 6057 H 553.333 0.769257 1.21731 0
M  V30 6058 H 555.286 -0.170333 4.21056 0
M  V30 6059 H 554.01 -0.831516 3.15838 0
M  V30 6060 H 552.669 1.28309 3.43413 0
M  V30 6061 H 552.317 -0.644237 4.98857 0
M  V30 6062 H 552.017 0.910436 5.80504 0
M  V30 6063 H 553.541 0.0278938 6.10594 0
M  V30 6064 H 554.955 2.1561 5.31211 0
M  V30 6065 H 553.352 2.94299 5.2298 0
M  V30 6066 H 554.422 2.99047 3.81705 0
M  V30 6067 N 555.766 -1.3263 0.851289 0
M  V30 6068 C 556.698 -2.27824 0.250757 0
M  V30 6069 C 557.711 -1.52285 -0.575598 0
M  V30 6070 O 558.9 -1.73946 -0.400638 0
M  V30 6071 C 556 -3.3232 -0.664571 0
M  V30 6072 C 555.173 -4.37221 0.125187 0
M  V30 6073 C 554.232 -5.21314 -0.715385 0
M  V30 6074 O 553.258 -5.69002 -0.150111 0
M  V30 6075 N 554.46 -5.43823 -2.03069 0
M  V30 6076 H 557.225 -2.79997 1.06873 0
M  V30 6077 H 554.786 -1.45455 0.710943 0
M  V30 6078 H 556.778 -3.85486 -1.23216 0
M  V30 6079 H 555.348 -2.80331 -1.38323 0
M  V30 6080 H 554.568 -3.84384 0.874199 0
M  V30 6081 H 555.856 -5.04399 0.667774 0
M  V30 6082 H 555.254 -5.06803 -2.51332 0
M  V30 6083 H 553.811 -5.99998 -2.54648 0
M  V30 6084 N 557.244 -0.608902 -1.45362 0
M  V30 6085 C 558.207 0.0992563 -2.28985 0
M  V30 6086 C 559.207 0.793841 -1.39838 0
M  V30 6087 O 560.397 0.641804 -1.61946 0
M  V30 6088 C 557.529 1.15073 -3.20891 0
M  V30 6089 H 558.722 -0.635964 -2.93079 0
M  V30 6090 H 556.275 -0.368007 -1.51906 0
M  V30 6091 H 557.01 1.91667 -2.616 0
M  V30 6092 H 556.795 0.656867 -3.86559 0
M  V30 6093 H 558.285 1.64665 -3.83765 0
M  V30 6094 N 558.722 1.53707 -0.348139 0
M  V30 6095 C 559.947 2.05877 0.250883 0
M  V30 6096 C 560.372 1.22115 1.43072 0
M  V30 6097 O 559.73 0.235986 1.79758 0
M  V30 6098 C 559.778 3.54886 0.639416 0
M  V30 6099 O 558.882 3.73948 1.73888 0
M  V30 6100 H 558.223 0.662754 0.040653 0
M  V30 6101 H 560.753 1.98303 -0.503685 0
M  V30 6102 H 560.763 3.97601 0.915295 0
M  V30 6103 H 559.438 4.153 -0.223386 0
M  V30 6104 H 558.015 3.43134 1.45991 0
M  V30 6105 N 560.2 0.0768682 1.57412 0
M  V30 6106 C 561.163 -0.873949 2.11884 0
M  V30 6107 C 562.163 -1.22301 1.04398 0
M  V30 6108 O 563.353 -1.15545 1.30365 0
M  V30 6109 C 560.485 -2.17575 2.62438 0
M  V30 6110 H 561.678 -0.401278 2.97203 0
M  V30 6111 H 559.231 -0.171904 1.55352 0
M  V30 6112 H 559.966 -2.69368 1.80587 0
M  V30 6113 H 559.751 -1.93534 3.41009 0
M  V30 6114 H 561.241 -2.85631 3.04639 0
M  V30 6115 N 561.678 -1.56367 -0.196722 0
M  V30 6116 C 562.906 -1.84639 -0.933608 0
M  V30 6117 C 563.321 -0.659164 -1.76919 0
M  V30 6118 O 562.678 0.372142 -1.78665 0
M  V30 6119 C 562.729 -3.11694 -1.83109 0
M  V30 6120 O 562.45 -4.25838 -1.02924 0
M  V30 6121 C 563.951 -3.53132 -2.67979 0
M  V30 6122 H 561.171 -0.613188 -0.272473 0
M  V30 6123 H 563.715 -2.03475 -0.204465 0
M  V30 6124 H 561.87 -2.94759 -2.51387 0
M  V30 6125 H 562.284 -4.98178 -1.64069 0
M  V30 6126 H 563.758 -4.45005 -3.26611 0
M  V30 6127 H 564.235 -2.76045 -3.41608 0
M  V30 6128 H 564.841 -3.72592 -2.05074 0
M  V30 6129 N 563.156 0.464375 -1.50603 0
M  V30 6130 C 564.405 1.21277 -1.61167 0
M  V30 6131 C 564.718 1.92953 -0.320704 0
M  V30 6132 O 565.924 2.69778 -0.30534 0
M  V30 6133 C 564.38 2.20403 -2.84518 0
M  V30 6134 C 563.988 1.54499 -4.20516 0
M  V30 6135 C 565.732 2.95843 -3.0443 0
M  V30 6136 C 563.639 2.51951 -5.35047 0
M  V30 6137 H 562.569 0.456367 -0.600204 0
M  V30 6138 H 565.22 0.48254 -1.77042 0
M  V30 6139 H 563.602 2.96746 -2.62217 0
M  V30 6140 H 564.776 0.83899 -4.53098 0
M  V30 6141 H 563.091 0.913152 -4.06264 0
M  V30 6142 H 565.688 3.6879 -3.87167 0
M  V30 6143 H 566.031 3.55622 -2.16423 0
M  V30 6144 H 566.564 2.26611 -3.26944 0
M  V30 6145 H 563.303 1.96901 -6.25228 0
M  V30 6146 H 562.823 3.20683 -5.06875 0
M  V30 6147 H 564.502 3.13643 -5.65895 0
M  V30 6148 N 564.634 1.40294 0.718013 0
M  V30 6149 C 565.883 1.37746 1.4734 0
M  V30 6150 C 566.196 -0.0180754 1.95592 0
M  V30 6151 O 567.402 -0.166166 2.70991 0
M  V30 6152 C 565.858 2.4208 2.66318 0
M  V30 6153 C 565.466 3.87432 2.24945 0
M  V30 6154 C 567.21 2.48635 3.44065 0
M  V30 6155 C 565.117 4.83368 3.40748 0
M  V30 6156 H 564.047 0.512165 0.553356 0
M  V30 6157 H 566.698 1.66019 0.781661 0
M  V30 6158 H 565.08 2.06903 3.3765 0
M  V30 6159 H 566.254 4.3174 1.6105 0
M  V30 6160 H 564.569 3.8433 1.60249 0
M  V30 6161 H 567.166 3.17499 4.30231 0
M  V30 6162 H 567.509 1.51611 3.87711 0
M  V30 6163 H 568.042 2.82791 2.79775 0
M  V30 6164 H 564.781 5.81716 3.02136 0
M  V30 6165 H 564.301 4.43726 4.03568 0
M  V30 6166 H 565.98 5.03074 4.06848 0
M  V30 6167 N 566.112 -0.949982 1.2575 0
M  V30 6168 C 567.389 -1.6718 1.01539 0
M  V30 6169 C 567.769 -2.06095 -0.456942 0
M  V30 6170 O 567.117 -1.77792 -1.43534 0
M  V30 6171 C 567.327 -2.8906 1.95564 0
M  V30 6172 C 568.675 -3.60909 2.23673 0
M  V30 6173 O 569.699 -2.9915 1.9336 0
M  V30 6174 O 568.558 -4.72127 2.75243 0
M  V30 6175 H 565.652 -0.731697 0.385419 0
M  V30 6176 H 568.198 -1.00249 1.36924 0
M  V30 6177 H 566.97 -2.57128 2.94959 0
M  V30 6178 H 566.593 -3.63719 1.60605 0
M  V30 6179 N 567.59 -1.07411 -1.15328 0
M  V30 6180 C 568.82 -0.817595 -1.89734 0
M  V30 6181 C 569.228 0.63297 -1.78298 0
M  V30 6182 O 568.571 1.44594 -1.13306 0
M  V30 6183 C 568.633 -1.14748 -3.40695 0
M  V30 6184 C 568.297 -2.59876 -3.75917 0
M  V30 6185 C 569.294 -3.58122 -3.76888 0
M  V30 6186 C 566.979 -2.95469 -4.06206 0
M  V30 6187 C 568.973 -4.89996 -4.07655 0
M  V30 6188 C 566.66 -4.2754 -4.36638 0
M  V30 6189 C 567.658 -5.24614 -4.37344 0
M  V30 6190 O 567.346 -6.54312 -4.67045 0
M  V30 6191 H 567.078 -0.295175 -0.608151 0
M  V30 6192 H 569.632 -1.43409 -1.47048 0
M  V30 6193 H 567.862 -0.47395 -3.83785 0
M  V30 6194 H 569.551 -0.873397 -3.96392 0
M  V30 6195 H 570.317 -3.31966 -3.53587 0
M  V30 6196 H 566.196 -2.20558 -4.04815 0
M  V30 6197 H 569.74 -5.65759 -4.08121 0
M  V30 6198 H 565.637 -4.53449 -4.59407 0
M  V30 6199 H 566.405 -6.59473 -4.84807 0
M  V30 6200 N 569.068 1.32177 -0.85831 0
M  V30 6201 C 570.015 2.28794 -0.303607 0
M  V30 6202 C 570.985 1.55213 0.591453 0
M  V30 6203 O 572.17 1.83418 0.525585 0
M  V30 6204 C 569.31 3.41475 0.49889 0
M  V30 6205 C 568.423 4.2993 -0.422373 0
M  V30 6206 C 567.558 5.29743 0.393111 0
M  V30 6207 C 566.597 6.09842 -0.525317 0
M  V30 6208 N 565.734 7.01643 0.253208 0
M  V30 6209 H 570.574 2.75631 -1.13276 0
M  V30 6210 H 568.111 1.35606 -0.570026 0
M  V30 6211 H 570.069 4.05531 0.979826 0
M  V30 6212 H 568.699 2.95779 1.29284 0
M  V30 6213 H 567.751 3.66422 -1.02171 0
M  V30 6214 H 569.063 4.85899 -1.12709 0
M  V30 6215 H 568.217 5.9942 0.937056 0
M  V30 6216 H 566.956 4.744 1.13117 0
M  V30 6217 H 565.961 5.39066 -1.08112 0
M  V30 6218 H 567.186 6.6727 -1.26205 0
M  V30 6219 H 565.132 6.48725 0.974295 0
M  V30 6220 H 565.049 7.54981 -0.392398 0
M  V30 6221 H 566.317 7.756 0.778761 0
M  V30 6222 N 570.547 0.616602 1.45037 0
M  V30 6223 C 571.775 0.121968 2.0654 0
M  V30 6224 C 572.19 -1.19743 1.45969 0
M  V30 6225 O 571.547 -1.73133 0.577168 0
M  V30 6226 C 571.598 -0.0145171 3.61497 0
M  V30 6227 O 571.319 1.25269 4.19809 0
M  V30 6228 C 572.82 -0.539555 4.40004 0
M  V30 6229 H 570.04 0.0729837 0.667019 0
M  V30 6230 H 572.584 0.846891 1.8614 0
M  V30 6231 H 570.739 -0.689809 3.81209 0
M  V30 6232 H 571.153 1.08816 5.13088 0
M  V30 6233 H 572.627 -0.584112 5.48901 0
M  V30 6234 H 573.104 -1.56368 4.10421 0
M  V30 6235 H 573.71 0.101995 4.25178 0
M  V30 6236 N 572.025 -1.5352 0.356285 0
M  V30 6237 C 573.273 -2.00719 -0.235837 0
M  V30 6238 C 573.594 -1.24551 -1.5004 0
M  V30 6239 O 572.864 -0.356185 -1.92635 0
M  V30 6240 H 571.444 -0.741542 -0.0901366 0
M  V30 6241 H 574.106 -1.88887 0.480378 0
M  V30 6242 H 573.202 -3.08551 -0.469357 0
M  V30 6243 N 573.503 -0.0852151 -1.57369 0
M  V30 6244 C 574.453 0.88767 -2.10011 0
M  V30 6245 C 575.437 1.25021 -1.01285 0
M  V30 6246 O 576.629 1.22694 -1.27574 0
M  V30 6247 C 573.758 2.15037 -2.67608 0
M  V30 6248 C 572.844 1.81371 -3.83361 0
M  V30 6249 N 573.235 1.18216 -4.91791 0
M  V30 6250 C 571.533 2.11041 -3.92909 0
M  V30 6251 C 572.234 1.02941 -5.72519 0
M  V30 6252 N 571.21 1.54351 -5.21226 0
M  V30 6253 H 575.012 0.395279 -2.9123 0
M  V30 6254 H 572.526 0.11829 -1.61969 0
M  V30 6255 H 574.523 2.85667 -3.03644 0
M  V30 6256 H 573.183 2.64851 -1.8784 0
M  V30 6257 H 574.194 0.850168 -5.10874 0
M  V30 6258 H 570.871 2.63138 -3.24136 0
M  V30 6259 H 572.261 0.536298 -6.69756 0
M  V30 6260 N 574.981 1.5647 0.188427 0
M  V30 6261 C 576.227 1.81281 0.909124 0
M  V30 6262 C 576.56 0.66034 1.82628 0
M  V30 6263 O 575.835 -0.338737 1.91528 0
M  V30 6264 C 576.118 3.16388 1.7196 0
M  V30 6265 C 575.971 4.42137 0.826714 0
M  V30 6266 C 577.29 3.48256 2.69083 0
M  V30 6267 H 574.409 0.659457 0.329068 0
M  V30 6268 H 577.051 1.89182 0.176156 0
M  V30 6269 H 575.201 3.09784 2.34448 0
M  V30 6270 H 576.873 4.60794 0.216025 0
M  V30 6271 H 575.116 4.33594 0.133792 0
M  V30 6272 H 575.787 5.33184 1.42893 0
M  V30 6273 H 578.263 3.55203 2.16726 0
M  V30 6274 H 577.139 4.43899 3.2287 0
M  V30 6275 H 577.4 2.72088 3.48455 0
M  V30 6276 N 576.459 -0.456382 1.50847 0
M  V30 6277 C 577.406 -1.55249 1.70782 0
M  V30 6278 C 578.376 -1.56757 0.549231 0
M  V30 6279 O 579.561 -1.74061 0.7815 0
M  V30 6280 C 576.701 -2.93118 1.82143 0
M  V30 6281 C 575.814 -3.01285 3.09598 0
M  V30 6282 C 574.949 -4.30159 3.11667 0
M  V30 6283 C 573.988 -4.32124 4.33515 0
M  V30 6284 N 573.125 -5.52492 4.3324 0
M  V30 6285 H 577.965 -1.37555 2.64353 0
M  V30 6286 H 575.502 -0.668543 1.3103 0
M  V30 6287 H 577.46 -3.73088 1.86711 0
M  V30 6288 H 576.09 -3.09413 0.919978 0
M  V30 6289 H 575.142 -2.14096 3.14431 0
M  V30 6290 H 576.454 -2.98597 3.99551 0
M  V30 6291 H 575.608 -5.18489 3.15046 0
M  V30 6292 H 574.347 -4.35477 2.1957 0
M  V30 6293 H 573.352 -3.42189 4.30333 0
M  V30 6294 H 574.577 -4.28485 5.26856 0
M  V30 6295 H 572.523 -5.58567 3.44004 0
M  V30 6296 H 572.44 -5.51605 5.16979 0
M  V30 6297 H 573.708 -6.42906 4.40786 0
M  V30 6298 N 577.937 -1.40673 -0.710563 0
M  V30 6299 C 578.9 -1.4108 -1.80635 0
M  V30 6300 C 579.9 -0.303783 -1.57904 0
M  V30 6301 O 581.09 -0.562937 -1.64853 0
M  V30 6302 C 578.222 -1.20748 -3.18799 0
M  V30 6303 H 579.415 -2.38612 -1.81671 0
M  V30 6304 H 576.968 -1.26595 -0.916704 0
M  V30 6305 H 577.703 -0.239964 -3.23411 0
M  V30 6306 H 577.488 -2.00941 -3.36698 0
M  V30 6307 H 578.978 -1.23833 -3.98817 0
M  V30 6308 N 579.415 0.9433 -1.26252 0
M  V30 6309 C 580.345 2.05902 -1.10122 0
M  V30 6310 C 581.326 1.70099 -0.00700552 0
M  V30 6311 O 582.511 1.93377 -0.178641 0
M  V30 6312 C 579.641 3.39516 -0.731175 0
M  V30 6313 C 578.595 3.89372 -1.77688 0
M  V30 6314 C 577.921 5.19613 -1.26122 0
M  V30 6315 C 579.221 4.14489 -3.17799 0
M  V30 6316 H 580.915 2.19655 -2.03451 0
M  V30 6317 H 578.461 1.05548 -0.979576 0
M  V30 6318 H 580.414 4.17031 -0.605215 0
M  V30 6319 H 579.138 3.25733 0.23782 0
M  V30 6320 H 577.797 3.14036 -1.89148 0
M  V30 6321 H 577.445 5.02208 -0.282128 0
M  V30 6322 H 577.145 5.53939 -1.96023 0
M  V30 6323 H 578.669 5.99713 -1.14789 0
M  V30 6324 H 580.083 4.82625 -3.09428 0
M  V30 6325 H 578.48 4.60094 -3.85271 0
M  V30 6326 H 579.55 3.20347 -3.64014 0
M  V30 6327 N 580.893 1.08022 1.14757 0
M  V30 6328 C 582.139 0.808705 1.85978 0
M  V30 6329 C 582.472 -0.663764 1.82504 0
M  V30 6330 O 581.747 -1.48765 1.25296 0
M  V30 6331 C 582.03 1.32623 3.34788 0
M  V30 6332 C 581.883 2.86375 3.46856 0
M  V30 6333 C 583.202 0.948291 4.29762 0
M  V30 6334 H 580.321 0.295244 0.675278 0
M  V30 6335 H 582.963 1.33917 1.34783 0
M  V30 6336 H 581.113 0.875002 3.78518 0
M  V30 6337 H 582.785 3.39839 3.11941 0
M  V30 6338 H 581.028 3.24232 2.88194 0
M  V30 6339 H 581.699 3.17658 4.51439 0
M  V30 6340 H 584.175 1.33722 3.94028 0
M  V30 6341 H 583.051 1.33765 5.32352 0
M  V30 6342 H 583.312 -0.145094 4.41862 0
M  V30 6343 N 582.371 -1.3172 0.865308 0
M  V30 6344 C 583.619 -1.96487 0.472995 0
M  V30 6345 C 583.94 -1.68761 -0.976975 0
M  V30 6346 O 583.21 -1.00051 -1.68424 0
M  V30 6347 H 581.79 -0.726947 0.171922 0
M  V30 6348 H 584.452 -1.60612 1.10407 0
M  V30 6349 H 583.548 -3.0574 0.62687 0
M  V30 6350 N 583.85 -0.624285 -1.44708 0
M  V30 6351 C 585.098 -0.125802 -2.01708 0
M  V30 6352 C 585.418 1.2543 -1.49306 0
M  V30 6353 O 584.689 1.83198 -0.693924 0
M  V30 6354 H 583.269 -0.0435161 -0.745731 0
M  V30 6355 H 585.931 -0.809446 -1.77296 0
M  V30 6356 H 585.027 -0.0882734 -3.11975 0
M  V30 6357 N 585.328 1.53329 -0.364422 0
M  V30 6358 C 586.744 1.59594 -0.0133165 0
M  V30 6359 C 586.944 1.37959 1.46865 0
M  V30 6360 O 586 1.18418 2.2301 0
M  V30 6361 C 587.313 2.97032 -0.468213 0
M  V30 6362 C 588.861 3.10138 -0.422334 0
M  V30 6363 C 589.336 4.49986 -0.853024 0
M  V30 6364 N 590.827 4.56098 -0.808037 0
M  V30 6365 C 591.562 5.62495 -1.11299 0
M  V30 6366 N 591.058 6.7665 -1.48717 0
M  V30 6367 N 592.851 5.52473 -1.03586 0
M  V30 6368 H 585.002 1.65644 -1.32951 0
M  V30 6369 H 587.265 0.77684 -0.543345 0
M  V30 6370 H 586.971 3.18 -1.5023 0
M  V30 6371 H 586.845 3.76918 0.145775 0
M  V30 6372 H 589.232 2.88881 0.602622 0
M  V30 6373 H 589.313 2.32263 -1.0718 0
M  V30 6374 H 588.957 4.7198 -1.87609 0
M  V30 6375 H 588.887 5.26289 -0.180819 0
M  V30 6376 H 591.378 3.74131 -0.532361 0
M  V30 6377 H 591.691 7.53776 -1.70415 0
M  V30 6378 H 590.036 6.78044 -1.52581 0
M  V30 6379 H 593.227 4.6217 -0.742736 0
M  V30 6380 H 593.4 6.35295 -1.27686 0
M  V30 6381 N 586.806 0.0935595 1.57322 0
M  V30 6382 C 588.054 -0.569383 1.93913 0
M  V30 6383 C 588.375 -1.68817 0.976009 0
M  V30 6384 O 587.645 -1.9588 0.0278099 0
M  V30 6385 H 586.225 -0.21332 0.715894 0
M  V30 6386 H 588.887 0.156531 1.9427 0
M  V30 6387 H 587.983 -0.980577 2.96296 0
M  V30 6388 N 588.284 -1.56567 -0.180126 0
M  V30 6389 C 589.194 -1.98947 -1.24327 0
M  V30 6390 C 590.21 -0.899446 -1.4895 0
M  V30 6391 O 591.386 -1.20639 -1.61271 0
M  V30 6392 C 588.451 -2.33328 -2.56435 0
M  V30 6393 C 587.512 -3.56114 -2.39752 0
M  V30 6394 C 586.745 -3.88845 -3.65561 0
M  V30 6395 O 586.968 -3.22662 -4.70368 0
M  V30 6396 O 585.902 -4.82226 -3.60197 0
M  V30 6397 H 589.728 -2.89634 -0.913565 0
M  V30 6398 H 587.313 -1.44319 -0.386306 0
M  V30 6399 H 589.195 -2.5645 -3.34382 0
M  V30 6400 H 587.87 -1.45806 -2.89002 0
M  V30 6401 H 586.777 -3.38221 -1.59866 0
M  V30 6402 H 588.11 -4.4415 -2.12113 0
M  V30 6403 N 589.762 0.448376 -1.51087 0
M  V30 6404 C 590.694 1.56146 -1.67783 0
M  V30 6405 C 591.707 1.52913 -0.55871 0
M  V30 6406 O 592.896 1.57889 -0.83267 0
M  V30 6407 C 589.996 2.95057 -1.66716 0
M  V30 6408 C 589.169 3.22915 -2.95033 0
M  V30 6409 C 588.228 4.41495 -2.86302 0
M  V30 6410 O 587.254 4.40688 -3.60254 0
M  V30 6411 N 588.456 5.44443 -2.014 0
M  V30 6412 H 591.221 1.42232 -2.638 0
M  V30 6413 H 588.782 0.637153 -1.48835 0
M  V30 6414 H 590.774 3.72388 -1.58458 0
M  V30 6415 H 589.344 3.02624 -0.783403 0
M  V30 6416 H 588.564 2.33985 -3.17245 0
M  V30 6417 H 589.852 3.38349 -3.79996 0
M  V30 6418 H 589.25 5.4793 -1.40674 0
M  V30 6419 H 587.807 6.2067 -1.99029 0
M  V30 6420 N 591.24 1.41047 0.703093 0
M  V30 6421 C 592.651 1.35657 1.28274 0
M  V30 6422 C 593.002 0.0360309 1.96167 0
M  V30 6423 O 592.127 -0.865833 1.98324 0
M  V30 6424 C 592.722 2.45707 2.33267 0
M  V30 6425 C 591.281 2.43738 2.86825 0
M  V30 6426 C 590.428 2.25941 1.60767 0
M  V30 6427 H 593.379 1.50672 0.49836 0
M  V30 6428 H 593.4 2.14333 3.14391 0
M  V30 6429 H 592.912 3.41805 1.83824 0
M  V30 6430 H 591.013 1.51375 3.40465 0
M  V30 6431 H 591.126 3.39779 3.37768 0
M  V30 6432 H 589.49 1.73681 1.86298 0
M  V30 6433 H 590.273 3.24054 1.1333 0
M  V30 6434 N 592.718 -0.936591 1.26751 0
M  V30 6435 C 593.681 -2.01752 1.08761 0
M  V30 6436 C 594.681 -1.60763 0.0344435 0
M  V30 6437 O 595.871 -1.71963 0.278258 0
M  V30 6438 C 593.003 -3.34543 0.655271 0
M  V30 6439 H 594.196 -2.19143 2.04735 0
M  V30 6440 H 591.749 -1.11618 1.09413 0
M  V30 6441 H 592.484 -3.22851 -0.30626 0
M  V30 6442 H 592.269 -3.65647 1.41578 0
M  V30 6443 H 593.759 -4.13944 0.551378 0
M  V30 6444 N 594.196 -1.08629 -1.14182 0
M  V30 6445 C 595.129 -0.662329 -2.18377 0
M  V30 6446 C 596.107 0.327054 -1.59277 0
M  V30 6447 O 597.291 0.230376 -1.87087 0
M  V30 6448 C 594.418 0.0254765 -3.3869 0
M  V30 6449 C 593.464 -0.924414 -4.16361 0
M  V30 6450 S 594.297 -2.43226 -4.77076 0
M  V30 6451 C 595.453 -1.75663 -6.00744 0
M  V30 6452 H 595.686 -1.54501 -2.54001 0
M  V30 6453 H 593.219 -0.901484 -1.2535 0
M  V30 6454 H 595.177 0.416032 -4.08386 0
M  V30 6455 H 593.838 0.884689 -3.01384 0
M  V30 6456 H 593.031 -0.390099 -5.02488 0
M  V30 6457 H 592.633 -1.25598 -3.5228 0
M  V30 6458 H 594.925 -1.07589 -6.68903 0
M  V30 6459 H 595.868 -2.59673 -6.58768 0
M  V30 6460 H 596.276 -1.22903 -5.50958 0
M  V30 6461 N 595.674 1.31259 -0.872281 0
M  V30 6462 C 596.899 2.0133 -0.498099 0
M  V30 6463 C 597.324 1.65031 0.902568 0
M  V30 6464 O 596.682 0.860164 1.59596 0
M  V30 6465 C 596.73 3.54411 -0.665205 0
M  V30 6466 O 595.834 4.11347 0.294473 0
M  V30 6467 H 595.175 0.633844 -0.197832 0
M  V30 6468 H 597.705 1.67402 -1.17633 0
M  V30 6469 H 597.715 4.04147 -0.559373 0
M  V30 6470 H 596.39 3.80171 -1.68651 0
M  V30 6471 H 594.967 3.72624 0.143403 0
M  V30 6472 N 597.152 0.631951 1.44375 0
M  V30 6473 C 598.102 -0.0943862 2.27805 0
M  V30 6474 C 599.086 -0.815359 1.38711 0
M  V30 6475 O 600.278 -0.701331 1.62513 0
M  V30 6476 C 597.407 -1.07472 3.26044 0
M  V30 6477 C 596.493 -0.353329 4.22626 0
M  V30 6478 N 596.884 0.618512 5.02004 0
M  V30 6479 C 595.182 -0.597662 4.41977 0
M  V30 6480 C 595.883 1.0448 5.7224 0
M  V30 6481 N 594.859 0.383413 5.42246 0
M  V30 6482 H 598.661 0.651672 2.86584 0
M  V30 6483 H 596.175 0.45752 1.55822 0
M  V30 6484 H 598.172 -1.60969 3.84571 0
M  V30 6485 H 596.832 -1.82107 2.68825 0
M  V30 6486 H 597.843 0.996356 5.08226 0
M  V30 6487 H 594.52 -1.32682 3.95856 0
M  V30 6488 H 595.91 1.84773 6.45994 0
M  V30 6489 N 598.631 -1.53133 0.372548 0
M  V30 6490 C 599.579 -2.27473 -0.485681 0
M  V30 6491 C 600.573 -1.30719 -1.07745 0
M  V30 6492 O 601.779 -1.48321 -1.01985 0
M  V30 6493 H 598.154 -0.731269 -0.175356 0
M  V30 6494 H 600.125 -2.97955 0.162986 0
M  V30 6495 C 598.874 -3.08191 -1.60978 0
M  V30 6496 H 598.197 -3.82488 -1.16373 0
M  V30 6497 H 599.637 -3.63373 -2.18485 0
M  V30 6498 C 598.096 -2.19461 -2.55614 0
M  V30 6499 O 598.626 -1.81008 -3.58607 0
M  V30 6500 N 596.832 -1.83955 -2.24965 0
M  V30 6501 H 596.379 -2.15423 -1.41247 0
M  V30 6502 H 596.337 -1.24874 -2.88538 0
M  V30 6503 N 600.109 -0.101901 -1.5727 0
M  V30 6504 C 601.525 0.254739 -1.57554 0
M  V30 6505 C 601.725 1.67937 -1.11352 0
M  V30 6506 O 600.781 2.39722 -0.793081 0
M  V30 6507 C 602.094 0.036975 -3.00677 0
M  V30 6508 C 603.642 0.104199 -3.12827 0
M  V30 6509 C 604.117 -0.0856565 -4.5792 0
M  V30 6510 N 605.608 -0.0310498 -4.6319 0
M  V30 6511 C 606.343 -0.153099 -5.73196 0
M  V30 6512 N 605.839 -0.330364 -6.92012 0
M  V30 6513 N 607.632 -0.0938854 -5.62022 0
M  V30 6514 H 599.783 -1.03263 -1.85609 0
M  V30 6515 H 602.046 -0.405251 -0.857016 0
M  V30 6516 H 601.752 -0.947254 -3.38703 0
M  V30 6517 H 601.626 0.776335 -3.69124 0
M  V30 6518 H 604.013 1.07894 -2.74669 0
M  V30 6519 H 604.094 -0.666762 -2.46957 0
M  V30 6520 H 603.738 -1.05729 -4.96773 0
M  V30 6521 H 603.668 0.705082 -5.21858 0
M  V30 6522 H 606.159 0.103141 -3.77759 0
M  V30 6523 H 606.472 -0.41482 -7.71686 0
M  V30 6524 H 604.817 -0.366119 -6.94035 0
M  V30 6525 H 608.008 0.0435168 -4.6808 0
M  V30 6526 H 608.181 -0.19245 -6.47714 0
M  V30 6527 N 601.587 1.56661 0.17182 0
M  V30 6528 C 602.55 1.9549 1.19651 0
M  V30 6529 C 603.55 0.838501 1.37207 0
M  V30 6530 O 604.74 1.10556 1.34622 0
M  V30 6531 C 601.872 2.24927 2.56166 0
M  V30 6532 H 603.065 2.87184 0.864007 0
M  V30 6533 H 600.618 1.50711 0.41425 0
M  V30 6534 H 601.353 1.35944 2.94431 0
M  V30 6535 H 601.138 3.06301 2.4479 0
M  V30 6536 H 602.628 2.55891 3.30014 0
M  V30 6537 N 603.065 -0.440357 1.51323 0
M  V30 6538 C 604.295 -1.21079 1.67402 0
M  V30 6539 C 604.703 -1.85555 0.369599 0
M  V30 6540 O 604.046 -1.71375 -0.661525 0
M  V30 6541 C 604.108 -2.33839 2.73056 0
M  V30 6542 C 603.772 -1.89755 4.15743 0
M  V30 6543 C 604.769 -1.40268 5.0062 0
M  V30 6544 C 602.454 -1.97539 4.61826 0
M  V30 6545 C 604.448 -0.991474 6.29642 0
M  V30 6546 C 602.135 -1.56029 5.90845 0
M  V30 6547 C 603.133 -1.06915 6.7458 0
M  V30 6548 O 602.821 -0.659933 8.01187 0
M  V30 6549 H 602.553 -0.371133 0.56501 0
M  V30 6550 H 605.107 -0.528409 1.98487 0
M  V30 6551 H 603.337 -3.05345 2.37279 0
M  V30 6552 H 605.026 -2.95713 2.78044 0
M  V30 6553 H 605.792 -1.33652 4.66221 0
M  V30 6554 H 601.671 -2.34713 3.96776 0
M  V30 6555 H 605.215 -0.607425 6.9495 0
M  V30 6556 H 601.112 -1.62315 6.24759 0
M  V30 6557 H 601.88 -0.786052 8.14717 0
M  V30 6558 N 604.543 -1.41418 -0.695603 0
M  V30 6559 C 605.773 -1.43921 -1.48224 0
M  V30 6560 C 606.181 -0.0428855 -1.89151 0
M  V30 6561 O 605.524 0.948138 -1.5734 0
M  V30 6562 C 605.586 -2.28466 -2.77567 0
M  V30 6563 C 605.25 -3.76629 -2.58844 0
M  V30 6564 C 606.247 -4.6879 -2.24793 0
M  V30 6565 C 603.932 -4.2067 -2.74485 0
M  V30 6566 C 605.926 -6.02981 -2.06622 0
M  V30 6567 C 603.613 -5.54926 -2.55931 0
M  V30 6568 C 604.611 -6.45897 -2.2205 0
M  V30 6569 O 604.299 -7.77675 -2.03657 0
M  V30 6570 H 604.031 -0.492252 -0.463318 0
M  V30 6571 H 606.585 -1.86347 -0.863952 0
M  V30 6572 H 604.815 -1.80853 -3.41802 0
M  V30 6573 H 606.504 -2.2267 -3.39371 0
M  V30 6574 H 607.27 -4.36055 -2.12323 0
M  V30 6575 H 603.149 -3.50167 -2.9984 0
M  V30 6576 H 606.693 -6.73951 -1.80099 0
M  V30 6577 H 602.59 -5.8724 -2.67991 0
M  V30 6578 H 603.358 -7.88819 -2.1842 0
M  V30 6579 N 606.021 0.929856 -1.27246 0
M  V30 6580 C 607.298 1.65544 -1.04186 0
M  V30 6581 C 607.678 2.06796 0.424097 0
M  V30 6582 O 607.026 1.80053 1.40688 0
M  V30 6583 C 607.236 2.85912 -2.00138 0
M  V30 6584 C 608.584 3.57305 -2.29387 0
M  V30 6585 O 609.608 2.96036 -1.98094 0
M  V30 6586 O 608.467 4.67688 -2.82719 0
M  V30 6587 H 605.561 0.725473 -0.397011 0
M  V30 6588 H 608.107 0.980583 -1.38501 0
M  V30 6589 H 606.879 2.52403 -2.99013 0
M  V30 6590 H 606.502 3.61118 -1.66371 0
M  V30 6591 N 607.499 1.09233 1.13605 0
M  V30 6592 C 608.429 0.751738 2.21068 0
M  V30 6593 C 609.41 -0.269688 1.67948 0
M  V30 6594 O 610.595 -0.13819 1.93708 0
M  V30 6595 C 607.725 0.16935 3.46887 0
M  V30 6596 C 606.679 1.12007 4.13084 0
M  V30 6597 C 606.005 0.399483 5.33206 0
M  V30 6598 C 607.305 2.46168 4.6065 0
M  V30 6599 H 608.999 1.65024 2.49815 0
M  V30 6600 H 606.545 0.794905 1.20072 0
M  V30 6601 H 608.498 -0.0809824 4.21322 0
M  V30 6602 H 607.222 -0.764335 3.1753 0
M  V30 6603 H 605.881 1.35564 3.40614 0
M  V30 6604 H 605.529 -0.538277 5.00112 0
M  V30 6605 H 605.229 1.03337 5.78442 0
M  V30 6606 H 606.753 0.157403 6.10397 0
M  V30 6607 H 608.167 2.26829 5.26518 0
M  V30 6608 H 606.564 3.05326 5.1662 0
M  V30 6609 H 607.634 3.07076 3.75276 0
M  V30 6610 N 608.977 -1.30795 0.87923 0
M  V30 6611 C 609.924 -2.28282 0.339968 0
M  V30 6612 C 610.894 -1.56134 -0.566685 0
M  V30 6613 O 612.079 -1.84231 -0.496338 0
M  V30 6614 C 609.219 -3.42225 -0.444501 0
M  V30 6615 C 608.332 -4.29204 0.490717 0
M  V30 6616 C 607.467 -5.30302 -0.308784 0
M  V30 6617 C 606.506 -6.08929 0.622272 0
M  V30 6618 N 605.643 -7.01957 -0.14155 0
M  V30 6619 H 610.483 -2.73794 1.17647 0
M  V30 6620 H 608.02 -1.34682 0.591527 0
M  V30 6621 H 609.978 -4.07038 -0.915186 0
M  V30 6622 H 608.608 -2.97799 -1.24562 0
M  V30 6623 H 607.66 -3.6475 1.07988 0
M  V30 6624 H 608.972 -4.84045 1.20425 0
M  V30 6625 H 608.126 -6.00835 -0.841575 0
M  V30 6626 H 606.865 -4.7614 -1.05556 0
M  V30 6627 H 605.87 -5.37278 1.16674 0
M  V30 6628 H 607.095 -6.65178 1.36804 0
M  V30 6629 H 605.041 -6.50192 -0.870966 0
M  V30 6630 H 604.958 -7.54261 0.51246 0
M  V30 6631 H 606.226 -7.76741 -0.655271 0
M  V30 6632 N 610.455 -0.639598 -1.44038 0
M  V30 6633 C 611.68 -0.153117 -2.06834 0
M  V30 6634 C 612.105 1.16676 -1.47541 0
M  V30 6635 O 611.463 1.71769 -0.580093 0
M  V30 6636 C 611.511 -0.0609169 -3.60549 0
M  V30 6637 O 610.615 0.98071 -4.00569 0
M  V30 6638 H 609.956 -0.0886402 -0.658057 0
M  V30 6639 H 612.486 -0.878674 -1.84771 0
M  V30 6640 H 612.496 0.126892 -4.07803 0
M  V30 6641 H 611.171 -1.0245 -4.03084 0
M  V30 6642 H 609.748 0.766789 -3.64931 0
M  V30 6643 N 611.933 1.52934 -0.380664 0
M  V30 6644 C 613.182 2.00651 0.205477 0
M  V30 6645 C 613.495 1.27164 1.48623 0
M  V30 6646 O 614.701 1.65547 2.15189 0
M  V30 6647 C 613.157 3.57479 0.416726 0
M  V30 6648 C 612.765 4.39857 -0.850268 0
M  V30 6649 C 614.509 4.13509 0.959702 0
M  V30 6650 C 612.416 5.88269 -0.607773 0
M  V30 6651 H 611.346 0.749684 0.0805614 0
M  V30 6652 H 613.997 1.76508 -0.501732 0
M  V30 6653 H 612.379 3.77836 1.18557 0
M  V30 6654 H 613.553 4.31269 -1.62307 0
M  V30 6655 H 611.868 3.95005 -1.31756 0
M  V30 6656 H 614.465 5.22039 1.15669 0
M  V30 6657 H 614.808 3.69054 1.92626 0
M  V30 6658 H 615.341 3.9701 0.250645 0
M  V30 6659 H 612.08 6.3703 -1.54509 0
M  V30 6660 H 611.6 5.99667 0.126247 0
M  V30 6661 H 613.279 6.46558 -0.239014 0
M  V30 6662 N 613.412 0.11024 1.57214 0
M  V30 6663 C 614.66 -0.548783 1.94506 0
M  V30 6664 C 614.981 -1.67772 0.99386 0
M  V30 6665 O 614.251 -1.9584 0.0485841 0
M  V30 6666 H 612.831 -0.205715 0.718116 0
M  V30 6667 H 615.493 0.177127 1.94093 0
M  V30 6668 H 614.589 -0.949096 2.97319 0
M  V30 6669 N 614.89 -1.56749 -0.16351 0
M  V30 6670 C 616.115 -1.86938 -0.898264 0
M  V30 6671 C 616.54 -0.697456 -1.74692 0
M  V30 6672 O 615.898 0.353327 -1.77824 0
M  V30 6673 C 615.946 -3.15599 -1.74441 0
M  V30 6674 O 615.05 -2.98371 -2.8469 0
M  V30 6675 H 614.391 -0.614659 -0.251178 0
M  V30 6676 H 616.921 -2.03979 -0.159298 0
M  V30 6677 H 616.931 -3.47202 -2.14277 0
M  V30 6678 H 615.606 -4.00505 -1.1211 0
M  V30 6679 H 614.183 -2.7814 -2.4838 0
M  V30 6680 N 616.368 0.432326 -1.51554 0
M  V30 6681 C 617.331 1.50765 -1.72634 0
M  V30 6682 C 618.331 1.49334 -0.596314 0
M  V30 6683 O 619.521 1.51268 -0.863925 0
M  V30 6684 C 616.653 2.90284 -1.7874 0
M  V30 6685 H 617.846 1.33377 -2.68609 0
M  V30 6686 H 615.399 0.661329 -1.4162 0
M  V30 6687 H 616.134 3.13071 -0.845977 0
M  V30 6688 H 615.919 2.92727 -2.6087 0
M  V30 6689 H 617.409 3.68282 -1.96871 0
M  V30 6690 N 617.846 1.41785 0.688094 0
M  V30 6691 C 619.074 1.44915 1.47673 0
M  V30 6692 C 619.489 0.0565786 1.88715 0
M  V30 6693 O 618.846 -0.92579 1.57275 0
M  V30 6694 C 618.897 2.36452 2.73446 0
M  V30 6695 O 618.618 3.7029 2.34131 0
M  V30 6696 C 620.119 2.48463 3.67125 0
M  V30 6697 H 617.339 0.493324 0.454832 0
M  V30 6698 H 619.883 1.86153 0.846594 0
M  V30 6699 H 618.038 1.98502 3.3268 0
M  V30 6700 H 618.452 4.19183 3.15255 0
M  V30 6701 H 619.926 3.16662 4.52138 0
M  V30 6702 H 620.403 1.51826 4.12123 0
M  V30 6703 H 621.009 2.8708 3.13792 0
M  V30 6704 N 619.324 -0.923095 1.27737 0
M  V30 6705 C 620.271 -2.02432 1.1086 0
M  V30 6706 C 621.241 -1.66098 0.00835195 0
M  V30 6707 O 622.426 -1.90027 0.171542 0
M  V30 6708 C 619.566 -3.36476 0.766671 0
M  V30 6709 C 618.679 -3.85737 1.94501 0
M  V30 6710 C 617.814 -5.08249 1.54455 0
M  V30 6711 C 616.853 -5.49818 2.6901 0
M  V30 6712 N 615.99 -6.63524 2.29521 0
M  V30 6713 H 620.83 -2.16201 2.05089 0
M  V30 6714 H 618.367 -1.05909 1.02087 0
M  V30 6715 H 620.325 -4.13569 0.549223 0
M  V30 6716 H 618.955 -3.22502 -0.13867 0
M  V30 6717 H 618.007 -3.04883 2.27487 0
M  V30 6718 H 619.319 -4.12513 2.80419 0
M  V30 6719 H 618.473 -5.92857 1.28862 0
M  V30 6720 H 617.212 -4.83261 0.656534 0
M  V30 6721 H 616.217 -4.63757 2.95313 0
M  V30 6722 H 617.442 -5.76799 3.5844 0
M  V30 6723 H 615.388 -6.40185 1.43177 0
M  V30 6724 H 615.305 -6.89978 3.08977 0
M  V30 6725 H 616.573 -7.51461 2.07187 0
M  V30 6726 N 620.802 -1.09834 -1.13024 0
M  V30 6727 C 622.213 -0.855651 -1.65938 0
M  V30 6728 C 622.564 0.615159 -1.86307 0
M  V30 6729 O 621.689 1.47335 -1.58497 0
M  V30 6730 C 622.284 -1.5467 -3.01434 0
M  V30 6731 C 620.843 -1.35088 -3.51323 0
M  V30 6732 C 619.99 -1.6001 -2.26478 0
M  V30 6733 H 622.941 -1.25691 -0.968889 0
M  V30 6734 H 622.962 -0.982179 -3.67605 0
M  V30 6735 H 622.474 -2.61715 -2.86578 0
M  V30 6736 H 620.575 -0.30179 -3.71376 0
M  V30 6737 H 620.688 -2.0886 -4.31178 0
M  V30 6738 H 619.052 -1.02246 -2.33276 0
M  V30 6739 H 619.835 -2.68293 -2.14182 0
M  V30 6740 N 622.28 1.30327 -0.886154 0
M  V30 6741 C 623.21 2.30549 -0.370028 0
M  V30 6742 C 624.191 1.61039 0.547751 0
M  V30 6743 O 625.376 1.8864 0.461353 0
M  V30 6744 C 622.506 3.44808 0.415275 0
M  V30 6745 C 621.46 4.26024 -0.41085 0
M  V30 6746 C 620.786 5.32347 0.501128 0
M  V30 6747 C 622.086 4.95433 -1.65359 0
M  V30 6748 H 623.78 2.73969 -1.20754 0
M  V30 6749 H 621.326 1.3171 -0.582097 0
M  V30 6750 H 623.279 4.13986 0.78699 0
M  V30 6751 H 622.003 3.00197 1.28644 0
M  V30 6752 H 620.662 3.58535 -0.764719 0
M  V30 6753 H 620.31 4.83982 1.37004 0
M  V30 6754 H 620.01 5.87581 -0.0478356 0
M  V30 6755 H 621.534 6.0438 0.869333 0
M  V30 6756 H 622.948 5.5712 -1.35239 0
M  V30 6757 H 621.345 5.60537 -2.14284 0
M  V30 6758 H 622.415 4.21493 -2.39733 0
M  V30 6759 N 623.758 0.647228 1.43697 0
M  V30 6760 C 624.986 0.16575 2.06235 0
M  V30 6761 C 625.401 -1.1662 1.48476 0
M  V30 6762 O 624.758 -1.7187 0.613762 0
M  V30 6763 C 624.809 0.0621651 3.61447 0
M  V30 6764 O 624.53 1.34146 4.17057 0
M  V30 6765 C 626.031 -0.446102 4.4105 0
M  V30 6766 H 623.251 0.0871158 0.665321 0
M  V30 6767 H 625.795 0.886183 1.84301 0
M  V30 6768 H 623.95 -0.608794 3.82587 0
M  V30 6769 H 624.364 1.19675 5.10664 0
M  V30 6770 H 625.838 -0.46755 5.50016 0
M  V30 6771 H 626.315 -1.47627 4.13646 0
M  V30 6772 H 626.921 0.192159 4.24866 0
M  V30 6773 N 625.236 -1.5273 0.388769 0
M  V30 6774 C 626.482 -2.01871 -0.193877 0
M  V30 6775 C 626.815 -1.27475 -1.46505 0
M  V30 6776 O 626.09 -0.375063 -1.90849 0
M  V30 6777 C 626.373 -3.5712 -0.462336 0
M  V30 6778 C 626.226 -4.42186 0.824091 0
M  V30 6779 C 627.545 -4.21881 -1.25319 0
M  V30 6780 H 624.664 -0.733764 -0.0689899 0
M  V30 6781 H 627.306 -1.82796 0.518231 0
M  V30 6782 H 625.456 -3.73504 -1.06896 0
M  V30 6783 H 627.128 -4.37554 1.46096 0
M  V30 6784 H 625.371 -4.09219 1.43952 0
M  V30 6785 H 626.042 -5.48828 0.590905 0
M  V30 6786 H 628.518 -4.0947 -0.73981 0
M  V30 6787 H 627.394 -5.30487 -1.40977 0
M  V30 6788 H 627.655 -3.79478 -2.26824 0
M  V30 6789 N 626.714 -0.118576 -1.57153 0
M  V30 6790 C 627.944 0.546466 -1.99242 0
M  V30 6791 C 628.352 1.60791 -0.997148 0
M  V30 6792 O 627.695 1.83691 0.0181745 0
M  V30 6793 C 627.757 1.23167 -3.37743 0
M  V30 6794 C 627.421 0.318226 -4.55891 0
M  V30 6795 C 628.418 -0.442988 -5.18009 0
M  V30 6796 C 626.103 0.229421 -5.01776 0
M  V30 6797 C 628.097 -1.28074 -6.244 0
M  V30 6798 C 625.784 -0.611966 -6.08028 0
M  V30 6799 C 626.782 -1.36568 -6.69207 0
M  V30 6800 O 626.47 -2.1931 -7.73407 0
M  V30 6801 H 626.202 0.149297 -0.659307 0
M  V30 6802 H 628.756 -0.201603 -2.04408 0
M  V30 6803 H 626.986 2.0268 -3.29329 0
M  V30 6804 H 628.675 1.79358 -3.64123 0
M  V30 6805 H 629.441 -0.38425 -4.83475 0
M  V30 6806 H 625.32 0.805771 -4.53903 0
M  V30 6807 H 628.864 -1.86952 -6.72082 0
M  V30 6808 H 624.761 -0.6721 -6.41991 0
M  V30 6809 H 625.529 -2.12247 -7.90502 0
M  V30 6810 N 628.193 1.56834 0.155195 0
M  V30 6811 C 629.441 1.82536 0.867462 0
M  V30 6812 C 629.762 0.698168 1.82073 0
M  V30 6813 O 629.032 -0.280807 1.93877 0
M  V30 6814 H 627.612 0.673401 0.323327 0
M  V30 6815 H 630.274 1.94313 0.151156 0
M  V30 6816 H 629.37 2.77171 1.43466 0
M  V30 6817 N 629.671 -0.424282 1.51781 0
M  V30 6818 C 631.082 -1.00368 1.57427 0
M  V30 6819 C 631.433 -1.91962 0.40558 0
M  V30 6820 O 630.558 -2.111 -0.47601 0
M  V30 6821 C 631.153 -1.82707 2.85313 0
M  V30 6822 C 629.712 -2.35675 2.93487 0
M  V30 6823 C 628.859 -1.1524 2.5222 0
M  V30 6824 H 631.81 -0.205064 1.5737 0
M  V30 6825 H 631.831 -2.68294 2.69812 0
M  V30 6826 H 631.343 -1.16017 3.70353 0
M  V30 6827 H 629.444 -3.05781 2.12906 0
M  V30 6828 H 629.557 -2.67578 3.97415 0
M  V30 6829 H 627.921 -1.50174 2.05718 0
M  V30 6830 H 628.704 -0.5014 3.39619 0
M  V30 6831 N 631.149 -1.42148 -0.680565 0
M  V30 6832 C 632.112 -1.4488 -1.77602 0
M  V30 6833 C 633.112 -0.337209 -1.57224 0
M  V30 6834 O 634.302 -0.597778 -1.63622 0
M  V30 6835 C 631.434 -1.27483 -3.16166 0
M  V30 6836 H 632.627 -2.42412 -1.76568 0
M  V30 6837 H 630.18 -1.28511 -0.889645 0
M  V30 6838 H 630.915 -0.30851 -3.22829 0
M  V30 6839 H 630.7 -2.08037 -3.3236 0
M  V30 6840 H 632.19 -1.32265 -3.96101 0
M  V30 6841 N 632.627 0.916307 -1.28225 0
M  V30 6842 C 633.876 1.65975 -1.14608 0
M  V30 6843 C 634.189 1.93204 0.305191 0
M  V30 6844 O 635.395 2.65611 0.562432 0
M  V30 6845 C 633.851 2.98989 -2.00333 0
M  V30 6846 C 633.459 2.79417 -3.50186 0
M  V30 6847 C 635.203 3.76856 -1.95397 0
M  V30 6848 C 633.11 4.08056 -4.28071 0
M  V30 6849 H 632.04 0.622587 -0.425324 0
M  V30 6850 H 634.691 1.01705 -1.52736 0
M  V30 6851 H 633.073 3.6438 -1.5506 0
M  V30 6852 H 634.247 2.22723 -4.034 0
M  V30 6853 H 632.562 2.14966 -3.56621 0
M  V30 6854 H 635.159 4.72203 -2.50856 0
M  V30 6855 H 635.502 4.05776 -0.930137 0
M  V30 6856 H 636.035 3.1828 -2.38626 0
M  V30 6857 H 632.774 3.8431 -5.31024 0
M  V30 6858 H 632.294 4.64371 -3.79631 0
M  V30 6859 H 633.973 4.76333 -4.37854 0
M  V30 6860 N 634.105 1.10431 1.1244 0
M  V30 6861 C 635.382 0.758797 1.80282 0
M  V30 6862 C 635.762 -0.754727 1.97147 0
M  V30 6863 O 635.11 -1.68094 1.54779 0
M  V30 6864 C 635.32 1.50982 3.14651 0
M  V30 6865 C 636.668 1.68232 3.8985 0
M  V30 6866 O 637.692 1.47319 3.24308 0
M  V30 6867 O 636.551 2.02905 5.07437 0
M  V30 6868 H 633.645 0.273756 0.780376 0
M  V30 6869 H 636.191 1.20713 1.19275 0
M  V30 6870 H 634.963 2.53989 2.97666 0
M  V30 6871 H 634.586 1.05435 3.83366 0
M  V30 6872 N 635.583 -1.29855 0.893053 0
M  V30 6873 C 636.513 -2.3035 0.382249 0
M  V30 6874 C 637.494 -1.61328 -0.539203 0
M  V30 6875 O 638.679 -1.88882 -0.451342 0
M  V30 6876 C 635.809 -3.45024 -0.396983 0
M  V30 6877 C 634.763 -4.258 0.433437 0
M  V30 6878 C 634.089 -5.32605 -0.472889 0
M  V30 6879 C 635.389 -4.94549 1.67984 0
M  V30 6880 H 637.083 -2.73325 1.22205 0
M  V30 6881 H 634.629 -1.314 0.589073 0
M  V30 6882 H 636.582 -4.14398 -0.765024 0
M  V30 6883 H 635.306 -3.00875 -1.2705 0
M  V30 6884 H 633.965 -3.58125 0.783723 0
M  V30 6885 H 633.613 -4.84702 -1.34435 0
M  V30 6886 H 633.313 -5.87547 0.0789958 0
M  V30 6887 H 634.837 -6.04832 -0.837269 0
M  V30 6888 H 636.251 -5.56395 1.38192 0
M  V30 6889 H 634.648 -5.59393 2.17254 0
M  V30 6890 H 635.718 -4.20215 2.41965 0
M  V30 6891 N 637.061 -0.65484 -1.43351 0
M  V30 6892 C 638.309 -0.168559 -2.01396 0
M  V30 6893 C 638.63 1.22235 -1.51933 0
M  V30 6894 O 637.9 1.81685 -0.732627 0
M  V30 6895 H 636.48 -0.0593244 -0.744641 0
M  V30 6896 H 639.142 -0.846871 -1.75539 0
M  V30 6897 H 638.238 -0.154428 -3.11718 0
M  V30 6898 N 638.539 1.52521 -0.396863 0
M  V30 6899 C 639.469 2.29582 0.425941 0
M  V30 6900 C 640.45 1.33281 1.05689 0
M  V30 6901 O 641.635 1.62181 1.06823 0
M  V30 6902 C 638.765 3.10821 1.54943 0
M  V30 6903 C 637.719 4.15069 1.04413 0
M  V30 6904 C 637.045 4.84578 2.26028 0
M  V30 6905 C 638.345 5.22191 0.106767 0
M  V30 6906 H 640.039 2.98612 -0.217045 0
M  V30 6907 H 637.585 1.43611 -0.105826 0
M  V30 6908 H 639.538 3.63492 2.13193 0
M  V30 6909 H 638.262 2.39538 2.22011 0
M  V30 6910 H 636.921 3.63389 0.484118 0
M  V30 6911 H 636.569 4.09835 2.91623 0
M  V30 6912 H 636.269 5.55043 1.92876 0
M  V30 6913 H 637.793 5.40056 2.84906 0
M  V30 6914 H 639.207 5.70176 0.597685 0
M  V30 6915 H 637.604 5.99947 -0.135352 0
M  V30 6916 H 638.674 4.77531 -0.842134 0
M  V30 6917 N 640.017 0.126909 1.57088 0
M  V30 6918 C 641.265 -0.528123 1.95078 0
M  V30 6919 C 641.586 -1.66708 1.0116 0
M  V30 6920 O 640.856 -1.95777 0.0693527 0
M  V30 6921 H 639.436 -0.198087 0.720257 0
M  V30 6922 H 642.098 0.197703 1.93895 0
M  V30 6923 H 641.194 -0.917507 2.98309 0
M  V30 6924 N 641.495 -1.56914 -0.146875 0
M  V30 6925 C 642.743 -1.82994 -0.85777 0
M  V30 6926 C 643.064 -0.707814 -1.817 0
M  V30 6927 O 642.334 0.270521 -1.94023 0
M  V30 6928 H 640.914 -0.675106 -0.319751 0
M  V30 6929 H 643.576 -1.9439 -0.140849 0
M  V30 6930 H 642.672 -2.77928 -1.41994 0
M  V30 6931 N 642.974 0.416227 -1.52004 0
M  V30 6932 C 643.937 1.48926 -1.74223 0
M  V30 6933 C 644.937 1.48693 -0.612119 0
M  V30 6934 O 646.127 1.50343 -0.879921 0
M  V30 6935 C 643.259 2.88372 -1.81809 0
M  V30 6936 H 644.452 1.3052 -2.70008 0
M  V30 6937 H 642.005 0.646271 -1.42313 0
M  V30 6938 H 642.74 3.12157 -0.879135 0
M  V30 6939 H 642.525 2.89944 -2.6396 0
M  V30 6940 H 644.015 3.66173 -2.00766 0
M  V30 6941 N 644.452 1.42507 0.673017 0
M  V30 6942 C 645.7 1.42789 1.43023 0
M  V30 6943 C 646.021 0.0459738 1.94946 0
M  V30 6944 O 645.291 -0.915765 1.73178 0
M  V30 6945 H 643.871 0.525657 0.530748 0
M  V30 6946 H 646.533 1.77944 0.795113 0
M  V30 6947 H 645.629 2.12872 2.28237 0
M  V30 6948 N 645.93 -0.909495 1.28709 0
M  V30 6949 C 647.155 -1.69801 1.1909 0
M  V30 6950 C 647.58 -1.86479 -0.246388 0
M  V30 6951 O 646.938 -1.37802 -1.17815 0
M  V30 6952 C 646.986 -3.06543 1.89904 0
M  V30 6953 O 646.09 -3.94268 1.2094 0
M  V30 6954 H 645.431 -0.519783 0.413185 0
M  V30 6955 H 647.961 -1.13689 1.70106 0
M  V30 6956 H 647.971 -3.56748 1.97977 0
M  V30 6957 H 646.646 -2.93722 2.94449 0
M  V30 6958 H 645.223 -3.52702 1.2106 0
M  V30 6959 N 647.408 -1.11026 -1.11852 0
M  V30 6960 C 648.654 -0.857729 -1.83768 0
M  V30 6961 C 648.987 0.615143 -1.842 0
M  V30 6962 O 648.262 1.45391 -1.29196 0
M  V30 6963 C 648.545 -1.41453 -3.31154 0
M  V30 6964 C 648.398 -2.95471 -3.39142 0
M  V30 6965 C 649.717 -1.0619 -4.27097 0
M  V30 6966 H 646.836 -0.313044 -0.667212 0
M  V30 6967 H 649.478 -1.37443 -1.31185 0
M  V30 6968 H 647.628 -0.975052 -3.76065 0
M  V30 6969 H 649.3 -3.4799 -3.02821 0
M  V30 6970 H 647.543 -3.31759 -2.79497 0
M  V30 6971 H 648.214 -3.29515 -4.42859 0
M  V30 6972 H 650.69 -1.44122 -3.90344 0
M  V30 6973 H 649.566 -1.47832 -5.28618 0
M  V30 6974 H 649.827 0.0278912 -4.42091 0
M  V30 6975 N 648.886 1.2938 -0.899927 0
M  V30 6976 C 650.132 1.9584 -0.526742 0
M  V30 6977 C 650.465 1.70774 0.924651 0
M  V30 6978 O 649.74 1.02084 1.65557 0
M  V30 6979 C 650.023 3.50638 -0.820062 0
M  V30 6980 C 649.876 3.85161 -2.32317 0
M  V30 6981 C 651.195 4.3903 -0.30671 0
M  V30 6982 H 648.314 0.711322 -0.192848 0
M  V30 6983 H 650.956 1.52992 -1.12665 0
M  V30 6984 H 649.106 3.87265 -0.309491 0
M  V30 6985 H 650.778 3.58477 -2.9033 0
M  V30 6986 H 649.021 3.32696 -2.78381 0
M  V30 6987 H 649.692 4.93204 -2.47898 0
M  V30 6988 H 652.168 4.09396 -0.743908 0
M  V30 6989 H 651.044 5.46226 -0.541144 0
M  V30 6990 H 651.305 4.34937 0.792588 0
M  V30 6991 N 650.364 0.662433 1.43002 0
M  V30 6992 C 651.312 -0.035345 2.32573 0
M  V30 6993 C 652.306 -0.803505 1.49131 0
M  V30 6994 O 653.512 -0.712865 1.65282 0
M  V30 6995 H 649.887 -0.0302194 0.751393 0
M  V30 6996 H 651.858 0.737686 2.89138 0
M  V30 6997 C 650.607 -0.981575 3.33557 0
M  V30 6998 H 649.93 -0.399914 3.97795 0
M  V30 6999 H 651.37 -1.43873 3.98844 0
M  V30 7000 C 649.829 -2.08204 2.64863 0
M  V30 7001 O 650.359 -3.16698 2.47113 0
M  V30 7002 N 648.565 -1.85022 2.24088 0
M  V30 7003 H 648.112 -0.967909 2.38724 0
M  V30 7004 H 648.07 -2.58845 1.78457 0
M  V30 7005 N 651.842 -1.52309 0.404946 0
M  V30 7006 C 653.119 -1.94237 -0.230544 0
M  V30 7007 C 653.499 -1.34154 -1.6299 0
M  V30 7008 O 652.847 -0.515713 -2.22604 0
M  V30 7009 C 653.057 -3.48166 -0.241106 0
M  V30 7010 C 654.405 -4.22074 -0.462488 0
M  V30 7011 O 655.429 -3.54754 -0.320644 0
M  V30 7012 O 654.288 -5.41443 -0.741708 0
M  V30 7013 H 651.382 -0.813766 -0.147358 0
M  V30 7014 H 653.928 -1.6333 0.460587 0
M  V30 7015 H 652.7 -3.84269 0.738467 0
M  V30 7016 H 652.323 -3.85422 -0.97651 0
M  V30 7017 N 653.32 -0.135238 -1.57019 0
M  V30 7018 C 654.545 0.529343 -2.00531 0
M  V30 7019 C 654.97 1.58391 -1.01459 0
M  V30 7020 O 654.328 1.81296 0.0113986 0
M  V30 7021 C 654.376 1.11748 -3.42848 0
M  V30 7022 O 653.48 2.23267 -3.46736 0
M  V30 7023 H 652.821 0.130669 -0.651016 0
M  V30 7024 H 655.351 -0.228503 -2.0332 0
M  V30 7025 H 655.361 1.44905 -3.81401 0
M  V30 7026 H 654.036 0.345147 -4.14465 0
M  V30 7027 H 652.613 1.91428 -3.20015 0
M  V30 7028 N 654.798 1.5699 0.138552 0
M  V30 7029 C 656.209 1.73171 0.697754 0
M  V30 7030 C 656.56 0.750952 1.8126 0
M  V30 7031 O 655.685 -0.080549 2.1625 0
M  V30 7032 C 656.28 3.13996 1.27248 0
M  V30 7033 C 654.839 3.3175 1.77816 0
M  V30 7034 C 653.986 2.69084 0.669991 0
M  V30 7035 H 656.937 1.5846 -0.0871979 0
M  V30 7036 H 656.958 3.14463 2.14227 0
M  V30 7037 H 656.47 3.85354 0.460855 0
M  V30 7038 H 654.571 2.65403 2.61519 0
M  V30 7039 H 654.684 4.39768 1.90107 0
M  V30 7040 H 653.048 2.29782 1.09874 0
M  V30 7041 H 653.831 3.43053 -0.130329 0
M  V30 7042 N 656.276 -0.40816 1.52223 0
M  V30 7043 C 657.206 -1.5042 1.78595 0
M  V30 7044 C 658.187 -1.57723 0.636974 0
M  V30 7045 O 659.372 -1.72982 0.882664 0
M  V30 7046 C 656.502 -2.88232 1.93751 0
M  V30 7047 C 655.456 -2.95779 3.09352 0
M  V30 7048 C 654.782 -4.35855 3.09732 0
M  V30 7049 C 656.082 -2.67175 4.48793 0
M  V30 7050 H 657.776 -1.28601 2.70374 0
M  V30 7051 H 655.322 -0.617221 1.30101 0
M  V30 7052 H 657.275 -3.64895 2.10783 0
M  V30 7053 H 655.999 -3.11347 0.986443 0
M  V30 7054 H 654.658 -2.21561 2.92072 0
M  V30 7055 H 654.306 -4.55981 2.12346 0
M  V30 7056 H 654.006 -4.41829 3.87377 0
M  V30 7057 H 655.53 -5.14451 3.28895 0
M  V30 7058 H 656.944 -3.3356 4.66273 0
M  V30 7059 H 655.341 -2.84523 5.28362 0
M  V30 7060 H 656.411 -1.62609 4.56822 0
M  V30 7061 N 657.755 -1.42862 -0.66545 0
M  V30 7062 C 658.98 -1.47456 -1.45848 0
M  V30 7063 C 659.405 -0.0900312 -1.87884 0
M  V30 7064 O 658.763 0.913587 -1.56599 0
M  V30 7065 C 658.811 -2.41514 -2.67774 0
M  V30 7066 O 657.915 -1.89296 -3.66389 0
M  V30 7067 H 657.256 -0.499236 -0.437789 0
M  V30 7068 H 659.786 -1.8765 -0.815394 0
M  V30 7069 H 659.796 -2.58409 -3.15735 0
M  V30 7070 H 658.471 -3.42099 -2.36519 0
M  V30 7071 H 657.048 -1.82003 -3.25468 0
M  V30 7072 N 659.233 0.902656 -1.29189 0
M  V30 7073 C 660.181 2.0278 -1.13943 0
M  V30 7074 C 661.175 1.69308 -0.055787 0
M  V30 7075 O 662.381 1.78707 -0.215371 0
M  V30 7076 H 658.756 0.664595 -0.351877 0
M  V30 7077 H 660.727 2.12778 -2.09208 0
M  V30 7078 C 659.476 3.37657 -0.82966 0
M  V30 7079 H 658.799 3.63913 -1.65551 0
M  V30 7080 H 660.239 4.17078 -0.762998 0
M  V30 7081 C 658.698 3.33648 0.466991 0
M  V30 7082 O 659.228 3.72886 1.49395 0
M  V30 7083 N 657.434 2.86745 0.471761 0
M  V30 7084 H 656.981 2.55009 -0.364406 0
M  V30 7085 H 656.939 2.84446 1.33933 0
M  V30 7086 N 660.711 1.11618 1.11262 0
M  V30 7087 C 661.658 0.7762 2.17356 0
M  V30 7088 C 662.628 -0.253152 1.6416 0
M  V30 7089 O 663.813 -0.129655 1.90359 0
M  V30 7090 C 660.953 0.227581 3.44349 0
M  V30 7091 C 660.066 1.31372 4.1154 0
M  V30 7092 C 659.201 0.72544 5.26223 0
M  V30 7093 C 658.24 1.7913 5.85302 0
M  V30 7094 N 657.377 1.22237 6.91377 0
M  V30 7095 H 662.217 1.68508 2.45783 0
M  V30 7096 H 659.754 0.841475 1.20655 0
M  V30 7097 H 661.712 -0.108483 4.17059 0
M  V30 7098 H 660.342 -0.644486 3.16301 0
M  V30 7099 H 659.394 1.7667 3.36885 0
M  V30 7100 H 660.706 2.12005 4.51504 0
M  V30 7101 H 659.86 0.339541 6.05749 0
M  V30 7102 H 658.599 -0.112188 4.87571 0
M  V30 7103 H 657.604 2.18648 5.04453 0
M  V30 7104 H 658.829 2.63199 6.26022 0
M  V30 7105 H 656.775 0.406423 6.5474 0
M  V30 7106 H 656.692 1.9654 7.30006 0
M  V30 7107 H 657.96 0.863426 7.74703 0
M  V30 7108 N 662.189 -1.289 0.906776 0
M  V30 7109 C 663.099 -2.31256 0.394707 0
M  V30 7110 C 664.115 -1.66231 -0.514121 0
M  V30 7111 O 665.291 -1.97347 -0.401994 0
M  V30 7112 C 662.356 -3.44792 -0.363191 0
M  V30 7113 C 661.417 -4.25391 0.578012 0
M  V30 7114 C 660.65 -5.33506 -0.143811 0
M  V30 7115 O 660.873 -5.53786 -1.36665 0
M  V30 7116 O 659.807 -5.99673 0.5173 0
M  V30 7117 H 663.633 -2.77051 1.24405 0
M  V30 7118 H 661.218 -1.33466 0.671346 0
M  V30 7119 H 663.1 -4.139 -0.791503 0
M  V30 7120 H 661.775 -3.01093 -1.18848 0
M  V30 7121 H 660.682 -3.58899 1.05558 0
M  V30 7122 H 662.015 -4.72752 1.36992 0
M  V30 7123 N 663.667 -0.670007 -1.42649 0
M  V30 7124 C 664.597 -0.00258501 -2.335 0
M  V30 7125 C 665.578 0.794364 -1.50412 0
M  V30 7126 O 666.763 0.75248 -1.79029 0
M  V30 7127 C 663.893 0.952748 -3.33976 0
M  V30 7128 C 662.847 0.264733 -4.2718 0
M  V30 7129 C 662.173 1.33267 -5.17826 0
M  V30 7130 C 663.473 -0.853289 -5.15283 0
M  V30 7131 H 665.167 -0.761326 -2.89559 0
M  V30 7132 H 662.713 -0.367561 -1.3923 0
M  V30 7133 H 664.666 1.4287 -3.96442 0
M  V30 7134 H 663.39 1.74285 -2.7621 0
M  V30 7135 H 662.049 -0.190938 -3.66102 0
M  V30 7136 H 661.697 2.11464 -4.5639 0
M  V30 7137 H 661.397 0.877476 -5.81011 0
M  V30 7138 H 662.921 1.80965 -5.83167 0
M  V30 7139 H 664.335 -0.458763 -5.71462 0
M  V30 7140 H 662.732 -1.23398 -5.87276 0
M  V30 7141 H 663.802 -1.70412 -4.53969 0
M  V30 7142 N 665.145 1.52092 -0.413018 0
M  V30 7143 C 666.37 2.06756 0.163338 0
M  V30 7144 C 666.795 1.28073 1.37764 0
M  V30 7145 O 666.153 0.312015 1.78595 0
M  V30 7146 C 666.201 3.57278 0.488322 0
M  V30 7147 O 665.305 3.80986 1.57871 0
M  V30 7148 H 664.646 0.663882 0.0125068 0
M  V30 7149 H 667.176 1.95988 -0.587339 0
M  V30 7150 H 667.186 4.01125 0.745836 0
M  V30 7151 H 665.861 4.13978 -0.399327 0
M  V30 7152 H 664.438 3.49017 1.31306 0
M  V30 7153 N 666.623 0.143563 1.56945 0
M  V30 7154 C 667.848 -0.518701 2.00809 0
M  V30 7155 C 668.273 -1.5785 1.02298 0
M  V30 7156 O 667.631 -1.813 -0.0017839 0
M  V30 7157 C 667.679 -1.09929 3.43436 0
M  V30 7158 O 666.783 -2.21425 3.47915 0
M  V30 7159 H 666.124 -0.127215 0.6517 0
M  V30 7160 H 668.654 0.239283 2.03196 0
M  V30 7161 H 668.664 -1.4288 3.82164 0
M  V30 7162 H 667.339 -0.323162 4.14643 0
M  V30 7163 H 665.916 -1.89728 3.21026 0
M  V30 7164 N 668.101 -1.57061 -0.130224 0
M  V30 7165 C 669.329 -1.88432 -0.854456 0
M  V30 7166 C 669.744 -0.733608 -1.73964 0
M  V30 7167 O 669.101 0.296029 -1.80083 0
M  V30 7168 C 669.152 -3.1918 -1.69724 0
M  V30 7169 O 668.873 -4.2982 -0.847705 0
M  V30 7170 C 670.374 -3.6418 -2.5276 0
M  V30 7171 H 667.594 -0.624193 -0.246221 0
M  V30 7172 H 670.138 -2.04159 -0.11798 0
M  V30 7173 H 668.293 -3.05156 -2.3866 0
M  V30 7174 H 668.707 -5.04689 -1.42792 0
M  V30 7175 H 670.181 -4.58457 -3.07443 0
M  V30 7176 H 670.658 -2.90285 -3.29592 0
M  V30 7177 H 671.264 -3.80954 -1.89087 0
M  V30 7178 N 669.579 0.400081 -1.52437 0
M  V30 7179 C 670.827 1.14392 -1.6661 0
M  V30 7180 C 671.148 1.90792 -0.402927 0
M  V30 7181 O 670.418 1.87042 0.582425 0
M  V30 7182 H 668.998 0.425275 -0.614125 0
M  V30 7183 H 671.66 0.455076 -1.89513 0
M  V30 7184 H 670.756 1.85298 -2.51139 0
M  V30 7185 N 671.057 1.43213 0.657864 0
M  V30 7186 C 672.287 1.478 1.44356 0
M  V30 7187 C 672.695 0.0930206 1.88971 0
M  V30 7188 O 672.038 -0.906089 1.59799 0
M  V30 7189 C 672.1 2.35745 2.71412 0
M  V30 7190 C 671.764 3.83359 2.48767 0
M  V30 7191 C 672.761 4.74585 2.12285 0
M  V30 7192 C 670.446 4.27799 2.63235 0
M  V30 7193 C 672.44 6.08247 1.90562 0
M  V30 7194 C 670.127 5.61516 2.41128 0
M  V30 7195 C 671.125 6.51557 2.04847 0
M  V30 7196 O 670.813 7.82802 1.82967 0
M  V30 7197 H 670.545 0.504363 0.450104 0
M  V30 7198 H 673.099 1.88572 0.814241 0
M  V30 7199 H 671.329 1.89852 3.36887 0
M  V30 7200 H 673.018 2.31589 3.33348 0
M  V30 7201 H 673.784 4.41531 2.00687 0
M  V30 7202 H 669.663 3.57993 2.90451 0
M  V30 7203 H 673.207 6.78489 1.62168 0
M  V30 7204 H 669.104 5.94139 2.52327 0
M  V30 7205 H 669.872 7.94332 1.97429 0
M  V30 7206 N 672.536 -0.895792 1.29666 0
M  V30 7207 C 673.483 -2.00035 1.15129 0
M  V30 7208 C 674.453 -1.66043 0.0435819 0
M  V30 7209 O 675.638 -1.89621 0.211811 0
M  V30 7210 C 672.778 -3.34774 0.83787 0
M  V30 7211 C 671.891 -3.81525 2.0264 0
M  V30 7212 C 671.026 -5.04858 1.65201 0
M  V30 7213 C 670.065 -5.43988 2.80612 0
M  V30 7214 N 669.202 -6.58507 2.43544 0
M  V30 7215 H 674.042 -2.11802 2.09628 0
M  V30 7216 H 671.579 -1.03719 1.04311 0
M  V30 7217 H 673.537 -4.12311 0.636824 0
M  V30 7218 H 672.167 -3.22724 -0.0702314 0
M  V30 7219 H 671.219 -2.9999 2.33903 0
M  V30 7220 H 672.531 -4.06472 2.89106 0
M  V30 7221 H 671.685 -5.8999 1.41408 0
M  V30 7222 H 670.424 -4.81759 0.758893 0
M  V30 7223 H 669.429 -4.57388 3.05083 0
M  V30 7224 H 670.654 -5.69066 3.70595 0
M  V30 7225 H 668.6 -6.37004 1.56724 0
M  V30 7226 H 668.517 -6.83269 3.23542 0
M  V30 7227 H 669.785 -7.46897 2.2308 0
M  V30 7228 N 674.014 -1.12206 -1.10668 0
M  V30 7229 C 675.291 -0.787382 -1.79052 0
M  V30 7230 C 675.671 0.723267 -1.98323 0
M  V30 7231 O 675.019 1.6561 -1.57434 0
M  V30 7232 C 675.229 -1.55968 -3.1221 0
M  V30 7233 C 676.577 -1.74413 -3.87125 0
M  V30 7234 O 677.601 -1.5246 -3.21923 0
M  V30 7235 O 676.46 -2.10952 -5.04144 0
M  V30 7236 H 673.554 -0.286137 -0.775922 0
M  V30 7237 H 676.1 -1.22595 -1.1734 0
M  V30 7238 H 674.872 -2.58692 -2.93588 0
M  V30 7239 H 674.495 -1.1152 -3.8164 0
M  V30 7240 N 675.492 1.28418 -0.913599 0
M  V30 7241 C 676.424 2.26368 -0.359169 0
M  V30 7242 C 677.437 1.54858 0.502285 0
M  V30 7243 O 678.626 1.75659 0.31719 0
M  V30 7244 C 675.726 3.35112 0.50526 0
M  V30 7245 C 674.899 4.36126 -0.333648 0
M  V30 7246 C 673.958 5.24134 0.465845 0
M  V30 7247 O 672.984 5.6907 -0.121538 0
M  V30 7248 N 674.186 5.52892 1.76891 0
M  V30 7249 H 676.951 2.74579 -1.2011 0
M  V30 7250 H 674.512 1.41898 -0.779532 0
M  V30 7251 H 676.504 3.90926 1.04684 0
M  V30 7252 H 675.074 2.86611 1.2479 0
M  V30 7253 H 674.294 3.79776 -1.0566 0
M  V30 7254 H 675.582 5.00638 -0.907669 0
M  V30 7255 H 674.98 5.18217 2.26865 0
M  V30 7256 H 673.537 6.11464 2.25732 0
M  V30 7257 N 676.97 0.677563 1.42291 0
M  V30 7258 C 678.381 0.277912 1.8462 0
M  V30 7259 C 678.732 -1.18048 1.56714 0
M  V30 7260 O 677.857 -1.90404 1.02836 0
M  V30 7261 C 678.452 0.497619 3.35126 0
M  V30 7262 C 677.011 0.152063 3.76093 0
M  V30 7263 C 676.158 0.78872 2.65847 0
M  V30 7264 H 679.109 0.879527 1.32098 0
M  V30 7265 H 679.13 -0.24939 3.79682 0
M  V30 7266 H 678.642 1.55913 3.55405 0
M  V30 7267 H 676.743 -0.905896 3.6142 0
M  V30 7268 H 676.856 0.594514 4.75397 0
M  V30 7269 H 675.22 0.219813 2.5375 0
M  V30 7270 H 676.003 1.85374 2.88949 0
M  V30 7271 N 678.448 -1.51871 0.421078 0
M  V30 7272 C 679.395 -2.27334 -0.398508 0
M  V30 7273 C 680.365 -1.30241 -1.03085 0
M  V30 7274 O 681.55 -1.59121 -1.05285 0
M  V30 7275 C 678.69 -3.10664 -1.50272 0
M  V30 7276 C 677.803 -4.2273 -0.890122 0
M  V30 7277 C 676.938 -4.93399 -1.96803 0
M  V30 7278 C 675.977 -5.97409 -1.333 0
M  V30 7279 N 675.114 -6.61548 -2.35156 0
M  V30 7280 H 679.954 -2.96938 0.251411 0
M  V30 7281 H 677.491 -1.46472 0.135825 0
M  V30 7282 H 679.449 -3.57292 -2.15403 0
M  V30 7283 H 678.079 -2.43207 -2.1225 0
M  V30 7284 H 677.131 -3.80186 -0.127537 0
M  V30 7285 H 678.443 -4.97302 -0.386349 0
M  V30 7286 H 677.597 -5.43491 -2.69633 0
M  V30 7287 H 676.336 -4.18421 -2.50549 0
M  V30 7288 H 675.341 -5.46624 -0.59008 0
M  V30 7289 H 676.566 -6.74335 -0.803076 0
M  V30 7290 H 674.512 -5.89394 -2.88012 0
M  V30 7291 H 674.429 -7.31832 -1.89624 0
M  V30 7292 H 675.697 -7.16276 -3.0752 0
M  V30 7293 N 679.926 -0.151884 -1.56866 0
M  V30 7294 C 680.874 0.80299 -2.183 0
M  V30 7295 C 681.868 1.25174 -1.14139 0
M  V30 7296 O 683.074 1.21966 -1.3238 0
M  V30 7297 H 679.449 0.277169 -0.699057 0
M  V30 7298 H 681.42 0.260699 -2.97259 0
M  V30 7299 C 680.169 2.03009 -2.82281 0
M  V30 7300 H 679.492 1.69377 -3.62148 0
M  V30 7301 H 680.932 2.67753 -3.28762 0
M  V30 7302 C 679.391 2.84123 -1.81041 0
M  V30 7303 O 679.921 3.8063 -1.28388 0
M  V30 7304 N 678.127 2.48753 -1.50234 0
M  V30 7305 H 677.674 1.70337 -1.93244 0
M  V30 7306 H 677.632 3.03316 -0.827445 0
M  V30 7307 N 681.404 1.57128 0.121893 0
M  V30 7308 C 682.314 2.03425 1.16857 0
M  V30 7309 C 683.33 0.954108 1.45509 0
M  V30 7310 O 684.506 1.26541 1.56682 0
M  V30 7311 C 681.571 2.42685 2.47599 0
M  V30 7312 C 680.632 3.64767 2.2637 0
M  V30 7313 C 679.865 4.02145 3.50878 0
M  V30 7314 O 680.088 3.39897 4.58068 0
M  V30 7315 O 679.022 4.95262 3.42051 0
M  V30 7316 H 682.848 2.92825 0.80544 0
M  V30 7317 H 680.433 1.45654 0.332477 0
M  V30 7318 H 682.315 2.68684 3.24634 0
M  V30 7319 H 680.99 1.56432 2.83392 0
M  V30 7320 H 679.897 3.43922 1.47203 0
M  V30 7321 H 681.23 4.51716 1.95482 0
M  V30 7322 N 682.882 -0.391992 1.52647 0
M  V30 7323 C 684.112 -1.15692 1.71169 0
M  V30 7324 C 684.52 -1.84285 0.428444 0
M  V30 7325 O 683.863 -1.73393 -0.606669 0
M  V30 7326 C 683.925 -2.25033 2.80357 0
M  V30 7327 C 683.589 -1.76433 4.21569 0
M  V30 7328 C 684.586 -1.2427 5.0483 0
M  V30 7329 C 682.271 -1.82746 4.67877 0
M  V30 7330 C 684.265 -0.790657 6.32477 0
M  V30 7331 C 681.952 -1.37153 5.9551 0
M  V30 7332 C 682.95 -0.853997 6.7764 0
M  V30 7333 O 682.638 -0.404708 8.02881 0
M  V30 7334 H 682.37 -0.35297 0.576531 0
M  V30 7335 H 684.924 -0.464994 2.00067 0
M  V30 7336 H 683.154 -2.97641 2.46874 0
M  V30 7337 H 684.843 -2.86718 2.87311 0
M  V30 7338 H 685.609 -1.18752 4.70237 0
M  V30 7339 H 681.488 -2.21971 4.04042 0
M  V30 7340 H 685.032 -0.386024 6.96531 0
M  V30 7341 H 680.929 -1.42356 6.29607 0
M  V30 7342 H 681.697 -0.526459 8.16805 0
M  V30 7343 N 684.36 -1.4356 -0.65026 0
M  V30 7344 C 685.308 -1.49219 -1.78427 0
M  V30 7345 C 686.302 -0.365528 -1.65409 0
M  V30 7346 O 687.508 -0.539649 -1.7172 0
M  V30 7347 H 683.883 -0.467858 -0.588738 0
M  V30 7348 H 685.854 -2.44701 -1.70774 0
M  V30 7349 C 684.603 -1.43519 -3.16698 0
M  V30 7350 H 683.926 -2.2952 -3.27354 0
M  V30 7351 H 685.366 -1.5154 -3.95995 0
M  V30 7352 C 683.825 -0.153197 -3.36552 0
M  V30 7353 O 684.355 0.784317 -3.93969 0
M  V30 7354 N 682.561 -0.0624402 -2.90533 0
M  V30 7355 H 682.108 -0.826172 -2.43992 0
M  V30 7356 H 682.066 0.794616 -3.04193 0
M  V30 7357 N 685.838 0.888903 -1.30139 0
M  V30 7358 C 687.063 1.67884 -1.21777 0
M  V30 7359 C 687.488 1.86848 0.216689 0
M  V30 7360 O 686.846 1.39659 1.15608 0
M  V30 7361 C 686.894 3.03483 -1.94757 0
M  V30 7362 O 685.998 3.92294 -1.27198 0
M  V30 7363 H 685.339 0.513144 -0.421402 0
M  V30 7364 H 687.869 1.10968 -1.71893 0
M  V30 7365 H 687.879 3.53553 -2.03627 0
M  V30 7366 H 686.554 2.89 -2.99085 0
M  V30 7367 H 685.131 3.50732 -1.26655 0
M  V30 7368 N 687.317 1.12792 1.10072 0
M  V30 7369 C 688.547 0.907189 1.85617 0
M  V30 7370 C 688.955 -0.547181 1.81115 0
M  V30 7371 O 688.298 -1.39024 1.20075 0
M  V30 7372 C 688.36 1.30872 3.34832 0
M  V30 7373 C 688.024 2.77516 3.6309 0
M  V30 7374 C 689.021 3.75696 3.59373 0
M  V30 7375 C 686.706 3.14513 3.91646 0
M  V30 7376 C 688.7 5.08888 3.83812 0
M  V30 7377 C 686.387 4.47886 4.15742 0
M  V30 7378 C 687.385 5.44882 4.11816 0
M  V30 7379 O 687.073 6.7585 4.35295 0
M  V30 7380 H 686.805 0.323855 0.593375 0
M  V30 7381 H 689.359 1.50262 1.40038 0
M  V30 7382 H 687.589 0.656518 3.81086 0
M  V30 7383 H 689.278 1.06153 3.91773 0
M  V30 7384 H 690.044 3.48458 3.37345 0
M  V30 7385 H 685.923 2.39622 3.93831 0
M  V30 7386 H 689.467 5.84586 3.80663 0
M  V30 7387 H 685.364 4.74851 4.37249 0
M  V30 7388 H 686.132 6.81853 4.52791 0
M  V30 7389 N 688.795 -1.27931 0.920396 0
M  V30 7390 C 690.211 -1.47085 0.619537 0
M  V30 7391 C 690.411 -1.83463 -0.833291 0
M  V30 7392 O 689.467 -1.94363 -1.61181 0
M  V30 7393 C 690.78 -2.56878 1.56314 0
M  V30 7394 C 692.328 -2.70743 1.57058 0
M  V30 7395 C 692.803 -3.83687 2.50097 0
M  V30 7396 N 694.294 -3.9105 2.48262 0
M  V30 7397 C 695.029 -4.77842 3.16945 0
M  V30 7398 N 694.525 -5.69176 3.94982 0
M  V30 7399 N 696.318 -4.71509 3.06 0
M  V30 7400 H 688.469 -1.02601 1.85975 0
M  V30 7401 H 690.732 -0.511682 0.798051 0
M  V30 7402 H 690.438 -2.36923 2.59923 0
M  V30 7403 H 690.312 -3.54117 1.29928 0
M  V30 7404 H 692.699 -2.90083 0.541832 0
M  V30 7405 H 692.78 -1.74015 1.8749 0
M  V30 7406 H 692.424 -3.65101 3.53077 0
M  V30 7407 H 692.354 -4.79827 2.16964 0
M  V30 7408 H 694.845 -3.25738 1.91581 0
M  V30 7409 H 695.158 -6.32245 4.44394 0
M  V30 7410 H 693.503 -5.68995 3.99086 0
M  V30 7411 H 696.694 -3.99151 2.44533 0
M  V30 7412 H 696.867 -5.38933 3.59799 0
M  V30 7413 N 690.273 -0.685099 -1.4193 0
M  V30 7414 C 691.521 -0.21124 -2.00993 0
M  V30 7415 C 691.842 1.18985 -1.54491 0
M  V30 7416 O 691.112 1.8009 -0.771 0
M  V30 7417 H 689.692 -0.0751059 -0.743215 0
M  V30 7418 H 692.354 -0.883915 -1.73704 0
M  V30 7419 H 691.45 -0.220513 -3.1132 0
M  V30 7420 N 691.751 1.51645 -0.429126 0
M  V30 7421 C 693.162 1.86665 0.0359003 0
M  V30 7422 C 693.513 1.34677 1.42676 0
M  V30 7423 O 692.638 0.694195 2.04963 0
M  V30 7424 C 693.233 3.38724 0.0719221 0
M  V30 7425 C 691.792 3.7331 0.481336 0
M  V30 7426 C 690.939 2.75313 -0.331329 0
M  V30 7427 H 693.89 1.44987 -0.645333 0
M  V30 7428 H 693.911 3.7011 0.883118 0
M  V30 7429 H 693.423 3.76532 -0.940495 0
M  V30 7430 H 691.524 3.41088 1.49966 0
M  V30 7431 H 691.637 4.78631 0.211837 0
M  V30 7432 H 690.001 2.53839 0.209204 0
M  V30 7433 H 690.784 3.15963 -1.34247 0
M  V30 7434 N 693.229 0.160201 1.56784 0
M  V30 7435 C 694.159 -0.770264 2.2043 0
M  V30 7436 C 695.14 -1.24736 1.15651 0
M  V30 7437 O 696.325 -1.30253 1.44041 0
M  V30 7438 C 693.455 -2.00427 2.83631 0
M  V30 7439 C 692.409 -1.66345 3.94352 0
M  V30 7440 C 691.735 -2.97119 4.4455 0
M  V30 7441 C 693.035 -0.899972 5.14488 0
M  V30 7442 H 694.729 -0.239783 2.98438 0
M  V30 7443 H 692.275 -0.113891 1.43549 0
M  V30 7444 H 694.228 -2.66012 3.26827 0
M  V30 7445 H 692.952 -2.5587 2.02973 0
M  V30 7446 H 691.611 -1.03133 3.51794 0
M  V30 7447 H 691.259 -3.5058 3.60698 0
M  V30 7448 H 690.959 -2.75073 5.19238 0
M  V30 7449 H 692.483 -3.63753 4.90425 0
M  V30 7450 H 693.897 -1.45818 5.54446 0
M  V30 7451 H 692.294 -0.778968 5.95023 0
M  V30 7452 H 693.364 0.105827 4.84785 0
M  V30 7453 N 694.707 -1.5719 -0.113559 0
M  V30 7454 C 695.935 -1.89328 -0.834422 0
M  V30 7455 C 696.35 -0.752018 -1.73177 0
M  V30 7456 O 695.707 0.276912 -1.80387 0
M  V30 7457 C 695.758 -3.20962 -1.66329 0
M  V30 7458 O 695.479 -4.30695 -0.802069 0
M  V30 7459 C 696.98 -3.6684 -2.48884 0
M  V30 7460 H 694.2 -0.626769 -0.239587 0
M  V30 7461 H 696.744 -2.04273 -0.0963195 0
M  V30 7462 H 694.899 -3.0767 -2.35409 0
M  V30 7463 H 695.313 -5.06175 -1.37431 0
M  V30 7464 H 696.787 -4.61692 -3.02563 0
M  V30 7465 H 697.264 -2.93765 -3.26495 0
M  V30 7466 H 697.87 -3.82938 -1.85036 0
M  V30 7467 N 696.185 0.383891 -1.52853 0
M  V30 7468 C 697.432 1.12842 -1.68146 0
M  V30 7469 C 697.76 1.89823 -0.423954 0
M  V30 7470 O 697.015 1.86475 0.593765 0
M  V30 7471 C 697.314 2.12881 -2.87082 0
M  V30 7472 C 696.98 1.52519 -4.24322 0
M  V30 7473 C 695.642 1.35783 -4.61645 0
M  V30 7474 C 697.994 1.0868 -5.09743 0
M  V30 7475 C 695.322 0.737643 -5.82044 0
M  V30 7476 C 697.674 0.480699 -6.30771 0
M  V30 7477 C 696.338 0.300681 -6.66822 0
M  V30 7478 H 695.608 0.412917 -0.615289 0
M  V30 7479 H 698.255 0.412416 -1.87006 0
M  V30 7480 H 696.56 2.90719 -2.62659 0
M  V30 7481 H 698.257 2.70408 -2.96109 0
M  V30 7482 H 694.847 1.66534 -3.94923 0
M  V30 7483 H 699.031 1.2041 -4.81472 0
M  V30 7484 H 694.287 0.586415 -6.08581 0
M  V30 7485 H 698.461 0.132733 -6.96273 0
M  V30 7486 H 696.088 -0.181966 -7.59982 0
M  V30 7487 N 697.663 1.43903 0.642637 0
M  V30 7488 C 699.079 1.27536 0.959519 0
M  V30 7489 C 699.279 0.202751 2.00477 0
M  V30 7490 O 698.335 -0.415256 2.49062 0
M  V30 7491 C 699.648 2.6432 1.43372 0
M  V30 7492 C 701.196 2.71937 1.54981 0
M  V30 7493 C 701.671 4.09164 2.05789 0
M  V30 7494 N 703.162 4.11282 2.13076 0
M  V30 7495 C 703.897 5.14303 2.53534 0
M  V30 7496 N 703.393 6.27693 2.93212 0
M  V30 7497 N 705.186 5.01657 2.53567 0
M  V30 7498 H 697.337 2.12344 -0.0488376 0
M  V30 7499 H 699.6 0.947124 0.0407559 0
M  V30 7500 H 699.306 3.43826 0.740048 0
M  V30 7501 H 699.18 2.90432 2.40685 0
M  V30 7502 H 701.567 1.92757 2.23448 0
M  V30 7503 H 701.648 2.49578 0.560739 0
M  V30 7504 H 701.292 4.88815 1.37921 0
M  V30 7505 H 701.222 4.28893 3.05546 0
M  V30 7506 H 703.713 3.2944 1.85143 0
M  V30 7507 H 704.026 7.02125 3.22863 0
M  V30 7508 H 702.371 6.31149 2.90991 0
M  V30 7509 H 705.562 4.12134 2.21952 0
M  V30 7510 H 705.735 5.82072 2.84774 0
M  V30 7511 N 699.141 -0.881989 1.30609 0
M  V30 7512 C 700.051 -2.02076 1.19174 0
M  V30 7513 C 701.067 -1.73645 0.11102 0
M  V30 7514 O 702.243 -1.98735 0.326528 0
M  V30 7515 C 699.308 -3.3515 0.887438 0
M  V30 7516 C 698.369 -3.76983 2.05383 0
M  V30 7517 C 697.602 -5.03707 1.76395 0
M  V30 7518 O 697.825 -5.66171 0.693302 0
M  V30 7519 O 696.759 -5.42019 2.61723 0
M  V30 7520 H 700.585 -2.14652 2.14845 0
M  V30 7521 H 698.17 -1.00843 1.10232 0
M  V30 7522 H 700.052 -4.14975 0.73306 0
M  V30 7523 H 698.727 -3.23676 -0.0393354 0
M  V30 7524 H 697.634 -2.97849 2.26355 0
M  V30 7525 H 698.967 -3.93066 2.96243 0
M  V30 7526 N 700.619 -1.13374 -1.09472 0
M  V30 7527 C 701.582 -0.813639 -2.14272 0
M  V30 7528 C 702.582 0.176677 -1.59826 0
M  V30 7529 O 703.772 -0.0503441 -1.74127 0
M  V30 7530 C 700.904 -0.210897 -3.40247 0
M  V30 7531 H 702.097 -1.74229 -2.44099 0
M  V30 7532 H 699.65 -0.938304 -1.25002 0
M  V30 7533 H 700.385 0.726998 -3.16046 0
M  V30 7534 H 700.17 -0.924048 -3.81056 0
M  V30 7535 H 701.66 -0.00377603 -4.176 0
M  V30 7536 N 702.098 1.27442 -0.927168 0
M  V30 7537 C 703.347 1.93679 -0.563146 0
M  V30 7538 C 703.66 1.73673 0.899837 0
M  V30 7539 O 704.866 2.34247 1.37262 0
M  V30 7540 C 703.322 3.46961 -0.95636 0
M  V30 7541 C 702.93 3.75724 -2.43999 0
M  V30 7542 C 704.674 4.19282 -0.663565 0
M  V30 7543 C 702.581 5.22378 -2.77263 0
M  V30 7544 H 701.511 0.725059 -0.206894 0
M  V30 7545 H 704.162 1.44743 -1.12791 0
M  V30 7546 H 702.544 3.94703 -0.320254 0
M  V30 7547 H 703.718 3.38741 -3.12396 0
M  V30 7548 H 702.033 3.16605 -2.70463 0
M  V30 7549 H 704.63 5.27265 -0.888596 0
M  V30 7550 H 704.973 4.14382 0.399198 0
M  V30 7551 H 705.506 3.7736 -1.25875 0
M  V30 7552 H 702.245 5.32367 -3.82446 0
M  V30 7553 H 701.765 5.6051 -2.13516 0
M  V30 7554 H 703.444 5.9025 -2.64979 0
M  V30 7555 N 703.576 0.692616 1.41565 0
M  V30 7556 C 704.523 0.0254264 2.30786 0
M  V30 7557 C 705.493 -0.774347 1.46946 0
M  V30 7558 O 706.678 -0.742981 1.7574 0
M  V30 7559 C 703.818 -0.907123 3.32964 0
M  V30 7560 C 702.931 -0.0992784 4.31886 0
M  V30 7561 C 702.066 -1.0292 5.21134 0
M  V30 7562 C 701.105 -0.214088 6.11725 0
M  V30 7563 N 700.242 -1.09766 6.93467 0
M  V30 7564 H 705.082 0.792036 2.87282 0
M  V30 7565 H 702.619 0.4023 1.41492 0
M  V30 7566 H 704.577 -1.46181 3.90752 0
M  V30 7567 H 703.207 -1.64016 2.78026 0
M  V30 7568 H 702.259 0.572287 3.76071 0
M  V30 7569 H 703.571 0.532782 4.95946 0
M  V30 7570 H 702.725 -1.65321 5.83741 0
M  V30 7571 H 701.464 -1.69512 4.57293 0
M  V30 7572 H 700.469 0.42302 5.4817 0
M  V30 7573 H 701.694 0.447995 6.77621 0
M  V30 7574 H 699.64 -1.74965 6.32237 0
M  V30 7575 H 699.557 -0.521099 7.54202 0
M  V30 7576 H 700.825 -1.70858 7.60544 0
M  V30 7577 N 705.054 -1.51416 0.437162 0
M  V30 7578 C 706.303 -2.01275 -0.130865 0
M  V30 7579 C 706.616 -1.32593 -1.438 0
M  V30 7580 O 707.822 -1.7342 -2.08897 0
M  V30 7581 C 706.278 -3.5878 -0.283763 0
M  V30 7582 C 705.886 -4.36399 1.01293 0
M  V30 7583 C 707.63 -4.16786 -0.805569 0
M  V30 7584 C 705.537 -5.85608 0.825687 0
M  V30 7585 H 704.467 -0.752157 -0.0526818 0
M  V30 7586 H 707.118 -1.74524 0.566896 0
M  V30 7587 H 705.5 -3.81976 -1.04452 0
M  V30 7588 H 706.674 -4.24948 1.78201 0
M  V30 7589 H 704.989 -3.89843 1.46326 0
M  V30 7590 H 707.586 -5.25972 -0.962146 0
M  V30 7591 H 707.929 -3.75949 -1.78796 0
M  V30 7592 H 708.462 -3.97666 -0.103125 0
M  V30 7593 H 705.201 -6.30857 1.78045 0
M  V30 7594 H 704.721 -5.99723 0.0964029 0
M  V30 7595 H 706.4 -6.45226 0.478815 0
M  V30 7596 N 706.532 -0.168513 -1.56696 0
M  V30 7597 C 707.757 0.486688 -2.01609 0
M  V30 7598 C 708.182 1.56203 -1.04796 0
M  V30 7599 O 707.54 1.8128 -0.0270596 0
M  V30 7600 C 707.588 1.04451 -3.45141 0
M  V30 7601 O 706.692 2.15862 -3.51393 0
M  V30 7602 H 706.033 0.116831 -0.653641 0
M  V30 7603 H 708.563 -0.271579 -2.0279 0
M  V30 7604 H 708.573 1.36782 -3.84389 0
M  V30 7605 H 707.248 0.257155 -4.15104 0
M  V30 7606 H 705.825 1.84597 -3.24004 0
M  V30 7607 N 708.01 1.57248 0.105221 0
M  V30 7608 C 709.235 1.90143 0.828264 0
M  V30 7609 C 709.66 0.761811 1.71983 0
M  V30 7610 O 709.018 -0.287086 1.79013 0
M  V30 7611 C 709.066 3.21856 1.62608 0
M  V30 7612 O 708.17 3.08732 2.7342 0
M  V30 7613 H 707.511 0.623558 0.228192 0
M  V30 7614 H 710.041 2.0443 0.0834826 0
M  V30 7615 H 710.051 3.54916 2.01243 0
M  V30 7616 H 708.726 4.0439 0.971687 0
M  V30 7617 H 707.303 2.87167 2.37886 0
M  V30 7618 N 709.488 -0.375779 1.53054 0
M  V30 7619 C 710.436 -1.48015 1.79428 0
M  V30 7620 C 711.43 -1.55893 0.662854 0
M  V30 7621 O 712.636 -1.58901 0.845599 0
M  V30 7622 H 709.011 -0.492887 0.56795 0
M  V30 7623 H 710.982 -1.22971 2.71884 0
M  V30 7624 C 709.731 -2.84984 1.99197 0
M  V30 7625 H 709.054 -2.79677 2.85693 0
M  V30 7626 H 710.494 -3.61462 2.21633 0
M  V30 7627 C 708.953 -3.28025 0.768183 0
M  V30 7628 O 709.483 -4.01671 -0.0480482 0
M  V30 7629 N 707.689 -2.84454 0.594521 0
M  V30 7630 H 707.236 -2.24688 1.25988 0
M  V30 7631 H 707.194 -3.13609 -0.222916 0
M  V30 7632 N 710.966 -1.44241 -0.634997 0
M  V30 7633 C 711.896 -1.53632 -1.7584 0
M  V30 7634 C 712.877 -0.389603 -1.65578 0
M  V30 7635 O 714.062 -0.609219 -1.84397 0
M  V30 7636 C 711.192 -1.47644 -3.14354 0
M  V30 7637 C 710.146 -2.60752 -3.394 0
M  V30 7638 C 709.472 -2.39817 -4.77904 0
M  V30 7639 C 710.772 -4.02921 -3.32343 0
M  V30 7640 H 712.466 -2.47662 -1.68238 0
M  V30 7641 H 710.012 -1.19197 -0.807969 0
M  V30 7642 H 711.965 -1.52815 -3.92716 0
M  V30 7643 H 710.689 -0.501284 -3.2273 0
M  V30 7644 H 709.348 -2.54965 -2.63417 0
M  V30 7645 H 708.996 -1.40502 -4.82978 0
M  V30 7646 H 708.696 -3.15649 -4.9562 0
M  V30 7647 H 710.22 -2.46799 -5.585 0
M  V30 7648 H 711.634 -4.10098 -4.00615 0
M  V30 7649 H 710.031 -4.78925 -3.61595 0
M  V30 7650 H 711.101 -4.26766 -2.30215 0
M  V30 7651 N 712.444 0.87505 -1.31075 0
M  V30 7652 C 713.407 1.96333 -1.18263 0
M  V30 7653 C 714.407 1.60416 -0.111106 0
M  V30 7654 O 715.597 1.7044 -0.359987 0
M  V30 7655 C 712.729 3.31036 -0.81414 0
M  V30 7656 H 713.922 2.09125 -2.14958 0
M  V30 7657 H 711.475 1.06271 -1.14614 0
M  V30 7658 H 712.21 3.23944 0.151875 0
M  V30 7659 H 711.995 3.58476 -1.58862 0
M  V30 7660 H 713.485 4.10842 -0.748249 0
M  V30 7661 N 713.922 1.13953 1.08869 0
M  V30 7662 C 714.885 0.824991 2.13838 0
M  V30 7663 C 715.885 -0.168198 1.59918 0
M  V30 7664 O 717.075 0.0595778 1.74098 0
M  V30 7665 C 714.207 0.228938 3.4013 0
M  V30 7666 H 715.4 1.75521 2.43171 0
M  V30 7667 H 712.953 0.94492 1.24503 0
M  V30 7668 H 713.688 -0.710227 3.16427 0
M  V30 7669 H 713.473 0.944243 3.80561 0
M  V30 7670 H 714.963 0.0259223 4.17592 0
M  V30 7671 N 715.4 -1.26948 0.933913 0
M  V30 7672 C 716.649 -1.93378 0.573409 0
M  V30 7673 C 716.962 -1.74148 -0.890614 0
M  V30 7674 O 718.168 -2.34971 -1.36017 0
M  V30 7675 C 716.624 -3.46449 0.974747 0
M  V30 7676 C 716.232 -3.74425 2.45988 0
M  V30 7677 C 717.976 -4.18924 0.685791 0
M  V30 7678 C 715.883 -5.209 2.8003 0
M  V30 7679 H 714.813 -0.723952 0.210736 0
M  V30 7680 H 717.464 -1.44143 1.13557 0
M  V30 7681 H 715.846 -3.94528 0.341181 0
M  V30 7682 H 717.02 -3.37079 3.14188 0
M  V30 7683 H 715.335 -3.15167 2.72138 0
M  V30 7684 H 717.932 -5.26786 0.916546 0
M  V30 7685 H 718.275 -4.14587 -0.377217 0
M  V30 7686 H 718.808 -3.76687 1.27874 0
M  V30 7687 H 715.547 -5.30332 3.85264 0
M  V30 7688 H 715.067 -5.59369 2.16485 0
M  V30 7689 H 716.746 -5.88837 2.68105 0
M  V30 7690 N 716.879 -0.700114 -1.41195 0
M  V30 7691 C 717.826 -0.0376652 -2.30769 0
M  V30 7692 C 718.796 0.766544 -1.47354 0
M  V30 7693 O 719.981 0.73365 -1.76131 0
M  V30 7694 C 717.121 0.889452 -3.33441 0
M  V30 7695 C 716.234 0.076373 -4.31932 0
M  V30 7696 C 715.369 1.00155 -5.21673 0
M  V30 7697 C 714.408 0.181644 -6.1183 0
M  V30 7698 N 713.545 1.06087 -6.94039 0
M  V30 7699 H 718.385 -0.80726 -2.86858 0
M  V30 7700 H 715.922 -0.409798 -1.41277 0
M  V30 7701 H 717.88 1.44107 -3.91522 0
M  V30 7702 H 716.51 1.6254 -2.78892 0
M  V30 7703 H 715.562 -0.592223 -3.75762 0
M  V30 7704 H 716.874 -0.559076 -4.95657 0
M  V30 7705 H 716.028 1.62223 -5.8461 0
M  V30 7706 H 714.767 1.67085 -4.58186 0
M  V30 7707 H 713.772 -0.452085 -5.47938 0
M  V30 7708 H 714.997 -0.483925 -6.77374 0
M  V30 7709 H 712.943 1.7161 -6.33156 0
M  V30 7710 H 712.86 0.481094 -7.54468 0
M  V30 7711 H 714.128 1.66822 -7.6144 0
M  V30 7712 N 718.357 1.51182 -0.445186 0
M  V30 7713 C 719.603 2.02452 0.11882 0
M  V30 7714 C 719.936 1.32824 1.41673 0
M  V30 7715 O 719.211 0.445637 1.89326 0
M  V30 7716 C 719.494 3.5859 0.329475 0
M  V30 7717 C 719.347 4.38823 -0.987638 0
M  V30 7718 C 720.666 4.26241 1.09575 0
M  V30 7719 H 717.785 0.735819 0.0417092 0
M  V30 7720 H 720.427 1.80747 -0.585718 0
M  V30 7721 H 718.577 3.77214 0.9296 0
M  V30 7722 H 720.249 4.3183 -1.62235 0
M  V30 7723 H 718.492 4.03594 -1.59041 0
M  V30 7724 H 719.163 5.46257 -0.794192 0
M  V30 7725 H 721.639 4.11934 0.587328 0
M  V30 7726 H 720.515 5.35354 1.21191 0
M  V30 7727 H 720.776 3.87635 2.12584 0
M  V30 7728 N 719.835 0.176821 1.56605 0
M  V30 7729 C 720.798 -0.737429 2.17013 0
M  V30 7730 C 721.798 -1.15414 1.11965 0
M  V30 7731 O 722.988 -1.0702 1.37449 0
M  V30 7732 C 720.12 -2.00445 2.75744 0
M  V30 7733 H 721.313 -0.211455 2.99154 0
M  V30 7734 H 718.866 -0.0727582 1.56131 0
M  V30 7735 H 719.601 -2.57338 1.97352 0
M  V30 7736 H 719.386 -1.71456 3.52626 0
M  V30 7737 H 720.876 -2.65679 3.22187 0
M  V30 7738 N 721.313 -1.57302 -0.09688 0
M  V30 7739 C 722.261 -2.02942 -1.13654 0
M  V30 7740 C 723.255 -0.930173 -1.41577 0
M  V30 7741 O 724.461 -1.11535 -1.41279 0
M  V30 7742 H 720.836 -0.646726 -0.383731 0
M  V30 7743 H 722.807 -2.89452 -0.725267 0
M  V30 7744 C 721.556 -2.46815 -2.44903 0
M  V30 7745 H 720.879 -3.30979 -2.24261 0
M  V30 7746 H 722.319 -2.82527 -3.16156 0
M  V30 7747 C 720.778 -1.34071 -3.09074 0
M  V30 7748 O 721.308 -0.668856 -3.96092 0
M  V30 7749 N 719.514 -1.09214 -2.69296 0
M  V30 7750 H 719.061 -1.64029 -1.98626 0
M  V30 7751 H 719.019 -0.339785 -3.12559 0
M  V30 7752 N 722.791 0.367657 -1.53252 0
M  V30 7753 C 723.701 1.47415 -1.82499 0
M  V30 7754 C 724.717 1.58711 -0.713222 0
M  V30 7755 O 725.893 1.74644 -1.00306 0
M  V30 7756 C 722.958 2.82706 -2.00694 0
M  V30 7757 C 722.019 2.80955 -3.24596 0
M  V30 7758 C 721.252 4.09793 -3.41914 0
M  V30 7759 O 721.475 5.05852 -2.63572 0
M  V30 7760 O 720.409 4.15731 -4.3526 0
M  V30 7761 H 724.235 1.25624 -2.765 0
M  V30 7762 H 721.82 0.557559 -1.38606 0
M  V30 7763 H 723.702 3.62873 -2.14246 0
M  V30 7764 H 722.377 3.04479 -1.09883 0
M  V30 7765 H 721.284 1.99494 -3.16469 0
M  V30 7766 H 722.617 2.64136 -4.15323 0
M  V30 7767 N 724.269 1.44576 0.627338 0
M  V30 7768 C 725.515 1.47777 1.38888 0
M  V30 7769 C 725.848 0.111406 1.9388 0
M  V30 7770 O 725.123 -0.87149 1.73883 0
M  V30 7771 C 725.406 2.54119 2.55138 0
M  V30 7772 C 725.259 4.00128 2.0547 0
M  V30 7773 C 726.578 2.56929 3.57317 0
M  V30 7774 H 723.697 0.538048 0.50366 0
M  V30 7775 H 726.339 1.76277 0.708978 0
M  V30 7776 H 724.489 2.29948 3.13139 0
M  V30 7777 H 726.161 4.35444 1.5227 0
M  V30 7778 H 724.404 4.11724 1.36623 0
M  V30 7779 H 725.075 4.7019 2.89181 0
M  V30 7780 H 727.551 2.78536 3.09122 0
M  V30 7781 H 726.427 3.33234 4.36173 0
M  V30 7782 H 726.688 1.6127 4.11636 0
M  V30 7783 N 725.747 -0.868086 1.31537 0
M  V30 7784 C 726.995 -1.61807 1.21091 0
M  V30 7785 C 727.316 -1.93631 -0.230623 0
M  V30 7786 O 726.586 -1.5846 -1.15183 0
M  V30 7787 H 725.166 -0.599854 0.445178 0
M  V30 7788 H 727.828 -1.03915 1.64887 0
M  V30 7789 H 726.924 -2.56088 1.78396 0
M  V30 7790 N 727.225 -1.14528 -1.08264 0
M  V30 7791 C 728.471 -0.91576 -1.80947 0
M  V30 7792 C 728.804 0.55623 -1.86064 0
M  V30 7793 O 728.079 1.41207 -1.33756 0
M  V30 7794 C 728.362 -1.51917 -3.26486 0
M  V30 7795 C 728.215 -3.06111 -3.2957 0
M  V30 7796 C 729.534 -1.19724 -4.23502 0
M  V30 7797 H 726.653 -0.334113 -0.656915 0
M  V30 7798 H 729.295 -1.41547 -1.26746 0
M  V30 7799 H 727.445 -1.0942 -3.72773 0
M  V30 7800 H 729.117 -3.57448 -2.91597 0
M  V30 7801 H 727.36 -3.40483 -2.688 0
M  V30 7802 H 728.031 -3.43438 -4.32151 0
M  V30 7803 H 730.507 -1.56467 -3.85561 0
M  V30 7804 H 729.383 -1.64575 -5.23647 0
M  V30 7805 H 729.644 -0.112771 -4.41956 0
M  V30 7806 N 728.703 1.26451 -0.940633 0
M  V30 7807 C 729.928 1.98407 -0.60412 0
M  V30 7808 C 730.353 1.69584 0.81382 0
M  V30 7809 O 729.711 0.943553 1.54812 0
M  V30 7810 C 729.759 3.50387 -0.852136 0
M  V30 7811 O 728.863 4.1233 0.076013 0
M  V30 7812 H 728.204 0.622466 -0.231153 0
M  V30 7813 H 730.734 1.60932 -1.26342 0
M  V30 7814 H 730.744 4.00614 -0.772816 0
M  V30 7815 H 729.419 3.70696 -1.88566 0
M  V30 7816 H 727.996 3.7286 -0.0543187 0
M  V30 7817 N 730.181 0.707592 1.40822 0
M  V30 7818 C 731.129 0.0386643 2.32568 0
M  V30 7819 C 732.123 -0.755653 1.51612 0
M  V30 7820 O 733.329 -0.659921 1.67467 0
M  V30 7821 H 729.704 -0.00629912 0.751974 0
M  V30 7822 H 731.675 0.8293 2.86645 0
M  V30 7823 C 730.424 -0.87496 3.36511 0
M  V30 7824 H 729.747 -0.273157 3.98866 0
M  V30 7825 H 731.187 -1.31111 4.03219 0
M  V30 7826 C 729.646 -1.99672 2.71353 0
M  V30 7827 O 730.176 -3.08676 2.57064 0
M  V30 7828 N 728.382 -1.77799 2.29861 0
M  V30 7829 H 727.929 -0.89147 2.41683 0
M  V30 7830 H 727.887 -2.53036 1.86601 0
M  V30 7831 N 731.66 -1.50943 0.453197 0
M  V30 7832 C 732.885 -2.07116 -0.108463 0
M  V30 7833 C 733.31 -1.31681 -1.3432 0
M  V30 7834 O 732.668 -0.359256 -1.77705 0
M  V30 7835 C 732.716 -3.58447 -0.393424 0
M  V30 7836 O 731.82 -3.85038 -1.47714 0
M  V30 7837 H 731.161 -0.66398 0.0050993 0
M  V30 7838 H 733.691 -1.94362 0.639095 0
M  V30 7839 H 733.701 -4.02961 -0.639222 0
M  V30 7840 H 732.376 -4.12774 0.508946 0
M  V30 7841 H 730.953 -3.52376 -1.22006 0
M  V30 7842 N 733.138 -0.185124 -1.56509 0
M  V30 7843 C 734.387 0.456421 -1.96468 0
M  V30 7844 C 734.7 1.63448 -1.07444 0
M  V30 7845 O 735.906 2.34316 -1.37143 0
M  V30 7846 C 734.362 0.863404 -3.4939 0
M  V30 7847 C 733.97 -0.289815 -4.47062 0
M  V30 7848 C 735.714 1.47259 -3.98139 0
M  V30 7849 C 733.621 0.137571 -5.9124 0
M  V30 7850 H 732.551 0.17429 -0.733579 0
M  V30 7851 H 735.202 -0.275554 -1.81419 0
M  V30 7852 H 733.584 1.65176 -3.59907 0
M  V30 7853 H 734.758 -1.06728 -4.4827 0
M  V30 7854 H 733.073 -0.809851 -4.08449 0
M  V30 7855 H 735.67 1.80463 -5.03326 0
M  V30 7856 H 736.013 2.3755 -3.41871 0
M  V30 7857 H 736.546 0.748405 -3.90696 0
M  V30 7858 H 733.285 -0.730907 -6.51412 0
M  V30 7859 H 732.805 0.8801 -5.93308 0
M  V30 7860 H 734.484 0.576771 -6.44424 0
M  V30 7861 N 734.616 1.57351 0.0885366 0
M  V30 7862 C 735.579 2.01557 1.09121 0
M  V30 7863 C 736.579 0.910052 1.3257 0
M  V30 7864 O 737.769 1.17537 1.28572 0
M  V30 7865 C 734.901 2.38189 2.43883 0
M  V30 7866 H 736.094 2.91361 0.710562 0
M  V30 7867 H 733.647 1.52694 0.333779 0
M  V30 7868 H 734.382 1.5136 2.86811 0
M  V30 7869 H 734.167 3.18846 2.28209 0
M  V30 7870 H 735.657 2.73025 3.15986 0
M  V30 7871 N 736.094 -0.359525 1.53444 0
M  V30 7872 C 737.324 -1.12036 1.73585 0
M  V30 7873 C 737.732 -1.83335 0.467438 0
M  V30 7874 O 737.075 -1.74641 -0.569753 0
M  V30 7875 C 737.137 -2.19036 2.85068 0
M  V30 7876 C 736.801 -1.67451 4.25217 0
M  V30 7877 C 737.798 -1.13534 5.07352 0
M  V30 7878 C 735.483 -1.72781 4.71648 0
M  V30 7879 C 737.477 -0.656321 6.34012 0
M  V30 7880 C 735.164 -1.2449 5.98285 0
M  V30 7881 C 736.162 -0.710068 6.79299 0
M  V30 7882 O 735.85 -0.234314 8.03558 0
M  V30 7883 H 735.582 -0.340662 0.583888 0
M  V30 7884 H 738.136 -0.422452 2.01009 0
M  V30 7885 H 736.366 -2.92338 2.53131 0
M  V30 7886 H 738.055 -2.80559 2.93328 0
M  V30 7887 H 738.821 -1.08751 4.7265 0
M  V30 7888 H 734.7 -2.13351 4.08659 0
M  V30 7889 H 738.244 -0.238193 6.97193 0
M  V30 7890 H 734.141 -1.28969 6.32485 0
M  V30 7891 H 734.909 -0.353084 8.17738 0
M  V30 7892 N 737.572 -1.44907 -0.619662 0
M  V30 7893 C 738.82 -1.47999 -1.37625 0
M  V30 7894 C 739.141 -0.118295 -1.94641 0
M  V30 7895 O 738.411 0.85086 -1.76457 0
M  V30 7896 H 736.991 -0.544993 -0.510873 0
M  V30 7897 H 739.653 -1.80772 -0.728522 0
M  V30 7898 H 738.749 -2.21196 -2.20179 0
M  V30 7899 N 739.05 0.861098 -1.31996 0
M  V30 7900 C 739.96 2.00154 -1.22374 0
M  V30 7901 C 740.976 1.73447 -0.138631 0
M  V30 7902 O 742.152 1.98191 -0.358104 0
M  V30 7903 C 739.217 3.33696 -0.940645 0
M  V30 7904 C 738.278 3.73668 -2.11355 0
M  V30 7905 C 737.511 5.00837 -1.84386 0
M  V30 7906 O 737.734 5.64996 -0.783287 0
M  V30 7907 O 736.668 5.37787 -2.70313 0
M  V30 7908 H 740.494 2.11207 -2.18233 0
M  V30 7909 H 738.079 0.990768 -1.11822 0
M  V30 7910 H 739.961 4.13756 -0.798987 0
M  V30 7911 H 738.636 3.23698 -0.0121636 0
M  V30 7912 H 737.543 2.94211 -2.31065 0
M  V30 7913 H 738.876 3.88303 -3.02459 0
M  V30 7914 N 740.528 1.15101 1.07655 0
M  V30 7915 C 741.475 0.844958 2.14777 0
M  V30 7916 C 742.445 -0.200798 1.64882 0
M  V30 7917 O 743.63 -0.0690278 1.90675 0
M  V30 7918 C 740.77 0.337018 3.4345 0
M  V30 7919 C 739.883 1.44398 4.07153 0
M  V30 7920 C 739.018 0.892487 5.23649 0
M  V30 7921 C 738.057 1.9766 5.79307 0
M  V30 7922 N 737.194 1.44171 6.87138 0
M  V30 7923 H 742.034 1.76242 2.40297 0
M  V30 7924 H 739.571 0.879435 1.17917 0
M  V30 7925 H 741.529 0.024256 4.17193 0
M  V30 7926 H 740.159 -0.543531 3.18191 0
M  V30 7927 H 739.211 1.87299 3.31094 0
M  V30 7928 H 740.523 2.26262 4.4453 0
M  V30 7929 H 739.677 0.532083 6.04362 0
M  V30 7930 H 738.416 0.0429854 4.87681 0
M  V30 7931 H 737.421 2.34586 4.97242 0
M  V30 7932 H 738.646 2.82982 6.17331 0
M  V30 7933 H 736.592 0.614518 6.53115 0
M  V30 7934 H 736.509 2.19665 7.23383 0
M  V30 7935 H 737.777 1.10945 7.71564 0
M  V30 7936 N 742.006 -1.2595 0.947325 0
M  V30 7937 C 742.936 -2.28521 0.479604 0
M  V30 7938 C 743.917 -1.63469 -0.470293 0
M  V30 7939 O 745.102 -1.90627 -0.370824 0
M  V30 7940 C 742.232 -3.46397 -0.250289 0
M  V30 7941 C 741.186 -4.23578 0.613643 0
M  V30 7942 C 740.512 -5.34131 -0.246568 0
M  V30 7943 C 741.812 -4.86979 1.88809 0
M  V30 7944 H 743.506 -2.67895 1.33688 0
M  V30 7945 H 741.052 -1.28783 0.644274 0
M  V30 7946 H 743.005 -4.17269 -0.588576 0
M  V30 7947 H 741.729 -3.05993 -1.14175 0
M  V30 7948 H 740.388 -3.54478 0.93491 0
M  V30 7949 H 740.036 -4.89968 -1.13756 0
M  V30 7950 H 739.736 -5.86683 0.328123 0
M  V30 7951 H 741.26 -6.07839 -0.579986 0
M  V30 7952 H 742.674 -5.50034 1.61666 0
M  V30 7953 H 741.071 -5.49675 2.40784 0
M  V30 7954 H 742.141 -4.09575 2.5957 0
M  V30 7955 N 743.484 -0.715051 -1.40445 0
M  V30 7956 C 744.732 -0.253826 -2.005 0
M  V30 7957 C 745.053 1.15681 -1.5698 0
M  V30 7958 O 744.323 1.78414 -0.809027 0
M  V30 7959 H 742.903 -0.0908537 -0.741454 0
M  V30 7960 H 745.565 -0.920561 -1.7179 0
M  V30 7961 H 744.661 -0.286499 -3.10782 0
M  V30 7962 N 744.962 1.50701 -0.461195 0
M  V30 7963 C 745.892 2.31182 0.328184 0
M  V30 7964 C 746.873 1.37644 0.999408 0
M  V30 7965 O 748.058 1.66565 0.99848 0
M  V30 7966 C 745.188 3.17113 1.41621 0
M  V30 7967 C 744.142 4.19124 0.867148 0
M  V30 7968 C 743.468 4.93728 2.05272 0
M  V30 7969 C 744.768 5.22174 -0.114808 0
M  V30 7970 H 746.462 2.97423 -0.343501 0
M  V30 7971 H 744.008 1.43033 -0.166641 0
M  V30 7972 H 745.961 3.72208 1.97584 0
M  V30 7973 H 744.685 2.48739 2.11652 0
M  V30 7974 H 743.344 3.65116 0.329557 0
M  V30 7975 H 742.992 4.21835 2.73978 0
M  V30 7976 H 742.692 5.62724 1.69161 0
M  V30 7977 H 744.216 5.51654 2.61744 0
M  V30 7978 H 745.63 5.72198 0.355316 0
M  V30 7979 H 744.027 5.98833 -0.389689 0
M  V30 7980 H 745.097 4.7353 -1.04391 0
M  V30 7981 N 746.441 0.193421 1.56409 0
M  V30 7982 C 747.687 -0.446449 1.97825 0
M  V30 7983 C 748.02 -1.61386 1.08019 0
M  V30 7984 O 747.295 -1.94053 0.131839 0
M  V30 7985 C 747.578 -0.908199 3.48459 0
M  V30 7986 C 747.431 0.260914 4.49043 0
M  V30 7987 C 748.75 -1.77428 4.0275 0
M  V30 7988 H 745.869 -0.160807 0.719243 0
M  V30 7989 H 748.511 0.284006 1.87865 0
M  V30 7990 H 746.661 -1.53062 3.57077 0
M  V30 7991 H 748.333 0.898548 4.52464 0
M  V30 7992 H 746.576 0.912949 4.24085 0
M  V30 7993 H 747.247 -0.104657 5.51901 0
M  V30 7994 H 749.723 -1.24936 3.96901 0
M  V30 7995 H 748.599 -2.06633 5.08521 0
M  V30 7996 H 748.86 -2.72788 3.47907 0
M  V30 7997 N 747.919 -1.57396 -0.0801906 0
M  V30 7998 C 749.149 -1.90778 -0.792924 0
M  V30 7999 C 749.557 -0.786814 -1.72064 0
M  V30 8000 O 748.9 0.249259 -1.82001 0
M  V30 8001 C 748.962 -3.19552 -1.64702 0
M  V30 8002 C 748.626 -4.48259 -0.889567 0
M  V30 8003 C 749.623 -5.19465 -0.212602 0
M  V30 8004 C 747.308 -4.94896 -0.859229 0
M  V30 8005 C 749.302 -6.35555 0.484566 0
M  V30 8006 C 746.989 -6.10895 -0.158284 0
M  V30 8007 C 747.987 -6.81075 0.512421 0
M  V30 8008 O 747.675 -7.94862 1.20209 0
M  V30 8009 H 747.407 -0.63527 -0.231103 0
M  V30 8010 H 749.961 -2.0532 -0.0573081 0
M  V30 8011 H 748.191 -3.01196 -2.42524 0
M  V30 8012 H 749.88 -3.38649 -2.23767 0
M  V30 8013 H 750.646 -4.84467 -0.227403 0
M  V30 8014 H 746.525 -4.4015 -1.37073 0
M  V30 8015 H 750.069 -6.9027 1.00864 0
M  V30 8016 H 745.966 -6.45345 -0.141381 0
M  V30 8017 H 746.734 -8.10932 1.11051 0
M  V30 8018 N 749.397 0.351382 -1.53633 0
M  V30 8019 C 750.645 1.09034 -1.70165 0
M  V30 8020 C 750.966 1.89413 -0.463422 0
M  V30 8021 O 750.236 1.888 0.522624 0
M  V30 8022 H 748.816 0.405522 -0.627344 0
M  V30 8023 H 751.478 0.394554 -1.90865 0
M  V30 8024 H 750.574 1.77215 -2.56907 0
M  V30 8025 N 750.875 1.45233 0.611969 0
M  V30 8026 C 752.286 1.4354 1.19387 0
M  V30 8027 C 752.637 0.160713 1.95541 0
M  V30 8028 O 751.762 -0.737954 2.03429 0
M  V30 8029 C 752.357 2.60045 2.17169 0
M  V30 8030 C 750.916 2.61486 2.70744 0
M  V30 8031 C 750.063 2.35708 1.46072 0
M  V30 8032 H 753.014 1.53536 0.401529 0
M  V30 8033 H 753.035 2.33893 3.00124 0
M  V30 8034 H 752.547 3.52803 1.61714 0
M  V30 8035 H 750.648 1.72721 3.30149 0
M  V30 8036 H 750.761 3.60572 3.15476 0
M  V30 8037 H 749.125 1.85178 1.74875 0
M  V30 8038 H 749.908 3.30606 0.924922 0
M  V30 8039 N 752.353 -0.854086 1.3245 0
M  V30 8040 C 753.303 -1.9508 1.18016 0
M  V30 8041 C 754.287 -1.60665 0.0869417 0
M  V30 8042 O 755.479 -1.74201 0.313505 0
M  V30 8043 C 752.608 -3.3113 0.905961 0
M  V30 8044 C 751.694 -3.71763 2.04091 0
M  V30 8045 N 752.085 -3.84218 3.28953 0
M  V30 8046 C 750.383 -4.01393 1.94421 0
M  V30 8047 C 751.084 -4.192 4.03294 0
M  V30 8048 N 750.06 -4.30749 3.31596 0
M  V30 8049 H 753.862 -2.02843 2.12678 0
M  V30 8050 H 751.376 -1.04588 1.24238 0
M  V30 8051 H 753.373 -4.09471 0.783508 0
M  V30 8052 H 752.033 -3.24684 -0.0322715 0
M  V30 8053 H 753.044 -3.68524 3.63883 0
M  V30 8054 H 749.721 -4.03246 1.08162 0
M  V30 8055 H 751.111 -4.36301 5.1097 0
M  V30 8056 N 753.831 -1.1567 -1.07043 0
M  V30 8057 C 755.056 -0.957946 -1.83952 0
M  V30 8058 C 755.481 0.488807 -1.81638 0
M  V30 8059 O 754.839 1.34869 -1.21162 0
M  V30 8060 C 754.887 -1.48064 -3.288 0
M  V30 8061 O 753.991 -0.681921 -4.06723 0
M  V30 8062 H 753.332 -0.341453 -0.569479 0
M  V30 8063 H 755.862 -1.53728 -1.35015 0
M  V30 8064 H 755.872 -1.49484 -3.7963 0
M  V30 8065 H 754.547 -2.53388 -3.29799 0
M  V30 8066 H 753.124 -0.737612 -3.65532 0
M  V30 8067 N 755.309 1.25446 -0.953992 0
M  V30 8068 C 756.725 1.4539 -0.658316 0
M  V30 8069 C 756.925 1.85607 0.784356 0
M  V30 8070 O 755.981 1.98568 1.55972 0
M  V30 8071 C 757.294 2.52643 -1.6307 0
M  V30 8072 C 758.842 2.66484 -1.64181 0
M  V30 8073 C 759.317 3.76921 -2.60182 0
M  V30 8074 N 760.808 3.84331 -2.58542 0
M  V30 8075 C 761.543 4.69271 -3.29503 0
M  V30 8076 N 761.039 5.58503 -4.09934 0
M  V30 8077 N 762.832 4.6323 -3.18393 0
M  V30 8078 H 754.983 0.976337 -1.8863 0
M  V30 8079 H 757.246 0.490343 -0.811337 0
M  V30 8080 H 756.952 2.29949 -2.66114 0
M  V30 8081 H 756.826 3.50547 -1.39271 0
M  V30 8082 H 759.213 2.88545 -0.618552 0
M  V30 8083 H 759.294 1.68982 -1.92038 0
M  V30 8084 H 758.938 3.55612 -3.62633 0
M  V30 8085 H 758.868 4.73906 -2.29609 0
M  V30 8086 H 761.359 3.20544 -2.0015 0
M  V30 8087 H 761.672 6.20241 -4.61 0
M  V30 8088 H 760.017 5.58214 -4.14032 0
M  V30 8089 H 763.208 3.92527 -2.5503 0
M  V30 8090 H 763.381 5.29204 -3.73961 0
M  V30 8091 N 756.787 0.722489 1.40064 0
M  V30 8092 C 758.035 0.264455 2.00362 0
M  V30 8093 C 758.356 -1.14847 1.57592 0
M  V30 8094 O 757.626 -1.77982 0.818477 0
M  V30 8095 H 756.206 0.0947846 0.740962 0
M  V30 8096 H 758.868 0.929659 1.71299 0
M  V30 8097 H 757.964 0.302977 3.10626 0
M  V30 8098 N 758.265 -1.50454 0.469181 0
M  V30 8099 C 759.514 -2.01507 -0.0881425 0
M  V30 8100 C 759.827 -1.35613 -1.40956 0
M  V30 8101 O 761.033 -1.77812 -2.05171 0
M  V30 8102 C 759.489 -3.59301 -0.207596 0
M  V30 8103 C 759.097 -4.34152 1.10527 0
M  V30 8104 C 760.841 -4.18401 -0.716981 0
M  V30 8105 C 758.748 -5.83725 0.949717 0
M  V30 8106 H 757.678 -0.753106 -0.0367156 0
M  V30 8107 H 760.329 -1.73282 0.603788 0
M  V30 8108 H 758.711 -3.84106 -0.963265 0
M  V30 8109 H 759.885 -4.21073 1.87175 0
M  V30 8110 H 758.2 -3.86652 1.54562 0
M  V30 8111 H 760.797 -5.27895 -0.850363 0
M  V30 8112 H 761.14 -3.79657 -1.70782 0
M  V30 8113 H 761.673 -3.97796 -0.0187511 0
M  V30 8114 H 758.412 -6.26938 1.91387 0
M  V30 8115 H 757.932 -5.99383 0.223591 0
M  V30 8116 H 759.611 -6.44065 0.61557 0
M  V30 8117 N 759.743 -0.201713 -1.56304 0
M  V30 8118 C 760.968 0.443815 -2.02596 0
M  V30 8119 C 761.393 1.53945 -1.08086 0
M  V30 8120 O 760.751 1.81182 -0.0655056 0
M  V30 8121 C 760.799 0.971066 -3.47279 0
M  V30 8122 O 759.903 2.0836 -3.55893 0
M  V30 8123 H 759.244 0.10294 -0.655972 0
M  V30 8124 H 761.774 -0.314533 -2.02168 0
M  V30 8125 H 761.784 1.28598 -3.87204 0
M  V30 8126 H 760.459 0.169048 -4.15556 0
M  V30 8127 H 759.036 1.77683 -3.27846 0
M  V30 8128 N 761.222 1.57436 0.0718424 0
M  V30 8129 C 762.45 1.91474 0.783932 0
M  V30 8130 C 762.865 0.797669 1.71122 0
M  V30 8131 O 762.222 -0.228989 1.81058 0
M  V30 8132 C 762.273 3.25259 1.57761 0
M  V30 8133 O 761.994 4.3267 0.687596 0
M  V30 8134 C 763.495 3.7331 2.3907 0
M  V30 8135 H 760.715 0.632901 0.222885 0
M  V30 8136 H 763.259 2.04457 0.0421262 0
M  V30 8137 H 761.414 3.13804 2.27169 0
M  V30 8138 H 761.828 5.09641 1.23962 0
M  V30 8139 H 763.302 4.69551 2.90216 0
M  V30 8140 H 763.779 3.02318 3.18591 0
M  V30 8141 H 764.385 3.8771 1.74818 0
M  V30 8142 N 762.7 -0.34323 1.53817 0
M  V30 8143 C 763.928 -1.10348 1.75017 0
M  V30 8144 C 764.343 -1.82345 0.489475 0
M  V30 8145 O 763.7 -1.74362 -0.538886 0
M  V30 8146 C 763.751 -2.11672 2.93048 0
M  V30 8147 O 763.472 -1.42603 4.14241 0
M  V30 8148 C 764.973 -3.0007 3.26301 0
M  V30 8149 H 762.193 -0.329056 0.584776 0
M  V30 8150 H 764.737 -0.395339 2.00642 0
M  V30 8151 H 762.892 -2.78051 2.69753 0
M  V30 8152 H 763.306 -2.10294 4.80496 0
M  V30 8153 H 764.78 -3.67101 4.12239 0
M  V30 8154 H 765.257 -3.66105 2.42618 0
M  V30 8155 H 765.863 -2.3928 3.51604 0
M  V30 8156 N 764.178 -1.45556 -0.604258 0
M  V30 8157 C 765.141 -1.54091 -1.69672 0
M  V30 8158 C 766.141 -0.420076 -1.55216 0
M  V30 8159 O 767.331 -0.683671 -1.60224 0
M  V30 8160 C 764.463 -1.44063 -3.08964 0
M  V30 8161 H 765.656 -2.51431 -1.6347 0
M  V30 8162 H 763.209 -1.33046 -0.820273 0
M  V30 8163 H 763.944 -0.479201 -3.2074 0
M  V30 8164 H 763.729 -2.25362 -3.20865 0
M  V30 8165 H 765.219 -1.53075 -3.88533 0
M  V30 8166 N 765.656 0.84705 -1.32902 0
M  V30 8167 C 766.586 1.97166 -1.25091 0
M  V30 8168 C 767.567 1.69578 -0.133161 0
M  V30 8169 O 768.752 1.91519 -0.321591 0
M  V30 8170 C 765.882 3.33157 -0.981006 0
M  V30 8171 C 764.836 3.75119 -2.06082 0
M  V30 8172 C 764.162 5.08826 -1.64318 0
M  V30 8173 C 765.462 3.89774 -3.47669 0
M  V30 8174 H 767.156 2.03958 -2.19184 0
M  V30 8175 H 764.702 0.979907 -1.05517 0
M  V30 8176 H 766.655 4.11393 -0.912891 0
M  V30 8177 H 765.379 3.266 -0.00445559 0
M  V30 8178 H 764.038 2.9914 -2.11921 0
M  V30 8179 H 763.686 4.98732 -0.653876 0
M  V30 8180 H 763.386 5.37873 -2.36572 0
M  V30 8181 H 764.91 5.89546 -1.58958 0
M  V30 8182 H 766.324 4.58343 -3.44376 0
M  V30 8183 H 764.721 4.30248 -4.18338 0
M  V30 8184 H 765.791 2.92463 -3.86773 0
M  V30 8185 N 767.134 1.16236 1.06428 0
M  V30 8186 C 768.382 0.941171 1.78847 0
M  V30 8187 C 768.703 -0.53248 1.87589 0
M  V30 8188 O 767.973 -1.38686 1.38358 0
M  V30 8189 H 766.553 0.345228 0.66244 0
M  V30 8190 H 769.215 1.46479 1.28569 0
M  V30 8191 H 768.311 1.35871 2.80972 0
M  V30 8192 N 768.612 -1.24939 0.960631 0
M  V30 8193 C 769.544 -2.24879 0.442937 0
M  V30 8194 C 770.557 -1.56615 -0.444464 0
M  V30 8195 O 771.746 -1.76715 -0.251776 0
M  V30 8196 C 768.846 -3.36757 -0.380537 0
M  V30 8197 C 768.019 -4.34587 0.495283 0
M  V30 8198 C 767.078 -5.25502 -0.270995 0
M  V30 8199 O 766.104 -5.68227 0.332661 0
M  V30 8200 N 767.306 -5.59077 -1.56249 0
M  V30 8201 H 770.071 -2.69932 1.30218 0
M  V30 8202 H 767.632 -1.38907 0.83166 0
M  V30 8203 H 769.624 -3.94542 -0.90103 0
M  V30 8204 H 768.194 -2.91045 -1.14067 0
M  V30 8205 H 767.414 -3.75593 1.19682 0
M  V30 8206 H 768.702 -4.96925 1.09285 0
M  V30 8207 H 768.1 -5.2628 -2.07476 0
M  V30 8208 H 766.657 -6.19421 -2.02882 0
M  V30 8209 N 770.09 -0.729906 -1.39679 0
M  V30 8210 C 771.337 -0.275622 -2.00615 0
M  V30 8211 C 771.665 1.13559 -1.57907 0
M  V30 8212 O 770.92 1.78745 -0.796789 0
M  V30 8213 C 771.219 -0.319564 -3.55968 0
M  V30 8214 C 770.885 -1.68308 -4.1831 0
M  V30 8215 C 769.547 -2.05629 -4.35052 0
M  V30 8216 C 771.899 -2.57857 -4.52945 0
M  V30 8217 C 769.227 -3.32018 -4.83716 0
M  V30 8218 C 771.579 -3.83613 -5.03015 0
M  V30 8219 C 770.243 -4.21033 -5.17965 0
M  V30 8220 H 769.513 -0.100857 -0.734104 0
M  V30 8221 H 772.16 -0.93575 -1.67081 0
M  V30 8222 H 770.465 0.42414 -3.89497 0
M  V30 8223 H 772.162 0.0499905 -4.00969 0
M  V30 8224 H 768.752 -1.3829 -4.05677 0
M  V30 8225 H 772.936 -2.30295 -4.39634 0
M  V30 8226 H 768.192 -3.6096 -4.93475 0
M  V30 8227 H 772.366 -4.53162 -5.28788 0
M  V30 8228 H 769.993 -5.19034 -5.55435 0
M  V30 8229 N 771.568 1.50203 -0.477153 0
M  V30 8230 C 772.5 2.26508 0.350239 0
M  V30 8231 C 773.513 1.32081 0.95176 0
M  V30 8232 O 774.702 1.57546 0.839139 0
M  V30 8233 C 771.802 3.0361 1.50579 0
M  V30 8234 C 770.975 4.25438 1.01595 0
M  V30 8235 C 770.034 4.84783 2.04626 0
M  V30 8236 O 769.06 5.45528 1.62442 0
M  V30 8237 N 770.262 4.72318 3.37485 0
M  V30 8238 H 773.027 2.98155 -0.30394 0
M  V30 8239 H 770.588 1.58938 -0.308289 0
M  V30 8240 H 772.58 3.4019 2.1921 0
M  V30 8241 H 771.15 2.34724 2.06455 0
M  V30 8242 H 770.37 3.93894 0.155316 0
M  V30 8243 H 771.658 5.04413 0.666694 0
M  V30 8244 H 771.056 4.24022 3.74462 0
M  V30 8245 H 769.613 5.13149 4.01897 0
M  V30 8246 N 773.046 0.209999 1.56195 0
M  V30 8247 C 773.994 -0.721416 2.2113 0
M  V30 8248 C 774.988 -1.20852 1.18706 0
M  V30 8249 O 776.194 -1.16968 1.36815 0
M  V30 8250 H 772.569 -0.251033 0.708863 0
M  V30 8251 H 774.54 -0.150193 2.98022 0
M  V30 8252 C 773.289 -1.92392 2.89621 0
M  V30 8253 H 772.612 -1.5582 3.68185 0
M  V30 8254 H 774.052 -2.55367 3.38473 0
M  V30 8255 C 772.511 -2.77208 1.91461 0
M  V30 8256 O 773.041 -3.75603 1.42426 0
M  V30 8257 N 771.247 -2.43006 1.59363 0
M  V30 8258 H 770.794 -1.63047 1.99433 0
M  V30 8259 H 770.752 -3.00036 0.939449 0
M  V30 8260 N 774.524 -1.57472 -0.0634922 0
M  V30 8261 C 775.801 -1.78736 -0.794538 0
M  V30 8262 C 776.181 -0.799645 -1.95369 0
M  V30 8263 O 775.529 0.165521 -2.279 0
M  V30 8264 C 775.739 -3.25471 -1.25975 0
M  V30 8265 C 777.087 -3.89528 -1.68976 0
M  V30 8266 O 778.111 -3.29412 -1.35521 0
M  V30 8267 O 776.97 -4.95305 -2.30944 0
M  V30 8268 H 774.064 -0.733813 -0.381376 0
M  V30 8269 H 776.61 -1.69646 -0.0429258 0
M  V30 8270 H 775.382 -3.88922 -0.430721 0
M  V30 8271 H 775.005 -3.39317 -2.07243 0
M  V30 8272 N 776.003 0.335068 -1.53997 0
M  V30 8273 C 777.414 0.910191 -1.6301 0
M  V30 8274 C 777.765 1.89271 -0.516809 0
M  V30 8275 O 776.89 2.13516 0.352123 0
M  V30 8276 C 777.485 1.65761 -2.9548 0
M  V30 8277 C 776.044 2.18163 -3.06728 0
M  V30 8278 C 775.191 1.00338 -2.5851 0
M  V30 8279 H 778.142 0.112965 -1.58297 0
M  V30 8280 H 778.163 2.52107 -2.84995 0
M  V30 8281 H 777.675 0.94227 -3.76488 0
M  V30 8282 H 775.776 2.92847 -2.30372 0
M  V30 8283 H 775.889 2.43952 -4.1234 0
M  V30 8284 H 774.253 1.37925 -2.14124 0
M  V30 8285 H 775.036 0.30254 -3.41964 0
M  V30 8286 N 777.481 1.45874 0.596531 0
M  V30 8287 C 778.429 1.55739 1.72766 0
M  V30 8288 C 779.423 0.426666 1.63939 0
M  V30 8289 O 780.629 0.60301 1.69599 0
M  V30 8290 H 777.004 0.489386 0.570968 0
M  V30 8291 H 778.975 2.50871 1.61575 0
M  V30 8292 C 777.724 1.55174 3.11153 0
M  V30 8293 H 777.047 2.41511 3.1861 0
M  V30 8294 H 778.487 1.66133 3.90097 0
M  V30 8295 C 776.946 0.278001 3.35751 0
M  V30 8296 O 777.476 -0.637557 3.96608 0
M  V30 8297 N 775.682 0.170227 2.90101 0
M  V30 8298 H 775.229 0.916159 2.40758 0
M  V30 8299 H 775.187 -0.68117 3.06932 0
M  V30 8300 N 778.959 -0.83999 1.33349 0
M  V30 8301 C 779.907 -1.97113 1.23488 0
M  V30 8302 C 780.901 -1.68849 0.136503 0
M  V30 8303 O 782.107 -1.77476 0.300389 0
M  V30 8304 H 778.482 -0.647049 0.383185 0
M  V30 8305 H 780.453 -2.02554 2.19122 0
M  V30 8306 C 779.202 -3.33314 0.989815 0
M  V30 8307 H 778.525 -3.556 1.82726 0
M  V30 8308 H 779.965 -4.12963 0.961123 0
M  V30 8309 C 778.424 -3.35496 -0.307272 0
M  V30 8310 O 778.954 -3.79589 -1.31434 0
M  V30 8311 N 777.16 -2.88669 -0.334414 0
M  V30 8312 H 776.707 -2.5298 0.485659 0
M  V30 8313 H 776.665 -2.90512 -1.20209 0
M  V30 8314 N 780.437 -1.16799 -1.0581 0
M  V30 8315 C 781.848 -0.95945 -1.60161 0
M  V30 8316 C 782.199 0.49543 -1.89842 0
M  V30 8317 O 781.324 1.36957 -1.67546 0
M  V30 8318 C 781.919 -1.73527 -2.90987 0
M  V30 8319 C 780.478 -1.57158 -3.42021 0
M  V30 8320 C 779.625 -1.74089 -2.15843 0
M  V30 8321 H 782.576 -1.31598 -0.886992 0
M  V30 8322 H 782.597 -1.21397 -3.60615 0
M  V30 8323 H 782.109 -2.79411 -2.69353 0
M  V30 8324 H 780.21 -0.537361 -3.68705 0
M  V30 8325 H 780.323 -2.35858 -4.17022 0
M  V30 8326 H 778.687 -1.16874 -2.26302 0
M  V30 8327 H 779.47 -2.81371 -1.96686 0
M  V30 8328 N 781.915 1.24427 -0.967243 0
M  V30 8329 C 783.192 1.87831 -0.545776 0
M  V30 8330 C 783.572 1.87126 0.977099 0
M  V30 8331 O 782.92 1.34357 1.84826 0
M  V30 8332 C 783.13 3.29967 -1.13679 0
M  V30 8333 C 784.478 4.06654 -1.22139 0
M  V30 8334 O 785.502 3.39136 -1.08926 0
M  V30 8335 O 784.361 5.27455 -1.43017 0
M  V30 8336 H 781.455 0.806745 -0.181912 0
M  V30 8337 H 784.001 1.32403 -1.06148 0
M  V30 8338 H 782.773 3.24977 -2.17958 0
M  V30 8339 H 782.396 3.92969 -0.605093 0
M  V30 8340 N 783.393 0.737304 1.3929 0
M  V30 8341 C 784.641 0.285691 2.00071 0
M  V30 8342 C 784.962 -1.13169 1.58801 0
M  V30 8343 O 784.232 -1.77104 0.837308 0
M  V30 8344 H 782.812 0.102638 0.739915 0
M  V30 8345 H 785.474 0.947775 1.70303 0
M  V30 8346 H 784.57 0.335906 3.10287 0
M  V30 8347 N 784.871 -1.49948 0.485112 0
M  V30 8348 C 786.119 -2.01996 -0.0648775 0
M  V30 8349 C 786.44 -1.36819 -1.38945 0
M  V30 8350 O 785.71 -0.518163 -1.88923 0
M  V30 8351 H 784.29 -0.746513 -0.0269662 0
M  V30 8352 H 786.952 -1.84136 0.638733 0
M  V30 8353 H 786.048 -3.11418 -0.20617 0
M  V30 8354 N 786.349 -0.21828 -1.56081 0
M  V30 8355 C 787.297 0.709679 -2.21509 0
M  V30 8356 C 788.291 1.20221 -1.19346 0
M  V30 8357 O 789.497 1.16241 -1.37433 0
M  V30 8358 H 785.872 0.247271 -0.710184 0
M  V30 8359 H 787.843 0.134386 -2.98097 0
M  V30 8360 C 786.592 1.90853 -2.90638 0
M  V30 8361 H 785.915 1.53865 -3.69006 0
M  V30 8362 H 787.355 2.53568 -3.39822 0
M  V30 8363 C 785.814 2.76189 -1.92929 0
M  V30 8364 O 786.344 3.74842 -1.44416 0
M  V30 8365 N 784.55 2.42157 -1.6065 0
M  V30 8366 H 784.097 1.61987 -2.00294 0
M  V30 8367 H 784.055 2.99534 -0.955347 0
M  V30 8368 N 787.827 1.57504 0.0551401 0
M  V30 8369 C 789.055 1.92294 0.76358 0
M  V30 8370 C 789.47 0.815774 1.70266 0
M  V30 8371 O 788.827 -0.209772 1.8129 0
M  V30 8372 C 788.878 3.26914 1.54302 0
M  V30 8373 O 788.599 4.33375 0.641666 0
M  V30 8374 C 790.1 3.75825 2.35097 0
M  V30 8375 H 787.32 0.635229 0.216159 0
M  V30 8376 H 789.864 2.0449 0.0204385 0
M  V30 8377 H 788.019 3.16196 2.23828 0
M  V30 8378 H 788.433 5.10927 1.1855 0
M  V30 8379 H 789.907 4.72603 2.8522 0
M  V30 8380 H 790.384 3.0568 3.15367 0
M  V30 8381 H 790.99 3.89542 1.70696 0
M  V30 8382 N 789.305 -0.326896 1.54172 0
M  V30 8383 C 790.535 -1.08328 1.75922 0
M  V30 8384 C 790.943 -1.82302 0.50622 0
M  V30 8385 O 790.286 -1.7581 -0.532581 0
M  V30 8386 C 790.348 -2.1294 2.8965 0
M  V30 8387 C 790.012 -1.58394 4.28673 0
M  V30 8388 C 791.009 -1.02747 5.09646 0
M  V30 8389 C 788.694 -1.62737 4.75207 0
M  V30 8390 C 790.688 -0.52169 6.35261 0
M  V30 8391 C 788.375 -1.11772 6.00791 0
M  V30 8392 C 789.373 -0.565819 6.80652 0
M  V30 8393 O 789.061 -0.0638146 8.03875 0
M  V30 8394 H 788.793 -0.3282 0.590983 0
M  V30 8395 H 791.347 -0.37972 2.0186 0
M  V30 8396 H 789.577 -2.86903 2.59275 0
M  V30 8397 H 791.266 -2.74274 2.99213 0
M  V30 8398 H 792.032 -0.987007 4.74851 0
M  V30 8399 H 787.911 -2.04635 4.13093 0
M  V30 8400 H 791.455 -0.0902544 6.97542 0
M  V30 8401 H 787.352 -1.15524 6.35078 0
M  V30 8402 H 788.12 -0.17955 8.18303 0
M  V30 8403 N 790.784 -1.46188 -0.588786 0
M  V30 8404 C 792.012 -1.54743 -1.37339 0
M  V30 8405 C 792.427 -0.186446 -1.87877 0
M  V30 8406 O 791.784 0.815247 -1.63279 0
M  V30 8407 C 791.835 -2.54727 -2.56508 0
M  V30 8408 O 791.556 -3.85539 -2.08066 0
M  V30 8409 C 793.057 -2.73163 -3.49137 0
M  V30 8410 H 790.277 -0.523484 -0.419768 0
M  V30 8411 H 792.821 -1.91543 -0.716345 0
M  V30 8412 H 790.976 -2.20948 -3.18215 0
M  V30 8413 H 791.39 -4.39905 -2.85629 0
M  V30 8414 H 792.864 -3.47057 -4.2925 0
M  V30 8415 H 793.341 -1.79856 -4.00685 0
M  V30 8416 H 793.947 -3.08014 -2.9327 0
M  V30 8417 N 792.262 0.832906 -1.33792 0
M  V30 8418 C 793.192 1.95828 -1.27176 0
M  V30 8419 C 794.173 1.69427 -0.15114 0
M  V30 8420 O 795.358 1.91167 -0.341886 0
M  V30 8421 C 792.488 3.32098 -1.01629 0
M  V30 8422 C 791.442 3.72912 -2.10049 0
M  V30 8423 C 790.768 5.07054 -1.69706 0
M  V30 8424 C 792.068 3.86064 -3.51783 0
M  V30 8425 H 793.762 2.01622 -2.21334 0
M  V30 8426 H 791.308 0.96866 -1.0655 0
M  V30 8427 H 793.261 4.10402 -0.956474 0
M  V30 8428 H 791.985 3.26577 -0.0390956 0
M  V30 8429 H 790.644 2.96876 -2.15082 0
M  V30 8430 H 790.292 4.9801 -0.706737 0
M  V30 8431 H 789.992 5.35333 -2.42264 0
M  V30 8432 H 791.516 5.87827 -1.65202 0
M  V30 8433 H 792.93 4.54665 -3.49218 0
M  V30 8434 H 791.327 4.25787 -4.22878 0
M  V30 8435 H 792.397 2.88344 -3.89854 0
M  V30 8436 N 793.74 1.17359 1.05189 0
M  V30 8437 C 794.703 0.892604 2.11105 0
M  V30 8438 C 795.703 -0.117236 1.60372 0
M  V30 8439 O 796.893 0.114936 1.7382 0
M  V30 8440 C 794.025 0.337032 3.3923 0
M  V30 8441 H 795.218 1.83169 2.37464 0
M  V30 8442 H 792.771 0.984051 1.21434 0
M  V30 8443 H 793.506 -0.609198 3.18527 0
M  V30 8444 H 793.291 1.06484 3.77364 0
M  V30 8445 H 794.781 0.158763 4.17298 0
M  V30 8446 N 795.218 -1.23913 0.973828 0
M  V30 8447 C 796.443 -1.96735 0.656511 0
M  V30 8448 C 796.868 -1.71682 -0.768571 0
M  V30 8449 O 796.226 -0.984267 -1.52256 0
M  V30 8450 C 796.274 -3.48004 0.944735 0
M  V30 8451 O 795.378 -4.12387 0.0333357 0
M  V30 8452 H 794.719 -0.616119 0.247575 0
M  V30 8453 H 797.249 -1.57525 1.30564 0
M  V30 8454 H 797.259 -3.98424 0.87876 0
M  V30 8455 H 795.934 -3.65567 1.98328 0
M  V30 8456 H 794.511 -3.72585 0.153157 0
M  V30 8457 N 796.696 -0.74468 -1.38897 0
M  V30 8458 C 797.659 -0.11945 -2.28889 0
M  V30 8459 C 798.659 0.656942 -1.46768 0
M  V30 8460 O 799.849 0.484525 -1.67326 0
M  V30 8461 C 796.981 0.839635 -3.30398 0
M  V30 8462 H 798.174 -0.912414 -2.85683 0
M  V30 8463 H 795.727 -0.511119 -1.47707 0
M  V30 8464 H 796.462 1.6586 -2.78677 0
M  V30 8465 H 796.247 0.285432 -3.9106 0
M  V30 8466 H 797.737 1.27337 -3.97712 0
M  V30 8467 N 798.174 1.49689 -0.493057 0
M  V30 8468 C 799.421 2.02427 0.0542714 0
M  V30 8469 C 799.749 1.37339 1.37725 0
M  V30 8470 O 799.004 0.495523 1.89323 0
M  V30 8471 C 799.303 3.56427 0.263536 0
M  V30 8472 C 798.969 4.40111 -0.98046 0
M  V30 8473 C 797.631 4.62699 -1.32148 0
M  V30 8474 C 799.983 4.88847 -1.80771 0
M  V30 8475 C 797.311 5.31268 -2.48941 0
M  V30 8476 C 799.663 5.587 -2.96711 0
M  V30 8477 C 798.327 5.79536 -3.31202 0
M  V30 8478 H 797.597 0.740734 0.0198593 0
M  V30 8479 H 800.244 1.80073 -0.651603 0
M  V30 8480 H 798.549 3.77416 1.05186 0
M  V30 8481 H 800.246 3.94819 0.701348 0
M  V30 8482 H 796.836 4.22765 -0.704814 0
M  V30 8483 H 801.02 4.71231 -1.55741 0
M  V30 8484 H 796.276 5.45603 -2.75911 0
M  V30 8485 H 800.45 5.9544 -3.61143 0
M  V30 8486 H 798.077 6.32443 -4.21805 0
M  V30 8487 N 799.652 0.226554 1.55963 0
M  V30 8488 C 800.9 -0.402991 1.98041 0
M  V30 8489 C 801.221 -1.59938 1.11557 0
M  V30 8490 O 800.491 -1.9494 0.193719 0
M  V30 8491 H 799.071 -0.15188 0.731397 0
M  V30 8492 H 801.733 0.320613 1.92245 0
M  V30 8493 H 800.829 -0.725937 3.0354 0
M  V30 8494 N 801.13 -1.57531 -0.0467866 0
M  V30 8495 C 802.376 -1.8873 -0.742218 0
M  V30 8496 C 802.709 -0.822084 -1.75941 0
M  V30 8497 O 801.984 0.164922 -1.938 0
M  V30 8498 C 802.267 -3.30586 -1.42776 0
M  V30 8499 C 802.12 -4.47785 -0.425285 0
M  V30 8500 C 803.439 -3.71068 -2.36636 0
M  V30 8501 H 800.558 -0.686406 -0.268359 0
M  V30 8502 H 803.2 -1.89999 -0.00511341 0
M  V30 8503 H 801.35 -3.29634 -2.05605 0
M  V30 8504 H 803.022 -4.60867 0.199721 0
M  V30 8505 H 801.265 -4.33037 0.25713 0
M  V30 8506 H 801.936 -5.43884 -0.943086 0
M  V30 8507 H 804.412 -3.73273 -1.83866 0
M  V30 8508 H 803.288 -4.71165 -2.81593 0
M  V30 8509 H 803.549 -3.02355 -3.22542 0
M  V30 8510 N 802.608 0.318715 -1.54344 0
M  V30 8511 C 803.855 1.05608 -1.72781 0
M  V30 8512 C 804.183 1.87854 -0.504083 0
M  V30 8513 O 803.438 1.88826 0.51414 0
M  V30 8514 C 803.737 2.00514 -2.95853 0
M  V30 8515 C 803.403 1.34385 -4.30409 0
M  V30 8516 C 802.065 1.16081 -4.66989 0
M  V30 8517 C 804.417 0.869627 -5.13894 0
M  V30 8518 C 801.745 0.490114 -5.84649 0
M  V30 8519 C 804.097 0.212735 -6.32242 0
M  V30 8520 C 802.761 0.0175882 -6.67498 0
M  V30 8521 H 802.031 0.386449 -0.632249 0
M  V30 8522 H 804.678 0.332729 -1.88587 0
M  V30 8523 H 802.983 2.79317 -2.74753 0
M  V30 8524 H 804.68 2.57605 -3.07312 0
M  V30 8525 H 801.27 1.49634 -4.01631 0
M  V30 8526 H 805.454 0.998809 -4.86146 0
M  V30 8527 H 800.71 0.327767 -6.10521 0
M  V30 8528 H 804.884 -0.162699 -6.9621 0
M  V30 8529 H 802.511 -0.504137 -7.58527 0
M  V30 8530 N 804.086 1.46499 0.581025 0
M  V30 8531 C 805.334 1.51596 1.33653 0
M  V30 8532 C 805.655 0.169859 1.94259 0
M  V30 8533 O 804.925 -0.803776 1.78651 0
M  V30 8534 H 803.505 0.558346 0.496244 0
M  V30 8535 H 806.167 1.8264 0.680338 0
M  V30 8536 H 805.263 2.26956 2.14237 0
M  V30 8537 N 805.565 -0.825799 1.34232 0
M  V30 8538 C 806.513 -1.95792 1.25572 0
M  V30 8539 C 807.507 -1.68695 0.154404 0
M  V30 8540 O 808.713 -1.77147 0.319196 0
M  V30 8541 H 805.088 -0.642949 0.390027 0
M  V30 8542 H 807.059 -2.00219 2.21258 0
M  V30 8543 C 805.808 -3.32245 1.02511 0
M  V30 8544 H 805.131 -3.53642 1.86487 0
M  V30 8545 H 806.571 -4.1192 1.00487 0
M  V30 8546 C 805.03 -3.35803 -0.27167 0
M  V30 8547 O 805.56 -3.80962 -1.274 0
M  V30 8548 N 803.766 -2.89008 -0.303778 0
M  V30 8549 H 803.313 -2.52451 0.512464 0
M  V30 8550 H 803.271 -2.9177 -1.17121 0
M  V30 8551 N 807.043 -1.17915 -1.04565 0
M  V30 8552 C 807.991 -0.897919 -2.1457 0
M  V30 8553 C 808.985 0.139883 -1.68821 0
M  V30 8554 O 810.191 -0.00779463 -1.79998 0
M  V30 8555 H 806.566 -0.272867 -0.700748 0
M  V30 8556 H 808.537 -1.83268 -2.3549 0
M  V30 8557 C 807.286 -0.434634 -3.44973 0
M  V30 8558 H 806.609 -1.22469 -3.8058 0
M  V30 8559 H 808.049 -0.276804 -4.23095 0
M  V30 8560 C 806.508 0.848738 -3.26034 0
M  V30 8561 O 807.038 1.9141 -3.53164 0
M  V30 8562 N 805.244 0.799373 -2.79389 0
M  V30 8563 H 804.791 -0.0678192 -2.57511 0
M  V30 8564 H 804.749 1.6585 -2.67098 0
M  V30 8565 N 808.521 1.23394 -0.980386 0
M  V30 8566 C 809.769 1.91431 -0.647978 0
M  V30 8567 C 810.09 1.76871 0.821066 0
M  V30 8568 O 809.36 1.14808 1.58732 0
M  V30 8569 H 807.94 0.708516 -0.236673 0
M  V30 8570 H 810.602 1.50019 -1.2442 0
M  V30 8571 H 809.698 2.98854 -0.899592 0
M  V30 8572 N 809.999 0.752036 1.385 0
M  V30 8573 C 811.245 0.307958 2.00448 0
M  V30 8574 C 811.578 -1.10702 1.59558 0
M  V30 8575 O 810.853 -1.75788 0.832391 0
M  V30 8576 C 811.136 0.429092 3.57534 0
M  V30 8577 C 810.989 1.88507 4.08393 0
M  V30 8578 C 812.308 -0.178442 4.39738 0
M  V30 8579 H 809.427 0.113373 0.728228 0
M  V30 8580 H 812.069 0.951389 1.64465 0
M  V30 8581 H 810.219 -0.118695 3.88319 0
M  V30 8582 H 811.891 2.49104 3.88259 0
M  V30 8583 H 810.134 2.40066 3.61318 0
M  V30 8584 H 810.805 1.92099 5.17496 0
M  V30 8585 H 813.281 0.28872 4.15097 0
M  V30 8586 H 812.157 -0.0634349 5.48863 0
M  V30 8587 H 812.418 -1.26655 4.23569 0
M  V30 8588 N 811.477 -1.49425 0.500989 0
M  V30 8589 C 812.424 -2.29126 -0.277443 0
M  V30 8590 C 813.394 -1.35522 -0.960363 0
M  V30 8591 O 814.579 -1.64479 -0.967027 0
M  V30 8592 C 811.719 -3.18193 -1.33593 0
M  V30 8593 C 810.832 -4.26854 -0.664791 0
M  V30 8594 C 809.967 -5.03137 -1.70372 0
M  V30 8595 C 809.006 -6.03635 -1.01445 0
M  V30 8596 N 808.143 -6.73083 -1.99758 0
M  V30 8597 H 812.983 -2.95187 0.408458 0
M  V30 8598 H 810.52 -1.45546 0.213275 0
M  V30 8599 H 812.478 -3.68207 -1.96161 0
M  V30 8600 H 811.108 -2.54116 -1.9906 0
M  V30 8601 H 810.16 -3.80328 0.0741708 0
M  V30 8602 H 811.472 -4.9865 -0.122197 0
M  V30 8603 H 810.626 -5.5702 -2.40445 0
M  V30 8604 H 809.365 -4.31114 -2.28017 0
M  V30 8605 H 808.37 -5.48984 -0.299496 0
M  V30 8606 H 809.595 -6.77644 -0.444497 0
M  V30 8607 H 807.541 -6.03832 -2.56365 0
M  V30 8608 H 807.458 -7.40855 -1.50565 0
M  V30 8609 H 808.726 -7.3157 -2.69119 0
M  V30 8610 N 812.955 -0.234822 -1.55841 0
M  V30 8611 C 814.183 0.397745 -2.03041 0
M  V30 8612 C 814.598 1.52405 -1.11437 0
M  V30 8613 O 813.955 1.82061 -0.126466 0
M  V30 8614 C 814.006 0.916919 -3.49678 0
M  V30 8615 O 813.727 -0.164493 -4.37791 0
M  V30 8616 C 815.228 1.62139 -4.12584 0
M  V30 8617 H 812.448 0.0959214 -0.664108 0
M  V30 8618 H 814.992 -0.355156 -2.01392 0
M  V30 8619 H 813.147 1.62004 -3.519 0
M  V30 8620 H 813.561 0.227794 -5.24005 0
M  V30 8621 H 815.035 1.93651 -5.16917 0
M  V30 8622 H 815.512 2.53918 -3.58361 0
M  V30 8623 H 816.118 0.963145 -4.14251 0
M  V30 8624 N 814.433 1.57553 0.0384317 0
M  V30 8625 C 815.381 2.07021 1.06043 0
M  V30 8626 C 816.375 0.982078 1.38028 0
M  V30 8627 O 817.581 1.16702 1.37042 0
M  V30 8628 H 813.956 0.660522 0.359464 0
M  V30 8629 H 815.927 2.91944 0.617339 0
M  V30 8630 C 814.676 2.55734 2.35574 0
M  V30 8631 H 813.999 3.39074 2.11822 0
M  V30 8632 H 815.439 2.94066 3.05452 0
M  V30 8633 C 813.898 1.45449 3.03885 0
M  V30 8634 O 814.428 0.815402 3.93337 0
M  V30 8635 N 812.634 1.19134 2.65058 0
M  V30 8636 H 812.181 1.71288 1.92401 0
M  V30 8637 H 812.139 0.455554 3.11082 0
M  V30 8638 N 815.911 -0.310526 1.54511 0
M  V30 8639 C 816.874 -1.3657 1.84068 0
M  V30 8640 C 817.874 -1.44123 0.713097 0
M  V30 8641 O 819.064 -1.43924 0.981399 0
M  V30 8642 C 816.196 -2.75162 2.01243 0
M  V30 8643 H 817.389 -1.1161 2.78358 0
M  V30 8644 H 814.942 -0.546699 1.46427 0
M  V30 8645 H 815.677 -3.05359 1.09208 0
M  V30 8646 H 815.462 -2.71071 2.83307 0
M  V30 8647 H 816.952 -3.51473 2.25514 0
M  V30 8648 N 817.389 -1.46805 -0.573248 0
M  V30 8649 C 818.336 -1.58084 -1.68161 0
M  V30 8650 C 819.306 -0.424636 -1.6058 0
M  V30 8651 O 820.491 -0.642623 -1.79652 0
M  V30 8652 C 817.631 -1.58601 -3.06496 0
M  V30 8653 C 816.744 -2.85023 -3.24632 0
M  V30 8654 C 815.879 -2.76981 -4.53271 0
M  V30 8655 C 814.918 -3.983 -4.64783 0
M  V30 8656 N 814.055 -3.88589 -5.84759 0
M  V30 8657 H 818.895 -2.52755 -1.57858 0
M  V30 8658 H 816.432 -1.25385 -0.769218 0
M  V30 8659 H 818.39 -1.56885 -3.86579 0
M  V30 8660 H 817.02 -0.674553 -3.15673 0
M  V30 8661 H 816.072 -2.96678 -2.38089 0
M  V30 8662 H 817.384 -3.7491 -3.29004 0
M  V30 8663 H 816.538 -2.73424 -5.41594 0
M  V30 8664 H 815.277 -1.84751 -4.51352 0
M  V30 8665 H 814.282 -4.02179 -3.74876 0
M  V30 8666 H 815.507 -4.91639 -4.68474 0
M  V30 8667 H 813.453 -2.99151 -5.83819 0
M  V30 8668 H 813.37 -4.7214 -5.90441 0
M  V30 8669 H 814.638 -3.89022 -6.75486 0
M  V30 8670 N 818.867 0.818669 -1.34668 0
M  V30 8671 C 819.797 1.94468 -1.29245 0
M  V30 8672 C 820.778 1.69257 -0.169101 0
M  V30 8673 O 821.963 1.90794 -0.362143 0
M  V30 8674 C 819.093 3.31001 -1.05145 0
M  V30 8675 C 818.047 3.70663 -2.13992 0
M  V30 8676 C 817.373 5.05226 -1.75074 0
M  V30 8677 C 818.673 3.82312 -3.55858 0
M  V30 8678 H 820.367 1.99263 -2.2346 0
M  V30 8679 H 817.913 0.957304 -1.07572 0
M  V30 8680 H 819.866 4.09364 -0.999949 0
M  V30 8681 H 818.59 3.26517 -0.0737312 0
M  V30 8682 H 817.249 2.94578 -2.18219 0
M  V30 8683 H 816.897 4.97233 -0.759518 0
M  V30 8684 H 816.597 5.32734 -2.47928 0
M  V30 8685 H 818.121 5.86042 -1.71427 0
M  V30 8686 H 819.535 4.50935 -3.5402 0
M  V30 8687 H 817.932 4.21278 -4.2737 0
M  V30 8688 H 819.002 2.84193 -3.9289 0
M  V30 8689 N 820.346 1.18468 1.03938 0
M  V30 8690 C 821.576 1.0043 1.80547 0
M  V30 8691 C 821.984 -0.450407 1.83761 0
M  V30 8692 O 821.327 -1.32463 1.27276 0
M  V30 8693 C 821.389 1.48437 3.27424 0
M  V30 8694 C 821.053 2.96372 3.47869 0
M  V30 8695 C 822.05 3.94217 3.38953 0
M  V30 8696 C 819.735 3.34831 3.74424 0
M  V30 8697 C 821.729 5.28517 3.56298 0
M  V30 8698 C 819.416 4.69294 3.91416 0
M  V30 8699 C 820.414 5.65946 3.82354 0
M  V30 8700 O 820.102 6.97974 3.98858 0
M  V30 8701 H 819.834 0.354853 0.575374 0
M  V30 8702 H 822.388 1.57473 1.31876 0
M  V30 8703 H 820.618 0.857601 3.7707 0
M  V30 8704 H 822.307 1.2677 3.85596 0
M  V30 8705 H 823.073 3.6585 3.184 0
M  V30 8706 H 818.952 2.60161 3.80575 0
M  V30 8707 H 822.496 6.03943 3.49141 0
M  V30 8708 H 818.393 4.97361 4.11463 0
M  V30 8709 H 819.161 7.04895 4.1601 0
M  V30 8710 N 821.824 -1.22873 0.986916 0
M  V30 8711 C 823.052 -1.95487 0.677663 0
M  V30 8712 C 823.467 -1.72978 -0.756572 0
M  V30 8713 O 822.824 -1.02517 -1.50985 0
M  V30 8714 C 822.875 -3.48337 0.966638 0
M  V30 8715 O 822.596 -3.70087 2.34451 0
M  V30 8716 C 824.097 -4.38142 0.674248 0
M  V30 8717 H 821.317 -0.622211 0.251185 0
M  V30 8718 H 823.861 -1.56187 1.32007 0
M  V30 8719 H 822.016 -3.85628 0.370137 0
M  V30 8720 H 822.43 -4.64332 2.43918 0
M  V30 8721 H 823.904 -5.44165 0.926759 0
M  V30 8722 H 824.381 -4.3745 -0.391728 0
M  V30 8723 H 824.987 -4.06469 1.25152 0
M  V30 8724 N 823.302 -0.75937 -1.38099 0
M  V30 8725 C 824.249 -0.135508 -2.30402 0
M  V30 8726 C 825.219 0.703356 -1.50473 0
M  V30 8727 O 826.404 0.658287 -1.79084 0
M  V30 8728 C 823.544 0.747228 -3.36913 0
M  V30 8729 C 822.657 -0.106893 -4.31868 0
M  V30 8730 C 821.792 0.779388 -5.25451 0
M  V30 8731 C 820.831 -0.0780179 -6.1205 0
M  V30 8732 N 819.968 0.765545 -6.97914 0
M  V30 8733 H 824.808 -0.9282 -2.83176 0
M  V30 8734 H 822.345 -0.46935 -1.39411 0
M  V30 8735 H 824.303 1.27371 -3.97281 0
M  V30 8736 H 822.933 1.50565 -2.85535 0
M  V30 8737 H 821.985 -0.751063 -3.72912 0
M  V30 8738 H 823.297 -0.768798 -4.9284 0
M  V30 8739 H 822.451 1.37282 -5.90964 0
M  V30 8740 H 821.19 1.47501 -4.6486 0
M  V30 8741 H 820.195 -0.684078 -5.45528 0
M  V30 8742 H 821.42 -0.770786 -6.74712 0
M  V30 8743 H 819.366 1.44601 -6.39864 0
M  V30 8744 H 819.283 0.160666 -7.55829 0
M  V30 8745 H 820.551 1.34377 -7.6783 0
M  V30 8746 N 824.78 1.49157 -0.508906 0
M  V30 8747 C 826.026 2.02773 0.0328469 0
M  V30 8748 C 826.359 1.38714 1.35912 0
M  V30 8749 O 825.634 0.525536 1.87266 0
M  V30 8750 C 825.917 3.59664 0.177088 0
M  V30 8751 C 825.77 4.34239 -1.17287 0
M  V30 8752 C 827.089 4.30505 0.913977 0
M  V30 8753 H 824.208 0.736926 0.0104631 0
M  V30 8754 H 826.85 1.781 -0.661851 0
M  V30 8755 H 825 3.80818 0.768774 0
M  V30 8756 H 826.672 4.24561 -1.80404 0
M  V30 8757 H 824.915 3.96486 -1.76016 0
M  V30 8758 H 825.586 5.42397 -1.02516 0
M  V30 8759 H 828.062 4.14054 0.412084 0
M  V30 8760 H 826.938 5.40012 0.983759 0
M  V30 8761 H 827.199 3.96302 1.95951 0
M  V30 8762 N 826.258 0.243083 1.55714 0
M  V30 8763 C 827.188 -0.652336 2.24203 0
M  V30 8764 C 828.169 -1.1843 1.221 0
M  V30 8765 O 829.354 -1.22435 1.50743 0
M  V30 8766 C 826.484 -1.85111 2.93856 0
M  V30 8767 C 825.438 -1.45208 4.02615 0
M  V30 8768 C 824.764 -2.73137 4.59674 0
M  V30 8769 C 826.064 -0.625988 5.18535 0
M  V30 8770 H 827.758 -0.0812504 2.9929 0
M  V30 8771 H 825.304 -0.0376388 1.43951 0
M  V30 8772 H 827.257 -2.48314 3.40468 0
M  V30 8773 H 825.981 -2.44751 2.16251 0
M  V30 8774 H 824.64 -0.843406 3.56766 0
M  V30 8775 H 824.288 -3.30967 3.78774 0
M  V30 8776 H 823.988 -2.47163 5.33089 0
M  V30 8777 H 825.512 -3.37245 5.09017 0
M  V30 8778 H 826.926 -1.16223 5.61396 0
M  V30 8779 H 825.323 -0.462465 5.98315 0
M  V30 8780 H 826.393 0.362652 4.83542 0
M  V30 8781 N 827.736 -1.57571 -0.0300757 0
M  V30 8782 C 829.013 -1.80381 -0.756447 0
M  V30 8783 C 829.393 -0.840906 -1.93628 0
M  V30 8784 O 828.741 0.117143 -2.282 0
M  V30 8785 C 828.951 -3.2807 -1.19043 0
M  V30 8786 C 830.299 -3.93025 -1.60676 0
M  V30 8787 O 831.323 -3.32213 -1.28503 0
M  V30 8788 O 830.182 -5.00092 -2.20386 0
M  V30 8789 H 827.276 -0.741737 -0.365725 0
M  V30 8790 H 829.822 -1.69699 -0.00693177 0
M  V30 8791 H 828.594 -3.89748 -0.348128 0
M  V30 8792 H 828.217 -3.43637 -1.99999 0
M  V30 8793 N 829.214 0.302327 -1.54673 0
M  V30 8794 C 830.439 1.06103 -1.78205 0
M  V30 8795 C 830.864 1.80204 -0.53926 0
M  V30 8796 O 830.222 1.73975 0.510142 0
M  V30 8797 C 830.27 2.01829 -2.98827 0
M  V30 8798 O 829.374 3.10108 -2.71858 0
M  V30 8799 H 828.715 0.30487 -0.589873 0
M  V30 8800 H 831.245 0.340153 -2.01753 0
M  V30 8801 H 831.255 2.44319 -3.2676 0
M  V30 8802 H 829.93 1.473 -3.88942 0
M  V30 8803 H 828.507 2.72142 -2.54937 0
M  V30 8804 N 830.692 1.47107 0.565454 0
M  V30 8805 C 831.642 1.55384 1.66852 0
M  V30 8806 C 832.626 0.413369 1.55499 0
M  V30 8807 O 833.818 0.66281 1.64121 0
M  V30 8808 C 830.947 1.5634 3.05635 0
M  V30 8809 C 830.033 2.75742 3.22222 0
M  V30 8810 N 830.424 4.00515 3.08903 0
M  V30 8811 C 828.722 2.7233 3.53203 0
M  V30 8812 C 829.423 4.80435 3.27959 0
M  V30 8813 N 828.399 4.1261 3.53913 0
M  V30 8814 H 832.201 2.49635 1.55111 0
M  V30 8815 H 829.715 1.42986 0.769982 0
M  V30 8816 H 831.712 1.60359 3.84825 0
M  V30 8817 H 830.372 0.631785 3.18494 0
M  V30 8818 H 831.383 4.31501 2.86404 0
M  V30 8819 H 828.06 1.8827 3.7264 0
M  V30 8820 H 829.45 5.89334 3.22699 0
M  V30 8821 N 832.17 -0.811516 1.35101 0
M  V30 8822 C 833.418 -1.56525 1.27845 0
M  V30 8823 C 833.739 -1.94435 -0.14829 0
M  V30 8824 O 833.009 -1.63203 -1.08359 0
M  V30 8825 H 831.589 -0.580433 0.47022 0
M  V30 8826 H 834.251 -0.968277 1.69146 0
M  V30 8827 H 833.347 -2.48291 1.89097 0
M  V30 8828 N 833.648 -1.19017 -1.03309 0
M  V30 8829 C 834.596 -0.920627 -2.13605 0
M  V30 8830 C 835.59 0.121969 -1.6896 0
M  V30 8831 O 836.796 -0.0268854 -1.7998 0
M  V30 8832 H 833.171 -0.280284 -0.697814 0
M  V30 8833 H 835.142 -1.85755 -2.33533 0
M  V30 8834 C 833.891 -0.471198 -3.44492 0
M  V30 8835 H 833.214 -1.26499 -3.7926 0
M  V30 8836 H 834.654 -0.321663 -4.22778 0
M  V30 8837 C 833.113 0.81411 -3.26916 0
M  V30 8838 O 833.643 1.87654 -3.55175 0
M  V30 8839 N 831.849 0.769695 -2.80221 0
M  V30 8840 H 831.396 -0.0951278 -2.57424 0
M  V30 8841 H 831.354 1.63008 -2.68842 0
M  V30 8842 N 835.127 1.22348 -0.993418 0
M  V30 8843 C 836.373 1.91393 -0.67056 0
M  V30 8844 C 836.706 1.77163 0.795428 0
M  V30 8845 O 835.981 1.14084 1.57528 0
M  V30 8846 C 836.264 3.43589 -1.0779 0
M  V30 8847 C 836.117 3.66867 -2.60248 0
M  V30 8848 C 837.436 4.35545 -0.631527 0
M  V30 8849 H 834.555 0.695057 -0.24508 0
M  V30 8850 H 837.197 1.44213 -1.23703 0
M  V30 8851 H 835.347 3.83903 -0.595902 0
M  V30 8852 H 837.019 3.35954 -3.16121 0
M  V30 8853 H 835.262 3.1113 -3.02293 0
M  V30 8854 H 835.933 4.73457 -2.838 0
M  V30 8855 H 838.409 4.0275 -1.04554 0
M  V30 8856 H 837.285 5.40707 -0.944831 0
M  V30 8857 H 837.546 4.39618 0.467779 0
M  V30 8858 N 836.605 0.766683 1.37694 0
M  V30 8859 C 837.854 0.325425 1.99057 0
M  V30 8860 C 838.167 -1.10275 1.61551 0
M  V30 8861 O 839.373 -1.64513 2.1598 0
M  V30 8862 C 837.829 0.530886 3.55963 0
M  V30 8863 C 837.437 1.96899 4.02411 0
M  V30 8864 C 839.181 0.152997 4.24224 0
M  V30 8865 C 837.088 2.12232 5.52007 0
M  V30 8866 H 836.018 0.117929 0.744721 0
M  V30 8867 H 838.669 0.945091 1.5729 0
M  V30 8868 H 837.051 -0.158162 3.95684 0
M  V30 8869 H 838.225 2.69258 3.73948 0
M  V30 8870 H 836.54 2.303 3.46916 0
M  V30 8871 H 839.137 0.24614 5.34133 0
M  V30 8872 H 839.48 -0.896096 4.06541 0
M  V30 8873 H 840.013 0.794398 3.89787 0
M  V30 8874 H 836.752 3.15442 5.7461 0
M  V30 8875 H 836.272 1.4435 5.82171 0
M  V30 8876 H 837.951 1.9185 6.17902 0
M  V30 8877 N 838.083 -1.48885 0.516809 0
M  V30 8878 C 839.013 -2.32241 -0.242157 0
M  V30 8879 C 839.994 -1.41258 -0.947633 0
M  V30 8880 O 841.179 -1.70156 -0.935973 0
M  V30 8881 C 838.309 -3.22151 -1.29754 0
M  V30 8882 C 837.263 -4.22053 -0.710995 0
M  V30 8883 C 836.589 -5.01007 -1.86806 0
M  V30 8884 C 837.889 -5.21388 0.30853 0
M  V30 8885 H 839.583 -2.95943 0.453651 0
M  V30 8886 H 837.129 -1.42316 0.219612 0
M  V30 8887 H 839.082 -3.79284 -1.83634 0
M  V30 8888 H 837.806 -2.56423 -2.02274 0
M  V30 8889 H 836.465 -3.66087 -0.193819 0
M  V30 8890 H 836.113 -4.31713 -2.58133 0
M  V30 8891 H 835.813 -5.68615 -1.48159 0
M  V30 8892 H 837.337 -5.60989 -2.4109 0
M  V30 8893 H 838.751 -5.73122 -0.142703 0
M  V30 8894 H 837.148 -5.96975 0.611673 0
M  V30 8895 H 838.218 -4.69329 1.21894 0
M  V30 8896 N 839.561 -0.251338 -1.55583 0
M  V30 8897 C 840.838 0.422729 -1.90977 0
M  V30 8898 C 841.218 1.75534 -1.17265 0
M  V30 8899 O 840.566 2.26632 -0.291588 0
M  V30 8900 C 840.776 0.586448 -3.44037 0
M  V30 8901 C 842.124 0.880294 -4.15375 0
M  V30 8902 O 843.148 0.672148 -3.49801 0
M  V30 8903 O 842.007 1.27694 -5.31372 0
M  V30 8904 H 839.101 0.227622 -0.795058 0
M  V30 8905 H 841.647 -0.295733 -1.67103 0
M  V30 8906 H 840.419 -0.352327 -3.89711 0
M  V30 8907 H 840.042 1.35528 -3.73789 0
M  V30 8908 N 841.039 1.57585 0.0217189 0
M  V30 8909 C 842.267 1.93871 0.722619 0
M  V30 8910 C 842.682 0.851706 1.68498 0
M  V30 8911 O 842.039 -0.17127 1.81695 0
M  V30 8912 C 842.09 3.30114 1.47333 0
M  V30 8913 O 841.811 4.34639 0.549597 0
M  V30 8914 C 843.312 3.80727 2.27072 0
M  V30 8915 H 840.532 0.639671 0.202637 0
M  V30 8916 H 843.076 2.04487 -0.0229414 0
M  V30 8917 H 841.231 3.20872 2.17071 0
M  V30 8918 H 841.645 5.13326 1.07686 0
M  V30 8919 H 843.119 4.78547 2.75131 0
M  V30 8920 H 843.596 3.12301 3.08812 0
M  V30 8921 H 844.202 3.93075 1.62395 0
M  V30 8922 N 842.517 -0.29412 1.54831 0
M  V30 8923 C 843.742 -1.05156 1.78765 0
M  V30 8924 C 844.167 -1.79916 0.548809 0
M  V30 8925 O 843.525 -1.74243 -0.500909 0
M  V30 8926 C 843.573 -2.00242 2.99893 0
M  V30 8927 O 842.677 -3.08662 2.73499 0
M  V30 8928 H 842.018 -0.301737 0.591482 0
M  V30 8929 H 844.548 -0.329449 2.0193 0
M  V30 8930 H 844.558 -2.42583 3.28051 0
M  V30 8931 H 843.233 -1.45235 3.89717 0
M  V30 8932 H 841.81 -2.70786 2.56377 0
M  V30 8933 N 843.995 -1.47404 -0.557645 0
M  V30 8934 C 845.223 -1.57622 -1.34026 0
M  V30 8935 C 845.638 -0.226256 -1.87439 0
M  V30 8936 O 844.995 0.78043 -1.64971 0
M  V30 8937 C 845.046 -2.60111 -2.51047 0
M  V30 8938 O 844.767 -3.89866 -1.99841 0
M  V30 8939 C 846.268 -2.80508 -3.43264 0
M  V30 8940 H 843.488 -0.532271 -0.40857 0
M  V30 8941 H 846.032 -1.93019 -0.675555 0
M  V30 8942 H 844.187 -2.27648 -3.13457 0
M  V30 8943 H 844.601 -4.45864 -2.76234 0
M  V30 8944 H 846.075 -3.56084 -4.21792 0
M  V30 8945 H 846.552 -1.88314 -3.9678 0
M  V30 8946 H 847.158 -3.14166 -2.86671 0
M  V30 8947 N 845.473 0.80434 -1.35529 0
M  V30 8948 C 846.884 1.37849 -1.25915 0
M  V30 8949 C 847.235 1.95905 0.107495 0
M  V30 8950 O 846.36 1.91462 1.00852 0
M  V30 8951 C 846.955 2.50608 -2.27994 0
M  V30 8952 C 845.514 3.03879 -2.22114 0
M  V30 8953 C 844.661 1.76856 -2.13582 0
M  V30 8954 H 847.612 0.607192 -1.46625 0
M  V30 8955 H 847.633 3.29221 -1.90772 0
M  V30 8956 H 847.145 2.08323 -3.27449 0
M  V30 8957 H 845.246 3.50622 -1.26077 0
M  V30 8958 H 845.359 3.61707 -3.14173 0
M  V30 8959 H 843.723 1.98498 -1.59595 0
M  V30 8960 H 844.506 1.36721 -3.14901 0
M  V30 8961 N 846.951 1.19563 1.02676 0
M  V30 8962 C 847.861 0.950691 2.14474 0
M  V30 8963 C 848.877 -0.0900219 1.73767 0
M  V30 8964 O 850.053 0.0951063 2.01175 0
M  V30 8965 C 847.118 0.494917 3.43149 0
M  V30 8966 C 846.179 1.60527 3.98158 0
M  V30 8967 C 845.412 1.17115 5.20692 0
M  V30 8968 O 845.635 0.0355937 5.70389 0
M  V30 8969 O 844.569 1.97454 5.68591 0
M  V30 8970 H 848.395 1.88651 2.38001 0
M  V30 8971 H 845.98 0.978635 1.12885 0
M  V30 8972 H 847.862 0.249492 4.20661 0
M  V30 8973 H 846.537 -0.412434 3.21062 0
M  V30 8974 H 845.444 1.90487 3.21971 0
M  V30 8975 H 846.777 2.48925 4.24614 0
M  V30 8976 N 848.429 -1.21819 0.999893 0
M  V30 8977 C 849.339 -2.27691 0.565159 0
M  V30 8978 C 850.355 -1.69587 -0.389398 0
M  V30 8979 O 851.531 -1.99786 -0.254499 0
M  V30 8980 C 848.596 -3.46537 -0.106432 0
M  V30 8981 C 847.657 -4.19932 0.891964 0
M  V30 8982 C 846.89 -5.33103 0.252327 0
M  V30 8983 O 847.113 -5.62398 -0.952103 0
M  V30 8984 O 846.047 -5.94184 0.960698 0
M  V30 8985 H 849.873 -2.67059 1.44613 0
M  V30 8986 H 847.458 -1.28119 0.768499 0
M  V30 8987 H 849.34 -4.18631 -0.482301 0
M  V30 8988 H 848.015 -3.09079 -0.961865 0
M  V30 8989 H 846.922 -3.5008 1.3189 0
M  V30 8990 H 848.255 -4.61287 1.71682 0
M  V30 8991 N 849.908 -0.773975 -1.37286 0
M  V30 8992 C 851.136 -0.350758 -2.03905 0
M  V30 8993 C 851.551 1.02779 -1.58373 0
M  V30 8994 O 850.908 1.65646 -0.766009 0
M  V30 8995 C 850.959 -0.387335 -3.59419 0
M  V30 8996 O 850.68 -1.7115 -4.03286 0
M  V30 8997 C 852.181 0.047198 -4.43275 0
M  V30 8998 H 849.401 -0.146663 -0.654775 0
M  V30 8999 H 851.945 -1.04852 -1.75574 0
M  V30 9000 H 850.1 0.261865 -3.86514 0
M  V30 9001 H 850.514 -1.65166 -4.97816 0
M  V30 9002 H 851.988 -0.0295474 -5.51992 0
M  V30 9003 H 852.465 1.09786 -4.25257 0
M  V30 9004 H 853.071 -0.573899 -4.2141 0
M  V30 9005 N 851.386 1.48609 -0.524698 0
M  V30 9006 C 852.333 2.29539 0.240956 0
M  V30 9007 C 853.303 1.37033 0.938681 0
M  V30 9008 O 854.488 1.65996 0.940737 0
M  V30 9009 C 851.628 3.20278 1.28514 0
M  V30 9010 C 850.741 4.27858 0.596798 0
M  V30 9011 C 849.876 5.05784 1.62346 0
M  V30 9012 C 848.915 6.05173 0.918287 0
M  V30 9013 N 848.052 6.76176 1.89025 0
M  V30 9014 H 852.892 2.945 -0.455368 0
M  V30 9015 H 850.429 1.45188 -0.236403 0
M  V30 9016 H 852.387 3.71281 1.90279 0
M  V30 9017 H 851.017 2.57251 1.94992 0
M  V30 9018 H 850.069 3.80162 -0.134668 0
M  V30 9019 H 851.381 4.98782 0.0428506 0
M  V30 9020 H 850.535 5.60775 2.31553 0
M  V30 9021 H 849.274 4.34687 2.2113 0
M  V30 9022 H 848.279 5.49391 0.21212 0
M  V30 9023 H 849.504 6.78265 0.336633 0
M  V30 9024 H 847.45 6.07834 2.46726 0
M  V30 9025 H 847.367 7.43157 1.3876 0
M  V30 9026 H 848.635 7.35759 2.57446 0
M  V30 9027 N 852.864 0.259585 1.55447 0
M  V30 9028 C 854.113 -0.362163 1.98422 0
M  V30 9029 C 854.426 -1.58135 1.1512 0
M  V30 9030 O 855.632 -2.27506 1.48166 0
M  V30 9031 C 854.088 -0.695722 3.53111 0
M  V30 9032 C 853.696 0.502784 4.4517 0
M  V30 9033 C 855.44 -1.28096 4.04712 0
M  V30 9034 C 853.347 0.144674 5.91223 0
M  V30 9035 H 852.277 -0.139092 0.74106 0
M  V30 9036 H 854.928 0.361798 1.79898 0
M  V30 9037 H 853.31 -1.47816 3.67378 0
M  V30 9038 H 854.484 1.27994 4.42667 0
M  V30 9039 H 852.799 1.0038 4.0412 0
M  V30 9040 H 855.396 -1.56243 5.11363 0
M  V30 9041 H 855.739 -2.20969 3.52815 0
M  V30 9042 H 856.272 -0.561146 3.93822 0
M  V30 9043 H 853.011 1.04087 6.47183 0
M  V30 9044 H 852.531 -0.596023 5.96831 0
M  V30 9045 H 854.21 -0.268651 6.46442 0
M  V30 9046 N 854.342 -1.57594 -0.0133615 0
M  V30 9047 C 855.589 -1.8998 -0.70098 0
M  V30 9048 C 855.917 -0.858802 -1.74513 0
M  V30 9049 O 855.172 0.138209 -1.95211 0
M  V30 9050 C 855.471 -3.29121 -1.39336 0
M  V30 9051 C 855.137 -4.48298 -0.483687 0
M  V30 9052 C 853.799 -4.80635 -0.233186 0
M  V30 9053 C 856.151 -5.21003 0.143426 0
M  V30 9054 C 853.479 -5.83055 0.652943 0
M  V30 9055 C 855.831 -6.24366 1.01735 0
M  V30 9056 C 854.495 -6.55168 1.27716 0
M  V30 9057 H 853.765 -0.695187 -0.256507 0
M  V30 9058 H 856.412 -1.9146 0.0392965 0
M  V30 9059 H 854.717 -3.23703 -2.20735 0
M  V30 9060 H 856.414 -3.51433 -1.93121 0
M  V30 9061 H 853.004 -4.23024 -0.689092 0
M  V30 9062 H 857.188 -4.96286 -0.0371139 0
M  V30 9063 H 852.444 -6.05288 0.862379 0
M  V30 9064 H 856.618 -6.79839 1.5097 0
M  V30 9065 H 854.245 -7.34351 1.9655 0
M  V30 9066 N 855.82 0.285905 -1.54985 0
M  V30 9067 C 857.045 1.04207 -1.7932 0
M  V30 9068 C 857.47 1.79622 -0.558343 0
M  V30 9069 O 856.828 1.74506 0.491661 0
M  V30 9070 C 856.876 1.98648 -3.0095 0
M  V30 9071 O 855.98 3.07207 -2.75132 0
M  V30 9072 H 855.321 0.298596 -0.593074 0
M  V30 9073 H 857.851 0.318736 -2.02102 0
M  V30 9074 H 857.861 2.4084 -3.29333 0
M  V30 9075 H 856.536 1.43167 -3.90482 0
M  V30 9076 H 855.113 2.69423 -2.57809 0
M  V30 9077 N 857.298 1.47698 0.54982 0
M  V30 9078 C 858.709 1.48474 1.13191 0
M  V30 9079 C 859.06 0.243504 1.94683 0
M  V30 9080 O 858.185 -0.651009 2.06375 0
M  V30 9081 C 858.78 2.69022 2.05944 0
M  V30 9082 C 857.339 2.72733 2.5941 0
M  V30 9083 C 856.486 2.41691 1.35944 0
M  V30 9084 H 859.437 1.55101 0.336048 0
M  V30 9085 H 859.458 2.46412 2.89934 0
M  V30 9086 H 858.97 3.59345 1.46605 0
M  V30 9087 H 857.071 1.86568 3.22526 0
M  V30 9088 H 857.184 3.73628 2.99899 0
M  V30 9089 H 855.548 1.92428 1.66864 0
M  V30 9090 H 856.331 3.34231 0.783869 0
M  V30 9091 N 858.776 -0.797141 1.35954 0
M  V30 9092 C 859.708 -1.91782 1.25509 0
M  V30 9093 C 860.721 -1.61843 0.176271 0
M  V30 9094 O 861.91 -1.73235 0.430343 0
M  V30 9095 C 859.01 -3.26396 0.912073 0
M  V30 9096 C 858.183 -3.84171 2.0912 0
M  V30 9097 C 857.242 -4.9721 1.72246 0
M  V30 9098 O 856.268 -5.14136 2.44239 0
M  V30 9099 N 857.47 -5.76831 0.651611 0
M  V30 9100 H 860.235 -2.01266 2.22063 0
M  V30 9101 H 857.796 -0.975033 1.29247 0
M  V30 9102 H 859.788 -3.99499 0.646707 0
M  V30 9103 H 858.358 -3.12579 0.0359079 0
M  V30 9104 H 857.578 -3.03148 2.51982 0
M  V30 9105 H 858.866 -4.19503 2.87914 0
M  V30 9106 H 858.264 -5.65675 0.0536678 0
M  V30 9107 H 856.821 -6.50272 0.44605 0
M  V30 9108 N 860.254 -1.20106 -1.0204 0
M  V30 9109 C 861.217 -0.948261 -2.08664 0
M  V30 9110 C 862.217 0.0746753 -1.60627 0
M  V30 9111 O 863.407 -0.160981 -1.73455 0
M  V30 9112 C 860.539 -0.426854 -3.38217 0
M  V30 9113 H 861.732 -1.894 -2.32524 0
M  V30 9114 H 859.285 -1.0159 -1.18782 0
M  V30 9115 H 860.02 0.524532 -3.2003 0
M  V30 9116 H 859.805 -1.16451 -3.74408 0
M  V30 9117 H 861.295 -0.269346 -4.1673 0
M  V30 9118 N 861.732 1.21287 -1.00634 0
M  V30 9119 C 862.957 1.94925 -0.708441 0
M  V30 9120 C 863.382 1.73659 0.722783 0
M  V30 9121 O 862.74 1.02429 1.49593 0
M  V30 9122 C 862.788 3.45377 -1.03667 0
M  V30 9123 O 861.892 4.12153 -0.142661 0
M  V30 9124 H 861.233 0.609338 -0.263824 0
M  V30 9125 H 863.763 1.54008 -1.34695 0
M  V30 9126 H 863.773 3.95954 -0.984086 0
M  V30 9127 H 862.448 3.6018 -2.0795 0
M  V30 9128 H 861.025 3.72048 -0.251888 0
M  V30 9129 N 863.21 0.781244 1.36873 0
M  V30 9130 C 864.44 0.361042 2.03421 0
M  V30 9131 C 864.848 -1.02471 1.59048 0
M  V30 9132 O 864.191 -1.66712 0.771552 0
M  V30 9133 C 864.253 0.336202 3.57924 0
M  V30 9134 C 863.917 1.66815 4.25467 0
M  V30 9135 C 864.914 2.62224 4.48926 0
M  V30 9136 C 862.599 1.9452 4.63106 0
M  V30 9137 C 864.593 3.83538 5.09095 0
M  V30 9138 C 862.28 3.16103 5.22994 0
M  V30 9139 C 863.278 4.10431 5.45926 0
M  V30 9140 O 862.966 5.29871 6.04559 0
M  V30 9141 H 862.698 0.147956 0.65961 0
M  V30 9142 H 865.252 1.05895 1.75998 0
M  V30 9143 H 863.482 -0.418147 3.84433 0
M  V30 9144 H 865.171 -0.0582199 4.05858 0
M  V30 9145 H 865.937 2.42104 4.20251 0
M  V30 9146 H 861.816 1.21921 4.44585 0
M  V30 9147 H 865.36 4.57178 5.2691 0
M  V30 9148 H 861.257 3.36104 5.51094 0
M  V30 9149 H 862.025 5.30825 6.23031 0
M  V30 9150 N 864.689 -1.48329 0.532571 0
M  V30 9151 C 865.938 -2.017 -0.00259705 0
M  V30 9152 C 866.251 -1.41469 -1.35077 0
M  V30 9153 O 867.457 -1.86354 -1.97445 0
M  V30 9154 C 865.913 -3.59858 -0.0550179 0
M  V30 9155 C 865.521 -4.29073 1.28842 0
M  V30 9156 C 867.265 -4.21066 -0.538878 0
M  V30 9157 C 865.172 -5.79171 1.19644 0
M  V30 9158 H 864.102 -0.753985 -0.00474081 0
M  V30 9159 H 866.753 -1.70565 0.676739 0
M  V30 9160 H 865.135 -3.87846 -0.799486 0
M  V30 9161 H 866.309 -4.12755 2.04865 0
M  V30 9162 H 864.624 -3.79748 1.70822 0
M  V30 9163 H 867.221 -5.31026 -0.6257 0
M  V30 9164 H 867.564 -3.86559 -1.54525 0
M  V30 9165 H 868.097 -3.97517 0.149984 0
M  V30 9166 H 864.836 -6.18257 2.17805 0
M  V30 9167 H 864.356 -5.97895 0.477609 0
M  V30 9168 H 866.035 -6.40875 0.888186 0
M  V30 9169 N 866.167 -0.267825 -1.55308 0
M  V30 9170 C 867.413 0.351556 -1.9973 0
M  V30 9171 C 867.746 1.56049 -1.15596 0
M  V30 9172 O 867.021 1.93203 -0.224274 0
M  V30 9173 C 867.304 0.74091 -3.52395 0
M  V30 9174 C 867.157 -0.474861 -4.47286 0
M  V30 9175 C 868.476 1.5801 -4.10756 0
M  V30 9176 H 865.595 0.126308 -0.726096 0
M  V30 9177 H 868.237 -0.373316 -1.86296 0
M  V30 9178 H 866.387 1.35851 -3.63973 0
M  V30 9179 H 868.059 -1.1134 -4.47662 0
M  V30 9180 H 866.302 -1.11425 -4.19246 0
M  V30 9181 H 866.973 -0.158782 -5.51772 0
M  V30 9182 H 869.449 1.05857 -4.0241 0
M  V30 9183 H 868.325 1.82135 -5.17801 0
M  V30 9184 H 868.586 2.55878 -3.60526 0
M  V30 9185 N 867.645 1.57599 0.00500368 0
M  V30 9186 C 868.875 1.94344 0.700998 0
M  V30 9187 C 869.283 0.868011 1.68114 0
M  V30 9188 O 868.626 -0.16214 1.82983 0
M  V30 9189 C 868.688 3.27046 1.49268 0
M  V30 9190 C 868.352 4.51992 0.674684 0
M  V30 9191 C 869.349 5.19888 -0.0354833 0
M  V30 9192 C 867.034 4.98432 0.622129 0
M  V30 9193 C 869.028 6.3252 -0.787246 0
M  V30 9194 C 866.715 6.10954 -0.133362 0
M  V30 9195 C 867.713 6.77855 -0.836788 0
M  V30 9196 O 867.401 7.88221 -1.57996 0
M  V30 9197 H 867.133 0.645572 0.20053 0
M  V30 9198 H 869.687 2.0536 -0.040718 0
M  V30 9199 H 867.917 3.12424 2.27877 0
M  V30 9200 H 869.606 3.4894 2.07355 0
M  V30 9201 H 870.372 4.85 -0.00400159 0
M  V30 9202 H 866.251 4.46189 1.15917 0
M  V30 9203 H 869.795 6.84671 -1.33683 0
M  V30 9204 H 865.692 6.45285 -0.166682 0
M  V30 9205 H 866.46 8.0471 -1.49615 0
M  V30 9206 N 869.123 -0.277682 1.55134 0
M  V30 9207 C 870.4 -1.0309 1.66228 0
M  V30 9208 C 870.78 -2.0445 0.525701 0
M  V30 9209 O 870.128 -2.23512 -0.474816 0
M  V30 9210 C 870.338 -1.6919 3.05247 0
M  V30 9211 C 871.686 -2.20526 3.62841 0
M  V30 9212 O 872.71 -1.79185 3.07849 0
M  V30 9213 O 871.569 -2.96342 4.59177 0
M  V30 9214 H 868.663 -0.4779 0.674937 0
M  V30 9215 H 871.209 -0.273912 1.67475 0
M  V30 9216 H 869.981 -0.957163 3.79413 0
M  V30 9217 H 869.604 -2.51587 3.07879 0
M  V30 9218 N 870.601 -1.47988 -0.541979 0
M  V30 9219 C 871.534 -1.56172 -1.66389 0
M  V30 9220 C 872.512 -0.412879 -1.57271 0
M  V30 9221 O 873.696 -0.622816 -1.77914 0
M  V30 9222 C 870.823 -1.47851 -3.04726 0
M  V30 9223 C 869.869 -2.67428 -3.32242 0
M  V30 9224 S 870.702 -4.29502 -3.19825 0
M  V30 9225 C 871.858 -4.2376 -4.60628 0
M  V30 9226 H 872.091 -2.51086 -1.59195 0
M  V30 9227 H 869.624 -1.36373 -0.724005 0
M  V30 9228 H 871.582 -1.43738 -3.84512 0
M  V30 9229 H 870.243 -0.542958 -3.09372 0
M  V30 9230 H 869.436 -2.57711 -4.33129 0
M  V30 9231 H 869.038 -2.68743 -2.60103 0
M  V30 9232 H 871.33 -3.92953 -5.51901 0
M  V30 9233 H 872.273 -5.24786 -4.75401 0
M  V30 9234 H 872.681 -3.54398 -4.39389 0
M  V30 9235 N 872.079 0.78992 -1.36375 0
M  V30 9236 C 873.009 1.91683 -1.33341 0
M  V30 9237 C 873.99 1.68861 -0.204965 0
M  V30 9238 O 875.175 1.89982 -0.402531 0
M  V30 9239 C 872.305 3.28696 -1.12143 0
M  V30 9240 C 871.259 3.66041 -2.21806 0
M  V30 9241 C 870.585 5.01399 -1.85751 0
M  V30 9242 C 871.885 3.74677 -3.63888 0
M  V30 9243 H 873.579 1.94478 -2.27637 0
M  V30 9244 H 871.125 0.934271 -1.09578 0
M  V30 9245 H 873.078 4.07151 -1.08656 0
M  V30 9246 H 871.802 3.26287 -0.142974 0
M  V30 9247 H 870.461 2.89883 -2.24418 0
M  V30 9248 H 870.109 4.9551 -0.864817 0
M  V30 9249 H 869.809 5.27355 -2.59173 0
M  V30 9250 H 871.333 5.82274 -1.83819 0
M  V30 9251 H 872.747 4.43324 -3.63506 0
M  V30 9252 H 871.144 4.12118 -4.3621 0
M  V30 9253 H 872.214 2.75795 -3.9883 0
M  V30 9254 N 873.557 1.20646 1.01402 0
M  V30 9255 C 874.504 0.957618 2.09996 0
M  V30 9256 C 875.474 -0.113115 1.65714 0
M  V30 9257 O 876.659 0.032142 1.90773 0
M  V30 9258 C 873.799 0.5186 3.41181 0
M  V30 9259 C 872.912 1.65777 3.98926 0
M  V30 9260 C 872.047 1.16881 5.18182 0
M  V30 9261 C 871.086 2.2809 5.68015 0
M  V30 9262 N 870.223 1.80392 6.7853 0
M  V30 9263 H 875.063 1.88732 2.30617 0
M  V30 9264 H 872.6 0.940703 1.13089 0
M  V30 9265 H 874.558 0.245367 4.16478 0
M  V30 9266 H 873.188 -0.3741 3.20625 0
M  V30 9267 H 872.24 2.04586 3.207 0
M  V30 9268 H 873.552 2.49507 4.31912 0
M  V30 9269 H 872.706 0.851694 6.00692 0
M  V30 9270 H 871.445 0.301434 4.86768 0
M  V30 9271 H 870.45 2.60614 4.84108 0
M  V30 9272 H 871.675 3.15308 6.01463 0
M  V30 9273 H 869.621 0.959856 6.4894 0
M  V30 9274 H 869.538 2.57701 7.10722 0
M  V30 9275 H 870.806 1.51688 7.64598 0
M  V30 9276 N 875.035 -1.20752 1.01276 0
M  V30 9277 C 876.312 -1.85676 0.615112 0
M  V30 9278 C 876.692 -1.90623 -0.906976 0
M  V30 9279 O 876.04 -1.41124 -1.79712 0
M  V30 9280 C 876.25 -3.2552 1.25847 0
M  V30 9281 C 877.598 -4.0184 1.37148 0
M  V30 9282 O 878.622 -3.3486 1.21438 0
M  V30 9283 O 877.481 -5.21783 1.62495 0
M  V30 9284 H 874.575 -0.799437 0.211729 0
M  V30 9285 H 877.121 -1.28372 1.10989 0
M  V30 9286 H 875.893 -3.16664 2.29869 0
M  V30 9287 H 875.516 -3.90452 0.750524 0
M  V30 9288 N 876.513 -0.788492 -1.36457 0
M  V30 9289 C 877.445 -0.144208 -2.28746 0
M  V30 9290 C 878.458 0.646009 -1.49434 0
M  V30 9291 O 879.647 0.481344 -1.71888 0
M  V30 9292 C 876.747 0.818869 -3.28858 0
M  V30 9293 C 875.92 0.0789055 -4.37329 0
M  V30 9294 C 874.979 0.957791 -5.1741 0
M  V30 9295 O 874.005 0.415378 -5.67682 0
M  V30 9296 N 875.207 2.28216 -5.33758 0
M  V30 9297 H 877.972 -0.936949 -2.84678 0
M  V30 9298 H 875.533 -0.642317 -1.48613 0
M  V30 9299 H 877.525 1.41065 -3.79319 0
M  V30 9300 H 876.095 1.51249 -2.73573 0
M  V30 9301 H 875.315 -0.693939 -3.88044 0
M  V30 9302 H 876.603 -0.431753 -5.06965 0
M  V30 9303 H 876.001 2.747 -4.94527 0
M  V30 9304 H 874.558 2.8236 -5.87466 0
M  V30 9305 N 877.991 1.48044 -0.54043 0
M  V30 9306 C 879.237 2.02797 -0.0101718 0
M  V30 9307 C 879.57 1.41565 1.32939 0
M  V30 9308 O 878.845 0.565139 1.86109 0
M  V30 9309 C 879.128 3.59959 0.100758 0
M  V30 9310 C 878.981 4.31654 -1.26471 0
M  V30 9311 C 880.3 4.32347 0.822455 0
M  V30 9312 H 877.419 0.736982 -0.00517052 0
M  V30 9313 H 880.061 1.76656 -0.69948 0
M  V30 9314 H 878.211 3.82363 0.687824 0
M  V30 9315 H 879.883 4.20639 -1.89369 0
M  V30 9316 H 878.126 3.92663 -1.84386 0
M  V30 9317 H 878.797 5.401 -1.13998 0
M  V30 9318 H 881.273 4.14835 0.324164 0
M  V30 9319 H 880.149 5.41978 0.868993 0
M  V30 9320 H 880.41 4.00369 1.87501 0
M  V30 9321 N 879.47 0.276058 1.55163 0
M  V30 9322 C 880.38 -0.621066 2.2623 0
M  V30 9323 C 881.396 -1.16931 1.28853 0
M  V30 9324 O 882.572 -1.1994 1.61791 0
M  V30 9325 C 879.637 -1.78824 2.97023 0
M  V30 9326 C 878.698 -1.27657 4.09881 0
M  V30 9327 C 877.931 -2.38812 4.77289 0
M  V30 9328 O 878.154 -3.58188 4.43912 0
M  V30 9329 O 877.088 -2.06915 5.65217 0
M  V30 9330 H 880.914 -0.0453346 3.03666 0
M  V30 9331 H 878.499 0.0434275 1.49337 0
M  V30 9332 H 880.381 -2.46877 3.41511 0
M  V30 9333 H 879.056 -2.35104 2.22503 0
M  V30 9334 H 877.963 -0.56248 3.69847 0
M  V30 9335 H 879.296 -0.759509 4.86305 0
M  V30 9336 N 880.948 -1.576 0.00335426 0
M  V30 9337 C 882.173 -1.95398 -0.695311 0
M  V30 9338 C 882.598 -0.878476 -1.66326 0
M  V30 9339 O 881.956 0.163086 -1.80565 0
M  V30 9340 C 882.004 -3.32293 -1.40049 0
M  V30 9341 O 881.108 -3.26834 -2.51502 0
M  V30 9342 H 880.449 -0.637796 -0.184694 0
M  V30 9343 H 882.979 -2.04519 0.057543 0
M  V30 9344 H 882.989 -3.67936 -1.76316 0
M  V30 9345 H 881.664 -4.10123 -0.690803 0
M  V30 9346 H 880.241 -3.02872 -2.17539 0
M  V30 9347 N 882.426 0.269451 -1.5528 0
M  V30 9348 C 883.674 0.998604 -1.75705 0
M  V30 9349 C 883.995 1.86691 -0.563175 0
M  V30 9350 O 883.265 1.91305 0.421811 0
M  V30 9351 H 881.845 0.371698 -0.647958 0
M  V30 9352 H 884.507 0.292826 -1.92688 0
M  V30 9353 H 883.603 1.63348 -2.6594 0
M  V30 9354 N 883.904 1.48273 0.534124 0
M  V30 9355 C 885.129 1.59988 1.31979 0
M  V30 9356 C 885.554 0.258824 1.86311 0
M  V30 9357 O 884.912 -0.768885 1.64188 0
M  V30 9358 C 884.96 2.64642 2.44943 0
M  V30 9359 O 884.064 2.21515 3.47858 0
M  V30 9360 H 883.405 0.536625 0.391063 0
M  V30 9361 H 885.935 1.94229 0.643135 0
M  V30 9362 H 885.945 2.85786 2.91187 0
M  V30 9363 H 884.62 3.62004 2.04758 0
M  V30 9364 H 883.197 2.10567 3.0776 0
M  V30 9365 N 885.382 -0.782676 1.36792 0
M  V30 9366 C 886.345 -1.8772 1.31507 0
M  V30 9367 C 887.345 -1.59269 0.221349 0
M  V30 9368 O 888.535 -1.67555 0.476544 0
M  V30 9369 C 885.667 -3.24641 1.04025 0
M  V30 9370 H 886.86 -1.9382 2.28853 0
M  V30 9371 H 884.413 -0.981226 1.21662 0
M  V30 9372 H 885.148 -3.24221 0.0716439 0
M  V30 9373 H 884.933 -3.46681 1.8318 0
M  V30 9374 H 886.423 -4.04711 1.02949 0
M  V30 9375 N 886.86 -1.21182 -1.00761 0
M  V30 9376 C 887.807 -0.968741 -2.09485 0
M  V30 9377 C 888.777 0.104325 -1.65772 0
M  V30 9378 O 889.962 -0.0422587 -1.90753 0
M  V30 9379 C 887.102 -0.536686 -3.40901 0
M  V30 9380 C 886.215 -1.6789 -3.98041 0
M  V30 9381 C 885.35 -1.19627 -5.17555 0
M  V30 9382 C 884.389 -2.31099 -5.66798 0
M  V30 9383 N 883.526 -1.83988 -6.77564 0
M  V30 9384 H 888.366 -1.89952 -2.29613 0
M  V30 9385 H 885.903 -0.946688 -1.12589 0
M  V30 9386 H 887.861 -0.26745 -4.16342 0
M  V30 9387 H 886.491 0.357092 -3.20819 0
M  V30 9388 H 885.543 -2.06284 -3.19611 0
M  V30 9389 H 886.855 -2.51794 -4.30582 0
M  V30 9390 H 886.009 -0.883539 -6.00232 0
M  V30 9391 H 884.748 -0.327244 -4.86601 0
M  V30 9392 H 883.753 -2.63178 -4.82719 0
M  V30 9393 H 884.978 -3.18493 -5.99782 0
M  V30 9394 H 882.924 -0.994257 -6.48422 0
M  V30 9395 H 882.841 -2.61466 -7.09346 0
M  V30 9396 H 884.109 -1.55741 -7.63783 0
M  V30 9397 N 888.338 1.20213 -1.01915 0
M  V30 9398 C 889.563 1.94163 -0.729076 0
M  V30 9399 C 889.988 1.74416 0.704323 0
M  V30 9400 O 889.346 1.0401 1.48498 0
M  V30 9401 C 889.394 3.44258 -1.07324 0
M  V30 9402 O 888.498 4.11979 -0.186367 0
M  V30 9403 H 887.839 0.606506 -0.270272 0
M  V30 9404 H 890.369 1.52571 -1.3632 0
M  V30 9405 H 890.379 3.94888 -1.02603 0
M  V30 9406 H 889.054 3.57954 -2.11759 0
M  V30 9407 H 887.631 3.7176 -0.291334 0
M  V30 9408 N 889.816 0.795718 1.36037 0
M  V30 9409 C 890.779 0.204318 2.28287 0
M  V30 9410 C 891.779 -0.602017 1.49105 0
M  V30 9411 O 892.969 -0.422089 1.69009 0
M  V30 9412 C 890.101 -0.716431 3.33287 0
M  V30 9413 H 891.294 1.01781 2.821 0
M  V30 9414 H 888.847 0.565588 1.45708 0
M  V30 9415 H 889.582 -1.55403 2.84641 0
M  V30 9416 H 889.367 -0.140096 3.9185 0
M  V30 9417 H 890.857 -1.12488 4.02164 0
M  V30 9418 N 891.294 -1.47756 0.548274 0
M  V30 9419 C 892.241 -2.29893 -0.204408 0
M  V30 9420 C 893.211 -1.38509 -0.916761 0
M  V30 9421 O 894.396 -1.67472 -0.91421 0
M  V30 9422 C 891.536 -3.22282 -1.23403 0
M  V30 9423 C 890.649 -4.28753 -0.528654 0
M  V30 9424 C 889.784 -5.08303 -1.54279 0
M  V30 9425 C 888.823 -6.06557 -0.821893 0
M  V30 9426 N 887.96 -6.79098 -1.78243 0
M  V30 9427 H 892.8 -2.93739 0.502163 0
M  V30 9428 H 890.337 -1.44793 0.259471 0
M  V30 9429 H 892.295 -3.74262 -1.84348 0
M  V30 9430 H 890.925 -2.6032 -1.90875 0
M  V30 9431 H 889.977 -3.79899 0.195132 0
M  V30 9432 H 891.289 -4.98787 0.0365066 0
M  V30 9433 H 890.443 -5.64388 -2.22602 0
M  V30 9434 H 889.182 -4.3815 -2.14186 0
M  V30 9435 H 888.187 -5.49659 -0.12469 0
M  V30 9436 H 889.412 -6.78715 -0.228685 0
M  V30 9437 H 887.358 -6.11682 -2.37025 0
M  V30 9438 H 887.275 -7.4527 -1.26919 0
M  V30 9439 H 888.543 -7.39762 -2.45709 0
M  V30 9440 N 892.772 -0.284283 -1.55015 0
M  V30 9441 C 894.019 0.329864 -1.99795 0
M  V30 9442 C 894.347 1.55171 -1.1727 0
M  V30 9443 O 893.602 1.94312 -0.232667 0
M  V30 9444 C 893.901 0.747219 -3.49502 0
M  V30 9445 C 893.567 -0.37101 -4.49371 0
M  V30 9446 C 892.229 -0.678034 -4.76399 0
M  V30 9447 C 894.581 -1.12406 -5.08935 0
M  V30 9448 C 891.909 -1.74152 -5.60257 0
M  V30 9449 C 894.261 -2.17734 -5.93948 0
M  V30 9450 C 892.925 -2.49061 -6.19294 0
M  V30 9451 H 892.195 0.120706 -0.731103 0
M  V30 9452 H 894.842 -0.399904 -1.87278 0
M  V30 9453 H 893.147 1.55681 -3.59542 0
M  V30 9454 H 894.844 1.2333 -3.81563 0
M  V30 9455 H 891.434 -0.1216 -4.28427 0
M  V30 9456 H 895.618 -0.900119 -4.88069 0
M  V30 9457 H 890.874 -1.98915 -5.78137 0
M  V30 9458 H 895.048 -2.76553 -6.39133 0
M  V30 9459 H 892.675 -3.31602 -6.84064 0
M  V30 9460 N 894.251 1.57596 -0.0117121 0
M  V30 9461 C 895.499 1.90694 0.669342 0
M  V30 9462 C 895.82 0.886999 1.73659 0
M  V30 9463 O 895.09 -0.0739779 1.9576 0
M  V30 9464 H 893.67 0.703846 0.250219 0
M  V30 9465 H 896.332 1.94821 -0.0554057 0
M  V30 9466 H 895.428 2.90802 1.13316 0
M  V30 9467 N 895.729 -0.261212 1.5542 0
M  V30 9468 C 896.677 -1.34298 1.89913 0
M  V30 9469 C 897.671 -1.50547 0.776665 0
M  V30 9470 O 898.877 -1.52191 0.961139 0
M  V30 9471 H 895.252 -0.4494 0.602946 0
M  V30 9472 H 897.223 -1.02464 2.80256 0
M  V30 9473 C 895.972 -2.69423 2.19788 0
M  V30 9474 H 895.295 -2.57715 3.05652 0
M  V30 9475 H 896.735 -3.44026 2.47835 0
M  V30 9476 C 895.194 -3.21423 1.00939 0
M  V30 9477 O 895.724 -4.00921 0.250034 0
M  V30 9478 N 893.93 -2.7926 0.803883 0
M  V30 9479 H 893.477 -2.14724 1.42308 0
M  V30 9480 H 893.435 -3.14398 0.0103257 0
M  V30 9481 N 897.207 -1.48554 -0.526253 0
M  V30 9482 C 898.456 -1.56014 -1.27837 0
M  V30 9483 C 898.769 -0.240643 -1.94114 0
M  V30 9484 O 899.975 -0.193525 -2.70809 0
M  V30 9485 C 898.431 -2.75161 -2.31979 0
M  V30 9486 C 898.039 -4.13768 -1.71755 0
M  V30 9487 C 899.783 -2.91936 -3.08178 0
M  V30 9488 C 897.69 -5.24171 -2.7386 0
M  V30 9489 H 896.62 -0.58082 -0.480795 0
M  V30 9490 H 899.271 -1.74895 -0.555335 0
M  V30 9491 H 897.653 -2.49722 -3.07335 0
M  V30 9492 H 898.827 -4.49241 -1.02563 0
M  V30 9493 H 897.142 -4.02141 -1.08036 0
M  V30 9494 H 899.739 -3.71586 -3.84484 0
M  V30 9495 H 900.082 -2.01533 -3.64267 0
M  V30 9496 H 900.615 -3.17294 -2.39937 0
M  V30 9497 H 897.354 -6.16552 -2.22586 0
M  V30 9498 H 896.874 -4.93181 -3.41368 0
M  V30 9499 H 898.553 -5.52442 -3.36774 0
M  V30 9500 N 898.685 0.775411 -1.37205 0
M  V30 9501 C 900.096 1.35147 -1.28811 0
M  V30 9502 C 900.447 1.96089 0.0659168 0
M  V30 9503 O 899.572 1.93558 0.967684 0
M  V30 9504 C 900.167 2.45715 -2.33258 0
M  V30 9505 C 898.726 2.99099 -2.2851 0
M  V30 9506 C 897.873 1.72286 -2.17285 0
M  V30 9507 H 900.824 0.575954 -1.4788 0
M  V30 9508 H 900.845 3.251 -1.97712 0
M  V30 9509 H 900.357 2.01331 -3.31795 0
M  V30 9510 H 898.458 3.47868 -1.33485 0
M  V30 9511 H 898.571 3.54962 -3.21774 0
M  V30 9512 H 896.935 1.95068 -1.6377 0
M  V30 9513 H 897.718 1.3001 -3.1773 0
M  V30 9514 N 900.163 1.21714 1.00117 0
M  V30 9515 C 901.409 1.03823 1.74208 0
M  V30 9516 C 901.742 -0.426733 1.89454 0
M  V30 9517 O 901.017 -1.31658 1.43166 0
M  V30 9518 C 901.3 1.74047 3.15246 0
M  V30 9519 C 901.153 3.28087 3.077 0
M  V30 9520 C 902.472 1.48614 4.14249 0
M  V30 9521 H 899.591 0.378573 0.632338 0
M  V30 9522 H 902.233 1.49942 1.16694 0
M  V30 9523 H 900.383 1.3484 3.64349 0
M  V30 9524 H 902.055 3.76686 2.6628 0
M  V30 9525 H 900.298 3.58191 2.44707 0
M  V30 9526 H 900.969 3.72392 4.07466 0
M  V30 9527 H 903.445 1.82656 3.73866 0
M  V30 9528 H 902.321 2.00257 5.11066 0
M  V30 9529 H 902.582 0.416957 4.40129 0
M  V30 9530 N 901.641 -1.19671 1.02551 0
M  V30 9531 C 902.604 -2.20987 0.608055 0
M  V30 9532 C 903.604 -1.5745 -0.326534 0
M  V30 9533 O 904.794 -1.73827 -0.114003 0
M  V30 9534 C 901.926 -3.4072 -0.11074 0
M  V30 9535 H 903.119 -2.59434 1.50446 0
M  V30 9536 H 900.672 -1.3329 0.816307 0
M  V30 9537 H 901.407 -3.07787 -1.02165 0
M  V30 9538 H 901.192 -3.88069 0.560772 0
M  V30 9539 H 902.682 -4.15776 -0.389848 0
M  V30 9540 N 903.119 -0.802921 -1.35613 0
M  V30 9541 C 904.367 -0.380822 -1.9848 0
M  V30 9542 C 904.688 1.05464 -1.6402 0
M  V30 9543 O 903.958 1.72908 -0.920854 0
M  V30 9544 H 902.538 -0.137824 -0.734176 0
M  V30 9545 H 905.2 -1.02795 -1.65587 0
M  V30 9546 H 904.296 -0.483565 -3.08331 0
M  V30 9547 N 904.597 1.47463 -0.556102 0
M  V30 9548 C 905.544 2.29998 0.192213 0
M  V30 9549 C 906.514 1.38993 0.909403 0
M  V30 9550 O 907.699 1.67954 0.905316 0
M  V30 9551 C 904.839 3.22932 1.21692 0
M  V30 9552 C 903.952 4.29027 0.505908 0
M  V30 9553 C 903.087 5.09114 1.51581 0
M  V30 9554 C 902.126 6.06984 0.789714 0
M  V30 9555 N 901.263 6.80033 1.74639 0
M  V30 9556 H 906.103 2.93468 -0.517734 0
M  V30 9557 H 903.64 1.44654 -0.267147 0
M  V30 9558 H 905.598 3.75234 1.8236 0
M  V30 9559 H 904.228 2.61329 1.89491 0
M  V30 9560 H 903.28 3.7979 -0.215276 0
M  V30 9561 H 904.592 4.9876 -0.062958 0
M  V30 9562 H 903.746 5.6556 2.19606 0
M  V30 9563 H 902.485 4.3928 2.11859 0
M  V30 9564 H 901.49 5.49717 0.0955382 0
M  V30 9565 H 902.715 6.78827 0.192688 0
M  V30 9566 H 900.661 6.12931 2.33777 0
M  V30 9567 H 900.578 7.45933 1.22965 0
M  V30 9568 H 901.846 7.41054 2.41782 0
M  V30 9569 N 906.075 0.2925 1.54862 0
M  V30 9570 C 907.303 -0.322113 2.04377 0
M  V30 9571 C 907.718 -1.48164 1.17016 0
M  V30 9572 O 907.075 -1.81466 0.19395 0
M  V30 9573 C 907.126 -0.786506 3.5284 0
M  V30 9574 O 906.847 0.326863 4.36879 0
M  V30 9575 C 908.348 -1.46715 4.18318 0
M  V30 9576 H 905.568 -0.0712074 0.667211 0
M  V30 9577 H 908.112 0.429657 1.99935 0
M  V30 9578 H 906.267 -1.48832 3.5767 0
M  V30 9579 H 906.681 -0.0331558 5.2449 0
M  V30 9580 H 908.155 -1.74333 5.23748 0
M  V30 9581 H 908.632 -2.40443 3.67538 0
M  V30 9582 H 909.238 -0.808735 4.1754 0
M  V30 9583 N 907.553 -1.57587 0.0200696 0
M  V30 9584 C 908.801 -1.91046 -0.65922 0
M  V30 9585 C 909.122 -0.896197 -1.73186 0
M  V30 9586 O 908.392 0.0635952 -1.95797 0
M  V30 9587 H 906.972 -0.705163 -0.246483 0
M  V30 9588 H 909.634 -1.94789 0.0657368 0
M  V30 9589 H 908.73 -2.91399 -1.11773 0
M  V30 9590 N 909.032 0.252966 -1.55557 0
M  V30 9591 C 910.26 0.999565 -1.81153 0
M  V30 9592 C 910.675 1.79181 -0.594955 0
M  V30 9593 O 910.032 1.77208 0.436311 0
M  V30 9594 C 910.083 1.94227 -3.04891 0
M  V30 9595 O 909.804 1.18209 -4.21851 0
M  V30 9596 C 911.305 2.80536 -3.43241 0
M  V30 9597 H 908.525 0.294402 -0.602966 0
M  V30 9598 H 911.069 0.277686 -2.02606 0
M  V30 9599 H 909.224 2.6185 -2.85505 0
M  V30 9600 H 909.638 1.81922 -4.9194 0
M  V30 9601 H 911.112 3.42442 -4.32941 0
M  V30 9602 H 911.589 3.51337 -2.6355 0
M  V30 9603 H 912.195 2.18373 -3.64956 0
M  V30 9604 N 910.51 1.48831 0.518367 0
M  V30 9605 C 911.738 1.6112 1.298 0
M  V30 9606 C 912.153 0.275872 1.86774 0
M  V30 9607 O 911.51 -0.736416 1.66983 0
M  V30 9608 C 911.561 2.66675 2.44063 0
M  V30 9609 O 911.282 3.95027 1.89434 0
M  V30 9610 C 912.783 2.8951 3.35706 0
M  V30 9611 H 910.003 0.542916 0.394314 0
M  V30 9612 H 912.547 1.94743 0.624142 0
M  V30 9613 H 910.702 2.35879 3.07311 0
M  V30 9614 H 911.116 4.53031 2.64316 0
M  V30 9615 H 912.59 3.67142 4.12202 0
M  V30 9616 H 913.067 1.98768 3.91648 0
M  V30 9617 H 913.673 3.21656 2.7824 0
M  V30 9618 N 911.988 -0.768124 1.37614 0
M  V30 9619 C 913.216 -1.55726 1.36224 0
M  V30 9620 C 913.631 -1.8873 -0.0515357 0
M  V30 9621 O 912.988 -1.51718 -1.0143 0
M  V30 9622 C 913.039 -2.86533 2.20412 0
M  V30 9623 O 912.76 -2.54942 3.56281 0
M  V30 9624 C 914.261 -3.80745 2.27041 0
M  V30 9625 H 911.481 -0.482325 0.46648 0
M  V30 9626 H 914.025 -0.95176 1.81002 0
M  V30 9627 H 912.18 -3.43496 1.79134 0
M  V30 9628 H 912.594 -3.38732 4.00451 0
M  V30 9629 H 914.068 -4.69523 2.90263 0
M  V30 9630 H 914.545 -4.20138 1.27987 0
M  V30 9631 H 915.151 -3.2971 2.68647 0
M  V30 9632 N 913.466 -1.22244 -0.994698 0
M  V30 9633 C 914.714 -1.04384 -1.73056 0
M  V30 9634 C 915.035 0.422204 -1.90374 0
M  V30 9635 O 914.305 1.30383 -1.46209 0
M  V30 9636 H 912.885 -0.383263 -0.641185 0
M  V30 9637 H 915.547 -1.53725 -1.1981 0
M  V30 9638 H 914.643 -1.52021 -2.72573 0
M  V30 9639 N 914.944 1.19125 -1.03184 0
M  V30 9640 C 916.221 1.84674 -0.644574 0
M  V30 9641 C 916.601 1.92042 0.876534 0
M  V30 9642 O 915.949 1.43965 1.77444 0
M  V30 9643 C 916.159 3.23477 -1.3101 0
M  V30 9644 C 917.507 3.99608 -1.43524 0
M  V30 9645 O 918.531 3.32886 -1.2675 0
M  V30 9646 O 917.39 5.19132 -1.70776 0
M  V30 9647 H 914.484 0.795968 -0.22442 0
M  V30 9648 H 917.03 1.2659 -1.13018 0
M  V30 9649 H 915.802 3.12967 -2.34878 0
M  V30 9650 H 915.425 3.89209 -0.812547 0
M  V30 9651 N 916.422 0.810101 1.35185 0
M  V30 9652 C 917.369 0.220927 2.2974 0
M  V30 9653 C 918.339 -0.647024 1.5298 0
M  V30 9654 O 919.524 -0.591367 1.81404 0
M  V30 9655 C 916.664 -0.62167 3.39454 0
M  V30 9656 C 915.777 0.267104 4.31173 0
M  V30 9657 C 914.912 -0.583833 5.27982 0
M  V30 9658 C 913.951 0.305123 6.11339 0
M  V30 9659 N 913.088 -0.505992 7.00274 0
M  V30 9660 H 917.928 1.03266 2.79536 0
M  V30 9661 H 915.465 0.520768 1.37573 0
M  V30 9662 H 917.423 -1.12539 4.01735 0
M  V30 9663 H 916.053 -1.39863 2.90926 0
M  V30 9664 H 915.105 0.88895 3.69867 0
M  V30 9665 H 916.417 0.951182 4.89647 0
M  V30 9666 H 915.571 -1.15254 5.95652 0
M  V30 9667 H 914.31 -1.30146 4.70014 0
M  V30 9668 H 913.315 0.886075 5.42613 0
M  V30 9669 H 914.54 1.02067 6.71386 0
M  V30 9670 H 912.486 -1.20753 6.4479 0
M  V30 9671 H 912.403 0.119966 7.55905 0
M  V30 9672 H 913.671 -1.05787 7.72288 0
M  V30 9673 N 917.9 -1.47166 0.563914 0
M  V30 9674 C 919.177 -1.95586 -0.0236172 0
M  V30 9675 C 919.557 -1.50655 -1.47872 0
M  V30 9676 O 918.905 -0.748479 -2.15894 0
M  V30 9677 C 919.115 -3.48762 0.128841 0
M  V30 9678 C 920.463 -4.24598 -0.0130544 0
M  V30 9679 O 921.487 -3.56155 0.0567242 0
M  V30 9680 O 920.346 -5.46253 -0.164332 0
M  V30 9681 H 917.44 -0.824793 -0.0603789 0
M  V30 9682 H 919.986 -1.57536 0.63091 0
M  V30 9683 H 918.758 -3.74291 1.14113 0
M  V30 9684 H 918.381 -3.93594 -0.56299 0
M  V30 9685 N 919.378 -0.300708 -1.54705 0
M  V30 9686 C 920.608 0.310819 -2.04249 0
M  V30 9687 C 921.016 1.4809 -1.17754 0
M  V30 9688 O 920.359 1.82654 -0.195779 0
M  V30 9689 C 920.421 0.83014 -3.49784 0
M  V30 9690 C 920.085 -0.214628 -4.56496 0
M  V30 9691 C 921.082 -1.04298 -5.09331 0
M  V30 9692 C 918.767 -0.356242 -5.01035 0
M  V30 9693 C 920.761 -1.99889 -6.05246 0
M  V30 9694 C 918.448 -1.3156 -5.96771 0
M  V30 9695 C 919.446 -2.1354 -6.4876 0
M  V30 9696 O 919.134 -3.07849 -7.4262 0
M  V30 9697 H 918.866 0.0715341 -0.672204 0
M  V30 9698 H 921.42 -0.438179 -2.00672 0
M  V30 9699 H 919.65 1.62966 -3.50684 0
M  V30 9700 H 921.339 1.35752 -3.82526 0
M  V30 9701 H 922.105 -0.944439 -4.75716 0
M  V30 9702 H 917.984 0.271916 -4.60197 0
M  V30 9703 H 921.528 -2.63917 -6.45751 0
M  V30 9704 H 917.425 -1.41486 -6.29803 0
M  V30 9705 H 918.193 -3.02824 -7.60421 0
M  V30 9706 N 920.856 1.57574 -0.0284266 0
M  V30 9707 C 921.786 2.1321 0.952039 0
M  V30 9708 C 922.767 1.04806 1.33977 0
M  V30 9709 O 923.952 1.32635 1.41851 0
M  V30 9710 C 921.082 2.65862 2.23461 0
M  V30 9711 C 920.036 3.79047 1.98765 0
M  V30 9712 C 919.362 4.18124 3.33281 0
M  V30 9713 C 920.662 5.05151 1.32739 0
M  V30 9714 H 922.356 2.95385 0.488705 0
M  V30 9715 H 919.902 1.42092 0.233628 0
M  V30 9716 H 921.855 3.03417 2.92431 0
M  V30 9717 H 920.579 1.80848 2.71959 0
M  V30 9718 H 919.238 3.41929 1.32213 0
M  V30 9719 H 918.886 3.30092 3.79537 0
M  V30 9720 H 918.586 4.94396 3.17563 0
M  V30 9721 H 920.11 4.58262 4.0352 0
M  V30 9722 H 921.524 5.40297 1.91708 0
M  V30 9723 H 919.921 5.86416 1.27421 0
M  V30 9724 H 920.991 4.83969 0.300261 0
M  V30 9725 N 922.334 -0.244713 1.55689 0
M  V30 9726 C 923.581 -0.972446 1.77622 0
M  V30 9727 C 923.909 -1.85235 0.593137 0
M  V30 9728 O 923.164 -1.91064 -0.423464 0
M  V30 9729 C 923.463 -1.8617 3.05083 0
M  V30 9730 C 923.129 -1.13696 4.3633 0
M  V30 9731 C 921.791 -0.936679 4.71996 0
M  V30 9732 C 924.143 -0.623451 5.17458 0
M  V30 9733 C 921.471 -0.210612 5.86322 0
M  V30 9734 C 923.823 0.0891587 6.32537 0
M  V30 9735 C 922.487 0.300904 6.66821 0
M  V30 9736 H 921.757 -0.355843 0.649967 0
M  V30 9737 H 924.404 -0.242372 1.8996 0
M  V30 9738 H 922.709 -2.6589 2.87767 0
M  V30 9739 H 924.406 -2.4265 3.19253 0
M  V30 9740 H 920.996 -1.30301 4.08313 0
M  V30 9741 H 925.18 -0.765725 4.90357 0
M  V30 9742 H 920.436 -0.0361062 6.11389 0
M  V30 9743 H 924.61 0.494685 6.94641 0
M  V30 9744 H 922.237 0.865466 7.55257 0
M  V30 9745 N 923.813 -1.49104 -0.510467 0
M  V30 9746 C 924.776 -1.64569 -1.59529 0
M  V30 9747 C 925.776 -0.517937 -1.5223 0
M  V30 9748 O 926.966 -0.784183 -1.55551 0
M  V30 9749 C 924.098 -1.6342 -2.99177 0
M  V30 9750 H 925.291 -2.61318 -1.4715 0
M  V30 9751 H 922.844 -1.37993 -0.734001 0
M  V30 9752 H 923.579 -0.68221 -3.17043 0
M  V30 9753 H 923.364 -2.45312 -3.05883 0
M  V30 9754 H 924.854 -1.77474 -3.78011 0
M  V30 9755 N 925.291 0.760815 -1.38019 0
M  V30 9756 C 926.539 1.51673 -1.33566 0
M  V30 9757 C 926.86 1.94852 0.076024 0
M  V30 9758 O 926.13 1.67112 1.02227 0
M  V30 9759 H 924.71 0.562581 -0.491438 0
M  V30 9760 H 927.372 0.904832 -1.72623 0
M  V30 9761 H 926.468 2.41102 -1.98182 0
M  V30 9762 N 926.769 1.22769 0.988202 0
M  V30 9763 C 927.699 1.02627 2.09738 0
M  V30 9764 C 928.68 -0.0543211 1.70013 0
M  V30 9765 O 929.865 0.108811 1.93895 0
M  V30 9766 C 926.995 0.608302 3.41931 0
M  V30 9767 C 925.949 1.63536 3.95525 0
M  V30 9768 C 925.275 1.07308 5.23822 0
M  V30 9769 C 926.575 3.02649 4.25677 0
M  V30 9770 H 928.269 1.954 2.26847 0
M  V30 9771 H 925.815 0.940888 1.09011 0
M  V30 9772 H 927.768 0.454478 4.18942 0
M  V30 9773 H 926.492 -0.355095 3.24664 0
M  V30 9774 H 925.151 1.77704 3.20651 0
M  V30 9775 H 924.799 0.100894 5.02899 0
M  V30 9776 H 924.499 1.75925 5.60646 0
M  V30 9777 H 926.023 0.930938 6.03462 0
M  V30 9778 H 927.437 2.91828 4.93467 0
M  V30 9779 H 925.834 3.68434 4.73684 0
M  V30 9780 H 926.904 3.52228 3.33262 0
M  V30 9781 N 928.247 -1.18576 1.03814 0
M  V30 9782 C 929.475 -1.92437 0.759966 0
M  V30 9783 C 929.89 -1.76031 -0.682526 0
M  V30 9784 O 929.247 -1.08829 -1.46501 0
M  V30 9785 C 929.298 -3.43923 1.11351 0
M  V30 9786 O 929.019 -3.5981 2.49937 0
M  V30 9787 C 930.52 -4.34888 0.859472 0
M  V30 9788 H 927.74 -0.610998 0.277349 0
M  V30 9789 H 930.284 -1.50448 1.38512 0
M  V30 9790 H 928.439 -3.83711 0.533362 0
M  V30 9791 H 928.853 -4.53569 2.63393 0
M  V30 9792 H 930.327 -5.39744 1.15672 0
M  V30 9793 H 930.804 -4.38717 -0.205839 0
M  V30 9794 H 931.41 -4.00795 1.42279 0
M  V30 9795 N 929.725 -0.817259 -1.34754 0
M  V30 9796 C 931.136 -0.462215 -1.80888 0
M  V30 9797 C 931.487 1.01685 -1.67794 0
M  V30 9798 O 930.612 1.79094 -1.21468 0
M  V30 9799 C 931.207 -0.832204 -3.2842 0
M  V30 9800 C 929.766 -0.52961 -3.72655 0
M  V30 9801 C 928.913 -1.05214 -2.56564 0
M  V30 9802 H 931.864 -1.00795 -1.22581 0
M  V30 9803 H 931.885 -0.133804 -3.80265 0
M  V30 9804 H 931.397 -1.90873 -3.37919 0
M  V30 9805 H 929.498 0.537743 -3.68699 0
M  V30 9806 H 929.611 -1.06971 -4.67005 0
M  V30 9807 H 927.975 -0.473949 -2.50251 0
M  V30 9808 H 928.758 -2.135 -2.68836 0
M  V30 9809 N 931.203 1.46865 -0.571711 0
M  V30 9810 C 932.433 2.06518 -0.0583129 0
M  V30 9811 C 932.841 1.4227 1.24723 0
M  V30 9812 O 932.184 0.518293 1.76237 0
M  V30 9813 C 932.246 3.5898 0.193214 0
M  V30 9814 C 931.91 4.45355 -1.02507 0
M  V30 9815 C 932.907 4.82575 -1.93435 0
M  V30 9816 C 930.592 4.86656 -1.24382 0
M  V30 9817 C 932.586 5.59912 -3.04595 0
M  V30 9818 C 930.273 5.63754 -2.35849 0
M  V30 9819 C 931.271 6.00294 -3.25785 0
M  V30 9820 O 930.959 6.75836 -4.35318 0
M  V30 9821 H 930.691 0.674188 -0.0494584 0
M  V30 9822 H 933.245 1.89644 -0.788934 0
M  V30 9823 H 931.475 3.7412 0.978319 0
M  V30 9824 H 933.164 4.006 0.653769 0
M  V30 9825 H 933.93 4.51256 -1.77745 0
M  V30 9826 H 929.809 4.57672 -0.55292 0
M  V30 9827 H 933.353 5.88351 -3.74818 0
M  V30 9828 H 929.25 5.94487 -2.51506 0
M  V30 9829 H 930.018 6.94247 -4.33547 0
M  V30 9830 N 932.681 0.308908 1.54543 0
M  V30 9831 C 933.911 -0.299983 2.04411 0
M  V30 9832 C 934.319 -1.47463 1.18538 0
M  V30 9833 O 933.662 -1.82547 0.205463 0
M  V30 9834 C 933.724 -0.811579 3.50219 0
M  V30 9835 C 933.388 0.238834 4.56375 0
M  V30 9836 C 934.385 1.06997 5.08771 0
M  V30 9837 C 932.07 0.382808 5.00839 0
M  V30 9838 C 934.064 2.03096 6.04178 0
M  V30 9839 C 931.751 1.34723 5.96065 0
M  V30 9840 C 932.749 2.16978 6.47618 0
M  V30 9841 O 932.437 3.11783 7.40977 0
M  V30 9842 H 932.169 -0.0679682 0.672574 0
M  V30 9843 H 934.723 0.448815 2.00437 0
M  V30 9844 H 932.953 -1.61104 3.51543 0
M  V30 9845 H 934.642 -1.33721 3.83241 0
M  V30 9846 H 935.408 0.969654 4.75208 0
M  V30 9847 H 931.287 -0.247507 4.60335 0
M  V30 9848 H 934.831 2.67338 6.44342 0
M  V30 9849 H 930.728 1.44824 6.29044 0
M  V30 9850 H 931.496 3.06853 7.58804 0
M  V30 9851 N 934.159 -1.57557 0.0367827 0
M  V30 9852 C 935.384 -1.96828 -0.653707 0
M  V30 9853 C 935.809 -0.913559 -1.64425 0
M  V30 9854 O 935.167 0.124749 -1.8087 0
M  V30 9855 C 935.215 -3.35189 -1.32969 0
M  V30 9856 O 934.319 -3.32095 -2.44513 0
M  V30 9857 H 933.66 -0.64157 -0.171124 0
M  V30 9858 H 936.19 -2.04351 0.100912 0
M  V30 9859 H 936.2 -3.71593 -1.68472 0
M  V30 9860 H 934.875 -4.11496 -0.603654 0
M  V30 9861 H 933.452 -3.07418 -2.11065 0
M  V30 9862 N 935.637 0.236453 -1.55816 0
M  V30 9863 C 936.6 1.27633 -1.90375 0
M  V30 9864 C 937.6 1.40557 -0.781048 0
M  V30 9865 O 938.79 1.39078 -1.04895 0
M  V30 9866 C 935.922 2.65247 -2.14142 0
M  V30 9867 H 937.115 0.982019 -2.83366 0
M  V30 9868 H 934.668 0.476215 -1.48869 0
M  V30 9869 H 935.403 2.99801 -1.23653 0
M  V30 9870 H 935.188 2.57246 -2.95917 0
M  V30 9871 H 936.678 3.40313 -2.42026 0
M  V30 9872 N 937.115 1.49373 0.502552 0
M  V30 9873 C 938.078 1.65413 1.58654 0
M  V30 9874 C 939.078 0.526003 1.51953 0
M  V30 9875 O 940.268 0.792421 1.55133 0
M  V30 9876 C 937.4 1.65005 2.98306 0
M  V30 9877 H 938.593 2.62095 1.45762 0
M  V30 9878 H 936.146 1.38381 0.726672 0
M  V30 9879 H 936.881 0.699014 3.16677 0
M  V30 9880 H 936.666 2.46931 3.04578 0
M  V30 9881 H 938.156 1.79477 3.77065 0
M  V30 9882 N 938.594 -0.753485 1.38421 0
M  V30 9883 C 939.843 -1.50797 1.33952 0
M  V30 9884 C 940.156 -1.95482 -0.0678464 0
M  V30 9885 O 941.362 -2.7048 -0.235078 0
M  V30 9886 C 939.818 -2.72393 2.35224 0
M  V30 9887 C 939.426 -2.34733 3.81582 0
M  V30 9888 C 941.17 -3.50281 2.39798 0
M  V30 9889 C 939.077 -3.52939 4.7454 0
M  V30 9890 H 938.007 -0.566211 0.497916 0
M  V30 9891 H 940.658 -0.823659 1.63976 0
M  V30 9892 H 939.04 -3.42806 1.98243 0
M  V30 9893 H 940.214 -1.71985 4.27502 0
M  V30 9894 H 938.529 -1.69978 3.80127 0
M  V30 9895 H 941.126 -4.38172 3.06447 0
M  V30 9896 H 941.469 -3.91444 1.41695 0
M  V30 9897 H 942.002 -2.86881 2.75579 0
M  V30 9898 H 938.741 -3.16843 5.73839 0
M  V30 9899 H 938.261 -4.1473 4.33312 0
M  V30 9900 H 939.94 -4.19519 4.92557 0
M  V30 9901 N 940.072 -1.23292 -0.981677 0
M  V30 9902 C 941.318 -1.07588 -1.72616 0
M  V30 9903 C 941.673 0.383441 -1.8854 0
M  V30 9904 O 940.966 1.28006 -1.42566 0
M  V30 9905 C 941.16 -1.73339 -3.12551 0
M  V30 9906 C 940.989 -3.25514 -3.10275 0
M  V30 9907 C 939.759 -3.9467 -3.15537 0
M  V30 9908 C 941.957 -4.223 -2.93543 0
M  V30 9909 N 939.939 -5.33839 -3.03133 0
M  V30 9910 C 941.31 -5.48373 -2.89287 0
M  V30 9911 C 943.365 -4.1305 -2.78018 0
M  V30 9912 C 942.068 -6.66258 -2.71095 0
M  V30 9913 C 944.094 -5.30598 -2.6119 0
M  V30 9914 C 943.456 -6.55596 -2.57631 0
M  V30 9915 H 939.555 -0.448215 -0.640802 0
M  V30 9916 H 942.139 -1.56001 -1.16498 0
M  V30 9917 H 940.31 -1.2746 -3.6689 0
M  V30 9918 H 942.042 -1.50624 -3.75626 0
M  V30 9919 H 938.797 -3.45741 -3.23666 0
M  V30 9920 H 939.221 -6.06798 -3.00209 0
M  V30 9921 H 943.863 -3.17184 -2.7956 0
M  V30 9922 H 941.581 -7.62261 -2.68297 0
M  V30 9923 H 945.167 -5.25281 -2.50143 0
M  V30 9924 H 944.047 -7.45021 -2.44772 0
M  V30 9925 N 941.55 1.18024 -1.04442 0
M  V30 9926 C 942.799 1.8743 -0.745185 0
M  V30 9927 C 943.112 1.81459 0.730206 0
M  V30 9928 O 944.318 2.46263 1.1431 0
M  V30 9929 C 942.774 3.36266 -1.28271 0
M  V30 9930 C 942.382 3.50757 -2.787 0
M  V30 9931 C 944.126 4.11048 -1.06018 0
M  V30 9932 C 942.033 4.93573 -3.25791 0
M  V30 9933 H 940.963 0.702038 -0.27506 0
M  V30 9934 H 943.614 1.33333 -1.26073 0
M  V30 9935 H 941.996 3.89853 -0.695002 0
M  V30 9936 H 943.17 3.07423 -3.43261 0
M  V30 9937 H 941.485 2.89385 -2.99408 0
M  V30 9938 H 944.082 5.16395 -1.38711 0
M  V30 9939 H 944.425 4.163 0.00241716 0
M  V30 9940 H 944.958 3.63644 -1.61269 0
M  V30 9941 H 941.697 4.93491 -4.31447 0
M  V30 9942 H 941.217 5.37607 -2.65968 0
M  V30 9943 H 942.896 5.62307 -3.20031 0
M  V30 9944 N 943.028 0.824394 1.34319 0
M  V30 9945 C 944.276 0.41235 1.97849 0
M  V30 9946 C 944.597 -1.02841 1.65677 0
M  V30 9947 O 943.867 -1.71421 0.948245 0
M  V30 9948 H 942.447 0.149486 0.73189 0
M  V30 9949 H 945.109 1.05416 1.63931 0
M  V30 9950 H 944.205 0.532557 3.07523 0
M  V30 9951 N 944.506 -1.46559 0.579492 0
M  V30 9952 C 945.736 -2.06484 0.0692642 0
M  V30 9953 C 946.144 -1.4293 -1.23967 0
M  V30 9954 O 945.487 -0.527632 -1.75959 0
M  V30 9955 C 945.549 -3.59078 -0.174174 0
M  V30 9956 C 945.213 -4.44805 1.04867 0
M  V30 9957 C 946.21 -4.81543 1.95991 0
M  V30 9958 C 943.895 -4.8599 1.26961 0
M  V30 9959 C 945.889 -5.58288 3.0756 0
M  V30 9960 C 943.576 -5.62495 2.38836 0
M  V30 9961 C 944.574 -5.98558 3.28964 0
M  V30 9962 O 944.262 -6.73518 4.38896 0
M  V30 9963 H 943.994 -0.673917 0.0530331 0
M  V30 9964 H 946.548 -1.89223 0.79898 0
M  V30 9965 H 944.778 -3.74634 -0.958464 0
M  V30 9966 H 946.467 -4.00941 -0.632515 0
M  V30 9967 H 947.233 -4.50307 1.80136 0
M  V30 9968 H 943.112 -4.57372 0.577184 0
M  V30 9969 H 946.656 -5.86355 3.77933 0
M  V30 9970 H 942.553 -5.93145 2.54655 0
M  V30 9971 H 943.321 -6.91938 4.37223 0
M  V30 9972 N 945.984 -0.3171 -1.54377 0
M  V30 9973 C 947.261 0.341348 -1.92598 0
M  V30 9974 C 947.641 1.70402 -1.24605 0
M  V30 9975 O 946.989 2.25191 -0.387448 0
M  V30 9976 C 947.199 0.440003 -3.46215 0
M  V30 9977 C 948.547 0.703327 -4.18734 0
M  V30 9978 O 949.571 0.523181 -3.52337 0
M  V30 9979 O 948.43 1.05042 -5.3631 0
M  V30 9980 H 945.524 0.193696 -0.803997 0
M  V30 9981 H 948.07 -0.366341 -1.65699 0
M  V30 9982 H 946.842 -0.517299 -3.87866 0
M  V30 9983 H 946.465 1.19553 -3.792 0
M  V30 9984 N 947.462 1.57535 -0.0451378 0
M  V30 9985 C 948.409 2.11176 0.931313 0
M  V30 9986 C 949.379 1.01765 1.31275 0
M  V30 9987 O 950.564 1.29279 1.40327 0
M  V30 9988 C 947.704 2.65639 2.20295 0
M  V30 9989 C 946.817 3.89114 1.87654 0
M  V30 9990 C 945.952 4.31914 3.09232 0
M  V30 9991 C 944.991 5.48105 2.72484 0
M  V30 9992 N 944.128 5.85986 3.86736 0
M  V30 9993 H 948.968 2.94318 0.466986 0
M  V30 9994 H 946.505 1.45462 0.218886 0
M  V30 9995 H 948.463 2.95312 2.94697 0
M  V30 9996 H 947.093 1.85303 2.64316 0
M  V30 9997 H 946.145 3.6607 1.03427 0
M  V30 9998 H 947.457 4.7358 1.56601 0
M  V30 9999 H 946.611 4.63108 3.91939 0
M  V30 10000 H 945.35 3.46247 3.43459 0
M  V30 10001 H 944.355 5.16589 1.88192 0
M  V30 10002 H 945.58 6.35482 2.39455 0
M  V30 10003 H 943.526 5.03273 4.20775 0
M  V30 10004 H 943.443 6.65129 3.5936 0
M  V30 10005 H 944.711 6.21793 4.701 0
M  V30 10006 N 948.94 -0.228186 1.55939 0
M  V30 10007 C 950.351 -0.795734 1.68893 0
M  V30 10008 C 950.702 -1.85261 0.645967 0
M  V30 10009 O 949.827 -2.15434 -0.2042 0
M  V30 10010 C 950.422 -1.45013 3.06197 0
M  V30 10011 C 948.981 -1.96514 3.21028 0
M  V30 10012 C 948.128 -0.822918 2.64808 0
M  V30 10013 H 951.079 -0.0036485 1.587 0
M  V30 10014 H 951.1 -2.31875 3.01685 0
M  V30 10015 H 950.612 -0.680678 3.82084 0
M  V30 10016 H 948.713 -2.76282 2.49998 0
M  V30 10017 H 948.826 -2.14967 4.28166 0
M  V30 10018 H 947.19 -1.22846 2.23116 0
M  V30 10019 H 947.973 -0.0662493 3.43236 0
M  V30 10020 N 950.418 -1.49637 -0.494624 0
M  V30 10021 C 951.834 -1.36541 -0.826361 0
M  V30 10022 C 952.034 -0.403386 -1.97421 0
M  V30 10023 O 951.09 0.162614 -2.51976 0
M  V30 10024 C 952.403 -2.77401 -1.16057 0
M  V30 10025 C 953.951 -2.86148 -1.26841 0
M  V30 10026 C 954.426 -4.27789 -1.63587 0
M  V30 10027 N 955.917 -4.3063 -1.70624 0
M  V30 10028 C 956.652 -5.37198 -2.00514 0
M  V30 10029 N 956.148 -6.54004 -2.28584 0
M  V30 10030 N 957.941 -5.2462 -2.01818 0
M  V30 10031 H 950.092 -2.10776 0.26219 0
M  V30 10032 H 952.355 -0.946419 0.0547235 0
M  V30 10033 H 952.061 -3.49526 -0.390434 0
M  V30 10034 H 951.935 -3.1317 -2.10249 0
M  V30 10035 H 954.322 -2.14256 -2.02925 0
M  V30 10036 H 954.403 -2.53953 -0.30684 0
M  V30 10037 H 954.047 -5.00209 -0.880507 0
M  V30 10038 H 953.977 -4.57453 -2.60854 0
M  V30 10039 H 956.468 -3.46393 -1.51065 0
M  V30 10040 H 956.781 -7.31041 -2.50598 0
M  V30 10041 H 955.126 -6.57219 -2.26027 0
M  V30 10042 H 958.317 -4.32371 -1.79369 0
M  V30 10043 H 958.49 -6.07765 -2.24778 0
M  V30 10044 N 951.896 0.746133 -1.38819 0
M  V30 10045 C 952.806 1.89063 -1.38897 0
M  V30 10046 C 953.822 1.71648 -0.28513 0
M  V30 10047 O 954.998 1.94443 -0.524783 0
M  V30 10048 C 952.063 3.24523 -1.22007 0
M  V30 10049 C 951.124 3.54411 -2.42263 0
M  V30 10050 C 950.357 4.83408 -2.26169 0
M  V30 10051 O 950.58 5.56325 -1.25931 0
M  V30 10052 O 949.514 5.12943 -3.14918 0
M  V30 10053 H 953.34 1.91951 -2.35347 0
M  V30 10054 H 950.925 0.892433 -1.19816 0
M  V30 10055 H 952.807 4.05496 -1.14677 0
M  V30 10056 H 951.482 3.2243 -0.286455 0
M  V30 10057 H 950.389 2.73569 -2.55168 0
M  V30 10058 H 951.722 3.61273 -3.3428 0
M  V30 10059 N 953.375 1.23811 0.975125 0
M  V30 10060 C 954.308 0.967173 2.06691 0
M  V30 10061 C 955.286 -0.09642 1.62314 0
M  V30 10062 O 956.47 0.0389532 1.8846 0
M  V30 10063 C 953.597 0.458094 3.35588 0
M  V30 10064 C 952.643 1.5091 3.98909 0
M  V30 10065 S 953.476 3.08815 4.37485 0
M  V30 10066 C 954.632 2.59591 5.69529 0
M  V30 10067 H 954.865 1.89166 2.29355 0
M  V30 10068 H 952.398 1.07113 1.11203 0
M  V30 10069 H 954.356 0.170991 4.10144 0
M  V30 10070 H 953.017 -0.445562 3.10924 0
M  V30 10071 H 952.21 1.10315 4.91779 0
M  V30 10072 H 951.812 1.74582 3.30752 0
M  V30 10073 H 954.104 2.0194 6.46704 0
M  V30 10074 H 955.047 3.51021 6.14971 0
M  V30 10075 H 955.455 2.00267 5.27782 0
M  V30 10076 N 954.853 -1.17469 1.05066 0
M  V30 10077 C 956.269 -1.39699 0.771769 0
M  V30 10078 C 956.469 -1.91253 -0.634382 0
M  V30 10079 O 955.525 -2.10334 -1.39699 0
M  V30 10080 C 956.838 -2.38886 1.82631 0
M  V30 10081 C 958.386 -2.52595 1.84838 0
M  V30 10082 C 958.861 -3.55054 2.89311 0
M  V30 10083 N 960.352 -3.6257 2.88266 0
M  V30 10084 C 961.087 -4.41603 3.65752 0
M  V30 10085 N 960.583 -5.24162 4.53019 0
M  V30 10086 N 962.376 -4.36464 3.54197 0
M  V30 10087 H 954.527 -0.823355 1.95792 0
M  V30 10088 H 956.79 -0.42432 0.847736 0
M  V30 10089 H 956.496 -2.08075 2.83545 0
M  V30 10090 H 956.37 -3.38371 1.66687 0
M  V30 10091 H 958.757 -2.82717 0.845888 0
M  V30 10092 H 958.838 -1.53188 2.04859 0
M  V30 10093 H 958.482 -3.2567 3.89745 0
M  V30 10094 H 958.412 -4.54162 2.66542 0
M  V30 10095 H 960.903 -3.03625 2.24989 0
M  V30 10096 H 961.216 -5.81646 5.0883 0
M  V30 10097 H 959.561 -5.23547 4.57081 0
M  V30 10098 H 962.752 -3.7102 2.85416 0
M  V30 10099 H 962.925 -4.97814 4.14832 0
M  V30 10100 N 956.331 -0.831506 -1.3388 0
M  V30 10101 C 957.559 -0.436925 -2.02234 0
M  V30 10102 C 957.974 0.959689 -1.6259 0
M  V30 10103 O 957.331 1.62248 -0.835576 0
M  V30 10104 C 957.382 -0.539429 -3.57453 0
M  V30 10105 O 957.103 -1.88101 -3.95664 0
M  V30 10106 C 958.604 -0.140852 -4.43076 0
M  V30 10107 H 955.824 -0.174302 -0.647966 0
M  V30 10108 H 958.368 -1.12204 -1.70969 0
M  V30 10109 H 956.523 0.0976959 -3.87277 0
M  V30 10110 H 956.937 -1.86131 -4.90363 0
M  V30 10111 H 958.411 -0.26364 -5.5137 0
M  V30 10112 H 958.888 0.916505 -4.29531 0
M  V30 10113 H 959.494 -0.752117 -4.18597 0
M  V30 10114 N 957.809 1.4625 -0.587256 0
M  V30 10115 C 959.034 2.07252 -0.0784517 0
M  V30 10116 C 959.459 1.43239 1.21919 0
M  V30 10117 O 958.817 0.517791 1.73749 0
M  V30 10118 C 958.865 3.60534 0.0691037 0
M  V30 10119 O 957.969 3.96773 1.12448 0
M  V30 10120 H 957.31 0.660825 -0.064859 0
M  V30 10121 H 959.84 1.87819 -0.811491 0
M  V30 10122 H 959.85 4.0708 0.273826 0
M  V30 10123 H 958.525 4.06516 -0.878514 0
M  V30 10124 H 957.102 3.6193 0.897852 0
M  V30 10125 N 959.287 0.325282 1.54207 0
M  V30 10126 C 960.512 -0.281418 2.05482 0
M  V30 10127 C 960.937 -1.44869 1.19977 0
M  V30 10128 O 960.295 -1.80088 0.209275 0
M  V30 10129 C 960.343 -0.692029 3.53897 0
M  V30 10130 O 959.447 -1.7942 3.71325 0
M  V30 10131 H 958.788 -0.0504872 0.662078 0
M  V30 10132 H 961.318 0.474191 1.99029 0
M  V30 10133 H 961.328 -0.974219 3.96198 0
M  V30 10134 H 960.003 0.161709 4.15586 0
M  V30 10135 H 958.58 -1.51069 3.40929 0
M  V30 10136 N 960.765 -1.57509 0.0534917 0
M  V30 10137 C 962.013 -1.92402 -0.618548 0
M  V30 10138 C 962.334 -0.93273 -1.71246 0
M  V30 10139 O 961.604 0.0220495 -1.95888 0
M  V30 10140 H 960.184 -0.710233 -0.23147 0
M  V30 10141 H 962.846 -1.94606 0.10704 0
M  V30 10142 H 961.942 -2.93704 -1.05566 0
M  V30 10143 N 962.243 0.219913 -1.56058 0
M  V30 10144 C 963.471 0.960915 -1.83232 0
M  V30 10145 C 963.886 1.77878 -0.632828 0
M  V30 10146 O 963.243 1.78093 0.398624 0
M  V30 10147 C 963.294 1.87716 -3.08942 0
M  V30 10148 O 963.015 1.09235 -4.24263 0
M  V30 10149 C 964.516 2.73192 -3.49115 0
M  V30 10150 H 961.736 0.281546 -0.609075 0
M  V30 10151 H 964.28 0.234648 -2.03149 0
M  V30 10152 H 962.435 2.55736 -2.90995 0
M  V30 10153 H 962.849 1.71446 -4.95688 0
M  V30 10154 H 964.323 3.33181 -4.40107 0
M  V30 10155 H 964.8 3.45668 -2.70943 0
M  V30 10156 H 965.406 2.10583 -3.69506 0
M  V30 10157 N 963.721 1.49897 0.486681 0
M  V30 10158 C 964.967 1.60342 1.2417 0
M  V30 10159 C 965.3 0.295694 1.91936 0
M  V30 10160 O 964.575 -0.701788 1.81398 0
M  V30 10161 C 964.858 2.77281 2.29755 0
M  V30 10162 C 964.711 4.1789 1.66397 0
M  V30 10163 C 966.03 2.89817 3.31201 0
M  V30 10164 H 963.149 0.583605 0.450083 0
M  V30 10165 H 965.791 1.82232 0.537734 0
M  V30 10166 H 963.941 2.58748 2.89796 0
M  V30 10167 H 965.613 4.47975 1.10073 0
M  V30 10168 H 963.856 4.22872 0.967579 0
M  V30 10169 H 964.527 4.95612 2.43049 0
M  V30 10170 H 967.003 3.06732 2.81167 0
M  V30 10171 H 965.879 3.7329 4.02425 0
M  V30 10172 H 966.14 1.9977 3.94391 0
M  V30 10173 N 965.199 -0.738761 1.39212 0
M  V30 10174 C 966.427 -1.52801 1.39497 0
M  V30 10175 C 966.842 -1.88797 -0.0114917 0
M  V30 10176 O 966.199 -1.53835 -0.981887 0
M  V30 10177 C 966.25 -2.81793 2.2644 0
M  V30 10178 O 965.971 -2.47328 3.61608 0
M  V30 10179 C 967.472 -3.75844 2.35067 0
M  V30 10180 H 964.692 -0.472322 0.476606 0
M  V30 10181 H 967.236 -0.913153 1.8298 0
M  V30 10182 H 965.391 -3.3962 1.8638 0
M  V30 10183 H 965.805 -3.30162 4.07545 0
M  V30 10184 H 967.279 -4.6326 3.00157 0
M  V30 10185 H 967.756 -4.17329 1.3687 0
M  V30 10186 H 968.362 -3.23937 2.75581 0
M  V30 10187 N 966.677 -1.24326 -0.968545 0
M  V30 10188 C 967.902 -1.1104 -1.75171 0
M  V30 10189 C 968.327 0.333109 -1.85127 0
M  V30 10190 O 967.685 1.24115 -1.32156 0
M  V30 10191 C 967.733 -1.75397 -3.15068 0
M  V30 10192 O 966.837 -1.02417 -3.9948 0
M  V30 10193 H 966.178 -0.388488 -0.538491 0
M  V30 10194 H 968.708 -1.64617 -1.215 0
M  V30 10195 H 968.718 -1.8112 -3.65595 0
M  V30 10196 H 967.393 -2.80427 -3.07138 0
M  V30 10197 H 965.97 -1.04475 -3.57966 0
M  V30 10198 N 968.156 1.1691 -1.05688 0
M  V30 10199 C 969.567 1.68915 -0.795273 0
M  V30 10200 C 969.918 1.83968 0.681925 0
M  V30 10201 O 969.043 1.53083 1.52953 0
M  V30 10202 C 969.638 3.06814 -1.43703 0
M  V30 10203 C 968.197 3.55965 -1.22335 0
M  V30 10204 C 967.344 2.32099 -1.51741 0
M  V30 10205 H 970.295 1.01357 -1.22116 0
M  V30 10206 H 970.316 3.70907 -0.849016 0
M  V30 10207 H 969.828 2.95826 -2.51214 0
M  V30 10208 H 967.929 3.72222 -0.16771 0
M  V30 10209 H 968.042 4.38427 -1.9318 0
M  V30 10210 H 966.406 2.36811 -0.937696 0
M  V30 10211 H 967.189 2.23715 -2.60397 0
M  V30 10212 N 969.634 0.838594 1.33437 0
M  V30 10213 C 970.883 0.430484 1.97053 0
M  V30 10214 C 971.196 -1.01556 1.6717 0
M  V30 10215 O 972.402 -1.52834 2.24397 0
M  V30 10216 C 970.858 0.718828 3.52648 0
M  V30 10217 C 970.466 2.17953 3.91408 0
M  V30 10218 C 972.21 0.377654 4.22817 0
M  V30 10219 C 970.117 2.41194 5.39981 0
M  V30 10220 H 969.047 0.157239 0.737422 0
M  V30 10221 H 971.698 1.02714 1.5206 0
M  V30 10222 H 970.08 0.0518042 3.95966 0
M  V30 10223 H 971.254 2.88701 3.59149 0
M  V30 10224 H 969.569 2.48366 3.34221 0
M  V30 10225 H 972.166 0.528926 5.32077 0
M  V30 10226 H 972.509 -0.679338 4.1072 0
M  V30 10227 H 973.042 0.999899 3.85028 0
M  V30 10228 H 969.781 3.45457 5.57081 0
M  V30 10229 H 969.301 1.75007 5.73701 0
M  V30 10230 H 970.98 2.24334 6.06863 0
M  V30 10231 N 971.112 -1.45937 0.595003 0
M  V30 10232 C 972.359 -2.0232 0.0853053 0
M  V30 10233 C 972.687 -1.465 -1.27937 0
M  V30 10234 O 971.942 -0.624767 -1.85459 0
M  V30 10235 C 972.241 -3.57396 -0.0173747 0
M  V30 10236 C 971.907 -4.32311 1.28131 0
M  V30 10237 C 970.569 -4.52496 1.63708 0
M  V30 10238 C 972.921 -4.75233 2.14017 0
M  V30 10239 C 970.249 -5.12857 2.84947 0
M  V30 10240 C 972.601 -5.36933 3.34493 0
M  V30 10241 C 971.265 -5.55343 3.70338 0
M  V30 10242 H 970.535 -0.740342 0.0312154 0
M  V30 10243 H 973.182 -1.75157 0.774103 0
M  V30 10244 H 971.487 -3.83766 -0.789371 0
M  V30 10245 H 973.184 -3.98713 -0.427699 0
M  V30 10246 H 969.774 -4.16905 0.994374 0
M  V30 10247 H 973.958 -4.59383 1.87833 0
M  V30 10248 H 969.214 -5.253 3.12841 0
M  V30 10249 H 973.388 -5.69147 4.01304 0
M  V30 10250 H 971.015 -6.01883 4.64371 0
M  V30 10251 N 972.59 -0.333456 -1.54032 0
M  V30 10252 C 973.838 0.265608 -2.00347 0
M  V30 10253 C 974.159 1.51873 -1.2231 0
M  V30 10254 O 973.429 1.93142 -0.327549 0
M  V30 10255 H 972.009 0.101135 -0.740122 0
M  V30 10256 H 974.671 -0.452285 -1.8958 0
M  V30 10257 H 973.767 0.51511 -3.0782 0
M  V30 10258 N 974.068 1.57479 -0.061844 0
M  V30 10259 C 975.015 2.12152 0.908862 0
M  V30 10260 C 975.985 1.03152 1.30188 0
M  V30 10261 O 977.17 1.3076 1.38948 0
M  V30 10262 C 974.31 2.6796 2.17465 0
M  V30 10263 C 973.423 3.91083 1.83517 0
M  V30 10264 C 972.558 4.35169 3.04633 0
M  V30 10265 C 971.597 5.50964 2.66655 0
M  V30 10266 N 970.734 5.90055 3.80499 0
M  V30 10267 H 975.574 2.94797 0.435743 0
M  V30 10268 H 973.111 1.45686 0.203445 0
M  V30 10269 H 975.069 2.98421 2.91548 0
M  V30 10270 H 973.699 1.88096 2.62335 0
M  V30 10271 H 972.751 3.67146 0.995381 0
M  V30 10272 H 974.063 4.75214 1.51569 0
M  V30 10273 H 973.217 4.67239 3.87005 0
M  V30 10274 H 971.956 3.49871 3.39767 0
M  V30 10275 H 970.961 5.18556 1.82703 0
M  V30 10276 H 972.186 6.37986 2.32702 0
M  V30 10277 H 970.132 5.07708 4.15414 0
M  V30 10278 H 970.049 6.68903 3.52285 0
M  V30 10279 H 971.317 6.26744 4.63479 0
M  V30 10280 N 975.546 -0.211634 1.56173 0
M  V30 10281 C 976.795 -0.932647 1.78842 0
M  V30 10282 C 977.108 -1.85103 0.63217 0
M  V30 10283 O 978.314 -2.61143 0.742746 0
M  V30 10284 C 976.77 -1.70866 3.16753 0
M  V30 10285 C 976.378 -0.835934 4.40132 0
M  V30 10286 C 978.122 -2.4203 3.48743 0
M  V30 10287 C 976.029 -1.60987 5.69067 0
M  V30 10288 H 974.959 -0.351983 0.666801 0
M  V30 10289 H 977.61 -0.186284 1.82552 0
M  V30 10290 H 975.992 -2.4983 3.07247 0
M  V30 10291 H 977.166 -0.0861298 4.60719 0
M  V30 10292 H 975.481 -0.235941 4.15731 0
M  V30 10293 H 978.078 -3.00453 4.42303 0
M  V30 10294 H 978.421 -3.15406 2.71707 0
M  V30 10295 H 978.954 -1.70048 3.59623 0
M  V30 10296 H 975.693 -0.9192 6.49023 0
M  V30 10297 H 975.213 -2.33403 5.52524 0
M  V30 10298 H 976.892 -2.16798 6.09596 0
M  V30 10299 N 977.024 -1.50153 -0.478725 0
M  V30 10300 C 977.957 -1.63089 -1.59616 0
M  V30 10301 C 978.935 -0.479211 -1.55378 0
M  V30 10302 O 980.119 -0.697715 -1.75112 0
M  V30 10303 C 977.246 -1.60643 -2.9818 0
M  V30 10304 C 976.292 -2.81279 -3.206 0
M  V30 10305 S 977.125 -4.42681 -3.0132 0
M  V30 10306 C 978.281 -4.42915 -4.42241 0
M  V30 10307 H 978.514 -2.57612 -1.48402 0
M  V30 10308 H 976.047 -1.39321 -0.665513 0
M  V30 10309 H 978.005 -1.59917 -3.7807 0
M  V30 10310 H 976.666 -0.673684 -3.0679 0
M  V30 10311 H 975.859 -2.7585 -4.21809 0
M  V30 10312 H 975.461 -2.79533 -2.4847 0
M  V30 10313 H 977.753 -4.16007 -5.34737 0
M  V30 10314 H 978.696 -5.44477 -4.52715 0
M  V30 10315 H 979.104 -3.72715 -4.23962 0
M  V30 10316 N 978.502 0.731368 -1.39602 0
M  V30 10317 C 979.75 1.48805 -1.36753 0
M  V30 10318 C 980.071 1.94969 0.034676 0
M  V30 10319 O 979.341 1.69243 0.986591 0
M  V30 10320 H 977.921 0.55203 -0.503261 0
M  V30 10321 H 980.583 0.868013 -1.74504 0
M  V30 10322 H 979.679 2.36844 -2.03252 0
M  V30 10323 N 979.98 1.24838 0.961938 0
M  V30 10324 C 980.91 1.07053 2.07514 0
M  V30 10325 C 981.891 -0.0182465 1.7009 0
M  V30 10326 O 983.076 0.149915 1.9362 0
M  V30 10327 C 980.206 0.680693 3.40564 0
M  V30 10328 C 979.16 1.71889 3.91967 0
M  V30 10329 C 978.486 1.18395 5.21428 0
M  V30 10330 C 979.786 3.1161 4.19161 0
M  V30 10331 H 981.48 2.00167 2.22651 0
M  V30 10332 H 979.026 0.963799 1.0699 0
M  V30 10333 H 980.979 0.54324 4.17884 0
M  V30 10334 H 979.703 -0.28615 3.25344 0
M  V30 10335 H 978.362 1.84465 3.16809 0
M  V30 10336 H 978.01 0.207543 5.02572 0
M  V30 10337 H 977.71 1.87778 5.56788 0
M  V30 10338 H 979.234 1.05873 6.01351 0
M  V30 10339 H 980.648 3.0223 4.87165 0
M  V30 10340 H 979.045 3.78398 4.65763 0
M  V30 10341 H 980.115 3.59218 3.25715 0
M  V30 10342 N 981.458 -1.16348 1.06306 0
M  V30 10343 C 982.421 -2.18941 0.678053 0
M  V30 10344 C 983.421 -1.58409 -0.276277 0
M  V30 10345 O 984.611 -1.74101 -0.0586435 0
M  V30 10346 C 981.743 -3.409 -0.00228684 0
M  V30 10347 H 982.936 -2.54516 1.58624 0
M  V30 10348 H 980.489 -1.30625 0.858298 0
M  V30 10349 H 981.224 -3.10881 -0.923212 0
M  V30 10350 H 981.009 -3.86089 0.683949 0
M  V30 10351 H 982.499 -4.16806 -0.257374 0
M  V30 10352 N 982.937 -0.845659 -1.3299 0
M  V30 10353 C 983.887 -0.2557 -2.26562 0
M  V30 10354 C 984.871 0.593245 -1.49564 0
M  V30 10355 O 986.063 0.444101 -1.71338 0
M  V30 10356 C 983.192 0.562573 -3.38659 0
M  V30 10357 C 982.278 -0.298259 -4.2305 0
M  V30 10358 N 982.669 -1.38023 -4.86604 0
M  V30 10359 C 980.967 -0.0864539 -4.45916 0
M  V30 10360 C 981.668 -1.90907 -5.49481 0
M  V30 10361 N 980.644 -1.20955 -5.29973 0
M  V30 10362 H 984.446 -1.083 -2.73219 0
M  V30 10363 H 981.96 -0.690823 -1.46974 0
M  V30 10364 H 983.957 1.00157 -4.0469 0
M  V30 10365 H 982.617 1.38777 -2.93549 0
M  V30 10366 H 983.628 -1.76314 -4.86964 0
M  V30 10367 H 980.305 0.70475 -4.11509 0
M  V30 10368 H 981.695 -2.81552 -6.10064 0
M  V30 10369 N 984.415 1.45619 -0.602734 0
M  V30 10370 C 985.362 2.30493 0.118944 0
M  V30 10371 C 986.332 1.41816 0.864723 0
M  V30 10372 O 987.517 1.7075 0.851424 0
M  V30 10373 C 984.657 3.2664 1.11356 0
M  V30 10374 C 983.77 4.3042 0.369161 0
M  V30 10375 C 982.905 5.13678 1.35307 0
M  V30 10376 C 981.944 6.09189 0.596207 0
M  V30 10377 N 981.081 6.85245 1.52916 0
M  V30 10378 H 985.921 2.91672 -0.610836 0
M  V30 10379 H 983.458 1.43731 -0.313032 0
M  V30 10380 H 985.416 3.80846 1.7033 0
M  V30 10381 H 984.046 2.67225 1.81081 0
M  V30 10382 H 983.098 3.78913 -0.335994 0
M  V30 10383 H 984.41 4.98307 -0.221603 0
M  V30 10384 H 983.564 5.7226 2.01502 0
M  V30 10385 H 982.303 4.45798 1.97777 0
M  V30 10386 H 981.308 5.49743 -0.0793984 0
M  V30 10387 H 982.533 6.79096 -0.0233734 0
M  V30 10388 H 980.479 6.20058 2.14159 0
M  V30 10389 H 980.396 7.49467 0.991713 0
M  V30 10390 H 981.664 7.48371 2.18083 0
M  V30 10391 N 985.893 0.34162 1.53853 0
M  V30 10392 C 987.17 -0.310664 1.93117 0
M  V30 10393 C 987.55 -1.68398 1.273 0
M  V30 10394 O 986.898 -2.24546 0.423225 0
M  V30 10395 C 987.108 -0.384867 3.46871 0
M  V30 10396 C 988.456 -0.636621 4.198 0
M  V30 10397 O 989.48 -0.467061 3.53125 0
M  V30 10398 O 988.339 -0.964962 5.37913 0
M  V30 10399 H 985.433 -0.180881 0.806977 0
M  V30 10400 H 987.979 0.392656 1.65095 0
M  V30 10401 H 986.751 0.57894 3.86994 0
M  V30 10402 H 986.374 -1.13505 3.81054 0
M  V30 10403 N 987.371 -1.57444 0.0701946 0
M  V30 10404 C 988.301 -2.15659 -0.895176 0
M  V30 10405 C 989.282 -1.08321 -1.31151 0
M  V30 10406 O 990.467 -1.36349 -1.38284 0
M  V30 10407 C 987.597 -2.71693 -2.16334 0
M  V30 10408 C 986.551 -3.84183 -1.88645 0
M  V30 10409 C 985.877 -4.26814 -3.22078 0
M  V30 10410 C 987.177 -5.08493 -1.19299 0
M  V30 10411 H 988.871 -2.96576 -0.410217 0
M  V30 10412 H 986.417 -1.42662 -0.195872 0
M  V30 10413 H 988.37 -3.11064 -2.84284 0
M  V30 10414 H 987.094 -1.87994 -2.67069 0
M  V30 10415 H 985.753 -3.45314 -1.23101 0
M  V30 10416 H 985.401 -3.40039 -3.70651 0
M  V30 10417 H 985.101 -5.02642 -3.04344 0
M  V30 10418 H 986.625 -4.68799 -3.91228 0
M  V30 10419 H 988.039 -5.4519 -1.77316 0
M  V30 10420 H 986.436 -5.89588 -1.11828 0
M  V30 10421 H 987.506 -4.84595 -0.171839 0
M  V30 10422 N 988.849 0.203349 -1.56283 0
M  V30 10423 C 989.781 1.27592 -1.90402 0
M  V30 10424 C 990.794 1.4213 -0.79391 0
M  V30 10425 O 991.983 1.42703 -1.07229 0
M  V30 10426 C 989.083 2.64919 -2.11356 0
M  V30 10427 C 988.256 2.72095 -3.42466 0
M  V30 10428 C 987.315 3.9056 -3.52631 0
M  V30 10429 O 986.341 3.78048 -4.25521 0
M  V30 10430 N 987.543 5.0566 -2.85111 0
M  V30 10431 H 990.308 0.986423 -2.83001 0
M  V30 10432 H 987.869 0.39331 -1.5705 0
M  V30 10433 H 989.861 3.42581 -2.15453 0
M  V30 10434 H 988.431 2.86391 -1.25295 0
M  V30 10435 H 987.651 1.8077 -3.50308 0
M  V30 10436 H 988.939 2.73874 -4.28801 0
M  V30 10437 H 988.337 5.18723 -2.25705 0
M  V30 10438 H 986.894 5.81299 -2.94847 0
M  V30 10439 N 990.327 1.50405 0.470755 0
M  V30 10440 C 991.557 1.64928 1.24428 0
M  V30 10441 C 991.965 0.332139 1.86262 0
M  V30 10442 O 991.308 -0.695919 1.70008 0
M  V30 10443 C 991.37 2.6829 2.39293 0
M  V30 10444 C 991.034 4.11835 1.98093 0
M  V30 10445 C 992.031 4.97693 1.50326 0
M  V30 10446 C 989.716 4.57753 2.06803 0
M  V30 10447 C 991.71 6.27516 1.11813 0
M  V30 10448 C 989.397 5.87582 1.67902 0
M  V30 10449 C 990.395 6.72289 1.20485 0
M  V30 10450 O 990.083 7.99694 0.821219 0
M  V30 10451 H 989.815 0.557418 0.382442 0
M  V30 10452 H 992.369 1.97382 0.568292 0
M  V30 10453 H 990.599 2.31079 3.10063 0
M  V30 10454 H 992.288 2.7203 3.01255 0
M  V30 10455 H 993.054 4.63434 1.43018 0
M  V30 10456 H 988.933 3.91966 2.42659 0
M  V30 10457 H 992.477 6.93586 0.747317 0
M  V30 10458 H 988.374 6.21362 1.74869 0
M  V30 10459 H 989.142 8.12968 0.950038 0
M  V30 10460 N 991.805 -0.723954 1.39988 0
M  V30 10461 C 992.752 -1.83803 1.39589 0
M  V30 10462 C 993.722 -1.64146 0.253996 0
M  V30 10463 O 994.907 -1.85398 0.450793 0
M  V30 10464 C 992.047 -3.21431 1.25604 0
M  V30 10465 C 991.16 -3.52717 2.49429 0
M  V30 10466 C 990.295 -4.79805 2.27949 0
M  V30 10467 C 989.334 -5.03968 3.47394 0
M  V30 10468 N 988.471 -6.22266 3.25161 0
M  V30 10469 H 993.311 -1.83479 2.34818 0
M  V30 10470 H 990.848 -0.896396 1.16633 0
M  V30 10471 H 992.806 -4.00892 1.15504 0
M  V30 10472 H 991.436 -3.21005 0.339986 0
M  V30 10473 H 990.488 -2.67872 2.7009 0
M  V30 10474 H 991.8 -3.66486 3.38363 0
M  V30 10475 H 990.954 -5.67268 2.15155 0
M  V30 10476 H 989.693 -4.68229 1.36428 0
M  V30 10477 H 988.698 -4.14963 3.60674 0
M  V30 10478 H 989.923 -5.17422 4.39831 0
M  V30 10479 H 987.869 -6.11957 2.36314 0
M  V30 10480 H 987.786 -6.36673 4.07656 0
M  V30 10481 H 989.054 -7.12539 3.16083 0
M  V30 10482 N 993.283 -1.25346 -0.955304 0
M  V30 10483 C 994.193 -1.07412 -2.08566 0
M  V30 10484 C 995.209 -0.0114424 -1.73996 0
M  V30 10485 O 996.385 -0.212236 -2.00279 0
M  V30 10486 C 993.45 -0.694141 -3.3968 0
M  V30 10487 C 992.511 -1.83468 -3.88121 0
M  V30 10488 C 991.744 -1.47274 -5.12978 0
M  V30 10489 O 991.967 -0.368086 -5.69211 0
M  V30 10490 O 990.901 -2.30269 -5.56111 0
M  V30 10491 H 994.727 -2.02206 -2.26598 0
M  V30 10492 H 992.312 -1.04279 -1.06988 0
M  V30 10493 H 994.194 -0.494325 -4.18491 0
M  V30 10494 H 992.869 0.224545 -3.2292 0
M  V30 10495 H 991.776 -2.08935 -3.10318 0
M  V30 10496 H 993.109 -2.73258 -4.09379 0
M  V30 10497 N 994.761 1.15782 -1.06922 0
M  V30 10498 C 996.007 1.86741 -0.790922 0
M  V30 10499 C 996.34 1.81863 0.681149 0
M  V30 10500 O 995.615 1.23871 1.49954 0
M  V30 10501 C 995.898 3.36038 -1.29422 0
M  V30 10502 C 995.751 3.49573 -2.83052 0
M  V30 10503 C 997.07 4.30647 -0.907239 0
M  V30 10504 H 994.189 0.678064 -0.288787 0
M  V30 10505 H 996.831 1.36054 -1.32624 0
M  V30 10506 H 994.981 3.79336 -0.838843 0
M  V30 10507 H 996.653 3.1517 -3.36847 0
M  V30 10508 H 994.896 2.91275 -3.21467 0
M  V30 10509 H 995.567 4.5445 -3.13335 0
M  V30 10510 H 998.043 3.95286 -1.29956 0
M  V30 10511 H 996.919 5.33604 -1.28679 0
M  V30 10512 H 997.18 4.41703 0.187251 0
M  V30 10513 N 996.239 0.8527 1.3254 0
M  V30 10514 C 997.516 0.376491 1.91942 0
M  V30 10515 C 997.896 -1.13972 1.7769 0
M  V30 10516 O 997.244 -1.96047 1.17379 0
M  V30 10517 C 997.454 0.838694 3.38773 0
M  V30 10518 C 998.802 0.854736 4.15908 0
M  V30 10519 O 999.826 0.783203 3.47483 0
M  V30 10520 O 998.685 0.955207 5.38087 0
M  V30 10521 H 995.779 0.109412 0.81973 0
M  V30 10522 H 998.325 0.93947 1.41322 0
M  V30 10523 H 997.097 1.88179 3.43081 0
M  V30 10524 H 996.72 0.253055 3.96794 0
M  V30 10525 N 997.718 -1.45297 0.610449 0
M  V30 10526 C 998.666 -2.32295 -0.119167 0
M  V30 10527 C 999.66 -1.46138 -0.856746 0
M  V30 10528 O 1000.87 -1.62605 -0.771988 0
M  V30 10529 H 997.241 -0.749815 -0.0572881 0
M  V30 10530 H 999.212 -2.91609 0.63297 0
M  V30 10531 C 997.961 -3.29802 -1.10119 0
M  V30 10532 H 997.284 -3.96095 -0.543063 0
M  V30 10533 H 998.724 -3.93398 -1.58158 0
M  V30 10534 C 997.183 -2.57185 -2.17617 0
M  V30 10535 O 997.713 -2.35535 -3.25401 0
M  V30 10536 N 995.919 -2.17272 -1.9298 0
M  V30 10537 H 995.466 -2.3508 -1.05334 0
M  V30 10538 H 995.424 -1.69009 -2.6511 0
M  V30 10539 N 999.196 -0.349774 -1.5367 0
M  V30 10540 C 1000.13 0.496338 -2.28164 0
M  V30 10541 C 1001.11 1.09737 -1.29968 0
M  V30 10542 O 1002.29 1.11759 -1.58819 0
M  V30 10543 C 999.422 1.64428 -3.0591 0
M  V30 10544 C 998.376 1.17127 -4.11661 0
M  V30 10545 C 997.702 2.40822 -4.77398 0
M  V30 10546 C 999.002 0.267293 -5.21616 0
M  V30 10547 H 1000.7 -0.125117 -2.99138 0
M  V30 10548 H 998.242 -0.0616152 -1.43868 0
M  V30 10549 H 1000.19 2.2427 -3.56765 0
M  V30 10550 H 998.919 2.29272 -2.32598 0
M  V30 10551 H 997.578 0.595634 -3.61729 0
M  V30 10552 H 997.226 3.04088 -4.00674 0
M  V30 10553 H 996.926 2.09852 -5.48849 0
M  V30 10554 H 998.45 3.01378 -5.3104 0
M  V30 10555 H 999.864 0.772734 -5.68068 0
M  V30 10556 H 998.261 0.0491991 -6.0008 0
M  V30 10557 H 999.331 -0.694892 -4.79895 0
M  V30 10558 N 1000.67 1.57404 -0.0785433 0
M  V30 10559 C 1001.92 1.94031 0.589896 0
M  V30 10560 C 1002.25 0.959297 1.68852 0
M  V30 10561 O 1001.53 -0.0103978 1.94497 0
M  V30 10562 C 1001.81 3.40886 1.16055 0
M  V30 10563 C 1001.66 4.49748 0.0681072 0
M  V30 10564 C 1002.98 3.88699 2.06401 0
M  V30 10565 H 1000.1 0.70556 0.212965 0
M  V30 10566 H 1002.74 1.89439 -0.145886 0
M  V30 10567 H 1000.89 3.4493 1.78761 0
M  V30 10568 H 1002.57 4.57823 -0.565318 0
M  V30 10569 H 1000.81 4.29625 -0.600431 0
M  V30 10570 H 1001.48 5.49658 0.507906 0
M  V30 10571 H 1003.96 3.86703 1.53622 0
M  V30 10572 H 1002.83 4.92052 2.43261 0
M  V30 10573 H 1003.09 3.2703 2.97496 0
M  V30 10574 N 1002.15 -0.195058 1.56388 0
M  V30 10575 C 1003.06 -1.26219 1.97752 0
M  V30 10576 C 1004.08 -1.49801 0.885192 0
M  V30 10577 O 1005.25 -1.62415 1.19094 0
M  V30 10578 C 1002.32 -2.5865 2.3087 0
M  V30 10579 C 1001.38 -2.4314 3.5381 0
M  V30 10580 C 1000.61 -3.69255 3.85339 0
M  V30 10581 O 1000.84 -4.73425 3.18159 0
M  V30 10582 O 999.77 -3.64782 4.78767 0
M  V30 10583 H 1003.6 -0.941161 2.88749 0
M  V30 10584 H 1001.18 -0.40006 1.43944 0
M  V30 10585 H 1003.06 -3.36814 2.53247 0
M  V30 10586 H 1001.74 -2.9038 1.43042 0
M  V30 10587 H 1000.64 -1.63086 3.3668 0
M  V30 10588 H 1001.98 -2.16341 4.42105 0
M  V30 10589 O 1003.67 -1.57874 -0.340278 0
M  V30 10590 H 1004.36 -1.66507 -0.98971 0
M  V30 END ATOM
M  V30 BEGIN BOND
M  V30 END BOND
M  V30 END CTAB
M  END
$$$$
