drugbank_target|P10827 Thyroid hormone receptor alpha (DB00279; DB00451; DB00509; DB01583; DB03176; DB04855; DB05035; DB05235; DB09100)
 OpenBabel12092119373D

  0  0  0     0  0            999 V3000
M  V30 BEGIN CTAB
M  V30 COUNTS 7649 7716 0 0 0
M  V30 BEGIN ATOM
M  V30 1 H -0.908 1.98254 -0.117106 0
M  V30 2 N 0 1.576 0 0
M  V30 3 C 0.933 2.03868 1.02534 0
M  V30 4 C 1.911 0.928543 1.3348 0
M  V30 5 O 3.095 1.19667 1.45644 0
M  V30 6 C 0.222 2.43627 2.35294 0
M  V30 7 C -0.732 3.65373 2.2001 0
M  V30 8 S 0.101 5.13292 1.52614 0
M  V30 9 C 1.257 5.56322 2.86805 0
M  V30 10 H 1.49 2.90518 0.631377 0
M  V30 11 H -0.977 1.52953 0.210867 0
M  V30 12 H 0.981 2.67203 3.11629 0
M  V30 13 H -0.358 1.57376 2.7183 0
M  V30 14 H -1.165 3.90944 3.18086 0
M  V30 15 H -1.563 3.418 1.51819 0
M  V30 16 H 0.729 5.58782 3.83104 0
M  V30 17 H 1.672 6.56266 2.65933 0
M  V30 18 H 2.08 4.83886 2.90714 0
M  V30 19 N 1.4781 -0.272755 1.55222 0
M  V30 20 C 2.3881 -1.35918 1.91216 0
M  V30 21 C 3.4041 -1.54026 0.809436 0
M  V30 22 O 4.5801 -1.68148 1.10852 0
M  V30 23 C 1.6451 -2.69834 2.17693 0
M  V30 24 C 0.7061 -2.6047 3.41253 0
M  V30 25 C -0.0609 -3.88 3.66458 0
M  V30 26 O 0.1621 -4.88693 2.94169 0
M  V30 27 O -0.9039 -3.88189 4.59992 0
M  V30 28 H 2.9221 -1.0839 2.83699 0
M  V30 29 H 0.5071 -0.471301 1.41771 0
M  V30 30 H 2.3891 -3.49017 2.36147 0
M  V30 31 H 1.0641 -2.97148 1.28392 0
M  V30 32 H -0.0289 -1.79663 3.28134 0
M  V30 33 H 1.3041 -2.38106 4.30774 0
M  V30 34 N 2.9562 -1.48159 -0.537278 0
M  V30 35 C 3.8882 -1.58218 -1.65831 0
M  V30 36 C 4.9012 -0.466948 -1.5596 0
M  V30 37 O 6.0902 -0.73747 -1.62553 0
M  V30 38 C 3.1902 -1.48906 -3.04434 0
M  V30 39 C 2.3632 -2.75343 -3.3986 0
M  V30 40 C 1.4222 -2.59588 -4.57712 0
M  V30 41 O 0.4482 -3.33457 -4.61297 0
M  V30 42 N 1.6502 -1.68724 -5.55439 0
M  V30 43 H 4.4152 -2.54891 -1.57641 0
M  V30 44 H 1.9762 -1.4479 -0.724386 0
M  V30 45 H 3.9682 -1.36072 -3.81139 0
M  V30 46 H 2.5382 -0.602368 -3.06741 0
M  V30 47 H 1.7582 -3.02795 -2.52406 0
M  V30 48 H 3.0462 -3.5924 -3.60311 0
M  V30 49 H 2.4442 -1.07898 -5.55315 0
M  V30 50 H 1.0012 -1.61832 -6.3139 0
M  V30 51 N 4.4343 0.785586 -1.36625 0
M  V30 52 C 5.3813 1.89838 -1.31264 0
M  V30 53 C 6.3513 1.65115 -0.180633 0
M  V30 54 O 7.5363 1.87222 -0.36777 0
M  V30 55 C 4.6763 3.26706 -1.11163 0
M  V30 56 C 3.7893 3.63476 -2.33472 0
M  V30 57 C 2.9243 4.89481 -2.06353 0
M  V30 58 C 1.9633 5.18941 -3.24602 0
M  V30 59 N 1.1003 6.36131 -2.97123 0
M  V30 60 H 5.9403 1.93756 -2.26413 0
M  V30 61 H 3.4773 0.947454 -1.12524 0
M  V30 62 H 5.4353 4.05639 -0.975337 0
M  V30 63 H 4.0653 3.222 -0.196674 0
M  V30 64 H 3.1173 2.79636 -2.57891 0
M  V30 65 H 4.4293 3.81193 -3.21704 0
M  V30 66 H 3.5833 5.76288 -1.89675 0
M  V30 67 H 2.3223 4.73841 -1.15437 0
M  V30 68 H 1.3273 4.30615 -3.41834 0
M  V30 69 H 2.5523 5.36498 -4.16349 0
M  V30 70 H 0.4983 6.21875 -2.08823 0
M  V30 71 H 0.4153 6.54198 -3.78894 0
M  V30 72 H 1.6833 7.2591 -2.84033 0
M  V30 73 N 5.9124 1.20967 1.01018 0
M  V30 74 C 7.3234 1.02319 1.56165 0
M  V30 75 C 7.6744 -0.418546 1.91684 0
M  V30 76 O 6.7994 -1.30096 1.72928 0
M  V30 77 C 7.3944 1.85109 2.8376 0
M  V30 78 C 5.9534 1.70809 3.35412 0
M  V30 79 C 5.1004 1.82643 2.08655 0
M  V30 80 H 8.0514 1.35065 0.833255 0
M  V30 81 H 8.0724 1.35827 3.55431 0
M  V30 82 H 7.5844 2.90035 2.57878 0
M  V30 83 H 5.6854 0.685464 3.66241 0
M  V30 84 H 5.7984 2.52467 4.07182 0
M  V30 85 H 4.1624 1.25896 2.21409 0
M  V30 86 H 4.9454 2.89066 1.85191 0
M  V30 87 N 7.3905 -1.2043 1.01659 0
M  V30 88 C 8.6155 -1.94318 0.724942 0
M  V30 89 C 9.0405 -1.74266 -0.708034 0
M  V30 90 O 8.3985 -1.03694 -1.48719 0
M  V30 91 C 8.4465 -3.44486 1.06591 0
M  V30 92 O 7.5505 -4.12017 0.177599 0
M  V30 93 H 6.8915 -0.60708 0.26898 0
M  V30 94 H 9.4215 -1.52861 1.35995 0
M  V30 95 H 9.4315 -3.95106 1.01762 0
M  V30 96 H 8.1065 -3.58404 2.10997 0
M  V30 97 H 6.6835 -3.71821 0.283421 0
M  V30 98 N 8.8686 -0.792821 -1.36206 0
M  V30 99 C 9.8156 -0.191653 -2.30003 0
M  V30 100 C 10.7856 0.666453 -1.52143 0
M  V30 101 O 11.9706 0.61442 -1.80636 0
M  V30 102 C 9.1106 0.664848 -3.38635 0
M  V30 103 C 8.2236 -0.212175 -4.31479 0
M  V30 104 C 7.3586 0.651022 -5.27196 0
M  V30 105 C 6.3976 -0.227247 -6.11678 0
M  V30 106 N 5.5346 0.595127 -6.99573 0
M  V30 107 H 10.3746 -0.996978 -2.80828 0
M  V30 108 H 7.9116 -0.503206 -1.38225 0
M  V30 109 H 9.8696 1.17645 -4.00269 0
M  V30 110 H 8.4996 1.43557 -2.89122 0
M  V30 111 H 7.5516 -0.841777 -3.70969 0
M  V30 112 H 8.8636 -0.888751 -4.90818 0
M  V30 113 H 8.0176 1.2283 -5.94136 0
M  V30 114 H 6.7566 1.36121 -4.68319 0
M  V30 115 H 5.7616 -0.816904 -5.43697 0
M  V30 116 H 6.9866 -0.93509 -6.72631 0
M  V30 117 H 4.9326 1.28955 -6.432 0
M  V30 118 H 4.8496 -0.0236952 -7.55996 0
M  V30 119 H 6.1176 1.15613 -7.70879 0
M  V30 120 N 10.3467 1.47872 -0.545128 0
M  V30 121 C 11.5927 2.02793 -0.0166104 0
M  V30 122 C 11.9257 1.41987 1.32489 0
M  V30 123 O 11.2007 0.571045 1.85928 0
M  V30 124 C 11.4837 3.59989 0.0893294 0
M  V30 125 C 11.3367 4.3125 -1.27841 0
M  V30 126 C 12.6557 4.32606 0.808724 0
M  V30 127 H 9.7747 0.736962 -0.00751035 0
M  V30 128 H 12.4167 1.76433 -0.705085 0
M  V30 129 H 10.5667 3.82579 0.675681 0
M  V30 130 H 12.2387 4.20035 -1.90704 0
M  V30 131 H 10.4817 3.92076 -1.85632 0
M  V30 132 H 11.1527 5.39736 -1.15713 0
M  V30 133 H 13.6287 4.14936 0.310992 0
M  V30 134 H 12.5047 5.42251 0.851782 0
M  V30 135 H 12.7657 4.00963 1.86229 0
M  V30 136 N 11.8248 0.280983 1.55075 0
M  V30 137 C 12.7348 -0.61388 2.26426 0
M  V30 138 C 13.7508 -1.16521 1.29224 0
M  V30 139 O 14.9268 -1.19426 1.62171 0
M  V30 140 C 11.9918 -1.7788 2.9759 0
M  V30 141 C 11.0528 -1.26355 4.10284 0
M  V30 142 C 10.2858 -2.37295 4.78045 0
M  V30 143 O 10.5088 -3.56777 4.45047 0
M  V30 144 O 9.4428 -2.05119 5.65871 0
M  V30 145 H 13.2688 -0.0356932 3.03679 0
M  V30 146 H 10.8538 0.0481686 1.49322 0
M  V30 147 H 12.7358 -2.45791 3.42293 0
M  V30 148 H 11.4108 -2.34397 2.23249 0
M  V30 149 H 10.3178 -0.550735 3.70024 0
M  V30 150 H 11.6508 -0.744065 4.86543 0
M  V30 151 N 13.3029 -1.57598 0.00835791 0
M  V30 152 C 14.5429 -1.92788 -0.679136 0
M  V30 153 C 14.9069 -0.883378 -1.70471 0
M  V30 154 O 16.1079 -1.12079 -2.44319 0
M  V30 155 C 14.3789 -3.32994 -1.29807 0
M  V30 156 S 15.9379 -3.90082 -2.00952 0
M  V30 157 H 12.7559 -0.67475 -0.224127 0
M  V30 158 H 15.3579 -1.95385 0.0670497 0
M  V30 159 H 14.0619 -4.06846 -0.538922 0
M  V30 160 H 13.5929 -3.33791 -2.082 0
M  V30 161 H 15.6079 -3.71834 -3.28563 0
M  V30 162 N 14.781 0.264519 -1.55364 0
M  V30 163 C 16.029 0.993021 -1.76021 0
M  V30 164 C 16.35 1.86511 -0.569099 0
M  V30 165 O 15.62 1.91438 0.415735 0
M  V30 166 H 14.2 0.369639 -0.649135 0
M  V30 167 H 16.862 0.286707 -1.9278 0
M  V30 168 H 15.958 1.62502 -2.66457 0
M  V30 169 N 16.2591 1.48442 0.529413 0
M  V30 170 C 17.4841 1.60406 1.31471 0
M  V30 171 C 17.9091 0.264738 1.86228 0
M  V30 172 O 17.2671 -0.763668 1.64432 0
M  V30 173 C 17.3151 2.65419 2.44101 0
M  V30 174 O 16.4191 2.22618 3.47153 0
M  V30 175 H 15.7601 0.537863 0.389357 0
M  V30 176 H 18.2901 1.94432 0.636965 0
M  V30 177 H 18.3001 2.86709 2.90279 0
M  V30 178 H 16.9751 3.62652 2.03608 0
M  V30 179 H 15.5521 2.11543 3.0709 0
M  V30 180 N 17.7372 -0.778329 1.37039 0
M  V30 181 C 19.0142 -1.52551 1.22424 0
M  V30 182 C 19.3942 -2.10288 -0.184964 0
M  V30 183 O 18.7422 -1.94953 -1.19187 0
M  V30 184 C 18.9522 -2.61164 2.31504 0
M  V30 185 C 20.3002 -3.28746 2.68721 0
M  V30 186 O 21.3242 -2.71455 2.30631 0
M  V30 187 O 20.1832 -4.3231 3.3432 0
M  V30 188 H 17.2772 -0.675343 0.477326 0
M  V30 189 H 19.8232 -0.815859 1.48801 0
M  V30 190 H 18.5952 -2.16574 3.25901 0
M  V30 191 H 18.2182 -3.39737 2.06554 0
M  V30 192 N 19.2153 -1.21501 -1.00376 0
M  V30 193 C 20.6263 -1.03146 -1.55621 0
M  V30 194 C 20.9773 0.408375 -1.91903 0
M  V30 195 O 20.1023 1.29177 -1.73616 0
M  V30 196 C 20.6973 -1.86612 -2.82775 0
M  V30 197 C 19.2563 -1.72586 -3.34501 0
M  V30 198 C 18.4033 -1.83747 -2.07683 0
M  V30 199 H 21.3543 -1.35505 -0.826081 0
M  V30 200 H 21.3753 -1.3771 -3.54706 0
M  V30 201 H 20.8873 -2.91399 -2.56336 0
M  V30 202 H 18.9883 -0.704877 -3.65872 0
M  V30 203 H 19.1013 -2.54623 -4.05837 0
M  V30 204 H 17.4653 -1.27069 -2.20739 0
M  V30 205 H 18.2483 -2.90044 -1.83655 0
M  V30 206 N 20.6934 1.19889 -1.02296 0
M  V30 207 C 21.6034 2.26571 -0.608508 0
M  V30 208 C 22.6194 1.70299 0.356964 0
M  V30 209 O 23.7954 2.00235 0.216326 0
M  V30 210 C 20.8604 3.46677 0.0402814 0
M  V30 211 C 19.9214 4.18153 -0.97194 0
M  V30 212 C 19.1544 5.32525 -0.354016 0
M  V30 213 O 19.3774 5.64112 0.844604 0
M  V30 214 O 18.3114 5.92242 -1.07391 0
M  V30 215 H 22.1374 2.64251 -1.49684 0
M  V30 216 H 19.7224 1.26629 -0.792809 0
M  V30 217 H 21.6044 4.19475 0.402324 0
M  V30 218 H 20.2794 3.10858 0.902707 0
M  V30 219 H 19.1864 3.47499 -1.38546 0
M  V30 220 H 20.5194 4.57927 -1.80454 0
M  V30 221 N 22.1715 0.800033 1.35784 0
M  V30 222 C 23.0815 0.207204 2.33683 0
M  V30 223 C 24.0975 -0.64631 1.61551 0
M  V30 224 O 25.2735 -0.559604 1.93469 0
M  V30 225 C 22.3385 -0.639659 3.40748 0
M  V30 226 C 21.3995 0.233585 4.28664 0
M  V30 227 C 20.6325 -0.572954 5.30616 0
M  V30 228 O 20.8555 -1.80816 5.40982 0
M  V30 229 O 19.7895 0.0327285 6.01891 0
M  V30 230 H 23.6155 1.01692 2.86169 0
M  V30 231 H 21.2005 0.561691 1.38439 0
M  V30 232 H 23.0825 -1.12223 4.06182 0
M  V30 233 H 21.7575 -1.42708 2.90544 0
M  V30 234 H 20.6645 0.763147 3.66233 0
M  V30 235 H 21.9975 0.984784 4.82248 0
M  V30 236 N 23.6496 -1.47581 0.552962 0
M  V30 237 C 24.5976 -2.31648 -0.21023 0
M  V30 238 C 25.5916 -1.42663 -0.913432 0
M  V30 239 O 26.7976 -1.5945 -0.835201 0
M  V30 240 H 23.1726 -0.746989 -0.0866676 0
M  V30 241 H 25.1436 -2.93869 0.518051 0
M  V30 242 C 23.8926 -3.25226 -1.22976 0
M  V30 243 H 23.2156 -3.93658 -0.698077 0
M  V30 244 H 24.6556 -3.86889 -1.73473 0
M  V30 245 C 23.1146 -2.48448 -2.27542 0
M  V30 246 O 23.6446 -2.22585 -3.34393 0
M  V30 247 N 21.8506 -2.09532 -2.01357 0
M  V30 248 H 21.3976 -2.30765 -1.14478 0
M  V30 249 H 21.3556 -1.58476 -2.71538 0
M  V30 250 N 25.1277 -0.289203 -1.54924 0
M  V30 251 C 26.3527 0.329299 -2.04769 0
M  V30 252 C 26.7777 1.4763 -1.16564 0
M  V30 253 O 26.1357 1.80527 -0.167186 0
M  V30 254 C 26.1837 0.774438 -3.52186 0
M  V30 255 O 25.2877 1.88038 -3.67036 0
M  V30 256 H 24.6287 0.0659259 -0.660719 0
M  V30 257 H 27.1587 -0.42761 -2.00082 0
M  V30 258 H 27.1687 1.06642 -3.93816 0
M  V30 259 H 25.8437 -0.0646707 -4.1585 0
M  V30 260 H 24.4207 1.58985 -3.3731 0
M  V30 261 N 26.6058 1.57591 -0.0167156 0
M  V30 262 C 27.5688 2.08393 0.954204 0
M  V30 263 C 28.5688 0.996531 1.26198 0
M  V30 264 O 29.7588 1.25858 1.20438 0
M  V30 265 C 26.8908 2.5394 2.27436 0
M  V30 266 H 28.0838 2.95455 0.514451 0
M  V30 267 H 25.6368 1.54582 0.231089 0
M  V30 268 H 26.3718 1.70171 2.76066 0
M  V30 269 H 26.1568 3.33371 2.06412 0
M  V30 270 H 27.6468 2.93512 2.97053 0
M  V30 271 N 28.0839 -0.256276 1.55502 0
M  V30 272 C 29.4999 -0.604325 1.47716 0
M  V30 273 C 29.6999 -1.88763 0.705039 0
M  V30 274 O 28.7559 -2.51445 0.230613 0
M  V30 275 C 30.0689 -0.715756 2.92057 0
M  V30 276 C 31.6169 -0.808706 3.02372 0
M  V30 277 C 32.0919 -0.951777 4.48001 0
M  V30 278 N 33.5829 -1.01688 4.519 0
M  V30 279 C 34.3179 -1.14668 5.61817 0
M  V30 280 N 33.8139 -1.24261 6.81565 0
M  V30 281 N 35.6069 -1.1791 5.49594 0
M  V30 282 H 27.7579 0.586291 2.04148 0
M  V30 283 H 30.0209 0.201015 0.926443 0
M  V30 284 H 29.7269 0.157027 3.51349 0
M  V30 285 H 29.6009 -1.59071 3.42018 0
M  V30 286 H 31.9879 -1.67195 2.43166 0
M  V30 287 H 32.0689 0.0912063 2.55637 0
M  V30 288 H 31.7129 -0.0931291 5.07815 0
M  V30 289 H 31.6429 -1.86659 4.92408 0
M  V30 290 H 34.1339 -0.954468 3.65648 0
M  V30 291 H 34.4469 -1.34046 7.61086 0
M  V30 292 H 32.7919 -1.21236 6.84344 0
M  V30 293 H 35.9829 -1.10057 4.54978 0
M  V30 294 H 36.1559 -1.27681 6.35296 0
M  V30 295 N 29.562 -1.4872 -0.521534 0
M  V30 296 C 30.787 -1.61101 -1.30618 0
M  V30 297 C 31.212 -0.274611 -1.86085 0
M  V30 298 O 30.57 0.754937 -1.64834 0
M  V30 299 C 30.618 -2.66709 -2.4269 0
M  V30 300 O 29.722 -2.24456 -3.45967 0
M  V30 301 H 29.063 -0.539921 -0.386499 0
M  V30 302 H 31.593 -1.94767 -0.626645 0
M  V30 303 H 31.603 -2.88245 -2.88754 0
M  V30 304 H 30.278 -3.63727 -2.01682 0
M  V30 305 H 28.855 -2.13168 -3.05964 0
M  V30 306 N 31.0401 0.771051 -1.3745 0
M  V30 307 C 32.4511 1.34737 -1.29239 0
M  V30 308 C 32.8021 1.96109 0.0596908 0
M  V30 309 O 31.9271 1.93865 0.961534 0
M  V30 310 C 32.5221 2.44973 -2.34037 0
M  V30 311 C 31.0811 2.98372 -2.29458 0
M  V30 312 C 30.2281 1.71595 -2.17831 0
M  V30 313 H 33.1791 0.571256 -1.48062 0
M  V30 314 H 33.2001 3.24471 -1.98744 0
M  V30 315 H 32.7121 2.00276 -3.32432 0
M  V30 316 H 30.8131 3.47443 -1.34589 0
M  V30 317 H 30.9261 3.53939 -3.229 0
M  V30 318 H 29.2901 1.94547 -1.64388 0
M  V30 319 H 30.0731 1.29001 -3.18141 0
M  V30 320 N 32.5182 1.22032 0.997298 0
M  V30 321 C 33.7952 0.950823 1.70935 0
M  V30 322 C 34.1752 -0.535292 2.042 0
M  V30 323 O 33.5232 -1.50217 1.72183 0
M  V30 324 C 33.7332 1.84386 2.96315 0
M  V30 325 C 35.0812 2.09732 3.69185 0
M  V30 326 O 36.1052 1.81798 3.06314 0
M  V30 327 O 34.9642 2.57018 4.82291 0
M  V30 328 H 32.0582 0.357204 0.745878 0
M  V30 329 H 34.6042 1.32997 1.05404 0
M  V30 330 H 33.3762 2.84928 2.68201 0
M  V30 331 H 32.9992 1.46602 3.69586 0
M  V30 332 N 33.9963 -1.19345 1.0293 0
M  V30 333 C 35.2443 -1.88665 0.724574 0
M  V30 334 C 35.5653 -1.80036 -0.749144 0
M  V30 335 O 34.8353 -1.2111 -1.53978 0
M  V30 336 H 33.4153 -0.698406 0.265025 0
M  V30 337 H 36.0773 -1.44885 1.30362 0
M  V30 338 H 35.1733 -2.94987 1.01926 0
M  V30 339 N 35.4744 -0.807222 -1.35358 0
M  V30 340 C 36.4214 -0.216037 -2.29787 0
M  V30 341 C 37.3914 0.650278 -1.52842 0
M  V30 342 O 38.5764 0.595227 -1.81278 0
M  V30 343 C 35.7164 0.628893 -3.39321 0
M  V30 344 C 34.8294 -0.257927 -4.31229 0
M  V30 345 C 33.9644 0.595069 -5.27856 0
M  V30 346 C 33.0034 -0.292111 -6.11403 0
M  V30 347 N 32.1404 0.520895 -7.00165 0
M  V30 348 H 36.9804 -1.02671 -2.79755 0
M  V30 349 H 34.5174 -0.517839 -1.37684 0
M  V30 350 H 36.4754 1.13393 -4.01494 0
M  V30 351 H 35.1054 1.40482 -2.90628 0
M  V30 352 H 34.1574 -0.881076 -3.70056 0
M  V30 353 H 35.4694 -0.940759 -4.89848 0
M  V30 354 H 34.6234 1.16522 -5.95405 0
M  V30 355 H 33.3624 1.31146 -4.69736 0
M  V30 356 H 32.3674 -0.874525 -5.428 0
M  V30 357 H 33.5924 -1.00638 -6.71602 0
M  V30 358 H 31.5384 1.22125 -6.44532 0
M  V30 359 H 31.4554 -0.103877 -7.55929 0
M  V30 360 H 32.7234 1.0743 -7.72062 0
M  V30 361 N 36.9525 1.47285 -0.560781 0
M  V30 362 C 38.3685 1.58065 -0.22081 0
M  V30 363 C 38.5685 1.55892 1.27671 0
M  V30 364 O 37.6245 1.46422 2.0571 0
M  V30 365 C 38.9375 2.88418 -0.850625 0
M  V30 366 C 40.4855 3.02009 -0.822184 0
M  V30 367 C 40.9605 4.35066 -1.43113 0
M  V30 368 N 42.4515 4.41711 -1.39448 0
M  V30 369 C 43.1865 5.43237 -1.83525 0
M  V30 370 N 42.6825 6.51555 -2.35474 0
M  V30 371 N 44.4755 5.34304 -1.74574 0
M  V30 372 H 36.6265 1.46941 -1.53369 0
M  V30 373 H 38.8895 0.699558 -0.639783 0
M  V30 374 H 38.5955 2.95755 -1.9032 0
M  V30 375 H 38.4695 3.75612 -0.345773 0
M  V30 376 H 40.8565 2.94266 0.221714 0
M  V30 377 H 40.9375 2.16347 -1.36483 0
M  V30 378 H 40.5815 4.43565 -2.47412 0
M  V30 379 H 40.5115 5.19465 -0.863899 0
M  V30 380 H 43.0025 3.64027 -1.01452 0
M  V30 381 H 43.3155 7.25203 -2.67021 0
M  V30 382 H 41.6605 6.52435 -2.39487 0
M  V30 383 H 44.8515 4.48581 -1.33763 0
M  V30 384 H 45.0245 6.13288 -2.09242 0
M  V30 385 N 38.4306 0.297415 1.54768 0
M  V30 386 C 39.3776 -0.580276 2.23386 0
M  V30 387 C 40.3476 -1.13238 1.21517 0
M  V30 388 O 41.5326 -1.17757 1.50126 0
M  V30 389 C 38.6726 -1.74801 2.97555 0
M  V30 390 C 37.7856 -1.22764 4.1419 0
M  V30 391 C 36.9206 -2.35895 4.75949 0
M  V30 392 C 35.9596 -1.80974 5.84735 0
M  V30 393 N 35.0966 -2.87664 6.40464 0
M  V30 394 H 39.9366 0.0114833 2.97998 0
M  V30 395 H 37.4736 0.0174361 1.4709 0
M  V30 396 H 39.4316 -2.43475 3.38786 0
M  V30 397 H 38.0616 -2.31145 2.25326 0
M  V30 398 H 37.1136 -0.433271 3.77924 0
M  V30 399 H 38.4256 -0.785551 4.92575 0
M  V30 400 H 37.5796 -3.12523 5.20014 0
M  V30 401 H 36.3186 -2.83429 3.96887 0
M  V30 402 H 35.3236 -1.02834 5.40097 0
M  V30 403 H 36.5486 -1.34348 6.65678 0
M  V30 404 H 34.4946 -3.34538 5.64287 0
M  V30 405 H 34.4116 -2.4794 7.14186 0
M  V30 406 H 35.6796 -3.642 6.89187 0
M  V30 407 N 39.9087 -1.5758 0.0250728 0
M  V30 408 C 41.3247 -1.56124 -0.331282 0
M  V30 409 C 41.5247 -1.03029 -1.73169 0
M  V30 410 O 40.5807 -0.675215 -2.43305 0
M  V30 411 C 41.8937 -3.00139 -0.183584 0
M  V30 412 C 43.4417 -3.11946 -0.256654 0
M  V30 413 C 43.9167 -4.57793 -0.137792 0
M  V30 414 N 45.4077 -4.6279 -0.194904 0
M  V30 415 C 46.1427 -5.7326 -0.126655 0
M  V30 416 N 45.6387 -6.928 -0.00755288 0
M  V30 417 N 47.4317 -5.61811 -0.180348 0
M  V30 418 H 39.5827 -1.90424 0.94087 0
M  V30 419 H 41.8457 -0.875761 0.362968 0
M  V30 420 H 41.5517 -3.4292 0.780927 0
M  V30 421 H 41.4257 -3.64899 -0.955448 0
M  V30 422 H 43.8127 -2.69079 -1.21162 0
M  V30 423 H 43.8937 -2.49915 0.545517 0
M  V30 424 H 43.5377 -5.01339 0.813739 0
M  V30 425 H 43.4677 -5.17798 -0.958775 0
M  V30 426 H 45.9587 -3.76807 -0.287267 0
M  V30 427 H 46.2717 -7.72791 0.0379428 0
M  V30 428 H 44.6167 -6.94995 0.0271731 0
M  V30 429 H 47.8077 -4.6731 -0.271767 0
M  V30 430 H 47.9807 -6.47882 -0.123697 0
M  V30 431 N 41.3868 0.248026 -1.55636 0
M  V30 432 C 42.3338 1.30707 -1.90222 0
M  V30 433 C 43.3038 1.47881 -0.756332 0
M  V30 434 O 44.4888 1.61883 -1.00988 0
M  V30 435 C 41.6288 2.65769 -2.20138 0
M  V30 436 C 40.7418 2.56612 -3.47526 0
M  V30 437 C 39.8768 3.8402 -3.67017 0
M  V30 438 C 38.9158 3.69476 -4.8801 0
M  V30 439 N 38.0528 4.88774 -5.04029 0
M  V30 440 H 42.8928 1.00512 -2.80538 0
M  V30 441 H 40.4298 0.485055 -1.38873 0
M  V30 442 H 42.3878 3.44386 -2.35487 0
M  V30 443 H 41.0178 2.94115 -1.33027 0
M  V30 444 H 40.0698 1.69571 -3.40514 0
M  V30 445 H 41.3818 2.41774 -4.36287 0
M  V30 446 H 40.5358 4.7108 -3.8232 0
M  V30 447 H 39.2748 4.01754 -2.76487 0
M  V30 448 H 38.2798 2.80799 -4.72686 0
M  V30 449 H 39.5048 3.53238 -5.8 0
M  V30 450 H 37.4508 5.0687 -4.16435 0
M  V30 451 H 37.3678 4.76562 -5.86877 0
M  V30 452 H 38.6358 5.77335 -5.23741 0
M  V30 453 N 42.8649 1.48995 0.513639 0
M  V30 454 C 43.8129 1.65199 1.63744 0
M  V30 455 C 44.8069 0.51809 1.61283 0
M  V30 456 O 46.0129 0.697335 1.65943 0
M  V30 457 H 42.3879 0.52069 0.542574 0
M  V30 458 H 44.3589 2.59552 1.47226 0
M  V30 459 C 43.1079 1.72409 3.01945 0
M  V30 460 H 42.4309 2.59029 3.04539 0
M  V30 461 H 43.8709 1.87785 3.80148 0
M  V30 462 C 42.3299 0.46618 3.33659 0
M  V30 463 O 42.8599 -0.413744 3.99564 0
M  V30 464 N 41.0659 0.332931 2.88687 0
M  V30 465 H 40.6129 1.04996 2.35231 0
M  V30 466 H 40.5709 -0.507665 3.10274 0
M  V30 467 N 44.343 -0.763751 1.37857 0
M  V30 468 C 45.591 -1.51957 1.33243 0
M  V30 469 C 45.912 -1.94835 -0.0801709 0
M  V30 470 O 45.182 -1.66894 -1.02582 0
M  V30 471 H 43.762 -0.563626 0.49024 0
M  V30 472 H 46.424 -0.908504 1.7243 0
M  V30 473 H 45.52 -2.41523 1.97669 0
M  V30 474 N 45.8211 -1.22559 -0.990812 0
M  V30 475 C 46.7531 -0.955325 -2.08342 0
M  V30 476 C 47.7661 0.0668408 -1.62663 0
M  V30 477 O 48.9551 -0.167421 -1.77713 0
M  V30 478 C 46.0551 -0.415566 -3.36342 0
M  V30 479 C 45.2281 -1.49544 -4.11042 0
M  V30 480 C 44.2871 -0.962399 -5.17324 0
M  V30 481 O 43.3131 -1.64907 -5.44788 0
M  V30 482 N 44.5151 0.215134 -5.80101 0
M  V30 483 H 47.2801 -1.89596 -2.32106 0
M  V30 484 H 44.8411 -1.13276 -1.15673 0
M  V30 485 H 46.8331 -0.0442386 -4.04676 0
M  V30 486 H 45.4031 0.430232 -3.09625 0
M  V30 487 H 44.6231 -2.04 -3.37309 0
M  V30 488 H 45.9111 -2.22195 -4.57719 0
M  V30 489 H 45.3091 0.789779 -5.6016 0
M  V30 490 H 43.8661 0.527826 -6.49659 0
M  V30 491 N 47.2992 1.18797 -1.03562 0
M  V30 492 C 48.5392 1.90346 -0.744832 0
M  V30 493 C 48.9032 1.78231 0.713972 0
M  V30 494 O 50.1042 2.44441 1.11813 0
M  V30 495 C 48.3752 3.36942 -1.19184 0
M  V30 496 S 49.9342 4.26638 -1.02593 0
M  V30 497 H 46.7522 0.657343 -0.270963 0
M  V30 498 H 49.3542 1.43579 -1.32685 0
M  V30 499 H 48.0582 3.43287 -2.24905 0
M  V30 500 H 47.5892 3.88745 -0.603397 0
M  V30 501 H 49.6042 4.96164 0.0596033 0
M  V30 502 N 48.7773 0.814389 1.34928 0
M  V30 503 C 50.0023 0.410097 2.03305 0
M  V30 504 C 50.4273 -0.973464 1.60951 0
M  V30 505 O 49.7853 -1.63185 0.789964 0
M  V30 506 C 49.8333 0.51049 3.56968 0
M  V30 507 O 48.9373 -0.473035 4.09678 0
M  V30 508 H 48.2783 0.170088 0.641846 0
M  V30 509 H 50.8083 1.10244 1.72358 0
M  V30 510 H 50.8183 0.383135 4.06197 0
M  V30 511 H 49.4933 1.51963 3.87144 0
M  V30 512 H 48.0703 -0.305272 3.71648 0
M  V30 513 N 50.2554 -1.46986 0.568584 0
M  V30 514 C 51.1854 -2.32946 -0.160753 0
M  V30 515 C 52.1664 -1.44487 -0.897631 0
M  V30 516 O 53.3514 -1.73327 -0.875867 0
M  V30 517 C 50.4814 -3.26494 -1.18403 0
M  V30 518 C 49.4354 -4.24282 -0.562895 0
M  V30 519 C 48.7614 -5.07236 -1.69163 0
M  V30 520 C 50.0614 -5.19989 0.490761 0
M  V30 521 H 51.7554 -2.94175 0.556916 0
M  V30 522 H 49.3014 -1.4146 0.26927 0
M  V30 523 H 51.2544 -3.85477 -1.70251 0
M  V30 524 H 49.9784 -2.63343 -1.93179 0
M  V30 525 H 48.6374 -3.66541 -0.0656164 0
M  V30 526 H 48.2854 -4.4048 -2.42871 0
M  V30 527 H 47.9854 -5.7345 -1.28174 0
M  V30 528 H 49.5094 -5.6908 -2.21314 0
M  V30 529 H 50.9234 -5.73271 0.0579047 0
M  V30 530 H 49.3204 -5.94469 0.820165 0
M  V30 531 H 50.3904 -4.64777 1.3824 0
M  V30 532 N 51.7335 -0.305618 -1.54608 0
M  V30 533 C 52.6805 0.568421 -2.23691 0
M  V30 534 C 53.6505 1.12592 -1.22116 0
M  V30 535 O 54.8355 1.16959 -1.50749 0
M  V30 536 C 51.9755 1.7322 -2.98477 0
M  V30 537 C 51.0885 1.20566 -4.14835 0
M  V30 538 C 50.2235 2.33368 -4.77193 0
M  V30 539 C 49.2625 1.7787 -5.85686 0
M  V30 540 N 48.3995 2.84263 -6.4198 0
M  V30 541 H 53.2395 -0.0272867 -2.97988 0
M  V30 542 H 50.7765 -0.0252363 -1.47078 0
M  V30 543 H 52.7345 2.41675 -3.40072 0
M  V30 544 H 51.3645 2.29947 -2.26548 0
M  V30 545 H 50.4165 0.413223 -3.78149 0
M  V30 546 H 51.7285 0.759417 -4.92985 0
M  V30 547 H 50.8825 3.09761 -5.21664 0
M  V30 548 H 49.6215 2.8132 -3.98385 0
M  V30 549 H 48.6265 0.99968 -5.40635 0
M  V30 550 H 49.8515 1.30816 -6.66381 0
M  V30 551 H 47.7975 3.31541 -5.66053 0
M  V30 552 H 47.7145 2.44149 -7.15491 0
M  V30 553 H 48.9825 3.6054 -6.91109 0
M  V30 554 N 53.2116 1.57565 -0.0334293 0
M  V30 555 C 54.4396 1.9628 0.654347 0
M  V30 556 C 54.8546 0.910138 1.65414 0
M  V30 557 O 54.2116 -0.107595 1.82183 0
M  V30 558 C 54.2626 3.35067 1.35693 0
M  V30 559 O 53.9836 4.36296 0.397191 0
M  V30 560 C 55.4846 3.88439 2.13613 0
M  V30 561 H 52.7046 0.646369 0.180132 0
M  V30 562 H 55.2486 2.04282 -0.0944721 0
M  V30 563 H 53.4036 3.2827 2.05712 0
M  V30 564 H 53.8176 5.1678 0.896597 0
M  V30 565 H 55.2916 4.8788 2.58219 0
M  V30 566 H 55.7686 3.22914 2.97696 0
M  V30 567 H 56.3746 3.98516 1.48543 0
M  V30 568 N 54.6897 -0.239769 1.55765 0
M  V30 569 C 55.9147 -0.988373 1.82335 0
M  V30 570 C 56.3397 -1.77886 0.611421 0
M  V30 571 O 55.6977 -1.75889 -0.439639 0
M  V30 572 C 55.7457 -1.89627 3.06715 0
M  V30 573 O 54.8497 -2.98904 2.84131 0
M  V30 574 H 54.1907 -0.280858 0.601677 0
M  V30 575 H 56.7207 -0.258597 2.02959 0
M  V30 576 H 56.7307 -2.30957 3.36338 0
M  V30 577 H 55.4057 -1.31511 3.9456 0
M  V30 578 H 53.9827 -2.61651 2.65694 0
M  V30 579 N 56.1678 -1.49265 -0.50573 0
M  V30 580 C 57.1008 -1.60183 -1.62532 0
M  V30 581 C 58.0788 -0.451107 -1.56217 0
M  V30 582 O 59.2628 -0.666016 -1.76342 0
M  V30 583 C 56.3898 -1.55238 -3.01029 0
M  V30 584 C 55.4358 -2.7545 -3.25621 0
M  V30 585 S 56.2688 -4.37174 -3.09256 0
M  V30 586 C 57.4248 -4.34866 -4.50158 0
M  V30 587 H 57.6578 -2.54894 -1.53025 0
M  V30 588 H 55.1908 -1.38098 -0.690535 0
M  V30 589 H 57.1488 -1.53071 -3.80893 0
M  V30 590 H 55.8098 -0.618238 -3.07956 0
M  V30 591 H 55.0028 -2.68197 -4.26716 0
M  V30 592 H 54.6048 -2.75005 -2.53472 0
M  V30 593 H 56.8968 -4.06295 -5.42154 0
M  V30 594 H 57.8398 -5.36223 -4.62462 0
M  V30 595 H 58.2478 -3.65007 -4.30616 0
M  V30 596 N 57.6459 0.756429 -1.3826 0
M  V30 597 C 58.8709 1.55077 -1.37717 0
M  V30 598 C 59.2959 1.88073 0.03164 0
M  V30 599 O 58.6539 1.50364 1.01293 0
M  V30 600 C 58.7019 2.8283 -2.23695 0
M  V30 601 O 57.8059 3.77862 -1.6521 0
M  V30 602 H 57.1469 0.469152 -0.469885 0
M  V30 603 H 59.6769 0.935019 -1.81985 0
M  V30 604 H 59.6869 3.31783 -2.37453 0
M  V30 605 H 58.3619 2.58144 -3.2609 0
M  V30 606 H 56.9389 3.36555 -1.60578 0
M  V30 607 N 59.124 1.23083 0.984299 0
M  V30 608 C 60.372 1.05848 1.72165 0
M  V30 609 C 60.693 -0.406049 1.90726 0
M  V30 610 O 59.963 -1.29139 1.47309 0
M  V30 611 H 58.543 0.388685 0.637913 0
M  V30 612 H 61.205 1.54736 1.18503 0
M  V30 613 H 60.301 1.54327 2.71274 0
M  V30 614 N 60.6021 -1.18246 1.0419 0
M  V30 615 C 61.8321 -1.91916 0.764961 0
M  V30 616 C 62.2401 -1.76485 -0.681898 0
M  V30 617 O 61.5831 -1.09275 -1.47664 0
M  V30 618 C 61.6451 -3.4373 1.05309 0
M  V30 619 C 61.3091 -3.8294 2.4941 0
M  V30 620 C 62.3061 -3.86621 3.47592 0
M  V30 621 C 59.9911 -4.142 2.84155 0
M  V30 622 C 61.9851 -4.21013 4.78568 0
M  V30 623 C 59.6721 -4.48262 4.15337 0
M  V30 624 C 60.6701 -4.51645 5.12353 0
M  V30 625 O 60.3581 -4.84911 6.41183 0
M  V30 626 H 60.0901 -0.61606 0.278292 0
M  V30 627 H 62.6441 -1.50947 1.39299 0
M  V30 628 H 60.8741 -3.84946 0.367933 0
M  V30 629 H 62.5631 -3.9865 0.763752 0
M  V30 630 H 63.3291 -3.62607 3.22089 0
M  V30 631 H 59.2081 -4.10743 2.09311 0
M  V30 632 H 62.7521 -4.23568 5.54289 0
M  V30 633 H 58.6491 -4.71737 4.40607 0
M  V30 634 H 59.4171 -5.02809 6.45852 0
M  V30 635 N 62.0802 -0.821533 -1.34494 0
M  V30 636 C 63.3292 -0.405355 -1.97585 0
M  V30 637 C 63.6422 1.03677 -1.65863 0
M  V30 638 O 64.8482 1.55679 -2.22433 0
M  V30 639 C 63.3042 -0.673861 -3.53535 0
M  V30 640 C 62.9122 -2.12951 -3.94152 0
M  V30 641 C 64.6562 -0.32378 -4.23263 0
M  V30 642 C 62.5632 -2.34298 -5.43009 0
M  V30 643 H 61.4932 -0.147836 -0.739365 0
M  V30 644 H 64.1442 -1.00769 -1.53355 0
M  V30 645 H 62.5262 -0.00137554 -3.96 0
M  V30 646 H 63.7002 -2.84104 -3.62797 0
M  V30 647 H 62.0152 -2.44089 -3.37356 0
M  V30 648 H 64.6122 -0.461126 -5.32708 0
M  V30 649 H 64.9552 0.731586 -4.09821 0
M  V30 650 H 65.4882 -0.950786 -3.8627 0
M  V30 651 H 62.2272 -3.38335 -5.61435 0
M  V30 652 H 61.7472 -1.67687 -5.75883 0
M  V30 653 H 63.4262 -2.16588 -6.09671 0
M  V30 654 N 63.5583 1.46682 -0.576371 0
M  V30 655 C 64.9693 1.86112 -0.148091 0
M  V30 656 C 65.3203 1.48073 1.2872 0
M  V30 657 O 64.4453 0.892656 1.97131 0
M  V30 658 C 65.0403 3.37786 -0.261982 0
M  V30 659 C 63.5993 3.76235 0.111384 0
M  V30 660 C 62.7463 2.70713 -0.60083 0
M  V30 661 H 65.6973 1.37927 -0.78497 0
M  V30 662 H 65.7183 3.77007 0.514364 0
M  V30 663 H 65.2303 3.6544 -1.30671 0
M  V30 664 H 63.3313 3.54198 1.15649 0
M  V30 665 H 63.4443 4.78391 -0.26052 0
M  V30 666 H 61.8083 2.54666 -0.0417783 0
M  V30 667 H 62.5913 3.01208 -1.64708 0
M  V30 668 N 65.0364 0.313813 1.54444 0
M  V30 669 C 66.2614 -0.296681 2.05267 0
M  V30 670 C 66.6864 -1.45757 1.18897 0
M  V30 671 O 66.0444 -1.80239 0.195886 0
M  V30 672 C 66.0924 -0.71831 3.53373 0
M  V30 673 O 65.1964 -1.82175 3.69981 0
M  V30 674 H 64.5374 -0.0554061 0.661684 0
M  V30 675 H 67.0674 0.459387 1.99376 0
M  V30 676 H 67.0774 -1.00364 3.95463 0
M  V30 677 H 65.7524 0.130821 4.15694 0
M  V30 678 H 64.3294 -1.53598 3.39797 0
M  V30 679 N 66.5145 -1.57545 0.0417849 0
M  V30 680 C 67.7445 -1.96339 -0.642995 0
M  V30 681 C 68.1525 -0.917536 -1.65463 0
M  V30 682 O 67.4955 0.107747 -1.83384 0
M  V30 683 C 67.5575 -3.31333 -1.39494 0
M  V30 684 C 67.2215 -4.53796 -0.540204 0
M  V30 685 C 68.2185 -5.19553 0.189806 0
M  V30 686 C 65.9035 -5.0006 -0.473886 0
M  V30 687 C 67.8975 -6.29904 0.974674 0
M  V30 688 C 65.5845 -6.10289 0.314677 0
M  V30 689 C 66.5825 -6.75072 1.03765 0
M  V30 690 O 66.2705 -7.83183 1.81327 0
M  V30 691 H 66.0025 -0.651241 -0.181277 0
M  V30 692 H 68.5565 -2.05148 0.101665 0
M  V30 693 H 66.7865 -3.19052 -2.18502 0
M  V30 694 H 68.4755 -3.54942 -1.96904 0
M  V30 695 H 69.2415 -4.84774 0.147981 0
M  V30 696 H 65.1205 -4.49433 -1.0262 0
M  V30 697 H 68.6645 -6.80401 1.5395 0
M  V30 698 H 64.5615 -6.44506 0.358174 0
M  V30 699 H 65.3295 -7.99913 1.73438 0
M  V30 700 N 67.9926 0.231505 -1.5589 0
M  V30 701 C 68.9226 1.29022 -1.94617 0
M  V30 702 C 69.9036 1.4941 -0.813067 0
M  V30 703 O 71.0886 1.6176 -1.07459 0
M  V30 704 C 68.2186 2.64199 -2.25424 0
M  V30 705 C 67.1726 2.58484 -3.41131 0
M  V30 706 C 66.4986 3.97599 -3.57518 0
M  V30 707 C 67.7986 2.1413 -4.76388 0
M  V30 708 H 69.4926 0.968563 -2.83301 0
M  V30 709 H 67.0386 0.464479 -1.36303 0
M  V30 710 H 68.9916 3.38413 -2.51107 0
M  V30 711 H 67.7156 2.98032 -1.33583 0
M  V30 712 H 66.3746 1.86727 -3.15481 0
M  V30 713 H 66.0226 4.28723 -2.6307 0
M  V30 714 H 65.7226 3.94659 -4.35337 0
M  V30 715 H 67.2466 4.7349 -3.85538 0
M  V30 716 H 68.6606 2.78083 -5.01341 0
M  V30 717 H 67.0576 2.2227 -5.57419 0
M  V30 718 H 68.1276 1.09331 -4.72414 0
M  V30 719 N 69.4707 1.49531 0.497807 0
M  V30 720 C 70.7477 1.49682 1.25915 0
M  V30 721 C 71.1277 0.226339 2.09883 0
M  V30 722 O 70.4757 -0.791189 2.14365 0
M  V30 723 C 70.6857 2.77755 2.11313 0
M  V30 724 C 72.0337 3.27371 2.70395 0
M  V30 725 O 73.0577 2.78894 2.21578 0
M  V30 726 O 71.9167 4.11808 3.59272 0
M  V30 727 H 69.0107 0.599228 0.56996 0
M  V30 728 H 71.5567 1.61798 0.511816 0
M  V30 729 H 70.3287 3.61713 1.49264 0
M  V30 730 H 69.9517 2.68515 2.93233 0
M  V30 731 N 70.9488 -0.749086 1.3866 0
M  V30 732 C 71.8958 -1.86291 1.36251 0
M  V30 733 C 72.8658 -1.64578 0.224347 0
M  V30 734 O 74.0508 -1.86181 0.417279 0
M  V30 735 C 71.1908 -3.23644 1.19786 0
M  V30 736 C 70.3038 -3.57158 2.43027 0
M  V30 737 C 69.4388 -4.83838 2.19258 0
M  V30 738 C 68.4778 -5.10152 3.38247 0
M  V30 739 N 67.6148 -6.28029 3.13884 0
M  V30 740 H 72.4548 -1.87685 2.3147 0
M  V30 741 H 69.9918 -0.917287 1.14997 0
M  V30 742 H 71.9498 -4.0291 1.08254 0
M  V30 743 H 70.5798 -3.21566 0.282031 0
M  V30 744 H 69.6318 -2.72701 2.65214 0
M  V30 745 H 70.9438 -3.7253 3.31697 0
M  V30 746 H 70.0978 -5.71057 2.04888 0
M  V30 747 H 68.8368 -4.70614 1.2796 0
M  V30 748 H 67.8418 -4.21401 3.53131 0
M  V30 749 H 69.0668 -5.25271 4.30427 0
M  V30 750 H 67.0128 -6.1612 2.25238 0
M  V30 751 H 66.9298 -6.43922 3.96106 0
M  V30 752 H 68.1978 -7.18124 3.03179 0
M  V30 753 N 72.4269 -1.23603 -0.977757 0
M  V30 754 C 73.7039 -0.977897 -1.69401 0
M  V30 755 C 74.0839 0.502738 -2.05026 0
M  V30 756 O 73.4319 1.47459 -1.74551 0
M  V30 757 C 73.6419 -1.89077 -2.93345 0
M  V30 758 C 74.9899 -2.15579 -3.65802 0
M  V30 759 O 76.0139 -1.86648 -3.03383 0
M  V30 760 O 74.8729 -2.64658 -4.78141 0
M  V30 761 H 71.9669 -0.369025 -0.740101 0
M  V30 762 H 74.5129 -1.34657 -1.03274 0
M  V30 763 H 73.2849 -2.89158 -2.63634 0
M  V30 764 H 72.9079 -1.52463 -3.67207 0
M  V30 765 N 73.905 1.17692 -1.04816 0
M  V30 766 C 74.815 2.25229 -0.65643 0
M  V30 767 C 75.831 1.71018 0.320761 0
M  V30 768 O 77.007 2.00649 0.173805 0
M  V30 769 C 74.072 3.46684 -0.0332629 0
M  V30 770 C 73.133 4.15997 -1.06042 0
M  V30 771 C 72.366 5.31654 -0.466893 0
M  V30 772 O 72.589 5.65777 0.724758 0
M  V30 773 O 71.523 5.89831 -1.1993 0
M  V30 774 H 75.349 2.61016 -1.55255 0
M  V30 775 H 72.934 1.24919 -0.81949 0
M  V30 776 H 74.816 4.20234 0.313256 0
M  V30 777 H 73.491 3.12703 0.836566 0
M  V30 778 H 72.398 3.44482 -1.45886 0
M  V30 779 H 73.731 4.53996 -1.90127 0
M  V30 780 N 75.3831 0.828654 1.34056 0
M  V30 781 C 76.3151 0.212052 2.28217 0
M  V30 782 C 77.3281 -0.601362 1.51286 0
M  V30 783 O 78.5171 -0.430104 1.73241 0
M  V30 784 C 75.6171 -0.72088 3.31144 0
M  V30 785 C 74.7901 0.0509587 4.3737 0
M  V30 786 C 73.8491 -0.803766 5.20025 0
M  V30 787 O 72.8751 -0.246667 5.68665 0
M  V30 788 N 74.0771 -2.1227 5.40298 0
M  V30 789 H 76.8421 1.02105 2.81771 0
M  V30 790 H 74.4031 0.686153 1.46641 0
M  V30 791 H 76.3951 -1.29742 3.8334 0
M  V30 792 H 74.9651 -1.43061 2.77943 0
M  V30 793 H 74.1851 0.808831 3.85813 0
M  V30 794 H 75.4731 0.582065 5.0546 0
M  V30 795 H 74.8711 -2.59898 5.02464 0
M  V30 796 H 73.4281 -2.64796 5.95589 0
M  V30 797 N 76.8612 -1.46375 0.584142 0
M  V30 798 C 78.1012 -2.0427 0.0729695 0
M  V30 799 C 78.4652 -1.44563 -1.26355 0
M  V30 800 O 79.6662 -1.93667 -1.86405 0
M  V30 801 C 77.9372 -3.57399 0.00967464 0
M  V30 802 S 79.4962 -4.36551 -0.443714 0
M  V30 803 H 76.3142 -0.709975 0.0381673 0
M  V30 804 H 78.9162 -1.79398 0.776962 0
M  V30 805 H 77.6202 -3.98372 0.986319 0
M  V30 806 H 77.1512 -3.8681 -0.717044 0
M  V30 807 H 79.1662 -4.66237 -1.69816 0
M  V30 808 N 78.3393 -0.321999 -1.54275 0
M  V30 809 C 79.5853 0.281461 -2.00837 0
M  V30 810 C 79.9183 1.51909 -1.20985 0
M  V30 811 O 79.1933 1.923 -0.291733 0
M  V30 812 C 79.4763 0.617162 -3.54772 0
M  V30 813 C 79.3293 -0.631064 -4.45351 0
M  V30 814 C 80.6483 1.43542 -4.16033 0
M  V30 815 H 77.7673 0.100826 -0.730071 0
M  V30 816 H 80.4093 -0.438268 -1.84876 0
M  V30 817 H 78.5593 1.23034 -3.68504 0
M  V30 818 H 80.2313 -1.26934 -4.43492 0
M  V30 819 H 78.4743 -1.26025 -4.15091 0
M  V30 820 H 79.1453 -0.351735 -5.50878 0
M  V30 821 H 81.6213 0.917134 -4.05867 0
M  V30 822 H 80.4973 1.63907 -5.23856 0
M  V30 823 H 80.7583 2.43108 -3.69257 0
M  V30 824 N 79.8174 1.5752 -0.0501392 0
M  V30 825 C 81.0634 1.92936 0.624798 0
M  V30 826 C 81.3964 0.928685 1.70555 0
M  V30 827 O 80.6714 -0.0454779 1.94447 0
M  V30 828 C 80.9544 3.38737 1.22185 0
M  V30 829 C 80.8074 4.49552 0.149218 0
M  V30 830 C 82.1264 3.84913 2.13378 0
M  V30 831 H 79.2454 0.701604 0.225657 0
M  V30 832 H 81.8874 1.89671 -0.111693 0
M  V30 833 H 80.0374 3.4165 1.84953 0
M  V30 834 H 81.7094 4.58768 -0.482648 0
M  V30 835 H 79.9524 4.30638 -0.522841 0
M  V30 836 H 80.6234 5.48653 0.606966 0
M  V30 837 H 83.0994 3.8387 1.60572 0
M  V30 838 H 81.9754 4.87584 2.52097 0
M  V30 839 H 82.2364 3.21611 3.03346 0
M  V30 840 N 81.2955 -0.223234 1.56011 0
M  V30 841 C 82.5355 -0.954962 1.8072 0
M  V30 842 C 82.8995 -1.81598 0.623384 0
M  V30 843 O 84.1005 -2.58132 0.749745 0
M  V30 844 C 82.3715 -1.77313 3.10314 0
M  V30 845 S 83.9305 -2.56073 3.56332 0
M  V30 846 H 80.7485 -0.320812 0.634508 0
M  V30 847 H 83.3505 -0.220686 1.9425 0
M  V30 848 H 82.0545 -1.13071 3.94516 0
M  V30 849 H 81.5855 -2.54974 2.99586 0
M  V30 850 H 83.6005 -3.79619 3.19536 0
M  V30 851 N 82.7736 -1.49793 -0.48987 0
M  V30 852 C 84.0216 -1.59525 -1.24081 0
M  V30 853 C 84.3426 -0.288953 -1.92847 0
M  V30 854 O 83.6126 0.692436 -1.83254 0
M  V30 855 H 82.1926 -0.587796 -0.460983 0
M  V30 856 H 84.8546 -1.86477 -0.566778 0
M  V30 857 H 83.9506 -2.39696 -1.99881 0
M  V30 858 N 84.2517 0.741722 -1.39055 0
M  V30 859 C 85.5287 1.49252 -1.26425 0
M  V30 860 C 85.9087 2.10705 0.129144 0
M  V30 861 O 85.2567 1.98045 1.13976 0
M  V30 862 C 85.4667 2.54934 -2.38347 0
M  V30 863 C 86.8147 3.21506 -2.77343 0
M  V30 864 O 87.8387 2.65245 -2.37747 0
M  V30 865 O 86.6977 4.23294 -3.45665 0
M  V30 866 H 83.7917 0.662451 -0.495064 0
M  V30 867 H 86.3377 0.776121 -1.50912 0
M  V30 868 H 85.1097 2.07857 -3.31529 0
M  V30 869 H 84.7327 3.34141 -2.15489 0
M  V30 870 N 85.7298 1.2412 0.971189 0
M  V30 871 C 86.6768 1.0305 2.06517 0
M  V30 872 C 87.6468 -0.0550666 1.66009 0
M  V30 873 O 88.8318 0.0988688 1.90544 0
M  V30 874 C 85.9718 0.637653 3.39158 0
M  V30 875 C 85.0848 1.79633 3.92882 0
M  V30 876 C 84.2198 1.34939 5.13775 0
M  V30 877 C 83.2588 2.47823 5.59687 0
M  V30 878 N 82.3958 2.04022 6.71803 0
M  V30 879 H 87.2358 1.96685 2.23873 0
M  V30 880 H 84.7728 0.979694 1.09729 0
M  V30 881 H 86.7308 0.390931 4.15364 0
M  V30 882 H 85.3608 -0.261693 3.21737 0
M  V30 883 H 84.4128 2.15681 3.13346 0
M  V30 884 H 85.7248 2.64466 4.22918 0
M  V30 885 H 84.8788 1.06134 5.97345 0
M  V30 886 H 83.6178 0.471557 4.85415 0
M  V30 887 H 82.6228 2.77392 4.74693 0
M  V30 888 H 83.8478 3.36158 5.90063 0
M  V30 889 H 81.7938 1.18632 6.45184 0
M  V30 890 H 81.7108 2.82409 7.01271 0
M  V30 891 H 82.9788 1.78347 7.58823 0
M  V30 892 N 87.2079 -1.17134 1.05439 0
M  V30 893 C 88.1709 -2.19439 0.661764 0
M  V30 894 C 89.1709 -1.58199 -0.288042 0
M  V30 895 O 90.3609 -1.74053 -0.0715803 0
M  V30 896 C 87.4929 -3.40889 -0.0276209 0
M  V30 897 H 88.6859 -2.55688 1.56728 0
M  V30 898 H 86.2389 -1.31259 0.848567 0
M  V30 899 H 86.9739 -3.10187 -0.94629 0
M  V30 900 H 86.7589 -3.86586 0.655238 0
M  V30 901 H 88.2489 -4.16603 -0.288342 0
M  V30 902 N 88.686 -0.835752 -1.33615 0
M  V30 903 C 89.914 -0.443344 -2.02094 0
M  V30 904 C 90.329 0.954522 -1.62894 0
M  V30 905 O 89.686 1.61982 -0.840723 0
M  V30 906 C 89.737 -0.550775 -3.5728 0
M  V30 907 O 89.458 -1.89356 -3.95065 0
M  V30 908 C 90.959 -0.154919 -4.43029 0
M  V30 909 H 88.179 -0.176359 -0.647409 0
M  V30 910 H 90.723 -1.12746 -1.70612 0
M  V30 911 H 88.878 0.0853997 -3.87306 0
M  V30 912 H 89.292 -1.87687 -4.89769 0
M  V30 913 H 90.766 -0.281144 -5.51284 0
M  V30 914 H 91.243 0.902863 -4.2982 0
M  V30 915 H 91.849 -0.765404 -4.18356 0
M  V30 916 N 90.1641 1.46063 -0.591896 0
M  V30 917 C 91.4121 2.01938 -0.0808391 0
M  V30 918 C 91.7331 1.46475 1.28725 0
M  V30 919 O 91.0031 0.652944 1.84698 0
M  V30 920 H 89.5831 0.746516 -0.0268938 0
M  V30 921 H 92.2451 1.79055 -0.769752 0
M  V30 922 H 91.3411 3.12094 -0.0187578 0
M  V30 923 N 91.6422 0.330177 1.54103 0
M  V30 924 C 92.8722 -0.271784 2.04805 0
M  V30 925 C 93.2802 -1.45816 1.20559 0
M  V30 926 O 92.6232 -1.82247 0.2306 0
M  V30 927 C 92.6852 -0.763238 3.51305 0
M  V30 928 C 92.3492 0.301705 4.56003 0
M  V30 929 C 93.3462 1.13999 5.07248 0
M  V30 930 C 91.0312 0.451793 5.00264 0
M  V30 931 C 93.0252 2.11402 6.01322 0
M  V30 932 C 90.7122 1.42924 5.94151 0
M  V30 933 C 91.7102 2.25882 6.44567 0
M  V30 934 O 91.3982 3.21965 7.3661 0
M  V30 935 H 91.1302 -0.058693 0.673447 0
M  V30 936 H 93.6842 0.476395 1.99799 0
M  V30 937 H 91.9142 -1.56244 3.5373 0
M  V30 938 H 93.6032 -1.28427 3.85047 0
M  V30 939 H 94.3692 1.03505 4.73827 0
M  V30 940 H 90.2482 -0.184044 4.60632 0
M  V30 941 H 93.7922 2.76192 6.40596 0
M  V30 942 H 89.6892 1.53479 6.26988 0
M  V30 943 H 90.4572 3.17281 7.54503 0
M  V30 944 N 93.1203 -1.57491 0.0584922 0
M  V30 945 C 94.0703 -2.08474 -0.923188 0
M  V30 946 C 95.0543 -0.991479 -1.26722 0
M  V30 947 O 96.2463 -1.25473 -1.24842 0
M  V30 948 C 93.3753 -2.6392 -2.19548 0
M  V30 949 C 92.4613 -3.80227 -1.87852 0
M  V30 950 N 92.8523 -4.89714 -1.26546 0
M  V30 951 C 91.1503 -3.89271 -2.17679 0
M  V30 952 C 91.8513 -5.70689 -1.12644 0
M  V30 953 N 90.8273 -5.18531 -1.63176 0
M  V30 954 H 94.6293 -2.90517 -0.444653 0
M  V30 955 H 92.1433 -1.61745 -0.145764 0
M  V30 956 H 94.1403 -2.98752 -2.9078 0
M  V30 957 H 92.8003 -1.83318 -2.68001 0
M  V30 958 H 93.8113 -5.09358 -0.936757 0
M  V30 959 H 90.4883 -3.19623 -2.68602 0
M  V30 960 H 91.8783 -6.6875 -0.6499 0
M  V30 961 N 94.5984 0.214957 -1.56127 0
M  V30 962 C 95.8284 0.953707 -1.8327 0
M  V30 963 C 96.2364 1.78181 -0.636262 0
M  V30 964 O 95.5794 1.79191 0.404516 0
M  V30 965 C 95.6414 1.91516 -3.0424 0
M  V30 966 C 95.3054 1.27094 -4.38972 0
M  V30 967 C 96.3024 0.657575 -5.15725 0
M  V30 968 C 93.9874 1.28073 -4.85698 0
M  V30 969 C 95.9814 0.0625968 -6.37369 0
M  V30 970 C 93.6684 0.681914 -6.07283 0
M  V30 971 C 94.6664 0.0739046 -6.8296 0
M  V30 972 O 94.3544 -0.515582 -8.02245 0
M  V30 973 H 94.0864 0.284764 -0.613095 0
M  V30 974 H 96.6404 0.233283 -2.04071 0
M  V30 975 H 94.8704 2.67475 -2.79274 0
M  V30 976 H 96.5594 2.52001 -3.18198 0
M  V30 977 H 97.3254 0.642288 -4.80728 0
M  V30 978 H 93.2044 1.74337 -4.26764 0
M  V30 979 H 96.7484 -0.412593 -6.96379 0
M  V30 980 H 92.6454 0.694636 -6.41752 0
M  V30 981 H 93.4134 -0.410544 -8.1747 0
M  V30 982 N 96.0765 1.50051 0.48192 0
M  V30 983 C 97.4925 1.37237 0.814756 0
M  V30 984 C 97.6925 0.420109 1.97072 0
M  V30 985 O 96.7485 -0.141246 2.52105 0
M  V30 986 C 98.0615 2.78375 1.13701 0
M  V30 987 C 99.6095 2.87213 1.2441 0
M  V30 988 C 100.084 4.29161 1.59954 0
M  V30 989 N 101.575 4.32061 1.66967 0
M  V30 990 C 102.31 5.38879 1.95952 0
M  V30 991 N 101.806 6.55918 2.23031 0
M  V30 992 N 103.599 5.26312 1.97363 0
M  V30 993 H 95.7505 2.10546 -0.28005 0
M  V30 994 H 98.0135 0.945921 -0.0627454 0
M  V30 995 H 97.7195 3.49845 0.360787 0
M  V30 996 H 97.5935 3.14941 2.07586 0
M  V30 997 H 99.9805 2.15969 2.01101 0
M  V30 998 H 100.061 2.54204 0.285299 0
M  V30 999 H 99.7055 5.00938 0.838067 0
M  V30 1000 H 99.6355 4.59648 2.56966 0
M  V30 1001 H 102.126 3.47661 1.48123 0
M  V30 1002 H 102.439 7.33139 2.44391 0
M  V30 1003 H 100.784 6.59112 2.20447 0
M  V30 1004 H 103.975 4.33876 1.75697 0
M  V30 1005 H 104.148 6.09649 2.19618 0
M  V30 1006 N 97.5546 -0.734337 1.39446 0
M  V30 1007 C 98.7946 -1.50655 1.38139 0
M  V30 1008 C 99.1586 -1.91986 -0.0228701 0
M  V30 1009 O 100.36 -2.68318 -0.160947 0
M  V30 1010 C 98.6306 -2.71251 2.32718 0
M  V30 1011 S 100.19 -3.60892 2.49605 0
M  V30 1012 H 97.0076 -0.515315 0.489869 0
M  V30 1013 H 99.6096 -0.860392 1.75549 0
M  V30 1014 H 98.3136 -2.39027 3.33608 0
M  V30 1015 H 97.8446 -3.40795 1.96526 0
M  V30 1016 H 99.8596 -4.64899 1.73446 0
M  V30 1017 N 99.0327 -1.24633 -0.964593 0
M  V30 1018 C 100.282 -1.08188 -1.7023 0
M  V30 1019 C 100.595 0.37873 -1.91898 0
M  V30 1020 O 101.801 0.663427 -2.6327 0
M  V30 1021 C 100.257 -1.88773 -3.06419 0
M  V30 1022 C 99.8647 -3.39263 -2.92582 0
M  V30 1023 C 101.609 -1.80867 -3.84041 0
M  V30 1024 C 99.5157 -4.1218 -4.24101 0
M  V30 1025 H 98.4457 -0.401245 -0.638372 0
M  V30 1026 H 101.097 -1.48742 -1.07462 0
M  V30 1027 H 99.4787 -1.41035 -3.70034 0
M  V30 1028 H 100.653 -3.94603 -2.37961 0
M  V30 1029 H 98.9677 -3.48154 -2.28424 0
M  V30 1030 H 101.565 -2.32646 -4.81435 0
M  V30 1031 H 101.908 -0.774543 -4.09031 0
M  V30 1032 H 102.441 -2.26301 -3.27159 0
M  V30 1033 H 99.1797 -5.15965 -4.04303 0
M  V30 1034 H 98.6997 -3.61626 -4.78526 0
M  V30 1035 H 100.379 -4.19349 -4.92702 0
M  V30 1036 N 100.511 1.16574 -1.06058 0
M  V30 1037 C 101.739 1.90952 -0.796552 0
M  V30 1038 C 102.154 1.77302 0.648808 0
M  V30 1039 O 101.511 1.11605 1.44397 0
M  V30 1040 C 101.562 3.41736 -1.17894 0
M  V30 1041 O 101.283 3.54975 -2.56758 0
M  V30 1042 C 102.784 4.33169 -0.942308 0
M  V30 1043 H 100.004 0.605594 -0.288959 0
M  V30 1044 H 102.548 1.47777 -1.41358 0
M  V30 1045 H 100.703 3.82623 -0.606491 0
M  V30 1046 H 101.117 4.4846 -2.72 0
M  V30 1047 H 102.591 5.37439 -1.25952 0
M  V30 1048 H 103.068 4.3903 0.122078 0
M  V30 1049 H 103.674 3.98007 -1.49902 0
M  V30 1050 N 101.989 0.842826 1.3317 0
M  V30 1051 C 103.229 0.446574 1.99462 0
M  V30 1052 C 103.593 -0.976818 1.65295 0
M  V30 1053 O 104.794 -1.477 2.24584 0
M  V30 1054 C 103.065 0.665353 3.51152 0
M  V30 1055 S 104.624 0.364911 4.3728 0
M  V30 1056 H 101.442 0.167803 0.690915 0
M  V30 1057 H 104.044 1.09297 1.62094 0
M  V30 1058 H 102.748 1.7006 3.73507 0
M  V30 1059 H 102.279 0.00494568 3.934 0
M  V30 1060 H 104.294 -0.813761 4.89482 0
M  V30 1061 N 103.467 -1.45747 0.599634 0
M  V30 1062 C 104.377 -2.34262 -0.125888 0
M  V30 1063 C 105.393 -1.50768 -0.868625 0
M  V30 1064 O 106.569 -1.83592 -0.828003 0
M  V30 1065 C 103.634 -3.28252 -1.11587 0
M  V30 1066 C 102.695 -4.27651 -0.375956 0
M  V30 1067 C 101.928 -5.1715 -1.31877 0
M  V30 1068 O 102.151 -5.09916 -2.55621 0
M  V30 1069 O 101.085 -5.96286 -0.820157 0
M  V30 1070 H 104.911 -2.97688 0.601315 0
M  V30 1071 H 102.496 -1.44999 0.359934 0
M  V30 1072 H 104.378 -3.86191 -1.68626 0
M  V30 1073 H 103.053 -2.67401 -1.82424 0
M  V30 1074 H 101.96 -3.7335 0.236698 0
M  V30 1075 H 103.293 -4.91334 0.29177 0
M  V30 1076 N 104.945 -0.338344 -1.53925 0
M  V30 1077 C 106.193 0.259245 -2.0043 0
M  V30 1078 C 106.514 1.51484 -1.22791 0
M  V30 1079 O 105.784 1.93037 -0.33368 0
M  V30 1080 H 104.364 0.0987845 -0.740439 0
M  V30 1081 H 107.026 -0.458302 -1.89435 0
M  V30 1082 H 106.122 0.505334 -3.07982 0
M  V30 1083 N 106.423 1.57458 -0.0668435 0
M  V30 1084 C 107.663 1.95175 0.607116 0
M  V30 1085 C 108.027 0.946039 1.67075 0
M  V30 1086 O 109.228 1.2107 2.39991 0
M  V30 1087 C 107.499 3.37582 1.17358 0
M  V30 1088 S 109.058 3.97271 1.86336 0
M  V30 1089 H 105.876 0.682604 0.19893 0
M  V30 1090 H 108.478 1.95002 -0.139519 0
M  V30 1091 H 107.182 4.08566 0.387553 0
M  V30 1092 H 106.713 3.41288 1.95669 0
M  V30 1093 H 108.728 3.83772 3.14537 0
M  V30 1094 N 107.901 -0.206675 1.56239 0
M  V30 1095 C 108.848 -1.25617 1.93621 0
M  V30 1096 C 109.818 -1.45824 0.795274 0
M  V30 1097 O 111.003 -1.59148 1.05245 0
M  V30 1098 C 108.143 -2.59839 2.27107 0
M  V30 1099 C 107.256 -2.47308 3.54207 0
M  V30 1100 C 106.391 -3.74155 3.7707 0
M  V30 1101 C 105.43 -3.56407 4.97635 0
M  V30 1102 N 104.567 -4.75238 5.1681 0
M  V30 1103 H 109.407 -0.930383 2.83104 0
M  V30 1104 H 106.944 -0.448065 1.4011 0
M  V30 1105 H 108.902 -3.38021 2.44535 0
M  V30 1106 H 107.532 -2.90485 1.40778 0
M  V30 1107 H 106.584 -1.60483 3.4489 0
M  V30 1108 H 107.896 -2.30122 4.42544 0
M  V30 1109 H 107.05 -4.60778 3.94675 0
M  V30 1110 H 105.789 -3.94282 2.87042 0
M  V30 1111 H 104.794 -2.68168 4.79964 0
M  V30 1112 H 106.019 -3.37736 5.89161 0
M  V30 1113 H 103.965 -4.95651 4.29728 0
M  V30 1114 H 103.882 -4.60835 5.99306 0
M  V30 1115 H 105.15 -5.63246 5.38864 0
M  V30 1116 N 109.379 -1.50304 -0.473955 0
M  V30 1117 C 110.627 -1.60832 -1.22382 0
M  V30 1118 C 110.948 -0.30939 -1.9253 0
M  V30 1119 O 110.218 0.67296 -1.83978 0
M  V30 1120 H 108.798 -0.592652 -0.454723 0
M  V30 1121 H 111.46 -1.87068 -0.546968 0
M  V30 1122 H 110.556 -2.41803 -1.97327 0
M  V30 1123 N 110.857 0.726932 -1.39834 0
M  V30 1124 C 112.104 1.48664 -1.37496 0
M  V30 1125 C 112.432 1.94482 0.0264678 0
M  V30 1126 O 111.687 1.67692 1.00886 0
M  V30 1127 C 111.986 2.73495 -2.30077 0
M  V30 1128 C 111.652 2.46502 -3.77555 0
M  V30 1129 C 110.314 2.3885 -4.17737 0
M  V30 1130 C 112.666 2.23604 -4.70798 0
M  V30 1131 C 109.994 2.06352 -5.49214 0
M  V30 1132 C 112.346 1.92622 -6.02561 0
M  V30 1133 C 111.01 1.83444 -6.41798 0
M  V30 1134 H 110.28 0.544001 -0.503135 0
M  V30 1135 H 112.927 0.833657 -1.72402 0
M  V30 1136 H 111.232 3.43575 -1.88317 0
M  V30 1137 H 112.929 3.31549 -2.25558 0
M  V30 1138 H 109.519 2.5334 -3.45712 0
M  V30 1139 H 113.703 2.28479 -4.40581 0
M  V30 1140 H 108.959 1.97776 -5.78528 0
M  V30 1141 H 113.133 1.73914 -6.74334 0
M  V30 1142 H 110.76 1.58029 -7.43593 0
M  V30 1143 N 112.336 1.25143 0.95797 0
M  V30 1144 C 113.583 1.09692 1.70217 0
M  V30 1145 C 113.911 -0.362654 1.91089 0
M  V30 1146 O 113.166 -1.28386 1.47701 0
M  V30 1147 C 113.465 1.79272 3.09187 0
M  V30 1148 C 113.131 3.29196 3.08125 0
M  V30 1149 C 111.793 3.70096 3.07543 0
M  V30 1150 C 114.145 4.24995 3.0171 0
M  V30 1151 C 111.473 5.05213 2.9829 0
M  V30 1152 C 113.825 5.60132 2.93999 0
M  V30 1153 C 112.489 6.00365 2.9175 0
M  V30 1154 H 111.759 0.401393 0.622868 0
M  V30 1155 H 114.406 1.55372 1.11945 0
M  V30 1156 H 112.711 1.26014 3.70982 0
M  V30 1157 H 114.408 1.64773 3.65583 0
M  V30 1158 H 110.998 2.96651 3.09348 0
M  V30 1159 H 115.182 3.9439 3.01281 0
M  V30 1160 H 110.438 5.35569 2.94916 0
M  V30 1161 H 114.612 6.3406 2.87996 0
M  V30 1162 H 112.239 7.05023 2.84336 0
M  V30 1163 N 113.814 -1.1601 1.06675 0
M  V30 1164 C 115.23 -1.38622 0.790948 0
M  V30 1165 C 115.43 -1.92109 -0.607965 0
M  V30 1166 O 114.486 -2.12239 -1.36787 0
M  V30 1167 C 115.799 -2.36347 1.85905 0
M  V30 1168 C 117.347 -2.50023 1.88301 0
M  V30 1169 C 117.822 -3.51033 2.94176 0
M  V30 1170 N 119.313 -3.58563 2.93235 0
M  V30 1171 C 120.048 -4.36521 3.71803 0
M  V30 1172 N 119.544 -5.17869 4.602 0
M  V30 1173 N 121.337 -4.31541 3.60178 0
M  V30 1174 H 113.488 -0.796294 1.96908 0
M  V30 1175 H 115.751 -0.412597 0.853503 0
M  V30 1176 H 115.457 -2.04147 2.86386 0
M  V30 1177 H 115.331 -3.36042 1.71334 0
M  V30 1178 H 117.718 -2.81524 0.884769 0
M  V30 1179 H 117.799 -1.5035 2.06951 0
M  V30 1180 H 117.443 -3.20268 3.94196 0
M  V30 1181 H 117.373 -4.50445 2.72776 0
M  V30 1182 H 119.864 -3.00496 2.29152 0
M  V30 1183 H 120.177 -5.74578 5.16797 0
M  V30 1184 H 118.522 -5.17199 4.64253 0
M  V30 1185 H 121.713 -3.67051 2.90502 0
M  V30 1186 H 121.886 -4.9205 4.21653 0
M  V30 1187 N 115.292 -0.849877 -1.32721 0
M  V30 1188 C 116.708 -0.539102 -1.50219 0
M  V30 1189 C 116.908 0.931271 -1.78689 0
M  V30 1190 O 115.964 1.71455 -1.85363 0
M  V30 1191 C 117.277 -1.42196 -2.64954 0
M  V30 1192 C 118.825 -1.42189 -2.78839 0
M  V30 1193 C 119.3 -2.28985 -3.96648 0
M  V30 1194 N 120.791 -2.26754 -4.03902 0
M  V30 1195 C 121.526 -2.90644 -4.94281 0
M  V30 1196 N 121.022 -3.63629 -5.897 0
M  V30 1197 N 122.815 -2.80057 -4.87365 0
M  V30 1198 H 114.966 -1.80156 -1.12506 0
M  V30 1199 H 117.229 -0.769217 -0.554085 0
M  V30 1200 H 116.935 -2.46733 -2.50631 0
M  V30 1201 H 116.809 -1.10591 -3.60624 0
M  V30 1202 H 119.196 -0.38419 -2.92588 0
M  V30 1203 H 119.277 -1.77807 -1.83898 0
M  V30 1204 H 118.921 -3.32819 -3.83658 0
M  V30 1205 H 118.851 -1.90702 -4.90857 0
M  V30 1206 H 121.342 -1.73688 -3.3562 0
M  V30 1207 H 121.655 -4.09558 -6.55349 0
M  V30 1208 H 120 -3.67737 -5.89741 0
M  V30 1209 H 123.191 -2.22593 -4.11789 0
M  V30 1210 H 123.364 -3.30132 -5.57599 0
M  V30 1211 N 116.77 1.45427 -0.607355 0
M  V30 1212 C 117.998 2.06614 -0.108814 0
M  V30 1213 C 118.413 1.45204 1.2067 0
M  V30 1214 O 117.77 0.566132 1.73497 0
M  V30 1215 C 117.821 3.61481 0.0375347 0
M  V30 1216 O 117.542 4.20598 -1.22593 0
M  V30 1217 C 119.043 4.39652 0.567561 0
M  V30 1218 H 116.263 0.66747 -0.0687351 0
M  V30 1219 H 118.807 1.86675 -0.835022 0
M  V30 1220 H 116.962 3.80762 0.714068 0
M  V30 1221 H 117.376 5.1377 -1.05547 0
M  V30 1222 H 118.85 5.48518 0.61905 0
M  V30 1223 H 119.327 4.09417 1.58978 0
M  V30 1224 H 119.933 4.25234 -0.0749202 0
M  V30 1225 N 118.248 0.346503 1.53744 0
M  V30 1226 C 119.497 -0.250122 2.00143 0
M  V30 1227 C 119.81 -1.51418 1.23822 0
M  V30 1228 O 121.016 -2.18823 1.60713 0
M  V30 1229 C 119.472 -0.496252 3.56462 0
M  V30 1230 C 119.08 0.752077 4.41642 0
M  V30 1231 C 120.824 -1.05157 4.11269 0
M  V30 1232 C 118.731 0.476583 5.89477 0
M  V30 1233 H 117.661 -0.0972409 0.747703 0
M  V30 1234 H 120.312 0.46229 1.77581 0
M  V30 1235 H 118.694 -1.26944 3.75102 0
M  V30 1236 H 119.868 1.5266 4.34778 0
M  V30 1237 H 118.183 1.22925 3.97842 0
M  V30 1238 H 120.78 -1.27269 5.19333 0
M  V30 1239 H 121.123 -2.00799 3.64672 0
M  V30 1240 H 121.656 -0.339019 3.96353 0
M  V30 1241 H 118.395 1.4028 6.40314 0
M  V30 1242 H 117.915 -0.259794 5.99237 0
M  V30 1243 H 119.594 0.0949315 6.4693 0
M  V30 1244 N 119.726 -1.57421 0.075193 0
M  V30 1245 C 120.658 -2.09904 -0.920483 0
M  V30 1246 C 121.671 -1.03191 -1.25918 0
M  V30 1247 O 122.86 -1.30695 -1.21577 0
M  V30 1248 C 119.96 -2.54726 -2.23534 0
M  V30 1249 C 119.133 -3.8505 -2.07498 0
M  V30 1250 C 118.192 -4.15929 -3.22319 0
M  V30 1251 O 117.218 -4.85474 -2.9716 0
M  V30 1252 N 118.42 -3.69745 -4.47514 0
M  V30 1253 H 121.185 -2.95954 -0.472359 0
M  V30 1254 H 118.746 -1.61523 -0.110444 0
M  V30 1255 H 120.738 -2.72443 -2.9926 0
M  V30 1256 H 119.308 -1.73795 -2.59835 0
M  V30 1257 H 118.528 -3.76679 -1.16219 0
M  V30 1258 H 119.816 -4.70348 -1.94038 0
M  V30 1259 H 119.214 -3.13569 -4.7084 0
M  V30 1260 H 117.771 -3.92655 -5.20255 0
M  V30 1261 N 121.204 0.198386 -1.56346 0
M  V30 1262 C 122.151 1.24589 -1.94284 0
M  V30 1263 C 123.121 1.454 -0.802997 0
M  V30 1264 O 124.306 1.58588 -1.06087 0
M  V30 1265 C 121.446 2.58631 -2.28482 0
M  V30 1266 C 120.559 2.45426 -3.55514 0
M  V30 1267 C 119.694 3.7215 -3.79049 0
M  V30 1268 C 118.733 3.53763 -4.99518 0
M  V30 1269 N 117.87 4.72491 -5.19323 0
M  V30 1270 H 122.71 0.915356 -2.83593 0
M  V30 1271 H 120.247 0.440629 -1.40346 0
M  V30 1272 H 122.205 3.3672 -2.46324 0
M  V30 1273 H 120.835 2.89734 -1.42317 0
M  V30 1274 H 119.887 1.58652 -3.45737 0
M  V30 1275 H 121.199 2.27772 -4.43758 0
M  V30 1276 H 120.353 4.58679 -3.97113 0
M  V30 1277 H 119.092 3.92754 -2.89129 0
M  V30 1278 H 118.097 2.65619 -4.8138 0
M  V30 1279 H 119.322 3.34607 -5.90944 0
M  V30 1280 H 117.268 4.93365 -4.3235 0
M  V30 1281 H 117.185 4.5765 -6.01741 0
M  V30 1282 H 118.453 5.6038 -5.41843 0
M  V30 1283 N 122.682 1.50554 0.465978 0
M  V30 1284 C 123.63 1.70324 1.58406 0
M  V30 1285 C 124.624 0.569139 1.59553 0
M  V30 1286 O 125.83 0.749776 1.63641 0
M  V30 1287 H 122.205 0.537688 0.525734 0
M  V30 1288 H 124.176 2.64104 1.38894 0
M  V30 1289 C 122.925 1.81928 2.96307 0
M  V30 1290 H 122.248 2.68586 2.96144 0
M  V30 1291 H 123.688 1.99784 3.73982 0
M  V30 1292 C 122.147 0.572095 3.32007 0
M  V30 1293 O 122.677 -0.286416 4.00678 0
M  V30 1294 N 120.883 0.424606 2.87481 0
M  V30 1295 H 120.43 1.12427 2.31771 0
M  V30 1296 H 120.388 -0.408697 3.11732 0
M  V30 1297 N 124.16 -0.719506 1.40217 0
M  V30 1298 C 125.09 -1.8465 1.42922 0
M  V30 1299 C 126.071 -1.67599 0.29062 0
M  V30 1300 O 127.256 -1.87688 0.498677 0
M  V30 1301 C 124.386 -3.22565 1.28722 0
M  V30 1302 C 123.34 -3.54281 2.40144 0
M  V30 1303 C 122.666 -4.91298 2.11023 0
M  V30 1304 C 123.966 -3.55676 3.82481 0
M  V30 1305 H 125.66 -1.82644 2.37237 0
M  V30 1306 H 123.206 -0.877305 1.1419 0
M  V30 1307 H 125.159 -4.01095 1.29232 0
M  V30 1308 H 123.883 -3.25137 0.308811 0
M  V30 1309 H 122.542 -2.78088 2.38877 0
M  V30 1310 H 122.19 -4.90468 1.11582 0
M  V30 1311 H 121.89 -5.13485 2.8567 0
M  V30 1312 H 123.414 -5.72166 2.13209 0
M  V30 1313 H 124.828 -4.24254 3.85592 0
M  V30 1314 H 123.225 -3.89388 4.56614 0
M  V30 1315 H 124.295 -2.55144 4.12346 0
M  V30 1316 N 125.638 -1.25649 -0.95132 0
M  V30 1317 C 126.588 -1.03004 -2.03406 0
M  V30 1318 C 127.572 0.034187 -1.60864 0
M  V30 1319 O 128.764 -0.181549 -1.76066 0
M  V30 1320 C 125.893 -0.654255 -3.37008 0
M  V30 1321 C 124.979 -1.75542 -3.86065 0
M  V30 1322 N 125.37 -2.99113 -4.07879 0
M  V30 1323 C 123.668 -1.63669 -4.14884 0
M  V30 1324 C 124.369 -3.70611 -4.48356 0
M  V30 1325 N 123.345 -2.98247 -4.54477 0
M  V30 1326 H 127.147 -1.96813 -2.1827 0
M  V30 1327 H 124.661 -1.16017 -1.13639 0
M  V30 1328 H 126.658 -0.473206 -4.14206 0
M  V30 1329 H 125.318 0.276468 -3.23521 0
M  V30 1330 H 126.329 -3.35124 -3.94857 0
M  V30 1331 H 123.006 -0.775161 -4.10241 0
M  V30 1332 H 124.396 -4.76695 -4.73509 0
M  V30 1333 N 127.117 1.15442 -1.07289 0
M  V30 1334 C 128.528 1.67803 -0.818475 0
M  V30 1335 C 128.879 1.8489 0.656507 0
M  V30 1336 O 128.004 1.55176 1.50829 0
M  V30 1337 C 128.599 3.04805 -1.47917 0
M  V30 1338 C 127.158 3.54245 -1.27229 0
M  V30 1339 C 126.305 2.29986 -1.54925 0
M  V30 1340 H 129.256 0.996646 -1.23502 0
M  V30 1341 H 129.277 3.69702 -0.90005 0
M  V30 1342 H 128.789 2.92336 -2.55267 0
M  V30 1343 H 126.89 3.71956 -0.21899 0
M  V30 1344 H 127.003 4.35723 -1.99203 0
M  V30 1345 H 125.367 2.35496 -0.970242 0
M  V30 1346 H 126.15 2.20105 -2.63455 0
M  V30 1347 N 128.595 0.856903 1.32268 0
M  V30 1348 C 129.823 0.475439 2.01363 0
M  V30 1349 C 130.238 -0.928486 1.64392 0
M  V30 1350 O 129.595 -1.60624 0.866387 0
M  V30 1351 C 129.646 0.607545 3.56358 0
M  V30 1352 O 129.367 1.95617 3.92002 0
M  V30 1353 C 130.868 0.225382 4.42727 0
M  V30 1354 H 128.088 0.186636 0.644521 0
M  V30 1355 H 130.632 1.15446 1.68797 0
M  V30 1356 H 128.787 -0.0237719 3.87393 0
M  V30 1357 H 129.201 1.95455 4.86721 0
M  V30 1358 H 130.675 0.368813 5.50767 0
M  V30 1359 H 131.152 -0.834369 4.31202 0
M  V30 1360 H 131.758 0.831864 4.17085 0
M  V30 1361 N 130.073 -1.45103 0.615059 0
M  V30 1362 C 131.303 -2.06254 0.119596 0
M  V30 1363 C 131.711 -1.4591 -1.20445 0
M  V30 1364 O 131.054 -0.570384 -1.7462 0
M  V30 1365 C 131.116 -3.59396 -0.0865591 0
M  V30 1366 C 130.78 -4.42116 1.15683 0
M  V30 1367 C 131.777 -4.7662 2.07676 0
M  V30 1368 C 129.462 -4.82749 1.38775 0
M  V30 1369 C 131.456 -5.50622 3.21082 0
M  V30 1370 C 129.143 -5.56504 2.52481 0
M  V30 1371 C 130.141 -5.90358 3.43463 0
M  V30 1372 O 129.829 -6.62615 4.55189 0
M  V30 1373 H 129.561 -0.672423 0.0694512 0
M  V30 1374 H 132.115 -1.87219 0.844885 0
M  V30 1375 H 130.345 -3.76859 -0.866823 0
M  V30 1376 H 132.034 -4.02365 -0.534555 0
M  V30 1377 H 132.8 -4.4578 1.91063 0
M  V30 1378 H 128.679 -4.55829 0.688545 0
M  V30 1379 H 132.223 -5.76965 3.92119 0
M  V30 1380 H 128.12 -5.86759 2.69043 0
M  V30 1381 H 128.888 -6.81071 4.53966 0
M  V30 1382 N 131.551 -0.354651 -1.53558 0
M  V30 1383 C 132.776 0.242153 -2.05981 0
M  V30 1384 C 133.201 1.42553 -1.2272 0
M  V30 1385 O 132.559 1.79656 -0.243604 0
M  V30 1386 C 132.607 0.624367 -3.55154 0
M  V30 1387 O 131.711 1.72301 -3.74681 0
M  V30 1388 H 131.052 0.0378432 -0.662921 0
M  V30 1389 H 133.582 -0.512087 -1.98088 0
M  V30 1390 H 133.592 0.898433 -3.97985 0
M  V30 1391 H 132.267 -0.240989 -4.15201 0
M  V30 1392 H 130.844 1.44535 -3.4375 0
M  V30 1393 N 133.029 1.57378 -0.0835403 0
M  V30 1394 C 134.269 1.95808 0.586381 0
M  V30 1395 C 134.633 0.963706 1.66062 0
M  V30 1396 O 135.834 1.23608 2.38693 0
M  V30 1397 C 134.105 3.38808 1.13771 0
M  V30 1398 S 135.664 3.99225 1.82112 0
M  V30 1399 H 132.482 0.684675 0.191679 0
M  V30 1400 H 135.084 1.94843 -0.160194 0
M  V30 1401 H 133.788 4.08954 0.344197 0
M  V30 1402 H 133.319 3.43344 1.92038 0
M  V30 1403 H 135.334 3.87087 3.10449 0
M  V30 1404 N 134.507 -0.190092 1.56449 0
M  V30 1405 C 135.454 -1.23557 1.94942 0
M  V30 1406 C 136.424 -1.44972 0.810696 0
M  V30 1407 O 137.609 -1.58023 1.06927 0
M  V30 1408 C 134.749 -2.57416 2.2985 0
M  V30 1409 C 133.862 -2.43537 3.5681 0
M  V30 1410 C 132.997 -3.70134 3.81017 0
M  V30 1411 C 132.036 -3.51109 5.01387 0
M  V30 1412 N 131.173 -4.6973 5.21822 0
M  V30 1413 H 136.013 -0.900304 2.84075 0
M  V30 1414 H 133.55 -0.43318 1.40577 0
M  V30 1415 H 135.508 -3.35409 2.48106 0
M  V30 1416 H 134.138 -2.88975 1.43852 0
M  V30 1417 H 133.19 -1.56816 3.46573 0
M  V30 1418 H 134.502 -2.25415 4.4496 0
M  V30 1419 H 133.656 -4.56566 3.9954 0
M  V30 1420 H 132.395 -3.91215 2.91207 0
M  V30 1421 H 131.4 -2.63063 4.82782 0
M  V30 1422 H 132.625 -3.31468 5.9271 0
M  V30 1423 H 130.571 -4.91065 4.34961 0
M  V30 1424 H 130.488 -4.54452 6.0416 0
M  V30 1425 H 131.756 -5.57499 5.44808 0
M  V30 1426 N 135.985 -1.50799 -0.457987 0
M  V30 1427 C 137.215 -1.65977 -1.23025 0
M  V30 1428 C 137.623 -0.347918 -1.85974 0
M  V30 1429 O 136.966 0.68148 -1.70592 0
M  V30 1430 C 137.028 -2.70309 -2.3701 0
M  V30 1431 C 136.692 -4.135 -1.94594 0
M  V30 1432 C 137.689 -4.98949 -1.46101 0
M  V30 1433 C 135.374 -4.5949 -2.02915 0
M  V30 1434 C 137.368 -6.28442 -1.06489 0
M  V30 1435 C 135.055 -5.88984 -1.62914 0
M  V30 1436 C 136.053 -6.73286 -1.1478 0
M  V30 1437 O 135.741 -8.00362 -0.75339 0
M  V30 1438 H 135.473 -0.56064 -0.377702 0
M  V30 1439 H 138.027 -1.97857 -0.551537 0
M  V30 1440 H 136.257 -2.337 -3.08093 0
M  V30 1441 H 137.946 -2.74574 -2.98938 0
M  V30 1442 H 138.712 -4.6463 -1.39084 0
M  V30 1443 H 134.591 -3.94009 -2.39328 0
M  V30 1444 H 138.135 -6.94194 -0.688488 0
M  V30 1445 H 134.032 -6.22822 -1.69595 0
M  V30 1446 H 134.8 -8.13744 -0.88108 0
M  V30 1447 N 137.463 0.71206 -1.40597 0
M  V30 1448 C 138.74 1.46536 -1.29563 0
M  V30 1449 C 139.12 2.10931 0.0844217 0
M  V30 1450 O 138.468 2.00418 1.0975 0
M  V30 1451 C 138.678 2.49821 -2.43701 0
M  V30 1452 C 140.026 3.15551 -2.841 0
M  V30 1453 O 141.05 2.60142 -2.4332 0
M  V30 1454 O 139.909 4.15867 -3.54566 0
M  V30 1455 H 137.003 0.651801 -0.509004 0
M  V30 1456 H 139.549 0.743935 -1.52524 0
M  V30 1457 H 138.321 2.00778 -3.35863 0
M  V30 1458 H 137.944 3.29495 -2.22528 0
M  V30 1459 N 138.941 1.26152 0.944643 0
M  V30 1460 C 140.166 1.14363 1.7302 0
M  V30 1461 C 140.591 -0.29772 1.85729 0
M  V30 1462 O 139.949 -1.2157 1.34501 0
M  V30 1463 C 139.997 1.81378 3.11664 0
M  V30 1464 O 139.101 1.10022 3.97453 0
M  V30 1465 H 138.442 0.398694 0.53098 0
M  V30 1466 H 140.972 1.66906 1.18337 0
M  V30 1467 H 140.982 1.88064 3.62072 0
M  V30 1468 H 139.657 2.86237 3.0173 0
M  V30 1469 H 138.234 1.11287 3.55907 0
M  V30 1470 N 140.419 -1.14872 1.07899 0
M  V30 1471 C 141.659 -1.8745 0.814965 0
M  V30 1472 C 142.023 -1.80758 -0.64733 0
M  V30 1473 O 143.224 -2.48422 -1.02664 0
M  V30 1474 C 141.495 -3.32286 1.31607 0
M  V30 1475 S 143.054 -4.22537 1.18357 0
M  V30 1476 H 139.872 -0.646833 0.295174 0
M  V30 1477 H 142.474 -1.38555 1.37923 0
M  V30 1478 H 141.178 -3.34703 2.37491 0
M  V30 1479 H 140.709 -3.86238 0.747261 0
M  V30 1480 H 142.724 -4.96044 0.124586 0
M  V30 1481 N 141.898 -0.863906 -1.31812 0
M  V30 1482 C 143.138 -0.47825 -1.98726 0
M  V30 1483 C 143.502 0.950397 -1.66828 0
M  V30 1484 O 144.703 1.44109 -2.26905 0
M  V30 1485 C 142.974 -0.721134 -3.50049 0
M  V30 1486 S 144.533 -0.434432 -4.36644 0
M  V30 1487 H 141.351 -0.178773 -0.688158 0
M  V30 1488 H 143.953 -1.11862 -1.60334 0
M  V30 1489 H 142.657 -1.75981 -3.70755 0
M  V30 1490 H 142.188 -0.0675315 -3.93342 0
M  V30 1491 H 144.203 0.735786 -4.90714 0
M  V30 1492 N 143.376 1.44774 -0.622745 0
M  V30 1493 C 144.622 2.0242 -0.124083 0
M  V30 1494 C 144.955 1.4881 1.24777 0
M  V30 1495 O 144.23 0.668799 1.8264 0
M  V30 1496 C 144.513 3.59957 -0.101619 0
M  V30 1497 C 144.366 4.23867 -1.50521 0
M  V30 1498 C 145.685 4.36284 0.578272 0
M  V30 1499 H 142.804 0.735528 -0.0465645 0
M  V30 1500 H 145.446 1.72447 -0.797617 0
M  V30 1501 H 143.596 3.85623 0.471934 0
M  V30 1502 H 145.268 4.09336 -2.12701 0
M  V30 1503 H 143.511 3.81684 -2.06154 0
M  V30 1504 H 144.182 5.32843 -1.4416 0
M  V30 1505 H 146.658 4.16001 0.0906057 0
M  V30 1506 H 145.534 5.46004 0.563149 0
M  V30 1507 H 145.795 4.10271 1.64713 0
M  V30 1508 N 144.854 0.36279 1.53368 0
M  V30 1509 C 146.103 -0.22888 2.00397 0
M  V30 1510 C 146.416 -1.50096 1.25421 0
M  V30 1511 O 147.622 -2.17106 1.63025 0
M  V30 1512 C 146.078 -0.458417 3.56969 0
M  V30 1513 C 145.686 0.798877 4.4082 0
M  V30 1514 C 147.43 -1.00789 4.12361 0
M  V30 1515 C 145.337 0.539078 5.88938 0
M  V30 1516 H 144.267 -0.089305 0.748693 0
M  V30 1517 H 146.918 0.481099 1.77081 0
M  V30 1518 H 145.3 -1.22959 3.76427 0
M  V30 1519 H 146.474 1.57262 4.33134 0
M  V30 1520 H 144.789 1.27137 3.96516 0
M  V30 1521 H 147.386 -1.21754 5.20653 0
M  V30 1522 H 147.729 -1.9692 3.66781 0
M  V30 1523 H 148.262 -0.296961 3.9669 0
M  V30 1524 H 145.001 1.47064 6.3879 0
M  V30 1525 H 144.521 -0.196222 5.99479 0
M  V30 1526 H 146.2 0.163542 6.46793 0
M  V30 1527 N 146.332 -1.57332 0.0918853 0
M  V30 1528 C 147.609 -1.85691 -0.614668 0
M  V30 1529 C 147.989 -0.988146 -1.86545 0
M  V30 1530 O 147.337 -0.0597055 -2.28422 0
M  V30 1531 C 147.547 -3.36294 -0.933126 0
M  V30 1532 C 148.895 -4.04275 -1.29796 0
M  V30 1533 O 149.919 -3.41157 -1.02424 0
M  V30 1534 O 148.778 -5.1564 -1.81047 0
M  V30 1535 H 145.872 -0.767802 -0.307261 0
M  V30 1536 H 148.418 -1.69244 0.12434 0
M  V30 1537 H 147.19 -3.91273 -0.0456404 0
M  V30 1538 H 146.813 -3.58076 -1.72822 0
M  V30 1539 N 147.81 0.181792 -1.56548 0
M  V30 1540 C 148.757 1.22521 -1.95595 0
M  V30 1541 C 149.727 1.4454 -0.818373 0
M  V30 1542 O 150.912 1.57454 -1.07763 0
M  V30 1543 C 148.052 2.56193 -2.31212 0
M  V30 1544 C 147.165 2.41641 -3.58097 0
M  V30 1545 C 146.3 3.68108 -3.82975 0
M  V30 1546 C 145.339 3.48445 -5.03242 0
M  V30 1547 N 144.476 4.66956 -5.24306 0
M  V30 1548 H 149.316 0.885226 -2.84548 0
M  V30 1549 H 146.853 0.425718 -1.40805 0
M  V30 1550 H 148.811 3.34088 -2.49882 0
M  V30 1551 H 147.441 2.88208 -1.45382 0
M  V30 1552 H 146.493 1.54976 -3.474 0
M  V30 1553 H 147.805 2.23052 -4.46149 0
M  V30 1554 H 146.959 4.54441 -4.01956 0
M  V30 1555 H 145.698 3.89666 -2.93278 0
M  V30 1556 H 144.703 2.60499 -4.8417 0
M  V30 1557 H 145.928 3.2832 -5.9446 0
M  V30 1558 H 143.874 4.88752 -4.37559 0
M  V30 1559 H 143.791 4.51242 -6.06561 0
M  V30 1560 H 145.059 5.54602 -5.47756 0
M  V30 1561 N 149.288 1.51039 0.449983 0
M  V30 1562 C 150.537 1.62317 1.19733 0
M  V30 1563 C 150.85 0.339101 1.92638 0
M  V30 1564 O 152.056 0.331069 2.69474 0
M  V30 1565 C 150.512 2.86608 2.17678 0
M  V30 1566 C 150.12 4.21972 1.50479 0
M  V30 1567 C 151.864 3.07239 2.92924 0
M  V30 1568 C 149.771 5.37426 2.46834 0
M  V30 1569 H 148.701 0.604532 0.450619 0
M  V30 1570 H 151.352 1.77494 0.465625 0
M  V30 1571 H 149.734 2.65037 2.94231 0
M  V30 1572 H 150.908 4.53878 0.795716 0
M  V30 1573 H 149.223 4.07117 0.874344 0
M  V30 1574 H 151.82 3.90668 3.65079 0
M  V30 1575 H 152.163 2.19807 3.5354 0
M  V30 1576 H 152.696 3.29091 2.23481 0
M  V30 1577 H 149.435 6.27079 1.90926 0
M  V30 1578 H 148.955 5.09912 3.15832 0
M  V30 1579 H 150.634 5.68862 3.08228 0
M  V30 1580 N 150.766 -0.704594 1.40972 0
M  V30 1581 C 151.994 -1.49354 1.43182 0
M  V30 1582 C 152.409 -1.88768 0.0345508 0
M  V30 1583 O 151.766 -1.56184 -0.944081 0
M  V30 1584 C 151.817 -2.76187 2.33244 0
M  V30 1585 O 151.538 -2.38436 3.67532 0
M  V30 1586 C 153.039 -3.7 2.44162 0
M  V30 1587 H 150.259 -0.460559 0.487982 0
M  V30 1588 H 152.803 -0.868261 1.85153 0
M  V30 1589 H 150.958 -3.34974 1.94606 0
M  V30 1590 H 151.372 -3.20126 4.15475 0
M  V30 1591 H 152.846 -4.55803 3.11364 0
M  V30 1592 H 153.323 -4.13867 1.47006 0
M  V30 1593 H 153.929 -3.17121 2.83398 0
M  V30 1594 N 152.244 -1.26651 -0.937939 0
M  V30 1595 C 153.66 -1.03834 -1.21205 0
M  V30 1596 C 153.86 0.234502 -2.00131 0
M  V30 1597 O 152.916 0.942767 -2.3424 0
M  V30 1598 C 154.229 -2.27167 -1.97017 0
M  V30 1599 C 155.777 -2.32101 -2.09996 0
M  V30 1600 C 156.252 -3.55136 -2.8921 0
M  V30 1601 N 157.743 -3.55632 -2.96783 0
M  V30 1602 C 158.478 -4.475 -3.58512 0
M  V30 1603 N 157.974 -5.4966 -4.21717 0
M  V30 1604 N 159.767 -4.35145 -3.55816 0
M  V30 1605 H 151.918 -2.08398 -0.410391 0
M  V30 1606 H 154.181 -0.916031 -0.244114 0
M  V30 1607 H 153.887 -3.19765 -1.46434 0
M  V30 1608 H 153.761 -2.31672 -2.97671 0
M  V30 1609 H 156.148 -1.40015 -2.59769 0
M  V30 1610 H 156.229 -2.31605 -1.08594 0
M  V30 1611 H 155.873 -4.47553 -2.40123 0
M  V30 1612 H 155.803 -3.5288 -3.90875 0
M  V30 1613 H 158.294 -2.81743 -2.51852 0
M  V30 1614 H 158.607 -6.15943 -4.66727 0
M  V30 1615 H 156.952 -5.53514 -4.20294 0
M  V30 1616 H 160.143 -3.5455 -3.05634 0
M  V30 1617 H 160.316 -5.06934 -4.03636 0
M  V30 1618 N 153.722 1.14298 -1.08507 0
M  V30 1619 C 154.67 2.21483 -0.710483 0
M  V30 1620 C 155.664 1.66998 0.284234 0
M  V30 1621 O 156.87 1.79401 0.146692 0
M  V30 1622 H 153.245 0.721578 -0.211729 0
M  V30 1623 H 155.216 2.50348 -1.62384 0
M  V30 1624 C 153.965 3.4743 -0.137007 0
M  V30 1625 H 153.288 3.89686 -0.893592 0
M  V30 1626 H 154.728 4.2391 0.0872789 0
M  V30 1627 C 153.187 3.17548 1.12538 0
M  V30 1628 O 153.717 3.35437 2.21009 0
M  V30 1629 N 151.923 2.71499 1.03617 0
M  V30 1630 H 151.47 2.57143 0.153403 0
M  V30 1631 H 151.428 2.51881 1.88158 0
M  V30 1632 N 155.201 0.870884 1.31352 0
M  V30 1633 C 156.133 0.28455 2.27427 0
M  V30 1634 C 157.146 -0.552927 1.53123 0
M  V30 1635 O 158.335 -0.374771 1.74521 0
M  V30 1636 C 155.435 -0.615164 3.3327 0
M  V30 1637 C 154.608 0.190079 4.36987 0
M  V30 1638 C 153.667 -0.637917 5.22319 0
M  V30 1639 O 152.693 -0.065626 5.69162 0
M  V30 1640 N 153.895 -1.94973 5.46778 0
M  V30 1641 H 156.66 1.11017 2.7838 0
M  V30 1642 H 154.221 0.732458 1.44384 0
M  V30 1643 H 156.213 -1.1748 3.87273 0
M  V30 1644 H 154.783 -1.34146 2.82354 0
M  V30 1645 H 154.003 0.931165 3.83044 0
M  V30 1646 H 155.291 0.742579 5.03352 0
M  V30 1647 H 154.689 -2.4378 5.10478 0
M  V30 1648 H 153.246 -2.45713 6.03712 0
M  V30 1649 N 156.679 -1.44442 0.630414 0
M  V30 1650 C 157.919 -2.03934 0.137919 0
M  V30 1651 C 158.283 -1.48509 -1.21692 0
M  V30 1652 O 159.484 -1.99499 -1.80149 0
M  V30 1653 C 157.755 -3.57187 0.123373 0
M  V30 1654 S 159.314 -4.37741 -0.304604 0
M  V30 1655 H 156.132 -0.708401 0.0607353 0
M  V30 1656 H 158.734 -1.76835 0.833643 0
M  V30 1657 H 157.438 -3.95032 1.11256 0
M  V30 1658 H 156.969 -3.88895 -0.59362 0
M  V30 1659 H 158.984 -4.71403 -1.54897 0
M  V30 1660 N 158.157 -0.370918 -1.53173 0
M  V30 1661 C 159.089 0.507823 -2.23503 0
M  V30 1662 C 160.102 1.04182 -1.251 0
M  V30 1663 O 161.291 0.947286 -1.5129 0
M  V30 1664 C 158.391 1.71447 -2.92334 0
M  V30 1665 C 157.564 1.31105 -4.17289 0
M  V30 1666 C 156.623 2.38035 -4.69282 0
M  V30 1667 O 155.649 2.00204 -5.32829 0
M  V30 1668 N 156.851 3.69697 -4.47554 0
M  V30 1669 H 159.616 -0.0946382 -2.99551 0
M  V30 1670 H 157.177 -0.196358 -1.60705 0
M  V30 1671 H 159.169 2.42469 -3.24023 0
M  V30 1672 H 157.739 2.22368 -2.19707 0
M  V30 1673 H 156.959 0.430462 -3.91843 0
M  V30 1674 H 158.247 1.0179 -4.98514 0
M  V30 1675 H 157.645 4.03205 -3.9679 0
M  V30 1676 H 156.202 4.36807 -4.8378 0
M  V30 1677 N 159.635 1.57281 -0.100228 0
M  V30 1678 C 160.565 2.17328 0.853857 0
M  V30 1679 C 161.546 1.10804 1.2906 0
M  V30 1680 O 162.731 1.38963 1.35657 0
M  V30 1681 C 159.861 2.75772 2.11109 0
M  V30 1682 C 158.815 3.87713 1.81279 0
M  V30 1683 C 158.141 4.32882 3.13874 0
M  V30 1684 C 159.441 5.10677 1.09574 0
M  V30 1685 H 161.135 2.97305 0.353545 0
M  V30 1686 H 158.681 1.43009 0.168612 0
M  V30 1687 H 160.634 3.16433 2.78296 0
M  V30 1688 H 159.358 1.93057 2.63432 0
M  V30 1689 H 158.017 3.476 1.16489 0
M  V30 1690 H 157.665 3.47051 3.64095 0
M  V30 1691 H 157.365 5.08358 2.94696 0
M  V30 1692 H 158.889 4.7618 3.82211 0
M  V30 1693 H 160.303 5.48474 1.66879 0
M  V30 1694 H 158.7 5.91615 1.00557 0
M  V30 1695 H 159.77 4.84835 0.0793299 0
M  V30 1696 N 161.113 -0.173488 1.56642 0
M  V30 1697 C 162.353 -0.896984 1.83667 0
M  V30 1698 C 162.717 -1.79523 0.680842 0
M  V30 1699 O 163.918 -2.55616 0.831488 0
M  V30 1700 C 162.189 -1.67351 3.15798 0
M  V30 1701 S 163.748 -2.44607 3.64298 0
M  V30 1702 H 160.566 -0.300464 0.644393 0
M  V30 1703 H 163.168 -0.158775 1.94854 0
M  V30 1704 H 161.872 -1.00462 3.97914 0
M  V30 1705 H 161.403 -2.45313 3.07546 0
M  V30 1706 H 163.418 -3.69261 3.31452 0
M  V30 1707 N 162.591 -1.51276 -0.441967 0
M  V30 1708 C 164.007 -1.39349 -0.778083 0
M  V30 1709 C 164.207 -0.472212 -1.95889 0
M  V30 1710 O 163.263 0.0743551 -2.5239 0
M  V30 1711 C 164.576 -2.81292 -1.0628 0
M  V30 1712 C 166.124 -2.9041 -1.16751 0
M  V30 1713 C 166.599 -4.33251 -1.48519 0
M  V30 1714 N 168.09 -4.36336 -1.55453 0
M  V30 1715 C 168.825 -5.43885 -1.81596 0
M  V30 1716 N 168.321 -6.61601 -2.05562 0
M  V30 1717 N 170.114 -5.3136 -1.8334 0
M  V30 1718 H 162.265 -2.09729 0.335774 0
M  V30 1719 H 164.528 -0.943925 0.0878028 0
M  V30 1720 H 164.234 -3.50678 -0.267905 0
M  V30 1721 H 164.108 -3.20334 -1.99163 0
M  V30 1722 H 166.495 -2.21225 -1.95304 0
M  V30 1723 H 166.576 -2.54871 -0.217801 0
M  V30 1724 H 166.22 -5.02984 -0.704958 0
M  V30 1725 H 166.15 -4.66299 -2.44689 0
M  V30 1726 H 168.641 -3.51466 -1.38853 0
M  V30 1727 H 168.954 -7.39361 -2.24867 0
M  V30 1728 H 167.299 -6.64725 -2.02894 0
M  V30 1729 H 170.49 -4.38382 -1.64132 0
M  V30 1730 H 170.663 -6.15258 -2.03377 0
M  V30 1731 N 164.069 0.697108 -1.41344 0
M  V30 1732 C 165.316 1.45714 -1.40619 0
M  V30 1733 C 165.644 1.94494 -0.0147907 0
M  V30 1734 O 164.899 1.69794 0.973066 0
M  V30 1735 C 165.198 2.68553 -2.35826 0
M  V30 1736 C 164.864 2.38438 -3.82698 0
M  V30 1737 C 163.526 2.29936 -4.22709 0
M  V30 1738 C 165.878 2.13567 -4.75435 0
M  V30 1739 C 163.206 1.94656 -5.53467 0
M  V30 1740 C 165.558 1.79797 -6.06511 0
M  V30 1741 C 164.222 1.69789 -6.45545 0
M  V30 1742 H 163.492 0.533206 -0.51456 0
M  V30 1743 H 166.139 0.796901 -1.74131 0
M  V30 1744 H 164.444 3.39503 -1.95563 0
M  V30 1745 H 166.141 3.2669 -2.32539 0
M  V30 1746 H 162.731 2.4595 -3.51008 0
M  V30 1747 H 166.915 2.19082 -4.45328 0
M  V30 1748 H 162.171 1.8546 -5.82593 0
M  V30 1749 H 166.345 1.59572 -6.77872 0
M  V30 1750 H 163.972 1.4222 -7.46778 0
M  V30 1751 N 165.547 1.27147 0.931209 0
M  V30 1752 C 166.494 1.09568 2.03134 0
M  V30 1753 C 167.464 -0.00222433 1.661 0
M  V30 1754 O 168.649 0.159439 1.90133 0
M  V30 1755 C 165.789 0.745231 3.36957 0
M  V30 1756 C 164.902 1.92041 3.86968 0
M  V30 1757 C 164.037 1.51216 5.09222 0
M  V30 1758 C 163.076 2.65504 5.5152 0
M  V30 1759 N 162.213 2.25291 6.64972 0
M  V30 1760 H 167.053 2.03708 2.17502 0
M  V30 1761 H 164.59 1.01411 1.06556 0
M  V30 1762 H 166.548 0.522878 4.1391 0
M  V30 1763 H 165.178 -0.159202 3.22407 0
M  V30 1764 H 164.23 2.25541 3.06326 0
M  V30 1765 H 165.542 2.77787 4.1429 0
M  V30 1766 H 164.696 1.25084 5.93666 0
M  V30 1767 H 163.435 0.625749 4.83669 0
M  V30 1768 H 162.44 2.92354 4.65628 0
M  V30 1769 H 163.665 3.54761 5.7907 0
M  V30 1770 H 161.611 1.39098 6.41083 0
M  V30 1771 H 161.528 3.04577 6.91931 0
M  V30 1772 H 162.796 2.02398 7.52765 0
M  V30 1773 N 167.025 -1.13721 1.09112 0
M  V30 1774 C 167.972 -2.19031 0.727591 0
M  V30 1775 C 168.942 -1.63555 -0.289656 0
M  V30 1776 O 170.127 -1.90023 -0.172026 0
M  V30 1777 C 167.267 -3.4477 0.15082 0
M  V30 1778 C 166.38 -4.14365 1.22172 0
M  V30 1779 C 165.515 -5.27709 0.608042 0
M  V30 1780 C 164.554 -5.89147 1.66047 0
M  V30 1781 N 163.691 -6.93929 1.06806 0
M  V30 1782 H 168.531 -2.49475 1.62991 0
M  V30 1783 H 166.068 -1.22499 0.81439 0
M  V30 1784 H 168.026 -4.16714 -0.201358 0
M  V30 1785 H 166.656 -3.14787 -0.714783 0
M  V30 1786 H 165.708 -3.40737 1.69122 0
M  V30 1787 H 167.02 -4.56114 2.01895 0
M  V30 1788 H 166.174 -6.06355 0.204523 0
M  V30 1789 H 164.913 -4.872 -0.220769 0
M  V30 1790 H 163.918 -5.09198 2.07357 0
M  V30 1791 H 165.143 -6.31729 2.49189 0
M  V30 1792 H 163.089 -6.55483 0.260476 0
M  V30 1793 H 163.006 -7.34202 1.8023 0
M  V30 1794 H 164.274 -7.76434 0.690644 0
M  V30 1795 N 168.503 -0.877838 -1.30888 0
M  V30 1796 C 169.743 -0.499301 -1.98208 0
M  V30 1797 C 170.107 0.932649 -1.67826 0
M  V30 1798 O 171.308 1.41694 -2.28421 0
M  V30 1799 C 169.579 -0.758221 -3.49265 0
M  V30 1800 S 171.138 -0.480719 -4.36159 0
M  V30 1801 H 167.956 -0.186062 -0.686223 0
M  V30 1802 H 170.558 -1.13556 -1.59139 0
M  V30 1803 H 169.262 -1.79903 -3.68867 0
M  V30 1804 H 168.793 -0.109247 -3.93248 0
M  V30 1805 H 170.808 0.683698 -4.91467 0
M  V30 1806 N 169.982 1.44106 -0.638065 0
M  V30 1807 C 171.231 2.01194 -0.142744 0
M  V30 1808 C 171.544 1.50835 1.24532 0
M  V30 1809 O 172.75 2.00096 1.83504 0
M  V30 1810 C 171.206 3.59319 -0.20442 0
M  V30 1811 C 170.814 4.18674 -1.59423 0
M  V30 1812 C 172.558 4.23854 0.234079 0
M  V30 1813 C 170.465 5.69045 -1.61065 0
M  V30 1814 H 169.395 0.752367 -0.0495998 0
M  V30 1815 H 172.046 1.65246 -0.797881 0
M  V30 1816 H 170.428 3.92598 0.517946 0
M  V30 1817 H 171.602 3.96921 -2.34074 0
M  V30 1818 H 169.917 3.66453 -1.97741 0
M  V30 1819 H 172.514 5.34155 0.241443 0
M  V30 1820 H 172.857 3.96688 1.2627 0
M  V30 1821 H 173.39 3.95403 -0.436025 0
M  V30 1822 H 170.129 6.00956 -2.61787 0
M  V30 1823 H 169.649 5.929 -0.90718 0
M  V30 1824 H 171.328 6.32809 -1.34766 0
M  V30 1825 N 171.46 0.379036 1.52974 0
M  V30 1826 C 172.423 -0.448865 2.24762 0
M  V30 1827 C 173.423 -0.998689 1.26027 0
M  V30 1828 O 174.613 -0.882313 1.50203 0
M  V30 1829 C 171.745 -1.62872 2.99476 0
M  V30 1830 H 172.938 0.179491 2.99362 0
M  V30 1831 H 170.491 0.13096 1.5575 0
M  V30 1832 H 171.226 -2.29479 2.29151 0
M  V30 1833 H 171.011 -1.24128 3.71934 0
M  V30 1834 H 172.501 -2.2151 3.5401 0
M  V30 1835 N 172.938 -1.57226 0.108567 0
M  V30 1836 C 174.184 -1.95121 -0.552761 0
M  V30 1837 C 174.517 -0.991345 -1.66991 0
M  V30 1838 O 173.792 -0.0267211 -1.94482 0
M  V30 1839 C 174.075 -3.43039 -1.09528 0
M  V30 1840 C 173.928 -4.49797 0.0177332 0
M  V30 1841 C 175.247 -3.92567 -1.98945 0
M  V30 1842 H 172.366 -0.709496 -0.199461 0
M  V30 1843 H 175.008 -1.89126 0.182011 0
M  V30 1844 H 173.158 -3.48279 -1.72146 0
M  V30 1845 H 174.83 -4.56661 0.652584 0
M  V30 1846 H 173.073 -4.284 0.682309 0
M  V30 1847 H 173.744 -5.50528 -0.402919 0
M  V30 1848 H 176.22 -3.89565 -1.46214 0
M  V30 1849 H 175.096 -4.96605 -2.33827 0
M  V30 1850 H 175.357 -3.32648 -2.91201 0
M  V30 1851 N 174.416 0.165178 -1.56732 0
M  V30 1852 C 175.664 0.879068 -1.8198 0
M  V30 1853 C 175.985 1.82514 -0.686561 0
M  V30 1854 O 175.255 1.93694 0.293146 0
M  V30 1855 H 173.835 0.327608 -0.671329 0
M  V30 1856 H 176.497 0.163526 -1.94213 0
M  V30 1857 H 175.593 1.45228 -2.76252 0
M  V30 1858 N 175.894 1.51508 0.433938 0
M  V30 1859 C 176.827 1.67756 1.54704 0
M  V30 1860 C 177.805 0.525127 1.53887 0
M  V30 1861 O 178.989 0.749393 1.72963 0
M  V30 1862 C 176.116 1.69424 2.9328 0
M  V30 1863 C 175.162 2.90673 3.12108 0
M  V30 1864 S 175.995 4.51431 2.88046 0
M  V30 1865 C 177.151 4.55849 4.28897 0
M  V30 1866 H 177.384 2.61904 1.40689 0
M  V30 1867 H 174.917 1.41235 0.62386 0
M  V30 1868 H 176.875 1.7107 3.73156 0
M  V30 1869 H 175.536 0.764464 3.04655 0
M  V30 1870 H 174.729 2.88251 4.13434 0
M  V30 1871 H 174.331 2.86786 2.40062 0
M  V30 1872 H 176.623 4.31699 5.22152 0
M  V30 1873 H 177.566 5.57676 4.36351 0
M  V30 1874 H 177.974 3.85137 4.12711 0
M  V30 1875 N 177.372 -0.689602 1.41712 0
M  V30 1876 C 178.335 -1.78521 1.43746 0
M  V30 1877 C 179.335 -1.57436 0.327191 0
M  V30 1878 O 180.525 -1.64 0.587348 0
M  V30 1879 C 177.657 -3.16971 1.25467 0
M  V30 1880 H 178.85 -1.78108 2.41283 0
M  V30 1881 H 176.403 -0.89781 1.27942 0
M  V30 1882 H 177.138 -3.23019 0.287948 0
M  V30 1883 H 176.923 -3.33678 2.05917 0
M  V30 1884 H 178.413 -3.96935 1.2974 0
M  V30 1885 N 178.85 -1.27639 -0.924453 0
M  V30 1886 C 179.783 -1.04966 -2.02626 0
M  V30 1887 C 180.761 0.0309505 -1.62571 0
M  V30 1888 O 181.945 -0.114846 -1.8815 0
M  V30 1889 C 179.072 -0.59292 -3.3347 0
M  V30 1890 C 178.118 -1.66858 -3.92506 0
M  V30 1891 S 178.951 -3.2619 -4.24689 0
M  V30 1892 C 180.107 -2.82325 -5.58609 0
M  V30 1893 H 180.34 -1.98252 -2.21547 0
M  V30 1894 H 177.873 -1.11506 -1.06798 0
M  V30 1895 H 179.831 -0.336086 -4.09122 0
M  V30 1896 H 178.492 0.319939 -3.12466 0
M  V30 1897 H 177.685 -1.30038 -4.86935 0
M  V30 1898 H 177.287 -1.87766 -3.2345 0
M  V30 1899 H 179.579 -2.2783 -6.38044 0
M  V30 1900 H 180.522 -3.75511 -6.00331 0
M  V30 1901 H 180.93 -2.21367 -5.19285 0
M  V30 1902 N 180.328 1.1314 -1.09713 0
M  V30 1903 C 181.605 1.80762 -0.747302 0
M  V30 1904 C 181.985 1.96663 0.767265 0
M  V30 1905 O 181.333 1.53706 1.69076 0
M  V30 1906 C 181.543 3.15606 -1.48975 0
M  V30 1907 C 182.891 3.90914 -1.65746 0
M  V30 1908 O 183.915 3.25239 -1.45251 0
M  V30 1909 O 182.774 5.08718 -1.9967 0
M  V30 1910 H 179.868 0.782103 -0.268782 0
M  V30 1911 H 182.414 1.20041 -1.19951 0
M  V30 1912 H 181.186 2.99278 -2.52088 0
M  V30 1913 H 180.809 3.84029 -1.02991 0
M  V30 1914 N 181.806 0.884767 1.30421 0
M  V30 1915 C 182.736 0.367574 2.30589 0
M  V30 1916 C 183.717 -0.549464 1.60981 0
M  V30 1917 O 184.902 -0.46336 1.88591 0
M  V30 1918 C 182.032 -0.418944 3.44764 0
M  V30 1919 C 180.986 0.406316 4.26067 0
M  V30 1920 C 180.312 -0.506793 5.32293 0
M  V30 1921 C 181.612 1.64832 4.95608 0
M  V30 1922 H 183.306 1.20462 2.74097 0
M  V30 1923 H 180.852 0.580695 1.31772 0
M  V30 1924 H 182.805 -0.791395 4.13902 0
M  V30 1925 H 181.529 -1.28964 3.0006 0
M  V30 1926 H 180.188 0.760903 3.58617 0
M  V30 1927 H 179.836 -1.37519 4.83836 0
M  V30 1928 H 179.536 0.0415828 5.87585 0
M  V30 1929 H 181.06 -0.875764 6.04287 0
M  V30 1930 H 182.474 1.34646 5.57264 0
M  V30 1931 H 180.871 2.13688 5.60765 0
M  V30 1932 H 181.941 2.39284 4.21748 0
M  V30 1933 N 183.284 -1.43765 0.645699 0
M  V30 1934 C 184.53 -2.02197 0.156271 0
M  V30 1935 C 184.863 -1.50776 -1.22393 0
M  V30 1936 O 184.138 -0.697771 -1.81553 0
M  V30 1937 C 184.421 -3.59749 0.158872 0
M  V30 1938 C 184.274 -4.21419 1.57245 0
M  V30 1939 C 185.593 -4.37149 -0.50879 0
M  V30 1940 H 182.712 -0.734694 0.0582602 0
M  V30 1941 H 185.354 -1.71157 0.824951 0
M  V30 1942 H 183.504 -3.86325 -0.410525 0
M  V30 1943 H 185.176 -4.059 2.19186 0
M  V30 1944 H 183.419 -3.78356 2.122 0
M  V30 1945 H 184.09 -5.30482 1.52619 0
M  V30 1946 H 186.566 -4.16093 -0.024412 0
M  V30 1947 H 185.442 -5.4683 -0.476213 0
M  V30 1948 H 185.703 -4.12839 -1.58165 0
M  V30 1949 N 184.763 -0.387143 -1.52771 0
M  V30 1950 C 185.693 0.440551 -2.29306 0
M  V30 1951 C 186.674 1.06535 -1.32606 0
M  V30 1952 O 187.859 1.07853 -1.61497 0
M  V30 1953 C 184.989 1.56919 -3.09829 0
M  V30 1954 C 183.943 1.07054 -4.14395 0
M  V30 1955 C 183.269 2.29109 -4.83129 0
M  V30 1956 C 184.569 0.140015 -5.22112 0
M  V30 1957 H 186.263 -0.198026 -2.98744 0
M  V30 1958 H 183.809 -0.09668 -1.43675 0
M  V30 1959 H 185.762 2.15503 -3.62128 0
M  V30 1960 H 184.486 2.23532 -2.3812 0
M  V30 1961 H 183.145 0.507247 -3.63074 0
M  V30 1962 H 182.793 2.94227 -4.0797 0
M  V30 1963 H 182.493 1.96406 -5.53804 0
M  V30 1964 H 184.017 2.88339 -5.38231 0
M  V30 1965 H 185.431 0.633978 -5.69784 0
M  V30 1966 H 183.828 -0.0971485 -6.00021 0
M  V30 1967 H 184.898 -0.811711 -4.78058 0
M  V30 1968 N 186.241 1.57166 -0.116904 0
M  V30 1969 C 187.518 1.86645 0.585049 0
M  V30 1970 C 187.898 1.0177 1.84949 0
M  V30 1971 O 187.246 0.0960379 2.28298 0
M  V30 1972 C 187.456 3.37736 0.879507 0
M  V30 1973 C 188.804 4.06289 1.23348 0
M  V30 1974 O 189.828 3.42743 0.969836 0
M  V30 1975 O 188.687 5.18455 1.7282 0
M  V30 1976 H 185.781 0.772593 0.295007 0
M  V30 1977 H 188.327 1.69025 -0.151249 0
M  V30 1978 H 187.099 3.91296 -0.0166136 0
M  V30 1979 H 186.722 3.6078 1.67103 0
M  V30 1980 N 187.719 -0.156864 1.56817 0
M  V30 1981 C 188.996 -0.899244 1.73704 0
M  V30 1982 C 189.376 -1.99771 0.682254 0
M  V30 1983 O 188.724 -2.26515 -0.300522 0
M  V30 1984 C 188.934 -1.45075 3.17418 0
M  V30 1985 C 190.282 -1.91802 3.7881 0
M  V30 1986 O 191.306 -1.54838 3.20786 0
M  V30 1987 O 190.165 -2.5994 4.80722 0
M  V30 1988 H 187.259 -0.424267 0.709878 0
M  V30 1989 H 189.805 -0.143561 1.69092 0
M  V30 1990 H 188.577 -0.660846 3.85679 0
M  V30 1991 H 188.2 -2.27021 3.26416 0
M  V30 1992 N 189.197 -1.51736 -0.425897 0
M  V30 1993 C 190.422 -1.69082 -1.20108 0
M  V30 1994 C 190.847 -0.392398 -1.83962 0
M  V30 1995 O 190.205 0.64858 -1.69302 0
M  V30 1996 C 190.253 -2.81604 -2.25237 0
M  V30 1997 O 189.357 -2.46004 -3.30992 0
M  V30 1998 H 188.698 -0.563408 -0.35138 0
M  V30 1999 H 191.228 -1.98358 -0.501512 0
M  V30 2000 H 191.238 -3.06025 -2.69838 0
M  V30 2001 H 189.913 -3.75817 -1.78142 0
M  V30 2002 H 188.49 -2.32195 -2.91787 0
M  V30 2003 N 190.675 0.682077 -1.42076 0
M  V30 2004 C 191.622 1.79578 -1.44984 0
M  V30 2005 C 192.592 1.6332 -0.302614 0
M  V30 2006 O 193.777 1.83978 -0.505633 0
M  V30 2007 C 190.917 3.1756 -1.35091 0
M  V30 2008 C 190.03 3.45156 -2.59791 0
M  V30 2009 C 189.165 4.72826 -2.42093 0
M  V30 2010 C 188.204 4.93433 -3.62202 0
M  V30 2011 N 187.341 6.12338 -3.43491 0
M  V30 2012 H 192.181 1.76427 -2.40161 0
M  V30 2013 H 189.718 0.861376 -1.19242 0
M  V30 2014 H 191.676 3.97287 -1.27354 0
M  V30 2015 H 190.306 3.19854 -0.435133 0
M  V30 2016 H 189.358 2.59736 -2.77923 0
M  V30 2017 H 190.67 3.5628 -3.49094 0
M  V30 2018 H 189.824 5.60631 -2.319 0
M  V30 2019 H 188.563 4.63973 -1.50268 0
M  V30 2020 H 187.568 4.04073 -3.72834 0
M  V30 2021 H 188.793 5.04136 -4.54998 0
M  V30 2022 H 186.739 6.04672 -2.54377 0
M  V30 2023 H 186.656 6.2429 -4.26377 0
M  V30 2024 H 187.924 7.02841 -3.37097 0
M  V30 2025 N 192.153 1.28127 0.917671 0
M  V30 2026 C 193.569 1.05749 1.19538 0
M  V30 2027 C 193.769 -0.202633 2.00479 0
M  V30 2028 O 192.825 -0.905382 2.3571 0
M  V30 2029 C 194.138 2.30273 1.93378 0
M  V30 2030 C 195.686 2.35412 2.06277 0
M  V30 2031 C 196.161 3.59692 2.83524 0
M  V30 2032 N 197.652 3.60309 2.91087 0
M  V30 2033 C 198.387 4.53147 3.51348 0
M  V30 2034 N 197.883 5.563 4.12919 0
M  V30 2035 N 199.676 4.40751 3.48849 0
M  V30 2036 H 191.827 2.09024 0.377184 0
M  V30 2037 H 194.09 0.919798 0.22951 0
M  V30 2038 H 193.796 3.22055 1.41328 0
M  V30 2039 H 193.67 2.36378 2.93947 0
M  V30 2040 H 196.057 1.4413 2.57508 0
M  V30 2041 H 196.138 2.33304 1.04895 0
M  V30 2042 H 195.782 4.51316 2.32973 0
M  V30 2043 H 195.712 3.59054 3.85211 0
M  V30 2044 H 198.203 2.85714 2.47338 0
M  V30 2045 H 198.516 6.2329 4.56869 0
M  V30 2046 H 196.861 5.60131 4.11435 0
M  V30 2047 H 200.052 3.59367 2.99955 0
M  V30 2048 H 200.225 5.13291 3.9552 0
M  V30 2049 N 193.631 -1.12557 1.10312 0
M  V30 2050 C 194.877 -1.84311 0.846011 0
M  V30 2051 C 195.21 -1.83805 -0.626859 0
M  V30 2052 O 194.485 -1.28268 -1.46211 0
M  V30 2053 C 194.768 -3.32048 1.39341 0
M  V30 2054 C 194.621 -3.41016 2.93305 0
M  V30 2055 C 195.94 -4.27764 1.03468 0
M  V30 2056 H 193.059 -0.669192 0.30879 0
M  V30 2057 H 195.701 -1.32057 1.36605 0
M  V30 2058 H 193.851 -3.76678 0.951087 0
M  V30 2059 H 195.523 -3.05031 3.46055 0
M  V30 2060 H 193.766 -2.81603 3.29973 0
M  V30 2061 H 194.437 -4.44948 3.26689 0
M  V30 2062 H 196.913 -3.91253 1.41633 0
M  V30 2063 H 195.789 -5.29549 1.44463 0
M  V30 2064 H 196.05 -4.42064 -0.0560404 0
M  V30 2065 N 195.109 -0.891671 -1.2995 0
M  V30 2066 C 196.072 -0.36828 -2.26222 0
M  V30 2067 C 197.072 0.493014 -1.53056 0
M  V30 2068 O 198.262 0.299213 -1.71611 0
M  V30 2069 C 195.394 0.47442 -3.37583 0
M  V30 2070 H 196.587 -1.21844 -2.74033 0
M  V30 2071 H 194.14 -0.669107 -1.41254 0
M  V30 2072 H 194.875 1.34489 -2.95099 0
M  V30 2073 H 194.66 -0.142615 -3.91841 0
M  V30 2074 H 196.15 0.83218 -4.09224 0
M  V30 2075 N 196.587 1.43421 -0.653314 0
M  V30 2076 C 197.534 2.30768 0.0382271 0
M  V30 2077 C 198.504 1.44755 0.814576 0
M  V30 2078 O 199.689 1.73624 0.791162 0
M  V30 2079 C 196.829 3.30336 0.998599 0
M  V30 2080 C 195.942 4.31448 0.218342 0
M  V30 2081 C 195.077 5.18098 1.17252 0
M  V30 2082 C 194.116 6.10902 0.382702 0
M  V30 2083 N 193.253 6.90176 1.28848 0
M  V30 2084 H 198.093 2.89357 -0.712511 0
M  V30 2085 H 195.63 1.42548 -0.363128 0
M  V30 2086 H 197.588 3.86572 1.56901 0
M  V30 2087 H 196.218 2.73397 1.71621 0
M  V30 2088 H 195.27 3.77506 -0.46836 0
M  V30 2089 H 196.582 4.97227 -0.395812 0
M  V30 2090 H 195.736 5.7896 1.81356 0
M  V30 2091 H 194.475 4.52444 1.82058 0
M  V30 2092 H 193.48 5.49128 -0.27169 0
M  V30 2093 H 194.705 6.78598 -0.260957 0
M  V30 2094 H 192.651 6.27171 1.92334 0
M  V30 2095 H 192.568 7.52478 0.728887 0
M  V30 2096 H 193.836 7.55543 1.91766 0
M  V30 2097 N 198.065 0.39524 1.52563 0
M  V30 2098 C 199.481 0.0454682 1.59535 0
M  V30 2099 C 199.681 -1.44056 1.4089 0
M  V30 2100 O 198.737 -2.20579 1.22888 0
M  V30 2101 C 200.05 0.527963 2.96029 0
M  V30 2102 C 201.598 0.484733 3.09224 0
M  V30 2103 C 202.073 0.943512 4.48176 0
M  V30 2104 N 203.564 0.899765 4.54377 0
M  V30 2105 C 204.299 1.22609 5.60138 0
M  V30 2106 N 203.795 1.62319 6.73516 0
M  V30 2107 N 205.588 1.14696 5.50274 0
M  V30 2108 H 197.739 1.36261 1.62931 0
M  V30 2109 H 200.002 0.558887 0.765735 0
M  V30 2110 H 199.708 1.56607 3.14908 0
M  V30 2111 H 199.582 -0.0698056 3.77135 0
M  V30 2112 H 201.969 -0.544298 2.90037 0
M  V30 2113 H 202.05 1.11838 2.30056 0
M  V30 2114 H 201.694 1.9708 4.68104 0
M  V30 2115 H 201.624 0.286817 5.25818 0
M  V30 2116 H 204.115 0.607632 3.72983 0
M  V30 2117 H 204.428 1.85567 7.5019 0
M  V30 2118 H 202.773 1.66211 6.74833 0
M  V30 2119 H 205.964 0.835701 4.6058 0
M  V30 2120 H 206.137 1.40459 6.32594 0
M  V30 2121 N 199.544 -1.57102 0.125237 0
M  V30 2122 C 200.491 -2.15641 -0.822655 0
M  V30 2123 C 201.461 -1.08313 -1.25927 0
M  V30 2124 O 202.646 -1.36251 -1.33567 0
M  V30 2125 C 199.786 -2.76504 -2.06494 0
M  V30 2126 C 198.899 -3.98158 -1.67612 0
M  V30 2127 C 198.034 -4.47088 -2.86854 0
M  V30 2128 C 197.073 -5.6126 -2.44242 0
M  V30 2129 N 196.21 -6.04905 -3.56419 0
M  V30 2130 H 201.05 -2.96313 -0.316625 0
M  V30 2131 H 198.587 -1.46388 -0.144588 0
M  V30 2132 H 200.545 -3.09925 -2.79289 0
M  V30 2133 H 199.175 -1.98512 -2.54545 0
M  V30 2134 H 198.227 -3.70858 -0.846661 0
M  V30 2135 H 199.539 -4.80934 -1.32301 0
M  V30 2136 H 198.693 -4.82451 -3.67867 0
M  V30 2137 H 197.432 -3.63275 -3.25396 0
M  V30 2138 H 196.437 -5.25495 -1.61663 0
M  V30 2139 H 197.662 -6.46843 -2.0681 0
M  V30 2140 H 195.608 -5.24032 -3.94623 0
M  V30 2141 H 195.525 -6.82552 -3.25051 0
M  V30 2142 H 196.793 -6.44907 -4.37853 0
M  V30 2143 N 201.022 0.148545 -1.56898 0
M  V30 2144 C 201.952 1.18524 -2.01182 0
M  V30 2145 C 202.933 1.4489 -0.891123 0
M  V30 2146 O 204.118 1.55836 -1.15882 0
M  V30 2147 C 201.248 2.51879 -2.39112 0
M  V30 2148 C 200.202 2.40038 -3.54353 0
M  V30 2149 C 199.528 3.78089 -3.78091 0
M  V30 2150 C 200.828 1.88577 -4.87069 0
M  V30 2151 H 202.522 0.817029 -2.88036 0
M  V30 2152 H 200.068 0.391575 -1.38574 0
M  V30 2153 H 202.021 3.24627 -2.68692 0
M  V30 2154 H 200.745 2.90532 -1.49193 0
M  V30 2155 H 199.404 1.69742 -3.24936 0
M  V30 2156 H 199.052 4.14175 -2.85426 0
M  V30 2157 H 198.752 3.71028 -4.55645 0
M  V30 2158 H 200.276 4.52387 -4.10095 0
M  V30 2159 H 201.69 2.51117 -5.15377 0
M  V30 2160 H 200.087 1.9241 -5.68417 0
M  V30 2161 H 201.157 0.84136 -4.77545 0
M  V30 2162 N 202.5 1.5196 0.417844 0
M  V30 2163 C 203.749 1.6482 1.16264 0
M  V30 2164 C 204.062 0.379886 1.91876 0
M  V30 2165 O 205.268 0.388154 2.68711 0
M  V30 2166 C 203.724 2.91161 2.1155 0
M  V30 2167 C 203.332 4.25068 1.41495 0
M  V30 2168 C 205.076 3.13383 2.86341 0
M  V30 2169 C 202.983 5.42541 2.35379 0
M  V30 2170 H 201.913 0.613954 0.437694 0
M  V30 2171 H 204.564 1.78442 0.427871 0
M  V30 2172 H 202.946 2.71218 2.88543 0
M  V30 2173 H 204.12 4.55463 0.699263 0
M  V30 2174 H 202.435 4.0888 0.787792 0
M  V30 2175 H 205.032 3.98324 3.5671 0
M  V30 2176 H 205.375 2.27256 3.48798 0
M  V30 2177 H 205.908 3.33757 2.1645 0
M  V30 2178 H 202.647 6.30987 1.77582 0
M  V30 2179 H 202.167 5.16497 3.04945 0
M  V30 2180 H 203.846 5.75272 2.96093 0
M  V30 2181 N 203.978 -0.674533 1.42435 0
M  V30 2182 C 204.888 -1.81751 1.48337 0
M  V30 2183 C 205.904 -1.69975 0.372099 0
M  V30 2184 O 207.08 -1.91521 0.62304 0
M  V30 2185 C 204.145 -3.17895 1.38361 0
M  V30 2186 C 203.206 -3.41625 2.59982 0
M  V30 2187 C 202.439 -4.71274 2.50473 0
M  V30 2188 O 202.662 -5.49197 1.54075 0
M  V30 2189 O 201.596 -4.96254 3.4061 0
M  V30 2190 H 205.422 -1.79728 2.44809 0
M  V30 2191 H 203.007 -0.830312 1.24202 0
M  V30 2192 H 204.889 -3.99136 1.35161 0
M  V30 2193 H 203.564 -3.20555 0.450144 0
M  V30 2194 H 202.471 -2.60231 2.68757 0
M  V30 2195 H 203.804 -3.43796 3.52229 0
M  V30 2196 N 205.456 -1.28612 -0.910864 0
M  V30 2197 C 206.388 -1.08589 -2.01844 0
M  V30 2198 C 207.401 -0.0367419 -1.62759 0
M  V30 2199 O 208.59 -0.280101 -1.76289 0
M  V30 2200 C 205.69 -0.628626 -3.33019 0
M  V30 2201 C 204.863 -1.75382 -4.00699 0
M  V30 2202 C 203.922 -1.28945 -5.10156 0
M  V30 2203 O 202.948 -1.9922 -5.33198 0
M  V30 2204 N 204.15 -0.154224 -5.80295 0
M  V30 2205 H 206.915 -2.03973 -2.19579 0
M  V30 2206 H 204.476 -1.20403 -1.08234 0
M  V30 2207 H 206.468 -0.301508 -4.03575 0
M  V30 2208 H 205.038 0.232451 -3.11735 0
M  V30 2209 H 204.258 -2.25039 -3.23653 0
M  V30 2210 H 205.546 -2.50854 -4.42662 0
M  V30 2211 H 204.944 0.43194 -5.64049 0
M  V30 2212 H 203.501 0.113599 -6.51701 0
M  V30 2213 N 206.934 1.1197 -1.10907 0
M  V30 2214 C 207.882 2.19927 -0.757303 0
M  V30 2215 C 208.876 1.67564 0.248747 0
M  V30 2216 O 210.082 1.79672 0.108605 0
M  V30 2217 H 206.457 0.716925 -0.226987 0
M  V30 2218 H 208.428 2.46847 -1.67658 0
M  V30 2219 C 207.177 3.47061 -0.210671 0
M  V30 2220 H 206.5 3.87703 -0.976049 0
M  V30 2221 H 207.94 4.24 -0.0026584 0
M  V30 2222 C 206.399 3.19864 1.05777 0
M  V30 2223 O 206.929 3.40049 2.13845 0
M  V30 2224 N 205.135 2.73636 0.978349 0
M  V30 2225 H 204.682 2.5741 0.0988246 0
M  V30 2226 H 204.64 2.55815 1.82773 0
M  V30 2227 N 208.412 0.89855 1.29475 0
M  V30 2228 C 209.828 0.594483 1.48115 0
M  V30 2229 C 210.028 -0.86431 1.82022 0
M  V30 2230 O 209.084 -1.64457 1.91599 0
M  V30 2231 C 210.397 1.51932 2.59494 0
M  V30 2232 C 211.945 1.5244 2.7337 0
M  V30 2233 C 212.42 2.43548 3.87877 0
M  V30 2234 N 213.911 2.41589 3.95208 0
M  V30 2235 C 214.646 3.08789 4.83153 0
M  V30 2236 N 214.142 3.85265 5.75798 0
M  V30 2237 N 215.935 2.97952 4.76635 0
M  V30 2238 H 208.086 1.84207 1.05742 0
M  V30 2239 H 210.349 0.789251 0.525154 0
M  V30 2240 H 210.055 2.55865 2.41301 0
M  V30 2241 H 209.929 1.23899 3.56271 0
M  V30 2242 H 212.316 0.492518 2.90961 0
M  V30 2243 H 212.397 1.8451 1.77172 0
M  V30 2244 H 212.041 3.46829 3.71041 0
M  V30 2245 H 211.971 2.08788 4.83441 0
M  V30 2246 H 214.462 1.86025 3.28943 0
M  V30 2247 H 214.775 4.33598 6.39697 0
M  V30 2248 H 213.12 3.89371 5.75687 0
M  V30 2249 H 216.311 2.37723 4.03244 0
M  V30 2250 H 216.484 3.50599 5.44962 0
M  V30 2251 N 209.89 -1.43072 0.660911 0
M  V30 2252 C 210.8 -2.34585 -0.0264163 0
M  V30 2253 C 211.816 -1.54316 -0.803898 0
M  V30 2254 O 212.992 -1.86939 -0.749391 0
M  V30 2255 C 210.057 -3.32689 -0.975639 0
M  V30 2256 C 209.118 -4.2886 -0.194236 0
M  V30 2257 C 208.351 -5.22278 -1.09825 0
M  V30 2258 O 208.574 -5.20299 -2.33763 0
M  V30 2259 O 207.508 -5.99228 -0.566513 0
M  V30 2260 H 211.334 -2.94869 0.727034 0
M  V30 2261 H 208.919 -1.43342 0.42111 0
M  V30 2262 H 210.801 -3.92995 -1.52094 0
M  V30 2263 H 209.476 -2.74898 -1.70918 0
M  V30 2264 H 208.383 -3.72011 0.394835 0
M  V30 2265 H 209.716 -4.89655 0.499899 0
M  V30 2266 N 211.368 -0.403325 -1.52352 0
M  V30 2267 C 212.784 -0.0539281 -1.59509 0
M  V30 2268 C 212.984 1.43307 -1.41652 0
M  V30 2269 O 212.04 2.19924 -1.24056 0
M  V30 2270 C 213.353 -0.543654 -2.95745 0
M  V30 2271 C 214.901 -0.501125 -3.08962 0
M  V30 2272 C 215.376 -0.967267 -4.47669 0
M  V30 2273 N 216.867 -0.923849 -4.53893 0
M  V30 2274 C 217.602 -1.25578 -5.5948 0
M  V30 2275 N 217.098 -1.65889 -6.72646 0
M  V30 2276 N 218.891 -1.17613 -5.49658 0
M  V30 2277 H 211.042 -1.37123 -1.62206 0
M  V30 2278 H 213.305 -0.56294 -0.76276 0
M  V30 2279 H 213.011 -1.58275 -3.14073 0
M  V30 2280 H 212.885 0.0498042 -3.77167 0
M  V30 2281 H 215.272 0.528909 -2.90321 0
M  V30 2282 H 215.353 -1.13056 -2.2946 0
M  V30 2283 H 214.997 -1.9956 -4.67053 0
M  V30 2284 H 214.927 -0.314698 -5.25659 0
M  V30 2285 H 217.418 -0.627403 -3.72655 0
M  V30 2286 H 217.731 -1.89543 -7.49195 0
M  V30 2287 H 216.076 -1.69787 -6.73942 0
M  V30 2288 H 219.267 -0.860115 -4.6013 0
M  V30 2289 H 219.44 -1.43812 -6.3184 0
M  V30 2290 N 212.846 1.57033 -0.133567 0
M  V30 2291 C 214.262 1.58035 0.222944 0
M  V30 2292 C 214.462 1.14713 1.6566 0
M  V30 2293 O 213.518 0.841218 2.38075 0
M  V30 2294 C 214.831 3.00691 -0.0236116 0
M  V30 2295 C 216.379 3.12973 0.0411512 0
M  V30 2296 C 216.854 4.57654 -0.177899 0
M  V30 2297 N 218.345 4.63033 -0.124365 0
M  V30 2298 C 219.08 5.72771 -0.268553 0
M  V30 2299 N 218.576 6.91206 -0.46972 0
M  V30 2300 N 220.369 5.61718 -0.2071 0
M  V30 2301 H 212.52 1.8349 -1.06981 0
M  V30 2302 H 214.783 0.848677 -0.422436 0
M  V30 2303 H 214.489 3.36726 -1.0153 0
M  V30 2304 H 214.363 3.70614 0.701808 0
M  V30 2305 H 216.75 2.76787 1.02338 0
M  V30 2306 H 216.831 2.45564 -0.716383 0
M  V30 2307 H 216.475 4.94542 -1.15717 0
M  V30 2308 H 216.405 5.23173 0.599797 0
M  V30 2309 H 218.896 3.7789 0.027011 0
M  V30 2310 H 219.209 7.70693 -0.570212 0
M  V30 2311 H 217.554 6.93156 -0.505876 0
M  V30 2312 H 220.745 4.68072 -0.0507986 0
M  V30 2313 H 220.918 6.47195 -0.322909 0
M  V30 2314 N 214.325 -0.140222 1.56975 0
M  V30 2315 C 215.741 -0.493088 1.51792 0
M  V30 2316 C 215.941 -1.83013 0.843116 0
M  V30 2317 O 214.997 -2.49041 0.416493 0
M  V30 2318 C 216.31 -0.497144 2.96562 0
M  V30 2319 C 217.858 -0.582186 3.07538 0
M  V30 2320 C 218.333 -0.616838 4.53827 0
M  V30 2321 N 219.824 -0.678873 4.58198 0
M  V30 2322 C 220.559 -0.726782 5.68775 0
M  V30 2323 N 220.055 -0.733623 6.88905 0
M  V30 2324 N 221.848 -0.768179 5.56826 0
M  V30 2325 H 213.999 0.736108 1.99237 0
M  V30 2326 H 216.262 0.269182 0.90898 0
M  V30 2327 H 215.968 0.417217 3.49217 0
M  V30 2328 H 215.842 -1.33263 3.52875 0
M  V30 2329 H 218.229 -1.48697 2.54899 0
M  V30 2330 H 218.31 0.280581 2.54257 0
M  V30 2331 H 217.954 0.283812 5.07106 0
M  V30 2332 H 217.884 -1.49619 5.04898 0
M  V30 2333 H 220.375 -0.68061 3.7172 0
M  V30 2334 H 220.688 -0.772215 7.68932 0
M  V30 2335 H 219.033 -0.701389 6.91452 0
M  V30 2336 H 222.224 -0.760051 4.61888 0
M  V30 2337 H 222.397 -0.80205 6.43017 0
M  V30 2338 N 215.803 -1.52179 -0.40978 0
M  V30 2339 C 216.75 -1.75475 -1.49924 0
M  V30 2340 C 217.72 -0.597175 -1.54994 0
M  V30 2341 O 218.905 -0.834655 -1.71575 0
M  V30 2342 C 216.045 -1.9107 -2.87378 0
M  V30 2343 C 215.158 -3.18717 -2.91622 0
M  V30 2344 C 214.293 -3.24747 -4.20372 0
M  V30 2345 C 213.332 -4.46598 -4.18588 0
M  V30 2346 N 212.469 -4.50025 -5.38908 0
M  V30 2347 H 217.309 -2.68458 -1.29361 0
M  V30 2348 H 214.846 -1.33024 -0.627934 0
M  V30 2349 H 216.804 -1.98096 -3.6717 0
M  V30 2350 H 215.434 -1.01469 -3.06437 0
M  V30 2351 H 214.486 -3.20866 -2.04326 0
M  V30 2352 H 215.798 -4.08544 -2.86169 0
M  V30 2353 H 214.952 -3.30841 -5.08556 0
M  V30 2354 H 213.691 -2.32857 -4.28519 0
M  V30 2355 H 212.696 -4.40652 -3.28794 0
M  V30 2356 H 213.921 -5.39783 -4.12081 0
M  V30 2357 H 211.867 -3.61017 -5.47725 0
M  V30 2358 H 211.784 -5.33697 -5.35447 0
M  V30 2359 H 213.052 -4.60347 -6.29048 0
M  V30 2360 N 217.281 0.66697 -1.42791 0
M  V30 2361 C 218.191 1.80962 -1.49299 0
M  V30 2362 C 219.207 1.69775 -0.381108 0
M  V30 2363 O 220.383 1.91188 -0.633188 0
M  V30 2364 C 217.448 3.17156 -1.40045 0
M  V30 2365 C 216.509 3.40242 -2.6179 0
M  V30 2366 C 215.742 4.69939 -2.52969 0
M  V30 2367 O 215.965 5.48372 -1.56985 0
M  V30 2368 O 214.899 4.94441 -3.43237 0
M  V30 2369 H 218.725 1.78427 -2.45759 0
M  V30 2370 H 216.31 0.823713 -1.24641 0
M  V30 2371 H 218.192 3.98413 -1.37276 0
M  V30 2372 H 216.867 3.20312 -0.467138 0
M  V30 2373 H 215.774 2.58802 -2.70134 0
M  V30 2374 H 217.107 3.41923 -3.54047 0
M  V30 2375 N 218.759 1.29093 0.90403 0
M  V30 2376 C 219.669 1.15727 2.0407 0
M  V30 2377 C 220.685 0.0815308 1.73809 0
M  V30 2378 O 221.861 0.292749 1.99261 0
M  V30 2379 C 218.926 0.830424 3.36608 0
M  V30 2380 C 217.987 1.98955 3.80415 0
M  V30 2381 C 217.22 1.6782 5.06628 0
M  V30 2382 O 217.443 0.597105 5.67266 0
M  V30 2383 O 216.377 2.52486 5.46383 0
M  V30 2384 H 220.203 2.11171 2.18267 0
M  V30 2385 H 217.788 1.08504 1.027 0
M  V30 2386 H 219.67 0.662521 4.16159 0
M  V30 2387 H 218.345 -0.0942678 3.23563 0
M  V30 2388 H 217.252 2.21267 3.01648 0
M  V30 2389 H 218.585 2.89529 3.98037 0
M  V30 2390 N 220.237 -1.11381 1.11499 0
M  V30 2391 C 221.17 -2.16621 0.71769 0
M  V30 2392 C 222.148 -1.60058 -0.286413 0
M  V30 2393 O 223.332 -1.87613 -0.182689 0
M  V30 2394 C 220.459 -3.38646 0.0607265 0
M  V30 2395 C 219.505 -4.13874 1.03008 0
M  V30 2396 S 220.338 -4.70731 2.55289 0
M  V30 2397 C 221.494 -5.96079 1.90895 0
M  V30 2398 H 221.727 -2.49987 1.60915 0
M  V30 2399 H 219.26 -1.23015 0.933092 0
M  V30 2400 H 221.218 -4.09313 -0.311965 0
M  V30 2401 H 219.879 -3.03537 -0.807702 0
M  V30 2402 H 219.072 -5.01333 0.517853 0
M  V30 2403 H 218.674 -3.4897 1.34522 0
M  V30 2404 H 220.966 -6.65948 1.24577 0
M  V30 2405 H 221.909 -6.51946 2.76354 0
M  V30 2406 H 222.317 -5.47652 1.36885 0
M  V30 2407 N 221.715 -0.905404 -1.28997 0
M  V30 2408 C 222.964 -0.530191 -1.94607 0
M  V30 2409 C 223.277 0.929185 -1.72121 0
M  V30 2410 O 224.483 1.41218 -2.31883 0
M  V30 2411 C 222.939 -0.897333 -3.48534 0
M  V30 2412 C 222.547 -2.37587 -3.79811 0
M  V30 2413 C 224.291 -0.592304 -4.20347 0
M  V30 2414 C 222.198 -2.68357 -5.27009 0
M  V30 2415 H 221.128 -0.194558 -0.728466 0
M  V30 2416 H 223.779 -1.10318 -1.46636 0
M  V30 2417 H 222.161 -0.253214 -3.9519 0
M  V30 2418 H 223.335 -3.06602 -3.43994 0
M  V30 2419 H 221.65 -2.6505 -3.2115 0
M  V30 2420 H 224.247 -0.798975 -5.28697 0
M  V30 2421 H 224.59 0.469474 -4.13644 0
M  V30 2422 H 225.123 -1.19452 -3.79442 0
M  V30 2423 H 221.862 -3.73355 -5.38782 0
M  V30 2424 H 221.382 -2.03971 -5.64053 0
M  V30 2425 H 223.061 -2.54922 -5.94663 0
M  V30 2426 N 223.193 1.4272 -0.668489 0
M  V30 2427 C 224.609 1.55992 -0.33745 0
M  V30 2428 C 224.809 1.64933 1.15756 0
M  V30 2429 O 223.865 1.61278 1.94282 0
M  V30 2430 C 225.178 2.81314 -1.06222 0
M  V30 2431 C 226.726 2.95078 -1.04394 0
M  V30 2432 C 227.201 4.23252 -1.74991 0
M  V30 2433 N 228.692 4.3015 -1.71829 0
M  V30 2434 C 229.427 5.28127 -2.23315 0
M  V30 2435 N 228.923 6.32293 -2.83156 0
M  V30 2436 N 230.716 5.19882 -2.13726 0
M  V30 2437 H 222.867 1.3516 -1.63846 0
M  V30 2438 H 225.13 0.650174 -0.689912 0
M  V30 2439 H 224.836 2.80823 -2.11734 0
M  V30 2440 H 224.71 3.72012 -0.62344 0
M  V30 2441 H 227.097 2.951 0.0028244 0
M  V30 2442 H 227.178 2.05627 -1.52155 0
M  V30 2443 H 226.822 4.2399 -2.79633 0
M  V30 2444 H 226.752 5.11626 -1.24685 0
M  V30 2445 H 229.243 3.55499 -1.28175 0
M  V30 2446 H 229.556 7.03398 -3.20079 0
M  V30 2447 H 227.901 6.32873 -2.87223 0
M  V30 2448 H 231.092 4.37423 -1.66669 0
M  V30 2449 H 231.265 5.96077 -2.54158 0
M  V30 2450 N 224.671 0.411399 1.52136 0
M  V30 2451 C 225.896 -0.165538 2.06738 0
M  V30 2452 C 226.321 -1.379 1.27926 0
M  V30 2453 O 225.679 -1.78628 0.310114 0
M  V30 2454 C 225.727 -0.492124 3.57226 0
M  V30 2455 O 224.831 -1.58276 3.80818 0
M  V30 2456 H 224.172 -0.0132132 0.663869 0
M  V30 2457 H 226.702 0.585253 1.96051 0
M  V30 2458 H 226.712 -0.750104 4.01045 0
M  V30 2459 H 225.387 0.394922 4.14021 0
M  V30 2460 H 223.964 -1.31677 3.48877 0
M  V30 2461 N 226.149 -1.5696 0.141893 0
M  V30 2462 C 227.079 -2.19516 -0.795936 0
M  V30 2463 C 228.06 -1.14187 -1.26077 0
M  V30 2464 O 229.245 -1.42511 -1.31925 0
M  V30 2465 C 226.375 -2.81272 -2.03723 0
M  V30 2466 C 225.329 -3.92384 -1.70936 0
M  V30 2467 C 224.655 -4.41052 -3.02287 0
M  V30 2468 C 225.955 -5.13403 -0.959954 0
M  V30 2469 H 227.649 -2.98138 -0.274596 0
M  V30 2470 H 225.195 -1.43406 -0.130636 0
M  V30 2471 H 227.148 -3.237 -2.69808 0
M  V30 2472 H 225.872 -1.99973 -2.58221 0
M  V30 2473 H 224.531 -3.50566 -1.07232 0
M  V30 2474 H 224.179 -3.56582 -3.54765 0
M  V30 2475 H 223.879 -5.15993 -2.81114 0
M  V30 2476 H 225.403 -4.86146 -3.69451 0
M  V30 2477 H 226.817 -5.52706 -1.52279 0
M  V30 2478 H 225.214 -5.94073 -0.848357 0
M  V30 2479 H 226.284 -4.84875 0.0492434 0
M  V30 2480 N 227.627 0.131896 -1.57047 0
M  V30 2481 C 228.559 1.1878 -1.9602 0
M  V30 2482 C 229.572 1.38363 -0.857875 0
M  V30 2483 O 230.761 1.37666 -1.13623 0
M  V30 2484 C 227.861 2.55008 -2.23213 0
M  V30 2485 C 227.034 2.56201 -3.54513 0
M  V30 2486 C 226.093 3.7408 -3.70069 0
M  V30 2487 O 225.119 3.58258 -4.42312 0
M  V30 2488 N 226.321 4.92137 -3.07866 0
M  V30 2489 H 229.086 0.85639 -2.87204 0
M  V30 2490 H 226.647 0.321309 -1.5868 0
M  V30 2491 H 228.639 3.32404 -2.30846 0
M  V30 2492 H 227.209 2.80382 -1.3822 0
M  V30 2493 H 226.429 1.64613 -3.58185 0
M  V30 2494 H 227.717 2.54043 -4.4084 0
M  V30 2495 H 227.115 5.07895 -2.49116 0
M  V30 2496 H 225.672 5.67254 -3.21039 0
M  V30 2497 N 229.106 1.52395 0.401703 0
M  V30 2498 C 230.038 1.72505 1.50912 0
M  V30 2499 C 231.051 0.605468 1.51122 0
M  V30 2500 O 232.24 0.880828 1.55254 0
M  V30 2501 C 229.34 1.75711 2.89791 0
M  V30 2502 C 228.513 3.04824 3.1369 0
M  V30 2503 C 227.572 2.99743 4.32482 0
M  V30 2504 O 226.598 3.73635 4.29402 0
M  V30 2505 N 227.8 2.18047 5.37992 0
M  V30 2506 H 230.565 2.68049 1.34052 0
M  V30 2507 H 228.126 1.50724 0.591084 0
M  V30 2508 H 230.118 1.69834 3.6734 0
M  V30 2509 H 228.688 0.876092 3.00072 0
M  V30 2510 H 227.908 3.2429 2.24119 0
M  V30 2511 H 229.196 3.90221 3.26504 0
M  V30 2512 H 228.594 1.57456 5.43345 0
M  V30 2513 H 227.151 2.18021 6.14256 0
M  V30 2514 N 230.584 -0.659388 1.43143 0
M  V30 2515 C 232 -0.974337 1.26407 0
M  V30 2516 C 232.2 -2.007 0.179341 0
M  V30 2517 O 231.256 -2.4856 -0.444295 0
M  V30 2518 C 232.569 -1.46447 2.62628 0
M  V30 2519 C 234.117 -1.58144 2.7011 0
M  V30 2520 C 234.592 -2.1055 4.06734 0
M  V30 2521 N 236.083 -2.17861 4.08767 0
M  V30 2522 C 236.818 -2.59519 5.1131 0
M  V30 2523 N 236.314 -3.00518 6.24228 0
M  V30 2524 N 238.107 -2.59404 4.98664 0
M  V30 2525 H 230.258 0.0240528 2.12386 0
M  V30 2526 H 232.521 -0.0518065 0.946583 0
M  V30 2527 H 232.227 -0.780123 3.42939 0
M  V30 2528 H 232.101 -2.44058 2.87603 0
M  V30 2529 H 234.488 -2.25682 1.90136 0
M  V30 2530 H 234.569 -0.589828 2.48907 0
M  V30 2531 H 234.213 -1.43616 4.87172 0
M  V30 2532 H 234.143 -3.10531 4.25298 0
M  V30 2533 H 236.634 -1.88975 3.27257 0
M  V30 2534 H 236.947 -3.31036 6.98309 0
M  V30 2535 H 235.292 -2.98337 6.2771 0
M  V30 2536 H 238.483 -2.26747 4.09516 0
M  V30 2537 H 238.656 -2.91548 5.78709 0
M  V30 2538 N 232.062 -1.29571 -0.897171 0
M  V30 2539 C 233.473 -1.15964 -1.46319 0
M  V30 2540 C 233.824 0.244267 -1.94674 0
M  V30 2541 O 232.949 1.13998 -1.83939 0
M  V30 2542 C 233.544 -2.09906 -2.65942 0
M  V30 2543 C 232.103 -2.00314 -3.18671 0
M  V30 2544 C 231.25 -2.00687 -1.91363 0
M  V30 2545 H 234.201 -1.42019 -0.708268 0
M  V30 2546 H 234.222 -1.67276 -3.41759 0
M  V30 2547 H 233.734 -3.12075 -2.30718 0
M  V30 2548 H 231.835 -1.01242 -3.58582 0
M  V30 2549 H 231.948 -2.88102 -3.82798 0
M  V30 2550 H 230.312 -1.45319 -2.09175 0
M  V30 2551 H 231.095 -3.04566 -1.58413 0
M  V30 2552 N 233.54 1.10788 -1.12088 0
M  V30 2553 C 234.45 2.20599 -0.798338 0
M  V30 2554 C 235.466 1.72712 0.21135 0
M  V30 2555 O 236.642 2.01348 0.0458477 0
M  V30 2556 C 233.707 3.45771 -0.253674 0
M  V30 2557 C 232.768 4.08411 -1.32283 0
M  V30 2558 C 232.001 5.27608 -0.80406 0
M  V30 2559 O 232.224 5.69241 0.363478 0
M  V30 2560 O 231.158 5.8101 -1.57198 0
M  V30 2561 H 234.984 2.50614 -1.7154 0
M  V30 2562 H 232.569 1.19454 -0.897275 0
M  V30 2563 H 234.451 4.21376 0.0453691 0
M  V30 2564 H 233.126 3.1739 0.636005 0
M  V30 2565 H 232.033 3.34507 -1.67499 0
M  V30 2566 H 233.366 4.40986 -2.18614 0
M  V30 2567 N 235.018 0.912232 1.28515 0
M  V30 2568 C 236.429 0.591352 1.77087 0
M  V30 2569 C 236.78 -0.8933 1.74684 0
M  V30 2570 O 235.905 -1.69876 1.34056 0
M  V30 2571 C 236.5 1.06668 3.2157 0
M  V30 2572 C 235.059 0.79675 3.67871 0
M  V30 2573 C 234.206 1.23427 2.48316 0
M  V30 2574 H 237.157 1.09365 1.15 0
M  V30 2575 H 237.178 0.407455 3.78312 0
M  V30 2576 H 236.69 2.14726 3.23287 0
M  V30 2577 H 234.791 -0.270679 3.71616 0
M  V30 2578 H 234.904 1.40343 4.58084 0
M  V30 2579 H 233.268 0.653036 2.46186 0
M  V30 2580 H 234.051 2.32316 2.52753 0
M  V30 2581 N 236.496 -1.42363 0.676048 0
M  V30 2582 C 237.724 -2.05859 0.207268 0
M  V30 2583 C 238.139 -1.50796 -1.13605 0
M  V30 2584 O 237.496 -0.648265 -1.70598 0
M  V30 2585 C 237.547 -3.61248 0.134975 0
M  V30 2586 O 237.268 -4.1427 1.42521 0
M  V30 2587 C 238.769 -4.41859 -0.357151 0
M  V30 2588 H 235.989 -0.663431 0.100503 0
M  V30 2589 H 238.533 -1.82479 0.923136 0
M  V30 2590 H 236.688 -3.83735 -0.531588 0
M  V30 2591 H 237.102 -5.0815 1.29939 0
M  V30 2592 H 238.576 -5.50847 -0.356641 0
M  V30 2593 H 239.053 -4.16536 -1.39264 0
M  V30 2594 H 239.659 -4.24392 0.27772 0
M  V30 2595 N 237.974 -0.419461 -1.51915 0
M  V30 2596 C 239.385 0.0477853 -1.86639 0
M  V30 2597 C 239.736 1.43531 -1.33766 0
M  V30 2598 O 238.861 2.05401 -0.68113 0
M  V30 2599 C 239.456 0.0934885 -3.38671 0
M  V30 2600 C 238.015 0.505097 -3.72996 0
M  V30 2601 C 237.162 -0.313792 -2.75519 0
M  V30 2602 H 240.113 -0.636088 -1.45395 0
M  V30 2603 H 240.134 0.906667 -3.6954 0
M  V30 2604 H 239.646 -0.916501 -3.77123 0
M  V30 2605 H 237.747 1.52135 -3.40126 0
M  V30 2606 H 237.86 0.242309 -4.78487 0
M  V30 2607 H 236.224 0.225363 -2.53701 0
M  V30 2608 H 237.007 -1.32232 -3.16812 0
M  V30 2609 N 239.452 1.56882 -0.150215 0
M  V30 2610 C 240.362 2.20494 0.801222 0
M  V30 2611 C 241.378 1.19019 1.26927 0
M  V30 2612 O 242.554 1.51607 1.32579 0
M  V30 2613 C 239.619 2.81659 2.02161 0
M  V30 2614 C 238.68 3.9827 1.60249 0
M  V30 2615 C 237.913 4.56508 2.7647 0
M  V30 2616 O 238.136 4.13627 3.92771 0
M  V30 2617 O 237.07 5.46719 2.51757 0
M  V30 2618 H 240.896 3.02315 0.289717 0
M  V30 2619 H 238.481 1.49202 0.0769684 0
M  V30 2620 H 240.363 3.20522 2.73576 0
M  V30 2621 H 239.038 2.02849 2.52258 0
M  V30 2622 H 237.945 3.64117 0.858477 0
M  V30 2623 H 239.278 4.78609 1.14864 0
M  V30 2624 N 240.93 -0.123565 1.57115 0
M  V30 2625 C 241.84 -1.17074 2.033 0
M  V30 2626 C 242.856 -1.4561 0.952559 0
M  V30 2627 O 244.032 -1.56817 1.26374 0
M  V30 2628 C 241.097 -2.47857 2.42421 0
M  V30 2629 C 240.158 -2.26758 3.64526 0
M  V30 2630 C 239.391 -3.51305 4.01771 0
M  V30 2631 O 239.614 -4.5843 3.39409 0
M  V30 2632 O 238.548 -3.42578 4.94898 0
M  V30 2633 H 242.374 -0.808555 2.92739 0
M  V30 2634 H 239.959 -0.334027 1.45618 0
M  V30 2635 H 241.841 -3.2492 2.68338 0
M  V30 2636 H 240.516 -2.83558 1.5613 0
M  V30 2637 H 239.423 -1.47569 3.43765 0
M  V30 2638 H 240.756 -1.95963 4.51508 0
M  V30 2639 N 242.408 -1.52605 -0.393616 0
M  V30 2640 C 243.654 -1.68624 -1.13743 0
M  V30 2641 C 244.009 -0.418687 -1.87789 0
M  V30 2642 O 243.302 0.58747 -1.82371 0
M  V30 2643 C 243.496 -2.85721 -2.14705 0
M  V30 2644 C 243.325 -4.23742 -1.50575 0
M  V30 2645 C 242.095 -4.89033 -1.2718 0
M  V30 2646 C 244.293 -5.05293 -0.958311 0
M  V30 2647 N 242.275 -6.11048 -0.591058 0
M  V30 2648 C 243.646 -6.18673 -0.405367 0
M  V30 2649 C 245.701 -4.90517 -0.854274 0
M  V30 2650 C 244.404 -7.18895 0.241434 0
M  V30 2651 C 246.43 -5.90986 -0.221301 0
M  V30 2652 C 245.792 -7.03669 0.320894 0
M  V30 2653 H 241.891 -0.670556 -0.402342 0
M  V30 2654 H 244.475 -1.89946 -0.427607 0
M  V30 2655 H 242.646 -2.65987 -2.83029 0
M  V30 2656 H 244.378 -2.90699 -2.8156 0
M  V30 2657 H 241.133 -4.47672 -1.54554 0
M  V30 2658 H 241.557 -6.76474 -0.266862 0
M  V30 2659 H 246.199 -4.03612 -1.25926 0
M  V30 2660 H 243.917 -8.05413 0.658448 0
M  V30 2661 H 247.503 -5.81626 -0.142111 0
M  V30 2662 H 246.383 -7.80078 0.802956 0
M  V30 2663 N 243.887 0.651787 -1.4349 0
M  V30 2664 C 245.164 1.40909 -1.35661 0
M  V30 2665 C 245.544 2.11099 -0.00511733 0
M  V30 2666 O 244.892 2.04892 1.0115 0
M  V30 2667 C 245.102 2.3926 -2.54078 0
M  V30 2668 C 246.45 3.03217 -2.97228 0
M  V30 2669 O 247.474 2.49588 -2.54135 0
M  V30 2670 O 246.333 4.00455 -3.71885 0
M  V30 2671 H 243.427 0.629625 -0.536191 0
M  V30 2672 H 245.973 0.678575 -1.55542 0
M  V30 2673 H 244.745 1.86352 -3.44076 0
M  V30 2674 H 244.368 3.1976 -2.36303 0
M  V30 2675 N 245.365 1.30045 0.890287 0
M  V30 2676 C 246.295 1.18541 2.01172 0
M  V30 2677 C 247.276 0.0773356 1.69924 0
M  V30 2678 O 248.461 0.25845 1.92473 0
M  V30 2679 C 245.591 0.870941 3.36202 0
M  V30 2680 C 244.545 1.93637 3.81692 0
M  V30 2681 C 243.871 1.475 5.13953 0
M  V30 2682 C 245.171 3.34666 4.00994 0
M  V30 2683 H 246.865 2.12359 2.11054 0
M  V30 2684 H 244.411 1.02238 1.01407 0
M  V30 2685 H 246.364 0.777141 4.14172 0
M  V30 2686 H 245.088 -0.102926 3.26438 0
M  V30 2687 H 243.747 2.01972 3.05946 0
M  V30 2688 H 243.395 0.489551 5.00612 0
M  V30 2689 H 243.095 2.1876 5.4536 0
M  V30 2690 H 244.619 1.39489 5.94454 0
M  V30 2691 H 246.033 3.2912 4.69417 0
M  V30 2692 H 244.43 4.03966 4.43769 0
M  V30 2693 H 245.5 3.76949 3.05021 0
M  V30 2694 N 246.843 -1.10192 1.12674 0
M  V30 2695 C 248.092 -1.81573 0.8783 0
M  V30 2696 C 248.405 -1.86249 -0.597557 0
M  V30 2697 O 249.611 -2.5386 -0.962681 0
M  V30 2698 C 248.067 -3.26149 1.52167 0
M  V30 2699 C 247.675 -3.29763 3.03249 0
M  V30 2700 C 249.419 -4.0234 1.3536 0
M  V30 2701 C 247.326 -4.68815 3.60508 0
M  V30 2702 H 246.256 -0.680394 0.324931 0
M  V30 2703 H 248.907 -1.23902 1.35353 0
M  V30 2704 H 247.289 -3.83832 0.974104 0
M  V30 2705 H 248.463 -2.8189 3.6452 0
M  V30 2706 H 246.778 -2.67059 3.19481 0
M  V30 2707 H 249.375 -5.05058 1.75559 0
M  V30 2708 H 249.718 -4.15235 0.297554 0
M  V30 2709 H 250.251 -3.51079 1.87052 0
M  V30 2710 H 246.99 -4.61121 4.65884 0
M  V30 2711 H 246.51 -5.17045 3.04014 0
M  V30 2712 H 248.189 -5.37785 3.59717 0
M  V30 2713 N 248.321 -0.919034 -1.28029 0
M  V30 2714 C 249.271 -0.382574 -2.24767 0
M  V30 2715 C 250.255 0.508286 -1.52661 0
M  V30 2716 O 251.447 0.347145 -1.73562 0
M  V30 2717 C 248.576 0.371432 -3.41285 0
M  V30 2718 C 247.662 -0.535449 -4.20706 0
M  V30 2719 N 248.053 -1.65141 -4.78082 0
M  V30 2720 C 246.351 -0.336824 -4.44726 0
M  V30 2721 C 247.052 -2.21475 -5.37888 0
M  V30 2722 N 246.028 -1.50537 -5.22341 0
M  V30 2723 H 249.83 -1.23477 -2.66703 0
M  V30 2724 H 247.344 -0.772299 -1.42861 0
M  V30 2725 H 249.341 0.772638 -4.09678 0
M  V30 2726 H 248.001 1.22066 -3.00882 0
M  V30 2727 H 249.012 -2.03392 -4.7629 0
M  V30 2728 H 245.689 0.47246 -4.14818 0
M  V30 2729 H 247.079 -3.15379 -5.93284 0
M  V30 2730 N 249.799 1.42003 -0.683588 0
M  V30 2731 C 251.048 2.00638 -0.206681 0
M  V30 2732 C 251.361 1.5472 1.19671 0
M  V30 2733 O 252.567 2.05833 1.77045 0
M  V30 2734 C 251.023 3.58487 -0.318632 0
M  V30 2735 C 250.631 4.1339 -1.72663 0
M  V30 2736 C 252.375 4.24384 0.0991141 0
M  V30 2737 C 250.282 5.63633 -1.79087 0
M  V30 2738 H 249.212 0.750408 -0.0735107 0
M  V30 2739 H 251.863 1.62624 -0.850048 0
M  V30 2740 H 250.245 3.94047 0.392781 0
M  V30 2741 H 251.419 3.89273 -2.46583 0
M  V30 2742 H 249.734 3.59976 -2.09299 0
M  V30 2743 H 252.331 5.34652 0.0713833 0
M  V30 2744 H 252.674 4.00505 1.13586 0
M  V30 2745 H 253.207 3.93816 -0.561599 0
M  V30 2746 H 249.946 5.92323 -2.80774 0
M  V30 2747 H 249.466 5.89714 -1.09535 0
M  V30 2748 H 251.145 6.28201 -1.5483 0
M  V30 2749 N 251.277 0.427512 1.51691 0
M  V30 2750 C 252.24 -0.377132 2.26076 0
M  V30 2751 C 253.24 -0.958089 1.29141 0
M  V30 2752 O 254.43 -0.83408 1.52934 0
M  V30 2753 C 251.562 -1.53262 3.04506 0
M  V30 2754 H 252.755 0.27464 2.9864 0
M  V30 2755 H 250.308 0.180445 1.55255 0
M  V30 2756 H 251.043 -2.22072 2.36335 0
M  V30 2757 H 250.828 -1.12232 3.75694 0
M  V30 2758 H 252.318 -2.10135 3.60878 0
M  V30 2759 N 252.755 -1.56801 0.158532 0
M  V30 2760 C 253.983 -2.00859 -0.496303 0
M  V30 2761 C 254.398 -1.03871 -1.57659 0
M  V30 2762 O 253.755 -0.0375165 -1.82461 0
M  V30 2763 C 253.806 -3.4479 -1.08638 0
M  V30 2764 O 253.527 -4.38072 -0.0492322 0
M  V30 2765 C 255.028 -4.04185 -1.8207 0
M  V30 2766 H 252.248 -0.65864 -0.128199 0
M  V30 2767 H 254.792 -2.02885 0.256506 0
M  V30 2768 H 252.947 -3.43579 -1.78975 0
M  V30 2769 H 253.361 -5.2227 -0.483102 0
M  V30 2770 H 254.835 -5.06857 -2.18633 0
M  V30 2771 H 255.312 -3.45549 -2.71095 0
M  V30 2772 H 255.918 -4.0906 -1.16405 0
M  V30 2773 N 254.233 0.115231 -1.57178 0
M  V30 2774 C 255.143 1.15994 -2.03918 0
M  V30 2775 C 256.159 1.45103 -0.960268 0
M  V30 2776 O 257.335 1.56144 -1.27204 0
M  V30 2777 C 254.4 2.46568 -2.43732 0
M  V30 2778 C 253.461 2.24822 -3.65723 0
M  V30 2779 C 252.694 3.4917 -4.03629 0
M  V30 2780 O 252.917 4.56623 -3.41835 0
M  V30 2781 O 251.851 3.39949 -4.96708 0
M  V30 2782 H 255.677 0.793019 -2.93164 0
M  V30 2783 H 253.262 0.3263 -1.45793 0
M  V30 2784 H 255.144 3.23492 -2.70057 0
M  V30 2785 H 253.819 2.82726 -1.57631 0
M  V30 2786 H 252.726 1.45744 -3.44542 0
M  V30 2787 H 254.059 1.93566 -4.52541 0
M  V30 2788 N 255.711 1.52812 0.385517 0
M  V30 2789 C 256.674 1.77188 1.45386 0
M  V30 2790 C 257.674 0.641953 1.4743 0
M  V30 2791 O 258.864 0.910033 1.4854 0
M  V30 2792 C 255.996 1.87582 2.8465 0
M  V30 2793 H 257.189 2.72583 1.25054 0
M  V30 2794 H 254.742 1.43586 0.617467 0
M  V30 2795 H 255.477 0.941849 3.10322 0
M  V30 2796 H 255.262 2.69748 2.84567 0
M  V30 2797 H 256.752 2.08102 3.62054 0
M  V30 2798 N 257.189 -0.644168 1.43834 0
M  V30 2799 C 258.139 -1.7501 1.46135 0
M  V30 2800 C 259.123 -1.57507 0.328685 0
M  V30 2801 O 260.315 -1.67465 0.5731 0
M  V30 2802 C 257.444 -3.13641 1.39585 0
M  V30 2803 C 256.53 -3.3666 2.57916 0
M  V30 2804 N 256.921 -3.30107 3.83227 0
M  V30 2805 C 255.219 -3.67411 2.52834 0
M  V30 2806 C 255.92 -3.53456 4.61999 0
M  V30 2807 N 254.896 -3.75705 3.9287 0
M  V30 2808 H 258.698 -1.68382 2.40883 0
M  V30 2809 H 256.212 -0.846169 1.38614 0
M  V30 2810 H 258.209 -3.92933 1.39317 0
M  V30 2811 H 256.869 -3.21444 0.45865 0
M  V30 2812 H 257.88 -3.09316 4.15384 0
M  V30 2813 H 254.557 -3.82275 1.67845 0
M  V30 2814 H 255.947 -3.54093 5.71024 0
M  V30 2815 N 258.668 -1.30515 -0.883378 0
M  V30 2816 C 260.084 -1.08881 -1.16692 0
M  V30 2817 C 260.284 0.149409 -2.00945 0
M  V30 2818 O 259.34 0.84257 -2.38027 0
M  V30 2819 C 260.653 -2.35319 -1.87204 0
M  V30 2820 C 262.201 -2.40799 -1.99962 0
M  V30 2821 C 262.676 -3.67083 -2.73887 0
M  V30 2822 N 264.167 -3.679 -2.81432 0
M  V30 2823 C 264.902 -4.62303 -3.3921 0
M  V30 2824 N 264.398 -5.67052 -3.98025 0
M  V30 2825 N 266.191 -4.49845 -3.3704 0
M  V30 2826 H 258.342 -2.09951 -0.321633 0
M  V30 2827 H 260.605 -0.92556 -0.205043 0
M  V30 2828 H 260.311 -3.25689 -1.3274 0
M  V30 2829 H 260.185 -2.44089 -2.87577 0
M  V30 2830 H 262.572 -1.50907 -2.53597 0
M  V30 2831 H 262.653 -2.36003 -0.98673 0
M  V30 2832 H 262.297 -4.57334 -2.20925 0
M  V30 2833 H 262.227 -3.69141 -3.75556 0
M  V30 2834 H 264.718 -2.92171 -2.39676 0
M  V30 2835 H 265.031 -6.35184 -4.40183 0
M  V30 2836 H 263.376 -5.70842 -3.96439 0
M  V30 2837 H 266.567 -3.67194 -2.90321 0
M  V30 2838 H 266.74 -5.23597 -3.81772 0
M  V30 2839 N 260.146 1.09593 -1.13257 0
M  V30 2840 C 261.371 1.8604 -0.916732 0
M  V30 2841 C 261.796 1.80504 0.529146 0
M  V30 2842 O 261.154 1.18127 1.37534 0
M  V30 2843 C 261.202 3.32017 -1.40703 0
M  V30 2844 O 260.306 4.08141 -0.591153 0
M  V30 2845 H 259.647 0.576943 -0.328683 0
M  V30 2846 H 262.177 1.38405 -1.50682 0
M  V30 2847 H 262.187 3.82865 -1.4099 0
M  V30 2848 H 260.862 3.35361 -2.45979 0
M  V30 2849 H 259.439 3.67084 -0.656005 0
M  V30 2850 N 261.624 0.925811 1.2754 0
M  V30 2851 C 262.852 0.581509 1.9856 0
M  V30 2852 C 263.267 -0.840041 1.69082 0
M  V30 2853 O 262.624 -1.55805 0.950312 0
M  V30 2854 C 262.675 0.795589 3.52637 0
M  V30 2855 O 262.396 2.16121 3.81082 0
M  V30 2856 C 263.897 0.459744 4.4091 0
M  V30 2857 H 261.117 0.220538 0.633722 0
M  V30 2858 H 263.661 1.24232 1.6244 0
M  V30 2859 H 261.816 0.18161 3.86974 0
M  V30 2860 H 262.23 2.2098 4.75676 0
M  V30 2861 H 263.704 0.660244 5.48037 0
M  V30 2862 H 264.181 -0.604625 4.35018 0
M  V30 2863 H 264.787 1.05178 4.12089 0
M  V30 2864 N 263.102 -1.41638 0.69111 0
M  V30 2865 C 264.05 -2.32597 0.0115199 0
M  V30 2866 C 265.044 -1.5072 -0.773296 0
M  V30 2867 O 266.25 -1.66685 -0.67942 0
M  V30 2868 H 262.625 -0.751849 -0.0150746 0
M  V30 2869 H 264.596 -2.87593 0.795791 0
M  V30 2870 C 263.345 -3.35467 -0.914172 0
M  V30 2871 H 262.668 -3.9852 -0.319687 0
M  V30 2872 H 264.108 -4.01662 -1.35808 0
M  V30 2873 C 262.567 -2.69004 -2.02826 0
M  V30 2874 O 263.097 -2.53444 -3.11655 0
M  V30 2875 N 261.303 -2.2777 -1.80469 0
M  V30 2876 H 260.85 -2.40626 -0.919615 0
M  V30 2877 H 260.808 -1.83635 -2.55197 0
M  V30 2878 N 264.58 -0.43555 -1.51462 0
M  V30 2879 C 265.543 0.365137 -2.26273 0
M  V30 2880 C 266.543 0.951227 -1.29647 0
M  V30 2881 O 267.733 0.825958 -1.53374 0
M  V30 2882 C 264.865 1.51645 -3.05314 0
M  V30 2883 H 266.058 -0.290474 -2.9849 0
M  V30 2884 H 263.611 -0.188676 -1.55157 0
M  V30 2885 H 264.346 2.20816 -2.3751 0
M  V30 2886 H 264.131 1.10238 -3.76284 0
M  V30 2887 H 265.621 2.08218 -3.61987 0
M  V30 2888 N 266.058 1.56714 -0.166846 0
M  V30 2889 C 266.99 2.14914 0.796537 0
M  V30 2890 C 268.003 1.10357 1.19688 0
M  V30 2891 O 269.192 1.37561 1.13751 0
M  V30 2892 C 266.292 2.67326 2.08303 0
M  V30 2893 C 265.465 3.96493 1.84696 0
M  V30 2894 C 264.524 4.34014 2.97521 0
M  V30 2895 O 263.55 5.01973 2.6835 0
M  V30 2896 N 264.752 3.95208 4.25196 0
M  V30 2897 H 267.517 2.98205 0.299006 0
M  V30 2898 H 265.078 1.61892 0.0160839 0
M  V30 2899 H 267.07 2.89428 2.82867 0
M  V30 2900 H 265.64 1.88649 2.4926 0
M  V30 2901 H 264.86 3.82814 0.940602 0
M  V30 2902 H 266.148 4.8086 1.66285 0
M  V30 2903 H 265.546 3.40487 4.51758 0
M  V30 2904 H 264.103 4.2232 4.96477 0
M  V30 2905 N 267.536 -0.106894 1.57237 0
M  V30 2906 C 268.784 -0.810921 1.85117 0
M  V30 2907 C 269.105 -1.7984 0.753827 0
M  V30 2908 O 268.375 -1.94649 -0.221056 0
M  V30 2909 H 266.955 -0.302466 0.683025 0
M  V30 2910 H 269.617 -0.0913324 1.94686 0
M  V30 2911 H 268.713 -1.34875 2.81452 0
M  V30 2912 N 269.014 -1.53014 -0.377408 0
M  V30 2913 C 270.239 -1.72818 -1.14668 0
M  V30 2914 C 270.664 -0.450725 -1.8262 0
M  V30 2915 O 270.022 0.59439 -1.7128 0
M  V30 2916 C 270.07 -2.88627 -2.16164 0
M  V30 2917 O 269.174 -2.56409 -3.22998 0
M  V30 2918 H 268.515 -0.574301 -0.333278 0
M  V30 2919 H 271.045 -1.99853 -0.438152 0
M  V30 2920 H 271.055 -3.14455 -2.59966 0
M  V30 2921 H 269.73 -3.81294 -1.66095 0
M  V30 2922 H 268.307 -2.4136 -2.84253 0
M  V30 2923 N 270.492 0.636531 -1.44174 0
M  V30 2924 C 271.442 1.74233 -1.47061 0
M  V30 2925 C 272.426 1.57331 -0.337034 0
M  V30 2926 O 273.618 1.67159 -0.581973 0
M  V30 2927 C 270.747 3.12897 -1.41246 0
M  V30 2928 C 269.833 3.35288 -2.59698 0
M  V30 2929 N 270.224 3.2807 -3.84972 0
M  V30 2930 C 268.522 3.66065 -2.54778 0
M  V30 2931 C 269.223 3.51001 -4.63867 0
M  V30 2932 N 268.199 3.73616 -3.94857 0
M  V30 2933 H 272.001 1.67103 -2.41773 0
M  V30 2934 H 269.515 0.838806 -1.3906 0
M  V30 2935 H 271.512 3.92189 -1.41398 0
M  V30 2936 H 270.172 3.21197 -0.47569 0
M  V30 2937 H 271.183 3.07109 -4.17019 0
M  V30 2938 H 267.86 3.81379 -1.6987 0
M  V30 2939 H 269.25 3.51059 -5.72894 0
M  V30 2940 N 271.97 1.30982 0.876444 0
M  V30 2941 C 273.216 1.21484 1.63136 0
M  V30 2942 C 273.571 -0.226339 1.91064 0
M  V30 2943 O 272.864 -1.15788 1.52656 0
M  V30 2944 C 273.058 1.98572 2.9716 0
M  V30 2945 C 272.887 3.50039 2.82317 0
M  V30 2946 C 271.657 4.19393 2.81847 0
M  V30 2947 C 273.855 4.45111 2.57644 0
M  V30 2948 N 271.837 5.57061 2.57985 0
M  V30 2949 C 273.208 5.70402 2.42986 0
M  V30 2950 C 275.263 4.3461 2.42937 0
M  V30 2951 C 273.966 6.8638 2.15115 0
M  V30 2952 C 275.992 5.50365 2.16454 0
M  V30 2953 C 275.354 6.74642 2.02578 0
M  V30 2954 H 271.453 0.499632 0.601575 0
M  V30 2955 H 274.037 1.65094 1.03209 0
M  V30 2956 H 272.208 1.5734 3.55104 0
M  V30 2957 H 273.94 1.81146 3.61895 0
M  V30 2958 H 270.695 3.71303 2.93991 0
M  V30 2959 H 271.119 6.29529 2.49043 0
M  V30 2960 H 275.761 3.39199 2.52396 0
M  V30 2961 H 273.479 7.81824 2.04394 0
M  V30 2962 H 277.065 5.44154 2.05884 0
M  V30 2963 H 275.945 7.62699 1.82374 0
M  V30 2964 N 273.449 -1.08991 1.13837 0
M  V30 2965 C 274.396 -2.15748 0.819835 0
M  V30 2966 C 275.366 -1.64636 -0.220026 0
M  V30 2967 O 276.551 -1.90582 -0.0912757 0
M  V30 2968 C 273.691 -3.4382 0.296913 0
M  V30 2969 C 272.804 -4.0881 1.39636 0
M  V30 2970 C 271.939 -5.24655 0.831314 0
M  V30 2971 C 270.978 -5.81575 1.90886 0
M  V30 2972 N 270.115 -6.88774 1.36142 0
M  V30 2973 H 274.955 -2.42338 1.73426 0
M  V30 2974 H 272.492 -1.18935 0.865613 0
M  V30 2975 H 274.45 -4.17193 -0.0244339 0
M  V30 2976 H 273.08 -3.17535 -0.580628 0
M  V30 2977 H 272.132 -3.33258 1.83422 0
M  V30 2978 H 273.444 -4.47141 2.21058 0
M  V30 2979 H 272.598 -6.04942 0.461515 0
M  V30 2980 H 271.337 -4.87698 -0.013932 0
M  V30 2981 H 270.342 -4.99946 2.28767 0
M  V30 2982 H 271.567 -6.20592 2.75758 0
M  V30 2983 H 269.513 -6.53788 0.538254 0
M  V30 2984 H 269.43 -7.25898 2.11208 0
M  V30 2985 H 270.698 -7.72806 1.01933 0
M  V30 2986 N 274.927 -0.932562 -1.27047 0
M  V30 2987 C 275.859 -0.392734 -2.2581 0
M  V30 2988 C 276.872 0.479241 -1.55586 0
M  V30 2989 O 278.061 0.291078 -1.76111 0
M  V30 2990 C 275.161 0.455456 -3.35826 0
M  V30 2991 C 274.334 -0.398355 -4.35582 0
M  V30 2992 C 273.393 0.387985 -5.24768 0
M  V30 2993 O 272.419 -0.206003 -5.68827 0
M  V30 2994 N 273.621 1.68664 -5.55457 0
M  V30 2995 H 276.386 -1.24173 -2.72766 0
M  V30 2996 H 273.947 -0.800511 -1.40725 0
M  V30 2997 H 275.939 0.988692 -3.92437 0
M  V30 2998 H 274.509 1.20522 -2.88432 0
M  V30 2999 H 273.729 -1.11286 -3.78165 0
M  V30 3000 H 275.017 -0.981889 -4.99236 0
M  V30 3001 H 274.415 2.19147 -5.21528 0
M  V30 3002 H 272.972 2.1663 -6.14748 0
M  V30 3003 N 276.405 1.4127 -0.698611 0
M  V30 3004 C 277.821 1.55241 -0.370462 0
M  V30 3005 C 278.021 1.67351 1.12231 0
M  V30 3006 O 277.077 1.65363 1.90818 0
M  V30 3007 C 278.39 2.78997 -1.12165 0
M  V30 3008 C 279.938 2.92797 -1.1063 0
M  V30 3009 C 280.413 4.19445 -1.8393 0
M  V30 3010 N 281.904 4.26409 -1.80914 0
M  V30 3011 C 282.639 5.23271 -2.34467 0
M  V30 3012 N 282.135 6.26145 -2.96504 0
M  V30 3013 N 283.928 5.15232 -2.24706 0
M  V30 3014 H 276.079 1.31654 -1.66676 0
M  V30 3015 H 278.342 0.635393 -0.703548 0
M  V30 3016 H 278.048 2.76268 -2.17644 0
M  V30 3017 H 277.922 3.70606 -0.702209 0
M  V30 3018 H 280.309 2.95039 -0.0597713 0
M  V30 3019 H 280.39 2.02353 -1.56483 0
M  V30 3020 H 280.034 4.17964 -2.88563 0
M  V30 3021 H 279.964 5.08866 -1.35509 0
M  V30 3022 H 282.455 3.527 -1.35687 0
M  V30 3023 H 282.768 6.96451 -3.34927 0
M  V30 3024 H 281.113 6.26638 -3.00583 0
M  V30 3025 H 284.304 4.33789 -1.7591 0
M  V30 3026 H 284.477 5.90552 -2.66745 0
M  V30 3027 N 277.883 0.443576 1.51229 0
M  V30 3028 C 279.299 0.0962001 1.5931 0
M  V30 3029 C 279.499 -1.39501 1.45402 0
M  V30 3030 O 278.555 -2.16557 1.29843 0
M  V30 3031 C 279.868 0.621875 2.94199 0
M  V30 3032 C 281.416 0.582865 3.07525 0
M  V30 3033 C 281.891 1.08562 4.44948 0
M  V30 3034 N 283.382 1.04387 4.51284 0
M  V30 3035 C 284.117 1.40368 5.55954 0
M  V30 3036 N 283.613 1.83664 6.68011 0
M  V30 3037 N 285.406 1.32145 5.46346 0
M  V30 3038 H 277.557 1.41376 1.58514 0
M  V30 3039 H 279.82 0.582965 0.747567 0
M  V30 3040 H 279.526 1.66546 3.09767 0
M  V30 3041 H 279.4 0.0502125 3.77167 0
M  V30 3042 H 281.787 -0.451749 2.91622 0
M  V30 3043 H 281.868 1.191 2.26382 0
M  V30 3044 H 281.512 2.11873 4.61598 0
M  V30 3045 H 281.442 0.453956 5.2464 0
M  V30 3046 H 283.933 0.725986 3.70861 0
M  V30 3047 H 284.246 2.0934 7.43906 0
M  V30 3048 H 282.591 1.87596 6.69203 0
M  V30 3049 H 285.782 0.981808 4.57688 0
M  V30 3050 H 285.955 1.60514 6.27805 0
M  V30 3051 N 279.361 -1.56624 0.175154 0
M  V30 3052 C 280.308 -2.18149 -0.753634 0
M  V30 3053 C 281.278 -1.12265 -1.22417 0
M  V30 3054 O 282.463 -1.40432 -1.29165 0
M  V30 3055 C 279.603 -2.82933 -1.97592 0
M  V30 3056 C 278.716 -4.03289 -1.5486 0
M  V30 3057 C 277.851 -4.55988 -2.72485 0
M  V30 3058 C 276.89 -5.68746 -2.26262 0
M  V30 3059 N 276.027 -6.15938 -3.36994 0
M  V30 3060 H 280.867 -2.9717 -0.222195 0
M  V30 3061 H 278.404 -1.46774 -0.0979422 0
M  V30 3062 H 280.362 -3.18653 -2.69288 0
M  V30 3063 H 278.992 -2.06509 -2.481 0
M  V30 3064 H 278.044 -3.73364 -0.728246 0
M  V30 3065 H 279.356 -4.849 -1.16933 0
M  V30 3066 H 278.51 -4.9391 -3.52332 0
M  V30 3067 H 277.249 -3.73443 -3.13674 0
M  V30 3068 H 276.254 -5.30372 -1.44863 0
M  V30 3069 H 277.479 -6.53095 -1.86127 0
M  V30 3070 H 275.425 -5.36321 -3.77751 0
M  V30 3071 H 275.342 -6.92548 -3.03172 0
M  V30 3072 H 276.61 -6.58511 -4.17114 0
M  V30 3073 N 280.839 0.0985539 -1.57292 0
M  V30 3074 C 282.086 0.802678 -1.85912 0
M  V30 3075 C 282.414 1.78901 -0.763186 0
M  V30 3076 O 281.669 1.94178 0.243559 0
M  V30 3077 C 281.968 1.56927 -3.21105 0
M  V30 3078 C 281.634 0.725376 -4.45027 0
M  V30 3079 C 280.296 0.492726 -4.78671 0
M  V30 3080 C 282.648 0.138493 -5.21016 0
M  V30 3081 C 279.976 -0.336727 -5.85733 0
M  V30 3082 C 282.328 -0.678264 -6.28953 0
M  V30 3083 C 280.992 -0.921039 -6.61115 0
M  V30 3084 H 280.262 0.293721 -0.680301 0
M  V30 3085 H 282.909 0.0642841 -1.91392 0
M  V30 3086 H 281.214 2.37914 -3.11294 0
M  V30 3087 H 282.911 2.11841 -3.40477 0
M  V30 3088 H 279.501 0.916815 -4.18679 0
M  V30 3089 H 283.685 0.305404 -4.95359 0
M  V30 3090 H 278.941 -0.533836 -6.09065 0
M  V30 3091 H 283.115 -1.1399 -6.87007 0
M  V30 3092 H 280.742 -1.56556 -7.43905 0
M  V30 3093 N 282.317 1.53212 0.369288 0
M  V30 3094 C 283.247 1.82365 1.45826 0
M  V30 3095 C 284.228 0.676907 1.56051 0
M  V30 3096 O 285.413 0.926401 1.70679 0
M  V30 3097 C 282.543 2.01023 2.83208 0
M  V30 3098 C 281.497 3.1678 2.8781 0
M  V30 3099 C 280.823 3.20724 4.27832 0
M  V30 3100 C 282.123 4.55447 2.55667 0
M  V30 3101 H 283.817 2.73559 1.21678 0
M  V30 3102 H 281.363 1.3163 0.583911 0
M  V30 3103 H 283.316 2.20001 3.59413 0
M  V30 3104 H 282.04 1.06536 3.08736 0
M  V30 3105 H 280.699 2.97616 2.14056 0
M  V30 3106 H 280.347 2.23882 4.50429 0
M  V30 3107 H 280.047 3.98496 4.31827 0
M  V30 3108 H 281.571 3.41881 5.05915 0
M  V30 3109 H 282.985 4.74611 3.21586 0
M  V30 3110 H 281.382 5.35432 2.70984 0
M  V30 3111 H 282.452 4.60812 1.5093 0
M  V30 3112 N 283.795 -0.628877 1.44509 0
M  V30 3113 C 285.206 -1.21054 1.42137 0
M  V30 3114 C 285.557 -1.95715 0.137881 0
M  V30 3115 O 284.682 -2.02554 -0.761645 0
M  V30 3116 C 285.277 -2.20189 2.57493 0
M  V30 3117 C 283.836 -2.73777 2.58308 0
M  V30 3118 C 282.983 -1.48813 2.33987 0
M  V30 3119 H 285.934 -0.41942 1.53057 0
M  V30 3120 H 285.955 -3.02833 2.30375 0
M  V30 3121 H 285.467 -1.6582 3.50892 0
M  V30 3122 H 283.568 -3.32142 1.68856 0
M  V30 3123 H 283.681 -3.19662 3.56865 0
M  V30 3124 H 282.045 -1.77024 1.83124 0
M  V30 3125 H 282.828 -0.963442 3.29504 0
M  V30 3126 N 285.273 -1.31445 -0.869486 0
M  V30 3127 C 286.55 -1.11795 -1.60503 0
M  V30 3128 C 286.93 0.327168 -2.08549 0
M  V30 3129 O 286.278 1.32135 -1.8642 0
M  V30 3130 C 286.488 -2.13258 -2.76265 0
M  V30 3131 C 287.836 -2.45805 -3.46215 0
M  V30 3132 O 288.86 -2.11688 -2.86473 0
M  V30 3133 O 287.719 -3.04228 -4.5399 0
M  V30 3134 H 284.813 -0.430421 -0.706163 0
M  V30 3135 H 287.359 -1.42925 -0.914907 0
M  V30 3136 H 286.131 -3.10461 -2.3818 0
M  V30 3137 H 285.754 -1.83035 -3.52964 0
M  V30 3138 N 286.751 1.08385 -1.14413 0
M  V30 3139 C 288.028 1.77429 -0.823297 0
M  V30 3140 C 288.408 1.9974 0.683163 0
M  V30 3141 O 287.756 1.60739 1.62405 0
M  V30 3142 C 287.966 3.09004 -1.62227 0
M  V30 3143 C 289.314 3.83532 -1.82177 0
M  V30 3144 O 290.338 3.18786 -1.58915 0
M  V30 3145 O 289.197 4.99792 -2.21067 0
M  V30 3146 H 286.291 0.769999 -0.301712 0
M  V30 3147 H 288.837 1.14846 -1.24934 0
M  V30 3148 H 287.609 2.88316 -2.64555 0
M  V30 3149 H 287.232 3.79316 -1.19187 0
M  V30 3150 N 288.23 0.939286 1.26551 0
M  V30 3151 C 289.479 0.581601 1.93133 0
M  V30 3152 C 289.792 -0.883224 1.74524 0
M  V30 3153 O 290.998 -1.3502 2.35546 0
M  V30 3154 C 289.454 0.989425 3.46032 0
M  V30 3155 C 289.062 2.47573 3.73379 0
M  V30 3156 C 290.806 0.703544 4.18629 0
M  V30 3157 C 288.713 2.82235 5.19709 0
M  V30 3158 H 287.643 0.213803 0.723052 0
M  V30 3159 H 290.294 1.14167 1.4366 0
M  V30 3160 H 288.676 0.357902 3.94379 0
M  V30 3161 H 289.85 3.15614 3.35744 0
M  V30 3162 H 288.165 2.73471 3.1401 0
M  V30 3163 H 290.762 0.938869 5.26393 0
M  V30 3164 H 291.105 -0.359639 4.14744 0
M  V30 3165 H 291.638 1.2947 3.76141 0
M  V30 3166 H 288.377 3.87509 5.28694 0
M  V30 3167 H 287.897 2.18854 5.58447 0
M  V30 3168 H 289.576 2.70599 5.87695 0
M  V30 3169 N 289.708 -1.40897 0.706093 0
M  V30 3170 C 290.956 -2.00657 0.241054 0
M  V30 3171 C 291.277 -1.56241 -1.16678 0
M  V30 3172 O 290.547 -0.79765 -1.78926 0
M  V30 3173 H 289.127 -0.742018 0.0861308 0
M  V30 3174 H 291.789 -1.72372 0.909604 0
M  V30 3175 H 290.885 -3.10958 0.266705 0
M  V30 3176 N 291.186 -0.45159 -1.50991 0
M  V30 3177 C 292.118 0.388634 -2.25881 0
M  V30 3178 C 293.131 0.974041 -1.30446 0
M  V30 3179 O 294.32 0.865758 -1.56099 0
M  V30 3180 C 291.42 1.5571 -3.01011 0
M  V30 3181 C 290.593 1.08801 -4.23652 0
M  V30 3182 C 289.652 2.12825 -4.8124 0
M  V30 3183 O 288.678 1.71678 -5.42693 0
M  V30 3184 N 289.88 3.45453 -4.66522 0
M  V30 3185 H 292.645 -0.25329 -2.98628 0
M  V30 3186 H 290.206 -0.281268 -1.59438 0
M  V30 3187 H 292.198 2.24952 -3.3642 0
M  V30 3188 H 290.768 2.10409 -2.31186 0
M  V30 3189 H 289.988 0.22215 -3.93574 0
M  V30 3190 H 291.276 0.752213 -5.03209 0
M  V30 3191 H 290.674 3.81605 -4.17605 0
M  V30 3192 H 289.231 4.10549 -5.06254 0
M  V30 3193 N 292.664 1.56529 -0.183458 0
M  V30 3194 C 293.889 2.02064 0.467428 0
M  V30 3195 C 294.314 1.06282 1.55196 0
M  V30 3196 O 293.672 0.0443565 1.81246 0
M  V30 3197 C 293.72 3.46122 1.01153 0
M  V30 3198 O 292.824 3.53437 2.12499 0
M  V30 3199 H 292.165 0.654726 0.110588 0
M  V30 3200 H 294.695 2.02521 -0.290917 0
M  V30 3201 H 294.705 3.85676 1.33108 0
M  V30 3202 H 293.38 4.15331 0.217533 0
M  V30 3203 H 291.957 3.2575 1.81497 0
M  V30 3204 N 294.142 -0.090211 1.57342 0
M  V30 3205 C 295.553 -0.644173 1.75235 0
M  V30 3206 C 295.904 -1.78865 0.806335 0
M  V30 3207 O 295.029 -2.16395 -0.0140128 0
M  V30 3208 C 295.624 -1.17532 3.1776 0
M  V30 3209 C 294.183 -1.67531 3.37061 0
M  V30 3210 C 293.33 -0.58693 2.71017 0
M  V30 3211 H 296.281 0.135884 1.58117 0
M  V30 3212 H 296.302 -2.04455 3.20902 0
M  V30 3213 H 295.814 -0.342138 3.86589 0
M  V30 3214 H 293.915 -2.53234 2.73319 0
M  V30 3215 H 294.028 -1.76493 4.45406 0
M  V30 3216 H 292.392 -1.02756 2.33052 0
M  V30 3217 H 293.175 0.235758 3.4249 0
M  V30 3218 N 295.62 -1.53406 -0.361157 0
M  V30 3219 C 296.869 -1.69022 -1.10066 0
M  V30 3220 C 297.182 -0.450838 -1.90333 0
M  V30 3221 O 298.388 -0.487617 -2.67085 0
M  V30 3222 C 296.844 -2.98812 -2.00598 0
M  V30 3223 C 296.452 -4.30027 -1.25621 0
M  V30 3224 C 298.196 -3.23795 -2.74513 0
M  V30 3225 C 296.103 -5.50903 -2.1508 0
M  V30 3226 H 295.033 -0.629776 -0.414606 0
M  V30 3227 H 297.684 -1.79907 -0.361348 0
M  V30 3228 H 296.066 -2.8174 -2.78278 0
M  V30 3229 H 297.24 -4.57745 -0.529739 0
M  V30 3230 H 295.555 -4.11522 -0.635496 0
M  V30 3231 H 298.152 -4.11289 -3.41681 0
M  V30 3232 H 298.495 -2.40045 -3.40123 0
M  V30 3233 H 299.028 -3.41561 -2.03914 0
M  V30 3234 H 295.767 -6.37143 -1.54041 0
M  V30 3235 H 295.287 -5.27459 -2.85565 0
M  V30 3236 H 296.966 -5.85865 -2.74538 0
M  V30 3237 N 297.098 0.621204 -1.44841 0
M  V30 3238 C 298.344 1.3826 -1.48365 0
M  V30 3239 C 298.677 1.93831 -0.119624 0
M  V30 3240 O 297.952 1.74251 0.864111 0
M  V30 3241 C 298.235 2.54058 -2.55199 0
M  V30 3242 C 298.088 2.03772 -4.00995 0
M  V30 3243 C 299.407 3.56225 -2.58442 0
M  V30 3244 H 296.526 0.501374 -0.540179 0
M  V30 3245 H 299.168 0.7015 -1.76576 0
M  V30 3246 H 297.318 3.12162 -2.31274 0
M  V30 3247 H 298.99 1.50423 -4.36086 0
M  V30 3248 H 297.233 1.34876 -4.12299 0
M  V30 3249 H 297.904 2.87185 -4.71411 0
M  V30 3250 H 300.38 3.07939 -2.79844 0
M  V30 3251 H 299.256 4.34756 -3.3508 0
M  V30 3252 H 299.517 4.10949 -1.63013 0
M  V30 3253 N 298.576 1.31904 0.862503 0
M  V30 3254 C 299.801 1.25135 1.65397 0
M  V30 3255 C 300.226 -0.179 1.87246 0
M  V30 3256 O 299.584 -1.1277 1.4196 0
M  V30 3257 C 299.632 2.00832 2.99498 0
M  V30 3258 O 298.736 1.35075 3.89652 0
M  V30 3259 H 298.077 0.431655 0.504549 0
M  V30 3260 H 300.607 1.74094 1.07483 0
M  V30 3261 H 300.617 2.10709 3.49379 0
M  V30 3262 H 299.292 3.04847 2.82916 0
M  V30 3263 H 297.869 1.33696 3.48109 0
M  V30 3264 N 300.054 -1.07777 1.14986 0
M  V30 3265 C 300.987 -2.14228 0.786243 0
M  V30 3266 C 301.965 -1.60888 -0.235347 0
M  V30 3267 O 303.149 -1.88099 -0.122909 0
M  V30 3268 C 300.276 -3.38281 0.168433 0
M  V30 3269 C 299.322 -4.10387 1.16123 0
M  V30 3270 S 300.155 -4.62371 2.70135 0
M  V30 3271 C 301.311 -5.89704 2.09762 0
M  V30 3272 H 301.544 -2.44741 1.68787 0
M  V30 3273 H 299.077 -1.19984 0.971756 0
M  V30 3274 H 301.035 -4.10098 -0.181588 0
M  V30 3275 H 299.696 -3.05953 -0.710725 0
M  V30 3276 H 298.889 -4.99431 0.677086 0
M  V30 3277 H 298.491 -3.44513 1.45556 0
M  V30 3278 H 300.783 -6.61648 1.45701 0
M  V30 3279 H 301.726 -6.42824 2.96955 0
M  V30 3280 H 302.134 -5.4302 1.54239 0
M  V30 3281 N 301.532 -0.945985 -1.26051 0
M  V30 3282 C 302.943 -0.638096 -1.75457 0
M  V30 3283 C 303.294 0.846672 -1.76991 0
M  V30 3284 O 302.419 1.66262 -1.38513 0
M  V30 3285 C 303.014 -1.15157 -3.18629 0
M  V30 3286 C 301.573 -0.894004 -3.65629 0
M  V30 3287 C 300.72 -1.29967 -2.44957 0
M  V30 3288 H 303.671 -1.12376 -1.1206 0
M  V30 3289 H 303.692 -0.507615 -3.77099 0
M  V30 3290 H 303.204 -2.23222 -3.1748 0
M  V30 3291 H 301.305 0.172057 -3.72203 0
M  V30 3292 H 301.418 -1.52439 -4.54202 0
M  V30 3293 H 299.782 -0.718078 -2.44368 0
M  V30 3294 H 300.565 -2.38935 -2.46505 0
M  V30 3295 N 303.011 1.40521 -0.713556 0
M  V30 3296 C 304.288 1.94775 -0.17943 0
M  V30 3297 C 304.668 1.65184 1.31444 0
M  V30 3298 O 304.016 0.968429 2.06963 0
M  V30 3299 C 304.226 3.45543 -0.489986 0
M  V30 3300 C 305.574 4.22442 -0.427536 0
M  V30 3301 O 306.598 3.53644 -0.425929 0
M  V30 3302 O 305.457 5.4501 -0.403292 0
M  V30 3303 H 302.551 0.826606 -0.0255192 0
M  V30 3304 H 305.097 1.5014 -0.790949 0
M  V30 3305 H 303.869 3.60432 -1.5233 0
M  V30 3306 H 303.492 3.97311 0.151598 0
M  V30 3307 N 304.489 0.459591 1.5075 0
M  V30 3308 C 305.737 -0.0991532 2.01857 0
M  V30 3309 C 306.058 -1.41247 1.34441 0
M  V30 3310 O 305.328 -1.89775 0.486022 0
M  V30 3311 H 303.908 -0.039633 0.745948 0
M  V30 3312 H 306.57 0.607387 1.85194 0
M  V30 3313 H 305.666 -0.258998 3.11023 0
M  V30 3314 N 305.967 -1.56429 0.191757 0
M  V30 3315 C 307.244 -1.89224 -0.495332 0
M  V30 3316 C 307.624 -1.10478 -1.79883 0
M  V30 3317 O 306.972 -0.204852 -2.2758 0
M  V30 3318 C 307.182 -3.41548 -0.717367 0
M  V30 3319 C 308.53 -4.11711 -1.03823 0
M  V30 3320 O 309.554 -3.4698 -0.805204 0
M  V30 3321 O 308.413 -5.2611 -1.47887 0
M  V30 3322 H 305.507 -0.785788 -0.25781 0
M  V30 3323 H 308.053 -1.68111 0.231721 0
M  V30 3324 H 306.825 -3.90772 0.203287 0
M  V30 3325 H 306.448 -3.68342 -1.497 0
M  V30 3326 N 307.445 0.0818655 -1.57387 0
M  V30 3327 C 308.392 1.09834 -2.0299 0
M  V30 3328 C 309.362 1.39043 -0.908639 0
M  V30 3329 O 310.547 1.50282 -1.17559 0
M  V30 3330 C 307.687 2.40971 -2.47037 0
M  V30 3331 C 306.8 2.18379 -3.7274 0
M  V30 3332 C 305.935 3.43008 -4.0561 0
M  V30 3333 C 304.974 3.15736 -5.24383 0
M  V30 3334 N 304.111 4.32667 -5.52941 0
M  V30 3335 H 308.951 0.702472 -2.89602 0
M  V30 3336 H 306.488 0.33531 -1.43227 0
M  V30 3337 H 308.446 3.1752 -2.70623 0
M  V30 3338 H 307.076 2.78379 -1.63417 0
M  V30 3339 H 306.128 1.32569 -3.56552 0
M  V30 3340 H 307.44 1.94227 -4.59431 0
M  V30 3341 H 306.594 4.27958 -4.30043 0
M  V30 3342 H 305.333 3.70225 -3.17466 0
M  V30 3343 H 304.338 2.2918 -4.99757 0
M  V30 3344 H 305.563 2.8985 -6.14136 0
M  V30 3345 H 303.509 4.59935 -4.67756 0
M  V30 3346 H 303.426 4.11753 -6.34031 0
M  V30 3347 H 304.694 5.18644 -5.81918 0
M  V30 3348 N 308.923 1.53595 0.353017 0
M  V30 3349 C 310.169 1.70638 1.09593 0
M  V30 3350 C 310.502 0.463286 1.88593 0
M  V30 3351 O 309.777 -0.539597 1.86865 0
M  V30 3352 C 310.06 2.96406 2.04489 0
M  V30 3353 C 309.913 4.30901 1.29014 0
M  V30 3354 C 311.232 3.17812 3.0444 0
M  V30 3355 H 308.351 0.620913 0.397034 0
M  V30 3356 H 310.993 1.86254 0.375446 0
M  V30 3357 H 309.143 2.83223 2.65927 0
M  V30 3358 H 310.815 4.55917 0.702638 0
M  V30 3359 H 309.058 4.29741 0.592071 0
M  V30 3360 H 309.729 5.1506 1.98537 0
M  V30 3361 H 312.205 3.30263 2.53112 0
M  V30 3362 H 311.081 4.07223 3.6805 0
M  V30 3363 H 311.342 2.33669 3.75301 0
M  V30 3364 N 310.401 -0.613514 1.45168 0
M  V30 3365 C 311.678 -1.37263 1.39349 0
M  V30 3366 C 312.058 -2.11012 0.0610848 0
M  V30 3367 O 311.406 -2.07502 -0.956825 0
M  V30 3368 C 311.616 -2.3244 2.60332 0
M  V30 3369 C 312.964 -2.9523 3.05163 0
M  V30 3370 O 313.988 -2.42762 2.60663 0
M  V30 3371 O 312.847 -3.90454 3.82372 0
M  V30 3372 H 309.941 -0.615188 0.552696 0
M  V30 3373 H 312.487 -0.637097 1.57287 0
M  V30 3374 H 311.259 -1.77164 3.48896 0
M  V30 3375 H 310.882 -3.13383 2.44698 0
M  V30 3376 N 311.879 -1.3236 -0.855495 0
M  V30 3377 C 312.809 -1.23833 -1.97958 0
M  V30 3378 C 313.79 -0.122361 -1.69659 0
M  V30 3379 O 314.975 -0.30939 -1.9172 0
M  V30 3380 C 312.105 -0.959772 -3.33775 0
M  V30 3381 C 311.059 -2.03689 -3.76424 0
M  V30 3382 C 310.385 -1.61075 -5.09862 0
M  V30 3383 C 311.685 -3.4518 -3.9198 0
M  V30 3384 H 313.379 -2.1788 -2.0535 0
M  V30 3385 H 310.925 -1.04891 -0.986605 0
M  V30 3386 H 312.878 -0.886678 -4.11966 0
M  V30 3387 H 311.602 0.0163404 -3.26596 0
M  V30 3388 H 310.261 -2.10012 -3.00484 0
M  V30 3389 H 309.909 -0.622107 -4.99138 0
M  V30 3390 H 309.609 -2.33143 -5.39368 0
M  V30 3391 H 311.133 -1.55201 -5.90546 0
M  V30 3392 H 312.547 -3.4145 -4.60526 0
M  V30 3393 H 310.944 -4.1559 -4.32903 0
M  V30 3394 H 312.014 -3.84903 -2.94919 0
M  V30 3395 N 313.357 1.07166 -1.15556 0
M  V30 3396 C 314.267 2.17947 -0.868116 0
M  V30 3397 C 315.283 1.73297 0.156297 0
M  V30 3398 O 316.459 2.01392 -0.0182327 0
M  V30 3399 C 313.524 3.44789 -0.36355 0
M  V30 3400 C 312.585 4.03996 -1.45209 0
M  V30 3401 C 311.818 5.24783 -0.971508 0
M  V30 3402 O 312.041 5.70109 0.182194 0
M  V30 3403 O 310.975 5.75715 -1.75603 0
M  V30 3404 H 314.801 2.4503 -1.79427 0
M  V30 3405 H 312.386 1.16539 -0.934824 0
M  V30 3406 H 314.268 4.21307 -0.0887113 0
M  V30 3407 H 312.943 3.19253 0.534708 0
M  V30 3408 H 311.85 3.29009 -1.78056 0
M  V30 3409 H 313.183 4.33808 -2.32533 0
M  V30 3410 N 314.835 0.952656 1.25548 0
M  V30 3411 C 315.798 0.475794 2.24207 0
M  V30 3412 C 316.798 -0.419428 1.55234 0
M  V30 3413 O 317.988 -0.216994 1.72843 0
M  V30 3414 C 315.12 -0.312814 3.39462 0
M  V30 3415 H 316.313 1.34779 2.67908 0
M  V30 3416 H 313.866 0.735739 1.37901 0
M  V30 3417 H 314.601 -1.20257 3.01179 0
M  V30 3418 H 314.386 0.329404 3.90714 0
M  V30 3419 H 315.876 -0.635986 4.12729 0
M  V30 3420 N 316.313 -1.40141 0.720998 0
M  V30 3421 C 317.56 -2.00787 0.262842 0
M  V30 3422 C 317.888 -1.5718 -1.14563 0
M  V30 3423 O 317.143 -0.785391 -1.79249 0
M  V30 3424 C 317.442 -3.56165 0.296892 0
M  V30 3425 C 317.108 -4.19373 1.65641 0
M  V30 3426 C 315.77 -4.36352 2.02855 0
M  V30 3427 C 318.122 -4.54578 2.54968 0
M  V30 3428 C 315.45 -4.8582 3.28931 0
M  V30 3429 C 317.802 -5.05447 3.80402 0
M  V30 3430 C 316.466 -5.20635 4.17726 0
M  V30 3431 H 315.736 -0.734731 0.0961807 0
M  V30 3432 H 318.383 -1.67673 0.925093 0
M  V30 3433 H 316.688 -3.8922 -0.448932 0
M  V30 3434 H 318.385 -4.00929 -0.0755208 0
M  V30 3435 H 314.975 -4.06549 1.35704 0
M  V30 3436 H 319.159 -4.41091 2.27491 0
M  V30 3437 H 314.415 -4.95764 3.57811 0
M  V30 3438 H 318.589 -5.31663 4.49786 0
M  V30 3439 H 316.216 -5.58728 5.15487 0
M  V30 3440 N 317.792 -0.46758 -1.50504 0
M  V30 3441 C 319.017 0.0886943 -2.0721 0
M  V30 3442 C 319.442 1.33057 -1.32956 0
M  V30 3443 O 318.8 1.77354 -0.376197 0
M  V30 3444 C 318.848 0.359202 -3.58806 0
M  V30 3445 O 317.952 1.44034 -3.8643 0
M  V30 3446 H 317.293 -0.0114349 -0.663902 0
M  V30 3447 H 319.823 -0.657613 -1.93744 0
M  V30 3448 H 319.833 0.600742 -4.03553 0
M  V30 3449 H 318.508 -0.548311 -4.1227 0
M  V30 3450 H 317.085 1.18638 -3.53524 0
M  V30 3451 N 319.27 1.56325 -0.20005 0
M  V30 3452 C 320.18 2.22931 0.730668 0
M  V30 3453 C 321.196 1.22997 1.23076 0
M  V30 3454 O 322.372 1.55748 1.27689 0
M  V30 3455 C 319.437 2.87948 1.93098 0
M  V30 3456 C 318.498 4.03166 1.47497 0
M  V30 3457 C 317.731 4.65073 2.61807 0
M  V30 3458 O 317.954 4.25913 3.79413 0
M  V30 3459 O 316.888 5.54452 2.34237 0
M  V30 3460 H 320.714 3.03084 0.193391 0
M  V30 3461 H 318.299 1.49371 0.0294621 0
M  V30 3462 H 320.181 3.29063 2.6324 0
M  V30 3463 H 318.856 2.10771 2.45677 0
M  V30 3464 H 317.763 3.66664 0.742201 0
M  V30 3465 H 319.096 4.82022 0.995796 0
M  V30 3466 N 320.748 -0.0735177 1.57428 0
M  V30 3467 C 321.995 -0.772999 1.87166 0
M  V30 3468 C 322.323 -1.77665 0.791551 0
M  V30 3469 O 321.578 -1.94541 -0.212636 0
M  V30 3470 C 321.877 -1.51799 3.23561 0
M  V30 3471 C 321.543 -0.654484 4.46125 0
M  V30 3472 C 320.205 -0.416511 4.79394 0
M  V30 3473 C 322.557 -0.0555862 5.2117 0
M  V30 3474 C 319.885 0.429869 5.85123 0
M  V30 3475 C 322.237 0.778239 6.27795 0
M  V30 3476 C 320.901 1.0261 6.59566 0
M  V30 3477 H 320.171 -0.282861 0.684888 0
M  V30 3478 H 322.818 -0.0338272 1.9147 0
M  V30 3479 H 321.123 -2.32932 3.1504 0
M  V30 3480 H 322.82 -2.06397 3.43804 0
M  V30 3481 H 319.41 -0.850091 4.20085 0
M  V30 3482 H 323.594 -0.226558 4.95783 0
M  V30 3483 H 318.85 0.630665 6.08139 0
M  V30 3484 H 323.024 1.24906 6.85107 0
M  V30 3485 H 320.651 1.68371 7.4132 0
M  V30 3486 N 322.226 -1.5378 -0.344866 0
M  V30 3487 C 323.454 -1.74899 -1.10534 0
M  V30 3488 C 323.869 -0.487534 -1.82397 0
M  V30 3489 O 323.226 0.540741 -1.74305 0
M  V30 3490 C 323.277 -2.92822 -2.11984 0
M  V30 3491 O 322.998 -4.14089 -1.43044 0
M  V30 3492 C 324.499 -3.25982 -3.00417 0
M  V30 3493 H 321.719 -0.584426 -0.329678 0
M  V30 3494 H 324.263 -2.006 -0.397474 0
M  V30 3495 H 322.418 -2.69457 -2.78338 0
M  V30 3496 H 322.832 -4.80272 -2.10805 0
M  V30 3497 H 324.306 -4.11848 -3.67539 0
M  V30 3498 H 324.783 -2.42228 -3.66363 0
M  V30 3499 H 325.389 -3.51349 -2.39654 0
M  V30 3500 N 323.704 0.605807 -1.45491 0
M  V30 3501 C 324.651 1.7164 -1.54299 0
M  V30 3502 C 325.621 1.61486 -0.388761 0
M  V30 3503 O 326.806 1.81039 -0.602445 0
M  V30 3504 C 323.946 3.09953 -1.51734 0
M  V30 3505 C 323.059 3.309 -2.77721 0
M  V30 3506 C 322.194 4.59329 -2.66816 0
M  V30 3507 C 321.233 4.7354 -3.87848 0
M  V30 3508 N 320.37 5.9327 -3.75467 0
M  V30 3509 H 325.21 1.63449 -2.49176 0
M  V30 3510 H 322.747 0.796957 -1.23641 0
M  V30 3511 H 324.705 3.89977 -1.48235 0
M  V30 3512 H 323.335 3.17098 -0.604068 0
M  V30 3513 H 322.387 2.44639 -2.913 0
M  V30 3514 H 323.699 3.37274 -3.67488 0
M  V30 3515 H 322.853 5.4755 -2.61292 0
M  V30 3516 H 321.592 4.55355 -1.74651 0
M  V30 3517 H 320.597 3.83741 -3.93729 0
M  V30 3518 H 321.822 4.79309 -4.81082 0
M  V30 3519 H 319.768 5.90338 -2.86072 0
M  V30 3520 H 319.685 6.00811 -4.5887 0
M  V30 3521 H 320.953 6.83984 -3.73879 0
M  V30 3522 N 325.182 1.32811 0.848464 0
M  V30 3523 C 326.431 1.23075 1.59798 0
M  V30 3524 C 326.744 -0.204419 1.94529 0
M  V30 3525 O 327.95 -0.423701 2.68173 0
M  V30 3526 C 326.406 2.15594 2.88179 0
M  V30 3527 C 326.014 3.64228 2.60849 0
M  V30 3528 C 327.758 2.14709 3.66197 0
M  V30 3529 C 325.665 4.48689 3.85269 0
M  V30 3530 H 324.595 0.457091 0.599653 0
M  V30 3531 H 327.246 1.57813 0.936342 0
M  V30 3532 H 325.628 1.73778 3.55833 0
M  V30 3533 H 326.802 4.14424 2.01467 0
M  V30 3534 H 325.117 3.67306 1.96151 0
M  V30 3535 H 327.714 2.75046 4.58534 0
M  V30 3536 H 328.057 1.13966 4.00397 0
M  V30 3537 H 328.59 2.54837 3.05455 0
M  V30 3538 H 325.329 5.5027 3.56207 0
M  V30 3539 H 324.849 4.03241 4.44024 0
M  V30 3540 H 326.528 4.62006 4.52946 0
M  V30 3541 N 326.66 -1.06551 1.16123 0
M  V30 3542 C 327.909 -1.78687 0.935622 0
M  V30 3543 C 328.222 -1.88056 -0.538001 0
M  V30 3544 O 329.428 -2.56794 -0.88143 0
M  V30 3545 C 327.884 -3.21143 1.62466 0
M  V30 3546 C 327.492 -3.19949 3.13587 0
M  V30 3547 C 329.236 -3.9783 1.48092 0
M  V30 3548 C 327.143 -4.57108 3.75241 0
M  V30 3549 H 326.073 -0.669712 0.346412 0
M  V30 3550 H 328.724 -1.19534 1.39226 0
M  V30 3551 H 327.106 -3.80539 1.09572 0
M  V30 3552 H 328.28 -2.70151 3.73303 0
M  V30 3553 H 326.595 -2.5676 3.27816 0
M  V30 3554 H 329.192 -4.99217 1.91538 0
M  V30 3555 H 329.535 -4.14078 0.429507 0
M  V30 3556 H 330.068 -3.4495 1.98127 0
M  V30 3557 H 326.807 -4.46065 4.80319 0
M  V30 3558 H 326.327 -5.07111 3.20309 0
M  V30 3559 H 328.006 -5.26069 3.76644 0
M  V30 3560 N 328.138 -0.959301 -1.25041 0
M  V30 3561 C 329.366 -0.633949 -1.96948 0
M  V30 3562 C 329.781 0.794916 -1.7125 0
M  V30 3563 O 329.138 1.53231 -0.991287 0
M  V30 3564 C 329.189 -0.888805 -3.50403 0
M  V30 3565 O 328.91 -2.26149 -3.75218 0
M  V30 3566 C 330.411 -0.576482 -4.39536 0
M  V30 3567 H 327.631 -0.237263 -0.627652 0
M  V30 3568 H 330.175 -1.28495 -1.59089 0
M  V30 3569 H 328.33 -0.284145 -3.86357 0
M  V30 3570 H 328.744 -2.33514 -4.6965 0
M  V30 3571 H 330.218 -0.805314 -5.46094 0
M  V30 3572 H 330.695 0.489075 -4.36468 0
M  V30 3573 H 331.301 -1.16067 -4.09156 0
M  V30 3574 N 329.616 1.39756 -0.72842 0
M  V30 3575 C 331.027 1.83498 -0.344289 0
M  V30 3576 C 331.378 1.60868 1.12321 0
M  V30 3577 O 330.503 1.09634 1.86573 0
M  V30 3578 C 331.098 3.33114 -0.618112 0
M  V30 3579 C 329.657 3.753 -0.287549 0
M  V30 3580 C 328.804 2.62831 -0.884048 0
M  V30 3581 H 331.755 1.28842 -0.926578 0
M  V30 3582 H 331.776 3.80334 0.112349 0
M  V30 3583 H 331.288 3.49553 -1.68625 0
M  V30 3584 H 329.389 3.64451 0.775012 0
M  V30 3585 H 329.502 4.72945 -0.765512 0
M  V30 3586 H 327.866 2.52792 -0.311149 0
M  V30 3587 H 328.649 2.82078 -1.95671 0
M  V30 3588 N 331.094 0.475555 1.50254 0
M  V30 3589 C 332.057 -0.305016 2.27161 0
M  V30 3590 C 333.057 -0.916519 1.32123 0
M  V30 3591 O 334.247 -0.785003 1.5551 0
M  V30 3592 C 331.379 -1.43496 3.09227 0
M  V30 3593 H 332.572 0.369511 2.97615 0
M  V30 3594 H 330.125 0.229747 1.54602 0
M  V30 3595 H 330.86 -2.14441 2.43281 0
M  V30 3596 H 330.645 -1.00223 3.79075 0
M  V30 3597 H 332.135 -1.98548 3.67381 0
M  V30 3598 N 332.573 -1.56217 0.208337 0
M  V30 3599 C 333.822 -1.97124 -0.427204 0
M  V30 3600 C 334.135 -1.09859 -1.61835 0
M  V30 3601 O 335.341 -1.40606 -2.32255 0
M  V30 3602 C 333.797 -3.50633 -0.811442 0
M  V30 3603 C 333.405 -4.46582 0.35615 0
M  V30 3604 C 335.149 -4.00282 -1.41332 0
M  V30 3605 C 333.056 -5.91379 -0.0497852 0
M  V30 3606 H 331.986 -0.736086 -0.163381 0
M  V30 3607 H 334.637 -1.8099 0.302456 0
M  V30 3608 H 333.019 -3.62319 -1.59815 0
M  V30 3609 H 334.193 -4.46636 1.1337 0
M  V30 3610 H 332.508 -4.07202 0.870396 0
M  V30 3611 H 335.105 -5.0595 -1.72972 0
M  V30 3612 H 335.448 -3.45359 -2.32449 0
M  V30 3613 H 335.981 -3.91764 -0.690323 0
M  V30 3614 H 332.72 -6.50255 0.827529 0
M  V30 3615 H 332.24 -5.94549 -0.791926 0
M  V30 3616 H 333.919 -6.45209 -0.481042 0
M  V30 3617 N 334.051 0.0651679 -1.57465 0
M  V30 3618 C 335.279 0.775808 -1.91804 0
M  V30 3619 C 335.694 1.70782 -0.804916 0
M  V30 3620 O 335.051 1.81153 0.221311 0
M  V30 3621 C 335.102 1.56381 -3.25925 0
M  V30 3622 O 334.823 0.669248 -4.32958 0
M  V30 3623 C 336.324 2.37485 -3.7432 0
M  V30 3624 H 333.544 0.2202 -0.63384 0
M  V30 3625 H 336.088 0.0334587 -2.04473 0
M  V30 3626 H 334.243 2.25837 -3.14764 0
M  V30 3627 H 334.657 1.21801 -5.10162 0
M  V30 3628 H 336.131 2.88223 -4.70778 0
M  V30 3629 H 336.608 3.17307 -3.03666 0
M  V30 3630 H 337.214 1.73173 -3.88447 0
M  V30 3631 N 335.529 1.53961 0.336706 0
M  V30 3632 C 336.945 1.44378 0.680241 0
M  V30 3633 C 337.145 0.606034 1.9217 0
M  V30 3634 O 336.201 0.099688 2.52303 0
M  V30 3635 C 337.514 2.87945 0.8665 0
M  V30 3636 C 339.062 2.97763 0.964682 0
M  V30 3637 C 339.537 4.42453 1.18321 0
M  V30 3638 N 341.028 4.46008 1.25025 0
M  V30 3639 C 341.763 5.55102 1.43697 0
M  V30 3640 N 341.259 6.7419 1.59498 0
M  V30 3641 N 343.052 5.42727 1.463 0
M  V30 3642 H 335.203 2.06918 -0.479455 0
M  V30 3643 H 337.466 0.935634 -0.152619 0
M  V30 3644 H 337.172 3.51691 0.0256937 0
M  V30 3645 H 337.046 3.33293 1.76623 0
M  V30 3646 H 339.433 2.34153 1.796 0
M  V30 3647 H 339.514 2.55766 0.041708 0
M  V30 3648 H 339.158 5.06645 0.356788 0
M  V30 3649 H 339.088 4.82048 2.11985 0
M  V30 3650 H 341.579 3.60196 1.14312 0
M  V30 3651 H 341.892 7.53095 1.734 0
M  V30 3652 H 340.237 6.77123 1.56621 0
M  V30 3653 H 343.428 4.48647 1.33543 0
M  V30 3654 H 343.601 6.27806 1.6051 0
M  V30 3655 N 337.007 -0.598083 1.45811 0
M  V30 3656 C 338.253 -1.35882 1.50545 0
M  V30 3657 C 338.586 -1.93616 0.150445 0
M  V30 3658 O 337.861 -1.75604 -0.83628 0
M  V30 3659 C 338.144 -2.49966 2.59208 0
M  V30 3660 C 337.997 -1.97367 4.04186 0
M  V30 3661 C 339.316 -3.52068 2.64076 0
M  V30 3662 H 336.435 -0.492717 0.548087 0
M  V30 3663 H 339.077 -0.673319 1.77669 0
M  V30 3664 H 337.227 -3.08443 2.3621 0
M  V30 3665 H 338.899 -1.43466 4.38423 0
M  V30 3666 H 337.142 -1.283 4.14393 0
M  V30 3667 H 337.813 -2.79649 4.75921 0
M  V30 3668 H 340.289 -3.03448 2.84708 0
M  V30 3669 H 339.165 -4.2937 3.41954 0
M  V30 3670 H 339.426 -4.08304 1.69531 0
M  V30 3671 N 338.485 -1.33259 -0.841409 0
M  V30 3672 C 339.731 -1.24757 -1.59886 0
M  V30 3673 C 340.064 0.186913 -1.93298 0
M  V30 3674 O 339.339 1.12757 -1.5848 0
M  V30 3675 C 339.622 -2.12036 -2.91055 0
M  V30 3676 C 339.475 -3.63929 -2.6434 0
M  V30 3677 C 340.794 -1.9916 -3.92458 0
M  V30 3678 H 337.913 -0.454542 -0.580138 0
M  V30 3679 H 340.555 -1.63335 -0.970647 0
M  V30 3680 H 338.705 -1.79265 -3.44669 0
M  V30 3681 H 340.377 -4.06978 -2.17178 0
M  V30 3682 H 338.62 -3.85935 -1.98082 0
M  V30 3683 H 339.291 -4.20341 -3.57796 0
M  V30 3684 H 341.767 -2.27895 -3.48143 0
M  V30 3685 H 340.643 -2.62484 -4.82072 0
M  V30 3686 H 340.904 -0.963082 -4.31482 0
M  V30 3687 N 339.963 1.05934 -1.16686 0
M  V30 3688 C 341.24 1.75643 -0.860747 0
M  V30 3689 C 341.62 2.01144 0.640641 0
M  V30 3690 O 340.968 1.64147 1.58959 0
M  V30 3691 C 341.178 3.05493 -1.68745 0
M  V30 3692 C 342.526 3.79581 -1.90271 0
M  V30 3693 O 343.55 3.15344 -1.65641 0
M  V30 3694 O 342.409 4.9499 -2.31618 0
M  V30 3695 H 339.503 0.763426 -0.317977 0
M  V30 3696 H 342.049 1.1217 -1.27342 0
M  V30 3697 H 340.821 2.8264 -2.70611 0
M  V30 3698 H 340.444 3.76702 -1.27206 0
M  V30 3699 N 341.441 0.965919 1.2453 0
M  V30 3700 C 342.688 0.626831 1.92554 0
M  V30 3701 C 343.016 -0.837739 1.75534 0
M  V30 3702 O 342.271 -1.61793 1.10098 0
M  V30 3703 C 342.57 0.945428 3.44669 0
M  V30 3704 C 342.236 2.39785 3.81856 0
M  V30 3705 C 340.898 2.79483 3.91718 0
M  V30 3706 C 343.25 3.34055 4.00071 0
M  V30 3707 C 340.578 4.12496 4.1721 0
M  V30 3708 C 342.93 4.66694 4.27059 0
M  V30 3709 C 341.594 5.06172 4.3514 0
M  V30 3710 H 340.864 0.229374 0.704605 0
M  V30 3711 H 343.511 1.21707 1.4785 0
M  V30 3712 H 341.816 0.272926 3.90848 0
M  V30 3713 H 343.513 0.661484 3.95507 0
M  V30 3714 H 340.103 2.08003 3.74743 0
M  V30 3715 H 344.287 3.04571 3.91855 0
M  V30 3716 H 339.543 4.42709 4.21685 0
M  V30 3717 H 343.717 5.3971 4.40097 0
M  V30 3718 H 341.344 6.09262 4.54646 0
M  V30 3719 N 342.919 -1.39368 0.735821 0
M  V30 3720 C 343.882 -2.2896 0.104874 0
M  V30 3721 C 344.882 -1.46347 -0.666274 0
M  V30 3722 O 346.072 -1.67014 -0.49517 0
M  V30 3723 C 343.204 -3.29857 -0.860656 0
M  V30 3724 H 344.397 -2.86259 0.894205 0
M  V30 3725 H 341.95 -1.48029 0.501704 0
M  V30 3726 H 342.685 -2.77615 -1.67631 0
M  V30 3727 H 342.47 -3.9087 -0.310327 0
M  V30 3728 H 343.96 -3.96893 -1.29867 0
M  V30 3729 N 344.397 -0.483516 -1.5 0
M  V30 3730 C 345.344 0.304164 -2.28787 0
M  V30 3731 C 346.314 0.976114 -1.34392 0
M  V30 3732 O 347.499 0.986156 -1.63339 0
M  V30 3733 C 344.639 1.37298 -3.16612 0
M  V30 3734 C 343.752 0.714561 -4.26049 0
M  V30 3735 C 342.887 1.76232 -5.01114 0
M  V30 3736 C 341.926 1.08483 -6.0241 0
M  V30 3737 N 341.063 2.076 -6.70706 0
M  V30 3738 H 345.903 -0.373981 -2.95644 0
M  V30 3739 H 343.44 -0.196275 -1.45785 0
M  V30 3740 H 345.398 2.00445 -3.65893 0
M  V30 3741 H 344.028 2.02012 -2.51776 0
M  V30 3742 H 343.08 -0.0297798 -3.80388 0
M  V30 3743 H 344.392 0.180383 -4.98474 0
M  V30 3744 H 343.546 2.46929 -5.54176 0
M  V30 3745 H 342.285 2.33033 -4.28424 0
M  V30 3746 H 341.29 0.363545 -5.48597 0
M  V30 3747 H 342.515 0.523551 -6.77079 0
M  V30 3748 H 340.461 2.63394 -6.00799 0
M  V30 3749 H 340.378 1.59201 -7.39047 0
M  V30 3750 H 341.646 2.77639 -7.2838 0
M  V30 3751 N 345.875 1.56104 -0.216619 0
M  V30 3752 C 346.822 2.2007 0.695531 0
M  V30 3753 C 347.792 1.15471 1.19397 0
M  V30 3754 O 348.977 1.43807 1.25396 0
M  V30 3755 C 346.117 2.88073 1.90021 0
M  V30 3756 C 345.23 4.07253 1.44113 0
M  V30 3757 C 344.365 4.63052 2.603 0
M  V30 3758 C 343.404 5.74545 2.11103 0
M  V30 3759 N 342.541 6.24656 3.20545 0
M  V30 3760 H 347.381 2.97655 0.143327 0
M  V30 3761 H 344.918 1.46982 0.0589934 0
M  V30 3762 H 346.876 3.25681 2.60745 0
M  V30 3763 H 345.506 2.13015 2.42538 0
M  V30 3764 H 344.558 3.75164 0.628999 0
M  V30 3765 H 345.87 4.8783 1.04036 0
M  V30 3766 H 345.024 5.03078 3.39113 0
M  V30 3767 H 343.763 3.81628 3.03663 0
M  V30 3768 H 342.768 5.34027 1.3075 0
M  V30 3769 H 343.993 6.57801 1.68746 0
M  V30 3770 H 341.939 5.46148 3.63399 0
M  V30 3771 H 341.856 7.00343 2.84704 0
M  V30 3772 H 343.124 6.69338 3.99508 0
M  V30 3773 N 347.353 -0.0568162 1.57498 0
M  V30 3774 C 348.283 -1.06593 2.0775 0
M  V30 3775 C 349.264 -1.39448 0.974082 0
M  V30 3776 O 350.449 -1.48815 1.24771 0
M  V30 3777 C 347.579 -2.37509 2.5339 0
M  V30 3778 C 346.533 -2.1897 3.67745 0
M  V30 3779 C 345.859 -3.55402 3.99492 0
M  V30 3780 C 347.159 -1.59859 4.97235 0
M  V30 3781 H 348.853 -0.647706 2.9231 0
M  V30 3782 H 346.399 -0.310116 1.40621 0
M  V30 3783 H 348.352 -3.08409 2.87162 0
M  V30 3784 H 347.076 -2.8134 1.65878 0
M  V30 3785 H 345.735 -1.50508 3.3428 0
M  V30 3786 H 345.383 -3.9683 3.09088 0
M  V30 3787 H 345.083 -3.43831 4.76502 0
M  V30 3788 H 346.607 -4.27708 4.35773 0
M  V30 3789 H 348.021 -2.20642 5.29141 0
M  V30 3790 H 346.418 -1.58942 5.78669 0
M  V30 3791 H 347.488 -0.561506 4.81638 0
M  V30 3792 N 348.832 -1.54138 -0.328536 0
M  V30 3793 C 350.243 -1.63395 -0.903272 0
M  V30 3794 C 350.594 -0.524828 -1.8905 0
M  V30 3795 O 349.719 0.343068 -2.13663 0
M  V30 3796 C 350.314 -2.9618 -1.64507 0
M  V30 3797 C 348.873 -3.0765 -2.1686 0
M  V30 3798 C 348.02 -2.58933 -0.992416 0
M  V30 3799 H 350.971 -1.58344 -0.106253 0
M  V30 3800 H 350.992 -2.86061 -2.50897 0
M  V30 3801 H 350.504 -3.76884 -0.926302 0
M  V30 3802 H 348.605 -2.31611 -2.91868 0
M  V30 3803 H 348.718 -4.1337 -2.42202 0
M  V30 3804 H 347.082 -2.14706 -1.37016 0
M  V30 3805 H 347.865 -3.42089 -0.288041 0
M  V30 3806 N 350.31 0.590341 -1.46126 0
M  V30 3807 C 351.243 1.71434 -1.50617 0
M  V30 3808 C 352.221 1.58543 -0.360948 0
M  V30 3809 O 353.405 1.79865 -0.563985 0
M  V30 3810 C 350.532 3.09422 -1.37753 0
M  V30 3811 C 349.578 3.40854 -2.5636 0
M  V30 3812 S 350.411 3.33773 -4.18755 0
M  V30 3813 C 351.567 4.74312 -4.08386 0
M  V30 3814 H 351.8 1.67364 -2.45717 0
M  V30 3815 H 349.333 0.76845 -1.33919 0
M  V30 3816 H 351.291 3.8903 -1.31018 0
M  V30 3817 H 349.952 3.10989 -0.440949 0
M  V30 3818 H 349.145 4.41368 -2.43332 0
M  V30 3819 H 348.747 2.68798 -2.60046 0
M  V30 3820 H 351.039 5.64522 -3.74595 0
M  V30 3821 H 351.982 4.92397 -5.08872 0
M  V30 3822 H 352.39 4.50803 -3.3976 0
M  V30 3823 N 351.788 1.33704 0.83433 0
M  V30 3824 C 353.035 1.25417 1.58987 0
M  V30 3825 C 353.363 -0.178869 1.93676 0
M  V30 3826 O 352.618 -1.13723 1.59265 0
M  V30 3827 C 352.917 2.07926 2.90692 0
M  V30 3828 C 352.583 3.57066 2.75345 0
M  V30 3829 C 351.245 3.97724 2.70867 0
M  V30 3830 C 353.597 4.51817 2.59828 0
M  V30 3831 C 350.925 5.31344 2.48778 0
M  V30 3832 C 353.277 5.85604 2.39272 0
M  V30 3833 C 351.941 6.25439 2.33199 0
M  V30 3834 H 351.211 0.458934 0.581774 0
M  V30 3835 H 353.858 1.65335 0.966261 0
M  V30 3836 H 352.163 1.608 3.57282 0
M  V30 3837 H 353.86 1.98868 3.48213 0
M  V30 3838 H 350.45 3.24785 2.79665 0
M  V30 3839 H 354.634 4.21311 2.62319 0
M  V30 3840 H 349.89 5.61241 2.42526 0
M  V30 3841 H 354.064 6.58623 2.2625 0
M  V30 3842 H 351.691 7.28914 2.15843 0
M  V30 3843 N 353.266 -1.05314 1.17247 0
M  V30 3844 C 354.491 -1.82509 0.985148 0
M  V30 3845 C 354.916 -1.82343 -0.461788 0
M  V30 3846 O 354.274 -1.23151 -1.33055 0
M  V30 3847 C 354.322 -3.26566 1.52929 0
M  V30 3848 O 353.426 -4.05666 0.742225 0
M  V30 3849 H 352.767 -0.564347 0.349869 0
M  V30 3850 H 355.297 -1.32718 1.55715 0
M  V30 3851 H 355.307 -3.77369 1.55103 0
M  V30 3852 H 353.982 -3.26001 2.58256 0
M  V30 3853 H 352.559 -3.64397 0.791794 0
M  V30 3854 N 354.744 -0.972509 -1.24016 0
M  V30 3855 C 355.654 -0.5143 -2.28893 0
M  V30 3856 C 356.67 0.427078 -1.68677 0
M  V30 3857 O 357.846 0.298939 -1.99169 0
M  V30 3858 C 354.911 0.183598 -3.46214 0
M  V30 3859 C 353.972 -0.798202 -4.21814 0
M  V30 3860 C 353.205 -0.133514 -5.33533 0
M  V30 3861 O 353.428 1.07714 -5.60137 0
M  V30 3862 O 352.362 -0.828103 -5.96176 0
M  V30 3863 H 356.188 -1.38629 -2.70214 0
M  V30 3864 H 353.773 -0.739769 -1.29799 0
M  V30 3865 H 355.655 0.575433 -4.17453 0
M  V30 3866 H 354.33 1.03048 -3.0686 0
M  V30 3867 H 353.237 -1.24059 -3.52931 0
M  V30 3868 H 354.57 -1.61364 -4.64997 0
M  V30 3869 N 356.222 1.38976 -0.743202 0
M  V30 3870 C 357.152 2.33171 -0.123873 0
M  V30 3871 C 358.133 1.54336 0.71516 0
M  V30 3872 O 359.318 1.82696 0.658467 0
M  V30 3873 C 356.448 3.38474 0.777978 0
M  V30 3874 C 355.402 4.27979 0.0424758 0
M  V30 3875 C 354.728 5.2405 1.06189 0
M  V30 3876 C 356.028 5.10155 -1.1198 0
M  V30 3877 H 357.722 2.85213 -0.910709 0
M  V30 3878 H 355.268 1.37133 -0.439388 0
M  V30 3879 H 357.221 4.03328 1.22084 0
M  V30 3880 H 355.945 2.84891 1.59702 0
M  V30 3881 H 354.604 3.64616 -0.380853 0
M  V30 3882 H 354.252 4.66758 1.87472 0
M  V30 3883 H 353.952 5.84785 0.574485 0
M  V30 3884 H 355.476 5.9178 1.50428 0
M  V30 3885 H 356.89 5.68307 -0.75499 0
M  V30 3886 H 355.287 5.80073 -1.53738 0
M  V30 3887 H 356.357 4.44504 -1.93764 0
M  V30 3888 N 357.7 0.491464 1.49741 0
M  V30 3889 C 359.111 0.0413169 1.86654 0
M  V30 3890 C 359.462 -1.36985 1.40462 0
M  V30 3891 O 358.587 -2.01917 0.778354 0
M  V30 3892 C 359.182 0.0682023 3.38731 0
M  V30 3893 C 357.741 -0.32656 3.74981 0
M  V30 3894 C 356.888 0.444888 2.73708 0
M  V30 3895 H 359.839 0.704733 1.42194 0
M  V30 3896 H 359.86 -0.729322 3.73445 0
M  V30 3897 H 359.372 1.09539 3.72321 0
M  V30 3898 H 357.473 -1.35734 3.46997 0
M  V30 3899 H 357.586 -0.013741 4.79098 0
M  V30 3900 H 355.95 -0.104062 2.54487 0
M  V30 3901 H 356.733 1.47197 3.10142 0
M  V30 3902 N 359.178 -1.55987 0.224894 0
M  V30 3903 C 360.418 -2.00293 -0.407706 0
M  V30 3904 C 360.782 -1.1093 -1.56711 0
M  V30 3905 O 361.983 -1.44597 -2.26595 0
M  V30 3906 C 360.254 -3.47675 -0.82805 0
M  V30 3907 S 361.813 -4.14 -1.45429 0
M  V30 3908 H 358.631 -0.699152 -0.129256 0
M  V30 3909 H 361.233 -1.92609 0.334967 0
M  V30 3910 H 359.937 -4.10392 0.0253964 0
M  V30 3911 H 359.468 -3.59239 -1.60345 0
M  V30 3912 H 361.483 -4.13465 -2.74337 0
M  V30 3913 N 360.656 0.0484629 -1.57525 0
M  V30 3914 C 361.566 1.07241 -2.08654 0
M  V30 3915 C 362.582 1.409 -1.02095 0
M  V30 3916 O 363.758 1.50609 -1.33712 0
M  V30 3917 C 360.823 2.36008 -2.5397 0
M  V30 3918 C 359.884 2.09108 -3.7493 0
M  V30 3919 C 359.117 3.31736 -4.18075 0
M  V30 3920 O 359.34 4.41714 -3.60895 0
M  V30 3921 O 358.274 3.18576 -5.10679 0
M  V30 3922 H 362.1 0.667965 -2.96263 0
M  V30 3923 H 359.685 0.26417 -1.47046 0
M  V30 3924 H 361.567 3.11747 -2.83535 0
M  V30 3925 H 360.242 2.75786 -1.69481 0
M  V30 3926 H 359.149 1.31 -3.50414 0
M  V30 3927 H 360.482 1.74198 -4.60343 0
M  V30 3928 N 362.134 1.5431 0.320358 0
M  V30 3929 C 363.411 1.63322 1.07635 0
M  V30 3930 C 363.791 0.46912 2.05821 0
M  V30 3931 O 363.139 -0.536274 2.22118 0
M  V30 3932 C 363.349 3.00465 1.77544 0
M  V30 3933 C 364.697 3.56621 2.30449 0
M  V30 3934 O 365.721 3.02791 1.87606 0
M  V30 3935 O 364.58 4.5083 3.08892 0
M  V30 3936 H 361.674 0.661502 0.496331 0
M  V30 3937 H 364.22 1.66656 0.319992 0
M  V30 3938 H 362.992 3.76629 1.06143 0
M  V30 3939 H 362.615 3.00824 2.59982 0
M  V30 3940 N 363.613 -0.582584 1.46437 0
M  V30 3941 C 364.545 -1.70618 1.53043 0
M  V30 3942 C 365.558 -1.57322 0.418769 0
M  V30 3943 O 366.747 -1.64744 0.687136 0
M  V30 3944 C 363.847 -3.08869 1.39474 0
M  V30 3945 C 363.02 -3.48166 2.64762 0
M  V30 3946 C 362.079 -4.65478 2.4539 0
M  V30 3947 O 361.105 -4.71333 3.19114 0
M  V30 3948 N 362.307 -5.60365 1.51564 0
M  V30 3949 H 365.072 -1.65405 2.49923 0
M  V30 3950 H 362.633 -0.768567 1.42494 0
M  V30 3951 H 364.625 -3.85143 1.24287 0
M  V30 3952 H 363.195 -3.08449 0.507758 0
M  V30 3953 H 362.415 -2.61598 2.9489 0
M  V30 3954 H 363.703 -3.71188 3.4799 0
M  V30 3955 H 363.101 -5.5837 0.907705 0
M  V30 3956 H 361.658 -6.36068 1.4234 0
M  V30 3957 N 365.091 -1.34144 -0.827227 0
M  V30 3958 C 366.34 -1.25602 -1.5782 0
M  V30 3959 C 366.653 0.173445 -1.94829 0
M  V30 3960 O 367.859 0.380984 -2.68814 0
M  V30 3961 C 366.315 -2.20151 -2.84713 0
M  V30 3962 C 365.923 -3.68331 -2.55021 0
M  V30 3963 C 367.667 -2.20508 -3.62735 0
M  V30 3964 C 365.574 -4.54762 -3.78082 0
M  V30 3965 H 364.504 -0.466573 -0.592306 0
M  V30 3966 H 367.155 -1.59283 -0.911116 0
M  V30 3967 H 365.537 -1.79417 -3.53023 0
M  V30 3968 H 366.711 -4.17577 -1.94849 0
M  V30 3969 H 365.026 -3.7038 -1.90283 0
M  V30 3970 H 367.623 -2.82306 -4.54101 0
M  V30 3971 H 367.966 -1.20322 -3.98533 0
M  V30 3972 H 368.499 -2.59664 -3.01362 0
M  V30 3973 H 365.238 -5.55867 -3.47407 0
M  V30 3974 H 364.758 -4.10254 -4.37552 0
M  V30 3975 H 366.437 -4.69153 -4.45538 0
M  V30 3976 N 366.569 1.04691 -1.17803 0
M  V30 3977 C 367.818 1.77176 -0.963931 0
M  V30 3978 C 368.131 1.88888 0.508015 0
M  V30 3979 O 369.337 2.58164 0.840465 0
M  V30 3980 C 367.793 3.18518 -1.67555 0
M  V30 3981 C 367.401 3.14919 -3.18637 0
M  V30 3982 C 369.145 3.95424 -1.54402 0
M  V30 3983 C 367.052 4.51081 -3.82466 0
M  V30 3984 H 365.982 0.664116 -0.357023 0
M  V30 3985 H 368.633 1.17303 -1.4111 0
M  V30 3986 H 367.015 3.78748 -1.15613 0
M  V30 3987 H 368.189 2.64178 -3.77554 0
M  V30 3988 H 366.504 2.51512 -3.31859 0
M  V30 3989 H 369.101 4.96106 -1.99456 0
M  V30 3990 H 369.444 4.13343 -0.495329 0
M  V30 3991 H 369.977 3.41754 -2.0359 0
M  V30 3992 H 366.716 4.38368 -4.87354 0
M  V30 3993 H 366.236 5.01951 -3.28337 0
M  V30 3994 H 367.915 5.2001 -3.84965 0
M  V30 3995 N 368.047 0.979072 1.23499 0
M  V30 3996 C 368.977 0.537606 2.27227 0
M  V30 3997 C 369.958 -0.428539 1.64613 0
M  V30 3998 O 371.143 -0.322191 1.91509 0
M  V30 3999 C 368.273 -0.162052 3.46922 0
M  V30 4000 C 367.227 0.721242 4.21879 0
M  V30 4001 C 366.553 -0.110555 5.34586 0
M  V30 4002 C 367.853 2.01141 4.82016 0
M  V30 4003 H 369.547 1.40462 2.64406 0
M  V30 4004 H 367.093 0.67684 1.27102 0
M  V30 4005 H 369.046 -0.482192 4.18632 0
M  V30 4006 H 367.77 -1.06351 3.08799 0
M  V30 4007 H 366.429 1.02482 3.51984 0
M  V30 4008 H 366.077 -1.0125 4.92704 0
M  V30 4009 H 365.777 0.477325 5.85658 0
M  V30 4010 H 367.301 -0.425107 6.09118 0
M  V30 4011 H 368.715 1.75612 5.45741 0
M  V30 4012 H 367.112 2.54695 5.43369 0
M  V30 4013 H 368.182 2.69909 4.02836 0
M  V30 4014 N 369.525 -1.3858 0.750561 0
M  V30 4015 C 370.455 -2.33102 0.136237 0
M  V30 4016 C 371.436 -1.54713 -0.706965 0
M  V30 4017 O 372.621 -1.83043 -0.648769 0
M  V30 4018 C 369.751 -3.38882 -0.760017 0
M  V30 4019 C 368.705 -4.27995 -0.0197785 0
M  V30 4020 C 368.031 -5.24605 -1.03408 0
M  V30 4021 C 369.331 -5.09554 1.14684 0
M  V30 4022 H 371.025 -2.84726 0.925822 0
M  V30 4023 H 368.571 -1.36898 0.446654 0
M  V30 4024 H 370.524 -4.0397 -1.19943 0
M  V30 4025 H 369.248 -2.85734 -1.58189 0
M  V30 4026 H 367.907 -3.64409 0.400184 0
M  V30 4027 H 367.555 -4.67746 -1.84994 0
M  V30 4028 H 367.255 -5.85081 -0.543464 0
M  V30 4029 H 368.779 -5.9257 -1.47288 0
M  V30 4030 H 370.193 -5.67899 0.785118 0
M  V30 4031 H 368.59 -5.7925 1.56812 0
M  V30 4032 H 369.66 -4.4347 1.96118 0
M  V30 4033 N 371.003 -0.499398 -1.49478 0
M  V30 4034 C 371.95 0.279881 -2.29097 0
M  V30 4035 C 372.92 0.961805 -1.3542 0
M  V30 4036 O 374.105 0.968777 -1.64376 0
M  V30 4037 C 371.245 1.33932 -3.18051 0
M  V30 4038 C 370.358 0.669333 -4.26783 0
M  V30 4039 C 369.493 1.70907 -5.02955 0
M  V30 4040 C 368.532 1.02087 -6.03527 0
M  V30 4041 N 367.669 2.00474 -6.7287 0
M  V30 4042 H 372.509 -0.405317 -2.95231 0
M  V30 4043 H 370.046 -0.211726 -1.45568 0
M  V30 4044 H 372.004 1.96553 -3.67998 0
M  V30 4045 H 370.634 1.9933 -2.53904 0
M  V30 4046 H 369.686 -0.0701234 -3.80335 0
M  V30 4047 H 370.998 0.127503 -4.98637 0
M  V30 4048 H 370.152 2.41037 -5.56764 0
M  V30 4049 H 368.891 2.28476 -4.30871 0
M  V30 4050 H 367.896 0.305338 -5.48951 0
M  V30 4051 H 369.121 0.451708 -6.77596 0
M  V30 4052 H 367.067 2.57007 -6.03559 0
M  V30 4053 H 366.984 1.51353 -7.40694 0
M  V30 4054 H 368.252 2.69897 -7.31284 0
M  V30 4055 N 372.481 1.55866 -0.233164 0
M  V30 4056 C 373.729 1.9821 0.394593 0
M  V30 4057 C 374.05 1.12234 1.59463 0
M  V30 4058 O 373.32 0.201981 1.94856 0
M  V30 4059 H 371.9 0.732034 0.148778 0
M  V30 4060 H 374.562 1.92107 -0.32876 0
M  V30 4061 H 373.658 3.03845 0.713063 0
M  V30 4062 N 373.959 -0.0401083 1.57549 0
M  V30 4063 C 375.199 -0.738098 1.90608 0
M  V30 4064 C 375.563 -1.73107 0.830539 0
M  V30 4065 O 376.764 -2.4765 1.04513 0
M  V30 4066 C 375.035 -1.39985 3.28845 0
M  V30 4067 S 376.594 -2.12852 3.83718 0
M  V30 4068 H 373.412 -0.24477 0.667539 0
M  V30 4069 H 376.014 0.00693599 1.95499 0
M  V30 4070 H 374.718 -0.663775 4.04997 0
M  V30 4071 H 374.249 -2.18366 3.2723 0
M  V30 4072 H 376.264 -3.39842 3.61555 0
M  V30 4073 N 375.437 -1.54477 -0.31217 0
M  V30 4074 C 376.677 -1.74958 -1.05684 0
M  V30 4075 C 377.041 -0.518414 -1.84869 0
M  V30 4076 O 378.242 -0.600759 -2.62001 0
M  V30 4077 C 376.513 -2.99656 -1.94785 0
M  V30 4078 S 378.072 -3.4109 -2.76049 0
M  V30 4079 H 374.89 -0.615104 -0.356606 0
M  V30 4080 H 377.492 -1.92669 -0.331514 0
M  V30 4081 H 376.196 -3.87397 -1.35468 0
M  V30 4082 H 375.727 -2.845 -2.71704 0
M  V30 4083 H 377.742 -2.97283 -3.97287 0
M  V30 4084 N 376.915 0.57481 -1.46744 0
M  V30 4085 C 377.848 1.69827 -1.52427 0
M  V30 4086 C 378.826 1.58151 -0.377744 0
M  V30 4087 O 380.01 1.79257 -0.58303 0
M  V30 4088 C 377.137 3.07943 -1.41027 0
M  V30 4089 C 376.183 3.38116 -2.59961 0
M  V30 4090 S 377.016 3.29313 -4.22272 0
M  V30 4091 C 378.172 4.69953 -4.13394 0
M  V30 4092 H 378.405 1.64748 -2.47478 0
M  V30 4093 H 375.938 0.754203 -1.34726 0
M  V30 4094 H 377.896 3.87619 -1.35137 0
M  V30 4095 H 376.557 3.10504 -0.473909 0
M  V30 4096 H 375.75 4.38762 -2.47999 0
M  V30 4097 H 375.352 2.66024 -2.62882 0
M  V30 4098 H 377.644 5.60517 -3.80562 0
M  V30 4099 H 378.587 4.86972 -5.14066 0
M  V30 4100 H 378.995 4.47174 -3.44522 0
M  V30 4101 N 378.394 1.34581 0.820102 0
M  V30 4102 C 379.304 1.28471 1.96297 0
M  V30 4103 C 380.32 0.191902 1.72939 0
M  V30 4104 O 381.496 0.418879 1.96996 0
M  V30 4105 C 378.561 1.04281 3.30645 0
M  V30 4106 C 377.622 2.22745 3.66992 0
M  V30 4107 C 376.855 1.997 4.9493 0
M  V30 4108 O 377.078 0.956656 5.6232 0
M  V30 4109 O 376.012 2.86723 5.2922 0
M  V30 4110 H 379.838 2.24624 2.04396 0
M  V30 4111 H 377.423 1.14816 0.955913 0
M  V30 4112 H 379.305 0.925841 4.11104 0
M  V30 4113 H 377.98 0.111697 3.23507 0
M  V30 4114 H 376.887 2.40003 2.86966 0
M  V30 4115 H 378.22 3.14257 3.78819 0
M  V30 4116 N 379.872 -1.04064 1.18357 0
M  V30 4117 C 381.121 -1.76662 0.973313 0
M  V30 4118 C 381.434 -1.89154 -0.497991 0
M  V30 4119 O 382.64 -2.58606 -0.826762 0
M  V30 4120 C 381.096 -3.17624 1.69242 0
M  V30 4121 C 380.704 -3.13225 3.20303 0
M  V30 4122 C 382.448 -3.946 1.56497 0
M  V30 4123 C 380.355 -4.49046 3.84853 0
M  V30 4124 H 379.285 -0.662214 0.36054 0
M  V30 4125 H 381.936 -1.16553 1.41731 0
M  V30 4126 H 380.318 -3.78129 1.1762 0
M  V30 4127 H 381.492 -2.62172 3.78949 0
M  V30 4128 H 379.807 -2.49749 3.33189 0
M  V30 4129 H 382.404 -4.95042 2.02084 0
M  V30 4130 H 382.747 -4.13074 0.517243 0
M  V30 4131 H 383.28 -3.4067 2.05399 0
M  V30 4132 H 380.019 -4.35777 4.89672 0
M  V30 4133 H 379.539 -5.00203 3.30994 0
M  V30 4134 H 381.218 -5.17961 3.87718 0
M  V30 4135 N 381.35 -0.985608 -1.22978 0
M  V30 4136 C 382.283 -0.47487 -2.23204 0
M  V30 4137 C 383.261 0.460865 -1.55932 0
M  V30 4138 O 384.445 0.388105 -1.84461 0
M  V30 4139 C 381.572 0.312427 -3.37256 0
M  V30 4140 C 380.618 -0.568219 -4.22698 0
M  V30 4141 S 381.451 -2.01919 -4.95973 0
M  V30 4142 C 382.607 -1.24118 -6.1347 0
M  V30 4143 H 382.84 -1.32419 -2.66181 0
M  V30 4144 H 380.373 -0.792005 -1.32539 0
M  V30 4145 H 382.331 0.760645 -4.03391 0
M  V30 4146 H 380.992 1.13693 -2.92801 0
M  V30 4147 H 380.185 0.0371657 -5.03986 0
M  V30 4148 H 379.787 -0.952897 -3.61657 0
M  V30 4149 H 382.079 -0.505121 -6.75614 0
M  V30 4150 H 383.022 -2.02907 -6.78406 0
M  V30 4151 H 383.43 -0.757669 -5.59392 0
M  V30 4152 N 382.828 1.3818 -0.7579 0
M  V30 4153 C 384.053 2.04827 -0.325679 0
M  V30 4154 C 384.478 1.56788 1.03919 0
M  V30 4155 O 383.836 0.721811 1.66312 0
M  V30 4156 C 383.884 3.58774 -0.362447 0
M  V30 4157 O 382.988 4.07372 0.642033 0
M  V30 4158 H 382.329 0.64833 -0.143402 0
M  V30 4159 H 384.859 1.7677 -1.03023 0
M  V30 4160 H 384.869 4.07434 -0.214844 0
M  V30 4161 H 383.544 3.93096 -1.35824 0
M  V30 4162 H 382.121 3.70068 0.458688 0
M  V30 4163 N 384.306 0.507319 1.49211 0
M  V30 4164 C 385.236 -0.256939 2.32082 0
M  V30 4165 C 386.217 -0.956609 1.40652 0
M  V30 4166 O 387.402 -0.946788 1.69557 0
M  V30 4167 C 384.532 -1.31802 3.21318 0
M  V30 4168 C 383.486 -0.737855 4.21592 0
M  V30 4169 C 382.812 -1.89992 4.99807 0
M  V30 4170 C 384.112 0.275325 5.21574 0
M  V30 4171 H 385.806 0.434798 2.96226 0
M  V30 4172 H 383.352 0.210546 1.42452 0
M  V30 4173 H 385.305 -1.86045 3.78107 0
M  V30 4174 H 384.029 -2.03903 2.5513 0
M  V30 4175 H 382.688 -0.217126 3.65956 0
M  V30 4176 H 382.336 -2.60877 4.30061 0
M  V30 4177 H 382.036 -1.51777 5.6766 0
M  V30 4178 H 383.56 -2.44657 5.59442 0
M  V30 4179 H 384.974 -0.179193 5.7302 0
M  V30 4180 H 383.371 0.573649 5.97352 0
M  V30 4181 H 384.441 1.18903 4.70096 0
M  V30 4182 N 385.784 -1.5574 0.241426 0
M  V30 4183 C 387.2 -1.59196 -0.113548 0
M  V30 4184 C 387.4 -1.25852 -1.57364 0
M  V30 4185 O 386.456 -1.00322 -2.31715 0
M  V30 4186 C 387.769 -2.99814 0.230695 0
M  V30 4187 C 389.317 -3.12513 0.174547 0
M  V30 4188 C 389.792 -4.55342 0.492744 0
M  V30 4189 N 391.283 -4.61076 0.443043 0
M  V30 4190 C 392.018 -5.6956 0.662484 0
M  V30 4191 N 391.514 -6.86328 0.944761 0
M  V30 4192 N 393.307 -5.58957 0.593564 0
M  V30 4193 H 385.458 -1.75685 1.19368 0
M  V30 4194 H 387.721 -0.81756 0.479896 0
M  V30 4195 H 387.427 -3.28932 1.24485 0
M  V30 4196 H 387.301 -3.74568 -0.444833 0
M  V30 4197 H 389.688 -2.83179 -0.830277 0
M  V30 4198 H 389.769 -2.40045 0.883845 0
M  V30 4199 H 389.413 -4.85396 1.4951 0
M  V30 4200 H 389.343 -5.26062 -0.23797 0
M  V30 4201 H 391.834 -3.77179 0.233374 0
M  V30 4202 H 392.147 -7.64935 1.09977 0
M  V30 4203 H 390.492 -6.88025 0.982175 0
M  V30 4204 H 393.683 -4.66611 0.373123 0
M  V30 4205 H 393.856 -6.43433 0.767981 0
M  V30 4206 N 387.262 0.0317525 -1.57568 0
M  V30 4207 C 388.225 1.01783 -2.0536 0
M  V30 4208 C 389.225 1.29203 -0.957253 0
M  V30 4209 O 390.415 1.24251 -1.22095 0
M  V30 4210 C 387.547 2.35137 -2.46827 0
M  V30 4211 H 388.74 0.605062 -2.93733 0
M  V30 4212 H 386.293 0.278514 -1.53799 0
M  V30 4213 H 387.028 2.81168 -1.61602 0
M  V30 4214 H 386.813 2.16566 -3.26866 0
M  V30 4215 H 388.303 3.05938 -2.84239 0
M  V30 4216 N 388.74 1.54641 0.303973 0
M  V30 4217 C 389.703 1.84646 1.35789 0
M  V30 4218 C 390.703 0.7192 1.4382 0
M  V30 4219 O 391.893 0.987491 1.43507 0
M  V30 4220 C 389.025 2.02407 2.74307 0
M  V30 4221 H 390.218 2.78829 1.10429 0
M  V30 4222 H 387.771 1.46658 0.540487 0
M  V30 4223 H 388.506 1.10502 3.04893 0
M  V30 4224 H 388.291 2.84453 2.69868 0
M  V30 4225 H 389.781 2.27002 3.50514 0
M  V30 4226 N 390.218 -0.567019 1.47046 0
M  V30 4227 C 391.464 -1.32658 1.53394 0
M  V30 4228 C 391.797 -1.93254 0.19148 0
M  V30 4229 O 391.072 -1.77338 -0.798844 0
M  V30 4230 C 391.355 -2.44412 2.64452 0
M  V30 4231 C 391.208 -1.88749 4.08282 0
M  V30 4232 C 392.527 -3.46387 2.71485 0
M  V30 4233 H 389.646 -0.48098 0.558415 0
M  V30 4234 H 392.288 -0.635481 1.79058 0
M  V30 4235 H 390.438 -3.03363 2.427 0
M  V30 4236 H 392.11 -1.34134 4.41368 0
M  V30 4237 H 390.353 -1.19481 4.17021 0
M  V30 4238 H 391.024 -2.69491 4.81745 0
M  V30 4239 H 393.5 -2.9734 2.91081 0
M  V30 4240 H 392.376 -4.2202 3.50985 0
M  V30 4241 H 392.637 -4.04616 1.78153 0
M  V30 4242 N 391.696 -1.35014 -0.812953 0
M  V30 4243 C 393.112 -1.14914 -1.10757 0
M  V30 4244 C 393.312 0.0426818 -2.01455 0
M  V30 4245 O 392.368 0.715212 -2.42159 0
M  V30 4246 C 393.681 -2.44911 -1.74468 0
M  V30 4247 C 395.229 -2.5106 -1.86917 0
M  V30 4248 C 395.704 -3.81085 -2.54044 0
M  V30 4249 N 397.195 -3.82301 -2.61535 0
M  V30 4250 C 397.93 -4.79634 -3.14227 0
M  V30 4251 N 397.426 -5.87353 -3.67407 0
M  V30 4252 N 399.219 -4.67078 -3.12721 0
M  V30 4253 H 391.37 -2.1136 -0.20989 0
M  V30 4254 H 393.633 -0.935128 -0.155692 0
M  V30 4255 H 393.339 -3.32267 -1.15289 0
M  V30 4256 H 393.213 -2.58989 -2.74234 0
M  V30 4257 H 395.6 -1.64137 -2.45241 0
M  V30 4258 H 395.681 -2.40901 -0.860242 0
M  V30 4259 H 395.325 -4.68402 -1.96372 0
M  V30 4260 H 395.255 -3.88529 -3.55461 0
M  V30 4261 H 397.746 -3.04465 -2.23851 0
M  V30 4262 H 398.059 -6.57624 -4.05894 0
M  V30 4263 H 396.404 -5.91054 -3.65623 0
M  V30 4264 H 399.595 -3.82067 -2.70449 0
M  V30 4265 H 399.768 -5.43098 -3.53481 0
M  V30 4266 N 393.175 1.03435 -1.18907 0
M  V30 4267 C 394.405 1.8012 -1.01195 0
M  V30 4268 C 394.813 1.8395 0.442613 0
M  V30 4269 O 394.156 1.27836 1.31923 0
M  V30 4270 C 394.218 3.26792 -1.49823 0
M  V30 4271 C 393.882 3.46609 -2.97844 0
M  V30 4272 C 394.879 3.37278 -3.95651 0
M  V30 4273 C 392.564 3.73001 -3.36416 0
M  V30 4274 C 394.558 3.54054 -5.30023 0
M  V30 4275 C 392.245 3.89423 -4.70949 0
M  V30 4276 C 393.243 3.79951 -5.67562 0
M  V30 4277 O 392.931 3.95895 -6.99659 0
M  V30 4278 H 392.663 0.573865 -0.357289 0
M  V30 4279 H 395.217 1.31207 -1.58031 0
M  V30 4280 H 393.447 3.76703 -0.873578 0
M  V30 4281 H 395.136 3.85055 -1.28404 0
M  V30 4282 H 395.902 3.16846 -3.67197 0
M  V30 4283 H 391.781 3.79469 -2.61772 0
M  V30 4284 H 395.325 3.46577 -6.05417 0
M  V30 4285 H 391.222 4.09351 -4.99101 0
M  V30 4286 H 391.99 4.13019 -7.06653 0
M  V30 4287 N 394.653 0.992116 1.22453 0
M  V30 4288 C 395.93 0.583508 1.86694 0
M  V30 4289 C 396.31 -0.9392 1.89056 0
M  V30 4290 O 395.658 -1.82081 1.38053 0
M  V30 4291 C 395.868 1.20304 3.2761 0
M  V30 4292 C 397.216 1.30308 4.0411 0
M  V30 4293 O 398.24 1.15737 3.36873 0
M  V30 4294 O 397.099 1.53615 5.24466 0
M  V30 4295 H 394.193 0.198129 0.802916 0
M  V30 4296 H 396.739 1.08794 1.30238 0
M  V30 4297 H 395.511 2.24461 3.2052 0
M  V30 4298 H 395.134 0.684144 3.9167 0
M  V30 4299 N 396.131 -1.37776 0.765217 0
M  V30 4300 C 397.542 -1.82521 0.392819 0
M  V30 4301 C 397.893 -1.63789 -1.08017 0
M  V30 4302 O 397.018 -1.14542 -1.83601 0
M  V30 4303 C 397.613 -3.31358 0.706214 0
M  V30 4304 C 396.172 -3.74406 0.386952 0
M  V30 4305 C 395.319 -2.60394 0.953422 0
M  V30 4306 H 398.27 -1.2634 0.960412 0
M  V30 4307 H 398.291 -3.80498 -0.0114706 0
M  V30 4308 H 397.803 -3.44959 1.77833 0
M  V30 4309 H 395.904 -3.66377 -0.678112 0
M  V30 4310 H 396.017 -4.70749 0.890636 0
M  V30 4311 H 394.381 -2.51878 0.378064 0
M  V30 4312 H 395.164 -2.76791 2.03081 0
M  V30 4313 N 397.609 -0.515225 -1.4894 0
M  V30 4314 C 398.519 0.259774 -2.33157 0
M  V30 4315 C 399.535 0.953501 -1.45548 0
M  V30 4316 O 400.711 0.931735 -1.78552 0
M  V30 4317 C 397.776 1.30193 -3.21326 0
M  V30 4318 C 396.837 0.620129 -4.24797 0
M  V30 4319 C 396.07 1.61263 -5.08753 0
M  V30 4320 O 396.293 2.84389 -4.94448 0
M  V30 4321 O 395.227 1.16013 -5.90614 0
M  V30 4322 H 399.053 -0.429932 -3.00641 0
M  V30 4323 H 396.638 -0.276346 -1.46822 0
M  V30 4324 H 398.52 1.90455 -3.75905 0
M  V30 4325 H 397.195 1.97431 -2.56521 0
M  V30 4326 H 396.102 -0.0226019 -3.74093 0
M  V30 4327 H 397.435 -0.0100493 -4.92199 0
M  V30 4328 N 399.087 1.5561 -0.249682 0
M  V30 4329 C 400.312 2.03865 0.381305 0
M  V30 4330 C 400.737 1.12769 1.50548 0
M  V30 4331 O 400.095 0.121189 1.80895 0
M  V30 4332 C 400.143 3.50101 0.863816 0
M  V30 4333 O 399.247 3.62132 1.97318 0
M  V30 4334 H 398.588 0.658827 0.0827194 0
M  V30 4335 H 401.118 2.01105 -0.376552 0
M  V30 4336 H 401.128 3.90975 1.1663 0
M  V30 4337 H 399.803 4.1588 0.0411816 0
M  V30 4338 H 398.38 3.33155 1.67517 0
M  V30 4339 N 400.565 -0.0233959 1.57583 0
M  V30 4340 C 401.842 -0.748794 1.807 0
M  V30 4341 C 402.222 -1.9327 0.849106 0
M  V30 4342 O 401.57 -2.28247 -0.107468 0
M  V30 4343 C 401.78 -1.17651 3.28571 0
M  V30 4344 C 403.128 -1.59008 3.93702 0
M  V30 4345 O 404.152 -1.27094 3.32755 0
M  V30 4346 O 403.011 -2.18264 5.01022 0
M  V30 4347 H 400.105 -0.362578 0.743281 0
M  V30 4348 H 402.651 0.000261958 1.697 0
M  V30 4349 H 401.423 -0.331603 3.89892 0
M  V30 4350 H 401.046 -1.98541 3.44481 0
M  V30 4351 N 402.043 -1.548 -0.295768 0
M  V30 4352 C 403.271 -1.78327 -1.04914 0
M  V30 4353 C 403.686 -0.545316 -1.80753 0
M  V30 4354 O 403.043 0.485013 -1.75937 0
M  V30 4355 C 403.094 -2.99418 -2.02561 0
M  V30 4356 O 402.815 -4.18431 -1.29798 0
M  V30 4357 C 404.316 -3.35375 -2.89895 0
M  V30 4358 H 401.536 -0.594618 -0.310918 0
M  V30 4359 H 404.08 -2.01763 -0.333454 0
M  V30 4360 H 402.235 -2.78175 -2.69624 0
M  V30 4361 H 402.649 -4.86736 -1.95419 0
M  V30 4362 H 404.123 -4.23332 -3.54251 0
M  V30 4363 H 404.6 -2.53761 -3.58472 0
M  V30 4364 H 405.206 -3.58796 -2.28355 0
M  V30 4365 N 403.521 0.559213 -1.47345 0
M  V30 4366 C 404.451 1.67622 -1.62558 0
M  V30 4367 C 405.432 1.63331 -0.475087 0
M  V30 4368 O 406.617 1.80983 -0.704182 0
M  V30 4369 C 403.747 3.0626 -1.63774 0
M  V30 4370 C 402.701 3.25397 -2.7803 0
M  V30 4371 C 402.027 4.64801 -2.64318 0
M  V30 4372 C 403.327 3.10965 -4.19641 0
M  V30 4373 H 405.021 1.55146 -2.56067 0
M  V30 4374 H 402.567 0.744961 -1.23233 0
M  V30 4375 H 404.52 3.84247 -1.73008 0
M  V30 4376 H 403.244 3.1969 -0.66825 0
M  V30 4377 H 401.903 2.49817 -2.68304 0
M  V30 4378 H 401.551 4.75028 -1.65401 0
M  V30 4379 H 401.251 4.78555 -3.40968 0
M  V30 4380 H 402.775 5.44926 -2.75478 0
M  V30 4381 H 404.189 3.78772 -4.30354 0
M  V30 4382 H 402.586 3.36229 -4.97062 0
M  V30 4383 H 403.656 2.07736 -4.38148 0
M  V30 4384 N 404.999 1.35443 0.805782 0
M  V30 4385 C 406.227 1.31878 1.59423 0
M  V30 4386 C 406.642 -0.103562 1.88516 0
M  V30 4387 O 405.999 -1.05575 1.48863 0
M  V30 4388 C 406.05 2.12426 2.92502 0
M  V30 4389 O 405.771 3.49115 2.6467 0
M  V30 4390 C 407.272 2.16455 3.86862 0
M  V30 4391 H 404.492 0.453002 0.495005 0
M  V30 4392 H 407.036 1.78309 1.00131 0
M  V30 4393 H 405.191 1.69593 3.48306 0
M  V30 4394 H 405.605 3.90957 3.49647 0
M  V30 4395 H 407.079 2.77204 4.77349 0
M  V30 4396 H 407.556 1.16352 4.23508 0
M  V30 4397 H 408.162 2.59453 3.36993 0
M  V30 4398 N 406.477 -1.02803 1.19454 0
M  V30 4399 C 407.407 -2.12999 0.956758 0
M  V30 4400 C 408.388 -1.69743 -0.110188 0
M  V30 4401 O 409.573 -1.94148 0.0450038 0
M  V30 4402 C 406.703 -3.43746 0.495553 0
M  V30 4403 C 405.657 -4.00688 1.50443 0
M  V30 4404 C 404.983 -5.27067 0.900275 0
M  V30 4405 C 406.283 -4.35397 2.8849 0
M  V30 4406 H 407.977 -2.33148 1.87836 0
M  V30 4407 H 405.523 -1.12045 0.904539 0
M  V30 4408 H 407.476 -4.2021 0.316493 0
M  V30 4409 H 406.2 -3.23321 -0.461646 0
M  V30 4410 H 404.859 -3.2632 1.67065 0
M  V30 4411 H 404.507 -5.02959 -0.064503 0
M  V30 4412 H 404.207 -5.66127 1.57397 0
M  V30 4413 H 405.731 -6.06196 0.73203 0
M  V30 4414 H 407.145 -5.02795 2.75446 0
M  V30 4415 H 405.542 -4.85541 3.52661 0
M  V30 4416 H 406.612 -3.44662 3.41081 0
M  V30 4417 N 407.956 -0.998596 -1.21925 0
M  V30 4418 C 409.181 -0.696015 -1.95372 0
M  V30 4419 C 409.606 0.733826 -1.73195 0
M  V30 4420 O 408.964 1.50242 -1.01474 0
M  V30 4421 C 409.012 -1.01466 -3.4603 0
M  V30 4422 O 408.116 -0.116415 -4.12236 0
M  V30 4423 H 407.457 -0.259938 -0.611006 0
M  V30 4424 H 409.987 -1.33711 -1.54863 0
M  V30 4425 H 409.997 -0.958855 -3.96573 0
M  V30 4426 H 408.672 -2.05653 -3.61497 0
M  V30 4427 H 407.249 -0.228193 -3.72201 0
M  V30 4428 N 409.434 1.37368 -0.772513 0
M  V30 4429 C 410.682 1.99279 -0.336516 0
M  V30 4430 C 411.003 1.6163 1.09091 0
M  V30 4431 O 410.273 0.882109 1.74916 0
M  V30 4432 H 408.853 0.737063 -0.121435 0
M  V30 4433 H 411.515 1.67836 -0.990809 0
M  V30 4434 H 410.611 3.09332 -0.414763 0
M  V30 4435 N 410.912 0.523116 1.48665 0
M  V30 4436 C 411.822 -0.247406 2.33292 0
M  V30 4437 C 412.838 -0.945769 1.46052 0
M  V30 4438 O 414.014 -0.922253 1.79043 0
M  V30 4439 C 411.079 -1.28487 3.22012 0
M  V30 4440 C 410.14 -0.597592 4.2512 0
M  V30 4441 C 409.373 -1.58563 5.09601 0
M  V30 4442 O 409.596 -2.81763 4.95949 0
M  V30 4443 O 408.53 -1.12879 5.91221 0
M  V30 4444 H 412.356 0.445869 3.00409 0
M  V30 4445 H 409.941 0.284128 1.46673 0
M  V30 4446 H 411.823 -1.88459 3.7691 0
M  V30 4447 H 410.498 -1.96068 2.57564 0
M  V30 4448 H 409.405 0.0424407 3.74076 0
M  V30 4449 H 410.738 0.0361517 4.92187 0
M  V30 4450 N 412.39 -1.55475 0.257931 0
M  V30 4451 C 413.323 -2.179 -0.677862 0
M  V30 4452 C 414.301 -1.13448 -1.16483 0
M  V30 4453 O 415.485 -1.41889 -1.24095 0
M  V30 4454 C 412.612 -2.78851 -1.92249 0
M  V30 4455 C 411.658 -3.96454 -1.57246 0
M  V30 4456 S 412.491 -5.31349 -0.665501 0
M  V30 4457 C 413.647 -5.9576 -1.91889 0
M  V30 4458 H 413.88 -2.96934 -0.147396 0
M  V30 4459 H 411.413 -1.54342 0.0423023 0
M  V30 4460 H 413.371 -3.14602 -2.63697 0
M  V30 4461 H 412.032 -1.99742 -2.42409 0
M  V30 4462 H 411.225 -4.37731 -2.49814 0
M  V30 4463 H 410.827 -3.62038 -0.938325 0
M  V30 4464 H 413.119 -6.13947 -2.86487 0
M  V30 4465 H 414.062 -6.9094 -1.54942 0
M  V30 4466 H 414.47 -5.2494 -2.076 0
M  V30 4467 N 413.868 0.0150385 -1.57593 0
M  V30 4468 C 414.831 0.995996 -2.06428 0
M  V30 4469 C 415.831 1.2818 -0.970903 0
M  V30 4470 O 417.021 1.22949 -1.23406 0
M  V30 4471 C 414.153 2.32506 -2.49307 0
M  V30 4472 H 415.346 0.573873 -2.94358 0
M  V30 4473 H 412.899 0.262186 -1.54085 0
M  V30 4474 H 413.634 2.79438 -1.64575 0
M  V30 4475 H 413.419 2.13087 -3.29145 0
M  V30 4476 H 414.909 3.02906 -2.87468 0
M  V30 4477 N 415.346 1.54954 0.287554 0
M  V30 4478 C 416.592 1.75132 1.02257 0
M  V30 4479 C 416.925 0.542858 1.86458 0
M  V30 4480 O 416.2 -0.459856 1.88986 0
M  V30 4481 C 416.483 3.04812 1.91733 0
M  V30 4482 C 416.336 4.35985 1.10622 0
M  V30 4483 C 417.655 3.30438 2.90687 0
M  V30 4484 H 414.774 0.637194 0.370341 0
M  V30 4485 H 417.416 1.87678 0.296111 0
M  V30 4486 H 415.566 2.94247 2.53675 0
M  V30 4487 H 417.238 4.58487 0.508636 0
M  V30 4488 H 415.481 4.31865 0.409271 0
M  V30 4489 H 416.152 5.23017 1.76513 0
M  V30 4490 H 418.628 3.40701 2.38877 0
M  V30 4491 H 417.504 4.22467 3.50447 0
M  V30 4492 H 417.765 2.49377 3.65053 0
M  V30 4493 N 416.824 -0.551391 1.4764 0
M  V30 4494 C 417.771 -1.65796 1.60563 0
M  V30 4495 C 418.741 -1.59932 0.448428 0
M  V30 4496 O 419.926 -1.78679 0.669222 0
M  V30 4497 C 417.066 -3.04108 1.63133 0
M  V30 4498 C 416.179 -3.20365 2.89811 0
M  V30 4499 C 415.314 -4.49109 2.8368 0
M  V30 4500 C 414.353 -4.58819 4.05156 0
M  V30 4501 N 413.49 -5.78926 3.97227 0
M  V30 4502 H 418.33 -1.54088 2.5507 0
M  V30 4503 H 415.867 -0.75052 1.26513 0
M  V30 4504 H 417.825 -3.84207 1.62606 0
M  V30 4505 H 416.455 -3.14637 0.721341 0
M  V30 4506 H 415.507 -2.33659 3.00179 0
M  V30 4507 H 416.819 -3.23402 3.79753 0
M  V30 4508 H 415.973 -5.37475 2.81434 0
M  V30 4509 H 414.712 -4.4856 1.91431 0
M  V30 4510 H 413.717 -3.68864 4.077 0
M  V30 4511 H 414.942 -4.61124 4.98539 0
M  V30 4512 H 412.888 -5.79314 3.07785 0
M  V30 4513 H 412.805 -5.83367 4.80853 0
M  V30 4514 H 414.073 -6.69637 3.99007 0
M  V30 4515 N 418.302 -1.35869 -0.798587 0
M  V30 4516 C 419.718 -1.16082 -1.09532 0
M  V30 4517 C 419.918 0.0213124 -2.01489 0
M  V30 4518 O 418.974 0.689488 -2.42904 0
M  V30 4519 C 420.287 -2.46748 -1.7186 0
M  V30 4520 C 421.835 -2.53028 -1.84244 0
M  V30 4521 C 422.31 -3.83758 -2.49988 0
M  V30 4522 N 423.801 -3.85053 -2.57465 0
M  V30 4523 C 424.536 -4.8294 -3.09122 0
M  V30 4524 N 424.032 -5.91217 -3.61157 0
M  V30 4525 N 425.825 -4.70369 -3.0775 0
M  V30 4526 H 417.976 -2.11571 -0.187461 0
M  V30 4527 H 420.239 -0.936726 -0.145765 0
M  V30 4528 H 419.945 -3.33471 -1.11759 0
M  V30 4529 H 419.819 -2.61883 -2.71472 0
M  V30 4530 H 422.206 -1.66729 -2.43486 0
M  V30 4531 H 422.287 -2.418 -0.834643 0
M  V30 4532 H 421.931 -4.70459 -1.91393 0
M  V30 4533 H 421.861 -3.92278 -3.5132 0
M  V30 4534 H 424.352 -3.06822 -2.20609 0
M  V30 4535 H 424.665 -6.61892 -3.98896 0
M  V30 4536 H 423.01 -5.94899 -3.59333 0
M  V30 4537 H 426.201 -3.84914 -2.66381 0
M  V30 4538 H 426.374 -5.46816 -3.47701 0
M  V30 4539 N 419.78 1.02168 -1.19998 0
M  V30 4540 C 420.69 2.14069 -0.959774 0
M  V30 4541 C 421.706 1.73804 0.082655 0
M  V30 4542 O 422.882 2.01133 -0.103633 0
M  V30 4543 C 419.947 3.42936 -0.509459 0
M  V30 4544 C 419.008 3.97474 -1.62213 0
M  V30 4545 C 418.241 5.2019 -1.19321 0
M  V30 4546 O 418.464 5.70369 -0.0597726 0
M  V30 4547 O 417.398 5.67749 -1.99863 0
M  V30 4548 H 421.224 2.37199 -1.89658 0
M  V30 4549 H 418.809 1.12469 -0.983411 0
M  V30 4550 H 420.691 4.20551 -0.267322 0
M  V30 4551 H 419.366 3.21234 0.398821 0
M  V30 4552 H 418.273 3.21161 -1.9185 0
M  V30 4553 H 419.606 4.23555 -2.50723 0
M  V30 4554 N 421.258 1.00505 1.21394 0
M  V30 4555 C 422.19 0.52372 2.23136 0
M  V30 4556 C 423.203 -0.387714 1.58116 0
M  V30 4557 O 424.392 -0.187905 1.77508 0
M  V30 4558 C 421.492 -0.258885 3.3791 0
M  V30 4559 C 420.665 0.651634 4.32519 0
M  V30 4560 C 419.724 -0.0813705 5.26137 0
M  V30 4561 O 418.75 0.537295 5.66658 0
M  V30 4562 N 419.952 -1.35992 5.64346 0
M  V30 4563 H 422.717 1.39865 2.65062 0
M  V30 4564 H 420.278 0.881196 1.35818 0
M  V30 4565 H 422.27 -0.758208 3.97534 0
M  V30 4566 H 420.84 -1.035 2.94968 0
M  V30 4567 H 420.06 1.33145 3.71034 0
M  V30 4568 H 421.348 1.27129 4.92662 0
M  V30 4569 H 420.746 -1.88368 5.33417 0
M  V30 4570 H 419.303 -1.8042 6.26332 0
M  V30 4571 N 422.737 -1.36956 0.779787 0
M  V30 4572 C 423.667 -2.32761 0.185651 0
M  V30 4573 C 424.648 -1.56177 -0.673989 0
M  V30 4574 O 425.833 -1.84378 -0.609797 0
M  V30 4575 C 422.963 -3.40418 -0.687964 0
M  V30 4576 C 421.917 -4.27941 0.0710102 0
M  V30 4577 C 421.243 -5.26681 -0.922573 0
M  V30 4578 C 422.543 -5.07006 1.25467 0
M  V30 4579 H 424.237 -2.82698 0.986008 0
M  V30 4580 H 421.783 -1.3592 0.475592 0
M  V30 4581 H 423.736 -4.06423 -1.11348 0
M  V30 4582 H 422.46 -2.89025 -1.52093 0
M  V30 4583 H 421.119 -3.63478 0.47739 0
M  V30 4584 H 420.767 -4.71565 -1.7503 0
M  V30 4585 H 420.467 -5.86103 -0.419237 0
M  V30 4586 H 421.991 -5.9556 -1.34686 0
M  V30 4587 H 423.405 -5.66105 0.905401 0
M  V30 4588 H 421.802 -5.75793 1.69063 0
M  V30 4589 H 422.872 -4.3921 2.05481 0
M  V30 4590 N 424.215 -0.530993 -1.48385 0
M  V30 4591 C 425.162 0.231223 -2.29639 0
M  V30 4592 C 426.132 0.932864 -1.37429 0
M  V30 4593 O 427.317 0.933692 -1.66394 0
M  V30 4594 C 424.457 1.27155 -3.2082 0
M  V30 4595 C 423.57 0.578655 -4.28107 0
M  V30 4596 C 422.705 1.602 -5.06467 0
M  V30 4597 C 421.744 0.892625 -6.05556 0
M  V30 4598 N 420.881 1.86157 -6.76971 0
M  V30 4599 H 425.721 -0.467848 -2.94305 0
M  V30 4600 H 423.258 -0.242556 -1.45086 0
M  V30 4601 H 425.216 1.88703 -3.72085 0
M  V30 4602 H 423.846 1.939 -2.58075 0
M  V30 4603 H 422.898 -0.150782 -3.80101 0
M  V30 4604 H 424.21 0.0217065 -4.98795 0
M  V30 4605 H 423.364 2.29173 -5.61751 0
M  V30 4606 H 422.103 2.19285 -4.35621 0
M  V30 4607 H 421.108 0.188829 -5.49476 0
M  V30 4608 H 422.333 0.307878 -6.78402 0
M  V30 4609 H 420.279 2.44147 -6.08875 0
M  V30 4610 H 420.196 1.35608 -7.43738 0
M  V30 4611 H 421.464 2.54325 -7.36844 0
M  V30 4612 N 425.693 1.55336 -0.266172 0
M  V30 4613 C 426.641 2.23587 0.641228 0
M  V30 4614 C 427.635 1.22986 1.16494 0
M  V30 4615 O 428.841 1.40943 1.1196 0
M  V30 4616 H 425.216 0.717452 0.225315 0
M  V30 4617 H 427.187 2.9837 0.0426561 0
M  V30 4618 C 425.936 2.96369 1.81826 0
M  V30 4619 H 425.259 3.73563 1.42445 0
M  V30 4620 H 426.699 3.47459 2.42998 0
M  V30 4621 C 425.158 2.0133 2.70125 0
M  V30 4622 O 425.688 1.55875 3.70224 0
M  V30 4623 N 423.894 1.6802 2.37102 0
M  V30 4624 H 423.441 2.05181 1.55751 0
M  V30 4625 H 423.399 1.047 2.96454 0
M  V30 4626 N 427.171 -0.0066808 1.57599 0
M  V30 4627 C 428.419 -0.691552 1.899 0
M  V30 4628 C 428.74 -1.74682 0.866672 0
M  V30 4629 O 428.01 -1.95661 -0.0968189 0
M  V30 4630 H 426.59 -0.258416 0.700878 0
M  V30 4631 H 429.252 0.0326655 1.94873 0
M  V30 4632 H 428.348 -1.16702 2.8946 0
M  V30 4633 N 428.649 -1.55105 -0.279332 0
M  V30 4634 C 429.897 -1.75066 -1.00977 0
M  V30 4635 C 430.218 -0.551276 -1.87045 0
M  V30 4636 O 429.488 0.433984 -1.91032 0
M  V30 4637 H 428.068 -0.645578 -0.375816 0
M  V30 4638 H 430.73 -1.92497 -0.305089 0
M  V30 4639 H 429.826 -2.64894 -1.65038 0
M  V30 4640 N 430.127 0.543554 -1.4793 0
M  V30 4641 C 431.057 1.65888 -1.64327 0
M  V30 4642 C 432.038 1.62818 -0.492383 0
M  V30 4643 O 433.223 1.80226 -0.723338 0
M  V30 4644 C 430.353 3.04506 -1.67013 0
M  V30 4645 C 429.307 3.2243 -2.81466 0
M  V30 4646 C 428.633 4.61972 -2.69233 0
M  V30 4647 C 429.933 3.06496 -4.22915 0
M  V30 4648 H 431.627 1.52421 -2.57698 0
M  V30 4649 H 429.173 0.731849 -1.24016 0
M  V30 4650 H 431.126 3.82391 -1.77074 0
M  V30 4651 H 429.85 3.18964 -0.70212 0
M  V30 4652 H 428.509 2.46957 -2.70938 0
M  V30 4653 H 428.157 4.73247 -1.7043 0
M  V30 4654 H 427.857 4.74911 -3.46025 0
M  V30 4655 H 429.381 5.41974 -2.81242 0
M  V30 4656 H 430.795 3.74186 -4.34348 0
M  V30 4657 H 429.192 3.30938 -5.006 0
M  V30 4658 H 430.262 2.03077 -4.40327 0
M  V30 4659 N 431.605 1.3629 0.791371 0
M  V30 4660 C 432.853 1.30154 1.5461 0
M  V30 4661 C 433.174 -0.119409 1.94634 0
M  V30 4662 O 432.444 -1.05924 1.64794 0
M  V30 4663 H 431.024 0.478784 0.573389 0
M  V30 4664 H 433.686 1.70565 0.94306 0
M  V30 4665 H 432.782 1.92762 2.45457 0
M  V30 4666 N 433.083 -1.0153 1.20538 0
M  V30 4667 C 434.329 -1.75408 1.01783 0
M  V30 4668 C 434.662 -1.88943 -0.448814 0
M  V30 4669 O 433.937 -1.4162 -1.33319 0
M  V30 4670 C 434.22 -3.17255 1.70356 0
M  V30 4671 C 434.073 -3.11508 3.24473 0
M  V30 4672 C 435.392 -4.15955 1.43769 0
M  V30 4673 H 432.511 -0.636713 0.371167 0
M  V30 4674 H 435.153 -1.18436 1.4857 0
M  V30 4675 H 433.303 -3.65898 1.30578 0
M  V30 4676 H 434.975 -2.70658 3.73553 0
M  V30 4677 H 433.218 -2.4887 3.55311 0
M  V30 4678 H 433.889 -4.11784 3.67611 0
M  V30 4679 H 436.365 -3.75973 1.7828 0
M  V30 4680 H 435.241 -5.13368 1.94279 0
M  V30 4681 H 435.502 -4.40586 0.365564 0
M  V30 4682 N 434.561 -1.01147 -1.20859 0
M  V30 4683 C 435.807 -0.698899 -1.90377 0
M  V30 4684 C 436.14 0.76904 -1.78324 0
M  V30 4685 O 435.415 1.55817 -1.16409 0
M  V30 4686 C 435.698 -1.12878 -3.41951 0
M  V30 4687 C 435.551 -2.65665 -3.62963 0
M  V30 4688 C 436.87 -0.696114 -4.3456 0
M  V30 4689 H 433.989 -0.255372 -0.691342 0
M  V30 4690 H 436.631 -1.25831 -1.42361 0
M  V30 4691 H 434.781 -0.652827 -3.82976 0
M  V30 4692 H 436.453 -3.21074 -3.31224 0
M  V30 4693 H 434.696 -3.06878 -3.06608 0
M  V30 4694 H 435.367 -2.90797 -4.69192 0
M  V30 4695 H 437.843 -1.10521 -4.01154 0
M  V30 4696 H 436.719 -1.025 -5.39245 0
M  V30 4697 H 436.98 0.402465 -4.40264 0
M  V30 4698 N 436.039 1.36541 -0.78704 0
M  V30 4699 C 437.264 2.0409 -0.369053 0
M  V30 4700 C 437.689 1.58957 1.00569 0
M  V30 4701 O 437.047 0.756926 1.64743 0
M  V30 4702 C 437.095 3.57924 -0.438466 0
M  V30 4703 O 436.199 4.08642 0.555479 0
M  V30 4704 H 435.54 0.645142 -0.157122 0
M  V30 4705 H 438.07 1.74545 -1.06749 0
M  V30 4706 H 438.08 4.06887 -0.301218 0
M  V30 4707 H 436.755 3.90127 -1.44132 0
M  V30 4708 H 435.332 3.70958 0.380088 0
M  V30 4709 N 437.518 0.538854 1.48102 0
M  V30 4710 C 438.795 -0.0568108 1.95517 0
M  V30 4711 C 439.175 -1.50408 1.48124 0
M  V30 4712 O 438.523 -2.17133 0.711727 0
M  V30 4713 C 438.733 0.0696262 3.48931 0
M  V30 4714 C 440.081 -0.0851202 4.24515 0
M  V30 4715 O 441.105 -0.0037347 3.562 0
M  V30 4716 O 439.964 -0.257025 5.45895 0
M  V30 4717 H 437.058 -0.0743695 0.823649 0
M  V30 4718 H 439.604 0.604081 1.58584 0
M  V30 4719 H 438.376 1.07744 3.76174 0
M  V30 4720 H 437.999 -0.629714 3.92582 0
M  V30 4721 N 438.996 -1.55193 0.274407 0
M  V30 4722 C 439.959 -2.212 -0.600279 0
M  V30 4723 C 440.959 -1.18963 -1.08187 0
M  V30 4724 O 442.149 -1.43873 -0.982158 0
M  V30 4725 C 439.281 -2.87739 -1.82809 0
M  V30 4726 H 440.474 -2.9989 -0.0239682 0
M  V30 4727 H 438.027 -1.5628 0.0250192 0
M  V30 4728 H 438.762 -2.13058 -2.44493 0
M  V30 4729 H 438.547 -3.62658 -1.49069 0
M  V30 4730 H 440.037 -3.38171 -2.45011 0
M  V30 4731 N 440.474 -0.00167713 -1.576 0
M  V30 4732 C 441.723 0.682021 -1.89819 0
M  V30 4733 C 442.036 1.74844 -0.876871 0
M  V30 4734 O 443.242 2.48688 -1.08934 0
M  V30 4735 C 441.698 1.26425 -3.36964 0
M  V30 4736 C 441.306 0.232568 -4.47396 0
M  V30 4737 C 443.05 1.92604 -3.78291 0
M  V30 4738 C 440.957 0.824882 -5.85619 0
M  V30 4739 H 439.887 0.258499 -0.708304 0
M  V30 4740 H 442.538 -0.0624957 -1.83394 0
M  V30 4741 H 440.92 2.05949 -3.38232 0
M  V30 4742 H 442.094 -0.5382 -4.57646 0
M  V30 4743 H 440.409 -0.32888 -4.15099 0
M  V30 4744 H 443.006 2.37827 -4.78897 0
M  V30 4745 H 443.349 2.75732 -3.11894 0
M  V30 4746 H 443.882 1.19812 -3.79328 0
M  V30 4747 H 440.621 0.0323542 -6.55492 0
M  V30 4748 H 440.141 1.56477 -5.79029 0
M  V30 4749 H 441.82 1.32301 -6.33329 0
M  V30 4750 N 441.952 1.55251 0.271103 0
M  V30 4751 C 443.199 1.75946 1.00245 0
M  V30 4752 C 443.527 0.561611 1.86215 0
M  V30 4753 O 442.782 -0.455832 1.90317 0
M  V30 4754 C 443.081 3.01879 1.91321 0
M  V30 4755 C 442.747 4.34337 1.21086 0
M  V30 4756 C 441.409 4.70338 1.01666 0
M  V30 4757 C 443.761 5.16325 0.71119 0
M  V30 4758 C 441.089 5.8588 0.310099 0
M  V30 4759 C 443.441 6.32597 0.0182157 0
M  V30 4760 C 442.105 6.67236 -0.18768 0
M  V30 4761 H 441.375 0.643833 0.366824 0
M  V30 4762 H 444.022 1.89521 0.27458 0
M  V30 4763 H 442.327 2.83212 2.70736 0
M  V30 4764 H 444.024 3.15088 2.48033 0
M  V30 4765 H 440.614 4.06043 1.37213 0
M  V30 4766 H 444.798 4.88987 0.848844 0
M  V30 4767 H 440.054 6.1124 0.139873 0
M  V30 4768 H 444.228 6.9538 -0.376711 0
M  V30 4769 H 441.855 7.56618 -0.73715 0
M  V30 4770 N 443.43 -0.535701 1.48216 0
M  V30 4771 C 444.34 -1.66785 1.64985 0
M  V30 4772 C 445.356 -1.65654 0.532414 0
M  V30 4773 O 446.532 -1.8471 0.80275 0
M  V30 4774 C 443.597 -3.0326 1.68031 0
M  V30 4775 C 442.658 -3.1529 2.9136 0
M  V30 4776 C 441.891 -4.45255 2.94252 0
M  V30 4777 O 442.114 -5.32011 2.05719 0
M  V30 4778 O 441.048 -4.6153 3.86359 0
M  V30 4779 H 444.874 -1.55576 2.60825 0
M  V30 4780 H 442.459 -0.70815 1.31551 0
M  V30 4781 H 444.341 -3.84436 1.72589 0
M  V30 4782 H 443.016 -3.14805 0.753628 0
M  V30 4783 H 441.923 -2.3343 2.92337 0
M  V30 4784 H 443.256 -3.08658 3.83394 0
M  V30 4785 N 444.908 -1.36708 -0.784132 0
M  V30 4786 C 445.838 -1.34153 -1.91116 0
M  V30 4787 C 446.819 -0.212121 -1.68772 0
M  V30 4788 O 448.004 -0.410581 -1.8981 0
M  V30 4789 C 445.134 -1.13535 -3.28218 0
M  V30 4790 C 444.088 -2.23356 -3.65097 0
M  V30 4791 C 443.414 -1.87875 -5.00607 0
M  V30 4792 C 444.714 -3.65473 -3.73131 0
M  V30 4793 H 446.408 -2.28459 -1.93512 0
M  V30 4794 H 443.954 -1.09973 -0.929618 0
M  V30 4795 H 445.907 -1.10381 -4.06687 0
M  V30 4796 H 444.631 -0.156804 -3.26223 0
M  V30 4797 H 443.29 -2.25645 -2.88929 0
M  V30 4798 H 442.938 -0.885814 -4.95139 0
M  V30 4799 H 442.638 -2.61406 -5.26252 0
M  V30 4800 H 444.162 -1.86286 -5.81489 0
M  V30 4801 H 445.576 -3.65382 -4.41779 0
M  V30 4802 H 443.973 -4.37953 -4.10265 0
M  V30 4803 H 445.043 -3.99995 -2.74102 0
M  V30 4804 N 446.386 1.0089 -1.21074 0
M  V30 4805 C 447.634 1.74262 -1.02358 0
M  V30 4806 C 447.955 1.89869 0.444393 0
M  V30 4807 O 447.225 1.44677 1.32081 0
M  V30 4808 H 445.805 0.645615 -0.375754 0
M  V30 4809 H 448.467 1.21596 -1.52317 0
M  V30 4810 H 447.563 2.74328 -1.4883 0
M  V30 4811 N 447.864 1.01787 1.20321 0
M  V30 4812 C 448.811 0.589197 2.23153 0
M  V30 4813 C 449.781 -0.391367 1.61423 0
M  V30 4814 O 450.966 -0.290518 1.88575 0
M  V30 4815 C 448.106 -0.0650747 3.45039 0
M  V30 4816 C 447.219 0.960207 4.21194 0
M  V30 4817 C 446.354 0.276854 5.30478 0
M  V30 4818 C 445.393 1.2888 5.98378 0
M  V30 4819 N 444.53 0.632031 6.99249 0
M  V30 4820 H 449.37 1.47071 2.59179 0
M  V30 4821 H 446.907 0.736192 1.27352 0
M  V30 4822 H 448.865 -0.461552 4.14639 0
M  V30 4823 H 447.495 -0.910233 3.09701 0
M  V30 4824 H 446.547 1.47484 3.50646 0
M  V30 4825 H 447.859 1.72977 4.67847 0
M  V30 4826 H 447.013 -0.175056 6.06447 0
M  V30 4827 H 445.752 -0.525004 4.84866 0
M  V30 4828 H 444.757 1.75109 5.21169 0
M  V30 4829 H 445.982 2.09196 6.46076 0
M  V30 4830 H 443.928 -0.149935 6.55829 0
M  V30 4831 H 443.845 1.33964 7.44036 0
M  V30 4832 H 445.113 0.203755 7.79234 0
M  V30 4833 N 449.342 -1.36122 0.79427 0
M  V30 4834 C 450.567 -2.03891 0.379871 0
M  V30 4835 C 450.992 -1.59488 -0.997251 0
M  V30 4836 O 450.35 -0.765652 -1.64339 0
M  V30 4837 C 450.398 -3.57687 0.457442 0
M  V30 4838 O 449.502 -4.08931 -0.5338 0
M  V30 4839 H 448.843 -0.6443 0.160541 0
M  V30 4840 H 451.373 -1.73976 1.07673 0
M  V30 4841 H 451.383 -4.06721 0.322792 0
M  V30 4842 H 450.058 -3.89357 1.46199 0
M  V30 4843 H 448.635 -3.71154 -0.360409 0
M  V30 4844 N 450.82 -0.546701 -1.47814 0
M  V30 4845 C 451.75 0.195317 -2.32682 0
M  V30 4846 C 452.731 0.918981 -1.43139 0
M  V30 4847 O 453.916 0.901501 -1.72008 0
M  V30 4848 C 451.046 1.23237 -3.247 0
M  V30 4849 C 450 0.625818 -4.234 0
M  V30 4850 C 449.326 1.76674 -5.04669 0
M  V30 4851 C 450.626 -0.413515 -5.2066 0
M  V30 4852 H 452.32 -0.513184 -2.94969 0
M  V30 4853 H 449.866 -0.248241 -1.41844 0
M  V30 4854 H 451.819 1.75955 -3.82907 0
M  V30 4855 H 450.543 1.97067 -2.60446 0
M  V30 4856 H 449.202 0.120023 -3.66403 0
M  V30 4857 H 448.85 2.49383 -4.36826 0
M  V30 4858 H 448.55 1.36673 -5.71484 0
M  V30 4859 H 450.074 2.29738 -5.65732 0
M  V30 4860 H 451.488 0.0272042 -5.73294 0
M  V30 4861 H 449.885 -0.731825 -5.95621 0
M  V30 4862 H 450.955 -1.31325 -4.66778 0
M  V30 4863 N 452.299 1.55045 -0.282633 0
M  V30 4864 C 453.524 2.04628 0.337977 0
M  V30 4865 C 453.949 1.15937 1.48123 0
M  V30 4866 O 453.307 0.159532 1.80597 0
M  V30 4867 C 453.355 3.51854 0.78936 0
M  V30 4868 O 452.459 3.66236 1.89592 0
M  V30 4869 H 451.8 0.660434 0.0687261 0
M  V30 4870 H 454.33 2.00261 -0.419124 0
M  V30 4871 H 454.34 3.93361 1.08311 0
M  V30 4872 H 453.015 4.15873 -0.0470419 0
M  V30 4873 H 451.592 3.36633 1.60413 0
M  V30 4874 N 453.777 0.010035 1.57597 0
M  V30 4875 C 454.74 -0.963029 2.07986 0
M  V30 4876 C 455.74 -1.26619 0.991173 0
M  V30 4877 O 456.93 -1.2097 1.25347 0
M  V30 4878 C 454.062 -2.2851 2.52974 0
M  V30 4879 H 455.255 -0.526971 2.95234 0
M  V30 4880 H 452.808 -0.237639 1.54483 0
M  V30 4881 H 453.543 -2.76784 1.69 0
M  V30 4882 H 453.328 -2.07824 3.32493 0
M  V30 4883 H 454.818 -2.98294 2.9225 0
M  V30 4884 N 455.255 -1.55392 -0.262866 0
M  V30 4885 C 456.502 -1.76476 -0.993109 0
M  V30 4886 C 456.83 -0.571479 -1.85915 0
M  V30 4887 O 456.085 0.445733 -1.90556 0
M  V30 4888 C 456.384 -3.02889 -1.89718 0
M  V30 4889 C 456.05 -4.34974 -1.18781 0
M  V30 4890 C 454.712 -4.7087 -0.991699 0
M  V30 4891 C 457.064 -5.16695 -0.683798 0
M  V30 4892 C 454.392 -5.86036 -0.279024 0
M  V30 4893 C 456.744 -6.32598 0.0153327 0
M  V30 4894 C 455.408 -6.67127 0.223062 0
M  V30 4895 H 454.678 -0.64577 -0.363404 0
M  V30 4896 H 457.325 -1.89664 -0.264525 0
M  V30 4897 H 455.63 -2.84644 -2.6923 0
M  V30 4898 H 457.327 -3.16399 -2.46359 0
M  V30 4899 H 453.917 -4.06765 -1.35058 0
M  V30 4900 H 458.101 -4.8943 -0.8229 0
M  V30 4901 H 453.357 -6.11306 -0.107456 0
M  V30 4902 H 457.531 -6.95171 0.413584 0
M  V30 4903 H 455.158 -7.56216 0.777265 0
M  V30 4904 N 456.733 0.527833 -1.48498 0
M  V30 4905 C 457.681 1.65313 -1.63628 0
M  V30 4906 C 458.675 1.6177 -0.502676 0
M  V30 4907 O 459.881 1.66601 -0.681469 0
M  V30 4908 H 456.256 0.547518 -0.515488 0
M  V30 4909 H 458.227 1.49696 -2.58135 0
M  V30 4910 C 456.976 3.03576 -1.6952 0
M  V30 4911 H 456.299 3.06997 -2.56111 0
M  V30 4912 H 457.739 3.81923 -1.84149 0
M  V30 4913 C 456.198 3.34089 -0.43432 0
M  V30 4914 O 456.728 3.99151 0.451852 0
M  V30 4915 N 454.934 2.88991 -0.305368 0
M  V30 4916 H 454.481 2.36222 -1.02747 0
M  V30 4917 H 454.439 3.09776 0.537249 0
M  V30 4918 N 458.211 1.37122 0.776871 0
M  V30 4919 C 459.141 1.35164 1.90402 0
M  V30 4920 C 460.122 0.221069 1.68657 0
M  V30 4921 O 461.307 0.420642 1.8959 0
M  V30 4922 C 458.437 1.15274 3.27611 0
M  V30 4923 C 457.391 2.25289 3.63908 0
M  V30 4924 C 456.717 1.90527 4.99603 0
M  V30 4925 C 458.017 3.67446 3.71188 0
M  V30 4926 H 459.711 2.29482 1.92297 0
M  V30 4927 H 457.257 1.10465 0.923773 0
M  V30 4928 H 459.21 1.12536 4.06096 0
M  V30 4929 H 457.934 0.174102 3.26136 0
M  V30 4930 H 456.593 2.27174 2.87728 0
M  V30 4931 H 456.241 0.91206 4.94662 0
M  V30 4932 H 455.941 2.64193 5.24858 0
M  V30 4933 H 457.465 1.89367 5.80493 0
M  V30 4934 H 458.879 3.67719 4.39836 0
M  V30 4935 H 457.276 4.40123 4.07936 0
M  V30 4936 H 458.346 4.01443 2.71977 0
M  V30 4937 N 459.689 -1.00246 1.21608 0
M  V30 4938 C 460.966 -1.71336 0.943568 0
M  V30 4939 C 461.346 -2.03972 -0.543943 0
M  V30 4940 O 460.694 -1.71545 -1.50946 0
M  V30 4941 C 460.904 -2.97094 1.83128 0
M  V30 4942 C 462.252 -3.70071 2.08165 0
M  V30 4943 O 463.276 -3.07081 1.80498 0
M  V30 4944 O 462.135 -4.83376 2.54971 0
M  V30 4945 H 459.229 -0.747386 0.354039 0
M  V30 4946 H 461.775 -1.05967 1.32549 0
M  V30 4947 H 460.547 -2.69407 2.83788 0
M  V30 4948 H 460.17 -3.70204 1.45034 0
M  V30 4949 N 461.167 -1.02423 -1.1978 0
M  V30 4950 C 462.444 -0.632802 -1.85081 0
M  V30 4951 C 462.824 0.888745 -1.9148 0
M  V30 4952 O 462.172 1.78357 -1.42832 0
M  V30 4953 C 462.382 -1.28947 -3.24305 0
M  V30 4954 C 463.73 -1.40976 -4.00513 0
M  V30 4955 O 464.754 -1.24628 -3.33686 0
M  V30 4956 O 463.613 -1.67467 -5.20209 0
M  V30 4957 H 460.707 -0.219348 -0.79738 0
M  V30 4958 H 463.253 -1.12209 -1.27307 0
M  V30 4959 H 462.025 -2.3288 -3.14456 0
M  V30 4960 H 461.648 -0.787748 -3.89718 0
M  V30 4961 N 462.645 1.35699 -0.801477 0
M  V30 4962 C 463.873 2.03157 -0.391768 0
M  V30 4963 C 464.288 1.60412 0.995668 0
M  V30 4964 O 463.645 0.799228 1.64069 0
M  V30 4965 C 463.696 3.58566 -0.459671 0
M  V30 4966 O 463.417 3.99756 -1.7924 0
M  V30 4967 C 464.918 4.4328 -0.0421205 0
M  V30 4968 H 462.138 0.651688 -0.159825 0
M  V30 4969 H 464.682 1.73426 -1.08368 0
M  V30 4970 H 462.837 3.86963 0.183939 0
M  V30 4971 H 463.251 4.94387 -1.75162 0
M  V30 4972 H 464.725 5.51821 -0.140754 0
M  V30 4973 H 465.202 4.27383 1.01196 0
M  V30 4974 H 465.808 4.20168 -0.658687 0
M  V30 4975 N 464.123 0.554532 1.47522 0
M  V30 4976 C 465.033 -0.197865 2.33764 0
M  V30 4977 C 466.049 -0.914576 1.48025 0
M  V30 4978 O 467.225 -0.884067 1.80959 0
M  V30 4979 C 464.29 -1.21628 3.24665 0
M  V30 4980 C 463.351 -0.507283 4.26292 0
M  V30 4981 C 462.584 -1.47718 5.1285 0
M  V30 4982 O 462.807 -2.7118 5.01814 0
M  V30 4983 O 461.741 -1.00313 5.93482 0
M  V30 4984 H 465.567 0.50949 2.99396 0
M  V30 4985 H 463.152 0.315176 1.46038 0
M  V30 4986 H 465.034 -1.80421 3.80823 0
M  V30 4987 H 463.709 -1.9056 2.61665 0
M  V30 4988 H 462.616 0.121778 3.73902 0
M  V30 4989 H 463.949 0.140544 4.91999 0
M  V30 4990 N 465.601 -1.54893 0.290851 0
M  V30 4991 C 466.847 -2.0023 -0.321867 0
M  V30 4992 C 467.18 -1.179 -1.54316 0
M  V30 4993 O 466.455 -0.25293 -1.92848 0
M  V30 4994 C 466.738 -3.53456 -0.688515 0
M  V30 4995 C 466.591 -4.46532 0.541209 0
M  V30 4996 C 467.91 -4.13057 -1.51895 0
M  V30 4997 H 465.029 -0.727891 -0.115515 0
M  V30 4998 H 467.671 -1.85722 0.400931 0
M  V30 4999 H 465.821 -3.6595 -1.30433 0
M  V30 5000 H 467.493 -4.4596 1.17973 0
M  V30 5001 H 465.736 -4.17545 1.17636 0
M  V30 5002 H 466.407 -5.51475 0.240675 0
M  V30 5003 H 468.883 -4.03937 -0.99872 0
M  V30 5004 H 467.759 -5.20448 -1.74429 0
M  V30 5005 H 468.02 -3.64284 -2.50498 0
M  V30 5006 N 467.08 -0.0183926 -1.57589 0
M  V30 5007 C 468.043 0.951986 -2.08494 0
M  V30 5008 C 469.043 1.26092 -0.997874 0
M  V30 5009 O 470.233 1.20304 -1.25987 0
M  V30 5010 C 467.365 2.27165 -2.54182 0
M  V30 5011 H 468.558 0.511307 -2.95509 0
M  V30 5012 H 466.111 0.229444 -1.54607 0
M  V30 5013 H 466.846 2.75884 -1.70465 0
M  V30 5014 H 466.631 2.06057 -3.33591 0
M  V30 5015 H 468.121 2.9674 -2.93828 0
M  V30 5016 N 468.558 1.5553 0.254621 0
M  V30 5017 C 469.488 1.9268 1.31897 0
M  V30 5018 C 470.469 0.790797 1.506 0
M  V30 5019 O 471.654 1.05045 1.63337 0
M  V30 5020 C 468.784 2.21477 2.67517 0
M  V30 5021 C 467.738 3.37256 2.63519 0
M  V30 5022 C 467.064 3.51576 4.02862 0
M  V30 5023 C 468.364 4.73157 2.21179 0
M  V30 5024 H 470.058 2.81832 1.01051 0
M  V30 5025 H 467.604 1.35599 0.484662 0
M  V30 5026 H 469.557 2.46055 3.42104 0
M  V30 5027 H 468.281 1.29144 2.99982 0
M  V30 5028 H 466.94 3.12675 1.9139 0
M  V30 5029 H 466.588 2.56676 4.32581 0
M  V30 5030 H 466.288 4.2943 4.01078 0
M  V30 5031 H 467.812 3.78467 4.79161 0
M  V30 5032 H 469.226 4.97158 2.85494 0
M  V30 5033 H 467.623 5.54058 2.30521 0
M  V30 5034 H 468.693 4.70739 1.16332 0
M  V30 5035 N 470.036 -0.519951 1.48776 0
M  V30 5036 C 470.966 -1.63253 1.66945 0
M  V30 5037 C 471.947 -1.62014 0.518224 0
M  V30 5038 O 473.132 -1.79053 0.751919 0
M  V30 5039 C 470.262 -3.0181 1.71836 0
M  V30 5040 C 469.216 -3.17911 2.8656 0
M  V30 5041 C 468.542 -4.5763 2.76548 0
M  V30 5042 C 469.842 -2.99729 4.27738 0
M  V30 5043 H 471.536 -1.48302 2.6009 0
M  V30 5044 H 469.082 -0.712026 1.25165 0
M  V30 5045 H 471.035 -3.79525 1.83135 0
M  V30 5046 H 469.759 -3.17806 0.752775 0
M  V30 5047 H 468.418 -2.42616 2.74833 0
M  V30 5048 H 468.066 -4.70476 1.77937 0
M  V30 5049 H 467.766 -4.69346 3.53536 0
M  V30 5050 H 469.29 -5.37431 2.89828 0
M  V30 5051 H 470.704 -3.67228 4.40246 0
M  V30 5052 H 469.101 -3.22932 5.05801 0
M  V30 5053 H 470.171 -1.96047 4.43502 0
M  V30 5054 N 471.514 -1.37532 -0.769588 0
M  V30 5055 C 472.446 -1.29347 -1.89214 0
M  V30 5056 C 473.459 -0.208842 -1.61455 0
M  V30 5057 O 474.648 -0.465158 -1.72333 0
M  V30 5058 C 471.748 -0.977649 -3.24492 0
M  V30 5059 C 470.921 -2.16817 -3.7988 0
M  V30 5060 C 469.98 -1.82229 -4.93639 0
M  V30 5061 O 469.006 -2.54548 -5.09111 0
M  V30 5062 N 470.208 -0.767696 -5.75401 0
M  V30 5063 H 472.973 -2.26073 -1.96751 0
M  V30 5064 H 470.534 -1.31185 -0.948795 0
M  V30 5065 H 472.526 -0.727065 -3.98115 0
M  V30 5066 H 471.096 -0.0988777 -3.12444 0
M  V30 5067 H 470.316 -2.58038 -2.9801 0
M  V30 5068 H 471.604 -2.96308 -4.13617 0
M  V30 5069 H 471.002 -0.167626 -5.65452 0
M  V30 5070 H 469.559 -0.576973 -6.49241 0
M  V30 5071 N 472.992 0.995999 -1.22138 0
M  V30 5072 C 473.955 2.06711 -0.990109 0
M  V30 5073 C 474.955 1.60744 0.0422978 0
M  V30 5074 O 476.145 1.73095 -0.195895 0
M  V30 5075 C 473.277 3.37288 -0.49491 0
M  V30 5076 H 474.47 2.28661 -1.94047 0
M  V30 5077 H 472.023 1.16711 -1.03963 0
M  V30 5078 H 472.758 3.21022 0.459948 0
M  V30 5079 H 472.543 3.71986 -1.23971 0
M  V30 5080 H 474.033 4.16103 -0.353253 0
M  V30 5081 N 474.47 1.03057 1.19235 0
M  V30 5082 C 475.716 0.729098 1.89241 0
M  V30 5083 C 476.049 -0.740573 1.79525 0
M  V30 5084 O 475.324 -1.53946 1.18874 0
M  V30 5085 C 475.607 1.18304 3.40112 0
M  V30 5086 C 475.46 2.71406 3.5869 0
M  V30 5087 C 476.779 0.765161 4.33397 0
M  V30 5088 H 473.898 0.266338 0.687192 0
M  V30 5089 H 476.54 1.28079 1.40341 0
M  V30 5090 H 474.69 0.713672 3.81889 0
M  V30 5091 H 476.362 3.26303 3.26074 0
M  V30 5092 H 474.605 3.11717 3.01687 0
M  V30 5093 H 475.276 2.98225 4.64506 0
M  V30 5094 H 477.752 1.16889 3.99345 0
M  V30 5095 H 476.628 1.11065 5.37546 0
M  V30 5096 H 476.889 -0.332372 4.40849 0
M  V30 5097 N 475.948 -1.35272 0.808662 0
M  V30 5098 C 476.878 -2.32315 0.234981 0
M  V30 5099 C 477.859 -1.57572 -0.64071 0
M  V30 5100 O 479.044 -1.8563 -0.570551 0
M  V30 5101 C 476.174 -3.41801 -0.615601 0
M  V30 5102 C 475.128 -4.27694 0.161767 0
M  V30 5103 C 474.454 -5.28519 -0.810649 0
M  V30 5104 C 475.754 -5.04231 1.36193 0
M  V30 5105 H 477.448 -2.80543 1.04575 0
M  V30 5106 H 474.994 -1.3488 0.504315 0
M  V30 5107 H 476.947 -4.08693 -1.02702 0
M  V30 5108 H 475.671 -2.92186 -1.45928 0
M  V30 5109 H 474.33 -3.62384 0.554382 0
M  V30 5110 H 473.978 -4.75171 -1.64988 0
M  V30 5111 H 473.678 -5.8686 -0.294822 0
M  V30 5112 H 475.202 -5.98283 -1.22023 0
M  V30 5113 H 476.616 -5.64058 1.02528 0
M  V30 5114 H 475.013 -5.72077 1.81239 0
M  V30 5115 H 476.083 -4.34753 2.14751 0
M  V30 5116 N 477.426 -0.562348 -1.47226 0
M  V30 5117 C 478.356 0.170627 -2.32876 0
M  V30 5118 C 479.337 0.903748 -1.44106 0
M  V30 5119 O 480.522 0.883206 -1.72954 0
M  V30 5120 C 477.652 1.19786 -3.25989 0
M  V30 5121 C 476.606 0.580875 -4.2404 0
M  V30 5122 C 475.932 1.71311 -5.06514 0
M  V30 5123 C 477.232 -0.468714 -5.20193 0
M  V30 5124 H 478.926 -0.544441 -2.94408 0
M  V30 5125 H 476.472 -0.263271 -1.41573 0
M  V30 5126 H 478.425 1.71884 -3.84752 0
M  V30 5127 H 477.149 1.94294 -2.62521 0
M  V30 5128 H 475.808 0.0811538 -3.6651 0
M  V30 5129 H 475.456 2.44736 -4.39447 0
M  V30 5130 H 475.156 1.30604 -5.72902 0
M  V30 5131 H 476.68 2.23725 -5.68137 0
M  V30 5132 H 478.094 -0.0336028 -5.7329 0
M  V30 5133 H 476.491 -0.794957 -5.94811 0
M  V30 5134 H 477.561 -1.36269 -4.65359 0
M  V30 5135 N 478.904 1.54736 -0.299062 0
M  V30 5136 C 479.837 2.1962 0.619851 0
M  V30 5137 C 480.815 1.16496 1.13434 0
M  V30 5138 O 481.999 1.4513 1.2029 0
M  V30 5139 C 479.126 2.8385 1.84788 0
M  V30 5140 C 478.172 4.00484 1.46679 0
M  V30 5141 S 479.005 5.32926 0.524389 0
M  V30 5142 C 480.161 6.00638 1.76026 0
M  V30 5143 H 480.394 2.97221 0.0686177 0
M  V30 5144 H 477.927 1.54176 -0.0832085 0
M  V30 5145 H 479.885 3.21483 2.55263 0
M  V30 5146 H 478.546 2.06099 2.37028 0
M  V30 5147 H 477.739 4.44201 2.38121 0
M  V30 5148 H 477.341 3.64398 0.842008 0
M  V30 5149 H 479.633 6.21327 2.70109 0
M  V30 5150 H 480.576 6.94805 1.36569 0
M  V30 5151 H 480.984 5.3026 1.93609 0
M  V30 5152 N 480.382 0.0267497 1.57577 0
M  V30 5153 C 481.607 -0.666227 1.96408 0
M  V30 5154 C 482.032 -1.65004 0.903071 0
M  V30 5155 O 481.39 -1.80787 -0.136263 0
M  V30 5156 C 481.438 -1.35101 3.34335 0
M  V30 5157 O 480.542 -2.46623 3.30531 0
M  V30 5158 H 479.883 -0.175206 0.640468 0
M  V30 5159 H 482.413 0.0878977 2.04411 0
M  V30 5160 H 482.423 -1.70834 3.70513 0
M  V30 5161 H 481.098 -0.629844 4.11103 0
M  V30 5162 H 479.675 -2.13019 3.06068 0
M  V30 5163 N 481.861 -1.55662 -0.24637 0
M  V30 5164 C 483.089 -1.81575 -0.991876 0
M  V30 5165 C 483.504 -0.602545 -1.78927 0
M  V30 5166 O 482.861 0.428795 -1.77391 0
M  V30 5167 C 482.912 -3.05711 -1.92933 0
M  V30 5168 O 482.633 -4.22348 -1.1642 0
M  V30 5169 C 484.134 -3.44428 -2.79078 0
M  V30 5170 H 481.354 -0.604209 -0.291844 0
M  V30 5171 H 483.898 -2.02722 -0.269095 0
M  V30 5172 H 482.053 -2.86612 -2.60638 0
M  V30 5173 H 482.467 -4.92706 -1.79835 0
M  V30 5174 H 483.941 -4.34388 -3.40603 0
M  V30 5175 H 484.418 -2.65037 -3.50217 0
M  V30 5176 H 485.024 -3.65879 -2.16824 0
M  V30 5177 N 483.339 0.512053 -1.4905 0
M  V30 5178 C 484.616 1.27337 -1.48474 0
M  V30 5179 C 484.996 2.1009 -0.206301 0
M  V30 5180 O 484.344 2.136 0.811609 0
M  V30 5181 C 484.554 2.13954 -2.75726 0
M  V30 5182 C 485.902 2.73507 -3.24776 0
M  V30 5183 O 486.926 2.24229 -2.76767 0
M  V30 5184 O 485.785 3.63186 -4.08361 0
M  V30 5185 H 482.879 0.575652 -0.593762 0
M  V30 5186 H 485.425 0.527232 -1.61302 0
M  V30 5187 H 484.197 1.52709 -3.60272 0
M  V30 5188 H 483.82 2.95782 -2.65705 0
M  V30 5189 N 484.817 1.37938 0.762283 0
M  V30 5190 C 486.233 1.18945 1.06415 0
M  V30 5191 C 486.433 0.0321163 2.01474 0
M  V30 5192 O 485.489 -0.624844 2.44647 0
M  V30 5193 C 486.802 2.51218 1.65258 0
M  V30 5194 C 488.35 2.57824 1.7747 0
M  V30 5195 C 488.825 3.90251 2.39725 0
M  V30 5196 N 490.316 3.91744 2.47166 0
M  V30 5197 C 491.051 4.90966 2.96209 0
M  V30 5198 N 490.547 6.00585 3.45354 0
M  V30 5199 N 492.34 4.78363 2.9517 0
M  V30 5200 H 484.491 2.11994 0.131301 0
M  V30 5201 H 486.754 0.940262 0.120879 0
M  V30 5202 H 486.46 3.36317 1.02878 0
M  V30 5203 H 486.334 2.68989 2.64433 0
M  V30 5204 H 488.721 1.73126 2.3898 0
M  V30 5205 H 488.802 2.43928 0.770241 0
M  V30 5206 H 488.446 4.75368 1.78852 0
M  V30 5207 H 488.376 4.01454 3.40796 0
M  V30 5208 H 490.867 3.12563 2.12397 0
M  V30 5209 H 491.18 6.72236 3.81207 0
M  V30 5210 H 489.525 6.04217 3.43434 0
M  V30 5211 H 492.716 3.91841 2.56082 0
M  V30 5212 H 492.889 5.55843 3.33081 0
M  V30 5213 N 486.295 -0.989507 1.22664 0
M  V30 5214 C 487.52 -1.77031 1.08051 0
M  V30 5215 C 487.945 -1.84535 -0.364483 0
M  V30 5216 O 487.303 -1.3003 -1.2634 0
M  V30 5217 C 487.351 -3.18 1.70024 0
M  V30 5218 O 486.455 -4.01161 0.956216 0
M  V30 5219 H 485.796 -0.545008 0.379292 0
M  V30 5220 H 488.326 -1.24277 1.62531 0
M  V30 5221 H 488.336 -3.68616 1.74888 0
M  V30 5222 H 487.011 -3.11853 2.75174 0
M  V30 5223 H 485.588 -3.59687 0.98384 0
M  V30 5224 N 487.773 -1.03688 -1.18687 0
M  V30 5225 C 489.021 -0.736572 -1.88199 0
M  V30 5226 C 489.342 0.737665 -1.80509 0
M  V30 5227 O 488.612 1.53204 -1.22088 0
M  V30 5228 H 487.192 -0.269466 -0.696704 0
M  V30 5229 H 489.854 -1.31282 -1.44052 0
M  V30 5230 H 488.95 -1.03802 -2.94332 0
M  V30 5231 N 489.251 1.34841 -0.815825 0
M  V30 5232 C 490.181 2.32187 -0.247298 0
M  V30 5233 C 491.162 1.5791 0.632344 0
M  V30 5234 O 492.347 1.8593 0.560698 0
M  V30 5235 C 489.477 3.42122 0.597466 0
M  V30 5236 C 488.431 4.27602 -0.184446 0
M  V30 5237 C 487.757 5.28942 0.782609 0
M  V30 5238 C 489.057 5.03502 -1.38865 0
M  V30 5239 H 490.751 2.79985 -1.06061 0
M  V30 5240 H 488.297 1.34611 -0.511461 0
M  V30 5241 H 490.25 4.09232 1.00533 0
M  V30 5242 H 488.974 2.92956 1.44376 0
M  V30 5243 H 487.633 3.62085 -0.573592 0
M  V30 5244 H 487.281 4.7604 1.62466 0
M  V30 5245 H 486.981 5.87008 0.263695 0
M  V30 5246 H 488.505 5.98922 1.18848 0
M  V30 5247 H 489.919 5.63506 -1.05518 0
M  V30 5248 H 488.316 5.71108 -1.8427 0
M  V30 5249 H 489.386 4.33608 -2.17054 0
M  V30 5250 N 490.729 0.570148 1.46925 0
M  V30 5251 C 491.659 -0.158274 2.32963 0
M  V30 5252 C 492.64 -0.896093 1.44583 0
M  V30 5253 O 493.825 -0.874022 1.7342 0
M  V30 5254 C 490.955 -1.18055 3.26619 0
M  V30 5255 C 489.909 -0.558379 4.24342 0
M  V30 5256 C 489.235 -1.68623 5.07415 0
M  V30 5257 C 490.535 0.496295 5.19937 0
M  V30 5258 H 492.229 0.560046 2.94115 0
M  V30 5259 H 489.775 0.270775 1.41431 0
M  V30 5260 H 491.728 -1.69841 3.85658 0
M  V30 5261 H 490.452 -1.92899 2.63548 0
M  V30 5262 H 489.111 -0.0617157 3.66548 0
M  V30 5263 H 488.759 -2.42402 4.40738 0
M  V30 5264 H 488.459 -1.27564 5.73586 0
M  V30 5265 H 489.983 -2.20709 5.69315 0
M  V30 5266 H 491.397 0.0640052 5.73264 0
M  V30 5267 H 489.794 0.82649 5.94381 0
M  V30 5268 H 490.864 1.38735 4.6463 0
M  V30 5269 N 492.207 -1.54576 0.307264 0
M  V30 5270 C 493.447 -2.02172 -0.300962 0
M  V30 5271 C 493.811 -1.19081 -1.50611 0
M  V30 5272 O 495.012 -1.56405 -2.18612 0
M  V30 5273 C 493.283 -3.51576 -0.642591 0
M  V30 5274 S 494.842 -4.21127 -1.23279 0
M  V30 5275 H 491.66 -0.705021 -0.0920141 0
M  V30 5276 H 494.262 -1.90563 0.436594 0
M  V30 5277 H 492.966 -4.09681 0.242901 0
M  V30 5278 H 492.497 -3.67234 -1.41077 0
M  V30 5279 H 494.512 -4.27426 -2.52034 0
M  V30 5280 N 493.685 -0.035106 -1.57561 0
M  V30 5281 C 494.931 0.64318 -1.92331 0
M  V30 5282 C 495.264 1.71434 -0.912368 0
M  V30 5283 O 494.539 1.94395 0.0640303 0
M  V30 5284 C 494.822 1.25411 -3.37556 0
M  V30 5285 C 494.675 0.192109 -4.4939 0
M  V30 5286 C 495.994 2.17041 -3.82859 0
M  V30 5287 H 493.113 0.232341 -0.699419 0
M  V30 5288 H 495.755 -0.0935889 -1.89769 0
M  V30 5289 H 493.905 1.88205 -3.39869 0
M  V30 5290 H 495.577 -0.438849 -4.59208 0
M  V30 5291 H 493.82 -0.481725 -4.31117 0
M  V30 5292 H 494.491 0.659292 -5.48049 0
M  V30 5293 H 496.967 1.64228 -3.8232 0
M  V30 5294 H 495.843 2.56738 -4.85157 0
M  V30 5295 H 496.104 3.06401 -3.18702 0
M  V30 5296 N 495.163 1.55791 0.238111 0
M  V30 5297 C 496.44 1.68798 0.98826 0
M  V30 5298 C 496.82 0.577562 2.03045 0
M  V30 5299 O 496.168 -0.41778 2.24648 0
M  V30 5300 C 496.378 3.09454 1.61367 0
M  V30 5301 C 497.726 3.68335 2.11221 0
M  V30 5302 O 498.75 3.1231 1.71292 0
M  V30 5303 O 497.609 4.6657 2.84561 0
M  V30 5304 H 494.703 0.686881 0.460568 0
M  V30 5305 H 497.249 1.68118 0.231202 0
M  V30 5306 H 496.021 3.81726 0.860295 0
M  V30 5307 H 495.644 3.14182 2.4367 0
M  V30 5308 N 496.642 -0.504142 1.49319 0
M  V30 5309 C 497.589 -1.60603 1.65756 0
M  V30 5310 C 498.559 -1.58425 0.499082 0
M  V30 5311 O 499.744 -1.76459 0.725728 0
M  V30 5312 C 496.884 -2.98764 1.72726 0
M  V30 5313 C 495.997 -3.10982 2.99857 0
M  V30 5314 C 495.132 -4.39857 2.97824 0
M  V30 5315 C 494.171 -4.45697 4.19548 0
M  V30 5316 N 493.308 -5.65995 4.15444 0
M  V30 5317 H 498.148 -1.45895 2.59843 0
M  V30 5318 H 495.685 -0.709891 1.28837 0
M  V30 5319 H 497.643 -3.78839 1.74747 0
M  V30 5320 H 496.273 -3.12183 0.821075 0
M  V30 5321 H 495.325 -2.23991 3.07461 0
M  V30 5322 H 496.637 -3.11157 3.89849 0
M  V30 5323 H 495.791 -5.2825 2.98391 0
M  V30 5324 H 494.53 -4.42242 2.05604 0
M  V30 5325 H 493.535 -3.55707 4.19229 0
M  V30 5326 H 494.76 -4.4503 5.12957 0
M  V30 5327 H 492.706 -5.69229 3.26059 0
M  V30 5328 H 492.623 -5.67773 4.99169 0
M  V30 5329 H 493.891 -6.56604 4.20109 0
M  V30 5330 N 498.12 -1.38341 -0.754957 0
M  V30 5331 C 499.369 -1.33791 -1.5094 0
M  V30 5332 C 499.682 0.0699267 -1.95475 0
M  V30 5333 O 500.888 0.237956 -2.70455 0
M  V30 5334 C 499.344 -2.34934 -2.72643 0
M  V30 5335 C 498.952 -3.81332 -2.35138 0
M  V30 5336 C 500.696 -2.39425 -3.50536 0
M  V30 5337 C 498.603 -4.74164 -3.53444 0
M  V30 5338 H 497.533 -0.497314 -0.566741 0
M  V30 5339 H 500.184 -1.63888 -0.825403 0
M  V30 5340 H 498.566 -1.97878 -3.43017 0
M  V30 5341 H 499.74 -4.27319 -1.7244 0
M  V30 5342 H 498.055 -3.79946 -1.70382 0
M  V30 5343 H 500.652 -3.0598 -4.38498 0
M  V30 5344 H 500.995 -1.41278 -3.91594 0
M  V30 5345 H 501.528 -2.75274 -2.87174 0
M  V30 5346 H 498.267 -5.73501 -3.17453 0
M  V30 5347 H 497.787 -4.3287 -4.15191 0
M  V30 5348 H 499.466 -4.92111 -4.20043 0
M  V30 5349 N 499.598 0.982988 -1.23187 0
M  V30 5350 C 500.508 2.10907 -1.02739 0
M  V30 5351 C 501.524 1.73979 0.0273188 0
M  V30 5352 O 502.7 2.00702 -0.16757 0
M  V30 5353 C 499.765 3.41142 -0.618304 0
M  V30 5354 C 498.826 3.92112 -1.74777 0
M  V30 5355 C 498.059 5.16131 -1.3581 0
M  V30 5356 O 498.282 5.6989 -0.241201 0
M  V30 5357 O 497.216 5.61103 -2.17824 0
M  V30 5358 H 501.042 2.31046 -1.97108 0
M  V30 5359 H 498.627 1.09284 -1.01869 0
M  V30 5360 H 500.509 4.19488 -0.400982 0
M  V30 5361 H 499.184 3.2234 0.296421 0
M  V30 5362 H 498.091 3.14895 -2.0197 0
M  V30 5363 H 499.424 4.15364 -2.64071 0
M  V30 5364 N 501.076 1.04316 1.18135 0
M  V30 5365 C 502.023 0.636398 2.21853 0
M  V30 5366 C 502.993 -0.357039 1.62217 0
M  V30 5367 O 504.178 -0.250453 1.89149 0
M  V30 5368 C 501.318 0.00812779 3.45099 0
M  V30 5369 C 500.431 1.04933 4.19062 0
M  V30 5370 C 499.566 0.389313 5.29771 0
M  V30 5371 C 498.605 1.41544 5.9551 0
M  V30 5372 N 497.742 0.78021 6.97751 0
M  V30 5373 H 502.582 1.52536 2.56002 0
M  V30 5374 H 500.119 0.76304 1.25762 0
M  V30 5375 H 502.077 -0.373497 4.15525 0
M  V30 5376 H 500.707 -0.844336 3.11562 0
M  V30 5377 H 499.759 1.54888 3.47439 0
M  V30 5378 H 501.071 1.82862 4.64072 0
M  V30 5379 H 500.225 -0.0463805 6.06682 0
M  V30 5380 H 498.964 -0.422038 4.8587 0
M  V30 5381 H 497.969 1.86124 5.17337 0
M  V30 5382 H 499.194 2.22854 6.41493 0
M  V30 5383 H 497.14 -0.0107899 6.55999 0
M  V30 5384 H 497.057 1.49716 7.41027 0
M  V30 5385 H 498.325 0.368996 7.78626 0
M  V30 5386 N 502.554 -1.34406 0.822964 0
M  V30 5387 C 503.779 -2.0304 0.423034 0
M  V30 5388 C 504.204 -1.61568 -0.963196 0
M  V30 5389 O 503.562 -0.800339 -1.62678 0
M  V30 5390 C 503.61 -3.56636 0.53321 0
M  V30 5391 O 502.714 -4.09971 -0.446939 0
M  V30 5392 H 502.055 -0.64075 0.174171 0
M  V30 5393 H 504.585 -1.71653 1.11339 0
M  V30 5394 H 504.595 -4.05945 0.408991 0
M  V30 5395 H 503.27 -3.86168 1.54425 0
M  V30 5396 H 501.847 -3.71835 -0.281601 0
M  V30 5397 N 504.032 -0.577932 -1.46621 0
M  V30 5398 C 504.964 0.195801 -2.28362 0
M  V30 5399 C 505.977 0.859983 -1.38232 0
M  V30 5400 O 507.166 0.730349 -1.62875 0
M  V30 5401 C 504.266 1.29639 -3.13124 0
M  V30 5402 C 503.439 0.725049 -4.31349 0
M  V30 5403 C 502.498 1.71274 -4.97546 0
M  V30 5404 O 501.524 1.25067 -5.5529 0
M  V30 5405 N 502.726 3.04672 -4.94121 0
M  V30 5406 H 505.491 -0.505468 -2.95407 0
M  V30 5407 H 503.052 -0.415381 -1.56481 0
M  V30 5408 H 505.044 1.95631 -3.54275 0
M  V30 5409 H 503.614 1.90059 -2.48186 0
M  V30 5410 H 502.834 -0.112205 -3.9404 0
M  V30 5411 H 504.122 0.323034 -5.07774 0
M  V30 5412 H 503.52 3.4484 -4.48444 0
M  V30 5413 H 502.077 3.66166 -5.39227 0
M  V30 5414 N 505.51 1.54411 -0.315457 0
M  V30 5415 C 506.42 2.27737 0.56329 0
M  V30 5416 C 507.436 1.31787 1.13614 0
M  V30 5417 O 508.612 1.64791 1.15784 0
M  V30 5418 C 505.677 3.01478 1.71207 0
M  V30 5419 C 504.738 4.12997 1.17185 0
M  V30 5420 C 503.971 4.83212 2.26588 0
M  V30 5421 O 504.194 4.52884 3.46775 0
M  V30 5422 O 503.128 5.70299 1.92463 0
M  V30 5423 H 506.954 3.03683 -0.0319614 0
M  V30 5424 H 504.539 1.49178 -0.0814188 0
M  V30 5425 H 506.421 3.47683 2.38106 0
M  V30 5426 H 505.096 2.28414 2.29366 0
M  V30 5427 H 504.003 3.71159 0.468174 0
M  V30 5428 H 505.336 4.8808 0.635501 0
M  V30 5429 N 506.988 0.0434614 1.5754 0
M  V30 5430 C 507.951 -0.918696 2.09982 0
M  V30 5431 C 508.951 -1.24488 1.01781 0
M  V30 5432 O 510.141 -1.18284 1.27885 0
M  V30 5433 C 507.273 -2.23093 2.57764 0
M  V30 5434 H 508.466 -0.464229 2.96285 0
M  V30 5435 H 506.019 -0.204818 1.54952 0
M  V30 5436 H 506.754 -2.73137 1.74832 0
M  V30 5437 H 506.539 -2.00724 3.36827 0
M  V30 5438 H 508.029 -2.92028 2.98512 0
M  V30 5439 N 508.466 -1.55915 -0.229846 0
M  V30 5440 C 509.696 -1.82352 -0.971152 0
M  V30 5441 C 510.104 -0.619231 -1.7878 0
M  V30 5442 O 509.447 0.421597 -1.78797 0
M  V30 5443 C 509.509 -3.02399 -1.9441 0
M  V30 5444 C 509.173 -4.37739 -1.31277 0
M  V30 5445 C 510.17 -5.15074 -0.706757 0
M  V30 5446 C 507.855 -4.84454 -1.32702 0
M  V30 5447 C 509.849 -6.37281 -0.123413 0
M  V30 5448 C 507.536 -6.06605 -0.739831 0
M  V30 5449 C 508.534 -6.82858 -0.139071 0
M  V30 5450 O 508.222 -8.027 0.439007 0
M  V30 5451 H 507.954 -0.61035 -0.290601 0
M  V30 5452 H 510.508 -2.03839 -0.252746 0
M  V30 5453 H 508.738 -2.76709 -2.70128 0
M  V30 5454 H 510.427 -3.15779 -2.55026 0
M  V30 5455 H 511.193 -4.80093 -0.688131 0
M  V30 5456 H 507.072 -4.25081 -1.78402 0
M  V30 5457 H 510.616 -6.96741 0.346124 0
M  V30 5458 H 506.513 -6.4106 -0.755841 0
M  V30 5459 H 507.281 -8.17824 0.332521 0
M  V30 5460 N 509.944 0.496216 -1.49584 0
M  V30 5461 C 510.874 1.60576 -1.69521 0
M  V30 5462 C 511.855 1.61169 -0.543933 0
M  V30 5463 O 513.04 1.77834 -0.78031 0
M  V30 5464 C 510.17 2.99038 -1.76616 0
M  V30 5465 C 509.124 3.13312 -2.91581 0
M  V30 5466 C 508.45 4.53172 -2.83794 0
M  V30 5467 C 509.75 2.92886 -4.32452 0
M  V30 5468 H 511.444 1.44146 -2.62416 0
M  V30 5469 H 508.99 0.692024 -1.26282 0
M  V30 5470 H 510.943 3.76564 -1.8915 0
M  V30 5471 H 509.667 3.16568 -0.80324 0
M  V30 5472 H 508.326 2.38213 -2.78658 0
M  V30 5473 H 507.974 4.67585 -1.854 0
M  V30 5474 H 507.674 4.63662 -3.60958 0
M  V30 5475 H 509.198 5.32752 -2.98342 0
M  V30 5476 H 510.612 3.60178 -4.46032 0
M  V30 5477 H 509.009 3.14844 -5.10875 0
M  V30 5478 H 510.079 1.88966 -4.46565 0
M  V30 5479 N 511.423 1.38739 0.74761 0
M  V30 5480 C 512.353 1.39173 1.87492 0
M  V30 5481 C 513.334 0.256794 1.6815 0
M  V30 5482 O 514.519 0.460762 1.88655 0
M  V30 5483 C 511.649 1.22197 3.25093 0
M  V30 5484 C 510.603 2.32957 3.59047 0
M  V30 5485 C 509.929 2.01082 4.95449 0
M  V30 5486 C 511.229 3.75237 3.6331 0
M  V30 5487 H 512.923 2.3351 1.87386 0
M  V30 5488 H 510.469 1.12399 0.900134 0
M  V30 5489 H 512.422 1.21124 4.03617 0
M  V30 5490 H 511.146 0.243241 3.25693 0
M  V30 5491 H 509.805 2.33226 2.82845 0
M  V30 5492 H 509.453 1.01678 4.92616 0
M  V30 5493 H 509.153 2.75267 5.19136 0
M  V30 5494 H 510.677 2.01638 5.76346 0
M  V30 5495 H 512.091 3.76966 4.31937 0
M  V30 5496 H 510.488 4.48677 3.98509 0
M  V30 5497 H 511.558 4.07122 2.634 0
M  V30 5498 N 512.901 -0.976442 1.23707 0
M  V30 5499 C 513.864 -2.0511 1.02287 0
M  V30 5500 C 514.864 -1.60791 -0.0167195 0
M  V30 5501 O 516.054 -1.72761 0.223408 0
M  V30 5502 C 513.186 -3.36458 0.548507 0
M  V30 5503 H 514.379 -2.25545 1.9766 0
M  V30 5504 H 511.932 -1.15042 1.05806 0
M  V30 5505 H 512.667 -3.21713 -0.408818 0
M  V30 5506 H 512.452 -3.69967 1.29874 0
M  V30 5507 H 513.942 -4.15489 0.419406 0
M  V30 5508 N 514.379 -1.04941 -1.1758 0
M  V30 5509 C 515.626 -0.757989 -1.87779 0
M  V30 5510 C 515.954 0.714827 -1.80888 0
M  V30 5511 O 515.209 1.53824 -1.20982 0
M  V30 5512 C 515.508 -1.18062 -3.37337 0
M  V30 5513 C 515.174 -2.65521 -3.6443 0
M  V30 5514 C 513.836 -3.05804 -3.71534 0
M  V30 5515 C 516.188 -3.60822 -3.76108 0
M  V30 5516 C 513.516 -4.40256 -3.87803 0
M  V30 5517 C 515.868 -4.95005 -3.93895 0
M  V30 5518 C 514.532 -5.34945 -3.99237 0
M  V30 5519 H 513.802 -0.277368 -0.68713 0
M  V30 5520 H 516.449 -1.31603 -1.39115 0
M  V30 5521 H 514.754 -0.541525 -3.8804 0
M  V30 5522 H 516.451 -0.932368 -3.9001 0
M  V30 5523 H 513.041 -2.33324 -3.59524 0
M  V30 5524 H 517.225 -3.30841 -3.69943 0
M  V30 5525 H 512.481 -4.70707 -3.90186 0
M  V30 5526 H 516.655 -5.68746 -4.01872 0
M  V30 5527 H 514.282 -6.39135 -4.11596 0
M  V30 5528 N 515.857 1.33968 -0.830081 0
M  V30 5529 C 516.767 2.33164 -0.259207 0
M  V30 5530 C 517.783 1.62951 0.610164 0
M  V30 5531 O 518.959 1.94668 0.516369 0
M  V30 5532 C 516.024 3.42088 0.563598 0
M  V30 5533 C 515.085 4.28037 -0.329014 0
M  V30 5534 C 514.318 5.3176 0.454616 0
M  V30 5535 O 514.541 5.44876 1.6872 0
M  V30 5536 O 513.475 6.01669 -0.166794 0
M  V30 5537 H 517.301 2.83832 -1.08041 0
M  V30 5538 H 514.886 1.37154 -0.59239 0
M  V30 5539 H 516.768 4.08581 1.03147 0
M  V30 5540 H 515.443 2.93651 1.36201 0
M  V30 5541 H 514.35 3.64443 -0.844538 0
M  V30 5542 H 515.683 4.79934 -1.09196 0
M  V30 5543 N 517.335 0.585699 1.46312 0
M  V30 5544 C 518.285 -0.166813 2.27389 0
M  V30 5545 C 519.269 -0.859076 1.36047 0
M  V30 5546 O 520.461 -0.752678 1.60199 0
M  V30 5547 C 517.59 -1.17791 3.2246 0
M  V30 5548 C 516.676 -0.487605 4.21288 0
M  V30 5549 N 517.067 0.45849 5.03718 0
M  V30 5550 C 515.365 -0.737971 4.39852 0
M  V30 5551 C 516.066 0.862213 5.75275 0
M  V30 5552 N 515.042 0.210707 5.43191 0
M  V30 5553 H 518.844 0.560167 2.88512 0
M  V30 5554 H 516.358 0.407715 1.57199 0
M  V30 5555 H 518.355 -1.73122 3.79255 0
M  V30 5556 H 517.015 -1.90568 2.62896 0
M  V30 5557 H 518.026 0.834163 5.11138 0
M  V30 5558 H 514.703 -1.45209 3.91434 0
M  V30 5559 H 516.093 1.64128 6.51546 0
M  V30 5560 N 518.813 -1.54241 0.323641 0
M  V30 5561 C 520.043 -2.04687 -0.280464 0
M  V30 5562 C 520.451 -1.19939 -1.46326 0
M  V30 5563 O 519.794 -0.222872 -1.82343 0
M  V30 5564 C 519.856 -3.50978 -0.778123 0
M  V30 5565 C 519.52 -4.56127 0.282371 0
M  V30 5566 C 520.517 -5.07726 1.11847 0
M  V30 5567 C 518.202 -5.00451 0.430582 0
M  V30 5568 C 520.196 -6.02212 2.08851 0
M  V30 5569 C 517.883 -5.94752 1.40404 0
M  V30 5570 C 518.881 -6.45519 2.23147 0
M  V30 5571 O 518.569 -7.37968 3.1884 0
M  V30 5572 H 518.301 -0.673192 -0.0615473 0
M  V30 5573 H 520.855 -1.99999 0.467921 0
M  V30 5574 H 519.085 -3.53064 -1.57742 0
M  V30 5575 H 520.774 -3.84499 -1.30058 0
M  V30 5576 H 521.54 -4.74261 1.01496 0
M  V30 5577 H 517.419 -4.6055 -0.203569 0
M  V30 5578 H 520.963 -6.41761 2.73474 0
M  V30 5579 H 516.86 -6.27633 1.5082 0
M  V30 5580 H 517.628 -7.55841 3.14079 0
M  V30 5581 N 520.291 -0.0518155 -1.57515 0
M  V30 5582 C 521.537 0.622745 -1.93002 0
M  V30 5583 C 521.87 1.70456 -0.930499 0
M  V30 5584 O 521.145 1.94452 0.0434086 0
M  V30 5585 C 521.428 1.21824 -3.38867 0
M  V30 5586 C 521.281 0.144434 -4.49568 0
M  V30 5587 C 522.6 2.12968 -3.8514 0
M  V30 5588 H 519.719 0.22491 -0.701844 0
M  V30 5589 H 522.361 -0.113711 -1.89659 0
M  V30 5590 H 520.511 1.8459 -3.41846 0
M  V30 5591 H 522.183 -0.48753 -4.58717 0
M  V30 5592 H 520.426 -0.527424 -4.30582 0
M  V30 5593 H 521.097 0.601127 -5.48717 0
M  V30 5594 H 523.573 1.60163 -3.8404 0
M  V30 5595 H 522.449 2.51578 -4.87852 0
M  V30 5596 H 522.71 3.03004 -3.21934 0
M  V30 5597 N 521.769 1.56035 0.221574 0
M  V30 5598 C 522.717 1.93269 1.29421 0
M  V30 5599 C 523.711 0.814727 1.48521 0
M  V30 5600 O 524.917 0.999559 1.49696 0
M  V30 5601 H 521.292 0.614188 0.43391 0
M  V30 5602 H 523.263 2.82773 0.952987 0
M  V30 5603 C 522.012 2.26573 2.63742 0
M  V30 5604 H 521.335 3.12112 2.49853 0
M  V30 5605 H 522.775 2.5651 3.37607 0
M  V30 5606 C 521.234 1.09086 3.1875 0
M  V30 5607 O 521.764 0.351985 4.00155 0
M  V30 5608 N 519.97 0.874693 2.77124 0
M  V30 5609 H 519.517 1.47726 2.11033 0
M  V30 5610 H 519.475 0.0903349 3.1427 0
M  V30 5611 N 523.247 -0.488276 1.49845 0
M  V30 5612 C 524.197 -1.58556 1.63842 0
M  V30 5613 C 525.181 -1.53142 0.493586 0
M  V30 5614 O 526.373 -1.60457 0.747169 0
M  V30 5615 C 523.502 -2.97101 1.72005 0
M  V30 5616 C 522.588 -3.07463 2.92108 0
M  V30 5617 N 522.979 -2.87681 4.16021 0
M  V30 5618 C 521.277 -3.3858 2.90309 0
M  V30 5619 C 521.978 -3.0256 4.96822 0
M  V30 5620 N 520.954 -3.32002 4.30437 0
M  V30 5621 H 524.756 -1.41935 2.57355 0
M  V30 5622 H 522.27 -0.694668 1.46793 0
M  V30 5623 H 524.267 -3.75976 1.80132 0
M  V30 5624 H 522.927 -3.14782 0.796375 0
M  V30 5625 H 523.938 -2.63603 4.45796 0
M  V30 5626 H 520.615 -3.62357 2.07372 0
M  V30 5627 H 522.005 -2.9165 6.05301 0
M  V30 5628 N 524.725 -1.39134 -0.740242 0
M  V30 5629 C 526.141 -1.20623 -1.0451 0
M  V30 5630 C 526.341 -0.0641651 -2.01398 0
M  V30 5631 O 525.397 0.585843 -2.4561 0
M  V30 5632 C 526.71 -2.53815 -1.6124 0
M  V30 5633 C 528.258 -2.60615 -1.73346 0
M  V30 5634 C 528.733 -3.94015 -2.33486 0
M  V30 5635 N 530.224 -3.95627 -2.40902 0
M  V30 5636 C 530.959 -4.95616 -2.88361 0
M  V30 5637 N 530.455 -6.06003 -3.35756 0
M  V30 5638 N 532.248 -4.82998 -2.87523 0
M  V30 5639 H 524.399 -2.12176 -0.0975576 0
M  V30 5640 H 526.662 -0.942066 -0.105904 0
M  V30 5641 H 526.368 -3.37911 -0.975144 0
M  V30 5642 H 526.242 -2.73162 -2.6012 0
M  V30 5643 H 528.629 -1.76906 -2.36195 0
M  V30 5644 H 528.71 -2.45123 -0.731336 0
M  V30 5645 H 528.354 -4.78153 -1.71267 0
M  V30 5646 H 528.284 -4.06825 -3.34366 0
M  V30 5647 H 530.775 -3.15903 -2.07398 0
M  V30 5648 H 531.088 -6.78215 -3.70464 0
M  V30 5649 H 529.433 -6.09604 -3.33778 0
M  V30 5650 H 532.624 -3.95866 -2.49816 0
M  V30 5651 H 532.797 -5.61072 -3.24196 0
M  V30 5652 N 526.204 0.969867 -1.24223 0
M  V30 5653 C 527.151 2.06407 -1.0327 0
M  V30 5654 C 528.121 1.66014 0.0533 0
M  V30 5655 O 529.306 1.90533 -0.100896 0
M  V30 5656 C 526.446 3.3909 -0.641262 0
M  V30 5657 C 525.559 3.9269 -1.80051 0
M  V30 5658 C 524.694 5.13631 -1.35486 0
M  V30 5659 C 523.733 5.59423 -2.48419 0
M  V30 5660 N 522.87 6.71586 -2.04737 0
M  V30 5661 H 527.71 2.23663 -1.96923 0
M  V30 5662 H 525.247 1.09624 -0.980862 0
M  V30 5663 H 527.205 4.15323 -0.395351 0
M  V30 5664 H 525.835 3.21765 0.258269 0
M  V30 5665 H 524.887 3.13116 -2.16014 0
M  V30 5666 H 526.199 4.22636 -2.64916 0
M  V30 5667 H 525.353 5.97231 -1.0677 0
M  V30 5668 H 524.092 4.85364 -0.476722 0
M  V30 5669 H 523.097 4.74398 -2.77897 0
M  V30 5670 H 524.322 5.89705 -3.36786 0
M  V30 5671 H 522.268 6.45058 -1.19318 0
M  V30 5672 H 522.185 7.0097 -2.83156 0
M  V30 5673 H 523.453 7.58633 -1.79154 0
M  V30 5674 N 527.682 1.05563 1.17022 0
M  V30 5675 C 528.632 0.630007 2.19123 0
M  V30 5676 C 529.616 -0.335472 1.57364 0
M  V30 5677 O 530.808 -0.1521 1.76345 0
M  V30 5678 C 527.937 0.0101676 3.43298 0
M  V30 5679 C 527.023 0.999698 4.12149 0
M  V30 5680 N 527.414 2.17251 4.56766 0
M  V30 5681 C 525.712 0.829 4.38228 0
M  V30 5682 C 526.413 2.79883 5.09942 0
M  V30 5683 N 525.389 2.07656 5.02374 0
M  V30 5684 H 529.191 1.52353 2.51328 0
M  V30 5685 H 526.705 0.926288 1.33393 0
M  V30 5686 H 528.702 -0.312541 4.15727 0
M  V30 5687 H 527.362 -0.878707 3.12584 0
M  V30 5688 H 528.373 2.55067 4.50734 0
M  V30 5689 H 525.05 -0.00850974 4.17499 0
M  V30 5690 H 526.44 3.79362 5.54558 0
M  V30 5691 N 529.16 -1.33526 0.837174 0
M  V30 5692 C 530.108 -2.31168 0.257698 0
M  V30 5693 C 531.102 -1.5806 -0.609388 0
M  V30 5694 O 532.308 -1.72941 -0.499139 0
M  V30 5695 H 528.683 -0.74922 0.0646058 0
M  V30 5696 H 530.654 -2.77552 1.09578 0
M  V30 5697 C 529.403 -3.4326 -0.553887 0
M  V30 5698 H 528.726 -3.99665 0.104008 0
M  V30 5699 H 530.166 -4.13782 -0.925219 0
M  V30 5700 C 528.625 -2.88965 -1.73207 0
M  V30 5701 O 529.155 -2.85013 -2.83073 0
M  V30 5702 N 527.361 -2.45596 -1.55342 0
M  V30 5703 H 526.908 -2.49009 -0.659705 0
M  V30 5704 H 526.866 -2.0962 -2.34322 0
M  V30 5705 N 530.638 -0.59345 -1.46 0
M  V30 5706 C 531.887 -0.0808084 -2.01538 0
M  V30 5707 C 532.2 1.29112 -1.46934 0
M  V30 5708 O 533.406 1.8957 -1.94359 0
M  V30 5709 C 531.862 -0.0938311 -3.59778 0
M  V30 5710 C 531.47 -1.46474 -4.23379 0
M  V30 5711 C 533.214 0.364306 -4.22934 0
M  V30 5712 C 531.121 -1.4349 -5.73729 0
M  V30 5713 H 530.051 -0.0264407 -0.753536 0
M  V30 5714 H 532.702 -0.746689 -1.67621 0
M  V30 5715 H 531.084 0.638427 -3.9082 0
M  V30 5716 H 532.258 -2.21758 -4.03931 0
M  V30 5717 H 530.573 -1.86379 -3.7236 0
M  V30 5718 H 533.17 0.405584 -5.3316 0
M  V30 5719 H 533.513 1.38409 -3.92618 0
M  V30 5720 H 534.046 -0.31423 -3.96557 0
M  V30 5721 H 530.785 -2.43184 -6.08722 0
M  V30 5722 H 530.305 -0.724431 -5.95409 0
M  V30 5723 H 531.984 -1.15243 -6.36654 0
M  V30 5724 N 532.116 1.54067 -0.331816 0
M  V30 5725 C 533.527 1.86059 0.15454 0
M  V30 5726 C 533.878 1.25331 1.50952 0
M  V30 5727 O 533.003 0.562441 2.08963 0
M  V30 5728 C 533.598 3.37581 0.287192 0
M  V30 5729 C 532.157 3.69493 0.717773 0
M  V30 5730 C 531.304 2.76863 -0.155569 0
M  V30 5731 H 534.255 1.48797 -0.55182 0
M  V30 5732 H 534.276 3.63744 1.11671 0
M  V30 5733 H 533.788 3.81751 -0.699131 0
M  V30 5734 H 531.889 3.3086 1.71354 0
M  V30 5735 H 532.002 4.76315 0.5158 0
M  V30 5736 H 530.366 2.51995 0.370213 0
M  V30 5737 H 531.149 3.23861 -1.13881 0
M  V30 5738 N 533.594 0.0601682 1.57485 0
M  V30 5739 C 534.544 -0.920969 2.08572 0
M  V30 5740 C 535.528 -1.26617 0.992827 0
M  V30 5741 O 536.72 -1.24708 1.25606 0
M  V30 5742 C 533.849 -2.19267 2.64153 0
M  V30 5743 C 532.935 -1.87447 3.80427 0
M  V30 5744 N 533.326 -1.26025 4.89848 0
M  V30 5745 C 531.624 -2.17265 3.89502 0
M  V30 5746 C 532.325 -1.12036 5.70809 0
M  V30 5747 N 531.301 -1.62624 5.18705 0
M  V30 5748 H 535.103 -0.441561 2.90564 0
M  V30 5749 H 532.617 -0.144043 1.6176 0
M  V30 5750 H 534.614 -2.90462 2.99061 0
M  V30 5751 H 533.274 -2.67806 1.83603 0
M  V30 5752 H 534.285 -0.931336 5.09457 0
M  V30 5753 H 530.962 -2.68262 3.19909 0
M  V30 5754 H 532.352 -0.642783 6.68818 0
M  V30 5755 N 535.072 -1.5615 -0.213296 0
M  V30 5756 C 536.319 -1.79546 -0.936462 0
M  V30 5757 C 536.647 -0.630337 -1.84003 0
M  V30 5758 O 535.902 0.384883 -1.91878 0
M  V30 5759 C 536.201 -3.08772 -1.79985 0
M  V30 5760 C 535.867 -4.38532 -1.04882 0
M  V30 5761 C 534.529 -4.73787 -0.841393 0
M  V30 5762 C 536.881 -5.18609 -0.51907 0
M  V30 5763 C 534.209 -5.86627 -0.0924403 0
M  V30 5764 C 536.561 -6.32229 0.216581 0
M  V30 5765 C 535.225 -6.6608 0.435191 0
M  V30 5766 H 534.495 -0.657004 -0.342676 0
M  V30 5767 H 537.142 -1.9041 -0.204051 0
M  V30 5768 H 535.447 -2.93065 -2.60038 0
M  V30 5769 H 537.144 -3.24077 -2.36168 0
M  V30 5770 H 533.734 -4.10855 -1.22048 0
M  V30 5771 H 537.918 -4.91801 -0.666775 0
M  V30 5772 H 533.174 -6.11338 0.087081 0
M  V30 5773 H 537.348 -6.93503 0.634538 0
M  V30 5774 H 534.975 -7.5336 1.01746 0
M  V30 5775 N 536.55 0.480323 -1.50102 0
M  V30 5776 C 537.796 1.23208 -1.61837 0
M  V30 5777 C 538.151 1.89878 -0.310509 0
M  V30 5778 O 537.444 1.7871 0.690897 0
M  V30 5779 C 537.638 2.30708 -2.72963 0
M  V30 5780 C 537.467 1.74583 -4.14428 0
M  V30 5781 C 536.237 1.54964 -4.80951 0
M  V30 5782 C 538.435 1.24597 -4.98979 0
M  V30 5783 N 536.417 0.939855 -6.06663 0
M  V30 5784 C 537.788 0.758834 -6.15339 0
M  V30 5785 C 539.843 1.13365 -4.84822 0
M  V30 5786 C 538.546 0.17046 -7.19098 0
M  V30 5787 C 540.572 0.559221 -5.8875 0
M  V30 5788 C 539.934 0.082415 -7.04352 0
M  V30 5789 H 536.033 0.440065 -0.646426 0
M  V30 5790 H 538.617 0.535632 -1.87187 0
M  V30 5791 H 536.788 2.9779 -2.4935 0
M  V30 5792 H 538.52 2.97738 -2.74106 0
M  V30 5793 H 535.275 1.79926 -4.38091 0
M  V30 5794 H 535.699 0.653641 -6.73837 0
M  V30 5795 H 540.341 1.48823 -3.95742 0
M  V30 5796 H 538.059 -0.196347 -8.07861 0
M  V30 5797 H 541.645 0.474804 -5.79859 0
M  V30 5798 H 540.525 -0.355119 -7.83396 0
M  V30 5799 N 538.028 1.39524 0.732853 0
M  V30 5800 C 539.439 1.32905 1.31122 0
M  V30 5801 C 539.79 -0.00558708 1.96199 0
M  V30 5802 O 538.915 -0.907706 1.96443 0
M  V30 5803 C 539.51 2.40704 2.38426 0
M  V30 5804 C 538.069 2.37599 2.91931 0
M  V30 5805 C 537.216 2.2248 1.65523 0
M  V30 5806 H 540.167 1.49581 0.530207 0
M  V30 5807 H 540.188 2.07616 3.18867 0
M  V30 5808 H 539.7 3.37829 1.91033 0
M  V30 5809 H 537.801 1.44119 3.43599 0
M  V30 5810 H 537.914 3.32538 3.44899 0
M  V30 5811 H 536.278 1.69691 1.8994 0
M  V30 5812 H 537.061 3.21577 1.20178 0
M  V30 5813 N 539.506 -0.963266 1.24736 0
M  V30 5814 C 540.453 -2.05857 1.04363 0
M  V30 5815 C 541.423 -1.6604 -0.0444951 0
M  V30 5816 O 542.608 -1.90477 0.110999 0
M  V30 5817 C 539.748 -3.38745 0.659235 0
M  V30 5818 C 538.861 -3.9173 1.82131 0
M  V30 5819 C 537.996 -5.12906 1.38208 0
M  V30 5820 C 537.035 -5.58098 2.51382 0
M  V30 5821 N 536.172 -6.7049 2.08295 0
M  V30 5822 H 541.012 -2.22616 1.98107 0
M  V30 5823 H 538.549 -1.09103 0.986661 0
M  V30 5824 H 540.507 -4.15107 0.417371 0
M  V30 5825 H 539.137 -3.21898 -0.241201 0
M  V30 5826 H 538.189 -3.11966 2.17672 0
M  V30 5827 H 539.501 -4.21225 2.67153 0
M  V30 5828 H 538.655 -5.96657 1.09935 0
M  V30 5829 H 537.394 -4.85105 0.502456 0
M  V30 5830 H 536.399 -4.72917 2.80409 0
M  V30 5831 H 537.624 -5.87911 3.39909 0
M  V30 5832 H 535.57 -6.44416 1.22737 0
M  V30 5833 H 535.487 -6.99458 2.86869 0
M  V30 5834 H 536.755 -7.57672 1.83175 0
M  V30 5835 N 540.985 -1.06182 -1.16461 0
M  V30 5836 C 541.915 -0.692861 -2.22984 0
M  V30 5837 C 542.896 0.314122 -1.67174 0
M  V30 5838 O 544.081 0.189499 -1.93273 0
M  V30 5839 C 541.211 -0.07732 -3.47214 0
M  V30 5840 C 540.165 -1.01015 -4.15909 0
M  V30 5841 C 539.491 -0.257973 -5.34077 0
M  V30 5842 C 540.791 -2.33868 -4.67015 0
M  V30 5843 H 542.485 -1.58343 -2.54102 0
M  V30 5844 H 540.031 -0.76279 -1.22137 0
M  V30 5845 H 541.984 0.19266 -4.20959 0
M  V30 5846 H 540.708 0.848254 -3.15392 0
M  V30 5847 H 539.367 -1.26486 -3.44088 0
M  V30 5848 H 539.015 0.670684 -4.98509 0
M  V30 5849 H 538.715 -0.879638 -5.80979 0
M  V30 5850 H 540.239 0.00448788 -6.106 0
M  V30 5851 H 541.653 -2.1279 -5.32347 0
M  V30 5852 H 540.05 -2.91522 -5.24533 0
M  V30 5853 H 541.12 -2.97019 -3.83286 0
M  V30 5854 N 542.463 1.3308 -0.844243 0
M  V30 5855 C 543.393 2.3161 -0.296493 0
M  V30 5856 C 544.374 1.59215 0.598707 0
M  V30 5857 O 545.559 1.87077 0.521134 0
M  V30 5858 C 542.689 3.43313 0.524762 0
M  V30 5859 C 541.643 4.27115 -0.275106 0
M  V30 5860 C 540.969 5.30483 0.670236 0
M  V30 5861 C 542.269 5.00443 -1.49514 0
M  V30 5862 H 543.963 2.77672 -1.11976 0
M  V30 5863 H 541.509 1.33496 -0.539899 0
M  V30 5864 H 543.462 4.11273 0.918298 0
M  V30 5865 H 542.186 2.95952 1.3813 0
M  V30 5866 H 540.845 3.60787 -0.650267 0
M  V30 5867 H 540.493 4.79379 1.52332 0
M  V30 5868 H 540.193 5.87435 0.139123 0
M  V30 5869 H 541.717 6.01308 1.06117 0
M  V30 5870 H 543.131 5.61141 -1.17447 0
M  V30 5871 H 541.528 5.67071 -1.96343 0
M  V30 5872 H 542.598 4.28906 -2.26202 0
M  V30 5873 N 543.941 0.601185 1.45683 0
M  V30 5874 C 544.874 -0.17013 2.27565 0
M  V30 5875 C 545.852 -0.879661 1.36751 0
M  V30 5876 O 547.036 -0.889827 1.66176 0
M  V30 5877 C 544.163 -1.24568 3.14961 0
M  V30 5878 C 543.209 -0.639978 4.21671 0
M  V30 5879 S 544.042 0.547275 5.32696 0
M  V30 5880 C 545.198 -0.529019 6.2366 0
M  V30 5881 H 545.431 0.524583 2.92635 0
M  V30 5882 H 542.964 0.388537 1.49431 0
M  V30 5883 H 544.922 -1.86138 3.65873 0
M  V30 5884 H 543.583 -1.91243 2.49169 0
M  V30 5885 H 542.776 -1.44903 4.8272 0
M  V30 5886 H 542.378 -0.0995558 3.73867 0
M  V30 5887 H 544.67 -1.40981 6.62669 0
M  V30 5888 H 545.613 0.0451599 7.08086 0
M  V30 5889 H 546.021 -0.84147 5.58193 0
M  V30 5890 N 545.419 -1.53889 0.339982 0
M  V30 5891 C 546.366 -2.24902 -0.518452 0
M  V30 5892 C 547.336 -1.24593 -1.09844 0
M  V30 5893 O 548.521 -1.53317 -1.13572 0
M  V30 5894 C 545.661 -3.02262 -1.66529 0
M  V30 5895 C 544.774 -4.17418 -1.11295 0
M  V30 5896 C 543.909 -4.82273 -2.2268 0
M  V30 5897 C 542.948 -5.89503 -1.6478 0
M  V30 5898 N 542.085 -6.48153 -2.69893 0
M  V30 5899 H 546.925 -2.97853 0.0936579 0
M  V30 5900 H 544.462 -1.46986 0.0579924 0
M  V30 5901 H 546.42 -3.45371 -2.3404 0
M  V30 5902 H 545.05 -2.31614 -2.24844 0
M  V30 5903 H 544.102 -3.78976 -0.328886 0
M  V30 5904 H 545.414 -4.94554 -0.649414 0
M  V30 5905 H 544.568 -5.28435 -2.98063 0
M  V30 5906 H 543.307 -4.04552 -2.72376 0
M  V30 5907 H 542.312 -5.42728 -0.879004 0
M  V30 5908 H 543.537 -6.6913 -1.1594 0
M  V30 5909 H 541.483 -5.73298 -3.1885 0
M  V30 5910 H 541.4 -7.20752 -2.28151 0
M  V30 5911 H 542.668 -6.98968 -3.45056 0
M  V30 5912 N 546.897 -0.0685191 -1.57451 0
M  V30 5913 C 547.807 0.914677 -2.16034 0
M  V30 5914 C 548.823 1.32938 -1.12265 0
M  V30 5915 O 549.999 1.40275 -1.44516 0
M  V30 5916 C 547.064 2.16519 -2.70777 0
M  V30 5917 C 546.125 1.80721 -3.89408 0
M  V30 5918 C 545.358 2.9981 -4.41531 0
M  V30 5919 O 545.581 4.13727 -3.92666 0
M  V30 5920 O 544.515 2.79817 -5.32903 0
M  V30 5921 H 548.341 0.446364 -3.00402 0
M  V30 5922 H 545.926 0.154367 -1.486 0
M  V30 5923 H 547.808 2.89856 -3.05878 0
M  V30 5924 H 546.483 2.62454 -1.89471 0
M  V30 5925 H 545.39 1.04646 -3.59166 0
M  V30 5926 H 546.723 1.39571 -4.71997 0
M  V30 5927 N 548.375 1.56261 0.205012 0
M  V30 5928 C 549.791 1.49623 0.555433 0
M  V30 5929 C 549.991 0.766719 1.86343 0
M  V30 5930 O 549.047 0.313158 2.50551 0
M  V30 5931 C 550.36 2.94253 0.619347 0
M  V30 5932 C 551.908 3.04868 0.708855 0
M  V30 5933 C 552.383 4.50888 0.803969 0
M  V30 5934 N 553.874 4.54999 0.867758 0
M  V30 5935 C 554.609 5.65284 0.96135 0
M  V30 5936 N 554.105 6.85282 1.01786 0
M  V30 5937 N 555.898 5.53174 0.997771 0
M  V30 5938 H 548.049 2.0211 -0.653094 0
M  V30 5939 H 550.312 0.919333 -0.231366 0
M  V30 5940 H 550.018 3.50643 -0.272458 0
M  V30 5941 H 549.892 3.47063 1.47741 0
M  V30 5942 H 552.279 2.48532 1.5911 0
M  V30 5943 H 552.36 2.55199 -0.175205 0
M  V30 5944 H 552.004 5.07846 -0.0738798 0
M  V30 5945 H 551.934 4.98279 1.70369 0
M  V30 5946 H 554.425 3.68588 0.833735 0
M  V30 5947 H 554.738 7.65081 1.08951 0
M  V30 5948 H 553.083 6.8796 0.986706 0
M  V30 5949 H 556.274 4.5835 0.950392 0
M  V30 5950 H 556.447 6.39151 1.06725 0
M  V30 5951 N 549.853 -0.472356 1.50355 0
M  V30 5952 C 550.763 -1.59637 1.7191 0
M  V30 5953 C 551.779 -1.63247 0.602195 0
M  V30 5954 O 552.955 -1.81139 0.880369 0
M  V30 5955 C 550.02 -2.9586 1.80742 0
M  V30 5956 C 549.081 -3.02649 3.04471 0
M  V30 5957 C 548.314 -4.32374 3.12872 0
M  V30 5958 O 548.537 -5.22807 2.28099 0
M  V30 5959 O 547.471 -4.44728 4.05587 0
M  V30 5960 H 551.297 -1.44373 2.67189 0
M  V30 5961 H 548.882 -0.651717 1.34436 0
M  V30 5962 H 550.764 -3.7677 1.88739 0
M  V30 5963 H 549.439 -3.11325 0.88647 0
M  V30 5964 H 548.346 -2.20821 3.01975 0
M  V30 5965 H 549.679 -2.92119 3.9614 0
M  V30 5966 N 551.331 -1.39911 -0.725443 0
M  V30 5967 C 552.577 -1.37858 -1.48738 0
M  V30 5968 C 552.91 0.0224187 -1.94187 0
M  V30 5969 O 552.185 0.989204 -1.67466 0
M  V30 5970 C 552.468 -2.3594 -2.72038 0
M  V30 5971 C 552.321 -3.85023 -2.32546 0
M  V30 5972 C 553.64 -2.31704 -3.74167 0
M  V30 5973 H 550.759 -0.502074 -0.539528 0
M  V30 5974 H 553.401 -1.70974 -0.828728 0
M  V30 5975 H 551.551 -2.0783 -3.28236 0
M  V30 5976 H 553.223 -4.2392 -1.81905 0
M  V30 5977 H 551.466 -4.01334 -1.64661 0
M  V30 5978 H 552.137 -4.49152 -3.20884 0
M  V30 5979 H 554.613 -2.5658 -3.27576 0
M  V30 5980 H 553.489 -3.02395 -4.58092 0
M  V30 5981 H 553.75 -1.3253 -4.21768 0
M  V30 5982 N 552.809 0.956637 -1.25245 0
M  V30 5983 C 553.741 2.05628 -1.01242 0
M  V30 5984 C 554.754 1.62785 0.0219579 0
M  V30 5985 O 555.943 1.77184 -0.216365 0
M  V30 5986 C 553.043 3.35069 -0.508161 0
M  V30 5987 C 552.216 4.06761 -1.60823 0
M  V30 5988 C 551.275 5.14473 -1.1047 0
M  V30 5989 O 550.301 5.40033 -1.79868 0
M  V30 5990 N 551.503 5.80474 0.0550773 0
M  V30 5991 H 554.268 2.2679 -1.95925 0
M  V30 5992 H 551.829 1.12505 -1.16423 0
M  V30 5993 H 553.821 4.044 -0.155819 0
M  V30 5994 H 552.391 3.10694 0.344683 0
M  V30 5995 H 551.611 3.31555 -2.13224 0
M  V30 5996 H 552.899 4.51418 -2.34733 0
M  V30 5997 H 552.297 5.62125 0.635004 0
M  V30 5998 H 550.854 6.50868 0.348469 0
M  V30 5999 N 554.287 1.06798 1.15896 0
M  V30 6000 C 555.512 0.808739 1.90982 0
M  V30 6001 C 555.937 -0.6316 1.77179 0
M  V30 6002 O 555.295 -1.4407 1.10061 0
M  V30 6003 C 555.343 1.21468 3.39526 0
M  V30 6004 O 554.447 0.356562 4.10856 0
M  V30 6005 H 553.788 0.29512 0.594811 0
M  V30 6006 H 556.318 1.42513 1.46804 0
M  V30 6007 H 556.328 1.18844 3.90308 0
M  V30 6008 H 555.003 2.26379 3.48891 0
M  V30 6009 H 553.58 0.444808 3.70238 0
M  V30 6010 N 555.766 -1.3263 0.851289 0
M  V30 6011 C 556.991 -2.02097 0.466006 0
M  V30 6012 C 557.416 -1.63574 -0.928709 0
M  V30 6013 O 556.774 -0.834665 -1.60944 0
M  V30 6014 C 556.822 -3.55425 0.608737 0
M  V30 6015 O 555.926 -4.10827 -0.359878 0
M  V30 6016 H 555.267 -0.636911 0.187724 0
M  V30 6017 H 557.797 -1.69253 1.14955 0
M  V30 6018 H 557.807 -4.04986 0.495006 0
M  V30 6019 H 556.482 -3.82806 1.62581 0
M  V30 6020 H 555.059 -3.72349 -0.202666 0
M  V30 6021 N 557.244 -0.608902 -1.45362 0
M  V30 6022 C 558.493 -0.10218 -2.01441 0
M  V30 6023 C 558.806 1.27546 -1.48295 0
M  V30 6024 O 560.012 1.87498 -1.96359 0
M  V30 6025 C 558.468 -0.131985 -3.59658 0
M  V30 6026 C 558.076 -1.50956 -4.21801 0
M  V30 6027 C 559.82 0.319427 -4.23296 0
M  V30 6028 C 557.727 -1.49568 -5.72174 0
M  V30 6029 H 556.657 -0.0344314 -0.753213 0
M  V30 6030 H 559.308 -0.764426 -1.6682 0
M  V30 6031 H 557.69 0.596939 -3.91475 0
M  V30 6032 H 558.864 -2.26029 -4.01556 0
M  V30 6033 H 557.179 -1.90318 -3.70362 0
M  V30 6034 H 559.776 0.349013 -5.3356 0
M  V30 6035 H 560.119 1.34237 -3.94064 0
M  V30 6036 H 560.652 -0.356273 -3.96201 0
M  V30 6037 H 557.391 -2.49626 -6.06108 0
M  V30 6038 H 556.911 -0.787542 -5.94607 0
M  V30 6039 H 558.59 -1.21989 -6.35396 0
M  V30 6040 N 558.722 1.53707 -0.348139 0
M  V30 6041 C 559.652 2.28111 0.498766 0
M  V30 6042 C 560.633 1.29851 1.09876 0
M  V30 6043 O 561.818 1.587 1.11928 0
M  V30 6044 C 558.948 3.05735 1.64753 0
M  V30 6045 C 557.902 4.11537 1.17565 0
M  V30 6046 C 557.228 4.77142 2.4133 0
M  V30 6047 C 558.528 5.21587 0.272844 0
M  V30 6048 H 560.222 2.99152 -0.121934 0
M  V30 6049 H 557.768 1.43875 -0.0600842 0
M  V30 6050 H 559.721 3.56526 2.24649 0
M  V30 6051 H 558.445 2.32354 2.2952 0
M  V30 6052 H 557.104 3.61665 0.599483 0
M  V30 6053 H 556.752 4.0035 3.04514 0
M  V30 6054 H 556.452 5.48626 2.10436 0
M  V30 6055 H 557.976 5.30719 3.01943 0
M  V30 6056 H 559.39 5.67986 0.778779 0
M  V30 6057 H 557.787 6.00074 0.0555849 0
M  V30 6058 H 558.857 4.79969 -0.689785 0
M  V30 6059 N 560.2 0.0768682 1.57412 0
M  V30 6060 C 561.43 -0.5991 1.97723 0
M  V30 6061 C 561.838 -1.63378 0.954166 0
M  V30 6062 O 561.181 -1.83578 -0.0668706 0
M  V30 6063 C 561.243 -1.32078 3.34358 0
M  V30 6064 C 560.907 -0.438985 4.54887 0
M  V30 6065 C 561.904 0.305492 5.19002 0
M  V30 6066 C 559.589 -0.362378 5.00991 0
M  V30 6067 C 561.583 1.11475 6.27576 0
M  V30 6068 C 559.27 0.450543 6.09437 0
M  V30 6069 C 560.268 1.18777 6.72593 0
M  V30 6070 O 559.956 1.98727 7.7895 0
M  V30 6071 H 559.688 -0.166725 0.655117 0
M  V30 6072 H 562.242 0.147337 2.04871 0
M  V30 6073 H 560.472 -2.1134 3.2384 0
M  V30 6074 H 562.161 -1.88949 3.5924 0
M  V30 6075 H 562.927 0.25593 4.84324 0
M  V30 6076 H 558.806 -0.925832 4.51608 0
M  V30 6077 H 562.35 1.69068 6.76803 0
M  V30 6078 H 558.247 0.501651 6.43548 0
M  V30 6079 H 559.015 1.91214 7.95851 0
M  V30 6080 N 561.678 -1.56367 -0.196722 0
M  V30 6081 C 562.625 -1.94417 -1.24382 0
M  V30 6082 C 563.595 -0.804543 -1.45315 0
M  V30 6083 O 564.78 -1.06256 -1.58475 0
M  V30 6084 C 561.92 -2.28757 -2.58388 0
M  V30 6085 C 561.033 -3.55775 -2.45047 0
M  V30 6086 C 560.168 -3.79445 -3.71746 0
M  V30 6087 C 559.207 -4.99894 -3.53231 0
M  V30 6088 N 558.344 -5.19826 -4.71938 0
M  V30 6089 H 563.184 -2.83691 -0.912338 0
M  V30 6090 H 560.721 -1.40392 -0.439135 0
M  V30 6091 H 562.679 -2.46682 -3.36457 0
M  V30 6092 H 561.309 -1.42625 -2.89582 0
M  V30 6093 H 560.361 -3.45905 -1.58284 0
M  V30 6094 H 561.673 -4.44 -2.27299 0
M  V30 6095 H 560.827 -3.97601 -4.58256 0
M  V30 6096 H 559.566 -2.89546 -3.92446 0
M  V30 6097 H 558.571 -4.81662 -2.65107 0
M  V30 6098 H 559.796 -5.913 -3.33978 0
M  V30 6099 H 557.742 -4.32875 -4.92905 0
M  V30 6100 H 557.659 -6.02228 -4.57009 0
M  V30 6101 H 558.927 -5.42439 -5.59803 0
M  V30 6102 N 563.156 0.464375 -1.50603 0
M  V30 6103 C 564.404 1.21356 -1.61608 0
M  V30 6104 C 564.725 1.92329 -0.321643 0
M  V30 6105 O 563.995 1.84403 0.661232 0
M  V30 6106 H 562.575 0.45094 -0.595535 0
M  V30 6107 H 565.237 0.535046 -1.87412 0
M  V30 6108 H 564.333 1.95783 -2.43054 0
M  V30 6109 N 564.634 1.40294 0.718013 0
M  V30 6110 C 565.597 1.4012 1.81381 0
M  V30 6111 C 566.597 0.295405 1.58063 0
M  V30 6112 O 567.787 0.554187 1.6515 0
M  V30 6113 C 564.919 1.19056 3.19435 0
M  V30 6114 H 566.112 2.37645 1.82933 0
M  V30 6115 H 563.665 1.26107 0.923405 0
M  V30 6116 H 564.4 0.222809 3.23534 0
M  V30 6117 H 564.185 1.99152 3.37758 0
M  V30 6118 H 565.675 1.21716 3.99468 0
M  V30 6119 N 566.112 -0.949982 1.2575 0
M  V30 6120 C 567.075 -2.02894 1.06615 0
M  V30 6121 C 568.075 -1.60791 0.0173905 0
M  V30 6122 O 569.265 -1.72249 0.260003 0
M  V30 6123 C 566.397 -3.35219 0.619751 0
M  V30 6124 H 567.59 -2.21302 2.02399 0
M  V30 6125 H 565.143 -1.12772 1.08223 0
M  V30 6126 H 565.878 -3.22508 -0.340486 0
M  V30 6127 H 565.663 -3.67129 1.37692 0
M  V30 6128 H 567.153 -4.14505 0.507443 0
M  V30 6129 N 567.59 -1.07411 -1.15328 0
M  V30 6130 C 568.553 -0.698914 -2.18284 0
M  V30 6131 C 569.553 0.261149 -1.58665 0
M  V30 6132 O 570.743 0.0420277 -1.74149 0
M  V30 6133 C 567.875 -0.0302427 -3.40887 0
M  V30 6134 H 569.068 -1.61045 -2.52991 0
M  V30 6135 H 566.621 -0.870724 -1.298 0
M  V30 6136 H 567.356 0.893505 -3.11748 0
M  V30 6137 H 567.141 -0.720759 -3.85419 0
M  V30 6138 H 568.631 0.21759 -4.17033 0
M  V30 6139 N 569.068 1.32177 -0.85831 0
M  V30 6140 C 569.978 2.32561 -0.308606 0
M  V30 6141 C 570.994 1.64209 0.575462 0
M  V30 6142 O 572.17 1.95719 0.474961 0
M  V30 6143 C 569.235 3.43207 0.490909 0
M  V30 6144 C 568.296 4.27243 -0.419733 0
M  V30 6145 C 567.529 5.32605 0.341719 0
M  V30 6146 O 567.752 5.48332 1.57125 0
M  V30 6147 O 566.686 6.0118 -0.294379 0
M  V30 6148 H 570.512 2.81477 -1.14037 0
M  V30 6149 H 568.097 1.35866 -0.621349 0
M  V30 6150 H 569.979 4.10677 0.944574 0
M  V30 6151 H 568.654 2.96474 1.29941 0
M  V30 6152 H 567.561 3.62569 -0.921652 0
M  V30 6153 H 568.894 4.7751 -1.19352 0
M  V30 6154 N 570.547 0.616602 1.45037 0
M  V30 6155 C 571.795 0.115103 2.01772 0
M  V30 6156 C 572.116 -1.2622 1.48639 0
M  V30 6157 O 571.386 -1.83563 0.684199 0
M  V30 6158 H 569.966 0.0395607 0.745952 0
M  V30 6159 H 572.628 0.800032 1.77723 0
M  V30 6160 H 571.724 0.0717274 3.12018 0
M  V30 6161 N 572.025 -1.5352 0.356285 0
M  V30 6162 C 573.441 -1.59599 0.00485267 0
M  V30 6163 C 573.641 -1.37179 -1.47595 0
M  V30 6164 O 572.697 -1.17234 -2.23635 0
M  V30 6165 C 574.01 -2.97277 0.452454 0
M  V30 6166 C 575.558 -3.10357 0.405881 0
M  V30 6167 C 576.033 -4.50432 0.829148 0
M  V30 6168 N 577.524 -4.5652 0.783838 0
M  V30 6169 C 578.259 -5.63077 1.08315 0
M  V30 6170 N 577.755 -6.77429 1.45126 0
M  V30 6171 N 579.548 -5.53014 1.00655 0
M  V30 6172 H 571.699 -1.66346 1.32071 0
M  V30 6173 H 573.962 -0.77971 0.539218 0
M  V30 6174 H 573.668 -3.18792 1.48542 0
M  V30 6175 H 573.542 -3.76836 -0.165762 0
M  V30 6176 H 575.929 -2.88558 -0.617934 0
M  V30 6177 H 576.01 -2.32828 1.05947 0
M  V30 6178 H 575.654 -4.72968 1.85103 0
M  V30 6179 H 575.584 -5.26378 0.152906 0
M  V30 6180 H 578.075 -3.74408 0.512513 0
M  V30 6181 H 578.388 -7.54669 1.66415 0
M  V30 6182 H 576.733 -6.78844 1.48983 0
M  V30 6183 H 579.924 -4.62557 0.718215 0
M  V30 6184 H 580.097 -6.35964 1.24315 0
M  V30 6185 N 573.503 -0.0852151 -1.57369 0
M  V30 6186 C 574.914 0.445428 -1.81309 0
M  V30 6187 C 575.265 1.68795 -1.00013 0
M  V30 6188 O 574.39 2.15211 -0.226573 0
M  V30 6189 C 574.985 0.814887 -3.28854 0
M  V30 6190 C 573.544 1.29032 -3.53592 0
M  V30 6191 C 572.691 0.282089 -2.75861 0
M  V30 6192 H 575.642 -0.310771 -1.55627 0
M  V30 6193 H 575.663 1.67524 -3.41637 0
M  V30 6194 H 575.175 -0.0896309 -3.87996 0
M  V30 6195 H 573.276 2.21289 -2.9977 0
M  V30 6196 H 573.389 1.25898 -4.62262 0
M  V30 6197 H 571.753 0.762182 -2.43029 0
M  V30 6198 H 572.536 -0.614936 -3.37748 0
M  V30 6199 N 574.981 1.5647 0.188427 0
M  V30 6200 C 576.229 1.80655 0.905986 0
M  V30 6201 C 576.55 0.659391 1.83513 0
M  V30 6202 O 575.82 -0.321868 1.93238 0
M  V30 6203 H 574.4 0.666391 0.337538 0
M  V30 6204 H 577.062 1.93949 0.192339 0
M  V30 6205 H 576.158 2.74066 1.49313 0
M  V30 6206 N 576.459 -0.456382 1.50847 0
M  V30 6207 C 577.707 -1.20497 1.62249 0
M  V30 6208 C 578.028 -1.92156 0.331839 0
M  V30 6209 O 577.298 -1.84751 -0.651443 0
M  V30 6210 H 575.878 -0.447775 0.597918 0
M  V30 6211 H 578.54 -0.525099 1.87693 0
M  V30 6212 H 577.636 -1.94492 2.44089 0
M  V30 6213 N 577.937 -1.40673 -0.710563 0
M  V30 6214 C 579.162 -1.42741 -1.50465 0
M  V30 6215 C 579.587 -0.0302116 -1.88076 0
M  V30 6216 O 578.945 0.962945 -1.53613 0
M  V30 6217 C 578.993 -2.32873 -2.75322 0
M  V30 6218 O 578.097 -1.77544 -3.72226 0
M  V30 6219 H 577.438 -0.485056 -0.45345 0
M  V30 6220 H 579.968 -1.84961 -0.874681 0
M  V30 6221 H 579.978 -2.48233 -3.23797 0
M  V30 6222 H 578.653 -3.34401 -2.47283 0
M  V30 6223 H 577.23 -1.71556 -3.31093 0
M  V30 6224 N 579.415 0.9433 -1.26252 0
M  V30 6225 C 580.345 2.05902 -1.10122 0
M  V30 6226 C 581.326 1.70099 -0.00700552 0
M  V30 6227 O 582.511 1.93377 -0.178641 0
M  V30 6228 C 579.641 3.39516 -0.731175 0
M  V30 6229 C 578.595 3.89372 -1.77688 0
M  V30 6230 C 577.921 5.19613 -1.26122 0
M  V30 6231 C 579.221 4.14489 -3.17799 0
M  V30 6232 H 580.915 2.19655 -2.03451 0
M  V30 6233 H 578.461 1.05548 -0.979576 0
M  V30 6234 H 580.414 4.17031 -0.605215 0
M  V30 6235 H 579.138 3.25733 0.23782 0
M  V30 6236 H 577.797 3.14036 -1.89148 0
M  V30 6237 H 577.445 5.02208 -0.282128 0
M  V30 6238 H 577.145 5.53939 -1.96023 0
M  V30 6239 H 578.669 5.99713 -1.14789 0
M  V30 6240 H 580.083 4.82625 -3.09428 0
M  V30 6241 H 578.48 4.60094 -3.85271 0
M  V30 6242 H 579.55 3.20347 -3.64014 0
M  V30 6243 N 580.893 1.08022 1.14757 0
M  V30 6244 C 582.141 0.805913 1.85336 0
M  V30 6245 C 582.462 -0.670162 1.83122 0
M  V30 6246 O 581.732 -1.48567 1.2769 0
M  V30 6247 H 580.312 0.295138 0.686223 0
M  V30 6248 H 582.974 1.36538 1.3908 0
M  V30 6249 H 582.07 1.14655 2.90277 0
M  V30 6250 N 582.371 -1.3172 0.865308 0
M  V30 6251 C 583.617 -1.97168 0.474633 0
M  V30 6252 C 583.95 -1.68263 -0.969604 0
M  V30 6253 O 583.225 -0.976588 -1.68205 0
M  V30 6254 C 583.508 -3.52689 0.726808 0
M  V30 6255 C 583.361 -3.91185 2.22024 0
M  V30 6256 C 584.68 -4.39689 0.190201 0
M  V30 6257 H 581.799 -0.716185 0.17392 0
M  V30 6258 H 584.441 -1.55925 1.08569 0
M  V30 6259 H 582.591 -3.8795 0.206705 0
M  V30 6260 H 584.263 -3.66049 2.80724 0
M  V30 6261 H 582.506 -3.3996 2.69462 0
M  V30 6262 H 583.177 -4.99604 2.34735 0
M  V30 6263 H 585.653 -4.11225 0.635103 0
M  V30 6264 H 584.529 -5.47469 0.396132 0
M  V30 6265 H 584.79 -4.32683 -0.907625 0
M  V30 6266 N 583.85 -0.624285 -1.44708 0
M  V30 6267 C 584.8 0.106466 -2.27751 0
M  V30 6268 C 585.784 0.822703 -1.38277 0
M  V30 6269 O 586.976 0.709939 -1.62138 0
M  V30 6270 C 584.105 1.092 -3.25469 0
M  V30 6271 C 583.191 0.375737 -4.22432 0
M  V30 6272 N 583.582 -0.591881 -5.02325 0
M  V30 6273 C 581.88 0.621093 -4.41654 0
M  V30 6274 C 582.581 -1.01443 -5.72786 0
M  V30 6275 N 581.557 -0.354651 -5.42442 0
M  V30 6276 H 585.359 -0.636464 -2.86926 0
M  V30 6277 H 582.873 -0.44925 -1.56062 0
M  V30 6278 H 584.87 1.63006 -3.83712 0
M  V30 6279 H 583.529 1.8353 -2.67856 0
M  V30 6280 H 584.541 -0.969389 -5.08747 0
M  V30 6281 H 581.218 1.34779 -3.95147 0
M  V30 6282 H 582.608 -1.81345 -6.46965 0
M  V30 6283 N 585.328 1.53329 -0.364422 0
M  V30 6284 C 586.739 1.86345 0.115039 0
M  V30 6285 C 587.09 1.28505 1.4826 0
M  V30 6286 O 586.215 0.606639 2.07723 0
M  V30 6287 C 586.81 3.38114 0.215522 0
M  V30 6288 C 585.369 3.70932 0.639237 0
M  V30 6289 C 584.516 2.76471 -0.214261 0
M  V30 6290 H 587.467 1.47593 -0.583258 0
M  V30 6291 H 587.488 3.66031 1.0393 0
M  V30 6292 H 587 3.80182 -0.779948 0
M  V30 6293 H 585.101 3.3442 1.64298 0
M  V30 6294 H 585.214 4.77302 0.41465 0
M  V30 6295 H 583.578 2.52724 0.316678 0
M  V30 6296 H 584.361 3.21373 -1.20725 0
M  V30 6297 N 586.806 0.0935595 1.57322 0
M  V30 6298 C 587.716 -0.880192 2.17462 0
M  V30 6299 C 588.732 -1.31135 1.14366 0
M  V30 6300 O 589.908 -1.37958 1.46729 0
M  V30 6301 C 586.973 -2.12184 2.74188 0
M  V30 6302 C 586.034 -1.74503 3.92234 0
M  V30 6303 C 585.267 -2.92748 4.46245 0
M  V30 6304 O 585.49 -4.07427 3.99198 0
M  V30 6305 O 584.424 -2.71303 5.37288 0
M  V30 6306 H 588.25 -0.398516 3.01074 0
M  V30 6307 H 585.835 -0.130707 1.48827 0
M  V30 6308 H 587.717 -2.84953 3.10451 0
M  V30 6309 H 586.392 -2.59407 1.93623 0
M  V30 6310 H 585.299 -0.989186 3.60785 0
M  V30 6311 H 586.632 -1.32044 4.74157 0
M  V30 6312 N 588.284 -1.56567 -0.180126 0
M  V30 6313 C 589.532 -1.81133 -0.896392 0
M  V30 6314 C 589.853 -0.669114 -1.83161 0
M  V30 6315 O 589.123 0.311616 -1.93406 0
M  V30 6316 H 587.703 -0.668172 -0.333999 0
M  V30 6317 H 590.365 -1.94048 -0.182051 0
M  V30 6318 H 589.461 -2.74854 -1.47857 0
M  V30 6319 N 589.762 0.448376 -1.51087 0
M  V30 6320 C 590.694 1.56146 -1.67783 0
M  V30 6321 C 591.707 1.52913 -0.55871 0
M  V30 6322 O 592.896 1.57889 -0.83267 0
M  V30 6323 C 589.996 2.95057 -1.66716 0
M  V30 6324 C 589.169 3.22915 -2.95033 0
M  V30 6325 C 588.228 4.41495 -2.86302 0
M  V30 6326 O 587.254 4.40688 -3.60254 0
M  V30 6327 N 588.456 5.44443 -2.014 0
M  V30 6328 H 591.221 1.42232 -2.638 0
M  V30 6329 H 588.782 0.637153 -1.48835 0
M  V30 6330 H 590.774 3.72388 -1.58458 0
M  V30 6331 H 589.344 3.02624 -0.783403 0
M  V30 6332 H 588.564 2.33985 -3.17245 0
M  V30 6333 H 589.852 3.38349 -3.79996 0
M  V30 6334 H 589.25 5.4793 -1.40674 0
M  V30 6335 H 587.807 6.2067 -1.99029 0
M  V30 6336 N 591.24 1.41047 0.703093 0
M  V30 6337 C 592.172 1.38228 1.82827 0
M  V30 6338 C 593.185 0.285637 1.60275 0
M  V30 6339 O 594.374 0.54685 1.69917 0
M  V30 6340 C 591.474 1.13136 3.19458 0
M  V30 6341 C 590.647 2.34695 3.69103 0
M  V30 6342 C 589.706 2.05574 4.84382 0
M  V30 6343 O 588.732 2.78549 4.96386 0
M  V30 6344 N 589.934 1.04135 5.71083 0
M  V30 6345 H 592.699 2.35203 1.85741 0
M  V30 6346 H 590.26 1.35562 0.885125 0
M  V30 6347 H 592.252 0.916183 3.94193 0
M  V30 6348 H 590.822 0.247836 3.11616 0
M  V30 6349 H 590.042 2.71963 2.85359 0
M  V30 6350 H 591.33 3.15705 3.99009 0
M  V30 6351 H 590.728 0.43722 5.64008 0
M  V30 6352 H 589.285 0.886078 6.45749 0
M  V30 6353 N 592.718 -0.936591 1.26751 0
M  V30 6354 C 593.648 -2.05315 1.11212 0
M  V30 6355 C 594.629 -1.70092 0.0160262 0
M  V30 6356 O 595.814 -1.93279 0.188894 0
M  V30 6357 C 592.944 -3.39123 0.749171 0
M  V30 6358 C 591.898 -3.88425 1.79751 0
M  V30 6359 C 591.224 -5.18936 1.28876 0
M  V30 6360 C 592.524 -4.12798 3.19992 0
M  V30 6361 H 594.218 -2.18573 2.04613 0
M  V30 6362 H 591.764 -1.05027 0.985159 0
M  V30 6363 H 593.717 -4.16704 0.627323 0
M  V30 6364 H 592.441 -3.25855 -0.220543 0
M  V30 6365 H 591.1 -3.13028 1.90811 0
M  V30 6366 H 590.748 -5.02051 0.308757 0
M  V30 6367 H 590.448 -5.52892 1.98958 0
M  V30 6368 H 591.972 -5.99096 1.17967 0
M  V30 6369 H 593.386 -4.80977 3.11983 0
M  V30 6370 H 591.783 -4.58044 3.87705 0
M  V30 6371 H 592.853 -3.18412 3.65707 0
M  V30 6372 N 594.196 -1.08629 -1.14182 0
M  V30 6373 C 595.126 -0.740003 -2.21464 0
M  V30 6374 C 596.107 0.278591 -1.67803 0
M  V30 6375 O 597.292 0.148461 -1.93632 0
M  V30 6376 C 594.422 -0.150952 -3.46972 0
M  V30 6377 C 593.376 -1.09815 -4.13672 0
M  V30 6378 C 592.702 -0.3712 -5.3341 0
M  V30 6379 C 594.002 -2.43722 -4.61949 0
M  V30 6380 H 595.696 -1.63697 -2.50686 0
M  V30 6381 H 593.242 -0.788526 -1.20492 0
M  V30 6382 H 595.195 0.103325 -4.21273 0
M  V30 6383 H 593.919 0.781164 -3.1712 0
M  V30 6384 H 592.578 -1.33756 -3.41328 0
M  V30 6385 H 592.226 0.564792 -4.99819 0
M  V30 6386 H 591.926 -1.00267 -5.78982 0
M  V30 6387 H 593.45 -0.12503 -6.10472 0
M  V30 6388 H 594.864 -2.24034 -5.27714 0
M  V30 6389 H 593.261 -3.02582 -5.18232 0
M  V30 6390 H 594.331 -3.05082 -3.76899 0
M  V30 6391 N 595.674 1.31259 -0.872281 0
M  V30 6392 C 596.922 1.96233 -0.483409 0
M  V30 6393 C 597.243 1.69276 0.968012 0
M  V30 6394 O 596.513 1.00943 1.67891 0
M  V30 6395 H 595.093 0.726025 -0.175774 0
M  V30 6396 H 597.755 1.60024 -1.11258 0
M  V30 6397 H 596.851 3.05403 -0.643075 0
M  V30 6398 N 597.152 0.631951 1.44375 0
M  V30 6399 C 598.085 -0.121822 2.27875 0
M  V30 6400 C 599.063 -0.850457 1.38586 0
M  V30 6401 O 600.247 -0.854378 1.68026 0
M  V30 6402 C 597.374 -1.17859 3.17533 0
M  V30 6403 C 596.42 -0.550391 4.22934 0
M  V30 6404 S 597.253 0.660145 5.31415 0
M  V30 6405 C 598.409 -0.396613 6.24642 0
M  V30 6406 H 598.642 0.586537 2.91457 0
M  V30 6407 H 596.175 0.420146 1.48574 0
M  V30 6408 H 598.133 -1.78335 3.69739 0
M  V30 6409 H 596.794 -1.85915 2.53169 0
M  V30 6410 H 595.987 -1.34631 4.85685 0
M  V30 6411 H 595.589 -0.0202306 3.73995 0
M  V30 6412 H 597.881 -1.26893 6.65511 0
M  V30 6413 H 598.824 0.195345 7.0783 0
M  V30 6414 H 599.232 -0.72288 5.59852 0
M  V30 6415 N 598.631 -1.53133 0.372548 0
M  V30 6416 C 599.581 -2.22733 -0.487218 0
M  V30 6417 C 600.565 -1.22506 -1.04312 0
M  V30 6418 O 601.757 -1.47923 -0.972005 0
M  V30 6419 C 598.886 -3.02524 -1.62278 0
M  V30 6420 C 597.972 -4.10133 -1.07943 0
M  V30 6421 N 598.363 -5.05133 -0.259629 0
M  V30 6422 C 596.661 -4.24964 -1.35356 0
M  V30 6423 C 597.362 -5.81687 0.0386656 0
M  V30 6424 N 596.338 -5.40699 -0.560827 0
M  V30 6425 H 600.14 -2.93538 0.145853 0
M  V30 6426 H 597.654 -1.61389 0.180938 0
M  V30 6427 H 599.651 -3.50909 -2.25096 0
M  V30 6428 H 598.311 -2.33252 -2.25884 0
M  V30 6429 H 599.322 -5.178 0.101746 0
M  V30 6430 H 595.999 -3.66919 -1.9919 0
M  V30 6431 H 597.389 -6.68224 0.701841 0
M  V30 6432 N 600.109 -0.101901 -1.5727 0
M  V30 6433 C 601.355 0.561027 -1.94885 0
M  V30 6434 C 601.688 1.6741 -0.984258 0
M  V30 6435 O 600.963 1.94491 -0.0184767 0
M  V30 6436 C 601.246 1.10982 -3.42571 0
M  V30 6437 C 601.099 0.00133418 -4.498 0
M  V30 6438 C 602.418 2.00608 -3.9172 0
M  V30 6439 H 599.537 0.202467 -0.708644 0
M  V30 6440 H 602.179 -0.173992 -1.89202 0
M  V30 6441 H 600.329 1.73621 -3.47546 0
M  V30 6442 H 602.001 -0.63322 -4.56933 0
M  V30 6443 H 600.244 -0.664143 -4.28686 0
M  V30 6444 H 600.915 0.426253 -5.50352 0
M  V30 6445 H 603.391 1.47864 -3.88941 0
M  V30 6446 H 602.267 2.3593 -4.95609 0
M  V30 6447 H 602.528 2.92608 -3.3141 0
M  V30 6448 N 601.587 1.56661 0.17182 0
M  V30 6449 C 602.833 1.82235 0.889845 0
M  V30 6450 C 603.166 0.679673 1.81918 0
M  V30 6451 O 602.441 -0.318404 1.91876 0
M  V30 6452 C 602.724 3.18195 1.68595 0
M  V30 6453 C 602.577 4.42989 0.779773 0
M  V30 6454 C 603.896 3.5109 2.65375 0
M  V30 6455 H 601.015 0.66291 0.322056 0
M  V30 6456 H 603.657 1.89358 0.15608 0
M  V30 6457 H 601.807 3.12253 2.3115 0
M  V30 6458 H 603.479 4.60997 0.16714 0
M  V30 6459 H 601.722 4.33711 0.0877964 0
M  V30 6460 H 602.393 5.3467 1.3723 0
M  V30 6461 H 604.869 3.57482 2.12946 0
M  V30 6462 H 603.745 4.47298 3.18144 0
M  V30 6463 H 604.006 2.75768 3.45549 0
M  V30 6464 N 603.065 -0.440357 1.51323 0
M  V30 6465 C 603.997 -1.55254 1.68609 0
M  V30 6466 C 605.01 -1.52614 0.566812 0
M  V30 6467 O 606.199 -1.57445 0.841032 0
M  V30 6468 C 603.299 -2.94169 1.68279 0
M  V30 6469 C 602.472 -3.21346 2.96742 0
M  V30 6470 C 601.531 -4.3997 2.8864 0
M  V30 6471 O 600.557 -4.38771 3.62586 0
M  V30 6472 N 601.759 -5.43367 2.04285 0
M  V30 6473 H 604.524 -1.40831 2.6455 0
M  V30 6474 H 602.085 -0.629251 1.49171 0
M  V30 6475 H 604.077 -3.71543 1.60431 0
M  V30 6476 H 602.647 -3.02205 0.799441 0
M  V30 6477 H 601.867 -2.32299 3.18482 0
M  V30 6478 H 603.155 -3.3633 3.81785 0
M  V30 6479 H 602.553 -5.47176 1.43578 0
M  V30 6480 H 601.11 -6.19605 2.02318 0
M  V30 6481 N 604.543 -1.41418 -0.695603 0
M  V30 6482 C 605.791 -1.40496 -1.45277 0
M  V30 6483 C 606.112 -0.0149538 -1.94994 0
M  V30 6484 O 605.382 0.9432 -1.71699 0
M  V30 6485 H 603.962 -0.517147 -0.539044 0
M  V30 6486 H 606.624 -1.76656 -0.823321 0
M  V30 6487 H 605.72 -2.09214 -2.31595 0
M  V30 6488 N 606.021 0.929856 -1.27246 0
M  V30 6489 C 607.432 1.49223 -1.12203 0
M  V30 6490 C 607.783 1.93989 0.293731 0
M  V30 6491 O 606.908 1.80978 1.18642 0
M  V30 6492 C 607.503 2.71198 -2.0307 0
M  V30 6493 C 606.062 3.23666 -1.92139 0
M  V30 6494 C 605.209 1.96409 -1.95752 0
M  V30 6495 H 608.16 0.744181 -1.4017 0
M  V30 6496 H 608.181 3.45905 -1.58524 0
M  V30 6497 H 607.693 2.38585 -3.06102 0
M  V30 6498 H 605.794 3.61042 -0.920834 0
M  V30 6499 H 605.907 3.90006 -2.78267 0
M  V30 6500 H 604.271 2.12806 -1.39949 0
M  V30 6501 H 605.054 1.66113 -3.00436 0
M  V30 6502 N 607.499 1.09233 1.13605 0
M  V30 6503 C 608.431 0.687794 2.18637 0
M  V30 6504 C 609.444 -0.26936 1.60556 0
M  V30 6505 O 610.633 -0.0557162 1.78413 0
M  V30 6506 C 607.733 -0.00751901 3.38899 0
M  V30 6507 C 606.906 0.97067 4.26494 0
M  V30 6508 C 605.965 0.309129 5.25291 0
M  V30 6509 O 604.991 0.956149 5.61112 0
M  V30 6510 N 606.193 -0.937555 5.72879 0
M  V30 6511 H 608.958 1.59141 2.53957 0
M  V30 6512 H 606.519 0.979515 1.28907 0
M  V30 6513 H 608.511 -0.461238 4.02063 0
M  V30 6514 H 607.081 -0.813353 3.01833 0
M  V30 6515 H 606.301 1.603 3.60135 0
M  V30 6516 H 607.589 1.63323 4.81875 0
M  V30 6517 H 606.987 -1.48281 5.4592 0
M  V30 6518 H 605.544 -1.33463 6.3799 0
M  V30 6519 N 608.977 -1.30795 0.87923 0
M  V30 6520 C 610.223 -1.96653 0.495519 0
M  V30 6521 C 610.556 -1.69282 -0.951703 0
M  V30 6522 O 609.831 -0.994374 -1.6716 0
M  V30 6523 C 610.114 -3.51898 0.764174 0
M  V30 6524 C 609.967 -3.88808 2.2616 0
M  V30 6525 C 611.286 -4.39462 0.236825 0
M  V30 6526 H 608.405 -0.7143 0.181507 0
M  V30 6527 H 611.047 -1.54765 1.10217 0
M  V30 6528 H 609.197 -3.87709 0.247841 0
M  V30 6529 H 610.869 -3.63051 2.8459 0
M  V30 6530 H 609.112 -3.37082 2.73053 0
M  V30 6531 H 609.783 -4.97086 2.4002 0
M  V30 6532 H 612.259 -4.10528 0.678683 0
M  V30 6533 H 611.135 -5.47018 0.454176 0
M  V30 6534 H 611.396 -4.33621 -0.861683 0
M  V30 6535 N 610.455 -0.639598 -1.44038 0
M  V30 6536 C 611.871 -0.305953 -1.5664 0
M  V30 6537 C 612.071 1.19055 -1.62567 0
M  V30 6538 O 611.127 1.97492 -1.57331 0
M  V30 6539 C 612.44 -1.00533 -2.83397 0
M  V30 6540 C 613.988 -0.984278 -2.97121 0
M  V30 6541 C 614.463 -1.66428 -4.26691 0
M  V30 6542 N 615.954 -1.63127 -4.33525 0
M  V30 6543 C 616.689 -2.12629 -5.32519 0
M  V30 6544 N 616.185 -2.70359 -6.3787 0
M  V30 6545 N 617.978 -2.03208 -5.24083 0
M  V30 6546 H 610.129 -1.6109 -1.38434 0
M  V30 6547 H 612.392 -0.676672 -0.663942 0
M  V30 6548 H 612.098 -2.06034 -2.85032 0
M  V30 6549 H 611.972 -0.548362 -3.73193 0
M  V30 6550 H 614.359 0.0622792 -2.95034 0
M  V30 6551 H 614.44 -1.47981 -2.08651 0
M  V30 6552 H 614.084 -2.71034 -4.29538 0
M  V30 6553 H 614.014 -1.14351 -5.14034 0
M  V30 6554 H 616.505 -1.20987 -3.58009 0
M  V30 6555 H 616.818 -3.05842 -7.09704 0
M  V30 6556 H 615.163 -2.74414 -6.38531 0
M  V30 6557 H 618.354 -1.57823 -4.40692 0
M  V30 6558 H 618.527 -2.42097 -6.01077 0
M  V30 6559 N 611.933 1.52934 -0.380664 0
M  V30 6560 C 612.865 2.23822 0.493581 0
M  V30 6561 C 613.878 1.25761 1.03383 0
M  V30 6562 O 615.067 1.5189 0.937633 0
M  V30 6563 C 612.167 2.9342 1.69582 0
M  V30 6564 C 611.34 4.18115 1.28445 0
M  V30 6565 C 610.399 4.70788 2.35042 0
M  V30 6566 O 609.425 5.34093 1.96807 0
M  V30 6567 N 610.627 4.49899 3.66839 0
M  V30 6568 H 613.392 2.99484 -0.11371 0
M  V30 6569 H 610.953 1.60577 -0.206587 0
M  V30 6570 H 612.945 3.2556 2.40401 0
M  V30 6571 H 611.515 2.21119 2.20965 0
M  V30 6572 H 610.735 3.92109 0.405503 0
M  V30 6573 H 612.023 4.99152 0.986132 0
M  V30 6574 H 611.421 3.99349 4.0067 0
M  V30 6575 H 609.978 4.86551 4.33718 0
M  V30 6576 N 613.412 0.11024 1.57214 0
M  V30 6577 C 614.342 -0.840002 2.17867 0
M  V30 6578 C 615.323 -1.28352 1.11624 0
M  V30 6579 O 616.508 -1.3477 1.39824 0
M  V30 6580 C 613.638 -2.09349 2.77111 0
M  V30 6581 C 612.592 -1.78807 3.8886 0
M  V30 6582 C 611.918 -3.11112 4.34872 0
M  V30 6583 C 613.218 -1.0632 5.11364 0
M  V30 6584 H 614.912 -0.334608 2.97524 0
M  V30 6585 H 612.458 -0.159502 1.43114 0
M  V30 6586 H 614.411 -2.76275 3.18198 0
M  V30 6587 H 613.135 -2.62198 1.9473 0
M  V30 6588 H 611.794 -1.14273 3.48335 0
M  V30 6589 H 611.442 -3.61877 3.49362 0
M  V30 6590 H 611.142 -2.91453 5.10224 0
M  V30 6591 H 612.666 -3.79171 4.78604 0
M  V30 6592 H 614.08 -1.63383 5.49526 0
M  V30 6593 H 612.477 -0.967876 5.92243 0
M  V30 6594 H 613.547 -0.0484569 4.84876 0
M  V30 6595 N 614.89 -1.56749 -0.16351 0
M  V30 6596 C 615.8 -2.00255 -1.2221 0
M  V30 6597 C 616.816 -0.915194 -1.47987 0
M  V30 6598 O 617.992 -1.22342 -1.59982 0
M  V30 6599 C 615.057 -2.36035 -2.53946 0
M  V30 6600 C 614.118 -3.58637 -2.35962 0
M  V30 6601 C 613.351 -3.92701 -3.61416 0
M  V30 6602 O 613.574 -3.27632 -4.66919 0
M  V30 6603 O 612.508 -4.86019 -3.55062 0
M  V30 6604 H 616.334 -2.90586 -0.882794 0
M  V30 6605 H 613.919 -1.44721 -0.370978 0
M  V30 6606 H 615.801 -2.59982 -3.31643 0
M  V30 6607 H 614.476 -1.48863 -2.8744 0
M  V30 6608 H 613.383 -3.39898 -1.5627 0
M  V30 6609 H 614.716 -4.46374 -2.0739 0
M  V30 6610 N 616.368 0.432326 -1.51554 0
M  V30 6611 C 617.3 1.54357 -1.6943 0
M  V30 6612 C 618.313 1.52311 -0.574897 0
M  V30 6613 O 619.502 1.56997 -0.849369 0
M  V30 6614 C 616.602 2.93273 -1.69836 0
M  V30 6615 C 615.775 3.19768 -2.98442 0
M  V30 6616 C 614.834 4.38433 -2.90969 0
M  V30 6617 O 613.86 4.36842 -3.64908 0
M  V30 6618 N 615.062 5.42276 -2.07163 0
M  V30 6619 H 617.827 1.39426 -2.65293 0
M  V30 6620 H 615.388 0.621331 -1.49503 0
M  V30 6621 H 617.38 3.70687 -1.62399 0
M  V30 6622 H 615.95 3.01777 -0.815456 0
M  V30 6623 H 615.17 2.30607 -3.19709 0
M  V30 6624 H 616.458 3.343 -3.83563 0
M  V30 6625 H 615.856 5.46407 -1.46477 0
M  V30 6626 H 614.413 6.18524 -2.05601 0
M  V30 6627 N 617.846 1.41785 0.688094 0
M  V30 6628 C 618.778 1.40159 1.81351 0
M  V30 6629 C 619.791 0.30262 1.59963 0
M  V30 6630 O 620.98 0.564841 1.69327 0
M  V30 6631 C 618.08 1.16517 3.1824 0
M  V30 6632 C 617.253 2.38597 3.66593 0
M  V30 6633 C 616.312 2.10699 4.82174 0
M  V30 6634 O 615.338 2.83798 4.93404 0
M  V30 6635 N 616.54 1.10187 5.69947 0
M  V30 6636 H 619.305 2.3716 1.83236 0
M  V30 6637 H 616.866 1.36494 0.870697 0
M  V30 6638 H 618.858 0.957941 3.93199 0
M  V30 6639 H 617.428 0.280873 3.11336 0
M  V30 6640 H 616.648 2.74974 2.82459 0
M  V30 6641 H 617.936 3.19919 3.95638 0
M  V30 6642 H 617.334 0.497016 5.63512 0
M  V30 6643 H 615.891 0.954518 6.44773 0
M  V30 6644 N 619.324 -0.923095 1.27737 0
M  V30 6645 C 620.254 -2.04124 1.13383 0
M  V30 6646 C 621.235 -1.70066 0.0340658 0
M  V30 6647 O 622.42 -1.93068 0.209383 0
M  V30 6648 C 619.55 -3.3831 0.785097 0
M  V30 6649 C 618.504 -3.86496 1.8386 0
M  V30 6650 C 617.83 -5.1754 1.34373 0
M  V30 6651 C 619.13 -4.09381 3.24353 0
M  V30 6652 H 620.824 -2.1639 2.06919 0
M  V30 6653 H 618.37 -1.03976 0.996243 0
M  V30 6654 H 620.323 -4.16016 0.671485 0
M  V30 6655 H 619.047 -3.2607 -0.185969 0
M  V30 6656 H 617.706 -3.10987 1.9412 0
M  V30 6657 H 617.354 -5.01696 0.361989 0
M  V30 6658 H 617.054 -5.50751 2.04811 0
M  V30 6659 H 618.578 -5.97811 1.24315 0
M  V30 6660 H 619.992 -4.77641 3.17067 0
M  V30 6661 H 618.389 -4.53906 3.92542 0
M  V30 6662 H 619.459 -3.14515 3.69064 0
M  V30 6663 N 620.802 -1.09834 -1.13024 0
M  V30 6664 C 622.05 -0.835297 -1.8403 0
M  V30 6665 C 622.371 0.640944 -1.84165 0
M  V30 6666 O 621.641 1.46517 -1.30037 0
M  V30 6667 H 620.221 -0.306018 -0.681441 0
M  V30 6668 H 622.883 -1.38734 -1.36891 0
M  V30 6669 H 621.979 -1.19258 -2.88416 0
M  V30 6670 N 622.28 1.30327 -0.886154 0
M  V30 6671 C 623.19 2.31854 -0.357866 0
M  V30 6672 C 624.206 1.65392 0.540502 0
M  V30 6673 O 625.382 1.96683 0.433339 0
M  V30 6674 C 622.447 3.44171 0.417999 0
M  V30 6675 C 621.508 4.26257 -0.510263 0
M  V30 6676 C 620.741 5.3321 0.228669 0
M  V30 6677 O 620.964 5.51542 1.45458 0
M  V30 6678 O 619.898 6.0042 -0.421832 0
M  V30 6679 H 623.724 2.78995 -1.19982 0
M  V30 6680 H 621.309 1.34518 -0.650028 0
M  V30 6681 H 623.191 4.12588 0.857251 0
M  V30 6682 H 621.866 2.99164 1.23623 0
M  V30 6683 H 620.773 3.60533 -0.99835 0
M  V30 6684 H 622.106 4.74871 -1.29454 0
M  V30 6685 N 623.758 0.647228 1.43697 0
M  V30 6686 C 624.721 -0.0385101 2.29168 0
M  V30 6687 C 625.721 -0.756487 1.41894 0
M  V30 6688 O 626.911 -0.598641 1.63591 0
M  V30 6689 C 624.043 -1.06524 3.23829 0
M  V30 6690 H 625.236 0.713445 2.9129 0
M  V30 6691 H 622.789 0.408153 1.50877 0
M  V30 6692 H 623.524 -1.84664 2.66589 0
M  V30 6693 H 623.309 -0.554147 3.88164 0
M  V30 6694 H 624.799 -1.54432 3.87996 0
M  V30 6695 N 625.236 -1.5273 0.388769 0
M  V30 6696 C 626.484 -2.01174 -0.193208 0
M  V30 6697 C 626.805 -1.27705 -1.47365 0
M  V30 6698 O 626.075 -0.396966 -1.91836 0
M  V30 6699 H 624.655 -0.743287 -0.0743871 0
M  V30 6700 H 627.317 -1.87826 0.520336 0
M  V30 6701 H 626.413 -3.09477 -0.403803 0
M  V30 6702 N 626.714 -0.118576 -1.57153 0
M  V30 6703 C 627.939 0.550582 -1.99958 0
M  V30 6704 C 628.364 1.59458 -0.997736 0
M  V30 6705 O 627.722 1.81274 0.0306269 0
M  V30 6706 C 627.77 1.15379 -3.41643 0
M  V30 6707 O 626.874 2.26932 -3.44348 0
M  V30 6708 H 626.215 0.137567 -0.649593 0
M  V30 6709 H 628.745 -0.206926 -2.03551 0
M  V30 6710 H 628.755 1.48942 -3.79843 0
M  V30 6711 H 627.43 0.389087 -4.14076 0
M  V30 6712 H 626.007 1.94812 -3.17967 0
M  V30 6713 N 628.193 1.56834 0.155195 0
M  V30 6714 C 629.123 2.00678 1.19376 0
M  V30 6715 C 630.104 0.884973 1.45266 0
M  V30 6716 O 631.289 1.1522 1.56326 0
M  V30 6717 C 628.419 2.38042 2.5289 0
M  V30 6718 C 627.373 3.53332 2.41538 0
M  V30 6719 C 626.699 3.76485 3.79688 0
M  V30 6720 C 627.999 4.86265 1.9064 0
M  V30 6721 H 629.693 2.87688 0.829232 0
M  V30 6722 H 627.239 1.38407 0.397445 0
M  V30 6723 H 629.192 2.67314 3.25763 0
M  V30 6724 H 627.916 1.4796 2.91162 0
M  V30 6725 H 626.575 3.24213 1.71117 0
M  V30 6726 H 626.223 2.83667 4.15382 0
M  V30 6727 H 625.923 4.54068 3.72956 0
M  V30 6728 H 627.447 4.08174 4.54122 0
M  V30 6729 H 628.861 5.14308 2.53299 0
M  V30 6730 H 627.258 5.67597 1.94818 0
M  V30 6731 H 628.328 4.77184 0.861596 0
M  V30 6732 N 629.671 -0.424282 1.51781 0
M  V30 6733 C 630.603 -1.53457 1.70246 0
M  V30 6734 C 631.616 -1.52004 0.582967 0
M  V30 6735 O 632.805 -1.56544 0.857683 0
M  V30 6736 C 629.905 -2.92368 1.71389 0
M  V30 6737 C 629.078 -3.1818 3.00133 0
M  V30 6738 C 628.137 -4.36884 2.9329 0
M  V30 6739 O 627.163 -4.34901 3.67219 0
M  V30 6740 N 628.365 -5.4117 2.10036 0
M  V30 6741 H 631.13 -1.38017 2.66029 0
M  V30 6742 H 628.691 -0.613394 1.4983 0
M  V30 6743 H 630.683 -3.6982 1.64362 0
M  V30 6744 H 629.253 -3.0134 0.831449 0
M  V30 6745 H 628.473 -2.28908 3.20928 0
M  V30 6746 H 629.761 -3.32261 3.85331 0
M  V30 6747 H 629.159 -5.45623 1.49373 0
M  V30 6748 H 627.716 -6.17425 2.08878 0
M  V30 6749 N 631.149 -1.42148 -0.680565 0
M  V30 6750 C 632.397 -1.42029 -1.43779 0
M  V30 6751 C 632.718 -0.0356347 -1.94967 0
M  V30 6752 O 631.988 0.924936 -1.7269 0
M  V30 6753 H 630.568 -0.522835 -0.533529 0
M  V30 6754 H 633.23 -1.7752 -0.804538 0
M  V30 6755 H 632.326 -2.11658 -2.29363 0
M  V30 6756 N 632.627 0.916307 -1.28225 0
M  V30 6757 C 634.038 1.48024 -1.13779 0
M  V30 6758 C 634.389 1.94289 0.273139 0
M  V30 6759 O 633.514 1.82226 1.16716 0
M  V30 6760 C 634.109 2.69029 -2.05935 0
M  V30 6761 C 632.668 3.2161 -1.95561 0
M  V30 6762 C 631.815 1.94321 -1.97825 0
M  V30 6763 H 634.766 0.729272 -1.40951 0
M  V30 6764 H 634.787 3.44204 -1.62184 0
M  V30 6765 H 634.299 2.35325 -3.08616 0
M  V30 6766 H 632.4 3.60045 -0.959076 0
M  V30 6767 H 632.513 3.87032 -2.82388 0
M  V30 6768 H 630.877 2.1131 -1.42198 0
M  V30 6769 H 631.66 1.62917 -3.0218 0
M  V30 6770 N 634.105 1.10431 1.1244 0
M  V30 6771 C 635.351 0.847972 1.84221 0
M  V30 6772 C 635.684 -0.624903 1.83871 0
M  V30 6773 O 634.959 -1.46074 1.28423 0
M  V30 6774 C 635.242 1.39695 3.319 0
M  V30 6775 C 635.095 2.93668 3.40704 0
M  V30 6776 C 636.414 1.03924 4.27654 0
M  V30 6777 H 633.533 0.309502 0.668863 0
M  V30 6778 H 636.175 1.36745 1.31912 0
M  V30 6779 H 634.325 0.955095 3.76577 0
M  V30 6780 H 635.997 3.46379 3.04662 0
M  V30 6781 H 634.24 3.30272 2.81252 0
M  V30 6782 H 634.911 3.27162 4.446 0
M  V30 6783 H 637.387 1.42049 3.91102 0
M  V30 6784 H 636.263 1.45027 5.29394 0
M  V30 6785 H 636.524 -0.051336 4.4207 0
M  V30 6786 N 635.583 -1.29855 0.893053 0
M  V30 6787 C 636.513 -2.3035 0.382249 0
M  V30 6788 C 637.494 -1.61328 -0.539203 0
M  V30 6789 O 638.679 -1.88882 -0.451342 0
M  V30 6790 C 635.809 -3.45024 -0.396983 0
M  V30 6791 C 634.763 -4.258 0.433437 0
M  V30 6792 C 634.089 -5.32605 -0.472889 0
M  V30 6793 C 635.389 -4.94549 1.67984 0
M  V30 6794 H 637.083 -2.73325 1.22205 0
M  V30 6795 H 634.629 -1.314 0.589073 0
M  V30 6796 H 636.582 -4.14398 -0.765024 0
M  V30 6797 H 635.306 -3.00875 -1.2705 0
M  V30 6798 H 633.965 -3.58125 0.783723 0
M  V30 6799 H 633.613 -4.84702 -1.34435 0
M  V30 6800 H 633.313 -5.87547 0.0789958 0
M  V30 6801 H 634.837 -6.04832 -0.837269 0
M  V30 6802 H 636.251 -5.56395 1.38192 0
M  V30 6803 H 634.648 -5.59393 2.17254 0
M  V30 6804 H 635.718 -4.20215 2.41965 0
M  V30 6805 N 637.061 -0.65484 -1.43351 0
M  V30 6806 C 637.993 0.0744757 -2.29079 0
M  V30 6807 C 639.006 0.7855 -1.42596 0
M  V30 6808 O 640.195 0.642986 -1.66517 0
M  V30 6809 C 637.295 1.12859 -3.19556 0
M  V30 6810 C 636.468 0.495381 -4.34586 0
M  V30 6811 C 635.527 1.44659 -5.05925 0
M  V30 6812 O 634.553 0.954567 -5.61139 0
M  V30 6813 N 635.755 2.78051 -5.09576 0
M  V30 6814 H 638.52 -0.661346 -2.92312 0
M  V30 6815 H 636.081 -0.497744 -1.54059 0
M  V30 6816 H 638.073 1.76577 -3.64147 0
M  V30 6817 H 636.643 1.76636 -2.57912 0
M  V30 6818 H 635.863 -0.32092 -3.92892 0
M  V30 6819 H 637.151 0.0534203 -5.08772 0
M  V30 6820 H 636.549 3.20584 -4.66093 0
M  V30 6821 H 635.106 3.37068 -5.57878 0
M  V30 6822 N 638.539 1.52521 -0.396863 0
M  V30 6823 C 639.489 2.2348 0.451722 0
M  V30 6824 C 640.473 1.2415 1.0235 0
M  V30 6825 O 641.665 1.4945 0.948348 0
M  V30 6826 C 638.794 3.05067 1.57445 0
M  V30 6827 C 637.88 4.11799 1.01404 0
M  V30 6828 N 638.271 5.05482 0.179234 0
M  V30 6829 C 636.569 4.27064 1.28578 0
M  V30 6830 C 637.27 5.81552 -0.131202 0
M  V30 6831 N 636.246 5.41523 0.474735 0
M  V30 6832 H 640.048 2.93269 -0.192534 0
M  V30 6833 H 637.562 1.61081 -0.206591 0
M  V30 6834 H 639.559 3.54446 2.19485 0
M  V30 6835 H 638.219 2.36816 2.22145 0
M  V30 6836 H 639.23 5.17573 -0.18411 0
M  V30 6837 H 635.907 3.70042 1.93327 0
M  V30 6838 H 637.297 6.67023 -0.808061 0
M  V30 6839 N 640.017 0.126909 1.57088 0
M  V30 6840 C 640.949 -0.850973 2.12817 0
M  V30 6841 C 641.962 -1.22457 1.07276 0
M  V30 6842 O 643.151 -1.17215 1.34622 0
M  V30 6843 C 640.251 -2.15039 2.61938 0
M  V30 6844 C 639.424 -1.94726 3.91664 0
M  V30 6845 C 638.483 -3.0847 4.26301 0
M  V30 6846 O 637.509 -2.81038 4.94981 0
M  V30 6847 N 638.711 -4.35116 3.84259 0
M  V30 6848 H 641.476 -0.3748 2.97347 0
M  V30 6849 H 639.037 -0.0572793 1.61799 0
M  V30 6850 H 641.029 -2.90141 2.82135 0
M  V30 6851 H 639.599 -2.5398 1.82244 0
M  V30 6852 H 638.819 -1.03772 3.80296 0
M  V30 6853 H 640.107 -1.78469 4.76473 0
M  V30 6854 H 639.505 -4.60276 3.2888 0
M  V30 6855 H 638.062 -5.07064 4.09548 0
M  V30 6856 N 641.495 -1.56914 -0.146875 0
M  V30 6857 C 642.72 -1.87881 -0.878386 0
M  V30 6858 C 643.145 -0.715945 -1.73942 0
M  V30 6859 O 642.503 0.334447 -1.78189 0
M  V30 6860 C 642.551 -3.17431 -1.71084 0
M  V30 6861 O 641.655 -3.01374 -2.81509 0
M  V30 6862 H 640.996 -0.617289 -0.244644 0
M  V30 6863 H 643.526 -2.04136 -0.137654 0
M  V30 6864 H 643.536 -3.49455 -2.10582 0
M  V30 6865 H 642.211 -4.01671 -1.07856 0
M  V30 6866 H 640.788 -2.80758 -2.45416 0
M  V30 6867 N 642.974 0.416227 -1.52004 0
M  V30 6868 C 644.385 0.995319 -1.57957 0
M  V30 6869 C 644.736 1.91744 -0.415754 0
M  V30 6870 O 643.861 2.11349 0.464808 0
M  V30 6871 C 644.456 1.81191 -2.86278 0
M  V30 6872 C 643.015 2.34115 -2.94732 0
M  V30 6873 C 642.162 1.139 -2.52828 0
M  V30 6874 H 645.113 0.196716 -1.57476 0
M  V30 6875 H 645.134 2.66859 -2.71231 0
M  V30 6876 H 644.646 1.14051 -3.70963 0
M  V30 6877 H 642.747 3.04647 -2.14525 0
M  V30 6878 H 642.86 2.65466 -3.98829 0
M  V30 6879 H 641.224 1.49081 -2.06511 0
M  V30 6880 H 642.007 0.483383 -3.3988 0
M  V30 6881 N 644.452 1.42507 0.673017 0
M  V30 6882 C 645.399 1.46124 1.78651 0
M  V30 6883 C 646.369 0.313007 1.63124 0
M  V30 6884 O 647.554 0.517337 1.83653 0
M  V30 6885 C 644.694 1.3711 3.16694 0
M  V30 6886 C 643.807 2.61983 3.43495 0
M  V30 6887 C 642.942 2.45098 4.71275 0
M  V30 6888 C 641.981 3.65336 4.91117 0
M  V30 6889 N 641.118 3.47383 6.10139 0
M  V30 6890 H 645.958 2.4128 1.74895 0
M  V30 6891 H 643.495 1.19788 0.853766 0
M  V30 6892 H 645.453 1.29881 3.96468 0
M  V30 6893 H 644.083 0.45549 3.1957 0
M  V30 6894 H 643.135 2.79571 2.57961 0
M  V30 6895 H 644.447 3.51355 3.5405 0
M  V30 6896 H 643.601 2.35466 5.59143 0
M  V30 6897 H 642.34 1.53219 4.63007 0
M  V30 6898 H 641.345 3.754 4.0169 0
M  V30 6899 H 642.57 4.58199 5.01229 0
M  V30 6900 H 640.516 2.58222 6.0304 0
M  V30 6901 H 640.433 4.30344 6.21563 0
M  V30 6902 H 641.701 3.41565 7.00681 0
M  V30 6903 N 645.93 -0.909495 1.28709 0
M  V30 6904 C 647.155 -1.69801 1.1909 0
M  V30 6905 C 647.58 -1.86479 -0.246388 0
M  V30 6906 O 646.938 -1.37802 -1.17815 0
M  V30 6907 C 646.986 -3.06543 1.89904 0
M  V30 6908 O 646.09 -3.94268 1.2094 0
M  V30 6909 H 645.431 -0.519783 0.413185 0
M  V30 6910 H 647.961 -1.13689 1.70106 0
M  V30 6911 H 647.971 -3.56748 1.97977 0
M  V30 6912 H 646.646 -2.93722 2.94449 0
M  V30 6913 H 645.223 -3.52702 1.2106 0
M  V30 6914 N 647.408 -1.11026 -1.11852 0
M  V30 6915 C 648.819 -0.873203 -1.65021 0
M  V30 6916 C 649.17 0.595364 -1.86949 0
M  V30 6917 O 648.295 1.45645 -1.60051 0
M  V30 6918 C 648.89 -1.57859 -2.99777 0
M  V30 6919 C 647.449 -1.38807 -3.49871 0
M  V30 6920 C 646.596 -1.62403 -2.24768 0
M  V30 6921 H 649.547 -1.26712 -0.955503 0
M  V30 6922 H 649.568 -1.02111 -3.66543 0
M  V30 6923 H 649.08 -2.6474 -2.83786 0
M  V30 6924 H 647.181 -0.341163 -3.71035 0
M  V30 6925 H 647.294 -2.13421 -4.28938 0
M  V30 6926 H 645.658 -1.04714 -2.32179 0
M  V30 6927 H 646.441 -2.70549 -2.11324 0
M  V30 6928 N 648.886 1.2938 -0.899927 0
M  V30 6929 C 649.818 2.26737 -0.335139 0
M  V30 6930 C 650.831 1.54316 0.518681 0
M  V30 6931 O 652.02 1.75313 0.335803 0
M  V30 6932 C 649.12 3.34558 0.540774 0
M  V30 6933 C 648.293 4.36455 -0.287372 0
M  V30 6934 C 647.352 5.2361 0.52141 0
M  V30 6935 O 646.378 5.69167 -0.0611735 0
M  V30 6936 N 647.58 5.50985 1.82745 0
M  V30 6937 H 650.345 2.75838 -1.17191 0
M  V30 6938 H 647.906 1.42716 -0.764438 0
M  V30 6939 H 649.898 3.89794 1.08825 0
M  V30 6940 H 648.468 2.85272 1.27823 0
M  V30 6941 H 647.688 3.80875 -1.01626 0
M  V30 6942 H 648.976 5.01573 -0.854518 0
M  V30 6943 H 648.374 5.15781 2.32349 0
M  V30 6944 H 646.931 6.09036 2.32204 0
M  V30 6945 N 650.364 0.662433 1.43002 0
M  V30 6946 C 651.296 -0.062326 2.29115 0
M  V30 6947 C 652.309 -0.777926 1.43011 0
M  V30 6948 O 653.498 -0.634146 1.66856 0
M  V30 6949 C 650.598 -1.11163 3.2015 0
M  V30 6950 C 649.771 -0.472327 4.34842 0
M  V30 6951 C 648.83 -1.41974 5.06685 0
M  V30 6952 O 647.856 -0.924795 5.61637 0
M  V30 6953 N 649.058 -2.75345 5.11043 0
M  V30 6954 H 651.823 0.676838 2.91957 0
M  V30 6955 H 649.384 0.505907 1.53793 0
M  V30 6956 H 651.376 -1.74643 3.65078 0
M  V30 6957 H 649.946 -1.75266 2.58845 0
M  V30 6958 H 649.166 0.341751 3.92716 0
M  V30 6959 H 650.454 -0.0264381 5.08793 0
M  V30 6960 H 649.852 -3.18108 4.67786 0
M  V30 6961 H 648.409 -3.34105 5.59658 0
M  V30 6962 N 651.842 -1.52309 0.404946 0
M  V30 6963 C 653.258 -1.59503 0.0556255 0
M  V30 6964 C 653.458 -1.41805 -1.43156 0
M  V30 6965 O 652.514 -1.2429 -2.19792 0
M  V30 6966 C 653.827 -2.95687 0.546801 0
M  V30 6967 C 655.375 -3.08909 0.504413 0
M  V30 6968 C 655.85 -4.47566 0.97203 0
M  V30 6969 N 657.341 -4.53795 0.928679 0
M  V30 6970 C 658.076 -5.59346 1.26174 0
M  V30 6971 N 657.572 -6.72469 1.66604 0
M  V30 6972 N 659.365 -5.49532 1.18198 0
M  V30 6973 H 651.516 -1.6206 1.37296 0
M  V30 6974 H 653.779 -0.762161 0.563751 0
M  V30 6975 H 653.485 -3.13905 1.58609 0
M  V30 6976 H 653.359 -3.77172 -0.0457905 0
M  V30 6977 H 655.746 -2.90378 -0.525819 0
M  V30 6978 H 655.827 -2.2934 1.13301 0
M  V30 6979 H 655.471 -4.6684 2.00057 0
M  V30 6980 H 655.401 -5.25625 0.320292 0
M  V30 6981 H 657.892 -3.72588 0.631369 0
M  V30 6982 H 658.205 -7.48993 1.9034 0
M  V30 6983 H 656.55 -6.73761 1.70504 0
M  V30 6984 H 659.741 -4.60038 0.865011 0
M  V30 6985 H 659.914 -6.31687 1.44485 0
M  V30 6986 N 653.32 -0.135238 -1.57019 0
M  V30 6987 C 654.25 0.805235 -2.19176 0
M  V30 6988 C 655.231 1.2656 -1.13651 0
M  V30 6989 O 656.416 1.32528 -1.4195 0
M  V30 6990 C 653.546 2.04914 -2.80406 0
M  V30 6991 C 652.5 1.72598 -3.91655 0
M  V30 6992 C 651.826 3.04154 -4.39766 0
M  V30 6993 C 653.126 0.981709 -5.12991 0
M  V30 6994 H 654.82 0.287232 -2.98019 0
M  V30 6995 H 652.366 0.136714 -1.4335 0
M  V30 6996 H 654.319 2.71178 -3.22553 0
M  V30 6997 H 653.043 2.59067 -1.98877 0
M  V30 6998 H 651.702 1.08717 -3.50109 0
M  V30 6999 H 651.35 3.56274 -3.55075 0
M  V30 7000 H 651.05 2.83299 -5.14796 0
M  V30 7001 H 652.574 3.71509 -4.84576 0
M  V30 7002 H 653.988 1.5462 -5.52056 0
M  V30 7003 H 652.385 0.873533 -5.93708 0
M  V30 7004 H 653.455 -0.0286887 -4.84892 0
M  V30 7005 N 654.798 1.5699 0.138552 0
M  V30 7006 C 655.728 2.01933 1.17241 0
M  V30 7007 C 656.709 0.90033 1.44319 0
M  V30 7008 O 657.894 1.16872 1.55095 0
M  V30 7009 C 655.024 2.40711 2.50351 0
M  V30 7010 C 653.978 3.55874 2.37776 0
M  V30 7011 C 653.304 3.80491 3.75674 0
M  V30 7012 C 654.604 4.8826 1.85472 0
M  V30 7013 H 656.298 2.88551 0.798672 0
M  V30 7014 H 653.844 1.3882 0.382743 0
M  V30 7015 H 655.797 2.70754 3.22909 0
M  V30 7016 H 654.521 1.5104 2.89576 0
M  V30 7017 H 653.18 3.2601 1.67669 0
M  V30 7018 H 652.828 2.88057 4.12349 0
M  V30 7019 H 652.528 4.57998 3.68119 0
M  V30 7020 H 654.052 4.12967 4.49767 0
M  V30 7021 H 655.466 5.16965 2.4783 0
M  V30 7022 H 653.863 5.69631 1.88787 0
M  V30 7023 H 654.933 4.78071 0.810935 0
M  V30 7024 N 656.276 -0.40816 1.52223 0
M  V30 7025 C 657.186 -1.52202 1.78526 0
M  V30 7026 C 658.202 -1.60546 0.670892 0
M  V30 7027 O 659.378 -1.77242 0.956404 0
M  V30 7028 C 656.443 -2.87928 1.93128 0
M  V30 7029 C 655.504 -2.89463 3.17033 0
M  V30 7030 C 654.737 -4.18715 3.30929 0
M  V30 7031 O 654.96 -5.12662 2.50067 0
M  V30 7032 O 653.894 -4.27125 4.24084 0
M  V30 7033 H 657.72 -1.32911 2.73072 0
M  V30 7034 H 655.305 -0.594112 1.37079 0
M  V30 7035 H 657.187 -3.68426 2.04549 0
M  V30 7036 H 655.862 -3.07285 1.01772 0
M  V30 7037 H 654.769 -2.07815 3.11069 0
M  V30 7038 H 656.102 -2.75055 4.08174 0
M  V30 7039 N 657.755 -1.42862 -0.66545 0
M  V30 7040 C 658.685 -1.49867 -1.79059 0
M  V30 7041 C 659.666 -0.354394 -1.66367 0
M  V30 7042 O 660.851 -0.569969 -1.85647 0
M  V30 7043 C 657.981 -1.40943 -3.17415 0
M  V30 7044 C 656.935 -2.53495 -3.44854 0
M  V30 7045 C 656.261 -2.29626 -4.82883 0
M  V30 7046 C 657.561 -3.95781 -3.40815 0
M  V30 7047 H 659.255 -2.44037 -1.73453 0
M  V30 7048 H 656.801 -1.17456 -0.833071 0
M  V30 7049 H 658.754 -1.4445 -3.95869 0
M  V30 7050 H 657.478 -0.432716 -3.23721 0
M  V30 7051 H 656.137 -2.4932 -2.68766 0
M  V30 7052 H 655.785 -1.30226 -4.8585 0
M  V30 7053 H 655.485 -3.05065 -5.02204 0
M  V30 7054 H 657.009 -2.34897 -5.63609 0
M  V30 7055 H 658.423 -4.01508 -4.09224 0
M  V30 7056 H 656.82 -4.71148 -3.71672 0
M  V30 7057 H 657.89 -4.21786 -2.39216 0
M  V30 7058 N 659.233 0.902656 -1.29189 0
M  V30 7059 C 660.163 2.02294 -1.16616 0
M  V30 7060 C 661.144 1.6999 -0.0611175 0
M  V30 7061 O 662.329 1.9271 -0.240072 0
M  V30 7062 C 659.459 3.37018 -0.83882 0
M  V30 7063 C 658.413 3.83522 -1.89986 0
M  V30 7064 C 657.739 5.15337 -1.42589 0
M  V30 7065 C 659.039 4.04169 -3.30824 0
M  V30 7066 H 660.733 2.13071 -2.10336 0
M  V30 7067 H 658.279 1.02378 -1.01266 0
M  V30 7068 H 660.232 4.14895 -0.737584 0
M  V30 7069 H 658.956 3.26325 0.134071 0
M  V30 7070 H 657.615 3.07859 -1.99043 0
M  V30 7071 H 657.263 5.01056 -0.441759 0
M  V30 7072 H 656.963 5.47423 -2.13547 0
M  V30 7073 H 658.487 5.95758 -1.3381 0
M  V30 7074 H 659.901 4.72537 -3.24626 0
M  V30 7075 H 658.298 4.47604 -3.99713 0
M  V30 7076 H 659.368 3.08604 -3.74021 0
M  V30 7077 N 660.711 1.11618 1.11262 0
M  V30 7078 C 661.661 0.745274 2.15475 0
M  V30 7079 C 662.645 -0.251585 1.58921 0
M  V30 7080 O 663.837 -0.0584093 1.76904 0
M  V30 7081 C 660.966 0.192128 3.42762 0
M  V30 7082 C 660.052 1.21676 4.0627 0
M  V30 7083 N 660.443 2.41158 4.44608 0
M  V30 7084 C 658.741 1.06013 4.33217 0
M  V30 7085 C 659.442 3.0652 4.94389 0
M  V30 7086 N 658.418 2.33994 4.9066 0
M  V30 7087 H 662.22 1.65462 2.42898 0
M  V30 7088 H 659.734 0.995695 1.28295 0
M  V30 7089 H 661.731 -0.0917339 4.16799 0
M  V30 7090 H 660.391 -0.711778 3.16802 0
M  V30 7091 H 661.402 2.786 4.3658 0
M  V30 7092 H 658.079 0.212809 4.16957 0
M  V30 7093 H 659.469 4.08225 5.33669 0
M  V30 7094 N 662.189 -1.289 0.906776 0
M  V30 7095 C 663.605 -1.47733 0.603902 0
M  V30 7096 C 663.805 -1.82568 -0.852702 0
M  V30 7097 O 662.861 -1.92642 -1.63234 0
M  V30 7098 C 664.174 -2.58522 1.53581 0
M  V30 7099 C 665.722 -2.72394 1.54177 0
M  V30 7100 C 666.197 -3.86318 2.46013 0
M  V30 7101 N 667.688 -3.93661 2.441 0
M  V30 7102 C 668.423 -4.81177 3.11859 0
M  V30 7103 N 667.919 -5.73333 3.88923 0
M  V30 7104 N 669.712 -4.74728 3.00981 0
M  V30 7105 H 661.863 -1.04567 1.84877 0
M  V30 7106 H 664.126 -0.520118 0.792579 0
M  V30 7107 H 663.832 -2.39667 2.57396 0
M  V30 7108 H 663.706 -3.55475 1.26165 0
M  V30 7109 H 666.093 -2.90641 0.511034 0
M  V30 7110 H 666.174 -1.75993 1.85634 0
M  V30 7111 H 665.818 -3.68826 3.49185 0
M  V30 7112 H 665.748 -4.82102 2.11862 0
M  V30 7113 H 668.239 -3.27751 1.88115 0
M  V30 7114 H 668.552 -6.36923 4.37663 0
M  V30 7115 H 666.897 -5.73196 3.93029 0
M  V30 7116 H 670.088 -4.01722 2.40286 0
M  V30 7117 H 670.261 -5.42719 3.54062 0
M  V30 7118 N 663.667 -0.670007 -1.42649 0
M  V30 7119 C 664.892 -0.196955 -2.06463 0
M  V30 7120 C 665.317 1.1352 -1.49983 0
M  V30 7121 O 664.675 1.705 -0.616397 0
M  V30 7122 C 664.723 -0.137381 -3.60338 0
M  V30 7123 O 663.827 0.895523 -4.02559 0
M  V30 7124 H 663.168 -0.102579 -0.656029 0
M  V30 7125 H 665.698 -0.917669 -1.82866 0
M  V30 7126 H 665.708 0.0403625 -4.0798 0
M  V30 7127 H 664.383 -1.10977 -4.0082 0
M  V30 7128 H 662.96 0.689209 -3.66476 0
M  V30 7129 N 665.145 1.52092 -0.413018 0
M  V30 7130 C 666.393 2.01456 0.161178 0
M  V30 7131 C 666.714 1.30034 1.45314 0
M  V30 7132 O 665.984 0.427435 1.9118 0
M  V30 7133 H 664.564 0.744376 0.0625526 0
M  V30 7134 H 667.226 1.86974 -0.550151 0
M  V30 7135 H 666.322 3.1008 0.354517 0
M  V30 7136 N 666.623 0.143563 1.56945 0
M  V30 7137 C 667.872 -0.50835 1.95189 0
M  V30 7138 C 668.185 -1.66239 1.03073 0
M  V30 7139 O 669.391 -2.3787 1.30882 0
M  V30 7140 C 667.847 -0.955735 3.46978 0
M  V30 7141 C 667.455 0.171183 4.47673 0
M  V30 7142 C 669.199 -1.57763 3.94095 0
M  V30 7143 C 667.106 -0.294279 5.90667 0
M  V30 7144 H 666.036 -0.193679 0.728701 0
M  V30 7145 H 668.687 0.227357 1.82086 0
M  V30 7146 H 667.069 -1.7466 3.55401 0
M  V30 7147 H 668.243 0.948049 4.50942 0
M  V30 7148 H 666.558 0.701273 4.10452 0
M  V30 7149 H 669.155 -1.93745 4.98364 0
M  V30 7150 H 669.498 -2.46531 3.35452 0
M  V30 7151 H 670.031 -0.851728 3.88575 0
M  V30 7152 H 666.77 0.557939 6.53121 0
M  V30 7153 H 666.29 -1.0371 5.90766 0
M  V30 7154 H 667.969 -0.747426 6.42668 0
M  V30 7155 N 668.101 -1.57061 -0.130224 0
M  V30 7156 C 669.031 -2.02552 -1.16168 0
M  V30 7157 C 670.012 -0.907971 -1.4384 0
M  V30 7158 O 671.197 -1.17693 -1.54473 0
M  V30 7159 C 668.327 -2.42035 -2.49071 0
M  V30 7160 C 667.281 -3.5713 -2.35886 0
M  V30 7161 C 666.607 -3.82478 -3.7365 0
M  V30 7162 C 667.907 -4.89236 -1.8288 0
M  V30 7163 H 669.601 -2.8897 -0.783359 0
M  V30 7164 H 667.147 -1.39021 -0.375376 0
M  V30 7165 H 669.1 -2.72462 -3.21469 0
M  V30 7166 H 667.824 -1.52573 -2.88771 0
M  V30 7167 H 666.483 -3.26895 -1.65938 0
M  V30 7168 H 666.131 -2.9024 -4.10816 0
M  V30 7169 H 665.831 -4.59944 -3.65685 0
M  V30 7170 H 667.355 -4.15347 -4.47571 0
M  V30 7171 H 668.769 -5.18272 -2.45085 0
M  V30 7172 H 667.166 -5.70624 -1.85763 0
M  V30 7173 H 668.236 -4.78494 -0.785571 0
M  V30 7174 N 669.579 0.400081 -1.52437 0
M  V30 7175 C 670.529 1.48734 -1.72807 0
M  V30 7176 C 671.513 1.50004 -0.582032 0
M  V30 7177 O 672.705 1.55828 -0.839449 0
M  V30 7178 C 669.834 2.86568 -1.89034 0
M  V30 7179 C 668.92 2.8991 -3.09537 0
M  V30 7180 N 669.311 2.62937 -4.32086 0
M  V30 7181 C 667.609 3.21078 -3.09556 0
M  V30 7182 C 668.31 2.73079 -5.13617 0
M  V30 7183 N 667.286 3.06342 -4.49061 0
M  V30 7184 H 671.088 1.26689 -2.65193 0
M  V30 7185 H 668.602 0.607902 -1.50593 0
M  V30 7186 H 670.599 3.64834 -2.01746 0
M  V30 7187 H 669.259 3.09604 -0.978547 0
M  V30 7188 H 670.27 2.37163 -4.60406 0
M  V30 7189 H 666.947 3.49651 -2.28146 0
M  V30 7190 H 668.337 2.55863 -6.21276 0
M  V30 7191 N 671.057 1.43213 0.657864 0
M  V30 7192 C 672.02 1.47687 1.75275 0
M  V30 7193 C 673.02 0.362179 1.56668 0
M  V30 7194 O 674.21 0.623734 1.62651 0
M  V30 7195 C 671.342 1.32497 3.14098 0
M  V30 7196 H 672.535 2.4519 1.7269 0
M  V30 7197 H 670.088 1.2991 0.869087 0
M  V30 7198 H 670.823 0.359831 3.22298 0
M  V30 7199 H 670.608 2.13299 3.29008 0
M  V30 7200 H 672.098 1.38549 3.93946 0
M  V30 7201 N 672.536 -0.895792 1.29666 0
M  V30 7202 C 673.952 -1.17726 1.07763 0
M  V30 7203 C 674.152 -2.00794 -0.168576 0
M  V30 7204 O 673.208 -2.37213 -0.865244 0
M  V30 7205 C 674.521 -1.89441 2.33522 0
M  V30 7206 C 676.069 -2.02251 2.3888 0
M  V30 7207 C 676.544 -2.77378 3.64452 0
M  V30 7208 N 678.035 -2.8493 3.65198 0
M  V30 7209 C 678.77 -3.43606 4.59045 0
M  V30 7210 N 678.266 -4.03417 5.63228 0
M  V30 7211 N 680.059 -3.41317 4.46608 0
M  V30 7212 H 672.21 -0.341652 2.09634 0
M  V30 7213 H 674.473 -0.213865 0.923561 0
M  V30 7214 H 674.179 -1.35842 3.24407 0
M  V30 7215 H 674.053 -2.89893 2.41334 0
M  V30 7216 H 676.44 -2.55025 1.4848 0
M  V30 7217 H 676.521 -1.0092 2.3505 0
M  V30 7218 H 676.165 -2.25279 4.55205 0
M  V30 7219 H 676.095 -3.79062 3.65541 0
M  V30 7220 H 678.586 -2.42453 2.89871 0
M  V30 7221 H 678.899 -4.46224 6.30955 0
M  V30 7222 H 677.244 -4.01868 5.67033 0
M  V30 7223 H 680.435 -2.93812 3.64407 0
M  V30 7224 H 680.608 -3.86751 5.1993 0
M  V30 7225 N 674.014 -1.12206 -1.10668 0
M  V30 7226 C 674.977 -0.790867 -2.15123 0
M  V30 7227 C 675.977 0.193618 -1.5963 0
M  V30 7228 O 677.167 -0.0318728 -1.74171 0
M  V30 7229 C 674.299 -0.174797 -3.40452 0
M  V30 7230 H 675.492 -1.7163 -2.45933 0
M  V30 7231 H 673.045 -0.924993 -1.2599 0
M  V30 7232 H 673.78 0.760478 -3.15257 0
M  V30 7233 H 673.565 -0.88358 -3.82015 0
M  V30 7234 H 675.055 0.0405162 -4.1758 0
M  V30 7235 N 675.492 1.28418 -0.913599 0
M  V30 7236 C 676.738 1.9527 -0.547484 0
M  V30 7237 C 677.071 1.71745 0.906486 0
M  V30 7238 O 676.346 1.03834 1.64465 0
M  V30 7239 C 676.629 3.49748 -0.857205 0
M  V30 7240 C 676.482 3.82675 -2.3639 0
M  V30 7241 C 677.801 4.3868 -0.353258 0
M  V30 7242 H 674.92 0.709236 -0.200381 0
M  V30 7243 H 677.562 1.51789 -1.14281 0
M  V30 7244 H 675.712 3.86915 -0.350548 0
M  V30 7245 H 677.384 3.55378 -2.94116 0
M  V30 7246 H 675.627 3.29724 -2.81894 0
M  V30 7247 H 676.298 4.90547 -2.53115 0
M  V30 7248 H 678.774 4.08584 -0.787288 0
M  V30 7249 H 677.65 5.45621 -0.599049 0
M  V30 7250 H 677.911 4.35753 0.746413 0
M  V30 7251 N 676.97 0.677563 1.42291 0
M  V30 7252 C 678.21 0.204894 2.0337 0
M  V30 7253 C 678.574 -1.16744 1.5243 0
M  V30 7254 O 679.775 -1.73492 2.05314 0
M  V30 7255 C 678.046 0.240742 3.56588 0
M  V30 7256 S 679.605 -0.16052 4.38506 0
M  V30 7257 H 676.423 0.0839932 0.706021 0
M  V30 7258 H 679.025 0.891332 1.73999 0
M  V30 7259 H 677.729 1.24184 3.91161 0
M  V30 7260 H 677.26 -0.465439 3.90637 0
M  V30 7261 H 679.275 -1.39315 4.76241 0
M  V30 7262 N 678.448 -1.51871 0.421078 0
M  V30 7263 C 679.696 -2.01539 -0.150492 0
M  V30 7264 C 680.017 -1.30803 -1.44623 0
M  V30 7265 O 679.287 -0.437568 -1.90951 0
M  V30 7266 H 677.867 -0.744698 -0.0586041 0
M  V30 7267 H 680.529 -1.8668 0.560059 0
M  V30 7268 H 679.625 -3.10264 -0.338068 0
M  V30 7269 N 679.926 -0.151884 -1.56866 0
M  V30 7270 C 680.836 0.798876 -2.20579 0
M  V30 7271 C 681.852 1.268 -1.19154 0
M  V30 7272 O 683.028 1.32418 -1.51748 0
M  V30 7273 C 680.093 2.01861 -2.81874 0
M  V30 7274 C 679.154 1.59825 -3.9844 0
M  V30 7275 C 678.387 2.75984 -4.56802 0
M  V30 7276 O 678.61 3.92331 -4.14044 0
M  V30 7277 O 677.544 2.51175 -5.46987 0
M  V30 7278 H 681.37 0.2865 -3.02346 0
M  V30 7279 H 678.955 0.0753806 -1.4921 0
M  V30 7280 H 680.837 2.73235 -3.20813 0
M  V30 7281 H 679.512 2.52042 -2.03117 0
M  V30 7282 H 678.419 0.854601 -3.64208 0
M  V30 7283 H 679.752 1.14355 -4.78731 0
M  V30 7284 N 681.404 1.57128 0.121893 0
M  V30 7285 C 682.681 1.75664 0.860327 0
M  V30 7286 C 683.061 0.726585 1.98202 0
M  V30 7287 O 682.409 -0.24999 2.27128 0
M  V30 7288 C 682.619 3.20571 1.37968 0
M  V30 7289 C 683.967 3.82988 1.83317 0
M  V30 7290 O 684.991 3.24156 1.47654 0
M  V30 7291 O 683.85 4.86393 2.49168 0
M  V30 7292 H 680.944 0.719153 0.408348 0
M  V30 7293 H 683.49 1.6937 0.105859 0
M  V30 7294 H 682.262 3.87056 0.57477 0
M  V30 7295 H 681.885 3.31392 2.19694 0
M  V30 7296 N 682.882 -0.391992 1.52647 0
M  V30 7297 C 684.159 -1.15136 1.58123 0
M  V30 7298 C 684.539 -2.07786 0.372597 0
M  V30 7299 O 683.887 -2.19374 -0.639304 0
M  V30 7300 C 684.097 -1.91367 2.91856 0
M  V30 7301 C 685.445 -2.46833 3.45483 0
M  V30 7302 O 686.469 -2.01527 2.9371 0
M  V30 7303 O 685.328 -3.29587 4.3593 0
M  V30 7304 H 682.422 -0.526649 0.637629 0
M  V30 7305 H 684.968 -0.397386 1.64982 0
M  V30 7306 H 683.74 -1.23597 3.71268 0
M  V30 7307 H 683.363 -2.73732 2.88369 0
M  V30 7308 N 684.36 -1.4356 -0.65026 0
M  V30 7309 C 685.585 -1.48995 -1.44275 0
M  V30 7310 C 686.01 -0.109954 -1.87778 0
M  V30 7311 O 685.368 0.896926 -1.57559 0
M  V30 7312 C 685.416 -2.44341 -2.65198 0
M  V30 7313 O 684.52 -1.93172 -3.6436 0
M  V30 7314 H 683.861 -0.503852 -0.432469 0
M  V30 7315 H 686.391 -1.88504 -0.795446 0
M  V30 7316 H 686.401 -2.61743 -3.12977 0
M  V30 7317 H 685.076 -3.44588 -2.32877 0
M  V30 7318 H 683.653 -1.85445 -3.23519 0
M  V30 7319 N 685.838 0.888903 -1.30139 0
M  V30 7320 C 687.063 1.67884 -1.21777 0
M  V30 7321 C 687.488 1.86848 0.216689 0
M  V30 7322 O 686.846 1.39659 1.15608 0
M  V30 7323 C 686.894 3.03483 -1.94757 0
M  V30 7324 O 685.998 3.92294 -1.27198 0
M  V30 7325 H 685.339 0.513144 -0.421402 0
M  V30 7326 H 687.869 1.10968 -1.71893 0
M  V30 7327 H 687.879 3.53553 -2.03627 0
M  V30 7328 H 686.554 2.89 -2.99085 0
M  V30 7329 H 685.131 3.50732 -1.26655 0
M  V30 7330 N 687.317 1.12792 1.10072 0
M  V30 7331 C 688.227 0.812369 2.20086 0
M  V30 7332 C 689.243 -0.200349 1.72843 0
M  V30 7333 O 690.419 -0.0330262 2.01373 0
M  V30 7334 C 687.484 0.275685 3.45602 0
M  V30 7335 C 686.545 1.34881 4.07561 0
M  V30 7336 C 685.778 0.837639 5.27086 0
M  V30 7337 O 686.001 -0.327224 5.69461 0
M  V30 7338 O 684.935 1.60894 5.79997 0
M  V30 7339 H 688.761 1.73133 2.49517 0
M  V30 7340 H 686.346 0.904863 1.18881 0
M  V30 7341 H 688.228 -0.0185375 4.21396 0
M  V30 7342 H 686.903 -0.615783 3.17789 0
M  V30 7343 H 685.81 1.69625 3.33434 0
M  V30 7344 H 687.143 2.21418 4.39585 0
M  V30 7345 N 688.795 -1.27931 0.920396 0
M  V30 7346 C 689.758 -2.25345 0.41858 0
M  V30 7347 C 690.758 -1.54116 -0.458798 0
M  V30 7348 O 691.948 -1.72235 -0.260912 0
M  V30 7349 C 689.08 -3.38556 -0.399104 0
M  V30 7350 H 690.273 -2.71251 1.27918 0
M  V30 7351 H 687.826 -1.39728 0.700406 0
M  V30 7352 H 688.561 -2.98021 -1.27882 0
M  V30 7353 H 688.346 -3.91426 0.229863 0
M  V30 7354 H 689.836 -4.10976 -0.740817 0
M  V30 7355 N 690.273 -0.685099 -1.4193 0
M  V30 7356 C 691.55 -0.140152 -1.95097 0
M  V30 7357 C 691.93 1.34745 -1.62502 0
M  V30 7358 O 691.278 2.08872 -0.926534 0
M  V30 7359 C 691.488 -0.420268 -3.4646 0
M  V30 7360 C 692.836 -0.342338 -4.23218 0
M  V30 7361 O 693.86 -0.354592 -3.54431 0
M  V30 7362 O 692.719 -0.293404 -5.45712 0
M  V30 7363 H 689.813 -0.00885998 -0.826953 0
M  V30 7364 H 692.359 -0.760539 -1.51703 0
M  V30 7365 H 691.131 -1.45037 -3.63428 0
M  V30 7366 H 690.754 0.231616 -3.96925 0
M  V30 7367 N 691.751 1.51645 -0.429126 0
M  V30 7368 C 692.976 2.06917 0.141399 0
M  V30 7369 C 693.401 1.29527 1.36398 0
M  V30 7370 O 692.759 0.33094 1.78254 0
M  V30 7371 C 692.807 3.57776 0.4504 0
M  V30 7372 O 691.911 3.82639 1.53821 0
M  V30 7373 H 691.252 0.663978 0.0054647 0
M  V30 7374 H 693.782 1.95355 -0.608093 0
M  V30 7375 H 693.792 4.01894 0.703249 0
M  V30 7376 H 692.467 4.13532 -0.443213 0
M  V30 7377 H 691.044 3.5039 1.27597 0
M  V30 7378 N 693.229 0.160201 1.56784 0
M  V30 7379 C 694.64 -0.358417 1.83227 0
M  V30 7380 C 694.991 -1.63831 1.07952 0
M  V30 7381 O 694.116 -2.13885 0.328995 0
M  V30 7382 C 694.711 -0.657058 3.32368 0
M  V30 7383 C 693.27 -1.12015 3.59346 0
M  V30 7384 C 692.417 -0.15015 2.76893 0
M  V30 7385 H 695.368 0.384669 1.53967 0
M  V30 7386 H 695.389 -1.51033 3.49241 0
M  V30 7387 H 694.901 0.274647 3.87127 0
M  V30 7388 H 693.002 -2.06734 3.09987 0
M  V30 7389 H 693.115 -1.037 4.67743 0
M  V30 7390 H 691.479 -0.645361 2.46388 0
M  V30 7391 H 692.262 0.775379 3.34429 0
M  V30 7392 N 694.707 -1.5719 -0.113559 0
M  V30 7393 C 695.932 -1.89702 -0.838336 0
M  V30 7394 C 696.357 -0.752679 -1.72384 0
M  V30 7395 O 695.715 0.296575 -1.78858 0
M  V30 7396 C 695.763 -3.20989 -1.64312 0
M  V30 7397 O 694.867 -3.07278 -2.75053 0
M  V30 7398 H 694.208 -0.622339 -0.231496 0
M  V30 7399 H 696.738 -2.04382 -0.0943228 0
M  V30 7400 H 696.748 -3.53843 -2.03123 0
M  V30 7401 H 695.423 -4.03869 -0.993119 0
M  V30 7402 H 694 -2.85901 -2.39406 0
M  V30 7403 N 696.185 0.383891 -1.52853 0
M  V30 7404 C 697.41 1.154 -1.7233 0
M  V30 7405 C 697.835 1.82809 -0.44298 0
M  V30 7406 O 697.193 1.71026 0.601645 0
M  V30 7407 C 697.241 2.17386 -2.87708 0
M  V30 7408 O 696.345 3.24082 -2.55038 0
M  V30 7409 H 695.686 0.335709 -0.572883 0
M  V30 7410 H 698.216 0.44662 -1.99666 0
M  V30 7411 H 698.226 2.61296 -3.1335 0
M  V30 7412 H 696.901 1.6771 -3.80587 0
M  V30 7413 H 695.478 2.85273 -2.40153 0
M  V30 7414 N 697.663 1.43903 0.642637 0
M  V30 7415 C 698.888 1.49758 1.43483 0
M  V30 7416 C 699.313 0.119911 1.87717 0
M  V30 7417 O 698.671 -0.888558 1.58033 0
M  V30 7418 C 698.719 2.45744 2.63898 0
M  V30 7419 O 697.823 1.95101 3.63331 0
M  V30 7420 H 697.164 0.506138 0.429791 0
M  V30 7421 H 699.694 1.88923 0.785438 0
M  V30 7422 H 699.704 2.63399 3.11584 0
M  V30 7423 H 698.379 3.45818 2.31046 0
M  V30 7424 H 696.956 1.87158 3.22531 0
M  V30 7425 N 699.141 -0.881989 1.30609 0
M  V30 7426 C 700.051 -2.02076 1.19174 0
M  V30 7427 C 701.067 -1.73645 0.11102 0
M  V30 7428 O 702.243 -1.98735 0.326528 0
M  V30 7429 C 699.308 -3.3515 0.887438 0
M  V30 7430 C 698.369 -3.76983 2.05383 0
M  V30 7431 C 697.602 -5.03707 1.76395 0
M  V30 7432 O 697.825 -5.66171 0.693302 0
M  V30 7433 O 696.759 -5.42019 2.61723 0
M  V30 7434 H 700.585 -2.14652 2.14845 0
M  V30 7435 H 698.17 -1.00843 1.10232 0
M  V30 7436 H 700.052 -4.14975 0.73306 0
M  V30 7437 H 698.727 -3.23676 -0.0393354 0
M  V30 7438 H 697.634 -2.97849 2.26355 0
M  V30 7439 H 698.967 -3.93066 2.96243 0
M  V30 7440 N 700.619 -1.13374 -1.09472 0
M  V30 7441 C 701.529 -0.824029 -2.19652 0
M  V30 7442 C 702.545 0.19118 -1.72947 0
M  V30 7443 O 703.721 0.0223464 -2.01388 0
M  V30 7444 C 700.786 -0.294009 -3.45451 0
M  V30 7445 C 699.847 -1.3704 -4.0684 0
M  V30 7446 C 699.08 -0.86558 -5.26634 0
M  V30 7447 O 699.303 0.29702 -5.69626 0
M  V30 7448 O 698.237 -1.63968 -5.79136 0
M  V30 7449 H 702.063 -1.74454 -2.48595 0
M  V30 7450 H 699.648 -0.911155 -1.18399 0
M  V30 7451 H 701.53 -0.00381039 -4.214 0
M  V30 7452 H 700.205 0.598921 -3.18111 0
M  V30 7453 H 699.112 -1.71391 -3.3253 0
M  V30 7454 H 700.445 -2.23746 -4.38405 0
M  V30 7455 N 702.098 1.27442 -0.927168 0
M  V30 7456 C 703.008 2.30599 -0.431448 0
M  V30 7457 C 704.024 1.67028 0.48761 0
M  V30 7458 O 705.2 1.97962 0.370546 0
M  V30 7459 C 702.265 3.45327 0.308292 0
M  V30 7460 C 701.326 4.24418 -0.645615 0
M  V30 7461 C 700.559 5.33667 0.0589164 0
M  V30 7462 O 700.782 5.5589 1.27838 0
M  V30 7463 O 699.716 5.98774 -0.612638 0
M  V30 7464 H 703.542 2.75036 -1.28797 0
M  V30 7465 H 701.127 1.32382 -0.692495 0
M  V30 7466 H 703.009 4.15107 0.725555 0
M  V30 7467 H 701.684 3.02945 1.14043 0
M  V30 7468 H 700.591 3.57174 -1.11255 0
M  V30 7469 H 701.924 4.70512 -1.44496 0
M  V30 7470 N 703.576 0.692616 1.41565 0
M  V30 7471 C 704.987 0.297478 1.84315 0
M  V30 7472 C 705.338 -1.16379 1.57957 0
M  V30 7473 O 704.463 -1.89303 1.0485 0
M  V30 7474 C 705.058 0.533136 3.34579 0
M  V30 7475 C 703.617 0.191944 3.7591 0
M  V30 7476 C 702.764 0.816873 2.64995 0
M  V30 7477 H 705.715 0.893488 1.31158 0
M  V30 7478 H 705.736 -0.209105 3.79925 0
M  V30 7479 H 705.248 1.59674 3.53731 0
M  V30 7480 H 703.349 -0.867512 3.6236 0
M  V30 7481 H 703.462 0.644902 4.7474 0
M  V30 7482 H 701.826 0.246715 2.53502 0
M  V30 7483 H 702.609 1.88429 2.86966 0
M  V30 7484 N 705.054 -1.51416 0.437162 0
M  V30 7485 C 705.964 -2.31493 -0.380537 0
M  V30 7486 C 706.98 -1.40399 -1.02782 0
M  V30 7487 O 708.156 -1.73471 -1.02323 0
M  V30 7488 C 705.221 -3.1413 -1.46709 0
M  V30 7489 C 704.282 -4.21003 -0.839953 0
M  V30 7490 C 703.515 -4.9969 -1.87473 0
M  V30 7491 O 703.738 -4.79008 -3.09689 0
M  V30 7492 O 702.672 -5.8379 -1.46536 0
M  V30 7493 H 706.498 -3.02469 0.273183 0
M  V30 7494 H 704.083 -1.48059 0.199706 0
M  V30 7495 H 705.965 -3.65505 -2.09724 0
M  V30 7496 H 704.64 -2.45919 -2.10489 0
M  V30 7497 H 703.547 -3.73706 -0.171752 0
M  V30 7498 H 704.88 -4.91587 -0.245638 0
M  V30 7499 N 706.532 -0.168513 -1.56696 0
M  V30 7500 C 707.778 0.477865 -1.9709 0
M  V30 7501 C 708.111 1.63084 -1.05438 0
M  V30 7502 O 707.386 1.94238 -0.10095 0
M  V30 7503 C 707.669 0.963521 -3.4697 0
M  V30 7504 C 707.522 -0.189443 -4.49401 0
M  V30 7505 C 708.841 1.83813 -3.99876 0
M  V30 7506 H 705.96 0.172229 -0.716593 0
M  V30 7507 H 708.602 -0.254083 -1.88293 0
M  V30 7508 H 706.752 1.58724 -3.54597 0
M  V30 7509 H 708.424 -0.826451 -4.53836 0
M  V30 7510 H 706.667 -0.845366 -4.25483 0
M  V30 7511 H 707.338 0.192446 -5.51664 0
M  V30 7512 H 709.814 1.31235 -3.94863 0
M  V30 7513 H 708.69 2.14697 -5.0517 0
M  V30 7514 H 708.951 2.78289 -3.43523 0
M  V30 7515 N 708.01 1.57248 0.105221 0
M  V30 7516 C 709.25 1.87393 0.816283 0
M  V30 7517 C 709.614 0.758249 1.76393 0
M  V30 7518 O 710.815 0.941835 2.5176 0
M  V30 7519 C 709.086 3.22775 1.53463 0
M  V30 7520 S 710.645 3.74588 2.28537 0
M  V30 7521 H 707.463 0.656847 0.272164 0
M  V30 7522 H 710.065 1.9536 0.073909 0
M  V30 7523 H 708.769 4.01905 0.830674 0
M  V30 7524 H 708.3 3.17921 2.3171 0
M  V30 7525 H 710.315 3.47193 3.54502 0
M  V30 7526 N 709.488 -0.375779 1.53054 0
M  V30 7527 C 710.398 -1.48381 1.81715 0
M  V30 7528 C 711.414 -1.59087 0.704795 0
M  V30 7529 O 712.59 -1.75174 0.993785 0
M  V30 7530 C 709.655 -2.83767 1.99192 0
M  V30 7531 C 708.716 -2.82673 3.23102 0
M  V30 7532 C 707.949 -4.11601 3.39736 0
M  V30 7533 O 708.172 -5.07243 2.60885 0
M  V30 7534 O 707.106 -4.18034 4.33049 0
M  V30 7535 H 710.932 -1.27089 2.7583 0
M  V30 7536 H 708.517 -0.564902 1.38308 0
M  V30 7537 H 710.399 -3.64004 2.12318 0
M  V30 7538 H 709.074 -3.05057 1.08267 0
M  V30 7539 H 707.981 -2.0117 3.15407 0
M  V30 7540 H 709.314 -2.66335 4.13916 0
M  V30 7541 N 710.966 -1.44241 -0.634997 0
M  V30 7542 C 712.243 -1.37296 -1.39317 0
M  V30 7543 C 712.623 -0.0297532 -2.11079 0
M  V30 7544 O 711.971 0.987524 -2.06059 0
M  V30 7545 C 712.181 -2.56853 -2.36279 0
M  V30 7546 C 713.529 -3.00747 -2.99728 0
M  V30 7547 O 714.553 -2.5703 -2.46605 0
M  V30 7548 O 713.412 -3.76533 -3.96087 0
M  V30 7549 H 710.506 -0.543503 -0.623325 0
M  V30 7550 H 713.052 -1.56324 -0.660376 0
M  V30 7551 H 711.824 -3.46228 -1.82324 0
M  V30 7552 H 711.447 -2.40019 -3.16981 0
M  V30 7553 N 712.444 0.87505 -1.31075 0
M  V30 7554 C 713.374 1.99775 -1.20881 0
M  V30 7555 C 714.355 1.69822 -0.0971612 0
M  V30 7556 O 715.54 1.92158 -0.280895 0
M  V30 7557 C 712.67 3.35163 -0.910118 0
M  V30 7558 C 711.624 3.79406 -1.98078 0
M  V30 7559 C 710.95 5.12197 -1.53488 0
M  V30 7560 C 712.25 3.97061 -3.39323 0
M  V30 7561 H 713.944 2.08562 -2.14808 0
M  V30 7562 H 711.49 1.00207 -1.03415 0
M  V30 7563 H 713.443 4.13237 -0.825423 0
M  V30 7564 H 712.167 3.26536 0.064822 0
M  V30 7565 H 710.826 3.03568 -2.05528 0
M  V30 7566 H 710.474 5.00007 -0.547941 0
M  V30 7567 H 710.174 5.4277 -2.2511 0
M  V30 7568 H 711.698 5.92785 -1.46417 0
M  V30 7569 H 713.112 4.65545 -3.34576 0
M  V30 7570 H 711.509 4.39025 -4.09118 0
M  V30 7571 H 712.579 3.00601 -3.80483 0
M  V30 7572 N 713.922 1.13953 1.08869 0
M  V30 7573 C 714.885 0.824991 2.13838 0
M  V30 7574 C 715.885 -0.168198 1.59918 0
M  V30 7575 O 717.075 0.0595778 1.74098 0
M  V30 7576 C 714.207 0.228938 3.4013 0
M  V30 7577 H 715.4 1.75521 2.43171 0
M  V30 7578 H 712.953 0.94492 1.24503 0
M  V30 7579 H 713.688 -0.710227 3.16427 0
M  V30 7580 H 713.473 0.944243 3.80561 0
M  V30 7581 H 714.963 0.0259223 4.17592 0
M  V30 7582 N 715.4 -1.26948 0.933913 0
M  V30 7583 C 716.648 -1.93704 0.576484 0
M  V30 7584 C 716.969 -1.73702 -0.886145 0
M  V30 7585 O 716.239 -1.08838 -1.62884 0
M  V30 7586 H 714.819 -0.716812 0.210214 0
M  V30 7587 H 717.481 -1.54534 1.18766 0
M  V30 7588 H 716.577 -3.01987 0.788055 0
M  V30 7589 N 716.879 -0.700114 -1.41195 0
M  V30 7590 C 717.827 -0.0263301 -2.32585 0
M  V30 7591 C 718.821 0.763683 -1.51209 0
M  V30 7592 O 720.027 0.668793 -1.67114 0
M  V30 7593 H 716.402 0.0102869 -0.75193 0
M  V30 7594 H 718.373 -0.814087 -2.8708 0
M  V30 7595 C 717.122 0.892793 -3.36042 0
M  V30 7596 H 716.445 0.294306 -3.98715 0
M  V30 7597 H 717.885 1.33247 -4.02518 0
M  V30 7598 C 716.344 2.01109 -2.7029 0
M  V30 7599 O 716.874 3.10035 -2.55423 0
M  V30 7600 N 715.08 1.79015 -2.28915 0
M  V30 7601 H 714.627 0.904275 -2.41207 0
M  V30 7602 H 714.585 2.54022 -1.85257 0
M  V30 7603 N 718.357 1.51182 -0.445186 0
M  V30 7604 C 719.32 2.26501 0.350722 0
M  V30 7605 C 720.32 1.3025 0.942952 0
M  V30 7606 O 721.51 1.53897 0.816175 0
M  V30 7607 C 718.642 3.06274 1.49697 0
M  V30 7608 H 719.835 2.98299 -0.309474 0
M  V30 7609 H 717.388 1.55034 -0.198551 0
M  V30 7610 H 718.123 2.38911 2.19299 0
M  V30 7611 H 717.908 3.76979 1.0784 0
M  V30 7612 H 719.398 3.63306 2.05909 0
M  V30 7613 N 719.835 0.176821 1.56605 0
M  V30 7614 C 720.798 -0.737429 2.17013 0
M  V30 7615 C 721.798 -1.15414 1.11965 0
M  V30 7616 O 722.988 -1.0702 1.37449 0
M  V30 7617 C 720.12 -2.00445 2.75744 0
M  V30 7618 H 721.313 -0.211455 2.99154 0
M  V30 7619 H 718.866 -0.0727582 1.56131 0
M  V30 7620 H 719.601 -2.57338 1.97352 0
M  V30 7621 H 719.386 -1.71456 3.52626 0
M  V30 7622 H 720.876 -2.65679 3.22187 0
M  V30 7623 N 721.313 -1.57302 -0.09688 0
M  V30 7624 C 722.538 -1.9058 -0.818169 0
M  V30 7625 C 722.963 -0.770921 -1.71576 0
M  V30 7626 O 722.321 0.277588 -1.79162 0
M  V30 7627 C 722.369 -3.22714 -1.60898 0
M  V30 7628 O 721.473 -3.10178 -2.71779 0
M  V30 7629 H 720.814 -0.624759 -0.224882 0
M  V30 7630 H 723.344 -2.04471 -0.07264 0
M  V30 7631 H 723.354 -3.55978 -1.99358 0
M  V30 7632 H 722.029 -4.04899 -0.950227 0
M  V30 7633 H 720.606 -2.88424 -2.3636 0
M  V30 7634 N 722.791 0.367657 -1.53252 0
M  V30 7635 C 724.202 0.944563 -1.61043 0
M  V30 7636 C 724.553 1.90325 -0.476546 0
M  V30 7637 O 723.678 2.12721 0.397333 0
M  V30 7638 C 724.273 1.71992 -2.91898 0
M  V30 7639 C 722.832 2.2462 -3.02031 0
M  V30 7640 C 721.979 1.05799 -2.56324 0
M  V30 7641 H 724.93 0.146516 -1.58022 0
M  V30 7642 H 724.951 2.58095 -2.79584 0
M  V30 7643 H 724.463 1.02192 -3.74404 0
M  V30 7644 H 722.564 2.97668 -2.24108 0
M  V30 7645 H 722.677 2.52644 -4.07073 0
M  V30 7646 H 721.041 1.42435 -2.1115 0
M  V30 7647 H 721.824 0.375008 -3.41246 0
M  V30 7648 O 724.308 1.53115 0.51363 0
M  V30 7649 H 724.999 1.54476 1.16863 0
M  V30 END ATOM
M  V30 BEGIN BOND
M  V30 END BOND
M  V30 END CTAB
M  END
$$$$
