drugbank_target|O95342 Bile salt export pump (DB00171; DB01016)
 OpenBabel12092119373D

  0  0  0     0  0            999 V3000
M  V30 BEGIN CTAB
M  V30 COUNTS 20626 20820 0 0 0
M  V30 BEGIN ATOM
M  V30 1 H -0.908 1.98254 -0.117106 0
M  V30 2 N 0 1.576 0 0
M  V30 3 C 0.933 2.03868 1.02534 0
M  V30 4 C 1.911 0.928543 1.3348 0
M  V30 5 O 3.095 1.19667 1.45644 0
M  V30 6 C 0.222 2.43627 2.35294 0
M  V30 7 C -0.732 3.65373 2.2001 0
M  V30 8 S 0.101 5.13292 1.52614 0
M  V30 9 C 1.257 5.56322 2.86805 0
M  V30 10 H 1.49 2.90518 0.631377 0
M  V30 11 H -0.977 1.52953 0.210867 0
M  V30 12 H 0.981 2.67203 3.11629 0
M  V30 13 H -0.358 1.57376 2.7183 0
M  V30 14 H -1.165 3.90944 3.18086 0
M  V30 15 H -1.563 3.418 1.51819 0
M  V30 16 H 0.729 5.58782 3.83104 0
M  V30 17 H 1.672 6.56266 2.65933 0
M  V30 18 H 2.08 4.83886 2.90714 0
M  V30 19 N 1.4781 -0.272755 1.55222 0
M  V30 20 C 2.7031 -1.02683 1.80197 0
M  V30 21 C 3.1281 -1.79142 0.573551 0
M  V30 22 O 2.4861 -1.74917 -0.476849 0
M  V30 23 C 2.5341 -1.9609 3.02624 0
M  V30 24 O 1.6381 -3.04863 2.77727 0
M  V30 25 H 0.9791 -0.293557 0.595584 0
M  V30 26 H 3.5091 -0.30159 2.02365 0
M  V30 27 H 3.5191 -2.38039 3.31363 0
M  V30 28 H 2.1941 -1.39851 3.91682 0
M  V30 29 H 0.7711 -2.67228 2.60084 0
M  V30 30 N 2.9562 -1.48159 -0.537278 0
M  V30 31 C 4.2332 -1.46291 -1.29839 0
M  V30 32 C 4.6132 -0.170613 -2.10409 0
M  V30 33 O 3.9612 0.847746 -2.12192 0
M  V30 34 C 4.1712 -2.72055 -2.18603 0
M  V30 35 C 5.5192 -3.20087 -2.7898 0
M  V30 36 O 6.5432 -2.72921 -2.28894 0
M  V30 37 O 5.4022 -4.02138 -3.70064 0
M  V30 38 H 2.4962 -0.583906 -0.585647 0
M  V30 39 H 5.0422 -1.60384 -0.554534 0
M  V30 40 H 3.8142 -3.57628 -1.58801 0
M  V30 41 H 3.4372 -2.60646 -3.00249 0
M  V30 42 N 4.4343 0.785586 -1.36625 0
M  V30 43 C 5.6593 1.57963 -1.34397 0
M  V30 44 C 6.0843 1.87964 0.071526 0
M  V30 45 O 5.4423 1.48182 1.0446 0
M  V30 46 C 5.4903 2.87511 -2.17646 0
M  V30 47 O 4.5943 3.81281 -1.57158 0
M  V30 48 H 3.9353 0.479014 -0.459828 0
M  V30 49 H 6.4653 0.973411 -1.79961 0
M  V30 50 H 6.4753 3.36745 -2.30362 0
M  V30 51 H 5.1503 2.65002 -3.20541 0
M  V30 52 H 3.7273 3.39885 -1.53403 0
M  V30 53 N 5.9124 1.20967 1.01018 0
M  V30 54 C 7.1584 1.02526 1.74975 0
M  V30 55 C 7.4914 -0.4408 1.89131 0
M  V30 56 O 6.7664 -1.32718 1.42184 0
M  V30 57 C 7.0494 1.71699 3.1653 0
M  V30 58 C 6.9024 3.25791 3.10129 0
M  V30 59 C 8.2214 1.45531 4.15342 0
M  V30 60 H 5.3404 0.373863 0.635134 0
M  V30 61 H 7.9824 1.49071 1.17805 0
M  V30 62 H 6.1324 1.32128 3.65341 0
M  V30 63 H 7.8044 3.74697 2.69072 0
M  V30 64 H 6.0474 3.56363 2.47362 0
M  V30 65 H 6.7184 3.69353 4.10222 0
M  V30 66 H 9.1944 1.79872 3.75213 0
M  V30 67 H 8.0704 1.96453 5.1254 0
M  V30 68 H 8.3314 0.384237 4.40427 0
M  V30 69 N 7.3905 -1.2043 1.01659 0
M  V30 70 C 8.6395 -1.89118 0.701237 0
M  V30 71 C 8.9525 -1.79705 -0.772358 0
M  V30 72 O 10.1585 -2.43528 -1.20026 0
M  V30 73 C 8.6145 -3.39168 1.20388 0
M  V30 74 C 8.2225 -3.57166 2.70438 0
M  V30 75 C 9.9665 -4.1341 0.963953 0
M  V30 76 C 7.8735 -5.01042 3.14183 0
M  V30 77 H 6.8035 -0.708267 0.2586 0
M  V30 78 H 9.4545 -1.36239 1.22927 0
M  V30 79 H 7.8365 -3.91369 0.603824 0
M  V30 80 H 9.0105 -3.15351 3.35992 0
M  V30 81 H 7.3255 -2.96294 2.92572 0
M  V30 82 H 9.9225 -5.19491 1.26621 0
M  V30 83 H 10.2655 -4.16181 -0.099578 0
M  V30 84 H 10.7985 -3.67309 1.52738 0
M  V30 85 H 7.5375 -5.03426 4.19812 0
M  V30 86 H 7.0575 -5.43668 2.53348 0
M  V30 87 H 8.7365 -5.69623 3.0682 0
M  V30 88 N 8.8686 -0.792821 -1.36206 0
M  V30 89 C 9.7986 -0.207853 -2.32573 0
M  V30 90 C 10.7796 0.659055 -1.56813 0
M  V30 91 O 11.9646 0.592176 -1.84951 0
M  V30 92 C 9.0946 0.655449 -3.41059 0
M  V30 93 C 8.0486 -0.111842 -4.27854 0
M  V30 94 C 7.3746 0.872274 -5.27537 0
M  V30 95 C 8.6746 -1.30299 -5.05786 0
M  V30 96 H 10.3686 -1.01294 -2.81744 0
M  V30 97 H 7.9146 -0.48854 -1.3546 0
M  V30 98 H 9.8676 1.07464 -4.07467 0
M  V30 99 H 8.5916 1.49328 -2.90463 0
M  V30 100 H 7.2506 -0.512053 -3.63006 0
M  V30 101 H 6.8986 1.70523 -4.73214 0
M  V30 102 H 6.5986 0.363291 -5.86476 0
M  V30 103 H 8.1226 1.28996 -5.96818 0
M  V30 104 H 9.5366 -0.959379 -5.65216 0
M  V30 105 H 7.9336 -1.7455 -5.74154 0
M  V30 106 H 9.0036 -2.09663 -4.37229 0
M  V30 107 N 10.3467 1.47872 -0.545128 0
M  V30 108 C 11.7627 1.5829 -0.204032 0
M  V30 109 C 11.9627 1.54529 1.29317 0
M  V30 110 O 11.0187 1.44232 2.07252 0
M  V30 111 C 12.3317 2.89304 -0.819987 0
M  V30 112 C 13.8797 3.02864 -0.790105 0
M  V30 113 C 14.3547 4.3656 -1.38491 0
M  V30 114 N 15.8457 4.43165 -1.34755 0
M  V30 115 C 16.5807 5.45153 -1.77753 0
M  V30 116 N 16.0767 6.54016 -2.2855 0
M  V30 117 N 17.8697 5.36125 -1.68897 0
M  V30 118 H 10.0207 1.4856 -1.51802 0
M  V30 119 H 12.2837 0.706305 -0.632327 0
M  V30 120 H 11.9897 2.97757 -1.87173 0
M  V30 121 H 11.8637 3.75957 -0.305915 0
M  V30 122 H 14.2507 2.94014 0.252913 0
M  V30 123 H 14.3317 2.17782 -1.34181 0
M  V30 124 H 13.9757 4.46164 -2.42693 0
M  V30 125 H 13.9057 5.20353 -0.808754 0
M  V30 126 H 16.3967 3.65083 -0.975855 0
M  V30 127 H 16.7097 7.27994 -2.59314 0
M  V30 128 H 15.0547 6.54938 -2.32553 0
M  V30 129 H 18.2457 4.49975 -1.28998 0
M  V30 130 H 18.4187 6.15472 -2.02726 0
M  V30 131 N 11.8248 0.280983 1.55075 0
M  V30 132 C 13.0498 -0.340154 2.04592 0
M  V30 133 C 13.4748 -1.48246 1.15779 0
M  V30 134 O 12.8328 -1.80614 0.15761 0
M  V30 135 C 12.8808 -0.793104 3.5177 0
M  V30 136 O 11.9848 -1.89981 3.66034 0
M  V30 137 H 11.3258 -0.0694289 0.66036 0
M  V30 138 H 13.8558 0.416993 2.00306 0
M  V30 139 H 13.8658 -1.08729 3.93245 0
M  V30 140 H 12.5408 0.0426163 4.15878 0
M  V30 141 H 11.1178 -1.60771 3.36463 0
M  V30 142 N 13.3029 -1.57598 0.00835791 0
M  V30 143 C 14.5519 -1.90107 -0.673968 0
M  V30 144 C 14.8649 -0.884275 -1.7447 0
M  V30 145 O 16.0709 -1.09987 -2.48224 0
M  V30 146 C 14.5269 -3.37497 -1.24995 0
M  V30 147 C 14.1349 -4.47491 -0.2136 0
M  V30 148 C 15.8789 -3.79104 -1.90999 0
M  V30 149 C 13.7859 -5.85963 -0.80005 0
M  V30 150 H 12.7159 -0.709393 -0.255495 0
M  V30 151 H 15.3669 -1.83365 0.0702693 0
M  V30 152 H 13.7489 -3.39102 -2.04513 0
M  V30 153 H 14.9229 -4.57414 0.557596 0
M  V30 154 H 13.2379 -4.14956 0.346474 0
M  V30 155 H 15.8349 -4.79901 -2.35795 0
M  V30 156 H 16.1779 -3.1306 -2.74407 0
M  V30 157 H 16.7109 -3.79833 -1.18203 0
M  V30 158 H 13.4499 -6.555 -0.00456708 0
M  V30 159 H 12.9699 -5.79687 -1.54021 0
M  V30 160 H 14.6489 -6.33884 -1.29615 0
M  V30 161 N 14.781 0.264519 -1.55364 0
M  V30 162 C 15.728 1.32717 -1.88825 0
M  V30 163 C 16.698 1.48675 -0.740605 0
M  V30 164 O 17.883 1.62945 -0.992657 0
M  V30 165 C 15.023 2.68089 -2.17307 0
M  V30 166 C 14.136 2.60284 -3.44785 0
M  V30 167 C 13.271 3.87892 -3.62924 0
M  V30 168 C 12.31 3.74631 -4.84064 0
M  V30 169 N 11.447 4.94092 -4.98816 0
M  V30 170 H 16.287 1.03481 -2.79456 0
M  V30 171 H 13.824 0.499757 -1.3835 0
M  V30 172 H 15.782 3.46864 -2.31821 0
M  V30 173 H 14.412 2.95509 -1.299 0
M  V30 174 H 13.464 1.73173 -3.38697 0
M  V30 175 H 14.776 2.46388 -4.33698 0
M  V30 176 H 13.93 4.75109 -3.77302 0
M  V30 177 H 12.669 4.04664 -2.7221 0
M  V30 178 H 11.674 2.85797 -4.69681 0
M  V30 179 H 12.899 3.5937 -5.76221 0
M  V30 180 H 10.845 5.11259 -4.11036 0
M  V30 181 H 10.762 4.8276 -5.81789 0
M  V30 182 H 12.03 5.82857 -5.17588 0
M  V30 183 N 16.2591 1.48442 0.529413 0
M  V30 184 C 17.2061 1.63007 1.63394 0
M  V30 185 C 18.1761 0.47212 1.59249 0
M  V30 186 O 19.3611 0.695673 1.77666 0
M  V30 187 C 16.5011 1.6763 3.01653 0
M  V30 188 C 15.6141 2.94535 3.16027 0
M  V30 189 C 14.7491 2.90316 4.44849 0
M  V30 190 C 13.7881 4.11923 4.52754 0
M  V30 191 N 12.9251 4.05777 5.72965 0
M  V30 192 H 17.7651 2.5733 1.50285 0
M  V30 193 H 15.3021 1.27613 0.731656 0
M  V30 194 H 17.2601 1.68292 3.81751 0
M  V30 195 H 15.8901 0.76797 3.13532 0
M  V30 196 H 14.9421 3.03615 2.29177 0
M  V30 197 H 16.2541 3.84512 3.17729 0
M  V30 198 H 15.4081 2.89382 5.33238 0
M  V30 199 H 14.1471 1.98068 4.45668 0
M  V30 200 H 13.1521 4.13131 3.62771 0
M  V30 201 H 14.3771 5.0533 4.53672 0
M  V30 202 H 12.3231 3.16351 5.74681 0
M  V30 203 H 12.2401 4.8946 5.76164 0
M  V30 204 H 13.5081 4.08904 6.6364 0
M  V30 205 N 17.7372 -0.778329 1.37039 0
M  V30 206 C 18.9842 -1.53665 1.31884 0
M  V30 207 C 19.3122 -1.9425 -0.0986303 0
M  V30 208 O 18.5672 -1.63832 -1.07041 0
M  V30 209 C 18.8662 -2.81845 2.19768 0
M  V30 210 C 18.5322 -2.60345 3.68146 0
M  V30 211 C 17.1942 -2.5419 4.08584 0
M  V30 212 C 19.5462 -2.40923 4.62175 0
M  V30 213 C 16.8742 -2.26594 5.41177 0
M  V30 214 C 19.2262 -2.14852 5.94997 0
M  V30 215 C 17.8902 -2.07137 6.34547 0
M  V30 216 H 17.1602 -0.562299 0.482598 0
M  V30 217 H 19.8072 -0.897069 1.69189 0
M  V30 218 H 18.1122 -3.50328 1.75436 0
M  V30 219 H 19.8092 -3.39692 2.13097 0
M  V30 220 H 16.3992 -2.65996 3.36072 0
M  V30 221 H 20.5832 -2.44673 4.31797 0
M  V30 222 H 15.8392 -2.19111 5.70789 0
M  V30 223 H 20.0132 -1.98822 6.67415 0
M  V30 224 H 17.6402 -1.85518 7.37216 0
M  V30 225 N 19.2153 -1.21501 -1.00376 0
M  V30 226 C 20.4633 -1.03095 -1.73827 0
M  V30 227 C 20.7843 0.436341 -1.90055 0
M  V30 228 O 20.0543 1.31466 -1.45236 0
M  V30 229 H 18.6343 -0.378487 -0.644016 0
M  V30 230 H 21.2963 -1.52831 -1.20949 0
M  V30 231 H 20.3923 -1.49991 -2.73695 0
M  V30 232 N 20.6934 1.19889 -1.02296 0
M  V30 233 C 21.6034 2.26571 -0.608508 0
M  V30 234 C 22.6194 1.70299 0.356964 0
M  V30 235 O 23.7954 2.00235 0.216326 0
M  V30 236 C 20.8604 3.46677 0.0402814 0
M  V30 237 C 19.9214 4.18153 -0.97194 0
M  V30 238 C 19.1544 5.32525 -0.354016 0
M  V30 239 O 19.3774 5.64112 0.844604 0
M  V30 240 O 18.3114 5.92242 -1.07391 0
M  V30 241 H 22.1374 2.64251 -1.49684 0
M  V30 242 H 19.7224 1.26629 -0.792809 0
M  V30 243 H 21.6044 4.19475 0.402324 0
M  V30 244 H 20.2794 3.10858 0.902707 0
M  V30 245 H 19.1864 3.47499 -1.38546 0
M  V30 246 H 20.5194 4.57927 -1.80454 0
M  V30 247 N 22.1715 0.800033 1.35784 0
M  V30 248 C 23.0815 0.207204 2.33683 0
M  V30 249 C 24.0975 -0.64631 1.61551 0
M  V30 250 O 25.2735 -0.559604 1.93469 0
M  V30 251 C 22.3385 -0.639659 3.40748 0
M  V30 252 C 21.3995 0.233585 4.28664 0
M  V30 253 C 20.6325 -0.572954 5.30616 0
M  V30 254 O 20.8555 -1.80816 5.40982 0
M  V30 255 O 19.7895 0.0327285 6.01891 0
M  V30 256 H 23.6155 1.01692 2.86169 0
M  V30 257 H 21.2005 0.561691 1.38439 0
M  V30 258 H 23.0825 -1.12223 4.06182 0
M  V30 259 H 21.7575 -1.42708 2.90544 0
M  V30 260 H 20.6645 0.763147 3.66233 0
M  V30 261 H 21.9975 0.984784 4.82248 0
M  V30 262 N 23.6496 -1.47581 0.552962 0
M  V30 263 C 24.5976 -2.31648 -0.21023 0
M  V30 264 C 25.5916 -1.42663 -0.913432 0
M  V30 265 O 26.7976 -1.5945 -0.835201 0
M  V30 266 H 23.1726 -0.746989 -0.0866676 0
M  V30 267 H 25.1436 -2.93869 0.518051 0
M  V30 268 C 23.8926 -3.25226 -1.22976 0
M  V30 269 H 23.2156 -3.93658 -0.698077 0
M  V30 270 H 24.6556 -3.86889 -1.73473 0
M  V30 271 C 23.1146 -2.48448 -2.27542 0
M  V30 272 O 23.6446 -2.22585 -3.34393 0
M  V30 273 N 21.8506 -2.09532 -2.01357 0
M  V30 274 H 21.3976 -2.30765 -1.14478 0
M  V30 275 H 21.3556 -1.58476 -2.71538 0
M  V30 276 N 25.1277 -0.289203 -1.54924 0
M  V30 277 C 26.4047 0.376032 -1.91951 0
M  V30 278 C 26.7847 1.72622 -1.21511 0
M  V30 279 O 26.1327 2.25853 -0.346767 0
M  V30 280 C 26.3427 0.502378 -3.45365 0
M  V30 281 C 27.6907 0.778741 -4.17398 0
M  V30 282 O 28.7147 0.586647 -3.51336 0
M  V30 283 O 27.5737 1.14698 -5.34328 0
M  V30 284 H 24.6677 0.208167 -0.800372 0
M  V30 285 H 27.2137 -0.336394 -1.66332 0
M  V30 286 H 25.9857 -0.447255 -3.88736 0
M  V30 287 H 25.6087 1.26373 -3.76982 0
M  V30 288 N 26.6058 1.57591 -0.0167156 0
M  V30 289 C 27.8538 1.90906 0.663285 0
M  V30 290 C 28.1748 0.892509 1.73376 0
M  V30 291 O 27.4448 -0.0677623 1.95783 0
M  V30 292 H 26.0248 0.704637 0.247983 0
M  V30 293 H 28.6868 1.94803 -0.0615909 0
M  V30 294 H 27.7828 2.9116 1.12393 0
M  V30 295 N 28.0839 -0.256276 1.55502 0
M  V30 296 C 29.3309 -0.985619 1.76895 0
M  V30 297 C 29.6589 -1.85671 0.579355 0
M  V30 298 O 28.9139 -1.90744 -0.437651 0
M  V30 299 C 29.2129 -1.88432 3.03691 0
M  V30 300 C 28.8789 -1.16936 4.35473 0
M  V30 301 C 27.5409 -0.97173 4.71286 0
M  V30 302 C 29.8929 -0.661889 5.1698 0
M  V30 303 C 27.2209 -0.254179 5.86149 0
M  V30 304 C 29.5729 0.042149 6.32586 0
M  V30 305 C 28.2369 0.25134 6.67027 0
M  V30 306 H 27.5069 -0.360663 0.647304 0
M  V30 307 H 30.1539 -0.256483 1.89775 0
M  V30 308 H 28.4589 -2.68021 2.85783 0
M  V30 309 H 30.1559 -2.45015 3.1744 0
M  V30 310 H 26.7459 -1.33332 4.07333 0
M  V30 311 H 30.9299 -0.802145 4.89775 0
M  V30 312 H 26.1859 -0.0815408 6.11346 0
M  V30 313 H 30.3599 0.443049 6.94989 0
M  V30 314 H 27.9869 0.809314 7.5588 0
M  V30 315 N 29.562 -1.4872 -0.521534 0
M  V30 316 C 30.472 -1.66569 -1.65203 0
M  V30 317 C 31.488 -0.548197 -1.65139 0
M  V30 318 O 32.664 -0.820339 -1.83936 0
M  V30 319 C 29.729 -1.70917 -3.01642 0
M  V30 320 C 28.79 -2.94356 -3.12495 0
M  V30 321 C 28.023 -2.98487 -4.42426 0
M  V30 322 O 28.246 -2.10786 -5.30024 0
M  V30 323 O 27.18 -3.90746 -4.57822 0
M  V30 324 H 31.006 -2.62298 -1.5308 0
M  V30 325 H 28.591 -1.3222 -0.695565 0
M  V30 326 H 30.473 -1.7625 -3.82771 0
M  V30 327 H 29.148 -0.783633 -3.14071 0
M  V30 328 H 28.055 -2.94552 -2.3063 0
M  V30 329 H 29.388 -3.86322 -3.04986 0
M  V30 330 N 31.0401 0.771051 -1.3745 0
M  V30 331 C 32.2651 1.56529 -1.36065 0
M  V30 332 C 32.6901 1.88029 0.0515859 0
M  V30 333 O 32.0481 1.49282 1.02882 0
M  V30 334 C 32.0961 2.85187 -2.20683 0
M  V30 335 O 31.2001 3.79593 -1.61193 0
M  V30 336 H 30.5411 0.47411 -0.464883 0
M  V30 337 H 33.0711 0.954269 -1.80983 0
M  V30 338 H 33.0811 3.34283 -2.33921 0
M  V30 339 H 31.7561 2.61588 -3.23334 0
M  V30 340 H 30.3331 3.38239 -1.56999 0
M  V30 341 N 32.5182 1.22032 0.997298 0
M  V30 342 C 33.7952 0.950823 1.70935 0
M  V30 343 C 34.1752 -0.535292 2.042 0
M  V30 344 O 33.5232 -1.50217 1.72183 0
M  V30 345 C 33.7332 1.84386 2.96315 0
M  V30 346 C 35.0812 2.09732 3.69185 0
M  V30 347 O 36.1052 1.81798 3.06314 0
M  V30 348 O 34.9642 2.57018 4.82291 0
M  V30 349 H 32.0582 0.357204 0.745878 0
M  V30 350 H 34.6042 1.32997 1.05404 0
M  V30 351 H 33.3762 2.84928 2.68201 0
M  V30 352 H 32.9992 1.46602 3.69586 0
M  V30 353 N 33.9963 -1.19345 1.0293 0
M  V30 354 C 34.9433 -2.2258 0.610464 0
M  V30 355 C 35.9133 -1.6179 -0.375946 0
M  V30 356 O 37.0983 -1.88844 -0.272511 0
M  V30 357 C 34.2383 -3.45085 -0.0321473 0
M  V30 358 C 33.3513 -4.20258 1.00035 0
M  V30 359 C 32.4863 -5.3019 0.32746 0
M  V30 360 C 31.5253 -5.97121 1.34584 0
M  V30 361 N 30.6623 -6.98615 0.698726 0
M  V30 362 H 35.5023 -2.57764 1.49538 0
M  V30 363 H 33.0393 -1.26644 0.748311 0
M  V30 364 H 34.9973 -4.15061 -0.421966 0
M  V30 365 H 33.6273 -3.10555 -0.88064 0
M  V30 366 H 32.6793 -3.49223 1.50823 0
M  V30 367 H 33.9913 -4.66175 1.77433 0
M  V30 368 H 33.1453 -6.06587 -0.11718 0
M  V30 369 H 31.8843 -4.85345 -0.478713 0
M  V30 370 H 30.8893 -5.19474 1.80074 0
M  V30 371 H 32.1143 -6.4405 2.15352 0
M  V30 372 H 30.0603 -6.55942 -0.0873471 0
M  V30 373 H 29.9773 -7.42724 1.41058 0
M  V30 374 H 31.2453 -7.79004 0.278102 0
M  V30 375 N 35.4744 -0.807222 -1.35358 0
M  V30 376 C 36.6994 -0.399309 -2.0352 0
M  V30 377 C 37.1244 0.981986 -1.60433 0
M  V30 378 O 36.4824 1.63601 -0.781299 0
M  V30 379 C 36.5304 -0.491552 -3.57234 0
M  V30 380 O 35.6344 0.494754 -4.09421 0
M  V30 381 H 34.9754 -0.166682 -0.642739 0
M  V30 382 H 37.5054 -1.09328 -1.72941 0
M  V30 383 H 37.5154 -0.361588 -4.06395 0
M  V30 384 H 36.1904 -1.49907 -3.87944 0
M  V30 385 H 34.7674 0.324977 -3.71481 0
M  V30 386 N 36.9525 1.47285 -0.560781 0
M  V30 387 C 38.1825 2.06555 -0.0429638 0
M  V30 388 C 38.5905 1.41339 1.25777 0
M  V30 389 O 37.9335 0.505182 1.76617 0
M  V30 390 C 37.9955 3.58827 0.219887 0
M  V30 391 C 37.6595 4.46105 -0.991944 0
M  V30 392 C 38.6565 4.84 -1.89843 0
M  V30 393 C 36.3415 4.87567 -1.20762 0
M  V30 394 C 38.3355 5.6216 -3.00425 0
M  V30 395 C 36.0225 5.65491 -2.31653 0
M  V30 396 C 37.0205 6.02699 -3.21315 0
M  V30 397 O 36.7085 6.79052 -4.30283 0
M  V30 398 H 36.4405 0.674537 -0.0444468 0
M  V30 399 H 38.9945 1.90225 -0.774818 0
M  V30 400 H 37.2245 3.73383 1.00609 0
M  V30 401 H 38.9135 4.00103 0.683522 0
M  V30 402 H 39.6795 4.52564 -1.74387 0
M  V30 403 H 35.5585 4.5807 -0.518893 0
M  V30 404 H 39.1025 5.9112 -3.70436 0
M  V30 405 H 34.9995 5.9634 -2.47081 0
M  V30 406 H 35.7675 6.9745 -4.28376 0
M  V30 407 N 38.4306 0.297415 1.54768 0
M  V30 408 C 39.3786 -0.596051 2.24833 0
M  V30 409 C 40.3726 -1.13992 1.25308 0
M  V30 410 O 41.5786 -1.09098 1.4317 0
M  V30 411 H 37.9536 -0.210814 0.721846 0
M  V30 412 H 39.9246 0.0174667 2.98395 0
M  V30 413 C 38.6736 -1.75818 2.99972 0
M  V30 414 H 37.9966 -1.3489 3.76357 0
M  V30 415 H 39.4366 -2.35949 3.52284 0
M  V30 416 C 37.8956 -2.66014 2.06732 0
M  V30 417 O 38.4256 -3.67009 1.63302 0
M  V30 418 N 36.6316 -2.33669 1.72763 0
M  V30 419 H 36.1786 -1.51586 2.08277 0
M  V30 420 H 36.1366 -2.94285 1.10652 0
M  V30 421 N 39.9087 -1.5758 0.0250728 0
M  V30 422 C 40.8567 -2.11125 -0.97617 0
M  V30 423 C 41.8507 -1.03689 -1.33959 0
M  V30 424 O 43.0567 -1.22128 -1.3223 0
M  V30 425 H 39.4317 -0.674468 -0.332561 0
M  V30 426 H 41.4027 -2.94194 -0.499223 0
M  V30 427 C 40.1517 -2.65017 -2.2508 0
M  V30 428 H 39.4747 -3.47333 -1.9799 0
M  V30 429 H 40.9147 -3.06133 -2.93357 0
M  V30 430 C 39.3737 -1.57574 -2.97779 0
M  V30 431 O 39.9037 -0.973203 -3.89733 0
M  V30 432 N 38.1097 -1.29716 -2.60043 0
M  V30 433 H 37.6567 -1.789 -1.85345 0
M  V30 434 H 37.6147 -0.58051 -3.08994 0
M  V30 435 N 41.3868 0.248026 -1.55636 0
M  V30 436 C 42.6638 0.998988 -1.68165 0
M  V30 437 C 43.0438 2.03409 -0.564621 0
M  V30 438 O 42.3918 2.24378 0.432076 0
M  V30 439 C 42.6018 1.63334 -3.0842 0
M  V30 440 C 43.9498 2.13562 -3.66983 0
M  V30 441 O 44.9738 1.73277 -3.11213 0
M  V30 442 O 43.8328 2.87526 -4.64749 0
M  V30 443 H 40.9268 0.464933 -0.683935 0
M  V30 444 H 43.4728 0.241902 -1.67967 0
M  V30 445 H 42.2448 0.884583 -3.8117 0
M  V30 446 H 41.8678 2.45666 -3.12624 0
M  V30 447 N 42.8649 1.48995 0.513639 0
M  V30 448 C 43.8119 1.6473 1.61656 0
M  V30 449 C 44.7819 0.488984 1.58739 0
M  V30 450 O 45.9669 0.714478 1.76918 0
M  V30 451 C 43.1069 1.7082 2.99858 0
M  V30 452 C 42.2199 2.9787 3.12885 0
M  V30 453 C 41.3549 2.95017 4.41744 0
M  V30 454 C 40.3939 4.16702 4.48359 0
M  V30 455 N 39.5309 4.11832 5.68629 0
M  V30 456 H 44.3709 2.58909 1.47547 0
M  V30 457 H 41.9079 1.28382 0.71808 0
M  V30 458 H 43.8659 1.72331 3.79944 0
M  V30 459 H 42.4959 0.801181 3.12699 0
M  V30 460 H 41.5479 3.06029 2.25944 0
M  V30 461 H 42.8599 3.8786 3.13633 0
M  V30 462 H 42.0139 2.95021 5.30139 0
M  V30 463 H 40.7529 2.02784 4.43542 0
M  V30 464 H 39.7579 4.16955 3.58369 0
M  V30 465 H 40.9829 5.10113 4.48287 0
M  V30 466 H 38.9289 3.22428 5.71293 0
M  V30 467 H 38.8459 4.95543 5.7094 0
M  V30 468 H 40.1139 4.1592 6.59266 0
M  V30 469 N 44.343 -0.763751 1.37857 0
M  V30 470 C 45.29 -1.87726 1.34267 0
M  V30 471 C 46.26 -1.64807 0.206879 0
M  V30 472 O 47.445 -1.86613 0.397508 0
M  V30 473 C 44.585 -3.24896 1.16346 0
M  V30 474 C 43.698 -3.59716 2.39225 0
M  V30 475 C 42.833 -4.86137 2.14114 0
M  V30 476 C 41.872 -5.13711 3.32817 0
M  V30 477 N 41.009 -6.31323 3.07206 0
M  V30 478 H 45.849 -1.90129 2.29466 0
M  V30 479 H 43.386 -0.929433 1.14017 0
M  V30 480 H 45.344 -4.04036 1.03975 0
M  V30 481 H 43.974 -3.21847 0.247909 0
M  V30 482 H 43.026 -2.75498 2.62307 0
M  V30 483 H 44.338 -3.76027 3.27728 0
M  V30 484 H 43.492 -5.73198 1.9882 0
M  V30 485 H 42.231 -4.71945 1.22961 0
M  V30 486 H 41.236 -4.25123 3.48641 0
M  V30 487 H 42.461 -5.29807 4.24832 0
M  V30 488 H 40.407 -6.18474 2.1869 0
M  V30 489 H 40.324 -6.48087 3.89254 0
M  V30 490 H 41.592 -7.213 2.95546 0
M  V30 491 N 45.8211 -1.22559 -0.990812 0
M  V30 492 C 47.0461 -1.07862 -1.77145 0
M  V30 493 C 47.4711 0.366447 -1.84496 0
M  V30 494 O 46.8291 1.26478 -1.29896 0
M  V30 495 C 46.8771 -1.69686 -3.18181 0
M  V30 496 O 45.9811 -0.951946 -4.01263 0
M  V30 497 H 45.3221 -0.378712 -0.545411 0
M  V30 498 H 47.8521 -1.62399 -1.2445 0
M  V30 499 H 47.8621 -1.74496 -3.68802 0
M  V30 500 H 46.5371 -2.74841 -3.12146 0
M  V30 501 H 45.1141 -0.980011 -3.59792 0
M  V30 502 N 47.2992 1.18797 -1.03562 0
M  V30 503 C 48.7152 1.40671 -0.753917 0
M  V30 504 C 48.9152 1.9043 0.658686 0
M  V30 505 O 47.9712 2.08538 1.42366 0
M  V30 506 C 49.2842 2.41192 -1.79574 0
M  V30 507 C 50.8322 2.54928 -1.81606 0
M  V30 508 C 51.3072 3.58709 -2.84766 0
M  V30 509 N 52.7982 3.66212 -2.83625 0
M  V30 510 C 53.5332 4.46225 -3.60098 0
M  V30 511 N 53.0292 5.29888 -4.46308 0
M  V30 512 N 54.8222 4.40939 -3.4861 0
M  V30 513 H 46.9732 0.848221 -1.94728 0
M  V30 514 H 49.2362 0.435081 -0.842264 0
M  V30 515 H 48.9422 2.11669 -2.80872 0
M  V30 516 H 48.8162 3.40467 -1.62365 0
M  V30 517 H 51.2032 2.83771 -0.809817 0
M  V30 518 H 51.2842 1.55784 -2.02891 0
M  V30 519 H 50.9282 3.30607 -3.85566 0
M  V30 520 H 50.8582 4.57519 -2.60737 0
M  V30 521 H 53.3492 3.06466 -2.21105 0
M  V30 522 H 53.6622 5.88078 -5.01382 0
M  V30 523 H 52.0072 5.29326 -4.50377 0
M  V30 524 H 55.1982 3.74624 -2.80668 0
M  V30 525 H 55.3712 5.03056 -4.08459 0
M  V30 526 N 48.7773 0.814389 1.34928 0
M  V30 527 C 49.7073 0.244827 2.32213 0
M  V30 528 C 50.6883 -0.634024 1.57842 0
M  V30 529 O 51.8733 -0.562676 1.8587 0
M  V30 530 C 49.0033 -0.601106 3.42058 0
M  V30 531 C 47.9573 0.179896 4.27622 0
M  V30 532 C 47.2833 -0.788237 5.28858 0
M  V30 533 C 48.5833 1.38329 5.03649 0
M  V30 534 H 50.2773 1.05763 2.80097 0
M  V30 535 H 47.8233 0.510029 1.34665 0
M  V30 536 H 49.7763 -1.00968 4.09125 0
M  V30 537 H 48.5003 -1.44688 2.92802 0
M  V30 538 H 47.1593 0.569739 3.62146 0
M  V30 539 H 46.8073 -1.62973 4.75866 0
M  V30 540 H 46.5073 -0.269942 5.8698 0
M  V30 541 H 48.0313 -1.19485 5.98795 0
M  V30 542 H 49.4453 1.04918 5.63618 0
M  V30 543 H 47.8423 1.83662 5.71304 0
M  V30 544 H 48.9123 2.16592 4.33839 0
M  V30 545 N 50.2554 -1.46986 0.568584 0
M  V30 546 C 51.1874 -2.28233 -0.210337 0
M  V30 547 C 52.2004 -1.37682 -0.868767 0
M  V30 548 O 53.3894 -1.62406 -0.740705 0
M  V30 549 C 50.4894 -3.12293 -1.3163 0
M  V30 550 C 49.6624 -4.30878 -0.7525 0
M  V30 551 C 48.7214 -4.96445 -1.74439 0
M  V30 552 O 47.7474 -5.54482 -1.286 0
M  V30 553 N 48.9494 -4.92171 -3.07812 0
M  V30 554 H 51.7144 -2.95723 0.486648 0
M  V30 555 H 49.2754 -1.56742 0.405409 0
M  V30 556 H 51.2674 -3.53022 -1.97883 0
M  V30 557 H 49.8374 -2.46971 -1.91636 0
M  V30 558 H 49.0574 -3.94104 0.0871128 0
M  V30 559 H 50.3454 -5.07558 -0.35536 0
M  V30 560 H 49.7434 -4.46239 -3.47688 0
M  V30 561 H 48.3004 -5.36884 -3.69592 0
M  V30 562 N 51.7335 -0.305618 -1.54608 0
M  V30 563 C 53.0105 0.355652 -1.92339 0
M  V30 564 C 53.3905 1.71324 -1.23335 0
M  V30 565 O 52.7385 2.25473 -0.370702 0
M  V30 566 C 52.9485 0.46572 -3.45879 0
M  V30 567 C 54.2965 0.734426 -4.182 0
M  V30 568 O 55.3205 0.54935 -3.51938 0
M  V30 569 O 54.1795 1.09024 -5.35515 0
M  V30 570 H 51.2735 0.199666 -0.802535 0
M  V30 571 H 53.8195 -0.354017 -1.65966 0
M  V30 572 H 52.5915 -0.488461 -3.88239 0
M  V30 573 H 52.2145 1.22367 -3.78301 0
M  V30 574 N 53.2116 1.57565 -0.0334293 0
M  V30 575 C 54.1216 2.13943 0.962572 0
M  V30 576 C 55.1376 1.09276 1.35406 0
M  V30 577 O 56.3136 1.41355 1.4346 0
M  V30 578 C 53.3786 2.65887 2.22497 0
M  V30 579 C 52.4396 3.85286 1.8935 0
M  V30 580 C 51.6726 4.34743 3.09571 0
M  V30 581 O 51.8956 3.83352 4.22371 0
M  V30 582 O 50.8296 5.26538 2.91618 0
M  V30 583 H 54.6556 2.99333 0.513169 0
M  V30 584 H 52.2406 1.4822 0.18743 0
M  V30 585 H 54.1226 2.99346 2.96598 0
M  V30 586 H 52.7976 1.83578 2.6661 0
M  V30 587 H 51.7046 3.56746 1.1262 0
M  V30 588 H 53.0376 4.68771 1.5005 0
M  V30 589 N 54.6897 -0.239769 1.55765 0
M  V30 590 C 55.6367 -1.29696 1.90913 0
M  V30 591 C 56.6067 -1.47478 0.764164 0
M  V30 592 O 57.7917 -1.61345 1.01845 0
M  V30 593 C 54.9317 -2.64598 2.21544 0
M  V30 594 C 54.0447 -2.54765 3.48882 0
M  V30 595 C 53.1797 -3.82069 3.69049 0
M  V30 596 C 52.2187 -3.66883 4.89963 0
M  V30 597 N 51.3557 -4.86094 5.06614 0
M  V30 598 H 56.1957 -0.990224 2.81067 0
M  V30 599 H 53.7327 -0.477684 1.39128 0
M  V30 600 H 55.6907 -3.43132 2.3731 0
M  V30 601 H 54.3207 -2.93405 1.34585 0
M  V30 602 H 53.3727 -1.67763 3.41409 0
M  V30 603 H 54.6847 -2.39457 4.37563 0
M  V30 604 H 53.8387 -4.69046 3.84812 0
M  V30 605 H 52.5777 -4.00282 2.78614 0
M  V30 606 H 51.5827 -2.78289 4.74168 0
M  V30 607 H 52.8077 -3.50157 5.81865 0
M  V30 608 H 50.7537 -5.04655 4.19117 0
M  V30 609 H 50.6707 -4.73443 5.89396 0
M  V30 610 H 51.9387 -5.74549 5.26795 0
M  V30 611 N 56.1678 -1.49265 -0.50573 0
M  V30 612 C 57.1148 -1.65585 -1.6078 0
M  V30 613 C 58.0848 -0.497396 -1.58478 0
M  V30 614 O 59.2698 -0.72385 -1.76536 0
M  V30 615 C 56.4098 -1.72408 -2.98948 0
M  V30 616 C 55.5228 -2.99525 -3.11301 0
M  V30 617 C 54.6578 -2.97356 -4.40174 0
M  V30 618 C 53.6968 -4.19074 -4.46143 0
M  V30 619 N 52.8338 -4.14841 -5.66437 0
M  V30 620 H 57.6738 -2.59688 -1.46172 0
M  V30 621 H 55.2108 -1.28761 -0.711261 0
M  V30 622 H 57.1688 -1.74344 -3.79025 0
M  V30 623 H 55.7988 -0.817753 -3.1227 0
M  V30 624 H 54.8508 -3.07222 -2.24318 0
M  V30 625 H 56.1628 -3.89518 -3.11572 0
M  V30 626 H 55.3168 -2.97829 -5.28567 0
M  V30 627 H 54.0558 -2.05133 -4.42461 0
M  V30 628 H 53.0608 -4.1885 -3.56153 0
M  V30 629 H 54.2858 -5.12483 -4.45575 0
M  V30 630 H 52.2318 -3.25453 -5.69575 0
M  V30 631 H 52.1488 -4.98564 -5.68304 0
M  V30 632 H 53.4168 -4.1941 -6.57051 0
M  V30 633 N 57.6459 0.756429 -1.3826 0
M  V30 634 C 58.8939 1.51248 -1.34047 0
M  V30 635 C 59.2149 1.94875 0.0698372 0
M  V30 636 O 58.4849 1.67436 1.01696 0
M  V30 637 H 57.0649 0.561018 -0.493222 0
M  V30 638 H 59.7269 0.899347 -1.7291 0
M  V30 639 H 58.8229 2.40472 -1.98947 0
M  V30 640 N 59.124 1.23083 0.984299 0
M  V30 641 C 60.401 0.9689 1.69917 0
M  V30 642 C 60.781 -0.513604 2.04757 0
M  V30 643 O 60.129 -1.48383 1.73767 0
M  V30 644 C 60.339 1.87518 2.94343 0
M  V30 645 C 61.687 2.13636 3.6694 0
M  V30 646 O 62.711 1.85036 3.04368 0
M  V30 647 O 61.57 2.62119 4.79537 0
M  V30 648 H 58.664 0.365095 0.742048 0
M  V30 649 H 61.21 1.34107 1.03987 0
M  V30 650 H 59.982 2.87756 2.65164 0
M  V30 651 H 59.605 1.50514 3.6801 0
M  V30 652 N 60.6021 -1.18246 1.0419 0
M  V30 653 C 61.8501 -1.87886 0.744543 0
M  V30 654 C 62.1711 -1.8082 -0.730006 0
M  V30 655 O 61.4411 -1.22736 -1.52685 0
M  V30 656 H 60.0211 -0.695556 0.272417 0
M  V30 657 H 62.6831 -1.43494 1.31892 0
M  V30 658 H 61.7791 -2.9389 1.05049 0
M  V30 659 N 62.0802 -0.821533 -1.34494 0
M  V30 660 C 63.3262 -0.409552 -1.98622 0
M  V30 661 C 63.6592 1.0244 -1.64984 0
M  V30 662 O 62.9342 1.71325 -0.920758 0
M  V30 663 C 63.2172 -0.610458 -3.54888 0
M  V30 664 C 63.0702 -2.09043 -3.98273 0
M  V30 665 C 64.3892 -0.0455379 -4.40076 0
M  V30 666 H 61.5082 -0.15028 -0.721516 0
M  V30 667 H 64.1502 -1.03384 -1.59411 0
M  V30 668 H 62.3002 -0.079044 -3.8842 0
M  V30 669 H 63.9722 -2.68537 -3.75081 0
M  V30 670 H 62.2152 -2.58139 -3.48635 0
M  V30 671 H 62.8862 -2.18182 -5.07051 0
M  V30 672 H 65.3622 -0.499557 -4.1309 0
M  V30 673 H 64.2382 -0.215922 -5.48475 0
M  V30 674 H 64.4992 1.04939 -4.29465 0
M  V30 675 N 63.5583 1.46682 -0.576371 0
M  V30 676 C 64.9743 1.57822 -0.237562 0
M  V30 677 C 65.1743 1.57237 1.26011 0
M  V30 678 O 64.2303 1.48596 2.04146 0
M  V30 679 C 65.5433 2.87499 -0.881168 0
M  V30 680 C 67.0913 3.01119 -0.85417 0
M  V30 681 C 67.5663 4.33524 -1.4772 0
M  V30 682 N 69.0573 4.40207 -1.44125 0
M  V30 683 C 69.7923 5.4126 -1.89276 0
M  V30 684 N 69.2883 6.49021 -2.42371 0
M  V30 685 N 71.0813 5.32422 -1.80231 0
M  V30 686 H 63.2323 1.45306 -1.54919 0
M  V30 687 H 65.4953 0.692733 -0.647167 0
M  V30 688 H 65.2013 2.9372 -1.93447 0
M  V30 689 H 65.0753 3.75224 -0.385592 0
M  V30 690 H 67.4623 2.94485 0.190491 0
M  V30 691 H 67.5433 2.14887 -1.3877 0
M  V30 692 H 67.1873 4.40916 -2.52103 0
M  V30 693 H 67.1173 5.1852 -0.918947 0
M  V30 694 H 69.6083 3.62931 -1.05307 0
M  V30 695 H 69.9213 7.2233 -2.74698 0
M  V30 696 H 68.2663 6.49858 -2.46393 0
M  V30 697 H 71.4573 4.47137 -1.38514 0
M  V30 698 H 71.6303 6.11034 -2.15735 0
M  V30 699 N 65.0364 0.313813 1.54444 0
M  V30 700 C 66.2824 -0.292108 2.00685 0
M  V30 701 C 66.6154 -1.52548 1.20177 0
M  V30 702 O 65.8904 -1.92452 0.281531 0
M  V30 703 C 66.1734 -0.635968 3.5444 0
M  V30 704 C 66.0264 0.607437 4.4568 0
M  V30 705 C 67.3454 -1.45747 4.15266 0
M  V30 706 H 64.4644 -0.104697 0.729526 0
M  V30 707 H 67.1064 0.428457 1.85106 0
M  V30 708 H 65.2564 -1.24986 3.67846 0
M  V30 709 H 66.9284 1.24581 4.44159 0
M  V30 710 H 65.1714 1.23822 4.15753 0
M  V30 711 H 65.8424 0.322515 5.51057 0
M  V30 712 H 68.3184 -0.938645 4.05375 0
M  V30 713 H 67.1944 -1.66683 5.2298 0
M  V30 714 H 67.4554 -2.45063 3.67963 0
M  V30 715 N 66.5145 -1.57545 0.0417849 0
M  V30 716 C 67.7625 -1.91937 -0.632829 0
M  V30 717 C 68.0835 -0.919978 -1.71934 0
M  V30 718 O 67.3535 0.0366064 -1.95866 0
M  V30 719 H 65.9335 -0.708493 -0.236742 0
M  V30 720 H 68.5955 -1.9468 0.0925745 0
M  V30 721 H 67.6915 -2.92912 -1.07746 0
M  V30 722 N 67.9926 0.231505 -1.5589 0
M  V30 723 C 69.2396 0.957352 -1.78441 0
M  V30 724 C 69.5676 1.84726 -0.60882 0
M  V30 725 O 68.8226 1.91416 0.40725 0
M  V30 726 C 69.1216 1.83577 -3.0665 0
M  V30 727 C 68.7876 1.09993 -4.37278 0
M  V30 728 C 67.4496 0.896629 -4.72773 0
M  V30 729 C 69.8016 0.579558 -5.17968 0
M  V30 730 C 67.1296 0.160896 -5.86479 0
M  V30 731 C 69.4816 -0.142783 -6.32439 0
M  V30 732 C 68.1456 -0.357427 -6.66542 0
M  V30 733 H 67.4156 0.35032 -0.65296 0
M  V30 734 H 70.0626 0.226259 -1.90159 0
M  V30 735 H 68.3676 2.63441 -2.90011 0
M  V30 736 H 70.0646 2.39934 -3.21298 0
M  V30 737 H 66.6546 1.26835 -4.09403 0
M  V30 738 H 70.8386 0.724125 -4.90989 0
M  V30 739 H 66.0946 -0.0157293 -6.11398 0
M  V30 740 H 70.2686 -0.553559 -6.94196 0
M  V30 741 H 67.8956 -0.929466 -7.54497 0
M  V30 742 N 69.4707 1.49531 0.497807 0
M  V30 743 C 70.7177 1.59179 1.25173 0
M  V30 744 C 71.0457 0.279932 1.92475 0
M  V30 745 O 70.3007 -0.732383 1.81479 0
M  V30 746 C 70.5997 2.70252 2.33878 0
M  V30 747 C 70.2657 4.11644 1.84012 0
M  V30 748 C 68.9277 4.50121 1.70132 0
M  V30 749 C 71.2797 5.00121 1.46725 0
M  V30 750 C 68.6077 5.74845 1.17348 0
M  V30 751 C 70.9597 6.25366 0.95392 0
M  V30 752 C 69.6237 6.6267 0.801538 0
M  V30 753 H 68.8937 0.582478 0.45804 0
M  V30 754 H 71.5407 1.83373 0.551948 0
M  V30 755 H 69.8457 2.40041 3.09657 0
M  V30 756 H 71.5427 2.74925 2.9192 0
M  V30 757 H 68.1327 3.81274 1.95775 0
M  V30 758 H 72.3167 4.71048 1.56294 0
M  V30 759 H 67.5727 6.02444 1.04264 0
M  V30 760 H 71.7467 6.93301 0.656225 0
M  V30 761 H 69.3737 7.59197 0.390351 0
M  V30 762 N 70.9488 -0.749086 1.3866 0
M  V30 763 C 71.8808 -1.87273 1.32142 0
M  V30 764 C 72.8938 -1.61127 0.232787 0
M  V30 765 O 74.0828 -1.71623 0.49069 0
M  V30 766 C 71.1828 -3.23005 1.02571 0
M  V30 767 C 70.3558 -3.7662 2.22433 0
M  V30 768 C 69.4148 -4.90879 1.89537 0
M  V30 769 O 68.4408 -5.05276 2.62078 0
M  V30 770 N 69.6428 -5.74198 0.853031 0
M  V30 771 H 72.4078 -1.93373 2.28969 0
M  V30 772 H 69.9688 -0.929216 1.32579 0
M  V30 773 H 71.9608 -3.96992 0.786085 0
M  V30 774 H 70.5308 -3.12262 0.145249 0
M  V30 775 H 69.7508 -2.94147 2.62434 0
M  V30 776 H 71.0388 -4.09173 3.02415 0
M  V30 777 H 70.4368 -5.6514 0.25155 0
M  V30 778 H 68.9938 -6.48313 0.67329 0
M  V30 779 N 72.4269 -1.23603 -0.977757 0
M  V30 780 C 73.3569 -1.04401 -2.0886 0
M  V30 781 C 74.3379 0.0399052 -1.70053 0
M  V30 782 O 75.5229 -0.125246 -1.93796 0
M  V30 783 C 72.6529 -0.637269 -3.41403 0
M  V30 784 C 71.6069 -1.66883 -3.94124 0
M  V30 785 C 70.9329 -1.11745 -5.22893 0
M  V30 786 C 72.2329 -3.06247 -4.23096 0
M  V30 787 H 73.9269 -1.97316 -2.25182 0
M  V30 788 H 71.4729 -0.950096 -1.08209 0
M  V30 789 H 73.4259 -0.48998 -4.18542 0
M  V30 790 H 72.1499 0.327557 -3.24953 0
M  V30 791 H 70.8089 -1.80416 -3.19133 0
M  V30 792 H 70.4569 -0.143527 -5.02795 0
M  V30 793 H 70.1569 -1.80672 -5.59134 0
M  V30 794 H 71.6809 -0.982067 -6.02651 0
M  V30 795 H 73.0949 -2.96001 -4.90975 0
M  V30 796 H 71.4919 -3.72436 -4.70544 0
M  V30 797 H 72.5619 -3.55041 -3.30263 0
M  V30 798 N 73.905 1.17692 -1.04816 0
M  V30 799 C 75.152 1.87859 -0.75599 0
M  V30 800 C 75.48 1.80812 0.716752 0
M  V30 801 O 74.735 1.20819 1.53952 0
M  V30 802 C 75.034 3.37462 -1.17703 0
M  V30 803 C 74.7 3.64713 -2.65133 0
M  V30 804 C 73.362 3.71859 -3.05408 0
M  V30 805 C 75.714 3.76492 -3.60421 0
M  V30 806 C 73.042 3.88271 -4.39843 0
M  V30 807 C 75.394 3.94421 -4.94585 0
M  V30 808 C 74.058 3.99806 -5.3452 0
M  V30 809 H 73.328 0.687425 -0.276636 0
M  V30 810 H 75.975 1.39255 -1.31455 0
M  V30 811 H 74.28 3.88097 -0.537395 0
M  V30 812 H 75.977 3.90109 -0.928218 0
M  V30 813 H 72.567 3.59772 -2.32942 0
M  V30 814 H 76.751 3.70295 -3.30447 0
M  V30 815 H 72.007 3.90687 -4.70291 0
M  V30 816 H 76.181 4.02477 -5.68318 0
M  V30 817 H 73.808 4.12276 -6.38696 0
M  V30 818 N 75.3831 0.828654 1.34056 0
M  V30 819 C 76.7991 0.515135 1.51058 0
M  V30 820 C 76.9991 -0.959581 1.77184 0
M  V30 821 O 76.0551 -1.74382 1.82612 0
M  V30 822 C 77.3681 1.37963 2.67183 0
M  V30 823 C 78.9161 1.37735 2.81066 0
M  V30 824 C 79.3911 2.22645 4.00241 0
M  V30 825 N 80.8821 2.203 4.07458 0
M  V30 826 C 81.6171 2.82744 4.98842 0
M  V30 827 N 81.1131 3.54201 5.9541 0
M  V30 828 N 82.9061 2.72268 4.91759 0
M  V30 829 H 75.0571 1.78343 1.15358 0
M  V30 830 H 77.3201 0.760304 0.566252 0
M  V30 831 H 77.0261 2.42714 2.54525 0
M  V30 832 H 76.9001 1.0484 3.62338 0
M  V30 833 H 79.2871 0.337593 2.93163 0
M  V30 834 H 79.3681 1.74859 1.86703 0
M  V30 835 H 79.0121 3.26674 3.88905 0
M  V30 836 H 78.9421 1.82869 4.93829 0
M  V30 837 H 81.4331 1.68327 3.38341 0
M  V30 838 H 81.7461 3.9908 6.61782 0
M  V30 839 H 80.0911 3.58308 5.95517 0
M  V30 840 H 83.2821 2.16014 4.15278 0
M  V30 841 H 83.4551 3.21219 5.62781 0
M  V30 842 N 76.8612 -1.46375 0.584142 0
M  V30 843 C 78.1082 -2.02378 0.0702675 0
M  V30 844 C 78.4362 -1.45545 -1.29023 0
M  V30 845 O 77.6912 -0.610967 -1.85918 0
M  V30 846 C 77.9902 -3.57373 -0.0439342 0
M  V30 847 C 77.6562 -4.33252 1.24915 0
M  V30 848 C 76.3182 -4.53701 1.60341 0
M  V30 849 C 78.6702 -4.7681 2.1048 0
M  V30 850 C 75.9982 -5.1496 2.81128 0
M  V30 851 C 78.3502 -5.39404 3.30494 0
M  V30 852 C 77.0142 -5.5808 3.66201 0
M  V30 853 H 76.2842 -0.740554 0.0257127 0
M  V30 854 H 78.9312 -1.75727 0.761065 0
M  V30 855 H 77.2362 -3.83169 -0.817869 0
M  V30 856 H 78.9332 -3.98384 -0.457318 0
M  V30 857 H 75.5232 -4.17633 0.963364 0
M  V30 858 H 79.7072 -4.60766 1.84414 0
M  V30 859 H 74.9632 -5.27611 3.08928 0
M  V30 860 H 79.1372 -5.72114 3.97063 0
M  V30 861 H 76.7642 -6.05318 4.59885 0
M  V30 862 N 78.3393 -0.321999 -1.54275 0
M  V30 863 C 79.5643 0.285791 -2.05422 0
M  V30 864 C 79.9893 1.45124 -1.19669 0
M  V30 865 O 79.3473 1.80132 -0.205441 0
M  V30 866 C 79.3953 0.69956 -3.53749 0
M  V30 867 O 78.4993 1.8021 -3.70942 0
M  V30 868 H 77.8403 0.0518962 -0.661969 0
M  V30 869 H 80.3703 -0.469954 -1.9913 0
M  V30 870 H 80.3803 0.982649 -3.9599 0
M  V30 871 H 79.0553 -0.152864 -4.15619 0
M  V30 872 H 77.6323 1.51794 -3.40607 0
M  V30 873 N 79.8174 1.5752 -0.0501392 0
M  V30 874 C 81.0424 1.97376 0.636997 0
M  V30 875 C 81.4674 0.927466 1.63645 0
M  V30 876 O 80.8254 -0.10941 1.8097 0
M  V30 877 C 80.8734 3.36304 1.30123 0
M  V30 878 O 79.9774 3.34156 2.41689 0
M  V30 879 H 79.3184 0.642998 0.165679 0
M  V30 880 H 81.8484 2.04258 -0.118233 0
M  V30 881 H 81.8584 3.73008 1.65315 0
M  V30 882 H 80.5334 4.11993 0.568746 0
M  V30 883 H 79.1104 3.09196 2.08451 0
M  V30 884 N 81.2955 -0.223234 1.56011 0
M  V30 885 C 82.5205 -0.968978 1.83373 0
M  V30 886 C 82.9455 -1.77227 0.630254 0
M  V30 887 O 82.3035 -1.76345 -0.420959 0
M  V30 888 C 82.3515 -1.86363 3.08709 0
M  V30 889 O 81.4555 -2.95873 2.87285 0
M  V30 890 H 80.7965 -0.274461 0.604622 0
M  V30 891 H 83.3265 -0.237056 2.03222 0
M  V30 892 H 83.3365 -2.27376 3.38768 0
M  V30 893 H 82.0115 -1.27319 3.95933 0
M  V30 894 H 80.5885 -2.58818 2.68454 0
M  V30 895 N 82.7736 -1.49793 -0.48987 0
M  V30 896 C 84.0016 -1.63568 -1.26701 0
M  V30 897 C 84.4166 -0.311465 -1.86213 0
M  V30 898 O 83.7736 0.704416 -1.68357 0
M  V30 899 C 83.8246 -2.71284 -2.38929 0
M  V30 900 O 83.5456 -3.9857 -1.81861 0
M  V30 901 C 85.0466 -2.95864 -3.3012 0
M  V30 902 H 82.2666 -0.550342 -0.383881 0
M  V30 903 H 84.8106 -1.95898 -0.586864 0
M  V30 904 H 82.9656 -2.417 -3.02753 0
M  V30 905 H 83.3796 -4.57993 -2.55622 0
M  V30 906 H 84.8536 -3.74941 -4.05121 0
M  V30 907 H 85.3306 -2.06206 -3.87783 0
M  V30 908 H 85.9366 -3.26907 -2.72051 0
M  V30 909 N 84.2517 0.741722 -1.39055 0
M  V30 910 C 85.5287 1.49252 -1.26425 0
M  V30 911 C 85.9087 2.10705 0.129144 0
M  V30 912 O 85.2567 1.98045 1.13976 0
M  V30 913 C 85.4667 2.54934 -2.38347 0
M  V30 914 C 86.8147 3.21506 -2.77343 0
M  V30 915 O 87.8387 2.65245 -2.37747 0
M  V30 916 O 86.6977 4.23294 -3.45665 0
M  V30 917 H 83.7917 0.662451 -0.495064 0
M  V30 918 H 86.3377 0.776121 -1.50912 0
M  V30 919 H 85.1097 2.07857 -3.31529 0
M  V30 920 H 84.7327 3.34141 -2.15489 0
M  V30 921 N 85.7298 1.2412 0.971189 0
M  V30 922 C 86.9788 1.07284 1.70801 0
M  V30 923 C 87.2918 -0.388902 1.91695 0
M  V30 924 O 88.4978 -0.677379 2.62914 0
M  V30 925 C 86.9538 1.87145 3.07416 0
M  V30 926 C 86.5618 3.37707 2.94377 0
M  V30 927 C 88.3058 1.78828 3.84995 0
M  V30 928 C 86.2128 4.09925 4.26281 0
M  V30 929 H 85.1428 0.397854 0.64049 0
M  V30 930 H 87.7938 1.4817 1.0825 0
M  V30 931 H 86.1758 1.39071 3.70777 0
M  V30 932 H 87.3498 3.93335 2.4005 0
M  V30 933 H 85.6648 3.46938 2.30267 0
M  V30 934 H 88.2618 2.30089 4.82662 0
M  V30 935 H 88.6048 0.75284 4.09436 0
M  V30 936 H 89.1378 2.24563 3.28354 0
M  V30 937 H 85.8768 5.13813 4.07033 0
M  V30 938 H 85.3968 3.59083 4.80437 0
M  V30 939 H 87.0758 4.1673 4.94919 0
M  V30 940 N 87.2079 -1.17134 1.05439 0
M  V30 941 C 88.4539 -1.87979 0.776872 0
M  V30 942 C 88.8089 -1.7965 -0.688751 0
M  V30 943 O 88.1019 -1.19535 -1.4974 0
M  V30 944 C 88.2959 -3.36833 1.19491 0
M  V30 945 C 88.1249 -3.59653 2.69963 0
M  V30 946 C 86.8949 -3.76234 3.37307 0
M  V30 947 C 89.0929 -3.59091 3.68182 0
M  V30 948 N 87.0749 -3.86922 4.76618 0
M  V30 949 C 88.4459 -3.75659 4.93235 0
M  V30 950 C 90.5009 -3.42255 3.61616 0
M  V30 951 C 89.2039 -3.77133 6.12506 0
M  V30 952 C 91.2299 -3.45018 4.8033 0
M  V30 953 C 90.5919 -3.62096 6.04207 0
M  V30 954 H 86.6909 -0.705876 0.336546 0
M  V30 955 H 89.2749 -1.40602 1.34682 0
M  V30 956 H 87.4459 -3.82873 0.652884 0
M  V30 957 H 89.1779 -3.95305 0.866966 0
M  V30 958 H 85.9329 -3.76193 2.87708 0
M  V30 959 H 86.3569 -3.96055 5.49062 0
M  V30 960 H 90.9989 -3.27986 2.66805 0
M  V30 961 H 88.7169 -3.90186 7.07659 0
M  V30 962 H 92.3029 -3.33246 4.76905 0
M  V30 963 H 91.1829 -3.64142 6.94529 0
M  V30 964 N 88.686 -0.835752 -1.33615 0
M  V30 965 C 89.616 -0.281739 -2.31794 0
M  V30 966 C 90.597 0.608833 -1.58831 0
M  V30 967 O 91.782 0.533035 -1.86741 0
M  V30 968 C 88.912 0.546612 -3.42971 0
M  V30 969 C 87.866 -0.247904 -4.27281 0
M  V30 970 C 87.192 0.704001 -5.30045 0
M  V30 971 C 88.492 -1.46324 -5.01385 0
M  V30 972 H 90.186 -1.10206 -2.78379 0
M  V30 973 H 87.732 -0.531388 -1.33837 0
M  V30 974 H 89.685 0.944467 -4.1068 0
M  V30 975 H 88.409 1.40011 -2.95067 0
M  V30 976 H 87.068 -0.627281 -3.61194 0
M  V30 977 H 86.716 1.55381 -4.78399 0
M  V30 978 H 86.416 0.176524 -5.87335 0
M  V30 979 H 87.94 1.09944 -6.0062 0
M  V30 980 H 89.354 -1.13871 -5.61877 0
M  V30 981 H 87.751 -1.92728 -5.6831 0
M  V30 982 H 88.821 -2.23467 -4.30338 0
M  V30 983 N 90.1641 1.46063 -0.591896 0
M  V30 984 C 91.0971 2.27452 0.184617 0
M  V30 985 C 92.0751 1.36188 0.888351 0
M  V30 986 O 93.2591 1.65606 0.90039 0
M  V30 987 C 90.3861 3.14162 1.26571 0
M  V30 988 C 89.4321 4.21255 0.666814 0
M  V30 989 S 90.2651 5.33034 -0.513345 0
M  V30 990 C 91.4211 6.23311 0.56872 0
M  V30 991 H 91.6541 2.92963 -0.505939 0
M  V30 992 H 89.1871 1.49676 -0.379014 0
M  V30 993 H 91.1451 3.6468 1.88463 0
M  V30 994 H 89.8061 2.47946 1.92826 0
M  V30 995 H 88.9991 4.81788 1.47974 0
M  V30 996 H 88.6011 3.73797 0.123359 0
M  V30 997 H 90.8931 6.61758 1.45198 0
M  V30 998 H 91.8361 7.081 -7.23824e-05 0
M  V30 999 H 92.2441 5.57646 0.876996 0
M  V30 1000 N 91.6422 0.330177 1.54103 0
M  V30 1001 C 92.8892 -0.270405 2.00686 0
M  V30 1002 C 93.2172 -1.51621 1.21825 0
M  V30 1003 O 92.4722 -1.93536 0.29025 0
M  V30 1004 C 92.7712 -0.643134 3.51566 0
M  V30 1005 C 92.4372 0.504251 4.48072 0
M  V30 1006 C 91.0992 0.819163 4.74176 0
M  V30 1007 C 93.4512 1.27465 5.05373 0
M  V30 1008 C 90.7792 1.90708 5.5484 0
M  V30 1009 C 93.1312 2.35271 5.87223 0
M  V30 1010 C 91.7952 2.67336 6.11627 0
M  V30 1011 H 91.0652 -0.0989482 0.734364 0
M  V30 1012 H 93.7122 0.455324 1.86008 0
M  V30 1013 H 92.0172 -1.44938 3.64006 0
M  V30 1014 H 93.7142 -1.11949 3.85056 0
M  V30 1015 H 90.3042 0.248733 4.27878 0
M  V30 1016 H 94.4882 1.04462 4.85182 0
M  V30 1017 H 89.7442 2.15991 5.71977 0
M  V30 1018 H 93.9182 2.95405 6.30641 0
M  V30 1019 H 91.5452 3.51763 6.73919 0
M  V30 1020 N 93.1203 -1.57491 0.0584922 0
M  V30 1021 C 94.3663 -1.93264 -0.614558 0
M  V30 1022 C 94.6993 -0.937717 -1.7006 0
M  V30 1023 O 93.9743 0.0351652 -1.94468 0
M  V30 1024 C 94.2573 -3.3938 -1.20386 0
M  V30 1025 C 94.1103 -4.49625 -0.125375 0
M  V30 1026 C 95.4293 -3.86039 -2.11334 0
M  V30 1027 H 92.5483 -0.702791 -0.221933 0
M  V30 1028 H 95.1903 -1.8961 0.12175 0
M  V30 1029 H 93.3403 -3.42626 -1.83139 0
M  V30 1030 H 95.0123 -4.58506 0.506971 0
M  V30 1031 H 93.2553 -4.30354 0.545672 0
M  V30 1032 H 93.9263 -5.48967 -0.577861 0
M  V30 1033 H 96.4023 -3.84716 -1.58534 0
M  V30 1034 H 95.2783 -4.88914 -2.49507 0
M  V30 1035 H 95.5393 -3.23215 -3.01636 0
M  V30 1036 N 94.5984 0.214957 -1.56127 0
M  V30 1037 C 95.8464 0.936518 -1.79091 0
M  V30 1038 C 96.1674 1.84606 -0.628148 0
M  V30 1039 O 95.4374 1.92664 0.35462 0
M  V30 1040 H 94.0174 0.3488 -0.660566 0
M  V30 1041 H 96.6794 0.22523 -1.93594 0
M  V30 1042 H 95.7754 1.53943 -2.71492 0
M  V30 1043 N 96.0765 1.50051 0.48192 0
M  V30 1044 C 97.3015 1.64508 1.26301 0
M  V30 1045 C 97.7265 0.323851 1.85291 0
M  V30 1046 O 97.0845 -0.710969 1.66778 0
M  V30 1047 C 97.1325 2.7305 2.35533 0
M  V30 1048 O 96.2365 2.3355 3.39895 0
M  V30 1049 H 95.5775 0.549978 0.372048 0
M  V30 1050 H 98.1075 1.9636 0.574786 0
M  V30 1051 H 98.1175 2.95799 2.8101 0
M  V30 1052 H 96.7925 3.68946 1.91967 0
M  V30 1053 H 95.3695 2.21205 3.00204 0
M  V30 1054 N 97.5546 -0.734337 1.39446 0
M  V30 1055 C 98.4846 -1.86155 1.40955 0
M  V30 1056 C 99.4656 -1.67898 0.272827 0
M  V30 1057 O 100.651 -1.88207 0.478743 0
M  V30 1058 C 97.7806 -3.23912 1.25294 0
M  V30 1059 C 96.7346 -3.56808 2.36373 0
M  V30 1060 C 96.0606 -4.93508 2.058 0
M  V30 1061 C 97.3606 -3.59713 3.78687 0
M  V30 1062 H 99.0546 -1.8515 2.35287 0
M  V30 1063 H 96.6006 -0.889367 1.13253 0
M  V30 1064 H 98.5536 -4.02443 1.2497 0
M  V30 1065 H 97.2776 -3.25446 0.274308 0
M  V30 1066 H 95.9366 -2.80606 2.35914 0
M  V30 1067 H 95.5846 -4.91623 1.06374 0
M  V30 1068 H 95.2846 -5.16486 2.80208 0
M  V30 1069 H 96.8086 -5.74396 2.07128 0
M  V30 1070 H 98.2226 -4.2832 3.81071 0
M  V30 1071 H 96.6196 -3.94209 4.52459 0
M  V30 1072 H 97.6896 -2.59504 4.09617 0
M  V30 1073 N 99.0327 -1.24633 -0.964593 0
M  V30 1074 C 100.273 -1.09981 -1.72289 0
M  V30 1075 C 100.637 0.354792 -1.88693 0
M  V30 1076 O 101.838 0.62289 -2.61483 0
M  V30 1077 C 100.109 -1.82262 -3.07434 0
M  V30 1078 S 101.668 -1.83379 -3.98645 0
M  V30 1079 H 98.4857 -0.393292 -0.59232 0
M  V30 1080 H 101.088 -1.58009 -1.15123 0
M  V30 1081 H 99.7917 -2.87206 -2.93157 0
M  V30 1082 H 99.3227 -1.3458 -3.69664 0
M  V30 1083 H 101.338 -0.903691 -4.87901 0
M  V30 1084 N 100.511 1.16574 -1.06058 0
M  V30 1085 C 101.474 2.19085 -0.673392 0
M  V30 1086 C 102.474 1.5835 0.279648 0
M  V30 1087 O 103.664 1.74088 0.0623488 0
M  V30 1088 C 100.796 3.40899 0.00954234 0
M  V30 1089 H 101.989 2.54853 -1.58081 0
M  V30 1090 H 99.5418 1.30808 -0.855516 0
M  V30 1091 H 100.277 3.10684 0.929826 0
M  V30 1092 H 100.062 3.86233 -0.67573 0
M  V30 1093 H 101.552 4.1675 0.266245 0
M  V30 1094 N 101.989 0.842826 1.3317 0
M  V30 1095 C 103.236 0.440447 1.97652 0
M  V30 1096 C 103.564 -1.00123 1.6675 0
M  V30 1097 O 102.819 -1.7155 0.941761 0
M  V30 1098 C 103.118 0.612607 3.52111 0
M  V30 1099 C 102.784 2.02297 4.02972 0
M  V30 1100 C 101.446 2.40874 4.16573 0
M  V30 1101 C 103.798 2.94402 4.30089 0
M  V30 1102 C 101.126 3.70852 4.54627 0
M  V30 1103 C 103.478 4.23865 4.69597 0
M  V30 1104 C 102.142 4.62392 4.81404 0
M  V30 1105 H 101.412 0.161171 0.72326 0
M  V30 1106 H 104.059 1.07061 1.58777 0
M  V30 1107 H 102.364 -0.100849 3.9167 0
M  V30 1108 H 104.061 0.2815 4.00011 0
M  V30 1109 H 100.651 1.71338 3.92863 0
M  V30 1110 H 104.835 2.65835 4.19101 0
M  V30 1111 H 100.091 4.00501 4.61962 0
M  V30 1112 H 104.265 4.95306 4.89536 0
M  V30 1113 H 101.892 5.63154 5.10648 0
M  V30 1114 N 103.467 -1.45747 0.599634 0
M  V30 1115 C 104.397 -2.33235 -0.111306 0
M  V30 1116 C 105.378 -1.46359 -0.866781 0
M  V30 1117 O 106.563 -1.75146 -0.838904 0
M  V30 1118 C 103.693 -3.28932 -1.11451 0
M  V30 1119 C 102.647 -4.25381 -0.472772 0
M  V30 1120 C 101.973 -5.1071 -1.58365 0
M  V30 1121 C 103.273 -5.18831 0.600948 0
M  V30 1122 H 104.967 -2.92927 0.61919 0
M  V30 1123 H 102.513 -1.40857 0.299215 0
M  V30 1124 H 104.466 -3.89002 -1.62036 0
M  V30 1125 H 103.19 -2.67381 -1.8755 0
M  V30 1126 H 101.849 -3.66598 0.0121472 0
M  V30 1127 H 101.497 -4.45533 -2.33473 0
M  V30 1128 H 101.197 -5.7604 -1.15982 0
M  V30 1129 H 102.721 -5.73647 -2.09194 0
M  V30 1130 H 104.135 -5.73019 0.179491 0
M  V30 1131 H 102.532 -5.92595 0.946076 0
M  V30 1132 H 103.602 -4.6174 1.48068 0
M  V30 1133 N 104.945 -0.338344 -1.53925 0
M  V30 1134 C 105.895 0.536712 -2.21593 0
M  V30 1135 C 106.879 1.07015 -1.20153 0
M  V30 1136 O 108.071 1.00471 -1.45721 0
M  V30 1137 C 105.2 1.68977 -2.98834 0
M  V30 1138 C 104.286 1.17052 -4.07627 0
M  V30 1139 N 104.677 0.372085 -5.0443 0
M  V30 1140 C 102.975 1.44789 -4.21844 0
M  V30 1141 C 103.676 0.0909171 -5.81629 0
M  V30 1142 N 102.652 0.681131 -5.39316 0
M  V30 1143 H 106.454 -0.0804298 -2.9379 0
M  V30 1144 H 103.968 -0.144943 -1.61752 0
M  V30 1145 H 105.965 2.32857 -3.45808 0
M  V30 1146 H 104.625 2.31024 -2.28162 0
M  V30 1147 H 105.636 0.0136217 -5.17898 0
M  V30 1148 H 102.313 2.07313 -3.62391 0
M  V30 1149 H 103.703 -0.552817 -6.69622 0
M  V30 1150 N 106.423 1.57458 -0.0668435 0
M  V30 1151 C 107.671 1.92919 0.602214 0
M  V30 1152 C 107.992 0.947215 1.70449 0
M  V30 1153 O 107.262 -0.00544117 1.95899 0
M  V30 1154 H 105.842 0.71217 0.22544 0
M  V30 1155 H 108.504 1.94508 -0.123535 0
M  V30 1156 H 107.6 2.94589 1.03073 0
M  V30 1157 N 107.901 -0.206675 1.56239 0
M  V30 1158 C 109.15 -0.926964 1.79138 0
M  V30 1159 C 109.463 -1.84901 0.638043 0
M  V30 1160 O 110.669 -2.60906 0.751033 0
M  V30 1161 C 109.125 -1.6986 3.17294 0
M  V30 1162 C 108.733 -0.821956 4.40395 0
M  V30 1163 C 110.477 -2.40922 3.4951 0
M  V30 1164 C 108.384 -1.59179 5.69575 0
M  V30 1165 H 107.314 -0.349864 0.667915 0
M  V30 1166 H 109.965 -0.180487 1.8261 0
M  V30 1167 H 108.347 -2.48853 3.08039 0
M  V30 1168 H 109.521 -0.0715019 4.60745 0
M  V30 1169 H 107.836 -0.222741 4.15804 0
M  V30 1170 H 110.433 -2.99047 4.43255 0
M  V30 1171 H 110.776 -3.14542 2.72707 0
M  V30 1172 H 111.309 -1.68905 3.60161 0
M  V30 1173 H 108.048 -0.898589 6.49312 0
M  V30 1174 H 107.568 -2.31648 5.53262 0
M  V30 1175 H 109.247 -2.14862 6.10281 0
M  V30 1176 N 109.379 -1.50304 -0.473955 0
M  V30 1177 C 110.342 -1.6841 -1.55469 0
M  V30 1178 C 111.342 -0.554905 -1.50922 0
M  V30 1179 O 112.532 -0.821882 -1.53593 0
M  V30 1180 C 109.664 -1.70667 -2.95102 0
M  V30 1181 H 110.857 -2.64828 -1.40733 0
M  V30 1182 H 108.41 -1.39742 -0.700132 0
M  V30 1183 H 109.145 -0.75932 -3.15285 0
M  V30 1184 H 108.93 -2.52698 -2.9981 0
M  V30 1185 H 110.42 -1.8664 -3.73571 0
M  V30 1186 N 110.857 0.726932 -1.39834 0
M  V30 1187 C 111.789 1.85147 -1.35104 0
M  V30 1188 C 112.802 1.60736 -0.258392 0
M  V30 1189 O 113.991 1.70821 -0.517931 0
M  V30 1190 C 111.091 3.21332 -1.07697 0
M  V30 1191 C 110.264 3.73033 -2.28396 0
M  V30 1192 C 109.323 4.87802 -1.97322 0
M  V30 1193 O 108.349 5.01043 -2.70083 0
M  V30 1194 N 109.551 5.72768 -0.944273 0
M  V30 1195 H 112.316 1.89706 -2.32017 0
M  V30 1196 H 109.877 0.908006 -1.3404 0
M  V30 1197 H 111.869 3.95691 -0.849144 0
M  V30 1198 H 110.439 3.11992 -0.194909 0
M  V30 1199 H 109.659 2.89934 -2.6708 0
M  V30 1200 H 110.947 4.0431 -3.08887 0
M  V30 1201 H 110.345 5.64669 -0.341427 0
M  V30 1202 H 108.902 6.4716 -0.776346 0
M  V30 1203 N 112.336 1.25143 0.95797 0
M  V30 1204 C 113.747 1.08851 1.51685 0
M  V30 1205 C 114.098 -0.33687 1.93286 0
M  V30 1206 O 113.223 -1.22644 1.7829 0
M  V30 1207 C 113.818 1.96978 2.75654 0
M  V30 1208 C 112.377 1.84881 3.27866 0
M  V30 1209 C 111.524 1.91329 2.0072 0
M  V30 1210 H 114.475 1.38478 0.77522 0
M  V30 1211 H 114.496 1.5078 3.4935 0
M  V30 1212 H 114.008 3.00712 2.45345 0
M  V30 1213 H 112.109 0.840182 3.63004 0
M  V30 1214 H 112.222 2.6951 3.96107 0
M  V30 1215 H 110.586 1.35174 2.15871 0
M  V30 1216 H 111.369 2.96661 1.72764 0
M  V30 1217 N 113.814 -1.1601 1.06675 0
M  V30 1218 C 115.062 -1.86264 0.784229 0
M  V30 1219 C 115.383 -1.82328 -0.691488 0
M  V30 1220 O 114.653 -1.25947 -1.50047 0
M  V30 1221 H 113.233 -0.689621 0.28711 0
M  V30 1222 H 115.895 -1.40664 1.34906 0
M  V30 1223 H 114.991 -2.91595 1.11259 0
M  V30 1224 N 115.292 -0.849877 -1.32721 0
M  V30 1225 C 116.538 -0.451591 -1.97708 0
M  V30 1226 C 116.871 0.989175 -1.6712 0
M  V30 1227 O 116.146 1.69334 -0.956891 0
M  V30 1228 C 116.429 -0.685598 -3.53513 0
M  V30 1229 C 116.282 -2.17444 -3.93749 0
M  V30 1230 C 117.601 -0.138874 -4.39881 0
M  V30 1231 H 114.72 -0.16555 -0.718166 0
M  V30 1232 H 117.362 -1.06742 -1.57182 0
M  V30 1233 H 115.512 -0.161416 -3.88165 0
M  V30 1234 H 117.184 -2.76433 -3.693 0
M  V30 1235 H 115.427 -2.65476 -3.43081 0
M  V30 1236 H 116.098 -2.28888 -5.02309 0
M  V30 1237 H 118.574 -0.587068 -4.11938 0
M  V30 1238 H 117.45 -0.332213 -5.47894 0
M  V30 1239 H 117.711 0.95806 -4.31594 0
M  V30 1240 N 116.77 1.45427 -0.607355 0
M  V30 1241 C 117.7 2.3329 0.0989352 0
M  V30 1242 C 118.681 1.46816 0.859007 0
M  V30 1243 O 119.866 1.75588 0.829604 0
M  V30 1244 C 116.996 3.29518 1.09705 0
M  V30 1245 C 115.95 4.25626 0.450206 0
M  V30 1246 C 115.276 5.11542 1.55655 0
M  V30 1247 C 116.576 5.18505 -0.628455 0
M  V30 1248 H 118.27 2.92595 -0.634716 0
M  V30 1249 H 115.816 1.40696 -0.306681 0
M  V30 1250 H 117.769 3.89855 1.59971 0
M  V30 1251 H 116.493 2.68372 1.86129 0
M  V30 1252 H 115.152 3.66586 -0.0315886 0
M  V30 1253 H 114.8 4.46765 2.31107 0
M  V30 1254 H 114.5 5.76647 1.12925 0
M  V30 1255 H 116.024 5.74748 2.06148 0
M  V30 1256 H 117.438 5.72916 -0.209877 0
M  V30 1257 H 115.835 5.92085 -0.977489 0
M  V30 1258 H 116.905 4.60948 -1.50514 0
M  V30 1259 N 118.248 0.346503 1.53744 0
M  V30 1260 C 119.178 -0.501193 2.28058 0
M  V30 1261 C 120.159 -1.10014 1.29734 0
M  V30 1262 O 121.344 -1.12097 1.58581 0
M  V30 1263 C 118.474 -1.65078 3.05559 0
M  V30 1264 C 117.428 -1.18003 4.11411 0
M  V30 1265 C 116.754 -2.41837 4.76884 0
M  V30 1266 C 118.054 -0.278394 5.21558 0
M  V30 1267 H 119.748 0.11875 2.99164 0
M  V30 1268 H 117.294 0.0585531 1.43881 0
M  V30 1269 H 119.247 -2.25028 3.56287 0
M  V30 1270 H 117.971 -2.29767 2.32109 0
M  V30 1271 H 116.63 -0.603331 3.61601 0
M  V30 1272 H 116.278 -3.0494 4.00026 0
M  V30 1273 H 115.978 -2.1102 5.48402 0
M  V30 1274 H 117.502 -3.02508 5.30397 0
M  V30 1275 H 118.916 -0.784823 5.67903 0
M  V30 1276 H 117.313 -0.0619707 6.00068 0
M  V30 1277 H 118.383 0.684677 4.80042 0
M  V30 1278 N 119.726 -1.57421 0.075193 0
M  V30 1279 C 120.975 -1.92794 -0.592731 0
M  V30 1280 C 121.288 -0.957478 -1.70563 0
M  V30 1281 O 122.494 -1.20417 -2.43335 0
M  V30 1282 C 120.95 -3.42495 -1.10569 0
M  V30 1283 C 120.558 -4.47994 -0.0236121 0
M  V30 1284 C 122.302 -3.86864 -1.74748 0
M  V30 1285 C 120.209 -5.88829 -0.550803 0
M  V30 1286 H 119.139 -0.719591 -0.225177 0
M  V30 1287 H 121.79 -1.82902 0.147978 0
M  V30 1288 H 120.172 -3.47471 -1.89947 0
M  V30 1289 H 121.346 -4.54637 0.751099 0
M  V30 1290 H 119.661 -4.13113 0.522159 0
M  V30 1291 H 122.258 -4.8947 -2.15229 0
M  V30 1292 H 122.601 -3.24417 -2.60882 0
M  V30 1293 H 123.134 -3.84504 -1.01986 0
M  V30 1294 H 119.873 -6.54929 0.273457 0
M  V30 1295 H 119.393 -5.85698 -1.29296 0
M  V30 1296 H 121.072 -6.38811 -1.02613 0
M  V30 1297 N 121.204 0.198386 -1.56346 0
M  V30 1298 C 122.451 0.919286 -1.80431 0
M  V30 1299 C 122.779 1.83393 -0.647866 0
M  V30 1300 O 122.034 1.92236 0.366556 0
M  V30 1301 C 122.333 1.77031 -3.10475 0
M  V30 1302 C 121.999 1.00693 -4.39513 0
M  V30 1303 C 120.661 0.796145 -4.74568 0
M  V30 1304 C 123.013 0.469559 -5.19081 0
M  V30 1305 C 120.341 0.0364588 -5.86689 0
M  V30 1306 C 122.693 -0.2769 -6.31994 0
M  V30 1307 C 121.357 -0.49873 -6.65634 0
M  V30 1308 H 120.627 0.336391 -0.660244 0
M  V30 1309 H 123.274 0.185872 -1.90596 0
M  V30 1310 H 121.579 2.5723 -2.95533 0
M  V30 1311 H 123.276 2.33065 -3.26315 0
M  V30 1312 H 119.866 1.18122 -4.12001 0
M  V30 1313 H 124.05 0.619816 -4.92414 0
M  V30 1314 H 119.306 -0.145412 -6.11227 0
M  V30 1315 H 123.48 -0.700684 -6.92866 0
M  V30 1316 H 121.107 -1.0893 -7.52355 0
M  V30 1317 N 122.682 1.50554 0.465978 0
M  V30 1318 C 123.93 1.61479 1.21528 0
M  V30 1319 C 124.251 0.319596 1.92363 0
M  V30 1320 O 123.521 -0.663194 1.84333 0
M  V30 1321 H 122.101 0.595055 0.451573 0
M  V30 1322 H 124.763 1.87355 0.53704 0
M  V30 1323 H 123.859 2.42846 1.96042 0
M  V30 1324 N 124.16 -0.719506 1.40217 0
M  V30 1325 C 125.388 -1.50864 1.41589 0
M  V30 1326 C 125.803 -1.88794 0.0145275 0
M  V30 1327 O 125.16 -1.55174 -0.960594 0
M  V30 1328 C 125.211 -2.78646 2.30302 0
M  V30 1329 O 124.932 -2.42321 3.64983 0
M  V30 1330 C 126.433 -3.72569 2.40224 0
M  V30 1331 H 123.653 -0.465709 0.48307 0
M  V30 1332 H 126.197 -0.88785 1.84221 0
M  V30 1333 H 124.352 -3.37019 1.91042 0
M  V30 1334 H 124.766 -3.24514 4.12057 0
M  V30 1335 H 126.24 -4.5908 3.06512 0
M  V30 1336 H 126.717 -4.15403 1.42608 0
M  V30 1337 H 127.323 -3.20109 2.80019 0
M  V30 1338 N 125.638 -1.25649 -0.95132 0
M  V30 1339 C 126.571 -1.00644 -2.04807 0
M  V30 1340 C 127.549 0.0654271 -1.62468 0
M  V30 1341 O 128.733 -0.074911 -1.88351 0
M  V30 1342 C 125.86 -0.522052 -3.34653 0
M  V30 1343 C 124.906 -1.58495 -3.95957 0
M  V30 1344 S 125.739 -3.17108 -4.31512 0
M  V30 1345 C 126.895 -2.70412 -5.64471 0
M  V30 1346 H 127.128 -1.93508 -2.25703 0
M  V30 1347 H 124.661 -1.09216 -1.09139 0
M  V30 1348 H 126.619 -0.24923 -4.09743 0
M  V30 1349 H 125.28 0.386146 -3.11717 0
M  V30 1350 H 124.473 -1.1968 -4.89584 0
M  V30 1351 H 124.075 -1.80862 -3.2736 0
M  V30 1352 H 126.367 -2.14245 -6.42733 0
M  V30 1353 H 127.31 -3.62693 -6.08161 0
M  V30 1354 H 127.718 -2.10302 -5.23864 0
M  V30 1355 N 127.117 1.15442 -1.07289 0
M  V30 1356 C 128.345 1.90096 -0.81676 0
M  V30 1357 C 128.76 1.7798 0.629966 0
M  V30 1358 O 128.117 1.1313 1.43206 0
M  V30 1359 C 128.168 3.40466 -1.21512 0
M  V30 1360 O 127.889 3.52232 -2.60508 0
M  V30 1361 C 129.39 4.32145 -0.988198 0
M  V30 1362 H 126.61 0.602495 -0.295366 0
M  V30 1363 H 129.154 1.4627 -1.42918 0
M  V30 1364 H 127.309 3.81958 -0.647039 0
M  V30 1365 H 127.723 4.45549 -2.76742 0
M  V30 1366 H 129.197 5.36072 -1.31645 0
M  V30 1367 H 129.674 4.39135 0.0755063 0
M  V30 1368 H 130.28 3.96395 -1.54115 0
M  V30 1369 N 128.595 0.856903 1.32268 0
M  V30 1370 C 129.872 0.382583 1.91822 0
M  V30 1371 C 130.252 -1.13407 1.78051 0
M  V30 1372 O 129.6 -1.95673 1.18001 0
M  V30 1373 C 129.81 0.849446 3.38505 0
M  V30 1374 C 131.158 0.867936 4.15634 0
M  V30 1375 O 132.182 0.794232 3.47232 0
M  V30 1376 O 131.041 0.972286 5.37781 0
M  V30 1377 H 128.135 0.112014 0.819379 0
M  V30 1378 H 130.681 0.943952 1.41024 0
M  V30 1379 H 129.453 1.89267 3.42482 0
M  V30 1380 H 129.076 0.265652 3.96712 0
M  V30 1381 N 130.073 -1.45103 0.615059 0
M  V30 1382 C 131.319 -2.02483 0.113347 0
M  V30 1383 C 131.652 -1.48146 -1.25564 0
M  V30 1384 O 130.927 -0.659104 -1.82992 0
M  V30 1385 C 131.21 -3.60005 0.0825278 0
M  V30 1386 C 131.063 -4.2466 1.48271 0
M  V30 1387 C 132.382 -4.35972 -0.601401 0
M  V30 1388 H 129.501 -0.735764 0.0426632 0
M  V30 1389 H 132.143 -1.72868 0.788461 0
M  V30 1390 H 130.293 -3.85367 -0.492378 0
M  V30 1391 H 131.965 -4.10458 2.10527 0
M  V30 1392 H 130.208 -3.82772 2.04127 0
M  V30 1393 H 130.879 -5.336 1.41332 0
M  V30 1394 H 133.355 -4.15947 -0.112666 0
M  V30 1395 H 132.231 -5.45697 -0.592097 0
M  V30 1396 H 132.492 -4.09391 -1.66887 0
M  V30 1397 N 131.551 -0.354651 -1.53558 0
M  V30 1398 C 132.798 0.238443 -2.01091 0
M  V30 1399 C 133.126 1.49663 -1.24222 0
M  V30 1400 O 132.381 1.93049 -0.321003 0
M  V30 1401 C 132.68 0.587121 -3.52545 0
M  V30 1402 C 132.346 -0.575472 -4.47213 0
M  V30 1403 C 131.008 -0.894497 -4.72813 0
M  V30 1404 C 133.36 -1.35489 -5.03281 0
M  V30 1405 C 130.688 -1.99511 -5.51736 0
M  V30 1406 C 133.04 -2.44583 -5.83405 0
M  V30 1407 C 131.704 -2.77033 -6.07296 0
M  V30 1408 H 130.974 0.0872526 -0.735845 0
M  V30 1409 H 133.621 -0.484859 -1.8526 0
M  V30 1410 H 131.926 1.39129 -3.66265 0
M  V30 1411 H 133.623 1.05809 -3.86789 0
M  V30 1412 H 130.213 -0.316774 -4.27428 0
M  V30 1413 H 134.397 -1.12167 -4.83459 0
M  V30 1414 H 129.653 -2.25063 -5.68469 0
M  V30 1415 H 133.827 -3.05401 -6.25862 0
M  V30 1416 H 131.454 -3.6244 -6.68237 0
M  V30 1417 N 133.029 1.57378 -0.0835403 0
M  V30 1418 C 134.278 1.93106 0.582498 0
M  V30 1419 C 134.591 0.96651 1.70053 0
M  V30 1420 O 135.797 1.21705 2.42693 0
M  V30 1421 C 134.253 3.43076 1.08751 0
M  V30 1422 C 133.861 4.48 -0.000146404 0
M  V30 1423 C 135.605 3.87785 1.72694 0
M  V30 1424 C 133.512 5.89113 0.519568 0
M  V30 1425 H 132.442 0.720775 0.221358 0
M  V30 1426 H 135.093 1.82821 -0.157675 0
M  V30 1427 H 133.475 3.48474 1.88101 0
M  V30 1428 H 134.649 4.54233 -0.775199 0
M  V30 1429 H 132.964 4.1283 -0.54406 0
M  V30 1430 H 135.561 4.90604 2.1263 0
M  V30 1431 H 135.904 3.25796 2.59158 0
M  V30 1432 H 136.437 3.8504 0.999457 0
M  V30 1433 H 133.176 6.54775 -0.308186 0
M  V30 1434 H 132.696 5.86376 1.26188 0
M  V30 1435 H 134.375 6.39346 0.992237 0
M  V30 1436 N 134.507 -0.190092 1.56449 0
M  V30 1437 C 135.784 -0.935886 1.71757 0
M  V30 1438 C 136.164 -2.01173 0.639726 0
M  V30 1439 O 135.512 -2.25827 -0.348502 0
M  V30 1440 C 135.722 -1.51775 3.1427 0
M  V30 1441 C 137.07 -1.99794 3.74656 0
M  V30 1442 O 138.094 -1.61607 3.1743 0
M  V30 1443 O 136.953 -2.70079 4.751 0
M  V30 1444 H 134.047 -0.439229 0.700719 0
M  V30 1445 H 136.593 -0.179395 1.68749 0
M  V30 1446 H 135.365 -0.742505 3.84191 0
M  V30 1447 H 134.988 -2.33894 3.21527 0
M  V30 1448 N 135.985 -1.50799 -0.457987 0
M  V30 1449 C 137.215 -1.65977 -1.23025 0
M  V30 1450 C 137.623 -0.347918 -1.85974 0
M  V30 1451 O 136.966 0.68148 -1.70592 0
M  V30 1452 C 137.028 -2.70309 -2.3701 0
M  V30 1453 C 136.692 -4.135 -1.94594 0
M  V30 1454 C 137.689 -4.98949 -1.46101 0
M  V30 1455 C 135.374 -4.5949 -2.02915 0
M  V30 1456 C 137.368 -6.28442 -1.06489 0
M  V30 1457 C 135.055 -5.88984 -1.62914 0
M  V30 1458 C 136.053 -6.73286 -1.1478 0
M  V30 1459 O 135.741 -8.00362 -0.75339 0
M  V30 1460 H 135.473 -0.56064 -0.377702 0
M  V30 1461 H 138.027 -1.97857 -0.551537 0
M  V30 1462 H 136.257 -2.337 -3.08093 0
M  V30 1463 H 137.946 -2.74574 -2.98938 0
M  V30 1464 H 138.712 -4.6463 -1.39084 0
M  V30 1465 H 134.591 -3.94009 -2.39328 0
M  V30 1466 H 138.135 -6.94194 -0.688488 0
M  V30 1467 H 134.032 -6.22822 -1.69595 0
M  V30 1468 H 134.8 -8.13744 -0.88108 0
M  V30 1469 N 137.463 0.71206 -1.40597 0
M  V30 1470 C 138.74 1.46536 -1.29563 0
M  V30 1471 C 139.12 2.10931 0.0844217 0
M  V30 1472 O 138.468 2.00418 1.0975 0
M  V30 1473 C 138.678 2.49821 -2.43701 0
M  V30 1474 C 140.026 3.15551 -2.841 0
M  V30 1475 O 141.05 2.60142 -2.4332 0
M  V30 1476 O 139.909 4.15867 -3.54566 0
M  V30 1477 H 137.003 0.651801 -0.509004 0
M  V30 1478 H 139.549 0.743935 -1.52524 0
M  V30 1479 H 138.321 2.00778 -3.35863 0
M  V30 1480 H 137.944 3.29495 -2.22528 0
M  V30 1481 N 138.941 1.26152 0.944643 0
M  V30 1482 C 140.187 1.11657 1.69294 0
M  V30 1483 C 140.52 -0.339926 1.91202 0
M  V30 1484 O 139.795 -1.24994 1.49019 0
M  V30 1485 C 140.078 1.88236 3.06984 0
M  V30 1486 C 139.931 3.41772 2.92424 0
M  V30 1487 C 141.25 1.67343 4.07043 0
M  V30 1488 H 138.369 0.407004 0.614424 0
M  V30 1489 H 141.011 1.55106 1.09737 0
M  V30 1490 H 139.161 1.51308 3.57824 0
M  V30 1491 H 140.833 3.88433 2.48832 0
M  V30 1492 H 139.076 3.68974 2.28124 0
M  V30 1493 H 139.747 3.90579 3.90067 0
M  V30 1494 H 142.223 1.99509 3.65151 0
M  V30 1495 H 141.099 2.23346 5.01406 0
M  V30 1496 H 141.36 0.617158 4.37771 0
M  V30 1497 N 140.419 -1.14872 1.07899 0
M  V30 1498 C 141.329 -2.2341 0.715915 0
M  V30 1499 C 142.345 -1.71808 -0.275306 0
M  V30 1500 O 143.521 -2.01039 -0.120545 0
M  V30 1501 C 140.586 -3.46474 0.125168 0
M  V30 1502 C 139.647 -4.13039 1.17034 0
M  V30 1503 C 138.88 -5.30229 0.607688 0
M  V30 1504 O 139.103 -5.675 -0.574497 0
M  V30 1505 O 138.037 -5.86444 1.35526 0
M  V30 1506 H 141.863 -2.56808 1.62121 0
M  V30 1507 H 139.448 -1.22702 0.852322 0
M  V30 1508 H 141.33 -4.20917 -0.201729 0
M  V30 1509 H 140.005 -3.14811 -0.753364 0
M  V30 1510 H 138.912 -3.40493 1.54968 0
M  V30 1511 H 140.245 -4.48796 2.02097 0
M  V30 1512 N 141.898 -0.863906 -1.31812 0
M  V30 1513 C 142.828 -0.330843 -2.31144 0
M  V30 1514 C 143.809 0.575005 -1.60087 0
M  V30 1515 O 144.994 0.493304 -1.8783 0
M  V30 1516 C 142.124 0.47374 -3.44054 0
M  V30 1517 C 141.078 -0.338481 -4.26659 0
M  V30 1518 C 140.404 0.591412 -5.31419 0
M  V30 1519 C 141.704 -1.56926 -4.98168 0
M  V30 1520 H 143.398 -1.16086 -2.75979 0
M  V30 1521 H 140.944 -0.559657 -1.32679 0
M  V30 1522 H 142.897 0.857143 -4.12591 0
M  V30 1523 H 141.621 1.33721 -2.9797 0
M  V30 1524 H 140.28 -0.703754 -3.59782 0
M  V30 1525 H 139.928 1.45199 -4.81587 0
M  V30 1526 H 139.628 0.0519022 -5.87577 0
M  V30 1527 H 141.152 0.97179 -6.02817 0
M  V30 1528 H 142.566 -1.25764 -5.59336 0
M  V30 1529 H 140.963 -2.04739 -5.64094 0
M  V30 1530 H 142.033 -2.32544 -4.25501 0
M  V30 1531 N 143.376 1.44774 -0.622745 0
M  V30 1532 C 144.308 2.28856 0.125485 0
M  V30 1533 C 145.321 1.40811 0.817069 0
M  V30 1534 O 146.51 1.65044 0.679918 0
M  V30 1535 C 143.61 3.16963 1.19949 0
M  V30 1536 C 142.783 4.33374 0.592064 0
M  V30 1537 C 141.842 5.02577 1.55893 0
M  V30 1538 O 140.868 5.58873 1.07933 0
M  V30 1539 N 142.07 5.03256 2.89334 0
M  V30 1540 H 144.835 2.93713 -0.596068 0
M  V30 1541 H 142.396 1.55129 -0.463303 0
M  V30 1542 H 144.388 3.60123 1.84644 0
M  V30 1543 H 142.958 2.53913 1.82337 0
M  V30 1544 H 142.178 3.93509 -0.233322 0
M  V30 1545 H 143.466 5.08527 0.166738 0
M  V30 1546 H 142.864 4.58836 3.30887 0
M  V30 1547 H 141.421 5.50232 3.49412 0
M  V30 1548 N 144.854 0.36279 1.53368 0
M  V30 1549 C 145.764 -0.492994 2.29362 0
M  V30 1550 C 146.78 -1.09507 1.35219 0
M  V30 1551 O 147.956 -1.10662 1.68273 0
M  V30 1552 C 145.021 -1.61855 3.066 0
M  V30 1553 C 144.082 -1.04429 4.16405 0
M  V30 1554 C 143.315 -2.11621 4.89951 0
M  V30 1555 O 143.538 -3.32684 4.63333 0
M  V30 1556 O 142.472 -1.74835 5.75948 0
M  V30 1557 H 146.298 0.125331 3.03441 0
M  V30 1558 H 143.883 0.127253 1.48857 0
M  V30 1559 H 145.765 -2.27302 3.54841 0
M  V30 1560 H 144.44 -2.22233 2.3536 0
M  V30 1561 H 143.347 -0.353819 3.72423 0
M  V30 1562 H 144.68 -0.485113 4.89804 0
M  V30 1563 N 146.332 -1.57332 0.0918853 0
M  V30 1564 C 147.262 -2.16872 -0.865371 0
M  V30 1565 C 148.243 -1.10118 -1.29646 0
M  V30 1566 O 149.428 -1.38242 -1.36392 0
M  V30 1567 C 146.558 -2.74649 -2.12569 0
M  V30 1568 C 145.512 -3.86747 -1.83333 0
M  V30 1569 C 144.838 -4.31212 -3.16166 0
M  V30 1570 C 146.138 -5.10089 -1.1228 0
M  V30 1571 H 147.832 -2.97114 -0.369307 0
M  V30 1572 H 145.378 -1.42918 -0.176194 0
M  V30 1573 H 147.331 -3.14952 -2.7997 0
M  V30 1574 H 146.055 -1.91657 -2.64452 0
M  V30 1575 H 144.714 -3.46978 -1.18331 0
M  V30 1576 H 144.362 -3.45115 -3.6593 0
M  V30 1577 H 144.062 -5.06788 -2.97388 0
M  V30 1578 H 145.586 -4.74146 -3.84731 0
M  V30 1579 H 147 -5.47582 -1.69785 0
M  V30 1580 H 145.397 -5.91073 -1.03693 0
M  V30 1581 H 146.467 -4.84786 -0.105041 0
M  V30 1582 N 147.81 0.181792 -1.56548 0
M  V30 1583 C 148.742 1.24956 -1.92142 0
M  V30 1584 C 149.755 1.41022 -0.813422 0
M  V30 1585 O 150.944 1.41212 -1.09186 0
M  V30 1586 C 148.044 2.61981 -2.14987 0
M  V30 1587 C 147.217 2.6735 -3.46183 0
M  V30 1588 C 146.276 3.85664 -3.5798 0
M  V30 1589 O 145.302 3.72148 -4.30691 0
M  V30 1590 N 146.504 5.01683 -2.92053 0
M  V30 1591 H 149.269 0.947329 -2.84334 0
M  V30 1592 H 146.83 0.371629 -1.57577 0
M  V30 1593 H 148.822 3.3958 -2.20154 0
M  V30 1594 H 147.392 2.84637 -1.2923 0
M  V30 1595 H 146.612 1.75925 -3.52766 0
M  V30 1596 H 147.9 2.67939 -4.32534 0
M  V30 1597 H 147.298 5.15564 -2.32832 0
M  V30 1598 H 145.855 5.77181 -3.0283 0
M  V30 1599 N 149.288 1.51039 0.449983 0
M  V30 1600 C 150.537 1.62317 1.19733 0
M  V30 1601 C 150.85 0.339101 1.92638 0
M  V30 1602 O 152.056 0.331069 2.69474 0
M  V30 1603 C 150.512 2.86608 2.17678 0
M  V30 1604 C 150.12 4.21972 1.50479 0
M  V30 1605 C 151.864 3.07239 2.92924 0
M  V30 1606 C 149.771 5.37426 2.46834 0
M  V30 1607 H 148.701 0.604532 0.450619 0
M  V30 1608 H 151.352 1.77494 0.465625 0
M  V30 1609 H 149.734 2.65037 2.94231 0
M  V30 1610 H 150.908 4.53878 0.795716 0
M  V30 1611 H 149.223 4.07117 0.874344 0
M  V30 1612 H 151.82 3.90668 3.65079 0
M  V30 1613 H 152.163 2.19807 3.5354 0
M  V30 1614 H 152.696 3.29091 2.23481 0
M  V30 1615 H 149.435 6.27079 1.90926 0
M  V30 1616 H 148.955 5.09912 3.15832 0
M  V30 1617 H 150.634 5.68862 3.08228 0
M  V30 1618 N 150.766 -0.704594 1.40972 0
M  V30 1619 C 152.177 -1.28418 1.3552 0
M  V30 1620 C 152.528 -1.96171 0.0339434 0
M  V30 1621 O 151.653 -1.98231 -0.867944 0
M  V30 1622 C 152.248 -2.33528 2.45459 0
M  V30 1623 C 150.807 -2.87085 2.43433 0
M  V30 1624 C 149.954 -1.61007 2.2577 0
M  V30 1625 H 152.905 -0.499963 1.50619 0
M  V30 1626 H 152.926 -3.14619 2.13998 0
M  V30 1627 H 152.438 -1.84187 3.41609 0
M  V30 1628 H 150.539 -3.40626 1.51013 0
M  V30 1629 H 150.652 -3.3813 3.39419 0
M  V30 1630 H 149.016 -1.86482 1.73483 0
M  V30 1631 H 149.799 -1.13675 3.23933 0
M  V30 1632 N 152.244 -1.26651 -0.937939 0
M  V30 1633 C 153.492 -1.12165 -1.68118 0
M  V30 1634 C 153.813 0.334983 -1.92101 0
M  V30 1635 O 153.083 1.23583 -1.52 0
M  V30 1636 H 151.663 -0.412093 -0.623048 0
M  V30 1637 H 154.325 -1.59027 -1.12678 0
M  V30 1638 H 153.421 -1.64289 -2.6536 0
M  V30 1639 N 153.722 1.14298 -1.08507 0
M  V30 1640 C 154.669 2.19414 -0.715965 0
M  V30 1641 C 155.639 1.63399 0.298326 0
M  V30 1642 O 156.824 1.89929 0.182101 0
M  V30 1643 C 153.964 3.44845 -0.132534 0
M  V30 1644 C 153.077 4.15007 -1.19973 0
M  V30 1645 C 152.212 5.28024 -0.580048 0
M  V30 1646 C 151.251 5.9002 -1.62921 0
M  V30 1647 N 150.388 6.94485 -1.03125 0
M  V30 1648 H 155.228 2.50336 -1.61666 0
M  V30 1649 H 152.765 1.2293 -0.807882 0
M  V30 1650 H 154.723 4.16601 0.223454 0
M  V30 1651 H 153.353 3.14403 0.731467 0
M  V30 1652 H 152.405 3.41629 -1.67313 0
M  V30 1653 H 153.717 4.57178 -1.99473 0
M  V30 1654 H 152.871 6.06455 -0.172364 0
M  V30 1655 H 151.61 4.87076 0.246603 0
M  V30 1656 H 150.615 5.10291 -2.04654 0
M  V30 1657 H 151.84 6.33042 -2.45835 0
M  V30 1658 H 149.786 6.55612 -0.225711 0
M  V30 1659 H 149.703 7.35148 -1.76334 0
M  V30 1660 H 150.971 7.7679 -0.649458 0
M  V30 1661 N 155.201 0.870884 1.31352 0
M  V30 1662 C 156.164 0.332243 2.26779 0
M  V30 1663 C 157.164 -0.517302 1.52252 0
M  V30 1664 O 158.354 -0.326477 1.71113 0
M  V30 1665 C 155.486 -0.528066 3.36785 0
M  V30 1666 H 156.679 1.17469 2.75937 0
M  V30 1667 H 154.232 0.64655 1.423 0
M  V30 1668 H 154.967 -1.39167 2.92922 0
M  V30 1669 H 154.752 0.0802582 3.92018 0
M  V30 1670 H 156.242 -0.897179 4.07849 0
M  V30 1671 N 156.679 -1.44442 0.630414 0
M  V30 1672 C 157.919 -2.03934 0.137919 0
M  V30 1673 C 158.283 -1.48509 -1.21692 0
M  V30 1674 O 159.484 -1.99499 -1.80149 0
M  V30 1675 C 157.755 -3.57187 0.123373 0
M  V30 1676 S 159.314 -4.37741 -0.304604 0
M  V30 1677 H 156.132 -0.708401 0.0607353 0
M  V30 1678 H 158.734 -1.76835 0.833643 0
M  V30 1679 H 157.438 -3.95032 1.11256 0
M  V30 1680 H 156.969 -3.88895 -0.59362 0
M  V30 1681 H 158.984 -4.71403 -1.54897 0
M  V30 1682 N 158.157 -0.370918 -1.53173 0
M  V30 1683 C 159.403 0.217423 -2.01631 0
M  V30 1684 C 159.736 1.47983 -1.25756 0
M  V30 1685 O 159.011 1.91274 -0.352764 0
M  V30 1686 C 159.294 0.503982 -3.56556 0
M  V30 1687 C 159.147 -0.77243 -4.43118 0
M  V30 1688 C 160.466 1.30234 -4.20389 0
M  V30 1689 H 157.585 0.0775486 -0.732909 0
M  V30 1690 H 160.227 -0.496863 -1.83388 0
M  V30 1691 H 158.377 1.11248 -3.72231 0
M  V30 1692 H 160.049 -1.4098 -4.39229 0
M  V30 1693 H 158.292 -1.39167 -4.10871 0
M  V30 1694 H 158.963 -0.526815 -5.4948 0
M  V30 1695 H 161.439 0.787546 -4.08579 0
M  V30 1696 H 160.315 1.47158 -5.28806 0
M  V30 1697 H 160.576 2.31237 -3.76805 0
M  V30 1698 N 159.635 1.57281 -0.100228 0
M  V30 1699 C 160.583 2.15542 0.874328 0
M  V30 1700 C 161.577 1.09962 1.28859 0
M  V30 1701 O 162.783 1.28298 1.26252 0
M  V30 1702 H 159.158 0.689567 0.300003 0
M  V30 1703 H 161.129 2.96241 0.35829 0
M  V30 1704 C 159.878 2.75454 2.1218 0
M  V30 1705 H 159.201 3.56384 1.81193 0
M  V30 1706 H 160.641 3.19781 2.78417 0
M  V30 1707 C 159.1 1.71602 2.89921 0
M  V30 1708 O 159.63 1.15804 3.84646 0
M  V30 1709 N 157.836 1.41975 2.53558 0
M  V30 1710 H 157.383 1.87539 1.76598 0
M  V30 1711 H 157.341 0.727274 3.05873 0
M  V30 1712 N 161.113 -0.173488 1.56642 0
M  V30 1713 C 162.061 -1.23417 1.97157 0
M  V30 1714 C 163.055 -1.45946 0.860013 0
M  V30 1715 O 164.261 -1.46551 1.04512 0
M  V30 1716 H 160.636 -0.414818 0.62724 0
M  V30 1717 H 162.607 -0.865582 2.8557 0
M  V30 1718 C 161.356 -2.5665 2.34576 0
M  V30 1719 H 160.679 -2.40137 3.19647 0
M  V30 1720 H 162.119 -3.2956 2.6677 0
M  V30 1721 C 160.578 -3.15245 1.18836 0
M  V30 1722 O 161.108 -3.98883 0.474869 0
M  V30 1723 N 159.314 -2.74303 0.959497 0
M  V30 1724 H 158.861 -2.0639 1.54146 0
M  V30 1725 H 158.819 -3.13844 0.186932 0
M  V30 1726 N 162.591 -1.51276 -0.441967 0
M  V30 1727 C 163.819 -1.67516 -1.21434 0
M  V30 1728 C 164.234 -0.37055 -1.85128 0
M  V30 1729 O 163.591 0.650498 -1.70513 0
M  V30 1730 C 163.642 -2.78748 -2.30177 0
M  V30 1731 O 163.363 -4.04154 -1.69089 0
M  V30 1732 C 164.864 -3.06217 -3.20541 0
M  V30 1733 H 162.084 -0.562276 -0.366178 0
M  V30 1734 H 164.628 -1.97666 -0.524244 0
M  V30 1735 H 162.783 -2.5121 -2.94911 0
M  V30 1736 H 163.197 -4.65894 -2.40922 0
M  V30 1737 H 164.671 -3.8764 -3.92987 0
M  V30 1738 H 165.148 -2.18439 -3.81026 0
M  V30 1739 H 165.754 -3.35397 -2.61513 0
M  V30 1740 N 164.069 0.697108 -1.41344 0
M  V30 1741 C 165.318 1.45279 -1.39918 0
M  V30 1742 C 165.631 1.95597 -0.0109624 0
M  V30 1743 O 166.837 2.71208 0.125919 0
M  V30 1744 C 165.293 2.62695 -2.46007 0
M  V30 1745 C 164.901 2.19169 -3.90729 0
M  V30 1746 C 166.645 3.40336 -2.53715 0
M  V30 1747 C 164.552 3.33535 -4.88373 0
M  V30 1748 H 163.482 0.545692 -0.520323 0
M  V30 1749 H 166.133 0.756929 -1.67161 0
M  V30 1750 H 164.515 3.34541 -2.11892 0
M  V30 1751 H 165.689 1.54623 -4.34083 0
M  V30 1752 H 164.004 1.54525 -3.86666 0
M  V30 1753 H 166.601 4.2547 -3.2385 0
M  V30 1754 H 166.944 3.85418 -1.5735 0
M  V30 1755 H 167.477 2.75546 -2.86913 0
M  V30 1756 H 164.216 2.93468 -5.86137 0
M  V30 1757 H 163.736 3.96936 -4.49668 0
M  V30 1758 H 165.415 3.99335 -5.09059 0
M  V30 1759 N 165.547 1.27147 0.931209 0
M  V30 1760 C 166.793 1.13446 1.68101 0
M  V30 1761 C 167.126 -0.319628 1.91552 0
M  V30 1762 O 166.401 -1.23407 1.50336 0
M  V30 1763 C 166.684 1.91482 3.0497 0
M  V30 1764 C 166.537 3.44855 2.88782 0
M  V30 1765 C 167.856 1.71651 4.05246 0
M  V30 1766 H 164.975 0.413498 0.610072 0
M  V30 1767 H 167.617 1.56261 1.08086 0
M  V30 1768 H 165.767 1.55095 3.56199 0
M  V30 1769 H 167.439 3.9105 2.44698 0
M  V30 1770 H 165.682 3.71373 2.24198 0
M  V30 1771 H 166.353 3.94694 3.85902 0
M  V30 1772 H 168.829 2.0337 3.63015 0
M  V30 1773 H 167.705 2.28651 4.99009 0
M  V30 1774 H 167.966 0.663555 4.37092 0
M  V30 1775 N 167.025 -1.13721 1.09112 0
M  V30 1776 C 168.271 -1.85413 0.836283 0
M  V30 1777 C 168.626 -1.8175 -0.631249 0
M  V30 1778 O 167.919 -1.24238 -1.45861 0
M  V30 1779 C 168.113 -3.32861 1.30146 0
M  V30 1780 C 167.942 -3.50882 2.81268 0
M  V30 1781 C 166.712 -3.65312 3.49106 0
M  V30 1782 C 168.91 -3.47196 3.7942 0
M  V30 1783 N 166.892 -3.71563 4.88686 0
M  V30 1784 C 168.263 -3.59777 5.04936 0
M  V30 1785 C 170.318 -3.30577 3.72321 0
M  V30 1786 C 169.021 -3.57455 6.24194 0
M  V30 1787 C 171.047 -3.29562 4.91063 0
M  V30 1788 C 170.409 -3.42691 6.15421 0
M  V30 1789 H 166.508 -0.694812 0.358832 0
M  V30 1790 H 169.092 -1.36246 1.39087 0
M  V30 1791 H 167.263 -3.80602 0.774361 0
M  V30 1792 H 168.995 -3.92346 0.99229 0
M  V30 1793 H 165.75 -3.6685 2.9953 0
M  V30 1794 H 166.174 -3.78387 5.61384 0
M  V30 1795 H 170.816 -3.19332 2.77105 0
M  V30 1796 H 168.534 -3.67475 7.19714 0
M  V30 1797 H 172.12 -3.17905 4.87266 0
M  V30 1798 H 171 -3.41862 7.05762 0
M  V30 1799 N 168.503 -0.877838 -1.30888 0
M  V30 1800 C 169.731 -0.507414 -2.00581 0
M  V30 1801 C 170.146 0.902216 -1.65848 0
M  V30 1802 O 169.503 1.59225 -0.891831 0
M  V30 1803 C 169.554 -0.664162 -3.55347 0
M  V30 1804 O 169.275 -2.01829 -3.8884 0
M  V30 1805 C 170.776 -0.295787 -4.42312 0
M  V30 1806 H 167.996 -0.196866 -0.641471 0
M  V30 1807 H 170.54 -1.18117 -1.66939 0
M  V30 1808 H 168.695 -0.0378619 -3.87381 0
M  V30 1809 H 169.109 -2.03174 -4.8355 0
M  V30 1810 H 170.583 -0.456388 -5.5011 0
M  V30 1811 H 171.06 0.765663 -4.32475 0
M  V30 1812 H 171.666 -0.898113 -4.15709 0
M  V30 1813 N 169.982 1.44106 -0.638065 0
M  V30 1814 C 170.93 2.3248 0.0748149 0
M  V30 1815 C 171.924 1.47746 0.828702 0
M  V30 1816 O 173.13 1.64049 0.740816 0
M  V30 1817 H 169.505 0.750771 0.0429686 0
M  V30 1818 H 171.476 2.90348 -0.688504 0
M  V30 1819 C 170.225 3.31843 1.03805 0
M  V30 1820 H 169.548 3.97059 0.467375 0
M  V30 1821 H 170.988 3.96345 1.50622 0
M  V30 1822 C 169.447 2.61291 2.1267 0
M  V30 1823 O 169.977 2.41702 3.20847 0
M  V30 1824 N 168.183 2.20915 1.88798 0
M  V30 1825 H 167.73 2.37047 1.00829 0
M  V30 1826 H 167.688 1.74038 2.61836 0
M  V30 1827 N 171.46 0.379036 1.52974 0
M  V30 1828 C 172.685 -0.209353 2.06341 0
M  V30 1829 C 173.11 -1.40583 1.24972 0
M  V30 1830 O 172.468 -1.79246 0.272155 0
M  V30 1831 C 172.516 -0.567786 3.56102 0
M  V30 1832 O 171.62 -1.66318 3.77375 0
M  V30 1833 H 170.961 -0.0272919 0.663439 0
M  V30 1834 H 173.491 0.543536 1.97248 0
M  V30 1835 H 173.501 -0.835003 3.99364 0
M  V30 1836 H 172.176 0.307013 4.14765 0
M  V30 1837 H 170.753 -1.39048 3.46006 0
M  V30 1838 N 172.938 -1.57226 0.108567 0
M  V30 1839 C 174.163 -1.99604 -0.563303 0
M  V30 1840 C 174.588 -0.987563 -1.6009 0
M  V30 1841 O 173.946 0.0421687 -1.81251 0
M  V30 1842 C 173.994 -3.40902 -1.17552 0
M  V30 1843 O 173.098 -3.42896 -2.2912 0
M  V30 1844 H 172.439 -0.648704 -0.1417 0
M  V30 1845 H 174.969 -2.03679 0.193961 0
M  V30 1846 H 174.979 -3.78886 -1.51357 0
M  V30 1847 H 173.654 -4.1382 -0.415445 0
M  V30 1848 H 172.231 -3.1672 -1.96832 0
M  V30 1849 N 174.416 0.165178 -1.56732 0
M  V30 1850 C 175.346 1.20651 -1.99914 0
M  V30 1851 C 176.327 1.45827 -0.875705 0
M  V30 1852 O 177.512 1.57057 -1.14223 0
M  V30 1853 C 174.642 2.54401 -2.36427 0
M  V30 1854 C 173.596 2.43782 -3.51787 0
M  V30 1855 C 172.922 3.82078 -3.7406 0
M  V30 1856 C 174.222 1.93732 -4.85041 0
M  V30 1857 H 175.916 0.847534 -2.87154 0
M  V30 1858 H 173.462 0.40625 -1.38151 0
M  V30 1859 H 175.415 3.27458 -2.65234 0
M  V30 1860 H 174.139 2.92098 -1.46103 0
M  V30 1861 H 172.798 1.73178 -3.23117 0
M  V30 1862 H 172.446 4.17179 -2.81017 0
M  V30 1863 H 172.146 3.7584 -4.51684 0
M  V30 1864 H 173.67 4.56712 -4.05274 0
M  V30 1865 H 175.084 2.56569 -5.12684 0
M  V30 1866 H 173.481 1.98428 -5.66345 0
M  V30 1867 H 174.551 0.891962 -4.76626 0
M  V30 1868 N 175.894 1.51508 0.433938 0
M  V30 1869 C 176.842 1.73646 1.54757 0
M  V30 1870 C 177.836 0.602854 1.5831 0
M  V30 1871 O 179.042 0.784318 1.62014 0
M  V30 1872 H 175.417 0.548718 0.51421 0
M  V30 1873 H 177.388 2.66991 1.33261 0
M  V30 1874 C 176.137 1.88172 2.92381 0
M  V30 1875 H 175.46 2.74808 2.90381 0
M  V30 1876 H 176.9 2.07672 3.6966 0
M  V30 1877 C 175.359 0.64239 3.30719 0
M  V30 1878 O 175.889 -0.201362 4.01195 0
M  V30 1879 N 174.095 0.485489 2.86516 0
M  V30 1880 H 173.642 1.17318 2.29334 0
M  V30 1881 H 173.6 -0.342482 3.12529 0
M  V30 1882 N 177.372 -0.689602 1.41712 0
M  V30 1883 C 178.304 -1.815 1.39966 0
M  V30 1884 C 179.317 -1.59995 0.300917 0
M  V30 1885 O 180.506 -1.69387 0.563039 0
M  V30 1886 C 177.606 -3.18364 1.16179 0
M  V30 1887 C 176.779 -3.66847 2.38206 0
M  V30 1888 C 175.838 -4.82398 2.10186 0
M  V30 1889 O 174.864 -4.93706 2.83272 0
M  V30 1890 N 176.066 -5.70064 1.0958 0
M  V30 1891 H 178.831 -1.83488 2.36965 0
M  V30 1892 H 176.392 -0.872149 1.36401 0
M  V30 1893 H 178.384 -3.93301 0.953756 0
M  V30 1894 H 176.954 -3.11365 0.27756 0
M  V30 1895 H 176.174 -2.82751 2.74673 0
M  V30 1896 H 177.462 -3.95978 3.19498 0
M  V30 1897 H 176.86 -5.63565 0.491019 0
M  V30 1898 H 175.417 -6.44874 0.947656 0
M  V30 1899 N 178.85 -1.27639 -0.924453 0
M  V30 1900 C 179.798 -1.10485 -2.04685 0
M  V30 1901 C 180.792 -0.0270421 -1.69378 0
M  V30 1902 O 181.998 -0.185008 -1.79047 0
M  V30 1903 H 178.373 -0.340546 -0.670472 0
M  V30 1904 H 180.344 -2.05566 -2.16298 0
M  V30 1905 C 179.093 -0.772229 -3.39016 0
M  V30 1906 H 178.416 -1.59351 -3.66671 0
M  V30 1907 H 179.856 -0.692097 -4.18313 0
M  V30 1908 C 178.315 0.523554 -3.32807 0
M  V30 1909 O 178.845 1.55702 -3.70297 0
M  V30 1910 N 177.051 0.520363 -2.85903 0
M  V30 1911 H 176.598 -0.32107 -2.55591 0
M  V30 1912 H 176.556 1.38742 -2.82131 0
M  V30 1913 N 180.328 1.1314 -1.09713 0
M  V30 1914 C 181.261 2.17735 -0.683137 0
M  V30 1915 C 182.239 1.59582 0.311841 0
M  V30 1916 O 183.423 1.87298 0.212514 0
M  V30 1917 C 180.55 3.38699 -0.00684324 0
M  V30 1918 C 179.596 4.1546 -0.964102 0
M  V30 1919 S 180.429 4.74733 -2.47767 0
M  V30 1920 C 181.585 5.9904 -1.81387 0
M  V30 1921 H 181.818 2.52515 -1.56918 0
M  V30 1922 H 179.351 1.24484 -0.913404 0
M  V30 1923 H 181.309 4.08765 0.377044 0
M  V30 1924 H 179.97 3.02214 0.85589 0
M  V30 1925 H 179.163 5.02093 -0.43803 0
M  V30 1926 H 178.765 3.51066 -1.28953 0
M  V30 1927 H 181.057 6.67846 -1.13967 0
M  V30 1928 H 182 6.56261 -2.65947 0
M  V30 1929 H 182.408 5.4976 -1.28155 0
M  V30 1930 N 181.806 0.884767 1.30421 0
M  V30 1931 C 183.034 0.518044 2.0031 0
M  V30 1932 C 183.449 -0.893408 1.66324 0
M  V30 1933 O 182.806 -1.5875 0.900262 0
M  V30 1934 C 182.857 0.682997 3.54989 0
M  V30 1935 O 182.578 2.03888 3.87764 0
M  V30 1936 C 184.079 0.31924 4.42149 0
M  V30 1937 H 181.299 0.200265 0.640418 0
M  V30 1938 H 183.843 1.19001 1.6631 0
M  V30 1939 H 181.998 0.0584052 3.87356 0
M  V30 1940 H 182.412 2.05735 4.82466 0
M  V30 1941 H 183.886 0.485555 5.4986 0
M  V30 1942 H 184.363 -0.742717 4.32875 0
M  V30 1943 H 184.969 0.920147 4.15227 0
M  V30 1944 N 183.284 -1.43765 0.645699 0
M  V30 1945 C 184.232 -2.32516 -0.0624849 0
M  V30 1946 C 185.226 -1.48183 -0.820855 0
M  V30 1947 O 186.432 -1.64439 -0.732106 0
M  V30 1948 H 182.807 -0.750989 -0.0389864 0
M  V30 1949 H 184.778 -2.89979 0.703892 0
M  V30 1950 C 183.527 -3.32389 -1.02044 0
M  V30 1951 H 182.85 -3.97301 -0.446312 0
M  V30 1952 H 184.29 -3.97138 -1.48517 0
M  V30 1953 C 182.749 -2.62416 -2.11281 0
M  V30 1954 O 183.279 -2.434 -3.19561 0
M  V30 1955 N 181.485 -2.21913 -1.87624 0
M  V30 1956 H 181.032 -2.37578 -0.995703 0
M  V30 1957 H 180.99 -1.75424 -2.6091 0
M  V30 1958 N 184.763 -0.387143 -1.52771 0
M  V30 1959 C 186.011 0.195349 -2.01154 0
M  V30 1960 C 186.332 1.475 -1.27549 0
M  V30 1961 O 185.602 1.91878 -0.394924 0
M  V30 1962 H 184.182 0.075178 -0.743207 0
M  V30 1963 H 186.844 -0.518337 -1.87881 0
M  V30 1964 H 185.94 0.407096 -3.09434 0
M  V30 1965 N 186.241 1.57166 -0.116904 0
M  V30 1966 C 187.469 1.99473 0.549383 0
M  V30 1967 C 187.884 0.996541 1.60357 0
M  V30 1968 O 187.241 -0.0108731 1.82497 0
M  V30 1969 C 187.292 3.41788 1.17741 0
M  V30 1970 O 187.013 4.37788 0.165362 0
M  V30 1971 C 188.514 3.99216 1.92722 0
M  V30 1972 H 185.734 0.655009 0.145616 0
M  V30 1973 H 188.278 2.03494 -0.202625 0
M  V30 1974 H 186.433 3.38713 1.88021 0
M  V30 1975 H 186.847 5.20806 0.621403 0
M  V30 1976 H 188.321 5.00882 2.31995 0
M  V30 1977 H 188.798 3.3824 2.80161 0
M  V30 1978 H 189.404 4.0583 1.27209 0
M  V30 1979 N 187.719 -0.156864 1.56817 0
M  V30 1980 C 189.135 -0.50916 1.5126 0
M  V30 1981 C 189.335 -1.83897 0.823658 0
M  V30 1982 O 188.391 -2.49469 0.390055 0
M  V30 1983 C 189.704 -0.52857 2.96018 0
M  V30 1984 C 191.252 -0.614771 3.06903 0
M  V30 1985 C 191.727 -0.664938 4.53147 0
M  V30 1986 N 193.218 -0.727433 4.57452 0
M  V30 1987 C 193.953 -0.787067 5.67973 0
M  V30 1988 N 193.449 -0.806649 6.88088 0
M  V30 1989 N 195.242 -0.827195 5.5598 0
M  V30 1990 H 187.393 0.714935 2.00006 0
M  V30 1991 H 189.656 0.259526 0.911784 0
M  V30 1992 H 189.362 0.380154 3.49639 0
M  V30 1993 H 189.236 -1.36998 3.51442 0
M  V30 1994 H 191.623 -1.51392 2.53307 0
M  V30 1995 H 191.704 0.253597 2.5454 0
M  V30 1996 H 191.348 0.230011 5.07379 0
M  V30 1997 H 191.278 -1.54966 5.03282 0
M  V30 1998 H 193.769 -0.719998 3.70978 0
M  V30 1999 H 194.082 -0.853727 7.6807 0
M  V30 2000 H 192.427 -0.774687 6.90669 0
M  V30 2001 H 195.618 -0.808998 4.61056 0
M  V30 2002 H 195.791 -0.870206 6.4213 0
M  V30 2003 N 189.197 -1.51736 -0.425897 0
M  V30 2004 C 190.437 -1.66636 -1.18371 0
M  V30 2005 C 190.801 -0.379854 -1.88205 0
M  V30 2006 O 192.002 -0.404758 -2.65735 0
M  V30 2007 C 190.273 -2.84382 -2.16476 0
M  V30 2008 S 191.832 -3.19673 -3.0059 0
M  V30 2009 H 188.65 -0.586957 -0.40125 0
M  V30 2010 H 191.252 -1.89679 -0.473518 0
M  V30 2011 H 189.956 -3.76281 -1.63831 0
M  V30 2012 H 189.487 -2.63562 -2.92059 0
M  V30 2013 H 191.502 -2.66994 -4.18245 0
M  V30 2014 N 190.675 0.682077 -1.42076 0
M  V30 2015 C 191.923 1.4393 -1.41876 0
M  V30 2016 C 192.244 1.94971 -0.0335599 0
M  V30 2017 O 191.514 1.72591 0.926773 0
M  V30 2018 H 190.094 0.534085 -0.522267 0
M  V30 2019 H 192.756 0.806427 -1.77434 0
M  V30 2020 H 191.852 2.29588 -2.11414 0
M  V30 2021 N 192.153 1.28127 0.917671 0
M  V30 2022 C 193.083 1.14248 2.03641 0
M  V30 2023 C 194.064 0.0412748 1.7005 0
M  V30 2024 O 195.249 0.217566 1.92977 0
M  V30 2025 C 192.379 0.799431 3.37974 0
M  V30 2026 C 191.333 1.85497 3.85713 0
M  V30 2027 C 190.659 1.36565 5.16966 0
M  V30 2028 C 191.959 3.26085 4.08002 0
M  V30 2029 H 193.653 2.07835 2.15511 0
M  V30 2030 H 191.199 1.00064 1.03553 0
M  V30 2031 H 193.152 0.689114 4.15727 0
M  V30 2032 H 191.876 -0.172145 3.26146 0
M  V30 2033 H 190.535 1.95437 3.10161 0
M  V30 2034 H 190.183 0.383253 5.01538 0
M  V30 2035 H 189.883 2.07143 5.49878 0
M  V30 2036 H 191.407 1.26848 5.97279 0
M  V30 2037 H 192.821 3.19089 4.76293 0
M  V30 2038 H 191.218 3.94462 4.52238 0
M  V30 2039 H 192.288 3.70394 3.12948 0
M  V30 2040 N 193.631 -1.12557 1.10312 0
M  V30 2041 C 194.561 -2.20341 0.772798 0
M  V30 2042 C 195.542 -1.68198 -0.25365 0
M  V30 2043 O 196.727 -1.93831 -0.119699 0
M  V30 2044 C 193.857 -3.46709 0.202443 0
M  V30 2045 C 192.811 -4.11996 1.15943 0
M  V30 2046 C 192.137 -5.328 0.450345 0
M  V30 2047 C 193.437 -4.5828 2.50552 0
M  V30 2048 H 195.131 -2.48229 1.674 0
M  V30 2049 H 192.677 -1.19308 0.806326 0
M  V30 2050 H 194.63 -4.2138 -0.0407752 0
M  V30 2051 H 193.354 -3.18245 -0.734001 0
M  V30 2052 H 192.013 -3.39305 1.38808 0
M  V30 2053 H 191.661 -5.00602 -0.490531 0
M  V30 2054 H 191.361 -5.7743 1.08851 0
M  V30 2055 H 192.885 -6.10219 0.215642 0
M  V30 2056 H 194.299 -5.2433 2.31843 0
M  V30 2057 H 192.696 -5.13683 3.10242 0
M  V30 2058 H 193.766 -3.72329 3.10643 0
M  V30 2059 N 195.109 -0.891671 -1.2995 0
M  V30 2060 C 196.057 -0.353066 -2.29905 0
M  V30 2061 C 197.051 0.543509 -1.60444 0
M  V30 2062 O 198.257 0.4272 -1.74857 0
M  V30 2063 H 194.632 -0.095531 -0.745907 0
M  V30 2064 H 196.603 -1.20961 -2.72784 0
M  V30 2065 C 195.352 0.411475 -3.45257 0
M  V30 2066 H 194.675 -0.269182 -3.98893 0
M  V30 2067 H 196.115 0.753328 -4.17254 0
M  V30 2068 C 194.574 1.6111 -2.9588 0
M  V30 2069 O 195.104 2.71045 -2.96475 0
M  V30 2070 N 193.31 1.45054 -2.51809 0
M  V30 2071 H 192.857 0.556175 -2.51524 0
M  V30 2072 H 192.815 2.25453 -2.1913 0
M  V30 2073 N 196.587 1.43421 -0.653314 0
M  V30 2074 C 197.836 2.01032 -0.164076 0
M  V30 2075 C 198.149 1.52147 1.22926 0
M  V30 2076 O 199.355 2.02031 1.81371 0
M  V30 2077 C 197.811 3.59082 -0.24252 0
M  V30 2078 C 197.419 4.1696 -1.63855 0
M  V30 2079 C 199.163 4.24079 0.18911 0
M  V30 2080 C 197.07 5.67304 -1.67092 0
M  V30 2081 H 196 0.751798 -0.0575769 0
M  V30 2082 H 198.651 1.6439 -0.815362 0
M  V30 2083 H 197.033 3.93125 0.476276 0
M  V30 2084 H 198.207 3.94416 -2.38271 0
M  V30 2085 H 196.522 3.64335 -2.01616 0
M  V30 2086 H 199.119 5.34381 0.184775 0
M  V30 2087 H 199.462 3.98005 1.22056 0
M  V30 2088 H 199.995 3.94918 -0.477938 0
M  V30 2089 H 196.734 5.98145 -2.68146 0
M  V30 2090 H 196.254 5.91904 -0.970014 0
M  V30 2091 H 197.933 6.31344 -1.4147 0
M  V30 2092 N 198.065 0.39524 1.52563 0
M  V30 2093 C 198.975 -0.444232 2.30356 0
M  V30 2094 C 199.991 -1.06615 1.37511 0
M  V30 2095 O 201.167 -1.07067 1.70583 0
M  V30 2096 C 198.232 -1.55315 3.09964 0
M  V30 2097 C 197.293 -0.955734 4.18526 0
M  V30 2098 C 196.526 -2.01181 4.9433 0
M  V30 2099 O 196.749 -3.22781 4.70285 0
M  V30 2100 O 195.683 -1.62579 5.79527 0
M  V30 2101 H 199.509 0.189667 3.03107 0
M  V30 2102 H 197.094 0.1588 1.48554 0
M  V30 2103 H 198.976 -2.19724 3.59582 0
M  V30 2104 H 197.651 -2.17191 2.4002 0
M  V30 2105 H 196.558 -0.274743 3.7309 0
M  V30 2106 H 197.891 -0.381109 4.90722 0
M  V30 2107 N 199.544 -1.57102 0.125237 0
M  V30 2108 C 200.769 -2.0019 -0.542101 0
M  V30 2109 C 201.194 -1.00449 -1.59034 0
M  V30 2110 O 200.552 0.0229423 -1.81285 0
M  V30 2111 C 200.6 -3.42129 -1.13929 0
M  V30 2112 O 199.704 -3.45307 -2.2547 0
M  V30 2113 H 199.045 -0.650171 -0.134812 0
M  V30 2114 H 201.575 -2.03461 0.215553 0
M  V30 2115 H 201.585 -3.80471 -1.4733 0
M  V30 2116 H 200.26 -4.14237 -0.371531 0
M  V30 2117 H 198.837 -3.1879 -1.93462 0
M  V30 2118 N 201.022 0.148545 -1.56898 0
M  V30 2119 C 201.932 1.20293 -2.01412 0
M  V30 2120 C 202.948 1.47107 -0.929273 0
M  V30 2121 O 204.124 1.58807 -1.23863 0
M  V30 2122 C 201.189 2.51682 -2.38447 0
M  V30 2123 C 200.25 2.32529 -3.60872 0
M  V30 2124 C 199.483 3.57653 -3.96132 0
M  V30 2125 O 199.706 4.63771 -3.32073 0
M  V30 2126 O 198.64 3.50408 -4.89385 0
M  V30 2127 H 202.466 0.855025 -2.91416 0
M  V30 2128 H 200.051 0.357151 -1.45068 0
M  V30 2129 H 201.933 3.29147 -2.63135 0
M  V30 2130 H 200.608 2.86006 -1.51599 0
M  V30 2131 H 199.515 1.53019 -3.41373 0
M  V30 2132 H 200.848 2.03121 -4.48333 0
M  V30 2133 N 202.5 1.5196 0.417844 0
M  V30 2134 C 203.433 1.69387 1.52916 0
M  V30 2135 C 204.411 0.541419 1.53321 0
M  V30 2136 O 205.595 0.767695 1.72159 0
M  V30 2137 C 202.722 1.72525 2.91467 0
M  V30 2138 C 201.768 2.93967 3.09008 0
M  V30 2139 S 202.601 4.54461 2.83242 0
M  V30 2140 C 203.757 4.60372 4.24038 0
M  V30 2141 H 203.99 2.63382 1.37903 0
M  V30 2142 H 201.523 1.41889 0.608845 0
M  V30 2143 H 203.481 1.75018 3.7132 0
M  V30 2144 H 202.142 0.796733 3.03827 0
M  V30 2145 H 201.335 2.92619 4.10353 0
M  V30 2146 H 200.937 2.89316 2.37007 0
M  V30 2147 H 203.229 4.37213 5.17544 0
M  V30 2148 H 204.172 5.62273 4.30412 0
M  V30 2149 H 204.58 3.89492 4.08602 0
M  V30 2150 N 203.978 -0.674533 1.42435 0
M  V30 2151 C 205.227 -1.43034 1.42212 0
M  V30 2152 C 205.54 -1.95555 0.0420788 0
M  V30 2153 O 206.746 -2.71374 -0.0827558 0
M  V30 2154 C 205.202 -2.58748 2.50155 0
M  V30 2155 C 204.81 -2.12925 3.94166 0
M  V30 2156 C 206.554 -3.36257 2.59098 0
M  V30 2157 C 204.461 -3.25723 4.93618 0
M  V30 2158 H 203.391 -0.537345 0.528939 0
M  V30 2159 H 206.042 -0.73024 1.68344 0
M  V30 2160 H 204.424 -3.31128 2.17188 0
M  V30 2161 H 205.598 -1.47697 4.36488 0
M  V30 2162 H 203.913 -1.48354 3.89076 0
M  V30 2163 H 206.51 -4.20264 3.30578 0
M  V30 2164 H 206.853 -3.82866 1.63461 0
M  V30 2165 H 207.386 -2.70947 2.9126 0
M  V30 2166 H 204.125 -2.84105 5.90732 0
M  V30 2167 H 203.645 -3.89732 4.55926 0
M  V30 2168 H 205.324 -3.91186 5.15347 0
M  V30 2169 N 205.456 -1.28612 -0.910864 0
M  V30 2170 C 206.403 -1.12786 -2.01365 0
M  V30 2171 C 207.373 -0.024201 -1.66082 0
M  V30 2172 O 208.558 -0.189667 -1.89855 0
M  V30 2173 C 205.698 -0.798743 -3.35729 0
M  V30 2174 C 204.811 -1.98173 -3.83864 0
M  V30 2175 C 203.946 -1.59298 -5.06752 0
M  V30 2176 C 202.985 -2.74245 -5.47226 0
M  V30 2177 N 202.122 -2.35842 -6.61304 0
M  V30 2178 H 206.962 -2.07142 -2.14234 0
M  V30 2179 H 204.499 -1.03093 -1.0493 0
M  V30 2180 H 206.457 -0.588662 -4.13026 0
M  V30 2181 H 205.087 0.10789 -3.2262 0
M  V30 2182 H 204.139 -2.30386 -3.02699 0
M  V30 2183 H 205.451 -2.84343 -4.09818 0
M  V30 2184 H 204.605 -1.34513 -5.916 0
M  V30 2185 H 203.344 -0.702618 -4.82612 0
M  V30 2186 H 202.349 -2.99725 -4.60918 0
M  V30 2187 H 203.574 -3.63928 -5.73353 0
M  V30 2188 H 201.52 -1.49279 -6.38789 0
M  V30 2189 H 201.437 -3.15546 -6.86998 0
M  V30 2190 H 202.705 -2.14348 -7.4945 0
M  V30 2191 N 206.934 1.1197 -1.10907 0
M  V30 2192 C 208.181 1.83588 -0.854507 0
M  V30 2193 C 208.509 1.84357 0.6199 0
M  V30 2194 O 207.764 1.28809 1.47332 0
M  V30 2195 C 208.063 3.30749 -1.35425 0
M  V30 2196 C 207.729 3.50146 -2.84093 0
M  V30 2197 C 206.391 3.55148 -3.2469 0
M  V30 2198 C 208.743 3.56857 -3.79872 0
M  V30 2199 C 206.071 3.6441 -4.59806 0
M  V30 2200 C 208.423 3.6765 -5.14797 0
M  V30 2201 C 207.087 3.7091 -5.54961 0
M  V30 2202 H 206.357 0.671795 -0.312686 0
M  V30 2203 H 209.004 1.32091 -1.38652 0
M  V30 2204 H 207.309 3.84703 -0.742361 0
M  V30 2205 H 209.006 3.8464 -1.1337 0
M  V30 2206 H 205.596 3.46919 -2.51685 0
M  V30 2207 H 209.78 3.52258 -3.49611 0
M  V30 2208 H 205.036 3.65208 -4.9034 0
M  V30 2209 H 209.21 3.71786 -5.88853 0
M  V30 2210 H 206.837 3.7784 -6.59652 0
M  V30 2211 N 208.412 0.89855 1.29475 0
M  V30 2212 C 209.375 0.380272 2.26023 0
M  V30 2213 C 210.375 -0.484891 1.53315 0
M  V30 2214 O 211.565 -0.290108 1.71767 0
M  V30 2215 C 208.697 -0.45651 3.3783 0
M  V30 2216 H 209.89 1.23295 2.73383 0
M  V30 2217 H 207.443 0.676589 1.40897 0
M  V30 2218 H 208.178 -1.32922 2.95808 0
M  V30 2219 H 207.963 0.163393 3.91759 0
M  V30 2220 H 209.453 -0.810466 4.0966 0
M  V30 2221 N 209.89 -1.43072 0.660911 0
M  V30 2222 C 211.115 -2.06584 0.183805 0
M  V30 2223 C 211.54 -1.49257 -1.14472 0
M  V30 2224 O 210.898 -0.605528 -1.70889 0
M  V30 2225 C 210.946 -3.60418 0.114434 0
M  V30 2226 O 210.05 -4.01981 -0.921137 0
M  V30 2227 H 209.391 -0.656669 0.0983994 0
M  V30 2228 H 211.921 -1.83447 0.906006 0
M  V30 2229 H 211.931 -4.07946 -0.0663394 0
M  V30 2230 H 210.606 -4.01519 1.08422 0
M  V30 2231 H 209.183 -3.66029 -0.71253 0
M  V30 2232 N 211.368 -0.403325 -1.52352 0
M  V30 2233 C 212.598 0.17376 -2.05868 0
M  V30 2234 C 213.006 1.39898 -1.27378 0
M  V30 2235 O 212.349 1.80939 -0.31729 0
M  V30 2236 C 212.411 0.594756 -3.54546 0
M  V30 2237 C 212.075 -0.518926 -4.54044 0
M  V30 2238 C 213.072 -1.3807 -5.01231 0
M  V30 2239 C 210.757 -0.689961 -4.97539 0
M  V30 2240 C 212.751 -2.39852 -5.90551 0
M  V30 2241 C 210.438 -1.71109 -5.86656 0
M  V30 2242 C 211.436 -2.56378 -6.33056 0
M  V30 2243 O 211.124 -3.56743 -7.20409 0
M  V30 2244 H 210.856 0.0264951 -0.675481 0
M  V30 2245 H 213.41 -0.571179 -1.97299 0
M  V30 2246 H 211.64 1.39189 -3.60782 0
M  V30 2247 H 213.329 1.0991 -3.90736 0
M  V30 2248 H 214.095 -1.25994 -4.68349 0
M  V30 2249 H 209.974 -0.035939 -4.60986 0
M  V30 2250 H 213.518 -3.06441 -6.26689 0
M  V30 2251 H 209.415 -1.83218 -6.18952 0
M  V30 2252 H 210.183 -3.52918 -7.38506 0
M  V30 2253 N 212.846 1.57033 -0.133567 0
M  V30 2254 C 214.076 1.99754 0.527429 0
M  V30 2255 C 214.484 1.01245 1.59832 0
M  V30 2256 O 213.827 -0.000645496 1.837 0
M  V30 2257 C 213.889 3.38903 1.19939 0
M  V30 2258 C 213.553 4.56174 0.274709 0
M  V30 2259 C 214.55 5.17563 -0.492398 0
M  V30 2260 C 212.235 5.01972 0.18153 0
M  V30 2261 C 214.229 6.2315 -1.34027 0
M  V30 2262 C 211.916 6.07416 -0.669958 0
M  V30 2263 C 212.914 6.67874 -1.42947 0
M  V30 2264 O 212.602 7.71279 -2.2668 0
M  V30 2265 H 212.334 0.660702 0.142999 0
M  V30 2266 H 214.888 2.04207 -0.221099 0
M  V30 2267 H 213.118 3.31248 1.99528 0
M  V30 2268 H 214.807 3.65818 1.75875 0
M  V30 2269 H 215.573 4.83087 -0.430367 0
M  V30 2270 H 211.452 4.54652 0.762422 0
M  V30 2271 H 214.996 6.70268 -1.93357 0
M  V30 2272 H 210.893 6.41321 -0.73333 0
M  V30 2273 H 211.661 7.88441 -2.1978 0
M  V30 2274 N 214.325 -0.140222 1.56975 0
M  V30 2275 C 215.288 -1.15689 1.97861 0
M  V30 2276 C 216.288 -1.3549 0.865974 0
M  V30 2277 O 217.478 -1.32367 1.13246 0
M  V30 2278 C 214.61 -2.51582 2.30042 0
M  V30 2279 H 215.803 -0.805971 2.88867 0
M  V30 2280 H 213.356 -0.383801 1.51515 0
M  V30 2281 H 214.091 -2.91632 1.41849 0
M  V30 2282 H 213.876 -2.38569 3.11171 0
M  V30 2283 H 215.366 -3.24792 2.62488 0
M  V30 2284 N 215.803 -1.52179 -0.40978 0
M  V30 2285 C 217.051 -1.65878 -1.15451 0
M  V30 2286 C 217.372 -0.390771 -1.91044 0
M  V30 2287 O 216.642 0.594323 -1.86667 0
M  V30 2288 H 215.222 -0.611405 -0.429177 0
M  V30 2289 H 217.884 -1.89219 -0.467134 0
M  V30 2290 H 216.98 -2.49954 -1.86894 0
M  V30 2291 N 217.281 0.66697 -1.42791 0
M  V30 2292 C 218.53 1.42278 -1.42968 0
M  V30 2293 C 218.843 1.9553 -0.0524489 0
M  V30 2294 O 220.049 2.71414 0.068363 0
M  V30 2295 C 218.505 2.57418 -2.51524 0
M  V30 2296 C 218.113 2.10832 -3.9529 0
M  V30 2297 C 219.857 3.34878 -2.60877 0
M  V30 2298 C 217.764 3.23101 -4.95338 0
M  V30 2299 H 216.694 0.534533 -0.531781 0
M  V30 2300 H 219.345 0.721302 -1.68729 0
M  V30 2301 H 217.727 3.29971 -2.18941 0
M  V30 2302 H 218.901 1.4538 -4.37266 0
M  V30 2303 H 217.216 1.46289 -3.89857 0
M  V30 2304 H 219.813 4.18505 -3.32802 0
M  V30 2305 H 220.156 3.81993 -1.6549 0
M  V30 2306 H 220.689 2.69398 -2.92693 0
M  V30 2307 H 217.428 2.80969 -5.9223 0
M  V30 2308 H 216.948 3.87309 -4.57987 0
M  V30 2309 H 218.627 3.88447 -5.17415 0
M  V30 2310 N 218.759 1.29093 0.90403 0
M  V30 2311 C 219.722 1.1386 1.98919 0
M  V30 2312 C 220.722 0.0753457 1.60623 0
M  V30 2313 O 221.912 0.321931 1.71199 0
M  V30 2314 C 219.044 0.740198 3.32767 0
M  V30 2315 H 220.237 2.10246 2.13861 0
M  V30 2316 H 217.79 1.12218 1.08797 0
M  V30 2317 H 218.525 -0.223997 3.23525 0
M  V30 2318 H 218.31 1.50838 3.61926 0
M  V30 2319 H 219.8 0.656546 4.12407 0
M  V30 2320 N 220.237 -1.11381 1.11499 0
M  V30 2321 C 221.483 -1.83403 0.865512 0
M  V30 2322 C 221.816 -1.84459 -0.607329 0
M  V30 2323 O 221.091 -1.29811 -1.44842 0
M  V30 2324 C 221.374 -3.30552 1.42855 0
M  V30 2325 C 221.227 -3.37886 2.96906 0
M  V30 2326 C 222.546 -4.26643 1.08 0
M  V30 2327 H 219.665 -0.665879 0.31587 0
M  V30 2328 H 222.307 -1.30601 1.37998 0
M  V30 2329 H 220.457 -3.75648 0.990985 0
M  V30 2330 H 222.129 -3.01343 3.49271 0
M  V30 2331 H 220.372 -2.78088 3.32941 0
M  V30 2332 H 221.043 -4.41458 3.31389 0
M  V30 2333 H 223.519 -3.89729 1.45775 0
M  V30 2334 H 222.395 -5.27986 1.50072 0
M  V30 2335 H 222.656 -4.42099 -0.00915037 0
M  V30 2336 N 221.715 -0.905404 -1.28997 0
M  V30 2337 C 222.678 -0.392253 -2.25819 0
M  V30 2338 C 223.678 0.476753 -1.5357 0
M  V30 2339 O 224.868 0.280994 -1.71919 0
M  V30 2340 C 222 0.438588 -3.38067 0
M  V30 2341 H 223.193 -1.24743 -2.72725 0
M  V30 2342 H 220.746 -0.684051 -1.40536 0
M  V30 2343 H 221.481 1.31352 -2.96508 0
M  V30 2344 H 221.266 -0.184167 -3.91667 0
M  V30 2345 H 222.756 0.78873 -4.10084 0
M  V30 2346 N 223.193 1.4272 -0.668489 0
M  V30 2347 C 224.439 2.01923 -0.188419 0
M  V30 2348 C 224.772 1.52704 1.19979 0
M  V30 2349 O 224.047 0.726566 1.8042 0
M  V30 2350 C 224.33 3.59451 -0.216085 0
M  V30 2351 C 224.183 4.18864 -1.6393 0
M  V30 2352 C 225.502 4.37903 0.439179 0
M  V30 2353 H 222.621 0.733674 -0.0699412 0
M  V30 2354 H 225.263 1.69822 -0.852076 0
M  V30 2355 H 223.413 3.86929 0.349012 0
M  V30 2356 H 225.085 4.02362 -2.25616 0
M  V30 2357 H 223.328 3.74933 -2.18193 0
M  V30 2358 H 223.999 5.27987 -1.61039 0
M  V30 2359 H 226.475 4.16079 -0.0417878 0
M  V30 2360 H 225.351 5.47519 0.389157 0
M  V30 2361 H 225.612 4.15303 1.51577 0
M  V30 2362 N 224.671 0.411399 1.52136 0
M  V30 2363 C 225.601 -0.404015 2.29978 0
M  V30 2364 C 226.582 -1.04412 1.34284 0
M  V30 2365 O 227.767 -1.0527 1.63192 0
M  V30 2366 C 224.897 -1.5197 3.12286 0
M  V30 2367 C 223.851 -1.00448 4.16046 0
M  V30 2368 C 223.177 -2.21393 4.86712 0
M  V30 2369 C 224.477 -0.0569336 5.22269 0
M  V30 2370 H 226.171 0.245529 2.98392 0
M  V30 2371 H 223.717 0.119525 1.43503 0
M  V30 2372 H 225.67 -2.09715 3.6551 0
M  V30 2373 H 224.394 -2.19716 2.41646 0
M  V30 2374 H 223.053 -0.449421 3.63835 0
M  V30 2375 H 222.701 -2.87699 4.12599 0
M  V30 2376 H 222.401 -1.87571 5.56858 0
M  V30 2377 H 223.925 -2.7974 5.4275 0
M  V30 2378 H 225.339 -0.54325 5.7072 0
M  V30 2379 H 223.736 0.192594 5.99791 0
M  V30 2380 H 224.806 0.887663 4.76706 0
M  V30 2381 N 226.149 -1.5696 0.141893 0
M  V30 2382 C 227.398 -1.95135 -0.510427 0
M  V30 2383 C 227.711 -1.02896 -1.66348 0
M  V30 2384 O 228.917 -1.30629 -2.38009 0
M  V30 2385 C 227.373 -3.46876 -0.959427 0
M  V30 2386 C 226.981 -4.47691 0.166419 0
M  V30 2387 C 228.725 -3.93927 -1.58183 0
M  V30 2388 C 226.632 -5.90636 -0.300565 0
M  V30 2389 H 225.562 -0.728494 -0.194454 0
M  V30 2390 H 228.213 -1.8211 0.22542 0
M  V30 2391 H 226.595 -3.55215 -1.75038 0
M  V30 2392 H 227.769 -4.51043 0.94325 0
M  V30 2393 H 226.084 -4.10527 0.696905 0
M  V30 2394 H 228.681 -4.98158 -1.94275 0
M  V30 2395 H 229.024 -3.3519 -2.46888 0
M  V30 2396 H 229.557 -3.88484 -0.855863 0
M  V30 2397 H 226.296 -6.5318 0.550989 0
M  V30 2398 H 225.816 -5.90655 -1.04338 0
M  V30 2399 H 227.495 -6.42588 -0.754265 0
M  V30 2400 N 227.627 0.131896 -1.57047 0
M  V30 2401 C 228.855 0.856461 -1.88341 0
M  V30 2402 C 229.27 1.74042 -0.731757 0
M  V30 2403 O 228.627 1.80051 0.297945 0
M  V30 2404 C 228.678 1.70064 -3.18999 0
M  V30 2405 O 228.399 0.852278 -4.2973 0
M  V30 2406 C 229.9 2.53148 -3.63911 0
M  V30 2407 H 227.12 0.246885 -0.62393 0
M  V30 2408 H 229.664 0.120152 -2.04147 0
M  V30 2409 H 227.819 2.38984 -3.04902 0
M  V30 2410 H 228.233 1.43329 -5.04537 0
M  V30 2411 H 229.707 3.07931 -4.58129 0
M  V30 2412 H 230.184 3.29901 -2.89935 0
M  V30 2413 H 230.79 1.89492 -3.80753 0
M  V30 2414 N 229.106 1.52395 0.401703 0
M  V30 2415 C 230.354 1.66488 1.14569 0
M  V30 2416 C 230.675 0.400897 1.90835 0
M  V30 2417 O 229.945 -0.584415 1.8698 0
M  V30 2418 H 228.525 0.613672 0.425929 0
M  V30 2419 H 231.187 1.89464 0.457093 0
M  V30 2420 H 230.283 2.50942 1.85566 0
M  V30 2421 N 230.584 -0.659388 1.43143 0
M  V30 2422 C 231.814 -1.44513 1.47646 0
M  V30 2423 C 232.222 -1.88981 0.0910095 0
M  V30 2424 O 231.565 -1.59702 -0.907789 0
M  V30 2425 C 231.627 -2.71663 2.35456 0
M  V30 2426 C 231.291 -2.49175 3.83094 0
M  V30 2427 C 232.288 -2.1279 4.74359 0
M  V30 2428 C 229.973 -2.63691 4.27519 0
M  V30 2429 C 231.967 -1.9121 6.08044 0
M  V30 2430 C 229.654 -2.41726 5.61259 0
M  V30 2431 C 230.652 -2.0554 6.51339 0
M  V30 2432 O 230.34 -1.838 7.82606 0
M  V30 2433 H 230.072 -0.45064 0.503884 0
M  V30 2434 H 232.626 -0.816248 1.88485 0
M  V30 2435 H 230.856 -3.37089 1.89493 0
M  V30 2436 H 232.545 -3.33595 2.31235 0
M  V30 2437 H 233.311 -2.01157 4.41317 0
M  V30 2438 H 229.19 -2.90832 3.57684 0
M  V30 2439 H 232.734 -1.62889 6.78316 0
M  V30 2440 H 228.631 -2.52959 5.9387 0
M  V30 2441 H 229.399 -1.98275 7.94122 0
M  V30 2442 N 232.062 -1.29571 -0.897171 0
M  V30 2443 C 233.311 -1.1706 -1.64256 0
M  V30 2444 C 233.624 0.276476 -1.93636 0
M  V30 2445 O 234.83 0.52294 -2.66416 0
M  V30 2446 C 233.286 -2.0475 -2.95982 0
M  V30 2447 C 232.894 -3.54295 -2.74187 0
M  V30 2448 C 234.638 -2.0097 -3.73914 0
M  V30 2449 C 232.545 -4.34081 -4.01656 0
M  V30 2450 H 231.475 -0.43452 -0.616205 0
M  V30 2451 H 234.126 -1.54229 -0.994268 0
M  V30 2452 H 232.508 -1.60452 -3.62038 0
M  V30 2453 H 233.682 -4.06662 -2.1671 0
M  V30 2454 H 231.997 -3.59773 -2.09648 0
M  V30 2455 H 234.594 -2.57838 -4.68427 0
M  V30 2456 H 234.937 -0.990273 -4.0435 0
M  V30 2457 H 235.47 -2.43325 -3.14703 0
M  V30 2458 H 232.209 -5.36671 -3.76384 0
M  V30 2459 H 231.729 -3.86483 -4.58684 0
M  V30 2460 H 233.408 -4.44877 -4.69781 0
M  V30 2461 N 233.54 1.10788 -1.12088 0
M  V30 2462 C 234.472 2.16816 -0.743213 0
M  V30 2463 C 235.485 1.6119 0.228412 0
M  V30 2464 O 236.674 1.78497 0.0102931 0
M  V30 2465 C 233.774 3.38809 -0.0787313 0
M  V30 2466 C 232.947 4.23885 -1.0789 0
M  V30 2467 C 232.006 5.24334 -0.442713 0
M  V30 2468 O 231.032 5.58497 -1.09864 0
M  V30 2469 N 232.234 5.75079 0.791457 0
M  V30 2470 H 234.999 2.49825 -1.65552 0
M  V30 2471 H 232.56 1.26373 -1.012 0
M  V30 2472 H 234.552 4.03107 0.358766 0
M  V30 2473 H 233.122 3.03805 0.736275 0
M  V30 2474 H 232.342 3.55939 -1.69414 0
M  V30 2475 H 233.63 4.77562 -1.75533 0
M  V30 2476 H 233.028 5.49517 1.3434 0
M  V30 2477 H 231.585 6.4118 1.17183 0
M  V30 2478 N 235.018 0.912232 1.28515 0
M  V30 2479 C 236.267 0.540504 1.94323 0
M  V30 2480 C 236.58 -0.920044 1.72611 0
M  V30 2481 O 237.786 -1.39986 2.32629 0
M  V30 2482 C 236.242 0.915803 3.48053 0
M  V30 2483 C 235.85 2.39598 3.78546 0
M  V30 2484 C 237.594 0.614588 4.20027 0
M  V30 2485 C 235.501 2.71148 5.25578 0
M  V30 2486 H 234.431 0.198418 0.727424 0
M  V30 2487 H 237.082 1.11094 1.46049 0
M  V30 2488 H 235.464 0.274168 3.9505 0
M  V30 2489 H 236.638 3.08422 3.42364 0
M  V30 2490 H 234.953 2.66749 3.1974 0
M  V30 2491 H 237.55 0.827002 5.28266 0
M  V30 2492 H 237.893 -0.447531 4.13887 0
M  V30 2493 H 238.426 1.21462 3.78803 0
M  V30 2494 H 235.165 3.76207 5.36794 0
M  V30 2495 H 234.685 2.0696 5.62963 0
M  V30 2496 H 236.364 2.58072 5.93302 0
M  V30 2497 N 236.496 -1.42363 0.676048 0
M  V30 2498 C 237.736 -2.03392 0.20273 0
M  V30 2499 C 238.1 -1.52306 -1.16906 0
M  V30 2500 O 239.301 -2.05129 -1.73711 0
M  V30 2501 C 237.572 -3.56614 0.236947 0
M  V30 2502 S 239.131 -4.38489 -0.165186 0
M  V30 2503 H 235.949 -0.70611 0.0832418 0
M  V30 2504 H 238.551 -1.74093 0.88948 0
M  V30 2505 H 237.255 -3.91293 1.23767 0
M  V30 2506 H 236.786 -3.90587 -0.469596 0
M  V30 2507 H 238.801 -4.76093 -1.39822 0
M  V30 2508 N 237.974 -0.419461 -1.51915 0
M  V30 2509 C 239.221 0.152939 -2.01922 0
M  V30 2510 C 239.549 1.4426 -1.30458 0
M  V30 2511 O 238.804 1.91514 -0.402593 0
M  V30 2512 C 239.103 0.437067 -3.54717 0
M  V30 2513 C 238.769 -0.764632 -4.44369 0
M  V30 2514 C 237.431 -1.09423 -4.68594 0
M  V30 2515 C 239.783 -1.56713 -4.97082 0
M  V30 2516 C 237.111 -2.22732 -5.42777 0
M  V30 2517 C 239.463 -2.69107 -5.72507 0
M  V30 2518 C 238.127 -3.02541 -5.95 0
M  V30 2519 H 237.397 0.0559644 -0.738884 0
M  V30 2520 H 240.044 -0.562998 -1.83037 0
M  V30 2521 H 238.349 1.23469 -3.71837 0
M  V30 2522 H 240.046 0.893083 -3.90928 0
M  V30 2523 H 236.636 -0.497775 -4.257 0
M  V30 2524 H 240.82 -1.32571 -4.78266 0
M  V30 2525 H 236.076 -2.48971 -5.58411 0
M  V30 2526 H 240.25 -3.31671 -6.12346 0
M  V30 2527 H 237.877 -3.90457 -6.52264 0
M  V30 2528 N 239.452 1.56882 -0.150215 0
M  V30 2529 C 240.698 1.97299 0.494427 0
M  V30 2530 C 241.053 1.0338 1.62266 0
M  V30 2531 O 240.346 0.0694497 1.91474 0
M  V30 2532 C 240.54 3.41801 1.04437 0
M  V30 2533 C 240.369 4.49691 -0.0290451 0
M  V30 2534 C 239.139 5.03095 -0.47156 0
M  V30 2535 C 241.337 5.07693 -0.821703 0
M  V30 2536 N 239.319 5.94593 -1.52749 0
M  V30 2537 C 240.69 5.95431 -1.72805 0
M  V30 2538 C 242.745 4.90256 -0.869134 0
M  V30 2539 C 241.448 6.67599 -2.67777 0
M  V30 2540 C 243.474 5.63127 -1.8067 0
M  V30 2541 C 242.836 6.50576 -2.70057 0
M  V30 2542 H 238.935 0.76755 0.149639 0
M  V30 2543 H 241.519 1.93145 -0.24556 0
M  V30 2544 H 239.69 3.46541 1.75396 0
M  V30 2545 H 241.422 3.69272 1.6559 0
M  V30 2546 H 238.177 4.73543 -0.0732101 0
M  V30 2547 H 238.601 6.45047 -2.05531 0
M  V30 2548 H 243.243 4.22363 -0.192134 0
M  V30 2549 H 240.961 7.34717 -3.36476 0
M  V30 2550 H 244.547 5.51629 -1.84924 0
M  V30 2551 H 243.427 7.05974 -3.41424 0
M  V30 2552 N 240.93 -0.123565 1.57115 0
M  V30 2553 C 242.176 -0.833386 1.84885 0
M  V30 2554 C 242.509 -1.79742 0.735292 0
M  V30 2555 O 241.784 -1.92764 -0.25925 0
M  V30 2556 C 242.067 -1.5873 3.23228 0
M  V30 2557 C 241.92 -0.643183 4.45178 0
M  V30 2558 C 243.239 -2.54453 3.59085 0
M  V30 2559 H 240.358 -0.301518 0.6725 0
M  V30 2560 H 243 -0.097778 1.89748 0
M  V30 2561 H 241.15 -2.21438 3.19214 0
M  V30 2562 H 242.822 -0.0253015 4.61293 0
M  V30 2563 H 241.065 0.0456139 4.33776 0
M  V30 2564 H 241.736 -1.20724 5.38637 0
M  V30 2565 H 244.212 -2.01853 3.63861 0
M  V30 2566 H 243.088 -3.04238 4.5687 0
M  V30 2567 H 243.349 -3.36906 2.86264 0
M  V30 2568 N 242.408 -1.52605 -0.393616 0
M  V30 2569 C 243.657 -1.66649 -1.13627 0
M  V30 2570 C 243.97 -0.410364 -1.91247 0
M  V30 2571 O 245.176 -0.430854 -2.68059 0
M  V30 2572 C 243.632 -2.9449 -2.06891 0
M  V30 2573 C 243.24 -4.27266 -1.34714 0
M  V30 2574 C 244.984 -3.17899 -2.81319 0
M  V30 2575 C 242.891 -5.46217 -2.26717 0
M  V30 2576 H 241.821 -0.62084 -0.427871 0
M  V30 2577 H 244.472 -1.791 -0.399428 0
M  V30 2578 H 242.854 -2.75774 -2.84191 0
M  V30 2579 H 244.028 -4.56518 -0.626714 0
M  V30 2580 H 242.343 -4.10081 -0.722643 0
M  V30 2581 H 244.94 -4.03949 -3.50328 0
M  V30 2582 H 245.283 -2.32777 -3.45139 0
M  V30 2583 H 245.816 -3.37159 -2.11113 0
M  V30 2584 H 242.555 -6.33733 -1.67521 0
M  V30 2585 H 242.075 -5.21283 -2.96689 0
M  V30 2586 H 243.754 -5.7991 -2.86903 0
M  V30 2587 N 243.887 0.651787 -1.4349 0
M  V30 2588 C 244.85 1.74647 -1.48429 0
M  V30 2589 C 245.85 1.56513 -0.368817 0
M  V30 2590 O 247.04 1.62385 -0.630623 0
M  V30 2591 C 244.172 3.13533 -1.33827 0
M  V30 2592 H 245.365 1.71649 -2.4592 0
M  V30 2593 H 242.918 0.863573 -1.30277 0
M  V30 2594 H 243.653 3.22142 -0.37349 0
M  V30 2595 H 243.438 3.28101 -2.14691 0
M  V30 2596 H 244.928 3.93356 -1.40218 0
M  V30 2597 N 245.365 1.30045 0.890287 0
M  V30 2598 C 246.328 1.15963 1.977 0
M  V30 2599 C 247.328 0.0923777 1.60534 0
M  V30 2600 O 248.518 0.340071 1.70848 0
M  V30 2601 C 245.65 0.775451 3.31963 0
M  V30 2602 H 246.843 2.12502 2.11619 0
M  V30 2603 H 244.396 1.13366 1.07601 0
M  V30 2604 H 245.131 -0.189671 3.23745 0
M  V30 2605 H 244.916 1.54668 3.60306 0
M  V30 2606 H 246.406 0.700251 4.11687 0
M  V30 2607 N 246.843 -1.10192 1.12674 0
M  V30 2608 C 247.806 -2.14786 0.799979 0
M  V30 2609 C 248.806 -1.59711 -0.18685 0
M  V30 2610 O 249.996 -1.74156 0.0392558 0
M  V30 2611 C 247.128 -3.40374 0.189228 0
M  V30 2612 H 248.321 -2.45203 1.72671 0
M  V30 2613 H 245.874 -1.25597 0.930326 0
M  V30 2614 H 246.609 -3.15577 -0.747107 0
M  V30 2615 H 246.394 -3.81637 0.899766 0
M  V30 2616 H 247.884 -4.17594 -0.0228143 0
M  V30 2617 N 248.321 -0.919034 -1.28029 0
M  V30 2618 C 249.737 -0.617972 -1.4715 0
M  V30 2619 C 249.937 0.835242 -1.83374 0
M  V30 2620 O 248.993 1.61388 -1.94191 0
M  V30 2621 C 250.306 -1.56041 -2.57044 0
M  V30 2622 C 251.854 -1.56769 -2.7091 0
M  V30 2623 C 252.329 -2.49688 -3.83953 0
M  V30 2624 N 253.82 -2.47845 -3.91314 0
M  V30 2625 C 254.555 -3.16437 -4.78179 0
M  V30 2626 N 254.051 -3.94376 -5.69596 0
M  V30 2627 N 255.844 -3.05498 -4.71834 0
M  V30 2628 H 247.995 -1.85866 -1.02798 0
M  V30 2629 H 250.258 -0.797506 -0.512531 0
M  V30 2630 H 249.964 -2.59671 -2.372 0
M  V30 2631 H 249.838 -1.29551 -3.54255 0
M  V30 2632 H 252.225 -0.538745 -2.90141 0
M  V30 2633 H 252.306 -1.87305 -1.74214 0
M  V30 2634 H 251.95 -3.52688 -3.65477 0
M  V30 2635 H 251.88 -2.16453 -4.80058 0
M  V30 2636 H 254.371 -1.91234 -3.25941 0
M  V30 2637 H 254.684 -4.43721 -6.32718 0
M  V30 2638 H 253.029 -3.98481 -5.69419 0
M  V30 2639 H 256.22 -2.44108 -3.99411 0
M  V30 2640 H 256.393 -3.59225 -5.39316 0
M  V30 2641 N 249.799 1.42003 -0.683588 0
M  V30 2642 C 250.731 2.29183 0.0283068 0
M  V30 2643 C 251.744 1.4415 0.756611 0
M  V30 2644 O 252.933 1.67779 0.609306 0
M  V30 2645 C 250.033 3.21765 1.06398 0
M  V30 2646 C 249.206 4.35496 0.407723 0
M  V30 2647 C 248.265 5.08737 1.34437 0
M  V30 2648 O 247.291 5.62948 0.841318 0
M  V30 2649 N 248.493 5.15075 2.67728 0
M  V30 2650 H 251.258 2.9092 -0.720105 0
M  V30 2651 H 248.819 1.53025 -0.528682 0
M  V30 2652 H 250.811 3.6763 1.69204 0
M  V30 2653 H 249.381 2.61418 1.71404 0
M  V30 2654 H 248.601 3.92165 -0.400012 0
M  V30 2655 H 249.889 5.08776 -0.0490956 0
M  V30 2656 H 249.287 4.72457 3.11129 0
M  V30 2657 H 247.844 5.64556 3.2576 0
M  V30 2658 N 251.277 0.427512 1.51691 0
M  V30 2659 C 252.526 -0.143679 2.01188 0
M  V30 2660 C 252.839 -1.44642 1.31674 0
M  V30 2661 O 254.045 -2.09997 1.72086 0
M  V30 2662 C 252.501 -0.306602 3.58592 0
M  V30 2663 C 252.109 0.985125 4.37035 0
M  V30 2664 C 253.853 -0.832091 4.16265 0
M  V30 2665 C 251.76 0.788382 5.86122 0
M  V30 2666 H 250.69 -0.0574701 0.751807 0
M  V30 2667 H 253.341 0.555772 1.74881 0
M  V30 2668 H 251.723 -1.06882 3.81303 0
M  V30 2669 H 252.897 1.75492 4.26074 0
M  V30 2670 H 251.212 1.4384 3.90767 0
M  V30 2671 H 253.809 -0.995617 5.25349 0
M  V30 2672 H 254.152 -1.81186 3.74803 0
M  V30 2673 H 254.685 -0.128444 3.97593 0
M  V30 2674 H 251.424 1.74025 6.31978 0
M  V30 2675 H 250.944 0.0582143 5.99772 0
M  V30 2676 H 252.623 0.437722 6.45518 0
M  V30 2677 N 252.755 -1.56801 0.158532 0
M  V30 2678 C 253.687 -2.14488 -0.807923 0
M  V30 2679 C 254.7 -1.09721 -1.20271 0
M  V30 2680 O 255.889 -1.36956 -1.14478 0
M  V30 2681 C 252.989 -2.66217 -2.09718 0
M  V30 2682 C 252.162 -3.95507 -1.86796 0
M  V30 2683 C 251.221 -4.3243 -2.99818 0
M  V30 2684 O 250.247 -5.00543 -2.71008 0
M  V30 2685 N 251.449 -3.92947 -4.27285 0
M  V30 2686 H 254.214 -2.98042 -0.314816 0
M  V30 2687 H 251.775 -1.61881 -0.0246692 0
M  V30 2688 H 253.767 -2.87924 -2.84398 0
M  V30 2689 H 252.337 -1.87324 -2.50257 0
M  V30 2690 H 251.557 -3.82309 -0.96089 0
M  V30 2691 H 252.845 -4.79972 -1.68833 0
M  V30 2692 H 252.243 -3.38087 -4.53557 0
M  V30 2693 H 250.8 -4.19681 -4.9871 0
M  V30 2694 N 254.233 0.115231 -1.57178 0
M  V30 2695 C 255.18 1.14115 -2.00615 0
M  V30 2696 C 256.15 1.40939 -0.878941 0
M  V30 2697 O 257.335 1.52741 -1.14345 0
M  V30 2698 C 254.475 2.46156 -2.4187 0
M  V30 2699 C 253.588 2.26236 -3.68024 0
M  V30 2700 C 252.723 3.51534 -3.98243 0
M  V30 2701 C 251.762 3.26787 -5.17568 0
M  V30 2702 N 250.899 4.44298 -5.43639 0
M  V30 2703 H 255.739 0.763743 -2.88047 0
M  V30 2704 H 253.276 0.365615 -1.42484 0
M  V30 2705 H 255.234 3.23189 -2.63827 0
M  V30 2706 H 253.864 2.81783 -1.57475 0
M  V30 2707 H 252.916 1.40102 -3.5366 0
M  V30 2708 H 254.228 2.03929 -4.55208 0
M  V30 2709 H 253.382 4.36984 -4.20868 0
M  V30 2710 H 252.121 3.76876 -3.09541 0
M  V30 2711 H 251.126 2.39729 -4.94783 0
M  V30 2712 H 252.351 3.02812 -6.0785 0
M  V30 2713 H 250.297 4.69754 -4.57895 0
M  V30 2714 H 250.214 4.25109 -6.25154 0
M  V30 2715 H 251.482 5.3087 -5.70786 0
M  V30 2716 N 255.711 1.52812 0.385517 0
M  V30 2717 C 256.644 1.72592 1.49289 0
M  V30 2718 C 257.622 0.573819 1.52138 0
M  V30 2719 O 258.806 0.80404 1.70492 0
M  V30 2720 C 255.933 1.78669 2.87741 0
M  V30 2721 C 254.979 3.00455 3.02703 0
M  V30 2722 S 255.812 4.60366 2.73538 0
M  V30 2723 C 256.968 4.69263 4.14177 0
M  V30 2724 H 257.201 2.66248 1.32285 0
M  V30 2725 H 254.734 1.43148 0.578611 0
M  V30 2726 H 256.692 1.82855 3.67524 0
M  V30 2727 H 255.353 0.861 3.02069 0
M  V30 2728 H 254.546 3.01258 4.04054 0
M  V30 2729 H 254.148 2.94278 2.30817 0
M  V30 2730 H 256.44 4.48092 5.08153 0
M  V30 2731 H 257.383 5.71276 4.18388 0
M  V30 2732 H 257.791 3.98072 4.00249 0
M  V30 2733 N 257.189 -0.644168 1.43834 0
M  V30 2734 C 258.605 -0.960875 1.27434 0
M  V30 2735 C 258.805 -2.00499 0.200618 0
M  V30 2736 O 257.861 -2.49018 -0.417906 0
M  V30 2737 C 259.174 -1.43653 2.64167 0
M  V30 2738 C 260.722 -1.55271 2.71772 0
M  V30 2739 C 261.197 -2.06224 4.08944 0
M  V30 2740 N 262.688 -2.13513 4.11055 0
M  V30 2741 C 263.423 -2.54081 5.14033 0
M  V30 2742 N 262.919 -2.9388 6.27381 0
M  V30 2743 N 264.712 -2.54101 5.01387 0
M  V30 2744 H 256.863 0.0465779 2.12349 0
M  V30 2745 H 259.126 -0.0417638 0.94708 0
M  V30 2746 H 258.832 -0.743706 3.43747 0
M  V30 2747 H 258.706 -2.40993 2.90176 0
M  V30 2748 H 261.093 -2.23653 1.92519 0
M  V30 2749 H 261.174 -0.563395 2.49519 0
M  V30 2750 H 260.818 -1.38441 4.88668 0
M  V30 2751 H 260.748 -3.06003 4.28567 0
M  V30 2752 H 263.239 -1.85493 3.29242 0
M  V30 2753 H 263.552 -3.2361 7.01781 0
M  V30 2754 H 261.897 -2.91663 6.30839 0
M  V30 2755 H 265.088 -2.22391 4.11898 0
M  V30 2756 H 265.261 -2.85394 5.81768 0
M  V30 2757 N 258.668 -1.30515 -0.883378 0
M  V30 2758 C 259.615 -1.17032 -1.98927 0
M  V30 2759 C 260.585 -0.0594241 -1.65994 0
M  V30 2760 O 261.77 -0.229895 -1.8941 0
M  V30 2761 C 258.91 -0.869777 -3.33959 0
M  V30 2762 C 258.023 -2.06271 -3.79574 0
M  V30 2763 C 257.158 -1.70011 -5.03259 0
M  V30 2764 C 256.197 -2.8579 -5.41286 0
M  V30 2765 N 255.334 -2.49816 -6.56153 0
M  V30 2766 H 260.174 -2.1164 -2.09792 0
M  V30 2767 H 257.711 -1.05296 -1.02719 0
M  V30 2768 H 259.669 -0.676138 -4.11685 0
M  V30 2769 H 258.299 0.0394332 -3.22776 0
M  V30 2770 H 257.351 -2.36755 -2.97744 0
M  V30 2771 H 258.663 -2.92971 -4.03694 0
M  V30 2772 H 257.817 -1.47032 -5.88614 0
M  V30 2773 H 256.556 -0.804829 -4.81013 0
M  V30 2774 H 255.561 -3.09434 -4.54456 0
M  V30 2775 H 256.786 -3.76008 -5.65504 0
M  V30 2776 H 254.732 -1.62795 -6.35479 0
M  V30 2777 H 254.649 -3.30048 -6.8015 0
M  V30 2778 H 255.917 -2.30197 -7.44735 0
M  V30 2779 N 260.146 1.09593 -1.13257 0
M  V30 2780 C 261.393 1.81734 -0.893257 0
M  V30 2781 C 261.721 1.8563 0.580656 0
M  V30 2782 O 260.976 1.31906 1.44566 0
M  V30 2783 C 261.275 3.27802 -1.42411 0
M  V30 2784 C 260.941 3.44041 -2.91456 0
M  V30 2785 C 259.603 3.48181 -3.3215 0
M  V30 2786 C 261.955 3.48719 -3.87356 0
M  V30 2787 C 259.283 3.54575 -4.67433 0
M  V30 2788 C 261.635 3.56648 -5.2248 0
M  V30 2789 C 260.299 3.59055 -5.62704 0
M  V30 2790 H 259.569 0.665011 -0.326866 0
M  V30 2791 H 262.216 1.2912 -1.41422 0
M  V30 2792 H 260.521 3.83042 -0.823795 0
M  V30 2793 H 262.218 3.82149 -1.21503 0
M  V30 2794 H 258.808 3.41502 -2.58987 0
M  V30 2795 H 262.992 3.44763 -3.57004 0
M  V30 2796 H 258.248 3.54725 -4.97976 0
M  V30 2797 H 262.422 3.59212 -5.96607 0
M  V30 2798 H 260.049 3.63763 -6.67518 0
M  V30 2799 N 261.624 0.925811 1.2754 0
M  V30 2800 C 262.854 0.580666 1.98272 0
M  V30 2801 C 263.262 -0.845207 1.69272 0
M  V30 2802 O 262.605 -1.57306 0.948707 0
M  V30 2803 C 262.667 0.724418 3.52126 0
M  V30 2804 C 262.331 2.12206 4.04744 0
M  V30 2805 C 263.328 3.09604 4.17662 0
M  V30 2806 C 261.013 2.4385 4.39138 0
M  V30 2807 C 263.007 4.36755 4.64246 0
M  V30 2808 C 260.694 3.71237 4.85414 0
M  V30 2809 C 261.692 4.67503 4.97926 0
M  V30 2810 O 261.38 5.92624 5.43187 0
M  V30 2811 H 261.112 0.218987 0.639547 0
M  V30 2812 H 263.666 1.24452 1.63404 0
M  V30 2813 H 261.896 0.0034663 3.867 0
M  V30 2814 H 263.585 0.384607 4.04074 0
M  V30 2815 H 264.351 2.86478 3.91351 0
M  V30 2816 H 260.23 1.69665 4.28643 0
M  V30 2817 H 263.774 5.11898 4.73927 0
M  V30 2818 H 259.671 3.94182 5.11166 0
M  V30 2819 H 260.439 5.95585 5.61445 0
M  V30 2820 N 263.102 -1.41638 0.69111 0
M  V30 2821 C 264.349 -2.01299 0.220193 0
M  V30 2822 C 264.677 -1.54715 -1.17871 0
M  V30 2823 O 263.932 -0.747193 -1.80874 0
M  V30 2824 C 264.231 -3.56714 0.221277 0
M  V30 2825 C 263.897 -4.22792 1.56709 0
M  V30 2826 C 262.559 -4.40557 1.93554 0
M  V30 2827 C 264.911 -4.59883 2.45268 0
M  V30 2828 C 262.239 -4.92688 3.18552 0
M  V30 2829 C 264.591 -5.13403 3.69595 0
M  V30 2830 C 263.255 -5.29379 4.06589 0
M  V30 2831 H 262.525 -0.736606 0.0805743 0
M  V30 2832 H 265.172 -1.69598 0.889319 0
M  V30 2833 H 263.477 -3.8818 -0.531391 0
M  V30 2834 H 265.174 -4.00678 -0.160547 0
M  V30 2835 H 261.764 -4.09336 1.2705 0
M  V30 2836 H 265.948 -4.45817 2.18084 0
M  V30 2837 H 261.204 -5.03242 3.47214 0
M  V30 2838 H 265.378 -5.41084 4.38407 0
M  V30 2839 H 263.005 -5.69537 5.03519 0
M  V30 2840 N 264.58 -0.43555 -1.51462 0
M  V30 2841 C 265.996 -0.0877501 -1.59359 0
M  V30 2842 C 266.196 1.4027 -1.4466 0
M  V30 2843 O 265.252 2.17243 -1.28693 0
M  V30 2844 C 266.565 -0.606264 -2.94525 0
M  V30 2845 C 268.113 -0.566548 -3.0783 0
M  V30 2846 C 268.588 -1.06201 -4.45517 0
M  V30 2847 N 270.079 -1.01992 -4.51832 0
M  V30 2848 C 270.814 -1.37417 -5.5669 0
M  V30 2849 N 270.31 -1.80119 -6.68976 0
M  V30 2850 N 272.103 -1.29245 -5.47039 0
M  V30 2851 H 264.254 -1.40533 -1.59261 0
M  V30 2852 H 266.517 -0.578992 -0.750648 0
M  V30 2853 H 266.223 -1.64901 -3.10645 0
M  V30 2854 H 266.097 -0.0302097 -3.77188 0
M  V30 2855 H 268.484 0.467208 -2.91378 0
M  V30 2856 H 268.565 -1.17898 -2.2701 0
M  V30 2857 H 268.209 -2.09422 -4.62715 0
M  V30 2858 H 268.139 -0.426127 -5.24873 0
M  V30 2859 H 270.63 -0.706308 -3.71241 0
M  V30 2860 H 270.943 -2.05392 -7.45006 0
M  V30 2861 H 269.288 -1.84044 -6.70189 0
M  V30 2862 H 272.479 -0.957522 -4.58202 0
M  V30 2863 H 272.652 -1.57182 -6.28648 0
M  V30 2864 N 266.058 1.56714 -0.166846 0
M  V30 2865 C 267.474 1.58473 0.189372 0
M  V30 2866 C 267.674 1.18201 1.63189 0
M  V30 2867 O 266.73 0.891528 2.36237 0
M  V30 2868 C 268.043 3.00573 -0.0873872 0
M  V30 2869 C 269.591 3.1299 -0.0252443 0
M  V30 2870 C 270.066 4.57174 -0.274934 0
M  V30 2871 N 271.557 4.62665 -0.222553 0
M  V30 2872 C 272.292 5.72072 -0.389985 0
M  V30 2873 N 271.788 6.90054 -0.616229 0
M  V30 2874 N 273.581 5.61153 -0.326202 0
M  V30 2875 H 265.732 1.8118 -1.10849 0
M  V30 2876 H 267.995 0.839525 -0.440342 0
M  V30 2877 H 267.701 3.34497 -1.0865 0
M  V30 2878 H 267.575 3.72019 0.623037 0
M  V30 2879 H 269.962 2.78895 0.96444 0
M  V30 2880 H 270.043 2.43989 -0.768309 0
M  V30 2881 H 269.687 4.91976 -1.26181 0
M  V30 2882 H 269.617 5.24328 0.48869 0
M  V30 2883 H 272.108 3.77863 -0.0531512 0
M  V30 2884 H 272.421 7.69311 -0.733559 0
M  V30 2885 H 270.766 6.91927 -0.652791 0
M  V30 2886 H 273.957 4.67859 -0.150072 0
M  V30 2887 H 274.13 6.46364 -0.460116 0
M  V30 2888 N 267.536 -0.106894 1.57237 0
M  V30 2889 C 268.785 -0.811163 1.8467 0
M  V30 2890 C 269.098 -1.80469 0.754342 0
M  V30 2891 O 270.304 -2.55601 0.915439 0
M  V30 2892 C 268.76 -1.49337 3.27454 0
M  V30 2893 C 268.368 -0.540217 4.44731 0
M  V30 2894 C 270.112 -2.18206 3.64124 0
M  V30 2895 C 268.019 -1.22634 5.78545 0
M  V30 2896 H 266.949 -0.306679 0.688813 0
M  V30 2897 H 269.6 -0.0639887 1.83388 0
M  V30 2898 H 267.982 -2.2876 3.23241 0
M  V30 2899 H 269.156 0.221659 4.60267 0
M  V30 2900 H 267.471 0.042146 4.16379 0
M  V30 2901 H 270.068 -2.70253 4.61376 0
M  V30 2902 H 270.411 -2.96562 2.92158 0
M  V30 2903 H 270.944 -1.45658 3.70174 0
M  V30 2904 H 267.683 -0.483832 6.53712 0
M  V30 2905 H 267.203 -1.95993 5.66874 0
M  V30 2906 H 268.882 -1.75615 6.2271 0
M  V30 2907 N 269.014 -1.53014 -0.377408 0
M  V30 2908 C 269.947 -1.73382 -1.48371 0
M  V30 2909 C 270.925 -0.581879 -1.51832 0
M  V30 2910 O 272.109 -0.81307 -1.70063 0
M  V30 2911 C 269.236 -1.80192 -2.8679 0
M  V30 2912 C 268.282 -3.02056 -3.01105 0
M  V30 2913 S 269.115 -4.61811 -2.71093 0
M  V30 2914 C 270.271 -4.71453 -4.11683 0
M  V30 2915 H 270.504 -2.66946 -1.30872 0
M  V30 2916 H 268.037 -1.43453 -0.571012 0
M  V30 2917 H 269.995 -1.84802 -3.6655 0
M  V30 2918 H 268.656 -0.877008 -3.01608 0
M  V30 2919 H 267.849 -3.03396 -4.02451 0
M  V30 2920 H 267.451 -2.95498 -2.29253 0
M  V30 2921 H 269.743 -4.50781 -5.0577 0
M  V30 2922 H 270.686 -5.73487 -4.15353 0
M  V30 2923 H 271.094 -4.00189 -3.98132 0
M  V30 2924 N 270.492 0.636531 -1.44174 0
M  V30 2925 C 271.908 0.954104 -1.27941 0
M  V30 2926 C 272.108 2.0039 -0.211248 0
M  V30 2927 O 271.164 2.49236 0.404695 0
M  V30 2928 C 272.477 1.4225 -2.64925 0
M  V30 2929 C 274.025 1.53827 -2.72592 0
M  V30 2930 C 274.5 2.04053 -4.10032 0
M  V30 2931 N 275.991 2.11331 -4.12182 0
M  V30 2932 C 276.726 2.51352 -5.15374 0
M  V30 2933 N 276.222 2.90549 -6.2893 0
M  V30 2934 N 278.015 2.51438 -5.02728 0
M  V30 2935 H 270.166 -0.0578386 -2.12321 0
M  V30 2936 H 272.429 0.0367406 -0.947288 0
M  V30 2937 H 272.135 0.725466 -3.44136 0
M  V30 2938 H 272.009 2.39451 -2.9145 0
M  V30 2939 H 274.396 2.22628 -1.93702 0
M  V30 2940 H 274.477 0.550154 -2.49814 0
M  V30 2941 H 274.121 1.35848 -4.89395 0
M  V30 2942 H 274.051 3.03726 -4.30184 0
M  V30 2943 H 276.542 1.83745 -3.30222 0
M  V30 2944 H 276.855 3.19884 -7.03487 0
M  V30 2945 H 275.2 2.88313 -6.32377 0
M  V30 2946 H 278.391 2.20203 -4.13072 0
M  V30 2947 H 278.564 2.82304 -5.83274 0
M  V30 2948 N 271.97 1.30982 0.876444 0
M  V30 2949 C 272.903 1.12414 1.98591 0
M  V30 2950 C 273.881 0.0294078 1.62573 0
M  V30 2951 O 275.065 0.184598 1.87594 0
M  V30 2952 C 272.192 0.716276 3.3104 0
M  V30 2953 C 271.238 1.81311 3.86042 0
M  V30 2954 S 272.071 3.41727 4.1229 0
M  V30 2955 C 273.227 3.02863 5.47745 0
M  V30 2956 H 273.46 2.06338 2.14037 0
M  V30 2957 H 270.993 1.15393 1.02586 0
M  V30 2958 H 272.951 0.487697 4.07593 0
M  V30 2959 H 271.612 -0.203749 3.13438 0
M  V30 2960 H 270.805 1.48021 4.81774 0
M  V30 2961 H 270.407 1.99641 3.16259 0
M  V30 2962 H 272.699 2.51353 6.29148 0
M  V30 2963 H 273.642 3.97533 5.8598 0
M  V30 2964 H 274.05 2.40487 5.10711 0
M  V30 2965 N 273.449 -1.08991 1.13837 0
M  V30 2966 C 274.359 -2.19301 0.833333 0
M  V30 2967 C 275.375 -1.73026 -0.183847 0
M  V30 2968 O 276.551 -2.01395 -0.0138092 0
M  V30 2969 C 273.616 -3.45323 0.308651 0
M  V30 2970 C 272.677 -4.06255 1.38764 0
M  V30 2971 C 271.91 -5.26262 0.887896 0
M  V30 2972 O 272.133 -5.69747 -0.27287 0
M  V30 2973 O 271.067 -5.78435 1.66421 0
M  V30 2974 H 274.893 -2.47854 1.75506 0
M  V30 2975 H 272.478 -1.18012 0.916166 0
M  V30 2976 H 274.36 -4.21394 0.0216739 0
M  V30 2977 H 273.035 -3.18362 -0.585431 0
M  V30 2978 H 271.942 -3.318 1.72799 0
M  V30 2979 H 273.275 -4.37452 2.25602 0
M  V30 2980 N 274.927 -0.932562 -1.27047 0
M  V30 2981 C 276.176 -0.571351 -1.93439 0
M  V30 2982 C 276.489 0.892467 -1.74053 0
M  V30 2983 O 277.695 1.36267 -2.34826 0
M  V30 2984 C 276.151 -0.97106 -3.46552 0
M  V30 2985 C 275.759 -2.4559 -3.74686 0
M  V30 2986 C 277.503 -0.681333 -4.18997 0
M  V30 2987 C 275.41 -2.79475 -5.21198 0
M  V30 2988 H 274.34 -0.209966 -0.724176 0
M  V30 2989 H 276.991 -1.13403 -1.44263 0
M  V30 2990 H 275.373 -0.336983 -3.94564 0
M  V30 2991 H 276.547 -3.13829 -3.37414 0
M  V30 2992 H 274.862 -2.71802 -3.15456 0
M  V30 2993 H 277.459 -0.910939 -5.26883 0
M  V30 2994 H 277.802 0.381628 -4.14547 0
M  V30 2995 H 278.335 -1.27473 -3.76823 0
M  V30 2996 H 275.074 -3.847 -5.30741 0
M  V30 2997 H 274.594 -2.1589 -5.596 0
M  V30 2998 H 276.273 -2.67478 -5.89122 0
M  V30 2999 N 276.405 1.4127 -0.698611 0
M  V30 3000 C 277.653 2.00782 -0.230409 0
M  V30 3001 C 277.974 1.5562 1.17505 0
M  V30 3002 O 277.244 0.78815 1.79346 0
M  V30 3003 H 275.824 0.742464 -0.0821944 0
M  V30 3004 H 278.486 1.72852 -0.90045 0
M  V30 3005 H 277.582 3.11095 -0.25021 0
M  V30 3006 N 277.883 0.443576 1.51229 0
M  V30 3007 C 279.129 -0.11321 2.03085 0
M  V30 3008 C 279.484 -1.39841 1.32145 0
M  V30 3009 O 278.777 -1.86723 0.429542 0
M  V30 3010 C 278.971 -0.380579 3.55368 0
M  V30 3011 C 278.8 0.877157 4.41062 0
M  V30 3012 C 277.57 1.4125 4.85156 0
M  V30 3013 C 279.768 1.76503 4.83064 0
M  V30 3014 N 277.75 2.62213 5.55083 0
M  V30 3015 C 279.121 2.82067 5.52122 0
M  V30 3016 C 281.176 1.7787 4.65045 0
M  V30 3017 C 279.879 3.88952 6.05069 0
M  V30 3018 C 281.905 2.83694 5.18914 0
M  V30 3019 C 281.267 3.87978 5.87922 0
M  V30 3020 H 277.366 -0.00210178 0.781997 0
M  V30 3021 H 279.95 0.605641 1.85041 0
M  V30 3022 H 278.121 -1.06847 3.73414 0
M  V30 3023 H 279.853 -0.929274 3.93887 0
M  V30 3024 H 276.608 0.965542 4.63653 0
M  V30 3025 H 277.032 3.23568 5.9467 0
M  V30 3026 H 281.674 0.985744 4.11148 0
M  V30 3027 H 279.392 4.69082 6.58018 0
M  V30 3028 H 282.978 2.85702 5.06819 0
M  V30 3029 H 281.858 4.68517 6.28857 0
M  V30 3030 N 279.361 -1.56624 0.175154 0
M  V30 3031 C 280.608 -1.96999 -0.468811 0
M  V30 3032 C 280.936 -1.06129 -1.62994 0
M  V30 3033 O 280.191 -0.0961771 -1.95464 0
M  V30 3034 C 280.49 -3.43419 -0.989864 0
M  V30 3035 C 280.156 -4.50866 0.0557687 0
M  V30 3036 C 278.818 -4.79975 0.343134 0
M  V30 3037 C 281.17 -5.15551 0.765308 0
M  V30 3038 C 278.498 -5.71066 1.34536 0
M  V30 3039 C 280.85 -6.07724 1.75654 0
M  V30 3040 C 279.514 -6.35199 2.05132 0
M  V30 3041 H 278.784 -0.720869 -0.17155 0
M  V30 3042 H 281.431 -1.89616 0.267924 0
M  V30 3043 H 279.736 -3.47772 -1.80449 0
M  V30 3044 H 281.433 -3.72002 -1.49719 0
M  V30 3045 H 278.023 -4.28229 -0.178381 0
M  V30 3046 H 282.207 -4.9317 0.556513 0
M  V30 3047 H 277.463 -5.90635 1.57988 0
M  V30 3048 H 281.637 -6.56912 2.31169 0
M  V30 3049 H 279.264 -7.05584 2.8294 0
M  V30 3050 N 280.839 0.0985539 -1.57292 0
M  V30 3051 C 282.116 0.834155 -1.76921 0
M  V30 3052 C 282.496 1.97101 -0.755928 0
M  V30 3053 O 281.844 2.27474 0.216245 0
M  V30 3054 C 282.054 1.33194 -3.22584 0
M  V30 3055 C 283.402 1.77611 -3.85668 0
M  V30 3056 O 284.426 1.42825 -3.26312 0
M  V30 3057 O 283.285 2.4192 -4.90038 0
M  V30 3058 H 280.379 0.397628 -0.725135 0
M  V30 3059 H 282.925 0.0807044 -1.69508 0
M  V30 3060 H 281.697 0.517248 -3.87866 0
M  V30 3061 H 281.32 2.1475 -3.34616 0
M  V30 3062 N 282.317 1.53212 0.369288 0
M  V30 3063 C 283.557 1.70915 1.12105 0
M  V30 3064 C 283.921 0.449444 1.86665 0
M  V30 3065 O 285.122 0.503105 2.6405 0
M  V30 3066 C 283.393 2.9222 2.05772 0
M  V30 3067 S 284.952 3.30609 2.88519 0
M  V30 3068 H 281.77 0.601445 0.379189 0
M  V30 3069 H 284.372 1.91306 0.402794 0
M  V30 3070 H 283.076 3.82103 1.49752 0
M  V30 3071 H 282.607 2.7422 2.82076 0
M  V30 3072 H 284.622 2.82333 4.08047 0
M  V30 3073 N 283.795 -0.628877 1.44509 0
M  V30 3074 C 284.743 -1.76193 1.51852 0
M  V30 3075 C 285.737 -1.64849 0.390042 0
M  V30 3076 O 286.943 -1.709 0.565082 0
M  V30 3077 H 283.318 -0.581728 0.476547 0
M  V30 3078 H 285.289 -1.67123 2.47209 0
M  V30 3079 C 284.038 -3.14533 1.48204 0
M  V30 3080 H 283.361 -3.23911 2.34354 0
M  V30 3081 H 284.801 -3.93701 1.57402 0
M  V30 3082 C 283.26 -3.36287 0.203142 0
M  V30 3083 O 283.79 -3.9509 -0.725745 0
M  V30 3084 N 281.996 -2.90408 0.105563 0
M  V30 3085 H 281.543 -2.42739 0.862301 0
M  V30 3086 H 281.501 -3.05339 -0.749371 0
M  V30 3087 N 285.273 -1.31445 -0.869486 0
M  V30 3088 C 286.498 -1.24256 -1.66058 0
M  V30 3089 C 286.923 0.188928 -1.87149 0
M  V30 3090 O 286.281 1.13522 -1.4136 0
M  V30 3091 C 286.329 -1.9924 -3.00559 0
M  V30 3092 O 285.433 -1.33007 -3.90362 0
M  V30 3093 H 284.774 -0.428973 -0.506831 0
M  V30 3094 H 287.304 -1.73521 -1.08404 0
M  V30 3095 H 287.314 -2.08854 -3.50491 0
M  V30 3096 H 285.989 -3.03342 -2.84528 0
M  V30 3097 H 284.566 -1.31848 -3.48813 0
M  V30 3098 N 286.751 1.08385 -1.14413 0
M  V30 3099 C 287.997 1.81044 -0.913834 0
M  V30 3100 C 288.33 1.86004 0.558209 0
M  V30 3101 O 287.605 1.33606 1.4135 0
M  V30 3102 C 287.888 3.26648 -1.51569 0
M  V30 3103 C 287.741 3.29895 -3.0576 0
M  V30 3104 C 289.06 4.23629 -1.19273 0
M  V30 3105 H 286.179 0.65727 -0.333414 0
M  V30 3106 H 288.821 1.26896 -1.41412 0
M  V30 3107 H 286.971 3.72889 -1.09023 0
M  V30 3108 H 288.643 2.91977 -3.57137 0
M  V30 3109 H 286.886 2.69163 -3.40197 0
M  V30 3110 H 287.557 4.32516 -3.42977 0
M  V30 3111 H 290.033 3.85727 -1.56057 0
M  V30 3112 H 288.909 5.23822 -1.64017 0
M  V30 3113 H 289.17 4.41968 -0.108068 0
M  V30 3114 N 288.23 0.939286 1.26551 0
M  V30 3115 C 289.478 0.58469 1.93457 0
M  V30 3116 C 289.799 -0.878774 1.74076 0
M  V30 3117 O 289.069 -1.62421 1.09528 0
M  V30 3118 H 287.649 0.21325 0.715914 0
M  V30 3119 H 290.311 1.1942 1.54029 0
M  V30 3120 H 289.407 0.800849 3.0165 0
M  V30 3121 N 289.708 -1.40897 0.706093 0
M  V30 3122 C 290.618 -2.3455 0.0482286 0
M  V30 3123 C 291.634 -1.56796 -0.754396 0
M  V30 3124 O 292.81 -1.89228 -0.689538 0
M  V30 3125 C 289.875 -3.35625 -0.869303 0
M  V30 3126 C 288.936 -4.29261 -0.0576994 0
M  V30 3127 C 288.169 -5.25508 -0.931531 0
M  V30 3128 O 288.392 -5.27472 -2.17092 0
M  V30 3129 O 287.326 -6.00727 -0.375587 0
M  V30 3130 H 291.152 -2.92407 0.820476 0
M  V30 3131 H 288.737 -1.4193 0.4665 0
M  V30 3132 H 290.619 -3.97635 -1.39514 0
M  V30 3133 H 289.294 -2.80196 -1.62086 0
M  V30 3134 H 288.201 -3.70566 0.512988 0
M  V30 3135 H 289.534 -4.87817 0.655426 0
M  V30 3136 N 291.186 -0.45159 -1.50991 0
M  V30 3137 C 292.116 0.342898 -2.30969 0
M  V30 3138 C 293.097 1.00815 -1.37005 0
M  V30 3139 O 294.282 1.00907 -1.65926 0
M  V30 3140 C 291.412 1.43637 -3.16205 0
M  V30 3141 C 290.366 0.893818 -4.18563 0
M  V30 3142 C 289.692 2.08411 -4.92411 0
M  V30 3143 C 290.992 -0.0815568 -5.22236 0
M  V30 3144 H 292.686 -0.324556 -2.97636 0
M  V30 3145 H 290.232 -0.157531 -1.43136 0
M  V30 3146 H 292.185 1.9995 -3.70942 0
M  V30 3147 H 290.909 2.13232 -2.47386 0
M  V30 3148 H 289.568 0.352798 -3.64898 0
M  V30 3149 H 289.216 2.76658 -4.20082 0
M  V30 3150 H 288.916 1.72741 -5.61636 0
M  V30 3151 H 290.44 2.65251 -5.49976 0
M  V30 3152 H 291.854 0.391742 -5.7196 0
M  V30 3153 H 290.251 -0.351551 -5.99069 0
M  V30 3154 H 291.321 -1.01374 -4.74185 0
M  V30 3155 N 292.664 1.56529 -0.183458 0
M  V30 3156 C 293.612 2.19873 0.758845 0
M  V30 3157 C 294.606 1.16638 1.22849 0
M  V30 3158 O 295.812 1.3481 1.19274 0
M  V30 3159 H 292.187 0.7045 0.263029 0
M  V30 3160 H 294.158 2.97724 0.200755 0
M  V30 3161 C 292.907 2.86314 1.9728 0
M  V30 3162 H 292.23 3.65487 1.62047 0
M  V30 3163 H 293.67 3.3409 2.61075 0
M  V30 3164 C 292.129 1.86729 2.80418 0
M  V30 3165 O 292.659 1.36031 3.77966 0
M  V30 3166 N 290.865 1.55216 2.45675 0
M  V30 3167 H 290.412 1.96636 1.66409 0
M  V30 3168 H 290.37 0.888388 3.01588 0
M  V30 3169 N 294.142 -0.090211 1.57342 0
M  V30 3170 C 295.37 -0.806224 1.90546 0
M  V30 3171 C 295.785 -1.72041 0.777644 0
M  V30 3172 O 295.142 -1.80778 -0.250103 0
M  V30 3173 C 295.193 -1.61546 3.23396 0
M  V30 3174 O 294.914 -0.738043 4.31839 0
M  V30 3175 C 296.415 -2.4341 3.70495 0
M  V30 3176 H 293.635 -0.230256 0.630257 0
M  V30 3177 H 296.179 -0.0659843 2.04394 0
M  V30 3178 H 294.334 -2.30816 3.11131 0
M  V30 3179 H 294.748 -1.29901 5.08159 0
M  V30 3180 H 296.222 -2.95676 4.66133 0
M  V30 3181 H 296.699 -3.22098 2.98579 0
M  V30 3182 H 297.305 -1.79331 3.85643 0
M  V30 3183 N 295.62 -1.53406 -0.361157 0
M  V30 3184 C 297.036 -1.43277 -0.703124 0
M  V30 3185 C 297.236 -0.575384 -1.9311 0
M  V30 3186 O 296.292 -0.0595362 -2.5243 0
M  V30 3187 C 297.605 -2.8653 -0.9122 0
M  V30 3188 C 299.153 -2.96191 -1.01193 0
M  V30 3189 C 299.628 -4.40514 -1.25345 0
M  V30 3190 N 301.119 -4.43962 -1.32105 0
M  V30 3191 C 301.854 -5.52746 -1.5251 0
M  V30 3192 N 301.35 -6.71567 -1.70203 0
M  V30 3193 N 303.143 -5.40331 -1.54916 0
M  V30 3194 H 295.294 -2.07654 0.446475 0
M  V30 3195 H 297.557 -0.937944 0.137715 0
M  V30 3196 H 297.263 -3.51605 -0.0816414 0
M  V30 3197 H 297.137 -3.30441 -1.81903 0
M  V30 3198 H 299.524 -2.31266 -1.83303 0
M  V30 3199 H 299.605 -2.55667 -0.0823929 0
M  V30 3200 H 299.249 -5.06014 -0.437346 0
M  V30 3201 H 299.179 -4.78614 -2.19627 0
M  V30 3202 H 301.67 -3.58332 -1.20028 0
M  V30 3203 H 301.983 -7.50241 -1.85359 0
M  V30 3204 H 300.328 -6.74545 -1.67373 0
M  V30 3205 H 303.519 -4.46465 -1.40663 0
M  V30 3206 H 303.692 -6.25173 -1.70477 0
M  V30 3207 N 297.098 0.621204 -1.44841 0
M  V30 3208 C 298.345 1.38055 -1.48145 0
M  V30 3209 C 298.673 1.94143 -0.117867 0
M  V30 3210 O 297.928 1.74713 0.881694 0
M  V30 3211 C 298.227 2.55675 -2.4973 0
M  V30 3212 C 297.893 2.17817 -3.94799 0
M  V30 3213 C 296.555 2.07205 -4.34303 0
M  V30 3214 C 298.907 1.88065 -4.86087 0
M  V30 3215 C 296.235 1.65045 -5.63007 0
M  V30 3216 C 298.587 1.47394 -6.15189 0
M  V30 3217 C 297.251 1.35331 -6.53637 0
M  V30 3218 H 296.521 0.505181 -0.542101 0
M  V30 3219 H 299.168 0.703477 -1.78111 0
M  V30 3220 H 297.473 3.2866 -2.13284 0
M  V30 3221 H 299.17 3.13904 -2.4953 0
M  V30 3222 H 295.76 2.26998 -3.63552 0
M  V30 3223 H 299.944 1.95168 -4.56315 0
M  V30 3224 H 295.2 1.54317 -5.91605 0
M  V30 3225 H 299.374 1.23415 -6.85377 0
M  V30 3226 H 297.001 1.02435 -7.53267 0
M  V30 3227 N 298.576 1.31904 0.862503 0
M  V30 3228 C 299.801 1.25135 1.65397 0
M  V30 3229 C 300.226 -0.179 1.87246 0
M  V30 3230 O 299.584 -1.1277 1.4196 0
M  V30 3231 C 299.632 2.00832 2.99498 0
M  V30 3232 O 298.736 1.35075 3.89652 0
M  V30 3233 H 298.077 0.431655 0.504549 0
M  V30 3234 H 300.607 1.74094 1.07483 0
M  V30 3235 H 300.617 2.10709 3.49379 0
M  V30 3236 H 299.292 3.04847 2.82916 0
M  V30 3237 H 297.869 1.33696 3.48109 0
M  V30 3238 N 300.054 -1.07777 1.14986 0
M  V30 3239 C 301.331 -1.7699 0.832695 0
M  V30 3240 C 301.711 -2.001 -0.672561 0
M  V30 3241 O 301.059 -1.61598 -1.6155 0
M  V30 3242 C 301.269 -3.08139 1.63863 0
M  V30 3243 C 302.617 -3.8256 1.84208 0
M  V30 3244 O 303.641 -3.17939 1.60603 0
M  V30 3245 O 302.5 -4.98612 2.23714 0
M  V30 3246 H 299.594 -0.768389 0.305791 0
M  V30 3247 H 302.14 -1.14182 1.25541 0
M  V30 3248 H 300.912 -2.86909 2.6608 0
M  V30 3249 H 300.535 -3.78678 1.21197 0
M  V30 3250 N 301.532 -0.945985 -1.26051 0
M  V30 3251 C 302.809 -0.513816 -1.88731 0
M  V30 3252 C 303.189 1.00872 -1.8544 0
M  V30 3253 O 302.537 1.8708 -1.312 0
M  V30 3254 C 302.747 -1.08062 -3.31849 0
M  V30 3255 C 304.095 -1.1522 -4.08668 0
M  V30 3256 O 305.119 -1.03155 -3.40936 0
M  V30 3257 O 303.978 -1.34044 -5.29806 0
M  V30 3258 H 301.072 -0.168193 -0.809716 0
M  V30 3259 H 303.618 -1.03886 -1.34186 0
M  V30 3260 H 302.39 -2.1241 -3.2863 0
M  V30 3261 H 302.013 -0.538307 -3.93939 0
M  V30 3262 N 303.011 1.40521 -0.713556 0
M  V30 3263 C 304.26 2.00155 -0.249192 0
M  V30 3264 C 304.573 1.57224 1.16362 0
M  V30 3265 O 305.779 2.09542 1.72639 0
M  V30 3266 C 304.235 3.5773 -0.3946 0
M  V30 3267 C 303.843 4.09635 -1.81392 0
M  V30 3268 C 305.587 4.24499 0.00907364 0
M  V30 3269 C 303.494 5.59707 -1.91003 0
M  V30 3270 H 302.424 0.74868 -0.0894114 0
M  V30 3271 H 305.075 1.60784 -0.884352 0
M  V30 3272 H 303.457 3.94792 0.30911 0
M  V30 3273 H 304.631 3.83955 -2.54785 0
M  V30 3274 H 302.946 3.55456 -2.16888 0
M  V30 3275 H 305.543 5.34683 -0.0420404 0
M  V30 3276 H 305.886 4.02824 1.05065 0
M  V30 3277 H 306.419 3.92536 -0.645007 0
M  V30 3278 H 303.158 5.86234 -2.93275 0
M  V30 3279 H 302.678 5.87258 -1.22019 0
M  V30 3280 H 304.357 6.24776 -1.6812 0
M  V30 3281 N 304.489 0.459591 1.5075 0
M  V30 3282 C 305.437 -0.354678 2.2988 0
M  V30 3283 C 306.431 -1.00086 1.36672 0
M  V30 3284 O 307.637 -0.933277 1.53915 0
M  V30 3285 H 304.012 -0.13321 0.740107 0
M  V30 3286 H 305.983 0.333269 2.96533 0
M  V30 3287 C 304.732 -1.43073 3.169 0
M  V30 3288 H 304.055 -0.942882 3.88523 0
M  V30 3289 H 305.495 -1.97328 3.75284 0
M  V30 3290 C 303.954 -2.42633 2.33732 0
M  V30 3291 O 304.484 -3.47658 2.01238 0
M  V30 3292 N 302.69 -2.14066 1.9653 0
M  V30 3293 H 302.237 -1.28685 2.23155 0
M  V30 3294 H 302.195 -2.80917 1.41185 0
M  V30 3295 N 305.967 -1.56429 0.191757 0
M  V30 3296 C 306.914 -2.18936 -0.730454 0
M  V30 3297 C 307.884 -1.13557 -1.21219 0
M  V30 3298 O 309.069 -1.41794 -1.27668 0
M  V30 3299 C 306.209 -2.85013 -1.9458 0
M  V30 3300 C 305.322 -4.04909 -1.50574 0
M  V30 3301 C 304.457 -4.58853 -2.67634 0
M  V30 3302 C 303.496 -5.71114 -2.20217 0
M  V30 3303 N 302.633 -6.19478 -3.30442 0
M  V30 3304 H 307.473 -2.97389 -0.190664 0
M  V30 3305 H 305.01 -1.46869 -0.0823694 0
M  V30 3306 H 306.968 -3.21492 -2.65893 0
M  V30 3307 H 305.598 -2.09129 -2.45896 0
M  V30 3308 H 304.65 -3.74115 -0.688605 0
M  V30 3309 H 305.962 -4.86113 -1.11784 0
M  V30 3310 H 305.116 -4.97619 -3.47074 0
M  V30 3311 H 303.855 -3.76749 -3.09696 0
M  V30 3312 H 302.86 -5.31879 -1.3923 0
M  V30 3313 H 304.085 -6.55033 -1.79189 0
M  V30 3314 H 302.031 -5.40297 -3.72041 0
M  V30 3315 H 301.948 -6.95725 -2.9581 0
M  V30 3316 H 303.216 -6.62898 -4.10106 0
M  V30 3317 N 307.445 0.0818655 -1.57387 0
M  V30 3318 C 308.694 0.781681 -1.85937 0
M  V30 3319 C 309.007 1.79246 -0.782957 0
M  V30 3320 O 310.213 2.54112 -0.955987 0
M  V30 3321 C 308.669 1.44109 -3.29789 0
M  V30 3322 C 308.277 0.469396 -4.45534 0
M  V30 3323 C 310.021 2.12386 -3.67549 0
M  V30 3324 C 307.928 1.13415 -5.80423 0
M  V30 3325 H 306.858 0.295682 -0.693605 0
M  V30 3326 H 309.509 0.0348051 -1.83467 0
M  V30 3327 H 307.891 2.23588 -3.2684 0
M  V30 3328 H 309.065 -0.294856 -4.59856 0
M  V30 3329 H 307.38 -0.108383 -4.16259 0
M  V30 3330 H 309.977 2.62878 -4.65617 0
M  V30 3331 H 310.32 2.91877 -2.96839 0
M  V30 3332 H 310.853 1.39751 -3.72444 0
M  V30 3333 H 307.592 0.379771 -6.54399 0
M  V30 3334 H 307.112 1.8695 -5.69921 0
M  V30 3335 H 308.791 1.65686 -6.25426 0
M  V30 3336 N 308.923 1.53595 0.353017 0
M  V30 3337 C 309.871 1.81605 1.45335 0
M  V30 3338 C 310.865 0.685923 1.54892 0
M  V30 3339 O 312.071 0.869095 1.57628 0
M  V30 3340 H 308.446 0.575204 0.484401 0
M  V30 3341 H 310.417 2.73679 1.18921 0
M  V30 3342 C 309.166 2.03406 2.81995 0
M  V30 3343 H 308.489 2.89814 2.75405 0
M  V30 3344 H 309.929 2.26975 3.58132 0
M  V30 3345 C 308.388 0.816794 3.26849 0
M  V30 3346 O 308.918 0.0115856 4.01698 0
M  V30 3347 N 307.124 0.636682 2.8354 0
M  V30 3348 H 306.671 1.2931 2.22793 0
M  V30 3349 H 306.629 -0.176336 3.13905 0
M  V30 3350 N 310.401 -0.613514 1.45168 0
M  V30 3351 C 311.678 -1.37263 1.39349 0
M  V30 3352 C 312.058 -2.11012 0.0610848 0
M  V30 3353 O 311.406 -2.07502 -0.956825 0
M  V30 3354 C 311.616 -2.3244 2.60332 0
M  V30 3355 C 312.964 -2.9523 3.05163 0
M  V30 3356 O 313.988 -2.42762 2.60663 0
M  V30 3357 O 312.847 -3.90454 3.82372 0
M  V30 3358 H 309.941 -0.615188 0.552696 0
M  V30 3359 H 312.487 -0.637097 1.57287 0
M  V30 3360 H 311.259 -1.77164 3.48896 0
M  V30 3361 H 310.882 -3.13383 2.44698 0
M  V30 3362 N 311.879 -1.3236 -0.855495 0
M  V30 3363 C 312.842 -1.21164 -1.94556 0
M  V30 3364 C 313.842 -0.134908 -1.60233 0
M  V30 3365 O 315.032 -0.385249 -1.69887 0
M  V30 3366 C 312.164 -0.863192 -3.29791 0
M  V30 3367 H 313.357 -2.18038 -2.05911 0
M  V30 3368 H 310.91 -1.16179 -1.04557 0
M  V30 3369 H 311.645 0.103769 -3.24134 0
M  V30 3370 H 311.43 -1.64166 -3.56078 0
M  V30 3371 H 312.92 -0.809156 -4.09686 0
M  V30 3372 N 313.357 1.07166 -1.15556 0
M  V30 3373 C 314.606 1.79181 -0.926132 0
M  V30 3374 C 314.919 1.87768 0.547967 0
M  V30 3375 O 316.125 2.56323 0.895036 0
M  V30 3376 C 314.581 3.22 -1.60761 0
M  V30 3377 C 314.189 3.21607 -3.11886 0
M  V30 3378 C 315.933 3.9861 -1.4598 0
M  V30 3379 C 313.84 4.59092 -3.72812 0
M  V30 3380 H 312.77 0.67154 -0.342856 0
M  V30 3381 H 315.421 1.2027 -1.3859 0
M  V30 3382 H 313.803 3.81115 -1.07553 0
M  V30 3383 H 314.977 2.72127 -3.71865 0
M  V30 3384 H 313.292 2.58495 -3.2645 0
M  V30 3385 H 315.889 5.00225 -1.88888 0
M  V30 3386 H 316.232 4.143 -0.407541 0
M  V30 3387 H 316.765 3.45996 -1.96295 0
M  V30 3388 H 313.504 4.48606 -4.77946 0
M  V30 3389 H 313.024 5.08803 -3.17616 0
M  V30 3390 H 314.703 5.28059 -3.73848 0
M  V30 3391 N 314.835 0.952656 1.25548 0
M  V30 3392 C 315.798 0.475794 2.24207 0
M  V30 3393 C 316.798 -0.419428 1.55234 0
M  V30 3394 O 317.988 -0.216994 1.72843 0
M  V30 3395 C 315.12 -0.312814 3.39462 0
M  V30 3396 H 316.313 1.34779 2.67908 0
M  V30 3397 H 313.866 0.735739 1.37901 0
M  V30 3398 H 314.601 -1.20257 3.01179 0
M  V30 3399 H 314.386 0.329404 3.90714 0
M  V30 3400 H 315.876 -0.635986 4.12729 0
M  V30 3401 N 316.313 -1.40141 0.720998 0
M  V30 3402 C 317.59 -1.94677 0.189757 0
M  V30 3403 C 317.97 -1.65879 -1.30566 0
M  V30 3404 O 317.318 -0.979391 -2.06447 0
M  V30 3405 C 317.528 -3.45279 0.508304 0
M  V30 3406 C 318.876 -4.22209 0.449934 0
M  V30 3407 O 319.9 -3.53413 0.444677 0
M  V30 3408 O 318.759 -5.44788 0.432189 0
M  V30 3409 H 315.853 -0.826459 0.0299026 0
M  V30 3410 H 318.399 -1.49719 0.7989 0
M  V30 3411 H 317.171 -3.59619 1.54239 0
M  V30 3412 H 316.794 -3.97386 -0.130525 0
M  V30 3413 N 317.792 -0.46758 -1.50504 0
M  V30 3414 C 318.724 0.364655 -2.26281 0
M  V30 3415 C 319.737 0.960151 -1.31472 0
M  V30 3416 O 320.926 0.849153 -1.57008 0
M  V30 3417 C 318.026 1.52509 -3.02645 0
M  V30 3418 C 317.199 1.04302 -4.24782 0
M  V30 3419 C 316.258 2.07709 -4.8347 0
M  V30 3420 O 315.284 1.65913 -5.44483 0
M  V30 3421 N 316.486 3.40485 -4.70159 0
M  V30 3422 H 319.251 -0.28495 -2.98342 0
M  V30 3423 H 316.812 -0.298163 -1.59131 0
M  V30 3424 H 318.804 2.21371 -3.38787 0
M  V30 3425 H 317.374 2.07945 -2.33404 0
M  V30 3426 H 316.594 0.180393 -3.93787 0
M  V30 3427 H 317.882 0.698798 -5.03978 0
M  V30 3428 H 317.28 3.77155 -4.21629 0
M  V30 3429 H 315.837 4.05156 -5.1058 0
M  V30 3430 N 319.27 1.56325 -0.20005 0
M  V30 3431 C 320.203 2.15234 0.758267 0
M  V30 3432 C 321.181 1.09046 1.20614 0
M  V30 3433 O 322.365 1.37186 1.29276 0
M  V30 3434 C 319.492 2.71524 2.02466 0
M  V30 3435 C 318.538 3.90345 1.71852 0
M  V30 3436 S 319.371 5.28513 0.862249 0
M  V30 3437 C 320.527 5.88227 2.13868 0
M  V30 3438 H 320.76 2.96183 0.2575 0
M  V30 3439 H 318.293 1.54393 0.0150099 0
M  V30 3440 H 320.251 3.04598 2.75191 0
M  V30 3441 H 318.912 1.90607 2.49655 0
M  V30 3442 H 318.105 4.28158 2.65888 0
M  V30 3443 H 317.707 3.58306 1.07205 0
M  V30 3444 H 319.999 6.02891 3.09076 0
M  V30 3445 H 320.942 6.84714 1.80479 0
M  V30 3446 H 321.35 5.16874 2.2694 0
M  V30 3447 N 320.748 -0.0735177 1.57428 0
M  V30 3448 C 321.711 -1.07192 2.02589 0
M  V30 3449 C 322.711 -1.31695 0.922661 0
M  V30 3450 O 323.901 -1.27445 1.18758 0
M  V30 3451 C 321.033 -2.41599 2.40506 0
M  V30 3452 H 322.226 -0.682727 2.92025 0
M  V30 3453 H 319.779 -0.319193 1.53006 0
M  V30 3454 H 320.514 -2.85354 1.5409 0
M  V30 3455 H 320.299 -2.25156 3.21009 0
M  V30 3456 H 321.789 -3.13367 2.76027 0
M  V30 3457 N 322.226 -1.5378 -0.344866 0
M  V30 3458 C 323.156 -1.84662 -1.42906 0
M  V30 3459 C 324.137 -0.701648 -1.54955 0
M  V30 3460 O 325.322 -0.953438 -1.69184 0
M  V30 3461 C 322.452 -2.05503 -2.79974 0
M  V30 3462 C 321.406 -3.21318 -2.82734 0
M  V30 3463 C 320.732 -3.2749 -4.22675 0
M  V30 3464 C 322.032 -4.59456 -2.48389 0
M  V30 3465 H 323.726 -2.75461 -1.17311 0
M  V30 3466 H 321.272 -1.32542 -0.562896 0
M  V30 3467 H 323.225 -2.25691 -3.55867 0
M  V30 3468 H 321.949 -1.11434 -3.07002 0
M  V30 3469 H 320.608 -3.00984 -2.09294 0
M  V30 3470 H 320.256 -2.31019 -4.4681 0
M  V30 3471 H 319.956 -4.05316 -4.25433 0
M  V30 3472 H 321.48 -3.49887 -5.00412 0
M  V30 3473 H 322.894 -4.79667 -3.13995 0
M  V30 3474 H 321.291 -5.39675 -2.62432 0
M  V30 3475 H 322.361 -4.63155 -1.4358 0
M  V30 3476 N 323.704 0.605807 -1.45491 0
M  V30 3477 C 324.951 1.36476 -1.49601 0
M  V30 3478 C 325.279 1.94007 -0.138452 0
M  V30 3479 O 324.534 1.75638 0.863114 0
M  V30 3480 C 324.833 2.53012 -2.52428 0
M  V30 3481 C 324.499 2.13617 -3.97087 0
M  V30 3482 C 323.161 2.02587 -4.36477 0
M  V30 3483 C 325.513 1.82899 -4.88055 0
M  V30 3484 C 322.841 1.59064 -5.64726 0
M  V30 3485 C 325.193 1.40861 -6.16718 0
M  V30 3486 C 323.857 1.28391 -6.55036 0
M  V30 3487 H 323.127 0.499402 -0.547429 0
M  V30 3488 H 325.774 0.684546 -1.78847 0
M  V30 3489 H 324.079 3.26379 -2.16758 0
M  V30 3490 H 325.776 3.1124 -2.52845 0
M  V30 3491 H 322.366 2.23129 -3.65939 0
M  V30 3492 H 326.55 1.90317 -4.58359 0
M  V30 3493 H 321.806 1.48034 -5.93208 0
M  V30 3494 H 325.98 1.16138 -6.86648 0
M  V30 3495 H 323.607 0.944403 -7.54311 0
M  V30 3496 N 325.182 1.32811 0.848464 0
M  V30 3497 C 326.431 1.23075 1.59798 0
M  V30 3498 C 326.744 -0.204419 1.94529 0
M  V30 3499 O 327.95 -0.423701 2.68173 0
M  V30 3500 C 326.406 2.15594 2.88179 0
M  V30 3501 C 326.014 3.64228 2.60849 0
M  V30 3502 C 327.758 2.14709 3.66197 0
M  V30 3503 C 325.665 4.48689 3.85269 0
M  V30 3504 H 324.595 0.457091 0.599653 0
M  V30 3505 H 327.246 1.57813 0.936342 0
M  V30 3506 H 325.628 1.73778 3.55833 0
M  V30 3507 H 326.802 4.14424 2.01467 0
M  V30 3508 H 325.117 3.67306 1.96151 0
M  V30 3509 H 327.714 2.75046 4.58534 0
M  V30 3510 H 328.057 1.13966 4.00397 0
M  V30 3511 H 328.59 2.54837 3.05455 0
M  V30 3512 H 325.329 5.5027 3.56207 0
M  V30 3513 H 324.849 4.03241 4.44024 0
M  V30 3514 H 326.528 4.62006 4.52946 0
M  V30 3515 N 326.66 -1.06551 1.16123 0
M  V30 3516 C 327.592 -2.13908 0.823171 0
M  V30 3517 C 328.605 -1.61926 -0.16843 0
M  V30 3518 O 329.794 -1.78412 0.055962 0
M  V30 3519 C 326.894 -3.38283 0.204424 0
M  V30 3520 C 326.067 -4.19589 1.23548 0
M  V30 3521 C 325.126 -5.2233 0.637011 0
M  V30 3522 O 324.152 -5.54034 1.30516 0
M  V30 3523 N 325.354 -5.77621 -0.577474 0
M  V30 3524 H 328.119 -2.43508 1.74711 0
M  V30 3525 H 325.68 -1.2253 1.05821 0
M  V30 3526 H 327.672 -4.0416 -0.208909 0
M  V30 3527 H 326.242 -3.06329 -0.623012 0
M  V30 3528 H 325.462 -3.49406 1.82507 0
M  V30 3529 H 326.75 -4.70718 1.93137 0
M  V30 3530 H 326.148 -5.54125 -1.13853 0
M  V30 3531 H 324.705 -6.45087 -0.933053 0
M  V30 3532 N 328.138 -0.959301 -1.25041 0
M  V30 3533 C 329.554 -0.664474 -1.4511 0
M  V30 3534 C 329.754 0.776481 -1.85938 0
M  V30 3535 O 328.81 1.55128 -1.99227 0
M  V30 3536 C 330.123 -1.64139 -2.5195 0
M  V30 3537 C 331.671 -1.65309 -2.65786 0
M  V30 3538 C 332.146 -2.61777 -3.75815 0
M  V30 3539 N 333.637 -2.60169 -3.83231 0
M  V30 3540 C 334.372 -3.31489 -4.6787 0
M  V30 3541 N 333.868 -4.12298 -5.56761 0
M  V30 3542 N 335.661 -3.20354 -4.61876 0
M  V30 3543 H 327.812 -1.89043 -0.968332 0
M  V30 3544 H 330.075 -0.813408 -0.4869 0
M  V30 3545 H 329.781 -2.67086 -2.28819 0
M  V30 3546 H 329.655 -1.40756 -3.49954 0
M  V30 3547 H 332.042 -0.630778 -2.8828 0
M  V30 3548 H 332.123 -1.92753 -1.68167 0
M  V30 3549 H 331.767 -3.64137 -3.54071 0
M  V30 3550 H 331.697 -2.31616 -4.72929 0
M  V30 3551 H 334.188 -2.01507 -3.19692 0
M  V30 3552 H 334.501 -4.63625 -6.18281 0
M  V30 3553 H 332.846 -4.16395 -5.56454 0
M  V30 3554 H 336.037 -2.56692 -3.91442 0
M  V30 3555 H 336.21 -3.76201 -5.27614 0
M  V30 3556 N 329.616 1.39756 -0.72842 0
M  V30 3557 C 330.549 2.28176 -0.0330172 0
M  V30 3558 C 331.527 1.44035 0.754501 0
M  V30 3559 O 332.711 1.73434 0.738445 0
M  V30 3560 C 329.838 3.24795 0.960504 0
M  V30 3561 C 328.884 4.25693 0.262264 0
M  V30 3562 S 329.717 5.25714 -1.01906 0
M  V30 3563 C 330.873 6.25894 -0.0279717 0
M  V30 3564 H 331.106 2.86807 -0.78287 0
M  V30 3565 H 328.639 1.45382 -0.519951 0
M  V30 3566 H 330.597 3.80983 1.52846 0
M  V30 3567 H 329.258 2.65196 1.68315 0
M  V30 3568 H 328.451 4.93699 1.01379 0
M  V30 3569 H 328.053 3.7327 -0.233482 0
M  V30 3570 H 330.345 6.72585 0.814621 0
M  V30 3571 H 331.288 7.04876 -0.67499 0
M  V30 3572 H 331.696 5.63466 0.341489 0
M  V30 3573 N 331.094 0.475555 1.50254 0
M  V30 3574 C 332.322 -0.0754493 2.06762 0
M  V30 3575 C 332.737 -1.33111 1.33891 0
M  V30 3576 O 332.094 -1.77846 0.40952 0
M  V30 3577 C 332.145 -0.359008 3.59713 0
M  V30 3578 O 331.866 0.846851 4.29837 0
M  V30 3579 C 333.367 -0.956484 4.32858 0
M  V30 3580 H 330.587 0.00907525 0.670939 0
M  V30 3581 H 333.131 0.665618 1.93364 0
M  V30 3582 H 331.286 -1.05001 3.72899 0
M  V30 3583 H 331.7 0.594162 5.21124 0
M  V30 3584 H 333.174 -1.10463 5.40834 0
M  V30 3585 H 333.651 -1.94775 3.93649 0
M  V30 3586 H 334.257 -0.303723 4.24214 0
M  V30 3587 N 332.573 -1.56217 0.208337 0
M  V30 3588 C 333.798 -2.02782 -0.435222 0
M  V30 3589 C 334.223 -1.08738 -1.53485 0
M  V30 3590 O 333.581 -0.0731855 -1.81152 0
M  V30 3591 C 333.629 -3.47687 -0.956335 0
M  V30 3592 O 332.733 -3.56773 -2.06849 0
M  V30 3593 H 332.074 -0.656403 -0.100158 0
M  V30 3594 H 334.604 -2.02033 0.3231 0
M  V30 3595 H 334.614 -3.87745 -1.26955 0
M  V30 3596 H 333.289 -4.15624 -0.15143 0
M  V30 3597 H 331.866 -3.28597 -1.76292 0
M  V30 3598 N 334.051 0.0651679 -1.57465 0
M  V30 3599 C 335.279 0.775808 -1.91804 0
M  V30 3600 C 335.694 1.70782 -0.804916 0
M  V30 3601 O 335.051 1.81153 0.221311 0
M  V30 3602 C 335.102 1.56381 -3.25925 0
M  V30 3603 O 334.823 0.669248 -4.32958 0
M  V30 3604 C 336.324 2.37485 -3.7432 0
M  V30 3605 H 333.544 0.2202 -0.63384 0
M  V30 3606 H 336.088 0.0334587 -2.04473 0
M  V30 3607 H 334.243 2.25837 -3.14764 0
M  V30 3608 H 334.657 1.21801 -5.10162 0
M  V30 3609 H 336.131 2.88223 -4.70778 0
M  V30 3610 H 336.608 3.17307 -3.03666 0
M  V30 3611 H 337.214 1.73173 -3.88447 0
M  V30 3612 N 335.529 1.53961 0.336706 0
M  V30 3613 C 336.778 1.70751 1.07363 0
M  V30 3614 C 337.091 0.481061 1.89592 0
M  V30 3615 O 338.297 0.530046 2.66276 0
M  V30 3616 C 336.753 3.01965 1.95818 0
M  V30 3617 C 336.361 4.31971 1.18764 0
M  V30 3618 C 338.105 3.28121 2.69327 0
M  V30 3619 C 336.012 5.54255 2.06289 0
M  V30 3620 H 334.942 0.636292 0.404535 0
M  V30 3621 H 337.593 1.80459 0.332681 0
M  V30 3622 H 335.975 2.86132 2.7376 0
M  V30 3623 H 337.149 4.5853 0.456849 0
M  V30 3624 H 335.464 4.12481 0.569946 0
M  V30 3625 H 338.061 4.16673 3.35094 0
M  V30 3626 H 338.404 2.45426 3.36261 0
M  V30 3627 H 338.937 3.44762 1.98454 0
M  V30 3628 H 335.676 6.39513 1.43885 0
M  V30 3629 H 335.196 5.31935 2.77138 0
M  V30 3630 H 336.875 5.90159 2.65182 0
M  V30 3631 N 337.007 -0.598083 1.45811 0
M  V30 3632 C 338.247 -1.36802 1.5187 0
M  V30 3633 C 338.611 -1.9133 0.160224 0
M  V30 3634 O 339.812 -2.6863 0.0955302 0
M  V30 3635 C 338.083 -2.47835 2.57513 0
M  V30 3636 S 339.642 -3.35458 2.82866 0
M  V30 3637 H 336.46 -0.466278 0.536755 0
M  V30 3638 H 339.062 -0.689152 1.82951 0
M  V30 3639 H 337.766 -2.06141 3.54872 0
M  V30 3640 H 337.297 -3.20512 2.28114 0
M  V30 3641 H 339.312 -4.46251 2.16967 0
M  V30 3642 N 338.485 -1.33259 -0.841409 0
M  V30 3643 C 339.733 -1.24326 -1.59334 0
M  V30 3644 C 340.054 0.191564 -1.94057 0
M  V30 3645 O 339.324 1.11967 -1.60749 0
M  V30 3646 H 337.904 -0.457174 -0.590763 0
M  V30 3647 H 340.566 -1.66947 -1.00571 0
M  V30 3648 H 339.662 -1.8352 -2.52442 0
M  V30 3649 N 339.963 1.05934 -1.16686 0
M  V30 3650 C 341.21 1.788 -0.950622 0
M  V30 3651 C 341.538 1.87384 0.521305 0
M  V30 3652 O 340.793 1.36438 1.40297 0
M  V30 3653 C 341.092 3.23105 -1.52767 0
M  V30 3654 C 340.758 3.34594 -3.02254 0
M  V30 3655 C 339.42 3.37437 -3.43059 0
M  V30 3656 C 341.772 3.36219 -3.98254 0
M  V30 3657 C 339.1 3.39525 -4.78477 0
M  V30 3658 C 341.452 3.39845 -5.33562 0
M  V30 3659 C 340.116 3.40971 -5.73842 0
M  V30 3660 H 339.386 0.654275 -0.347857 0
M  V30 3661 H 342.033 1.24555 -1.45459 0
M  V30 3662 H 340.338 3.80227 -0.94524 0
M  V30 3663 H 342.035 3.7809 -1.336 0
M  V30 3664 H 338.625 3.3309 -2.6972 0
M  V30 3665 H 342.809 3.33231 -3.67792 0
M  V30 3666 H 338.065 3.38703 -5.09009 0
M  V30 3667 H 342.239 3.4005 -6.07733 0
M  V30 3668 H 339.866 3.42342 -6.78753 0
M  V30 3669 N 341.441 0.965919 1.2453 0
M  V30 3670 C 342.371 0.513476 2.27784 0
M  V30 3671 C 343.352 -0.445974 1.6415 0
M  V30 3672 O 344.537 -0.342485 1.91156 0
M  V30 3673 C 341.667 -0.198839 3.4673 0
M  V30 3674 C 340.621 0.676456 4.2262 0
M  V30 3675 C 339.947 -0.167248 5.34438 0
M  V30 3676 C 341.247 1.96017 4.84123 0
M  V30 3677 H 342.941 1.3765 2.65881 0
M  V30 3678 H 340.487 0.663321 1.27813 0
M  V30 3679 H 342.44 -0.526567 4.18097 0
M  V30 3680 H 341.164 -1.0962 3.07654 0
M  V30 3681 H 339.823 0.98743 3.53052 0
M  V30 3682 H 339.471 -1.0647 4.91603 0
M  V30 3683 H 339.171 0.415181 5.86131 0
M  V30 3684 H 340.695 -0.489688 6.08633 0
M  V30 3685 H 342.109 1.69814 5.47573 0
M  V30 3686 H 340.506 2.48918 5.4604 0
M  V30 3687 H 341.576 2.65622 4.05676 0
M  V30 3688 N 342.919 -1.39368 0.735821 0
M  V30 3689 C 343.849 -2.33234 0.111506 0
M  V30 3690 C 344.83 -1.53954 -0.723334 0
M  V30 3691 O 346.015 -1.82344 -0.668147 0
M  V30 3692 C 343.145 -3.38057 -0.795917 0
M  V30 3693 C 342.099 -4.2795 -0.065172 0
M  V30 3694 C 341.425 -5.23479 -1.08967 0
M  V30 3695 C 342.725 -5.10741 1.09273 0
M  V30 3696 H 344.419 -2.85692 0.895571 0
M  V30 3697 H 341.965 -1.37364 0.432109 0
M  V30 3698 H 343.918 -4.02675 -1.24221 0
M  V30 3699 H 342.642 -2.8404 -1.61211 0
M  V30 3700 H 341.301 -3.64813 0.361511 0
M  V30 3701 H 340.949 -4.65758 -1.89944 0
M  V30 3702 H 340.649 -5.84472 -0.605489 0
M  V30 3703 H 342.173 -5.90974 -1.53565 0
M  V30 3704 H 343.587 -5.68699 0.724841 0
M  V30 3705 H 341.984 -5.8088 1.50659 0
M  V30 3706 H 343.054 -4.45525 1.91404 0
M  V30 3707 N 344.397 -0.483516 -1.5 0
M  V30 3708 C 345.645 0.067027 -2.01989 0
M  V30 3709 C 345.966 1.3909 -1.36671 0
M  V30 3710 O 345.236 1.88978 -0.516152 0
M  V30 3711 H 343.816 0.0277606 -0.746484 0
M  V30 3712 H 346.478 -0.636773 -1.84204 0
M  V30 3713 H 345.574 0.209484 -3.11396 0
M  V30 3714 N 345.875 1.56104 -0.216619 0
M  V30 3715 C 347.122 1.98172 0.416416 0
M  V30 3716 C 347.45 1.10413 1.60122 0
M  V30 3717 O 346.705 0.147967 1.9514 0
M  V30 3718 C 347.004 3.45923 0.898464 0
M  V30 3719 C 346.67 4.50559 -0.175288 0
M  V30 3720 C 345.332 4.78897 -0.470271 0
M  V30 3721 C 347.684 5.1334 -0.901728 0
M  V30 3722 C 345.012 5.67299 -1.4963 0
M  V30 3723 C 347.364 6.02853 -1.91705 0
M  V30 3724 C 346.028 6.29537 -2.21901 0
M  V30 3725 H 345.298 0.725164 0.152377 0
M  V30 3726 H 347.945 1.88839 -0.318103 0
M  V30 3727 H 346.25 3.52434 1.71165 0
M  V30 3728 H 347.947 3.75841 1.39803 0
M  V30 3729 H 344.537 4.28551 0.0647806 0
M  V30 3730 H 348.721 4.91521 -0.687072 0
M  V30 3731 H 343.977 5.86239 -1.73592 0
M  V30 3732 H 348.151 6.50552 -2.48505 0
M  V30 3733 H 345.778 6.97835 -3.01548 0
M  V30 3734 N 347.353 -0.0568162 1.57498 0
M  V30 3735 C 348.6 -0.753104 1.87975 0
M  V30 3736 C 348.928 -1.76815 0.81035 0
M  V30 3737 O 348.183 -1.94756 -0.19199 0
M  V30 3738 C 348.482 -1.48359 3.25153 0
M  V30 3739 C 348.148 -0.60713 4.46794 0
M  V30 3740 C 346.81 -0.365642 4.79809 0
M  V30 3741 C 349.162 -0.000305978 5.212 0
M  V30 3742 C 346.49 0.491905 5.84634 0
M  V30 3743 C 348.842 0.844781 6.26934 0
M  V30 3744 C 347.506 1.096 6.58441 0
M  V30 3745 H 346.776 -0.27558 0.687849 0
M  V30 3746 H 349.423 -0.0135173 1.91495 0
M  V30 3747 H 347.728 -2.29577 3.17492 0
M  V30 3748 H 349.425 -2.02739 3.45974 0
M  V30 3749 H 346.015 -0.805487 4.20963 0
M  V30 3750 H 350.199 -0.173961 4.95995 0
M  V30 3751 H 345.455 0.695131 6.07436 0
M  V30 3752 H 349.629 1.32165 6.83744 0
M  V30 3753 H 347.256 1.76224 7.39492 0
M  V30 3754 N 348.832 -1.54138 -0.328536 0
M  V30 3755 C 350.248 -1.44736 -0.672574 0
M  V30 3756 C 350.448 -0.616217 -1.91846 0
M  V30 3757 O 349.504 -0.113067 -2.52247 0
M  V30 3758 C 350.817 -2.884 -0.851217 0
M  V30 3759 C 352.365 -2.98271 -0.948877 0
M  V30 3760 C 352.84 -4.43074 -1.15973 0
M  V30 3761 N 354.331 -4.46665 -1.22658 0
M  V30 3762 C 355.066 -5.55857 -1.40751 0
M  V30 3763 N 354.562 -6.75026 -1.5592 0
M  V30 3764 N 356.355 -5.43495 -1.4342 0
M  V30 3765 H 348.506 -2.06661 0.490421 0
M  V30 3766 H 350.769 -0.934812 0.157579 0
M  V30 3767 H 350.475 -3.51699 -0.00704236 0
M  V30 3768 H 350.349 -3.34225 -1.74853 0
M  V30 3769 H 352.736 -2.35102 -1.78356 0
M  V30 3770 H 352.817 -2.55785 -0.0281435 0
M  V30 3771 H 352.461 -5.06827 -0.329915 0
M  V30 3772 H 352.391 -4.83165 -2.09426 0
M  V30 3773 H 354.882 -3.60797 -1.124 0
M  V30 3774 H 355.195 -7.54004 -1.69404 0
M  V30 3775 H 353.54 -6.77944 -1.53027 0
M  V30 3776 H 356.731 -4.49349 -1.31162 0
M  V30 3777 H 356.904 -6.28649 -1.57178 0
M  V30 3778 N 350.31 0.590341 -1.46126 0
M  V30 3779 C 351.558 1.34616 -1.50742 0
M  V30 3780 C 351.879 1.94363 -0.157486 0
M  V30 3781 O 351.149 1.78136 0.815136 0
M  V30 3782 H 349.729 0.499789 -0.555175 0
M  V30 3783 H 352.391 0.691953 -1.82203 0
M  V30 3784 H 351.487 2.15678 -2.25587 0
M  V30 3785 N 351.788 1.33704 0.83433 0
M  V30 3786 C 353.034 1.26612 1.59188 0
M  V30 3787 C 353.389 -0.165439 1.91687 0
M  V30 3788 O 352.682 -1.10873 1.56262 0
M  V30 3789 C 352.876 2.07926 2.90692 0
M  V30 3790 C 352.705 3.58844 2.71038 0
M  V30 3791 C 351.475 4.28148 2.68361 0
M  V30 3792 C 353.673 4.53082 2.43353 0
M  V30 3793 N 351.655 5.64987 2.40132 0
M  V30 3794 C 353.026 5.77843 2.24716 0
M  V30 3795 C 355.081 4.42119 2.28987 0
M  V30 3796 C 353.784 6.92877 1.9317 0
M  V30 3797 C 355.81 5.56973 1.98835 0
M  V30 3798 C 355.172 6.80745 1.81012 0
M  V30 3799 H 351.271 0.518517 0.585375 0
M  V30 3800 H 353.855 1.68294 0.979044 0
M  V30 3801 H 352.026 1.68558 3.49918 0
M  V30 3802 H 353.758 1.92568 3.55949 0
M  V30 3803 H 350.513 3.80469 2.82029 0
M  V30 3804 H 350.937 6.37133 2.28889 0
M  V30 3805 H 355.579 3.47058 2.41477 0
M  V30 3806 H 353.297 7.87931 1.79418 0
M  V30 3807 H 356.883 5.50428 1.88468 0
M  V30 3808 H 355.763 7.68115 1.58017 0
M  V30 3809 N 353.266 -1.05314 1.17247 0
M  V30 3810 C 354.213 -2.13031 0.888058 0
M  V30 3811 C 355.183 -1.65253 -0.167537 0
M  V30 3812 O 356.368 -1.90775 -0.0305974 0
M  V30 3813 C 353.508 -3.42702 0.406147 0
M  V30 3814 C 352.621 -4.04161 1.52572 0
M  V30 3815 C 351.756 -5.21744 0.997808 0
M  V30 3816 C 350.795 -5.75207 2.09291 0
M  V30 3817 N 349.932 -6.84094 1.57986 0
M  V30 3818 H 354.772 -2.36698 1.81048 0
M  V30 3819 H 352.309 -1.16121 0.903013 0
M  V30 3820 H 354.267 -4.17059 0.108305 0
M  V30 3821 H 352.897 -3.19222 -0.479313 0
M  V30 3822 H 351.949 -3.27253 1.93931 0
M  V30 3823 H 353.261 -4.39881 2.35172 0
M  V30 3824 H 352.415 -6.03168 0.653739 0
M  V30 3825 H 351.154 -4.87495 0.141232 0
M  V30 3826 H 350.159 -4.92414 2.44557 0
M  V30 3827 H 351.384 -6.11505 2.95362 0
M  V30 3828 H 349.33 -6.51745 0.74598 0
M  V30 3829 H 349.247 -7.18811 2.34195 0
M  V30 3830 H 350.515 -7.69172 1.26468 0
M  V30 3831 N 354.744 -0.972509 -1.24016 0
M  V30 3832 C 355.674 -0.525548 -2.27509 0
M  V30 3833 C 356.655 0.437262 -1.64384 0
M  V30 3834 O 357.84 0.332343 -1.91335 0
M  V30 3835 C 354.97 0.180448 -3.46831 0
M  V30 3836 C 353.924 -0.698859 -4.22256 0
M  V30 3837 C 353.25 0.138903 -5.3452 0
M  V30 3838 C 354.55 -1.98582 -4.83076 0
M  V30 3839 H 356.244 -1.39058 -2.65148 0
M  V30 3840 H 353.79 -0.67009 -1.27459 0
M  V30 3841 H 355.743 0.504387 -4.18371 0
M  V30 3842 H 354.467 1.07987 -3.08231 0
M  V30 3843 H 353.126 -1.00614 -3.52523 0
M  V30 3844 H 352.774 1.03862 -4.9216 0
M  V30 3845 H 352.474 -0.446259 -5.85903 0
M  V30 3846 H 353.998 0.457404 -6.08884 0
M  V30 3847 H 355.412 -1.72715 -5.46665 0
M  V30 3848 H 353.809 -2.5181 -5.44713 0
M  V30 3849 H 354.879 -2.67769 -4.04262 0
M  V30 3850 N 356.222 1.38976 -0.743202 0
M  V30 3851 C 357.45 2.04636 -0.30525 0
M  V30 3852 C 357.865 1.56044 1.06281 0
M  V30 3853 O 357.222 0.728921 1.67311 0
M  V30 3854 C 357.273 3.60193 -0.307177 0
M  V30 3855 O 356.994 4.06998 -1.62124 0
M  V30 3856 C 358.495 4.4306 0.145928 0
M  V30 3857 H 355.715 0.65788 -0.132041 0
M  V30 3858 H 358.259 1.77866 -1.00915 0
M  V30 3859 H 356.414 3.85835 0.347898 0
M  V30 3860 H 356.828 5.01371 -1.54036 0
M  V30 3861 H 358.302 5.51921 0.0934183 0
M  V30 3862 H 358.779 4.22706 1.19231 0
M  V30 3863 H 359.385 4.22584 -0.479886 0
M  V30 3864 N 357.7 0.491464 1.49741 0
M  V30 3865 C 358.63 -0.28154 2.31796 0
M  V30 3866 C 359.611 -0.971473 1.3963 0
M  V30 3867 O 360.796 -0.964719 1.68543 0
M  V30 3868 C 357.926 -1.35203 3.19902 0
M  V30 3869 C 356.88 -0.782529 4.20786 0
M  V30 3870 C 356.206 -1.95283 4.97764 0
M  V30 3871 C 357.506 0.21999 5.21837 0
M  V30 3872 H 359.2 0.403355 2.96671 0
M  V30 3873 H 356.746 0.195425 1.42668 0
M  V30 3874 H 358.699 -1.90045 3.76113 0
M  V30 3875 H 357.423 -2.06598 2.52953 0
M  V30 3876 H 356.082 -0.255928 3.65706 0
M  V30 3877 H 355.73 -2.65423 4.2727 0
M  V30 3878 H 355.43 -1.57789 5.66018 0
M  V30 3879 H 356.954 -2.50577 5.56816 0
M  V30 3880 H 358.368 -0.23996 5.72798 0
M  V30 3881 H 356.765 0.51026 5.97927 0
M  V30 3882 H 357.835 1.13911 4.7133 0
M  V30 3883 N 359.178 -1.55987 0.224894 0
M  V30 3884 C 360.424 -1.98684 -0.406502 0
M  V30 3885 C 360.757 -1.11248 -1.59177 0
M  V30 3886 O 360.032 -0.170909 -1.93748 0
M  V30 3887 C 360.315 -3.50218 -0.837808 0
M  V30 3888 C 360.168 -4.48426 0.351332 0
M  V30 3889 C 361.487 -4.06243 -1.69278 0
M  V30 3890 H 358.606 -0.722337 -0.146283 0
M  V30 3891 H 361.248 -1.87255 0.321799 0
M  V30 3892 H 359.398 -3.60089 -1.45837 0
M  V30 3893 H 361.07 -4.50562 0.989526 0
M  V30 3894 H 359.313 -4.22159 0.998207 0
M  V30 3895 H 359.984 -5.52 0.00655905 0
M  V30 3896 H 362.46 -3.99337 -1.16914 0
M  V30 3897 H 361.336 -5.12581 -1.96346 0
M  V30 3898 H 361.597 -3.53332 -2.65723 0
M  V30 3899 N 360.656 0.0484629 -1.57525 0
M  V30 3900 C 361.905 0.742065 -1.87553 0
M  V30 3901 C 362.218 1.77545 -0.820802 0
M  V30 3902 O 363.424 2.52027 -1.00967 0
M  V30 3903 C 361.88 1.37081 -3.32771 0
M  V30 3904 C 361.488 0.374786 -4.4643 0
M  V30 3905 C 363.232 2.04542 -3.71972 0
M  V30 3906 C 361.139 1.01077 -5.82698 0
M  V30 3907 H 360.069 0.280903 -0.699721 0
M  V30 3908 H 362.72 -0.00411877 -1.835 0
M  V30 3909 H 361.102 2.16605 -3.31509 0
M  V30 3910 H 362.276 -0.392331 -4.59127 0
M  V30 3911 H 360.591 -0.196653 -4.15935 0
M  V30 3912 H 363.188 2.52943 -4.71088 0
M  V30 3913 H 363.531 2.85515 -3.02964 0
M  V30 3914 H 364.064 1.31819 -3.75325 0
M  V30 3915 H 360.803 0.240878 -6.55057 0
M  V30 3916 H 360.323 1.74819 -5.73758 0
M  V30 3917 H 362.002 1.52383 -6.28799 0
M  V30 3918 N 362.134 1.5431 0.320358 0
M  V30 3919 C 363.383 1.7188 1.05546 0
M  V30 3920 C 363.696 0.501143 1.89071 0
M  V30 3921 O 364.902 0.558258 2.65699 0
M  V30 3922 C 363.358 3.04025 1.92605 0
M  V30 3923 C 362.966 4.33207 1.14176 0
M  V30 3924 C 364.71 3.30959 2.65832 0
M  V30 3925 C 362.617 5.56412 2.00399 0
M  V30 3926 H 361.547 0.640547 0.397763 0
M  V30 3927 H 364.198 1.80802 0.313522 0
M  V30 3928 H 362.58 2.89019 2.7071 0
M  V30 3929 H 363.754 4.58989 0.40819 0
M  V30 3930 H 362.069 4.13062 0.526165 0
M  V30 3931 H 364.666 4.20203 3.30656 0
M  V30 3932 H 365.009 2.48979 3.33639 0
M  V30 3933 H 365.542 3.46847 1.94787 0
M  V30 3934 H 362.281 6.41004 1.37094 0
M  V30 3935 H 361.801 5.34844 2.7148 0
M  V30 3936 H 363.48 5.92938 2.58908 0
M  V30 3937 N 363.613 -0.582584 1.46437 0
M  V30 3938 C 364.838 -1.37168 1.55563 0
M  V30 3939 C 365.263 -1.87061 0.19743 0
M  V30 3940 O 364.621 -1.61572 -0.822451 0
M  V30 3941 C 364.669 -2.53511 2.56446 0
M  V30 3942 O 363.773 -3.54953 2.09958 0
M  V30 3943 H 363.114 -0.408494 0.523477 0
M  V30 3944 H 365.644 -0.706646 1.9201 0
M  V30 3945 H 365.654 -3.00426 2.76058 0
M  V30 3946 H 364.329 -2.16549 3.55076 0
M  V30 3947 H 362.906 -3.14516 2.00334 0
M  V30 3948 N 365.091 -1.34144 -0.827227 0
M  V30 3949 C 366.337 -1.26446 -1.58554 0
M  V30 3950 C 366.67 0.1664 -1.93486 0
M  V30 3951 O 365.945 1.1107 -1.59667 0
M  V30 3952 C 366.228 -2.15111 -2.8879 0
M  V30 3953 C 366.081 -3.66712 -2.60465 0
M  V30 3954 C 367.4 -2.03311 -3.90324 0
M  V30 3955 H 364.519 -0.46067 -0.575284 0
M  V30 3956 H 367.161 -1.64356 -0.953269 0
M  V30 3957 H 365.311 -1.8291 -3.42748 0
M  V30 3958 H 366.983 -4.09259 -2.1285 0
M  V30 3959 H 365.226 -3.88014 -1.93978 0
M  V30 3960 H 365.897 -4.24112 -3.53317 0
M  V30 3961 H 368.373 -2.31574 -3.45706 0
M  V30 3962 H 367.249 -2.67582 -4.79261 0
M  V30 3963 H 367.51 -1.00879 -4.30437 0
M  V30 3964 N 366.569 1.04691 -1.17803 0
M  V30 3965 C 367.794 1.81984 -0.994813 0
M  V30 3966 C 368.219 1.82586 0.452112 0
M  V30 3967 O 367.577 1.23854 1.324 0
M  V30 3968 C 367.625 3.2575 -1.54659 0
M  V30 3969 O 366.729 4.05267 -0.763728 0
M  V30 3970 H 366.07 0.562483 -0.352857 0
M  V30 3971 H 368.6 1.3189 -1.56417 0
M  V30 3972 H 368.61 3.76541 -1.57102 0
M  V30 3973 H 367.285 3.24627 -2.59981 0
M  V30 3974 H 365.862 3.63972 -0.811108 0
M  V30 3975 N 368.047 0.979072 1.23499 0
M  V30 3976 C 369.458 0.684391 1.73704 0
M  V30 3977 C 369.809 -0.799448 1.79174 0
M  V30 3978 O 368.934 -1.62531 1.42873 0
M  V30 3979 C 369.529 1.23564 3.15464 0
M  V30 3980 C 368.088 0.99063 3.6313 0
M  V30 3981 C 367.235 1.36416 2.41425 0
M  V30 3982 H 370.186 1.15307 1.09041 0
M  V30 3983 H 370.207 0.607417 3.7562 0
M  V30 3984 H 369.719 2.31561 3.1145 0
M  V30 3985 H 367.82 -0.0733136 3.72528 0
M  V30 3986 H 367.933 1.64427 4.5 0
M  V30 3987 H 366.297 0.782616 2.42378 0
M  V30 3988 H 367.08 2.45387 2.40083 0
M  V30 3989 N 369.525 -1.3858 0.750561 0
M  V30 3990 C 370.455 -2.33102 0.136237 0
M  V30 3991 C 371.436 -1.54713 -0.706965 0
M  V30 3992 O 372.621 -1.83043 -0.648769 0
M  V30 3993 C 369.751 -3.38882 -0.760017 0
M  V30 3994 C 368.705 -4.27995 -0.0197785 0
M  V30 3995 C 368.031 -5.24605 -1.03408 0
M  V30 3996 C 369.331 -5.09554 1.14684 0
M  V30 3997 H 371.025 -2.84726 0.925822 0
M  V30 3998 H 368.571 -1.36898 0.446654 0
M  V30 3999 H 370.524 -4.0397 -1.19943 0
M  V30 4000 H 369.248 -2.85734 -1.58189 0
M  V30 4001 H 367.907 -3.64409 0.400184 0
M  V30 4002 H 367.555 -4.67746 -1.84994 0
M  V30 4003 H 367.255 -5.85081 -0.543464 0
M  V30 4004 H 368.779 -5.9257 -1.47288 0
M  V30 4005 H 370.193 -5.67899 0.785118 0
M  V30 4006 H 368.59 -5.7925 1.56812 0
M  V30 4007 H 369.66 -4.4347 1.96118 0
M  V30 4008 N 371.003 -0.499398 -1.49478 0
M  V30 4009 C 372.252 0.0475259 -2.01644 0
M  V30 4010 C 372.565 1.38195 -1.38425 0
M  V30 4011 O 373.771 2.01547 -1.8191 0
M  V30 4012 C 372.227 0.135164 -3.59646 0
M  V30 4013 C 371.835 -1.19252 -4.31837 0
M  V30 4014 C 373.579 0.632538 -4.19761 0
M  V30 4015 C 371.486 -1.06713 -5.81693 0
M  V30 4016 H 370.416 0.0215349 -0.753692 0
M  V30 4017 H 373.067 -0.638577 -1.7203 0
M  V30 4018 H 371.449 0.885681 -3.85969 0
M  V30 4019 H 372.623 -1.9562 -4.17216 0
M  V30 4020 H 370.938 -1.62321 -3.83459 0
M  V30 4021 H 373.535 0.743833 -5.29501 0
M  V30 4022 H 373.878 1.63098 -3.83021 0
M  V30 4023 H 374.411 -0.0613987 -3.97753 0
M  V30 4024 H 371.15 -2.03979 -6.22955 0
M  V30 4025 H 370.67 -0.344307 -5.98811 0
M  V30 4026 H 372.349 -0.745208 -6.42694 0
M  V30 4027 N 372.481 1.55866 -0.233164 0
M  V30 4028 C 373.729 1.9821 0.394593 0
M  V30 4029 C 374.05 1.12234 1.59463 0
M  V30 4030 O 373.32 0.201981 1.94856 0
M  V30 4031 H 371.9 0.732034 0.148778 0
M  V30 4032 H 374.562 1.92107 -0.32876 0
M  V30 4033 H 373.658 3.03845 0.713063 0
M  V30 4034 N 373.959 -0.0401083 1.57549 0
M  V30 4035 C 375.208 -0.732108 1.87944 0
M  V30 4036 C 375.521 -1.77107 0.830206 0
M  V30 4037 O 376.727 -2.51488 1.02302 0
M  V30 4038 C 375.183 -1.35315 3.33494 0
M  V30 4039 C 374.791 -0.351105 4.46622 0
M  V30 4040 C 376.535 -2.02566 3.73051 0
M  V30 4041 C 374.442 -0.979859 5.83226 0
M  V30 4042 H 373.372 -0.277188 0.701201 0
M  V30 4043 H 376.023 0.0138501 1.83495 0
M  V30 4044 H 374.405 -2.14844 3.32653 0
M  V30 4045 H 375.579 0.416674 4.58912 0
M  V30 4046 H 373.894 0.218708 4.15825 0
M  V30 4047 H 376.491 -2.50441 4.72423 0
M  V30 4048 H 376.834 -2.83904 3.04474 0
M  V30 4049 H 377.367 -1.29827 3.76018 0
M  V30 4050 H 374.106 -0.206135 6.55176 0
M  V30 4051 H 373.626 -1.71774 5.74677 0
M  V30 4052 H 375.305 -1.49046 6.29599 0
M  V30 4053 N 375.437 -1.54477 -0.31217 0
M  V30 4054 C 376.685 -1.72884 -1.04668 0
M  V30 4055 C 377.006 -0.511477 -1.88173 0
M  V30 4056 O 376.276 0.474407 -1.90069 0
M  V30 4057 H 374.856 -0.637461 -0.389425 0
M  V30 4058 H 377.518 -1.91807 -0.345852 0
M  V30 4059 H 376.614 -2.61334 -1.70619 0
M  V30 4060 N 376.915 0.57481 -1.46744 0
M  V30 4061 C 377.878 1.66533 -1.57478 0
M  V30 4062 C 378.878 1.54338 -0.451263 0
M  V30 4063 O 380.068 1.58814 -0.715813 0
M  V30 4064 C 377.2 3.05999 -1.50259 0
M  V30 4065 H 378.393 1.58372 -2.54673 0
M  V30 4066 H 375.946 0.793301 -1.34672 0
M  V30 4067 H 376.681 3.19709 -0.543725 0
M  V30 4068 H 376.466 3.16259 -2.31781 0
M  V30 4069 H 377.956 3.8537 -1.60872 0
M  V30 4070 N 378.394 1.34581 0.820102 0
M  V30 4071 C 379.357 1.2628 1.91275 0
M  V30 4072 C 380.357 0.177344 1.59819 0
M  V30 4073 O 381.547 0.430156 1.68806 0
M  V30 4074 C 378.679 0.950327 3.27386 0
M  V30 4075 H 379.872 2.23421 2.00057 0
M  V30 4076 H 377.425 1.1891 1.0144 0
M  V30 4077 H 378.16 -0.0177938 3.24295 0
M  V30 4078 H 377.945 1.73549 3.51601 0
M  V30 4079 H 379.435 0.917492 4.07396 0
M  V30 4080 N 379.872 -1.04064 1.18357 0
M  V30 4081 C 381.1 -1.80916 1.00384 0
M  V30 4082 C 381.515 -1.83414 -0.447738 0
M  V30 4083 O 380.872 -1.26962 -1.31099 0
M  V30 4084 C 380.923 -3.26516 1.55144 0
M  V30 4085 O 380.644 -3.2424 2.94618 0
M  V30 4086 C 382.145 -4.20013 1.41789 0
M  V30 4087 H 379.365 -0.569728 0.354474 0
M  V30 4088 H 381.909 -1.31151 1.56906 0
M  V30 4089 H 380.064 -3.73512 1.02798 0
M  V30 4090 H 380.478 -4.15452 3.20156 0
M  V30 4091 H 381.952 -5.20111 1.84901 0
M  V30 4092 H 382.429 -4.37667 0.36661 0
M  V30 4093 H 383.035 -3.78881 1.93207 0
M  V30 4094 N 381.35 -0.985608 -1.22978 0
M  V30 4095 C 382.599 -0.652881 -1.90841 0
M  V30 4096 C 382.912 0.817842 -1.77681 0
M  V30 4097 O 384.118 1.26185 -2.40395 0
M  V30 4098 C 382.574 -1.11717 -3.42122 0
M  V30 4099 C 382.182 -2.6126 -3.63933 0
M  V30 4100 C 383.926 -0.85843 -4.1573 0
M  V30 4101 C 381.833 -3.0133 -5.08876 0
M  V30 4102 H 380.763 -0.240491 -0.714619 0
M  V30 4103 H 383.414 -1.1942 -1.39324 0
M  V30 4104 H 381.796 -0.504027 -3.92779 0
M  V30 4105 H 382.97 -3.27858 -3.23799 0
M  V30 4106 H 381.285 -2.84937 -3.03644 0
M  V30 4107 H 383.882 -1.13359 -5.22546 0
M  V30 4108 H 384.225 0.205461 -4.15793 0
M  V30 4109 H 384.758 -1.43341 -3.71077 0
M  V30 4110 H 381.497 -4.06864 -5.13947 0
M  V30 4111 H 381.017 -2.3943 -5.49939 0
M  V30 4112 H 382.696 -2.92224 -5.77247 0
M  V30 4113 N 382.828 1.3818 -0.7579 0
M  V30 4114 C 384.076 1.99624 -0.315361 0
M  V30 4115 C 384.397 1.60464 1.10799 0
M  V30 4116 O 383.667 0.863507 1.75842 0
M  V30 4117 H 382.247 0.73831 -0.113611 0
M  V30 4118 H 384.909 1.68878 -0.972952 0
M  V30 4119 H 384.005 3.09754 -0.381931 0
M  V30 4120 N 384.306 0.507319 1.49211 0
M  V30 4121 C 385.236 -0.256939 2.32082 0
M  V30 4122 C 386.217 -0.956609 1.40652 0
M  V30 4123 O 387.402 -0.946788 1.69557 0
M  V30 4124 C 384.532 -1.31802 3.21318 0
M  V30 4125 C 383.486 -0.737855 4.21592 0
M  V30 4126 C 382.812 -1.89992 4.99807 0
M  V30 4127 C 384.112 0.275325 5.21574 0
M  V30 4128 H 385.806 0.434798 2.96226 0
M  V30 4129 H 383.352 0.210546 1.42452 0
M  V30 4130 H 385.305 -1.86045 3.78107 0
M  V30 4131 H 384.029 -2.03903 2.5513 0
M  V30 4132 H 382.688 -0.217126 3.65956 0
M  V30 4133 H 382.336 -2.60877 4.30061 0
M  V30 4134 H 382.036 -1.51777 5.6766 0
M  V30 4135 H 383.56 -2.44657 5.59442 0
M  V30 4136 H 384.974 -0.179193 5.7302 0
M  V30 4137 H 383.371 0.573649 5.97352 0
M  V30 4138 H 384.441 1.18903 4.70096 0
M  V30 4139 N 385.784 -1.5574 0.241426 0
M  V30 4140 C 387.009 -2.0366 -0.392111 0
M  V30 4141 C 387.434 -1.11969 -1.51144 0
M  V30 4142 O 386.792 -0.111594 -1.80956 0
M  V30 4143 C 386.84 -3.49638 -0.882371 0
M  V30 4144 O 385.944 -3.6108 -1.99235 0
M  V30 4145 H 385.285 -0.658379 -0.0862122 0
M  V30 4146 H 387.815 -2.01302 0.365881 0
M  V30 4147 H 387.825 -3.90351 -1.18702 0
M  V30 4148 H 386.5 -4.15852 -0.0632361 0
M  V30 4149 H 385.077 -3.32262 -1.69282 0
M  V30 4150 N 387.262 0.0317525 -1.57568 0
M  V30 4151 C 388.508 0.724175 -1.8943 0
M  V30 4152 C 388.841 1.75149 -0.838836 0
M  V30 4153 O 388.116 1.93948 0.146422 0
M  V30 4154 C 388.399 1.39615 -3.31933 0
M  V30 4155 C 388.252 0.382537 -4.4817 0
M  V30 4156 C 389.571 2.33084 -3.73309 0
M  V30 4157 H 386.69 0.261797 -0.688935 0
M  V30 4158 H 389.332 -0.013017 -1.89996 0
M  V30 4159 H 387.482 2.02451 -3.31581 0
M  V30 4160 H 389.154 -0.243689 -4.60656 0
M  V30 4161 H 387.397 -0.29844 -4.32772 0
M  V30 4162 H 388.068 0.891145 -5.44759 0
M  V30 4163 H 390.544 1.80295 -3.7501 0
M  V30 4164 H 389.42 2.77084 -4.73831 0
M  V30 4165 H 389.681 3.19643 -3.05419 0
M  V30 4166 N 388.74 1.54641 0.303973 0
M  V30 4167 C 389.965 1.78092 1.06292 0
M  V30 4168 C 390.39 0.537342 1.80262 0
M  V30 4169 O 389.748 -0.511993 1.7392 0
M  V30 4170 C 389.796 2.98612 2.02147 0
M  V30 4171 O 388.9 2.71528 3.10397 0
M  V30 4172 H 388.241 0.589548 0.305497 0
M  V30 4173 H 390.771 2.01716 0.3423 0
M  V30 4174 H 390.781 3.265 2.44667 0
M  V30 4175 H 389.456 3.88785 1.47714 0
M  V30 4176 H 388.033 2.54648 2.72413 0
M  V30 4177 N 390.218 -0.567019 1.47046 0
M  V30 4178 C 391.165 -1.67489 1.58796 0
M  V30 4179 C 392.135 -1.60399 0.43144 0
M  V30 4180 O 393.32 -1.79378 0.650233 0
M  V30 4181 C 390.46 -3.05821 1.59899 0
M  V30 4182 C 389.573 -3.2342 2.86397 0
M  V30 4183 C 388.708 -4.52093 2.789 0
M  V30 4184 C 387.747 -4.6309 4.00267 0
M  V30 4185 N 386.884 -5.83106 3.91064 0
M  V30 4186 H 391.724 -1.56785 2.53422 0
M  V30 4187 H 389.261 -0.763896 1.2571 0
M  V30 4188 H 391.219 -3.8591 1.58522 0
M  V30 4189 H 389.849 -3.15384 0.687929 0
M  V30 4190 H 388.901 -2.3683 2.97684 0
M  V30 4191 H 390.213 -3.27412 3.76301 0
M  V30 4192 H 389.367 -5.4043 2.75718 0
M  V30 4193 H 388.106 -4.50565 1.86662 0
M  V30 4194 H 387.111 -3.73168 4.03765 0
M  V30 4195 H 388.336 -4.66386 4.93621 0
M  V30 4196 H 386.282 -5.82546 3.01623 0
M  V30 4197 H 386.199 -5.88434 4.74638 0
M  V30 4198 H 387.467 -6.73831 3.91882 0
M  V30 4199 N 391.696 -1.35014 -0.812953 0
M  V30 4200 C 392.943 -1.27931 -1.56971 0
M  V30 4201 C 393.271 0.148034 -1.93936 0
M  V30 4202 O 392.526 1.11175 -1.61054 0
M  V30 4203 C 392.825 -2.12524 -2.87347 0
M  V30 4204 C 392.491 -3.61401 -2.6963 0
M  V30 4205 C 391.153 -4.01983 -2.64506 0
M  V30 4206 C 393.505 -4.55894 -2.52607 0
M  V30 4207 C 390.833 -5.35235 -2.40293 0
M  V30 4208 C 393.185 -5.89336 -2.29925 0
M  V30 4209 C 391.849 -6.2907 -2.23219 0
M  V30 4210 H 391.119 -0.468131 -0.574399 0
M  V30 4211 H 393.766 -1.66851 -0.939836 0
M  V30 4212 H 392.071 -1.66463 -3.54679 0
M  V30 4213 H 393.768 -2.04383 -3.45005 0
M  V30 4214 H 390.358 -3.29193 -2.74463 0
M  V30 4215 H 394.542 -4.25431 -2.55583 0
M  V30 4216 H 389.798 -5.65028 -2.33566 0
M  V30 4217 H 393.972 -6.62139 -2.15743 0
M  V30 4218 H 391.599 -7.32256 -2.04219 0
M  V30 4219 N 393.175 1.03435 -1.18907 0
M  V30 4220 C 394.403 1.80381 -1.01342 0
M  V30 4221 C 394.818 1.83649 0.438005 0
M  V30 4222 O 394.175 1.27655 1.30424 0
M  V30 4223 C 394.226 3.25689 -1.56873 0
M  V30 4224 O 393.947 3.22673 -2.96334 0
M  V30 4225 C 395.448 4.19255 -1.44014 0
M  V30 4226 H 392.668 0.56784 -0.35749 0
M  V30 4227 H 395.212 1.30317 -1.576 0
M  V30 4228 H 393.367 3.72962 -1.04777 0
M  V30 4229 H 393.781 4.13748 -3.22355 0
M  V30 4230 H 395.255 5.19123 -1.87657 0
M  V30 4231 H 395.732 4.37467 -0.389815 0
M  V30 4232 H 396.338 3.77851 -1.95214 0
M  V30 4233 N 394.653 0.992116 1.22453 0
M  V30 4234 C 395.93 0.583508 1.86694 0
M  V30 4235 C 396.31 -0.9392 1.89056 0
M  V30 4236 O 395.658 -1.82081 1.38053 0
M  V30 4237 C 395.868 1.20304 3.2761 0
M  V30 4238 C 397.216 1.30308 4.0411 0
M  V30 4239 O 398.24 1.15737 3.36873 0
M  V30 4240 O 397.099 1.53615 5.24466 0
M  V30 4241 H 394.193 0.198129 0.802916 0
M  V30 4242 H 396.739 1.08794 1.30238 0
M  V30 4243 H 395.511 2.24461 3.2052 0
M  V30 4244 H 395.134 0.684144 3.9167 0
M  V30 4245 N 396.131 -1.37776 0.765217 0
M  V30 4246 C 397.361 -2.03828 0.337277 0
M  V30 4247 C 397.769 -1.57841 -1.04321 0
M  V30 4248 O 397.112 -0.752043 -1.67601 0
M  V30 4249 C 397.174 -3.58292 0.294407 0
M  V30 4250 C 396.838 -4.27384 1.61838 0
M  V30 4251 C 397.835 -4.51956 2.56967 0
M  V30 4252 C 395.52 -4.65345 1.89102 0
M  V30 4253 C 397.514 -5.13536 3.77571 0
M  V30 4254 C 395.201 -5.26647 3.09978 0
M  V30 4255 C 396.199 -5.50679 4.04032 0
M  V30 4256 O 395.887 -6.10702 5.2278 0
M  V30 4257 H 395.619 -0.661292 0.140248 0
M  V30 4258 H 398.173 -1.77222 1.03834 0
M  V30 4259 H 396.403 -3.83918 -0.462983 0
M  V30 4260 H 398.092 -4.05763 -0.105581 0
M  V30 4261 H 398.858 -4.23048 2.37183 0
M  V30 4262 H 394.737 -4.45978 1.16725 0
M  V30 4263 H 398.281 -5.3221 4.50997 0
M  V30 4264 H 394.178 -5.54979 3.29649 0
M  V30 4265 H 394.946 -6.29183 5.23517 0
M  V30 4266 N 397.609 -0.515225 -1.4894 0
M  V30 4267 C 398.519 0.259774 -2.33157 0
M  V30 4268 C 399.535 0.953501 -1.45548 0
M  V30 4269 O 400.711 0.931735 -1.78552 0
M  V30 4270 C 397.776 1.30193 -3.21326 0
M  V30 4271 C 396.837 0.620129 -4.24797 0
M  V30 4272 C 396.07 1.61263 -5.08753 0
M  V30 4273 O 396.293 2.84389 -4.94448 0
M  V30 4274 O 395.227 1.16013 -5.90614 0
M  V30 4275 H 399.053 -0.429932 -3.00641 0
M  V30 4276 H 396.638 -0.276346 -1.46822 0
M  V30 4277 H 398.52 1.90455 -3.75905 0
M  V30 4278 H 397.195 1.97431 -2.56521 0
M  V30 4279 H 396.102 -0.0226019 -3.74093 0
M  V30 4280 H 397.435 -0.0100493 -4.92199 0
M  V30 4281 N 399.087 1.5561 -0.249682 0
M  V30 4282 C 400.017 2.24477 0.642826 0
M  V30 4283 C 400.998 1.22601 1.17911 0
M  V30 4284 O 402.183 1.5126 1.21795 0
M  V30 4285 C 399.313 2.94638 1.83863 0
M  V30 4286 C 398.267 4.03227 1.435 0
M  V30 4287 C 397.593 4.60828 2.71186 0
M  V30 4288 C 398.893 5.18796 0.604002 0
M  V30 4289 H 400.587 2.99321 0.0685625 0
M  V30 4290 H 398.133 1.43965 0.0315363 0
M  V30 4291 H 400.086 3.41517 2.46868 0
M  V30 4292 H 398.81 2.17287 2.43832 0
M  V30 4293 H 397.469 3.57121 0.828275 0
M  V30 4294 H 397.117 3.80174 3.29358 0
M  V30 4295 H 396.817 5.34132 2.44901 0
M  V30 4296 H 398.341 5.10442 3.35084 0
M  V30 4297 H 399.755 5.61883 1.13842 0
M  V30 4298 H 398.152 5.98506 0.437097 0
M  V30 4299 H 399.222 4.83384 -0.383147 0
M  V30 4300 N 400.565 -0.0233959 1.57583 0
M  V30 4301 C 401.512 -1.02224 2.06927 0
M  V30 4302 C 402.482 -1.35575 0.959617 0
M  V30 4303 O 403.667 -1.45815 1.23055 0
M  V30 4304 C 400.807 -2.31636 2.5581 0
M  V30 4305 C 399.92 -2.04394 3.80588 0
M  V30 4306 C 399.055 -3.27717 4.18061 0
M  V30 4307 C 398.094 -2.96056 5.3574 0
M  V30 4308 N 397.231 -4.11847 5.68618 0
M  V30 4309 H 402.071 -0.594504 2.9201 0
M  V30 4310 H 399.608 -0.281921 1.44373 0
M  V30 4311 H 401.566 -3.07258 2.82221 0
M  V30 4312 H 400.196 -2.72122 1.73636 0
M  V30 4313 H 399.248 -1.19244 3.61227 0
M  V30 4314 H 400.56 -1.77042 4.66323 0
M  V30 4315 H 399.714 -4.11702 4.4563 0
M  V30 4316 H 398.453 -3.58188 3.30988 0
M  V30 4317 H 397.458 -2.10474 5.07918 0
M  V30 4318 H 398.683 -2.66857 6.24471 0
M  V30 4319 H 396.629 -4.42258 4.84504 0
M  V30 4320 H 396.546 -3.87938 6.48876 0
M  V30 4321 H 397.814 -4.96689 6.00766 0
M  V30 4322 N 402.043 -1.548 -0.295768 0
M  V30 4323 C 403.006 -1.85363 -1.34808 0
M  V30 4324 C 404.006 -0.726817 -1.43436 0
M  V30 4325 O 405.196 -0.995088 -1.42981 0
M  V30 4326 C 402.328 -2.03859 -2.73229 0
M  V30 4327 H 403.521 -2.7941 -1.08949 0
M  V30 4328 H 401.074 -1.46942 -0.532702 0
M  V30 4329 H 401.809 -1.12117 -3.04303 0
M  V30 4330 H 401.594 -2.8588 -2.68356 0
M  V30 4331 H 403.084 -2.28857 -3.49305 0
M  V30 4332 N 403.521 0.559213 -1.47345 0
M  V30 4333 C 404.751 1.33999 -1.57251 0
M  V30 4334 C 405.159 1.87905 -0.220978 0
M  V30 4335 O 404.502 1.65577 0.795617 0
M  V30 4336 C 404.564 2.54798 -2.53611 0
M  V30 4337 C 404.228 2.22192 -3.99349 0
M  V30 4338 C 405.225 1.79607 -4.87891 0
M  V30 4339 C 402.91 2.33613 -4.44669 0
M  V30 4340 C 404.904 1.48868 -6.19772 0
M  V30 4341 C 402.591 2.02487 -5.76578 0
M  V30 4342 C 403.589 1.60183 -6.63951 0
M  V30 4343 O 403.277 1.29451 -7.93409 0
M  V30 4344 H 403.009 0.414858 -0.533731 0
M  V30 4345 H 405.563 0.684465 -1.9366 0
M  V30 4346 H 403.793 3.23235 -2.12265 0
M  V30 4347 H 405.482 3.16873 -2.53666 0
M  V30 4348 H 406.248 1.70278 -4.54126 0
M  V30 4349 H 402.127 2.65501 -3.76869 0
M  V30 4350 H 405.671 1.15775 -6.87926 0
M  V30 4351 H 401.568 2.11448 -6.09885 0
M  V30 4352 H 402.336 1.43098 -8.05894 0
M  V30 4353 N 404.999 1.35443 0.805782 0
M  V30 4354 C 405.962 1.28301 1.89925 0
M  V30 4355 C 406.962 0.194285 1.59622 0
M  V30 4356 O 408.152 0.448036 1.6834 0
M  V30 4357 C 405.284 0.984997 3.2636 0
M  V30 4358 H 406.477 2.2553 1.97677 0
M  V30 4359 H 404.03 1.19979 1.00173 0
M  V30 4360 H 404.765 0.016603 3.24296 0
M  V30 4361 H 404.55 1.77269 3.4974 0
M  V30 4362 H 406.04 0.960651 4.064 0
M  V30 4363 N 406.477 -1.02803 1.19454 0
M  V30 4364 C 407.424 -2.11099 0.933046 0
M  V30 4365 C 408.394 -1.65571 -0.132447 0
M  V30 4366 O 409.579 -1.90797 0.00987576 0
M  V30 4367 C 406.719 -3.41763 0.478747 0
M  V30 4368 C 405.832 -4.00833 1.6111 0
M  V30 4369 C 404.967 -5.19511 1.10825 0
M  V30 4370 C 404.006 -5.70639 2.21445 0
M  V30 4371 N 403.143 -6.80589 1.72461 0
M  V30 4372 H 407.983 -2.32804 1.86028 0
M  V30 4373 H 405.52 -1.14179 0.927441 0
M  V30 4374 H 407.478 -4.16736 0.196745 0
M  V30 4375 H 406.108 -3.20166 -0.411493 0
M  V30 4376 H 405.16 -3.23066 2.00829 0
M  V30 4377 H 406.472 -4.34794 2.4445 0
M  V30 4378 H 405.626 -6.01645 0.781533 0
M  V30 4379 H 404.365 -4.87086 0.244606 0
M  V30 4380 H 403.37 -4.87116 2.54947 0
M  V30 4381 H 404.595 -6.05102 3.08267 0
M  V30 4382 H 402.541 -6.50016 0.884056 0
M  V30 4383 H 402.458 -7.13681 2.49389 0
M  V30 4384 H 403.726 -7.66317 1.42755 0
M  V30 4385 N 407.956 -0.998596 -1.21925 0
M  V30 4386 C 408.919 -0.558679 -2.22287 0
M  V30 4387 C 409.919 0.361525 -1.56683 0
M  V30 4388 O 411.109 0.152695 -1.73529 0
M  V30 4389 C 408.241 0.18661 -3.40389 0
M  V30 4390 H 409.434 -1.4463 -2.62721 0
M  V30 4391 H 406.987 -0.786413 -1.35075 0
M  V30 4392 H 407.722 1.08996 -3.05435 0
M  V30 4393 H 407.507 -0.474188 -3.89222 0
M  V30 4394 H 408.997 0.482367 -4.14805 0
M  V30 4395 N 409.434 1.37368 -0.772513 0
M  V30 4396 C 410.682 1.99279 -0.336516 0
M  V30 4397 C 411.003 1.6163 1.09091 0
M  V30 4398 O 410.273 0.882109 1.74916 0
M  V30 4399 H 408.853 0.737063 -0.121435 0
M  V30 4400 H 411.515 1.67836 -0.990809 0
M  V30 4401 H 410.611 3.09332 -0.414763 0
M  V30 4402 N 410.912 0.523116 1.48665 0
M  V30 4403 C 412.158 -0.0134963 2.02796 0
M  V30 4404 C 412.491 -1.34582 1.40004 0
M  V30 4405 O 411.766 -1.86756 0.543381 0
M  V30 4406 C 412.049 -0.14276 3.59817 0
M  V30 4407 C 411.902 1.21425 4.331 0
M  V30 4408 C 413.221 -0.872856 4.31357 0
M  V30 4409 H 410.34 -0.00343074 0.736992 0
M  V30 4410 H 412.982 0.678816 1.7746 0
M  V30 4411 H 411.132 -0.732401 3.81534 0
M  V30 4412 H 412.804 1.84447 4.2282 0
M  V30 4413 H 411.047 1.79791 3.94788 0
M  V30 4414 H 411.718 1.07687 5.41394 0
M  V30 4415 H 414.194 -0.372555 4.14429 0
M  V30 4416 H 413.07 -0.932185 5.40927 0
M  V30 4417 H 413.331 -1.92161 3.98154 0
M  V30 4418 N 412.39 -1.55475 0.257931 0
M  V30 4419 C 413.636 -1.99502 -0.364266 0
M  V30 4420 C 413.969 -1.146 -1.56782 0
M  V30 4421 O 413.244 -0.211968 -1.93342 0
M  V30 4422 C 413.527 -3.51917 -0.763333 0
M  V30 4423 C 413.38 -4.4758 0.446371 0
M  V30 4424 C 414.699 -4.09742 -1.60623 0
M  V30 4425 H 411.818 -0.725277 -0.130929 0
M  V30 4426 H 414.46 -1.8653 0.361446 0
M  V30 4427 H 412.61 -3.63101 -1.38166 0
M  V30 4428 H 414.282 -4.48362 1.08487 0
M  V30 4429 H 412.525 -4.19947 1.08753 0
M  V30 4430 H 413.196 -5.51862 0.123645 0
M  V30 4431 H 415.672 -4.01727 -1.08418 0
M  V30 4432 H 414.548 -5.16631 -1.85429 0
M  V30 4433 H 414.809 -3.58889 -2.58169 0
M  V30 4434 N 413.868 0.0150385 -1.57593 0
M  V30 4435 C 414.831 0.995996 -2.06428 0
M  V30 4436 C 415.831 1.2818 -0.970903 0
M  V30 4437 O 417.021 1.22949 -1.23406 0
M  V30 4438 C 414.153 2.32506 -2.49307 0
M  V30 4439 H 415.346 0.573873 -2.94358 0
M  V30 4440 H 412.899 0.262186 -1.54085 0
M  V30 4441 H 413.634 2.79438 -1.64575 0
M  V30 4442 H 413.419 2.13087 -3.29145 0
M  V30 4443 H 414.909 3.02906 -2.87468 0
M  V30 4444 N 415.346 1.54954 0.287554 0
M  V30 4445 C 416.623 1.65569 1.04146 0
M  V30 4446 C 417.003 0.512672 2.0478 0
M  V30 4447 O 416.351 -0.489038 2.23205 0
M  V30 4448 C 416.561 3.04163 1.71131 0
M  V30 4449 C 417.909 3.61429 2.22832 0
M  V30 4450 O 418.933 3.06702 1.81141 0
M  V30 4451 O 417.792 4.57281 2.9926 0
M  V30 4452 H 414.886 0.671881 0.482188 0
M  V30 4453 H 417.432 1.67297 0.28457 0
M  V30 4454 H 416.204 3.78796 0.981303 0
M  V30 4455 H 415.827 3.06271 2.53543 0
M  V30 4456 N 416.824 -0.551391 1.4764 0
M  V30 4457 C 417.734 -1.68525 1.63207 0
M  V30 4458 C 418.75 -1.6621 0.514815 0
M  V30 4459 O 419.926 -1.85551 0.783113 0
M  V30 4460 C 416.991 -3.05025 1.64805 0
M  V30 4461 C 416.052 -3.18362 2.88 0
M  V30 4462 C 415.285 -4.4835 2.89513 0
M  V30 4463 O 415.508 -5.34163 2.00065 0
M  V30 4464 O 414.442 -4.65602 3.81443 0
M  V30 4465 H 418.268 -1.58333 2.59161 0
M  V30 4466 H 415.853 -0.722063 1.30792 0
M  V30 4467 H 417.735 -3.86245 1.68502 0
M  V30 4468 H 416.41 -3.15587 0.720197 0
M  V30 4469 H 415.317 -2.36518 2.89845 0
M  V30 4470 H 416.65 -3.12707 3.80099 0
M  V30 4471 N 418.302 -1.35869 -0.798587 0
M  V30 4472 C 419.548 -1.2978 -1.55836 0
M  V30 4473 C 419.881 0.125322 -1.93795 0
M  V30 4474 O 419.156 1.07658 -1.61987 0
M  V30 4475 C 419.439 -2.21188 -2.84162 0
M  V30 4476 C 419.292 -3.72155 -2.52628 0
M  V30 4477 C 420.611 -2.11545 -3.85923 0
M  V30 4478 H 417.73 -0.472769 -0.565383 0
M  V30 4479 H 420.372 -1.66341 -0.918192 0
M  V30 4480 H 418.522 -1.90139 -3.38791 0
M  V30 4481 H 420.194 -4.13682 -2.04121 0
M  V30 4482 H 418.437 -3.92042 -1.85704 0
M  V30 4483 H 419.108 -4.31511 -3.44242 0
M  V30 4484 H 421.584 -2.38855 -3.40716 0
M  V30 4485 H 420.46 -2.77688 -4.73477 0
M  V30 4486 H 420.721 -1.09987 -4.282 0
M  V30 4487 N 419.78 1.02168 -1.19998 0
M  V30 4488 C 421.029 1.75091 -1.0013 0
M  V30 4489 C 421.342 1.89923 0.467835 0
M  V30 4490 O 422.548 2.59888 0.785515 0
M  V30 4491 C 421.004 3.14892 -1.74273 0
M  V30 4492 C 420.612 3.0809 -3.25245 0
M  V30 4493 C 422.356 3.9206 -1.62755 0
M  V30 4494 C 420.263 4.42867 -3.91948 0
M  V30 4495 H 419.193 0.656394 -0.37103 0
M  V30 4496 H 421.844 1.14284 -1.43567 0
M  V30 4497 H 420.226 3.7621 -1.2362 0
M  V30 4498 H 421.4 2.5611 -3.83072 0
M  V30 4499 H 419.715 2.44416 -3.3712 0
M  V30 4500 H 422.312 4.91764 -2.09934 0
M  V30 4501 H 422.655 4.12199 -0.582894 0
M  V30 4502 H 423.188 3.37359 -2.10793 0
M  V30 4503 H 419.927 4.27931 -4.96543 0
M  V30 4504 H 419.447 4.94874 -3.3891 0
M  V30 4505 H 421.126 5.11728 -3.95909 0
M  V30 4506 N 421.258 1.00505 1.21394 0
M  V30 4507 C 422.483 0.706367 1.95001 0
M  V30 4508 C 422.908 -0.72463 1.73582 0
M  V30 4509 O 422.266 -1.49702 1.0227 0
M  V30 4510 C 422.314 1.03299 3.45487 0
M  V30 4511 O 421.418 0.138275 4.12168 0
M  V30 4512 H 420.759 0.263175 0.609619 0
M  V30 4513 H 423.289 1.34531 1.54151 0
M  V30 4514 H 423.299 0.979872 3.96059 0
M  V30 4515 H 421.974 2.07567 3.60401 0
M  V30 4516 H 420.551 0.247928 3.72075 0
M  V30 4517 N 422.737 -1.36956 0.779787 0
M  V30 4518 C 423.962 -2.04283 0.358224 0
M  V30 4519 C 424.387 -1.58422 -1.01411 0
M  V30 4520 O 423.745 -0.748179 -1.65142 0
M  V30 4521 C 423.793 -3.58152 0.419479 0
M  V30 4522 O 422.897 -4.08342 -0.577142 0
M  V30 4523 H 422.238 -0.645967 0.153698 0
M  V30 4524 H 424.768 -1.75108 1.05822 0
M  V30 4525 H 424.778 -4.07041 0.279636 0
M  V30 4526 H 423.453 -3.90886 1.42061 0
M  V30 4527 H 422.03 -3.70751 -0.399755 0
M  V30 4528 N 424.215 -0.530993 -1.48385 0
M  V30 4529 C 425.148 0.278511 -2.26494 0
M  V30 4530 C 426.126 0.943905 -1.32398 0
M  V30 4531 O 427.31 0.968098 -1.61741 0
M  V30 4532 C 424.437 1.39453 -3.08659 0
M  V30 4533 C 423.483 0.840434 -4.18137 0
M  V30 4534 S 424.316 -0.292496 -5.34701 0
M  V30 4535 C 425.472 0.825973 -6.20426 0
M  V30 4536 H 425.705 -0.384365 -2.94805 0
M  V30 4537 H 423.238 -0.316799 -1.51115 0
M  V30 4538 H 425.196 2.03382 -3.56575 0
M  V30 4539 H 423.857 2.02913 -2.3976 0
M  V30 4540 H 423.05 1.67769 -4.75257 0
M  V30 4541 H 422.652 0.277819 -3.72967 0
M  V30 4542 H 424.944 1.72438 -6.55188 0
M  V30 4543 H 425.887 0.292728 -7.07495 0
M  V30 4544 H 426.295 1.10683 -5.53543 0
M  V30 4545 N 425.693 1.55336 -0.266172 0
M  V30 4546 C 427.109 1.59356 0.0882065 0
M  V30 4547 C 427.309 1.2834 1.55342 0
M  V30 4548 O 426.365 1.03996 2.30089 0
M  V30 4549 C 427.678 2.99409 -0.278364 0
M  V30 4550 C 429.226 3.12196 -0.224243 0
M  V30 4551 C 429.701 4.545 -0.565123 0
M  V30 4552 N 431.192 4.60313 -0.51634 0
M  V30 4553 C 431.927 5.68434 -0.753013 0
M  V30 4554 N 431.423 6.84738 -1.05383 0
M  V30 4555 N 433.216 5.57942 -0.682414 0
M  V30 4556 H 425.367 1.73764 -1.22147 0
M  V30 4557 H 427.63 0.809822 -0.492841 0
M  V30 4558 H 427.336 3.2691 -1.29703 0
M  V30 4559 H 427.21 3.75228 0.385186 0
M  V30 4560 H 429.597 2.84464 0.78512 0
M  V30 4561 H 429.678 2.38609 -0.921922 0
M  V30 4562 H 429.322 4.82956 -1.57213 0
M  V30 4563 H 429.252 5.26374 0.154248 0
M  V30 4564 H 431.743 3.7676 -0.29335 0
M  V30 4565 H 432.056 7.63088 -1.22133 0
M  V30 4566 H 430.401 6.86375 -1.09151 0
M  V30 4567 H 433.592 4.65958 -0.44731 0
M  V30 4568 H 433.765 6.4213 -0.870248 0
M  V30 4569 N 427.171 -0.0066808 1.57599 0
M  V30 4570 C 428.399 -0.704087 1.94551 0
M  V30 4571 C 428.814 -1.67677 0.867746 0
M  V30 4572 O 428.171 -1.8185 -0.153925 0
M  V30 4573 C 428.222 -1.44177 3.31505 0
M  V30 4574 O 427.943 -0.508097 4.35144 0
M  V30 4575 C 429.444 -2.23429 3.82876 0
M  V30 4576 H 426.664 -0.196523 0.641576 0
M  V30 4577 H 429.208 0.042453 2.04456 0
M  V30 4578 H 427.363 -2.13999 3.22929 0
M  V30 4579 H 427.777 -1.02782 5.14331 0
M  V30 4580 H 429.251 -2.70552 4.8115 0
M  V30 4581 H 429.728 -3.05818 3.15233 0
M  V30 4582 H 430.334 -1.58636 3.94607 0
M  V30 4583 N 428.649 -1.55105 -0.279332 0
M  V30 4584 C 429.895 -1.75672 -1.01327 0
M  V30 4585 C 430.228 -0.552739 -1.86168 0
M  V30 4586 O 429.503 0.449827 -1.89227 0
M  V30 4587 C 429.786 -3.05825 -1.90114 0
M  V30 4588 C 429.639 -4.36565 -1.08309 0
M  V30 4589 C 430.958 -3.31975 -2.8893 0
M  V30 4590 H 428.077 -0.639149 -0.366957 0
M  V30 4591 H 430.719 -1.87833 -0.286154 0
M  V30 4592 H 428.869 -2.95588 -2.52111 0
M  V30 4593 H 430.541 -4.58751 -0.484314 0
M  V30 4594 H 428.784 -4.32076 -0.386362 0
M  V30 4595 H 429.455 -5.23946 -1.73737 0
M  V30 4596 H 431.931 -3.41963 -2.37067 0
M  V30 4597 H 430.807 -4.2432 -3.48201 0
M  V30 4598 H 431.068 -2.51309 -3.63725 0
M  V30 4599 N 430.127 0.543554 -1.4793 0
M  V30 4600 C 431.09 1.63156 -1.60975 0
M  V30 4601 C 432.09 1.53346 -0.483899 0
M  V30 4602 O 433.28 1.5726 -0.749339 0
M  V30 4603 C 430.412 3.02743 -1.56716 0
M  V30 4604 H 431.605 1.52934 -2.57975 0
M  V30 4605 H 429.158 0.764557 -1.36324 0
M  V30 4606 H 429.893 3.18484 -0.611418 0
M  V30 4607 H 429.678 3.11272 -2.38438 0
M  V30 4608 H 431.168 3.81871 -1.6901 0
M  V30 4609 N 431.605 1.3629 0.791371 0
M  V30 4610 C 432.568 1.30309 1.88553 0
M  V30 4611 C 433.568 0.211204 1.59407 0
M  V30 4612 O 434.758 0.465865 1.67855 0
M  V30 4613 C 431.89 1.01956 3.25297 0
M  V30 4614 H 433.083 2.27614 1.95273 0
M  V30 4615 H 430.636 1.21035 0.988953 0
M  V30 4616 H 431.371 0.050998 3.2426 0
M  V30 4617 H 431.156 1.80968 3.4784 0
M  V30 4618 H 432.646 1.0037 4.05359 0
M  V30 4619 N 433.083 -1.0153 1.20538 0
M  V30 4620 C 434.33 -1.75149 1.01633 0
M  V30 4621 C 434.658 -1.89189 -0.451399 0
M  V30 4622 O 433.913 -1.41551 -1.35136 0
M  V30 4623 C 434.212 -3.17213 1.64654 0
M  V30 4624 C 433.878 -3.23146 3.14464 0
M  V30 4625 C 432.54 -3.24472 3.55347 0
M  V30 4626 C 434.892 -3.21207 4.10458 0
M  V30 4627 C 432.22 -3.21532 4.90748 0
M  V30 4628 C 434.572 -3.19808 5.45807 0
M  V30 4629 C 433.236 -3.19439 5.86102 0
M  V30 4630 H 432.506 -0.640914 0.3719 0
M  V30 4631 H 435.153 -1.19071 1.49981 0
M  V30 4632 H 433.458 -3.76457 1.08571 0
M  V30 4633 H 435.155 -3.72871 1.4754 0
M  V30 4634 H 431.745 -3.2285 2.81897 0
M  V30 4635 H 435.929 -3.19351 3.79906 0
M  V30 4636 H 431.185 -3.19578 5.21229 0
M  V30 4637 H 435.359 -3.1726 6.19935 0
M  V30 4638 H 432.986 -3.16915 6.90991 0
M  V30 4639 N 434.561 -1.01147 -1.20859 0
M  V30 4640 C 435.809 -0.696486 -1.89719 0
M  V30 4641 C 436.13 0.775788 -1.78904 0
M  V30 4642 O 435.4 1.55759 -1.18811 0
M  V30 4643 H 433.98 -0.254628 -0.702263 0
M  V30 4644 H 436.642 -1.28197 -1.46804 0
M  V30 4645 H 435.738 -0.975357 -2.96468 0
M  V30 4646 N 436.039 1.36541 -0.78704 0
M  V30 4647 C 437.287 1.98911 -0.357633 0
M  V30 4648 C 437.608 1.62778 1.07371 0
M  V30 4649 O 436.878 0.900612 1.73971 0
M  V30 4650 H 435.458 0.735734 -0.129246 0
M  V30 4651 H 438.12 1.66776 -1.00855 0
M  V30 4652 H 437.216 3.08874 -0.447549 0
M  V30 4653 N 437.518 0.538854 1.48102 0
M  V30 4654 C 438.428 -0.222648 2.33541 0
M  V30 4655 C 439.444 -0.930225 1.47047 0
M  V30 4656 O 440.62 -0.903211 1.80011 0
M  V30 4657 C 437.685 -1.25064 3.23357 0
M  V30 4658 C 436.746 -0.552469 4.2573 0
M  V30 4659 C 435.979 -1.53149 5.11254 0
M  V30 4660 O 436.202 -2.76487 4.9891 0
M  V30 4661 O 435.136 -1.06602 5.92385 0
M  V30 4662 H 438.962 0.477707 2.99919 0
M  V30 4663 H 436.547 0.299669 1.46364 0
M  V30 4664 H 438.429 -1.8445 3.78888 0
M  V30 4665 H 437.104 -1.93325 2.59629 0
M  V30 4666 H 436.011 0.082114 3.7401 0
M  V30 4667 H 437.344 0.0883526 4.92121 0
M  V30 4668 N 438.996 -1.55193 0.274407 0
M  V30 4669 C 439.943 -2.225 -0.613374 0
M  V30 4670 C 440.913 -1.19823 -1.15029 0
M  V30 4671 O 442.098 -1.48362 -1.19973 0
M  V30 4672 C 439.238 -2.94927 -1.79199 0
M  V30 4673 C 438.351 -4.12322 -1.28899 0
M  V30 4674 C 437.486 -4.72394 -2.42934 0
M  V30 4675 C 436.525 -5.81984 -1.89634 0
M  V30 4676 N 435.662 -6.36123 -2.9714 0
M  V30 4677 H 440.502 -2.97982 -0.032756 0
M  V30 4678 H 438.039 -1.47099 -0.00440146 0
M  V30 4679 H 439.997 -3.35134 -2.48478 0
M  V30 4680 H 438.627 -2.2187 -2.34465 0
M  V30 4681 H 437.679 -3.7724 -0.489327 0
M  V30 4682 H 438.991 -4.91355 -0.858587 0
M  V30 4683 H 438.145 -5.15317 -3.20208 0
M  V30 4684 H 436.884 -3.92636 -2.8929 0
M  V30 4685 H 435.889 -5.38511 -1.1084 0
M  V30 4686 H 437.114 -6.6361 -1.44215 0
M  V30 4687 H 435.06 -5.59259 -3.42878 0
M  V30 4688 H 434.977 -7.10427 -2.58515 0
M  V30 4689 H 436.245 -6.83704 -3.74391 0
M  V30 4690 N 440.474 -0.00167713 -1.576 0
M  V30 4691 C 441.89 0.354422 -1.55615 0
M  V30 4692 C 442.09 1.74679 -1.00447 0
M  V30 4693 O 441.146 2.4428 -0.639022 0
M  V30 4694 C 442.459 0.22812 -2.99833 0
M  V30 4695 C 444.007 0.302934 -3.11531 0
M  V30 4696 C 444.482 0.205737 -4.57538 0
M  V30 4697 N 445.973 0.263584 -4.62449 0
M  V30 4698 C 446.708 0.211742 -5.73009 0
M  V30 4699 N 446.204 0.110399 -6.92712 0
M  V30 4700 N 447.997 0.263729 -5.61481 0
M  V30 4701 H 440.148 -0.912498 -1.918 0
M  V30 4702 H 442.411 -0.349928 -0.881053 0
M  V30 4703 H 442.117 -0.729934 -3.44042 0
M  V30 4704 H 441.991 1.00951 -3.6344 0
M  V30 4705 H 444.378 1.25143 -2.67251 0
M  V30 4706 H 444.459 -0.508357 -2.50698 0
M  V30 4707 H 444.103 -0.739225 -5.02492 0
M  V30 4708 H 444.033 1.03554 -5.16318 0
M  V30 4709 H 446.524 0.343173 -3.76339 0
M  V30 4710 H 446.837 0.0767828 -7.72762 0
M  V30 4711 H 445.182 0.0760025 -6.94958 0
M  V30 4712 H 448.373 0.34111 -4.66855 0
M  V30 4713 H 448.546 0.219862 -6.47627 0
M  V30 4714 N 441.952 1.55251 0.271103 0
M  V30 4715 C 442.862 1.9136 1.35714 0
M  V30 4716 C 443.878 0.811075 1.5394 0
M  V30 4717 O 445.054 1.11031 1.6803 0
M  V30 4718 C 442.119 2.1798 2.69603 0
M  V30 4719 C 441.18 3.4153 2.60107 0
M  V30 4720 C 440.413 3.66871 3.8761 0
M  V30 4721 O 440.636 2.94689 4.8838 0
M  V30 4722 O 439.57 4.60405 3.87699 0
M  V30 4723 H 443.396 2.83815 1.08088 0
M  V30 4724 H 440.981 1.41821 0.469792 0
M  V30 4725 H 442.863 2.36518 3.48765 0
M  V30 4726 H 441.538 1.28708 2.97012 0
M  V30 4727 H 440.445 3.28325 1.79314 0
M  V30 4728 H 441.778 4.31027 2.37647 0
M  V30 4729 N 443.43 -0.535701 1.48216 0
M  V30 4730 C 444.676 -1.29375 1.56173 0
M  V30 4731 C 445.009 -1.92804 0.232429 0
M  V30 4732 O 444.284 -1.78992 -0.761048 0
M  V30 4733 C 444.567 -2.38747 2.69577 0
M  V30 4734 C 444.42 -1.80046 4.12193 0
M  V30 4735 C 445.739 -3.40551 2.78771 0
M  V30 4736 H 442.858 -0.469027 0.568491 0
M  V30 4737 H 445.5 -0.597358 1.80365 0
M  V30 4738 H 443.65 -2.98147 2.4908 0
M  V30 4739 H 445.322 -1.24742 4.44114 0
M  V30 4740 H 443.565 -1.10609 4.19462 0
M  V30 4741 H 444.236 -2.59212 4.87353 0
M  V30 4742 H 446.712 -2.91099 2.97322 0
M  V30 4743 H 445.588 -4.1448 3.59857 0
M  V30 4744 H 445.849 -4.00746 1.86696 0
M  V30 4745 N 444.908 -1.36708 -0.784132 0
M  V30 4746 C 445.818 -1.3363 -1.92822 0
M  V30 4747 C 446.834 -0.237686 -1.72369 0
M  V30 4748 O 448.01 -0.470962 -1.95816 0
M  V30 4749 C 445.075 -1.13011 -3.27764 0
M  V30 4750 C 444.136 -2.32397 -3.60957 0
M  V30 4751 C 443.369 -2.12752 -4.89461 0
M  V30 4752 O 443.592 -1.10541 -5.59586 0
M  V30 4753 O 442.526 -3.00653 -5.21432 0
M  V30 4754 H 446.352 -2.29964 -1.98369 0
M  V30 4755 H 443.937 -1.1731 -0.925136 0
M  V30 4756 H 445.819 -1.03451 -4.08504 0
M  V30 4757 H 444.494 -0.19743 -3.23097 0
M  V30 4758 H 443.401 -2.47527 -2.80502 0
M  V30 4759 H 444.734 -3.2419 -3.70354 0
M  V30 4760 N 446.386 1.0089 -1.21074 0
M  V30 4761 C 447.802 1.2695 -0.967257 0
M  V30 4762 C 448.002 1.9846 0.348673 0
M  V30 4763 O 447.058 2.28459 1.0753 0
M  V30 4764 C 448.371 2.09697 -2.15517 0
M  V30 4765 C 449.919 2.22937 -2.197 0
M  V30 4766 C 450.394 3.09064 -3.37999 0
M  V30 4767 N 451.885 3.16653 -3.38061 0
M  V30 4768 C 452.62 3.8354 -4.26245 0
M  V30 4769 N 452.116 4.52488 -5.2462 0
M  V30 4770 N 453.909 3.80141 -4.14064 0
M  V30 4771 H 446.06 0.529005 -2.05707 0
M  V30 4772 H 448.323 0.296148 -0.900556 0
M  V30 4773 H 448.029 1.64497 -3.10859 0
M  V30 4774 H 447.903 3.10444 -2.14253 0
M  V30 4775 H 450.29 2.67357 -1.24916 0
M  V30 4776 H 450.371 1.21673 -2.2501 0
M  V30 4777 H 450.015 2.65347 -4.33074 0
M  V30 4778 H 449.945 4.10433 -3.29928 0
M  V30 4779 H 452.436 2.67566 -2.66865 0
M  V30 4780 H 452.749 5.01219 -5.88217 0
M  V30 4781 H 451.094 4.51288 -5.28549 0
M  V30 4782 H 454.285 3.25427 -3.36474 0
M  V30 4783 H 454.458 4.31992 -4.82998 0
M  V30 4784 N 447.864 1.01787 1.20321 0
M  V30 4785 C 449.094 0.72614 1.93419 0
M  V30 4786 C 449.502 -0.717317 1.75075 0
M  V30 4787 O 448.845 -1.49836 1.06278 0
M  V30 4788 C 448.907 0.983621 3.45782 0
M  V30 4789 C 448.571 2.41645 3.87888 0
M  V30 4790 C 449.568 3.39732 3.93545 0
M  V30 4791 C 447.253 2.75752 4.19841 0
M  V30 4792 C 449.247 4.69988 4.30569 0
M  V30 4793 C 446.934 4.06221 4.56539 0
M  V30 4794 C 447.932 5.0315 4.61876 0
M  V30 4795 O 447.62 6.31284 4.97731 0
M  V30 4796 H 447.352 0.265824 0.621541 0
M  V30 4797 H 449.906 1.3623 1.53722 0
M  V30 4798 H 448.136 0.290301 3.85609 0
M  V30 4799 H 449.825 0.683279 4.00108 0
M  V30 4800 H 450.591 3.14718 3.69022 0
M  V30 4801 H 446.47 2.00993 4.14877 0
M  V30 4802 H 450.014 5.45642 4.3465 0
M  V30 4803 H 445.911 4.31013 4.80518 0
M  V30 4804 H 446.679 6.35591 5.15719 0
M  V30 4805 N 449.342 -1.36122 0.79427 0
M  V30 4806 C 450.252 -2.33769 0.197296 0
M  V30 4807 C 451.268 -1.61276 -0.653153 0
M  V30 4808 O 452.444 -1.9323 -0.5678 0
M  V30 4809 C 449.509 -3.40474 -0.654098 0
M  V30 4810 C 448.57 -4.28759 0.215411 0
M  V30 4811 C 447.803 -5.30368 -0.595443 0
M  V30 4812 O 448.026 -5.40211 -1.83107 0
M  V30 4813 O 446.96 -6.019 0.00721351 0
M  V30 4814 H 450.786 -2.86597 1.00478 0
M  V30 4815 H 448.371 -1.38676 0.555818 0
M  V30 4816 H 450.253 -4.05703 -1.13944 0
M  V30 4817 H 448.928 -2.89937 -1.43938 0
M  V30 4818 H 447.835 -3.66554 0.747615 0
M  V30 4819 H 449.168 -4.82661 0.964332 0
M  V30 4820 N 450.82 -0.546701 -1.47814 0
M  V30 4821 C 451.767 0.206854 -2.29871 0
M  V30 4822 C 452.737 0.918235 -1.38411 0
M  V30 4823 O 453.922 0.915991 -1.67375 0
M  V30 4824 C 451.062 1.23746 -3.22151 0
M  V30 4825 C 450.175 0.533216 -4.28697 0
M  V30 4826 C 449.31 1.5482 -5.08138 0
M  V30 4827 C 448.349 0.828347 -6.06469 0
M  V30 4828 N 447.486 1.78966 -6.78908 0
M  V30 4829 H 452.326 -0.499037 -2.93792 0
M  V30 4830 H 449.863 -0.25793 -1.44821 0
M  V30 4831 H 451.821 1.84746 -3.74065 0
M  V30 4832 H 450.451 1.91151 -2.60117 0
M  V30 4833 H 449.503 -0.191089 -3.7992 0
M  V30 4834 H 450.815 -0.0311987 -4.9879 0
M  V30 4835 H 449.969 2.23202 -5.6415 0
M  V30 4836 H 448.708 2.14652 -4.37922 0
M  V30 4837 H 447.713 0.130539 -5.49645 0
M  V30 4838 H 448.938 0.235907 -6.7869 0
M  V30 4839 H 446.884 2.37675 -6.1143 0
M  V30 4840 H 446.801 1.27712 -7.45135 0
M  V30 4841 H 448.069 2.46496 -7.395 0
M  V30 4842 N 452.299 1.55045 -0.282633 0
M  V30 4843 C 453.247 2.24254 0.617478 0
M  V30 4844 C 454.241 1.24215 1.15183 0
M  V30 4845 O 455.447 1.42123 1.10459 0
M  V30 4846 H 451.822 0.719801 0.217693 0
M  V30 4847 H 453.793 2.98398 0.0110076 0
M  V30 4848 C 452.542 2.98281 1.78672 0
M  V30 4849 H 451.865 3.75053 1.38475 0
M  V30 4850 H 453.305 3.50017 2.393 0
M  V30 4851 C 451.764 2.04184 2.67975 0
M  V30 4852 O 452.294 1.59792 3.6855 0
M  V30 4853 N 450.5 1.70526 2.35307 0
M  V30 4854 H 450.047 2.06821 1.53567 0
M  V30 4855 H 450.005 1.07839 2.95327 0
M  V30 4856 N 453.777 0.010035 1.57597 0
M  V30 4857 C 454.707 -0.976857 2.12084 0
M  V30 4858 C 455.688 -1.35191 1.03235 0
M  V30 4859 O 456.873 -1.43389 1.3097 0
M  V30 4860 C 454.003 -2.26548 2.63236 0
M  V30 4861 C 452.957 -2.03175 3.76701 0
M  V30 4862 C 452.283 -3.38138 4.14206 0
M  V30 4863 C 453.583 -1.38625 5.03568 0
M  V30 4864 H 455.277 -0.523145 2.94794 0
M  V30 4865 H 452.823 -0.250195 1.4181 0
M  V30 4866 H 454.776 -2.95952 2.99984 0
M  V30 4867 H 453.5 -2.74051 1.77661 0
M  V30 4868 H 452.159 -1.36195 3.40362 0
M  V30 4869 H 451.807 -3.83363 3.25641 0
M  V30 4870 H 451.507 -3.23312 4.90656 0
M  V30 4871 H 453.031 -4.08841 4.53521 0
M  V30 4872 H 454.445 -1.98 5.38023 0
M  V30 4873 H 452.842 -1.34256 5.84889 0
M  V30 4874 H 453.912 -0.356722 4.83586 0
M  V30 4875 N 455.255 -1.55392 -0.262866 0
M  V30 4876 C 456.501 -1.76737 -0.99458 0
M  V30 4877 C 456.834 -0.572453 -1.85571 0
M  V30 4878 O 456.109 0.429732 -1.89693 0
M  V30 4879 C 456.392 -3.07824 -1.8686 0
M  V30 4880 C 456.245 -4.3769 -1.03672 0
M  V30 4881 C 457.564 -3.35021 -2.85393 0
M  V30 4882 H 454.683 -0.643005 -0.360157 0
M  V30 4883 H 457.325 -1.88126 -0.266216 0
M  V30 4884 H 455.475 -2.98245 -2.48962 0
M  V30 4885 H 457.147 -4.59238 -0.43563 0
M  V30 4886 H 455.39 -4.32461 -0.340513 0
M  V30 4887 H 456.061 -5.25759 -1.6817 0
M  V30 4888 H 458.537 -3.44458 -2.33426 0
M  V30 4889 H 457.413 -4.27989 -3.43681 0
M  V30 4890 H 457.674 -2.55153 -3.61039 0
M  V30 4891 N 456.733 0.527833 -1.48498 0
M  V30 4892 C 457.98 1.28354 -1.56625 0
M  V30 4893 C 458.308 1.93 -0.241096 0
M  V30 4894 O 457.563 1.79967 0.768798 0
M  V30 4895 C 457.862 2.39275 -2.65485 0
M  V30 4896 C 457.528 1.92268 -4.07853 0
M  V30 4897 C 456.19 1.79166 -4.46602 0
M  V30 4898 C 458.542 1.56771 -4.97064 0
M  V30 4899 C 455.87 1.28905 -5.72364 0
M  V30 4900 C 458.222 1.07972 -6.23318 0
M  V30 4901 C 456.886 0.934887 -6.60921 0
M  V30 4902 H 456.156 0.469682 -0.573131 0
M  V30 4903 H 458.803 0.588781 -1.82224 0
M  V30 4904 H 457.108 3.1443 -2.33754 0
M  V30 4905 H 458.805 2.974 -2.68988 0
M  V30 4906 H 455.395 2.03417 -3.77252 0
M  V30 4907 H 459.579 1.65753 -4.67803 0
M  V30 4908 H 454.835 1.16381 -6.00221 0
M  V30 4909 H 459.009 0.795775 -6.91838 0
M  V30 4910 H 456.636 0.543231 -7.58257 0
M  V30 4911 N 458.211 1.37122 0.776871 0
M  V30 4912 C 459.174 1.32301 1.8716 0
M  V30 4913 C 460.174 0.228099 1.59174 0
M  V30 4914 O 461.364 0.483642 1.67352 0
M  V30 4915 C 458.496 1.054 3.24197 0
M  V30 4916 H 459.689 2.29673 1.92848 0
M  V30 4917 H 457.242 1.22077 0.97606 0
M  V30 4918 H 457.977 0.0853872 3.24188 0
M  V30 4919 H 457.762 1.84648 3.45901 0
M  V30 4920 H 459.252 1.04664 4.04271 0
M  V30 4921 N 459.689 -1.00246 1.21608 0
M  V30 4922 C 460.621 -2.09244 0.935401 0
M  V30 4923 C 461.634 -1.62592 -0.0823594 0
M  V30 4924 O 462.823 -1.77865 0.150456 0
M  V30 4925 C 459.923 -3.36724 0.383453 0
M  V30 4926 C 459.096 -4.1245 1.45615 0
M  V30 4927 C 458.155 -5.18219 0.912991 0
M  V30 4928 O 457.181 -5.46337 1.59701 0
M  V30 4929 N 458.383 -5.7987 -0.270478 0
M  V30 4930 H 461.148 -2.33905 1.87373 0
M  V30 4931 H 458.709 -1.16748 1.12167 0
M  V30 4932 H 460.701 -4.047 0.00562157 0
M  V30 4933 H 459.271 -3.09201 -0.459758 0
M  V30 4934 H 458.491 -3.39241 2.00772 0
M  V30 4935 H 459.779 -4.59819 2.17817 0
M  V30 4936 H 459.177 -5.59381 -0.843195 0
M  V30 4937 H 457.734 -6.49126 -0.589794 0
M  V30 4938 N 461.167 -1.02423 -1.1978 0
M  V30 4939 C 462.583 -0.740459 -1.41384 0
M  V30 4940 C 462.783 0.676827 -1.89793 0
M  V30 4941 O 461.839 1.4435 -2.0717 0
M  V30 4942 C 463.152 -1.77264 -2.42895 0
M  V30 4943 C 464.7 -1.79165 -2.56649 0
M  V30 4944 C 465.175 -2.8133 -3.6141 0
M  V30 4945 N 466.666 -2.80118 -3.68901 0
M  V30 4946 C 467.401 -3.55824 -4.49641 0
M  V30 4947 N 466.897 -4.41231 -5.34123 0
M  V30 4948 N 468.69 -3.44387 -4.44246 0
M  V30 4949 H 460.841 -1.9391 -0.866764 0
M  V30 4950 H 463.104 -0.838074 -0.443098 0
M  V30 4951 H 462.81 -2.7884 -2.14339 0
M  V30 4952 H 462.684 -1.59108 -3.42001 0
M  V30 4953 H 465.071 -0.782702 -2.84531 0
M  V30 4954 H 465.152 -2.01396 -1.57713 0
M  V30 4955 H 464.796 -3.82394 -3.34271 0
M  V30 4956 H 464.726 -2.56359 -4.59986 0
M  V30 4957 H 467.217 -2.1817 -3.08562 0
M  V30 4958 H 467.53 -4.95747 -5.92836 0
M  V30 4959 H 465.875 -4.45306 -5.33599 0
M  V30 4960 H 469.066 -2.7708 -3.77285 0
M  V30 4961 H 469.239 -4.0364 -5.06931 0
M  V30 4962 N 462.645 1.35699 -0.801477 0
M  V30 4963 C 463.891 1.99643 -0.389135 0
M  V30 4964 C 464.246 1.62447 1.03095 0
M  V30 4965 O 463.539 0.875064 1.7045 0
M  V30 4966 C 463.733 3.53828 -0.504041 0
M  V30 4967 C 463.562 4.06 -1.93375 0
M  V30 4968 C 462.332 4.35592 -2.561 0
M  V30 4969 C 464.53 4.24905 -2.89759 0
M  V30 4970 N 462.512 4.73663 -3.90534 0
M  V30 4971 C 463.883 4.65914 -4.09052 0
M  V30 4972 C 465.938 4.07101 -2.86658 0
M  V30 4973 C 464.641 4.90984 -5.25669 0
M  V30 4974 C 466.667 4.33324 -4.02472 0
M  V30 4975 C 466.029 4.74601 -5.20512 0
M  V30 4976 H 462.128 0.758552 -0.19006 0
M  V30 4977 H 464.712 1.64493 -1.04164 0
M  V30 4978 H 462.883 3.88219 0.118437 0
M  V30 4979 H 464.615 4.04645 -0.0667794 0
M  V30 4980 H 461.37 4.25728 -2.07492 0
M  V30 4981 H 461.794 4.96965 -4.59734 0
M  V30 4982 H 466.436 3.74335 -1.96552 0
M  V30 4983 H 464.154 5.22626 -6.1635 0
M  V30 4984 H 467.74 4.21107 -4.01447 0
M  V30 4985 H 466.62 4.94497 -6.08639 0
M  V30 4986 N 464.123 0.554532 1.47522 0
M  V30 4987 C 465.371 0.0294208 2.02079 0
M  V30 4988 C 465.692 -1.32411 1.43151 0
M  V30 4989 O 464.962 -1.863 0.605728 0
M  V30 4990 H 463.542 0.00788672 0.746958 0
M  V30 4991 H 466.204 0.723934 1.80956 0
M  V30 4992 H 465.3 -0.0606745 3.12041 0
M  V30 4993 N 465.601 -1.54893 0.290851 0
M  V30 4994 C 466.85 -1.99111 -0.322113 0
M  V30 4995 C 467.163 -1.18283 -1.55784 0
M  V30 4996 O 468.369 -1.5272 -2.24475 0
M  V30 4997 C 466.825 -3.54442 -0.624438 0
M  V30 4998 C 466.433 -4.44066 0.592373 0
M  V30 4999 C 468.177 -4.07211 -1.19916 0
M  V30 5000 C 466.084 -5.90812 0.263762 0
M  V30 5001 H 465.014 -0.743712 -0.124133 0
M  V30 5002 H 467.665 -1.79132 0.39797 0
M  V30 5003 H 466.047 -3.70281 -1.40384 0
M  V30 5004 H 467.221 -4.39999 1.36886 0
M  V30 5005 H 465.536 -4.02015 1.08502 0
M  V30 5006 H 468.133 -5.14407 -1.45909 0
M  V30 5007 H 468.476 -3.57196 -2.13815 0
M  V30 5008 H 469.009 -3.94873 -0.481687 0
M  V30 5009 H 465.748 -6.44955 1.17105 0
M  V30 5010 H 465.268 -5.97911 -0.475655 0
M  V30 5011 H 466.947 -6.46852 -0.138354 0
M  V30 5012 N 467.08 -0.0183926 -1.57589 0
M  V30 5013 C 468.496 0.337897 -1.55982 0
M  V30 5014 C 468.696 1.73604 -1.02294 0
M  V30 5015 O 467.752 2.43589 -0.664895 0
M  V30 5016 C 469.065 0.196305 -3.00059 0
M  V30 5017 C 470.613 0.269875 -3.11834 0
M  V30 5018 C 471.088 0.157197 -4.5773 0
M  V30 5019 N 472.579 0.214521 -4.62703 0
M  V30 5020 C 473.314 0.150955 -5.73201 0
M  V30 5021 N 472.81 0.0369212 -6.9279 0
M  V30 5022 N 474.603 0.204162 -5.61729 0
M  V30 5023 H 466.754 -0.93279 -1.90821 0
M  V30 5024 H 469.017 -0.359253 -0.877292 0
M  V30 5025 H 468.723 -0.766383 -3.43248 0
M  V30 5026 H 468.597 0.970908 -3.6449 0
M  V30 5027 H 470.984 1.22302 -2.68563 0
M  V30 5028 H 471.065 -0.534918 -2.50144 0
M  V30 5029 H 470.709 -0.792479 -5.01679 0
M  V30 5030 H 470.639 0.980717 -5.17387 0
M  V30 5031 H 473.13 0.303238 -3.76681 0
M  V30 5032 H 473.443 -0.00518321 -7.728 0
M  V30 5033 H 471.788 0.0022886 -6.95 0
M  V30 5034 H 474.979 0.291575 -4.67191 0
M  V30 5035 H 475.152 0.15116 -6.47824 0
M  V30 5036 N 468.558 1.5553 0.254621 0
M  V30 5037 C 469.505 1.89666 1.31512 0
M  V30 5038 C 470.475 0.750057 1.482 0
M  V30 5039 O 471.66 1.00301 1.62309 0
M  V30 5040 C 468.8 2.19009 2.667 0
M  V30 5041 C 467.913 3.46435 2.58083 0
M  V30 5042 C 467.048 3.65386 3.85573 0
M  V30 5043 C 466.087 4.8644 3.71541 0
M  V30 5044 N 465.224 5.01952 4.90906 0
M  V30 5045 H 470.064 2.80109 1.017 0
M  V30 5046 H 467.601 1.38666 0.490938 0
M  V30 5047 H 469.559 2.34025 3.45381 0
M  V30 5048 H 468.189 1.31779 2.94676 0
M  V30 5049 H 467.241 3.39792 1.71013 0
M  V30 5050 H 468.553 4.35258 2.43622 0
M  V30 5051 H 467.707 3.80319 4.72697 0
M  V30 5052 H 466.446 2.74781 4.02922 0
M  V30 5053 H 465.451 4.71491 2.82801 0
M  V30 5054 H 466.676 5.78497 3.55694 0
M  V30 5055 H 464.622 4.14283 5.08631 0
M  V30 5056 H 464.539 5.84851 4.79046 0
M  V30 5057 H 465.807 5.21289 5.7955 0
M  V30 5058 N 470.036 -0.519951 1.48776 0
M  V30 5059 C 471.284 -1.2727 1.56993 0
M  V30 5060 C 471.605 -1.9339 0.25004 0
M  V30 5061 O 470.875 -1.81822 -0.729216 0
M  V30 5062 H 469.455 -0.472732 0.578389 0
M  V30 5063 H 472.117 -0.604234 1.85297 0
M  V30 5064 H 471.213 -2.04669 2.3562 0
M  V30 5065 N 471.514 -1.37532 -0.769588 0
M  V30 5066 C 472.763 -1.32183 -1.5235 0
M  V30 5067 C 473.076 0.0906555 -1.9539 0
M  V30 5068 O 474.282 0.266628 -2.70188 0
M  V30 5069 C 472.738 -2.32029 -2.75119 0
M  V30 5070 C 472.346 -3.78816 -2.3917 0
M  V30 5071 C 474.09 -2.35694 -3.53056 0
M  V30 5072 C 471.997 -4.70388 -3.58453 0
M  V30 5073 H 470.927 -0.491275 -0.571984 0
M  V30 5074 H 473.578 -1.63004 -0.842739 0
M  V30 5075 H 471.96 -1.94229 -3.45096 0
M  V30 5076 H 473.134 -4.25466 -1.76962 0
M  V30 5077 H 471.449 -3.78117 -1.74402 0
M  V30 5078 H 474.046 -3.01312 -4.41718 0
M  V30 5079 H 474.389 -1.37117 -3.93071 0
M  V30 5080 H 474.922 -2.72212 -2.90078 0
M  V30 5081 H 471.661 -5.70102 -3.23518 0
M  V30 5082 H 471.181 -4.28442 -4.19758 0
M  V30 5083 H 472.86 -4.87628 -4.25239 0
M  V30 5084 N 472.992 0.995999 -1.22138 0
M  V30 5085 C 474.238 1.73767 -1.04561 0
M  V30 5086 C 474.571 1.89633 0.418698 0
M  V30 5087 O 473.846 1.43723 1.3105 0
M  V30 5088 C 474.129 3.14505 -1.75382 0
M  V30 5089 C 473.982 3.06306 -3.29388 0
M  V30 5090 C 475.301 4.13615 -1.50369 0
M  V30 5091 H 472.42 0.630728 -0.38125 0
M  V30 5092 H 475.062 1.16057 -1.50435 0
M  V30 5093 H 473.212 3.63775 -1.36383 0
M  V30 5094 H 474.884 2.64681 -3.77812 0
M  V30 5095 H 473.127 2.43186 -3.59226 0
M  V30 5096 H 473.798 4.05884 -3.74116 0
M  V30 5097 H 476.274 3.73089 -1.84239 0
M  V30 5098 H 475.15 5.10212 -2.02421 0
M  V30 5099 H 475.411 4.39949 -0.435611 0
M  V30 5100 N 474.47 1.03057 1.19235 0
M  V30 5101 C 475.403 0.557384 2.21288 0
M  V30 5102 C 476.381 -0.402675 1.57535 0
M  V30 5103 O 477.565 -0.319376 1.85775 0
M  V30 5104 C 474.692 -0.187041 3.38183 0
M  V30 5105 C 473.738 0.72471 4.20298 0
M  V30 5106 S 474.571 2.20187 4.88137 0
M  V30 5107 C 475.727 1.46801 6.08441 0
M  V30 5108 H 475.96 1.42207 2.61083 0
M  V30 5109 H 473.493 0.840651 1.29508 0
M  V30 5110 H 475.451 -0.610405 4.05936 0
M  V30 5111 H 474.112 -1.02748 2.96819 0
M  V30 5112 H 473.305 0.149911 5.03777 0
M  V30 5113 H 472.907 1.08647 3.57871 0
M  V30 5114 H 475.199 0.755522 6.73274 0
M  V30 5115 H 476.142 2.27946 6.70407 0
M  V30 5116 H 476.55 0.964762 5.56195 0
M  V30 5117 N 475.948 -1.35272 0.808662 0
M  V30 5118 C 477.196 -1.98316 0.389233 0
M  V30 5119 C 477.517 -1.64465 -1.04767 0
M  V30 5120 O 476.787 -0.928175 -1.72516 0
M  V30 5121 H 475.367 -0.733585 0.140935 0
M  V30 5122 H 478.029 -1.6515 1.03496 0
M  V30 5123 H 477.125 -3.08123 0.496631 0
M  V30 5124 N 477.426 -0.562348 -1.47226 0
M  V30 5125 C 478.673 -0.0402165 -2.0246 0
M  V30 5126 C 479.001 1.31169 -1.43614 0
M  V30 5127 O 478.256 1.86805 -0.5833 0
M  V30 5128 C 478.555 0.0969817 -3.57268 0
M  V30 5129 C 478.221 -1.1847 -4.35058 0
M  V30 5130 C 476.883 -1.53588 -4.56031 0
M  V30 5131 C 479.235 -2.03378 -4.79882 0
M  V30 5132 C 476.563 -2.73452 -5.19077 0
M  V30 5133 C 478.915 -3.2245 -5.44251 0
M  V30 5134 C 477.579 -3.57876 -5.63455 0
M  V30 5135 H 476.849 -0.0147163 -0.740854 0
M  V30 5136 H 479.496 -0.734895 -1.76838 0
M  V30 5137 H 477.801 0.87466 -3.81912 0
M  V30 5138 H 479.498 0.516408 -3.97661 0
M  V30 5139 H 476.088 -0.90126 -4.19017 0
M  V30 5140 H 480.272 -1.77553 -4.63453 0
M  V30 5141 H 475.528 -3.01062 -5.32139 0
M  V30 5142 H 479.702 -3.88526 -5.77945 0
M  V30 5143 H 477.329 -4.50849 -6.12078 0
M  V30 5144 N 478.904 1.54736 -0.299062 0
M  V30 5145 C 480.151 2.00101 0.310784 0
M  V30 5146 C 480.479 1.18746 1.54045 0
M  V30 5147 O 479.734 0.251198 1.94081 0
M  V30 5148 C 480.033 3.50199 0.713835 0
M  V30 5149 C 479.699 4.48997 -0.413873 0
M  V30 5150 C 478.361 4.7573 -0.723462 0
M  V30 5151 C 480.713 5.07839 -1.17257 0
M  V30 5152 C 478.041 5.5857 -1.79491 0
M  V30 5153 C 480.393 5.91844 -2.23392 0
M  V30 5154 C 479.057 6.16889 -2.54959 0
M  V30 5155 H 478.327 0.732221 0.113724 0
M  V30 5156 H 480.974 1.86888 -0.417756 0
M  V30 5157 H 479.279 3.61012 1.52243 0
M  V30 5158 H 480.976 3.82723 1.19684 0
M  V30 5159 H 477.566 4.28292 -0.162476 0
M  V30 5160 H 481.75 4.87188 -0.946651 0
M  V30 5161 H 477.006 5.76213 -2.04423 0
M  V30 5162 H 481.18 6.36465 -2.8264 0
M  V30 5163 H 478.807 6.80869 -3.38114 0
M  V30 5164 N 480.382 0.0267497 1.57577 0
M  V30 5165 C 481.61 -0.662661 1.96001 0
M  V30 5166 C 482.025 -1.65799 0.903117 0
M  V30 5167 O 481.382 -1.82135 -0.115317 0
M  V30 5168 C 481.433 -1.37112 3.34488 0
M  V30 5169 O 481.154 -0.415683 4.36123 0
M  V30 5170 C 482.655 -2.15257 3.8753 0
M  V30 5171 H 479.875 -0.18287 0.6456 0
M  V30 5172 H 482.419 0.0858116 2.0432 0
M  V30 5173 H 480.574 -2.07101 3.27395 0
M  V30 5174 H 480.988 -0.918496 5.16395 0
M  V30 5175 H 482.462 -2.60285 4.86781 0
M  V30 5176 H 482.939 -2.99063 3.21649 0
M  V30 5177 H 483.545 -1.50231 3.97883 0
M  V30 5178 N 481.861 -1.55662 -0.24637 0
M  V30 5179 C 483.109 -1.77168 -0.972411 0
M  V30 5180 C 483.43 -0.590827 -1.85834 0
M  V30 5181 O 482.7 0.393365 -1.9191 0
M  V30 5182 H 481.28 -0.653405 -0.362038 0
M  V30 5183 H 483.942 -1.93101 -0.264189 0
M  V30 5184 H 483.038 -2.68335 -1.59382 0
M  V30 5185 N 483.339 0.512053 -1.4905 0
M  V30 5186 C 484.586 1.26686 -1.57978 0
M  V30 5187 C 484.914 1.92733 -0.261553 0
M  V30 5188 O 484.169 1.80772 0.749667 0
M  V30 5189 C 484.468 2.36446 -2.68008 0
M  V30 5190 C 484.134 1.87932 -4.09869 0
M  V30 5191 C 482.796 1.74419 -4.48477 0
M  V30 5192 C 485.148 1.5149 -4.98698 0
M  V30 5193 C 482.476 1.22827 -5.73699 0
M  V30 5194 C 484.828 1.01355 -6.24428 0
M  V30 5195 C 483.492 0.864735 -6.61875 0
M  V30 5196 H 482.762 0.463577 -0.578081 0
M  V30 5197 H 485.409 0.569421 -1.82838 0
M  V30 5198 H 483.714 3.11933 -2.37076 0
M  V30 5199 H 485.411 2.9453 -2.72127 0
M  V30 5200 H 482.001 1.99405 -3.79389 0
M  V30 5201 H 486.185 1.60782 -4.69535 0
M  V30 5202 H 481.441 1.10008 -6.01422 0
M  V30 5203 H 485.615 0.722351 -6.92644 0
M  V30 5204 H 483.242 0.462777 -7.5879 0
M  V30 5205 N 484.817 1.37938 0.762283 0
M  V30 5206 C 486.063 1.33866 1.52341 0
M  V30 5207 C 486.396 -0.0738961 1.94059 0
M  V30 5208 O 485.671 -1.03326 1.64785 0
M  V30 5209 C 485.954 2.28644 2.78197 0
M  V30 5210 C 485.807 3.78722 2.42672 0
M  V30 5211 C 487.126 2.21702 3.80179 0
M  V30 5212 H 484.245 0.487593 0.55265 0
M  V30 5213 H 486.887 1.68717 0.873767 0
M  V30 5214 H 485.037 1.99055 3.33631 0
M  V30 5215 H 486.709 4.18948 1.93081 0
M  V30 5216 H 484.952 3.96827 1.75244 0
M  V30 5217 H 485.623 4.40486 3.3268 0
M  V30 5218 H 488.099 2.47805 3.34263 0
M  V30 5219 H 486.975 2.90143 4.65949 0
M  V30 5220 H 487.236 1.21301 4.25133 0
M  V30 5221 N 486.295 -0.989507 1.22664 0
M  V30 5222 C 487.541 -1.73298 1.06487 0
M  V30 5223 C 487.896 -1.88292 -0.395438 0
M  V30 5224 O 487.189 -1.41748 -1.28911 0
M  V30 5225 C 487.383 -3.13649 1.71345 0
M  V30 5226 C 487.212 -3.12341 3.23532 0
M  V30 5227 C 485.982 -3.18044 3.92653 0
M  V30 5228 C 488.18 -2.96226 4.20422 0
M  V30 5229 N 486.162 -3.06526 5.31898 0
M  V30 5230 C 487.533 -2.92773 5.4652 0
M  V30 5231 C 489.588 -2.80642 4.11271 0
M  V30 5232 C 488.291 -2.75332 6.64519 0
M  V30 5233 C 490.317 -2.64563 5.28924 0
M  V30 5234 C 489.679 -2.618 6.53942 0
M  V30 5235 H 485.778 -0.643643 0.444126 0
M  V30 5236 H 488.362 -1.17489 1.55256 0
M  V30 5237 H 486.533 -3.67694 1.25122 0
M  V30 5238 H 488.265 -3.76577 1.48229 0
M  V30 5239 H 485.02 -3.25861 3.43673 0
M  V30 5240 H 485.444 -3.04067 6.04874 0
M  V30 5241 H 490.086 -2.81574 3.15398 0
M  V30 5242 H 487.804 -2.73145 7.60538 0
M  V30 5243 H 491.39 -2.53482 5.23677 0
M  V30 5244 H 490.27 -2.49511 7.43447 0
M  V30 5245 N 487.773 -1.03688 -1.18687 0
M  V30 5246 C 489.013 -0.746858 -1.90267 0
M  V30 5247 C 489.377 0.712075 -1.78307 0
M  V30 5248 O 490.578 1.11553 -2.44559 0
M  V30 5249 C 488.849 -1.19543 -3.36815 0
M  V30 5250 S 490.408 -1.03047 -4.26529 0
M  V30 5251 H 487.226 -0.271663 -0.657054 0
M  V30 5252 H 489.828 -1.32838 -1.43437 0
M  V30 5253 H 488.532 -2.2527 -3.43047 0
M  V30 5254 H 488.063 -0.607533 -3.88681 0
M  V30 5255 H 490.078 0.0543232 -4.9617 0
M  V30 5256 N 489.251 1.34841 -0.815825 0
M  V30 5257 C 490.181 2.32187 -0.247298 0
M  V30 5258 C 491.162 1.5791 0.632344 0
M  V30 5259 O 492.347 1.8593 0.560698 0
M  V30 5260 C 489.477 3.42122 0.597466 0
M  V30 5261 C 488.431 4.27602 -0.184446 0
M  V30 5262 C 487.757 5.28942 0.782609 0
M  V30 5263 C 489.057 5.03502 -1.38865 0
M  V30 5264 H 490.751 2.79985 -1.06061 0
M  V30 5265 H 488.297 1.34611 -0.511461 0
M  V30 5266 H 490.25 4.09232 1.00533 0
M  V30 5267 H 488.974 2.92956 1.44376 0
M  V30 5268 H 487.633 3.62085 -0.573592 0
M  V30 5269 H 487.281 4.7604 1.62466 0
M  V30 5270 H 486.981 5.87008 0.263695 0
M  V30 5271 H 488.505 5.98922 1.18848 0
M  V30 5272 H 489.919 5.63506 -1.05518 0
M  V30 5273 H 488.316 5.71108 -1.8427 0
M  V30 5274 H 489.386 4.33608 -2.17054 0
M  V30 5275 N 490.729 0.570148 1.46925 0
M  V30 5276 C 491.978 0.0487352 2.01641 0
M  V30 5277 C 492.291 -1.31433 1.44861 0
M  V30 5278 O 493.497 -1.92638 1.91318 0
M  V30 5279 C 491.953 0.0365817 3.59881 0
M  V30 5280 C 491.561 1.39719 4.25655 0
M  V30 5281 C 493.305 -0.431545 4.22301 0
M  V30 5282 C 491.212 1.34345 5.75939 0
M  V30 5283 H 490.142 0.0144492 0.753862 0
M  V30 5284 H 492.793 0.719928 1.68788 0
M  V30 5285 H 491.175 -0.700522 3.89755 0
M  V30 5286 H 492.349 2.15303 4.07408 0
M  V30 5287 H 490.664 1.80431 3.75278 0
M  V30 5288 H 493.261 -0.490354 5.32447 0
M  V30 5289 H 493.604 -1.44638 3.90366 0
M  V30 5290 H 494.137 0.251102 3.97007 0
M  V30 5291 H 490.876 2.33469 6.12513 0
M  V30 5292 H 490.396 0.629615 5.96486 0
M  V30 5293 H 492.075 1.051 6.38407 0
M  V30 5294 N 492.207 -1.54576 0.307264 0
M  V30 5295 C 493.454 -2.00263 -0.300167 0
M  V30 5296 C 493.782 -1.19561 -1.53413 0
M  V30 5297 O 493.037 -0.261487 -1.93945 0
M  V30 5298 C 493.336 -3.50572 -0.695253 0
M  V30 5299 C 493.002 -4.48771 0.437679 0
M  V30 5300 C 491.664 -4.7534 0.748681 0
M  V30 5301 C 494.016 -5.0721 1.19949 0
M  V30 5302 C 491.344 -5.5761 1.8245 0
M  V30 5303 C 493.696 -5.90651 2.26527 0
M  V30 5304 C 492.36 -6.15528 2.58227 0
M  V30 5305 H 491.63 -0.732814 -0.109839 0
M  V30 5306 H 494.277 -1.86664 0.427661 0
M  V30 5307 H 492.582 -3.61814 -1.50326 0
M  V30 5308 H 494.279 -3.83352 -1.17653 0
M  V30 5309 H 490.869 -4.282 0.185187 0
M  V30 5310 H 495.053 -4.86679 0.972474 0
M  V30 5311 H 490.309 -5.75121 2.07476 0
M  V30 5312 H 494.483 -6.34957 2.86011 0
M  V30 5313 H 492.11 -6.79066 3.4172 0
M  V30 5314 N 493.685 -0.035106 -1.57561 0
M  V30 5315 C 494.615 0.942993 -2.13612 0
M  V30 5316 C 495.596 1.33531 -1.05373 0
M  V30 5317 O 496.781 1.41287 -1.33235 0
M  V30 5318 C 493.911 2.22332 -2.66807 0
M  V30 5319 C 492.865 1.97156 -3.79886 0
M  V30 5320 C 492.191 3.31506 -4.19533 0
M  V30 5321 C 493.491 1.30596 -5.05709 0
M  V30 5322 H 495.185 0.476179 -2.95589 0
M  V30 5323 H 492.731 0.227602 -1.4219 0
M  V30 5324 H 494.684 2.91142 -3.04654 0
M  V30 5325 H 493.408 2.7119 -1.81999 0
M  V30 5326 H 492.067 1.30763 -3.42486 0
M  V30 5327 H 491.715 3.78134 -3.31698 0
M  V30 5328 H 491.415 3.15465 -4.95738 0
M  V30 5329 H 492.939 4.01574 -4.59968 0
M  V30 5330 H 494.353 1.89416 -5.41105 0
M  V30 5331 H 492.75 1.24934 -5.86951 0
M  V30 5332 H 493.82 0.279742 -4.84092 0
M  V30 5333 N 495.163 1.55791 0.238111 0
M  V30 5334 C 496.403 1.79801 0.972163 0
M  V30 5335 C 496.767 0.606027 1.82185 0
M  V30 5336 O 497.968 0.725079 2.58836 0
M  V30 5337 C 496.239 3.08608 1.80266 0
M  V30 5338 S 497.798 3.53872 2.59461 0
M  V30 5339 H 494.616 0.631418 0.326852 0
M  V30 5340 H 497.218 1.94031 0.239212 0
M  V30 5341 H 495.922 3.93419 1.1683 0
M  V30 5342 H 495.453 2.9714 2.57821 0
M  V30 5343 H 497.468 3.15899 3.82651 0
M  V30 5344 N 496.642 -0.504142 1.49319 0
M  V30 5345 C 497.872 -1.28071 1.62116 0
M  V30 5346 C 498.28 -1.86955 0.290566 0
M  V30 5347 O 497.623 -1.68415 -0.733616 0
M  V30 5348 C 497.685 -2.4521 2.62893 0
M  V30 5349 C 497.349 -2.07218 4.0732 0
M  V30 5350 C 498.346 -1.61375 4.94221 0
M  V30 5351 C 496.031 -2.16949 4.53033 0
M  V30 5352 C 498.025 -1.25763 6.2487 0
M  V30 5353 C 495.712 -1.80949 5.83696 0
M  V30 5354 C 496.71 -1.3543 6.69438 0
M  V30 5355 O 496.398 -0.99915 7.97667 0
M  V30 5356 H 496.13 -0.394763 0.54876 0
M  V30 5357 H 498.684 -0.612118 1.96067 0
M  V30 5358 H 496.914 -3.15134 2.24115 0
M  V30 5359 H 498.603 -3.0724 2.65252 0
M  V30 5360 H 499.369 -1.53306 4.60133 0
M  V30 5361 H 495.248 -2.5133 3.86463 0
M  V30 5362 H 498.792 -0.901631 6.91749 0
M  V30 5363 H 494.689 -1.88667 6.17313 0
M  V30 5364 H 495.457 -1.13089 8.1065 0
M  V30 5365 N 498.12 -1.38341 -0.754957 0
M  V30 5366 C 499.083 -1.35262 -1.85032 0
M  V30 5367 C 500.083 -0.253393 -1.58791 0
M  V30 5368 O 501.273 -0.510205 -1.66561 0
M  V30 5369 C 498.405 -1.10544 -3.22479 0
M  V30 5370 H 499.598 -2.32712 -1.8917 0
M  V30 5371 H 497.151 -1.23614 -0.956515 0
M  V30 5372 H 497.886 -0.136952 -3.24011 0
M  V30 5373 H 497.671 -1.90127 -3.4292 0
M  V30 5374 H 499.161 -1.11082 -4.02555 0
M  V30 5375 N 499.598 0.982988 -1.23187 0
M  V30 5376 C 500.528 2.09301 -1.03515 0
M  V30 5377 C 501.509 1.70035 0.0471136 0
M  V30 5378 O 502.694 1.93847 -0.117029 0
M  V30 5379 C 499.824 3.4167 -0.622791 0
M  V30 5380 C 498.778 3.94828 -1.65211 0
M  V30 5381 C 498.104 5.23362 -1.09527 0
M  V30 5382 C 499.404 4.2439 -3.04451 0
M  V30 5383 H 501.098 2.26016 -1.96359 0
M  V30 5384 H 498.644 1.08611 -0.945501 0
M  V30 5385 H 500.597 4.18746 -0.472233 0
M  V30 5386 H 499.321 3.24811 0.341329 0
M  V30 5387 H 497.98 3.19895 -1.79061 0
M  V30 5388 H 497.628 5.02852 -0.122211 0
M  V30 5389 H 497.328 5.59895 -1.783 0
M  V30 5390 H 498.852 6.03062 -0.956511 0
M  V30 5391 H 500.266 4.92225 -2.93917 0
M  V30 5392 H 498.663 4.72118 -3.70438 0
M  V30 5393 H 499.733 3.31765 -3.53638 0
M  V30 5394 N 501.076 1.04316 1.18135 0
M  V30 5395 C 502.039 0.640794 2.2006 0
M  V30 5396 C 503.039 -0.303124 1.57917 0
M  V30 5397 O 504.229 -0.0881855 1.73977 0
M  V30 5398 C 501.361 -0.060148 3.40847 0
M  V30 5399 H 502.554 1.54281 2.57172 0
M  V30 5400 H 500.107 0.836004 1.32063 0
M  V30 5401 H 500.842 -0.975845 3.0927 0
M  V30 5402 H 500.627 0.618319 3.87194 0
M  V30 5403 H 502.117 -0.328082 4.16309 0
M  V30 5404 N 502.554 -1.34406 0.822964 0
M  V30 5405 C 503.801 -1.98284 0.411057 0
M  V30 5406 C 504.129 -1.65245 -1.02588 0
M  V30 5407 O 503.384 -0.91619 -1.72929 0
M  V30 5408 C 503.683 -3.52981 0.560268 0
M  V30 5409 C 503.349 -4.05931 1.96293 0
M  V30 5410 C 502.011 -4.20103 2.34664 0
M  V30 5411 C 504.363 -4.34412 2.87985 0
M  V30 5412 C 501.691 -4.60082 3.64062 0
M  V30 5413 C 504.043 -4.75838 4.16847 0
M  V30 5414 C 502.707 -4.88215 4.55195 0
M  V30 5415 H 501.977 -0.725573 0.150416 0
M  V30 5416 H 504.624 -1.60349 1.04692 0
M  V30 5417 H 502.929 -3.91477 -0.158982 0
M  V30 5418 H 504.626 -4.00385 0.222087 0
M  V30 5419 H 501.216 -3.95363 1.65487 0
M  V30 5420 H 505.4 -4.23001 2.59584 0
M  V30 5421 H 500.656 -4.67856 3.93599 0
M  V30 5422 H 504.83 -4.96834 4.87984 0
M  V30 5423 H 502.457 -5.18952 5.55512 0
M  V30 5424 N 504.032 -0.577932 -1.46621 0
M  V30 5425 C 505.278 -0.0700937 -2.03279 0
M  V30 5426 C 505.633 1.27376 -1.44198 0
M  V30 5427 O 504.926 1.82097 -0.595911 0
M  V30 5428 C 505.12 0.0590832 -3.57351 0
M  V30 5429 C 504.949 -1.2707 -4.31374 0
M  V30 5430 C 503.719 -1.84357 -4.70469 0
M  V30 5431 C 505.917 -2.19278 -4.65211 0
M  V30 5432 N 503.899 -3.11124 -5.29221 0
M  V30 5433 C 505.27 -3.30631 -5.24484 0
M  V30 5434 C 507.325 -2.19018 -4.47142 0
M  V30 5435 C 506.028 -4.41849 -5.67593 0
M  V30 5436 C 508.054 -3.29262 -4.91264 0
M  V30 5437 C 507.416 -4.39335 -5.50604 0
M  V30 5438 H 503.515 -0.0683127 -0.779011 0
M  V30 5439 H 506.099 -0.76978 -1.78836 0
M  V30 5440 H 504.27 0.727929 -3.81518 0
M  V30 5441 H 506.002 0.57087 -4.00653 0
M  V30 5442 H 502.757 -1.37906 -4.53077 0
M  V30 5443 H 503.181 -3.75794 -5.63123 0
M  V30 5444 H 507.823 -1.35191 -4.00604 0
M  V30 5445 H 505.541 -5.26421 -6.13112 0
M  V30 5446 H 509.127 -3.30172 -4.79038 0
M  V30 5447 H 508.007 -5.23233 -5.84121 0
M  V30 5448 N 505.51 1.54411 -0.315457 0
M  V30 5449 C 506.74 2.04536 0.291315 0
M  V30 5450 C 507.148 1.19162 1.4696 0
M  V30 5451 O 506.491 0.213199 1.82459 0
M  V30 5452 C 506.553 3.5056 0.796725 0
M  V30 5453 C 506.217 4.5627 -0.258178 0
M  V30 5454 C 507.214 5.08312 -1.09153 0
M  V30 5455 C 504.899 5.00672 -0.404036 0
M  V30 5456 C 506.893 6.03312 -2.05655 0
M  V30 5457 C 504.58 5.95488 -1.37248 0
M  V30 5458 C 505.578 6.46693 -2.19721 0
M  V30 5459 O 505.266 7.39648 -3.14921 0
M  V30 5460 H 504.998 0.672856 0.0651165 0
M  V30 5461 H 507.552 2.00244 -0.457308 0
M  V30 5462 H 505.782 3.52223 1.59612 0
M  V30 5463 H 507.471 3.83804 1.32096 0
M  V30 5464 H 508.237 4.74793 -0.98979 0
M  V30 5465 H 504.116 4.60436 0.22799 0
M  V30 5466 H 507.66 6.43203 -2.70067 0
M  V30 5467 H 503.557 6.28424 -1.47489 0
M  V30 5468 H 504.325 7.57496 -3.10067 0
M  V30 5469 N 506.988 0.0434614 1.5754 0
M  V30 5470 C 508.236 -0.630786 1.92004 0
M  V30 5471 C 508.557 -1.71836 0.921807 0
M  V30 5472 O 507.827 -1.9587 -0.034522 0
M  V30 5473 H 506.407 -0.235988 0.708745 0
M  V30 5474 H 509.069 0.0946462 1.9467 0
M  V30 5475 H 508.165 -1.07434 2.93026 0
M  V30 5476 N 508.466 -1.55915 -0.229846 0
M  V30 5477 C 509.691 -1.8296 -0.976743 0
M  V30 5478 C 510.116 -0.622735 -1.77493 0
M  V30 5479 O 509.474 0.428431 -1.76165 0
M  V30 5480 C 509.522 -3.07916 -1.8767 0
M  V30 5481 O 508.626 -2.86028 -2.97088 0
M  V30 5482 H 507.967 -0.603453 -0.277021 0
M  V30 5483 H 510.497 -2.0312 -0.245669 0
M  V30 5484 H 510.507 -3.37802 -2.2881 0
M  V30 5485 H 509.182 -3.95389 -1.28996 0
M  V30 5486 H 507.759 -2.67355 -2.59954 0
M  V30 5487 N 509.944 0.496216 -1.49584 0
M  V30 5488 C 511.172 1.27394 -1.63029 0
M  V30 5489 C 511.587 1.86344 -0.303569 0
M  V30 5490 O 510.944 1.68057 0.711547 0
M  V30 5491 C 510.995 2.40077 -2.70269 0
M  V30 5492 O 510.716 1.83549 -3.97796 0
M  V30 5493 C 512.217 3.31372 -2.94462 0
M  V30 5494 H 509.437 0.386211 -0.54871 0
M  V30 5495 H 511.981 0.595163 -1.95648 0
M  V30 5496 H 510.136 3.03775 -2.40415 0
M  V30 5497 H 510.55 2.57561 -4.56905 0
M  V30 5498 H 512.024 4.06707 -3.73221 0
M  V30 5499 H 512.501 3.88654 -2.0456 0
M  V30 5500 H 513.107 2.73435 -3.25751 0
M  V30 5501 N 511.423 1.38739 0.74761 0
M  V30 5502 C 512.353 1.39173 1.87492 0
M  V30 5503 C 513.334 0.256794 1.6815 0
M  V30 5504 O 514.519 0.460762 1.88655 0
M  V30 5505 C 511.649 1.22197 3.25093 0
M  V30 5506 C 510.603 2.32957 3.59047 0
M  V30 5507 C 509.929 2.01082 4.95449 0
M  V30 5508 C 511.229 3.75237 3.6331 0
M  V30 5509 H 512.923 2.3351 1.87386 0
M  V30 5510 H 510.469 1.12399 0.900134 0
M  V30 5511 H 512.422 1.21124 4.03617 0
M  V30 5512 H 511.146 0.243241 3.25693 0
M  V30 5513 H 509.805 2.33226 2.82845 0
M  V30 5514 H 509.453 1.01678 4.92616 0
M  V30 5515 H 509.153 2.75267 5.19136 0
M  V30 5516 H 510.677 2.01638 5.76346 0
M  V30 5517 H 512.091 3.76966 4.31937 0
M  V30 5518 H 510.488 4.48677 3.98509 0
M  V30 5519 H 511.558 4.07122 2.634 0
M  V30 5520 N 512.901 -0.976442 1.23707 0
M  V30 5521 C 514.147 -1.72081 1.07312 0
M  V30 5522 C 514.48 -1.90275 -0.388476 0
M  V30 5523 O 513.755 -1.4579 -1.28746 0
M  V30 5524 C 514.038 -3.11675 1.80363 0
M  V30 5525 C 513.891 -3.01027 3.3422 0
M  V30 5526 C 515.21 -4.1117 1.5693 0
M  V30 5527 H 512.329 -0.624583 0.391236 0
M  V30 5528 H 514.971 -1.13649 1.52263 0
M  V30 5529 H 513.121 -3.61559 1.42153 0
M  V30 5530 H 514.793 -2.58637 3.81975 0
M  V30 5531 H 513.036 -2.3744 3.63049 0
M  V30 5532 H 513.707 -3.9988 3.80525 0
M  V30 5533 H 516.183 -3.7011 1.90151 0
M  V30 5534 H 515.059 -5.06928 2.10513 0
M  V30 5535 H 515.32 -4.392 0.505548 0
M  V30 5536 N 514.379 -1.04941 -1.1758 0
M  V30 5537 C 515.309 -0.669172 -2.23706 0
M  V30 5538 C 516.29 0.331835 -1.66832 0
M  V30 5539 O 517.475 0.209988 -1.93061 0
M  V30 5540 C 514.605 -0.0404889 -3.47276 0
M  V30 5541 C 513.559 -0.965983 -4.16957 0
M  V30 5542 C 512.885 -0.201312 -5.34321 0
M  V30 5543 C 514.185 -2.28902 -4.69469 0
M  V30 5544 H 515.879 -1.55639 -2.55767 0
M  V30 5545 H 513.425 -0.749793 -1.22939 0
M  V30 5546 H 515.378 0.237298 -4.20731 0
M  V30 5547 H 514.102 0.881658 -3.14475 0
M  V30 5548 H 512.761 -1.22829 -3.45411 0
M  V30 5549 H 512.409 0.723519 -4.97769 0
M  V30 5550 H 512.109 -0.817968 -5.81879 0
M  V30 5551 H 513.633 0.0692499 -6.10561 0
M  V30 5552 H 515.047 -2.07132 -5.34574 0
M  V30 5553 H 513.444 -2.85942 -5.27596 0
M  V30 5554 H 514.514 -2.92937 -3.86414 0
M  V30 5555 N 515.857 1.33968 -0.830081 0
M  V30 5556 C 517.134 1.92554 -0.343858 0
M  V30 5557 C 517.514 1.7573 1.16971 0
M  V30 5558 O 516.862 1.14035 1.98011 0
M  V30 5559 C 517.072 3.40147 -0.781073 0
M  V30 5560 C 518.42 4.17299 -0.78402 0
M  V30 5561 O 519.444 3.48762 -0.724112 0
M  V30 5562 O 518.303 5.39631 -0.863739 0
M  V30 5563 H 515.397 0.821469 -0.0954827 0
M  V30 5564 H 517.943 1.42897 -0.915348 0
M  V30 5565 H 516.715 3.46225 -1.82329 0
M  V30 5566 H 516.338 3.97166 -0.18567 0
M  V30 5567 N 517.335 0.585699 1.46312 0
M  V30 5568 C 518.245 -0.148236 2.34131 0
M  V30 5569 C 519.261 -0.882972 1.49932 0
M  V30 5570 O 520.437 -0.845484 1.82794 0
M  V30 5571 C 517.502 -1.14714 3.27172 0
M  V30 5572 C 516.563 -0.416746 4.27272 0
M  V30 5573 C 515.796 -1.36806 5.15868 0
M  V30 5574 O 516.019 -2.60475 5.07454 0
M  V30 5575 O 514.953 -0.877018 5.95476 0
M  V30 5576 H 518.779 0.572882 2.98248 0
M  V30 5577 H 516.364 0.346082 1.45336 0
M  V30 5578 H 518.246 -1.72303 3.84564 0
M  V30 5579 H 516.921 -1.84967 2.65648 0
M  V30 5580 H 515.828 0.201061 3.73559 0
M  V30 5581 H 517.161 0.244872 4.9159 0
M  V30 5582 N 518.813 -1.54241 0.323641 0
M  V30 5583 C 520.061 -2.00174 -0.278359 0
M  V30 5584 C 520.382 -1.2134 -1.52648 0
M  V30 5585 O 519.652 -0.315244 -1.93347 0
M  V30 5586 H 518.232 -0.739463 -0.105845 0
M  V30 5587 H 520.894 -1.89864 0.440204 0
M  V30 5588 H 519.99 -3.07486 -0.5347 0
M  V30 5589 N 520.291 -0.0518155 -1.57515 0
M  V30 5590 C 521.201 0.937539 -2.15052 0
M  V30 5591 C 522.217 1.34121 -1.10849 0
M  V30 5592 O 523.393 1.418 -1.4302 0
M  V30 5593 C 520.458 2.19379 -2.68466 0
M  V30 5594 C 519.519 1.84841 -3.87469 0
M  V30 5595 C 518.752 3.04477 -4.38326 0
M  V30 5596 O 518.975 4.17868 -3.88256 0
M  V30 5597 O 517.909 2.85453 -5.29906 0
M  V30 5598 H 521.735 0.478201 -2.99912 0
M  V30 5599 H 519.32 0.17012 -1.48428 0
M  V30 5600 H 521.202 2.93084 -3.02787 0
M  V30 5601 H 519.877 2.64449 -1.86677 0
M  V30 5602 H 518.784 1.08449 -3.58036 0
M  V30 5603 H 520.117 1.44569 -4.7049 0
M  V30 5604 N 521.769 1.56035 0.221574 0
M  V30 5605 C 522.999 1.82864 0.961468 0
M  V30 5606 C 523.407 0.628703 1.78449 0
M  V30 5607 O 522.75 -0.412109 1.79018 0
M  V30 5608 C 522.812 3.03425 1.92804 0
M  V30 5609 C 522.476 4.38429 1.28954 0
M  V30 5610 C 523.473 5.15441 0.679431 0
M  V30 5611 C 521.158 4.85151 1.30131 0
M  V30 5612 C 523.152 6.37337 0.0896148 0
M  V30 5613 C 520.839 6.06989 0.707651 0
M  V30 5614 C 521.837 6.82923 0.102855 0
M  V30 5615 O 521.525 8.02456 -0.48157 0
M  V30 5616 H 521.257 0.611883 0.28736 0
M  V30 5617 H 523.811 2.0397 0.241932 0
M  V30 5618 H 522.041 2.78138 2.68656 0
M  V30 5619 H 523.73 3.17127 2.53348 0
M  V30 5620 H 524.496 4.80452 0.662661 0
M  V30 5621 H 520.375 4.26021 1.76145 0
M  V30 5622 H 523.919 6.96547 -0.383069 0
M  V30 5623 H 519.816 6.41451 0.721834 0
M  V30 5624 H 520.584 8.17636 -0.375887 0
M  V30 5625 N 523.247 -0.488276 1.49845 0
M  V30 5626 C 524.475 -1.26527 1.63702 0
M  V30 5627 C 524.89 -1.8618 0.313447 0
M  V30 5628 O 524.247 -1.68432 -0.702624 0
M  V30 5629 C 524.298 -2.3864 2.71538 0
M  V30 5630 O 524.019 -1.81437 3.98763 0
M  V30 5631 C 525.52 -3.29805 2.96215 0
M  V30 5632 H 522.74 -0.383295 0.55075 0
M  V30 5633 H 525.284 -0.584779 1.95961 0
M  V30 5634 H 523.439 -3.02496 2.42023 0
M  V30 5635 H 523.853 -2.55135 4.58265 0
M  V30 5636 H 525.327 -4.04722 3.75372 0
M  V30 5637 H 525.804 -3.87563 2.06619 0
M  V30 5638 H 526.41 -2.71703 3.27196 0
M  V30 5639 N 524.725 -1.39134 -0.740242 0
M  V30 5640 C 526.136 -1.32208 -1.31825 0
M  V30 5641 C 526.487 0.0159919 -1.96193 0
M  V30 5642 O 525.612 0.918111 -1.95958 0
M  V30 5643 C 526.207 -2.39436 -2.39699 0
M  V30 5644 C 524.766 -2.36048 -2.93187 0
M  V30 5645 C 523.913 -2.21599 -1.66701 0
M  V30 5646 H 526.864 -1.49298 -0.538133 0
M  V30 5647 H 526.885 -2.05922 -3.19963 0
M  V30 5648 H 526.397 -3.36811 -1.92821 0
M  V30 5649 H 524.498 -1.42295 -3.44359 0
M  V30 5650 H 524.611 -3.30704 -3.46658 0
M  V30 5651 H 522.975 -1.68681 -1.90837 0
M  V30 5652 H 523.758 -3.20936 -1.21882 0
M  V30 5653 N 526.204 0.969867 -1.24223 0
M  V30 5654 C 527.452 1.70918 -1.0785 0
M  V30 5655 C 527.773 1.91186 0.383763 0
M  V30 5656 O 527.043 1.48806 1.27411 0
M  V30 5657 H 525.623 0.633334 -0.396103 0
M  V30 5658 H 528.285 1.16689 -1.56108 0
M  V30 5659 H 527.381 2.69455 -1.57482 0
M  V30 5660 N 527.682 1.05563 1.17022 0
M  V30 5661 C 528.91 0.78845 1.91288 0
M  V30 5662 C 529.325 -0.656318 1.77025 0
M  V30 5663 O 528.682 -1.44869 1.10992 0
M  V30 5664 C 528.733 1.16444 3.42232 0
M  V30 5665 O 528.454 2.5525 3.5606 0
M  V30 5666 C 529.955 0.923937 4.33565 0
M  V30 5667 H 527.175 0.286389 0.606813 0
M  V30 5668 H 529.719 1.4073 1.48375 0
M  V30 5669 H 527.874 0.590266 3.82877 0
M  V30 5670 H 528.288 2.70097 4.49609 0
M  V30 5671 H 529.762 1.23672 5.37968 0
M  V30 5672 H 530.239 -0.140688 4.38975 0
M  V30 5673 H 530.845 1.48214 3.98639 0
M  V30 5674 N 529.16 -1.33526 0.837174 0
M  V30 5675 C 530.09 -2.31764 0.284206 0
M  V30 5676 C 531.071 -1.58896 -0.607142 0
M  V30 5677 O 532.256 -1.86798 -0.531047 0
M  V30 5678 C 529.386 -3.43029 -0.542962 0
M  V30 5679 C 528.34 -4.27255 0.252451 0
M  V30 5680 C 527.666 -5.3012 -0.69836 0
M  V30 5681 C 528.966 -5.01229 1.46858 0
M  V30 5682 H 530.66 -2.78262 1.10502 0
M  V30 5683 H 528.206 -1.3378 0.532812 0
M  V30 5684 H 530.159 -4.1078 -0.940096 0
M  V30 5685 H 528.883 -2.95216 -1.39697 0
M  V30 5686 H 527.542 -3.61127 0.631124 0
M  V30 5687 H 527.19 -4.78564 -1.54872 0
M  V30 5688 H 526.89 -5.87353 -0.170274 0
M  V30 5689 H 528.414 -6.00737 -1.09305 0
M  V30 5690 H 529.828 -5.61756 1.14469 0
M  V30 5691 H 528.225 -5.68104 1.93333 0
M  V30 5692 H 529.295 -4.301 2.23924 0
M  V30 5693 N 530.638 -0.59345 -1.46 0
M  V30 5694 C 531.884 -0.0832754 -2.02629 0
M  V30 5695 C 532.217 1.27749 -1.46266 0
M  V30 5696 O 531.492 1.8395 -0.631866 0
M  V30 5697 C 531.775 -0.0290756 -3.60088 0
M  V30 5698 C 531.628 -1.41951 -4.26814 0
M  V30 5699 C 532.947 0.666055 -4.35031 0
M  V30 5700 H 530.066 -0.031736 -0.736316 0
M  V30 5701 H 532.708 -0.762711 -1.74019 0
M  V30 5702 H 530.858 0.549532 -3.84594 0
M  V30 5703 H 532.53 -2.04411 -4.13538 0
M  V30 5704 H 530.773 -1.98422 -3.8576 0
M  V30 5705 H 531.444 -1.33395 -5.3564 0
M  V30 5706 H 533.92 0.174401 -4.15734 0
M  V30 5707 H 532.796 0.673041 -5.44758 0
M  V30 5708 H 533.057 1.72946 -4.06869 0
M  V30 5709 N 532.116 1.54067 -0.331816 0
M  V30 5710 C 533.048 2.22139 0.564538 0
M  V30 5711 C 534.061 1.22408 1.07332 0
M  V30 5712 O 535.25 1.4883 0.985481 0
M  V30 5713 C 532.35 2.87876 1.78831 0
M  V30 5714 C 531.523 4.13817 1.41682 0
M  V30 5715 C 530.582 4.63072 2.49901 0
M  V30 5716 O 529.608 5.27562 2.13699 0
M  V30 5717 N 530.81 4.38001 3.80967 0
M  V30 5718 H 533.575 2.99694 -0.0183736 0
M  V30 5719 H 531.136 1.61153 -0.155396 0
M  V30 5720 H 533.128 3.17747 2.50637 0
M  V30 5721 H 531.698 2.13977 2.27887 0
M  V30 5722 H 530.918 3.9062 0.530044 0
M  V30 5723 H 532.206 4.95762 1.14443 0
M  V30 5724 H 531.604 3.864 4.13173 0
M  V30 5725 H 530.161 4.72507 4.48977 0
M  V30 5726 N 533.594 0.0601682 1.57485 0
M  V30 5727 C 534.843 -0.611101 1.9222 0
M  V30 5728 C 535.156 -1.71469 0.941159 0
M  V30 5729 O 536.362 -2.44473 1.18089 0
M  V30 5730 C 534.818 -1.13832 3.41424 0
M  V30 5731 C 534.426 -0.0663596 4.47951 0
M  V30 5732 C 536.17 -1.78432 3.85178 0
M  V30 5733 C 534.077 -0.606965 5.88277 0
M  V30 5734 H 533.007 -0.232033 0.71741 0
M  V30 5735 H 535.658 0.130518 1.83035 0
M  V30 5736 H 534.04 -1.93254 3.45643 0
M  V30 5737 H 535.214 0.707682 4.55333 0
M  V30 5738 H 533.529 0.482715 4.13593 0
M  V30 5739 H 536.126 -2.1989 4.87394 0
M  V30 5740 H 536.469 -2.63966 3.21913 0
M  V30 5741 H 537.002 -1.05651 3.83514 0
M  V30 5742 H 533.741 0.21095 6.5516 0
M  V30 5743 H 533.261 -1.34879 5.84438 0
M  V30 5744 H 534.94 -1.08704 6.37803 0
M  V30 5745 N 535.072 -1.5615 -0.213296 0
M  V30 5746 C 536.319 -1.79546 -0.936462 0
M  V30 5747 C 536.647 -0.630337 -1.84003 0
M  V30 5748 O 535.902 0.384883 -1.91878 0
M  V30 5749 C 536.201 -3.08772 -1.79985 0
M  V30 5750 C 535.867 -4.38532 -1.04882 0
M  V30 5751 C 534.529 -4.73787 -0.841393 0
M  V30 5752 C 536.881 -5.18609 -0.51907 0
M  V30 5753 C 534.209 -5.86627 -0.0924403 0
M  V30 5754 C 536.561 -6.32229 0.216581 0
M  V30 5755 C 535.225 -6.6608 0.435191 0
M  V30 5756 H 534.495 -0.657004 -0.342676 0
M  V30 5757 H 537.142 -1.9041 -0.204051 0
M  V30 5758 H 535.447 -2.93065 -2.60038 0
M  V30 5759 H 537.144 -3.24077 -2.36168 0
M  V30 5760 H 533.734 -4.10855 -1.22048 0
M  V30 5761 H 537.918 -4.91801 -0.666775 0
M  V30 5762 H 533.174 -6.11338 0.087081 0
M  V30 5763 H 537.348 -6.93503 0.634538 0
M  V30 5764 H 534.975 -7.5336 1.01746 0
M  V30 5765 N 536.55 0.480323 -1.50102 0
M  V30 5766 C 537.48 1.58769 -1.71215 0
M  V30 5767 C 538.461 1.60583 -0.560997 0
M  V30 5768 O 539.646 1.76996 -0.799127 0
M  V30 5769 C 536.776 2.97148 -1.79778 0
M  V30 5770 C 535.73 3.10201 -2.94888 0
M  V30 5771 C 535.056 4.50137 -2.88584 0
M  V30 5772 C 536.356 2.88283 -4.35534 0
M  V30 5773 H 538.05 1.41354 -2.6393 0
M  V30 5774 H 535.596 0.678591 -1.27008 0
M  V30 5775 H 537.549 3.74536 -1.93133 0
M  V30 5776 H 536.273 3.15699 -0.836772 0
M  V30 5777 H 534.932 2.35244 -2.81169 0
M  V30 5778 H 534.58 4.65593 -1.90349 0
M  V30 5779 H 534.28 4.59808 -3.65856 0
M  V30 5780 H 535.804 5.29558 -3.03976 0
M  V30 5781 H 537.218 3.55427 -4.49827 0
M  V30 5782 H 535.615 3.09408 -5.14186 0
M  V30 5783 H 536.685 1.84219 -4.48544 0
M  V30 5784 N 538.028 1.39524 0.732853 0
M  V30 5785 C 539.253 1.40329 1.52717 0
M  V30 5786 C 539.678 0.000286574 1.881 0
M  V30 5787 O 539.036 -0.987262 1.52062 0
M  V30 5788 C 539.084 2.28464 2.78992 0
M  V30 5789 O 538.188 1.716 3.75003 0
M  V30 5790 H 537.529 0.47778 0.461109 0
M  V30 5791 H 540.059 1.83546 0.903996 0
M  V30 5792 H 540.069 2.43051 3.27705 0
M  V30 5793 H 538.744 3.30425 2.52572 0
M  V30 5794 H 537.321 1.66267 3.33781 0
M  V30 5795 N 539.506 -0.963266 1.24736 0
M  V30 5796 C 540.752 -1.70933 1.09131 0
M  V30 5797 C 541.085 -1.90676 -0.368273 0
M  V30 5798 O 540.36 -1.47147 -1.27193 0
M  V30 5799 C 540.643 -3.09744 1.83658 0
M  V30 5800 C 540.496 -2.97465 3.37394 0
M  V30 5801 C 541.815 -4.09483 1.61282 0
M  V30 5802 H 538.934 -0.620398 0.397838 0
M  V30 5803 H 541.576 -1.12028 1.53459 0
M  V30 5804 H 539.726 -3.60031 1.4598 0
M  V30 5805 H 541.398 -2.54571 3.84696 0
M  V30 5806 H 539.641 -2.33576 3.65547 0
M  V30 5807 H 540.312 -3.95822 3.84745 0
M  V30 5808 H 542.788 -3.68073 1.94066 0
M  V30 5809 H 541.664 -5.04666 2.15878 0
M  V30 5810 H 541.925 -4.38639 0.552102 0
M  V30 5811 N 540.985 -1.06182 -1.16461 0
M  V30 5812 C 542.234 -0.772927 -1.86303 0
M  V30 5813 C 542.547 0.703187 -1.82523 0
M  V30 5814 O 543.753 1.10641 -2.47933 0
M  V30 5815 C 542.209 -1.33249 -3.34324 0
M  V30 5816 C 541.817 -2.83876 -3.46581 0
M  V30 5817 C 543.561 -1.12108 -4.09429 0
M  V30 5818 C 541.468 -3.33082 -4.88682 0
M  V30 5819 H 540.398 -0.285452 -0.697878 0
M  V30 5820 H 543.049 -1.28039 -1.31447 0
M  V30 5821 H 541.431 -0.7528 -3.88779 0
M  V30 5822 H 542.605 -3.47786 -3.02293 0
M  V30 5823 H 540.92 -3.03671 -2.84909 0
M  V30 5824 H 543.517 -1.46361 -5.14279 0
M  V30 5825 H 543.86 -0.0593832 -4.16258 0
M  V30 5826 H 544.393 -1.6665 -3.6121 0
M  V30 5827 H 541.132 -4.38726 -4.87032 0
M  V30 5828 H 540.652 -2.73919 -5.33599 0
M  V30 5829 H 542.331 -3.28344 -5.57494 0
M  V30 5830 N 542.463 1.3308 -0.844243 0
M  V30 5831 C 543.709 1.97898 -0.443206 0
M  V30 5832 C 544.042 1.66699 0.99625 0
M  V30 5833 O 543.317 0.949704 1.69738 0
M  V30 5834 C 543.6 3.53801 -0.670606 0
M  V30 5835 C 543.453 3.94667 -2.15772 0
M  V30 5836 C 544.772 4.39936 -0.120226 0
M  V30 5837 H 541.891 0.718861 -0.162504 0
M  V30 5838 H 544.533 1.57633 -1.06075 0
M  V30 5839 H 542.683 3.88229 -0.14496 0
M  V30 5840 H 544.355 3.70469 -2.74865 0
M  V30 5841 H 542.598 3.44203 -2.6402 0
M  V30 5842 H 543.269 5.03275 -2.26757 0
M  V30 5843 H 545.745 4.12183 -0.5696 0
M  V30 5844 H 544.621 5.4803 -0.308984 0
M  V30 5845 H 544.882 4.31184 0.976347 0
M  V30 5846 N 543.941 0.601185 1.45683 0
M  V30 5847 C 545.189 0.0936957 2.01883 0
M  V30 5848 C 545.51 -1.2779 1.47291 0
M  V30 5849 O 544.78 -1.84279 0.664691 0
M  V30 5850 H 543.36 0.0316466 0.746329 0
M  V30 5851 H 546.022 0.781137 1.78562 0
M  V30 5852 H 545.118 0.0386297 3.12076 0
M  V30 5853 N 545.419 -1.53889 0.339982 0
M  V30 5854 C 546.382 -2.23547 -0.50592 0
M  V30 5855 C 547.382 -1.23445 -1.03044 0
M  V30 5856 O 548.572 -1.47909 -0.920253 0
M  V30 5857 C 545.704 -2.95234 -1.7044 0
M  V30 5858 H 546.897 -2.99722 0.103247 0
M  V30 5859 H 544.45 -1.56033 0.0912804 0
M  V30 5860 H 545.185 -2.23236 -2.35236 0
M  V30 5861 H 544.97 -3.68654 -1.33553 0
M  V30 5862 H 546.46 -3.48258 -2.30447 0
M  V30 5863 N 546.897 -0.0685191 -1.57451 0
M  V30 5864 C 547.827 0.89747 -2.15564 0
M  V30 5865 C 548.808 1.31266 -1.08181 0
M  V30 5866 O 549.993 1.38429 -1.36202 0
M  V30 5867 C 547.123 2.16623 -2.71463 0
M  V30 5868 C 546.077 1.89054 -3.83982 0
M  V30 5869 C 545.403 3.22532 -4.26471 0
M  V30 5870 C 546.703 1.1984 -5.08366 0
M  V30 5871 H 548.397 0.413373 -2.96533 0
M  V30 5872 H 545.943 0.197391 -1.42641 0
M  V30 5873 H 547.896 2.84614 -3.10761 0
M  V30 5874 H 546.62 2.67269 -1.8771 0
M  V30 5875 H 545.279 1.23469 -3.45183 0
M  V30 5876 H 544.927 3.71013 -3.39644 0
M  V30 5877 H 544.627 3.04879 -5.02317 0
M  V30 5878 H 546.151 3.91727 -4.68383 0
M  V30 5879 H 547.565 1.77896 -5.45001 0
M  V30 5880 H 545.962 1.12456 -5.89469 0
M  V30 5881 H 547.032 0.176996 -4.84577 0
M  V30 5882 N 548.375 1.56261 0.205012 0
M  V30 5883 C 549.323 1.94631 1.27364 0
M  V30 5884 C 550.317 0.830434 1.47649 0
M  V30 5885 O 551.523 1.01538 1.48627 0
M  V30 5886 H 547.898 0.618755 0.427371 0
M  V30 5887 H 549.869 2.83768 0.922941 0
M  V30 5888 C 548.618 2.29358 2.61324 0
M  V30 5889 H 547.941 3.14744 2.46528 0
M  V30 5890 H 549.381 2.60076 3.34868 0
M  V30 5891 C 547.84 1.12461 3.17575 0
M  V30 5892 O 548.37 0.394407 3.99759 0
M  V30 5893 N 546.576 0.904036 2.7618 0
M  V30 5894 H 546.123 1.49956 2.09454 0
M  V30 5895 H 546.081 0.123662 3.14157 0
M  V30 5896 N 549.853 -0.472356 1.50355 0
M  V30 5897 C 550.783 -1.57859 1.72055 0
M  V30 5898 C 551.764 -1.60283 0.569505 0
M  V30 5899 O 552.949 -1.7657 0.808503 0
M  V30 5900 C 550.079 -2.96191 1.81351 0
M  V30 5901 C 549.033 -3.08633 2.96529 0
M  V30 5902 C 548.359 -4.486 2.90968 0
M  V30 5903 C 549.659 -2.85969 4.37057 0
M  V30 5904 H 551.353 -1.39953 2.64676 0
M  V30 5905 H 548.899 -0.671846 1.27367 0
M  V30 5906 H 550.852 -3.73507 1.95117 0
M  V30 5907 H 549.576 -3.15251 0.853502 0
M  V30 5908 H 548.235 -2.33749 2.82413 0
M  V30 5909 H 547.883 -4.64577 1.92815 0
M  V30 5910 H 547.583 -4.57861 3.68289 0
M  V30 5911 H 549.107 -5.27938 3.0678 0
M  V30 5912 H 550.521 -3.53036 4.51706 0
M  V30 5913 H 548.918 -3.06677 5.15819 0
M  V30 5914 H 549.988 -1.81838 4.49514 0
M  V30 5915 N 551.331 -1.39911 -0.725443 0
M  V30 5916 C 552.579 -1.37382 -1.48224 0
M  V30 5917 C 552.9 0.0264107 -1.94982 0
M  V30 5918 O 552.17 0.979408 -1.6966 0
M  V30 5919 H 550.75 -0.505596 -0.549892 0
M  V30 5920 H 553.412 -1.7487 -0.860608 0
M  V30 5921 H 552.508 -2.04254 -2.3598 0
M  V30 5922 N 552.809 0.956637 -1.25245 0
M  V30 5923 C 553.757 2.0743 -1.0524 0
M  V30 5924 C 554.751 1.69392 0.0160725 0
M  V30 5925 O 555.957 1.7946 -0.139382 0
M  V30 5926 H 552.332 0.678921 -0.323373 0
M  V30 5927 H 554.303 2.2146 -1.99995 0
M  V30 5928 C 553.052 3.40872 -0.685702 0
M  V30 5929 H 552.375 3.70607 -1.49968 0
M  V30 5930 H 553.815 4.19939 -0.585415 0
M  V30 5931 C 552.274 3.31367 0.608082 0
M  V30 5932 O 552.804 3.66214 1.65076 0
M  V30 5933 N 551.01 2.84486 0.592955 0
M  V30 5934 H 550.557 2.56326 -0.25592 0
M  V30 5935 H 550.515 2.78509 1.45877 0
M  V30 5936 N 554.287 1.06798 1.15896 0
M  V30 5937 C 555.25 0.687328 2.18651 0
M  V30 5938 C 556.25 -0.269559 1.58524 0
M  V30 5939 O 557.44 -0.0512627 1.74125 0
M  V30 5940 C 554.572 0.0121642 3.40898 0
M  V30 5941 H 555.765 1.59701 2.53842 0
M  V30 5942 H 553.318 0.863828 1.3026 0
M  V30 5943 H 554.053 -0.910025 3.1127 0
M  V30 5944 H 553.838 0.700309 3.85795 0
M  V30 5945 H 555.328 -0.239703 4.16911 0
M  V30 5946 N 555.766 -1.3263 0.851289 0
M  V30 5947 C 556.991 -2.02097 0.466006 0
M  V30 5948 C 557.416 -1.63574 -0.928709 0
M  V30 5949 O 556.774 -0.834665 -1.60944 0
M  V30 5950 C 556.822 -3.55425 0.608737 0
M  V30 5951 O 555.926 -4.10827 -0.359878 0
M  V30 5952 H 555.267 -0.636911 0.187724 0
M  V30 5953 H 557.797 -1.69253 1.14955 0
M  V30 5954 H 557.807 -4.04986 0.495006 0
M  V30 5955 H 556.482 -3.82806 1.62581 0
M  V30 5956 H 555.059 -3.72349 -0.202666 0
M  V30 5957 N 557.244 -0.608902 -1.45362 0
M  V30 5958 C 558.655 -0.189511 -1.85736 0
M  V30 5959 C 559.006 1.2539 -1.50903 0
M  V30 5960 O 558.131 1.95094 -0.936347 0
M  V30 5961 C 558.726 -0.33716 -3.37118 0
M  V30 5962 C 557.285 0.0275487 -3.7639 0
M  V30 5963 C 556.432 -0.660983 -2.69307 0
M  V30 5964 H 559.383 -0.815499 -1.36144 0
M  V30 5965 H 559.404 0.430257 -3.7806 0
M  V30 5966 H 558.916 -1.38779 -3.62439 0
M  V30 5967 H 557.017 1.0773 -3.56686 0
M  V30 5968 H 557.13 -0.367018 -4.77692 0
M  V30 5969 H 555.494 -0.0984958 -2.54509 0
M  V30 5970 H 556.277 -1.71377 -2.97464 0
M  V30 5971 N 558.722 1.53707 -0.348139 0
M  V30 5972 C 559.962 2.02899 0.247254 0
M  V30 5973 C 560.326 1.23033 1.47401 0
M  V30 5974 O 561.527 1.62146 2.14388 0
M  V30 5975 C 559.798 3.53156 0.549151 0
M  V30 5976 S 561.357 4.24247 1.1207 0
M  V30 5977 H 558.175 0.707213 0.0732894 0
M  V30 5978 H 560.777 1.89338 -0.486965 0
M  V30 5979 H 559.481 4.08893 -0.351435 0
M  V30 5980 H 559.012 3.70845 1.31291 0
M  V30 5981 H 561.027 4.33958 2.40613 0
M  V30 5982 N 560.2 0.0768682 1.57412 0
M  V30 5983 C 561.13 -0.886026 2.16037 0
M  V30 5984 C 562.111 -1.30691 1.08876 0
M  V30 5985 O 563.296 -1.37705 1.36934 0
M  V30 5986 C 560.426 -2.1518 2.72608 0
M  V30 5987 C 559.38 -1.87015 3.8498 0
M  V30 5988 C 558.706 -3.20266 4.28175 0
M  V30 5989 C 560.006 -1.17143 5.08994 0
M  V30 5990 H 561.7 -0.397642 2.96748 0
M  V30 5991 H 559.246 -0.189823 1.42743 0
M  V30 5992 H 561.199 -2.82962 3.12266 0
M  V30 5993 H 559.923 -2.66269 1.89125 0
M  V30 5994 H 558.582 -1.21636 3.45833 0
M  V30 5995 H 558.23 -3.69207 3.41607 0
M  V30 5996 H 557.93 -3.0221 5.03927 0
M  V30 5997 H 559.454 -3.89237 4.70454 0
M  V30 5998 H 560.868 -1.75003 5.45937 0
M  V30 5999 H 559.265 -1.09328 5.90057 0
M  V30 6000 H 560.335 -0.151295 4.84664 0
M  V30 6001 N 561.678 -1.56367 -0.196722 0
M  V30 6002 C 562.588 -1.97617 -1.2643 0
M  V30 6003 C 563.604 -0.883598 -1.49895 0
M  V30 6004 O 564.78 -1.18921 -1.62541 0
M  V30 6005 C 561.845 -2.30595 -2.58895 0
M  V30 6006 C 560.906 -3.53551 -2.43516 0
M  V30 6007 C 560.139 -3.84946 -3.69665 0
M  V30 6008 O 560.362 -3.17655 -4.73763 0
M  V30 6009 O 559.296 -4.78379 -3.65291 0
M  V30 6010 H 563.122 -2.88648 -0.944233 0
M  V30 6011 H 560.707 -1.43901 -0.401592 0
M  V30 6012 H 562.589 -2.52889 -3.37083 0
M  V30 6013 H 561.264 -1.42732 -2.90533 0
M  V30 6014 H 560.171 -3.36507 -1.63445 0
M  V30 6015 H 561.504 -4.41875 -2.16812 0
M  V30 6016 N 563.156 0.464375 -1.50603 0
M  V30 6017 C 564.119 1.54393 -1.69397 0
M  V30 6018 C 565.119 1.50566 -0.564504 0
M  V30 6019 O 566.309 1.53066 -0.831645 0
M  V30 6020 C 563.441 2.9401 -1.72543 0
M  V30 6021 H 564.634 1.39044 -2.65719 0
M  V30 6022 H 562.187 0.69122 -1.40185 0
M  V30 6023 H 562.922 3.14795 -0.77938 0
M  V30 6024 H 562.707 2.98195 -2.54602 0
M  V30 6025 H 564.197 3.72375 -1.89015 0
M  V30 6026 N 564.634 1.40294 0.718013 0
M  V30 6027 C 565.881 1.3844 1.47786 0
M  V30 6028 C 566.209 -0.0140838 1.94495 0
M  V30 6029 O 565.464 -0.998165 1.68331 0
M  V30 6030 C 565.763 2.31814 2.72024 0
M  V30 6031 C 565.429 3.79117 2.44093 0
M  V30 6032 C 564.091 4.19249 2.36185 0
M  V30 6033 C 566.443 4.72212 2.20602 0
M  V30 6034 C 563.771 5.50516 2.02851 0
M  V30 6035 C 566.123 6.03775 1.88781 0
M  V30 6036 C 564.787 6.42953 1.79354 0
M  V30 6037 H 564.057 0.506588 0.540786 0
M  V30 6038 H 566.704 1.72929 0.822663 0
M  V30 6039 H 565.009 1.90501 3.42369 0
M  V30 6040 H 566.706 2.27664 3.30106 0
M  V30 6041 H 563.296 3.47318 2.51133 0
M  V30 6042 H 567.48 4.42026 2.25669 0
M  V30 6043 H 562.736 5.79776 1.94088 0
M  V30 6044 H 566.91 6.75428 1.69617 0
M  V30 6045 H 564.537 7.44584 1.53291 0
M  V30 6046 N 566.112 -0.949982 1.2575 0
M  V30 6047 C 567.075 -2.02894 1.06615 0
M  V30 6048 C 568.075 -1.60791 0.0173905 0
M  V30 6049 O 569.265 -1.72249 0.260003 0
M  V30 6050 C 566.397 -3.35219 0.619751 0
M  V30 6051 H 567.59 -2.21302 2.02399 0
M  V30 6052 H 565.143 -1.12772 1.08223 0
M  V30 6053 H 565.878 -3.22508 -0.340486 0
M  V30 6054 H 565.663 -3.67129 1.37692 0
M  V30 6055 H 567.153 -4.14505 0.507443 0
M  V30 6056 N 567.59 -1.07411 -1.15328 0
M  V30 6057 C 568.818 -0.818782 -1.90009 0
M  V30 6058 C 569.233 0.628072 -1.78047 0
M  V30 6059 O 568.59 1.43085 -1.13282 0
M  V30 6060 C 568.641 -1.21874 -3.40337 0
M  V30 6061 O 568.362 -2.60883 -3.51954 0
M  V30 6062 C 569.863 -0.992796 -4.3204 0
M  V30 6063 H 567.083 -0.296007 -0.60218 0
M  V30 6064 H 569.627 -1.43073 -1.46117 0
M  V30 6065 H 567.782 -0.651103 -3.81889 0
M  V30 6066 H 568.196 -2.77216 -4.45255 0
M  V30 6067 H 569.67 -1.32215 -5.35932 0
M  V30 6068 H 570.147 0.0708331 -4.39143 0
M  V30 6069 H 570.753 -1.54537 -3.9623 0
M  V30 6070 N 569.068 1.32177 -0.85831 0
M  V30 6071 C 570.316 1.96735 -0.462568 0
M  V30 6072 C 570.637 1.6824 0.985911 0
M  V30 6073 O 569.907 0.991564 1.68952 0
M  V30 6074 H 568.487 0.727849 -0.168064 0
M  V30 6075 H 571.149 1.61195 -1.09554 0
M  V30 6076 H 570.245 3.06068 -0.610647 0
M  V30 6077 N 570.547 0.616602 1.45037 0
M  V30 6078 C 571.963 0.280994 1.57107 0
M  V30 6079 C 572.163 -1.21627 1.60653 0
M  V30 6080 O 571.219 -1.9997 1.54169 0
M  V30 6081 C 572.532 0.960116 2.8496 0
M  V30 6082 C 574.08 0.936884 2.98649 0
M  V30 6083 C 574.555 1.59619 4.29285 0
M  V30 6084 N 576.046 1.5621 4.36065 0
M  V30 6085 C 576.781 2.04131 5.35834 0
M  V30 6086 N 576.277 2.60177 6.4209 0
M  V30 6087 N 578.07 1.94845 5.27249 0
M  V30 6088 H 570.221 1.58867 1.40979 0
M  V30 6089 H 572.484 0.666024 0.674623 0
M  V30 6090 H 572.19 2.01473 2.88273 0
M  V30 6091 H 572.064 0.488921 3.74018 0
M  V30 6092 H 574.451 -0.109209 2.94898 0
M  V30 6093 H 574.532 1.44643 2.10979 0
M  V30 6094 H 574.176 2.64166 4.33796 0
M  V30 6095 H 574.106 1.06159 5.15789 0
M  V30 6096 H 576.597 1.15276 3.59889 0
M  V30 6097 H 576.91 2.94513 7.1448 0
M  V30 6098 H 575.255 2.64221 6.42816 0
M  V30 6099 H 578.446 1.50792 4.43147 0
M  V30 6100 H 578.619 2.32504 6.04852 0
M  V30 6101 N 572.025 -1.5352 0.356285 0
M  V30 6102 C 572.988 -2.24071 -0.482182 0
M  V30 6103 C 573.988 -1.24531 -1.01729 0
M  V30 6104 O 575.178 -1.48876 -0.904513 0
M  V30 6105 C 572.31 -2.97025 -1.67299 0
M  V30 6106 H 573.503 -2.99596 0.135031 0
M  V30 6107 H 571.056 -1.55928 0.107825 0
M  V30 6108 H 571.791 -2.25719 -2.32855 0
M  V30 6109 H 571.576 -3.7005 -1.29636 0
M  V30 6110 H 573.066 -3.50683 -2.26741 0
M  V30 6111 N 573.503 -0.0852151 -1.57369 0
M  V30 6112 C 574.466 0.8627 -2.12344 0
M  V30 6113 C 575.466 1.21746 -1.05046 0
M  V30 6114 O 576.656 1.14852 -1.30976 0
M  V30 6115 C 573.788 2.1618 -2.63589 0
M  V30 6116 H 574.981 0.385511 -2.97412 0
M  V30 6117 H 572.534 0.163663 -1.55441 0
M  V30 6118 H 573.269 2.68406 -1.82013 0
M  V30 6119 H 573.054 1.91723 -3.4203 0
M  V30 6120 H 574.544 2.84011 -3.06149 0
M  V30 6121 N 574.981 1.5647 0.188427 0
M  V30 6122 C 575.944 1.9421 1.21718 0
M  V30 6123 C 576.944 0.823901 1.38089 0
M  V30 6124 O 578.134 1.09122 1.35787 0
M  V30 6125 C 575.266 2.22197 2.58537 0
M  V30 6126 H 576.459 2.86252 0.894418 0
M  V30 6127 H 574.012 1.50263 0.430211 0
M  V30 6128 H 574.747 1.32814 2.95856 0
M  V30 6129 H 574.532 3.03688 2.48025 0
M  V30 6130 H 576.022 2.52376 3.3271 0
M  V30 6131 N 576.459 -0.456382 1.50847 0
M  V30 6132 C 577.687 -1.23026 1.66349 0
M  V30 6133 C 578.102 -1.85473 0.352868 0
M  V30 6134 O 577.459 -1.69885 -0.666739 0
M  V30 6135 C 577.51 -2.32827 2.76539 0
M  V30 6136 O 577.231 -1.72938 4.02522 0
M  V30 6137 C 578.732 -3.23448 3.03144 0
M  V30 6138 H 575.952 -0.371527 0.558756 0
M  V30 6139 H 578.496 -0.543082 1.97157 0
M  V30 6140 H 576.651 -2.97294 2.48384 0
M  V30 6141 H 577.065 -2.45357 4.63573 0
M  V30 6142 H 578.539 -3.96669 3.83872 0
M  V30 6143 H 579.016 -3.83094 2.14793 0
M  V30 6144 H 579.622 -2.64702 3.32886 0
M  V30 6145 N 577.937 -1.40673 -0.710563 0
M  V30 6146 C 579.162 -1.42741 -1.50465 0
M  V30 6147 C 579.587 -0.0302116 -1.88076 0
M  V30 6148 O 578.945 0.962945 -1.53613 0
M  V30 6149 C 578.993 -2.32873 -2.75322 0
M  V30 6150 O 578.097 -1.77544 -3.72226 0
M  V30 6151 H 577.438 -0.485056 -0.45345 0
M  V30 6152 H 579.968 -1.84961 -0.874681 0
M  V30 6153 H 579.978 -2.48233 -3.23797 0
M  V30 6154 H 578.653 -3.34401 -2.47283 0
M  V30 6155 H 577.23 -1.71556 -3.31093 0
M  V30 6156 N 579.415 0.9433 -1.26252 0
M  V30 6157 C 580.664 1.68369 -1.11062 0
M  V30 6158 C 580.977 1.92514 0.346104 0
M  V30 6159 O 582.183 2.64358 0.618646 0
M  V30 6160 C 580.639 3.03171 -1.93946 0
M  V30 6161 C 580.247 2.86782 -3.4418 0
M  V30 6162 C 581.991 3.80916 -1.87359 0
M  V30 6163 C 579.898 4.17044 -4.19319 0
M  V30 6164 H 578.828 0.631469 -0.412023 0
M  V30 6165 H 581.479 1.04922 -1.50544 0
M  V30 6166 H 579.861 3.67587 -1.47296 0
M  V30 6167 H 581.035 2.31229 -3.98585 0
M  V30 6168 H 579.35 2.22482 -3.51981 0
M  V30 6169 H 581.947 4.77417 -2.40784 0
M  V30 6170 H 582.29 4.07658 -0.843857 0
M  V30 6171 H 582.823 3.2327 -2.31821 0
M  V30 6172 H 579.562 3.95487 -5.22753 0
M  V30 6173 H 579.082 4.72319 -3.69696 0
M  V30 6174 H 580.761 4.85513 -4.27651 0
M  V30 6175 N 580.893 1.08022 1.14757 0
M  V30 6176 C 582.14 0.807509 1.85703 0
M  V30 6177 C 582.468 -0.666617 1.8272 0
M  V30 6178 O 581.723 -1.50562 1.25018 0
M  V30 6179 C 582.022 1.26964 3.34088 0
M  V30 6180 C 581.688 2.7509 3.57262 0
M  V30 6181 C 580.35 3.15547 3.63296 0
M  V30 6182 C 582.702 3.70667 3.66409 0
M  V30 6183 C 580.03 4.50384 3.75994 0
M  V30 6184 C 582.382 5.05274 3.80632 0
M  V30 6185 C 581.046 5.45342 3.84913 0
M  V30 6186 H 580.316 0.295488 0.679535 0
M  V30 6187 H 582.963 1.35245 1.35577 0
M  V30 6188 H 581.268 0.644216 3.86467 0
M  V30 6189 H 582.965 1.03544 3.87401 0
M  V30 6190 H 579.555 2.42775 3.53212 0
M  V30 6191 H 583.739 3.40533 3.61041 0
M  V30 6192 H 578.995 4.80886 3.77569 0
M  V30 6193 H 583.169 5.79201 3.86652 0
M  V30 6194 H 580.796 6.49823 3.94505 0
M  V30 6195 N 582.371 -1.3172 0.865308 0
M  V30 6196 C 583.281 -2.32394 0.320935 0
M  V30 6197 C 584.297 -1.64511 -0.566746 0
M  V30 6198 O 585.473 -1.95969 -0.464575 0
M  V30 6199 C 582.538 -3.43462 -0.472701 0
M  V30 6200 C 581.599 -4.27015 0.442385 0
M  V30 6201 C 580.832 -5.32779 -0.313469 0
M  V30 6202 O 581.055 -5.49158 -1.54214 0
M  V30 6203 O 579.989 -6.01015 0.326257 0
M  V30 6204 H 583.815 -2.80868 1.15528 0
M  V30 6205 H 581.4 -1.35535 0.628545 0
M  V30 6206 H 583.282 -4.11172 -0.922781 0
M  V30 6207 H 581.957 -2.97159 -1.28367 0
M  V30 6208 H 580.864 -3.62075 0.940866 0
M  V30 6209 H 582.197 -4.76871 1.21882 0
M  V30 6210 N 583.85 -0.624285 -1.44708 0
M  V30 6211 C 585.077 -0.132919 -2.06473 0
M  V30 6212 C 585.493 1.18967 -1.46602 0
M  V30 6213 O 584.85 1.72824 -0.586341 0
M  V30 6214 C 584.901 -0.00465418 -3.615 0
M  V30 6215 O 584.622 -1.27494 -4.19138 0
M  V30 6216 C 586.123 0.516213 -4.40284 0
M  V30 6217 H 583.343 -0.0765201 -0.666623 0
M  V30 6218 H 585.887 -0.856751 -1.85688 0
M  V30 6219 H 584.042 0.669583 -3.8157 0
M  V30 6220 H 584.456 -1.11536 -5.12504 0
M  V30 6221 H 585.93 0.554994 -5.49203 0
M  V30 6222 H 586.407 1.5419 -4.11245 0
M  V30 6223 H 587.013 -0.124542 -4.25118 0
M  V30 6224 N 585.328 1.53329 -0.364422 0
M  V30 6225 C 586.577 2.00421 0.226747 0
M  V30 6226 C 586.89 1.25581 1.49963 0
M  V30 6227 O 588.096 1.63256 2.16933 0
M  V30 6228 C 586.552 3.57017 0.454618 0
M  V30 6229 C 586.16 4.40734 -0.803568 0
M  V30 6230 C 587.904 4.12468 1.00351 0
M  V30 6231 C 585.811 5.8888 -0.545345 0
M  V30 6232 H 584.741 0.748787 0.0885082 0
M  V30 6233 H 587.392 1.7703 -0.482983 0
M  V30 6234 H 585.774 3.76558 1.22558 0
M  V30 6235 H 586.948 4.32967 -1.57723 0
M  V30 6236 H 585.263 3.96381 -1.27559 0
M  V30 6237 H 587.86 5.20783 1.212 0
M  V30 6238 H 588.203 3.6699 1.9653 0
M  V30 6239 H 588.736 3.96721 0.29274 0
M  V30 6240 H 585.475 6.38633 -1.47743 0
M  V30 6241 H 584.995 5.99499 0.189842 0
M  V30 6242 H 586.674 6.46776 -0.170425 0
M  V30 6243 N 586.806 0.0935595 1.57322 0
M  V30 6244 C 588.083 -0.612692 1.85756 0
M  V30 6245 C 588.463 -1.86439 0.99013 0
M  V30 6246 O 587.811 -2.28416 0.0621362 0
M  V30 6247 C 588.021 -0.929547 3.36393 0
M  V30 6248 C 589.369 -1.29366 4.04413 0
M  V30 6249 O 590.393 -1.02061 3.41265 0
M  V30 6250 O 589.252 -1.80498 5.15832 0
M  V30 6251 H 586.346 -0.306444 0.768128 0
M  V30 6252 H 588.892 0.126141 1.69231 0
M  V30 6253 H 587.664 -0.0414766 3.91278 0
M  V30 6254 H 587.287 -1.72441 3.5826 0
M  V30 6255 N 588.284 -1.56567 -0.180126 0
M  V30 6256 C 589.7 -1.50488 -0.531559 0
M  V30 6257 C 589.9 -0.796267 -1.851 0
M  V30 6258 O 588.956 -0.352978 -2.50021 0
M  V30 6259 C 590.269 -2.95201 -0.572456 0
M  V30 6260 C 591.817 -3.05957 -0.660264 0
M  V30 6261 C 592.292 -4.5211 -0.732135 0
M  V30 6262 N 593.783 -4.56322 -0.795262 0
M  V30 6263 C 594.518 -5.66742 -0.871296 0
M  V30 6264 N 594.014 -6.86815 -0.908708 0
M  V30 6265 N 595.807 -5.54691 -0.909639 0
M  V30 6266 H 587.958 -2.01045 0.685165 0
M  V30 6267 H 590.221 -0.915536 0.245962 0
M  V30 6268 H 589.927 -3.50165 0.328208 0
M  V30 6269 H 589.801 -3.49369 -1.422 0
M  V30 6270 H 592.188 -2.51032 -1.55136 0
M  V30 6271 H 592.269 -2.54888 0.215783 0
M  V30 6272 H 591.913 -5.07664 0.154664 0
M  V30 6273 H 591.843 -5.00926 -1.6242 0
M  V30 6274 H 594.334 -3.69868 -0.77499 0
M  V30 6275 H 594.647 -7.66718 -0.967654 0
M  V30 6276 H 592.992 -6.89443 -0.877132 0
M  V30 6277 H 596.183 -4.59804 -0.877353 0
M  V30 6278 H 596.356 -6.40768 -0.965434 0
M  V30 6279 N 589.762 0.448376 -1.51087 0
M  V30 6280 C 590.709 1.54341 -1.71603 0
M  V30 6281 C 591.679 1.56463 -0.557536 0
M  V30 6282 O 592.864 1.73644 -0.79072 0
M  V30 6283 C 590.004 2.92148 -1.83695 0
M  V30 6284 C 589.117 2.99639 -3.11192 0
M  V30 6285 C 588.252 4.285 -3.13944 0
M  V30 6286 C 587.291 4.29819 -4.35801 0
M  V30 6287 N 586.428 5.50186 -4.36164 0
M  V30 6288 H 591.268 1.36151 -2.65079 0
M  V30 6289 H 588.805 0.661585 -1.31383 0
M  V30 6290 H 590.763 3.72093 -1.88687 0
M  V30 6291 H 589.393 3.0892 -0.936374 0
M  V30 6292 H 588.445 2.12425 -3.15562 0
M  V30 6293 H 589.757 2.96474 -4.01129 0
M  V30 6294 H 588.911 5.16811 -3.17791 0
M  V30 6295 H 587.65 4.34307 -2.21876 0
M  V30 6296 H 586.655 3.39902 -4.32142 0
M  V30 6297 H 587.88 4.25685 -5.29121 0
M  V30 6298 H 585.826 5.56735 -3.46961 0
M  V30 6299 H 585.743 5.48856 -5.19897 0
M  V30 6300 H 587.011 6.40559 -4.44189 0
M  V30 6301 N 591.24 1.41047 0.703093 0
M  V30 6302 C 592.651 1.35657 1.28274 0
M  V30 6303 C 593.002 0.0360309 1.96167 0
M  V30 6304 O 592.127 -0.865833 1.98324 0
M  V30 6305 C 592.722 2.45707 2.33267 0
M  V30 6306 C 591.281 2.43738 2.86825 0
M  V30 6307 C 590.428 2.25941 1.60767 0
M  V30 6308 H 593.379 1.50672 0.49836 0
M  V30 6309 H 593.4 2.14333 3.14391 0
M  V30 6310 H 592.912 3.41805 1.83824 0
M  V30 6311 H 591.013 1.51375 3.40465 0
M  V30 6312 H 591.126 3.39779 3.37768 0
M  V30 6313 H 589.49 1.73681 1.86298 0
M  V30 6314 H 590.273 3.24054 1.1333 0
M  V30 6315 N 592.718 -0.936591 1.26751 0
M  V30 6316 C 593.967 -1.67778 1.11953 0
M  V30 6317 C 594.28 -1.92694 -0.33589 0
M  V30 6318 O 595.486 -2.64682 -0.604618 0
M  V30 6319 C 593.942 -3.02138 1.95551 0
M  V30 6320 C 593.55 -2.84953 3.45696 0
M  V30 6321 C 595.294 -3.79917 1.89377 0
M  V30 6322 C 593.201 -4.14814 4.21525 0
M  V30 6323 H 592.131 -0.629275 0.415366 0
M  V30 6324 H 594.782 -1.04122 1.51099 0
M  V30 6325 H 593.164 -3.668 1.49243 0
M  V30 6326 H 594.338 -2.29112 3.99805 0
M  V30 6327 H 592.653 -2.20612 3.53156 0
M  V30 6328 H 595.25 -4.76134 2.43312 0
M  V30 6329 H 595.593 -4.07204 0.865464 0
M  V30 6330 H 596.126 -3.22037 2.33532 0
M  V30 6331 H 592.865 -3.92709 5.24843 0
M  V30 6332 H 592.385 -4.70352 3.72195 0
M  V30 6333 H 594.064 -4.83239 4.3022 0
M  V30 6334 N 594.196 -1.08629 -1.14182 0
M  V30 6335 C 595.445 -0.812271 -1.84621 0
M  V30 6336 C 595.758 0.664313 -1.83973 0
M  V30 6337 O 596.964 1.05357 -2.50224 0
M  V30 6338 C 595.42 -1.4031 -3.31423 0
M  V30 6339 C 595.028 -2.91164 -3.40481 0
M  V30 6340 C 596.772 -1.20767 -4.06959 0
M  V30 6341 C 594.679 -3.43373 -4.81507 0
M  V30 6342 H 593.609 -0.30019 -0.691666 0
M  V30 6343 H 596.26 -1.30798 -1.28701 0
M  V30 6344 H 594.642 -0.835096 -3.87094 0
M  V30 6345 H 595.816 -3.5412 -2.94848 0
M  V30 6346 H 594.131 -3.09646 -2.78403 0
M  V30 6347 H 596.728 -1.57237 -5.11058 0
M  V30 6348 H 597.071 -0.147664 -4.16038 0
M  V30 6349 H 597.604 -1.74274 -3.57594 0
M  V30 6350 H 594.343 -4.48958 -4.77616 0
M  V30 6351 H 593.863 -2.85176 -5.27669 0
M  V30 6352 H 595.542 -3.40095 -5.50404 0
M  V30 6353 N 595.674 1.31259 -0.872281 0
M  V30 6354 C 596.951 1.91362 -0.404943 0
M  V30 6355 C 597.331 1.79362 1.11321 0
M  V30 6356 O 596.679 1.20277 1.94283 0
M  V30 6357 C 596.889 3.3749 -0.888893 0
M  V30 6358 C 598.237 4.14593 -0.916384 0
M  V30 6359 O 599.261 3.46282 -0.834701 0
M  V30 6360 O 598.12 5.3661 -1.03498 0
M  V30 6361 H 595.214 0.818016 -0.121569 0
M  V30 6362 H 597.76 1.39912 -0.960346 0
M  V30 6363 H 596.532 3.40249 -1.93251 0
M  V30 6364 H 596.155 3.96375 -0.311932 0
M  V30 6365 N 597.152 0.631951 1.44375 0
M  V30 6366 C 598.392 0.14009 2.03919 0
M  V30 6367 C 598.756 -1.21534 1.48639 0
M  V30 6368 O 599.957 -1.79936 1.99691 0
M  V30 6369 C 598.228 0.127174 3.57174 0
M  V30 6370 S 599.787 -0.299946 4.37774 0
M  V30 6371 H 596.605 0.0614891 0.708336 0
M  V30 6372 H 599.207 0.835524 1.76746 0
M  V30 6373 H 597.911 1.11676 3.94913 0
M  V30 6374 H 597.442 -0.589482 3.88958 0
M  V30 6375 H 599.457 -1.54396 4.71568 0
M  V30 6376 N 598.631 -1.53133 0.372548 0
M  V30 6377 C 599.564 -2.22328 -0.514361 0
M  V30 6378 C 600.542 -1.21776 -1.07747 0
M  V30 6379 O 601.726 -1.50704 -1.13228 0
M  V30 6380 C 598.853 -2.92343 -1.71035 0
M  V30 6381 C 597.899 -4.07026 -1.27405 0
M  V30 6382 S 598.732 -5.34821 -0.269526 0
M  V30 6383 C 599.888 -6.08352 -1.47168 0
M  V30 6384 H 600.121 -2.9721 0.0732683 0
M  V30 6385 H 597.654 -1.53603 0.156673 0
M  V30 6386 H 599.612 -3.33296 -2.39634 0
M  V30 6387 H 598.273 -2.17173 -2.26925 0
M  V30 6388 H 597.466 -4.55056 -2.16656 0
M  V30 6389 H 597.068 -3.68001 -0.66719 0
M  V30 6390 H 599.36 -6.33507 -2.40157 0
M  V30 6391 H 600.303 -7.0053 -1.03263 0
M  V30 6392 H 600.711 -5.38893 -1.6809 0
M  V30 6393 N 600.109 -0.101901 -1.5727 0
M  V30 6394 C 601.334 0.571759 -1.99363 0
M  V30 6395 C 601.759 1.60507 -0.980768 0
M  V30 6396 O 601.117 1.81231 0.0498517 0
M  V30 6397 C 601.165 1.18996 -3.404 0
M  V30 6398 O 600.269 2.30572 -3.41922 0
M  V30 6399 H 599.61 0.144449 -0.648098 0
M  V30 6400 H 602.14 -0.185325 -2.03759 0
M  V30 6401 H 602.15 1.52962 -3.78241 0
M  V30 6402 H 600.825 0.432984 -4.1364 0
M  V30 6403 H 599.402 1.98173 -3.15883 0
M  V30 6404 N 601.587 1.56661 0.17182 0
M  V30 6405 C 602.497 1.99604 1.2327 0
M  V30 6406 C 603.513 0.907333 1.4847 0
M  V30 6407 O 604.689 1.21492 1.60629 0
M  V30 6408 C 601.754 2.34685 2.55194 0
M  V30 6409 C 600.815 3.57381 2.3786 0
M  V30 6410 C 600.048 3.90779 3.63494 0
M  V30 6411 O 600.271 3.25152 4.6865 0
M  V30 6412 O 599.205 4.84129 3.57634 0
M  V30 6413 H 603.031 2.90114 0.898192 0
M  V30 6414 H 600.616 1.44522 0.378647 0
M  V30 6415 H 602.498 2.5822 3.33017 0
M  V30 6416 H 601.173 1.47336 2.88225 0
M  V30 6417 H 600.08 3.39064 1.5807 0
M  V30 6418 H 601.413 4.45268 2.09754 0
M  V30 6419 N 603.065 -0.440357 1.51323 0
M  V30 6420 C 604.342 -1.20109 1.5438 0
M  V30 6421 C 604.722 -2.08866 0.306303 0
M  V30 6422 O 604.07 -2.1723 -0.708773 0
M  V30 6423 C 604.28 -2.00555 2.8562 0
M  V30 6424 C 605.628 -2.577 3.37455 0
M  V30 6425 O 606.652 -2.10769 2.8715 0
M  V30 6426 O 605.511 -3.43289 4.25224 0
M  V30 6427 H 602.605 -0.546668 0.620551 0
M  V30 6428 H 605.151 -0.449672 1.63634 0
M  V30 6429 H 603.923 -1.35346 3.67147 0
M  V30 6430 H 603.546 -2.82768 2.79514 0
M  V30 6431 N 604.543 -1.41418 -0.695603 0
M  V30 6432 C 605.791 -1.40496 -1.45277 0
M  V30 6433 C 606.112 -0.0149538 -1.94994 0
M  V30 6434 O 605.382 0.9432 -1.71699 0
M  V30 6435 H 603.962 -0.517147 -0.539044 0
M  V30 6436 H 606.624 -1.76656 -0.823321 0
M  V30 6437 H 605.72 -2.09214 -2.31595 0
M  V30 6438 N 606.021 0.929856 -1.27246 0
M  V30 6439 C 607.251 1.70895 -1.16096 0
M  V30 6440 C 607.659 1.87039 0.285122 0
M  V30 6441 O 607.002 1.38557 1.20614 0
M  V30 6442 C 607.064 3.12919 -1.7698 0
M  V30 6443 C 606.728 3.2012 -3.26148 0
M  V30 6444 C 607.725 3.02533 -4.22812 0
M  V30 6445 C 605.41 3.43148 -3.66817 0
M  V30 6446 C 607.404 3.07861 -5.58122 0
M  V30 6447 C 605.091 3.48109 -5.02258 0
M  V30 6448 C 606.089 3.30483 -5.97721 0
M  V30 6449 O 605.777 3.35175 -7.30694 0
M  V30 6450 H 605.509 0.54152 -0.404639 0
M  V30 6451 H 608.063 1.17342 -1.68582 0
M  V30 6452 H 606.293 3.67945 -1.18969 0
M  V30 6453 H 607.982 3.72787 -1.60576 0
M  V30 6454 H 608.748 2.84586 -3.92728 0
M  V30 6455 H 604.627 3.55918 -2.9299 0
M  V30 6456 H 608.171 2.94021 -6.32612 0
M  V30 6457 H 604.068 3.65579 -5.31998 0
M  V30 6458 H 604.836 3.51644 -7.39114 0
M  V30 6459 N 607.499 1.09233 1.13605 0
M  V30 6460 C 608.446 0.729921 2.18954 0
M  V30 6461 C 609.416 -0.287916 1.63586 0
M  V30 6462 O 610.601 -0.170003 1.90041 0
M  V30 6463 C 607.741 0.154489 3.44754 0
M  V30 6464 C 606.854 1.22613 4.14234 0
M  V30 6465 C 605.989 0.613657 5.27644 0
M  V30 6466 C 605.028 1.66674 5.8897 0
M  V30 6467 N 604.165 1.07545 6.93814 0
M  V30 6468 H 609.005 1.63257 2.49302 0
M  V30 6469 H 606.542 0.815693 1.22413 0
M  V30 6470 H 608.5 -0.196923 4.16735 0
M  V30 6471 H 607.13 -0.711433 3.14863 0
M  V30 6472 H 606.182 1.69485 3.40557 0
M  V30 6473 H 607.494 2.0238 4.55899 0
M  V30 6474 H 606.648 0.210976 6.06333 0
M  V30 6475 H 605.387 -0.215584 4.87223 0
M  V30 6476 H 604.392 2.07899 5.08978 0
M  V30 6477 H 605.617 2.49861 6.31464 0
M  V30 6478 H 603.563 0.267451 6.55455 0
M  V30 6479 H 603.48 1.81011 7.3401 0
M  V30 6480 H 604.748 0.698906 7.7636 0
M  V30 6481 N 608.977 -1.30795 0.87923 0
M  V30 6482 C 609.907 -2.30742 0.357796 0
M  V30 6483 C 610.888 -1.60747 -0.556283 0
M  V30 6484 O 612.073 -1.88393 -0.47135 0
M  V30 6485 C 609.203 -3.44583 -0.433555 0
M  V30 6486 C 608.157 -4.26235 0.388251 0
M  V30 6487 C 607.483 -5.32073 -0.529352 0
M  V30 6488 C 608.783 -4.96303 1.62729 0
M  V30 6489 H 610.477 -2.74605 1.19299 0
M  V30 6490 H 608.023 -1.32017 0.575104 0
M  V30 6491 H 609.976 -4.13563 -0.808934 0
M  V30 6492 H 608.7 -2.99511 -1.30234 0
M  V30 6493 H 607.359 -3.58936 0.745695 0
M  V30 6494 H 607.007 -4.83249 -1.39569 0
M  V30 6495 H 606.707 -5.87598 0.0166741 0
M  V30 6496 H 608.231 -6.0391 -0.901373 0
M  V30 6497 H 609.645 -5.5783 1.32283 0
M  V30 6498 H 608.042 -5.61666 2.11309 0
M  V30 6499 H 609.112 -4.22758 2.37494 0
M  V30 6500 N 610.455 -0.639598 -1.44038 0
M  V30 6501 C 611.732 -0.078012 -1.95444 0
M  V30 6502 C 612.112 1.39847 -1.58133 0
M  V30 6503 O 611.46 2.11714 -0.859614 0
M  V30 6504 C 611.67 -0.309832 -3.47622 0
M  V30 6505 C 613.018 -0.207521 -4.24093 0
M  V30 6506 O 614.042 -0.241653 -3.55379 0
M  V30 6507 O 612.901 -0.119641 -5.46369 0
M  V30 6508 H 609.995 0.0174534 -0.826816 0
M  V30 6509 H 612.541 -0.711891 -1.54046 0
M  V30 6510 H 611.313 -1.33401 -3.67858 0
M  V30 6511 H 610.936 0.357777 -3.95987 0
M  V30 6512 N 611.933 1.52934 -0.380664 0
M  V30 6513 C 613.349 1.59571 -0.0302429 0
M  V30 6514 C 613.549 1.39509 1.45394 0
M  V30 6515 O 612.605 1.20777 2.21741 0
M  V30 6516 C 613.918 2.96519 -0.499691 0
M  V30 6517 C 615.466 3.09672 -0.455204 0
M  V30 6518 C 615.941 4.49056 -0.900703 0
M  V30 6519 N 617.432 4.55215 -0.856367 0
M  V30 6520 C 618.167 5.61282 -1.17259 0
M  V30 6521 N 617.663 6.75035 -1.55885 0
M  V30 6522 N 619.456 5.51343 -1.0944 0
M  V30 6523 H 611.607 1.64224 -1.347 0
M  V30 6524 H 613.87 0.771033 -0.551554 0
M  V30 6525 H 613.576 3.16388 -1.53595 0
M  V30 6526 H 613.45 3.77052 0.105789 0
M  V30 6527 H 615.837 2.89504 0.571949 0
M  V30 6528 H 615.918 2.31113 -1.09638 0
M  V30 6529 H 615.562 4.69964 -1.92604 0
M  V30 6530 H 615.492 5.26068 -0.236629 0
M  V30 6531 H 617.983 3.73546 -0.572013 0
M  V30 6532 H 618.296 7.51926 -1.784 0
M  V30 6533 H 616.641 6.76388 -1.59764 0
M  V30 6534 H 619.832 4.61356 -0.791713 0
M  V30 6535 H 620.005 6.33905 -1.34417 0
M  V30 6536 N 613.412 0.11024 1.57214 0
M  V30 6537 C 614.661 -0.549638 1.94067 0
M  V30 6538 C 614.974 -1.68388 0.995234 0
M  V30 6539 O 616.18 -2.40593 1.25807 0
M  V30 6540 C 614.636 -1.02912 3.44873 0
M  V30 6541 C 614.244 0.0761861 4.47935 0
M  V30 6542 C 615.988 -1.66087 3.9066 0
M  V30 6543 C 613.895 -0.419502 5.8991 0
M  V30 6544 H 612.825 -0.209092 0.724428 0
M  V30 6545 H 615.476 0.188683 1.82527 0
M  V30 6546 H 613.858 -1.82159 3.51616 0
M  V30 6547 H 615.032 0.852185 4.52851 0
M  V30 6548 H 613.347 0.614052 4.11847 0
M  V30 6549 H 615.944 -2.04272 4.94143 0
M  V30 6550 H 616.287 -2.53591 3.30148 0
M  V30 6551 H 616.82 -0.933959 3.86681 0
M  V30 6552 H 613.559 0.419277 6.54158 0
M  V30 6553 H 613.079 -1.16217 5.88433 0
M  V30 6554 H 614.758 -0.883577 6.40938 0
M  V30 6555 N 614.89 -1.56749 -0.16351 0
M  V30 6556 C 615.837 -1.97011 -1.2023 0
M  V30 6557 C 616.807 -0.835186 -1.43575 0
M  V30 6558 O 617.992 -1.09594 -1.56185 0
M  V30 6559 C 615.132 -2.34186 -2.53478 0
M  V30 6560 C 614.245 -3.60893 -2.37446 0
M  V30 6561 C 613.38 -3.87245 -3.63614 0
M  V30 6562 C 612.419 -5.07274 -3.42548 0
M  V30 6563 N 611.556 -5.29719 -4.60806 0
M  V30 6564 H 616.396 -2.85562 -0.851958 0
M  V30 6565 H 613.933 -1.41292 -0.409257 0
M  V30 6566 H 615.891 -2.53764 -3.31149 0
M  V30 6567 H 614.521 -1.48736 -2.86492 0
M  V30 6568 H 613.573 -3.49185 -1.50911 0
M  V30 6569 H 614.885 -4.48722 -2.1783 0
M  V30 6570 H 614.039 -4.07232 -4.49719 0
M  V30 6571 H 612.778 -2.97806 -3.86216 0
M  V30 6572 H 611.783 -4.87177 -2.5483 0
M  V30 6573 H 613.008 -5.98251 -3.2136 0
M  V30 6574 H 610.954 -4.43233 -4.83612 0
M  V30 6575 H 610.871 -6.11786 -4.44132 0
M  V30 6576 H 612.139 -5.54192 -5.48171 0
M  V30 6577 N 616.368 0.432326 -1.51554 0
M  V30 6578 C 617.616 1.17901 -1.64146 0
M  V30 6579 C 617.937 1.91604 -0.362367 0
M  V30 6580 O 617.207 1.85764 0.621968 0
M  V30 6581 H 615.787 0.438206 -0.604966 0
M  V30 6582 H 618.449 0.495172 -1.88505 0
M  V30 6583 H 617.545 1.90584 -2.47152 0
M  V30 6584 N 617.846 1.41785 0.688094 0
M  V30 6585 C 618.756 1.46596 1.83158 0
M  V30 6586 C 619.772 0.355862 1.70322 0
M  V30 6587 O 620.948 0.604737 1.92106 0
M  V30 6588 C 618.013 1.35322 3.192 0
M  V30 6589 C 617.074 2.56711 3.4409 0
M  V30 6590 C 616.307 2.45965 4.73642 0
M  V30 6591 O 616.53 1.48827 5.50642 0
M  V30 6592 O 615.464 3.35859 4.99482 0
M  V30 6593 H 619.29 2.43083 1.82056 0
M  V30 6594 H 616.875 1.23404 0.842126 0
M  V30 6595 H 618.757 1.31347 4.00407 0
M  V30 6596 H 617.432 0.419536 3.2097 0
M  V30 6597 H 616.339 2.66262 2.62784 0
M  V30 6598 H 617.672 3.48933 3.47141 0
M  V30 6599 N 619.324 -0.923095 1.27737 0
M  V30 6600 C 620.573 -1.66581 1.13727 0
M  V30 6601 C 620.886 -1.9304 -0.315433 0
M  V30 6602 O 622.092 -2.65309 -0.57651 0
M  V30 6603 C 620.548 -3.00047 1.98745 0
M  V30 6604 C 620.156 -2.8127 3.48699 0
M  V30 6605 C 621.9 -3.77887 1.93395 0
M  V30 6606 C 619.807 -4.1032 4.25901 0
M  V30 6607 H 618.737 -0.624834 0.422017 0
M  V30 6608 H 621.388 -1.02514 1.52194 0
M  V30 6609 H 619.77 -3.65197 1.53125 0
M  V30 6610 H 620.944 -2.24859 4.02213 0
M  V30 6611 H 619.259 -2.16854 3.55476 0
M  V30 6612 H 621.856 -4.73526 2.48348 0
M  V30 6613 H 622.199 -4.06264 0.908605 0
M  V30 6614 H 622.732 -3.19541 2.36935 0
M  V30 6615 H 619.471 -3.8712 5.28978 0
M  V30 6616 H 618.991 -4.66377 3.77163 0
M  V30 6617 H 620.67 -4.78648 4.35321 0
M  V30 6618 N 620.802 -1.09834 -1.13024 0
M  V30 6619 C 621.712 -0.753731 -2.22162 0
M  V30 6620 C 622.728 0.246105 -1.72251 0
M  V30 6621 O 623.904 0.0864051 -2.01215 0
M  V30 6622 C 620.969 -0.183958 -3.46212 0
M  V30 6623 C 620.03 -1.24028 -4.10993 0
M  V30 6624 C 619.263 -0.697597 -5.29121 0
M  V30 6625 O 619.486 0.478092 -5.68393 0
M  V30 6626 O 618.42 -1.4546 -5.84059 0
M  V30 6627 H 622.246 -1.66456 -2.5402 0
M  V30 6628 H 619.831 -0.873026 -1.21238 0
M  V30 6629 H 621.713 0.130257 -4.21199 0
M  V30 6630 H 620.388 0.699823 -3.16045 0
M  V30 6631 H 619.295 -1.60725 -3.37814 0
M  V30 6632 H 620.628 -2.09685 -4.45301 0
M  V30 6633 N 622.28 1.30327 -0.886154 0
M  V30 6634 C 623.527 1.96097 -0.505192 0
M  V30 6635 C 623.855 1.69952 0.945868 0
M  V30 6636 O 623.11 0.997653 1.68361 0
M  V30 6637 C 623.409 3.49906 -0.728042 0
M  V30 6638 C 623.075 3.96103 -2.15437 0
M  V30 6639 C 621.737 4.08428 -2.5444 0
M  V30 6640 C 624.089 4.20177 -3.08384 0
M  V30 6641 C 621.417 4.42189 -3.85598 0
M  V30 6642 C 623.769 4.55407 -4.39075 0
M  V30 6643 C 622.433 4.65941 -4.7797 0
M  V30 6644 H 621.703 0.71757 -0.184863 0
M  V30 6645 H 624.35 1.55171 -1.12223 0
M  V30 6646 H 622.655 3.9179 -0.027978 0
M  V30 6647 H 624.352 3.98869 -0.412862 0
M  V30 6648 H 620.942 3.87017 -1.84162 0
M  V30 6649 H 625.126 4.10134 -2.7947 0
M  V30 6650 H 620.382 4.48544 -4.15473 0
M  V30 6651 H 624.556 4.72986 -5.11133 0
M  V30 6652 H 622.183 4.91856 -5.79639 0
M  V30 6653 N 623.758 0.647228 1.43697 0
M  V30 6654 C 624.708 -0.0702191 2.27892 0
M  V30 6655 C 625.692 -0.800601 1.39568 0
M  V30 6656 O 626.884 -0.684055 1.63247 0
M  V30 6657 C 624.013 -1.04008 3.27165 0
M  V30 6658 C 623.099 -0.308484 4.22977 0
M  V30 6659 N 623.49 0.671721 5.0132 0
M  V30 6660 C 621.788 -0.550751 4.42586 0
M  V30 6661 C 622.489 1.10543 5.711 0
M  V30 6662 N 621.465 0.440903 5.41809 0
M  V30 6663 H 625.267 0.682031 2.85877 0
M  V30 6664 H 622.781 0.474022 1.55328 0
M  V30 6665 H 624.778 -1.56881 3.86256 0
M  V30 6666 H 623.438 -1.79246 2.70742 0
M  V30 6667 H 624.449 1.0502 5.0714 0
M  V30 6668 H 621.126 -1.28476 3.97241 0
M  V30 6669 H 622.516 1.91614 6.43998 0
M  V30 6670 N 625.236 -1.5273 0.388769 0
M  V30 6671 C 626.184 -2.27975 -0.461527 0
M  V30 6672 C 627.178 -1.31854 -1.06352 0
M  V30 6673 O 628.384 -1.49394 -1.00406 0
M  V30 6674 H 624.759 -0.733088 -0.16759 0
M  V30 6675 H 626.73 -2.97765 0.194579 0
M  V30 6676 C 625.479 -3.09881 -1.577 0
M  V30 6677 H 624.802 -3.83701 -1.12309 0
M  V30 6678 H 626.242 -3.6567 -2.14619 0
M  V30 6679 C 624.701 -2.22159 -2.53272 0
M  V30 6680 O 625.231 -1.84802 -3.56667 0
M  V30 6681 N 623.437 -1.8633 -2.23001 0
M  V30 6682 H 622.984 -2.16909 -1.38954 0
M  V30 6683 H 622.942 -1.27927 -2.87197 0
M  V30 6684 N 626.714 -0.118576 -1.57153 0
M  V30 6685 C 627.96 0.540326 -1.95469 0
M  V30 6686 C 628.293 1.66356 -1.00196 0
M  V30 6687 O 627.568 1.94461 -0.039104 0
M  V30 6688 C 627.851 1.07342 -3.43729 0
M  V30 6689 C 627.704 -0.0463732 -4.49776 0
M  V30 6690 C 629.023 1.96442 -3.93826 0
M  V30 6691 H 626.142 0.19494 -0.710751 0
M  V30 6692 H 628.784 -0.19405 -1.89006 0
M  V30 6693 H 626.934 1.69925 -3.49368 0
M  V30 6694 H 628.606 -0.681648 -4.56236 0
M  V30 6695 H 626.849 -0.709574 -4.27957 0
M  V30 6696 H 627.52 0.367856 -5.50773 0
M  V30 6697 H 629.996 1.43731 -3.90488 0
M  V30 6698 H 628.872 2.3066 -4.98084 0
M  V30 6699 H 629.133 2.89077 -3.34495 0
M  V30 6700 N 628.193 1.56834 0.155195 0
M  V30 6701 C 629.421 1.87049 0.884326 0
M  V30 6702 C 629.836 0.705839 1.7511 0
M  V30 6703 O 629.193 -0.324641 1.79589 0
M  V30 6704 C 629.244 3.1644 1.74781 0
M  V30 6705 O 628.965 4.28417 0.915978 0
M  V30 6706 C 630.466 3.60113 2.58522 0
M  V30 6707 H 627.686 0.620196 0.25612 0
M  V30 6708 H 630.23 2.03946 0.150445 0
M  V30 6709 H 628.385 3.01321 2.43484 0
M  V30 6710 H 628.799 5.02353 1.50803 0
M  V30 6711 H 630.273 4.53508 3.14698 0
M  V30 6712 H 630.75 2.85005 3.34169 0
M  V30 6713 H 631.356 3.77898 1.95124 0
M  V30 6714 N 629.671 -0.424282 1.51781 0
M  V30 6715 C 630.918 -1.1726 1.65095 0
M  V30 6716 C 631.246 -1.90881 0.373477 0
M  V30 6717 O 630.501 -1.84835 -0.642997 0
M  V30 6718 C 630.8 -2.20418 2.81337 0
M  V30 6719 C 630.466 -1.63715 4.20129 0
M  V30 6720 C 629.128 -1.47975 4.57883 0
M  V30 6721 C 631.48 -1.22157 5.06682 0
M  V30 6722 C 628.808 -0.891703 5.79884 0
M  V30 6723 C 631.16 -0.647767 6.29275 0
M  V30 6724 C 629.824 -0.477371 6.65791 0
M  V30 6725 H 629.094 -0.429085 0.604125 0
M  V30 6726 H 631.741 -0.461852 1.85847 0
M  V30 6727 H 630.046 -2.97581 2.54859 0
M  V30 6728 H 631.743 -2.78163 2.88836 0
M  V30 6729 H 628.333 -1.76946 3.90369 0
M  V30 6730 H 632.517 -1.33133 4.7811 0
M  V30 6731 H 627.773 -0.747563 6.06813 0
M  V30 6732 H 631.947 -0.317291 6.95677 0
M  V30 6733 H 629.574 -0.0195936 7.60197 0
M  V30 6734 N 631.149 -1.42148 -0.680565 0
M  V30 6735 C 632.099 -1.41634 -1.78672 0
M  V30 6736 C 633.083 -0.288494 -1.58293 0
M  V30 6737 O 634.275 -0.530295 -1.68869 0
M  V30 6738 C 631.404 -1.31558 -3.17092 0
M  V30 6739 C 630.49 -2.49265 -3.43115 0
M  V30 6740 N 630.881 -3.74702 -3.39753 0
M  V30 6741 C 629.179 -2.43401 -3.73727 0
M  V30 6742 C 629.88 -4.52854 -3.651 0
M  V30 6743 N 628.856 -3.83181 -3.85582 0
M  V30 6744 H 632.658 -2.3652 -1.74458 0
M  V30 6745 H 630.172 -1.36415 -0.881171 0
M  V30 6746 H 632.169 -1.29272 -3.96351 0
M  V30 6747 H 630.829 -0.376696 -3.22508 0
M  V30 6748 H 631.84 -4.07378 -3.19787 0
M  V30 6749 H 628.517 -1.58062 -3.86423 0
M  V30 6750 H 629.907 -5.61827 -3.6851 0
M  V30 6751 N 632.627 0.916307 -1.28225 0
M  V30 6752 C 633.857 1.69654 -1.17902 0
M  V30 6753 C 634.265 1.87331 0.265268 0
M  V30 6754 O 633.608 1.39828 1.19137 0
M  V30 6755 C 633.67 3.11024 -1.80289 0
M  V30 6756 C 633.334 3.16643 -3.29525 0
M  V30 6757 C 634.331 2.98032 -4.25997 0
M  V30 6758 C 632.016 3.39238 -3.70436 0
M  V30 6759 C 634.01 3.01924 -5.61356 0
M  V30 6760 C 631.697 3.42762 -5.05922 0
M  V30 6761 C 632.695 3.24125 -6.01192 0
M  V30 6762 O 632.383 3.27406 -7.34208 0
M  V30 6763 H 632.115 0.537197 -0.41036 0
M  V30 6764 H 634.669 1.15547 -1.69817 0
M  V30 6765 H 632.899 3.66662 -1.22865 0
M  V30 6766 H 634.588 3.71063 -1.6452 0
M  V30 6767 H 635.354 2.80405 -3.95725 0
M  V30 6768 H 631.233 3.52791 -2.96749 0
M  V30 6769 H 634.777 2.87295 -6.35694 0
M  V30 6770 H 630.674 3.59916 -5.35846 0
M  V30 6771 H 631.442 3.43784 -7.42802 0
M  V30 6772 N 634.105 1.10431 1.1244 0
M  V30 6773 C 635.516 0.864439 1.65482 0
M  V30 6774 C 635.867 -0.60527 1.8663 0
M  V30 6775 O 634.992 -1.46492 1.59276 0
M  V30 6776 C 635.587 1.56267 3.0061 0
M  V30 6777 C 634.146 1.3695 3.50602 0
M  V30 6778 C 633.293 1.61209 2.25626 0
M  V30 6779 H 636.244 1.26203 0.962209 0
M  V30 6780 H 636.265 1.00166 3.67079 0
M  V30 6781 H 635.777 2.63231 2.85186 0
M  V30 6782 H 633.878 0.321481 3.71211 0
M  V30 6783 H 633.991 2.11143 4.30064 0
M  V30 6784 H 632.355 1.03482 2.32731 0
M  V30 6785 H 633.138 2.69425 2.12756 0
M  V30 6786 N 635.583 -1.29855 0.893053 0
M  V30 6787 C 636.808 -2.00512 0.530066 0
M  V30 6788 C 637.233 -1.66446 -0.876199 0
M  V30 6789 O 636.591 -0.885446 -1.58207 0
M  V30 6790 C 636.639 -3.53308 0.721505 0
M  V30 6791 O 635.743 -4.11764 -0.228994 0
M  V30 6792 H 635.084 -0.630617 0.207891 0
M  V30 6793 H 637.614 -1.6551 1.20282 0
M  V30 6794 H 637.624 -4.03206 0.623599 0
M  V30 6795 H 636.299 -3.77439 1.74678 0
M  V30 6796 H 634.876 -3.72805 -0.0841034 0
M  V30 6797 N 637.061 -0.65484 -1.43351 0
M  V30 6798 C 638.477 -0.32255 -1.56307 0
M  V30 6799 C 638.677 1.17324 -1.63821 0
M  V30 6800 O 637.733 1.95813 -1.59417 0
M  V30 6801 C 639.046 -1.03533 -2.82314 0
M  V30 6802 C 640.594 -1.01574 -2.9606 0
M  V30 6803 C 641.069 -1.70945 -4.24902 0
M  V30 6804 N 642.56 -1.67716 -4.3177 0
M  V30 6805 C 643.295 -2.18265 -5.30234 0
M  V30 6806 N 642.791 -2.7711 -6.34966 0
M  V30 6807 N 644.584 -2.08756 -5.21898 0
M  V30 6808 H 636.735 -1.62549 -1.36717 0
M  V30 6809 H 638.998 -0.683676 -0.656727 0
M  V30 6810 H 638.704 -2.09045 -2.8283 0
M  V30 6811 H 638.578 -0.587913 -3.7259 0
M  V30 6812 H 640.965 0.0309834 -2.95084 0
M  V30 6813 H 641.046 -1.50186 -2.07069 0
M  V30 6814 H 640.69 -2.75574 -4.26639 0
M  V30 6815 H 640.62 -1.19797 -5.12793 0
M  V30 6816 H 643.111 -1.24777 -3.56706 0
M  V30 6817 H 643.424 -3.13353 -7.06421 0
M  V30 6818 H 641.769 -2.81171 -6.35585 0
M  V30 6819 H 644.96 -1.62488 -4.38994 0
M  V30 6820 H 645.133 -2.48459 -5.98475 0
M  V30 6821 N 638.539 1.52521 -0.396863 0
M  V30 6822 C 639.95 1.86547 0.0754868 0
M  V30 6823 C 640.301 1.31621 1.45501 0
M  V30 6824 O 639.426 0.650563 2.0639 0
M  V30 6825 C 640.021 3.38495 0.143754 0
M  V30 6826 C 638.58 3.72205 0.560413 0
M  V30 6827 C 637.727 2.75954 -0.272856 0
M  V30 6828 H 640.678 1.46323 -0.614434 0
M  V30 6829 H 640.699 3.68153 0.961425 0
M  V30 6830 H 640.211 3.78442 -0.860415 0
M  V30 6831 H 638.312 3.3783 1.57167 0
M  V30 6832 H 638.425 4.78074 0.313314 0
M  V30 6833 H 636.789 2.53339 0.263 0
M  V30 6834 H 637.572 3.1874 -1.27515 0
M  V30 6835 N 640.017 0.126909 1.57088 0
M  V30 6836 C 640.927 -0.833867 2.1928 0
M  V30 6837 C 641.943 -1.2868 1.17122 0
M  V30 6838 O 643.119 -1.34815 1.49622 0
M  V30 6839 C 640.184 -2.0632 2.78627 0
M  V30 6840 C 639.245 -1.66143 3.95847 0
M  V30 6841 C 638.478 -2.83217 4.52354 0
M  V30 6842 O 638.701 -3.98868 4.0775 0
M  V30 6843 O 637.635 -2.59846 5.42922 0
M  V30 6844 H 641.461 -0.334564 3.01852 0
M  V30 6845 H 639.046 -0.0991091 1.49071 0
M  V30 6846 H 640.928 -2.78304 3.16425 0
M  V30 6847 H 639.603 -2.55242 1.99082 0
M  V30 6848 H 638.51 -0.912435 3.62802 0
M  V30 6849 H 639.843 -1.21957 4.76852 0
M  V30 6850 N 641.495 -1.56914 -0.146875 0
M  V30 6851 C 642.741 -1.83628 -0.860741 0
M  V30 6852 C 643.074 -0.708528 -1.80813 0
M  V30 6853 O 642.349 0.287838 -1.92358 0
M  V30 6854 C 642.632 -3.20836 -1.63511 0
M  V30 6855 C 642.485 -4.44174 -0.709199 0
M  V30 6856 C 643.804 -3.55268 -2.59756 0
M  V30 6857 H 640.923 -0.667949 -0.311468 0
M  V30 6858 H 643.565 -1.89582 -0.125936 0
M  V30 6859 H 641.715 -3.15891 -2.26153 0
M  V30 6860 H 643.387 -4.61205 -0.0937781 0
M  V30 6861 H 641.63 -4.33796 -0.0187856 0
M  V30 6862 H 642.301 -5.36785 -1.28707 0
M  V30 6863 H 644.777 -3.60824 -2.07232 0
M  V30 6864 H 643.653 -4.52303 -3.10987 0
M  V30 6865 H 643.914 -2.81231 -3.41118 0
M  V30 6866 N 642.974 0.416227 -1.52004 0
M  V30 6867 C 643.921 1.50666 -1.74838 0
M  V30 6868 C 644.891 1.55245 -0.590599 0
M  V30 6869 O 646.076 1.71928 -0.827374 0
M  V30 6870 C 643.216 2.88185 -1.89851 0
M  V30 6871 C 642.329 2.92971 -3.17478 0
M  V30 6872 C 641.464 4.21745 -3.22962 0
M  V30 6873 C 640.503 4.20478 -4.4482 0
M  V30 6874 N 639.64 5.40811 -4.47736 0
M  V30 6875 H 644.48 1.30498 -2.67907 0
M  V30 6876 H 642.017 0.633568 -1.32757 0
M  V30 6877 H 643.975 3.68007 -1.96537 0
M  V30 6878 H 642.605 3.06865 -1.00169 0
M  V30 6879 H 641.657 2.05684 -3.19997 0
M  V30 6880 H 642.969 2.87899 -4.07328 0
M  V30 6881 H 642.123 5.09954 -3.28682 0
M  V30 6882 H 640.862 4.29503 -2.31038 0
M  V30 6883 H 639.867 3.30659 -4.39254 0
M  V30 6884 H 641.092 4.14366 -5.38031 0
M  V30 6885 H 639.038 5.4925 -3.58692 0
M  V30 6886 H 638.955 5.37705 -5.31422 0
M  V30 6887 H 640.223 6.30993 -4.57676 0
M  V30 6888 N 644.452 1.42507 0.673017 0
M  V30 6889 C 645.701 1.42364 1.42883 0
M  V30 6890 C 646.014 0.0441598 1.9555 0
M  V30 6891 O 647.22 -0.0798679 2.71382 0
M  V30 6892 C 645.676 2.5043 2.58482 0
M  V30 6893 C 645.284 3.94392 2.12506 0
M  V30 6894 C 647.028 2.59455 3.35981 0
M  V30 6895 C 644.935 4.93964 3.25198 0
M  V30 6896 H 643.865 0.52951 0.536782 0
M  V30 6897 H 646.516 1.68422 0.728448 0
M  V30 6898 H 644.898 2.1754 3.30896 0
M  V30 6899 H 646.072 4.36645 1.47233 0
M  V30 6900 H 644.387 3.89233 1.4794 0
M  V30 6901 H 646.984 3.31025 4.19912 0
M  V30 6902 H 647.327 1.63869 3.82691 0
M  V30 6903 H 647.86 2.91549 2.70637 0
M  V30 6904 H 644.599 5.91034 2.83477 0
M  V30 6905 H 644.119 4.56341 3.89247 0
M  V30 6906 H 645.798 5.15763 3.90637 0
M  V30 6907 N 645.93 -0.909495 1.28709 0
M  V30 6908 C 646.86 -2.0291 1.15542 0
M  V30 6909 C 647.841 -1.7002 0.0521017 0
M  V30 6910 O 649.026 -1.92835 0.229849 0
M  V30 6911 C 646.156 -3.37458 0.820935 0
M  V30 6912 C 645.11 -3.84524 1.87949 0
M  V30 6913 C 644.436 -5.16086 1.39854 0
M  V30 6914 C 645.736 -4.05918 3.28676 0
M  V30 6915 H 647.43 -2.14183 2.09203 0
M  V30 6916 H 644.976 -1.02913 1.00722 0
M  V30 6917 H 646.929 -4.1528 0.715571 0
M  V30 6918 H 645.653 -3.26249 -0.151374 0
M  V30 6919 H 644.312 -3.08911 1.97408 0
M  V30 6920 H 643.96 -5.01284 0.41518 0
M  V30 6921 H 643.66 -5.48547 2.1064 0
M  V30 6922 H 645.184 -5.96459 1.30649 0
M  V30 6923 H 646.598 -4.74252 3.22115 0
M  V30 6924 H 644.995 -4.49717 3.97334 0
M  V30 6925 H 646.065 -3.10583 3.72379 0
M  V30 6926 N 647.408 -1.11026 -1.11852 0
M  V30 6927 C 648.356 -0.759643 -2.19846 0
M  V30 6928 C 649.35 0.246964 -1.6759 0
M  V30 6929 O 650.556 0.106693 -1.79684 0
M  V30 6930 H 646.931 -0.22775 -0.716683 0
M  V30 6931 H 648.902 -1.6792 -2.46669 0
M  V30 6932 C 647.651 -0.214364 -3.47039 0
M  V30 6933 H 646.974 -0.980175 -3.87599 0
M  V30 6934 H 648.414 -0.00717047 -4.23999 0
M  V30 6935 C 646.873 1.05436 -3.19976 0
M  V30 6936 O 647.403 2.13483 -3.40276 0
M  V30 6937 N 645.609 0.975436 -2.7374 0
M  V30 6938 H 645.156 0.0960853 -2.57421 0
M  V30 6939 H 645.114 1.82501 -2.5601 0
M  V30 6940 N 648.886 1.2938 -0.899927 0
M  V30 6941 C 650.163 1.9046 -0.445443 0
M  V30 6942 C 650.543 1.81683 1.07492 0
M  V30 6943 O 649.891 1.24371 1.91688 0
M  V30 6944 C 650.101 3.35529 -0.960279 0
M  V30 6945 C 651.449 4.12556 -1.00412 0
M  V30 6946 O 652.473 3.44434 -0.907965 0
M  V30 6947 O 651.332 5.34294 -1.14857 0
M  V30 6948 H 648.426 0.815253 -0.138893 0
M  V30 6949 H 650.972 1.37844 -0.989808 0
M  V30 6950 H 649.744 3.36074 -2.00425 0
M  V30 6951 H 649.367 3.95624 -0.395939 0
M  V30 6952 N 650.364 0.662433 1.43002 0
M  V30 6953 C 651.294 -0.00979809 2.33498 0
M  V30 6954 C 652.275 -0.802329 1.49989 0
M  V30 6955 O 653.46 -0.761964 1.78627 0
M  V30 6956 C 650.59 -0.970446 3.33466 0
M  V30 6957 C 649.544 -0.287383 4.27034 0
M  V30 6958 C 648.87 -1.36012 5.17112 0
M  V30 6959 C 650.17 0.82595 5.15728 0
M  V30 6960 H 651.864 0.745959 2.89958 0
M  V30 6961 H 649.41 0.360172 1.39423 0
M  V30 6962 H 651.363 -1.44971 3.95679 0
M  V30 6963 H 650.087 -1.75748 2.75282 0
M  V30 6964 H 648.746 0.17152 3.66199 0
M  V30 6965 H 648.394 -2.13882 4.55262 0
M  V30 6966 H 648.094 -0.908276 5.80538 0
M  V30 6967 H 649.618 -1.84056 5.82199 0
M  V30 6968 H 651.032 0.42845 5.71697 0
M  V30 6969 H 649.429 1.20282 5.87922 0
M  V30 6970 H 650.499 1.68003 4.54866 0
M  V30 6971 N 651.842 -1.52309 0.404946 0
M  V30 6972 C 652.79 -2.28452 -0.437321 0
M  V30 6973 C 653.784 -1.32975 -1.04948 0
M  V30 6974 O 654.99 -1.50451 -0.988159 0
M  V30 6975 H 651.365 -0.734824 -0.159805 0
M  V30 6976 H 653.336 -2.97542 0.22615 0
M  V30 6977 C 652.085 -3.11536 -1.54404 0
M  V30 6978 H 651.408 -3.84871 -1.08233 0
M  V30 6979 H 652.848 -3.67926 -2.10729 0
M  V30 6980 C 651.307 -2.24833 -2.50902 0
M  V30 6981 O 651.837 -1.88574 -3.54687 0
M  V30 6982 N 650.043 -1.88685 -2.21012 0
M  V30 6983 H 649.59 -2.18371 -1.36646 0
M  V30 6984 H 649.548 -1.30966 -2.85824 0
M  V30 6985 N 653.32 -0.135238 -1.57019 0
M  V30 6986 C 654.253 0.846618 -2.11914 0
M  V30 6987 C 655.231 1.25019 -1.03966 0
M  V30 6988 O 656.415 1.34838 -1.31723 0
M  V30 6989 C 653.542 2.1352 -2.6292 0
M  V30 6990 C 652.588 1.87846 -3.82905 0
M  V30 6991 S 653.421 1.08005 -5.24495 0
M  V30 6992 C 654.577 2.38008 -5.78881 0
M  V30 6993 H 654.81 0.379752 -2.94865 0
M  V30 6994 H 652.343 0.0788387 -1.54199 0
M  V30 6995 H 654.301 2.87551 -2.92958 0
M  V30 6996 H 652.962 2.57323 -1.80121 0
M  V30 6997 H 652.155 2.83365 -4.16797 0
M  V30 6998 H 651.757 1.21929 -3.53567 0
M  V30 6999 H 654.049 3.33742 -5.89595 0
M  V30 7000 H 654.992 2.08638 -6.76665 0
M  V30 7001 H 655.4 2.48119 -5.07048 0
M  V30 7002 N 654.798 1.5699 0.138552 0
M  V30 7003 C 656.044 1.84081 0.85099 0
M  V30 7004 C 656.377 0.718107 1.80435 0
M  V30 7005 O 655.652 -0.277633 1.92508 0
M  V30 7006 C 655.935 3.21699 1.61808 0
M  V30 7007 C 655.788 4.44544 0.685633 0
M  V30 7008 C 657.107 3.5664 2.57868 0
M  V30 7009 H 654.226 0.669592 0.307922 0
M  V30 7010 H 656.868 1.89646 0.11588 0
M  V30 7011 H 655.018 3.17086 2.24474 0
M  V30 7012 H 656.69 4.61248 0.0693179 0
M  V30 7013 H 654.933 4.338 -0.00421993 0
M  V30 7014 H 655.604 5.3746 1.25858 0
M  V30 7015 H 658.08 3.61918 2.05316 0
M  V30 7016 H 656.956 4.53946 3.08584 0
M  V30 7017 H 657.217 2.83036 3.39622 0
M  V30 7018 N 656.276 -0.40816 1.52223 0
M  V30 7019 C 657.525 -1.15212 1.65557 0
M  V30 7020 C 657.838 -1.9163 0.392096 0
M  V30 7021 O 659.044 -2.68458 0.405256 0
M  V30 7022 C 657.5 -2.09691 2.92502 0
M  V30 7023 C 657.108 -1.38785 4.25961 0
M  V30 7024 C 658.852 -2.8434 3.152 0
M  V30 7025 C 656.759 -2.31919 5.44029 0
M  V30 7026 H 655.689 -0.433776 0.616729 0
M  V30 7027 H 658.34 -0.4165 1.78711 0
M  V30 7028 H 656.722 -2.8681 2.7305 0
M  V30 7029 H 657.896 -0.670248 4.55899 0
M  V30 7030 H 656.211 -0.761741 4.09373 0
M  V30 7031 H 658.808 -3.54166 4.00587 0
M  V30 7032 H 659.151 -3.47344 2.29473 0
M  V30 7033 H 659.684 -2.14321 3.35129 0
M  V30 7034 H 656.423 -1.7356 6.32105 0
M  V30 7035 H 655.943 -3.0165 5.18428 0
M  V30 7036 H 657.622 -2.92424 5.77146 0
M  V30 7037 N 657.755 -1.42862 -0.66545 0
M  V30 7038 C 658.702 -1.4707 -1.77874 0
M  V30 7039 C 659.672 -0.321654 -1.62956 0
M  V30 7040 O 660.857 -0.52707 -1.83376 0
M  V30 7041 C 657.997 -1.38788 -3.15962 0
M  V30 7042 C 657.11 -2.63801 -3.42101 0
M  V30 7043 C 656.245 -2.47594 -4.69969 0
M  V30 7044 C 655.284 -3.67936 -4.89172 0
M  V30 7045 N 654.421 -3.50614 -6.08288 0
M  V30 7046 H 659.261 -2.42204 -1.73613 0
M  V30 7047 H 656.798 -1.20239 -0.847401 0
M  V30 7048 H 658.756 -1.31982 -3.95773 0
M  V30 7049 H 657.386 -0.472431 -3.19324 0
M  V30 7050 H 656.438 -2.80935 -2.56475 0
M  V30 7051 H 657.75 -3.53228 -3.52181 0
M  V30 7052 H 656.904 -2.38427 -5.57886 0
M  V30 7053 H 655.643 -1.55672 -4.62188 0
M  V30 7054 H 654.648 -3.77525 -3.99694 0
M  V30 7055 H 655.873 -4.60851 -4.98792 0
M  V30 7056 H 653.819 -2.61417 -6.01662 0
M  V30 7057 H 653.736 -4.33634 -6.19272 0
M  V30 7058 H 655.004 -3.45276 -6.98859 0
M  V30 7059 N 659.233 0.902656 -1.29189 0
M  V30 7060 C 660.644 1.46809 -1.15343 0
M  V30 7061 C 660.995 1.94568 0.252517 0
M  V30 7062 O 660.12 1.83454 1.14777 0
M  V30 7063 C 660.715 2.66829 -2.08776 0
M  V30 7064 C 659.274 3.19518 -1.98961 0
M  V30 7065 C 658.421 1.92212 -1.99874 0
M  V30 7066 H 661.372 0.714282 -1.41717 0
M  V30 7067 H 661.393 3.42465 -1.65826 0
M  V30 7068 H 660.905 2.32039 -3.11094 0
M  V30 7069 H 659.006 3.59008 -0.99721 0
M  V30 7070 H 659.119 3.84016 -2.86477 0
M  V30 7071 H 657.483 2.0979 -1.44431 0
M  V30 7072 H 658.266 1.59702 -3.03891 0
M  V30 7073 N 660.711 1.11618 1.11262 0
M  V30 7074 C 661.959 0.864469 1.82678 0
M  V30 7075 C 662.28 -0.611564 1.85162 0
M  V30 7076 O 661.55 -1.44429 1.32352 0
M  V30 7077 H 660.13 0.316821 0.676486 0
M  V30 7078 H 662.792 1.40894 1.34666 0
M  V30 7079 H 661.888 1.23832 2.86482 0
M  V30 7080 N 662.189 -1.289 0.906776 0
M  V30 7081 C 663.099 -2.31256 0.394707 0
M  V30 7082 C 664.115 -1.66231 -0.514121 0
M  V30 7083 O 665.291 -1.97347 -0.401994 0
M  V30 7084 C 662.356 -3.44792 -0.363191 0
M  V30 7085 C 661.417 -4.25391 0.578012 0
M  V30 7086 C 660.65 -5.33506 -0.143811 0
M  V30 7087 O 660.873 -5.53786 -1.36665 0
M  V30 7088 O 659.807 -5.99673 0.5173 0
M  V30 7089 H 663.633 -2.77051 1.24405 0
M  V30 7090 H 661.218 -1.33466 0.671346 0
M  V30 7091 H 663.1 -4.139 -0.791503 0
M  V30 7092 H 661.775 -3.01093 -1.18848 0
M  V30 7093 H 660.682 -3.58899 1.05558 0
M  V30 7094 H 662.015 -4.72752 1.36992 0
M  V30 7095 N 663.667 -0.670007 -1.42649 0
M  V30 7096 C 664.6 0.0613623 -2.28117 0
M  V30 7097 C 665.578 0.813414 -1.40792 0
M  V30 7098 O 666.762 0.809529 -1.70232 0
M  V30 7099 C 663.889 1.09399 -3.20546 0
M  V30 7100 C 662.935 0.438064 -4.24244 0
M  V30 7101 S 663.768 -0.800808 -5.29478 0
M  V30 7102 C 664.924 0.23086 -6.25474 0
M  V30 7103 H 665.157 -0.663606 -2.89799 0
M  V30 7104 H 662.69 -0.45939 -1.47407 0
M  V30 7105 H 664.648 1.68469 -3.74337 0
M  V30 7106 H 663.309 1.79137 -2.58009 0
M  V30 7107 H 662.502 1.21707 -4.89084 0
M  V30 7108 H 662.104 -0.0789346 -3.73917 0
M  V30 7109 H 664.396 1.09204 -6.68641 0
M  V30 7110 H 665.339 -0.382945 -7.07064 0
M  V30 7111 H 665.747 0.574191 -5.61572 0
M  V30 7112 N 665.145 1.52092 -0.413018 0
M  V30 7113 C 666.373 2.06274 0.160881 0
M  V30 7114 C 666.788 1.28273 1.38533 0
M  V30 7115 O 666.145 0.33563 1.79387 0
M  V30 7116 C 666.196 3.57921 0.507443 0
M  V30 7117 O 665.917 4.32971 -0.668388 0
M  V30 7118 C 667.418 4.28533 1.13465 0
M  V30 7119 H 664.638 0.67074 0.0186759 0
M  V30 7120 H 667.182 1.95951 -0.585092 0
M  V30 7121 H 665.337 3.68238 1.20331 0
M  V30 7122 H 665.751 5.23135 -0.378169 0
M  V30 7123 H 667.225 5.35804 1.32732 0
M  V30 7124 H 667.702 3.85258 2.10886 0
M  V30 7125 H 668.308 4.22595 0.478876 0
M  V30 7126 N 666.623 0.143563 1.56945 0
M  V30 7127 C 667.586 -0.783295 2.154 0
M  V30 7128 C 668.586 -1.17763 1.09492 0
M  V30 7129 O 669.776 -1.09912 1.35148 0
M  V30 7130 C 666.908 -2.06248 2.7143 0
M  V30 7131 H 668.101 -0.274863 2.98638 0
M  V30 7132 H 665.654 -0.105859 1.55941 0
M  V30 7133 H 666.389 -2.61466 1.91849 0
M  V30 7134 H 666.174 -1.78897 3.4891 0
M  V30 7135 H 667.664 -2.72453 3.16479 0
M  V30 7136 N 668.101 -1.57061 -0.130224 0
M  V30 7137 C 669.031 -2.02552 -1.16168 0
M  V30 7138 C 670.012 -0.907971 -1.4384 0
M  V30 7139 O 671.197 -1.17693 -1.54473 0
M  V30 7140 C 668.327 -2.42035 -2.49071 0
M  V30 7141 C 667.281 -3.5713 -2.35886 0
M  V30 7142 C 666.607 -3.82478 -3.7365 0
M  V30 7143 C 667.907 -4.89236 -1.8288 0
M  V30 7144 H 669.601 -2.8897 -0.783359 0
M  V30 7145 H 667.147 -1.39021 -0.375376 0
M  V30 7146 H 669.1 -2.72462 -3.21469 0
M  V30 7147 H 667.824 -1.52573 -2.88771 0
M  V30 7148 H 666.483 -3.26895 -1.65938 0
M  V30 7149 H 666.131 -2.9024 -4.10816 0
M  V30 7150 H 665.831 -4.59944 -3.65685 0
M  V30 7151 H 667.355 -4.15347 -4.47571 0
M  V30 7152 H 668.769 -5.18272 -2.45085 0
M  V30 7153 H 667.166 -5.70624 -1.85763 0
M  V30 7154 H 668.236 -4.78494 -0.785571 0
M  V30 7155 N 669.579 0.400081 -1.52437 0
M  V30 7156 C 670.825 1.14788 -1.67187 0
M  V30 7157 C 671.158 1.89928 -0.405074 0
M  V30 7158 O 670.433 1.85118 0.596804 0
M  V30 7159 C 670.716 2.13507 -2.89977 0
M  V30 7160 C 670.569 1.42204 -4.2673 0
M  V30 7161 C 671.888 3.14069 -3.083 0
M  V30 7162 H 669.007 0.415939 -0.608411 0
M  V30 7163 H 671.649 0.432542 -1.85011 0
M  V30 7164 H 669.799 2.7451 -2.74912 0
M  V30 7165 H 671.471 0.842503 -4.53541 0
M  V30 7166 H 669.714 0.723939 -4.27717 0
M  V30 7167 H 670.385 2.14281 -5.08712 0
M  V30 7168 H 672.861 2.63148 -3.22323 0
M  V30 7169 H 671.737 3.80398 -3.95713 0
M  V30 7170 H 671.998 3.82309 -2.22018 0
M  V30 7171 N 671.057 1.43213 0.657864 0
M  V30 7172 C 672.305 1.44298 1.41501 0
M  V30 7173 C 672.626 0.0666478 1.94886 0
M  V30 7174 O 671.896 -0.897345 1.74139 0
M  V30 7175 H 670.476 0.531257 0.525143 0
M  V30 7176 H 673.138 1.78777 0.776195 0
M  V30 7177 H 672.234 2.1528 2.25966 0
M  V30 7178 N 672.536 -0.895792 1.29666 0
M  V30 7179 C 673.947 -1.46195 1.1612 0
M  V30 7180 C 674.298 -1.94699 -0.242195 0
M  V30 7181 O 673.423 -1.8406 -1.13802 0
M  V30 7182 C 674.018 -2.65718 2.10189 0
M  V30 7183 C 672.577 -3.18458 2.00653 0
M  V30 7184 C 671.724 -1.91149 2.00891 0
M  V30 7185 H 674.675 -0.706756 1.42094 0
M  V30 7186 H 674.696 -3.4158 1.6764 0
M  V30 7187 H 674.208 -2.30386 3.12321 0
M  V30 7188 H 672.309 -3.58474 1.01623 0
M  V30 7189 H 672.422 -3.82491 2.88509 0
M  V30 7190 H 670.786 -2.09021 1.45542 0
M  V30 7191 H 671.569 -1.58089 3.04734 0
M  V30 7192 N 674.014 -1.12206 -1.10668 0
M  V30 7193 C 675.239 -0.898938 -1.86906 0
M  V30 7194 C 675.664 0.546346 -1.79991 0
M  V30 7195 O 675.022 1.38655 -1.1681 0
M  V30 7196 C 675.07 -1.37529 -3.33344 0
M  V30 7197 O 674.174 -0.55218 -4.08687 0
M  V30 7198 H 673.515 -0.323163 -0.580053 0
M  V30 7199 H 676.045 -1.49355 -1.39837 0
M  V30 7200 H 676.055 -1.3733 -3.84193 0
M  V30 7201 H 674.73 -2.42767 -3.37693 0
M  V30 7202 H 673.307 -0.620947 -3.67694 0
M  V30 7203 N 675.492 1.28418 -0.913599 0
M  V30 7204 C 676.74 1.94596 -0.545594 0
M  V30 7205 C 677.061 1.7227 0.913668 0
M  V30 7206 O 676.331 1.06233 1.64595 0
M  V30 7207 H 674.911 0.720065 -0.198783 0
M  V30 7208 H 677.573 1.56404 -1.16292 0
M  V30 7209 H 676.669 3.03202 -0.739911 0
M  V30 7210 N 676.97 0.677563 1.42291 0
M  V30 7211 C 677.933 0.0101085 2.29198 0
M  V30 7212 C 678.933 -0.726219 1.43467 0
M  V30 7213 O 680.123 -0.563807 1.64824 0
M  V30 7214 C 677.255 -0.996316 3.26016 0
M  V30 7215 H 678.448 0.775071 2.89711 0
M  V30 7216 H 676.001 0.440065 1.49977 0
M  V30 7217 H 676.736 -1.78967 2.70446 0
M  V30 7218 H 676.521 -0.471687 3.89253 0
M  V30 7219 H 678.011 -1.46167 3.91184 0
M  V30 7220 N 678.448 -1.51871 0.421078 0
M  V30 7221 C 679.696 -2.01539 -0.150492 0
M  V30 7222 C 680.017 -1.30803 -1.44623 0
M  V30 7223 O 679.287 -0.437568 -1.90951 0
M  V30 7224 H 677.867 -0.744698 -0.0586041 0
M  V30 7225 H 680.529 -1.8668 0.560059 0
M  V30 7226 H 679.625 -3.10264 -0.338068 0
M  V30 7227 N 679.926 -0.151884 -1.56866 0
M  V30 7228 C 680.873 0.785936 -2.17006 0
M  V30 7229 C 681.843 1.2407 -1.10435 0
M  V30 7230 O 683.028 1.31235 -1.38499 0
M  V30 7231 C 680.168 2.01771 -2.79969 0
M  V30 7232 C 679.281 1.6083 -4.00946 0
M  V30 7233 C 678.416 2.79224 -4.51893 0
M  V30 7234 C 677.455 2.3468 -5.65324 0
M  V30 7235 N 676.592 3.461 -6.10867 0
M  V30 7236 H 681.432 0.266286 -2.96808 0
M  V30 7237 H 678.969 0.11972 -1.46612 0
M  V30 7238 H 680.927 2.73989 -3.14621 0
M  V30 7239 H 679.557 2.51139 -2.02803 0
M  V30 7240 H 678.609 0.783592 -3.72242 0
M  V30 7241 H 679.921 1.24119 -4.83111 0
M  V30 7242 H 679.075 3.59625 -4.88625 0
M  V30 7243 H 677.814 3.19183 -3.68746 0
M  V30 7244 H 676.819 1.52721 -5.28163 0
M  V30 7245 H 678.044 1.95801 -6.5026 0
M  V30 7246 H 675.99 3.85671 -5.30654 0
M  V30 7247 H 675.907 3.1342 -6.87971 0
M  V30 7248 H 677.175 4.26844 -6.52246 0
M  V30 7249 N 681.404 1.57128 0.121893 0
M  V30 7250 C 682.629 1.89254 0.848385 0
M  V30 7251 C 683.054 0.743527 1.72781 0
M  V30 7252 O 682.412 -0.306056 1.78698 0
M  V30 7253 C 682.46 3.20113 1.66012 0
M  V30 7254 O 681.564 3.05815 2.76679 0
M  V30 7255 H 680.905 0.621103 0.234793 0
M  V30 7256 H 683.435 2.0433 0.10516 0
M  V30 7257 H 683.445 3.52761 2.04996 0
M  V30 7258 H 682.12 4.03336 1.01452 0
M  V30 7259 H 680.697 2.84627 2.40918 0
M  V30 7260 N 682.882 -0.391992 1.52647 0
M  V30 7261 C 684.11 -1.1586 1.71418 0
M  V30 7262 C 684.525 -1.8381 0.431216 0
M  V30 7263 O 683.882 -1.7256 -0.594085 0
M  V30 7264 C 683.933 -2.20888 2.86165 0
M  V30 7265 O 683.654 -1.5571 4.09495 0
M  V30 7266 C 685.155 -3.103 3.1659 0
M  V30 7267 H 682.375 -0.347494 0.574011 0
M  V30 7268 H 684.919 -0.458972 1.99283 0
M  V30 7269 H 683.074 -2.86492 2.6077 0
M  V30 7270 H 683.488 -2.25474 4.73563 0
M  V30 7271 H 684.962 -3.8003 4.00351 0
M  V30 7272 H 685.439 -3.73639 2.30848 0
M  V30 7273 H 686.045 -2.50345 3.43813 0
M  V30 7274 N 684.36 -1.4356 -0.65026 0
M  V30 7275 C 685.323 -1.48615 -1.74489 0
M  V30 7276 C 686.323 -0.370483 -1.56474 0
M  V30 7277 O 687.513 -0.632351 -1.62317 0
M  V30 7278 C 684.645 -1.34161 -3.13391 0
M  V30 7279 H 685.838 -2.46103 -1.71387 0
M  V30 7280 H 683.391 -1.30369 -0.862186 0
M  V30 7281 H 684.126 -0.376918 -3.22102 0
M  V30 7282 H 683.911 -2.1504 -3.27872 0
M  V30 7283 H 685.401 -1.40637 -3.93206 0
M  V30 7284 N 685.838 0.888903 -1.30139 0
M  V30 7285 C 686.768 2.01046 -1.18755 0
M  V30 7286 C 687.749 1.69916 -0.0791438 0
M  V30 7287 O 688.934 1.92445 -0.260498 0
M  V30 7288 C 686.064 3.36109 -0.874518 0
M  V30 7289 C 685.018 3.81486 -1.94043 0
M  V30 7290 C 684.344 5.13796 -1.48047 0
M  V30 7291 C 685.644 4.00637 -3.35093 0
M  V30 7292 H 687.338 2.10828 -2.12584 0
M  V30 7293 H 684.884 1.01298 -1.02346 0
M  V30 7294 H 686.837 4.14089 -0.781548 0
M  V30 7295 H 685.561 3.26449 0.0994519 0
M  V30 7296 H 684.22 3.05731 -2.02297 0
M  V30 7297 H 683.868 5.0056 -0.494878 0
M  V30 7298 H 683.568 5.45127 -2.19341 0
M  V30 7299 H 685.092 5.94305 -1.40121 0
M  V30 7300 H 686.506 4.69067 -3.2962 0
M  V30 7301 H 684.903 4.43339 -4.04438 0
M  V30 7302 H 685.973 3.0462 -3.77273 0
M  V30 7303 N 687.317 1.12792 1.10072 0
M  V30 7304 C 688.249 0.757003 2.16338 0
M  V30 7305 C 689.262 -0.218144 1.61332 0
M  V30 7306 O 690.451 0.0010727 1.785 0
M  V30 7307 C 687.551 0.100303 3.38752 0
M  V30 7308 C 686.724 1.10586 4.2319 0
M  V30 7309 C 685.783 0.47609 5.24042 0
M  V30 7310 O 684.809 1.13418 5.57786 0
M  V30 7311 N 686.011 -0.754823 5.75572 0
M  V30 7312 H 688.776 1.6714 2.48766 0
M  V30 7313 H 686.337 1.02003 1.25726 0
M  V30 7314 H 688.329 -0.333092 4.03327 0
M  V30 7315 H 686.899 -0.716915 3.04268 0
M  V30 7316 H 686.119 1.71677 3.54853 0
M  V30 7317 H 687.407 1.78571 4.76435 0
M  V30 7318 H 686.805 -1.30838 5.50362 0
M  V30 7319 H 685.362 -1.13098 6.41913 0
M  V30 7320 N 688.795 -1.27931 0.920396 0
M  V30 7321 C 689.725 -2.29487 0.431024 0
M  V30 7322 C 690.706 -1.62435 -0.504861 0
M  V30 7323 O 691.891 -1.89797 -0.411176 0
M  V30 7324 C 689.021 -3.45788 -0.323709 0
M  V30 7325 C 687.975 -4.24784 0.523658 0
M  V30 7326 C 687.301 -5.33488 -0.359809 0
M  V30 7327 C 688.601 -4.90874 1.78437 0
M  V30 7328 H 690.295 -2.70671 1.27975 0
M  V30 7329 H 687.841 -1.30121 0.616813 0
M  V30 7330 H 689.794 -4.15927 -0.676952 0
M  V30 7331 H 688.518 -3.03502 -1.2064 0
M  V30 7332 H 687.177 -3.56382 0.85951 0
M  V30 7333 H 686.825 -4.87445 -1.24124 0
M  V30 7334 H 686.525 -5.87247 0.203605 0
M  V30 7335 H 688.049 -6.06472 -0.708787 0
M  V30 7336 H 689.463 -5.53339 1.49963 0
M  V30 7337 H 687.86 -5.54659 2.29071 0
M  V30 7338 H 688.93 -4.14988 2.50824 0
M  V30 7339 N 690.273 -0.685099 -1.4193 0
M  V30 7340 C 691.522 -0.208816 -2.00616 0
M  V30 7341 C 691.835 1.19506 -1.54847 0
M  V30 7342 O 693.041 1.76826 -2.06021 0
M  V30 7343 C 691.497 -0.322446 -3.58453 0
M  V30 7344 C 691.105 -1.73102 -4.13206 0
M  V30 7345 C 692.849 0.0945979 -4.24395 0
M  V30 7346 C 690.756 -1.79687 -5.63442 0
M  V30 7347 H 689.686 -0.0743092 -0.750329 0
M  V30 7348 H 692.337 -0.851778 -1.62533 0
M  V30 7349 H 690.719 0.388588 -3.94089 0
M  V30 7350 H 691.893 -2.46997 -3.8901 0
M  V30 7351 H 690.208 -2.09682 -3.59753 0
M  V30 7352 H 692.805 0.0656937 -5.3466 0
M  V30 7353 H 693.148 1.1316 -4.00625 0
M  V30 7354 H 693.681 -0.56579 -3.93756 0
M  V30 7355 H 690.42 -2.81404 -5.92024 0
M  V30 7356 H 689.94 -1.10162 -5.89597 0
M  V30 7357 H 691.619 -1.55498 -6.28036 0
M  V30 7358 N 691.751 1.51645 -0.429126 0
M  V30 7359 C 692.683 2.25279 0.422124 0
M  V30 7360 C 693.696 1.28986 0.993299 0
M  V30 7361 O 694.885 1.54797 0.888836 0
M  V30 7362 C 691.985 2.98666 1.60162 0
M  V30 7363 C 691.158 4.2199 1.15078 0
M  V30 7364 C 690.217 4.78028 2.19946 0
M  V30 7365 O 689.243 5.40084 1.79716 0
M  V30 7366 N 690.445 4.61342 3.5234 0
M  V30 7367 H 693.21 2.98971 -0.208931 0
M  V30 7368 H 690.771 1.59838 -0.257568 0
M  V30 7369 H 692.763 3.33044 2.29922 0
M  V30 7370 H 691.333 2.28036 2.13818 0
M  V30 7371 H 690.553 3.932 0.280552 0
M  V30 7372 H 691.841 5.02037 0.826831 0
M  V30 7373 H 691.239 4.11894 3.87763 0
M  V30 7374 H 689.796 5.00104 4.18019 0
M  V30 7375 N 693.229 0.160201 1.56784 0
M  V30 7376 C 694.645 -0.196089 1.58391 0
M  V30 7377 C 694.845 -1.63689 1.17508 0
M  V30 7378 O 693.901 -2.36613 0.881506 0
M  V30 7379 C 695.214 0.0746449 3.00607 0
M  V30 7380 C 696.762 0.0119762 3.12998 0
M  V30 7381 C 697.237 0.255551 4.57286 0
M  V30 7382 N 698.728 0.202938 4.62755 0
M  V30 7383 C 699.463 0.365731 5.72232 0
M  V30 7384 N 698.959 0.586972 6.90309 0
M  V30 7385 N 700.752 0.302411 5.61286 0
M  V30 7386 H 692.903 1.1008 1.81648 0
M  V30 7387 H 695.166 0.436779 0.841384 0
M  V30 7388 H 694.872 1.07231 3.34954 0
M  V30 7389 H 694.746 -0.638802 3.71751 0
M  V30 7390 H 697.133 -0.976254 2.78484 0
M  V30 7391 H 697.214 0.75796 2.44313 0
M  V30 7392 H 696.858 1.24094 4.92507 0
M  V30 7393 H 696.788 -0.510912 5.24116 0
M  V30 7394 H 699.279 0.0371328 3.77882 0
M  V30 7395 H 699.592 0.700941 7.69615 0
M  V30 7396 H 697.937 0.623453 6.92198 0
M  V30 7397 H 701.128 0.130238 4.67919 0
M  V30 7398 H 701.301 0.432712 6.46554 0
M  V30 7399 N 694.707 -1.5719 -0.113559 0
M  V30 7400 C 695.954 -1.85138 -0.820382 0
M  V30 7401 C 696.282 -0.74608 -1.79622 0
M  V30 7402 O 695.537 0.262077 -1.93937 0
M  V30 7403 C 695.836 -3.19593 -1.59984 0
M  V30 7404 C 695.502 -4.44315 -0.767809 0
M  V30 7405 C 694.164 -4.78179 -0.538379 0
M  V30 7406 C 696.516 -5.2086 -0.188203 0
M  V30 7407 C 693.844 -5.86028 0.28082 0
M  V30 7408 C 696.196 -6.29572 0.618217 0
M  V30 7409 C 694.86 -6.61964 0.857912 0
M  V30 7410 H 694.13 -0.677467 -0.300199 0
M  V30 7411 H 696.777 -1.91322 -0.0825443 0
M  V30 7412 H 695.082 -3.0901 -2.40874 0
M  V30 7413 H 696.779 -3.3844 -2.1508 0
M  V30 7414 H 693.369 -4.17786 -0.956724 0
M  V30 7415 H 697.553 -4.95045 -0.352658 0
M  V30 7416 H 692.809 -6.09547 0.475693 0
M  V30 7417 H 696.983 -6.88064 1.0743 0
M  V30 7418 H 694.61 -7.45365 1.49451 0
M  V30 7419 N 696.185 0.383891 -1.52853 0
M  V30 7420 C 697.415 1.14783 -1.7178 0
M  V30 7421 C 697.823 1.84055 -0.438211 0
M  V30 7422 O 697.166 1.73713 0.597465 0
M  V30 7423 C 697.228 2.23543 -2.81547 0
M  V30 7424 C 696.892 1.74195 -4.22499 0
M  V30 7425 C 697.889 1.21591 -5.05481 0
M  V30 7426 C 695.574 1.80262 -4.6884 0
M  V30 7427 C 697.568 0.757104 -6.32888 0
M  V30 7428 C 695.255 1.33993 -5.96229 0
M  V30 7429 C 696.253 0.818049 -6.78083 0
M  V30 7430 O 695.941 0.362123 -8.03084 0
M  V30 7431 H 695.673 0.349908 -0.578395 0
M  V30 7432 H 698.227 0.454377 -2.00311 0
M  V30 7433 H 696.457 2.96328 -2.48449 0
M  V30 7434 H 698.146 2.8519 -2.88828 0
M  V30 7435 H 698.912 1.16257 -4.7086 0
M  V30 7436 H 694.791 2.19825 -4.05213 0
M  V30 7437 H 698.335 0.34908 -6.96726 0
M  V30 7438 H 694.232 1.39015 -6.30353 0
M  V30 7439 H 695 0.483134 -8.17073 0
M  V30 7440 N 697.663 1.43903 0.642637 0
M  V30 7441 C 698.94 1.36556 1.40043 0
M  V30 7442 C 699.32 0.0185588 2.11092 0
M  V30 7443 O 698.668 -0.998438 2.05532 0
M  V30 7444 C 698.878 2.55596 2.37638 0
M  V30 7445 C 700.226 2.99153 3.01318 0
M  V30 7446 O 701.25 2.55719 2.47965 0
M  V30 7447 O 700.109 3.74427 3.98078 0
M  V30 7448 H 697.203 0.540189 0.626198 0
M  V30 7449 H 699.749 1.55971 0.668657 0
M  V30 7450 H 698.521 3.45256 1.84158 0
M  V30 7451 H 698.144 2.38334 3.18249 0
M  V30 7452 N 699.141 -0.881989 1.30609 0
M  V30 7453 C 700.552 -1.44956 1.17664 0
M  V30 7454 C 700.903 -1.94945 -0.221531 0
M  V30 7455 O 700.028 -1.85257 -1.11844 0
M  V30 7456 C 700.623 -2.63474 2.12995 0
M  V30 7457 C 699.182 -3.16312 2.04019 0
M  V30 7458 C 698.329 -1.89008 2.02907 0
M  V30 7459 H 701.28 -0.691645 1.42835 0
M  V30 7460 H 701.301 -3.39783 1.71253 0
M  V30 7461 H 700.813 -2.2706 3.14746 0
M  V30 7462 H 698.914 -3.57376 1.0542 0
M  V30 7463 H 699.027 -3.79409 2.9255 0
M  V30 7464 H 697.391 -2.07465 1.47751 0
M  V30 7465 H 698.174 -1.54848 3.06394 0
M  V30 7466 N 700.619 -1.13374 -1.09472 0
M  V30 7467 C 701.859 -0.905422 -1.83252 0
M  V30 7468 C 702.223 0.558396 -1.83701 0
M  V30 7469 O 703.424 0.904254 -2.53134 0
M  V30 7470 C 701.695 -1.47658 -3.25472 0
M  V30 7471 S 703.254 -1.38825 -4.16261 0
M  V30 7472 H 700.072 -0.326371 -0.631667 0
M  V30 7473 H 702.674 -1.44517 -1.31663 0
M  V30 7474 H 701.378 -2.53533 -3.22722 0
M  V30 7475 H 700.909 -0.934756 -3.82133 0
M  V30 7476 H 702.924 -0.366379 -4.94846 0
M  V30 7477 N 702.098 1.27442 -0.927168 0
M  V30 7478 C 703.008 2.30599 -0.431448 0
M  V30 7479 C 704.024 1.67028 0.48761 0
M  V30 7480 O 705.2 1.97962 0.370546 0
M  V30 7481 C 702.265 3.45327 0.308292 0
M  V30 7482 C 701.326 4.24418 -0.645615 0
M  V30 7483 C 700.559 5.33667 0.0589164 0
M  V30 7484 O 700.782 5.5589 1.27838 0
M  V30 7485 O 699.716 5.98774 -0.612638 0
M  V30 7486 H 703.542 2.75036 -1.28797 0
M  V30 7487 H 701.127 1.32382 -0.692495 0
M  V30 7488 H 703.009 4.15107 0.725555 0
M  V30 7489 H 701.684 3.02945 1.14043 0
M  V30 7490 H 700.591 3.57174 -1.11255 0
M  V30 7491 H 701.924 4.70512 -1.44496 0
M  V30 7492 N 703.576 0.692616 1.41565 0
M  V30 7493 C 704.824 0.221896 2.00878 0
M  V30 7494 C 705.145 -1.18164 1.5512 0
M  V30 7495 O 704.415 -1.79679 0.78054 0
M  V30 7496 H 702.995 0.0790463 0.742806 0
M  V30 7497 H 705.657 0.893115 1.73232 0
M  V30 7498 H 704.753 0.23702 3.11199 0
M  V30 7499 N 705.054 -1.51416 0.437162 0
M  V30 7500 C 705.987 -2.24309 -0.419602 0
M  V30 7501 C 706.965 -1.26236 -1.02485 0
M  V30 7502 O 708.149 -1.5537 -1.06735 0
M  V30 7503 C 705.276 -2.99335 -1.58482 0
M  V30 7504 C 704.322 -4.12064 -1.10027 0
M  V30 7505 S 705.155 -5.35483 -0.0424476 0
M  V30 7506 C 706.311 -6.14047 -1.21234 0
M  V30 7507 H 706.544 -2.96632 0.199259 0
M  V30 7508 H 704.077 -1.528 0.22168 0
M  V30 7509 H 706.035 -3.43159 -2.25282 0
M  V30 7510 H 704.696 -2.26602 -2.17509 0
M  V30 7511 H 703.889 -4.63836 -1.97161 0
M  V30 7512 H 703.491 -3.70499 -0.510507 0
M  V30 7513 H 705.783 -6.43123 -2.13072 0
M  V30 7514 H 706.726 -7.04279 -0.734582 0
M  V30 7515 H 707.134 -5.45538 -1.45082 0
M  V30 7516 N 706.532 -0.168513 -1.56696 0
M  V30 7517 C 707.778 0.477865 -1.9709 0
M  V30 7518 C 708.111 1.63084 -1.05438 0
M  V30 7519 O 707.386 1.94238 -0.10095 0
M  V30 7520 C 707.669 0.963521 -3.4697 0
M  V30 7521 C 707.522 -0.189443 -4.49401 0
M  V30 7522 C 708.841 1.83813 -3.99876 0
M  V30 7523 H 705.96 0.172229 -0.716593 0
M  V30 7524 H 708.602 -0.254083 -1.88293 0
M  V30 7525 H 706.752 1.58724 -3.54597 0
M  V30 7526 H 708.424 -0.826451 -4.53836 0
M  V30 7527 H 706.667 -0.845366 -4.25483 0
M  V30 7528 H 707.338 0.192446 -5.51664 0
M  V30 7529 H 709.814 1.31235 -3.94863 0
M  V30 7530 H 708.69 2.14697 -5.0517 0
M  V30 7531 H 708.951 2.78289 -3.43523 0
M  V30 7532 N 708.01 1.57248 0.105221 0
M  V30 7533 C 709.238 1.89768 0.82437 0
M  V30 7534 C 709.653 0.761192 1.72775 0
M  V30 7535 O 709.01 -0.267342 1.80531 0
M  V30 7536 C 709.061 3.2184 1.64625 0
M  V30 7537 O 708.782 4.31115 0.779217 0
M  V30 7538 C 710.283 3.68155 2.46935 0
M  V30 7539 H 707.503 0.628031 0.236259 0
M  V30 7540 H 710.047 2.04321 0.085485 0
M  V30 7541 H 708.202 3.08915 2.33775 0
M  V30 7542 H 708.616 5.06897 1.34745 0
M  V30 7543 H 710.09 4.6329 3.00111 0
M  V30 7544 H 710.567 2.95492 3.24932 0
M  V30 7545 H 711.173 3.83914 1.83002 0
M  V30 7546 N 709.488 -0.375779 1.53054 0
M  V30 7547 C 710.734 -1.12114 1.68992 0
M  V30 7548 C 711.067 -1.8926 0.435238 0
M  V30 7549 O 710.342 -1.86044 -0.567278 0
M  V30 7550 C 710.625 -2.08867 2.93337 0
M  V30 7551 C 710.478 -1.35397 4.28938 0
M  V30 7552 C 711.797 -3.09124 3.13257 0
M  V30 7553 H 708.916 -0.406207 0.614951 0
M  V30 7554 H 711.558 -0.403054 1.85676 0
M  V30 7555 H 709.708 -2.70102 2.79244 0
M  V30 7556 H 711.38 -0.770242 4.54824 0
M  V30 7557 H 709.623 -0.655801 4.28814 0
M  V30 7558 H 710.294 -2.06161 5.12056 0
M  V30 7559 H 712.77 -2.57987 3.26469 0
M  V30 7560 H 711.646 -3.74054 4.01715 0
M  V30 7561 H 711.907 -3.78729 2.28072 0
M  V30 7562 N 710.966 -1.44241 -0.634997 0
M  V30 7563 C 712.243 -1.37296 -1.39317 0
M  V30 7564 C 712.623 -0.0297532 -2.11079 0
M  V30 7565 O 711.971 0.987524 -2.06059 0
M  V30 7566 C 712.181 -2.56853 -2.36279 0
M  V30 7567 C 713.529 -3.00747 -2.99728 0
M  V30 7568 O 714.553 -2.5703 -2.46605 0
M  V30 7569 O 713.412 -3.76533 -3.96087 0
M  V30 7570 H 710.506 -0.543503 -0.623325 0
M  V30 7571 H 713.052 -1.56324 -0.660376 0
M  V30 7572 H 711.824 -3.46228 -1.82324 0
M  V30 7573 H 711.447 -2.40019 -3.16981 0
M  V30 7574 N 712.444 0.87505 -1.31075 0
M  V30 7575 C 713.692 1.62447 -1.20231 0
M  V30 7576 C 714.013 1.93506 0.240888 0
M  V30 7577 O 713.283 1.57847 1.16022 0
M  V30 7578 H 711.863 0.602207 -0.441991 0
M  V30 7579 H 714.525 1.04788 -1.64334 0
M  V30 7580 H 713.621 2.57031 -1.77036 0
M  V30 7581 N 713.922 1.13953 1.08869 0
M  V30 7582 C 714.872 0.790812 2.13846 0
M  V30 7583 C 715.856 -0.217819 1.59419 0
M  V30 7584 O 717.048 -0.0208723 1.76988 0
M  V30 7585 C 714.177 0.26479 3.42277 0
M  V30 7586 C 713.263 1.30267 4.03598 0
M  V30 7587 N 713.654 2.50535 4.39393 0
M  V30 7588 C 711.952 1.15178 4.30871 0
M  V30 7589 C 712.653 3.16938 4.87776 0
M  V30 7590 N 711.629 2.44349 4.85587 0
M  V30 7591 H 715.431 1.70577 2.39334 0
M  V30 7592 H 712.945 1.02268 1.26154 0
M  V30 7593 H 714.942 -0.00330398 4.169 0
M  V30 7594 H 713.602 -0.644419 3.18241 0
M  V30 7595 H 714.613 2.87798 4.30572 0
M  V30 7596 H 711.29 0.301204 4.16412 0
M  V30 7597 H 712.68 4.19453 5.2489 0
M  V30 7598 N 715.4 -1.26948 0.933913 0
M  V30 7599 C 716.677 -1.89212 0.495784 0
M  V30 7600 C 717.057 -1.84469 -1.02637 0
M  V30 7601 O 716.405 -1.29409 -1.88323 0
M  V30 7602 C 716.615 -3.32865 1.0489 0
M  V30 7603 C 717.963 -4.09749 1.11315 0
M  V30 7604 O 718.987 -3.41905 0.998966 0
M  V30 7605 O 717.846 -5.31061 1.28983 0
M  V30 7606 H 714.94 -0.811284 0.160459 0
M  V30 7607 H 717.486 -1.35171 1.02601 0
M  V30 7608 H 716.258 -3.30642 2.09265 0
M  V30 7609 H 715.881 -3.94435 0.500692 0
M  V30 7610 N 716.879 -0.700114 -1.41195 0
M  V30 7611 C 718.128 -0.230082 -2.00383 0
M  V30 7612 C 718.441 1.17857 -1.56106 0
M  V30 7613 O 719.647 1.74631 -2.07885 0
M  V30 7614 C 718.103 -0.360447 -3.5809 0
M  V30 7615 C 717.711 -1.77475 -4.11347 0
M  V30 7616 C 719.455 0.0495799 -4.24471 0
M  V30 7617 C 717.362 -1.85653 -5.61504 0
M  V30 7618 H 716.292 -0.0822633 -0.749499 0
M  V30 7619 H 718.943 -0.868969 -1.6162 0
M  V30 7620 H 717.325 0.346768 -3.94479 0
M  V30 7621 H 718.499 -2.51109 -3.86369 0
M  V30 7622 H 716.814 -2.13486 -3.57509 0
M  V30 7623 H 719.411 0.00898219 -5.34699 0
M  V30 7624 H 719.754 1.08904 -4.01803 0
M  V30 7625 H 720.287 -0.607521 -3.93134 0
M  V30 7626 H 717.026 -2.87667 -5.89006 0
M  V30 7627 H 716.546 -1.1641 -5.88395 0
M  V30 7628 H 718.225 -1.62151 -6.26351 0
M  V30 7629 N 718.357 1.51182 -0.445186 0
M  V30 7630 C 719.773 1.59299 -0.0978954 0
M  V30 7631 C 719.973 1.4555 1.39346 0
M  V30 7632 O 719.029 1.30073 2.16419 0
M  V30 7633 C 720.342 2.94133 -0.625005 0
M  V30 7634 C 721.89 3.07463 -0.586137 0
M  V30 7635 C 722.365 4.44832 -1.09035 0
M  V30 7636 N 723.856 4.51173 -1.04867 0
M  V30 7637 C 724.591 5.55804 -1.40959 0
M  V30 7638 N 724.087 6.67816 -1.84375 0
M  V30 7639 N 725.88 5.46205 -1.32726 0
M  V30 7640 H 718.031 1.58363 -1.41544 0
M  V30 7641 H 720.294 0.746946 -0.58376 0
M  V30 7642 H 720 3.09589 -1.66876 0
M  V30 7643 H 719.874 3.77161 -0.0542262 0
M  V30 7644 H 722.261 2.9167 0.448646 0
M  V30 7645 H 722.342 2.26255 -1.19341 0
M  V30 7646 H 721.986 4.61372 -2.12364 0
M  V30 7647 H 721.916 5.24591 -0.459539 0
M  V30 7648 H 724.407 3.70783 -0.729932 0
M  V30 7649 H 724.72 7.43683 -2.10131 0
M  V30 7650 H 723.065 6.69003 -1.88308 0
M  V30 7651 H 726.256 4.57583 -0.986678 0
M  V30 7652 H 726.429 6.27634 -1.61182 0
M  V30 7653 N 719.835 0.176821 1.56605 0
M  V30 7654 C 721.06 -0.47599 2.01864 0
M  V30 7655 C 721.485 -1.55645 1.05623 0
M  V30 7656 O 720.843 -1.81263 0.0366729 0
M  V30 7657 C 720.891 -1.02619 3.4569 0
M  V30 7658 O 719.995 -2.13996 3.52533 0
M  V30 7659 H 719.336 -0.113363 0.654251 0
M  V30 7660 H 721.866 0.28233 2.02643 0
M  V30 7661 H 721.876 -1.34742 3.85109 0
M  V30 7662 H 720.551 -0.235138 4.15235 0
M  V30 7663 H 719.128 -1.82876 3.24978 0
M  V30 7664 N 721.313 -1.57302 -0.09688 0
M  V30 7665 C 722.243 -2.0497 -1.11846 0
M  V30 7666 C 723.224 -0.938278 -1.41882 0
M  V30 7667 O 724.409 -1.20943 -1.51942 0
M  V30 7668 C 721.539 -2.47264 -2.43881 0
M  V30 7669 C 720.493 -3.62053 -2.28257 0
M  V30 7670 C 719.819 -3.90318 -3.65453 0
M  V30 7671 C 721.119 -4.93005 -1.72461 0
M  V30 7672 H 722.813 -2.90567 -0.721888 0
M  V30 7673 H 720.359 -1.39786 -0.345803 0
M  V30 7674 H 722.312 -2.7922 -3.15617 0
M  V30 7675 H 721.036 -1.58664 -2.8547 0
M  V30 7676 H 719.695 -3.30341 -1.58967 0
M  V30 7677 H 719.343 -2.98889 -4.04567 0
M  V30 7678 H 719.043 -4.67597 -3.55846 0
M  V30 7679 H 720.567 -4.24747 -4.3866 0
M  V30 7680 H 721.981 -5.23354 -2.34036 0
M  V30 7681 H 720.378 -5.74436 -1.73618 0
M  V30 7682 H 721.448 -4.80053 -0.683898 0
M  V30 7683 N 722.791 0.367657 -1.53252 0
M  V30 7684 C 723.739 1.47061 -1.8021 0
M  V30 7685 C 724.733 1.55539 -0.671112 0
M  V30 7686 O 725.939 1.58451 -0.854014 0
M  V30 7687 H 722.314 0.489868 -0.570555 0
M  V30 7688 H 724.285 1.21527 -2.72532 0
M  V30 7689 C 723.034 2.83924 -2.00706 0
M  V30 7690 H 722.357 2.78158 -2.87172 0
M  V30 7691 H 723.797 3.60281 -2.23547 0
M  V30 7692 C 722.256 3.27613 -0.785568 0
M  V30 7693 O 722.786 4.01691 0.0267459 0
M  V30 7694 N 720.992 2.84134 -0.609597 0
M  V30 7695 H 720.539 2.24017 -1.27178 0
M  V30 7696 H 720.497 3.13723 0.206281 0
M  V30 7697 N 724.269 1.44576 0.627338 0
M  V30 7698 C 725.518 1.46837 1.38281 0
M  V30 7699 C 725.831 0.10635 1.95311 0
M  V30 7700 O 727.037 0.00651084 2.71499 0
M  V30 7701 C 725.493 2.58527 2.50384 0
M  V30 7702 C 725.101 4.00953 1.99851 0
M  V30 7703 C 726.845 2.70013 3.27557 0
M  V30 7704 C 724.752 5.0406 3.09318 0
M  V30 7705 H 723.682 0.546319 0.519664 0
M  V30 7706 H 726.333 1.70654 0.674497 0
M  V30 7707 H 724.715 2.27957 3.23808 0
M  V30 7708 H 725.889 4.41108 1.33267 0
M  V30 7709 H 724.204 3.93743 1.35482 0
M  V30 7710 H 726.801 3.44217 4.09168 0
M  V30 7711 H 727.144 1.75961 3.77284 0
M  V30 7712 H 727.677 3.00011 2.61224 0
M  V30 7713 H 724.416 5.99753 2.6453 0
M  V30 7714 H 723.936 4.68493 3.74532 0
M  V30 7715 H 725.615 5.2793 3.74031 0
M  V30 7716 N 725.747 -0.868086 1.31537 0
M  V30 7717 C 726.679 -1.98165 1.15166 0
M  V30 7718 C 727.692 -1.6255 0.0902335 0
M  V30 7719 O 728.881 -1.75272 0.33791 0
M  V30 7720 C 725.981 -3.30772 0.737776 0
M  V30 7721 C 725.154 -3.94716 1.88462 0
M  V30 7722 C 724.213 -5.05641 1.45648 0
M  V30 7723 O 723.239 -5.2636 2.16642 0
M  V30 7724 N 724.441 -5.79474 0.34493 0
M  V30 7725 H 727.206 -2.12754 2.11083 0
M  V30 7726 H 724.767 -1.04217 1.23897 0
M  V30 7727 H 726.759 -4.02366 0.434032 0
M  V30 7728 H 725.329 -3.1233 -0.129834 0
M  V30 7729 H 724.549 -3.16079 2.35558 0
M  V30 7730 H 725.837 -4.34175 2.65273 0
M  V30 7731 H 725.235 -5.65164 -0.246259 0
M  V30 7732 H 723.792 -6.51722 0.100728 0
M  V30 7733 N 727.225 -1.14528 -1.08264 0
M  V30 7734 C 728.471 -0.925721 -1.81113 0
M  V30 7735 C 728.826 0.54185 -1.84612 0
M  V30 7736 O 728.119 1.39628 -1.31205 0
M  V30 7737 C 728.313 -1.46226 -3.26117 0
M  V30 7738 C 728.142 -2.98047 -3.36746 0
M  V30 7739 C 726.912 -3.66508 -3.4785 0
M  V30 7740 C 729.11 -3.95903 -3.28277 0
M  V30 7741 N 727.092 -5.06227 -3.47285 0
M  V30 7742 C 728.463 -5.21883 -3.34721 0
M  V30 7743 C 730.518 -3.88002 -3.12024 0
M  V30 7744 C 729.221 -6.40886 -3.26585 0
M  V30 7745 C 731.247 -5.06553 -3.05219 0
M  V30 7746 C 730.609 -6.31403 -3.12266 0
M  V30 7747 H 726.708 -0.392294 -0.676483 0
M  V30 7748 H 729.292 -1.45567 -1.293 0
M  V30 7749 H 727.463 -0.959076 -3.76373 0
M  V30 7750 H 729.195 -1.18247 -3.8704 0
M  V30 7751 H 725.95 -3.17067 -3.51804 0
M  V30 7752 H 726.374 -5.79172 -3.50555 0
M  V30 7753 H 731.016 -2.9235 -3.05436 0
M  V30 7754 H 728.734 -7.36781 -3.31934 0
M  V30 7755 H 732.32 -5.02191 -2.93761 0
M  V30 7756 H 731.2 -7.21596 -3.07032 0
M  V30 7757 N 728.703 1.26451 -0.940633 0
M  V30 7758 C 729.633 2.28773 -0.467479 0
M  V30 7759 C 730.614 1.63218 0.478955 0
M  V30 7760 O 731.799 1.90427 0.380929 0
M  V30 7761 C 728.929 3.46259 0.268656 0
M  V30 7762 C 727.883 4.23898 -0.591171 0
M  V30 7763 C 727.209 5.33993 0.274891 0
M  V30 7764 C 728.509 4.87974 -1.86223 0
M  V30 7765 H 730.203 2.68601 -1.32265 0
M  V30 7766 H 727.749 1.29123 -0.637436 0
M  V30 7767 H 729.702 4.16951 0.610696 0
M  V30 7768 H 728.426 3.05383 1.15796 0
M  V30 7769 H 727.085 3.54969 -0.916098 0
M  V30 7770 H 726.733 4.89358 1.16353 0
M  V30 7771 H 726.433 5.86849 -0.297006 0
M  V30 7772 H 727.957 6.07523 0.612213 0
M  V30 7773 H 729.371 5.50883 -1.58747 0
M  V30 7774 H 727.768 5.50945 -2.37866 0
M  V30 7775 H 728.838 4.10945 -2.57394 0
M  V30 7776 N 730.181 0.707592 1.40822 0
M  V30 7777 C 731.597 0.38034 1.55002 0
M  V30 7778 C 731.797 -1.11163 1.68062 0
M  V30 7779 O 730.853 -1.89761 1.66574 0
M  V30 7780 C 732.166 1.1394 2.78277 0
M  V30 7781 C 733.714 1.12492 2.92087 0
M  V30 7782 C 734.189 1.86597 4.18265 0
M  V30 7783 N 735.68 1.83626 4.25248 0
M  V30 7784 C 736.415 2.37794 5.21768 0
M  V30 7785 N 735.911 3.00485 6.24244 0
M  V30 7786 N 737.704 2.27982 5.13791 0
M  V30 7787 H 729.855 1.67511 1.3059 0
M  V30 7788 H 732.118 0.707579 0.630901 0
M  V30 7789 H 731.824 2.19398 2.74877 0
M  V30 7790 H 731.698 0.725793 3.70151 0
M  V30 7791 H 734.085 0.0785564 2.94995 0
M  V30 7792 H 734.166 1.57768 2.01353 0
M  V30 7793 H 733.81 2.91219 4.16118 0
M  V30 7794 H 733.74 1.38746 5.07993 0
M  V30 7795 H 736.231 1.3793 3.51829 0
M  V30 7796 H 736.544 3.39355 6.94304 0
M  V30 7797 H 734.889 3.04567 6.24711 0
M  V30 7798 H 738.08 1.78669 4.3266 0
M  V30 7799 H 738.253 2.70499 5.88841 0
M  V30 7800 N 731.66 -1.50943 0.453197 0
M  V30 7801 C 732.937 -1.94872 -0.168633 0
M  V30 7802 C 733.317 -1.39272 -1.5864 0
M  V30 7803 O 732.665 -0.586272 -2.20851 0
M  V30 7804 C 732.875 -3.48757 -0.130217 0
M  V30 7805 C 734.223 -4.23331 -0.327975 0
M  V30 7806 O 735.247 -3.55594 -0.207619 0
M  V30 7807 O 734.106 -5.43529 -0.569077 0
M  V30 7808 H 731.2 -0.818042 -0.121394 0
M  V30 7809 H 733.746 -1.61782 0.512316 0
M  V30 7810 H 732.518 -3.81725 0.860346 0
M  V30 7811 H 732.141 -3.88333 -0.853397 0
M  V30 7812 N 733.138 -0.185124 -1.56509 0
M  V30 7813 C 734.07 0.771401 -2.15829 0
M  V30 7814 C 735.083 1.18392 -1.11747 0
M  V30 7815 O 736.272 1.12137 -1.38879 0
M  V30 7816 C 733.372 2.05169 -2.69739 0
M  V30 7817 C 732.545 1.80056 -3.98621 0
M  V30 7818 C 731.604 2.92435 -4.37456 0
M  V30 7819 O 730.63 2.62473 -5.05071 0
M  V30 7820 N 731.832 4.20554 -4.00143 0
M  V30 7821 H 734.597 0.264184 -2.98533 0
M  V30 7822 H 732.158 -0.00281069 -1.619 0
M  V30 7823 H 734.15 2.7947 -2.92709 0
M  V30 7824 H 732.72 2.47041 -1.91545 0
M  V30 7825 H 731.94 0.895862 -3.83885 0
M  V30 7826 H 733.228 1.60662 -4.82768 0
M  V30 7827 H 732.626 4.47753 -3.45736 0
M  V30 7828 H 731.183 4.91514 -4.28085 0
M  V30 7829 N 734.616 1.57351 0.0885366 0
M  V30 7830 C 735.865 1.85604 0.789556 0
M  V30 7831 C 736.178 0.775352 1.79576 0
M  V30 7832 O 737.384 0.945206 2.54515 0
M  V30 7833 C 735.84 3.29175 1.45506 0
M  V30 7834 C 735.448 4.45331 0.488278 0
M  V30 7835 C 737.192 3.66646 2.13942 0
M  V30 7836 C 735.099 5.79937 1.15874 0
M  V30 7837 H 734.029 0.692346 0.298619 0
M  V30 7838 H 736.68 1.83451 0.0425821 0
M  V30 7839 H 735.062 3.25889 2.24972 0
M  V30 7840 H 736.236 4.59977 -0.275359 0
M  V30 7841 H 734.551 4.16301 -0.0907363 0
M  V30 7842 H 737.148 4.64498 2.6485 0
M  V30 7843 H 737.491 2.956 2.93132 0
M  V30 7844 H 738.024 3.71848 1.41328 0
M  V30 7845 H 734.763 6.54232 0.407508 0
M  V30 7846 H 734.283 5.69123 1.89364 0
M  V30 7847 H 735.962 6.24718 1.68336 0
M  V30 7848 N 736.094 -0.359525 1.53444 0
M  V30 7849 C 737.342 -1.09935 1.69584 0
M  V30 7850 C 737.663 -1.89656 0.453371 0
M  V30 7851 O 736.933 -1.8852 -0.53263 0
M  V30 7852 H 735.513 -0.408843 0.625185 0
M  V30 7853 H 738.175 -0.40467 1.90653 0
M  V30 7854 H 737.271 -1.78575 2.55964 0
M  V30 7855 N 737.572 -1.44907 -0.619662 0
M  V30 7856 C 738.821 -1.47569 -1.37501 0
M  V30 7857 C 739.134 -0.116707 -1.95252 0
M  V30 7858 O 740.34 -0.020909 -2.71492 0
M  V30 7859 C 738.796 -2.59851 -2.49009 0
M  V30 7860 C 738.404 -4.02008 -1.97722 0
M  V30 7861 C 740.148 -2.71746 -3.2612 0
M  V30 7862 C 738.055 -5.05693 -3.0664 0
M  V30 7863 H 736.985 -0.549068 -0.51676 0
M  V30 7864 H 739.636 -1.71009 -0.665437 0
M  V30 7865 H 738.018 -2.29671 -3.22594 0
M  V30 7866 H 739.192 -4.41809 -1.30925 0
M  V30 7867 H 737.507 -3.94456 -1.33392 0
M  V30 7868 H 740.104 -3.46382 -4.07337 0
M  V30 7869 H 740.447 -1.77959 -3.76346 0
M  V30 7870 H 740.98 -3.01392 -2.5963 0
M  V30 7871 H 737.719 -6.01148 -2.61345 0
M  V30 7872 H 737.239 -4.70473 -3.72042 0
M  V30 7873 H 738.918 -5.29906 -3.71226 0
M  V30 7874 N 739.05 0.861098 -1.31996 0
M  V30 7875 C 740.296 1.61721 -1.22369 0
M  V30 7876 C 740.629 1.93 0.215587 0
M  V30 7877 O 739.904 1.56789 1.15098 0
M  V30 7878 C 740.187 2.9417 -2.07691 0
M  V30 7879 C 740.04 2.69714 -3.59965 0
M  V30 7880 C 741.359 3.95372 -1.93312 0
M  V30 7881 H 738.478 0.586822 -0.44588 0
M  V30 7882 H 741.12 0.994788 -1.61876 0
M  V30 7883 H 739.27 3.47292 -1.74128 0
M  V30 7884 H 740.942 2.23196 -4.03709 0
M  V30 7885 H 739.185 2.03789 -3.82952 0
M  V30 7886 H 739.856 3.63996 -4.14983 0
M  V30 7887 H 742.332 3.51487 -2.22701 0
M  V30 7888 H 741.208 4.85916 -2.55298 0
M  V30 7889 H 741.469 4.32865 -0.898922 0
M  V30 7890 N 740.528 1.15101 1.07655 0
M  V30 7891 C 741.438 0.858869 2.18313 0
M  V30 7892 C 742.454 -0.163641 1.73229 0
M  V30 7893 O 743.63 0.00969541 2.01398 0
M  V30 7894 C 740.695 0.34893 3.4494 0
M  V30 7895 C 739.756 1.43495 4.04608 0
M  V30 7896 C 738.989 0.949253 5.2519 0
M  V30 7897 O 739.212 -0.20636 5.70027 0
M  V30 7898 O 738.146 1.73161 5.76454 0
M  V30 7899 H 741.972 1.78386 2.45788 0
M  V30 7900 H 739.557 0.929876 1.16934 0
M  V30 7901 H 741.439 0.070851 4.2134 0
M  V30 7902 H 740.114 -0.548237 3.19024 0
M  V30 7903 H 739.021 1.7666 3.29761 0
M  V30 7904 H 740.354 2.30692 4.3479 0
M  V30 7905 N 742.006 -1.2595 0.947325 0
M  V30 7906 C 742.938 -2.25336 0.41906 0
M  V30 7907 C 743.951 -1.56135 -0.461051 0
M  V30 7908 O 745.14 -1.76438 -0.270505 0
M  V30 7909 C 742.24 -3.36334 -0.416233 0
M  V30 7910 C 741.413 -4.35088 0.449162 0
M  V30 7911 C 740.472 -5.25185 -0.326716 0
M  V30 7912 O 739.498 -5.68548 0.272374 0
M  V30 7913 N 740.7 -5.57388 -1.6217 0
M  V30 7914 H 743.465 -2.71298 1.27348 0
M  V30 7915 H 741.026 -1.39781 0.81688 0
M  V30 7916 H 743.018 -3.93564 -0.942826 0
M  V30 7917 H 741.588 -2.89819 -1.17148 0
M  V30 7918 H 740.808 -3.76841 1.15692 0
M  V30 7919 H 742.096 -4.98056 1.04008 0
M  V30 7920 H 741.494 -5.2405 -2.13046 0
M  V30 7921 H 740.051 -6.17234 -2.0944 0
M  V30 7922 N 743.484 -0.715051 -1.40445 0
M  V30 7923 C 744.394 -0.0631624 -2.34515 0
M  V30 7924 C 745.41 0.744397 -1.57273 0
M  V30 7925 O 746.586 0.677475 -1.89663 0
M  V30 7926 C 743.651 0.847915 -3.36172 0
M  V30 7927 C 742.712 0.0303655 -4.29289 0
M  V30 7928 C 741.945 0.898051 -5.2609 0
M  V30 7929 O 742.168 2.13729 -5.28844 0
M  V30 7930 O 741.102 0.337328 -6.00954 0
M  V30 7931 H 744.928 -0.839078 -2.91879 0
M  V30 7932 H 742.513 -0.475527 -1.4163 0
M  V30 7933 H 744.395 1.3698 -3.98515 0
M  V30 7934 H 743.07 1.60299 -2.81222 0
M  V30 7935 H 741.977 -0.536573 -3.70232 0
M  V30 7936 H 743.31 -0.686474 -4.87389 0
M  V30 7937 N 744.962 1.50701 -0.461195 0
M  V30 7938 C 746.373 1.867 -0.00370227 0
M  V30 7939 C 746.724 1.37673 1.39787 0
M  V30 7940 O 745.849 0.737515 2.03445 0
M  V30 7941 C 746.444 3.388 5.75786e-05 0
M  V30 7942 C 745.003 3.74247 0.402044 0
M  V30 7943 C 744.15 2.74549 -0.389652 0
M  V30 7944 H 747.101 1.43585 -0.675942 0
M  V30 7945 H 747.122 3.719 0.804414 0
M  V30 7946 H 746.634 3.74452 -1.02015 0
M  V30 7947 H 744.735 3.44192 1.42697 0
M  V30 7948 H 744.848 4.78973 0.110265 0
M  V30 7949 H 743.212 2.54226 0.155314 0
M  V30 7950 H 743.995 3.13044 -1.40919 0
M  V30 7951 N 746.441 0.193421 1.56409 0
M  V30 7952 C 747.687 -0.446449 1.97825 0
M  V30 7953 C 748.02 -1.61386 1.08019 0
M  V30 7954 O 747.295 -1.94053 0.131839 0
M  V30 7955 C 747.578 -0.908199 3.48459 0
M  V30 7956 C 747.431 0.260914 4.49043 0
M  V30 7957 C 748.75 -1.77428 4.0275 0
M  V30 7958 H 745.869 -0.160807 0.719243 0
M  V30 7959 H 748.511 0.284006 1.87865 0
M  V30 7960 H 746.661 -1.53062 3.57077 0
M  V30 7961 H 748.333 0.898548 4.52464 0
M  V30 7962 H 746.576 0.912949 4.24085 0
M  V30 7963 H 747.247 -0.104657 5.51901 0
M  V30 7964 H 749.723 -1.24936 3.96901 0
M  V30 7965 H 748.599 -2.06633 5.08521 0
M  V30 7966 H 748.86 -2.72788 3.47907 0
M  V30 7967 N 747.919 -1.57396 -0.0801906 0
M  V30 7968 C 748.849 -2.06145 -1.09665 0
M  V30 7969 C 749.83 -0.953273 -1.40878 0
M  V30 7970 O 751.015 -1.22548 -1.50651 0
M  V30 7971 C 748.145 -2.49836 -2.41245 0
M  V30 7972 C 747.099 -3.64454 -2.24405 0
M  V30 7973 C 746.425 -3.94172 -3.61293 0
M  V30 7974 C 747.725 -4.94807 -1.67223 0
M  V30 7975 H 749.419 -2.91316 -0.691028 0
M  V30 7976 H 746.965 -1.40145 -0.330957 0
M  V30 7977 H 748.918 -2.82552 -3.12638 0
M  V30 7978 H 747.642 -1.61683 -2.83771 0
M  V30 7979 H 746.301 -3.32008 -1.55454 0
M  V30 7980 H 745.949 -3.03163 -4.01374 0
M  V30 7981 H 745.649 -4.71345 -3.50867 0
M  V30 7982 H 747.173 -4.29376 -4.3413 0
M  V30 7983 H 748.587 -5.25807 -2.28472 0
M  V30 7984 H 746.984 -5.76245 -1.67515 0
M  V30 7985 H 748.054 -4.80751 -0.632944 0
M  V30 7986 N 749.397 0.351382 -1.53633 0
M  V30 7987 C 750.644 1.0925 -1.70502 0
M  V30 7988 C 750.972 1.88881 -0.464123 0
M  V30 7989 O 750.227 1.87693 0.554077 0
M  V30 7990 C 750.526 2.06744 -2.91533 0
M  V30 7991 C 750.192 1.43484 -4.27461 0
M  V30 7992 C 748.854 1.2596 -4.64422 0
M  V30 7993 C 751.206 0.978436 -5.11934 0
M  V30 7994 C 748.534 0.614017 -5.83478 0
M  V30 7995 C 750.886 0.346795 -6.31649 0
M  V30 7996 C 749.55 0.15917 -6.6731 0
M  V30 7997 H 748.82 0.399773 -0.623909 0
M  V30 7998 H 751.467 0.372656 -1.87839 0
M  V30 7999 H 749.772 2.85082 -2.68767 0
M  V30 8000 H 751.469 2.64066 -3.01778 0
M  V30 8001 H 748.059 1.5812 -3.98367 0
M  V30 8002 H 752.243 1.1017 -4.83918 0
M  V30 8003 H 747.499 0.457194 -6.09688 0
M  V30 8004 H 751.673 -0.0149864 -6.96398 0
M  V30 8005 H 749.3 -0.343129 -7.59425 0
M  V30 8006 N 750.875 1.45233 0.611969 0
M  V30 8007 C 752.1 1.52767 1.40274 0
M  V30 8008 C 752.525 0.159701 1.87421 0
M  V30 8009 O 751.883 -0.854837 1.59882 0
M  V30 8010 C 751.931 2.51286 2.58626 0
M  V30 8011 O 751.035 2.02764 3.59111 0
M  V30 8012 H 750.376 0.515141 0.418958 0
M  V30 8013 H 752.906 1.90547 0.745188 0
M  V30 8014 H 752.916 2.69949 3.05927 0
M  V30 8015 H 751.591 3.50641 2.23659 0
M  V30 8016 H 750.168 1.93957 3.18489 0
M  V30 8017 N 752.353 -0.854086 1.3245 0
M  V30 8018 C 753.581 -1.64074 1.26045 0
M  V30 8019 C 753.996 -1.8802 -0.171456 0
M  V30 8020 O 753.353 -1.4496 -1.10873 0
M  V30 8021 C 753.404 -2.9997 2.01743 0
M  V30 8022 O 753.125 -2.77084 3.39346 0
M  V30 8023 C 754.626 -3.94414 2.02368 0
M  V30 8024 H 751.846 -0.511015 0.434862 0
M  V30 8025 H 754.39 -1.06494 1.74583 0
M  V30 8026 H 752.545 -3.54193 1.56926 0
M  V30 8027 H 752.959 -3.63514 3.78098 0
M  V30 8028 H 754.433 -4.87032 2.59815 0
M  V30 8029 H 754.91 -4.27427 1.01009 0
M  V30 8030 H 755.516 -3.46127 2.47135 0
M  V30 8031 N 753.831 -1.1567 -1.07043 0
M  V30 8032 C 755.059 -0.957471 -1.83412 0
M  V30 8033 C 755.474 0.494271 -1.82215 0
M  V30 8034 O 754.831 1.34288 -1.23584 0
M  V30 8035 C 754.882 -1.46784 -3.30359 0
M  V30 8036 O 754.603 -2.86271 -3.31633 0
M  V30 8037 C 756.104 -1.31054 -4.23485 0
M  V30 8038 H 753.324 -0.33986 -0.578564 0
M  V30 8039 H 755.868 -1.53518 -1.35102 0
M  V30 8040 H 754.023 -0.932586 -3.76007 0
M  V30 8041 H 754.437 -3.0948 -4.23465 0
M  V30 8042 H 755.911 -1.71605 -5.24648 0
M  V30 8043 H 756.388 -0.255107 -4.38458 0
M  V30 8044 H 756.994 -1.83503 -3.83676 0
M  V30 8045 N 755.309 1.25446 -0.953992 0
M  V30 8046 C 756.558 1.92441 -0.604101 0
M  V30 8047 C 756.871 1.75543 0.862796 0
M  V30 8048 O 758.077 2.37106 1.32262 0
M  V30 8049 C 756.533 3.44854 -1.02974 0
M  V30 8050 C 756.141 3.70464 -2.51914 0
M  V30 8051 C 757.885 4.1778 -0.752352 0
M  V30 8052 C 755.792 5.1638 -2.88281 0
M  V30 8053 H 754.722 0.720508 -0.222227 0
M  V30 8054 H 757.373 1.42318 -1.15836 0
M  V30 8055 H 755.755 3.93935 -0.403904 0
M  V30 8056 H 756.929 3.32038 -3.19511 0
M  V30 8057 H 755.244 3.10797 -2.77117 0
M  V30 8058 H 757.841 5.25261 -1.00024 0
M  V30 8059 H 758.184 4.15135 0.311212 0
M  V30 8060 H 758.717 3.74605 -1.33851 0
M  V30 8061 H 755.456 5.24135 -3.93653 0
M  V30 8062 H 754.976 5.55855 -2.25357 0
M  V30 8063 H 756.655 5.84497 -2.77439 0
M  V30 8064 N 756.787 0.722489 1.40064 0
M  V30 8065 C 757.75 0.0830209 2.2905 0
M  V30 8066 C 758.75 -0.680208 1.45705 0
M  V30 8067 O 759.94 -0.511084 1.66534 0
M  V30 8068 C 757.072 -0.892092 3.29021 0
M  V30 8069 H 758.265 0.866848 2.87099 0
M  V30 8070 H 755.818 0.487556 1.48501 0
M  V30 8071 H 756.553 -1.70273 2.76003 0
M  V30 8072 H 756.338 -0.34761 3.90556 0
M  V30 8073 H 757.828 -1.33648 3.95636 0
M  V30 8074 N 758.265 -1.50454 0.469181 0
M  V30 8075 C 759.175 -2.32248 -0.331349 0
M  V30 8076 C 760.191 -1.42548 -0.997807 0
M  V30 8077 O 761.367 -1.75602 -0.9862 0
M  V30 8078 C 758.432 -3.17171 -1.40012 0
M  V30 8079 C 757.493 -4.2269 -0.750463 0
M  V30 8080 C 756.726 -5.03554 -1.76831 0
M  V30 8081 O 756.949 -4.85469 -2.99459 0
M  V30 8082 O 755.883 -5.86767 -1.3412 0
M  V30 8083 H 759.709 -3.01821 0.337279 0
M  V30 8084 H 757.294 -1.47602 0.231066 0
M  V30 8085 H 759.176 -3.69871 -2.01924 0
M  V30 8086 H 757.851 -2.50328 -2.05226 0
M  V30 8087 H 756.758 -3.73986 -0.0924446 0
M  V30 8088 H 758.091 -4.91997 -0.14131 0
M  V30 8089 N 759.743 -0.201713 -1.56304 0
M  V30 8090 C 760.691 0.733133 -2.20744 0
M  V30 8091 C 761.685 1.2148 -1.18064 0
M  V30 8092 O 762.891 1.17692 -1.36193 0
M  V30 8093 H 759.266 0.254789 -0.707521 0
M  V30 8094 H 761.237 0.165996 -2.97938 0
M  V30 8095 C 759.986 1.93925 -2.88597 0
M  V30 8096 H 759.309 1.5777 -3.67353 0
M  V30 8097 H 760.749 2.57158 -3.37114 0
M  V30 8098 C 759.208 2.78219 -1.89989 0
M  V30 8099 O 759.738 3.76353 -1.40432 0
M  V30 8100 N 757.944 2.43847 -1.58072 0
M  V30 8101 H 757.491 1.64103 -1.98565 0
M  V30 8102 H 757.449 3.0053 -0.923524 0
M  V30 8103 N 761.222 1.57436 0.0718424 0
M  V30 8104 C 762.471 1.86431 0.769826 0
M  V30 8105 C 762.784 0.794355 1.78744 0
M  V30 8106 O 763.99 0.972148 2.53499 0
M  V30 8107 C 762.446 3.307 1.42006 0
M  V30 8108 C 762.054 4.45824 0.441017 0
M  V30 8109 C 763.798 3.68894 2.10041 0
M  V30 8110 C 761.705 5.81134 1.09717 0
M  V30 8111 H 760.635 0.695474 0.291259 0
M  V30 8112 H 763.286 1.83485 0.0231224 0
M  V30 8113 H 761.668 3.28257 2.21502 0
M  V30 8114 H 762.842 4.59659 -0.32413 0
M  V30 8115 H 761.157 4.16181 -0.134886 0
M  V30 8116 H 763.754 4.67281 2.59908 0
M  V30 8117 H 764.097 2.98692 2.89981 0
M  V30 8118 H 764.63 3.73326 1.37376 0
M  V30 8119 H 761.369 6.54628 0.338095 0
M  V30 8120 H 760.889 5.711 1.83317 0
M  V30 8121 H 762.568 6.26468 1.617 0
M  V30 8122 N 762.7 -0.34323 1.53817 0
M  V30 8123 C 764.116 -0.686355 1.44088 0
M  V30 8124 C 764.316 -1.92426 0.597882 0
M  V30 8125 O 763.372 -2.52343 0.0889918 0
M  V30 8126 C 764.685 -0.878698 2.87575 0
M  V30 8127 C 766.233 -0.977296 2.97352 0
M  V30 8128 C 766.708 -1.20195 4.41947 0
M  V30 8129 N 768.199 -1.26915 4.45474 0
M  V30 8130 C 768.934 -1.46049 5.54488 0
M  V30 8131 N 768.43 -1.62354 6.73508 0
M  V30 8132 N 770.223 -1.48599 5.42102 0
M  V30 8133 H 762.374 0.470679 2.07119 0
M  V30 8134 H 764.637 0.148652 0.936273 0
M  V30 8135 H 764.343 -0.040602 3.51677 0
M  V30 8136 H 764.217 -1.78034 3.32541 0
M  V30 8137 H 766.604 -1.80591 2.3339 0
M  V30 8138 H 766.685 -0.0525498 2.55746 0
M  V30 8139 H 766.329 -0.378262 5.06489 0
M  V30 8140 H 766.259 -2.14027 4.81145 0
M  V30 8141 H 768.75 -1.15837 3.59708 0
M  V30 8142 H 769.063 -1.76591 7.52353 0
M  V30 8143 H 767.408 -1.5949 6.76453 0
M  V30 8144 H 770.599 -1.35443 4.48077 0
M  V30 8145 H 770.772 -1.6317 6.2712 0
M  V30 8146 N 764.178 -1.45556 -0.604258 0
M  V30 8147 C 765.408 -1.53056 -1.38771 0
M  V30 8148 C 765.816 -0.163092 -1.88496 0
M  V30 8149 O 765.159 0.846157 -1.63052 0
M  V30 8150 C 765.221 -2.45656 -2.62476 0
M  V30 8151 C 764.885 -3.92328 -2.34367 0
M  V30 8152 C 765.882 -4.82137 -1.94525 0
M  V30 8153 C 763.567 -4.37275 -2.47177 0
M  V30 8154 C 765.561 -6.14901 -1.67856 0
M  V30 8155 C 763.248 -5.70079 -2.20122 0
M  V30 8156 C 764.246 -6.58711 -1.80524 0
M  V30 8157 O 763.934 -7.89053 -1.53788 0
M  V30 8158 H 763.666 -0.520721 -0.431075 0
M  V30 8159 H 766.22 -1.91464 -0.743693 0
M  V30 8160 H 764.45 -2.02225 -3.29609 0
M  V30 8161 H 766.139 -2.43802 -3.24523 0
M  V30 8162 H 766.905 -4.48675 -1.84162 0
M  V30 8163 H 762.784 -3.68527 -2.76964 0
M  V30 8164 H 766.328 -6.8404 -1.36874 0
M  V30 8165 H 762.225 -6.03095 -2.30102 0
M  V30 8166 H 762.993 -8.01113 -1.67812 0
M  V30 8167 N 765.656 0.84705 -1.32902 0
M  V30 8168 C 766.904 1.5986 -1.2365 0
M  V30 8169 C 767.225 1.93974 0.199789 0
M  V30 8170 O 766.495 1.60273 1.12648 0
M  V30 8171 H 765.075 0.592696 -0.454665 0
M  V30 8172 H 767.737 1.01278 -1.66519 0
M  V30 8173 H 766.833 2.53218 -1.82448 0
M  V30 8174 N 767.134 1.16236 1.06428 0
M  V30 8175 C 768.55 0.906983 1.31324 0
M  V30 8176 C 768.75 -0.440872 1.96618 0
M  V30 8177 O 767.806 -1.1807 2.23194 0
M  V30 8178 C 769.119 2.05501 2.19522 0
M  V30 8179 C 770.667 2.09061 2.32943 0
M  V30 8180 C 771.142 3.23214 3.24495 0
M  V30 8181 N 772.633 3.22922 3.32078 0
M  V30 8182 C 773.368 4.07889 4.03006 0
M  V30 8183 N 772.864 5.02941 4.76469 0
M  V30 8184 N 774.657 3.95881 3.99043 0
M  V30 8185 H 766.808 2.03015 0.624388 0
M  V30 8186 H 769.071 0.88576 0.337835 0
M  V30 8187 H 768.777 3.02847 1.78819 0
M  V30 8188 H 768.651 1.99538 3.201 0
M  V30 8189 H 771.038 1.12308 2.72893 0
M  V30 8190 H 771.119 2.19089 1.32037 0
M  V30 8191 H 770.763 4.20225 2.85261 0
M  V30 8192 H 770.693 3.10423 4.25377 0
M  V30 8193 H 773.184 2.54093 2.79724 0
M  V30 8194 H 773.497 5.64196 5.28112 0
M  V30 8195 H 771.842 5.06922 4.75453 0
M  V30 8196 H 775.033 3.20927 3.40769 0
M  V30 8197 H 775.206 4.62321 4.54052 0
M  V30 8198 N 768.612 -1.24939 0.960631 0
M  V30 8199 C 769.522 -2.29374 0.492435 0
M  V30 8200 C 770.538 -1.68262 -0.443154 0
M  V30 8201 O 771.714 -1.98875 -0.31793 0
M  V30 8202 C 768.779 -3.46023 -0.216626 0
M  V30 8203 C 767.84 -4.22557 0.757915 0
M  V30 8204 C 767.073 -5.33636 0.0825969 0
M  V30 8205 O 767.296 -5.59084 -1.13054 0
M  V30 8206 O 766.23 -5.96939 0.771177 0
M  V30 8207 H 770.056 -2.71525 1.36044 0
M  V30 8208 H 767.641 -1.30499 0.72735 0
M  V30 8209 H 769.523 -4.16885 -0.615241 0
M  V30 8210 H 768.198 -3.05862 -1.05971 0
M  V30 8211 H 767.105 -3.54099 1.20685 0
M  V30 8212 H 768.438 -4.66516 1.5692 0
M  V30 8213 N 770.09 -0.729906 -1.39679 0
M  V30 8214 C 771.367 -0.202149 -1.94553 0
M  V30 8215 C 771.747 1.29507 -1.66707 0
M  V30 8216 O 771.095 2.05819 -0.992517 0
M  V30 8217 C 771.305 -0.530279 -3.44948 0
M  V30 8218 C 772.653 -0.476808 -4.21914 0
M  V30 8219 O 773.677 -0.467171 -3.53123 0
M  V30 8220 O 772.536 -0.466869 -5.44502 0
M  V30 8221 H 769.63 -0.0351644 -0.826252 0
M  V30 8222 H 772.176 -0.808417 -1.49207 0
M  V30 8223 H 770.948 -1.56526 -3.5863 0
M  V30 8224 H 770.571 0.10522 -3.97461 0
M  V30 8225 N 771.568 1.50203 -0.477153 0
M  V30 8226 C 772.531 2.27194 0.302599 0
M  V30 8227 C 773.531 1.32221 0.915112 0
M  V30 8228 O 774.721 1.55593 0.783348 0
M  V30 8229 C 771.853 3.0938 1.43167 0
M  V30 8230 H 773.046 2.97575 -0.372678 0
M  V30 8231 H 770.599 1.54578 -0.231392 0
M  V30 8232 H 771.334 2.43509 2.14182 0
M  V30 8233 H 771.119 3.79181 0.998197 0
M  V30 8234 H 772.609 3.67592 1.98157 0
M  V30 8235 N 773.046 0.209999 1.56195 0
M  V30 8236 C 774.274 -0.429996 2.02382 0
M  V30 8237 C 774.689 -1.54159 1.08998 0
M  V30 8238 O 774.046 -1.82239 0.0974856 0
M  V30 8239 C 774.097 -0.972433 3.48175 0
M  V30 8240 O 773.818 0.0948231 4.37997 0
M  V30 8241 C 775.319 -1.68683 4.09952 0
M  V30 8242 H 772.539 -0.106475 0.662498 0
M  V30 8243 H 775.083 0.323072 2.01932 0
M  V30 8244 H 773.238 -1.67582 3.49278 0
M  V30 8245 H 773.652 -0.31113 5.23576 0
M  V30 8246 H 775.126 -2.01851 5.13771 0
M  V30 8247 H 775.603 -2.59587 3.54276 0
M  V30 8248 H 776.209 -1.02893 4.12666 0
M  V30 8249 N 774.524 -1.57472 -0.0634922 0
M  V30 8250 C 775.457 -1.99571 -1.10664 0
M  V30 8251 C 776.435 -0.874015 -1.37112 0
M  V30 8252 O 777.619 -1.13702 -1.50347 0
M  V30 8253 C 774.746 -2.3395 -2.44918 0
M  V30 8254 C 773.792 -3.56213 -2.34551 0
M  V30 8255 S 774.625 -5.06727 -1.73169 0
M  V30 8256 C 775.781 -5.44316 -3.08984 0
M  V30 8257 H 776.014 -2.87739 -0.747905 0
M  V30 8258 H 773.547 -1.5198 -0.272316 0
M  V30 8259 H 775.505 -2.54431 -3.22141 0
M  V30 8260 H 774.166 -1.46297 -2.7795 0
M  V30 8261 H 773.359 -3.77812 -3.33578 0
M  V30 8262 H 772.961 -3.35406 -1.65466 0
M  V30 8263 H 775.253 -5.42894 -4.05305 0
M  V30 8264 H 776.196 -6.4502 -2.92156 0
M  V30 8265 H 776.604 -4.71781 -3.09972 0
M  V30 8266 N 776.003 0.335068 -1.53997 0
M  V30 8267 C 776.913 1.43511 -1.85585 0
M  V30 8268 C 777.929 1.57162 -0.746726 0
M  V30 8269 O 779.105 1.72477 -1.03988 0
M  V30 8270 C 776.17 2.78386 -2.06646 0
M  V30 8271 C 775.231 2.74007 -3.30483 0
M  V30 8272 C 774.464 4.02449 -3.50529 0
M  V30 8273 O 774.687 5.00147 -2.74242 0
M  V30 8274 O 773.621 4.06405 -4.4398 0
M  V30 8275 H 777.447 1.19731 -2.79102 0
M  V30 8276 H 775.032 0.528033 -1.39758 0
M  V30 8277 H 776.914 3.58247 -2.21894 0
M  V30 8278 H 775.589 3.0208 -1.16317 0
M  V30 8279 H 774.496 1.92736 -3.2063 0
M  V30 8280 H 775.829 2.55267 -4.20832 0
M  V30 8281 N 777.481 1.45874 0.596531 0
M  V30 8282 C 778.758 1.40942 1.35627 0
M  V30 8283 C 779.138 0.0857066 2.10926 0
M  V30 8284 O 778.486 -0.932544 2.08605 0
M  V30 8285 C 778.696 2.63027 2.29386 0
M  V30 8286 C 780.044 3.08588 2.91649 0
M  V30 8287 O 781.068 2.63478 2.39704 0
M  V30 8288 O 779.927 3.86902 3.85965 0
M  V30 8289 H 777.021 0.559838 0.608696 0
M  V30 8290 H 779.567 1.5802 0.618698 0
M  V30 8291 H 778.339 3.5094 1.7308 0
M  V30 8292 H 777.962 2.48338 3.10506 0
M  V30 8293 N 778.959 -0.83999 1.33349 0
M  V30 8294 C 780.208 -1.59011 1.2409 0
M  V30 8295 C 780.521 -1.94655 -0.192029 0
M  V30 8296 O 781.727 -2.68438 -0.406617 0
M  V30 8297 C 780.183 -2.86801 2.17425 0
M  V30 8298 C 779.791 -2.58525 3.65881 0
M  V30 8299 C 781.535 -3.64823 2.17036 0
M  V30 8300 C 779.442 -3.82404 4.51133 0
M  V30 8301 H 778.372 -0.596731 0.460899 0
M  V30 8302 H 781.023 -0.926274 1.58406 0
M  V30 8303 H 779.405 -3.54719 1.7604 0
M  V30 8304 H 780.579 -1.98824 4.15699 0
M  V30 8305 H 778.894 -1.93808 3.68548 0
M  V30 8306 H 781.491 -4.56774 2.7796 0
M  V30 8307 H 781.834 -3.99663 1.16513 0
M  V30 8308 H 782.367 -3.03826 2.56777 0
M  V30 8309 H 779.106 -3.52696 5.52527 0
M  V30 8310 H 778.626 -4.41447 4.0606 0
M  V30 8311 H 780.305 -4.49995 4.6488 0
M  V30 8312 N 780.437 -1.16799 -1.0581 0
M  V30 8313 C 781.683 -0.953935 -1.78963 0
M  V30 8314 C 782.016 0.516638 -1.87202 0
M  V30 8315 O 781.291 1.38338 -1.36721 0
M  V30 8316 C 781.574 -1.58808 -3.23191 0
M  V30 8317 C 781.427 -3.13032 -3.23003 0
M  V30 8318 C 782.746 -1.2868 -4.20867 0
M  V30 8319 H 779.865 -0.347972 -0.64968 0
M  V30 8320 H 782.507 -1.44204 -1.23715 0
M  V30 8321 H 780.657 -1.17303 -3.70368 0
M  V30 8322 H 782.329 -3.63553 -2.83949 0
M  V30 8323 H 780.572 -3.46108 -2.61518 0
M  V30 8324 H 781.243 -3.52527 -4.24769 0
M  V30 8325 H 783.719 -1.6461 -3.82155 0
M  V30 8326 H 782.595 -1.75645 -5.20038 0
M  V30 8327 H 782.856 -0.206491 -4.41618 0
M  V30 8328 N 781.915 1.24427 -0.967243 0
M  V30 8329 C 782.847 2.24641 -0.454856 0
M  V30 8330 C 783.86 1.56849 0.436152 0
M  V30 8331 O 785.049 1.76846 0.242401 0
M  V30 8332 C 782.149 3.36954 0.362672 0
M  V30 8333 C 781.322 4.34318 -0.518324 0
M  V30 8334 C 780.381 5.25638 0.243122 0
M  V30 8335 O 779.407 5.68043 -0.362791 0
M  V30 8336 N 780.609 5.59897 1.53282 0
M  V30 8337 H 783.374 2.69238 -1.31648 0
M  V30 8338 H 780.935 1.38464 -0.839015 0
M  V30 8339 H 782.927 3.95014 0.880094 0
M  V30 8340 H 781.497 2.91646 1.12522 0
M  V30 8341 H 780.717 3.74953 -1.21672 0
M  V30 8342 H 782.005 4.96338 -1.11919 0
M  V30 8343 H 781.403 5.27373 2.04682 0
M  V30 8344 H 779.96 6.20488 1.99594 0
M  V30 8345 N 783.393 0.737304 1.3929 0
M  V30 8346 C 784.356 0.10731 2.28949 0
M  V30 8347 C 785.356 -0.664716 1.46418 0
M  V30 8348 O 786.546 -0.493392 1.67067 0
M  V30 8349 C 783.678 -0.857145 3.29948 0
M  V30 8350 H 784.871 0.89725 2.86163 0
M  V30 8351 H 782.424 0.503279 1.47976 0
M  V30 8352 H 783.159 -1.67336 2.77794 0
M  V30 8353 H 782.944 -0.306167 3.90903 0
M  V30 8354 H 784.434 -1.29444 3.97031 0
M  V30 8355 N 784.871 -1.49948 0.485112 0
M  V30 8356 C 785.834 -2.27351 -0.290546 0
M  V30 8357 C 786.834 -1.32704 -0.908087 0
M  V30 8358 O 788.024 -1.56007 -0.775085 0
M  V30 8359 C 785.156 -3.10135 -1.41524 0
M  V30 8360 H 786.349 -2.97374 0.388454 0
M  V30 8361 H 783.902 -1.54453 0.239586 0
M  V30 8362 H 784.637 -2.44641 -2.12888 0
M  V30 8363 H 784.422 -3.79705 -0.978074 0
M  V30 8364 H 785.912 -3.68638 -1.96204 0
M  V30 8365 N 786.349 -0.21828 -1.56081 0
M  V30 8366 C 787.296 0.693189 -2.20144 0
M  V30 8367 C 788.266 1.19274 -1.15598 0
M  V30 8368 O 789.451 1.25243 -1.4394 0
M  V30 8369 C 786.591 1.89715 -2.88275 0
M  V30 8370 C 785.704 1.4368 -4.07407 0
M  V30 8371 C 784.839 2.59807 -4.63329 0
M  V30 8372 C 783.878 2.10492 -5.74769 0
M  V30 8373 N 783.015 3.1988 -6.24997 0
M  V30 8374 H 787.855 0.14016 -2.9767 0
M  V30 8375 H 785.392 0.0574292 -1.46988 0
M  V30 8376 H 787.35 2.60398 -3.25958 0
M  V30 8377 H 785.98 2.42311 -2.13273 0
M  V30 8378 H 785.032 0.625007 -3.7523 0
M  V30 8379 H 786.344 1.03517 -4.8794 0
M  V30 8380 H 785.498 3.38577 -5.03438 0
M  V30 8381 H 784.237 3.03256 -3.81951 0
M  V30 8382 H 783.242 1.30182 -5.34165 0
M  V30 8383 H 784.467 1.68045 -6.5798 0
M  V30 8384 H 782.413 3.62817 -5.46534 0
M  V30 8385 H 782.33 2.83958 -7.00645 0
M  V30 8386 H 783.598 3.98796 -6.69763 0
M  V30 8387 N 787.827 1.57504 0.0551401 0
M  V30 8388 C 788.737 2.08198 1.08124 0
M  V30 8389 C 789.753 1.01496 1.41331 0
M  V30 8390 O 790.929 1.33073 1.51174 0
M  V30 8391 C 787.994 2.52968 2.37083 0
M  V30 8392 C 787.055 3.7404 2.10696 0
M  V30 8393 C 786.288 4.16665 3.33505 0
M  V30 8394 O 786.511 3.59019 4.4324 0
M  V30 8395 O 785.445 5.09324 3.20737 0
M  V30 8396 H 789.271 2.95977 0.680518 0
M  V30 8397 H 786.856 1.46933 0.270401 0
M  V30 8398 H 788.738 2.82211 3.12946 0
M  V30 8399 H 787.413 1.6831 2.76502 0
M  V30 8400 H 786.32 3.49855 1.32484 0
M  V30 8401 H 787.653 4.59601 1.76148 0
M  V30 8402 N 789.305 -0.326896 1.54172 0
M  V30 8403 C 790.268 -1.38515 1.8261 0
M  V30 8404 C 791.268 -1.44872 0.697771 0
M  V30 8405 O 792.458 -1.44957 0.966078 0
M  V30 8406 C 789.59 -2.77281 1.98313 0
M  V30 8407 H 790.783 -1.14556 2.77159 0
M  V30 8408 H 788.336 -0.562199 1.45839 0
M  V30 8409 H 789.071 -3.065 1.05964 0
M  V30 8410 H 788.856 -2.74061 2.80416 0
M  V30 8411 H 790.346 -3.53845 2.21773 0
M  V30 8412 N 790.784 -1.46188 -0.588786 0
M  V30 8413 C 791.732 -1.56653 -1.71938 0
M  V30 8414 C 792.726 -0.435354 -1.6371 0
M  V30 8415 O 793.932 -0.611996 -1.69277 0
M  V30 8416 H 790.307 -0.492408 -0.568365 0
M  V30 8417 H 792.278 -2.51724 -1.60242 0
M  V30 8418 C 791.027 -1.56822 -3.10326 0
M  V30 8419 H 790.35 -2.43198 -3.17325 0
M  V30 8420 H 791.79 -1.68199 -3.89211 0
M  V30 8421 C 790.249 -0.295802 -3.35599 0
M  V30 8422 O 790.779 0.616515 -3.96941 0
M  V30 8423 N 788.985 -0.185609 -2.90007 0
M  V30 8424 H 788.532 -0.928914 -2.40269 0
M  V30 8425 H 788.49 0.664883 -3.07289 0
M  V30 8426 N 792.262 0.832906 -1.33792 0
M  V30 8427 C 793.225 1.92471 -1.24449 0
M  V30 8428 C 794.225 1.59981 -0.162085 0
M  V30 8429 O 795.415 1.69208 -0.414029 0
M  V30 8430 C 792.547 3.28278 -0.919044 0
M  V30 8431 H 793.74 2.0218 -2.21502 0
M  V30 8432 H 791.293 1.0257 -1.17936 0
M  V30 8433 H 792.028 3.24263 0.048738 0
M  V30 8434 H 791.813 3.53241 -1.70187 0
M  V30 8435 H 793.303 4.08253 -0.878576 0
M  V30 8436 N 793.74 1.17359 1.05189 0
M  V30 8437 C 794.97 0.985099 1.81602 0
M  V30 8438 C 795.378 -0.469872 1.83273 0
M  V30 8439 O 794.721 -1.33806 1.25864 0
M  V30 8440 C 794.783 1.44956 3.2898 0
M  V30 8441 C 794.447 2.92666 3.50993 0
M  V30 8442 C 795.444 3.906 3.43115 0
M  V30 8443 C 793.129 3.30841 3.77954 0
M  V30 8444 C 795.123 5.24709 3.61883 0
M  V30 8445 C 792.81 4.65116 3.96371 0
M  V30 8446 C 793.808 5.61859 3.88335 0
M  V30 8447 O 793.496 6.93704 4.06238 0
M  V30 8448 H 793.228 0.348731 0.579105 0
M  V30 8449 H 795.782 1.56066 1.33539 0
M  V30 8450 H 794.012 0.817559 3.77959 0
M  V30 8451 H 795.701 1.22674 3.86919 0
M  V30 8452 H 796.467 3.62453 3.22262 0
M  V30 8453 H 792.346 2.5611 3.83313 0
M  V30 8454 H 795.89 6.00205 3.55527 0
M  V30 8455 H 791.787 4.92969 4.16715 0
M  V30 8456 H 792.555 7.00443 4.23463 0
M  V30 8457 N 795.218 -1.23913 0.973828 0
M  V30 8458 C 796.166 -2.27141 0.50098 0
M  V30 8459 C 797.16 -1.63623 -0.438631 0
M  V30 8460 O 798.366 -1.77253 -0.313247 0
M  V30 8461 H 794.741 -0.73817 0.14356 0
M  V30 8462 H 796.712 -2.64392 1.38346 0
M  V30 8463 C 795.461 -3.47195 -0.187377 0
M  V30 8464 H 794.784 -3.96318 0.526535 0
M  V30 8465 H 796.224 -4.21252 -0.481962 0
M  V30 8466 C 794.683 -3.05678 -1.41642 0
M  V30 8467 O 795.213 -3.1338 -2.51309 0
M  V30 8468 N 793.419 -2.60661 -1.28469 0
M  V30 8469 H 792.966 -2.54594 -0.39238 0
M  V30 8470 H 792.924 -2.33249 -2.10813 0
M  V30 8471 N 796.696 -0.74468 -1.38897 0
M  V30 8472 C 797.943 -0.296884 -2.00312 0
M  V30 8473 C 798.271 1.11878 -1.59102 0
M  V30 8474 O 797.526 1.7789 -0.815702 0
M  V30 8475 C 797.825 -0.357302 -3.55609 0
M  V30 8476 C 797.491 -1.72736 -4.16501 0
M  V30 8477 C 796.153 -2.10232 -4.32846 0
M  V30 8478 C 798.505 -2.62647 -4.50184 0
M  V30 8479 C 795.833 -3.3713 -4.80167 0
M  V30 8480 C 798.185 -3.88926 -4.98918 0
M  V30 8481 C 796.849 -4.26503 -5.1347 0
M  V30 8482 H 796.119 -0.108638 -0.732993 0
M  V30 8483 H 798.766 -0.953419 -1.66079 0
M  V30 8484 H 797.071 0.382805 -3.89925 0
M  V30 8485 H 798.768 0.0074596 -4.00999 0
M  V30 8486 H 795.358 -1.42585 -4.04187 0
M  V30 8487 H 799.542 -2.34945 -4.37166 0
M  V30 8488 H 794.798 -3.66174 -4.89619 0
M  V30 8489 H 798.972 -4.58745 -5.23952 0
M  V30 8490 H 796.599 -5.24896 -5.49898 0
M  V30 8491 N 798.174 1.49689 -0.493057 0
M  V30 8492 C 799.423 2.01622 0.0560733 0
M  V30 8493 C 799.736 1.37838 1.3878 0
M  V30 8494 O 800.942 1.81054 2.02316 0
M  V30 8495 C 799.398 3.59586 0.150409 0
M  V30 8496 C 799.006 4.32338 -1.1742 0
M  V30 8497 C 800.75 4.19489 0.650327 0
M  V30 8498 C 798.657 5.8214 -1.04246 0
M  V30 8499 H 797.587 0.753594 0.0247297 0
M  V30 8500 H 800.238 1.723 -0.631279 0
M  V30 8501 H 798.62 3.8559 0.902035 0
M  V30 8502 H 799.794 4.18042 -1.9385 0
M  V30 8503 H 798.109 3.84144 -1.60694 0
M  V30 8504 H 800.706 5.29181 0.766272 0
M  V30 8505 H 801.049 3.82326 1.6472 0
M  V30 8506 H 801.582 3.97775 -0.0445371 0
M  V30 8507 H 798.321 6.23814 -2.01336 0
M  V30 8508 H 797.841 5.98952 -0.31892 0
M  V30 8509 H 799.52 6.43004 -0.717957 0
M  V30 8510 N 799.652 0.226554 1.55963 0
M  V30 8511 C 800.585 -0.721625 2.1649 0
M  V30 8512 C 801.563 -1.18745 1.11078 0
M  V30 8513 O 802.747 -1.26929 1.3936 0
M  V30 8514 C 799.874 -1.97828 2.74921 0
M  V30 8515 C 798.92 -1.65202 3.93206 0
M  V30 8516 S 799.753 -0.772419 5.299 0
M  V30 8517 C 800.909 -2.03853 5.91773 0
M  V30 8518 H 801.142 -0.207192 2.96577 0
M  V30 8519 H 798.675 0.0111976 1.54396 0
M  V30 8520 H 800.633 -2.69982 3.09225 0
M  V30 8521 H 799.294 -2.46384 1.94817 0
M  V30 8522 H 798.487 -2.58583 4.32609 0
M  V30 8523 H 798.089 -1.01108 3.60074 0
M  V30 8524 H 800.381 -2.98799 6.08051 0
M  V30 8525 H 801.324 -1.68831 6.87678 0
M  V30 8526 H 801.732 -2.18134 5.20651 0
M  V30 8527 N 801.13 -1.57531 -0.0467866 0
M  V30 8528 C 802.407 -1.79568 -0.775536 0
M  V30 8529 C 802.787 -0.820322 -1.94509 0
M  V30 8530 O 802.135 0.14134 -2.28062 0
M  V30 8531 C 802.345 -3.26789 -1.22516 0
M  V30 8532 C 803.693 -3.91299 -1.64835 0
M  V30 8533 O 804.717 -3.30831 -1.3202 0
M  V30 8534 O 803.576 -4.97727 -2.25677 0
M  V30 8535 H 800.67 -0.737817 -0.373572 0
M  V30 8536 H 803.216 -1.69682 -0.0249302 0
M  V30 8537 H 801.988 -3.89357 -0.389446 0
M  V30 8538 H 801.611 -3.41496 -2.03633 0
M  V30 8539 N 802.608 0.318715 -1.54344 0
M  V30 8540 C 803.538 1.39751 -1.87061 0
M  V30 8541 C 804.519 1.53741 -0.727848 0
M  V30 8542 O 805.704 1.67541 -0.982016 0
M  V30 8543 C 802.834 2.76446 -2.10226 0
M  V30 8544 C 801.788 2.77239 -3.26071 0
M  V30 8545 C 801.114 4.17056 -3.34617 0
M  V30 8546 C 802.414 2.40555 -4.63606 0
M  V30 8547 H 804.108 1.12619 -2.77412 0
M  V30 8548 H 801.654 0.540318 -1.33479 0
M  V30 8549 H 803.607 3.51985 -2.31699 0
M  V30 8550 H 802.331 3.05066 -1.16629 0
M  V30 8551 H 800.99 2.04155 -3.04493 0
M  V30 8552 H 800.638 4.42824 -2.3857 0
M  V30 8553 H 800.338 4.18492 -4.12478 0
M  V30 8554 H 801.862 4.94401 -3.5833 0
M  V30 8555 H 803.276 3.05808 -4.84927 0
M  V30 8556 H 801.673 2.53234 -5.44052 0
M  V30 8557 H 802.743 1.35698 -4.65526 0
M  V30 8558 N 804.086 1.46499 0.581025 0
M  V30 8559 C 805.497 1.4604 1.16315 0
M  V30 8560 C 805.848 0.202154 1.95156 0
M  V30 8561 O 804.973 -0.694638 2.04948 0
M  V30 8562 C 805.568 2.64593 2.11604 0
M  V30 8563 C 804.127 2.6717 2.65136 0
M  V30 8564 C 803.274 2.38753 1.4104 0
M  V30 8565 H 806.225 1.54354 0.368871 0
M  V30 8566 H 806.246 2.40207 2.95095 0
M  V30 8567 H 805.758 3.56154 1.54194 0
M  V30 8568 H 803.859 1.79685 3.26411 0
M  V30 8569 H 803.972 3.67182 3.07757 0
M  V30 8570 H 802.336 1.88845 1.70908 0
M  V30 8571 H 803.119 3.32493 0.854588 0
M  V30 8572 N 805.565 -0.825799 1.34232 0
M  V30 8573 C 806.497 -1.94401 1.21413 0
M  V30 8574 C 807.51 -1.6218 0.141902 0
M  V30 8575 O 808.699 -1.74109 0.3935 0
M  V30 8576 C 805.799 -3.28257 0.842635 0
M  V30 8577 C 804.972 -3.88521 2.00924 0
M  V30 8578 C 804.031 -5.00752 1.61661 0
M  V30 8579 O 803.057 -5.19201 2.33279 0
M  V30 8580 N 804.259 -5.78084 0.52911 0
M  V30 8581 H 807.024 -2.05931 2.17744 0
M  V30 8582 H 804.585 -1.00223 1.27149 0
M  V30 8583 H 806.577 -4.00781 0.561822 0
M  V30 8584 H 805.147 -3.12585 -0.0304029 0
M  V30 8585 H 804.367 -3.08425 2.45495 0
M  V30 8586 H 805.655 -4.25516 2.78951 0
M  V30 8587 H 805.053 -5.65661 -0.0663322 0
M  V30 8588 H 803.61 -6.51072 0.308017 0
M  V30 8589 N 807.043 -1.17915 -1.04565 0
M  V30 8590 C 807.975 -0.859359 -2.1248 0
M  V30 8591 C 808.988 0.140922 -1.62189 0
M  V30 8592 O 810.177 -0.0862361 -1.78292 0
M  V30 8593 C 807.277 -0.261811 -3.37887 0
M  V30 8594 C 806.45 -1.30651 -4.17431 0
M  V30 8595 C 805.509 -0.725575 -5.21174 0
M  V30 8596 O 804.535 -1.39901 -5.51739 0
M  V30 8597 N 805.737 0.479351 -5.78517 0
M  V30 8598 H 808.502 -1.78818 -2.40508 0
M  V30 8599 H 806.063 -1.07885 -1.20716 0
M  V30 8600 H 808.055 0.14028 -4.04457 0
M  V30 8601 H 806.625 0.570929 -3.07342 0
M  V30 8602 H 805.845 -1.88412 -3.46258 0
M  V30 8603 H 807.133 -2.01099 -4.67372 0
M  V30 8604 H 806.531 1.04431 -5.55977 0
M  V30 8605 H 805.088 0.823427 -6.46578 0
M  V30 8606 N 808.521 1.23394 -0.980386 0
M  V30 8607 C 809.768 1.91809 -0.649261 0
M  V30 8608 C 810.096 1.765 0.817197 0
M  V30 8609 O 809.351 1.11979 1.60497 0
M  V30 8610 C 809.65 3.43542 -0.985588 0
M  V30 8611 C 809.316 3.79031 -2.44225 0
M  V30 8612 C 807.978 3.88429 -2.84035 0
M  V30 8613 C 810.33 3.96145 -3.38702 0
M  V30 8614 C 807.658 4.12368 -4.17336 0
M  V30 8615 C 810.01 4.21583 -4.71646 0
M  V30 8616 C 808.674 4.29203 -5.11215 0
M  V30 8617 H 807.944 0.70188 -0.237581 0
M  V30 8618 H 810.591 1.4642 -1.23424 0
M  V30 8619 H 808.896 3.90503 -0.318521 0
M  V30 8620 H 810.593 3.94708 -0.707596 0
M  V30 8621 H 807.183 3.7229 -2.12362 0
M  V30 8622 H 811.367 3.88274 -3.09123 0
M  V30 8623 H 806.623 4.1649 -4.47601 0
M  V30 8624 H 810.797 4.33769 -5.4481 0
M  V30 8625 H 808.424 4.47505 -6.14527 0
M  V30 8626 N 809.999 0.752036 1.385 0
M  V30 8627 C 811.276 0.233075 1.94206 0
M  V30 8628 C 811.656 -1.26838 1.68746 0
M  V30 8629 O 811.004 -2.04214 1.02513 0
M  V30 8630 C 811.214 0.58509 3.44061 0
M  V30 8631 C 812.562 0.543871 4.21102 0
M  V30 8632 O 813.586 0.523291 3.52335 0
M  V30 8633 O 812.445 0.553436 5.4369 0
M  V30 8634 H 809.539 0.0483049 0.825588 0
M  V30 8635 H 812.085 0.832053 1.47902 0
M  V30 8636 H 810.857 1.62212 3.56094 0
M  V30 8637 H 810.48 -0.0419738 3.97578 0
M  V30 8638 N 811.477 -1.49425 0.500989 0
M  V30 8639 C 812.705 -2.06861 -0.0403443 0
M  V30 8640 C 813.12 -1.36132 -1.30819 0
M  V30 8641 O 812.477 -0.439647 -1.77125 0
M  V30 8642 C 812.528 -3.6027 -0.297902 0
M  V30 8643 O 812.249 -4.28338 0.919686 0
M  V30 8644 C 813.75 -4.34419 -0.882876 0
M  V30 8645 H 810.97 -0.670688 0.0204619 0
M  V30 8646 H 813.514 -1.92207 0.698342 0
M  V30 8647 H 811.669 -3.74627 -0.98657 0
M  V30 8648 H 812.083 -5.2004 0.682528 0
M  V30 8649 H 813.557 -5.42631 -1.01268 0
M  V30 8650 H 814.034 -3.96898 -1.88066 0
M  V30 8651 H 814.64 -4.24669 -0.231677 0
M  V30 8652 N 812.955 -0.234822 -1.55841 0
M  V30 8653 C 813.885 0.664217 -2.23854 0
M  V30 8654 C 814.866 1.19076 -1.2147 0
M  V30 8655 O 816.051 1.23232 -1.50091 0
M  V30 8656 C 813.181 1.86666 -2.9287 0
M  V30 8657 C 812.135 1.47341 -4.01839 0
M  V30 8658 C 811.461 2.75571 -4.58219 0
M  V30 8659 C 812.761 0.653479 -5.18196 0
M  V30 8660 H 814.455 0.0971213 -2.99242 0
M  V30 8661 H 812.001 0.0452724 -1.43929 0
M  V30 8662 H 813.954 2.50116 -3.39146 0
M  V30 8663 H 812.678 2.45894 -2.1495 0
M  V30 8664 H 811.337 0.862314 -3.56314 0
M  V30 8665 H 810.985 3.32971 -3.77014 0
M  V30 8666 H 810.685 2.49987 -5.31771 0
M  V30 8667 H 812.209 3.39939 -5.07221 0
M  V30 8668 H 813.623 1.19198 -5.60771 0
M  V30 8669 H 812.02 0.494188 -5.98062 0
M  V30 8670 H 813.09 -0.337004 -4.83728 0
M  V30 8671 N 814.433 1.57553 0.0384317 0
M  V30 8672 C 815.679 1.89121 0.732199 0
M  V30 8673 C 816.012 0.831404 1.75503 0
M  V30 8674 O 815.287 -0.154642 1.93884 0
M  V30 8675 C 815.57 3.31338 1.41021 0
M  V30 8676 C 815.423 4.48004 0.401532 0
M  V30 8677 C 816.742 3.72318 2.34665 0
M  V30 8678 H 813.861 0.687819 0.264715 0
M  V30 8679 H 816.503 1.89999 -0.00496279 0
M  V30 8680 H 814.653 3.3072 2.03854 0
M  V30 8681 H 816.325 4.60755 -0.224159 0
M  V30 8682 H 814.568 4.32895 -0.280092 0
M  V30 8683 H 815.239 5.44377 0.91423 0
M  V30 8684 H 817.715 3.74243 1.81883 0
M  V30 8685 H 816.591 4.72652 2.7909 0
M  V30 8686 H 816.852 3.04062 3.20934 0
M  V30 8687 N 815.911 -0.310526 1.54511 0
M  V30 8688 C 817.159 -1.04484 1.72996 0
M  V30 8689 C 817.48 -1.88118 0.513479 0
M  V30 8690 O 816.75 -1.90119 -0.472384 0
M  V30 8691 H 815.33 -0.388747 0.637875 0
M  V30 8692 H 817.992 -0.343811 1.91844 0
M  V30 8693 H 817.088 -1.70341 2.61515 0
M  V30 8694 N 817.389 -1.46805 -0.573248 0
M  V30 8695 C 818.299 -1.60687 -1.70929 0
M  V30 8696 C 819.315 -0.490084 -1.66956 0
M  V30 8697 O 820.491 -0.755482 -1.86693 0
M  V30 8698 C 817.556 -1.60259 -3.07438 0
M  V30 8699 C 816.617 -2.83242 -3.22603 0
M  V30 8700 C 815.85 -2.82825 -4.52599 0
M  V30 8701 O 816.073 -1.92113 -5.37074 0
M  V30 8702 O 815.007 -3.74489 -4.71213 0
M  V30 8703 H 818.833 -2.56782 -1.62163 0
M  V30 8704 H 816.418 -1.29706 -0.741399 0
M  V30 8705 H 818.3 -1.6275 -3.88704 0
M  V30 8706 H 816.975 -0.673268 -3.16621 0
M  V30 8707 H 815.882 -2.86302 -2.40794 0
M  V30 8708 H 817.215 -3.75415 -3.18315 0
M  V30 8709 N 818.867 0.818669 -1.34668 0
M  V30 8710 C 820.115 1.57201 -1.27013 0
M  V30 8711 C 820.436 1.94354 0.158599 0
M  V30 8712 O 819.706 1.62626 1.09223 0
M  V30 8713 H 818.286 0.582919 -0.467135 0
M  V30 8714 H 820.948 0.977234 -1.6863 0
M  V30 8715 H 820.044 2.49291 -1.87778 0
M  V30 8716 N 820.346 1.18468 1.03938 0
M  V30 8717 C 821.594 0.978895 1.76811 0
M  V30 8718 C 821.915 -0.49257 1.88676 0
M  V30 8719 O 821.185 -1.3572 1.41269 0
M  V30 8720 H 819.765 0.359201 0.654968 0
M  V30 8721 H 822.427 1.49173 1.25433 0
M  V30 8722 H 821.523 1.418 2.78027 0
M  V30 8723 N 821.824 -1.22873 0.986916 0
M  V30 8724 C 823.072 -1.91084 0.658121 0
M  V30 8725 C 823.393 -1.77304 -0.811675 0
M  V30 8726 O 822.663 -1.15649 -1.58121 0
M  V30 8727 H 821.243 -0.707251 0.240427 0
M  V30 8728 H 823.905 -1.49357 1.25213 0
M  V30 8729 H 823.001 -2.98373 0.915428 0
M  V30 8730 N 823.302 -0.75937 -1.38099 0
M  V30 8731 C 824.234 -0.0956547 -2.29 0
M  V30 8732 C 825.247 0.677561 -1.4803 0
M  V30 8733 O 826.436 0.517696 -1.70828 0
M  V30 8734 C 823.536 0.88844 -3.27047 0
M  V30 8735 C 822.709 0.171652 -4.37063 0
M  V30 8736 C 821.768 1.06733 -5.15262 0
M  V30 8737 O 820.794 0.535698 -5.66674 0
M  V30 8738 N 821.996 2.39486 -5.28797 0
M  V30 8739 H 824.761 -0.876354 -2.86601 0
M  V30 8740 H 822.322 -0.61065 -1.49942 0
M  V30 8741 H 824.314 1.49079 -3.76241 0
M  V30 8742 H 822.884 1.57018 -2.70304 0
M  V30 8743 H 822.104 -0.611473 -3.89429 0
M  V30 8744 H 823.392 -0.324121 -5.07767 0
M  V30 8745 H 822.79 2.85127 -4.88589 0
M  V30 8746 H 821.347 2.94758 -5.81344 0
M  V30 8747 N 824.78 1.49157 -0.508906 0
M  V30 8748 C 825.713 2.26056 0.312103 0
M  V30 8749 C 826.691 1.30982 0.963456 0
M  V30 8750 O 827.875 1.60286 0.992002 0
M  V30 8751 C 825.002 3.06555 1.4402 0
M  V30 8752 C 824.048 4.16844 0.902414 0
M  V30 8753 S 824.881 5.35076 -0.213087 0
M  V30 8754 C 826.037 6.19132 0.917985 0
M  V30 8755 H 826.27 2.95343 -0.340559 0
M  V30 8756 H 823.803 1.51569 -0.294331 0
M  V30 8757 H 825.761 3.53517 2.08653 0
M  V30 8758 H 824.422 2.36722 2.0645 0
M  V30 8759 H 823.615 4.72714 1.74806 0
M  V30 8760 H 823.217 3.72513 0.333156 0
M  V30 8761 H 825.509 6.52556 1.82145 0
M  V30 8762 H 826.452 7.06982 0.397724 0
M  V30 8763 H 826.86 5.51839 1.18889 0
M  V30 8764 N 826.258 0.243083 1.55714 0
M  V30 8765 C 827.483 -0.389944 2.03701 0
M  V30 8766 C 827.908 -1.51025 1.12129 0
M  V30 8767 O 827.266 -1.80944 0.11352 0
M  V30 8768 C 827.314 -0.878649 3.49731 0
M  V30 8769 O 826.418 -1.98851 3.61292 0
M  V30 8770 H 825.759 -0.0855115 0.658471 0
M  V30 8771 H 828.289 0.368023 2.01263 0
M  V30 8772 H 828.299 -1.18287 3.90477 0
M  V30 8773 H 826.974 -0.0588107 4.15858 0
M  V30 8774 H 825.551 -1.68928 3.32442 0
M  V30 8775 N 827.736 -1.57571 -0.0300757 0
M  V30 8776 C 828.984 -1.88852 -0.719666 0
M  V30 8777 C 829.305 -0.840645 -1.75949 0
M  V30 8778 O 828.575 0.125854 -1.95495 0
M  V30 8779 H 827.155 -0.696965 -0.268792 0
M  V30 8780 H 829.817 -1.949 0.00373285 0
M  V30 8781 H 828.913 -2.87695 -1.20987 0
M  V30 8782 N 829.214 0.302327 -1.54673 0
M  V30 8783 C 830.462 1.03565 -1.73547 0
M  V30 8784 C 830.783 1.87843 -0.523448 0
M  V30 8785 O 830.053 1.90367 0.462295 0
M  V30 8786 H 828.633 0.385358 -0.639928 0
M  V30 8787 H 831.295 0.333632 -1.92023 0
M  V30 8788 H 830.391 1.68952 -2.62415 0
M  V30 8789 N 830.692 1.47107 0.565454 0
M  V30 8790 C 831.624 1.55024 1.6882 0
M  V30 8791 C 832.637 0.4371 1.56822 0
M  V30 8792 O 833.826 0.706315 1.63931 0
M  V30 8793 C 830.926 1.43069 3.0722 0
M  V30 8794 C 830.099 2.68807 3.45053 0
M  V30 8795 C 829.158 2.50806 4.62583 0
M  V30 8796 O 828.184 3.24593 4.67577 0
M  V30 8797 N 829.386 1.58093 5.58558 0
M  V30 8798 H 832.151 2.51836 1.62477 0
M  V30 8799 H 829.712 1.43382 0.751885 0
M  V30 8800 H 831.704 1.28773 3.83666 0
M  V30 8801 H 830.274 0.543721 3.07835 0
M  V30 8802 H 829.494 2.97923 2.58138 0
M  V30 8803 H 830.782 3.52298 3.67101 0
M  V30 8804 H 830.18 0.972807 5.57273 0
M  V30 8805 H 828.737 1.49753 6.34364 0
M  V30 8806 N 832.17 -0.811516 1.35101 0
M  V30 8807 C 833.117 -1.92308 1.27617 0
M  V30 8808 C 834.087 -1.6543 0.149091 0
M  V30 8809 O 835.272 -1.8789 0.331974 0
M  V30 8810 C 832.412 -3.28768 1.04908 0
M  V30 8811 C 831.525 -3.67865 2.26493 0
M  V30 8812 C 830.66 -4.9333 1.96974 0
M  V30 8813 C 829.699 -5.25041 3.1464 0
M  V30 8814 N 828.836 -6.41685 2.84929 0
M  V30 8815 H 833.676 -1.98041 2.22674 0
M  V30 8816 H 831.213 -0.968755 1.10696 0
M  V30 8817 H 833.171 -4.07426 0.897749 0
M  V30 8818 H 831.801 -3.22517 0.135151 0
M  V30 8819 H 830.853 -2.84507 2.52507 0
M  V30 8820 H 832.165 -3.87263 3.14371 0
M  V30 8821 H 831.319 -5.79803 1.78643 0
M  V30 8822 H 830.058 -4.75958 1.06374 0
M  V30 8823 H 829.063 -4.3706 3.33554 0
M  V30 8824 H 830.288 -5.44346 4.06035 0
M  V30 8825 H 828.234 -6.25747 1.96918 0
M  V30 8826 H 828.151 -6.6131 3.66341 0
M  V30 8827 H 829.419 -7.31198 2.70128 0
M  V30 8828 N 833.648 -1.19017 -1.03309 0
M  V30 8829 C 834.58 -0.881847 -2.11556 0
M  V30 8830 C 835.593 0.123711 -1.62329 0
M  V30 8831 O 836.782 -0.105141 -1.7819 0
M  V30 8832 C 833.882 -0.297634 -3.37591 0
M  V30 8833 C 833.055 -1.35072 -4.16022 0
M  V30 8834 C 832.114 -0.780812 -5.20375 0
M  V30 8835 O 831.14 -1.45745 -5.50224 0
M  V30 8836 N 832.342 0.417964 -5.78993 0
M  V30 8837 H 835.107 -1.81359 -2.38598 0
M  V30 8838 H 832.668 -1.0916 -1.19565 0
M  V30 8839 H 834.66 0.097374 -4.04583 0
M  V30 8840 H 833.23 0.538299 -3.0793 0
M  V30 8841 H 832.45 -1.92074 -3.4424 0
M  V30 8842 H 833.738 -2.06044 -4.65213 0
M  V30 8843 H 833.136 0.985281 -5.57054 0
M  V30 8844 H 831.693 0.754802 -6.47415 0
M  V30 8845 N 835.127 1.22348 -0.993418 0
M  V30 8846 C 836.543 1.43222 -0.704238 0
M  V30 8847 C 836.743 1.88009 0.724909 0
M  V30 8848 O 835.799 2.03429 1.49575 0
M  V30 8849 C 837.112 2.47328 -1.71025 0
M  V30 8850 C 838.66 2.61126 -1.72576 0
M  V30 8851 C 839.135 3.68453 -2.72041 0
M  V30 8852 N 840.626 3.75911 -2.70639 0
M  V30 8853 C 841.361 4.58551 -3.44266 0
M  V30 8854 N 840.857 5.45179 -4.27495 0
M  V30 8855 N 842.65 4.52866 -3.32969 0
M  V30 8856 H 834.801 0.915832 -1.91641 0
M  V30 8857 H 837.064 0.464283 -0.826526 0
M  V30 8858 H 836.77 2.21366 -2.73295 0
M  V30 8859 H 836.644 3.45939 -1.50353 0
M  V30 8860 H 839.031 2.86431 -0.710037 0
M  V30 8861 H 839.112 1.62787 -1.97317 0
M  V30 8862 H 838.756 3.43895 -3.73763 0
M  V30 8863 H 838.686 4.66362 -2.4457 0
M  V30 8864 H 841.177 3.14014 -2.10247 0
M  V30 8865 H 841.49 6.0526 -4.80499 0
M  V30 8866 H 839.835 5.44759 -4.31582 0
M  V30 8867 H 843.026 3.84215 -2.67389 0
M  V30 8868 H 843.199 5.17039 -3.90608 0
M  V30 8869 N 836.605 0.766683 1.37694 0
M  V30 8870 C 837.851 0.329201 2.0011 0
M  V30 8871 C 838.184 -1.09004 1.60723 0
M  V30 8872 O 837.459 -1.74895 0.850989 0
M  V30 8873 C 837.742 0.466989 3.57059 0
M  V30 8874 C 837.595 1.92828 4.06371 0
M  V30 8875 C 838.914 -0.131792 4.39903 0
M  V30 8876 H 836.033 0.12109 0.726984 0
M  V30 8877 H 838.675 0.968779 1.63446 0
M  V30 8878 H 836.825 -0.0775023 3.88423 0
M  V30 8879 H 838.497 2.53208 3.85595 0
M  V30 8880 H 836.74 2.43884 3.58752 0
M  V30 8881 H 837.411 1.97577 5.15429 0
M  V30 8882 H 839.887 0.332731 4.14768 0
M  V30 8883 H 838.763 -0.005217 5.489 0
M  V30 8884 H 839.024 -1.22156 4.24889 0
M  V30 8885 N 838.083 -1.48885 0.516809 0
M  V30 8886 C 839.046 -2.27916 -0.242256 0
M  V30 8887 C 840.046 -1.34601 -0.879735 0
M  V30 8888 O 841.236 -1.57616 -0.74182 0
M  V30 8889 C 838.368 -3.13067 -1.34914 0
M  V30 8890 H 839.561 -2.96483 0.451444 0
M  V30 8891 H 837.114 -1.5391 0.272294 0
M  V30 8892 H 837.849 -2.49102 -2.07651 0
M  V30 8893 H 837.634 -3.81695 -0.897313 0
M  V30 8894 H 839.124 -3.72716 -1.88341 0
M  V30 8895 N 839.561 -0.251338 -1.55583 0
M  V30 8896 C 840.81 0.372681 -1.98227 0
M  V30 8897 C 841.123 1.58743 -1.1428 0
M  V30 8898 O 842.329 2.28289 -1.46957 0
M  V30 8899 C 840.785 0.714439 -3.52738 0
M  V30 8900 C 840.393 -0.479168 -4.4543 0
M  V30 8901 C 842.137 1.3024 -4.04027 0
M  V30 8902 C 840.044 -0.113318 -5.91291 0
M  V30 8903 H 838.974 0.14302 -0.740312 0
M  V30 8904 H 841.625 -0.352253 -1.80087 0
M  V30 8905 H 840.007 1.49762 -3.66589 0
M  V30 8906 H 841.181 -1.25644 -4.4334 0
M  V30 8907 H 839.496 -0.982359 -4.04646 0
M  V30 8908 H 842.093 1.58953 -5.10527 0
M  V30 8909 H 842.436 2.22837 -3.51638 0
M  V30 8910 H 842.969 0.582024 -3.93519 0
M  V30 8911 H 839.708 -1.00654 -6.47726 0
M  V30 8912 H 839.228 0.627666 -5.96507 0
M  V30 8913 H 840.907 0.30293 -6.4629 0
M  V30 8914 N 841.039 1.57585 0.0217189 0
M  V30 8915 C 842.002 2.06004 1.00474 0
M  V30 8916 C 843.002 0.965461 1.2859 0
M  V30 8917 O 844.192 1.22884 1.23471 0
M  V30 8918 C 841.324 2.48319 2.33561 0
M  V30 8919 H 842.517 2.94112 0.586346 0
M  V30 8920 H 840.07 1.53973 0.268716 0
M  V30 8921 H 840.805 1.63389 2.80133 0
M  V30 8922 H 840.59 3.28239 2.1448 0
M  V30 8923 H 842.08 2.86181 3.04122 0
M  V30 8924 N 842.517 -0.29412 1.54831 0
M  V30 8925 C 843.933 -0.640167 1.46199 0
M  V30 8926 C 844.133 -1.90426 0.658798 0
M  V30 8927 O 843.189 -2.51932 0.169228 0
M  V30 8928 C 844.502 -0.786763 2.90225 0
M  V30 8929 C 846.05 -0.882201 3.0031 0
M  V30 8930 C 846.525 -1.06074 4.45547 0
M  V30 8931 N 848.016 -1.12678 4.49286 0
M  V30 8932 C 848.751 -1.28334 5.58854 0
M  V30 8933 N 848.247 -1.40845 6.78332 0
M  V30 8934 N 850.04 -1.31277 5.46555 0
M  V30 8935 H 842.191 0.536334 2.05517 0
M  V30 8936 H 844.454 0.178363 0.93107 0
M  V30 8937 H 844.16 0.0713018 3.51628 0
M  V30 8938 H 844.034 -1.67364 3.38037 0
M  V30 8939 H 846.421 -1.73075 2.39017 0
M  V30 8940 H 846.502 0.0288405 2.55784 0
M  V30 8941 H 846.146 -0.216935 5.07437 0
M  V30 8942 H 846.076 -1.98611 4.8771 0
M  V30 8943 H 848.567 -1.04335 3.63212 0
M  V30 8944 H 848.88 -1.52566 7.57591 0
M  V30 8945 H 847.225 -1.37888 6.81184 0
M  V30 8946 H 850.416 -1.2112 4.52159 0
M  V30 8947 H 850.589 -1.43136 6.31994 0
M  V30 8948 N 843.995 -1.47404 -0.557645 0
M  V30 8949 C 844.958 -1.59411 -1.64684 0
M  V30 8950 C 845.958 -0.469244 -1.53801 0
M  V30 8951 O 847.148 -0.734298 -1.57967 0
M  V30 8952 C 844.28 -1.5382 -3.04224 0
M  V30 8953 H 845.473 -2.56504 -1.55389 0
M  V30 8954 H 843.026 -1.35588 -0.777531 0
M  V30 8955 H 843.761 -0.581 -3.19053 0
M  V30 8956 H 843.546 -2.35456 -3.13533 0
M  V30 8957 H 845.036 -1.65358 -3.83466 0
M  V30 8958 N 845.473 0.80434 -1.35529 0
M  V30 8959 C 846.403 1.93086 -1.31301 0
M  V30 8960 C 847.384 1.69068 -0.187044 0
M  V30 8961 O 848.569 1.90399 -0.382359 0
M  V30 8962 C 845.699 3.29867 -1.0865 0
M  V30 8963 C 844.653 3.68373 -2.17911 0
M  V30 8964 C 843.979 5.0334 -1.80423 0
M  V30 8965 C 845.279 3.78516 -3.59893 0
M  V30 8966 H 846.973 1.96882 -2.25561 0
M  V30 8967 H 844.519 0.945841 -1.08581 0
M  V30 8968 H 846.472 4.08281 -1.04331 0
M  V30 8969 H 845.196 3.2642 -0.108359 0
M  V30 8970 H 843.855 2.92247 -2.21331 0
M  V30 8971 H 843.503 4.96399 -0.812213 0
M  V30 8972 H 843.203 5.30074 -2.53565 0
M  V30 8973 H 844.727 5.84191 -1.77633 0
M  V30 8974 H 846.141 4.47155 -3.58783 0
M  V30 8975 H 844.538 4.16721 -4.31814 0
M  V30 8976 H 845.608 2.8001 -3.95882 0
M  V30 8977 N 846.951 1.19563 1.02676 0
M  V30 8978 C 848.2 0.993864 1.75514 0
M  V30 8979 C 848.513 -0.475882 1.89723 0
M  V30 8980 O 849.719 -0.796525 2.59553 0
M  V30 8981 C 848.175 1.72937 3.15628 0
M  V30 8982 C 847.783 3.23937 3.09466 0
M  V30 8983 C 849.527 1.61092 3.92746 0
M  V30 8984 C 847.434 3.90067 4.44524 0
M  V30 8985 H 846.364 0.368244 0.657961 0
M  V30 8986 H 849.015 1.43081 1.14891 0
M  V30 8987 H 847.397 1.22025 3.76731 0
M  V30 8988 H 848.571 3.81983 2.57731 0
M  V30 8989 H 846.886 3.3608 2.45843 0
M  V30 8990 H 849.483 2.07848 4.92649 0
M  V30 8991 H 849.826 0.565415 4.12442 0
M  V30 8992 H 850.359 2.09361 3.3825 0
M  V30 8993 H 847.098 4.94725 4.30032 0
M  V30 8994 H 846.618 3.36809 4.96306 0
M  V30 8995 H 848.297 3.93736 5.13401 0
M  V30 8996 N 848.429 -1.21819 0.999893 0
M  V30 8997 C 849.845 -1.42847 0.711824 0
M  V30 8998 C 850.045 -1.88391 -0.714928 0
M  V30 8999 O 849.101 -2.0422 -1.48494 0
M  V30 9000 C 850.414 -2.46417 1.72334 0
M  V30 9001 C 851.962 -2.60207 1.73958 0
M  V30 9002 C 852.437 -3.67005 2.73992 0
M  V30 9003 N 853.928 -3.7447 2.72628 0
M  V30 9004 C 854.663 -4.56718 3.46693 0
M  V30 9005 N 854.159 -5.42904 4.3038 0
M  V30 9006 N 855.952 -4.51094 3.35366 0
M  V30 9007 H 848.103 -0.905656 1.92124 0
M  V30 9008 H 850.366 -0.459893 0.828977 0
M  V30 9009 H 850.072 -2.19914 2.74465 0
M  V30 9010 H 849.946 -3.45137 1.52186 0
M  V30 9011 H 852.333 -2.8605 0.725217 0
M  V30 9012 H 852.414 -1.61739 1.98177 0
M  V30 9013 H 852.058 -3.41908 3.75582 0
M  V30 9014 H 851.988 -4.65058 2.4704 0
M  V30 9015 H 854.479 -3.12895 2.11909 0
M  V30 9016 H 854.792 -6.02704 4.83702 0
M  V30 9017 H 853.137 -5.42463 4.34464 0
M  V30 9018 H 856.328 -3.82791 2.69423 0
M  V30 9019 H 856.501 -5.1496 3.93344 0
M  V30 9020 N 849.908 -0.773975 -1.37286 0
M  V30 9021 C 850.856 -0.149581 -2.32119 0
M  V30 9022 C 851.85 0.682457 -1.55045 0
M  V30 9023 O 853.056 0.579269 -1.70424 0
M  V30 9024 H 849.431 -0.0295857 -0.751418 0
M  V30 9025 H 851.402 -0.965117 -2.82362 0
M  V30 9026 C 850.151 0.713409 -3.40302 0
M  V30 9027 H 849.474 0.0825416 -3.99715 0
M  V30 9028 H 850.914 1.11723 -4.09016 0
M  V30 9029 C 849.373 1.86498 -2.80571 0
M  V30 9030 O 849.903 2.9606 -2.71498 0
M  V30 9031 N 848.109 1.66629 -2.38082 0
M  V30 9032 H 847.656 0.775145 -2.45661 0
M  V30 9033 H 847.614 2.43845 -1.98461 0
M  V30 9034 N 851.386 1.48609 -0.524698 0
M  V30 9035 C 852.797 1.86516 -0.0828846 0
M  V30 9036 C 853.148 1.43478 1.33822 0
M  V30 9037 O 852.273 0.823139 2.00133 0
M  V30 9038 C 852.868 3.38495 -0.143639 0
M  V30 9039 C 851.427 3.75615 0.242951 0
M  V30 9040 C 850.574 2.72649 -0.505747 0
M  V30 9041 H 853.525 1.40589 -0.736233 0
M  V30 9042 H 853.546 3.74977 0.645955 0
M  V30 9043 H 853.058 3.69789 -1.17805 0
M  V30 9044 H 851.159 3.49935 1.27971 0
M  V30 9045 H 851.272 4.7901 -0.0929834 0
M  V30 9046 H 849.636 2.54656 0.0473482 0
M  V30 9047 H 850.419 3.06786 -1.54069 0
M  V30 9048 N 852.864 0.259585 1.55447 0
M  V30 9049 C 853.811 -0.634578 2.21905 0
M  V30 9050 C 854.781 -1.16168 1.18719 0
M  V30 9051 O 855.966 -1.21383 1.4721 0
M  V30 9052 C 853.106 -1.82005 2.93203 0
M  V30 9053 C 852.219 -1.32828 4.11073 0
M  V30 9054 C 851.354 -2.47431 4.70055 0
M  V30 9055 C 850.393 -1.95179 5.80148 0
M  V30 9056 N 849.53 -3.03197 6.33258 0
M  V30 9057 H 854.37 -0.0611886 2.97937 0
M  V30 9058 H 851.907 -0.0184378 1.47088 0
M  V30 9059 H 853.865 -2.51664 3.32748 0
M  V30 9060 H 852.495 -2.36571 2.19622 0
M  V30 9061 H 851.547 -0.525301 3.76756 0
M  V30 9062 H 852.859 -0.905435 4.90513 0
M  V30 9063 H 852.013 -3.25111 5.12238 0
M  V30 9064 H 850.752 -2.93023 3.89857 0
M  V30 9065 H 849.757 -1.15974 5.37429 0
M  V30 9066 H 850.982 -1.50541 6.62204 0
M  V30 9067 H 848.928 -3.48199 5.55961 0
M  V30 9068 H 848.845 -2.65282 7.07928 0
M  V30 9069 H 850.113 -3.80898 6.80101 0
M  V30 9070 N 854.342 -1.57594 -0.0133615 0
M  V30 9071 C 855.591 -1.8916 -0.700103 0
M  V30 9072 C 855.904 -0.860147 -1.75673 0
M  V30 9073 O 857.11 -1.06556 -2.49716 0
M  V30 9074 C 855.566 -3.35742 -1.29635 0
M  V30 9075 C 855.174 -4.47154 -0.275249 0
M  V30 9076 C 856.918 -3.76436 -1.96205 0
M  V30 9077 C 854.825 -5.84805 -0.880726 0
M  V30 9078 H 853.755 -0.705805 -0.265247 0
M  V30 9079 H 856.406 -1.83445 0.044993 0
M  V30 9080 H 854.788 -3.36252 -2.09167 0
M  V30 9081 H 855.962 -4.58139 0.494506 0
M  V30 9082 H 854.277 -4.15394 0.289256 0
M  V30 9083 H 856.874 -4.76606 -2.42386 0
M  V30 9084 H 857.217 -3.09249 -2.78695 0
M  V30 9085 H 857.75 -3.78168 -1.23426 0
M  V30 9086 H 854.489 -6.55431 -0.0949013 0
M  V30 9087 H 854.009 -5.7751 -1.61995 0
M  V30 9088 H 855.688 -6.32038 -1.38338 0
M  V30 9089 N 855.82 0.285905 -1.54985 0
M  V30 9090 C 856.75 1.35752 -1.89983 0
M  V30 9091 C 857.731 1.52163 -0.760295 0
M  V30 9092 O 858.916 1.65421 -1.01733 0
M  V30 9093 C 856.046 2.71925 -2.16042 0
M  V30 9094 C 855 2.70261 -3.31878 0
M  V30 9095 C 854.326 4.09864 -3.43388 0
M  V30 9096 C 855.626 2.30667 -4.68604 0
M  V30 9097 H 857.32 1.06709 -2.79738 0
M  V30 9098 H 854.866 0.511884 -1.34595 0
M  V30 9099 H 856.819 3.46992 -2.39113 0
M  V30 9100 H 855.543 3.02523 -1.23074 0
M  V30 9101 H 854.202 1.97651 -3.08755 0
M  V30 9102 H 853.85 4.37664 -2.47909 0
M  V30 9103 H 853.55 4.09648 -4.21262 0
M  V30 9104 H 855.074 4.86689 -3.68736 0
M  V30 9105 H 856.488 2.95453 -4.91305 0
M  V30 9106 H 854.885 2.41637 -5.49301 0
M  V30 9107 H 855.955 1.25793 -4.68299 0
M  V30 9108 N 857.298 1.47698 0.54982 0
M  V30 9109 C 858.228 1.63622 1.66583 0
M  V30 9110 C 859.209 0.485477 1.63025 0
M  V30 9111 O 860.394 0.715692 1.80531 0
M  V30 9112 C 857.524 1.65721 3.05211 0
M  V30 9113 C 856.478 2.80097 3.2362 0
M  V30 9114 C 855.804 2.67272 4.63109 0
M  V30 9115 C 857.104 4.21612 3.08286 0
M  V30 9116 H 858.798 2.57049 1.53512 0
M  V30 9117 H 856.344 1.23705 0.737099 0
M  V30 9118 H 858.297 1.75451 3.83138 0
M  V30 9119 H 857.021 0.688593 3.19258 0
M  V30 9120 H 855.68 2.69889 2.48104 0
M  V30 9121 H 855.328 1.68422 4.73965 0
M  V30 9122 H 855.028 3.44008 4.76374 0
M  V30 9123 H 856.552 2.78942 5.43161 0
M  V30 9124 H 857.966 4.32758 3.76024 0
M  V30 9125 H 856.363 4.99193 3.33057 0
M  V30 9126 H 857.433 4.39462 2.04942 0
M  V30 9127 N 858.776 -0.797141 1.35954 0
M  V30 9128 C 859.706 -1.92387 1.32323 0
M  V30 9129 C 860.687 -1.68967 0.196007 0
M  V30 9130 O 861.872 -1.90193 0.39245 0
M  V30 9131 C 859.002 -3.29286 1.10398 0
M  V30 9132 C 857.956 -3.67212 2.19862 0
M  V30 9133 C 857.282 -5.02377 1.8309 0
M  V30 9134 C 858.582 -3.76602 3.61896 0
M  V30 9135 H 860.276 -1.95683 2.26602 0
M  V30 9136 H 857.822 -0.94007 1.09081 0
M  V30 9137 H 859.775 -4.07721 1.06495 0
M  V30 9138 H 858.499 -3.26358 0.125668 0
M  V30 9139 H 857.158 -2.91069 2.22878 0
M  V30 9140 H 856.806 -4.95961 0.838527 0
M  V30 9141 H 856.506 -5.28722 2.56372 0
M  V30 9142 H 858.03 -5.8324 1.80729 0
M  V30 9143 H 859.444 -4.45246 3.6115 0
M  V30 9144 H 857.841 -4.14425 4.34018 0
M  V30 9145 H 858.911 -2.77906 3.97361 0
M  V30 9146 N 860.254 -1.20106 -1.0204 0
M  V30 9147 C 861.531 -0.918029 -1.72718 0
M  V30 9148 C 861.911 0.574163 -2.03142 0
M  V30 9149 O 861.259 1.53476 -1.69285 0
M  V30 9150 C 861.469 -1.78698 -2.9978 0
M  V30 9151 C 862.817 -2.02648 -3.7312 0
M  V30 9152 O 863.841 -1.75919 -3.09727 0
M  V30 9153 O 862.7 -2.47767 -4.87107 0
M  V30 9154 H 859.794 -0.342904 -0.752559 0
M  V30 9155 H 862.34 -1.30961 -1.07923 0
M  V30 9156 H 861.112 -2.79757 -2.7359 0
M  V30 9157 H 860.735 -1.39522 -3.72316 0
M  V30 9158 N 861.732 1.21287 -1.00634 0
M  V30 9159 C 862.665 2.22366 -0.512687 0
M  V30 9160 C 863.643 1.56692 0.434332 0
M  V30 9161 O 864.827 1.85094 0.35674 0
M  V30 9162 C 861.954 3.37738 0.255139 0
M  V30 9163 C 861 4.21673 -0.639883 0
M  V30 9164 S 861.833 4.92474 -2.10308 0
M  V30 9165 C 862.989 6.11275 -1.34512 0
M  V30 9166 H 863.222 2.63896 -1.36918 0
M  V30 9167 H 860.755 1.31176 -0.814387 0
M  V30 9168 H 862.713 4.04624 0.692067 0
M  V30 9169 H 861.374 2.94689 1.08707 0
M  V30 9170 H 860.567 5.03977 -0.0483821 0
M  V30 9171 H 860.169 3.59988 -1.01414 0
M  V30 9172 H 862.461 6.7466 -0.619721 0
M  V30 9173 H 863.404 6.74864 -2.14393 0
M  V30 9174 H 863.812 5.58026 -0.852506 0
M  V30 9175 N 863.21 0.781244 1.36873 0
M  V30 9176 C 864.173 0.180094 2.28491 0
M  V30 9177 C 865.173 -0.617798 1.48458 0
M  V30 9178 O 866.363 -0.439991 1.68552 0
M  V30 9179 C 863.495 -0.751741 3.32508 0
M  V30 9180 H 864.688 0.987837 2.83164 0
M  V30 9181 H 862.241 0.550102 1.463 0
M  V30 9182 H 862.976 -1.58413 2.82977 0
M  V30 9183 H 862.761 -0.181649 3.91679 0
M  V30 9184 H 864.251 -1.16748 4.00949 0
M  V30 9185 N 864.689 -1.48329 0.532571 0
M  V30 9186 C 865.917 -2.069 0.00354299 0
M  V30 9187 C 866.332 -1.38876 -1.27902 0
M  V30 9188 O 865.689 -0.477119 -1.76153 0
M  V30 9189 C 865.74 -3.60821 -0.221416 0
M  V30 9190 O 865.461 -4.26291 1.01034 0
M  V30 9191 C 866.962 -4.36194 -0.790531 0
M  V30 9192 H 864.182 -0.670103 0.0346836 0
M  V30 9193 H 866.726 -1.90682 0.738955 0
M  V30 9194 H 864.881 -3.76636 -0.906884 0
M  V30 9195 H 865.295 -5.18475 0.792683 0
M  V30 9196 H 866.769 -5.44657 -0.897347 0
M  V30 9197 H 867.246 -4.00798 -1.79605 0
M  V30 9198 H 867.852 -4.25064 -0.141546 0
M  V30 9199 N 866.167 -0.267825 -1.55308 0
M  V30 9200 C 867.392 0.357487 -2.04296 0
M  V30 9201 C 867.817 1.49222 -1.14518 0
M  V30 9202 O 867.175 1.80741 -0.142292 0
M  V30 9203 C 867.223 0.822899 -3.51085 0
M  V30 9204 O 866.327 1.93078 -3.6441 0
M  V30 9205 H 865.668 0.075025 -0.659748 0
M  V30 9206 H 868.198 -0.399996 -2.00652 0
M  V30 9207 H 868.208 1.12059 -3.92309 0
M  V30 9208 H 866.883 -0.0073562 -4.15899 0
M  V30 9209 H 865.46 1.63618 -3.35087 0
M  V30 9210 N 867.645 1.57599 0.00500368 0
M  V30 9211 C 868.608 2.07058 0.982832 0
M  V30 9212 C 869.608 0.979045 1.27559 0
M  V30 9213 O 870.798 1.24187 1.22161 0
M  V30 9214 C 867.93 2.50782 2.30914 0
M  V30 9215 H 869.123 2.94718 0.555119 0
M  V30 9216 H 866.676 1.54249 0.25237 0
M  V30 9217 H 867.411 1.66351 2.78385 0
M  V30 9218 H 867.196 3.30495 2.10987 0
M  V30 9219 H 868.686 2.89391 3.0107 0
M  V30 9220 N 869.123 -0.277682 1.55134 0
M  V30 9221 C 870.053 -1.34742 1.90701 0
M  V30 9222 C 871.034 -1.51757 0.768354 0
M  V30 9223 O 872.219 -1.64879 1.02609 0
M  V30 9224 C 869.349 -2.70775 2.17481 0
M  V30 9225 C 868.303 -2.68497 3.33307 0
M  V30 9226 C 867.629 -4.08037 3.45557 0
M  V30 9227 C 868.929 -2.28178 4.69821 0
M  V30 9228 H 870.623 -1.05224 2.803 0
M  V30 9229 H 868.169 -0.504738 1.34864 0
M  V30 9230 H 870.122 -3.45719 2.40949 0
M  V30 9231 H 868.846 -3.01867 1.24676 0
M  V30 9232 H 867.505 -1.9601 3.09799 0
M  V30 9233 H 867.153 -4.36344 2.50226 0
M  V30 9234 H 866.853 -4.07409 4.23429 0
M  V30 9235 H 868.377 -4.84726 3.71312 0
M  V30 9236 H 869.791 -2.92843 4.92865 0
M  V30 9237 H 868.188 -2.3872 5.50575 0
M  V30 9238 H 869.258 -1.23308 4.6896 0
M  V30 9239 N 870.601 -1.47988 -0.541979 0
M  V30 9240 C 871.878 -1.45878 -1.30303 0
M  V30 9241 C 872.258 -0.163931 -2.10463 0
M  V30 9242 O 871.606 0.854479 -2.11922 0
M  V30 9243 C 871.816 -2.71359 -2.19466 0
M  V30 9244 C 873.164 -3.19199 -2.79995 0
M  V30 9245 O 874.188 -2.72193 -2.2976 0
M  V30 9246 O 873.047 -4.00961 -3.71339 0
M  V30 9247 H 870.141 -0.582043 -0.587498 0
M  V30 9248 H 872.687 -1.60207 -0.559623 0
M  V30 9249 H 871.459 -3.57122 -1.59936 0
M  V30 9250 H 871.082 -2.59692 -3.01075 0
M  V30 9251 N 872.079 0.78992 -1.36375 0
M  V30 9252 C 873.027 1.92394 -1.30719 0
M  V30 9253 C 874.021 1.68226 -0.199076 0
M  V30 9254 O 875.227 1.76239 -0.366051 0
M  V30 9255 H 871.602 0.632382 -0.406936 0
M  V30 9256 H 873.573 1.94282 -2.26488 0
M  V30 9257 C 872.322 3.2941 -1.11284 0
M  V30 9258 H 871.645 3.48573 -1.95798 0
M  V30 9259 H 873.085 4.09111 -1.11373 0
M  V30 9260 C 871.544 3.36405 0.182543 0
M  V30 9261 O 872.074 3.84206 1.17255 0
M  V30 9262 N 870.28 2.89712 0.227046 0
M  V30 9263 H 869.827 2.51004 -0.579217 0
M  V30 9264 H 869.785 2.94773 1.09344 0
M  V30 9265 N 873.557 1.20646 1.01402 0
M  V30 9266 C 874.467 0.973385 2.13453 0
M  V30 9267 C 875.483 -0.0715865 1.73853 0
M  V30 9268 O 876.659 0.116438 2.01063 0
M  V30 9269 C 873.724 0.531285 3.42605 0
M  V30 9270 C 872.785 1.64741 3.96433 0
M  V30 9271 C 872.018 1.22631 5.1942 0
M  V30 9272 O 872.241 0.0960891 5.70319 0
M  V30 9273 O 871.175 2.03474 5.66465 0
M  V30 9274 H 875.001 1.91164 2.35987 0
M  V30 9275 H 872.586 0.990553 1.11841 0
M  V30 9276 H 874.468 0.294095 4.20373 0
M  V30 9277 H 873.143 -0.378358 3.21481 0
M  V30 9278 H 872.05 1.93891 3.19933 0
M  V30 9279 H 873.383 2.53415 4.2195 0
M  V30 9280 N 875.035 -1.20752 1.01276 0
M  V30 9281 C 876.26 -1.94547 0.718769 0
M  V30 9282 C 876.685 -1.7404 -0.713563 0
M  V30 9283 O 876.043 -1.03221 -1.49047 0
M  V30 9284 C 876.091 -3.44823 1.05497 0
M  V30 9285 O 875.195 -4.12072 0.164516 0
M  V30 9286 H 874.536 -0.607931 0.267051 0
M  V30 9287 H 877.066 -1.53292 1.35509 0
M  V30 9288 H 877.076 -3.95427 1.00507 0
M  V30 9289 H 875.751 -3.59072 2.09858 0
M  V30 9290 H 874.328 -3.71909 0.271615 0
M  V30 9291 N 876.513 -0.788492 -1.36457 0
M  V30 9292 C 877.423 -0.187385 -2.3385 0
M  V30 9293 C 878.439 0.659984 -1.60998 0
M  V30 9294 O 879.615 0.575986 -1.92988 0
M  V30 9295 C 876.68 0.668525 -3.40194 0
M  V30 9296 C 875.741 -0.197234 -4.28847 0
M  V30 9297 C 874.974 0.61792 -5.30111 0
M  V30 9298 O 875.197 1.85396 -5.3943 0
M  V30 9299 O 874.131 0.0183016 -6.01897 0
M  V30 9300 H 877.957 -0.992617 -2.87021 0
M  V30 9301 H 875.542 -0.549934 -1.3891 0
M  V30 9302 H 877.424 1.15663 -4.05216 0
M  V30 9303 H 876.099 1.45166 -2.89324 0
M  V30 9304 H 875.006 -0.73207 -3.66867 0
M  V30 9305 H 876.339 -0.943863 -4.83065 0
M  V30 9306 N 877.991 1.48044 -0.54043 0
M  V30 9307 C 878.954 2.28273 0.205966 0
M  V30 9308 C 879.954 1.35983 0.858209 0
M  V30 9309 O 881.144 1.58776 0.716651 0
M  V30 9310 C 878.276 3.15174 1.29917 0
M  V30 9311 H 879.469 2.95727 -0.498555 0
M  V30 9312 H 877.022 1.53457 -0.296745 0
M  V30 9313 H 877.757 2.52374 2.03661 0
M  V30 9314 H 877.542 3.83074 0.836475 0
M  V30 9315 H 879.032 3.75666 1.82387 0
M  V30 9316 N 879.47 0.276058 1.55163 0
M  V30 9317 C 880.403 -0.652386 2.18676 0
M  V30 9318 C 881.381 -1.15151 1.148 0
M  V30 9319 O 882.565 -1.22431 1.43328 0
M  V30 9320 C 879.692 -1.88982 2.81076 0
M  V30 9321 C 878.738 -1.52609 3.98262 0
M  V30 9322 S 879.571 -0.603445 5.32089 0
M  V30 9323 C 880.727 -1.84923 5.97958 0
M  V30 9324 H 880.96 -0.112733 2.97086 0
M  V30 9325 H 878.493 0.0603118 1.54282 0
M  V30 9326 H 880.451 -2.60007 3.17658 0
M  V30 9327 H 879.112 -2.40061 2.02557 0
M  V30 9328 H 878.305 -2.44689 4.40617 0
M  V30 9329 H 877.907 -0.89601 3.63108 0
M  V30 9330 H 880.199 -2.79303 6.17249 0
M  V30 9331 H 881.142 -1.46868 6.92702 0
M  V30 9332 H 881.55 -2.0146 5.27327 0
M  V30 9333 N 880.948 -1.576 0.00335426 0
M  V30 9334 C 882.194 -1.90996 -0.681799 0
M  V30 9335 C 882.527 -0.877643 -1.73237 0
M  V30 9336 O 881.802 0.103183 -1.94226 0
M  V30 9337 C 882.085 -3.34961 -1.32187 0
M  V30 9338 C 881.938 -4.48911 -0.28261 0
M  V30 9339 C 883.257 -3.78408 -2.24711 0
M  V30 9340 H 880.376 -0.694596 -0.246386 0
M  V30 9341 H 883.018 -1.89919 0.055336 0
M  V30 9342 H 881.168 -3.36008 -1.95014 0
M  V30 9343 H 882.84 -4.59999 0.346241 0
M  V30 9344 H 881.083 -4.32 0.394768 0
M  V30 9345 H 881.754 -5.46609 -0.769576 0
M  V30 9346 H 884.23 -3.78934 -1.71897 0
M  V30 9347 H 883.106 -4.79885 -2.66461 0
M  V30 9348 H 883.367 -3.12464 -3.1276 0
M  V30 9349 N 882.426 0.269451 -1.5528 0
M  V30 9350 C 883.358 1.35553 -1.84819 0
M  V30 9351 C 884.371 1.45369 -0.732914 0
M  V30 9352 O 885.56 1.47122 -1.0108 0
M  V30 9353 C 882.66 2.73645 -1.9993 0
M  V30 9354 C 881.833 2.86376 -3.30617 0
M  V30 9355 C 880.892 4.05165 -3.35749 0
M  V30 9356 O 879.918 3.95756 -4.09104 0
M  V30 9357 N 881.12 5.17297 -2.63408 0
M  V30 9358 H 883.885 1.10557 -2.78563 0
M  V30 9359 H 881.446 0.459566 -1.5524 0
M  V30 9360 H 883.438 3.51411 -2.00729 0
M  V30 9361 H 882.008 2.91448 -1.13035 0
M  V30 9362 H 881.228 1.95465 -3.42326 0
M  V30 9363 H 882.516 2.91815 -4.16799 0
M  V30 9364 H 881.914 5.2783 -2.03501 0
M  V30 9365 H 880.471 5.93281 -2.69927 0
M  V30 9366 N 883.904 1.48273 0.534124 0
M  V30 9367 C 884.814 1.65162 1.66609 0
M  V30 9368 C 885.83 0.534177 1.65598 0
M  V30 9369 O 887.006 0.804715 1.84625 0
M  V30 9370 C 884.071 1.68354 3.03081 0
M  V30 9371 C 883.132 2.91696 3.1498 0
M  V30 9372 C 882.365 2.94725 4.44941 0
M  V30 9373 O 882.588 2.06285 5.31792 0
M  V30 9374 O 881.522 3.8685 4.61119 0
M  V30 9375 H 885.348 2.60991 1.55298 0
M  V30 9376 H 882.933 1.31626 0.706749 0
M  V30 9377 H 884.815 1.72998 3.84252 0
M  V30 9378 H 883.49 0.756978 3.14725 0
M  V30 9379 H 882.397 2.92586 2.33119 0
M  V30 9380 H 883.73 3.83722 3.0825 0
M  V30 9381 N 885.382 -0.782676 1.36792 0
M  V30 9382 C 886.628 -1.54311 1.3159 0
M  V30 9383 C 886.961 -1.93928 -0.102696 0
M  V30 9384 O 886.236 -1.63233 -1.05761 0
M  V30 9385 C 886.519 -2.81561 2.24489 0
M  V30 9386 C 886.372 -2.48268 3.75078 0
M  V30 9387 C 887.691 -3.83428 2.16034 0
M  V30 9388 H 884.81 -0.559828 0.479335 0
M  V30 9389 H 887.452 -0.898717 1.67401 0
M  V30 9390 H 885.602 -3.36549 1.9408 0
M  V30 9391 H 887.274 -1.99279 4.16036 0
M  V30 9392 H 885.517 -1.81116 3.94182 0
M  V30 9393 H 886.188 -3.39183 4.35499 0
M  V30 9394 H 888.664 -3.37905 2.42815 0
M  V30 9395 H 887.54 -4.70204 2.83194 0
M  V30 9396 H 887.801 -4.26887 1.14976 0
M  V30 9397 N 886.86 -1.21182 -1.00761 0
M  V30 9398 C 887.79 -0.992773 -2.11344 0
M  V30 9399 C 888.771 0.0813618 -1.69905 0
M  V30 9400 O 889.956 -0.0779503 -1.94043 0
M  V30 9401 C 887.086 -0.553826 -3.42856 0
M  V30 9402 C 886.04 -1.57223 -3.98077 0
M  V30 9403 C 885.366 -0.989605 -5.25463 0
M  V30 9404 C 886.666 -2.95839 -4.30438 0
M  V30 9405 H 888.36 -1.91766 -2.29927 0
M  V30 9406 H 885.906 -0.923426 -1.10494 0
M  V30 9407 H 887.859 -0.387771 -4.19612 0
M  V30 9408 H 886.583 0.406702 -3.24058 0
M  V30 9409 H 885.242 -1.7258 -3.23437 0
M  V30 9410 H 884.89 -0.0208743 -5.02996 0
M  V30 9411 H 884.59 -1.66984 -5.63374 0
M  V30 9412 H 886.114 -0.834815 -6.04866 0
M  V30 9413 H 887.528 -2.8394 -4.98047 0
M  V30 9414 H 885.925 -3.60851 -4.79486 0
M  V30 9415 H 886.995 -3.46882 -3.38823 0
M  V30 9416 N 888.338 1.20213 -1.01915 0
M  V30 9417 C 889.563 1.94163 -0.729076 0
M  V30 9418 C 889.988 1.74416 0.704323 0
M  V30 9419 O 889.346 1.0401 1.48498 0
M  V30 9420 C 889.394 3.44258 -1.07324 0
M  V30 9421 O 888.498 4.11979 -0.186367 0
M  V30 9422 H 887.839 0.606506 -0.270272 0
M  V30 9423 H 890.369 1.52571 -1.3632 0
M  V30 9424 H 890.379 3.94888 -1.02603 0
M  V30 9425 H 889.054 3.57954 -2.11759 0
M  V30 9426 H 887.631 3.7176 -0.291334 0
M  V30 9427 N 889.816 0.795718 1.36037 0
M  V30 9428 C 890.763 0.196548 2.29962 0
M  V30 9429 C 891.733 -0.663213 1.52285 0
M  V30 9430 O 892.918 -0.610574 1.80767 0
M  V30 9431 C 890.058 -0.657639 3.38776 0
M  V30 9432 C 889.171 0.221358 4.31433 0
M  V30 9433 C 888.306 -0.6398 5.27333 0
M  V30 9434 C 887.345 0.240265 6.11628 0
M  V30 9435 N 886.482 -0.580237 6.99698 0
M  V30 9436 H 891.322 1.00295 2.80615 0
M  V30 9437 H 888.859 0.506147 1.38118 0
M  V30 9438 H 890.817 -1.16793 4.00519 0
M  V30 9439 H 889.447 -1.42941 2.89426 0
M  V30 9440 H 888.499 0.84967 3.70789 0
M  V30 9441 H 889.811 0.899195 4.90628 0
M  V30 9442 H 888.965 -1.21566 5.94396 0
M  V30 9443 H 887.704 -1.35124 4.68607 0
M  V30 9444 H 886.709 0.828474 5.43522 0
M  V30 9445 H 887.934 0.949403 6.72431 0
M  V30 9446 H 885.88 -1.27585 6.43473 0
M  V30 9447 H 885.797 0.0397853 7.5599 0
M  V30 9448 H 887.065 -1.13972 7.71123 0
M  V30 9449 N 891.294 -1.47756 0.548274 0
M  V30 9450 C 892.543 -2.01691 0.0187961 0
M  V30 9451 C 892.856 -1.42894 -1.33569 0
M  V30 9452 O 894.062 -1.88438 -1.95457 0
M  V30 9453 C 892.518 -3.59896 -0.016847 0
M  V30 9454 C 892.126 -4.27683 1.33385 0
M  V30 9455 C 893.87 -4.21614 -0.494188 0
M  V30 9456 C 891.777 -5.7787 1.2578 0
M  V30 9457 H 890.707 -0.753993 0.00325648 0
M  V30 9458 H 893.358 -1.69838 0.694792 0
M  V30 9459 H 891.74 -3.88672 -0.758304 0
M  V30 9460 H 892.914 -4.10559 2.09232 0
M  V30 9461 H 891.229 -3.77915 1.7484 0
M  V30 9462 H 893.826 -5.3166 -0.569342 0
M  V30 9463 H 894.169 -3.88176 -1.50417 0
M  V30 9464 H 894.702 -3.97336 0.192138 0
M  V30 9465 H 891.441 -6.15912 2.2435 0
M  V30 9466 H 890.961 -5.97355 0.540997 0
M  V30 9467 H 892.64 -6.39897 0.956109 0
M  V30 9468 N 892.772 -0.284283 -1.55015 0
M  V30 9469 C 893.704 0.63258 -2.20298 0
M  V30 9470 C 894.717 1.11045 -1.1905 0
M  V30 9471 O 895.906 1.03078 -1.4573 0
M  V30 9472 C 893.006 1.87599 -2.82241 0
M  V30 9473 C 892.179 1.5434 -4.09265 0
M  V30 9474 C 891.238 2.64023 -4.55169 0
M  V30 9475 O 890.264 2.29821 -5.20741 0
M  V30 9476 N 891.466 3.94255 -4.26079 0
M  V30 9477 H 894.231 0.0737928 -2.99609 0
M  V30 9478 H 891.792 -0.105767 -1.61554 0
M  V30 9479 H 893.784 2.60289 -3.0989 0
M  V30 9480 H 892.354 2.3436 -2.06868 0
M  V30 9481 H 891.574 0.649912 -3.88806 0
M  V30 9482 H 892.862 1.29634 -4.92009 0
M  V30 9483 H 892.26 4.24859 -3.73512 0
M  V30 9484 H 890.817 4.63295 -4.58477 0
M  V30 9485 N 894.251 1.57596 -0.0117121 0
M  V30 9486 C 895.201 2.05641 0.98467 0
M  V30 9487 C 896.185 0.953422 1.2961 0
M  V30 9488 O 897.377 1.21712 1.28512 0
M  V30 9489 C 894.506 2.57285 2.27286 0
M  V30 9490 C 893.592 3.74483 1.99057 0
M  V30 9491 N 893.983 4.85741 1.41029 0
M  V30 9492 C 892.281 3.82637 2.2914 0
M  V30 9493 C 892.982 5.67094 1.29536 0
M  V30 9494 N 891.958 5.13459 1.78497 0
M  V30 9495 H 895.76 2.89069 0.530702 0
M  V30 9496 H 893.274 1.6124 0.193717 0
M  V30 9497 H 895.271 2.89988 2.99521 0
M  V30 9498 H 893.931 1.75281 2.73325 0
M  V30 9499 H 894.942 5.06352 1.08756 0
M  V30 9500 H 891.619 3.11509 2.77972 0
M  V30 9501 H 893.009 6.66525 0.848144 0
M  V30 9502 N 895.729 -0.261212 1.5542 0
M  V30 9503 C 896.977 -0.989272 1.76232 0
M  V30 9504 C 897.298 -1.86389 0.573067 0
M  V30 9505 O 896.568 -1.91526 -0.41166 0
M  V30 9506 H 895.148 -0.368256 0.64992 0
M  V30 9507 H 897.81 -0.282603 1.9284 0
M  V30 9508 H 896.906 -1.61935 2.66802 0
M  V30 9509 N 897.207 -1.48554 -0.526253 0
M  V30 9510 C 898.157 -1.59753 -1.62674 0
M  V30 9511 C 899.141 -0.454452 -1.54349 0
M  V30 9512 O 900.333 -0.706091 -1.62306 0
M  V30 9513 C 897.462 -1.64388 -3.01383 0
M  V30 9514 C 896.548 -2.84188 -3.14798 0
M  V30 9515 N 896.939 -4.08564 -2.98176 0
M  V30 9516 C 895.237 -2.81599 -3.45859 0
M  V30 9517 C 895.938 -4.88961 -3.15106 0
M  V30 9518 N 894.914 -4.21848 -3.42849 0
M  V30 9519 H 898.716 -2.5366 -1.48438 0
M  V30 9520 H 896.23 -1.44977 -0.731801 0
M  V30 9521 H 898.227 -1.70505 -3.80439 0
M  V30 9522 H 896.887 -0.716006 -3.16707 0
M  V30 9523 H 897.898 -4.38943 -2.74862 0
M  V30 9524 H 894.575 -1.98083 -3.67518 0
M  V30 9525 H 895.965 -5.97683 -3.0696 0
M  V30 9526 N 898.685 0.775411 -1.37205 0
M  V30 9527 C 899.913 1.56446 -1.35397 0
M  V30 9528 C 900.328 1.887 0.0615437 0
M  V30 9529 O 899.685 1.51178 1.02233 0
M  V30 9530 C 899.736 2.87697 -2.18889 0
M  V30 9531 O 899.457 2.56828 -3.54924 0
M  V30 9532 C 900.958 3.81944 -2.25019 0
M  V30 9533 H 898.178 0.484792 -0.463916 0
M  V30 9534 H 900.722 0.961346 -1.80495 0
M  V30 9535 H 898.877 3.44442 -1.7731 0
M  V30 9536 H 899.291 3.40851 -3.98649 0
M  V30 9537 H 900.765 4.71055 -2.87769 0
M  V30 9538 H 901.242 4.20811 -1.25757 0
M  V30 9539 H 901.848 3.3113 -2.66895 0
M  V30 9540 N 900.163 1.21714 1.00117 0
M  V30 9541 C 901.412 1.03087 1.73367 0
M  V30 9542 C 901.725 -0.435532 1.90689 0
M  V30 9543 O 902.931 -0.741291 2.61184 0
M  V30 9544 C 901.387 1.79593 3.11888 0
M  V30 9545 C 900.995 3.30428 3.02525 0
M  V30 9546 C 902.739 1.69386 3.89241 0
M  V30 9547 C 900.646 3.99408 4.3615 0
M  V30 9548 H 899.576 0.382117 0.650002 0
M  V30 9549 H 902.227 1.45486 1.11831 0
M  V30 9550 H 900.609 1.29988 3.74058 0
M  V30 9551 H 901.783 3.87364 2.49571 0
M  V30 9552 H 900.098 3.4122 2.38659 0
M  V30 9553 H 902.695 2.18251 4.8813 0
M  V30 9554 H 903.038 0.652773 4.1115 0
M  V30 9555 H 903.571 2.16489 3.33733 0
M  V30 9556 H 900.31 5.03735 4.19442 0
M  V30 9557 H 899.83 3.47261 4.8905 0
M  V30 9558 H 901.509 4.04537 5.04934 0
M  V30 9559 N 901.641 -1.19671 1.02551 0
M  V30 9560 C 902.89 -1.88591 0.715272 0
M  V30 9561 C 903.203 -1.80274 -0.758982 0
M  V30 9562 O 904.409 -2.44413 -1.18213 0
M  V30 9563 C 902.865 -3.38264 1.22905 0
M  V30 9564 C 902.473 -3.55146 2.73084 0
M  V30 9565 C 904.217 -4.12683 0.994649 0
M  V30 9566 C 902.124 -4.98693 3.17897 0
M  V30 9567 H 901.054 -0.706326 0.263857 0
M  V30 9568 H 903.705 -1.35322 1.23936 0
M  V30 9569 H 902.087 -3.9091 0.632892 0
M  V30 9570 H 903.261 -3.12845 3.38326 0
M  V30 9571 H 901.576 -2.94112 2.94766 0
M  V30 9572 H 904.173 -5.18536 1.30478 0
M  V30 9573 H 904.516 -4.16243 -0.0686466 0
M  V30 9574 H 905.049 -3.66164 1.55464 0
M  V30 9575 H 901.788 -5.00293 4.23542 0
M  V30 9576 H 901.308 -5.4177 2.57381 0
M  V30 9577 H 902.987 -5.67327 3.11045 0
M  V30 9578 N 903.119 -0.802921 -1.35613 0
M  V30 9579 C 904.344 -0.392846 -2.03645 0
M  V30 9580 C 904.769 0.987075 -1.6012 0
M  V30 9581 O 904.127 1.63849 -0.776101 0
M  V30 9582 C 904.175 -0.480208 -3.57388 0
M  V30 9583 O 903.279 0.507751 -4.09262 0
M  V30 9584 H 902.62 -0.16464 -0.643265 0
M  V30 9585 H 905.15 -1.08779 -1.73287 0
M  V30 9586 H 905.16 -0.348683 -4.06507 0
M  V30 9587 H 903.835 -1.48675 -3.88418 0
M  V30 9588 H 902.412 0.336769 -3.71376 0
M  V30 9589 N 904.597 1.47463 -0.556102 0
M  V30 9590 C 905.843 2.02775 -0.0316806 0
M  V30 9591 C 906.176 1.42967 1.3143 0
M  V30 9592 O 905.451 0.584847 1.85499 0
M  V30 9593 C 905.734 3.60046 0.0625742 0
M  V30 9594 C 905.587 4.30288 -1.31043 0
M  V30 9595 C 906.906 4.33195 0.776553 0
M  V30 9596 H 904.025 0.736886 -0.0129869 0
M  V30 9597 H 906.667 1.75904 -0.718177 0
M  V30 9598 H 904.817 3.83071 0.647231 0
M  V30 9599 H 906.489 4.18607 -1.9382 0
M  V30 9600 H 904.732 3.90685 -1.8854 0
M  V30 9601 H 905.403 5.38861 -1.1972 0
M  V30 9602 H 907.879 4.15156 0.280147 0
M  V30 9603 H 906.755 5.42869 0.81146 0
M  V30 9604 H 907.016 4.02336 1.83244 0
M  V30 9605 N 906.075 0.2925 1.54862 0
M  V30 9606 C 907.038 -0.574423 2.21885 0
M  V30 9607 C 908.038 -1.06791 1.20218 0
M  V30 9608 O 909.228 -0.9653 1.45009 0
M  V30 9609 C 906.36 -1.79438 2.89853 0
M  V30 9610 H 907.553 0.0110319 2.99898 0
M  V30 9611 H 905.106 0.043256 1.5624 0
M  V30 9612 H 905.841 -2.4199 2.15897 0
M  V30 9613 H 905.626 -1.44827 3.64373 0
M  V30 9614 H 907.116 -2.41048 3.41007 0
M  V30 9615 N 907.553 -1.57587 0.0200696 0
M  V30 9616 C 908.503 -2.0616 -0.973751 0
M  V30 9617 C 909.487 -0.960282 -1.29102 0
M  V30 9618 O 910.679 -1.22391 -1.27865 0
M  V30 9619 C 907.808 -2.58487 -2.25919 0
M  V30 9620 C 906.894 -3.75533 -1.97068 0
M  V30 9621 N 907.285 -4.86482 -1.38451 0
M  V30 9622 C 905.583 -3.83847 -2.27107 0
M  V30 9623 C 906.284 -5.67773 -1.26527 0
M  V30 9624 N 905.26 -5.14398 -1.75772 0
M  V30 9625 H 909.062 -2.89346 -0.515365 0
M  V30 9626 H 906.576 -1.61341 -0.185163 0
M  V30 9627 H 908.573 -2.91572 -2.97979 0
M  V30 9628 H 907.233 -1.76728 -2.72392 0
M  V30 9629 H 908.244 -5.06922 -1.06069 0
M  V30 9630 H 904.921 -3.12978 -2.76316 0
M  V30 9631 H 906.311 -6.66966 -0.812785 0
M  V30 9632 N 909.032 0.252966 -1.55557 0
M  V30 9633 C 910.448 0.60118 -1.47844 0
M  V30 9634 C 910.648 1.88612 -0.709055 0
M  V30 9635 O 909.704 2.51395 -0.235964 0
M  V30 9636 C 911.017 0.709539 -2.92209 0
M  V30 9637 C 912.565 0.802269 -3.02544 0
M  V30 9638 C 913.04 0.94224 -4.48203 0
M  V30 9639 N 914.531 1.00726 -4.52116 0
M  V30 9640 C 915.266 1.13472 -5.6206 0
M  V30 9641 N 914.762 1.22811 -6.81828 0
M  V30 9642 N 916.555 1.1674 -5.49844 0
M  V30 9643 H 908.706 -0.590635 -2.04023 0
M  V30 9644 H 910.969 -0.202986 -0.926013 0
M  V30 9645 H 910.675 -0.164505 -3.51315 0
M  V30 9646 H 910.549 1.58343 -3.42356 0
M  V30 9647 H 912.936 1.66677 -2.43522 0
M  V30 9648 H 913.017 -0.0966469 -2.55617 0
M  V30 9649 H 912.661 0.0823209 -5.07833 0
M  V30 9650 H 912.591 1.85611 -4.92805 0
M  V30 9651 H 915.082 0.946684 -3.6585 0
M  V30 9652 H 915.395 1.32426 -7.61369 0
M  V30 9653 H 913.74 1.19779 -6.84601 0
M  V30 9654 H 916.931 1.09089 -4.55211 0
M  V30 9655 H 917.104 1.26329 -6.35567 0
M  V30 9656 N 910.51 1.48831 0.518367 0
M  V30 9657 C 911.44 1.67119 1.63075 0
M  V30 9658 C 912.421 0.519948 1.61958 0
M  V30 9659 O 913.606 0.753824 1.78972 0
M  V30 9660 C 910.736 1.72158 3.01627 0
M  V30 9661 C 909.69 2.86898 3.17606 0
M  V30 9662 C 909.016 2.77035 4.57335 0
M  V30 9663 C 910.316 4.28057 2.99274 0
M  V30 9664 H 912.01 2.60248 1.48025 0
M  V30 9665 H 909.556 1.2524 0.710694 0
M  V30 9666 H 911.509 1.83539 3.7933 0
M  V30 9667 H 910.233 0.756157 3.17726 0
M  V30 9668 H 908.892 2.75091 2.42323 0
M  V30 9669 H 908.54 1.78438 4.70286 0
M  V30 9670 H 908.24 3.54036 4.6897 0
M  V30 9671 H 909.764 2.904 5.37122 0
M  V30 9672 H 911.178 4.40636 3.6676 0
M  V30 9673 H 909.575 5.06145 3.22393 0
M  V30 9674 H 910.645 4.4371 1.95574 0
M  V30 9675 N 911.988 -0.768124 1.37614 0
M  V30 9676 C 913.213 -1.56239 1.36397 0
M  V30 9677 C 913.638 -1.8804 -0.0475839 0
M  V30 9678 O 912.996 -1.495 -1.02564 0
M  V30 9679 C 913.044 -2.84716 2.21289 0
M  V30 9680 O 912.148 -3.79249 1.62001 0
M  V30 9681 H 911.489 -0.473119 0.465891 0
M  V30 9682 H 914.019 -0.950415 1.81186 0
M  V30 9683 H 914.029 -3.33784 2.34632 0
M  V30 9684 H 912.704 -2.60899 3.2389 0
M  V30 9685 H 911.281 -3.37904 1.57719 0
M  V30 9686 N 913.466 -1.22244 -0.994698 0
M  V30 9687 C 914.694 -1.07218 -1.76952 0
M  V30 9688 C 915.109 0.377388 -1.8499 0
M  V30 9689 O 914.466 1.26157 -1.31874 0
M  V30 9690 C 914.517 -1.67496 -3.20355 0
M  V30 9691 O 914.238 -3.06782 -3.12756 0
M  V30 9692 C 915.739 -1.57721 -4.14294 0
M  V30 9693 H 912.959 -0.375966 -0.555779 0
M  V30 9694 H 915.503 -1.61799 -1.25065 0
M  V30 9695 H 913.658 -1.16982 -3.69315 0
M  V30 9696 H 914.072 -3.35784 -4.02926 0
M  V30 9697 H 915.546 -2.04623 -5.12673 0
M  V30 9698 H 916.023 -0.533434 -4.35949 0
M  V30 9699 H 916.629 -2.07531 -3.71229 0
M  V30 9700 N 914.944 1.19125 -1.03184 0
M  V30 9701 C 916.19 1.89163 -0.731111 0
M  V30 9702 C 916.523 1.79604 0.738662 0
M  V30 9703 O 915.798 1.19037 1.53819 0
M  V30 9704 C 916.081 3.39986 -1.18666 0
M  V30 9705 C 915.934 3.58401 -2.71788 0
M  V30 9706 C 917.253 4.33316 -0.769772 0
M  V30 9707 H 914.372 0.686908 -0.267069 0
M  V30 9708 H 917.014 1.40205 -1.28229 0
M  V30 9709 H 915.164 3.81813 -0.717736 0
M  V30 9710 H 916.836 3.25727 -3.26649 0
M  V30 9711 H 915.079 3.01355 -3.12038 0
M  V30 9712 H 915.75 4.64189 -2.98719 0
M  V30 9713 H 918.226 3.9922 -1.17314 0
M  V30 9714 H 917.102 5.37427 -1.11637 0
M  V30 9715 H 917.363 4.40884 0.327681 0
M  V30 9716 N 916.422 0.810101 1.35185 0
M  V30 9717 C 917.838 0.494269 1.51754 0
M  V30 9718 C 918.038 -0.983907 1.75845 0
M  V30 9719 O 917.094 -1.76882 1.80191 0
M  V30 9720 C 918.407 1.34268 2.69059 0
M  V30 9721 C 919.955 1.33848 2.82938 0
M  V30 9722 C 920.43 2.17109 4.03271 0
M  V30 9723 N 921.921 2.14664 4.10456 0
M  V30 9724 C 922.656 2.75843 5.02691 0
M  V30 9725 N 922.152 3.45962 6.00235 0
M  V30 9726 N 923.945 2.65465 4.95464 0
M  V30 9727 H 916.096 1.76736 1.17805 0
M  V30 9728 H 918.359 0.752429 0.576676 0
M  V30 9729 H 918.065 2.39183 2.57845 0
M  V30 9730 H 917.939 0.998362 3.63748 0
M  V30 9731 H 920.326 0.29716 2.936 0
M  V30 9732 H 920.407 1.72269 1.89095 0
M  V30 9733 H 920.051 3.21283 3.93369 0
M  V30 9734 H 919.981 1.76046 4.96302 0
M  V30 9735 H 922.472 1.63648 3.40628 0
M  V30 9736 H 922.785 3.89922 6.67219 0
M  V30 9737 H 921.13 3.50067 6.00398 0
M  V30 9738 H 924.321 2.1027 4.18215 0
M  V30 9739 H 924.494 3.13433 5.67154 0
M  V30 9740 N 917.9 -1.47166 0.563914 0
M  V30 9741 C 918.863 -2.28571 -0.169624 0
M  V30 9742 C 919.863 -1.37331 -0.836467 0
M  V30 9743 O 921.053 -1.59896 -0.6913 0
M  V30 9744 C 918.185 -3.17201 -1.24886 0
M  V30 9745 H 919.378 -2.94896 0.545539 0
M  V30 9746 H 916.931 -1.52966 0.321121 0
M  V30 9747 H 917.666 -2.55582 -1.99621 0
M  V30 9748 H 917.451 -3.84356 -0.775426 0
M  V30 9749 H 918.941 -3.7852 -1.76388 0
M  V30 9750 N 919.378 -0.300708 -1.54705 0
M  V30 9751 C 920.341 0.562648 -2.22187 0
M  V30 9752 C 921.341 1.06152 -1.20782 0
M  V30 9753 O 922.531 0.957596 -1.45519 0
M  V30 9754 C 919.663 1.77899 -2.908 0
M  V30 9755 H 920.856 -0.0269361 -2.99888 0
M  V30 9756 H 918.409 -0.0515412 -1.56215 0
M  V30 9757 H 919.144 2.40841 -2.17177 0
M  V30 9758 H 918.929 1.42892 -3.65136 0
M  V30 9759 H 920.419 2.39236 -3.42281 0
M  V30 9760 N 920.856 1.57574 -0.0284266 0
M  V30 9761 C 922.133 1.83064 0.688979 0
M  V30 9762 C 922.513 0.91219 1.90374 0
M  V30 9763 O 921.861 -0.0323672 2.28477 0
M  V30 9764 C 922.071 3.32262 1.06785 0
M  V30 9765 C 923.419 3.98717 1.45978 0
M  V30 9766 O 924.443 3.36753 1.16085 0
M  V30 9767 O 923.302 5.07927 2.01673 0
M  V30 9768 H 920.396 0.7548 0.337944 0
M  V30 9769 H 922.942 1.69607 -0.0560555 0
M  V30 9770 H 921.714 3.90772 0.203235 0
M  V30 9771 H 921.337 3.50823 1.87107 0
M  V30 9772 N 922.334 -0.244713 1.55689 0
M  V30 9773 C 923.562 -0.989944 1.8168 0
M  V30 9774 C 923.977 -1.78863 0.604449 0
M  V30 9775 O 923.334 -1.77437 -0.426907 0
M  V30 9776 C 923.385 -1.92607 3.05916 0
M  V30 9777 O 923.106 -1.1597 4.22472 0
M  V30 9778 C 924.607 -2.78711 3.44724 0
M  V30 9779 H 921.827 -0.2912 0.604519 0
M  V30 9780 H 924.371 -0.266938 2.0275 0
M  V30 9781 H 922.526 -2.60333 2.8689 0
M  V30 9782 H 922.94 -1.79311 4.92898 0
M  V30 9783 H 924.414 -3.40141 4.34751 0
M  V30 9784 H 924.891 -3.49935 2.6541 0
M  V30 9785 H 925.497 -2.16435 3.66109 0
M  V30 9786 N 923.813 -1.49104 -0.510467 0
M  V30 9787 C 925.062 -1.57362 -1.26175 0
M  V30 9788 C 925.375 -0.261218 -1.93848 0
M  V30 9789 O 926.581 -0.222238 -2.70589 0
M  V30 9790 C 925.037 -2.77606 -2.29048 0
M  V30 9791 C 924.645 -4.15567 -1.67357 0
M  V30 9792 C 926.389 -2.95188 -3.05064 0
M  V30 9793 C 924.296 -5.27046 -2.68285 0
M  V30 9794 H 923.226 -0.585887 -0.474608 0
M  V30 9795 H 925.877 -1.75474 -0.536753 0
M  V30 9796 H 924.259 -2.52968 -3.04669 0
M  V30 9797 H 925.433 -4.50304 -0.977924 0
M  V30 9798 H 923.748 -4.03264 -1.03765 0
M  V30 9799 H 926.345 -3.75643 -3.80521 0
M  V30 9800 H 926.688 -2.05385 -3.62108 0
M  V30 9801 H 927.221 -3.19821 -2.36558 0
M  V30 9802 H 923.96 -6.18878 -2.16034 0
M  V30 9803 H 923.48 -4.96774 -3.36118 0
M  V30 9804 H 925.159 -5.55983 -3.30896 0
M  V30 9805 N 925.291 0.760815 -1.38019 0
M  V30 9806 C 926.54 1.51506 -1.3315 0
M  V30 9807 C 926.853 1.95444 0.0782124 0
M  V30 9808 O 928.059 2.70352 0.249418 0
M  V30 9809 C 926.515 2.73636 -2.33776 0
M  V30 9810 C 926.123 2.36753 -3.80332 0
M  V30 9811 C 927.867 3.51548 -2.37937 0
M  V30 9812 C 925.774 3.55451 -4.72661 0
M  V30 9813 H 924.704 0.568844 -0.494907 0
M  V30 9814 H 927.355 0.832343 -1.63537 0
M  V30 9815 H 925.737 3.43852 -1.96422 0
M  V30 9816 H 926.911 1.7425 -4.26584 0
M  V30 9817 H 925.226 1.71991 -3.7922 0
M  V30 9818 H 927.823 4.39791 -3.04119 0
M  V30 9819 H 928.166 3.9219 -1.39617 0
M  V30 9820 H 928.699 2.88339 -2.74054 0
M  V30 9821 H 925.438 3.19882 -5.7215 0
M  V30 9822 H 924.958 4.17022 -4.31107 0
M  V30 9823 H 926.637 4.22125 -4.90326 0
M  V30 9824 N 926.769 1.22769 0.988202 0
M  V30 9825 C 928.017 1.05301 1.725 0
M  V30 9826 C 928.338 -0.412103 1.90596 0
M  V30 9827 O 927.608 -1.29606 1.46898 0
M  V30 9828 H 926.188 0.386658 0.639144 0
M  V30 9829 H 928.85 1.54359 1.18993 0
M  V30 9830 H 927.946 1.53465 2.71763 0
M  V30 9831 N 928.247 -1.18576 1.03814 0
M  V30 9832 C 929.494 -1.88493 0.740036 0
M  V30 9833 C 929.822 -1.80198 -0.732056 0
M  V30 9834 O 929.077 -1.19509 -1.54971 0
M  V30 9835 C 929.376 -3.38448 1.14837 0
M  V30 9836 C 929.042 -3.66947 2.62031 0
M  V30 9837 C 927.704 -3.74435 3.02244 0
M  V30 9838 C 930.056 -3.79534 3.57217 0
M  V30 9839 C 927.384 -3.91986 4.36536 0
M  V30 9840 C 929.736 -3.986 4.91223 0
M  V30 9841 C 928.4 -4.04323 5.31111 0
M  V30 9842 H 927.67 -0.689746 0.270798 0
M  V30 9843 H 930.317 -1.40364 1.3027 0
M  V30 9844 H 928.622 -3.88539 0.504472 0
M  V30 9845 H 930.319 -3.90882 0.89511 0
M  V30 9846 H 926.909 -3.61734 2.29883 0
M  V30 9847 H 931.093 -3.73083 3.27296 0
M  V30 9848 H 926.349 -3.9466 4.66962 0
M  V30 9849 H 930.523 -4.07281 5.64885 0
M  V30 9850 H 928.15 -4.17676 6.35178 0
M  V30 9851 N 929.725 -0.817259 -1.34754 0
M  V30 9852 C 930.635 -0.236946 -2.334 0
M  V30 9853 C 931.651 0.625685 -1.62361 0
M  V30 9854 O 932.827 0.534921 -1.94166 0
M  V30 9855 C 929.892 0.596215 -3.41535 0
M  V30 9856 C 928.953 -0.288154 -4.28332 0
M  V30 9857 C 928.186 0.505337 -5.31302 0
M  V30 9858 O 928.409 1.73912 -5.43241 0
M  V30 9859 O 927.343 -0.109374 -6.01801 0
M  V30 9860 H 931.169 -1.05327 -2.84851 0
M  V30 9861 H 928.754 -0.579275 -1.37713 0
M  V30 9862 H 930.636 1.07041 -4.07578 0
M  V30 9863 H 929.311 1.38997 -2.92338 0
M  V30 9864 H 928.218 -0.809724 -3.65232 0
M  V30 9865 H 929.551 -1.04612 -4.80955 0
M  V30 9866 N 931.203 1.46865 -0.571711 0
M  V30 9867 C 932.153 2.27219 0.188503 0
M  V30 9868 C 933.137 1.35221 0.872019 0
M  V30 9869 O 934.329 1.59474 0.76793 0
M  V30 9870 C 931.458 3.21321 1.20862 0
M  V30 9871 C 930.544 4.20803 0.527783 0
M  V30 9872 N 930.935 5.04132 -0.410403 0
M  V30 9873 C 929.233 4.39128 0.779909 0
M  V30 9874 C 929.934 5.76071 -0.80728 0
M  V30 9875 N 928.91 5.43368 -0.158865 0
M  V30 9876 H 932.712 2.89034 -0.532611 0
M  V30 9877 H 930.226 1.57581 -0.392696 0
M  V30 9878 H 932.223 3.77586 1.76733 0
M  V30 9879 H 930.883 2.61065 1.93067 0
M  V30 9880 H 931.894 5.11911 -0.785351 0
M  V30 9881 H 928.571 3.90031 1.48937 0
M  V30 9882 H 929.961 6.53082 -1.57903 0
M  V30 9883 N 932.681 0.308908 1.54543 0
M  V30 9884 C 933.929 -0.297447 1.99899 0
M  V30 9885 C 934.25 -1.53799 1.19878 0
M  V30 9886 O 933.52 -1.93639 0.29678 0
M  V30 9887 H 932.1 -0.112897 0.738419 0
M  V30 9888 H 934.762 0.422067 1.90275 0
M  V30 9889 H 933.858 -0.564016 3.06961 0
M  V30 9890 N 934.159 -1.57557 0.0367827 0
M  V30 9891 C 935.387 -1.96419 -0.650168 0
M  V30 9892 C 935.802 -0.913656 -1.6522 0
M  V30 9893 O 935.159 0.103718 -1.82205 0
M  V30 9894 C 935.21 -3.35355 -1.3498 0
M  V30 9895 O 934.931 -4.36379 -0.387905 0
M  V30 9896 C 936.432 -3.88892 -2.12786 0
M  V30 9897 H 933.652 -0.646751 -0.178756 0
M  V30 9898 H 936.196 -2.04261 0.0988197 0
M  V30 9899 H 934.351 -3.28708 -2.05012 0
M  V30 9900 H 934.765 -5.16969 -0.885596 0
M  V30 9901 H 936.239 -4.88428 -2.5718 0
M  V30 9902 H 936.716 -3.23547 -2.97008 0
M  V30 9903 H 937.322 -3.98831 -1.47694 0
M  V30 9904 N 935.637 0.236453 -1.55816 0
M  V30 9905 C 936.6 1.27633 -1.90375 0
M  V30 9906 C 937.6 1.40557 -0.781048 0
M  V30 9907 O 938.79 1.39078 -1.04895 0
M  V30 9908 C 935.922 2.65247 -2.14142 0
M  V30 9909 H 937.115 0.982019 -2.83366 0
M  V30 9910 H 934.668 0.476215 -1.48869 0
M  V30 9911 H 935.403 2.99801 -1.23653 0
M  V30 9912 H 935.188 2.57246 -2.95917 0
M  V30 9913 H 936.678 3.40313 -2.42026 0
M  V30 9914 N 937.115 1.49373 0.502552 0
M  V30 9915 C 938.361 1.59016 1.25864 0
M  V30 9916 C 938.694 0.27532 1.92238 0
M  V30 9917 O 937.969 -0.720988 1.80643 0
M  V30 9918 C 938.252 2.74828 2.32683 0
M  V30 9919 C 938.105 4.16102 1.7082 0
M  V30 9920 C 939.424 2.86288 3.34256 0
M  V30 9921 H 936.543 0.578798 0.456248 0
M  V30 9922 H 939.185 1.81651 0.557032 0
M  V30 9923 H 937.335 2.5566 2.92524 0
M  V30 9924 H 939.007 4.46782 1.14818 0
M  V30 9925 H 937.25 4.21822 1.01238 0
M  V30 9926 H 937.921 4.93006 2.48292 0
M  V30 9927 H 940.397 3.03733 2.84404 0
M  V30 9928 H 939.273 3.69001 4.06362 0
M  V30 9929 H 939.534 1.95576 3.96488 0
M  V30 9930 N 938.594 -0.753485 1.38421 0
M  V30 9931 C 939.504 -1.89797 1.37892 0
M  V30 9932 C 940.52 -1.71797 0.276023 0
M  V30 9933 O 941.696 -1.94718 0.514464 0
M  V30 9934 C 938.761 -3.25166 1.20284 0
M  V30 9935 C 937.822 -3.55691 2.4038 0
M  V30 9936 C 937.055 -4.84601 2.23602 0
M  V30 9937 O 937.278 -5.56985 1.22979 0
M  V30 9938 O 936.212 -5.14605 3.12194 0
M  V30 9939 H 940.038 -1.93197 2.34326 0
M  V30 9940 H 937.623 -0.898775 1.19342 0
M  V30 9941 H 939.505 -4.06099 1.12525 0
M  V30 9942 H 938.18 -3.22577 0.269352 0
M  V30 9943 H 937.087 -2.74919 2.53714 0
M  V30 9944 H 938.42 -3.6304 3.32359 0
M  V30 9945 N 940.072 -1.23292 -0.981677 0
M  V30 9946 C 941.488 -0.995295 -1.24764 0
M  V30 9947 C 941.688 0.304379 -1.99188 0
M  V30 9948 O 940.744 1.02414 -2.30798 0
M  V30 9949 C 942.057 -2.20135 -2.04844 0
M  V30 9950 C 943.605 -2.24612 -2.17988 0
M  V30 9951 C 944.08 -3.448 -3.01458 0
M  V30 9952 N 945.571 -3.45031 -3.09044 0
M  V30 9953 C 946.306 -4.34683 -3.7395 0
M  V30 9954 N 945.802 -5.34569 -4.4069 0
M  V30 9955 N 947.595 -4.22429 -3.70823 0
M  V30 9956 H 939.746 -2.06834 -0.483052 0
M  V30 9957 H 942.009 -0.906929 -0.276014 0
M  V30 9958 H 941.715 -3.14446 -1.57532 0
M  V30 9959 H 941.589 -2.21115 -3.05594 0
M  V30 9960 H 943.976 -1.30841 -2.64508 0
M  V30 9961 H 944.057 -2.27664 -1.16631 0
M  V30 9962 H 943.701 -4.38877 -2.55635 0
M  V30 9963 H 943.631 -3.38988 -4.02982 0
M  V30 9964 H 946.122 -2.72759 -2.61555 0
M  V30 9965 H 946.435 -5.99236 -4.87991 0
M  V30 9966 H 944.78 -5.3847 -4.39403 0
M  V30 9967 H 947.971 -3.43639 -3.17851 0
M  V30 9968 H 948.144 -4.92501 -4.21126 0
M  V30 9969 N 941.55 1.18024 -1.04442 0
M  V30 9970 C 942.798 1.87727 -0.74854 0
M  V30 9971 C 943.119 1.80975 0.726156 0
M  V30 9972 O 942.389 1.23061 1.52423 0
M  V30 9973 H 940.969 0.694974 -0.273897 0
M  V30 9974 H 943.631 1.43213 -1.32197 0
M  V30 9975 H 942.727 2.93665 -1.05674 0
M  V30 9976 N 943.028 0.824394 1.34319 0
M  V30 9977 C 944.256 0.426194 2.02463 0
M  V30 9978 C 944.671 -0.968298 1.62078 0
M  V30 9979 O 944.028 -1.62689 0.82696 0
M  V30 9980 C 944.079 0.520465 3.57734 0
M  V30 9981 O 943.8 1.86 3.96656 0
M  V30 9982 C 945.301 0.117353 4.43145 0
M  V30 9983 H 942.521 0.170864 0.648881 0
M  V30 9984 H 945.065 1.11296 1.71562 0
M  V30 9985 H 943.22 -0.118233 3.8722 0
M  V30 9986 H 943.634 1.83528 4.91343 0
M  V30 9987 H 945.108 0.234395 5.51502 0
M  V30 9988 H 945.585 -0.939271 4.29039 0
M  V30 9989 H 946.191 0.729908 4.1899 0
M  V30 9990 N 944.506 -1.46559 0.579492 0
M  V30 9991 C 945.456 -2.27316 -0.17645 0
M  V30 9992 C 946.44 -1.35681 -0.864835 0
M  V30 9993 O 947.632 -1.59879 -0.759462 0
M  V30 9994 C 944.761 -3.21957 -1.19157 0
M  V30 9995 C 943.847 -4.21077 -0.505459 0
M  V30 9996 N 944.238 -5.03908 0.437133 0
M  V30 9997 C 942.536 -4.39535 -0.75661 0
M  V30 9998 C 943.237 -5.75635 0.837819 0
M  V30 9999 N 942.213 -5.43276 0.187679 0
M  V30 10000 H 946.015 -2.88747 0.547932 0
M  V30 10001 H 943.529 -1.5737 0.401048 0
M  V30 10002 H 945.526 -3.78518 -1.74728 0
M  V30 10003 H 944.186 -2.62085 -1.9168 0
M  V30 10004 H 945.197 -5.11487 0.812488 0
M  V30 10005 H 941.874 -3.90815 -1.46867 0
M  V30 10006 H 943.264 -6.52235 1.61364 0
M  V30 10007 N 945.984 -0.3171 -1.54377 0
M  V30 10008 C 946.894 0.560867 -2.27797 0
M  V30 10009 C 947.91 1.13473 -1.31908 0
M  V30 10010 O 949.086 1.15608 -1.64914 0
M  V30 10011 C 946.151 1.70886 -3.0166 0
M  V30 10012 C 945.212 1.16745 -4.13121 0
M  V30 10013 C 944.445 2.26073 -4.83453 0
M  V30 10014 O 944.668 3.46292 -4.53252 0
M  V30 10015 O 943.602 1.91856 -5.70504 0
M  V30 10016 H 947.428 -0.035193 -3.0368 0
M  V30 10017 H 945.013 -0.0830062 -1.49169 0
M  V30 10018 H 946.895 2.37736 -3.47936 0
M  V30 10019 H 945.57 2.29122 -2.28658 0
M  V30 10020 H 944.477 0.464224 -3.71209 0
M  V30 10021 H 945.81 0.630307 -4.88147 0
M  V30 10022 N 947.462 1.57535 -0.0451378 0
M  V30 10023 C 948.372 2.14653 0.946646 0
M  V30 10024 C 949.388 1.10279 1.3459 0
M  V30 10025 O 950.564 1.42417 1.42405 0
M  V30 10026 C 947.629 2.67533 2.20515 0
M  V30 10027 C 946.69 3.86682 1.86481 0
M  V30 10028 C 945.923 4.37031 3.06332 0
M  V30 10029 O 946.146 3.86481 4.1951 0
M  V30 10030 O 945.08 5.28691 2.87697 0
M  V30 10031 H 948.906 2.99706 0.49091 0
M  V30 10032 H 946.491 1.48355 0.17641 0
M  V30 10033 H 948.373 3.01542 2.94365 0
M  V30 10034 H 947.048 1.85554 2.65238 0
M  V30 10035 H 945.955 3.57573 1.09966 0
M  V30 10036 H 947.288 4.69873 1.46562 0
M  V30 10037 N 948.94 -0.228186 1.55939 0
M  V30 10038 C 949.87 -1.28607 1.94891 0
M  V30 10039 C 950.851 -1.49236 0.816245 0
M  V30 10040 O 952.036 -1.61531 1.07803 0
M  V30 10041 C 949.166 -2.63719 2.25986 0
M  V30 10042 C 948.12 -2.57757 3.4168 0
M  V30 10043 C 947.446 -3.96837 3.58364 0
M  V30 10044 C 948.746 -2.13116 4.76843 0
M  V30 10045 H 950.44 -0.962531 2.83506 0
M  V30 10046 H 947.986 -0.461577 1.36402 0
M  V30 10047 H 949.939 -3.37878 2.51826 0
M  V30 10048 H 948.663 -2.97747 1.34217 0
M  V30 10049 H 947.322 -1.86055 3.15878 0
M  V30 10050 H 946.97 -4.28162 2.63982 0
M  V30 10051 H 946.67 -3.93731 4.36176 0
M  V30 10052 H 948.194 -4.72668 3.86545 0
M  V30 10053 H 949.608 -2.77015 5.01932 0
M  V30 10054 H 948.005 -2.21083 5.57891 0
M  V30 10055 H 949.075 -1.08326 4.72645 0
M  V30 10056 N 950.418 -1.49637 -0.494624 0
M  V30 10057 C 951.348 -1.69692 -1.60396 0
M  V30 10058 C 952.329 -0.545648 -1.61111 0
M  V30 10059 O 953.514 -0.782202 -1.77751 0
M  V30 10060 C 950.644 -1.76934 -2.9885 0
M  V30 10061 C 949.598 -2.91915 -3.13001 0
M  V30 10062 C 948.924 -2.84276 -4.5287 0
M  V30 10063 C 950.224 -4.32764 -2.92426 0
M  V30 10064 H 951.918 -2.6257 -1.43866 0
M  V30 10065 H 949.464 -1.26355 -0.690679 0
M  V30 10066 H 951.417 -1.8955 -3.76362 0
M  V30 10067 H 950.141 -0.806609 -3.16483 0
M  V30 10068 H 948.8 -2.78911 -2.37916 0
M  V30 10069 H 948.448 -1.85897 -4.67388 0
M  V30 10070 H 948.148 -3.61452 -4.63278 0
M  V30 10071 H 949.672 -2.98909 -5.32434 0
M  V30 10072 H 951.086 -4.46415 -3.59703 0
M  V30 10073 H 949.483 -5.1121 -3.143 0
M  V30 10074 H 950.553 -4.46765 -1.88491 0
M  V30 10075 N 951.896 0.746133 -1.38819 0
M  V30 10076 C 952.806 1.89063 -1.38897 0
M  V30 10077 C 953.822 1.71648 -0.28513 0
M  V30 10078 O 954.998 1.94443 -0.524783 0
M  V30 10079 C 952.063 3.24523 -1.22007 0
M  V30 10080 C 951.124 3.54411 -2.42263 0
M  V30 10081 C 950.357 4.83408 -2.26169 0
M  V30 10082 O 950.58 5.56325 -1.25931 0
M  V30 10083 O 949.514 5.12943 -3.14918 0
M  V30 10084 H 953.34 1.91951 -2.35347 0
M  V30 10085 H 950.925 0.892433 -1.19816 0
M  V30 10086 H 952.807 4.05496 -1.14677 0
M  V30 10087 H 951.482 3.2243 -0.286455 0
M  V30 10088 H 950.389 2.73569 -2.55168 0
M  V30 10089 H 951.722 3.61273 -3.3428 0
M  V30 10090 N 953.375 1.23811 0.975125 0
M  V30 10091 C 954.791 1.0019 1.24234 0
M  V30 10092 C 954.991 -0.293811 1.99346 0
M  V30 10093 O 954.047 -1.01189 2.31337 0
M  V30 10094 C 955.36 2.21218 2.03674 0
M  V30 10095 C 956.908 2.25764 2.16793 0
M  V30 10096 C 957.383 3.46394 2.99626 0
M  V30 10097 N 958.874 3.46665 3.07209 0
M  V30 10098 C 959.609 4.3666 3.71639 0
M  V30 10099 N 959.105 5.36899 4.37849 0
M  V30 10100 N 960.898 4.2439 3.68578 0
M  V30 10101 H 953.049 2.07087 0.472076 0
M  V30 10102 H 955.312 0.90838 0.271201 0
M  V30 10103 H 955.018 3.15277 1.55862 0
M  V30 10104 H 954.892 2.22733 3.04417 0
M  V30 10105 H 957.279 1.32242 2.63811 0
M  V30 10106 H 957.36 2.28279 1.15422 0
M  V30 10107 H 957.004 4.40227 2.53304 0
M  V30 10108 H 956.934 3.41121 4.01178 0
M  V30 10109 H 959.425 2.74142 2.60105 0
M  V30 10110 H 959.738 6.01816 4.84807 0
M  V30 10111 H 958.083 5.40793 4.36541 0
M  V30 10112 H 961.274 3.4532 3.16025 0
M  V30 10113 H 961.447 4.94727 4.18508 0
M  V30 10114 N 954.853 -1.17469 1.05066 0
M  V30 10115 C 955.8 -2.21443 0.650512 0
M  V30 10116 C 956.77 -1.62441 -0.346702 0
M  V30 10117 O 957.955 -1.89305 -0.238404 0
M  V30 10118 C 955.095 -3.45087 0.0301014 0
M  V30 10119 C 954.208 -4.18385 1.07599 0
M  V30 10120 C 953.343 -5.29513 0.423038 0
M  V30 10121 C 952.382 -5.94596 1.45333 0
M  V30 10122 N 951.519 -6.97241 0.824623 0
M  V30 10123 H 956.359 -2.55025 1.54163 0
M  V30 10124 H 953.896 -1.25274 0.771032 0
M  V30 10125 H 955.854 -4.15754 -0.347032 0
M  V30 10126 H 954.484 -3.12093 -0.824481 0
M  V30 10127 H 953.536 -3.46446 1.57097 0
M  V30 10128 H 954.848 -4.62899 1.85813 0
M  V30 10129 H 954.002 -6.067 -0.00774975 0
M  V30 10130 H 952.741 -4.86129 -0.391092 0
M  V30 10131 H 951.746 -5.16142 1.89415 0
M  V30 10132 H 952.971 -6.40061 2.26934 0
M  V30 10133 H 950.917 -6.55993 0.0309804 0
M  V30 10134 H 950.834 -7.40059 1.54432 0
M  V30 10135 H 952.102 -7.78375 0.418567 0
M  V30 10136 N 956.331 -0.831506 -1.3388 0
M  V30 10137 C 957.579 -0.422837 -1.97627 0
M  V30 10138 C 957.9 1.01961 -1.6622 0
M  V30 10139 O 957.17 1.70916 -0.957323 0
M  V30 10140 H 955.75 -0.153365 -0.731087 0
M  V30 10141 H 958.412 -1.06284 -1.6337 0
M  V30 10142 H 957.508 -0.548858 -3.07236 0
M  V30 10143 N 957.809 1.4625 -0.587256 0
M  V30 10144 C 959.055 2.02662 -0.0746851 0
M  V30 10145 C 959.388 1.45723 1.28368 0
M  V30 10146 O 958.663 0.624062 1.84216 0
M  V30 10147 C 958.946 3.60097 -0.0138109 0
M  V30 10148 C 958.799 4.27412 -1.4014 0
M  V30 10149 C 960.118 4.34744 0.684491 0
M  V30 10150 H 957.237 0.736444 -0.0286144 0
M  V30 10151 H 959.879 1.74341 -0.755328 0
M  V30 10152 H 958.029 3.84357 0.56583 0
M  V30 10153 H 959.701 4.14401 -2.02656 0
M  V30 10154 H 957.944 3.86598 -1.96785 0
M  V30 10155 H 958.615 5.362 -1.31124 0
M  V30 10156 H 961.091 4.15657 0.192023 0
M  V30 10157 H 959.967 5.44468 0.696127 0
M  V30 10158 H 960.228 4.06132 1.74669 0
M  V30 10159 N 959.287 0.325282 1.54207 0
M  V30 10160 C 960.517 -0.278285 2.04717 0
M  V30 10161 C 960.925 -1.46198 1.20095 0
M  V30 10162 O 960.268 -1.82319 0.224813 0
M  V30 10163 C 960.33 -0.774387 3.51061 0
M  V30 10164 C 959.994 0.287225 4.56096 0
M  V30 10165 C 960.991 1.12388 5.07607 0
M  V30 10166 C 958.676 0.435908 5.00405 0
M  V30 10167 C 960.67 2.09492 6.0199 0
M  V30 10168 C 958.357 1.41037 5.94602 0
M  V30 10169 C 959.355 2.23834 6.45281 0
M  V30 10170 O 959.043 3.19625 7.37628 0
M  V30 10171 H 958.775 -0.0608309 0.673257 0
M  V30 10172 H 961.329 0.470049 1.99949 0
M  V30 10173 H 959.559 -1.57366 3.53232 0
M  V30 10174 H 961.248 -1.29649 3.84637 0
M  V30 10175 H 962.014 1.02 4.74153 0
M  V30 10176 H 957.893 -0.198668 4.60572 0
M  V30 10177 H 961.437 2.74157 6.4147 0
M  V30 10178 H 957.334 1.51487 6.27473 0
M  V30 10179 H 958.102 3.14884 7.55507 0
M  V30 10180 N 960.765 -1.57509 0.0534917 0
M  V30 10181 C 962.012 -1.92782 -0.619772 0
M  V30 10182 C 962.34 -0.932046 -1.70714 0
M  V30 10183 O 961.595 0.0552891 -1.95622 0
M  V30 10184 C 961.894 -3.34734 -1.25251 0
M  V30 10185 C 961.56 -4.49946 -0.293113 0
M  V30 10186 C 960.222 -4.81191 -0.0291223 0
M  V30 10187 C 962.574 -5.19925 0.364271 0
M  V30 10188 C 959.902 -5.79761 0.899649 0
M  V30 10189 C 962.254 -6.19489 1.28125 0
M  V30 10190 C 960.918 -6.49161 1.55389 0
M  V30 10191 H 960.188 -0.705441 -0.226791 0
M  V30 10192 H 962.835 -1.91121 0.120466 0
M  V30 10193 H 961.14 -3.32774 -2.06807 0
M  V30 10194 H 962.837 -3.59308 -1.78042 0
M  V30 10195 H 959.427 -4.25566 -0.509053 0
M  V30 10196 H 963.611 -4.95997 0.173411 0
M  V30 10197 H 958.867 -6.01085 1.11833 0
M  V30 10198 H 963.041 -6.72824 1.79669 0
M  V30 10199 H 960.668 -7.25354 2.2752 0
M  V30 10200 N 962.243 0.219913 -1.56058 0
M  V30 10201 C 963.471 0.960915 -1.83232 0
M  V30 10202 C 963.886 1.77878 -0.632828 0
M  V30 10203 O 963.243 1.78093 0.398624 0
M  V30 10204 C 963.294 1.87716 -3.08942 0
M  V30 10205 O 963.015 1.09235 -4.24263 0
M  V30 10206 C 964.516 2.73192 -3.49115 0
M  V30 10207 H 961.736 0.281546 -0.609075 0
M  V30 10208 H 964.28 0.234648 -2.03149 0
M  V30 10209 H 962.435 2.55736 -2.90995 0
M  V30 10210 H 962.849 1.71446 -4.95688 0
M  V30 10211 H 964.323 3.33181 -4.40107 0
M  V30 10212 H 964.8 3.45668 -2.70943 0
M  V30 10213 H 965.406 2.10583 -3.69506 0
M  V30 10214 N 963.721 1.49897 0.486681 0
M  V30 10215 C 964.651 1.7054 1.59494 0
M  V30 10216 C 965.632 0.554184 1.60819 0
M  V30 10217 O 966.817 0.791617 1.77333 0
M  V30 10218 C 963.947 1.78517 2.97908 0
M  V30 10219 C 962.901 2.93571 3.11449 0
M  V30 10220 C 962.227 2.86674 4.51356 0
M  V30 10221 C 963.527 4.34308 2.90127 0
M  V30 10222 H 965.221 2.63329 1.42472 0
M  V30 10223 H 962.767 1.2672 0.683969 0
M  V30 10224 H 964.72 1.91544 3.75352 0
M  V30 10225 H 963.444 0.823381 3.16051 0
M  V30 10226 H 962.103 2.80169 2.36433 0
M  V30 10227 H 961.751 1.88373 4.66395 0
M  V30 10228 H 961.451 3.63903 4.61355 0
M  V30 10229 H 962.975 3.01728 5.30841 0
M  V30 10230 H 964.389 4.48317 3.57331 0
M  V30 10231 H 962.786 5.12869 3.11585 0
M  V30 10232 H 963.856 4.47759 1.86119 0
M  V30 10233 N 965.199 -0.738761 1.39212 0
M  V30 10234 C 966.445 -1.50046 1.36433 0
M  V30 10235 C 966.778 -1.94157 -0.0409474 0
M  V30 10236 O 966.053 -1.66515 -1.00514 0
M  V30 10237 C 966.336 -2.74277 2.33333 0
M  V30 10238 C 966.189 -2.36209 3.82786 0
M  V30 10239 C 967.508 -3.76361 2.28123 0
M  V30 10240 H 964.627 -0.544294 0.496903 0
M  V30 10241 H 967.269 -0.845005 1.70175 0
M  V30 10242 H 965.419 -3.30204 2.04689 0
M  V30 10243 H 967.091 -1.85942 4.22165 0
M  V30 10244 H 965.334 -1.68483 3.99745 0
M  V30 10245 H 966.005 -3.25156 4.46069 0
M  V30 10246 H 968.481 -3.30009 2.53443 0
M  V30 10247 H 967.357 -4.60957 2.9801 0
M  V30 10248 H 967.618 -4.23013 1.28499 0
M  V30 10249 N 966.677 -1.24326 -0.968545 0
M  V30 10250 C 967.905 -1.10947 -1.74638 0
M  V30 10251 C 968.32 0.338064 -1.85749 0
M  V30 10252 O 967.677 1.23331 -1.3452 0
M  V30 10253 C 967.728 -1.74254 -3.1673 0
M  V30 10254 O 967.449 -3.13347 -3.06178 0
M  V30 10255 C 968.95 -1.66473 -4.10855 0
M  V30 10256 H 966.17 -0.38767 -0.547679 0
M  V30 10257 H 968.714 -1.64415 -1.21605 0
M  V30 10258 H 966.869 -1.2479 -3.66751 0
M  V30 10259 H 967.283 -3.44255 -3.95713 0
M  V30 10260 H 968.757 -2.15452 -5.08217 0
M  V30 10261 H 969.234 -0.625785 -4.34719 0
M  V30 10262 H 969.84 -2.15359 -3.66743 0
M  V30 10263 N 968.156 1.1691 -1.05688 0
M  V30 10264 C 969.086 2.23275 -0.683402 0
M  V30 10265 C 970.067 1.6704 0.321206 0
M  V30 10266 O 971.252 1.93191 0.197691 0
M  V30 10267 C 968.382 3.47244 -0.0626006 0
M  V30 10268 C 967.336 4.16333 -0.992513 0
M  V30 10269 C 966.662 5.34182 -0.23533 0
M  V30 10270 C 967.962 4.68002 -2.31886 0
M  V30 10271 H 969.656 2.54771 -1.57264 0
M  V30 10272 H 967.202 1.2246 -0.757606 0
M  V30 10273 H 969.155 4.20874 0.210503 0
M  V30 10274 H 967.879 3.1503 0.861616 0
M  V30 10275 H 966.538 3.44622 -1.25026 0
M  V30 10276 H 966.186 4.9822 0.69181 0
M  V30 10277 H 965.886 5.81346 -0.855002 0
M  V30 10278 H 967.41 6.10592 0.0303717 0
M  V30 10279 H 968.824 5.33244 -2.10531 0
M  V30 10280 H 967.221 5.25764 -2.89296 0
M  V30 10281 H 968.291 3.84541 -2.95391 0
M  V30 10282 N 969.634 0.838594 1.33437 0
M  V30 10283 C 970.566 0.229006 2.28053 0
M  V30 10284 C 971.579 -0.590103 1.51729 0
M  V30 10285 O 972.768 -0.417218 1.73556 0
M  V30 10286 C 969.868 -0.696251 3.31671 0
M  V30 10287 C 969.041 0.0834606 4.3732 0
M  V30 10288 C 968.1 -0.765097 5.20608 0
M  V30 10289 O 967.126 -0.2044 5.68833 0
M  V30 10290 N 968.328 -2.08249 5.4186 0
M  V30 10291 H 971.093 1.04196 2.81004 0
M  V30 10292 H 968.654 0.697031 1.46127 0
M  V30 10293 H 970.646 -1.26889 3.84293 0
M  V30 10294 H 969.216 -1.40992 2.78998 0
M  V30 10295 H 968.436 0.837481 3.85201 0
M  V30 10296 H 969.724 0.619613 5.05013 0
M  V30 10297 H 969.122 -2.56156 5.04381 0
M  V30 10298 H 967.679 -2.60362 5.97541 0
M  V30 10299 N 971.112 -1.45937 0.595003 0
M  V30 10300 C 972.337 -2.07207 0.0894416 0
M  V30 10301 C 972.762 -1.43884 -1.21157 0
M  V30 10302 O 972.12 -0.526998 -1.73472 0
M  V30 10303 C 972.168 -3.60565 -0.0499828 0
M  V30 10304 O 971.272 -3.97364 -1.10342 0
M  V30 10305 H 970.613 -0.660471 0.0683627 0
M  V30 10306 H 973.143 -1.87386 0.82144 0
M  V30 10307 H 973.153 -4.0722 -0.252234 0
M  V30 10308 H 971.828 -4.06044 0.90006 0
M  V30 10309 H 970.405 -3.62401 -0.878645 0
M  V30 10310 N 972.59 -0.333456 -1.54032 0
M  V30 10311 C 973.522 0.562174 -2.22199 0
M  V30 10312 C 974.535 1.07202 -1.22522 0
M  V30 10313 O 975.724 0.983897 -1.48935 0
M  V30 10314 C 972.824 1.78525 -2.88066 0
M  V30 10315 C 971.997 1.41242 -4.13968 0
M  V30 10316 C 971.056 2.49408 -4.63338 0
M  V30 10317 O 970.082 2.13138 -5.27789 0
M  V30 10318 N 971.284 3.805 -4.38406 0
M  V30 10319 H 974.049 -0.0215629 -2.99692 0
M  V30 10320 H 971.61 -0.157111 -1.61136 0
M  V30 10321 H 973.602 2.50298 -3.18014 0
M  V30 10322 H 972.172 2.2766 -2.14219 0
M  V30 10323 H 971.392 0.525887 -3.90676 0
M  V30 10324 H 972.68 1.13916 -4.95884 0
M  V30 10325 H 972.078 4.12761 -3.86839 0
M  V30 10326 H 970.635 4.48474 -4.72984 0
M  V30 10327 N 974.068 1.57479 -0.061844 0
M  V30 10328 C 975.316 1.92727 0.608336 0
M  V30 10329 C 975.637 0.941799 1.70749 0
M  V30 10330 O 974.907 -0.0116608 1.95897 0
M  V30 10331 H 973.487 0.71145 0.2277 0
M  V30 10332 H 976.149 1.94546 -0.117359 0
M  V30 10333 H 975.245 2.9426 1.04007 0
M  V30 10334 N 975.546 -0.211634 1.56173 0
M  V30 10335 C 976.494 -1.28188 1.94089 0
M  V30 10336 C 977.488 -1.47999 0.824167 0
M  V30 10337 O 978.694 -1.49056 1.00907 0
M  V30 10338 H 975.069 -0.42999 0.616938 0
M  V30 10339 H 977.04 -0.934962 2.83374 0
M  V30 10340 C 975.789 -2.62294 2.28248 0
M  V30 10341 H 975.112 -2.4786 3.13696 0
M  V30 10342 H 976.552 -3.35967 2.58655 0
M  V30 10343 C 975.011 -3.18049 1.11113 0
M  V30 10344 O 975.541 -3.99923 0.377458 0
M  V30 10345 N 973.747 -2.76561 0.892321 0
M  V30 10346 H 973.294 -2.10088 1.49067 0
M  V30 10347 H 973.252 -3.14206 0.110344 0
M  V30 10348 N 977.024 -1.50153 -0.478725 0
M  V30 10349 C 977.956 -1.64603 -1.59494 0
M  V30 10350 C 978.969 -0.527789 -1.54007 0
M  V30 10351 O 980.158 -0.80069 -1.59534 0
M  V30 10352 C 977.258 -1.60738 -2.98356 0
M  V30 10353 C 976.431 -2.88468 -3.28794 0
M  V30 10354 C 975.49 -2.77349 -4.47173 0
M  V30 10355 O 974.516 -3.51302 -4.47857 0
M  V30 10356 N 975.718 -1.9039 -5.4839 0
M  V30 10357 H 978.483 -2.6088 -1.47518 0
M  V30 10358 H 976.044 -1.47521 -0.667011 0
M  V30 10359 H 978.036 -1.50923 -3.75505 0
M  V30 10360 H 976.606 -0.722273 -3.04141 0
M  V30 10361 H 975.826 -3.12467 -2.40329 0
M  V30 10362 H 977.114 -3.73102 -3.45937 0
M  V30 10363 H 976.512 -1.29606 -5.50653 0
M  V30 10364 H 975.069 -1.86484 -6.24553 0
M  V30 10365 N 978.502 0.731368 -1.39602 0
M  V30 10366 C 979.465 1.8271 -1.38383 0
M  V30 10367 C 980.465 1.58338 -0.280309 0
M  V30 10368 O 981.655 1.65671 -0.538402 0
M  V30 10369 C 978.787 3.20556 -1.16002 0
M  V30 10370 H 979.98 1.85193 -2.35889 0
M  V30 10371 H 977.533 0.935396 -1.2522 0
M  V30 10372 H 978.268 3.23732 -0.191927 0
M  V30 10373 H 978.053 3.39643 -1.9592 0
M  V30 10374 H 979.543 4.00612 -1.17899 0
M  V30 10375 N 979.98 1.24838 0.961938 0
M  V30 10376 C 980.91 1.07053 2.07514 0
M  V30 10377 C 981.891 -0.0182465 1.7009 0
M  V30 10378 O 983.076 0.149915 1.9362 0
M  V30 10379 C 980.206 0.680693 3.40564 0
M  V30 10380 C 979.16 1.71889 3.91967 0
M  V30 10381 C 978.486 1.18395 5.21428 0
M  V30 10382 C 979.786 3.1161 4.19161 0
M  V30 10383 H 981.48 2.00167 2.22651 0
M  V30 10384 H 979.026 0.963799 1.0699 0
M  V30 10385 H 980.979 0.54324 4.17884 0
M  V30 10386 H 979.703 -0.28615 3.25344 0
M  V30 10387 H 978.362 1.84465 3.16809 0
M  V30 10388 H 978.01 0.207543 5.02572 0
M  V30 10389 H 977.71 1.87778 5.56788 0
M  V30 10390 H 979.234 1.05873 6.01351 0
M  V30 10391 H 980.648 3.0223 4.87165 0
M  V30 10392 H 979.045 3.78398 4.65763 0
M  V30 10393 H 980.115 3.59218 3.25715 0
M  V30 10394 N 981.458 -1.16348 1.06306 0
M  V30 10395 C 982.406 -2.22799 0.668087 0
M  V30 10396 C 983.4 -1.66426 -0.316051 0
M  V30 10397 O 984.606 -1.79089 -0.180902 0
M  V30 10398 H 980.981 -0.725487 0.19792 0
M  V30 10399 H 982.952 -2.53401 1.57577 0
M  V30 10400 C 981.701 -3.47628 0.0706797 0
M  V30 10401 H 981.024 -3.9132 0.819064 0
M  V30 10402 H 982.464 -4.23666 -0.16816 0
M  V30 10403 C 980.923 -3.15343 -1.18577 0
M  V30 10404 O 981.453 -3.31158 -2.27371 0
M  V30 10405 N 979.659 -2.69472 -1.08779 0
M  V30 10406 H 979.206 -2.56803 -0.202447 0
M  V30 10407 H 979.164 -2.48244 -1.92931 0
M  V30 10408 N 982.937 -0.845659 -1.3299 0
M  V30 10409 C 983.847 -0.2864 -2.32845 0
M  V30 10410 C 984.863 0.591105 -1.63652 0
M  V30 10411 O 986.039 0.493615 -1.95257 0
M  V30 10412 C 983.104 0.523636 -3.42723 0
M  V30 10413 C 982.165 -0.378945 -4.27624 0
M  V30 10414 C 981.398 0.392526 -5.32255 0
M  V30 10415 O 981.621 1.6235 -5.46808 0
M  V30 10416 O 980.555 -0.237 -6.01433 0
M  V30 10417 H 984.381 -1.11346 -2.82552 0
M  V30 10418 H 981.966 -0.608356 -1.36453 0
M  V30 10419 H 983.848 0.983718 -4.09757 0
M  V30 10420 H 982.523 1.32764 -2.95221 0
M  V30 10421 H 981.43 -0.887012 -3.63432 0
M  V30 10422 H 982.763 -1.1479 -4.78627 0
M  V30 10423 N 984.415 1.45619 -0.602734 0
M  V30 10424 C 985.325 2.34288 0.120902 0
M  V30 10425 C 986.341 1.50952 0.865414 0
M  V30 10426 O 987.517 1.83768 0.824094 0
M  V30 10427 C 984.582 3.28489 1.10888 0
M  V30 10428 C 983.643 4.2773 0.366853 0
M  V30 10429 C 982.876 5.17429 1.30776 0
M  V30 10430 O 983.099 5.10459 2.54535 0
M  V30 10431 O 982.033 5.96459 0.807464 0
M  V30 10432 H 985.859 2.97559 -0.60765 0
M  V30 10433 H 983.444 1.44922 -0.363019 0
M  V30 10434 H 985.326 3.86549 1.67803 0
M  V30 10435 H 984.001 2.67789 1.81854 0
M  V30 10436 H 982.908 3.73299 -0.244643 0
M  V30 10437 H 984.241 4.91271 -0.302226 0
M  V30 10438 N 985.893 0.34162 1.53853 0
M  V30 10439 C 987.17 -0.310664 1.93117 0
M  V30 10440 C 987.55 -1.68398 1.273 0
M  V30 10441 O 986.898 -2.24546 0.423225 0
M  V30 10442 C 987.108 -0.384867 3.46871 0
M  V30 10443 C 988.456 -0.636621 4.198 0
M  V30 10444 O 989.48 -0.467061 3.53125 0
M  V30 10445 O 988.339 -0.964962 5.37913 0
M  V30 10446 H 985.433 -0.180881 0.806977 0
M  V30 10447 H 987.979 0.392656 1.65095 0
M  V30 10448 H 986.751 0.57894 3.86994 0
M  V30 10449 H 986.374 -1.13505 3.81054 0
M  V30 10450 N 987.371 -1.57444 0.0701946 0
M  V30 10451 C 988.62 -1.92605 -0.598849 0
M  V30 10452 C 988.933 -0.952058 -1.70866 0
M  V30 10453 O 990.139 -1.19643 -2.43716 0
M  V30 10454 C 988.595 -3.42142 -1.11655 0
M  V30 10455 C 988.203 -4.47984 -0.0378355 0
M  V30 10456 C 989.947 -3.86307 -1.75975 0
M  V30 10457 C 987.854 -5.88652 -0.569495 0
M  V30 10458 H 986.784 -0.718873 -0.22746 0
M  V30 10459 H 989.435 -1.82948 0.14217 0
M  V30 10460 H 987.817 -3.46866 -1.91049 0
M  V30 10461 H 988.991 -4.54874 0.736661 0
M  V30 10462 H 987.306 -4.13277 0.50904 0
M  V30 10463 H 989.903 -4.88784 -2.16782 0
M  V30 10464 H 990.246 -3.23587 -2.61911 0
M  V30 10465 H 990.779 -3.84179 -1.03206 0
M  V30 10466 H 987.518 -6.55013 0.252662 0
M  V30 10467 H 987.038 -5.85285 -1.31155 0
M  V30 10468 H 988.717 -6.38482 -1.04641 0
M  V30 10469 N 988.849 0.203349 -1.56283 0
M  V30 10470 C 989.796 1.25205 -1.93888 0
M  V30 10471 C 990.766 1.45654 -0.798376 0
M  V30 10472 O 991.951 1.58924 -1.05583 0
M  V30 10473 C 989.091 2.59355 -2.27659 0
M  V30 10474 C 988.204 2.46553 -3.54733 0
M  V30 10475 C 987.339 3.73351 -3.77865 0
M  V30 10476 C 986.378 3.55347 -4.98392 0
M  V30 10477 N 985.515 4.74137 -5.17821 0
M  V30 10478 H 990.355 0.924356 -2.83301 0
M  V30 10479 H 987.892 0.445082 -1.40205 0
M  V30 10480 H 989.85 3.375 -2.45254 0
M  V30 10481 H 988.48 2.90184 -1.41396 0
M  V30 10482 H 987.532 1.59749 -3.45231 0
M  V30 10483 H 988.844 2.2918 -4.43033 0
M  V30 10484 H 987.998 4.59937 -3.95655 0
M  V30 10485 H 986.737 3.9367 -2.8788 0
M  V30 10486 H 985.742 2.67146 -4.80534 0
M  V30 10487 H 986.967 3.36482 -5.89879 0
M  V30 10488 H 984.913 4.94735 -4.30782 0
M  V30 10489 H 984.83 4.59558 -6.00285 0
M  V30 10490 H 986.098 5.62098 -5.40061 0
M  V30 10491 N 990.327 1.50405 0.470755 0
M  V30 10492 C 991.604 1.51929 1.23195 0
M  V30 10493 C 991.984 0.264159 2.09441 0
M  V30 10494 O 991.332 -0.752395 2.15757 0
M  V30 10495 C 991.542 2.81521 2.06269 0
M  V30 10496 C 992.89 3.32195 2.64446 0
M  V30 10497 O 993.914 2.82845 2.16511 0
M  V30 10498 O 992.773 4.18221 3.51786 0
M  V30 10499 H 989.867 0.609411 0.559059 0
M  V30 10500 H 992.413 1.62695 0.482549 0
M  V30 10501 H 991.185 3.64346 1.42715 0
M  V30 10502 H 990.808 2.7376 2.88342 0
M  V30 10503 N 991.805 -0.723954 1.39988 0
M  V30 10504 C 992.768 -1.81973 1.3935 0
M  V30 10505 C 993.768 -1.58187 0.288702 0
M  V30 10506 O 994.958 -1.65383 0.547181 0
M  V30 10507 C 992.09 -3.19937 1.177 0
M  V30 10508 H 993.283 -1.83939 2.36868 0
M  V30 10509 H 990.836 -0.928742 1.25714 0
M  V30 10510 H 991.571 -3.23625 0.209093 0
M  V30 10511 H 991.356 -3.386 1.97719 0
M  V30 10512 H 992.846 -3.99981 1.20022 0
M  V30 10513 N 993.283 -1.25346 -0.955304 0
M  V30 10514 C 994.511 -1.12793 -1.73451 0
M  V30 10515 C 994.926 0.318344 -1.86097 0
M  V30 10516 O 994.283 1.21897 -1.35821 0
M  V30 10517 C 994.334 -1.77603 -3.14864 0
M  V30 10518 O 994.055 -3.16577 -3.02837 0
M  V30 10519 C 995.556 -1.70821 -4.09066 0
M  V30 10520 H 992.776 -0.393457 -0.543537 0
M  V30 10521 H 995.32 -1.65696 -1.19855 0
M  V30 10522 H 993.475 -1.28673 -3.65407 0
M  V30 10523 H 993.889 -3.48433 -3.92039 0
M  V30 10524 H 995.363 -2.2083 -5.05903 0
M  V30 10525 H 995.84 -0.671858 -4.34031 0
M  V30 10526 H 996.446 -2.19237 -3.64438 0
M  V30 10527 N 994.761 1.15782 -1.06922 0
M  V30 10528 C 995.671 2.24008 -0.696948 0
M  V30 10529 C 996.687 1.71569 0.289862 0
M  V30 10530 O 997.863 2.00929 0.137585 0
M  V30 10531 C 994.928 3.46568 -0.0957895 0
M  V30 10532 C 993.989 4.14017 -1.13528 0
M  V30 10533 C 993.222 5.30725 -0.562713 0
M  V30 10534 O 993.445 5.66992 0.62259 0
M  V30 10535 O 992.379 5.87572 -1.30549 0
M  V30 10536 H 996.205 2.58174 -1.59938 0
M  V30 10537 H 993.79 1.2342 -0.841889 0
M  V30 10538 H 995.672 4.20731 0.237407 0
M  V30 10539 H 994.347 3.14161 0.780027 0
M  V30 10540 H 993.254 3.41795 -1.52076 0
M  V30 10541 H 994.587 4.50493 -1.98285 0
M  V30 10542 N 996.239 0.8527 1.3254 0
M  V30 10543 C 997.516 0.376491 1.91942 0
M  V30 10544 C 997.896 -1.13972 1.7769 0
M  V30 10545 O 997.244 -1.96047 1.17379 0
M  V30 10546 C 997.454 0.838694 3.38773 0
M  V30 10547 C 998.802 0.854736 4.15908 0
M  V30 10548 O 999.826 0.783203 3.47483 0
M  V30 10549 O 998.685 0.955207 5.38087 0
M  V30 10550 H 995.779 0.109412 0.81973 0
M  V30 10551 H 998.325 0.93947 1.41322 0
M  V30 10552 H 997.097 1.88179 3.43081 0
M  V30 10553 H 996.72 0.253055 3.96794 0
M  V30 10554 N 997.718 -1.45297 0.610449 0
M  V30 10555 C 998.995 -1.95562 0.0386189 0
M  V30 10556 C 999.375 -1.55284 -1.43004 0
M  V30 10557 O 998.723 -0.816785 -2.13403 0
M  V30 10558 C 998.933 -3.48176 0.239731 0
M  V30 10559 C 1000.28 -4.24425 0.122035 0
M  V30 10560 O 1001.3 -3.55794 0.170003 0
M  V30 10561 O 1000.16 -5.46499 0.00953695 0
M  V30 10562 H 997.258 -0.826296 -0.0341081 0
M  V30 10563 H 999.804 -1.55449 0.68071 0
M  V30 10564 H 998.576 -3.70471 1.25963 0
M  V30 10565 H 998.199 -3.95186 -0.437486 0
M  V30 10566 N 999.196 -0.349774 -1.5367 0
M  V30 10567 C 1000.13 0.547309 -2.2154 0
M  V30 10568 C 1001.11 1.09543 -1.20163 0
M  V30 10569 O 1002.29 1.15453 -1.49006 0
M  V30 10570 C 999.418 1.75356 -2.89772 0
M  V30 10571 C 998.464 1.33433 -4.0509 0
M  V30 10572 S 999.297 0.348891 -5.34362 0
M  V30 10573 C 1000.45 1.56183 -6.061 0
M  V30 10574 H 1000.69 -0.0291392 -2.97286 0
M  V30 10575 H 998.219 -0.133853 -1.53819 0
M  V30 10576 H 1000.18 2.44555 -3.29701 0
M  V30 10577 H 998.838 2.30123 -2.1378 0
M  V30 10578 H 998.031 2.23388 -4.5179 0
M  V30 10579 H 997.633 0.721746 -3.6697 0
M  V30 10580 H 999.925 2.49535 -6.29872 0
M  V30 10581 H 1000.87 1.13651 -6.9892 0
M  V30 10582 H 1001.28 1.76071 -5.36339 0
M  V30 10583 N 1000.67 1.57404 -0.0785433 0
M  V30 10584 C 1001.6 2.16131 0.883726 0
M  V30 10585 C 1002.58 1.09015 1.30575 0
M  V30 10586 O 1003.77 1.3708 1.37559 0
M  V30 10587 C 1000.9 2.72836 2.1489 0
M  V30 10588 C 999.854 3.85178 1.86605 0
M  V30 10589 C 999.18 4.28516 3.1981 0
M  V30 10590 C 1000.48 5.09118 1.16601 0
M  V30 10591 H 1002.17 2.9679 0.394484 0
M  V30 10592 H 999.72 1.42763 0.188304 0
M  V30 10593 H 1001.67 3.12567 2.8263 0
M  V30 10594 H 1000.4 1.89408 2.66068 0
M  V30 10595 H 999.056 3.45962 1.21268 0
M  V30 10596 H 998.704 3.42 3.68843 0
M  V30 10597 H 998.404 5.04249 3.01674 0
M  V30 10598 H 999.928 4.70868 3.88737 0
M  V30 10599 H 1001.34 5.46123 1.74422 0
M  V30 10600 H 999.739 5.90173 1.087 0
M  V30 10601 H 1000.81 4.8468 0.146138 0
M  V30 10602 N 1002.15 -0.195058 1.56388 0
M  V30 10603 C 1003.11 -1.2254 1.93692 0
M  V30 10604 C 1004.11 -1.38437 0.81804 0
M  V30 10605 O 1005.3 -1.36248 1.08545 0
M  V30 10606 C 1002.44 -2.59476 2.21099 0
M  V30 10607 H 1003.63 -0.906544 2.8587 0
M  V30 10608 H 1001.18 -0.436577 1.50079 0
M  V30 10609 H 1001.92 -2.96417 1.31558 0
M  V30 10610 H 1001.7 -2.4931 3.02634 0
M  V30 10611 H 1003.19 -3.33777 2.50964 0
M  V30 10612 N 1003.63 -1.50653 -0.462772 0
M  V30 10613 C 1005.05 -1.38263 -0.797213 0
M  V30 10614 C 1005.25 -0.445172 -1.96521 0
M  V30 10615 O 1004.3 0.10913 -2.52264 0
M  V30 10616 C 1005.61 -2.798 -1.10146 0
M  V30 10617 C 1007.16 -2.88774 -1.20742 0
M  V30 10618 C 1007.64 -4.31163 -1.54476 0
M  V30 10619 N 1009.13 -4.34152 -1.61451 0
M  V30 10620 C 1009.86 -5.4133 -1.89074 0
M  V30 10621 N 1009.36 -6.58705 -2.1466 0
M  V30 10622 N 1011.15 -5.28783 -1.90645 0
M  V30 10623 H 1003.3 -2.10172 0.30684 0
M  V30 10624 H 1005.57 -0.945046 0.0747862 0
M  V30 10625 H 1005.27 -3.50276 -0.316207 0
M  V30 10626 H 1005.15 -3.17559 -2.03559 0
M  V30 10627 H 1007.53 -2.18512 -1.98334 0
M  V30 10628 H 1007.61 -2.54547 -0.252904 0
M  V30 10629 H 1007.26 -5.01965 -0.774207 0
M  V30 10630 H 1007.19 -4.62883 -2.51092 0
M  V30 10631 H 1009.68 -3.49519 -1.43684 0
M  V30 10632 H 1009.99 -7.36192 -2.35035 0
M  V30 10633 H 1008.34 -6.61866 -2.12035 0
M  V30 10634 H 1011.53 -4.36078 -1.70158 0
M  V30 10635 H 1011.7 -6.12396 -2.11836 0
M  V30 10636 N 1005.11 0.71652 -1.4037 0
M  V30 10637 C 1006.34 1.50563 -1.4191 0
M  V30 10638 C 1006.75 1.88791 -0.0185456 0
M  V30 10639 O 1006.11 1.55378 0.957289 0
M  V30 10640 C 1006.16 2.78155 -2.30894 0
M  V30 10641 O 1005.88 2.41543 -3.65497 0
M  V30 10642 C 1007.38 3.72057 -2.41016 0
M  V30 10643 H 1004.6 0.464679 -0.48406 0
M  V30 10644 H 1007.15 0.883927 -1.8441 0
M  V30 10645 H 1005.3 3.36611 -1.91759 0
M  V30 10646 H 1005.71 3.23636 -4.12747 0
M  V30 10647 H 1007.19 4.58426 -3.07489 0
M  V30 10648 H 1007.67 4.15098 -1.43492 0
M  V30 10649 H 1008.27 3.19512 -2.80699 0
M  V30 10650 N 1006.59 1.25851 0.948643 0
M  V30 10651 C 1007.83 1.10954 1.69397 0
M  V30 10652 C 1008.16 -0.348443 1.91353 0
M  V30 10653 O 1007.42 -1.27285 1.48651 0
M  V30 10654 C 1007.72 1.81565 3.07846 0
M  V30 10655 C 1007.38 3.31477 3.0567 0
M  V30 10656 C 1006.04 3.72371 3.04784 0
M  V30 10657 C 1008.4 4.27225 2.98543 0
M  V30 10658 C 1005.72 5.07416 2.94527 0
M  V30 10659 C 1008.08 5.62301 2.89828 0
M  V30 10660 C 1006.74 6.02516 2.87281 0
M  V30 10661 H 1006.01 0.406011 0.619868 0
M  V30 10662 H 1008.66 1.562 1.10787 0
M  V30 10663 H 1006.96 1.28767 3.70035 0
M  V30 10664 H 1008.66 1.67486 3.64348 0
M  V30 10665 H 1005.25 2.98941 3.07135 0
M  V30 10666 H 1009.43 3.96618 2.98342 0
M  V30 10667 H 1004.69 5.37746 2.90928 0
M  V30 10668 H 1008.86 6.36182 2.83276 0
M  V30 10669 H 1006.49 7.07116 2.79089 0
M  V30 10670 N 1008.06 -1.15214 1.07534 0
M  V30 10671 C 1009.29 -1.90463 0.820883 0
M  V30 10672 C 1009.71 -1.77578 -0.620305 0
M  V30 10673 O 1009.07 -1.10976 -1.43366 0
M  V30 10674 C 1009.12 -3.38746 1.23627 0
M  V30 10675 O 1008.22 -4.1062 0.382715 0
M  V30 10676 H 1007.57 -0.59292 0.298901 0
M  V30 10677 H 1010.1 -1.45893 1.43445 0
M  V30 10678 H 1010.11 -3.89543 1.21327 0
M  V30 10679 H 1008.78 -3.47443 2.28596 0
M  V30 10680 H 1007.36 -3.69947 0.468374 0
M  V30 10681 N 1009.54 -0.859717 -1.32086 0
M  V30 10682 C 1010.96 -0.55025 -1.49815 0
M  V30 10683 C 1011.16 0.917966 -1.79376 0
M  V30 10684 O 1010.21 1.70073 -1.86632 0
M  V30 10685 C 1011.53 -1.44161 -2.6389 0
M  V30 10686 C 1013.08 -1.44257 -2.77775 0
M  V30 10687 C 1013.55 -2.31926 -3.94936 0
M  V30 10688 N 1015.04 -2.2975 -4.02206 0
M  V30 10689 C 1015.78 -2.9431 -4.92107 0
M  V30 10690 N 1015.27 -3.68001 -5.86981 0
M  V30 10691 N 1017.07 -2.83671 -4.8527 0
M  V30 10692 H 1009.22 -1.80987 -1.11164 0
M  V30 10693 H 1011.48 -0.773313 -0.548353 0
M  V30 10694 H 1011.19 -2.48588 -2.4879 0
M  V30 10695 H 1011.06 -1.13268 -3.59792 0
M  V30 10696 H 1013.45 -0.405923 -2.92295 0
M  V30 10697 H 1013.53 -1.79169 -1.82571 0
M  V30 10698 H 1013.17 -3.35661 -3.81174 0
M  V30 10699 H 1013.1 -1.94344 -4.89426 0
M  V30 10700 H 1015.59 -1.76177 -3.3432 0
M  V30 10701 H 1015.91 -4.14417 -6.52287 0
M  V30 10702 H 1014.25 -3.72109 -5.86992 0
M  V30 10703 H 1017.44 -2.25647 -4.10123 0
M  V30 10704 H 1017.61 -3.34267 -5.5513 0
M  V30 10705 N 1011.02 1.44971 -0.618145 0
M  V30 10706 C 1012.27 2.0176 -0.11725 0
M  V30 10707 C 1012.59 1.48773 1.26062 0
M  V30 10708 O 1011.86 0.686152 1.83491 0
M  V30 10709 H 1010.44 0.745909 -0.0403545 0
M  V30 10710 H 1013.1 1.77638 -0.801923 0
M  V30 10711 H 1012.2 3.1201 -0.0750477 0
M  V30 10712 N 1012.5 0.357919 1.53482 0
M  V30 10713 C 1013.72 -0.237769 2.06033 0
M  V30 10714 C 1014.15 -1.42292 1.23023 0
M  V30 10715 O 1013.51 -1.79604 0.247427 0
M  V30 10716 C 1013.55 -0.616806 3.55286 0
M  V30 10717 O 1012.66 -1.71503 3.75047 0
M  V30 10718 H 1012 -0.0364322 0.663 0
M  V30 10719 H 1014.53 0.516301 1.97979 0
M  V30 10720 H 1014.54 -0.88996 3.98175 0
M  V30 10721 H 1013.21 0.249825 4.15149 0
M  V30 10722 H 1011.79 -1.43803 3.44057 0
M  V30 10723 N 1013.98 -1.5736 0.0868897 0
M  V30 10724 C 1015.21 -1.981 -0.586498 0
M  V30 10725 C 1015.61 -0.96455 -1.62767 0
M  V30 10726 O 1014.96 0.0551801 -1.83617 0
M  V30 10727 C 1015.02 -3.35193 -1.29947 0
M  V30 10728 C 1014.68 -4.55157 -0.410012 0
M  V30 10729 C 1015.68 -5.18797 0.338532 0
M  V30 10730 C 1013.37 -5.01212 -0.33047 0
M  V30 10731 C 1015.36 -6.26854 1.15468 0
M  V30 10732 C 1013.05 -6.09138 0.48934 0
M  V30 10733 C 1014.04 -6.71823 1.23057 0
M  V30 10734 O 1013.73 -7.77669 2.03683 0
M  V30 10735 H 1013.46 -0.656166 -0.16255 0
M  V30 10736 H 1016.02 -2.04773 0.160379 0
M  V30 10737 H 1014.25 -3.25179 -2.09274 0
M  V30 10738 H 1015.94 -3.60435 -1.86658 0
M  V30 10739 H 1016.7 -4.84151 0.286764 0
M  V30 10740 H 1012.58 -4.52188 -0.897058 0
M  V30 10741 H 1016.13 -6.75712 1.73374 0
M  V30 10742 H 1012.02 -6.43215 0.542618 0
M  V30 10743 H 1012.79 -7.94618 1.96277 0
M  V30 10744 N 1015.45 0.186762 -1.56489 0
M  V30 10745 C 1016.39 1.25565 -1.91745 0
M  V30 10746 C 1017.4 1.4128 -0.80894 0
M  V30 10747 O 1018.59 1.41558 -1.08737 0
M  V30 10748 C 1015.69 2.62662 -2.14154 0
M  V30 10749 C 1014.86 2.68448 -3.45333 0
M  V30 10750 C 1013.92 3.86798 -3.56754 0
M  V30 10751 O 1012.95 3.73514 -4.29507 0
M  V30 10752 N 1014.15 5.02607 -2.90459 0
M  V30 10753 H 1016.91 0.956351 -2.84032 0
M  V30 10754 H 1014.47 0.376631 -1.57458 0
M  V30 10755 H 1016.47 3.40277 -2.19075 0
M  V30 10756 H 1015.04 2.85046 -1.28326 0
M  V30 10757 H 1014.26 1.77044 -3.52206 0
M  V30 10758 H 1015.54 2.69311 -4.31682 0
M  V30 10759 H 1014.94 5.163 -2.31194 0
M  V30 10760 H 1013.5 5.78139 -3.00996 0
M  V30 10761 N 1016.93 1.50896 0.454776 0
M  V30 10762 C 1018.21 1.53227 1.21576 0
M  V30 10763 C 1018.59 0.286358 2.09149 0
M  V30 10764 O 1017.94 -0.729469 2.16543 0
M  V30 10765 C 1018.15 2.83693 2.03271 0
M  V30 10766 C 1019.5 3.34981 2.60908 0
M  V30 10767 O 1020.52 2.85126 2.13499 0
M  V30 10768 O 1019.38 4.21929 3.4733 0
M  V30 10769 H 1016.47 0.615306 0.552564 0
M  V30 10770 H 1019.02 1.63197 0.465266 0
M  V30 10771 H 1017.79 3.65839 1.38843 0
M  V30 10772 H 1017.41 2.76803 2.85422 0
M  V30 10773 N 1018.41 -0.709066 1.40748 0
M  V30 10774 C 1019.64 -1.50313 1.42901 0
M  V30 10775 C 1020.06 -1.88072 0.032213 0
M  V30 10776 O 1019.42 -1.53716 -0.96131 0
M  V30 10777 C 1019.47 -2.75074 2.33166 0
M  V30 10778 O 1018.57 -3.72036 1.7794 0
M  V30 10779 H 1017.91 -0.452934 0.485538 0
M  V30 10780 H 1020.44 -0.872712 1.85054 0
M  V30 10781 H 1020.45 -3.23532 2.48578 0
M  V30 10782 H 1019.13 -2.46927 3.34664 0
M  V30 10783 H 1017.7 -3.30911 1.71908 0
M  V30 10784 N 1019.89 -1.26353 -0.941956 0
M  V30 10785 C 1020.82 -1.10341 -2.05784 0
M  V30 10786 C 1021.8 -0.00881565 -1.70098 0
M  V30 10787 O 1022.99 -0.180699 -1.93357 0
M  V30 10788 C 1020.12 -0.734788 -3.39438 0
M  V30 10789 C 1019.07 -1.78103 -3.89183 0
M  V30 10790 C 1018.4 -1.26675 -5.19478 0
M  V30 10791 C 1019.7 -3.1824 -4.14151 0
M  V30 10792 H 1021.39 -2.03684 -2.19438 0
M  V30 10793 H 1018.94 -0.980698 -1.05443 0
M  V30 10794 H 1020.89 -0.609653 -4.16967 0
M  V30 10795 H 1019.61 0.234354 -3.25758 0
M  V30 10796 H 1018.27 -1.89482 -3.13835 0
M  V30 10797 H 1017.92 -0.287472 -5.02178 0
M  V30 10798 H 1017.62 -1.96612 -5.53731 0
M  V30 10799 H 1019.14 -1.15427 -5.99591 0
M  V30 10800 H 1020.56 -3.09942 -4.82296 0
M  V30 10801 H 1018.95 -3.8576 -4.59684 0
M  V30 10802 H 1020.02 -3.64354 -3.19959 0
M  V30 10803 N 1021.37 1.14642 -1.08144 0
M  V30 10804 C 1022.78 1.37604 -0.808537 0
M  V30 10805 C 1022.98 1.92868 0.583452 0
M  V30 10806 O 1022.04 2.13964 1.34073 0
M  V30 10807 C 1023.35 2.3396 -1.889 0
M  V30 10808 C 1024.9 2.47605 -1.9147 0
M  V30 10809 C 1025.38 3.47258 -2.98623 0
M  V30 10810 N 1026.87 3.548 -2.97777 0
M  V30 10811 C 1027.6 4.31751 -3.77331 0
M  V30 10812 N 1027.1 5.11966 -4.66757 0
M  V30 10813 N 1028.89 4.2692 -3.65645 0
M  V30 10814 H 1021.04 0.771154 -1.97906 0
M  V30 10815 H 1023.3 0.401694 -0.858688 0
M  V30 10816 H 1023.01 2.00484 -2.88962 0
M  V30 10817 H 1022.88 3.33833 -1.756 0
M  V30 10818 H 1025.27 2.80375 -0.920548 0
M  V30 10819 H 1025.35 1.47702 -2.08848 0
M  V30 10820 H 1025 3.15223 -3.98243 0
M  V30 10821 H 1024.93 4.46935 -2.7849 0
M  V30 10822 H 1027.42 2.97553 -2.3296 0
M  V30 10823 H 1027.73 5.67951 -5.24072 0
M  V30 10824 H 1026.08 5.11245 -4.70801 0
M  V30 10825 H 1029.27 3.63322 -2.95152 0
M  V30 10826 H 1029.44 4.8664 -4.27885 0
M  V30 10827 N 1022.85 0.866709 1.31628 0
M  V30 10828 C 1023.81 0.325041 2.26883 0
M  V30 10829 C 1024.81 -0.522133 1.52087 0
M  V30 10830 O 1026 -0.331908 1.71009 0
M  V30 10831 C 1023.13 -0.538756 3.36616 0
M  V30 10832 H 1024.32 1.16592 2.76308 0
M  V30 10833 H 1021.88 0.642029 1.42505 0
M  V30 10834 H 1022.61 -1.40096 2.92478 0
M  V30 10835 H 1022.4 0.0678115 3.92041 0
M  V30 10836 H 1023.89 -0.910123 4.07562 0
M  V30 10837 N 1024.32 -1.44642 0.625825 0
M  V30 10838 C 1025.55 -2.06971 0.133373 0
M  V30 10839 C 1025.97 -1.46421 -1.18078 0
M  V30 10840 O 1025.33 -0.563676 -1.72315 0
M  V30 10841 C 1025.38 -3.6059 0.0265097 0
M  V30 10842 O 1024.48 -3.99615 -1.01889 0
M  V30 10843 H 1023.82 -0.658873 0.0823568 0
M  V30 10844 H 1026.35 -1.85601 0.861002 0
M  V30 10845 H 1026.36 -4.07663 -0.1658 0
M  V30 10846 H 1025.04 -4.04043 0.985986 0
M  V30 10847 H 1023.62 -3.64183 -0.801577 0
M  V30 10848 N 1025.8 -0.366053 -1.5329 0
M  V30 10849 C 1027.05 0.224614 -2.00445 0
M  V30 10850 C 1027.36 1.49829 -1.2574 0
M  V30 10851 O 1028.57 2.16759 -1.63487 0
M  V30 10852 C 1027.03 0.450818 -3.57065 0
M  V30 10853 C 1026.63 -0.808257 -4.40649 0
M  V30 10854 C 1028.38 0.999116 -4.12575 0
M  V30 10855 C 1026.28 -0.551612 -5.88822 0
M  V30 10856 H 1025.21 0.0877114 -0.748881 0
M  V30 10857 H 1027.87 -0.484866 -1.76978 0
M  V30 10858 H 1026.25 1.22157 -3.76688 0
M  V30 10859 H 1027.42 -1.58184 -4.32798 0
M  V30 10860 H 1025.74 -1.27981 -3.96245 0
M  V30 10861 H 1028.33 1.20646 -5.20911 0
M  V30 10862 H 1028.68 1.96139 -3.67199 0
M  V30 10863 H 1029.21 0.288518 -3.96752 0
M  V30 10864 H 1025.95 -1.48423 -6.38475 0
M  V30 10865 H 1025.47 0.183462 -5.99519 0
M  V30 10866 H 1027.15 -0.177307 -6.46757 0
M  V30 10867 N 1027.28 1.57312 -0.0952337 0
M  V30 10868 C 1028.7 1.57445 0.261416 0
M  V30 10869 C 1028.9 1.10639 1.68408 0
M  V30 10870 O 1027.95 0.782912 2.40056 0
M  V30 10871 C 1029.26 3.00659 0.0497206 0
M  V30 10872 C 1030.81 3.1278 0.117459 0
M  V30 10873 C 1031.29 4.57952 -0.0662441 0
M  V30 10874 N 1032.78 4.63199 -0.0114146 0
M  V30 10875 C 1033.51 5.73255 -0.128799 0
M  V30 10876 N 1033.01 6.92146 -0.301026 0
M  V30 10877 N 1034.8 5.62056 -0.0700599 0
M  V30 10878 H 1026.95 1.86045 -1.02475 0
M  V30 10879 H 1029.22 0.858726 -0.401614 0
M  V30 10880 H 1028.92 3.39102 -0.932888 0
M  V30 10881 H 1028.8 3.68792 0.791975 0
M  V30 10882 H 1031.18 2.74209 1.09057 0
M  V30 10883 H 1031.26 2.47238 -0.656288 0
M  V30 10884 H 1030.91 4.97217 -1.03623 0
M  V30 10885 H 1030.84 5.21555 0.727198 0
M  V30 10886 H 1033.33 3.77712 0.119154 0
M  V30 10887 H 1033.64 7.71855 -0.382104 0
M  V30 10888 H 1031.99 6.94184 -0.336695 0
M  V30 10889 H 1035.18 4.68057 0.0633587 0
M  V30 10890 H 1035.35 6.4779 -0.164991 0
M  V30 10891 N 1028.76 -0.17846 1.56586 0
M  V30 10892 C 1029.69 -1.24547 1.92408 0
M  V30 10893 C 1030.7 -1.40849 0.816421 0
M  V30 10894 O 1031.89 -1.40979 1.09486 0
M  V30 10895 C 1028.99 -2.61523 2.15544 0
M  V30 10896 C 1028.16 -2.66613 3.46751 0
M  V30 10897 C 1027.22 -3.84901 3.588 0
M  V30 10898 O 1026.25 -3.71231 4.31482 0
M  V30 10899 N 1027.45 -5.0106 2.9312 0
M  V30 10900 H 1030.22 -0.941275 2.84535 0
M  V30 10901 H 1027.78 -0.368275 1.57656 0
M  V30 10902 H 1029.77 -3.3911 2.20876 0
M  V30 10903 H 1028.34 -2.84362 1.29835 0
M  V30 10904 H 1027.56 -1.75174 3.5314 0
M  V30 10905 H 1028.85 -2.67018 4.33104 0
M  V30 10906 H 1028.25 -5.15067 2.33928 0
M  V30 10907 H 1026.8 -5.76535 3.04057 0
M  V30 10908 N 1030.24 -1.51135 -0.446768 0
M  V30 10909 C 1031.65 -1.39101 -0.782504 0
M  V30 10910 C 1031.85 -0.46599 -1.96038 0
M  V30 10911 O 1030.91 0.0823679 -2.52366 0
M  V30 10912 C 1032.22 -2.80953 -1.07173 0
M  V30 10913 C 1033.77 -2.90038 -1.17673 0
M  V30 10914 C 1034.24 -4.32777 -1.49894 0
M  V30 10915 N 1035.73 -4.3584 -1.56837 0
M  V30 10916 C 1036.47 -5.43305 -1.83322 0
M  V30 10917 N 1035.97 -6.60945 -2.07662 0
M  V30 10918 N 1037.76 -5.30775 -1.85026 0
M  V30 10919 H 1029.91 -2.09835 0.329114 0
M  V30 10920 H 1032.17 -0.944199 0.0848054 0
M  V30 10921 H 1031.88 -3.50591 -0.279037 0
M  V30 10922 H 1031.75 -3.197 -2.00179 0
M  V30 10923 H 1034.14 -2.20603 -1.96005 0
M  V30 10924 H 1034.22 -2.54801 -0.225892 0
M  V30 10925 H 1033.86 -5.02757 -0.720924 0
M  V30 10926 H 1033.79 -4.6552 -2.46168 0
M  V30 10927 H 1036.29 -3.51023 -1.39968 0
M  V30 10928 H 1036.6 -7.38643 -2.27214 0
M  V30 10929 H 1034.94 -6.64077 -2.05003 0
M  V30 10930 H 1038.13 -4.37858 -1.65523 0
M  V30 10931 H 1038.31 -6.14609 -2.05329 0
M  V30 10932 N 1031.71 0.701592 -1.41122 0
M  V30 10933 C 1032.94 1.49553 -1.43696 0
M  V30 10934 C 1033.36 1.88053 -0.0421865 0
M  V30 10935 O 1032.72 1.54223 0.953144 0
M  V30 10936 C 1032.77 2.73834 -2.34622 0
M  V30 10937 O 1031.87 3.71088 -1.7991 0
M  V30 10938 H 1031.21 0.450352 -0.487933 0
M  V30 10939 H 1033.74 0.862886 -1.85514 0
M  V30 10940 H 1033.75 3.22209 -2.5029 0
M  V30 10941 H 1032.43 2.45149 -3.35969 0
M  V30 10942 H 1031.01 3.29994 -1.73661 0
M  V30 10943 N 1033.19 1.2685 0.935242 0
M  V30 10944 C 1034.14 1.08923 2.03481 0
M  V30 10945 C 1035.11 -0.00749786 1.66098 0
M  V30 10946 O 1036.29 0.153401 1.90182 0
M  V30 10947 C 1033.43 0.734529 3.37192 0
M  V30 10948 C 1032.55 1.90812 3.87576 0
M  V30 10949 C 1031.68 1.49599 5.097 0
M  V30 10950 C 1030.72 2.63752 5.5236 0
M  V30 10951 N 1029.86 2.23179 6.65684 0
M  V30 10952 H 1034.7 2.03016 2.18148 0
M  V30 10953 H 1032.23 1.01072 1.06878 0
M  V30 10954 H 1034.19 0.509734 4.14074 0
M  V30 10955 H 1032.82 -0.169438 3.22355 0
M  V30 10956 H 1031.87 2.24567 3.0704 0
M  V30 10957 H 1033.19 2.7647 4.1517 0
M  V30 10958 H 1032.34 1.23199 5.9406 0
M  V30 10959 H 1031.08 0.61039 4.83865 0
M  V30 10960 H 1030.08 2.90874 4.66554 0
M  V30 10961 H 1031.31 3.5292 5.80193 0
M  V30 10962 H 1029.26 1.37061 6.41522 0
M  V30 10963 H 1029.17 3.02379 6.92895 0
M  V30 10964 H 1030.44 2.00007 7.53404 0
M  V30 10965 N 1034.67 -1.14067 1.0875 0
M  V30 10966 C 1035.9 -1.89582 0.841038 0
M  V30 10967 C 1036.32 -1.78226 -0.601436 0
M  V30 10968 O 1035.68 -1.12491 -1.42181 0
M  V30 10969 C 1035.73 -3.37415 1.27213 0
M  V30 10970 O 1034.83 -4.10191 0.426246 0
M  V30 10971 H 1034.17 -0.589716 0.305173 0
M  V30 10972 H 1036.7 -1.44364 1.44984 0
M  V30 10973 H 1036.71 -3.88234 1.25451 0
M  V30 10974 H 1035.39 -3.44999 2.32268 0
M  V30 10975 H 1033.96 -3.69429 0.507585 0
M  V30 10976 N 1036.15 -0.873678 -1.31166 0
M  V30 10977 C 1037.08 -0.289389 -2.27366 0
M  V30 10978 C 1038.09 0.549667 -1.5324 0
M  V30 10979 O 1039.28 0.371056 -1.74601 0
M  V30 10980 C 1036.38 0.60807 -3.334 0
M  V30 10981 C 1035.56 -0.199379 -4.36945 0
M  V30 10982 C 1034.61 0.626798 -5.22454 0
M  V30 10983 O 1033.64 0.0535121 -5.69175 0
M  V30 10984 N 1034.84 1.93809 -5.47191 0
M  V30 10985 H 1037.61 -1.1161 -2.78143 0
M  V30 10986 H 1035.17 -0.735529 -1.44228 0
M  V30 10987 H 1037.16 1.16656 -3.87522 0
M  V30 10988 H 1035.73 1.33545 -2.82638 0
M  V30 10989 H 1034.95 -0.939316 -3.82845 0
M  V30 10990 H 1036.24 -0.75329 -5.03193 0
M  V30 10991 H 1035.64 2.42693 -5.10995 0
M  V30 10992 H 1034.19 2.44428 -6.04234 0
M  V30 10993 N 1037.63 1.44308 -0.633487 0
M  V30 10994 C 1038.56 2.33431 0.0568402 0
M  V30 10995 C 1039.54 1.48342 0.832386 0
M  V30 10996 O 1040.72 1.77056 0.797798 0
M  V30 10997 C 1037.85 3.31443 1.03743 0
M  V30 10998 C 1036.81 4.26368 0.373362 0
M  V30 10999 C 1036.13 5.14267 1.46403 0
M  V30 11000 C 1037.43 5.17287 -0.721876 0
M  V30 11001 H 1039.13 2.91402 -0.687388 0
M  V30 11002 H 1036.67 1.4012 -0.332009 0
M  V30 11003 H 1038.63 3.92677 1.52913 0
M  V30 11004 H 1037.35 2.71686 1.81258 0
M  V30 11005 H 1036.01 3.6647 -0.0977053 0
M  V30 11006 H 1035.66 4.50861 2.23011 0
M  V30 11007 H 1035.36 5.7859 1.02506 0
M  V30 11008 H 1036.88 5.78373 1.95748 0
M  V30 11009 H 1038.29 5.72444 -0.313181 0
M  V30 11010 H 1036.69 5.90226 -1.08413 0
M  V30 11011 H 1037.76 4.58159 -1.58804 0
M  V30 11012 N 1039.1 0.374177 1.53094 0
M  V30 11013 C 1040.33 -0.215903 2.06273 0
M  V30 11014 C 1040.75 -1.40979 1.24526 0
M  V30 11015 O 1040.11 -1.79331 0.266462 0
M  V30 11016 C 1040.16 -0.579089 3.5592 0
M  V30 11017 O 1039.26 -1.67516 3.76845 0
M  V30 11018 H 1038.61 -0.0293981 0.663349 0
M  V30 11019 H 1041.14 0.537271 1.9742 0
M  V30 11020 H 1041.15 -0.847678 3.99097 0
M  V30 11021 H 1039.82 0.293843 4.14861 0
M  V30 11022 H 1038.4 -1.40146 3.45563 0
M  V30 11023 N 1040.58 -1.57259 0.103575 0
M  V30 11024 C 1041.81 -1.98711 -0.565454 0
M  V30 11025 C 1042.22 -0.981759 -1.61735 0
M  V30 11026 O 1041.56 0.0357019 -1.83665 0
M  V30 11027 C 1041.63 -3.36552 -1.26384 0
M  V30 11028 C 1041.29 -4.55566 -0.361714 0
M  V30 11029 C 1042.29 -5.18408 0.393539 0
M  V30 11030 C 1039.97 -5.01534 -0.277292 0
M  V30 11031 C 1041.97 -6.25594 1.2211 0
M  V30 11032 C 1039.65 -6.08584 0.553919 0
M  V30 11033 C 1040.65 -6.7048 1.30176 0
M  V30 11034 O 1040.34 -7.75464 2.1192 0
M  V30 11035 H 1040.07 -0.657853 -0.155582 0
M  V30 11036 H 1042.62 -2.04591 0.182089 0
M  V30 11037 H 1040.85 -3.2738 -2.05813 0
M  V30 11038 H 1042.54 -3.62395 -1.82824 0
M  V30 11039 H 1043.31 -4.8382 0.338098 0
M  V30 11040 H 1039.19 -4.53114 -0.849047 0
M  V30 11041 H 1042.73 -6.73836 1.80531 0
M  V30 11042 H 1038.63 -6.42604 0.610809 0
M  V30 11043 H 1039.4 -7.92491 2.04694 0
M  V30 11044 N 1042.06 0.170153 -1.56679 0
M  V30 11045 C 1042.99 1.21285 -1.9953 0
M  V30 11046 C 1043.97 1.46104 -0.871071 0
M  V30 11047 O 1045.16 1.57419 -1.13724 0
M  V30 11048 C 1042.29 2.5515 -2.35618 0
M  V30 11049 C 1041.24 2.44898 -3.51011 0
M  V30 11050 C 1040.57 3.83263 -3.72845 0
M  V30 11051 C 1041.87 1.95271 -4.84424 0
M  V30 11052 H 1043.56 0.856646 -2.86883 0
M  V30 11053 H 1041.11 0.410634 -1.38021 0
M  V30 11054 H 1043.06 3.28299 -2.64193 0
M  V30 11055 H 1041.78 2.92561 -1.45175 0
M  V30 11056 H 1040.44 1.74203 -3.22566 0
M  V30 11057 H 1040.09 4.18069 -2.79691 0
M  V30 11058 H 1039.79 3.77272 -4.50488 0
M  V30 11059 H 1041.31 4.57996 -4.03822 0
M  V30 11060 H 1042.73 2.58195 -5.11867 0
M  V30 11061 H 1041.13 2.00225 -5.65712 0
M  V30 11062 H 1042.2 0.90709 -4.7634 0
M  V30 11063 N 1043.54 1.5137 0.438746 0
M  V30 11064 C 1044.78 1.64211 1.19006 0
M  V30 11065 C 1045.12 0.356607 1.90898 0
M  V30 11066 O 1044.39 -0.643722 1.83539 0
M  V30 11067 C 1044.68 2.8445 2.20817 0
M  V30 11068 C 1044.53 4.22972 1.53018 0
M  V30 11069 C 1045.85 3.00207 3.21813 0
M  V30 11070 H 1042.97 0.597628 0.431288 0
M  V30 11071 H 1045.61 1.8385 0.479487 0
M  V30 11072 H 1043.76 2.67836 2.81418 0
M  V30 11073 H 1045.43 4.5125 0.957654 0
M  V30 11074 H 1043.67 4.25736 0.832556 0
M  V30 11075 H 1044.34 5.03094 2.27158 0
M  V30 11076 H 1046.82 3.15522 2.71266 0
M  V30 11077 H 1045.7 3.85904 3.90345 0
M  V30 11078 H 1045.96 2.12216 3.87836 0
M  V30 11079 N 1045.02 -0.694098 1.41492 0
M  V30 11080 C 1045.97 -1.80016 1.39923 0
M  V30 11081 C 1046.95 -1.58561 0.273377 0
M  V30 11082 O 1048.14 -1.69368 0.514157 0
M  V30 11083 C 1045.27 -3.18333 1.28526 0
M  V30 11084 C 1044.36 -3.45478 2.45979 0
M  V30 11085 N 1044.75 -3.43313 3.71443 0
M  V30 11086 C 1043.05 -3.76033 2.39824 0
M  V30 11087 C 1043.75 -3.69404 4.4935 0
M  V30 11088 N 1042.72 -3.89221 3.79484 0
M  V30 11089 H 1046.53 -1.76707 2.34844 0
M  V30 11090 H 1044.04 -0.894148 1.35568 0
M  V30 11091 H 1046.04 -3.97567 1.25484 0
M  V30 11092 H 1044.7 -3.22852 0.345904 0
M  V30 11093 H 1045.71 -3.2366 4.04308 0
M  V30 11094 H 1042.38 -3.87913 1.54368 0
M  V30 11095 H 1043.77 -3.73854 5.58285 0
M  V30 11096 N 1046.49 -1.27344 -0.928501 0
M  V30 11097 C 1047.4 -1.11812 -2.06241 0
M  V30 11098 C 1048.42 -0.048347 -1.73933 0
M  V30 11099 O 1049.6 -0.25467 -1.99783 0
M  V30 11100 C 1046.66 -0.766036 -3.38131 0
M  V30 11101 C 1045.72 -1.91659 -3.84142 0
M  V30 11102 C 1044.96 -1.58121 -5.09738 0
M  V30 11103 O 1045.18 -0.488742 -5.68302 0
M  V30 11104 O 1044.11 -2.42013 -5.51102 0
M  V30 11105 H 1047.94 -2.06967 -2.22258 0
M  V30 11106 H 1045.52 -1.06524 -1.04752 0
M  V30 11107 H 1047.41 -0.582982 -4.17348 0
M  V30 11108 H 1046.08 0.155998 -3.23324 0
M  V30 11109 H 1044.99 -2.1547 -3.05816 0
M  V30 11110 H 1046.32 -2.8188 -4.0349 0
M  V30 11111 N 1047.97 1.13488 -1.09353 0
M  V30 11112 C 1049.38 1.66299 -0.848609 0
M  V30 11113 C 1049.73 1.86044 0.623051 0
M  V30 11114 O 1048.86 1.57871 1.48005 0
M  V30 11115 C 1049.45 3.02087 -1.53391 0
M  V30 11116 C 1048.01 3.51893 -1.33598 0
M  V30 11117 C 1047.16 2.27154 -1.59048 0
M  V30 11118 H 1050.11 0.974208 -1.25279 0
M  V30 11119 H 1050.13 3.68018 -0.966587 0
M  V30 11120 H 1049.64 2.87684 -2.60498 0
M  V30 11121 H 1047.75 3.715 -0.286045 0
M  V30 11122 H 1047.86 4.32059 -2.0703 0
M  V30 11123 H 1046.22 2.33708 -1.01256 0
M  V30 11124 H 1047.01 2.15317 -2.67383 0
M  V30 11125 N 1049.45 0.880621 1.30701 0
M  V30 11126 C 1050.86 0.547993 1.78477 0
M  V30 11127 C 1051.21 -0.935633 1.72454 0
M  V30 11128 O 1050.34 -1.73094 1.29874 0
M  V30 11129 C 1050.93 0.98795 3.24076 0
M  V30 11130 C 1049.49 0.706805 3.69704 0
M  V30 11131 C 1048.64 1.17335 2.51252 0
M  V30 11132 H 1051.59 1.06528 1.17633 0
M  V30 11133 H 1051.61 0.31508 3.79193 0
M  V30 11134 H 1051.12 2.06778 3.28427 0
M  V30 11135 H 1049.22 -0.36122 3.70845 0
M  V30 11136 H 1049.34 1.2913 4.6137 0
M  V30 11137 H 1047.7 0.592808 2.47705 0
M  V30 11138 H 1048.48 2.26083 2.58343 0
M  V30 11139 N 1050.93 -1.4397 0.641131 0
M  V30 11140 C 1051.86 -2.33458 -0.04446 0
M  V30 11141 C 1052.84 -1.48781 -0.824507 0
M  V30 11142 O 1054.03 -1.77477 -0.788397 0
M  V30 11143 C 1051.16 -3.31989 -1.01984 0
M  V30 11144 C 1050.11 -4.2656 -0.350745 0
M  V30 11145 C 1049.44 -5.15036 -1.43673 0
M  V30 11146 C 1050.74 -5.16897 0.749299 0
M  V30 11147 H 1052.43 -2.91034 0.702832 0
M  V30 11148 H 1049.98 -1.39942 0.339435 0
M  V30 11149 H 1051.93 -3.93483 -1.50828 0
M  V30 11150 H 1050.65 -2.72643 -1.79815 0
M  V30 11151 H 1049.31 -3.66413 0.117139 0
M  V30 11152 H 1048.96 -4.52037 -2.20617 0
M  V30 11153 H 1048.66 -5.79125 -0.994358 0
M  V30 11154 H 1050.18 -5.79403 -1.92678 0
M  V30 11155 H 1051.6 -5.7227 0.343534 0
M  V30 11156 H 1049.99 -5.89643 1.11541 0
M  V30 11157 H 1051.06 -4.5731 1.61232 0
M  V30 11158 N 1052.41 -0.382291 -1.52893 0
M  V30 11159 C 1053.37 0.44408 -2.24857 0
M  V30 11160 C 1054.37 0.996004 -1.26239 0
M  V30 11161 O 1055.56 0.879114 -1.5039 0
M  V30 11162 C 1052.69 1.62234 -2.99822 0
M  V30 11163 H 1053.89 -0.185862 -2.99324 0
M  V30 11164 H 1051.44 -0.134275 -1.55722 0
M  V30 11165 H 1052.17 2.28991 -2.29638 0
M  V30 11166 H 1051.96 1.23336 -3.72197 0
M  V30 11167 H 1053.45 2.20756 -3.54481 0
M  V30 11168 N 1053.89 1.57202 -0.111913 0
M  V30 11169 C 1055.13 1.95239 0.548607 0
M  V30 11170 C 1055.46 0.994897 1.6678 0
M  V30 11171 O 1054.74 0.0308603 1.94476 0
M  V30 11172 C 1055.02 3.43271 1.08798 0
M  V30 11173 C 1054.88 4.49792 -0.0273064 0
M  V30 11174 C 1056.19 3.92989 1.98109 0
M  V30 11175 H 1053.31 0.709919 0.197951 0
M  V30 11176 H 1055.96 1.89087 -0.186036 0
M  V30 11177 H 1054.11 3.48644 1.71404 0
M  V30 11178 H 1055.78 4.56521 -0.662302 0
M  V30 11179 H 1054.02 4.28254 -0.691426 0
M  V30 11180 H 1054.69 5.50612 0.391201 0
M  V30 11181 H 1057.17 3.89875 1.45385 0
M  V30 11182 H 1056.04 4.97101 2.32769 0
M  V30 11183 H 1056.3 3.33267 2.90492 0
M  V30 11184 N 1055.36 -0.161842 1.56767 0
M  V30 11185 C 1056.61 -0.878224 1.82798 0
M  V30 11186 C 1056.94 -1.81481 0.691242 0
M  V30 11187 O 1056.22 -1.92075 -0.30618 0
M  V30 11188 C 1056.5 -1.66565 3.19262 0
M  V30 11189 C 1056.35 -0.751551 4.43477 0
M  V30 11190 C 1057.67 -2.63134 3.52773 0
M  V30 11191 H 1054.79 -0.317828 0.664947 0
M  V30 11192 H 1057.43 -0.14402 1.89453 0
M  V30 11193 H 1055.58 -2.29157 3.13719 0
M  V30 11194 H 1057.26 -0.137783 4.61094 0
M  V30 11195 H 1055.5 -0.0601785 4.33758 0
M  V30 11196 H 1056.17 -1.33823 5.35533 0
M  V30 11197 H 1058.65 -2.10666 3.5883 0
M  V30 11198 H 1057.52 -3.15289 4.49315 0
M  V30 11199 H 1057.78 -3.43786 2.77963 0
M  V30 11200 N 1056.84 -1.516 -0.430713 0
M  V30 11201 C 1058.12 -1.55142 -1.19123 0
M  V30 11202 C 1058.5 -0.319596 -2.08667 0
M  V30 11203 O 1057.85 0.694927 -2.17676 0
M  V30 11204 C 1058.06 -2.86891 -1.98732 0
M  V30 11205 C 1059.4 -3.39089 -2.55546 0
M  V30 11206 O 1060.43 -2.88486 -2.08936 0
M  V30 11207 O 1059.29 -4.27401 -3.40574 0
M  V30 11208 H 1056.38 -0.624019 -0.542705 0
M  V30 11209 H 1058.93 -1.63917 -0.439244 0
M  V30 11210 H 1057.7 -3.68002 -1.33005 0
M  V30 11211 H 1057.32 -2.81309 -2.80982 0
M  V30 11212 N 1058.32 0.686584 -1.41858 0
M  V30 11213 C 1059.27 1.79271 -1.40875 0
M  V30 11214 C 1060.25 1.58413 -0.281782 0
M  V30 11215 O 1061.45 1.69093 -0.523132 0
M  V30 11216 C 1058.57 3.17647 -1.30213 0
M  V30 11217 C 1057.66 3.44168 -2.47808 0
M  V30 11218 N 1058.05 3.41339 -3.73258 0
M  V30 11219 C 1056.35 3.74755 -2.41815 0
M  V30 11220 C 1057.05 3.67016 -4.51303 0
M  V30 11221 N 1056.03 3.87203 -3.81543 0
M  V30 11222 H 1059.83 1.75459 -2.35778 0
M  V30 11223 H 1057.34 0.886946 -1.36041 0
M  V30 11224 H 1059.34 3.96896 -1.2759 0
M  V30 11225 H 1058 3.22664 -0.363021 0
M  V30 11226 H 1059.01 3.21511 -4.06018 0
M  V30 11227 H 1055.69 3.87089 -1.56423 0
M  V30 11228 H 1057.08 3.70888 -5.6026 0
M  V30 11229 N 1059.8 1.27835 0.921735 0
M  V30 11230 C 1060.74 1.11075 2.02314 0
M  V30 11231 C 1061.71 0.0101195 1.66097 0
M  V30 11232 O 1062.9 0.173564 1.90009 0
M  V30 11233 C 1060.04 0.770251 3.36394 0
M  V30 11234 C 1059.15 1.94912 3.8553 0
M  V30 11235 C 1058.29 1.54996 5.08084 0
M  V30 11236 C 1057.33 2.69595 5.49531 0
M  V30 11237 N 1056.46 2.30227 6.6328 0
M  V30 11238 H 1061.3 2.05319 2.15982 0
M  V30 11239 H 1058.84 1.022 1.058 0
M  V30 11240 H 1060.8 0.553624 4.1351 0
M  V30 11241 H 1059.43 -0.135238 3.22517 0
M  V30 11242 H 1058.48 2.27811 3.04641 0
M  V30 11243 H 1059.79 2.80858 4.12214 0
M  V30 11244 H 1058.95 1.29493 5.9272 0
M  V30 11245 H 1057.69 0.661676 4.83191 0
M  V30 11246 H 1056.69 2.95806 4.63442 0
M  V30 11247 H 1057.92 3.59054 5.76417 0
M  V30 11248 H 1055.86 1.43858 6.40032 0
M  V30 11249 H 1055.78 3.09711 6.89649 0
M  V30 11250 H 1057.05 2.07987 7.5124 0
M  V30 11251 N 1061.28 -1.12907 1.09954 0
M  V30 11252 C 1062.5 -1.88679 0.861099 0
M  V30 11253 C 1062.93 -1.78853 -0.582499 0
M  V30 11254 O 1062.28 -1.13992 -1.4098 0
M  V30 11255 C 1062.33 -3.36047 1.30785 0
M  V30 11256 O 1061.44 -4.09716 0.469728 0
M  V30 11257 H 1060.78 -0.586447 0.31141 0
M  V30 11258 H 1063.31 -1.42818 1.46507 0
M  V30 11259 H 1063.32 -3.86882 1.29562 0
M  V30 11260 H 1061.99 -3.42516 2.35914 0
M  V30 11261 H 1060.57 -3.6887 0.54674 0
M  V30 11262 N 1062.75 -0.88754 -1.30232 0
M  V30 11263 C 1063.98 -0.522306 -2.00199 0
M  V30 11264 C 1064.4 0.889866 -1.66514 0
M  V30 11265 O 1063.75 1.58558 -0.903639 0
M  V30 11266 C 1063.8 -0.690551 -3.54843 0
M  V30 11267 O 1063.53 -2.04713 -3.8733 0
M  V30 11268 C 1065.03 -0.328649 -4.4208 0
M  V30 11269 H 1062.25 -0.201628 -0.63999 0
M  V30 11270 H 1064.79 -1.19355 -1.66056 0
M  V30 11271 H 1062.95 -0.0666493 -3.87343 0
M  V30 11272 H 1063.36 -2.06762 -4.82027 0
M  V30 11273 H 1064.83 -0.497257 -5.49756 0
M  V30 11274 H 1065.31 0.733502 -4.33032 0
M  V30 11275 H 1065.92 -0.928982 -4.1503 0
M  V30 11276 N 1064.23 1.43628 -0.648757 0
M  V30 11277 C 1065.46 2.05918 -0.167701 0
M  V30 11278 C 1065.87 1.48681 1.17006 0
M  V30 11279 O 1065.21 0.610984 1.73242 0
M  V30 11280 C 1065.28 3.595 0.00265514 0
M  V30 11281 C 1064.94 4.39295 -1.2597 0
M  V30 11282 C 1065.94 4.71643 -2.18743 0
M  V30 11283 C 1063.62 4.79379 -1.50004 0
M  V30 11284 C 1065.62 5.42978 -3.33846 0
M  V30 11285 C 1063.3 5.50459 -2.65401 0
M  V30 11286 C 1064.3 5.82181 -3.57148 0
M  V30 11287 O 1063.99 6.5181 -4.7053 0
M  V30 11288 H 1063.72 0.670619 -0.0851261 0
M  V30 11289 H 1066.27 1.85196 -0.888351 0
M  V30 11290 H 1064.5 3.7878 0.77863 0
M  V30 11291 H 1066.19 4.03503 0.440501 0
M  V30 11292 H 1066.96 4.41199 -2.01416 0
M  V30 11293 H 1062.84 4.54098 -0.794745 0
M  V30 11294 H 1066.38 5.67656 -4.05479 0
M  V30 11295 H 1062.28 5.8032 -2.82664 0
M  V30 11296 H 1063.05 6.7029 -4.69738 0
M  V30 11297 N 1065.71 0.390394 1.52688 0
M  V30 11298 C 1066.62 -0.451543 2.30213 0
M  V30 11299 C 1067.64 -1.07051 1.37172 0
M  V30 11300 O 1068.81 -1.07609 1.70242 0
M  V30 11301 C 1065.88 -1.56299 3.0947 0
M  V30 11302 C 1064.94 -0.969017 4.18221 0
M  V30 11303 C 1064.17 -2.0275 4.93688 0
M  V30 11304 O 1064.39 -3.24273 4.69258 0
M  V30 11305 O 1063.33 -1.64418 5.79008 0
M  V30 11306 H 1067.15 0.180042 3.03166 0
M  V30 11307 H 1064.74 0.154082 1.48603 0
M  V30 11308 H 1066.62 -2.20864 3.58883 0
M  V30 11309 H 1065.3 -2.17952 2.3933 0
M  V30 11310 H 1064.2 -0.286587 3.73001 0
M  V30 11311 H 1065.54 -0.396687 4.90599 0
M  V30 11312 N 1067.19 -1.57141 0.120249 0
M  V30 11313 C 1068.1 -2.18925 -0.843155 0
M  V30 11314 C 1069.11 -1.16575 -1.29175 0
M  V30 11315 O 1070.29 -1.4905 -1.35448 0
M  V30 11316 C 1067.36 -2.7775 -2.075 0
M  V30 11317 C 1066.42 -3.95139 -1.6782 0
M  V30 11318 C 1065.65 -4.51149 -2.85132 0
M  V30 11319 O 1065.87 -4.06056 -4.00593 0
M  V30 11320 O 1064.81 -5.41815 -2.62145 0
M  V30 11321 H 1068.63 -3.01707 -0.347357 0
M  V30 11322 H 1066.22 -1.49028 -0.105427 0
M  V30 11323 H 1068.1 -3.15243 -2.79643 0
M  V30 11324 H 1066.77 -1.97998 -2.56083 0
M  V30 11325 H 1065.68 -3.62412 -0.927807 0
M  V30 11326 H 1067.01 -4.7633 -1.23977 0
M  V30 11327 N 1068.67 0.153526 -1.5685 0
M  V30 11328 C 1069.94 0.895545 -1.73895 0
M  V30 11329 C 1070.32 1.99625 -0.686504 0
M  V30 11330 O 1069.67 2.26579 0.2957 0
M  V30 11331 C 1069.88 1.44399 -3.17726 0
M  V30 11332 C 1071.23 1.90996 -3.79217 0
M  V30 11333 O 1072.25 1.54155 -3.21115 0
M  V30 11334 O 1071.11 2.58917 -4.81274 0
M  V30 11335 H 1068.21 0.422755 -0.710779 0
M  V30 11336 H 1070.75 0.139961 -1.69122 0
M  V30 11337 H 1069.52 0.652635 -3.85819 0
M  V30 11338 H 1069.15 2.26326 -3.26898 0
M  V30 11339 N 1070.14 1.51827 0.422667 0
M  V30 11340 C 1071.56 1.40328 0.760275 0
M  V30 11341 C 1071.76 0.497119 1.95272 0
M  V30 11342 O 1070.82 -0.0422083 2.52465 0
M  V30 11343 C 1072.13 2.82622 1.02689 0
M  V30 11344 C 1073.68 2.91874 1.13044 0
M  V30 11345 C 1074.15 4.35107 1.4299 0
M  V30 11346 N 1075.64 4.3828 1.49883 0
M  V30 11347 C 1076.38 5.46153 1.74655 0
M  V30 11348 N 1075.87 6.64165 1.9712 0
M  V30 11349 N 1077.67 5.33651 1.76558 0
M  V30 11350 H 1069.82 2.09285 -0.362455 0
M  V30 11351 H 1072.08 0.94273 -0.0998161 0
M  V30 11352 H 1071.79 3.50991 0.223226 0
M  V30 11353 H 1071.66 3.22844 1.95068 0
M  V30 11354 H 1074.05 2.23694 1.92471 0
M  V30 11355 H 1074.13 2.55128 0.185326 0
M  V30 11356 H 1073.77 5.03841 0.640848 0
M  V30 11357 H 1073.7 4.69377 2.38731 0
M  V30 11358 H 1076.19 3.53206 1.34366 0
M  V30 11359 H 1076.51 7.42165 2.15434 0
M  V30 11360 H 1074.85 6.67255 1.94413 0
M  V30 11361 H 1078.04 4.40436 1.58536 0
M  V30 11362 H 1078.22 6.17798 1.95525 0
M  V30 11363 N 1071.62 -0.679052 1.4222 0
M  V30 11364 C 1072.57 -1.79269 1.45366 0
M  V30 11365 C 1073.54 -1.63255 0.306089 0
M  V30 11366 O 1074.72 -1.8387 0.509548 0
M  V30 11367 C 1071.86 -3.17272 1.35766 0
M  V30 11368 C 1070.98 -3.44603 2.60525 0
M  V30 11369 C 1070.11 -4.7231 2.43098 0
M  V30 11370 C 1069.15 -4.92661 3.63251 0
M  V30 11371 N 1068.29 -6.11606 3.44794 0
M  V30 11372 H 1073.13 -1.75916 2.40536 0
M  V30 11373 H 1070.67 -0.858836 1.19425 0
M  V30 11374 H 1072.62 -3.97015 1.282 0
M  V30 11375 H 1071.25 -3.1976 0.441939 0
M  V30 11376 H 1070.31 -2.59144 2.78475 0
M  V30 11377 H 1071.62 -3.55536 3.49851 0
M  V30 11378 H 1070.77 -5.60136 2.33093 0
M  V30 11379 H 1069.51 -4.63652 1.51255 0
M  V30 11380 H 1068.52 -4.03278 3.73693 0
M  V30 11381 H 1069.74 -5.03167 4.5607 0
M  V30 11382 H 1067.69 -6.04129 2.55663 0
M  V30 11383 H 1067.6 -6.23381 4.27705 0
M  V30 11384 H 1068.87 -7.02122 3.38592 0
M  V30 11385 N 1073.1 -1.28322 -0.914942 0
M  V30 11386 C 1074.38 -1.06111 -1.64316 0
M  V30 11387 C 1074.76 0.399934 -2.07277 0
M  V30 11388 O 1074.11 1.38577 -1.81683 0
M  V30 11389 C 1074.32 -2.03461 -2.83557 0
M  V30 11390 C 1075.66 -2.33541 -3.54604 0
M  V30 11391 O 1076.69 -2.01536 -2.93704 0
M  V30 11392 O 1075.55 -2.88158 -4.64357 0
M  V30 11393 H 1072.64 -0.405451 -0.72079 0
M  V30 11394 H 1075.19 -1.39636 -0.964352 0
M  V30 11395 H 1073.96 -3.01938 -2.48896 0
M  V30 11396 H 1073.58 -1.70574 -3.59152 0
M  V30 11397 N 1074.58 1.12322 -1.10551 0
M  V30 11398 C 1075.53 2.18087 -0.755424 0
M  V30 11399 C 1076.5 1.6391 0.268805 0
M  V30 11400 O 1077.68 1.90227 0.147813 0
M  V30 11401 C 1074.82 3.4455 -0.194713 0
M  V30 11402 C 1073.93 4.12775 -1.27439 0
M  V30 11403 C 1073.07 5.26891 -0.675194 0
M  V30 11404 C 1072.11 5.86985 -1.73536 0
M  V30 11405 N 1071.24 6.92512 -1.15635 0
M  V30 11406 H 1076.08 2.47379 -1.66155 0
M  V30 11407 H 1073.62 1.21452 -0.829924 0
M  V30 11408 H 1075.58 4.16936 0.148275 0
M  V30 11409 H 1074.21 3.15671 0.674638 0
M  V30 11410 H 1073.26 3.38556 -1.73448 0
M  V30 11411 H 1074.57 4.53506 -2.07687 0
M  V30 11412 H 1073.73 6.06046 -0.281723 0
M  V30 11413 H 1072.47 4.87442 0.158708 0
M  V30 11414 H 1071.47 5.06517 -2.13825 0
M  V30 11415 H 1072.7 6.28505 -2.57213 0
M  V30 11416 H 1070.64 6.55098 -0.343928 0
M  V30 11417 H 1070.56 7.31848 -1.89565 0
M  V30 11418 H 1071.83 7.75492 -0.789463 0
M  V30 11419 N 1076.06 0.894434 1.2976 0
M  V30 11420 C 1077.33 0.437365 1.90648 0
M  V30 11421 C 1077.71 -1.08261 1.81226 0
M  V30 11422 O 1077.06 -1.92213 1.23557 0
M  V30 11423 C 1077.27 0.946047 3.35933 0
M  V30 11424 C 1078.62 0.986621 4.12978 0
M  V30 11425 O 1079.64 0.893356 3.44815 0
M  V30 11426 O 1078.5 1.12591 5.34776 0
M  V30 11427 H 1075.6 0.135436 0.815835 0
M  V30 11428 H 1078.14 0.983955 1.38262 0
M  V30 11429 H 1076.91 1.98998 3.3692 0
M  V30 11430 H 1076.54 0.379164 3.95788 0
M  V30 11431 N 1077.53 -1.43282 0.656365 0
M  V30 11432 C 1078.78 -2.00996 0.168354 0
M  V30 11433 C 1079.1 -1.52408 -1.22601 0
M  V30 11434 O 1080.3 -2.02417 -1.80941 0
M  V30 11435 C 1078.76 -3.5903 0.250161 0
M  V30 11436 C 1078.37 -4.1661 1.64742 0
M  V30 11437 C 1080.11 -4.24118 -0.180084 0
M  V30 11438 C 1078.02 -5.66948 1.68299 0
M  V30 11439 H 1076.95 -0.751674 0.0591769 0
M  V30 11440 H 1079.6 -1.64216 0.818859 0
M  V30 11441 H 1077.98 -3.93226 -0.467908 0
M  V30 11442 H 1079.15 -3.93908 2.3911 0
M  V30 11443 H 1077.47 -3.63905 2.02391 0
M  V30 11444 H 1080.07 -5.34419 -0.173401 0
M  V30 11445 H 1080.41 -3.98264 -1.21208 0
M  V30 11446 H 1080.94 -3.94816 0.486343 0
M  V30 11447 H 1077.68 -5.97573 2.69419 0
M  V30 11448 H 1077.2 -5.91697 0.98261 0
M  V30 11449 H 1078.88 -6.31041 1.42813 0
M  V30 11450 N 1079.01 -0.398486 -1.52479 0
M  V30 11451 C 1080.42 0.0735015 -1.86555 0
M  V30 11452 C 1080.78 1.45361 -1.31775 0
M  V30 11453 O 1079.9 2.0632 -0.652759 0
M  V30 11454 C 1080.5 0.140152 -3.3851 0
M  V30 11455 C 1079.05 0.556451 -3.72264 0
M  V30 11456 C 1078.2 -0.275792 -2.75925 0
M  V30 11457 H 1081.15 -0.615991 -1.46257 0
M  V30 11458 H 1081.17 0.957507 -3.68255 0
M  V30 11459 H 1080.69 -0.864442 -3.7835 0
M  V30 11460 H 1078.79 1.56808 -3.37997 0
M  V30 11461 H 1078.9 0.308227 -4.78107 0
M  V30 11462 H 1077.26 0.260304 -2.53366 0
M  V30 11463 H 1078.05 -1.27854 -3.18604 0
M  V30 11464 N 1080.49 1.57075 -0.12858 0
M  V30 11465 C 1081.74 1.9581 0.527868 0
M  V30 11466 C 1082.07 1.01253 1.65715 0
M  V30 11467 O 1081.35 0.0514853 1.94432 0
M  V30 11468 C 1081.63 3.44406 1.05151 0
M  V30 11469 C 1081.48 4.49737 -0.0750113 0
M  V30 11470 C 1082.8 3.95069 1.9393 0
M  V30 11471 H 1079.92 0.711978 0.19041 0
M  V30 11472 H 1082.56 1.88879 -0.206081 0
M  V30 11473 H 1080.71 3.50443 1.67697 0
M  V30 11474 H 1082.38 4.55793 -0.710685 0
M  V30 11475 H 1080.63 4.27497 -0.736809 0
M  V30 11476 H 1081.3 5.50996 0.332779 0
M  V30 11477 H 1083.77 3.91395 1.41241 0
M  V30 11478 H 1082.65 4.99542 2.27484 0
M  V30 11479 H 1082.91 3.36329 2.86941 0
M  V30 11480 N 1081.97 -0.145205 1.5693 0
M  V30 11481 C 1082.9 -1.20438 1.95006 0
M  V30 11482 C 1083.91 -1.39085 0.846114 0
M  V30 11483 O 1085.1 -1.38625 1.12452 0
M  V30 11484 C 1082.2 -2.56892 2.21043 0
M  V30 11485 C 1081.38 -2.59197 3.52329 0
M  V30 11486 C 1080.44 -3.77204 3.66884 0
M  V30 11487 O 1079.46 -3.61995 4.39259 0
M  V30 11488 N 1080.66 -4.9473 3.03682 0
M  V30 11489 H 1083.43 -0.880709 2.86467 0
M  V30 11490 H 1080.99 -0.334751 1.58401 0
M  V30 11491 H 1082.98 -3.34349 2.2802 0
M  V30 11492 H 1081.55 -2.81544 1.35838 0
M  V30 11493 H 1080.77 -1.67644 3.56776 0
M  V30 11494 H 1082.06 -2.57771 4.3867 0
M  V30 11495 H 1081.46 -5.09989 2.44801 0
M  V30 11496 H 1080.01 -5.69956 3.16218 0
M  V30 11497 N 1083.45 -1.52049 -0.414609 0
M  V30 11498 C 1084.36 -1.7788 -1.52958 0
M  V30 11499 C 1085.37 -0.66408 -1.60829 0
M  V30 11500 O 1086.55 -0.948882 -1.77646 0
M  V30 11501 C 1083.61 -1.91906 -2.88744 0
M  V30 11502 C 1082.68 -3.15803 -2.90804 0
M  V30 11503 C 1081.91 -3.29151 -4.20114 0
M  V30 11504 O 1082.13 -2.47892 -5.13718 0
M  V30 11505 O 1081.07 -4.2227 -4.28919 0
M  V30 11506 H 1084.89 -2.72506 -1.34067 0
M  V30 11507 H 1082.48 -1.36826 -0.599918 0
M  V30 11508 H 1084.36 -2.02986 -3.6929 0
M  V30 11509 H 1083.03 -1.00468 -3.07714 0
M  V30 11510 H 1081.94 -3.10185 -2.09131 0
M  V30 11511 H 1083.27 -4.07004 -2.76783 0
M  V30 11512 N 1084.93 0.6715 -1.42579 0
M  V30 11513 C 1085.84 1.81435 -1.48723 0
M  V30 11514 C 1086.85 1.69895 -0.375716 0
M  V30 11515 O 1088.03 1.91388 -0.627115 0
M  V30 11516 C 1085.09 3.17599 -1.39038 0
M  V30 11517 C 1084.15 3.41071 -2.60709 0
M  V30 11518 C 1083.39 4.7074 -2.51476 0
M  V30 11519 O 1083.61 5.48868 -1.55243 0
M  V30 11520 O 1082.54 4.95528 -3.41666 0
M  V30 11521 H 1086.37 1.79206 -2.45191 0
M  V30 11522 H 1083.95 0.827666 -1.24379 0
M  V30 11523 H 1085.84 3.98847 -1.3601 0
M  V30 11524 H 1084.51 3.20458 -0.456966 0
M  V30 11525 H 1083.42 2.59659 -2.69311 0
M  V30 11526 H 1084.75 3.43045 -3.5296 0
M  V30 11527 N 1086.4 1.28806 0.908124 0
M  V30 11528 C 1087.65 1.1646 1.66027 0
M  V30 11529 C 1087.98 -0.285025 1.92097 0
M  V30 11530 O 1087.26 -1.20675 1.52538 0
M  V30 11531 C 1087.54 1.96951 3.01467 0
M  V30 11532 C 1087.39 3.50007 2.82515 0
M  V30 11533 C 1088.71 1.78932 4.02084 0
M  V30 11534 H 1085.83 0.424435 0.602515 0
M  V30 11535 H 1088.47 1.58185 1.0525 0
M  V30 11536 H 1086.62 1.61495 3.53344 0
M  V30 11537 H 1088.3 3.95401 2.37605 0
M  V30 11538 H 1086.54 3.75356 2.17463 0
M  V30 11539 H 1087.21 4.01591 3.7872 0
M  V30 11540 H 1089.69 2.09885 3.59287 0
M  V30 11541 H 1088.56 2.37615 4.94803 0
M  V30 11542 H 1088.82 0.742286 4.35824 0
M  V30 11543 N 1087.88 -1.11734 1.11145 0
M  V30 11544 C 1088.79 -2.21267 0.779607 0
M  V30 11545 C 1089.81 -1.72526 -0.225986 0
M  V30 11546 O 1090.98 -2.01302 -0.0629166 0
M  V30 11547 C 1088.05 -3.45973 0.22435 0
M  V30 11548 C 1087.11 -4.09518 1.28816 0
M  V30 11549 C 1086.34 -5.28271 0.7593 0
M  V30 11550 O 1086.57 -5.68912 -0.411725 0
M  V30 11551 O 1085.5 -5.82322 1.52266 0
M  V30 11552 H 1089.33 -2.5206 1.6941 0
M  V30 11553 H 1086.91 -1.20211 0.887115 0
M  V30 11554 H 1088.79 -4.21322 -0.0810921 0
M  V30 11555 H 1087.47 -3.1684 -0.662891 0
M  V30 11556 H 1086.37 -3.35915 1.64657 0
M  V30 11557 H 1087.71 -4.42824 2.14868 0
M  V30 11558 N 1089.36 -0.901303 -1.29284 0
M  V30 11559 C 1090.77 -0.576317 -1.77582 0
M  V30 11560 C 1091.12 0.908078 -1.73921 0
M  V30 11561 O 1090.25 1.71006 -1.32611 0
M  V30 11562 C 1090.84 -1.03938 -3.22463 0
M  V30 11563 C 1089.4 -0.765533 -3.68533 0
M  V30 11564 C 1088.55 -1.21318 -2.49354 0
M  V30 11565 H 1091.5 -1.08386 -1.15923 0
M  V30 11566 H 1091.52 -0.375367 -3.78644 0
M  V30 11567 H 1091.03 -2.11977 -3.25096 0
M  V30 11568 H 1089.13 0.302176 -3.71373 0
M  V30 11569 H 1089.25 -1.36454 -4.59257 0
M  V30 11570 H 1087.61 -0.632141 -2.46731 0
M  V30 11571 H 1088.39 -2.30165 -2.54714 0
M  V30 11572 N 1090.84 1.42931 -0.663954 0
M  V30 11573 C 1091.8 2.29197 0.0117626 0
M  V30 11574 C 1092.8 1.42767 0.739875 0
M  V30 11575 O 1093.99 1.64278 0.579509 0
M  V30 11576 C 1091.12 3.2505 1.02738 0
M  V30 11577 H 1092.32 2.90438 -0.747391 0
M  V30 11578 H 1089.87 1.5039 -0.425733 0
M  V30 11579 H 1090.6 2.68726 1.8154 0
M  V30 11580 H 1090.39 3.88785 0.508809 0
M  V30 11581 H 1091.88 3.89771 1.49893 0
M  V30 11582 N 1092.32 0.406567 1.52266 0
M  V30 11583 C 1093.73 -0.063607 1.86592 0
M  V30 11584 C 1094.08 -1.4466 1.32544 0
M  V30 11585 O 1093.2 -2.05971 0.663692 0
M  V30 11586 C 1093.8 -0.122198 3.3858 0
M  V30 11587 C 1092.36 -0.536701 3.72554 0
M  V30 11588 C 1091.5 0.290422 2.75775 0
M  V30 11589 H 1094.45 0.623738 1.45929 0
M  V30 11590 H 1094.48 -0.937964 3.68758 0
M  V30 11591 H 1093.99 0.884495 3.77887 0
M  V30 11592 H 1092.09 -1.55013 3.38824 0
M  V30 11593 H 1092.2 -0.282867 4.78264 0
M  V30 11594 H 1090.57 -0.246864 2.53501 0
M  V30 11595 H 1091.35 1.29541 3.17921 0
M  V30 11596 N 1093.79 -1.57004 0.136909 0
M  V30 11597 C 1095.04 -1.96087 -0.517477 0
M  V30 11598 C 1095.37 -1.0213 -1.65176 0
M  V30 11599 O 1094.65 -0.0617958 -1.94402 0
M  V30 11600 C 1094.93 -3.44958 -1.03323 0
M  V30 11601 C 1094.78 -4.49691 0.0988609 0
M  V30 11602 C 1096.1 -3.96091 -1.91832 0
M  V30 11603 H 1093.22 -0.712978 -0.186632 0
M  V30 11604 H 1095.86 -1.88767 0.216095 0
M  V30 11605 H 1094.01 -3.51327 -1.65836 0
M  V30 11606 H 1095.69 -4.55409 0.734847 0
M  V30 11607 H 1093.93 -4.271 0.75947 0
M  V30 11608 H 1094.6 -5.51165 -0.303554 0
M  V30 11609 H 1097.08 -3.92139 -1.39164 0
M  V30 11610 H 1095.95 -5.00742 -2.24831 0
M  V30 11611 H 1096.21 -3.37846 -2.85153 0
M  V30 11612 N 1095.27 0.136881 -1.57004 0
M  V30 11613 C 1096.69 0.489856 -1.51897 0
M  V30 11614 C 1096.89 1.82833 -0.847009 0
M  V30 11615 O 1095.94 2.48952 -0.421792 0
M  V30 11616 C 1097.26 0.490831 -2.96667 0
M  V30 11617 C 1098.81 0.575639 -3.07661 0
M  V30 11618 C 1099.28 0.607178 -4.53957 0
M  V30 11619 N 1100.77 0.66912 -4.58342 0
M  V30 11620 C 1101.51 0.714675 -5.68929 0
M  V30 11621 N 1101 0.718959 -6.89059 0
M  V30 11622 N 1102.8 0.756326 -5.56988 0
M  V30 11623 H 1094.95 -0.740347 -1.99079 0
M  V30 11624 H 1097.21 -0.271116 -0.908405 0
M  V30 11625 H 1096.92 -0.424648 -3.49127 0
M  V30 11626 H 1096.79 1.32512 -3.53158 0
M  V30 11627 H 1099.18 1.48154 -2.55215 0
M  V30 11628 H 1099.26 -0.285991 -2.54196 0
M  V30 11629 H 1098.9 -0.294604 -5.07045 0
M  V30 11630 H 1098.83 1.48544 -5.05215 0
M  V30 11631 H 1101.32 0.672697 -3.71864 0
M  V30 11632 H 1101.64 0.755848 -7.69095 0
M  V30 11633 H 1099.98 0.686671 -6.91599 0
M  V30 11634 H 1103.17 0.750219 -4.62049 0
M  V30 11635 H 1103.34 0.788363 -6.43186 0
M  V30 11636 N 1096.75 1.52266 0.40654 0
M  V30 11637 C 1098.17 1.41127 0.745348 0
M  V30 11638 C 1098.37 0.517802 1.94733 0
M  V30 11639 O 1097.42 -0.0154286 2.52495 0
M  V30 11640 C 1098.74 2.83696 0.996859 0
M  V30 11641 C 1100.28 2.93056 1.09942 0
M  V30 11642 C 1100.76 4.36599 1.38367 0
M  V30 11643 N 1102.25 4.39845 1.45226 0
M  V30 11644 C 1102.98 5.47975 1.68852 0
M  V30 11645 N 1102.48 6.66219 1.90065 0
M  V30 11646 N 1104.27 5.35494 1.70888 0
M  V30 11647 H 1096.42 2.08888 -0.384632 0
M  V30 11648 H 1098.69 0.941619 -0.109809 0
M  V30 11649 H 1098.39 3.51208 0.185986 0
M  V30 11650 H 1098.27 3.24895 1.91632 0
M  V30 11651 H 1100.65 2.25723 1.90088 0
M  V30 11652 H 1100.74 2.5531 0.158256 0
M  V30 11653 H 1100.38 5.04492 0.587373 0
M  V30 11654 H 1100.31 4.71883 2.33739 0
M  V30 11655 H 1102.8 3.54611 1.30612 0
M  V30 11656 H 1103.11 7.44408 2.0755 0
M  V30 11657 H 1101.46 6.69279 1.87325 0
M  V30 11658 H 1104.65 4.42093 1.53856 0
M  V30 11659 H 1104.82 6.19837 1.88962 0
M  V30 11660 N 1098.23 -0.663929 1.42933 0
M  V30 11661 C 1099.48 -1.41973 1.43271 0
M  V30 11662 C 1099.79 -1.95518 0.0566103 0
M  V30 11663 O 1101 -2.71428 -0.0625862 0
M  V30 11664 C 1099.45 -2.56882 2.52071 0
M  V30 11665 C 1099.06 -2.0999 3.95737 0
M  V30 11666 C 1100.8 -3.34322 2.61589 0
M  V30 11667 C 1098.71 -3.22046 4.96025 0
M  V30 11668 H 1097.64 -0.5334 0.532917 0
M  V30 11669 H 1100.29 -0.717709 1.68882 0
M  V30 11670 H 1098.67 -3.29504 2.19643 0
M  V30 11671 H 1099.85 -1.44449 4.37574 0
M  V30 11672 H 1098.16 -1.45459 3.90168 0
M  V30 11673 H 1100.76 -4.17796 3.33692 0
M  V30 11674 H 1101.1 -3.8164 1.66302 0
M  V30 11675 H 1101.64 -2.68775 2.93266 0
M  V30 11676 H 1098.38 -2.79708 5.92827 0
M  V30 11677 H 1097.9 -3.86333 4.5881 0
M  V30 11678 H 1099.57 -3.87345 5.1824 0
M  V30 11679 N 1099.71 -1.29285 -0.901281 0
M  V30 11680 C 1100.64 -1.16832 -2.0217 0
M  V30 11681 C 1101.62 -0.0629265 -1.69984 0
M  V30 11682 O 1102.8 -0.242123 -1.92685 0
M  V30 11683 C 1099.93 -0.842406 -3.36929 0
M  V30 11684 C 1098.89 -1.90394 -3.8332 0
M  V30 11685 C 1098.21 -1.43138 -5.15185 0
M  V30 11686 C 1099.51 -3.31254 -4.03817 0
M  V30 11687 H 1101.21 -2.10562 -2.12847 0
M  V30 11688 H 1098.75 -1.01375 -1.0227 0
M  V30 11689 H 1100.71 -0.741999 -4.14816 0
M  V30 11690 H 1099.43 0.130598 -3.26339 0
M  V30 11691 H 1098.09 -1.99371 -3.07647 0
M  V30 11692 H 1097.74 -0.447091 -5.01009 0
M  V30 11693 H 1097.44 -2.14129 -5.47195 0
M  V30 11694 H 1098.96 -1.34444 -5.95615 0
M  V30 11695 H 1100.37 -3.25129 -4.72191 0
M  V30 11696 H 1098.77 -4.00189 -4.47178 0
M  V30 11697 H 1099.84 -3.74349 -3.08206 0
M  V30 11698 N 1101.18 1.11143 -1.11736 0
M  V30 11699 C 1102.13 2.17274 -0.778513 0
M  V30 11700 C 1103.1 1.64186 0.251405 0
M  V30 11701 O 1104.29 1.90373 0.127629 0
M  V30 11702 C 1101.43 3.44324 -0.231246 0
M  V30 11703 C 1100.54 4.114 -1.31809 0
M  V30 11704 C 1099.67 5.26146 -0.73104 0
M  V30 11705 C 1098.71 5.85112 -1.79752 0
M  V30 11706 N 1097.85 6.91247 -1.22973 0
M  V30 11707 H 1102.69 2.45603 -1.68769 0
M  V30 11708 H 1100.23 1.20565 -0.842759 0
M  V30 11709 H 1102.19 4.1707 0.104045 0
M  V30 11710 H 1100.82 3.16369 0.641119 0
M  V30 11711 H 1099.87 3.36697 -1.77029 0
M  V30 11712 H 1101.18 4.51278 -2.12485 0
M  V30 11713 H 1100.33 6.05713 -0.345987 0
M  V30 11714 H 1099.07 4.87583 0.107 0
M  V30 11715 H 1098.08 5.0422 -2.19185 0
M  V30 11716 H 1099.3 6.25741 -2.63865 0
M  V30 11717 H 1097.25 6.54696 -0.41339 0
M  V30 11718 H 1097.17 7.29796 -1.97316 0
M  V30 11719 H 1098.43 7.74611 -0.87167 0
M  V30 11720 N 1102.66 0.908147 1.28804 0
M  V30 11721 C 1103.91 0.538404 1.95211 0
M  V30 11722 C 1104.24 -0.916886 1.71533 0
M  V30 11723 O 1103.49 -1.66643 1.02609 0
M  V30 11724 C 1103.79 0.787327 3.4862 0
M  V30 11725 C 1103.46 2.22129 3.92389 0
M  V30 11726 C 1102.12 2.61336 4.04051 0
M  V30 11727 C 1104.47 3.15471 4.14883 0
M  V30 11728 C 1101.8 3.93048 4.3558 0
M  V30 11729 C 1104.15 4.46741 4.47889 0
M  V30 11730 C 1102.82 4.85809 4.57761 0
M  V30 11731 H 1102.09 0.197016 0.714329 0
M  V30 11732 H 1104.73 1.14841 1.53244 0
M  V30 11733 H 1103.04 0.0944731 3.91686 0
M  V30 11734 H 1104.73 0.480503 3.98111 0
M  V30 11735 H 1101.32 1.90704 3.83836 0
M  V30 11736 H 1105.51 2.86391 4.05332 0
M  V30 11737 H 1100.76 4.23027 4.41428 0
M  V30 11738 H 1104.94 5.19087 4.64243 0
M  V30 11739 H 1102.57 5.87904 4.81947 0
M  V30 11740 N 1104.14 -1.42577 0.671525 0
M  V30 11741 C 1105.37 -2.06442 0.199152 0
M  V30 11742 C 1105.79 -1.50104 -1.1336 0
M  V30 11743 O 1105.15 -0.618211 -1.70434 0
M  V30 11744 C 1105.2 -3.60323 0.141215 0
M  V30 11745 O 1104.3 -4.02655 -0.891238 0
M  V30 11746 H 1103.64 -0.655919 0.103277 0
M  V30 11747 H 1106.17 -1.82768 0.919614 0
M  V30 11748 H 1106.18 -4.07984 -0.0360209 0
M  V30 11749 H 1104.86 -4.00702 1.11403 0
M  V30 11750 H 1103.43 -3.66549 -0.685309 0
M  V30 11751 N 1105.62 -0.414636 -1.52048 0
M  V30 11752 C 1106.58 0.396285 -2.25748 0
M  V30 11753 C 1107.58 0.969003 -1.28324 0
M  V30 11754 O 1108.77 0.847016 -1.52221 0
M  V30 11755 C 1105.9 1.55838 -3.03195 0
M  V30 11756 H 1107.1 -0.249311 -2.98862 0
M  V30 11757 H 1104.65 -0.167276 -1.55402 0
M  V30 11758 H 1105.38 2.24068 -2.34444 0
M  V30 11759 H 1105.17 1.15414 -3.74729 0
M  V30 11760 H 1106.66 2.13187 -3.59084 0
M  V30 11761 N 1107.1 1.56929 -0.145233 0
M  V30 11762 C 1108.51 1.82877 0.375884 0
M  V30 11763 C 1108.86 1.06384 1.64854 0
M  V30 11764 O 1107.98 0.30857 2.14189 0
M  V30 11765 C 1108.58 3.31725 0.688744 0
M  V30 11766 C 1107.14 3.58261 1.15439 0
M  V30 11767 C 1106.28 2.76737 0.176565 0
M  V30 11768 H 1109.24 1.54328 -0.36996 0
M  V30 11769 H 1109.26 3.47784 1.54359 0
M  V30 11770 H 1108.77 3.87371 -0.237694 0
M  V30 11771 H 1106.87 3.08 2.09683 0
M  V30 11772 H 1106.98 4.66732 1.08158 0
M  V30 11773 H 1105.35 2.45761 0.668843 0
M  V30 11774 H 1106.13 3.35154 -0.743432 0
M  V30 11775 N 1108.58 -0.128553 1.57075 0
M  V30 11776 C 1109.49 -1.17718 2.02927 0
M  V30 11777 C 1110.5 -1.45912 0.947932 0
M  V30 11778 O 1111.68 -1.57217 1.25876 0
M  V30 11779 C 1108.74 -2.48625 2.41633 0
M  V30 11780 C 1107.8 -2.27914 3.63804 0
M  V30 11781 C 1107.04 -3.52579 4.00654 0
M  V30 11782 O 1107.26 -4.59505 3.37952 0
M  V30 11783 O 1106.19 -3.44147 4.93808 0
M  V30 11784 H 1110.02 -0.817846 2.92481 0
M  V30 11785 H 1107.6 -0.338649 1.45511 0
M  V30 11786 H 1109.49 -3.2577 2.67305 0
M  V30 11787 H 1108.16 -2.84052 1.55229 0
M  V30 11788 H 1107.07 -1.4866 3.43294 0
M  V30 11789 H 1108.4 -1.97395 4.50883 0
M  V30 11790 N 1110.05 -1.5248 -0.398459 0
M  V30 11791 C 1111.3 -1.68262 -1.14277 0
M  V30 11792 C 1111.65 -0.412722 -1.87921 0
M  V30 11793 O 1110.95 0.593257 -1.82184 0
M  V30 11794 C 1111.14 -2.85038 -2.15611 0
M  V30 11795 C 1110.97 -4.23262 -1.51919 0
M  V30 11796 C 1109.74 -4.88627 -1.28732 0
M  V30 11797 C 1111.94 -5.04986 -0.974349 0
M  V30 11798 N 1109.92 -6.10857 -0.610455 0
M  V30 11799 C 1111.29 -6.18542 -0.425008 0
M  V30 11800 C 1113.35 -4.90243 -0.869843 0
M  V30 11801 C 1112.05 -7.18968 0.218609 0
M  V30 11802 C 1114.08 -5.90913 -0.240063 0
M  V30 11803 C 1113.44 -7.03767 0.298552 0
M  V30 11804 H 1109.54 -0.669275 -0.404469 0
M  V30 11805 H 1112.12 -1.8981 -0.433635 0
M  V30 11806 H 1110.29 -2.65087 -2.83872 0
M  V30 11807 H 1112.02 -2.89804 -2.82481 0
M  V30 11808 H 1108.78 -4.47179 -1.55975 0
M  V30 11809 H 1109.2 -6.76386 -0.288338 0
M  V30 11810 H 1113.84 -4.0321 -1.27207 0
M  V30 11811 H 1111.56 -8.05618 0.632874 0
M  V30 11812 H 1115.15 -5.81578 -0.160576 0
M  V30 11813 H 1114.03 -7.80329 0.778185 0
M  V30 11814 N 1111.53 0.65634 -1.43283 0
M  V30 11815 C 1112.94 1.23744 -1.39801 0
M  V30 11816 C 1113.29 1.95942 -0.100507 0
M  V30 11817 O 1112.42 2.01063 0.800161 0
M  V30 11818 C 1113.01 2.25062 -2.53244 0
M  V30 11819 C 1111.57 2.78657 -2.53036 0
M  V30 11820 C 1110.72 1.53251 -2.31105 0
M  V30 11821 H 1113.67 0.448553 -1.52229 0
M  V30 11822 H 1113.69 3.07174 -2.24553 0
M  V30 11823 H 1113.2 1.72487 -3.47664 0
M  V30 11824 H 1111.3 3.35304 -1.62487 0
M  V30 11825 H 1111.42 3.26414 -3.507 0
M  V30 11826 H 1109.78 1.80487 -1.79713 0
M  V30 11827 H 1110.56 1.02615 -3.27605 0
M  V30 11828 N 1113.01 1.29761 0.894412 0
M  V30 11829 C 1114.24 1.20765 1.67629 0
M  V30 11830 C 1114.65 -0.233434 1.87754 0
M  V30 11831 O 1113.99 -1.16747 1.4183 0
M  V30 11832 C 1114.05 1.85542 3.07919 0
M  V30 11833 C 1113.72 3.34852 3.11004 0
M  V30 11834 C 1114.71 4.30994 2.90758 0
M  V30 11835 C 1112.4 3.76141 3.32901 0
M  V30 11836 C 1114.39 5.664 2.92352 0
M  V30 11837 C 1112.08 5.11667 3.34126 0
M  V30 11838 C 1113.08 6.06607 3.13874 0
M  V30 11839 O 1112.77 7.39659 3.14897 0
M  V30 11840 H 1112.5 0.419418 0.530155 0
M  V30 11841 H 1115.05 1.71754 1.12648 0
M  V30 11842 H 1113.28 1.29071 3.64524 0
M  V30 11843 H 1114.97 1.70795 3.68217 0
M  V30 11844 H 1115.74 4.00427 2.73648 0
M  V30 11845 H 1111.62 3.02694 3.47703 0
M  V30 11846 H 1115.16 6.40479 2.76464 0
M  V30 11847 H 1111.06 5.41877 3.50769 0
M  V30 11848 H 1111.82 7.4853 3.31127 0
M  V30 11849 N 1114.49 -1.10549 1.12324 0
M  V30 11850 C 1115.42 -2.16081 0.733768 0
M  V30 11851 C 1116.4 -1.60266 -0.274511 0
M  V30 11852 O 1117.58 -1.87743 -0.168742 0
M  V30 11853 C 1114.71 -3.38591 0.0858914 0
M  V30 11854 C 1113.76 -4.13097 1.0608 0
M  V30 11855 S 1114.59 -4.68821 2.5878 0
M  V30 11856 C 1115.74 -5.94644 1.95319 0
M  V30 11857 H 1115.98 -2.48784 1.62769 0
M  V30 11858 H 1113.51 -1.22318 0.942209 0
M  V30 11859 H 1115.47 -4.09533 -0.281538 0
M  V30 11860 H 1114.13 -3.04129 -0.785122 0
M  V30 11861 H 1113.32 -5.00934 0.555095 0
M  V30 11862 H 1112.92 -3.4796 1.37112 0
M  V30 11863 H 1115.22 -6.65004 1.29523 0
M  V30 11864 H 1116.16 -6.49875 2.81191 0
M  V30 11865 H 1116.57 -5.4662 1.40951 0
M  V30 11866 N 1115.97 -0.914965 -1.28321 0
M  V30 11867 C 1116.9 -0.421292 -2.29668 0
M  V30 11868 C 1117.88 0.511743 -1.6222 0
M  V30 11869 O 1119.06 0.419218 -1.89621 0
M  V30 11870 C 1116.19 0.338364 -3.45648 0
M  V30 11871 C 1115.15 -0.505646 -4.25003 0
M  V30 11872 C 1114.47 0.382421 -5.33331 0
M  V30 11873 C 1115.77 -1.76354 -4.91626 0
M  V30 11874 H 1117.47 -1.26826 -2.71211 0
M  V30 11875 H 1115.01 -0.611291 -1.30381 0
M  V30 11876 H 1116.96 0.694578 -4.15636 0
M  V30 11877 H 1115.69 1.21925 -3.02988 0
M  V30 11878 H 1114.35 -0.844395 -3.56743 0
M  V30 11879 H 1114 1.26189 -4.86914 0
M  V30 11880 H 1113.7 -0.17871 -5.87328 0
M  V30 11881 H 1115.22 0.73449 -6.06166 0
M  V30 11882 H 1116.63 -1.47616 -5.5397 0
M  V30 11883 H 1115.03 -2.26717 -5.55625 0
M  V30 11884 H 1116.1 -2.49063 -4.16048 0
M  V30 11885 N 1117.44 1.42219 -0.679077 0
M  V30 11886 C 1118.69 2.01777 -0.20342 0
M  V30 11887 C 1119.02 1.53592 1.18841 0
M  V30 11888 O 1118.3 0.739954 1.79875 0
M  V30 11889 C 1118.58 3.59281 -0.242791 0
M  V30 11890 C 1118.43 4.17634 -1.67038 0
M  V30 11891 C 1119.75 4.38218 0.406624 0
M  V30 11892 H 1116.87 0.733134 -0.0753916 0
M  V30 11893 H 1119.51 1.69185 -0.864673 0
M  V30 11894 H 1117.66 3.87178 0.320248 0
M  V30 11895 H 1119.34 4.00674 -2.286 0
M  V30 11896 H 1117.58 3.73301 -2.20973 0
M  V30 11897 H 1118.25 5.26776 -1.64958 0
M  V30 11898 H 1120.73 4.16036 -0.0727077 0
M  V30 11899 H 1119.6 5.47793 0.348457 0
M  V30 11900 H 1119.86 4.16418 1.48487 0
M  V30 11901 N 1118.92 0.422693 1.51826 0
M  V30 11902 C 1120.17 -0.148348 2.01555 0
M  V30 11903 C 1120.49 -1.44483 1.30956 0
M  V30 11904 O 1119.76 -1.90904 0.439599 0
M  V30 11905 H 1118.34 -0.0578116 0.74476 0
M  V30 11906 H 1121 0.562046 1.8662 0
M  V30 11907 H 1120.1 -0.334766 3.10299 0
M  V30 11908 N 1120.4 -1.5685 0.153553 0
M  V30 11909 C 1121.62 -2.01135 -0.505904 0
M  V30 11910 C 1122.05 -1.03301 -1.57196 0
M  V30 11911 O 1121.41 -0.00976022 -1.81297 0
M  V30 11912 C 1121.46 -3.44129 -1.0774 0
M  V30 11913 O 1120.56 -3.49318 -2.19205 0
M  V30 11914 H 1119.9 -0.652496 -0.123062 0
M  V30 11915 H 1122.43 -2.03039 0.252216 0
M  V30 11916 H 1122.44 -3.83066 -1.40444 0
M  V30 11917 H 1121.12 -4.1484 -0.296754 0
M  V30 11918 H 1119.69 -3.22227 -1.8768 0
M  V30 11919 N 1121.88 0.120221 -1.57141 0
M  V30 11920 C 1123.12 0.829449 -1.85062 0
M  V30 11921 C 1123.46 1.79585 -0.739116 0
M  V30 11922 O 1122.73 1.92819 0.255147 0
M  V30 11923 C 1123.01 1.58042 -3.23566 0
M  V30 11924 C 1122.87 0.633706 -4.45314 0
M  V30 11925 C 1124.19 2.53688 -3.59625 0
M  V30 11926 H 1121.31 0.300086 -0.67314 0
M  V30 11927 H 1123.95 0.0937393 -1.89769 0
M  V30 11928 H 1122.1 2.20758 -3.19684 0
M  V30 11929 H 1123.77 0.0154836 -4.61297 0
M  V30 11930 H 1122.01 -0.054846 -4.33765 0
M  V30 11931 H 1122.68 1.19577 -5.38893 0
M  V30 11932 H 1125.16 2.01078 -3.6429 0
M  V30 11933 H 1124.04 3.03265 -4.57516 0
M  V30 11934 H 1124.3 3.36296 -2.8698 0
M  V30 11935 N 1123.36 1.52689 0.390367 0
M  V30 11936 C 1124.6 1.67335 1.13329 0
M  V30 11937 C 1124.93 0.415068 1.90531 0
M  V30 11938 O 1124.2 -0.570504 1.87409 0
M  V30 11939 H 1122.78 0.616821 0.421356 0
M  V30 11940 H 1125.44 1.89799 0.443 0
M  V30 11941 H 1124.53 2.52314 1.83696 0
M  V30 11942 N 1124.83 -0.648732 1.43629 0
M  V30 11943 C 1125.8 -1.74331 1.488 0
M  V30 11944 C 1126.8 -1.56434 0.372147 0
M  V30 11945 O 1127.99 -1.6225 0.634078 0
M  V30 11946 C 1125.12 -3.13248 1.34494 0
M  V30 11947 H 1126.31 -1.71125 2.46285 0
M  V30 11948 H 1123.87 -0.860798 1.30461 0
M  V30 11949 H 1124.6 -3.22062 0.380345 0
M  V30 11950 H 1124.39 -3.27643 2.15389 0
M  V30 11951 H 1125.88 -3.93056 1.41055 0
M  V30 11952 N 1126.31 -1.30234 -0.887518 0
M  V30 11953 C 1127.28 -1.16384 -1.97452 0
M  V30 11954 C 1128.28 -0.0957942 -1.60514 0
M  V30 11955 O 1129.47 -0.343706 -1.70776 0
M  V30 11956 C 1126.6 -0.782514 -3.31797 0
M  V30 11957 H 1127.79 -2.12952 -2.11167 0
M  V30 11958 H 1125.34 -1.13594 -1.07359 0
M  V30 11959 H 1126.08 0.18278 -3.23785 0
M  V30 11960 H 1125.86 -1.55434 -3.59976 0
M  V30 11961 H 1127.35 -0.709011 -4.11537 0
M  V30 11962 N 1127.79 1.09952 -1.12909 0
M  V30 11963 C 1129.04 1.82286 -0.888797 0
M  V30 11964 C 1129.37 1.85218 0.58379 0
M  V30 11965 O 1128.64 1.31645 1.43177 0
M  V30 11966 C 1128.93 3.28706 -1.47053 0
M  V30 11967 C 1128.78 3.34078 -3.01184 0
M  V30 11968 C 1130.1 4.25233 -1.13424 0
M  V30 11969 H 1127.22 0.661803 -0.324324 0
M  V30 11970 H 1129.86 1.28833 -1.3965 0
M  V30 11971 H 1128.01 3.74356 -1.03874 0
M  V30 11972 H 1129.68 2.96871 -3.5308 0
M  V30 11973 H 1127.93 2.73825 -3.36455 0
M  V30 11974 H 1128.6 4.37202 -3.36984 0
M  V30 11975 H 1131.07 3.87841 -1.50726 0
M  V30 11976 H 1129.95 5.26033 -1.56783 0
M  V30 11977 H 1130.21 4.42075 -0.0471496 0
M  V30 11978 N 1129.27 0.921757 1.27833 0
M  V30 11979 C 1130.22 0.406628 2.29018 0
M  V30 11980 C 1131.21 -0.505914 1.61669 0
M  V30 11981 O 1132.42 -0.386273 1.75807 0
M  V30 11982 H 1128.79 0.112914 0.743475 0
M  V30 11983 H 1130.76 1.27295 2.69886 0
M  V30 11984 C 1129.51 -0.330783 3.46123 0
M  V30 11985 H 1128.83 0.362207 3.98156 0
M  V30 11986 H 1130.27 -0.655738 4.18899 0
M  V30 11987 C 1128.73 -1.54161 2.9956 0
M  V30 11988 O 1129.26 -2.64052 3.0272 0
M  V30 11989 N 1127.47 -1.39137 2.55126 0
M  V30 11990 H 1127.02 -0.497319 2.52754 0
M  V30 11991 H 1126.97 -2.20278 2.24333 0
M  V30 11992 N 1130.75 -1.41857 0.686609 0
M  V30 11993 C 1131.99 -2.0097 0.213378 0
M  V30 11994 C 1132.32 -1.54618 -1.1882 0
M  V30 11995 O 1131.59 -0.772916 -1.80008 0
M  V30 11996 H 1130.17 -0.743134 0.0758968 0
M  V30 11997 H 1132.83 -1.73609 0.885763 0
M  V30 11998 H 1131.92 -3.11296 0.223826 0
M  V30 11999 N 1132.22 -0.430739 -1.51599 0
M  V30 12000 C 1133.45 0.136797 -2.06447 0
M  V30 12001 C 1133.87 1.37027 -1.29881 0
M  V30 12002 O 1133.22 1.78983 -0.356543 0
M  V30 12003 C 1133.28 0.465637 -3.58489 0
M  V30 12004 O 1133 -0.718873 -4.32162 0
M  V30 12005 C 1134.5 1.08456 -4.29828 0
M  V30 12006 H 1131.72 0.0108468 -0.670912 0
M  V30 12007 H 1134.26 -0.607921 -1.95255 0
M  V30 12008 H 1132.42 1.16025 -3.69617 0
M  V30 12009 H 1132.83 -0.439195 -5.22658 0
M  V30 12010 H 1134.3 1.2647 -5.37317 0
M  V30 12011 H 1134.78 2.06376 -3.87693 0
M  V30 12012 H 1135.39 0.429525 -4.23125 0
M  V30 12013 N 1133.7 1.56767 -0.161869 0
M  V30 12014 C 1134.95 1.96885 0.486215 0
M  V30 12015 C 1135.28 1.04745 1.6353 0
M  V30 12016 O 1134.56 0.0927156 1.94279 0
M  V30 12017 C 1134.84 3.46559 0.97822 0
M  V30 12018 C 1134.69 4.49477 -0.17039 0
M  V30 12019 C 1136.01 3.99093 1.85506 0
M  V30 12020 H 1133.13 0.715857 0.175265 0
M  V30 12021 H 1135.77 1.88399 -0.246098 0
M  V30 12022 H 1133.92 3.53921 1.60225 0
M  V30 12023 H 1135.59 4.54183 -0.807205 0
M  V30 12024 H 1133.84 4.25838 -0.827322 0
M  V30 12025 H 1134.51 5.51578 0.21583 0
M  V30 12026 H 1136.98 3.94303 1.32908 0
M  V30 12027 H 1135.86 5.04255 2.16837 0
M  V30 12028 H 1136.12 3.4234 2.79742 0
M  V30 12029 N 1135.18 -0.111886 1.57202 0
M  V30 12030 C 1136.41 -0.832407 1.89416 0
M  V30 12031 C 1136.82 -1.73096 0.753861 0
M  V30 12032 O 1136.18 -1.80416 -0.274992 0
M  V30 12033 C 1136.23 -1.65988 3.21139 0
M  V30 12034 O 1135.95 -0.797485 4.3078 0
M  V30 12035 C 1137.45 -2.48493 3.67105 0
M  V30 12036 H 1134.67 -0.238919 0.627024 0
M  V30 12037 H 1137.22 -0.0941456 2.04283 0
M  V30 12038 H 1135.37 -2.35082 3.07921 0
M  V30 12039 H 1135.79 -1.36892 5.06321 0
M  V30 12040 H 1137.26 -3.02072 4.62014 0
M  V30 12041 H 1137.74 -3.26182 2.94112 0
M  V30 12042 H 1138.34 -1.84628 3.83135 0
M  V30 12043 N 1136.66 -1.52894 -0.382264 0
M  V30 12044 C 1138.07 -1.60135 -0.959887 0
M  V30 12045 C 1138.42 -0.458363 -1.90771 0
M  V30 12046 O 1137.55 0.417614 -2.12332 0
M  V30 12047 C 1138.14 -2.90243 -1.74769 0
M  V30 12048 C 1136.7 -2.99874 -2.27491 0
M  V30 12049 C 1135.85 -2.55302 -1.0824 0
M  V30 12050 H 1138.8 -1.57875 -0.161589 0
M  V30 12051 H 1138.82 -2.77108 -2.60751 0
M  V30 12052 H 1138.33 -3.73412 -1.0576 0
M  V30 12053 H 1136.43 -2.21258 -2.99793 0
M  V30 12054 H 1136.54 -4.04643 -2.56516 0
M  V30 12055 H 1134.91 -2.09781 -1.44444 0
M  V30 12056 H 1135.69 -3.40872 -0.407553 0
M  V30 12057 N 1138.14 0.641106 -1.43971 0
M  V30 12058 C 1139.07 1.76489 -1.52885 0
M  V30 12059 C 1140.05 1.65742 -0.38258 0
M  V30 12060 O 1141.23 1.84653 -0.601397 0
M  V30 12061 C 1138.36 3.14977 -1.4631 0
M  V30 12062 C 1137.32 3.40502 -2.59311 0
M  V30 12063 C 1136.64 4.78916 -2.37789 0
M  V30 12064 C 1137.94 3.34048 -4.01509 0
M  V30 12065 H 1139.64 1.69286 -2.46946 0
M  V30 12066 H 1137.18 0.813015 -1.18853 0
M  V30 12067 H 1139.14 3.9336 -1.51149 0
M  V30 12068 H 1137.86 3.2294 -0.487599 0
M  V30 12069 H 1136.52 2.64495 -2.53846 0
M  V30 12070 H 1136.17 4.8357 -1.38454 0
M  V30 12071 H 1135.87 4.96954 -3.13545 0
M  V30 12072 H 1137.39 5.59541 -2.4443 0
M  V30 12073 H 1138.81 4.0235 -4.08396 0
M  V30 12074 H 1137.2 3.63622 -4.77388 0
M  V30 12075 H 1138.27 2.32022 -4.25786 0
M  V30 12076 N 1139.62 1.30703 0.880598 0
M  V30 12077 C 1140.85 1.22536 1.66339 0
M  V30 12078 C 1141.25 -0.213507 1.87991 0
M  V30 12079 O 1140.6 -1.15236 1.43061 0
M  V30 12080 C 1140.66 1.88798 3.05934 0
M  V30 12081 C 1140.32 3.38131 3.07435 0
M  V30 12082 C 1141.32 4.34053 2.86171 0
M  V30 12083 C 1139 3.79651 3.28893 0
M  V30 12084 C 1141 5.69469 2.86328 0
M  V30 12085 C 1138.69 5.15182 3.2868 0
M  V30 12086 C 1139.68 6.09902 3.07423 0
M  V30 12087 O 1139.37 7.42957 3.07034 0
M  V30 12088 H 1139.1 0.425018 0.525677 0
M  V30 12089 H 1141.66 1.72939 1.1082 0
M  V30 12090 H 1139.89 1.3293 3.63134 0
M  V30 12091 H 1141.58 1.74691 3.66385 0
M  V30 12092 H 1142.34 4.03307 2.69385 0
M  V30 12093 H 1138.22 3.06365 3.44473 0
M  V30 12094 H 1141.77 6.43375 2.69655 0
M  V30 12095 H 1137.66 5.45567 3.45002 0
M  V30 12096 H 1138.43 7.52 3.23169 0
M  V30 12097 N 1141.09 -1.09351 1.1349 0
M  V30 12098 C 1142.06 -2.14185 0.815919 0
M  V30 12099 C 1143.06 -1.59845 -0.174976 0
M  V30 12100 O 1144.25 -1.74122 0.0521971 0
M  V30 12101 C 1141.38 -3.40224 0.214517 0
M  V30 12102 H 1142.57 -2.43913 1.74489 0
M  V30 12103 H 1140.12 -1.24902 0.939634 0
M  V30 12104 H 1140.86 -3.16123 -0.723634 0
M  V30 12105 H 1140.64 -3.80958 0.928102 0
M  V30 12106 H 1142.13 -4.17599 0.00821999 0
M  V30 12107 N 1142.57 -0.928524 -1.27343 0
M  V30 12108 C 1143.82 -0.569392 -1.9433 0
M  V30 12109 C 1144.15 0.889481 -1.7297 0
M  V30 12110 O 1143.4 1.6499 -1.05247 0
M  V30 12111 C 1143.7 -0.84269 -3.47323 0
M  V30 12112 C 1143.37 -2.28344 -3.88806 0
M  V30 12113 C 1142.03 -2.67731 -3.99842 0
M  V30 12114 C 1144.38 -3.22031 -4.09811 0
M  V30 12115 C 1141.71 -3.99928 -4.29272 0
M  V30 12116 C 1144.06 -4.5381 -4.40725 0
M  V30 12117 C 1142.72 -4.93031 -4.49975 0
M  V30 12118 H 1141.99 -0.208355 -0.711104 0
M  V30 12119 H 1144.64 -1.17264 -1.51398 0
M  V30 12120 H 1142.95 -0.156775 -3.91486 0
M  V30 12121 H 1144.64 -0.543779 -3.97296 0
M  V30 12122 H 1141.23 -1.96787 -3.80753 0
M  V30 12123 H 1145.42 -2.92803 -4.00724 0
M  V30 12124 H 1140.67 -4.29996 -4.34642 0
M  V30 12125 H 1144.85 -5.26407 -4.55926 0
M  V30 12126 H 1142.47 -5.95497 -4.72533 0
M  V30 12127 N 1144.05 1.41491 -0.694123 0
M  V30 12128 C 1144.98 2.33462 -0.0422169 0
M  V30 12129 C 1145.96 1.51739 0.76872 0
M  V30 12130 O 1147.15 1.8028 0.721985 0
M  V30 12131 C 1144.28 3.35545 0.895925 0
M  V30 12132 C 1143.23 4.27568 0.192188 0
M  V30 12133 C 1142.56 5.20014 1.24459 0
M  V30 12134 C 1143.86 5.1376 -0.940626 0
M  V30 12135 H 1145.55 2.88225 -0.810363 0
M  V30 12136 H 1143.1 1.38586 -0.39114 0
M  V30 12137 H 1145.05 3.9881 1.36121 0
M  V30 12138 H 1143.77 2.79129 1.69572 0
M  V30 12139 H 1142.43 3.65726 -0.25305 0
M  V30 12140 H 1142.08 4.59913 2.03687 0
M  V30 12141 H 1141.78 5.82417 0.778734 0
M  V30 12142 H 1143.3 5.86155 1.71041 0
M  V30 12143 H 1144.72 5.70601 -0.555692 0
M  V30 12144 H 1143.11 5.85097 -1.33349 0
M  V30 12145 H 1144.18 4.51011 -1.78093 0
M  V30 12146 N 1145.53 0.438773 1.51369 0
M  V30 12147 C 1146.77 -0.127213 2.021 0
M  V30 12148 C 1147.1 -1.42587 1.32284 0
M  V30 12149 O 1146.36 -1.90986 0.426949 0
M  V30 12150 C 1146.66 -0.39186 3.55245 0
M  V30 12151 C 1146.32 0.821158 4.4336 0
M  V30 12152 C 1144.98 1.15381 4.67162 0
M  V30 12153 C 1147.34 1.6303 4.95046 0
M  V30 12154 C 1144.66 2.29626 5.39897 0
M  V30 12155 C 1147.02 2.76376 5.69033 0
M  V30 12156 C 1145.68 3.10094 5.91099 0
M  V30 12157 H 1144.95 -0.0465505 0.739536 0
M  V30 12158 H 1147.6 0.586261 1.82305 0
M  V30 12159 H 1145.9 -1.18724 3.73379 0
M  V30 12160 H 1147.6 -0.843228 3.92034 0
M  V30 12161 H 1144.19 0.551946 4.25031 0
M  V30 12162 H 1148.37 1.38651 4.76539 0
M  V30 12163 H 1143.63 2.56062 5.55196 0
M  V30 12164 H 1147.8 3.39442 6.08072 0
M  V30 12165 H 1145.43 3.98731 6.47238 0
M  V30 12166 N 1147.01 -1.56678 0.170181 0
M  V30 12167 C 1148.23 -2.0166 -0.484543 0
M  V30 12168 C 1148.66 -1.04962 -1.56091 0
M  V30 12169 O 1148.01 -0.0289887 -1.81277 0
M  V30 12170 C 1148.06 -3.45252 -1.04084 0
M  V30 12171 O 1147.17 -3.51623 -2.15488 0
M  V30 12172 H 1146.51 -0.653765 -0.116135 0
M  V30 12173 H 1149.04 -2.02761 0.273737 0
M  V30 12174 H 1149.05 -3.84534 -1.36373 0
M  V30 12175 H 1147.72 -4.15131 -0.252738 0
M  V30 12176 H 1146.3 -3.242 -1.84252 0
M  V30 12177 N 1148.48 0.103547 -1.57259 0
M  V30 12178 C 1149.42 1.15225 -1.98131 0
M  V30 12179 C 1150.43 1.36793 -0.882692 0
M  V30 12180 O 1151.62 1.35595 -1.16088 0
M  V30 12181 C 1148.72 2.50941 -2.27776 0
M  V30 12182 C 1147.89 2.49765 -3.59077 0
M  V30 12183 C 1146.95 3.67344 -3.76756 0
M  V30 12184 O 1145.98 3.50221 -4.48702 0
M  V30 12185 N 1147.18 4.86504 -3.16692 0
M  V30 12186 H 1149.94 0.804448 -2.88702 0
M  V30 12187 H 1147.5 0.292636 -1.59233 0
M  V30 12188 H 1149.5 3.28186 -2.36804 0
M  V30 12189 H 1148.07 2.77843 -1.43255 0
M  V30 12190 H 1147.29 1.58125 -3.61096 0
M  V30 12191 H 1148.57 2.4605 -4.4535 0
M  V30 12192 H 1147.97 5.03319 -2.58236 0
M  V30 12193 H 1146.53 5.61371 -3.31218 0
M  V30 12194 N 1149.96 1.53094 0.37415 0
M  V30 12195 C 1151.21 1.68082 1.11495 0
M  V30 12196 C 1151.52 0.434685 1.90709 0
M  V30 12197 O 1152.73 0.464956 2.67489 0
M  V30 12198 C 1151.19 2.97101 2.03124 0
M  V30 12199 C 1150.79 4.28947 1.29262 0
M  V30 12200 C 1152.54 3.21456 2.77248 0
M  V30 12201 C 1150.44 5.4906 2.19743 0
M  V30 12202 H 1149.37 0.626238 0.419931 0
M  V30 12203 H 1152.03 1.79594 0.376588 0
M  V30 12204 H 1150.41 2.79371 2.80656 0
M  V30 12205 H 1151.58 4.57279 0.568528 0
M  V30 12206 H 1149.9 4.10968 0.670362 0
M  V30 12207 H 1152.49 4.08377 3.45155 0
M  V30 12208 H 1152.84 2.37153 3.42146 0
M  V30 12209 H 1153.37 3.3982 2.06803 0
M  V30 12210 H 1150.11 6.35815 1.59437 0
M  V30 12211 H 1149.63 5.25019 2.90027 0
M  V30 12212 H 1151.31 5.83517 2.79495 0
M  V30 12213 N 1151.44 -0.633461 1.44309 0
M  V30 12214 C 1152.37 -1.75676 1.53819 0
M  V30 12215 C 1153.35 -1.65537 0.391365 0
M  V30 12216 O 1154.54 -1.84332 0.611181 0
M  V30 12217 C 1151.67 -3.14197 1.47979 0
M  V30 12218 C 1150.62 -3.39122 2.61113 0
M  V30 12219 C 1149.95 -4.77648 2.40325 0
M  V30 12220 C 1151.25 -3.31914 4.03274 0
M  V30 12221 H 1152.94 -1.67974 2.47841 0
M  V30 12222 H 1150.49 -0.8067 1.19283 0
M  V30 12223 H 1152.44 -3.92553 1.53233 0
M  V30 12224 H 1151.16 -3.22677 0.504718 0
M  V30 12225 H 1149.82 -2.63145 2.55245 0
M  V30 12226 H 1149.47 -4.82829 1.41016 0
M  V30 12227 H 1149.17 -4.95284 3.16177 0
M  V30 12228 H 1150.69 -5.58237 2.47394 0
M  V30 12229 H 1152.11 -4.00178 4.10524 0
M  V30 12230 H 1150.5 -3.61085 4.7931 0
M  V30 12231 H 1151.57 -2.29761 4.2701 0
M  V30 12232 N 1152.92 -1.31168 -0.873655 0
M  V30 12233 C 1154.17 -1.20404 -1.62319 0
M  V30 12234 C 1154.49 0.238829 -1.93532 0
M  V30 12235 O 1153.76 1.15854 -1.57971 0
M  V30 12236 H 1152.34 -0.442632 -0.601736 0
M  V30 12237 H 1155 -1.64445 -1.04613 0
M  V30 12238 H 1154.1 -1.77309 -2.56842 0
M  V30 12239 N 1154.4 1.08748 -1.14068 0
M  V30 12240 C 1155.62 1.84814 -0.930138 0
M  V30 12241 C 1156.04 1.81461 0.521267 0
M  V30 12242 O 1155.4 1.21577 1.36108 0
M  V30 12243 C 1155.45 3.32501 -1.41863 0
M  V30 12244 O 1155.17 3.35846 -2.81317 0
M  V30 12245 C 1156.67 4.25384 -1.24753 0
M  V30 12246 H 1153.89 0.583546 -0.331233 0
M  V30 12247 H 1156.43 1.37366 -1.51495 0
M  V30 12248 H 1154.59 3.7735 -0.876664 0
M  V30 12249 H 1155 4.28013 -3.03159 0
M  V30 12250 H 1156.48 5.27138 -1.63798 0
M  V30 12251 H 1156.95 4.38789 -0.18999 0
M  V30 12252 H 1157.56 3.86357 -1.77787 0
M  V30 12253 N 1155.87 0.935264 1.26849 0
M  V30 12254 C 1157.12 0.57969 1.94025 0
M  V30 12255 C 1157.45 -0.880295 1.73439 0
M  V30 12256 O 1156.7 -1.64429 1.0612 0
M  V30 12257 C 1157 0.861098 3.46872 0
M  V30 12258 C 1156.67 2.30402 3.87589 0
M  V30 12259 C 1155.33 2.69848 3.98417 0
M  V30 12260 C 1157.68 3.242 4.08098 0
M  V30 12261 C 1155.01 4.02199 4.27145 0
M  V30 12262 C 1157.36 4.56141 4.38313 0
M  V30 12263 C 1156.03 4.9541 4.47354 0
M  V30 12264 H 1155.3 0.212123 0.709989 0
M  V30 12265 H 1157.94 1.18066 1.50774 0
M  V30 12266 H 1156.25 0.177534 3.91398 0
M  V30 12267 H 1157.95 0.564841 3.97002 0
M  V30 12268 H 1154.54 1.98803 3.79704 0
M  V30 12269 H 1158.72 2.94924 3.99166 0
M  V30 12270 H 1153.98 4.32295 4.32355 0
M  V30 12271 H 1158.15 5.28818 4.53128 0
M  V30 12272 H 1155.78 5.97994 4.69368 0
M  V30 12273 N 1157.35 -1.41121 0.701616 0
M  V30 12274 C 1158.58 -2.05973 0.242896 0
M  V30 12275 C 1159 -1.52474 -1.10151 0
M  V30 12276 O 1158.36 -0.654224 -1.69085 0
M  V30 12277 C 1158.41 -3.59943 0.217614 0
M  V30 12278 O 1157.51 -4.04454 -0.805629 0
M  V30 12279 H 1156.85 -0.653581 0.117166 0
M  V30 12280 H 1159.38 -1.80777 0.958175 0
M  V30 12281 H 1159.39 -4.07969 0.0505267 0
M  V30 12282 H 1158.07 -3.98249 1.19877 0
M  V30 12283 H 1156.65 -3.6792 -0.607404 0
M  V30 12284 N 1158.83 -0.446794 -1.51134 0
M  V30 12285 C 1160.08 0.118047 -2.01354 0
M  V30 12286 C 1160.39 1.42953 -1.33505 0
M  V30 12287 O 1161.6 2.07788 -1.74747 0
M  V30 12288 C 1160.05 0.260912 -3.58953 0
M  V30 12289 C 1159.66 -1.0407 -4.35745 0
M  V30 12290 C 1161.41 0.779014 -4.17291 0
M  V30 12291 C 1159.31 -0.862958 -5.8507 0
M  V30 12292 H 1158.24 0.0478915 -0.752478 0
M  V30 12293 H 1160.89 -0.577997 -1.74159 0
M  V30 12294 H 1159.28 1.02018 -3.82633 0
M  V30 12295 H 1160.45 -1.80903 -4.23805 0
M  V30 12296 H 1158.77 -1.48805 -3.88904 0
M  V30 12297 H 1161.36 0.928636 -5.26574 0
M  V30 12298 H 1161.71 1.76399 -3.7708 0
M  V30 12299 H 1162.24 0.0778022 -3.97724 0
M  V30 12300 H 1158.98 -1.82059 -6.2971 0
M  V30 12301 H 1158.5 -0.134588 -5.99649 0
M  V30 12302 H 1160.18 -0.51989 -6.44908 0
M  V30 12303 N 1160.31 1.56586 -0.178487 0
M  V30 12304 C 1161.72 1.83633 0.337009 0
M  V30 12305 C 1162.07 1.09857 1.6256 0
M  V30 12306 O 1161.2 0.353933 2.13486 0
M  V30 12307 C 1161.79 3.33112 0.618225 0
M  V30 12308 C 1160.35 3.60629 1.07814 0
M  V30 12309 C 1159.5 2.7705 0.117825 0
M  V30 12310 H 1162.45 1.53508 -0.402612 0
M  V30 12311 H 1162.47 3.5098 1.46947 0
M  V30 12312 H 1161.98 3.8678 -0.319808 0
M  V30 12313 H 1160.08 3.12378 2.03103 0
M  V30 12314 H 1160.19 4.68921 0.982339 0
M  V30 12315 H 1158.56 2.47125 0.616563 0
M  V30 12316 H 1159.34 3.33501 -0.814356 0
M  V30 12317 N 1161.79 -0.095206 1.57312 0
M  V30 12318 C 1163.06 -0.830388 1.77099 0
M  V30 12319 C 1163.44 -1.9694 0.760121 0
M  V30 12320 O 1162.79 -2.2752 -0.211403 0
M  V30 12321 C 1163 -1.32507 3.22867 0
M  V30 12322 C 1164.35 -1.7679 3.86045 0
M  V30 12323 O 1165.37 -1.42131 3.26615 0
M  V30 12324 O 1164.23 -2.40876 4.90552 0
M  V30 12325 H 1161.33 -0.396083 0.72598 0
M  V30 12326 H 1163.87 -0.0770965 1.69525 0
M  V30 12327 H 1162.64 -0.508992 3.87975 0
M  V30 12328 H 1162.27 -2.14037 3.35073 0
M  V30 12329 N 1163.26 -1.53291 -0.366026 0
M  V30 12330 C 1164.21 -1.79697 -1.44836 0
M  V30 12331 C 1165.18 -0.641321 -1.5322 0
M  V30 12332 O 1166.37 -0.883453 -1.69115 0
M  V30 12333 C 1163.51 -1.99223 -2.81788 0
M  V30 12334 C 1162.62 -3.26938 -2.82375 0
M  V30 12335 C 1161.75 -3.36654 -4.10898 0
M  V30 12336 C 1160.79 -4.58404 -4.05626 0
M  V30 12337 N 1159.93 -4.65275 -5.25798 0
M  V30 12338 H 1164.77 -2.72053 -1.21619 0
M  V30 12339 H 1162.31 -1.34768 -0.589577 0
M  V30 12340 H 1164.27 -2.0853 -3.61346 0
M  V30 12341 H 1162.9 -1.10204 -3.03406 0
M  V30 12342 H 1161.95 -3.26587 -1.95052 0
M  V30 12343 H 1163.26 -4.16573 -2.74351 0
M  V30 12344 H 1162.41 -3.4527 -4.98872 0
M  V30 12345 H 1161.15 -2.45035 -4.21674 0
M  V30 12346 H 1160.16 -4.49888 -3.16039 0
M  V30 12347 H 1161.38 -5.51364 -3.96453 0
M  V30 12348 H 1159.33 -3.76557 -5.3716 0
M  V30 12349 H 1159.25 -5.48814 -5.19942 0
M  V30 12350 H 1160.51 -4.78175 -6.15605 0
M  V30 12351 N 1164.74 0.6258 -1.44643 0
M  V30 12352 C 1165.65 1.76611 -1.5442 0
M  V30 12353 C 1166.67 1.68614 -0.429576 0
M  V30 12354 O 1167.84 1.89296 -0.687686 0
M  V30 12355 C 1164.91 3.13015 -1.49071 0
M  V30 12356 C 1163.97 3.32604 -2.71428 0
M  V30 12357 C 1163.2 4.62501 -2.66325 0
M  V30 12358 O 1163.43 5.43651 -1.72626 0
M  V30 12359 O 1162.36 4.84408 -3.57258 0
M  V30 12360 H 1166.19 1.71315 -2.50769 0
M  V30 12361 H 1163.77 0.787677 -1.26949 0
M  V30 12362 H 1165.65 3.94318 -1.48631 0
M  V30 12363 H 1164.33 3.18842 -0.558686 0
M  V30 12364 H 1163.24 2.50959 -2.77435 0
M  V30 12365 H 1164.57 3.31642 -3.63695 0
M  V30 12366 N 1166.22 1.31629 0.866686 0
M  V30 12367 C 1167.13 1.21524 2.00671 0
M  V30 12368 C 1168.15 0.131277 1.73504 0
M  V30 12369 O 1169.32 0.349699 1.98341 0
M  V30 12370 C 1166.39 0.926491 3.34091 0
M  V30 12371 C 1165.45 2.09769 3.7456 0
M  V30 12372 C 1164.68 1.82262 5.01614 0
M  V30 12373 O 1164.9 0.759329 5.65323 0
M  V30 12374 O 1163.84 2.68031 5.38928 0
M  V30 12375 H 1167.66 2.17335 2.1213 0
M  V30 12376 H 1165.25 1.11401 0.995499 0
M  V30 12377 H 1167.13 0.78144 4.14091 0
M  V30 12378 H 1165.81 -0.00155829 3.237 0
M  V30 12379 H 1164.71 2.29816 2.95187 0
M  V30 12380 H 1166.05 3.0081 3.89582 0
M  V30 12381 N 1167.7 -1.08142 1.14644 0
M  V30 12382 C 1168.63 -2.15022 0.793614 0
M  V30 12383 C 1169.64 -1.61679 -0.190729 0
M  V30 12384 O 1170.83 -1.78472 0.0313696 0
M  V30 12385 C 1167.93 -3.38532 0.157785 0
M  V30 12386 C 1167.11 -4.21252 1.17753 0
M  V30 12387 C 1166.17 -5.23158 0.564968 0
M  V30 12388 O 1165.19 -5.5578 1.22869 0
M  V30 12389 N 1166.39 -5.7677 -0.657022 0
M  V30 12390 H 1169.16 -2.45893 1.71338 0
M  V30 12391 H 1166.72 -1.23976 1.04122 0
M  V30 12392 H 1168.71 -4.03834 -0.264586 0
M  V30 12393 H 1167.28 -3.05441 -0.665168 0
M  V30 12394 H 1166.5 -3.51888 1.77675 0
M  V30 12395 H 1167.79 -4.73335 1.86632 0
M  V30 12396 H 1167.19 -5.52503 -1.21478 0
M  V30 12397 H 1165.74 -6.4374 -1.02186 0
M  V30 12398 N 1169.18 -0.941978 -1.26351 0
M  V30 12399 C 1170.59 -0.644413 -1.46012 0
M  V30 12400 C 1170.79 0.802031 -1.84851 0
M  V30 12401 O 1169.85 1.57859 -1.9707 0
M  V30 12402 C 1171.16 -1.60652 -2.54188 0
M  V30 12403 C 1172.71 -1.6163 -2.68038 0
M  V30 12404 C 1173.19 -2.56573 -3.79387 0
M  V30 12405 N 1174.68 -2.54863 -3.8678 0
M  V30 12406 C 1175.41 -3.2501 -4.72394 0
M  V30 12407 N 1174.91 -4.04586 -5.6239 0
M  V30 12408 N 1176.7 -3.13958 -4.66247 0
M  V30 12409 H 1168.85 -1.8769 -0.994293 0
M  V30 12410 H 1171.11 -0.806621 -0.498063 0
M  V30 12411 H 1170.82 -2.63907 -2.32478 0
M  V30 12412 H 1170.69 -1.3592 -3.5186 0
M  V30 12413 H 1173.08 -0.59099 -2.89122 0
M  V30 12414 H 1173.16 -1.90417 -1.70807 0
M  V30 12415 H 1172.81 -3.59223 -3.59056 0
M  V30 12416 H 1172.74 -2.25077 -4.76076 0
M  V30 12417 H 1175.23 -1.97082 -3.22439 0
M  V30 12418 H 1175.54 -4.55061 -6.24612 0
M  V30 12419 H 1173.89 -4.08687 -5.62139 0
M  V30 12420 H 1177.08 -2.51273 -3.94943 0
M  V30 12421 H 1177.25 -3.68894 -5.32749 0
M  V30 12422 N 1170.66 1.40747 -0.709091 0
M  V30 12423 C 1171.88 2.05841 -0.253816 0
M  V30 12424 C 1172.31 1.53056 1.09341 0
M  V30 12425 O 1171.66 0.663181 1.68735 0
M  V30 12426 C 1171.71 3.59822 -0.236699 0
M  V30 12427 O 1170.82 4.04876 0.784168 0
M  V30 12428 H 1170.16 0.65295 -0.120631 0
M  V30 12429 H 1172.69 1.80266 -0.967749 0
M  V30 12430 H 1172.7 4.07936 -0.0721616 0
M  V30 12431 H 1171.37 3.97608 -1.21988 0
M  V30 12432 H 1169.95 3.68237 0.587884 0
M  V30 12433 N 1172.13 0.454803 1.50895 0
M  V30 12434 C 1173.07 -0.383826 2.25963 0
M  V30 12435 C 1174.08 -0.971263 1.30653 0
M  V30 12436 O 1175.27 -0.862434 1.56283 0
M  V30 12437 C 1172.37 -1.55069 3.01342 0
M  V30 12438 C 1171.54 -1.07899 4.23883 0
M  V30 12439 C 1170.6 -2.118 4.81692 0
M  V30 12440 O 1169.63 -1.70523 5.43057 0
M  V30 12441 N 1170.83 -3.44459 4.67256 0
M  V30 12442 H 1173.59 0.259646 2.98573 0
M  V30 12443 H 1171.15 0.284661 1.59378 0
M  V30 12444 H 1173.15 -2.24236 3.36898 0
M  V30 12445 H 1171.72 -2.09917 2.31633 0
M  V30 12446 H 1170.94 -0.213773 3.9362 0
M  V30 12447 H 1172.22 -0.741501 5.03368 0
M  V30 12448 H 1171.62 -3.80716 4.18416 0
M  V30 12449 H 1170.18 -4.0947 5.07127 0
M  V30 12450 N 1173.61 -1.56489 0.186789 0
M  V30 12451 C 1174.86 -1.96517 -0.45433 0
M  V30 12452 C 1175.17 -1.07618 -1.63333 0
M  V30 12453 O 1176.38 -1.37392 -2.3417 0
M  V30 12454 C 1174.84 -3.49482 -0.859685 0
M  V30 12455 C 1174.44 -4.47031 0.294572 0
M  V30 12456 C 1176.19 -3.98296 -1.46835 0
M  V30 12457 C 1174.09 -5.91254 -0.131279 0
M  V30 12458 H 1173.02 -0.733765 -0.17351 0
M  V30 12459 H 1175.68 -1.8139 0.277485 0
M  V30 12460 H 1174.06 -3.60082 -1.64793 0
M  V30 12461 H 1175.23 -4.48156 1.07205 0
M  V30 12462 H 1173.55 -4.08362 0.814197 0
M  V30 12463 H 1176.14 -5.03518 -1.79928 0
M  V30 12464 H 1176.49 -3.42123 -2.37186 0
M  V30 12465 H 1177.02 -3.90776 -0.744247 0
M  V30 12466 H 1173.76 -6.51334 0.737839 0
M  V30 12467 H 1173.28 -5.93401 -0.873786 0
M  V30 12468 H 1174.96 -6.44485 -0.569913 0
M  V30 12469 N 1175.09 0.086862 -1.5736 0
M  V30 12470 C 1176.04 1.12359 -2.03662 0
M  V30 12471 C 1177.03 1.40982 -0.939169 0
M  V30 12472 O 1178.24 1.40566 -1.12433 0
M  V30 12473 H 1174.61 0.379605 -0.649156 0
M  V30 12474 H 1176.58 0.706822 -2.89908 0
M  V30 12475 C 1175.33 2.43327 -2.48369 0
M  V30 12476 H 1174.66 2.22148 -3.324 0
M  V30 12477 H 1176.1 3.14351 -2.84534 0
M  V30 12478 C 1174.55 3.08214 -1.36036 0
M  V30 12479 O 1175.08 3.95659 -0.694063 0
M  V30 12480 N 1173.29 2.68596 -1.10927 0
M  V30 12481 H 1172.84 1.97578 -1.6529 0
M  V30 12482 H 1172.8 3.12336 -0.359679 0
M  V30 12483 N 1176.57 1.53483 0.357892 0
M  V30 12484 C 1177.82 1.69701 1.09754 0
M  V30 12485 C 1178.14 0.455389 1.89608 0
M  V30 12486 O 1177.41 -0.530623 1.88577 0
M  V30 12487 H 1175.99 0.62562 0.408178 0
M  V30 12488 H 1178.65 1.90696 0.402641 0
M  V30 12489 H 1177.74 2.56154 1.78302 0
M  V30 12490 N 1178.05 -0.61812 1.44973 0
M  V30 12491 C 1179.29 -1.37944 1.48658 0
M  V30 12492 C 1179.62 -1.93805 0.123749 0
M  V30 12493 O 1178.9 -1.74434 -0.860401 0
M  V30 12494 C 1179.18 -2.53515 2.55739 0
M  V30 12495 C 1179.04 -2.02918 4.01428 0
M  V30 12496 C 1180.35 -3.55674 2.59199 0
M  V30 12497 H 1177.47 -0.500223 0.541244 0
M  V30 12498 H 1180.12 -0.69774 1.76725 0
M  V30 12499 H 1178.27 -3.11669 2.31937 0
M  V30 12500 H 1179.94 -1.49494 4.36405 0
M  V30 12501 H 1178.18 -1.33999 4.12586 0
M  V30 12502 H 1178.85 -2.86181 4.72021 0
M  V30 12503 H 1181.33 -3.07343 2.80499 0
M  V30 12504 H 1180.2 -4.34042 3.36004 0
M  V30 12505 H 1180.46 -4.10601 1.63888 0
M  V30 12506 N 1179.52 -1.32087 -0.859693 0
M  V30 12507 C 1180.76 -1.23671 -1.62742 0
M  V30 12508 C 1181.13 0.19966 -1.90959 0
M  V30 12509 O 1182.33 0.407478 -2.65694 0
M  V30 12510 C 1180.6 -2.06736 -2.91539 0
M  V30 12511 S 1182.16 -2.15292 -3.82354 0
M  V30 12512 H 1178.98 -0.440306 -0.558258 0
M  V30 12513 H 1181.58 -1.66875 -1.01848 0
M  V30 12514 H 1180.28 -3.10166 -2.68747 0
M  V30 12515 H 1179.81 -1.64291 -3.57452 0
M  V30 12516 H 1181.83 -1.29874 -4.78902 0
M  V30 12517 N 1181 1.07532 -1.15215 0
M  V30 12518 C 1181.93 2.1668 -0.870171 0
M  V30 12519 C 1182.91 1.69161 0.178483 0
M  V30 12520 O 1184.1 1.94172 0.0332489 0
M  V30 12521 C 1181.23 3.45464 -0.356666 0
M  V30 12522 C 1180.18 4.06424 -1.34179 0
M  V30 12523 C 1179.51 5.30266 -0.687206 0
M  V30 12524 C 1180.81 4.46666 -2.70715 0
M  V30 12525 H 1182.5 2.40526 -1.7829 0
M  V30 12526 H 1180.05 1.15598 -0.858665 0
M  V30 12527 H 1182 4.21144 -0.146947 0
M  V30 12528 H 1180.72 3.21199 0.591527 0
M  V30 12529 H 1179.38 3.32786 -1.53783 0
M  V30 12530 H 1179.03 5.0229 0.267077 0
M  V30 12531 H 1178.73 5.72009 -1.34462 0
M  V30 12532 H 1180.26 6.08653 -0.487218 0
M  V30 12533 H 1181.67 5.13483 -2.54966 0
M  V30 12534 H 1180.07 4.99355 -3.32813 0
M  V30 12535 H 1181.14 3.58123 -3.26919 0
M  V30 12536 N 1182.48 0.948665 1.2585 0
M  V30 12537 C 1183.41 0.482036 2.2847 0
M  V30 12538 C 1184.39 -0.468553 1.63519 0
M  V30 12539 O 1185.58 -0.368796 1.90666 0
M  V30 12540 C 1182.71 -0.246603 3.46423 0
M  V30 12541 C 1181.66 0.61815 4.23513 0
M  V30 12542 C 1180.99 -0.240884 5.34157 0
M  V30 12543 C 1182.29 1.89327 4.86778 0
M  V30 12544 H 1183.98 1.33973 2.67753 0
M  V30 12545 H 1181.53 0.645645 1.28715 0
M  V30 12546 H 1183.48 -0.584135 4.17332 0
M  V30 12547 H 1182.2 -1.13849 3.06114 0
M  V30 12548 H 1180.86 0.938682 3.54379 0
M  V30 12549 H 1180.51 -1.13235 4.90089 0
M  V30 12550 H 1180.21 0.334367 5.86648 0
M  V30 12551 H 1181.73 -0.573517 6.07901 0
M  V30 12552 H 1183.15 1.62252 5.49861 0
M  V30 12553 H 1181.55 2.41369 5.49419 0
M  V30 12554 H 1182.62 2.60006 4.09298 0
M  V30 12555 N 1183.96 -1.40369 0.716545 0
M  V30 12556 C 1185.21 -2.00869 0.256466 0
M  V30 12557 C 1185.53 -1.56816 -1.15061 0
M  V30 12558 O 1184.79 -0.779696 -1.79497 0
M  V30 12559 C 1185.09 -3.56257 0.285583 0
M  V30 12560 C 1184.75 -4.19897 1.64309 0
M  V30 12561 C 1183.42 -4.36994 2.01469 0
M  V30 12562 C 1185.77 -4.55385 2.53524 0
M  V30 12563 C 1183.1 -4.86862 3.27387 0
M  V30 12564 C 1185.45 -5.06653 3.78795 0
M  V30 12565 C 1184.11 -5.21959 4.16071 0
M  V30 12566 H 1183.38 -0.735033 0.0938475 0
M  V30 12567 H 1186.03 -1.67966 0.919765 0
M  V30 12568 H 1184.33 -3.89075 -0.461287 0
M  V30 12569 H 1186.03 -4.00903 -0.0882496 0
M  V30 12570 H 1182.62 -4.06978 1.34413 0
M  V30 12571 H 1186.8 -4.41811 2.2609 0
M  V30 12572 H 1182.06 -4.96897 3.56235 0
M  V30 12573 H 1186.23 -5.33089 4.48095 0
M  V30 12574 H 1183.86 -5.60362 5.1371 0
M  V30 12575 N 1185.44 -0.462799 -1.50652 0
M  V30 12576 C 1186.68 0.0951853 -2.02576 0
M  V30 12577 C 1187.02 1.40113 -1.34469 0
M  V30 12578 O 1186.29 1.88793 -0.467702 0
M  V30 12579 C 1186.57 0.287603 -3.5895 0
M  V30 12580 C 1186.43 -1.03878 -4.37641 0
M  V30 12581 C 1187.75 1.04593 -4.27491 0
M  V30 12582 H 1184.86 0.0331191 -0.736255 0
M  V30 12583 H 1187.51 -0.606772 -1.80051 0
M  V30 12584 H 1185.66 0.885514 -3.78274 0
M  V30 12585 H 1187.33 -1.67263 -4.29908 0
M  V30 12586 H 1185.57 -1.6374 -4.01711 0
M  V30 12587 H 1186.24 -0.857889 -5.45293 0
M  V30 12588 H 1188.72 0.539213 -4.12591 0
M  V30 12589 H 1187.59 1.14935 -5.36732 0
M  V30 12590 H 1187.86 2.08045 -3.90089 0
M  V30 12591 N 1186.91 1.56388 -0.195085 0
M  V30 12592 C 1187.88 2.17859 0.712053 0
M  V30 12593 C 1188.88 1.13304 1.141 0
M  V30 12594 O 1190.07 1.38689 1.05409 0
M  V30 12595 C 1187.2 2.78065 1.97213 0
M  V30 12596 H 1188.39 2.9938 0.176529 0
M  V30 12597 H 1185.95 1.56205 0.0545322 0
M  V30 12598 H 1186.68 2.00342 2.55017 0
M  V30 12599 H 1186.47 3.54603 1.67329 0
M  V30 12600 H 1187.96 3.25266 2.619 0
M  V30 12601 N 1188.39 -0.0785156 1.57404 0
M  V30 12602 C 1189.33 -1.12563 1.98506 0
M  V30 12603 C 1190.3 -1.3794 0.860891 0
M  V30 12604 O 1191.49 -1.51425 1.12262 0
M  V30 12605 C 1188.61 -2.47139 2.31603 0
M  V30 12606 C 1187.66 -2.3794 3.53959 0
M  V30 12607 S 1188.49 -1.77997 5.05052 0
M  V30 12608 C 1189.65 -3.14164 5.41342 0
M  V30 12609 H 1189.88 -0.775328 2.87012 0
M  V30 12610 H 1187.42 -0.286806 1.51713 0
M  V30 12611 H 1189.37 -3.24554 2.51346 0
M  V30 12612 H 1188.03 -2.79333 1.43638 0
M  V30 12613 H 1187.23 -3.37168 3.74612 0
M  V30 12614 H 1186.83 -1.68659 3.33812 0
M  V30 12615 H 1189.12 -4.10467 5.39002 0
M  V30 12616 H 1190.06 -2.98298 6.42202 0
M  V30 12617 H 1190.47 -3.1446 4.68802 0
M  V30 12618 N 1189.87 -1.5367 -0.349747 0
M  V30 12619 C 1191.12 -1.70281 -1.08853 0
M  V30 12620 C 1191.44 -0.465438 -1.89364 0
M  V30 12621 O 1190.71 0.520615 -1.88856 0
M  V30 12622 H 1189.29 -0.627775 -0.404854 0
M  V30 12623 H 1191.95 -1.90906 -0.392523 0
M  V30 12624 H 1191.05 -2.57096 -1.76941 0
M  V30 12625 N 1191.35 0.610423 -1.45298 0
M  V30 12626 C 1192.59 1.38085 -1.50705 0
M  V30 12627 C 1192.95 1.91459 -0.143997 0
M  V30 12628 O 1194.15 2.68702 -0.0727521 0
M  V30 12629 C 1192.42 2.50009 -2.55402 0
M  V30 12630 S 1193.98 3.37844 -2.80012 0
M  V30 12631 H 1190.8 0.470812 -0.532783 0
M  V30 12632 H 1193.4 0.704638 -1.8236 0
M  V30 12633 H 1192.11 2.09143 -3.53111 0
M  V30 12634 H 1191.64 3.22434 -2.25388 0
M  V30 12635 H 1193.65 4.48074 -2.13176 0
M  V30 12636 N 1192.83 1.32541 0.852676 0
M  V30 12637 C 1194.07 1.23397 1.60938 0
M  V30 12638 C 1194.41 -0.203294 1.93133 0
M  V30 12639 O 1193.68 -1.14097 1.57519 0
M  V30 12640 C 1193.96 2.0956 2.92842 0
M  V30 12641 C 1193.82 3.61675 2.67416 0
M  V30 12642 C 1195.14 1.95825 3.94133 0
M  V30 12643 H 1192.25 0.449608 0.583971 0
M  V30 12644 H 1194.9 1.62507 0.98446 0
M  V30 12645 H 1193.05 1.76336 3.46176 0
M  V30 12646 H 1194.72 4.05122 2.20621 0
M  V30 12647 H 1192.96 3.84242 2.01347 0
M  V30 12648 H 1193.63 4.17292 3.61347 0
M  V30 12649 H 1196.11 2.24935 3.50062 0
M  V30 12650 H 1194.98 2.58387 4.8428 0
M  V30 12651 H 1195.25 0.926466 4.32284 0
M  V30 12652 N 1194.3 -1.0692 1.15784 0
M  V30 12653 C 1195.53 -1.83849 0.959903 0
M  V30 12654 C 1195.95 -1.8169 -0.486873 0
M  V30 12655 O 1195.31 -1.21305 -1.34739 0
M  V30 12656 C 1195.36 -3.28642 1.48414 0
M  V30 12657 O 1194.46 -4.0665 0.686249 0
M  V30 12658 H 1193.81 -0.569115 0.342059 0
M  V30 12659 H 1196.34 -1.34851 1.53871 0
M  V30 12660 H 1196.35 -3.7947 1.49888 0
M  V30 12661 H 1195.02 -3.29529 2.53739 0
M  V30 12662 H 1193.6 -3.65453 0.741501 0
M  V30 12663 N 1195.78 -0.955326 -1.25345 0
M  V30 12664 C 1196.71 -0.494145 -2.28211 0
M  V30 12665 C 1197.69 0.459875 -1.63766 0
M  V30 12666 O 1198.88 0.358679 -1.90859 0
M  V30 12667 C 1196.01 0.228228 -3.46549 0
M  V30 12668 C 1194.96 -0.640601 -4.23179 0
M  V30 12669 C 1194.29 0.212553 -5.34277 0
M  V30 12670 C 1195.59 -1.91906 -4.85767 0
M  V30 12671 H 1197.28 -1.35391 -2.67039 0
M  V30 12672 H 1194.83 -0.652462 -1.2837 0
M  V30 12673 H 1196.78 0.561995 -4.17636 0
M  V30 12674 H 1195.51 1.12224 -3.06714 0
M  V30 12675 H 1194.16 -0.957462 -3.53876 0
M  V30 12676 H 1193.81 1.10634 -4.90682 0
M  V30 12677 H 1193.51 -0.365473 -5.86462 0
M  V30 12678 H 1195.04 0.541271 -6.08196 0
M  V30 12679 H 1196.45 -1.65165 -5.48993 0
M  V30 12680 H 1194.85 -2.44279 -5.48131 0
M  V30 12681 H 1195.92 -2.62173 -4.07914 0
M  V30 12682 N 1197.26 1.39987 -0.723979 0
M  V30 12683 C 1198.51 2.00731 -0.267115 0
M  V30 12684 C 1198.84 1.57424 1.14228 0
M  V30 12685 O 1198.09 0.789205 1.79081 0
M  V30 12686 C 1198.39 3.56101 -0.304472 0
M  V30 12687 C 1198.06 4.1902 -1.66533 0
M  V30 12688 C 1196.72 4.3592 -2.03783 0
M  V30 12689 C 1199.07 4.54034 -2.55935 0
M  V30 12690 C 1196.4 4.85119 -3.29964 0
M  V30 12691 C 1198.75 5.04637 -3.81477 0
M  V30 12692 C 1197.41 5.19745 -4.18833 0
M  V30 12693 H 1196.68 0.734525 -0.0977442 0
M  V30 12694 H 1199.33 1.67476 -0.928659 0
M  V30 12695 H 1197.64 3.89314 0.440647 0
M  V30 12696 H 1199.33 4.00944 0.0669875 0
M  V30 12697 H 1195.92 4.0626 -1.36569 0
M  V30 12698 H 1200.11 4.40606 -2.2843 0
M  V30 12699 H 1195.36 4.95001 -3.58865 0
M  V30 12700 H 1199.54 5.30705 -4.50916 0
M  V30 12701 H 1197.16 5.5763 -5.16675 0
M  V30 12702 N 1198.74 0.470782 1.50404 0
M  V30 12703 C 1199.97 -0.0820134 2.06737 0
M  V30 12704 C 1200.38 -1.33535 1.33468 0
M  V30 12705 O 1199.74 -1.77975 0.403872 0
M  V30 12706 C 1199.79 -0.370427 3.59597 0
M  V30 12707 O 1199.51 0.8332 4.30104 0
M  V30 12708 C 1201.01 -0.970222 4.32552 0
M  V30 12709 H 1198.23 0.00694502 0.670964 0
M  V30 12710 H 1200.78 0.659476 1.93575 0
M  V30 12711 H 1198.93 -1.06185 3.72563 0
M  V30 12712 H 1199.35 0.577614 5.2131 0
M  V30 12713 H 1200.82 -1.1218 5.40481 0
M  V30 12714 H 1201.3 -1.96024 3.93028 0
M  V30 12715 H 1201.9 -0.31719 4.24116 0
M  V30 12716 N 1200.22 -1.56282 0.203376 0
M  V30 12717 C 1201.15 -2.16714 -0.74616 0
M  V30 12718 C 1202.16 -1.13121 -1.17079 0
M  V30 12719 O 1203.35 -1.40179 -1.10509 0
M  V30 12720 C 1200.45 -2.72115 -2.02007 0
M  V30 12721 C 1199.62 -4.00695 -1.75391 0
M  V30 12722 C 1198.68 -4.40839 -2.8731 0
M  V30 12723 O 1197.71 -5.081 -2.56561 0
M  V30 12724 N 1198.91 -4.05024 -4.15856 0
M  V30 12725 H 1201.68 -2.98821 -0.229326 0
M  V30 12726 H 1199.24 -1.61885 0.0217049 0
M  V30 12727 H 1201.23 -2.95951 -2.76035 0
M  V30 12728 H 1199.8 -1.94415 -2.44789 0
M  V30 12729 H 1199.02 -3.84905 -0.851 0
M  V30 12730 H 1200.31 -4.8461 -1.55017 0
M  V30 12731 H 1199.71 -3.50938 -4.43688 0
M  V30 12732 H 1198.26 -4.33792 -4.86485 0
M  V30 12733 N 1201.7 0.070167 -1.57444 0
M  V30 12734 C 1202.94 0.769014 -1.8733 0
M  V30 12735 C 1203.27 1.77496 -0.79533 0
M  V30 12736 O 1202.53 1.94586 0.208495 0
M  V30 12737 C 1202.82 1.5111 -3.23883 0
M  V30 12738 C 1202.49 0.644988 -4.46263 0
M  V30 12739 C 1201.15 0.406307 -4.79482 0
M  V30 12740 C 1203.5 0.0444938 -5.21181 0
M  V30 12741 C 1200.83 -0.442322 -5.8503 0
M  V30 12742 C 1203.18 -0.791599 -6.27628 0
M  V30 12743 C 1201.85 -1.04014 -6.59346 0
M  V30 12744 H 1201.12 0.281402 -0.685488 0
M  V30 12745 H 1203.77 0.029752 -1.91477 0
M  V30 12746 H 1202.07 2.32261 -3.15535 0
M  V30 12747 H 1203.77 2.05665 -3.44242 0
M  V30 12748 H 1200.36 0.841148 -4.20265 0
M  V30 12749 H 1204.54 0.216005 -4.9583 0
M  V30 12750 H 1199.8 -0.643607 -6.08003 0
M  V30 12751 H 1203.97 -1.26363 -6.8484 0
M  V30 12752 H 1201.6 -1.69949 -7.4096 0
M  V30 12753 N 1203.17 1.53854 0.341593 0
M  V30 12754 C 1204.1 1.84966 1.42513 0
M  V30 12755 C 1205.08 0.704944 1.54805 0
M  V30 12756 O 1206.27 0.957036 1.68981 0
M  V30 12757 C 1203.4 2.06099 2.79536 0
M  V30 12758 C 1202.35 3.21919 2.82049 0
M  V30 12759 C 1201.68 3.28389 4.21977 0
M  V30 12760 C 1202.98 4.59984 2.4741 0
M  V30 12761 H 1204.67 2.7571 1.16724 0
M  V30 12762 H 1202.22 1.32662 0.560073 0
M  V30 12763 H 1204.17 2.26448 3.55386 0
M  V30 12764 H 1202.9 1.12087 3.06764 0
M  V30 12765 H 1201.56 3.01429 2.08653 0
M  V30 12766 H 1201.2 2.3197 4.46317 0
M  V30 12767 H 1200.9 4.0622 4.24569 0
M  V30 12768 H 1202.43 3.50951 4.99666 0
M  V30 12769 H 1203.84 4.80334 3.12973 0
M  V30 12770 H 1202.24 5.40233 2.61282 0
M  V30 12771 H 1203.31 4.6346 1.42594 0
M  V30 12772 N 1204.65 -0.602709 1.4562 0
M  V30 12773 C 1205.58 -1.7271 1.50678 0
M  V30 12774 C 1206.6 -1.57884 0.397048 0
M  V30 12775 O 1207.79 -1.65676 0.664367 0
M  V30 12776 C 1204.89 -3.10762 1.35204 0
M  V30 12777 C 1204.06 -3.51782 2.59939 0
M  V30 12778 C 1203.12 -4.68816 2.38952 0
M  V30 12779 O 1202.14 -4.75686 3.12588 0
M  V30 12780 N 1203.35 -5.624 1.43827 0
M  V30 12781 H 1206.11 -1.68833 2.47619 0
M  V30 12782 H 1203.67 -0.788131 1.41422 0
M  V30 12783 H 1205.66 -3.86819 1.18967 0
M  V30 12784 H 1204.23 -3.09119 0.465203 0
M  V30 12785 H 1203.45 -2.65637 2.91257 0
M  V30 12786 H 1204.74 -3.75948 3.42842 0
M  V30 12787 H 1204.14 -5.59568 0.830669 0
M  V30 12788 H 1202.7 -6.37969 1.33561 0
M  V30 12789 N 1206.13 -1.32992 -0.845635 0
M  V30 12790 C 1207.38 -1.2382 -1.59728 0
M  V30 12791 C 1207.7 0.197724 -1.93995 0
M  V30 12792 O 1206.97 1.12477 -1.60392 0
M  V30 12793 H 1205.55 -0.455296 -0.592212 0
M  V30 12794 H 1208.21 -1.66627 -1.01101 0
M  V30 12795 H 1207.31 -1.82717 -2.53023 0
M  V30 12796 N 1207.61 1.06304 -1.1635 0
M  V30 12797 C 1208.84 1.82534 -0.967725 0
M  V30 12798 C 1209.25 1.82816 0.487338 0
M  V30 12799 O 1208.59 1.24581 1.35001 0
M  V30 12800 C 1208.65 3.30349 -1.4181 0
M  V30 12801 C 1208.31 3.53769 -2.89303 0
M  V30 12802 C 1209.31 3.46826 -3.87308 0
M  V30 12803 C 1207 3.81094 -3.2722 0
M  V30 12804 C 1208.99 3.66874 -5.21232 0
M  V30 12805 C 1206.68 4.00792 -4.61313 0
M  V30 12806 C 1207.68 3.93679 -5.58127 0
M  V30 12807 O 1207.36 4.12839 -6.89796 0
M  V30 12808 H 1207.1 0.582407 -0.343189 0
M  V30 12809 H 1209.65 1.35022 -1.54784 0
M  V30 12810 H 1207.88 3.78722 -0.781456 0
M  V30 12811 H 1209.57 3.88072 -1.18976 0
M  V30 12812 H 1210.33 3.25706 -3.59361 0
M  V30 12813 H 1206.21 3.85739 -2.5244 0
M  V30 12814 H 1209.76 3.61238 -5.96786 0
M  V30 12815 H 1205.65 4.214 -4.8897 0
M  V30 12816 H 1206.42 4.30128 -6.96371 0
M  V30 12817 N 1209.09 0.96196 1.24836 0
M  V30 12818 C 1210.05 0.492443 2.23847 0
M  V30 12819 C 1211.05 -0.40788 1.55541 0
M  V30 12820 O 1212.24 -0.204143 1.73 0
M  V30 12821 C 1209.37 -0.287578 3.39685 0
M  V30 12822 H 1210.56 1.36767 2.66899 0
M  V30 12823 H 1208.12 0.745967 1.3735 0
M  V30 12824 H 1208.85 -1.18015 3.02064 0
M  V30 12825 H 1208.64 0.358431 3.90458 0
M  V30 12826 H 1210.13 -0.605297 4.1319 0
M  V30 12827 N 1210.56 -1.39601 0.731392 0
M  V30 12828 C 1211.81 -2.00586 0.277756 0
M  V30 12829 C 1212.14 -1.58027 -1.13391 0
M  V30 12830 O 1211.39 -0.798691 -1.7866 0
M  V30 12831 C 1211.69 -3.55934 0.323352 0
M  V30 12832 C 1211.36 -4.18131 1.68753 0
M  V30 12833 C 1210.02 -4.34833 2.06092 0
M  V30 12834 C 1212.37 -4.5267 2.58339 0
M  V30 12835 C 1209.7 -4.83362 3.32532 0
M  V30 12836 C 1212.05 -5.02607 3.84148 0
M  V30 12837 C 1210.72 -5.17517 4.21584 0
M  V30 12838 H 1209.99 -0.733996 0.101638 0
M  V30 12839 H 1212.63 -1.66981 0.937528 0
M  V30 12840 H 1210.94 -3.89542 -0.419995 0
M  V30 12841 H 1212.64 -4.00974 -0.0457235 0
M  V30 12842 H 1209.23 -4.0553 1.38722 0
M  V30 12843 H 1213.41 -4.39388 2.30763 0
M  V30 12844 H 1208.67 -4.93091 3.61485 0
M  V30 12845 H 1212.84 -5.28306 4.53724 0
M  V30 12846 H 1210.47 -5.54882 5.19625 0
M  V30 12847 N 1212.04 -0.478751 -1.50152 0
M  V30 12848 C 1213.01 0.300181 -2.27226 0
M  V30 12849 C 1214.01 0.913705 -1.32318 0
M  V30 12850 O 1215.2 0.781692 -1.55677 0
M  V30 12851 C 1212.33 1.42838 -3.09532 0
M  V30 12852 H 1213.52 -0.375845 -2.97536 0
M  V30 12853 H 1211.07 -0.233037 -1.54553 0
M  V30 12854 H 1211.81 2.13923 -2.43737 0
M  V30 12855 H 1211.59 0.994161 -3.79287 0
M  V30 12856 H 1213.08 1.97765 -3.67802 0
M  V30 12857 N 1213.52 1.56172 -0.211661 0
M  V30 12858 C 1214.47 2.19849 0.702515 0
M  V30 12859 C 1215.44 1.15091 1.19763 0
M  V30 12860 O 1216.62 1.43408 1.25852 0
M  V30 12861 C 1213.76 2.87468 1.90935 0
M  V30 12862 C 1212.88 4.06794 1.45406 0
M  V30 12863 C 1212.01 4.62224 2.61769 0
M  V30 12864 C 1211.05 5.73872 2.12926 0
M  V30 12865 N 1210.19 6.23635 3.22526 0
M  V30 12866 H 1215.03 2.97608 0.152777 0
M  V30 12867 H 1212.56 1.46962 0.0636596 0
M  V30 12868 H 1214.52 3.24851 2.61777 0
M  V30 12869 H 1213.15 2.12244 2.43213 0
M  V30 12870 H 1212.2 3.74962 0.640907 0
M  V30 12871 H 1213.52 4.87497 1.05584 0
M  V30 12872 H 1212.67 5.01999 3.40709 0
M  V30 12873 H 1211.41 3.80662 3.04873 0
M  V30 12874 H 1210.41 5.33609 1.32445 0
M  V30 12875 H 1211.64 6.57262 1.70833 0
M  V30 12876 H 1209.58 5.44991 3.65131 0
M  V30 12877 H 1209.5 6.99435 2.86926 0
M  V30 12878 H 1210.77 6.68066 4.01631 0
M  V30 12879 N 1215 -0.0618163 1.57479 0
M  V30 12880 C 1216.22 -0.775513 1.92355 0
M  V30 12881 C 1216.65 -1.69816 0.808949 0
M  V30 12882 O 1216.01 -1.79736 -0.23761 0
M  V30 12883 C 1216.05 -1.5367 3.26218 0
M  V30 12884 O 1215.16 -2.64802 3.16155 0
M  V30 12885 H 1214.5 -0.210909 0.629614 0
M  V30 12886 H 1217.03 -0.0270752 2.04582 0
M  V30 12887 H 1217.04 -1.91379 3.6033 0
M  V30 12888 H 1215.71 -0.859798 4.06916 0
M  V30 12889 H 1214.29 -2.29876 2.93618 0
M  V30 12890 N 1216.48 -1.54033 -0.333429 0
M  V30 12891 C 1217.72 -1.71426 -1.0704 0
M  V30 12892 C 1218.05 -0.485496 -1.8886 0
M  V30 12893 O 1217.32 0.500555 -1.89397 0
M  V30 12894 H 1215.9 -0.632034 -0.398173 0
M  V30 12895 H 1218.56 -1.91312 -0.372252 0
M  V30 12896 H 1217.65 -2.58958 -1.74205 0
M  V30 12897 N 1217.95 0.594978 -1.45938 0
M  V30 12898 C 1218.86 1.73296 -1.58132 0
M  V30 12899 C 1219.88 1.67665 -0.465245 0
M  V30 12900 O 1221.06 1.87794 -0.727684 0
M  V30 12901 C 1218.12 3.09783 -1.55677 0
M  V30 12902 C 1217.18 3.26772 -2.78422 0
M  V30 12903 C 1216.42 4.56748 -2.76075 0
M  V30 12904 O 1216.64 5.39867 -1.84119 0
M  V30 12905 O 1215.57 4.76721 -3.67452 0
M  V30 12906 H 1219.4 1.65957 -2.54346 0
M  V30 12907 H 1216.98 0.760572 -1.28591 0
M  V30 12908 H 1218.87 3.91077 -1.56961 0
M  V30 12909 H 1217.54 3.17585 -0.626191 0
M  V30 12910 H 1216.45 2.45018 -2.82696 0
M  V30 12911 H 1217.78 3.23853 -3.70648 0
M  V30 12912 N 1219.43 1.33438 0.838571 0
M  V30 12913 C 1220.36 1.26344 1.96365 0
M  V30 12914 C 1221.34 0.143956 1.6949 0
M  V30 12915 O 1222.53 0.333779 1.9131 0
M  V30 12916 C 1219.66 1.0022 3.32526 0
M  V30 12917 C 1218.61 2.08466 3.73799 0
M  V30 12918 C 1217.94 1.67555 5.07769 0
M  V30 12919 C 1219.24 3.50144 3.87552 0
M  V30 12920 H 1220.93 2.20478 2.02558 0
M  V30 12921 H 1218.48 1.06139 0.973168 0
M  V30 12922 H 1220.43 0.939068 4.10803 0
M  V30 12923 H 1219.16 0.0252514 3.2659 0
M  V30 12924 H 1217.81 2.13822 2.97785 0
M  V30 12925 H 1217.46 0.685619 4.98305 0
M  V30 12926 H 1217.16 2.39993 5.36356 0
M  V30 12927 H 1218.69 1.62708 5.88522 0
M  V30 12928 H 1220.1 3.47287 4.56141 0
M  V30 12929 H 1218.5 4.21069 4.27575 0
M  V30 12930 H 1219.57 3.88628 2.89994 0
M  V30 12931 N 1220.91 -1.05686 1.16912 0
M  V30 12932 C 1221.84 -2.15268 0.904532 0
M  V30 12933 C 1222.82 -1.69424 -0.151548 0
M  V30 12934 O 1224.01 -1.942 -0.00235371 0
M  V30 12935 C 1221.14 -3.44853 0.411581 0
M  V30 12936 C 1220.09 -4.04237 1.40628 0
M  V30 12937 C 1219.42 -5.29105 0.771479 0
M  V30 12938 C 1220.72 -4.42303 2.77787 0
M  V30 12939 H 1222.41 -2.37659 1.82094 0
M  V30 12940 H 1219.96 -1.14217 0.876947 0
M  V30 12941 H 1221.91 -4.20857 0.213929 0
M  V30 12942 H 1220.63 -3.22099 -0.540352 0
M  V30 12943 H 1219.29 -3.30297 1.59058 0
M  V30 12944 H 1218.94 -5.02652 -0.187133 0
M  V30 12945 H 1218.64 -5.69797 1.43545 0
M  V30 12946 H 1220.16 -6.07801 0.583988 0
M  V30 12947 H 1221.58 -5.09362 2.63103 0
M  V30 12948 H 1219.98 -4.93997 3.40716 0
M  V30 12949 H 1221.05 -3.52877 3.32575 0
M  V30 12950 N 1222.39 -0.968567 -1.24324 0
M  V30 12951 C 1223.62 -0.648568 -1.96472 0
M  V30 12952 C 1224.03 0.782168 -1.71836 0
M  V30 12953 O 1223.39 1.5249 -1.00265 0
M  V30 12954 C 1223.44 -0.91482 -3.49733 0
M  V30 12955 O 1223.16 -2.28931 -3.73527 0
M  V30 12956 C 1224.66 -0.609131 -4.39095 0
M  V30 12957 H 1221.88 -0.241921 -0.625872 0
M  V30 12958 H 1224.43 -1.29673 -1.5813 0
M  V30 12959 H 1222.58 -0.31285 -3.86135 0
M  V30 12960 H 1222.99 -2.36998 -4.67902 0
M  V30 12961 H 1224.47 -0.845875 -5.4548 0
M  V30 12962 H 1224.95 0.456625 -4.3682 0
M  V30 12963 H 1225.55 -1.19105 -4.08282 0
M  V30 12964 N 1223.87 1.39211 -0.738786 0
M  V30 12965 C 1224.81 2.30578 -0.10129 0
M  V30 12966 C 1225.78 1.49412 0.725616 0
M  V30 12967 O 1226.97 1.78087 0.684799 0
M  V30 12968 C 1224.11 3.35767 0.797161 0
M  V30 12969 C 1223.22 4.31979 -0.0427701 0
M  V30 12970 C 1222.36 5.24236 0.857306 0
M  V30 12971 C 1221.4 6.12099 0.0128501 0
M  V30 12972 N 1220.53 6.96701 0.869067 0
M  V30 12973 H 1225.37 2.84522 -0.88606 0
M  V30 12974 H 1222.91 1.40093 -0.448602 0
M  V30 12975 H 1224.87 3.95347 1.33255 0
M  V30 12976 H 1223.5 2.83268 1.54787 0
M  V30 12977 H 1222.55 3.73986 -0.695622 0
M  V30 12978 H 1223.86 4.93927 -0.69555 0
M  V30 12979 H 1223.02 5.88861 1.4604 0
M  V30 12980 H 1221.75 4.62619 1.54386 0
M  V30 12981 H 1220.76 5.46483 -0.603018 0
M  V30 12982 H 1221.98 6.75781 -0.67054 0
M  V30 12983 H 1219.93 6.37647 1.54084 0
M  V30 12984 H 1219.85 7.55507 0.272852 0
M  V30 12985 H 1221.12 7.65751 1.4576 0
M  V30 12986 N 1225.34 0.486708 1.49896 0
M  V30 12987 C 1226.76 0.141788 1.58969 0
M  V30 12988 C 1226.96 -1.35279 1.49338 0
M  V30 12989 O 1226.02 -2.1275 1.35992 0
M  V30 12990 C 1227.33 0.70588 2.92297 0
M  V30 12991 C 1228.88 0.670704 3.0573 0
M  V30 12992 C 1229.35 1.21261 4.41656 0
M  V30 12993 N 1230.84 1.17269 4.4811 0
M  V30 12994 C 1231.58 1.56233 5.51705 0
M  V30 12995 N 1231.07 2.02721 6.62477 0
M  V30 12996 N 1232.87 1.47738 5.42337 0
M  V30 12997 H 1225.02 1.45858 1.544 0
M  V30 12998 H 1227.28 0.604137 0.730563 0
M  V30 12999 H 1226.99 1.7535 3.04869 0
M  V30 13000 H 1226.86 0.158215 3.76868 0
M  V30 13001 H 1229.25 -0.368041 2.92796 0
M  V30 13002 H 1229.33 1.25535 2.22878 0
M  V30 13003 H 1228.97 2.25006 4.5534 0
M  V30 13004 H 1228.9 0.604031 5.23124 0
M  V30 13005 H 1231.39 0.831905 3.6863 0
M  V30 13006 H 1231.71 2.3056 7.37606 0
M  V30 13007 H 1230.05 2.06686 6.63556 0
M  V30 13008 H 1233.24 1.11249 4.54688 0
M  V30 13009 H 1233.42 1.78429 6.2295 0
M  V30 13010 N 1226.82 -1.56058 0.219941 0
M  V30 13011 C 1227.75 -2.2321 -0.685547 0
M  V30 13012 C 1228.73 -1.20328 -1.20229 0
M  V30 13013 O 1229.92 -1.48909 -1.24659 0
M  V30 13014 C 1227.05 -2.91076 -1.89452 0
M  V30 13015 C 1226 -4.00415 -1.51169 0
M  V30 13016 C 1225.33 -4.55569 -2.79931 0
M  V30 13017 C 1226.63 -5.17549 -0.702896 0
M  V30 13018 H 1228.32 -2.99136 -0.125671 0
M  V30 13019 H 1225.87 -1.43879 -0.0590043 0
M  V30 13020 H 1227.82 -3.36744 -2.53341 0
M  V30 13021 H 1226.55 -2.12594 -2.47934 0
M  V30 13022 H 1225.21 -3.55475 -0.896275 0
M  V30 13023 H 1224.85 -3.73819 -3.36553 0
M  V30 13024 H 1224.55 -5.29361 -2.55049 0
M  V30 13025 H 1226.08 -5.03955 -3.44764 0
M  V30 13026 H 1227.49 -5.59608 -1.24544 0
M  V30 13027 H 1225.89 -5.97563 -0.551234 0
M  V30 13028 H 1226.96 -4.84027 0.29083 0
M  V30 13029 N 1228.3 0.053464 -1.57509 0
M  V30 13030 C 1229.72 0.408651 -1.5428 0
M  V30 13031 C 1229.92 1.78086 -0.942735 0
M  V30 13032 O 1228.97 2.46366 -0.553163 0
M  V30 13033 C 1230.29 0.332884 -2.98852 0
M  V30 13034 C 1231.83 0.411745 -3.1028 0
M  V30 13035 C 1232.31 0.365691 -4.56538 0
M  V30 13036 N 1233.8 0.425222 -4.61244 0
M  V30 13037 C 1234.54 0.412093 -5.71917 0
M  V30 13038 N 1234.03 0.352693 -6.91902 0
M  V30 13039 N 1235.82 0.460016 -5.60214 0
M  V30 13040 H 1227.98 -0.844834 -1.94875 0
M  V30 13041 H 1230.24 -0.318888 -0.892757 0
M  V30 13042 H 1229.94 -0.609116 -3.46385 0
M  V30 13043 H 1229.82 1.13605 -3.59686 0
M  V30 13044 H 1232.21 1.34417 -2.62709 0
M  V30 13045 H 1232.29 -0.420333 -2.52323 0
M  V30 13046 H 1231.93 -0.562963 -5.0477 0
M  V30 13047 H 1231.86 1.21555 -5.12379 0
M  V30 13048 H 1234.35 0.474634 -3.74908 0
M  V30 13049 H 1234.66 0.347105 -7.7202 0
M  V30 13050 H 1233.01 0.319104 -6.94267 0
M  V30 13051 H 1236.2 0.504242 -4.65376 0
M  V30 13052 H 1236.37 0.446315 -6.46461 0
M  V30 13053 N 1229.78 1.54207 0.325255 0
M  V30 13054 C 1230.73 1.83474 1.40021 0
M  V30 13055 C 1231.7 0.681719 1.51466 0
M  V30 13056 O 1232.88 0.92798 1.66713 0
M  V30 13057 C 1230.02 2.06624 2.76407 0
M  V30 13058 C 1229.13 3.3431 2.73607 0
M  V30 13059 C 1228.27 3.4743 4.01828 0
M  V30 13060 C 1227.31 4.68997 3.93329 0
M  V30 13061 N 1226.45 4.79052 5.13277 0
M  V30 13062 H 1231.29 2.75182 1.14363 0
M  V30 13063 H 1228.82 1.36284 0.553639 0
M  V30 13064 H 1230.78 2.18037 3.5569 0
M  V30 13065 H 1229.41 1.18209 3.00377 0
M  V30 13066 H 1228.46 3.31643 1.86324 0
M  V30 13067 H 1229.77 4.237 2.6321 0
M  V30 13068 H 1228.93 3.58376 4.89542 0
M  V30 13069 H 1227.67 2.56128 4.1503 0
M  V30 13070 H 1226.67 4.58109 3.04 0
M  V30 13071 H 1227.9 5.61681 3.81695 0
M  V30 13072 H 1225.84 3.90666 5.26988 0
M  V30 13073 H 1225.76 5.62406 5.05208 0
M  V30 13074 H 1227.03 4.94328 6.02711 0
M  V30 13075 N 1231.26 -0.58723 1.46251 0
M  V30 13076 C 1232.5 -1.3456 1.51327 0
M  V30 13077 C 1232.83 -1.93815 0.163146 0
M  V30 13078 O 1232.09 -1.76723 -0.840677 0
M  V30 13079 C 1232.39 -2.49776 2.5563 0
M  V30 13080 C 1232.05 -2.08543 3.99776 0
M  V30 13081 C 1230.71 -1.97013 4.39021 0
M  V30 13082 C 1233.07 -1.76669 4.90344 0
M  V30 13083 C 1230.39 -1.5186 5.66706 0
M  V30 13084 C 1232.75 -1.32996 6.18462 0
M  V30 13085 C 1231.41 -1.20039 6.56618 0
M  V30 13086 H 1230.68 -0.492391 0.553744 0
M  V30 13087 H 1233.33 -0.661715 1.79704 0
M  V30 13088 H 1231.63 -3.23592 2.20897 0
M  V30 13089 H 1233.33 -3.07995 2.56788 0
M  V30 13090 H 1229.92 -2.18451 3.68751 0
M  V30 13091 H 1234.1 -1.84465 4.60746 0
M  V30 13092 H 1229.36 -1.40467 5.95045 0
M  V30 13093 H 1233.53 -1.07385 6.88071 0
M  V30 13094 H 1231.16 -0.848268 7.55452 0
M  V30 13095 N 1232.74 -1.33881 -0.831482 0
M  V30 13096 C 1233.98 -1.25507 -1.58406 0
M  V30 13097 C 1234.3 0.177137 -1.94194 0
M  V30 13098 O 1233.57 1.10769 -1.61576 0
M  V30 13099 H 1232.15 -0.461551 -0.587349 0
M  V30 13100 H 1234.82 -1.6769 -0.99328 0
M  V30 13101 H 1233.91 -1.85391 -2.51071 0
M  V30 13102 N 1234.21 1.05064 -1.1747 0
M  V30 13103 C 1235.46 1.78089 -0.963883 0
M  V30 13104 C 1235.79 1.87766 0.507365 0
M  V30 13105 O 1235.04 1.37477 1.39279 0
M  V30 13106 C 1235.34 3.21961 -1.55164 0
M  V30 13107 C 1235.01 3.32339 -3.04732 0
M  V30 13108 C 1233.67 3.34878 -3.45557 0
M  V30 13109 C 1236.02 3.3325 -4.00741 0
M  V30 13110 C 1233.35 3.35959 -4.80987 0
M  V30 13111 C 1235.7 3.3587 -5.36073 0
M  V30 13112 C 1234.37 3.36697 -5.7636 0
M  V30 13113 H 1233.64 0.651672 -0.35271 0
M  V30 13114 H 1236.28 1.23471 -1.4638 0
M  V30 13115 H 1234.59 3.79514 -0.973471 0
M  V30 13116 H 1236.29 3.77087 -1.36406 0
M  V30 13117 H 1232.88 3.31076 -2.72188 0
M  V30 13118 H 1237.06 3.30488 -3.70258 0
M  V30 13119 H 1232.32 3.34911 -5.11512 0
M  V30 13120 H 1236.49 3.35524 -6.10243 0
M  V30 13121 H 1234.12 3.37288 -6.81279 0
M  V30 13122 N 1235.69 0.975146 1.23809 0
M  V30 13123 C 1237.11 0.682899 1.44252 0
M  V30 13124 C 1237.31 -0.752739 1.86912 0
M  V30 13125 O 1236.36 -1.52579 2.01186 0
M  V30 13126 C 1237.68 1.67335 2.49839 0
M  V30 13127 C 1239.22 1.6868 2.63659 0
M  V30 13128 C 1239.7 2.66542 3.72451 0
M  V30 13129 N 1241.19 2.65028 3.79887 0
M  V30 13130 C 1241.93 3.37421 4.63611 0
M  V30 13131 N 1241.42 4.19355 5.51465 0
M  V30 13132 N 1243.21 3.2621 4.57759 0
M  V30 13133 H 1235.37 1.9026 0.94418 0
M  V30 13134 H 1237.63 0.819543 0.476502 0
M  V30 13135 H 1237.33 2.69978 2.25399 0
M  V30 13136 H 1237.21 1.45201 3.48133 0
M  V30 13137 H 1239.6 0.667438 2.87453 0
M  V30 13138 H 1239.68 1.94878 1.65699 0
M  V30 13139 H 1239.32 3.68617 3.49405 0
M  V30 13140 H 1239.25 2.3762 4.69941 0
M  V30 13141 H 1241.74 2.05562 3.171 0
M  V30 13142 H 1242.05 4.71461 6.12327 0
M  V30 13143 H 1240.4 4.23447 5.51106 0
M  V30 13144 H 1243.59 2.61656 3.88142 0
M  V30 13145 H 1243.76 3.82889 5.22781 0
M  V30 13146 N 1237.17 -1.38817 0.746158 0
M  V30 13147 C 1238.13 -2.28876 0.121886 0
M  V30 13148 C 1239.13 -1.46838 -0.655379 0
M  V30 13149 O 1240.32 -1.67377 -0.482744 0
M  V30 13150 C 1237.45 -3.30487 -0.836118 0
M  V30 13151 H 1238.65 -2.85586 0.915453 0
M  V30 13152 H 1236.2 -1.47652 0.512691 0
M  V30 13153 H 1236.94 -2.78853 -1.65563 0
M  V30 13154 H 1236.72 -3.9109 -0.281271 0
M  V30 13155 H 1238.21 -3.97848 -1.26914 0
M  V30 13156 N 1238.65 -0.49465 -1.49636 0
M  V30 13157 C 1239.58 0.33366 -2.25748 0
M  V30 13158 C 1240.56 0.97591 -1.30057 0
M  V30 13159 O 1241.74 1.00725 -1.59332 0
M  V30 13160 C 1238.87 1.46938 -3.05167 0
M  V30 13161 C 1237.92 0.942149 -4.15964 0
M  V30 13162 S 1238.75 -0.162019 -5.35255 0
M  V30 13163 C 1239.9 0.977022 -6.18227 0
M  V30 13164 H 1240.14 -0.312361 -2.95655 0
M  V30 13165 H 1237.67 -0.279854 -1.51843 0
M  V30 13166 H 1239.63 2.12017 -3.5151 0
M  V30 13167 H 1238.29 2.087 -2.34741 0
M  V30 13168 H 1237.48 1.79309 -4.71025 0
M  V30 13169 H 1237.08 0.368687 -3.72178 0
M  V30 13170 H 1239.38 1.88363 -6.50788 0
M  V30 13171 H 1240.32 0.465168 -7.0657 0
M  V30 13172 H 1240.73 1.24149 -5.50679 0
M  V30 13173 N 1240.13 1.55939 -0.228214 0
M  V30 13174 C 1241.06 2.2357 0.6737 0
M  V30 13175 C 1242.04 1.20964 1.1959 0
M  V30 13176 O 1243.22 1.49568 1.23867 0
M  V30 13177 C 1240.35 2.92076 1.87906 0
M  V30 13178 C 1239.31 4.01211 1.49043 0
M  V30 13179 C 1238.63 4.57047 2.77511 0
M  V30 13180 C 1239.93 5.17914 0.67544 0
M  V30 13181 H 1241.63 2.99199 0.109806 0
M  V30 13182 H 1239.17 1.43908 0.0513732 0
M  V30 13183 H 1241.12 3.38083 2.51551 0
M  V30 13184 H 1239.85 2.13906 2.46803 0
M  V30 13185 H 1238.51 3.55945 0.877411 0
M  V30 13186 H 1238.16 3.75599 3.34566 0
M  V30 13187 H 1237.86 5.30707 2.52239 0
M  V30 13188 H 1239.38 5.05776 3.42087 0
M  V30 13189 H 1240.79 5.60261 1.21575 0
M  V30 13190 H 1239.19 5.97847 0.519536 0
M  V30 13191 H 1240.26 4.83866 -0.316495 0
M  V30 13192 N 1241.6 -0.0451101 1.57535 0
M  V30 13193 C 1242.85 -0.737654 1.88157 0
M  V30 13194 C 1243.17 -1.76743 0.823817 0
M  V30 13195 O 1242.44 -1.95366 -0.144503 0
M  V30 13196 H 1241.02 -0.275431 0.694368 0
M  V30 13197 H 1243.69 -0.0148651 1.94894 0
M  V30 13198 H 1242.78 -1.23726 2.86528 0
M  V30 13199 N 1243.08 -1.54377 -0.317073 0
M  V30 13200 C 1244.01 -1.80563 -1.41172 0
M  V30 13201 C 1245.03 -0.687865 -1.47554 0
M  V30 13202 O 1246.22 -0.965084 -1.50161 0
M  V30 13203 C 1243.32 -1.9142 -2.79663 0
M  V30 13204 C 1242.49 -3.21655 -2.96407 0
M  V30 13205 C 1241.55 -3.23131 -4.15298 0
M  V30 13206 O 1240.57 -3.96741 -4.08149 0
M  V30 13207 N 1241.78 -2.47376 -5.25153 0
M  V30 13208 H 1244.54 -2.75032 -1.1907 0
M  V30 13209 H 1242.1 -1.53754 -0.507086 0
M  V30 13210 H 1244.09 -1.89828 -3.57418 0
M  V30 13211 H 1242.66 -1.0402 -2.94786 0
M  V30 13212 H 1241.88 -3.36154 -2.05899 0
M  V30 13213 H 1243.17 -4.07629 -3.04494 0
M  V30 13214 H 1242.57 -1.87173 -5.33838 0
M  V30 13215 H 1241.13 -2.51555 -6.01301 0
M  V30 13216 N 1244.56 0.579466 -1.4656 0
M  V30 13217 C 1245.84 1.33973 -1.42515 0
M  V30 13218 C 1246.22 2.10812 -0.110317 0
M  V30 13219 O 1245.57 2.09679 0.908135 0
M  V30 13220 C 1245.78 2.26301 -2.65686 0
M  V30 13221 C 1247.12 2.88027 -3.1197 0
M  V30 13222 O 1248.15 2.36612 -2.66257 0
M  V30 13223 O 1247.01 3.81423 -3.9138 0
M  V30 13224 H 1244.1 0.602121 -0.566903 0
M  V30 13225 H 1246.65 0.600214 -1.58731 0
M  V30 13226 H 1245.42 1.68973 -3.52936 0
M  V30 13227 H 1245.04 3.07586 -2.51945 0
M  V30 13228 N 1246.04 1.3432 0.824371 0
M  V30 13229 C 1247.29 1.25938 1.57552 0
M  V30 13230 C 1247.6 -0.169298 1.94866 0
M  V30 13231 O 1248.81 -0.375262 2.68894 0
M  V30 13232 C 1247.26 2.20757 2.84244 0
M  V30 13233 C 1246.87 3.68873 2.54237 0
M  V30 13234 C 1248.61 2.21279 3.62265 0
M  V30 13235 C 1246.52 4.55566 3.77113 0
M  V30 13236 H 1245.45 0.467832 0.591311 0
M  V30 13237 H 1248.1 1.59476 0.907724 0
M  V30 13238 H 1246.48 1.80168 3.52641 0
M  V30 13239 H 1247.66 4.17991 1.93959 0
M  V30 13240 H 1245.97 3.70784 1.89494 0
M  V30 13241 H 1248.57 2.83272 4.53499 0
M  V30 13242 H 1248.91 1.2117 3.98276 0
M  V30 13243 H 1249.45 2.60305 3.00809 0
M  V30 13244 H 1246.19 5.56605 3.46223 0
M  V30 13245 H 1245.71 4.11184 4.36678 0
M  V30 13246 H 1247.38 4.701 4.44539 0
M  V30 13247 N 1247.52 -1.0444 1.18026 0
M  V30 13248 C 1248.48 -2.10532 0.906028 0
M  V30 13249 C 1249.48 -1.60443 -0.107022 0
M  V30 13250 O 1250.67 -1.73744 0.126001 0
M  V30 13251 C 1247.8 -3.39008 0.358625 0
M  V30 13252 H 1248.99 -2.36293 1.84677 0
M  V30 13253 H 1246.55 -1.20805 0.991763 0
M  V30 13254 H 1247.28 -3.18908 -0.588904 0
M  V30 13255 H 1247.07 -3.76678 1.08884 0
M  V30 13256 H 1248.56 -4.17189 0.185331 0
M  V30 13257 N 1248.99 -0.981699 -1.2329 0
M  V30 13258 C 1250.24 -0.661895 -1.92329 0
M  V30 13259 C 1250.6 0.79602 -1.75161 0
M  V30 13260 O 1249.89 1.56687 -1.10271 0
M  V30 13261 C 1250.08 -0.989244 -3.43437 0
M  V30 13262 C 1249.91 -2.47743 -3.75305 0
M  V30 13263 C 1248.68 -3.13963 -3.95924 0
M  V30 13264 C 1250.88 -3.45817 -3.80677 0
M  V30 13265 N 1248.86 -4.52374 -4.15008 0
M  V30 13266 C 1250.23 -4.6964 -4.04769 0
M  V30 13267 C 1252.29 -3.4028 -3.63475 0
M  V30 13268 C 1250.99 -5.88605 -4.13445 0
M  V30 13269 C 1253.02 -4.5861 -3.73405 0
M  V30 13270 C 1252.38 -5.81229 -3.97935 0
M  V30 13271 H 1248.48 -0.293289 -0.724918 0
M  V30 13272 H 1251.06 -1.25942 -1.48481 0
M  V30 13273 H 1249.23 -0.420398 -3.86118 0
M  V30 13274 H 1250.96 -0.626579 -3.9982 0
M  V30 13275 H 1247.72 -2.64456 -3.92887 0
M  V30 13276 H 1248.14 -5.24134 -4.28501 0
M  V30 13277 H 1252.79 -2.46504 -3.43505 0
M  V30 13278 H 1250.5 -6.82795 -4.32223 0
M  V30 13279 H 1254.09 -4.55903 -3.61447 0
M  V30 13280 H 1252.97 -6.71263 -4.05433 0
M  V30 13281 N 1250.47 1.3842 -0.753509 0
M  V30 13282 C 1251.72 2.00119 -0.309633 0
M  V30 13283 C 1252.05 1.59811 1.10863 0
M  V30 13284 O 1251.3 0.827013 1.77367 0
M  V30 13285 C 1251.6 3.55375 -0.379937 0
M  V30 13286 C 1251.27 4.15393 -1.75384 0
M  V30 13287 C 1249.93 4.31499 -2.12984 0
M  V30 13288 C 1252.28 4.48503 -2.65508 0
M  V30 13289 C 1249.61 4.78011 -3.4018 0
M  V30 13290 C 1251.96 4.96431 -3.92095 0
M  V30 13291 C 1250.63 5.10744 -4.29764 0
M  V30 13292 H 1249.9 0.732286 -0.113303 0
M  V30 13293 H 1252.54 1.65468 -0.963975 0
M  V30 13294 H 1250.85 3.90161 0.357969 0
M  V30 13295 H 1252.54 4.00996 -0.0180738 0
M  V30 13296 H 1249.13 4.03271 -1.45156 0
M  V30 13297 H 1253.32 4.35661 -2.37724 0
M  V30 13298 H 1248.57 4.87277 -3.69284 0
M  V30 13299 H 1252.75 5.21021 -4.62072 0
M  V30 13300 H 1250.38 5.46545 -5.28387 0
M  V30 13301 N 1251.95 0.502579 1.49372 0
M  V30 13302 C 1253.23 -0.104472 1.95321 0
M  V30 13303 C 1253.61 -1.53975 1.44412 0
M  V30 13304 O 1252.96 -2.18804 0.658566 0
M  V30 13305 C 1253.17 -0.0154833 3.48997 0
M  V30 13306 C 1254.51 -0.188615 4.24181 0
M  V30 13307 O 1255.54 -0.090595 3.56085 0
M  V30 13308 O 1254.4 -0.390068 5.45106 0
M  V30 13309 H 1251.49 -0.0944325 0.821591 0
M  V30 13310 H 1254.04 0.565229 1.6001 0
M  V30 13311 H 1252.81 0.985383 3.7869 0
M  V30 13312 H 1252.43 -0.72526 3.90929 0
M  V30 13313 N 1253.43 -1.55816 0.23648 0
M  V30 13314 C 1254.71 -1.90565 -0.440933 0
M  V30 13315 C 1255.09 -1.15585 -1.76645 0
M  V30 13316 O 1254.43 -0.269949 -2.269 0
M  V30 13317 C 1254.64 -3.43462 -0.61925 0
M  V30 13318 C 1255.99 -4.14516 -0.91989 0
M  V30 13319 O 1257.02 -3.49144 -0.705496 0
M  V30 13320 O 1255.87 -5.3013 -1.32759 0
M  V30 13321 H 1252.97 -0.79285 -0.235199 0
M  V30 13322 H 1255.51 -1.67378 0.279774 0
M  V30 13323 H 1254.29 -3.90029 0.315124 0
M  V30 13324 H 1253.91 -3.72478 -1.39089 0
M  V30 13325 N 1254.91 0.036755 -1.57557 0
M  V30 13326 C 1255.84 1.03939 -2.09091 0
M  V30 13327 C 1256.82 1.38196 -0.991761 0
M  V30 13328 O 1258 1.47214 -1.26656 0
M  V30 13329 C 1255.13 2.34263 -2.56394 0
M  V30 13330 C 1254.09 2.14269 -3.70504 0
M  V30 13331 C 1253.41 3.50286 -4.03985 0
M  V30 13332 C 1254.71 1.53514 -4.9923 0
M  V30 13333 H 1256.41 0.610429 -2.93111 0
M  V30 13334 H 1253.95 0.292183 -1.41005 0
M  V30 13335 H 1255.91 3.04727 -2.91066 0
M  V30 13336 H 1254.63 2.79205 -1.69447 0
M  V30 13337 H 1253.29 1.46239 -3.36169 0
M  V30 13338 H 1252.94 3.92861 -3.14116 0
M  V30 13339 H 1252.64 3.37735 -4.80842 0
M  V30 13340 H 1254.16 4.22124 -4.41184 0
M  V30 13341 H 1255.57 2.13885 -5.31908 0
M  V30 13342 H 1253.97 1.51561 -5.80646 0
M  V30 13343 H 1255.04 0.500126 -4.82314 0
M  V30 13344 N 1256.39 1.54543 0.308881 0
M  V30 13345 C 1257.8 1.45581 0.654088 0
M  V30 13346 C 1258 0.640597 1.91046 0
M  V30 13347 O 1257.06 0.14518 2.52082 0
M  V30 13348 C 1258.37 2.89461 0.814422 0
M  V30 13349 C 1259.92 2.99455 0.910817 0
M  V30 13350 C 1260.39 4.44515 1.10321 0
M  V30 13351 N 1261.88 4.4819 1.1696 0
M  V30 13352 C 1262.62 5.57604 1.33661 0
M  V30 13353 N 1262.12 6.76957 1.47311 0
M  V30 13354 N 1263.91 5.45278 1.36487 0
M  V30 13355 H 1256.06 2.06019 -0.516699 0
M  V30 13356 H 1258.32 0.932729 -0.169471 0
M  V30 13357 H 1258.03 3.5168 -0.0377455 0
M  V30 13358 H 1257.9 3.36425 1.70582 0
M  V30 13359 H 1260.29 2.37355 1.75348 0
M  V30 13360 H 1260.37 2.558 -0.00443172 0
M  V30 13361 H 1260.01 5.07206 0.265346 0
M  V30 13362 H 1259.94 4.85793 2.03256 0
M  V30 13363 H 1262.44 3.62199 1.07796 0
M  V30 13364 H 1262.75 7.561 1.59788 0
M  V30 13365 H 1261.09 6.79837 1.44382 0
M  V30 13366 H 1264.28 4.50983 1.25429 0
M  V30 13367 H 1264.46 6.30599 1.4916 0
M  V30 13368 N 1257.86 -0.571685 1.46866 0
M  V30 13369 C 1258.81 -1.70098 1.58649 0
M  V30 13370 C 1259.81 -1.63191 0.45443 0
M  V30 13371 O 1261.01 -1.68551 0.63171 0
M  V30 13372 H 1257.39 -0.56258 0.499007 0
M  V30 13373 H 1259.36 -1.57293 2.53577 0
M  V30 13374 C 1258.11 -3.08475 1.60433 0
M  V30 13375 H 1257.43 -3.14465 2.46884 0
M  V30 13376 H 1258.87 -3.87221 1.7273 0
M  V30 13377 C 1257.33 -3.35231 0.334948 0
M  V30 13378 O 1257.86 -3.97633 -0.570149 0
M  V30 13379 N 1256.06 -2.8977 0.219441 0
M  V30 13380 H 1255.61 -2.39168 0.956891 0
M  V30 13381 H 1255.57 -3.08044 -0.628975 0
M  V30 13382 N 1259.34 -1.34755 -0.817236 0
M  V30 13383 C 1260.57 -1.30676 -1.61054 0
M  V30 13384 C 1260.99 0.115343 -1.87746 0
M  V30 13385 O 1260.35 1.07887 -1.45705 0
M  V30 13386 C 1260.4 -2.10881 -2.92509 0
M  V30 13387 O 1259.5 -1.48223 -3.84842 0
M  V30 13388 H 1258.84 -0.448531 -0.489608 0
M  V30 13389 H 1261.37 -1.77642 -1.01512 0
M  V30 13390 H 1261.38 -2.22446 -3.42026 0
M  V30 13391 H 1260.06 -3.14274 -2.72406 0
M  V30 13392 H 1258.63 -1.45434 -3.4337 0
M  V30 13393 N 1260.82 1.03812 -1.18578 0
M  V30 13394 C 1262.23 1.58509 -0.986496 0
M  V30 13395 C 1262.58 1.90655 0.463136 0
M  V30 13396 O 1261.71 1.69847 1.34093 0
M  V30 13397 C 1262.3 2.88 -1.78441 0
M  V30 13398 C 1260.86 3.39304 -1.6294 0
M  V30 13399 C 1260.01 2.12857 -1.77727 0
M  V30 13400 H 1262.96 0.864528 -1.33085 0
M  V30 13401 H 1262.98 3.58502 -1.27501 0
M  V30 13402 H 1262.49 2.64572 -2.83942 0
M  V30 13403 H 1260.59 3.6774 -0.599864 0
M  V30 13404 H 1260.71 4.12959 -2.42902 0
M  V30 13405 H 1259.07 2.24285 -1.20699 0
M  V30 13406 H 1259.85 1.91882 -2.84669 0
M  V30 13407 N 1262.3 0.988223 1.22768 0
M  V30 13408 C 1263.55 0.660154 1.91014 0
M  V30 13409 C 1263.87 -0.809788 1.77391 0
M  V30 13410 O 1263.14 -1.57998 1.15817 0
M  V30 13411 H 1261.72 0.24118 0.706995 0
M  V30 13412 H 1264.38 1.25372 1.49224 0
M  V30 13413 H 1263.47 0.918603 2.98275 0
M  V30 13414 N 1263.78 -1.38018 0.760839 0
M  V30 13415 C 1264.74 -2.28734 0.146154 0
M  V30 13416 C 1265.74 -1.47525 -0.639768 0
M  V30 13417 O 1266.93 -1.6788 -0.464964 0
M  V30 13418 C 1264.06 -3.31356 -0.801019 0
M  V30 13419 H 1265.25 -2.84599 0.945692 0
M  V30 13420 H 1262.81 -1.471 0.528323 0
M  V30 13421 H 1263.54 -2.80594 -1.62597 0
M  V30 13422 H 1263.33 -3.91366 -0.239775 0
M  V30 13423 H 1264.82 -3.99171 -1.22687 0
M  V30 13424 N 1265.25 -0.510493 -1.49103 0
M  V30 13425 C 1266.18 0.251999 -2.32136 0
M  V30 13426 C 1267.16 0.953613 -1.40855 0
M  V30 13427 O 1268.35 0.943178 -1.69758 0
M  V30 13428 C 1265.48 1.31118 -3.21598 0
M  V30 13429 C 1264.43 0.72888 -4.21748 0
M  V30 13430 C 1263.76 1.88928 -5.0021 0
M  V30 13431 C 1265.06 -0.286425 -5.21514 0
M  V30 13432 H 1266.75 -0.441102 -2.96133 0
M  V30 13433 H 1264.3 -0.213577 -1.42407 0
M  V30 13434 H 1266.25 1.8524 -3.78503 0
M  V30 13435 H 1264.98 2.0336 -2.55563 0
M  V30 13436 H 1263.64 0.209336 -3.66002 0
M  V30 13437 H 1263.28 2.59961 -4.30615 0
M  V30 13438 H 1262.98 1.50568 -5.67981 0
M  V30 13439 H 1264.51 2.43465 -5.59962 0
M  V30 13440 H 1265.92 0.166997 -5.73057 0
M  V30 13441 H 1264.32 -0.586361 -5.97228 0
M  V30 13442 H 1265.39 -1.19904 -4.69842 0
M  V30 13443 N 1266.73 1.55688 -0.24474 0
M  V30 13444 C 1267.96 2.0329 0.384808 0
M  V30 13445 C 1268.37 1.12405 1.51692 0
M  V30 13446 O 1267.73 0.138056 1.81977 0
M  V30 13447 C 1267.78 3.50255 0.894635 0
M  V30 13448 O 1267.5 4.37677 -0.192365 0
M  V30 13449 C 1269 4.13608 1.59509 0
M  V30 13450 H 1266.22 0.664706 0.0916908 0
M  V30 13451 H 1268.77 2.01162 -0.367973 0
M  V30 13452 H 1266.92 3.52924 1.5976 0
M  V30 13453 H 1267.34 5.2414 0.194424 0
M  V30 13454 H 1268.81 5.1814 1.90356 0
M  V30 13455 H 1269.29 3.5997 2.51631 0
M  V30 13456 H 1269.89 4.14856 0.936749 0
M  V30 13457 N 1268.21 -0.0283989 1.57574 0
M  V30 13458 C 1269.44 -0.730831 1.93563 0
M  V30 13459 C 1269.85 -1.68857 0.844556 0
M  V30 13460 O 1269.21 -1.8162 -0.178971 0
M  V30 13461 C 1269.26 -1.48731 3.29486 0
M  V30 13462 O 1268.98 -0.568017 4.34402 0
M  V30 13463 C 1270.48 -2.28684 3.79761 0
M  V30 13464 H 1267.7 -0.205346 0.638807 0
M  V30 13465 H 1270.25 0.0142728 2.04495 0
M  V30 13466 H 1268.4 -2.18429 3.19949 0
M  V30 13467 H 1268.82 -1.09861 5.12865 0
M  V30 13468 H 1270.29 -2.77157 4.77376 0
M  V30 13469 H 1270.77 -3.10133 3.10989 0
M  V30 13470 H 1271.37 -1.64059 3.92383 0
M  V30 13471 N 1269.69 -1.54705 -0.300681 0
M  V30 13472 C 1271.1 -1.45926 -0.646359 0
M  V30 13473 C 1271.3 -0.65072 -1.90704 0
M  V30 13474 O 1270.36 -0.158547 -2.52002 0
M  V30 13475 C 1271.67 -2.89889 -0.799059 0
M  V30 13476 C 1273.22 -2.99934 -0.894923 0
M  V30 13477 C 1273.7 -4.45093 -1.07962 0
M  V30 13478 N 1275.19 -4.48804 -1.14581 0
M  V30 13479 C 1275.92 -5.58305 -1.30702 0
M  V30 13480 N 1275.42 -6.77729 -1.43719 0
M  V30 13481 N 1277.21 -5.45994 -1.33593 0
M  V30 13482 H 1269.36 -2.05742 0.527617 0
M  V30 13483 H 1271.62 -0.931817 0.174415 0
M  V30 13484 H 1271.33 -3.51655 0.0563954 0
M  V30 13485 H 1271.2 -3.37325 -1.68796 0
M  V30 13486 H 1273.59 -2.38281 -1.74086 0
M  V30 13487 H 1273.67 -2.55794 0.0179973 0
M  V30 13488 H 1273.32 -5.0734 -0.238444 0
M  V30 13489 H 1273.25 -4.86864 -2.00677 0
M  V30 13490 H 1275.74 -3.62766 -1.05874 0
M  V30 13491 H 1276.05 -7.56937 -1.55776 0
M  V30 13492 H 1274.4 -6.80594 -1.40774 0
M  V30 13493 H 1277.59 -4.51641 -1.23035 0
M  V30 13494 H 1277.76 -6.31381 -1.45813 0
M  V30 13495 N 1271.17 0.563888 -1.47167 0
M  V30 13496 C 1272.1 1.68137 -1.62025 0
M  V30 13497 C 1273.08 1.63481 -0.469899 0
M  V30 13498 O 1274.26 1.81206 -0.698432 0
M  V30 13499 C 1271.39 3.06779 -1.62801 0
M  V30 13500 C 1270.35 3.26278 -2.76996 0
M  V30 13501 C 1269.67 4.65638 -2.62841 0
M  V30 13502 C 1270.97 3.12295 -4.18651 0
M  V30 13503 H 1272.67 1.55958 -2.55573 0
M  V30 13504 H 1270.21 0.74887 -1.22996 0
M  V30 13505 H 1272.17 3.84795 -1.71787 0
M  V30 13506 H 1270.89 3.19901 -0.658097 0
M  V30 13507 H 1269.55 2.50668 -2.67509 0
M  V30 13508 H 1269.2 4.75551 -1.63892 0
M  V30 13509 H 1268.9 4.79635 -3.39447 0
M  V30 13510 H 1270.42 5.45798 -2.73746 0
M  V30 13511 H 1271.83 3.80136 -4.2915 0
M  V30 13512 H 1270.23 3.37805 -4.95992 0
M  V30 13513 H 1271.3 2.09126 -4.37486 0
M  V30 13514 N 1272.64 1.35187 0.810078 0
M  V30 13515 C 1273.61 1.27698 1.90331 0
M  V30 13516 C 1274.61 0.189216 1.59683 0
M  V30 13517 O 1275.8 0.442689 1.68481 0
M  V30 13518 C 1272.93 0.974631 3.26671 0
M  V30 13519 H 1274.12 2.24902 1.98392 0
M  V30 13520 H 1271.68 1.1966 1.00554 0
M  V30 13521 H 1272.41 0.0063068 3.24299 0
M  V30 13522 H 1272.2 1.76158 3.50301 0
M  V30 13523 H 1273.69 0.947743 4.06703 0
M  V30 13524 N 1274.12 -1.03182 1.19127 0
M  V30 13525 C 1275.35 -1.80165 1.01726 0
M  V30 13526 C 1275.77 -1.83742 -0.434095 0
M  V30 13527 O 1275.12 -1.27932 -1.30152 0
M  V30 13528 C 1275.17 -3.25354 1.57566 0
M  V30 13529 O 1274.89 -3.22042 2.9702 0
M  V30 13530 C 1276.4 -4.18948 1.44906 0
M  V30 13531 H 1273.62 -0.567078 0.358698 0
M  V30 13532 H 1276.16 -1.29982 1.57877 0
M  V30 13533 H 1274.31 -3.72738 1.0557 0
M  V30 13534 H 1274.73 -4.13061 3.23235 0
M  V30 13535 H 1276.2 -5.18723 1.88762 0
M  V30 13536 H 1276.68 -4.37383 0.399125 0
M  V30 13537 H 1277.29 -3.77435 1.96018 0
M  V30 13538 N 1275.6 -0.99472 -1.22242 0
M  V30 13539 C 1276.88 -0.587481 -1.86569 0
M  V30 13540 C 1277.26 0.935174 -1.89256 0
M  V30 13541 O 1276.61 1.81787 -1.3844 0
M  V30 13542 C 1276.82 -1.21001 -3.27353 0
M  V30 13543 C 1278.16 -1.31167 -4.03832 0
M  V30 13544 O 1279.19 -1.16454 -3.36626 0
M  V30 13545 O 1278.05 -1.54731 -5.24138 0
M  V30 13546 H 1275.14 -0.199838 -0.802492 0
M  V30 13547 H 1277.69 -1.09071 -1.30006 0
M  V30 13548 H 1276.46 -2.25143 -3.20041 0
M  V30 13549 H 1276.08 -0.692479 -3.91523 0
M  V30 13550 N 1277.08 1.37613 -0.768148 0
M  V30 13551 C 1278.04 2.28653 -0.158283 0
M  V30 13552 C 1279.04 1.47862 0.631936 0
M  V30 13553 O 1280.23 1.68124 0.456055 0
M  V30 13554 C 1277.36 3.31776 0.783435 0
M  V30 13555 H 1278.56 2.84094 -0.960772 0
M  V30 13556 H 1276.11 1.46818 -0.536116 0
M  V30 13557 H 1276.84 2.81452 1.61106 0
M  V30 13558 H 1276.63 3.91488 0.219016 0
M  V30 13559 H 1278.12 3.99816 1.20568 0
M  V30 13560 N 1278.56 0.518393 1.4883 0
M  V30 13561 C 1279.78 -0.0183131 2.07392 0
M  V30 13562 C 1280.21 -1.28468 1.37396 0
M  V30 13563 O 1279.56 -1.75975 0.436177 0
M  V30 13564 C 1279.61 -0.237211 3.59819 0
M  V30 13565 O 1278.72 -1.30835 3.91096 0
M  V30 13566 H 1278.06 0.0339621 0.663131 0
M  V30 13567 H 1280.59 0.722993 1.914 0
M  V30 13568 H 1280.6 -0.463424 4.0536 0
M  V30 13569 H 1279.27 0.687925 4.10171 0
M  V30 13570 H 1277.85 -1.06571 3.57347 0
M  V30 13571 N 1280.03 -1.55556 0.252993 0
M  V30 13572 C 1280.97 -2.18978 -0.676837 0
M  V30 13573 C 1281.98 -1.16788 -1.13421 0
M  V30 13574 O 1283.17 -1.43623 -1.05993 0
M  V30 13575 C 1280.27 -2.78404 -1.93248 0
M  V30 13576 C 1279.44 -4.06072 -1.62555 0
M  V30 13577 C 1278.5 -4.49757 -2.7314 0
M  V30 13578 O 1277.53 -5.16005 -2.40266 0
M  V30 13579 N 1278.73 -4.18049 -4.0276 0
M  V30 13580 H 1281.49 -2.994 -0.134142 0
M  V30 13581 H 1279.05 -1.61734 0.0731965 0
M  V30 13582 H 1281.05 -3.04583 -2.6648 0
M  V30 13583 H 1279.62 -2.02104 -2.3848 0
M  V30 13584 H 1278.84 -3.87417 -0.728115 0
M  V30 13585 H 1280.12 -4.89297 -1.39521 0
M  V30 13586 H 1279.52 -3.64876 -4.32298 0
M  V30 13587 H 1278.08 -4.4905 -4.72438 0
M  V30 13588 N 1281.51 0.0200419 -1.57587 0
M  V30 13589 C 1282.76 0.710078 -1.89962 0
M  V30 13590 C 1283.09 1.74521 -0.851829 0
M  V30 13591 O 1282.37 1.94052 0.132005 0
M  V30 13592 C 1282.65 1.37145 -3.32961 0
M  V30 13593 C 1282.5 0.349221 -4.48442 0
M  V30 13594 C 1283.82 2.30304 -3.75031 0
M  V30 13595 H 1280.94 0.25667 -0.690862 0
M  V30 13596 H 1283.58 -0.0271362 -1.89981 0
M  V30 13597 H 1281.73 1.99981 -3.33076 0
M  V30 13598 H 1283.4 -0.277916 -4.60462 0
M  V30 13599 H 1281.65 -0.330594 -4.32538 0
M  V30 13600 H 1282.32 0.850636 -5.45406 0
M  V30 13601 H 1284.79 1.77503 -3.7634 0
M  V30 13602 H 1283.67 2.73555 -4.75877 0
M  V30 13603 H 1283.93 3.17364 -3.07786 0
M  V30 13604 N 1282.99 1.54862 0.292472 0
M  V30 13605 C 1283.92 1.82786 1.38282 0
M  V30 13606 C 1284.94 0.711253 1.46441 0
M  V30 13607 O 1286.12 0.988851 1.48607 0
M  V30 13608 C 1283.22 1.95845 2.76582 0
M  V30 13609 C 1282.4 3.2633 2.91252 0
M  V30 13610 C 1281.46 3.29697 4.10105 0
M  V30 13611 O 1280.48 4.03184 4.01785 0
M  V30 13612 N 1281.68 2.557 5.21151 0
M  V30 13613 H 1284.45 2.76891 1.1468 0
M  V30 13614 H 1282.01 1.54541 0.482561 0
M  V30 13615 H 1284 1.95491 3.54352 0
M  V30 13616 H 1282.57 1.08696 2.93094 0
M  V30 13617 H 1281.79 3.39387 2.00525 0
M  V30 13618 H 1283.08 4.12421 2.9797 0
M  V30 13619 H 1282.48 1.95642 5.30792 0
M  V30 13620 H 1281.04 2.61089 5.97223 0
M  V30 13621 N 1284.47 -0.556076 1.47464 0
M  V30 13622 C 1285.72 -1.31061 1.53842 0
M  V30 13623 C 1286.04 -1.93943 0.202806 0
M  V30 13624 O 1285.31 -1.7999 -0.773338 0
M  V30 13625 H 1283.89 -0.486696 0.566689 0
M  V30 13626 H 1286.55 -0.64924 1.83769 0
M  V30 13627 H 1285.65 -2.10354 2.30559 0
M  V30 13628 N 1285.95 -1.35615 -0.802897 0
M  V30 13629 C 1286.91 -1.28705 -1.89651 0
M  V30 13630 C 1287.91 -0.197681 -1.5958 0
M  V30 13631 O 1289.1 -0.451618 -1.68244 0
M  V30 13632 C 1286.23 -0.991941 -3.26149 0
M  V30 13633 H 1287.43 -2.25951 -1.97196 0
M  V30 13634 H 1284.98 -1.20192 -0.999179 0
M  V30 13635 H 1285.71 -0.0235051 -3.24291 0
M  V30 13636 H 1285.5 -1.78013 -3.49362 0
M  V30 13637 H 1286.99 -0.969298 -4.06195 0
M  V30 13638 N 1287.43 1.02549 -1.19673 0
M  V30 13639 C 1288.39 2.09064 -0.939407 0
M  V30 13640 C 1289.39 1.60593 0.0814837 0
M  V30 13641 O 1290.58 1.73521 -0.153626 0
M  V30 13642 C 1287.71 3.38395 -0.412513 0
M  V30 13643 H 1288.9 2.33325 -1.88413 0
M  V30 13644 H 1286.46 1.19211 -1.01086 0
M  V30 13645 H 1287.19 3.19805 0.538094 0
M  V30 13646 H 1286.98 3.74898 -1.14863 0
M  V30 13647 H 1288.47 4.16841 -0.251678 0
M  V30 13648 N 1288.9 1.00119 1.21713 0
M  V30 13649 C 1290.15 0.680377 1.90303 0
M  V30 13650 C 1290.47 -0.790927 1.7824 0
M  V30 13651 O 1289.74 -1.5676 1.17486 0
M  V30 13652 H 1288.32 0.248665 0.704397 0
M  V30 13653 H 1290.98 1.26948 1.47886 0
M  V30 13654 H 1290.08 0.950188 2.97284 0
M  V30 13655 N 1290.38 -1.37203 0.775435 0
M  V30 13656 C 1291.61 -2.04396 0.351737 0
M  V30 13657 C 1292.03 -1.58099 -1.01913 0
M  V30 13658 O 1291.39 -0.742932 -1.65379 0
M  V30 13659 C 1291.44 -3.58283 0.408105 0
M  V30 13660 O 1290.54 -4.08156 -0.590104 0
M  V30 13661 H 1289.88 -0.646451 0.151647 0
M  V30 13662 H 1292.41 -1.75443 1.05265 0
M  V30 13663 H 1292.42 -4.07127 0.266711 0
M  V30 13664 H 1291.1 -3.91335 1.40819 0
M  V30 13665 H 1289.67 -3.70622 -0.411524 0
M  V30 13666 N 1291.86 -0.526279 -1.48553 0
M  V30 13667 C 1292.79 0.275579 -2.27537 0
M  V30 13668 C 1293.8 0.90782 -1.35139 0
M  V30 13669 O 1294.99 0.786887 -1.6022 0
M  V30 13670 C 1292.09 1.40515 -3.08397 0
M  V30 13671 C 1291.27 0.875523 -4.28548 0
M  V30 13672 C 1290.33 1.88577 -4.91249 0
M  V30 13673 O 1289.35 1.44419 -5.50574 0
M  V30 13674 N 1290.55 3.21774 -4.83158 0
M  V30 13675 H 1293.32 -0.401803 -2.96994 0
M  V30 13676 H 1290.88 -0.360378 -1.57838 0
M  V30 13677 H 1292.87 2.07907 -3.47213 0
M  V30 13678 H 1291.44 1.98626 -2.41384 0
M  V30 13679 H 1290.66 0.025728 -3.94192 0
M  V30 13680 H 1291.95 0.500493 -5.06332 0
M  V30 13681 H 1291.35 3.60319 -4.36104 0
M  V30 13682 H 1289.9 3.84808 -5.26085 0
M  V30 13683 N 1293.34 1.5542 -0.261239 0
M  V30 13684 C 1294.59 1.9846 0.360052 0
M  V30 13685 C 1294.9 1.15288 1.58013 0
M  V30 13686 O 1296.11 1.48408 2.27348 0
M  V30 13687 C 1294.56 3.53185 0.691964 0
M  V30 13688 C 1294.17 4.45116 -0.507521 0
M  V30 13689 C 1295.91 4.04848 1.27665 0
M  V30 13690 C 1293.82 5.91207 -0.150966 0
M  V30 13691 H 1292.75 0.741207 0.138303 0
M  V30 13692 H 1295.4 1.79859 -0.363712 0
M  V30 13693 H 1293.78 3.67535 1.47425 0
M  V30 13694 H 1294.96 4.42531 -1.28465 0
M  V30 13695 H 1293.27 4.04013 -1.0081 0
M  V30 13696 H 1295.87 5.11529 1.55699 0
M  V30 13697 H 1296.21 3.5305 2.20593 0
M  V30 13698 H 1296.75 3.93882 0.556955 0
M  V30 13699 H 1293.48 6.47072 -1.04776 0
M  V30 13700 H 1293 5.96894 0.589671 0
M  V30 13701 H 1294.68 6.4647 0.261772 0
M  V30 13702 N 1294.82 -0.0116844 1.57596 0
M  V30 13703 C 1296.06 -0.697577 1.89679 0
M  V30 13704 C 1296.38 -1.74956 0.861122 0
M  V30 13705 O 1295.65 -1.95629 -0.103031 0
M  V30 13706 H 1294.23 -0.26064 0.700054 0
M  V30 13707 H 1296.9 0.0264782 1.94882 0
M  V30 13708 H 1295.99 -1.17621 2.89088 0
M  V30 13709 N 1296.29 -1.55015 -0.284256 0
M  V30 13710 C 1297.23 -1.82031 -1.37623 0
M  V30 13711 C 1298.2 -0.672564 -1.48038 0
M  V30 13712 O 1299.39 -0.914349 -1.64839 0
M  V30 13713 C 1296.52 -1.97193 -2.75377 0
M  V30 13714 C 1295.56 -3.19699 -2.82303 0
M  V30 13715 S 1296.39 -4.77348 -2.42691 0
M  V30 13716 C 1297.55 -4.95468 -3.82442 0
M  V30 13717 H 1297.78 -2.74366 -1.14502 0
M  V30 13718 H 1295.32 -1.46642 -0.483283 0
M  V30 13719 H 1297.27 -2.06614 -3.54713 0
M  V30 13720 H 1295.94 -1.05766 -2.95757 0
M  V30 13721 H 1295.13 -3.27161 -3.83382 0
M  V30 13722 H 1294.73 -3.08811 -2.10978 0
M  V30 13723 H 1297.02 -4.80519 -4.77606 0
M  V30 13724 H 1297.97 -5.97538 -3.7994 0
M  V30 13725 H 1298.37 -4.23516 -3.73222 0
M  V30 13726 N 1297.77 0.548248 -1.47757 0
M  V30 13727 C 1299.02 1.30139 -1.54099 0
M  V30 13728 C 1299.33 1.9445 -0.2118 0
M  V30 13729 O 1300.54 2.71067 -0.153302 0
M  V30 13730 C 1299 2.36039 -2.71687 0
M  V30 13731 C 1298.6 1.77879 -4.11173 0
M  V30 13732 C 1300.35 3.12478 -2.87329 0
M  V30 13733 C 1298.25 2.81611 -5.20047 0
M  V30 13734 H 1297.18 0.489364 -0.573619 0
M  V30 13735 H 1299.84 0.581237 -1.74051 0
M  V30 13736 H 1298.22 3.11008 -2.45132 0
M  V30 13737 H 1299.39 1.09221 -4.47669 0
M  V30 13738 H 1297.71 1.13994 -4.00493 0
M  V30 13739 H 1300.3 3.89958 -3.65837 0
M  V30 13740 H 1300.65 3.67218 -1.96103 0
M  V30 13741 H 1301.18 2.4462 -3.13697 0
M  V30 13742 H 1297.92 2.31714 -6.13179 0
M  V30 13743 H 1297.44 3.48652 -4.88059 0
M  V30 13744 H 1299.12 3.44938 -5.47382 0
M  V30 13745 N 1299.25 1.36039 0.795694 0
M  V30 13746 C 1300.5 1.30112 1.5556 0
M  V30 13747 C 1300.83 -0.121197 1.93821 0
M  V30 13748 O 1300.1 -1.07313 1.62216 0
M  V30 13749 C 1300.39 2.21792 2.8369 0
M  V30 13750 C 1300.24 3.72691 2.51836 0
M  V30 13751 C 1301.56 2.12365 3.85472 0
M  V30 13752 H 1298.68 0.473971 0.564376 0
M  V30 13753 H 1301.32 1.66536 0.91465 0
M  V30 13754 H 1299.47 1.9086 3.38386 0
M  V30 13755 H 1301.14 4.14115 2.0324 0
M  V30 13756 H 1299.38 3.92436 1.84869 0
M  V30 13757 H 1300.06 4.32242 3.43323 0
M  V30 13758 H 1302.53 2.3958 3.40207 0
M  V30 13759 H 1301.41 2.78695 4.72885 0
M  V30 13760 H 1301.67 1.10898 4.27965 0
M  V30 13761 N 1300.73 -1.01913 1.20215 0
M  V30 13762 C 1301.68 -2.12516 0.945493 0
M  V30 13763 C 1302.67 -1.69091 -0.102243 0
M  V30 13764 O 1303.88 -1.79936 0.047888 0
M  V30 13765 H 1300.25 -0.694496 0.288409 0
M  V30 13766 H 1302.22 -2.31349 1.88468 0
M  V30 13767 C 1300.97 -3.43919 0.51137 0
M  V30 13768 H 1300.29 -3.77758 1.30916 0
M  V30 13769 H 1301.73 -4.22374 0.370981 0
M  V30 13770 C 1300.19 -3.27844 -0.775902 0
M  V30 13771 O 1300.72 -3.5734 -1.83496 0
M  V30 13772 N 1298.93 -2.81101 -0.73694 0
M  V30 13773 H 1298.48 -2.57296 0.125164 0
M  V30 13774 H 1298.43 -2.70726 -1.59859 0
M  V30 13775 N 1302.21 -1.00763 -1.2118 0
M  V30 13776 C 1303.43 -0.710515 -1.9485 0
M  V30 13777 C 1303.86 0.720934 -1.73736 0
M  V30 13778 O 1303.21 1.49484 -1.02588 0
M  V30 13779 C 1303.26 -1.04035 -3.45267 0
M  V30 13780 O 1302.37 -0.147047 -4.12138 0
M  V30 13781 H 1301.71 -0.264472 -0.609057 0
M  V30 13782 H 1304.24 -1.34858 -1.53865 0
M  V30 13783 H 1304.25 -0.9883 -3.95849 0
M  V30 13784 H 1302.92 -2.08334 -3.59958 0
M  V30 13785 H 1301.5 -0.255847 -3.72021 0
M  V30 13786 N 1303.68 1.3679 -0.7827 0
M  V30 13787 C 1304.93 1.99417 -0.352011 0
M  V30 13788 C 1305.26 1.62127 1.07448 0
M  V30 13789 O 1304.51 0.864449 1.75573 0
M  V30 13790 C 1304.81 3.54489 -0.455232 0
M  V30 13791 C 1304.48 4.11579 -1.84156 0
M  V30 13792 C 1303.14 4.26884 -2.22089 0
M  V30 13793 C 1305.49 4.4277 -2.74962 0
M  V30 13794 C 1302.82 4.70688 -3.50243 0
M  V30 13795 C 1305.17 4.88003 -4.02537 0
M  V30 13796 C 1303.84 5.01513 -4.40501 0
M  V30 13797 H 1303.11 0.729718 -0.12881 0
M  V30 13798 H 1305.75 1.63386 -0.998856 0
M  V30 13799 H 1304.06 3.90833 0.275129 0
M  V30 13800 H 1305.76 4.00867 -0.103127 0
M  V30 13801 H 1302.35 4.00102 -1.53677 0
M  V30 13802 H 1306.53 4.30521 -2.46912 0
M  V30 13803 H 1301.79 4.79335 -3.79537 0
M  V30 13804 H 1305.96 5.11102 -4.73019 0
M  V30 13805 H 1303.59 5.35214 -5.39861 0
M  V30 13806 N 1305.16 0.53415 1.48272 0
M  V30 13807 C 1306.39 0.00574475 2.06899 0
M  V30 13808 C 1306.81 -1.27754 1.39012 0
M  V30 13809 O 1306.16 -1.76102 0.478993 0
M  V30 13810 C 1306.21 -0.217576 3.60845 0
M  V30 13811 O 1305.93 1.01487 4.26183 0
M  V30 13812 C 1307.44 -0.785888 4.36278 0
M  V30 13813 H 1304.66 0.0353967 0.670066 0
M  V30 13814 H 1307.2 0.740984 1.90603 0
M  V30 13815 H 1305.35 -0.902875 3.76732 0
M  V30 13816 H 1305.77 0.7982 5.18391 0
M  V30 13817 H 1307.24 -0.891551 5.44753 0
M  V30 13818 H 1307.72 -1.79178 4.00989 0
M  V30 13819 H 1308.33 -0.137022 4.25079 0
M  V30 13820 N 1306.64 -1.55279 0.269478 0
M  V30 13821 C 1307.59 -2.23723 -0.636468 0
M  V30 13822 C 1308.58 -1.23234 -1.16232 0
M  V30 13823 O 1309.79 -1.41181 -1.1166 0
M  V30 13824 H 1306.16 -0.71793 -0.223788 0
M  V30 13825 H 1308.13 -2.98378 -0.0363057 0
M  V30 13826 C 1306.88 -2.96755 -1.81195 0
M  V30 13827 H 1306.21 -3.73865 -1.4165 0
M  V30 13828 H 1307.65 -3.47975 -2.42258 0
M  V30 13829 C 1306.11 -2.01905 -2.69696 0
M  V30 13830 O 1306.64 -1.56662 -3.69892 0
M  V30 13831 N 1304.84 -1.68524 -2.36744 0
M  V30 13832 H 1304.39 -2.05512 -1.55314 0
M  V30 13833 H 1304.35 -1.05331 -2.96231 0
M  V30 13834 N 1308.12 0.00332656 -1.576 0
M  V30 13835 C 1309.36 0.68989 -1.90705 0
M  V30 13836 C 1309.7 1.73608 -0.870291 0
M  V30 13837 O 1308.97 1.94181 0.111416 0
M  V30 13838 C 1309.26 1.33605 -3.34397 0
M  V30 13839 C 1309.11 0.301638 -4.48787 0
M  V30 13840 C 1310.43 2.26313 -3.77453 0
M  V30 13841 H 1307.55 0.249328 -0.693545 0
M  V30 13842 H 1310.19 -0.0472847 -1.89941 0
M  V30 13843 H 1308.34 1.96437 -3.35179 0
M  V30 13844 H 1310.01 -0.326738 -4.60141 0
M  V30 13845 H 1308.25 -0.376451 -4.32163 0
M  V30 13846 H 1308.92 0.792741 -5.46278 0
M  V30 13847 H 1311.4 1.73502 -3.78201 0
M  V30 13848 H 1310.28 2.68492 -4.78752 0
M  V30 13849 H 1310.54 3.14082 -3.11135 0
M  V30 13850 N 1309.6 1.55164 0.276031 0
M  V30 13851 C 1310.82 1.79649 1.02635 0
M  V30 13852 C 1311.24 0.568289 1.80044 0
M  V30 13853 O 1310.6 -0.462569 1.7654 0
M  V30 13854 C 1310.65 3.01974 1.98731 0
M  V30 13855 O 1310.37 4.2005 1.24459 0
M  V30 13856 C 1311.87 3.39039 2.856 0
M  V30 13857 H 1309.09 0.598529 0.303321 0
M  V30 13858 H 1311.63 2.02171 0.307733 0
M  V30 13859 H 1309.79 2.81586 2.6606 0
M  V30 13860 H 1310.2 4.89185 1.89205 0
M  V30 13861 H 1311.68 4.27809 3.48831 0
M  V30 13862 H 1312.15 2.58306 3.55211 0
M  V30 13863 H 1312.76 3.61674 2.23767 0
M  V30 13864 N 1311.07 -0.540404 1.48045 0
M  V30 13865 C 1312.32 -1.2987 1.55762 0
M  V30 13866 C 1312.65 -1.92877 0.226307 0
M  V30 13867 O 1311.93 -1.7875 -0.766727 0
M  V30 13868 C 1312.21 -2.39602 2.68817 0
M  V30 13869 C 1312.06 -1.81354 4.1162 0
M  V30 13870 C 1313.38 -3.41434 2.77688 0
M  V30 13871 H 1310.5 -0.47083 0.566999 0
M  V30 13872 H 1313.14 -0.603081 1.80175 0
M  V30 13873 H 1311.29 -2.98936 2.48132 0
M  V30 13874 H 1312.97 -1.26151 4.43716 0
M  V30 13875 H 1311.21 -1.1194 4.19108 0
M  V30 13876 H 1311.88 -2.60758 4.86528 0
M  V30 13877 H 1314.36 -2.92042 2.96396 0
M  V30 13878 H 1313.23 -4.15621 3.5854 0
M  V30 13879 H 1313.49 -4.01336 1.85422 0
M  V30 13880 N 1312.55 -1.36459 -0.788468 0
M  V30 13881 C 1313.52 -1.3071 -1.88275 0
M  V30 13882 C 1314.52 -0.214596 -1.59362 0
M  V30 13883 O 1315.71 -0.469437 -1.67756 0
M  V30 13884 C 1312.84 -1.02648 -3.25079 0
M  V30 13885 H 1314.03 -2.28029 -1.94788 0
M  V30 13886 H 1311.58 -1.21245 -0.986375 0
M  V30 13887 H 1312.32 -0.0578992 -3.24248 0
M  V30 13888 H 1312.1 -1.81708 -3.47454 0
M  V30 13889 H 1313.59 -1.01233 -4.05144 0
M  V30 13890 N 1314.03 1.01274 -1.20754 0
M  V30 13891 C 1314.96 2.09567 -0.903157 0
M  V30 13892 C 1315.94 1.61941 0.146287 0
M  V30 13893 O 1317.13 1.8849 0.0190177 0
M  V30 13894 C 1314.25 3.36838 -0.354682 0
M  V30 13895 C 1313.3 4.03361 -1.38572 0
M  V30 13896 S 1314.13 4.46775 -2.95216 0
M  V30 13897 C 1315.29 5.77242 -2.41955 0
M  V30 13898 H 1315.52 2.35063 -1.82024 0
M  V30 13899 H 1313.05 1.14444 -1.03643 0
M  V30 13900 H 1315.01 4.10476 -0.0447882 0
M  V30 13901 H 1313.67 3.09407 0.540962 0
M  V30 13902 H 1312.87 4.94939 -0.951408 0
M  V30 13903 H 1312.47 3.35964 -1.64329 0
M  V30 13904 H 1314.76 6.52608 -1.81958 0
M  V30 13905 H 1315.7 6.25475 -3.31944 0
M  V30 13906 H 1316.11 5.3369 -1.83942 0
M  V30 13907 N 1315.51 1.01404 1.20644 0
M  V30 13908 C 1316.76 0.697244 1.89265 0
M  V30 13909 C 1317.07 -0.776149 1.79542 0
M  V30 13910 O 1318.28 -1.2054 2.43274 0
M  V30 13911 C 1316.73 1.19672 3.39421 0
M  V30 13912 C 1316.34 2.69683 3.57736 0
M  V30 13913 C 1318.09 0.955225 4.13613 0
M  V30 13914 C 1315.99 3.13124 5.01704 0
M  V30 13915 H 1314.92 0.257105 0.708811 0
M  V30 13916 H 1317.57 1.22639 1.36499 0
M  V30 13917 H 1315.96 0.595562 3.91496 0
M  V30 13918 H 1317.13 3.35326 3.16059 0
M  V30 13919 H 1315.44 2.91946 2.96911 0
M  V30 13920 H 1318.04 1.25524 5.19757 0
M  V30 13921 H 1318.38 -0.108362 4.16159 0
M  V30 13922 H 1318.92 1.51962 3.67631 0
M  V30 13923 H 1315.66 4.18748 5.04311 0
M  V30 13924 H 1315.18 2.522 5.44201 0
M  V30 13925 H 1316.86 3.05617 5.70269 0
M  V30 13926 N 1316.99 -1.36373 0.789944 0
M  V30 13927 C 1318.24 -1.98476 0.359165 0
M  V30 13928 C 1318.55 -1.634 -1.07517 0
M  V30 13929 O 1319.76 -2.18742 -1.60824 0
M  V30 13930 C 1318.21 -3.55011 0.591228 0
M  V30 13931 C 1317.82 -3.99011 2.03701 0
M  V30 13932 C 1319.56 -4.23903 0.224979 0
M  V30 13933 C 1317.47 -5.48325 2.2157 0
M  V30 13934 H 1316.4 -0.742612 0.130552 0
M  V30 13935 H 1319.05 -1.55664 0.971652 0
M  V30 13936 H 1317.43 -3.95895 -0.0909788 0
M  V30 13937 H 1318.61 -3.69324 2.75566 0
M  V30 13938 H 1316.92 -3.42957 2.36155 0
M  V30 13939 H 1319.52 -5.33638 0.336764 0
M  V30 13940 H 1319.86 -4.08004 -0.826964 0
M  V30 13941 H 1320.4 -3.88383 0.860443 0
M  V30 13942 H 1317.13 -5.69173 3.25149 0
M  V30 13943 H 1316.65 -5.79637 1.54211 0
M  V30 13944 H 1318.33 -6.14556 2.0231 0
M  V30 13945 N 1318.47 -0.542005 -1.47987 0
M  V30 13946 C 1319.43 0.203537 -2.28294 0
M  V30 13947 C 1320.43 0.856762 -1.36074 0
M  V30 13948 O 1321.62 0.71496 -1.58852 0
M  V30 13949 C 1318.75 1.29581 -3.15312 0
M  V30 13950 H 1319.94 -0.501701 -2.95674 0
M  V30 13951 H 1317.5 -0.298378 -1.53426 0
M  V30 13952 H 1318.23 2.03393 -2.5259 0
M  V30 13953 H 1318.02 0.832398 -3.83163 0
M  V30 13954 H 1319.51 1.81988 -3.75859 0
M  V30 13955 N 1319.94 1.55134 -0.277709 0
M  V30 13956 C 1321.19 1.99654 0.33833 0
M  V30 13957 C 1321.52 1.16612 1.55666 0
M  V30 13958 O 1320.77 0.224428 1.94409 0
M  V30 13959 C 1321.07 3.49182 0.762028 0
M  V30 13960 C 1320.74 4.49524 -0.351958 0
M  V30 13961 C 1319.4 4.76682 -0.657833 0
M  V30 13962 C 1321.75 5.09406 -1.10247 0
M  V30 13963 C 1319.08 5.6099 -1.71776 0
M  V30 13964 C 1321.43 5.94866 -2.15214 0
M  V30 13965 C 1320.1 6.20344 -2.46434 0
M  V30 13966 H 1319.37 0.730584 0.123804 0
M  V30 13967 H 1322.01 1.87446 -0.391961 0
M  V30 13968 H 1320.32 3.58879 1.57204 0
M  V30 13969 H 1322.02 3.81037 1.24947 0
M  V30 13970 H 1318.61 4.28475 -0.103438 0
M  V30 13971 H 1322.79 4.88446 -0.879422 0
M  V30 13972 H 1318.05 5.78975 -1.96463 0
M  V30 13973 H 1322.22 6.403 -2.73842 0
M  V30 13974 H 1319.85 6.85464 -3.28699 0
M  V30 13975 N 1321.42 0.00503138 1.57599 0
M  V30 13976 C 1322.65 -0.693231 1.95471 0
M  V30 13977 C 1323.07 -1.66233 0.880246 0
M  V30 13978 O 1322.43 -1.80582 -0.161164 0
M  V30 13979 C 1322.48 -1.39696 3.32442 0
M  V30 13980 O 1321.58 -2.51154 3.27101 0
M  V30 13981 H 1320.92 -0.184015 0.637992 0
M  V30 13982 H 1323.45 0.0597194 2.04513 0
M  V30 13983 H 1323.46 -1.75924 3.68123 0
M  V30 13984 H 1322.14 -0.686438 4.10196 0
M  V30 13985 H 1320.71 -2.17216 3.03103 0
M  V30 13986 N 1322.9 -1.55308 -0.267798 0
M  V30 13987 C 1324.15 -1.76159 -0.998707 0
M  V30 13988 C 1324.47 -0.565573 -1.86095 0
M  V30 13989 O 1323.73 0.45178 -1.90414 0
M  V30 13990 C 1324.03 -3.02286 -1.90678 0
M  V30 13991 C 1323.69 -4.34594 -1.20161 0
M  V30 13992 C 1322.36 -4.70553 -1.00664 0
M  V30 13993 C 1324.71 -5.16475 -0.7002 0
M  V30 13994 C 1322.04 -5.85945 -0.297629 0
M  V30 13995 C 1324.39 -6.326 -0.00475187 0
M  V30 13996 C 1323.05 -6.67195 0.20188 0
M  V30 13997 H 1322.32 -0.644613 -0.365453 0
M  V30 13998 H 1324.97 -1.89579 -0.270545 0
M  V30 13999 H 1323.27 -2.83788 -2.70133 0
M  V30 14000 H 1324.97 -3.15615 -2.47362 0
M  V30 14001 H 1321.56 -4.06334 -1.36348 0
M  V30 14002 H 1325.75 -4.89167 -0.838435 0
M  V30 14003 H 1321 -6.11268 -0.126864 0
M  V30 14004 H 1325.18 -6.95299 0.39151 0
M  V30 14005 H 1322.8 -7.56459 0.753252 0
M  V30 14006 N 1324.38 0.532545 -1.4833 0
M  V30 14007 C 1325.6 1.31809 -1.60129 0
M  V30 14008 C 1326.03 1.86283 -0.260807 0
M  V30 14009 O 1325.39 1.6427 0.767137 0
M  V30 14010 C 1325.43 2.44661 -2.64903 0
M  V30 14011 O 1324.54 3.47622 -2.21885 0
M  V30 14012 H 1323.88 0.390492 -0.53704 0
M  V30 14013 H 1326.41 0.641068 -1.94297 0
M  V30 14014 H 1326.42 2.90883 -2.86096 0
M  V30 14015 H 1325.09 2.04373 -3.62222 0
M  V30 14016 H 1323.67 3.07536 -2.10894 0
M  V30 14017 N 1325.86 1.36875 0.78122 0
M  V30 14018 C 1327.1 1.32761 1.54097 0
M  V30 14019 C 1327.46 -0.0900914 1.92189 0
M  V30 14020 O 1326.75 -1.04655 1.60492 0
M  V30 14021 C 1326.94 2.19173 2.82309 0
M  V30 14022 C 1326.77 3.69203 2.56747 0
M  V30 14023 C 1325.54 4.38349 2.51353 0
M  V30 14024 C 1327.74 4.62283 2.25386 0
M  V30 14025 N 1325.72 5.73974 2.17776 0
M  V30 14026 C 1327.09 5.86216 2.01867 0
M  V30 14027 C 1329.15 4.50764 2.11462 0
M  V30 14028 C 1327.85 6.99923 1.65832 0
M  V30 14029 C 1329.88 5.64346 1.76825 0
M  V30 14030 C 1329.24 6.87324 1.5416 0
M  V30 14031 H 1325.34 0.541089 0.564577 0
M  V30 14032 H 1327.92 1.72006 0.912249 0
M  V30 14033 H 1326.09 1.82159 3.43034 0
M  V30 14034 H 1327.83 2.06388 3.48118 0
M  V30 14035 H 1324.58 3.91243 2.66882 0
M  V30 14036 H 1325 6.45624 2.03711 0
M  V30 14037 H 1329.65 3.56266 2.27672 0
M  V30 14038 H 1327.36 7.94364 1.4836 0
M  V30 14039 H 1330.95 5.574 1.66723 0
M  V30 14040 H 1329.83 7.73724 1.27753 0
M  V30 14041 N 1327.33 -1.00632 1.21289 0
M  V30 14042 C 1328.28 -2.09382 0.97097 0
M  V30 14043 C 1329.25 -1.65783 -0.102561 0
M  V30 14044 O 1330.44 -1.90749 0.0442886 0
M  V30 14045 C 1327.58 -3.40844 0.540314 0
M  V30 14046 C 1326.69 -3.97862 1.68314 0
M  V30 14047 C 1325.82 -5.17427 1.20178 0
M  V30 14048 C 1324.86 -5.66552 2.31702 0
M  V30 14049 N 1324 -6.77368 1.84709 0
M  V30 14050 H 1328.84 -2.29411 1.90196 0
M  V30 14051 H 1326.38 -1.12488 0.947885 0
M  V30 14052 H 1328.33 -4.16313 0.271881 0
M  V30 14053 H 1326.96 -3.20857 -0.353677 0
M  V30 14054 H 1326.02 -3.19391 2.06624 0
M  V30 14055 H 1327.33 -4.30314 2.52252 0
M  V30 14056 H 1326.48 -6.00138 0.889926 0
M  V30 14057 H 1325.22 -4.86566 0.332422 0
M  V30 14058 H 1324.23 -4.82438 2.63691 0
M  V30 14059 H 1325.45 -5.99443 3.19131 0
M  V30 14060 H 1323.4 -6.48315 1.00116 0
M  V30 14061 H 1323.31 -7.09067 2.62221 0
M  V30 14062 H 1324.58 -7.63617 1.56554 0
M  V30 14063 N 1328.81 -1.02043 -1.20104 0
M  V30 14064 C 1329.74 -0.614421 -2.25271 0
M  V30 14065 C 1330.72 0.37242 -1.65973 0
M  V30 14066 O 1331.91 0.257005 -1.92492 0
M  V30 14067 C 1329.04 0.0442085 -3.47272 0
M  V30 14068 C 1327.99 -0.864019 -4.19188 0
M  V30 14069 C 1327.32 -0.0709551 -5.34653 0
M  V30 14070 C 1328.62 -2.17385 -4.74912 0
M  V30 14071 H 1330.31 -1.49355 -2.59487 0
M  V30 14072 H 1327.86 -0.719591 -1.24731 0
M  V30 14073 H 1329.81 0.339825 -4.20028 0
M  V30 14074 H 1328.53 0.958082 -3.12231 0
M  V30 14075 H 1327.19 -1.1437 -3.48303 0
M  V30 14076 H 1326.84 0.844688 -4.95857 0
M  V30 14077 H 1326.54 -0.67583 -5.83701 0
M  V30 14078 H 1328.07 0.218118 -6.1021 0
M  V30 14079 H 1329.48 -1.94034 -5.39466 0
M  V30 14080 H 1327.88 -2.72991 -5.34412 0
M  V30 14081 H 1328.95 -2.83427 -3.93443 0
M  V30 14082 N 1330.29 1.35952 -0.797165 0
M  V30 14083 C 1331.52 2.0381 -0.38421 0
M  V30 14084 C 1331.94 1.597 0.993854 0
M  V30 14085 O 1331.3 0.769148 1.64176 0
M  V30 14086 C 1331.35 3.57589 -0.465054 0
M  V30 14087 O 1330.45 4.09043 0.525095 0
M  V30 14088 H 1329.79 0.643957 -0.161912 0
M  V30 14089 H 1332.32 1.73746 -1.08043 0
M  V30 14090 H 1332.33 4.06651 -0.331448 0
M  V30 14091 H 1331.01 3.89045 -1.47027 0
M  V30 14092 H 1329.58 3.7123 0.352509 0
M  V30 14093 N 1331.77 0.549846 1.47697 0
M  V30 14094 C 1332.7 -0.190364 2.32723 0
M  V30 14095 C 1333.68 -0.915933 1.43334 0
M  V30 14096 O 1334.86 -0.897838 1.72199 0
M  V30 14097 C 1331.99 -1.22545 3.24961 0
M  V30 14098 C 1330.95 -0.616805 4.23532 0
M  V30 14099 C 1330.27 -1.75599 5.05044 0
M  V30 14100 C 1331.57 0.424595 5.20571 0
M  V30 14101 H 1333.27 0.519461 2.94859 0
M  V30 14102 H 1330.81 0.251259 1.41791 0
M  V30 14103 H 1332.77 -1.75139 3.83281 0
M  V30 14104 H 1331.49 -1.96512 2.60865 0
M  V30 14105 H 1330.15 -0.112224 3.66428 0
M  V30 14106 H 1329.8 -2.48453 4.37356 0
M  V30 14107 H 1329.5 -1.35456 5.71774 0
M  V30 14108 H 1331.02 -2.28533 5.6622 0
M  V30 14109 H 1332.44 -0.0150025 5.73298 0
M  V30 14110 H 1330.83 0.7445 5.95464 0
M  V30 14111 H 1331.9 1.32318 4.66497 0
M  V30 14112 N 1333.25 -1.54984 0.285932 0
M  V30 14113 C 1334.49 -2.00126 -0.328223 0
M  V30 14114 C 1334.83 -1.17409 -1.54689 0
M  V30 14115 O 1334.1 -0.246806 -1.92928 0
M  V30 14116 C 1334.38 -3.53236 -0.699733 0
M  V30 14117 C 1334.24 -4.46702 0.527029 0
M  V30 14118 C 1335.56 -4.12572 -1.53206 0
M  V30 14119 H 1332.67 -0.727521 -0.117825 0
M  V30 14120 H 1335.32 -1.85848 0.395032 0
M  V30 14121 H 1333.47 -3.65534 -1.31594 0
M  V30 14122 H 1335.14 -4.46332 1.16557 0
M  V30 14123 H 1333.38 -4.17917 1.1631 0
M  V30 14124 H 1334.05 -5.51549 0.223165 0
M  V30 14125 H 1336.53 -4.03618 -1.01154 0
M  V30 14126 H 1335.4 -5.19891 -1.7608 0
M  V30 14127 H 1335.67 -3.63487 -2.51654 0
M  V30 14128 N 1334.72 -0.0133892 -1.57594 0
M  V30 14129 C 1335.97 0.667896 -1.90321 0
M  V30 14130 C 1336.29 1.74187 -0.88984 0
M  V30 14131 O 1337.49 2.47871 -1.10779 0
M  V30 14132 C 1335.95 1.23917 -3.37894 0
M  V30 14133 C 1335.56 0.199313 -4.47556 0
M  V30 14134 C 1337.3 1.89788 -3.79712 0
M  V30 14135 C 1335.21 0.781339 -5.86216 0
M  V30 14136 H 1334.14 0.253229 -0.710205 0
M  V30 14137 H 1336.79 -0.0761229 -1.83342 0
M  V30 14138 H 1335.17 2.03429 -3.39754 0
M  V30 14139 H 1336.34 -0.572196 -4.57234 0
M  V30 14140 H 1334.66 -0.359719 -4.14843 0
M  V30 14141 H 1337.26 2.34262 -4.80651 0
M  V30 14142 H 1337.6 2.73406 -3.13934 0
M  V30 14143 H 1338.13 1.16989 -3.80208 0
M  V30 14144 H 1334.87 -0.0163598 -6.55498 0
M  V30 14145 H 1334.39 1.5217 -5.80176 0
M  V30 14146 H 1336.07 1.2759 -6.34295 0
M  V30 14147 N 1336.2 1.55448 0.259558 0
M  V30 14148 C 1337.13 1.9226 1.32508 0
M  V30 14149 C 1338.11 0.786012 1.5085 0
M  V30 14150 O 1339.3 1.04526 1.6367 0
M  V30 14151 C 1336.43 2.20627 2.68218 0
M  V30 14152 C 1335.38 3.36418 2.64589 0
M  V30 14153 C 1334.71 3.50295 4.03977 0
M  V30 14154 C 1336.01 4.72452 2.2268 0
M  V30 14155 H 1337.7 2.81509 1.01945 0
M  V30 14156 H 1335.25 1.35444 0.488965 0
M  V30 14157 H 1337.2 2.44968 3.42883 0
M  V30 14158 H 1335.93 1.28191 3.00391 0
M  V30 14159 H 1334.58 3.12065 1.92382 0
M  V30 14160 H 1334.23 2.55302 4.33394 0
M  V30 14161 H 1333.93 4.28155 4.02439 0
M  V30 14162 H 1335.46 3.76944 4.8036 0
M  V30 14163 H 1336.87 4.96249 2.87071 0
M  V30 14164 H 1335.27 5.53323 2.32279 0
M  V30 14165 H 1336.34 4.70367 1.17826 0
M  V30 14166 N 1337.68 -0.524672 1.4861 0
M  V30 14167 C 1338.92 -1.29064 1.58499 0
M  V30 14168 C 1339.28 -1.90294 0.255378 0
M  V30 14169 O 1340.49 -2.6782 0.229289 0
M  V30 14170 C 1338.76 -2.34693 2.69544 0
M  V30 14171 S 1340.32 -3.20944 2.99233 0
M  V30 14172 H 1337.13 -0.438948 0.559326 0
M  V30 14173 H 1339.74 -0.597119 1.86158 0
M  V30 14174 H 1338.44 -1.88199 3.64704 0
M  V30 14175 H 1337.97 -3.08745 2.43804 0
M  V30 14176 H 1339.99 -4.34883 2.38937 0
M  V30 14177 N 1339.16 -1.37287 -0.77395 0
M  V30 14178 C 1340.41 -1.32374 -1.53243 0
M  V30 14179 C 1340.73 0.0924284 -1.9428 0
M  V30 14180 O 1339.99 1.06517 -1.64173 0
M  V30 14181 C 1340.29 -2.20667 -2.81142 0
M  V30 14182 C 1339.95 -3.68975 -2.59168 0
M  V30 14183 C 1338.62 -4.09394 -2.52884 0
M  V30 14184 C 1340.97 -4.62941 -2.39447 0
M  V30 14185 C 1338.3 -5.41897 -2.24865 0
M  V30 14186 C 1340.65 -5.9568 -2.12952 0
M  V30 14187 C 1339.31 -6.35205 -2.05111 0
M  V30 14188 H 1338.58 -0.48439 -0.560756 0
M  V30 14189 H 1341.23 -1.69475 -0.891663 0
M  V30 14190 H 1339.53 -1.76553 -3.49766 0
M  V30 14191 H 1341.23 -2.1418 -3.3901 0
M  V30 14192 H 1337.82 -3.36919 -2.64922 0
M  V30 14193 H 1342 -4.32576 -2.43293 0
M  V30 14194 H 1337.26 -5.71486 -2.17288 0
M  V30 14195 H 1341.43 -6.68046 -1.9669 0
M  V30 14196 H 1339.06 -7.37804 -1.83163 0
M  V30 14197 N 1340.64 0.999871 -1.21821 0
M  V30 14198 C 1341.88 1.7384 -1.03855 0
M  V30 14199 C 1342.21 1.89749 0.42727 0
M  V30 14200 O 1341.47 1.43261 1.33323 0
M  V30 14201 C 1341.77 3.1509 -1.6868 0
M  V30 14202 C 1341.43 3.19115 -3.18554 0
M  V30 14203 C 1340.09 3.19921 -3.5945 0
M  V30 14204 C 1342.45 3.15954 -4.14515 0
M  V30 14205 C 1339.77 3.15257 -4.94803 0
M  V30 14206 C 1342.13 3.12831 -5.49836 0
M  V30 14207 C 1340.79 3.11949 -5.90122 0
M  V30 14208 H 1340.06 0.636126 -0.380032 0
M  V30 14209 H 1342.71 1.17151 -1.51485 0
M  V30 14210 H 1341.01 3.75044 -1.13356 0
M  V30 14211 H 1342.71 3.70962 -1.52277 0
M  V30 14212 H 1339.3 3.19234 -2.85986 0
M  V30 14213 H 1343.48 3.14487 -3.83942 0
M  V30 14214 H 1338.74 3.12915 -5.25256 0
M  V30 14215 H 1342.91 3.09339 -6.23925 0
M  V30 14216 H 1340.54 3.0809 -6.94971 0
M  V30 14217 N 1342.11 1.02678 1.19562 0
M  V30 14218 C 1343.53 0.752027 1.70884 0
M  V30 14219 C 1343.88 -0.728523 1.82173 0
M  V30 14220 O 1343 -1.56799 1.49141 0
M  V30 14221 C 1343.6 1.35848 3.10372 0
M  V30 14222 C 1342.16 1.13236 3.58963 0
M  V30 14223 C 1341.3 1.45785 2.35886 0
M  V30 14224 H 1344.25 1.19497 1.04432 0
M  V30 14225 H 1344.27 0.754347 3.72948 0
M  V30 14226 H 1343.79 2.43604 3.02124 0
M  V30 14227 H 1341.89 0.0729271 3.72529 0
M  V30 14228 H 1342 1.81959 4.43202 0
M  V30 14229 H 1340.36 0.877125 2.3912 0
M  V30 14230 H 1341.15 2.54619 2.30269 0
M  V30 14231 N 1343.59 -1.35528 0.804364 0
M  V30 14232 C 1344.84 -1.98832 0.383692 0
M  V30 14233 C 1345.17 -1.63816 -1.04855 0
M  V30 14234 O 1344.42 -0.892272 -1.74175 0
M  V30 14235 C 1344.72 -3.5372 0.511571 0
M  V30 14236 C 1344.39 -4.08597 1.9068 0
M  V30 14237 C 1343.05 -4.23297 2.28852 0
M  V30 14238 C 1345.4 -4.3834 2.81971 0
M  V30 14239 C 1342.73 -4.65056 3.57687 0
M  V30 14240 C 1345.08 -4.81537 4.1025 0
M  V30 14241 C 1343.75 -4.94442 4.48423 0
M  V30 14242 H 1343.02 -0.727577 0.140403 0
M  V30 14243 H 1345.66 -1.61777 1.02472 0
M  V30 14244 H 1343.97 -3.91221 -0.212916 0
M  V30 14245 H 1345.66 -4.00653 0.166888 0
M  V30 14246 H 1342.25 -3.97606 1.60023 0
M  V30 14247 H 1346.44 -4.26538 2.5373 0
M  V30 14248 H 1341.69 -4.73236 3.87115 0
M  V30 14249 H 1345.87 -5.03512 4.81091 0
M  V30 14250 H 1343.5 -5.26558 5.48307 0
M  V30 14251 N 1345.07 -0.557671 -1.47404 0
M  V30 14252 C 1346 0.178019 -2.3282 0
M  V30 14253 C 1346.98 0.908318 -1.43818 0
M  V30 14254 O 1348.17 0.888693 -1.72673 0
M  V30 14255 C 1345.3 1.2082 -3.25607 0
M  V30 14256 C 1344.25 0.594335 -4.23853 0
M  V30 14257 C 1343.58 1.72919 -5.05968 0
M  V30 14258 C 1344.88 -0.452196 -5.20339 0
M  V30 14259 H 1346.57 -0.535091 -2.9458 0
M  V30 14260 H 1344.12 -0.258775 -1.41656 0
M  V30 14261 H 1346.07 1.73104 -3.84204 0
M  V30 14262 H 1344.79 1.95126 -2.61903 0
M  V30 14263 H 1343.45 0.0927898 -3.66483 0
M  V30 14264 H 1343.1 2.4613 -4.38668 0
M  V30 14265 H 1342.8 1.32422 -5.72484 0
M  V30 14266 H 1344.33 2.25527 -5.67424 0
M  V30 14267 H 1345.74 -0.0154011 -5.73298 0
M  V30 14268 H 1344.14 -0.776068 -5.95061 0
M  V30 14269 H 1345.21 -1.34791 -4.65789 0
M  V30 14270 N 1346.55 1.54831 -0.294147 0
M  V30 14271 C 1347.51 2.21946 0.572061 0
M  V30 14272 C 1348.51 1.20331 1.06663 0
M  V30 14273 O 1349.7 1.45112 0.963757 0
M  V30 14274 C 1346.83 2.90044 1.7913 0
M  V30 14275 H 1348.03 2.99897 -0.0142234 0
M  V30 14276 H 1345.58 1.56235 -0.0449187 0
M  V30 14277 H 1346.32 2.16154 2.4176 0
M  V30 14278 H 1346.1 3.64527 1.44439 0
M  V30 14279 H 1347.59 3.41263 2.40684 0
M  V30 14280 N 1348.03 0.0217466 1.57585 0
M  V30 14281 C 1348.96 -0.961069 2.12804 0
M  V30 14282 C 1349.94 -1.3442 1.04237 0
M  V30 14283 O 1351.12 -1.42412 1.32032 0
M  V30 14284 C 1348.25 -2.24586 2.64912 0
M  V30 14285 C 1347.21 -2.0037 3.78201 0
M  V30 14286 C 1346.53 -3.35051 4.16708 0
M  V30 14287 C 1347.83 -1.34879 5.04584 0
M  V30 14288 H 1349.53 -0.501222 2.95175 0
M  V30 14289 H 1347.07 -0.239649 1.41992 0
M  V30 14290 H 1349.03 -2.93715 3.02175 0
M  V30 14291 H 1347.75 -2.72723 1.79693 0
M  V30 14292 H 1346.41 -1.33662 3.41365 0
M  V30 14293 H 1346.06 -3.80932 3.28481 0
M  V30 14294 H 1345.76 -3.19656 4.93045 0
M  V30 14295 H 1347.28 -4.05459 4.56547 0
M  V30 14296 H 1348.7 -1.93997 5.3948 0
M  V30 14297 H 1347.09 -1.29906 5.85871 0
M  V30 14298 H 1348.16 -0.320774 4.83838 0
M  V30 14299 N 1349.51 -1.55583 -0.251311 0
M  V30 14300 C 1350.73 -1.81597 -1.00186 0
M  V30 14301 C 1351.16 -0.598216 -1.78334 0
M  V30 14302 O 1350.51 0.452667 -1.75558 0
M  V30 14303 C 1350.56 -3.05301 -1.91895 0
M  V30 14304 O 1349.67 -2.81907 -3.01002 0
M  V30 14305 H 1349.01 -0.599578 -0.285311 0
M  V30 14306 H 1351.54 -2.02762 -0.273638 0
M  V30 14307 H 1351.55 -3.34616 -2.33444 0
M  V30 14308 H 1350.22 -3.93574 -1.34433 0
M  V30 14309 H 1348.8 -2.63747 -2.63613 0
M  V30 14310 N 1350.98 0.516783 -1.48886 0
M  V30 14311 C 1352.23 1.26936 -1.57263 0
M  V30 14312 C 1352.55 1.93337 -0.254156 0
M  V30 14313 O 1351.82 1.81977 0.725345 0
M  V30 14314 H 1350.4 0.4715 -0.579393 0
M  V30 14315 H 1353.06 0.600289 -1.85425 0
M  V30 14316 H 1352.16 2.04167 -2.36055 0
M  V30 14317 N 1352.46 1.37696 0.766659 0
M  V30 14318 C 1353.42 1.33688 1.86172 0
M  V30 14319 C 1354.42 0.239922 1.59 0
M  V30 14320 O 1355.61 0.496066 1.66988 0
M  V30 14321 C 1352.75 1.07807 3.23405 0
M  V30 14322 H 1353.94 2.311 1.91136 0
M  V30 14323 H 1351.49 1.22799 0.966961 0
M  V30 14324 H 1352.23 0.109477 3.24115 0
M  V30 14325 H 1352.01 1.87213 3.4452 0
M  V30 14326 H 1353.5 1.07665 4.03482 0
M  V30 14327 N 1353.94 -0.993397 1.22349 0
M  V30 14328 C 1355.17 -1.76838 1.07406 0
M  V30 14329 C 1355.58 -1.8503 -0.37542 0
M  V30 14330 O 1354.94 -1.32008 -1.26016 0
M  V30 14331 C 1354.99 -3.20177 1.67837 0
M  V30 14332 O 1354.71 -3.12429 3.07115 0
M  V30 14333 C 1356.21 -4.14125 1.58161 0
M  V30 14334 H 1353.43 -0.555379 0.376557 0
M  V30 14335 H 1355.98 -1.24893 1.61932 0
M  V30 14336 H 1354.13 -3.69191 1.17375 0
M  V30 14337 H 1354.55 -4.02568 3.36213 0
M  V30 14338 H 1356.02 -5.12455 2.05169 0
M  V30 14339 H 1356.5 -4.35892 0.538073 0
M  V30 14340 H 1357.1 -3.71008 2.07926 0
M  V30 14341 N 1355.42 -1.03311 -1.19015 0
M  V30 14342 C 1356.35 -0.575655 -2.21853 0
M  V30 14343 C 1357.36 0.350705 -1.58978 0
M  V30 14344 O 1358.55 0.146425 -1.77898 0
M  V30 14345 C 1355.65 0.179949 -3.38422 0
M  V30 14346 C 1354.82 -0.752403 -4.3088 0
M  V30 14347 C 1353.88 -0.0414484 -5.26184 0
M  V30 14348 O 1352.91 -0.669403 -5.6525 0
M  V30 14349 N 1354.11 1.22783 -5.67366 0
M  V30 14350 H 1356.88 -1.46013 -2.61726 0
M  V30 14351 H 1354.44 -0.912655 -1.33724 0
M  V30 14352 H 1356.43 0.66522 -3.99195 0
M  V30 14353 H 1355 0.965879 -2.97304 0
M  V30 14354 H 1354.22 -1.41768 -3.67825 0
M  V30 14355 H 1355.51 -1.38592 -4.89561 0
M  V30 14356 H 1354.91 1.75867 -5.37668 0
M  V30 14357 H 1353.46 1.65752 -6.30372 0
M  V30 14358 N 1356.9 1.35099 -0.81154 0
M  V30 14359 C 1358.12 2.0286 -0.406855 0
M  V30 14360 C 1358.54 1.61147 0.98372 0
M  V30 14361 O 1357.9 0.811398 1.6347 0
M  V30 14362 C 1357.95 3.58214 -0.486305 0
M  V30 14363 O 1357.67 3.98412 -1.82206 0
M  V30 14364 C 1359.17 4.43236 -0.0750619 0
M  V30 14365 H 1356.39 0.650482 -0.164664 0
M  V30 14366 H 1358.93 1.72616 -1.09654 0
M  V30 14367 H 1357.09 3.87089 0.155177 0
M  V30 14368 H 1357.5 4.93072 -1.78831 0
M  V30 14369 H 1358.98 5.51701 -0.181759 0
M  V30 14370 H 1359.45 4.28123 0.980169 0
M  V30 14371 H 1360.06 4.19667 -0.689894 0
M  V30 14372 N 1358.37 0.56548 1.47106 0
M  V30 14373 C 1359.79 0.225855 1.57994 0
M  V30 14374 C 1359.99 -1.27173 1.56299 0
M  V30 14375 O 1359.05 -2.05242 1.47078 0
M  V30 14376 C 1360.36 0.859829 2.88145 0
M  V30 14377 C 1361.91 0.831821 3.01744 0
M  V30 14378 C 1362.38 1.44502 4.34607 0
M  V30 14379 N 1363.87 1.40857 4.41263 0
M  V30 14380 C 1364.61 1.85258 5.42648 0
M  V30 14381 N 1364.1 2.37553 6.508 0
M  V30 14382 N 1365.9 1.76279 5.33744 0
M  V30 14383 H 1358.05 1.53837 1.46451 0
M  V30 14384 H 1360.31 0.642013 0.697512 0
M  V30 14385 H 1360.02 1.91264 2.95146 0
M  V30 14386 H 1359.89 0.357762 3.755 0
M  V30 14387 H 1362.28 -0.212319 2.94335 0
M  V30 14388 H 1362.36 1.37173 2.1591 0
M  V30 14389 H 1362 2.48827 4.42773 0
M  V30 14390 H 1361.93 0.880479 5.19187 0
M  V30 14391 H 1364.42 1.02614 3.63702 0
M  V30 14392 H 1364.74 2.69335 7.24347 0
M  V30 14393 H 1363.08 2.41569 6.51667 0
M  V30 14394 H 1366.27 1.35195 4.48152 0
M  V30 14395 H 1366.45 2.11199 6.12616 0
M  V30 14396 N 1359.85 -1.54672 0.302354 0
M  V30 14397 C 1360.79 -2.19752 -0.615175 0
M  V30 14398 C 1361.76 -1.16737 -1.13186 0
M  V30 14399 O 1362.95 -1.45385 -1.19981 0
M  V30 14400 C 1360.07 -2.84243 -1.84184 0
M  V30 14401 C 1359.12 -4.00795 -1.45827 0
M  V30 14402 S 1359.95 -5.33037 -0.513046 0
M  V30 14403 C 1361.11 -6.01011 -1.74747 0
M  V30 14404 H 1361.34 -2.97235 -0.0622917 0
M  V30 14405 H 1358.88 -1.54158 0.0864897 0
M  V30 14406 H 1360.83 -3.22025 -2.54578 0
M  V30 14407 H 1359.49 -2.06603 -2.36589 0
M  V30 14408 H 1358.69 -4.44707 -2.37175 0
M  V30 14409 H 1358.29 -3.64577 -0.83425 0
M  V30 14410 H 1360.58 -6.21901 -2.68786 0
M  V30 14411 H 1361.52 -6.95095 -1.35089 0
M  V30 14412 H 1361.93 -5.30671 -1.9248 0
M  V30 14413 N 1361.33 -0.0301034 -1.57571 0
M  V30 14414 C 1362.26 0.94977 -2.13311 0
M  V30 14415 C 1363.24 1.33865 -1.04948 0
M  V30 14416 O 1364.43 1.4171 -1.32786 0
M  V30 14417 C 1361.56 2.23178 -2.66099 0
M  V30 14418 C 1360.51 1.98362 -3.79258 0
M  V30 14419 C 1359.84 3.32836 -4.18479 0
M  V30 14420 C 1361.14 1.32201 -5.05292 0
M  V30 14421 H 1362.83 0.485562 -2.95436 0
M  V30 14422 H 1360.38 0.232116 -1.42117 0
M  V30 14423 H 1362.33 2.92108 -3.03728 0
M  V30 14424 H 1361.05 2.71766 -1.81137 0
M  V30 14425 H 1359.71 1.31849 -3.42069 0
M  V30 14426 H 1359.36 3.79185 -3.30496 0
M  V30 14427 H 1359.06 3.17037 -4.94733 0
M  V30 14428 H 1360.58 4.03032 -4.58691 0
M  V30 14429 H 1362 1.91133 -5.40501 0
M  V30 14430 H 1360.4 1.26797 -5.86551 0
M  V30 14431 H 1361.47 0.29511 -4.84001 0
M  V30 14432 N 1362.81 1.55714 0.243056 0
M  V30 14433 C 1364.04 1.81786 0.98801 0
M  V30 14434 C 1364.45 0.606352 1.78798 0
M  V30 14435 O 1363.81 -0.425018 1.77482 0
M  V30 14436 C 1363.86 3.06121 1.92281 0
M  V30 14437 O 1363.58 4.22595 1.15521 0
M  V30 14438 C 1365.08 3.45021 2.78344 0
M  V30 14439 H 1362.3 0.604829 0.290557 0
M  V30 14440 H 1364.85 2.02779 0.26478 0
M  V30 14441 H 1363 2.87167 2.60027 0
M  V30 14442 H 1363.41 4.93088 1.78786 0
M  V30 14443 H 1364.89 4.35112 3.39678 0
M  V30 14444 H 1365.37 2.65782 3.49652 0
M  V30 14445 H 1365.97 3.66339 2.16045 0
M  V30 14446 N 1364.29 -0.50888 1.49158 0
M  V30 14447 C 1365.53 -1.261 1.57934 0
M  V30 14448 C 1365.86 -1.93199 0.264405 0
M  V30 14449 O 1365.13 -1.82359 -0.715684 0
M  V30 14450 H 1363.71 -0.468421 0.581886 0
M  V30 14451 H 1366.37 -0.590447 1.85741 0
M  V30 14452 H 1365.46 -2.02913 2.37135 0
M  V30 14453 N 1365.76 -1.381 -0.759346 0
M  V30 14454 C 1367.01 -1.33992 -1.5183 0
M  V30 14455 C 1367.34 0.0718172 -1.94367 0
M  V30 14456 O 1366.59 1.0477 -1.65293 0
M  V30 14457 C 1366.89 -2.23636 -2.78786 0
M  V30 14458 C 1366.56 -3.71703 -2.5524 0
M  V30 14459 C 1365.22 -4.12053 -2.48528 0
M  V30 14460 C 1367.57 -4.65455 -2.34523 0
M  V30 14461 C 1364.9 -5.44252 -2.19105 0
M  V30 14462 C 1367.25 -5.97905 -2.06622 0
M  V30 14463 C 1365.92 -6.37345 -1.98362 0
M  V30 14464 H 1365.19 -0.490311 -0.555587 0
M  V30 14465 H 1367.83 -1.70411 -0.873637 0
M  V30 14466 H 1366.14 -1.80253 -3.47874 0
M  V30 14467 H 1367.84 -2.17764 -3.36719 0
M  V30 14468 H 1364.43 -3.3971 -2.61333 0
M  V30 14469 H 1368.61 -4.35132 -2.38691 0
M  V30 14470 H 1363.87 -5.73758 -2.11214 0
M  V30 14471 H 1368.04 -6.70095 -1.89594 0
M  V30 14472 H 1365.67 -7.39706 -1.75328 0
M  V30 14473 N 1367.24 0.986894 -1.22875 0
M  V30 14474 C 1368.21 2.0597 -1.00544 0
M  V30 14475 C 1369.21 1.60771 0.0303509 0
M  V30 14476 O 1370.4 1.72945 -0.208753 0
M  V30 14477 C 1367.53 3.36911 -0.519962 0
M  V30 14478 H 1368.72 2.27213 -1.9574 0
M  V30 14479 H 1366.27 1.15935 -1.04827 0
M  V30 14480 H 1367.01 3.21355 0.436078 0
M  V30 14481 H 1366.79 3.71054 -1.26732 0
M  V30 14482 H 1368.28 4.15829 -0.384166 0
M  V30 14483 N 1368.72 1.0394 1.18466 0
M  V30 14484 C 1369.95 0.761926 1.92897 0
M  V30 14485 C 1370.37 -0.674618 1.75586 0
M  V30 14486 O 1369.73 -1.46711 1.06515 0
M  V30 14487 C 1369.78 1.13152 3.42387 0
M  V30 14488 O 1368.88 0.256266 4.11603 0
M  V30 14489 H 1368.22 0.280527 0.601831 0
M  V30 14490 H 1370.75 1.3889 1.50235 0
M  V30 14491 H 1370.76 1.0929 3.9309 0
M  V30 14492 H 1369.44 2.17804 3.54308 0
M  V30 14493 H 1368.01 0.354392 3.71212 0
M  V30 14494 N 1370.2 -1.34667 0.818693 0
M  V30 14495 C 1371.61 -1.51436 0.503921 0
M  V30 14496 C 1371.81 -1.76468 -0.972691 0
M  V30 14497 O 1370.87 -1.81314 -1.75731 0
M  V30 14498 C 1372.18 -2.68198 1.35978 0
M  V30 14499 C 1373.73 -2.8208 1.35647 0
M  V30 14500 C 1374.21 -4.01881 2.19672 0
M  V30 14501 N 1375.7 -4.0908 2.17273 0
M  V30 14502 C 1376.43 -5.00925 2.79038 0
M  V30 14503 N 1375.93 -5.9802 3.49777 0
M  V30 14504 N 1377.72 -4.93764 2.68615 0
M  V30 14505 H 1369.87 -1.16677 1.77483 0
M  V30 14506 H 1372.14 -0.571873 0.756085 0
M  V30 14507 H 1371.84 -2.56317 2.4082 0
M  V30 14508 H 1371.72 -3.63105 1.0215 0
M  V30 14509 H 1374.1 -2.93405 0.315849 0
M  V30 14510 H 1374.18 -1.87994 1.7347 0
M  V30 14511 H 1373.83 -3.91316 3.23781 0
M  V30 14512 H 1373.76 -4.95171 1.79202 0
M  V30 14513 H 1376.25 -3.3958 1.65814 0
M  V30 14514 H 1376.56 -6.64722 3.94162 0
M  V30 14515 H 1374.91 -5.98157 3.53883 0
M  V30 14516 H 1378.1 -4.16868 2.12929 0
M  V30 14517 H 1378.27 -5.65147 3.17038 0
M  V30 14518 N 1371.68 -0.573274 -1.46804 0
M  V30 14519 C 1372.95 0.011163 -1.95597 0
M  V30 14520 C 1373.33 1.4691 -1.51594 0
M  V30 14521 O 1372.68 2.15413 -0.76221 0
M  V30 14522 C 1372.89 -0.151045 -3.48673 0
M  V30 14523 C 1374.24 -0.0139817 -4.24598 0
M  V30 14524 O 1375.26 -0.0794008 -3.56111 0
M  V30 14525 O 1374.12 0.129547 -5.46346 0
M  V30 14526 H 1371.22 0.0551258 -0.825161 0
M  V30 14527 H 1373.76 -0.640928 -1.57131 0
M  V30 14528 H 1372.53 -1.16494 -3.73557 0
M  V30 14529 H 1372.16 0.537917 -3.93944 0
M  V30 14530 N 1373.15 1.5451 -0.310553 0
M  V30 14531 C 1374.1 2.23871 0.561277 0
M  V30 14532 C 1375.07 1.22475 1.12202 0
M  V30 14533 O 1376.26 1.51121 1.16477 0
M  V30 14534 C 1373.4 2.99029 1.72267 0
M  V30 14535 C 1372.51 4.15218 1.19241 0
M  V30 14536 C 1371.64 4.77935 2.31843 0
M  V30 14537 C 1370.68 5.86251 1.75999 0
M  V30 14538 N 1369.82 6.42885 2.82212 0
M  V30 14539 H 1374.66 2.97977 -0.0367998 0
M  V30 14540 H 1372.2 1.4707 -0.0299317 0
M  V30 14541 H 1374.16 3.40842 2.40588 0
M  V30 14542 H 1372.79 2.27281 2.29223 0
M  V30 14543 H 1371.84 3.78279 0.401148 0
M  V30 14544 H 1373.15 4.93225 0.743675 0
M  V30 14545 H 1372.3 5.2265 3.08094 0
M  V30 14546 H 1371.04 3.99281 2.80047 0
M  V30 14547 H 1370.05 5.40952 0.982415 0
M  V30 14548 H 1371.27 6.66795 1.28688 0
M  V30 14549 H 1369.22 5.67109 3.29732 0
M  V30 14550 H 1369.14 7.16267 2.41864 0
M  V30 14551 H 1370.4 6.92256 3.58332 0
M  V30 14552 N 1374.63 0.0384594 1.57553 0
M  V30 14553 C 1375.57 -0.969185 2.077 0
M  V30 14554 C 1376.58 -1.2829 1.00227 0
M  V30 14555 O 1377.77 -1.24592 1.27824 0
M  V30 14556 C 1374.87 -2.29414 2.49444 0
M  V30 14557 C 1374.04 -2.16422 3.80106 0
M  V30 14558 C 1373.1 -3.31931 4.08299 0
M  V30 14559 O 1372.13 -3.08401 4.78412 0
M  V30 14560 N 1373.33 -4.56015 3.59208 0
M  V30 14561 H 1376.09 -0.541252 2.94772 0
M  V30 14562 H 1373.65 -0.148084 1.61221 0
M  V30 14563 H 1375.65 -3.05533 2.6539 0
M  V30 14564 H 1374.22 -2.63817 1.67688 0
M  V30 14565 H 1373.44 -1.24973 3.73866 0
M  V30 14566 H 1374.72 -2.04954 4.65694 0
M  V30 14567 H 1374.12 -4.78025 3.02503 0
M  V30 14568 H 1372.68 -5.29271 3.80415 0
M  V30 14569 N 1376.11 -1.55841 -0.234795 0
M  V30 14570 C 1377.07 -1.9051 -1.2743 0
M  V30 14571 C 1378.07 -0.782543 -1.40474 0
M  V30 14572 O 1379.26 -1.05043 -1.38966 0
M  V30 14573 C 1376.4 -2.14424 -2.65019 0
M  V30 14574 H 1377.59 -2.83471 -0.979003 0
M  V30 14575 H 1375.14 -1.48919 -0.47463 0
M  V30 14576 H 1375.88 -1.23972 -2.99669 0
M  V30 14577 H 1375.66 -2.96191 -2.56931 0
M  V30 14578 H 1377.15 -2.42388 -3.40056 0
M  V30 14579 N 1377.59 0.500963 -1.49426 0
M  V30 14580 C 1378.52 1.61114 -1.69011 0
M  V30 14581 C 1379.5 1.61341 -0.538813 0
M  V30 14582 O 1380.69 1.78081 -0.77466 0
M  V30 14583 C 1377.82 2.99598 -1.75666 0
M  V30 14584 C 1376.77 3.14236 -2.90585 0
M  V30 14585 C 1376.1 4.54071 -2.82354 0
M  V30 14586 C 1377.4 2.94258 -4.3152 0
M  V30 14587 H 1379.09 1.44978 -2.61957 0
M  V30 14588 H 1376.64 0.69603 -1.26061 0
M  V30 14589 H 1378.59 3.77163 -1.87953 0
M  V30 14590 H 1377.31 3.16822 -0.793186 0
M  V30 14591 H 1375.97 2.39096 -2.779 0
M  V30 14592 H 1375.62 4.68172 -1.83914 0
M  V30 14593 H 1375.32 4.64806 -3.59485 0
M  V30 14594 H 1376.84 5.33696 -2.96649 0
M  V30 14595 H 1378.26 3.61592 -4.44886 0
M  V30 14596 H 1376.65 3.16464 -5.09873 0
M  V30 14597 H 1377.72 1.90383 -4.45962 0
M  V30 14598 N 1379.07 1.38501 0.752011 0
M  V30 14599 C 1379.98 1.38094 1.8965 0
M  V30 14600 C 1380.99 0.277851 1.71767 0
M  V30 14601 O 1382.17 0.516536 1.94663 0
M  V30 14602 C 1379.23 1.2063 3.25037 0
M  V30 14603 C 1378.3 2.40758 3.55435 0
M  V30 14604 C 1377.53 2.24118 4.84362 0
M  V30 14605 O 1377.75 1.23571 5.56854 0
M  V30 14606 O 1376.69 3.12741 5.14273 0
M  V30 14607 H 1380.51 2.34532 1.92947 0
M  V30 14608 H 1378.1 1.19437 0.897504 0
M  V30 14609 H 1379.98 1.12957 4.05979 0
M  V30 14610 H 1378.65 0.272785 3.22549 0
M  V30 14611 H 1377.56 2.54006 2.74648 0
M  V30 14612 H 1378.89 3.32745 3.62686 0
M  V30 14613 N 1380.55 -0.980364 1.23396 0
M  V30 14614 C 1381.48 -2.07099 0.958403 0
M  V30 14615 C 1382.46 -1.62272 -0.1033 0
M  V30 14616 O 1383.64 -1.88475 0.0309639 0
M  V30 14617 C 1380.77 -3.35779 0.443864 0
M  V30 14618 C 1379.81 -3.99545 1.49218 0
M  V30 14619 S 1380.65 -4.3879 3.06958 0
M  V30 14620 C 1381.8 -5.70624 2.57174 0
M  V30 14621 H 1382.04 -2.30154 1.88192 0
M  V30 14622 H 1379.57 -1.11656 1.06641 0
M  V30 14623 H 1381.53 -4.10213 0.153603 0
M  V30 14624 H 1380.19 -3.10732 -0.458738 0
M  V30 14625 H 1379.38 -4.92242 1.0823 0
M  V30 14626 H 1378.98 -3.31489 1.73179 0
M  V30 14627 H 1381.27 -6.47555 1.99197 0
M  V30 14628 H 1382.22 -6.16454 3.48411 0
M  V30 14629 H 1382.63 -5.28626 1.98028 0
M  V30 14630 N 1382.02 -1.04567 -1.17913 0
M  V30 14631 C 1383.27 -0.753137 -1.88297 0
M  V30 14632 C 1383.6 0.717651 -1.80453 0
M  V30 14633 O 1382.88 1.5242 -1.20824 0
M  V30 14634 C 1383.16 -1.22626 -3.38578 0
M  V30 14635 C 1383.01 -2.75952 -3.55205 0
M  V30 14636 C 1384.33 -0.82029 -4.32388 0
M  V30 14637 H 1381.45 -0.275067 -0.683745 0
M  V30 14638 H 1384.09 -1.29856 -1.38699 0
M  V30 14639 H 1382.24 -0.762246 -3.80949 0
M  V30 14640 H 1383.92 -3.30429 -3.21892 0
M  V30 14641 H 1382.16 -3.15534 -2.97693 0
M  V30 14642 H 1382.83 -3.04116 -4.60671 0
M  V30 14643 H 1385.31 -1.21965 -3.97824 0
M  V30 14644 H 1384.18 -1.17902 -5.36088 0
M  V30 14645 H 1384.44 0.276205 -4.41236 0
M  V30 14646 N 1383.5 1.34231 -0.825823 0
M  V30 14647 C 1384.75 1.97805 -0.414456 0
M  V30 14648 C 1385.07 1.65786 1.02664 0
M  V30 14649 O 1384.34 0.950069 1.7132 0
M  V30 14650 H 1382.92 0.73173 -0.150265 0
M  V30 14651 H 1385.58 1.63819 -1.05591 0
M  V30 14652 H 1384.68 3.07466 -0.535829 0
M  V30 14653 N 1384.98 0.581051 1.46498 0
M  V30 14654 C 1385.91 -0.19094 2.28403 0
M  V30 14655 C 1386.92 -0.857039 1.38415 0
M  V30 14656 O 1388.11 -0.726881 1.6303 0
M  V30 14657 C 1385.21 -1.28972 3.134 0
M  V30 14658 C 1384.39 -0.715867 4.31502 0
M  V30 14659 C 1383.45 -1.70215 4.97909 0
M  V30 14660 O 1382.47 -1.23885 5.55555 0
M  V30 14661 N 1383.67 -3.0362 4.94768 0
M  V30 14662 H 1386.44 0.511754 2.95298 0
M  V30 14663 H 1384 0.41871 1.56392 0
M  V30 14664 H 1385.99 -1.94877 3.5469 0
M  V30 14665 H 1384.56 -1.8953 2.4859 0
M  V30 14666 H 1383.78 0.120591 3.94016 0
M  V30 14667 H 1385.07 -0.312226 5.07841 0
M  V30 14668 H 1384.47 -3.43885 4.49177 0
M  V30 14669 H 1383.02 -3.65018 5.40005 0
M  V30 14670 N 1386.46 -1.54343 0.318742 0
M  V30 14671 C 1387.71 -1.9966 -0.286146 0
M  V30 14672 C 1388.02 -1.21073 -1.53625 0
M  V30 14673 O 1389.23 -1.56744 -2.21684 0
M  V30 14674 C 1387.68 -3.5551 -0.560405 0
M  V30 14675 C 1387.29 -4.42926 0.672373 0
M  V30 14676 C 1389.03 -4.09307 -1.12551 0
M  V30 14677 C 1386.94 -5.9024 0.370285 0
M  V30 14678 H 1385.87 -0.74583 -0.110698 0
M  V30 14679 H 1388.52 -1.78386 0.430215 0
M  V30 14680 H 1386.9 -3.72753 -1.33683 0
M  V30 14681 H 1388.08 -4.37458 1.448 0
M  V30 14682 H 1386.39 -3.99993 1.15736 0
M  V30 14683 H 1388.99 -5.16955 -1.36607 0
M  V30 14684 H 1389.33 -3.60994 -2.07338 0
M  V30 14685 H 1389.87 -3.95677 -0.410385 0
M  V30 14686 H 1386.6 -6.42738 1.28719 0
M  V30 14687 H 1386.12 -5.98672 -0.367731 0
M  V30 14688 H 1387.8 -6.46996 -0.0216582 0
M  V30 14689 N 1387.94 -0.0468143 -1.5753 0
M  V30 14690 C 1389.16 0.637648 -1.96829 0
M  V30 14691 C 1389.58 1.64635 -0.924158 0
M  V30 14692 O 1388.94 1.82267 0.0921139 0
M  V30 14693 C 1388.99 1.32842 -3.36207 0
M  V30 14694 O 1388.71 0.360111 -4.36617 0
M  V30 14695 C 1390.21 2.10305 -3.90239 0
M  V30 14696 H 1387.43 0.174634 -0.647876 0
M  V30 14697 H 1389.97 -0.111824 -2.04194 0
M  V30 14698 H 1388.13 2.02915 -3.30006 0
M  V30 14699 H 1388.54 0.852661 -5.17523 0
M  V30 14700 H 1390.02 2.54065 -4.90056 0
M  V30 14701 H 1390.49 2.94942 -3.25432 0
M  V30 14702 H 1391.1 1.45152 -3.99764 0
M  V30 14703 N 1389.41 1.55964 0.226527 0
M  V30 14704 C 1390.36 1.92857 1.30034 0
M  V30 14705 C 1391.36 0.810008 1.48779 0
M  V30 14706 O 1392.56 0.994801 1.50012 0
M  V30 14707 H 1388.94 0.612807 0.435857 0
M  V30 14708 H 1390.91 2.82469 0.96196 0
M  V30 14709 C 1389.66 2.25735 2.6446 0
M  V30 14710 H 1388.98 3.11317 2.50842 0
M  V30 14711 H 1390.42 2.55437 3.3842 0
M  V30 14712 C 1388.88 1.08074 3.19095 0
M  V30 14713 O 1389.41 0.339279 4.00265 0
M  V30 14714 N 1387.62 0.86589 2.774 0
M  V30 14715 H 1387.16 1.47055 2.11501 0
M  V30 14716 H 1387.12 0.0803566 3.14297 0
M  V30 14717 N 1390.89 -0.493031 1.4969 0
M  V30 14718 C 1391.8 -1.61991 1.69694 0
M  V30 14719 C 1392.82 -1.64061 0.579641 0
M  V30 14720 O 1393.99 -1.82335 0.855323 0
M  V30 14721 C 1391.06 -2.98323 1.76648 0
M  V30 14722 C 1390.12 -3.06816 3.00271 0
M  V30 14723 C 1389.35 -4.36644 3.06883 0
M  V30 14724 O 1389.58 -5.25901 2.20872 0
M  V30 14725 O 1388.51 -4.50275 3.99419 0
M  V30 14726 H 1392.34 -1.48042 2.65174 0
M  V30 14727 H 1389.92 -0.670182 1.33525 0
M  V30 14728 H 1391.8 -3.79335 1.83529 0
M  V30 14729 H 1390.48 -3.12517 0.843482 0
M  V30 14730 H 1389.39 -2.24962 2.98903 0
M  V30 14731 H 1390.72 -2.97551 3.92077 0
M  V30 14732 N 1392.37 -1.38898 -0.744656 0
M  V30 14733 C 1393.33 -1.36633 -1.84022 0
M  V30 14734 C 1394.33 -0.265187 -1.58598 0
M  V30 14735 O 1395.52 -0.522569 -1.66177 0
M  V30 14736 C 1392.66 -1.12938 -3.21649 0
M  V30 14737 H 1393.85 -2.34111 -1.87435 0
M  V30 14738 H 1391.4 -1.24322 -0.947302 0
M  V30 14739 H 1392.14 -0.161027 -3.239 0
M  V30 14740 H 1391.92 -1.9267 -3.41498 0
M  V30 14741 H 1393.41 -1.14071 -4.01718 0
M  V30 14742 N 1393.85 0.973806 -1.23914 0
M  V30 14743 C 1394.78 2.08526 -1.05068 0
M  V30 14744 C 1395.76 1.70065 0.0344761 0
M  V30 14745 O 1396.94 1.93755 -0.131432 0
M  V30 14746 C 1394.07 3.41198 -0.648165 0
M  V30 14747 C 1393.03 3.9359 -1.6814 0
M  V30 14748 C 1392.35 5.22534 -1.13414 0
M  V30 14749 C 1393.65 4.22116 -3.07597 0
M  V30 14750 H 1395.35 2.24551 -1.98034 0
M  V30 14751 H 1392.89 1.07905 -0.953546 0
M  V30 14752 H 1394.85 4.18383 -0.50334 0
M  V30 14753 H 1393.57 3.25056 0.317182 0
M  V30 14754 H 1392.23 3.18555 -1.81434 0
M  V30 14755 H 1391.88 5.02747 -0.159578 0
M  V30 14756 H 1391.58 5.58555 -1.82456 0
M  V30 14757 H 1393.1 6.02334 -1.0013 0
M  V30 14758 H 1394.52 4.90027 -2.97567 0
M  V30 14759 H 1392.91 4.69352 -3.73937 0
M  V30 14760 H 1393.98 3.29128 -3.56094 0
M  V30 14761 N 1395.33 1.05191 1.17357 0
M  V30 14762 C 1396.55 0.782343 1.92079 0
M  V30 14763 C 1396.98 -0.655957 1.76292 0
M  V30 14764 O 1396.33 -1.45573 1.08065 0
M  V30 14765 C 1396.38 1.16777 3.41168 0
M  V30 14766 O 1395.49 0.299908 4.11308 0
M  V30 14767 H 1394.83 0.286894 0.598822 0
M  V30 14768 H 1397.36 1.40476 1.48754 0
M  V30 14769 H 1397.37 1.13454 3.91909 0
M  V30 14770 H 1396.04 2.2155 3.51978 0
M  V30 14771 H 1394.62 0.393744 3.70815 0
M  V30 14772 N 1396.8 -1.33791 0.83293 0
M  V30 14773 C 1397.75 -2.31249 0.250357 0
M  V30 14774 C 1398.75 -1.57865 -0.614403 0
M  V30 14775 O 1399.95 -1.72782 -0.504627 0
M  V30 14776 H 1396.33 -0.749421 0.0622268 0
M  V30 14777 H 1398.3 -2.77899 1.08697 0
M  V30 14778 C 1397.05 -3.43082 -0.564783 0
M  V30 14779 H 1396.37 -3.99696 0.0913189 0
M  V30 14780 H 1397.81 -4.13486 -0.938351 0
M  V30 14781 C 1396.27 -2.88414 -1.74124 0
M  V30 14782 O 1396.8 -2.84113 -2.83976 0
M  V30 14783 N 1395.01 -2.45101 -1.56121 0
M  V30 14784 H 1394.55 -2.48799 -0.667607 0
M  V30 14785 H 1394.51 -2.08875 -2.34986 0
M  V30 14786 N 1398.28 -0.588812 -1.46187 0
M  V30 14787 C 1399.53 -0.0744093 -2.01563 0
M  V30 14788 C 1399.84 1.29578 -1.46523 0
M  V30 14789 O 1401.05 1.90186 -1.93756 0
M  V30 14790 C 1399.51 -0.082408 -3.59806 0
M  V30 14791 C 1399.11 -1.45129 -4.23842 0
M  V30 14792 C 1400.86 0.377732 -4.22816 0
M  V30 14793 C 1398.77 -1.41668 -5.74181 0
M  V30 14794 H 1397.7 -0.0240481 -0.753616 0
M  V30 14795 H 1400.35 -0.741364 -1.67857 0
M  V30 14796 H 1398.73 0.650832 -3.90615 0
M  V30 14797 H 1399.9 -2.20474 -4.04633 0
M  V30 14798 H 1398.22 -1.85196 -3.7295 0
M  V30 14799 H 1400.81 0.42251 -5.33028 0
M  V30 14800 H 1401.16 1.39655 -3.92176 0
M  V30 14801 H 1401.69 -0.301638 -3.96655 0
M  V30 14802 H 1398.43 -2.4125 -6.09491 0
M  V30 14803 H 1397.95 -0.705524 -5.95636 0
M  V30 14804 H 1399.63 -1.13221 -6.37016 0
M  V30 14805 N 1399.76 1.54172 -0.326923 0
M  V30 14806 C 1401.18 1.59579 0.0256055 0
M  V30 14807 C 1401.38 1.34337 1.50186 0
M  V30 14808 O 1400.43 1.12945 2.25831 0
M  V30 14809 C 1401.75 2.98086 -0.395641 0
M  V30 14810 C 1403.29 3.11075 -0.346579 0
M  V30 14811 C 1403.77 4.51932 -0.743039 0
M  V30 14812 N 1405.26 4.57932 -0.696575 0
M  V30 14813 C 1405.99 5.65041 -0.975493 0
M  V30 14814 N 1405.49 6.80075 -1.32172 0
M  V30 14815 N 1407.28 5.54835 -0.900831 0
M  V30 14816 H 1399.43 1.68836 -1.28872 0
M  V30 14817 H 1401.7 0.789858 -0.52424 0
M  V30 14818 H 1401.4 3.21568 -1.42431 0
M  V30 14819 H 1401.28 3.76451 0.237645 0
M  V30 14820 H 1403.66 2.87326 0.672889 0
M  V30 14821 H 1403.75 2.34807 -1.01484 0
M  V30 14822 H 1403.39 4.76415 -1.76044 0
M  V30 14823 H 1403.32 5.26574 -0.0524263 0
M  V30 14824 H 1405.81 3.75318 -0.440969 0
M  V30 14825 H 1406.12 7.57708 -1.51983 0
M  V30 14826 H 1404.47 6.81563 -1.36001 0
M  V30 14827 H 1407.66 4.63844 -0.629812 0
M  V30 14828 H 1407.83 6.3822 -1.12156 0
M  V30 14829 N 1401.24 0.0551678 1.57503 0
M  V30 14830 C 1402.47 -0.6272 1.97164 0
M  V30 14831 C 1402.88 -1.64143 0.932876 0
M  V30 14832 O 1402.24 -1.82314 -0.0824465 0
M  V30 14833 C 1402.29 -1.31057 3.36907 0
M  V30 14834 O 1402.01 -0.336951 4.36802 0
M  V30 14835 C 1403.51 -2.08232 3.91349 0
M  V30 14836 H 1400.73 -0.171196 0.648793 0
M  V30 14837 H 1403.28 0.122651 2.04132 0
M  V30 14838 H 1401.43 -2.01162 3.31078 0
M  V30 14839 H 1401.84 -0.825204 5.17968 0
M  V30 14840 H 1403.32 -2.51463 4.91397 0
M  V30 14841 H 1403.8 -2.93212 3.26991 0
M  V30 14842 H 1404.4 -1.43029 4.00528 0
M  V30 14843 N 1402.72 -1.56081 -0.218252 0
M  V30 14844 C 1403.96 -1.79513 -0.943553 0
M  V30 14845 C 1404.3 -0.625367 -1.83855 0
M  V30 14846 O 1403.57 0.375226 -1.90846 0
M  V30 14847 C 1403.85 -3.13049 -1.77967 0
M  V30 14848 C 1403.71 -4.40479 -0.910939 0
M  V30 14849 C 1405.03 -3.43057 -2.7568 0
M  V30 14850 H 1402.14 -0.653057 -0.341593 0
M  V30 14851 H 1404.79 -1.88811 -0.212226 0
M  V30 14852 H 1402.94 -3.05254 -2.40318 0
M  V30 14853 H 1404.61 -4.60298 -0.303922 0
M  V30 14854 H 1402.85 -4.33259 -0.216513 0
M  V30 14855 H 1403.52 -5.3036 -1.53042 0
M  V30 14856 H 1406 -3.51002 -2.23465 0
M  V30 14857 H 1404.87 -4.37657 -3.31282 0
M  V30 14858 H 1405.14 -2.65389 -3.53584 0
M  V30 14859 N 1404.2 0.485086 -1.49949 0
M  V30 14860 C 1405.16 1.56713 -1.67253 0
M  V30 14861 C 1406.16 1.51329 -0.543701 0
M  V30 14862 O 1407.35 1.54198 -0.810472 0
M  V30 14863 C 1404.48 2.9636 -1.68475 0
M  V30 14864 H 1405.67 1.42693 -2.63778 0
M  V30 14865 H 1403.23 0.710473 -1.39219 0
M  V30 14866 H 1403.96 3.1584 -0.735924 0
M  V30 14867 H 1403.75 3.01675 -2.50469 0
M  V30 14868 H 1405.24 3.74945 -1.83865 0
M  V30 14869 N 1405.67 1.39291 0.737279 0
M  V30 14870 C 1406.92 1.36121 1.49384 0
M  V30 14871 C 1407.24 -0.0429406 1.94953 0
M  V30 14872 O 1406.51 -0.993756 1.68823 0
M  V30 14873 H 1405.09 0.500916 0.554159 0
M  V30 14874 H 1407.75 1.74134 0.875402 0
M  V30 14875 H 1406.85 2.02246 2.37704 0
M  V30 14876 N 1407.15 -0.967221 1.24429 0
M  V30 14877 C 1408.4 -1.70458 1.07829 0
M  V30 14878 C 1408.71 -1.91818 -0.38278 0
M  V30 14879 O 1409.92 -2.63129 -0.668982 0
M  V30 14880 C 1408.38 -3.06817 1.88125 0
M  V30 14881 C 1407.98 -2.93298 3.38645 0
M  V30 14882 C 1409.73 -3.84422 1.80056 0
M  V30 14883 C 1407.63 -4.2497 4.11284 0
M  V30 14884 H 1406.56 -0.639217 0.399897 0
M  V30 14885 H 1409.22 -1.07776 1.48515 0
M  V30 14886 H 1407.6 -3.70331 1.40254 0
M  V30 14887 H 1408.77 -2.38793 3.94099 0
M  V30 14888 H 1407.09 -2.29159 3.47671 0
M  V30 14889 H 1409.68 -4.81925 2.31629 0
M  V30 14890 H 1410.03 -4.09194 0.765908 0
M  V30 14891 H 1410.56 -3.27636 2.2561 0
M  V30 14892 H 1407.3 -4.05391 5.1511 0
M  V30 14893 H 1406.82 -4.79288 3.60615 0
M  V30 14894 H 1408.5 -4.93586 4.18308 0
M  V30 14895 N 1408.63 -1.05812 -1.16797 0
M  V30 14896 C 1409.88 -0.770398 -1.8684 0
M  V30 14897 C 1410.2 0.704986 -1.8181 0
M  V30 14898 O 1409.47 1.50977 -1.24832 0
M  V30 14899 H 1408.05 -0.281989 -0.691731 0
M  V30 14900 H 1410.71 -1.33859 -1.41661 0
M  V30 14901 H 1409.81 -1.09094 -2.92412 0
M  V30 14902 N 1410.11 1.33347 -0.840014 0
M  V30 14903 C 1411.05 2.29191 -0.272048 0
M  V30 14904 C 1412.02 1.54383 0.612787 0
M  V30 14905 O 1413.21 1.82676 0.550812 0
M  V30 14906 C 1410.35 3.40755 0.545901 0
M  V30 14907 C 1409.46 4.30471 -0.363084 0
M  V30 14908 C 1408.6 5.29151 0.466078 0
M  V30 14909 C 1407.64 6.10508 -0.441225 0
M  V30 14910 N 1406.77 7.01228 0.349877 0
M  V30 14911 H 1411.61 2.77166 -1.09467 0
M  V30 14912 H 1409.15 1.36379 -0.551284 0
M  V30 14913 H 1411.11 4.04142 1.03562 0
M  V30 14914 H 1409.74 2.9397 1.33348 0
M  V30 14915 H 1408.79 3.67795 -0.971119 0
M  V30 14916 H 1410.1 4.87406 -1.06002 0
M  V30 14917 H 1409.26 5.98072 1.01957 0
M  V30 14918 H 1408 4.72796 1.19644 0
M  V30 14919 H 1407 5.40504 -1.00672 0
M  V30 14920 H 1408.23 6.68946 -1.16997 0
M  V30 14921 H 1406.17 6.4732 1.0636 0
M  V30 14922 H 1406.09 7.5545 -0.288317 0
M  V30 14923 H 1407.36 7.74453 0.885573 0
M  V30 14924 N 1411.59 0.596556 1.45873 0
M  V30 14925 C 1412.5 -0.130832 2.34235 0
M  V30 14926 C 1413.51 -0.871805 1.50584 0
M  V30 14927 O 1414.69 -0.831877 1.83417 0
M  V30 14928 C 1411.75 -1.12279 3.28016 0
M  V30 14929 C 1410.81 -0.384982 4.2757 0
M  V30 14930 C 1410.05 -1.32969 5.1687 0
M  V30 14931 O 1410.27 -2.56696 5.09375 0
M  V30 14932 O 1409.2 -0.832741 5.96112 0
M  V30 14933 H 1413.03 0.59503 2.97814 0
M  V30 14934 H 1410.61 0.356873 1.45075 0
M  V30 14935 H 1412.5 -1.6944 3.85834 0
M  V30 14936 H 1411.17 -1.82988 2.67015 0
M  V30 14937 H 1410.08 0.228816 3.734 0
M  V30 14938 H 1411.41 0.281398 4.91395 0
M  V30 14939 N 1413.06 -1.53996 0.335095 0
M  V30 14940 C 1414.48 -1.59591 -0.0171422 0
M  V30 14941 C 1414.68 -1.35132 -1.49471 0
M  V30 14942 O 1413.74 -1.14141 -2.25229 0
M  V30 14943 C 1415.05 -2.97872 0.411443 0
M  V30 14944 C 1416.6 -3.10887 0.363072 0
M  V30 14945 C 1417.07 -4.51532 0.766995 0
M  V30 14946 N 1418.56 -4.57557 0.72085 0
M  V30 14947 C 1419.3 -5.64516 1.00544 0
M  V30 14948 N 1418.79 -6.79365 1.35777 0
M  V30 14949 N 1420.59 -5.54349 0.930243 0
M  V30 14950 H 1412.74 -1.68151 1.29766 0
M  V30 14951 H 1415 -0.787067 0.528422 0
M  V30 14952 H 1414.71 -3.20809 1.44134 0
M  V30 14953 H 1414.58 -3.76571 -0.217678 0
M  V30 14954 H 1416.97 -2.87679 -0.657642 0
M  V30 14955 H 1417.05 -2.34266 1.02728 0
M  V30 14956 H 1416.69 -4.75474 1.78568 0
M  V30 14957 H 1416.62 -5.26539 0.0803511 0
M  V30 14958 H 1419.11 -3.75079 0.460867 0
M  V30 14959 H 1419.43 -7.56891 1.55999 0
M  V30 14960 H 1417.77 -6.80833 1.39614 0
M  V30 14961 H 1420.96 -4.63503 0.654402 0
M  V30 14962 H 1421.14 -6.37616 1.15539 0
M  V30 14963 N 1414.54 -0.0635198 -1.57472 0
M  V30 14964 C 1415.96 0.293084 -1.56886 0
M  V30 14965 C 1416.16 1.70603 -1.07224 0
M  V30 14966 O 1415.21 2.41584 -0.734388 0
M  V30 14967 C 1416.53 0.110286 -3.00498 0
M  V30 14968 C 1418.07 0.180453 -3.12479 0
M  V30 14969 C 1418.55 0.0260354 -4.57993 0
M  V30 14970 N 1420.04 0.0819109 -4.63128 0
M  V30 14971 C 1420.78 -0.0132764 -5.73398 0
M  V30 14972 N 1420.27 -0.161514 -6.92612 0
M  V30 14973 N 1422.06 0.0431948 -5.62083 0
M  V30 14974 H 1414.22 -0.98706 -1.88072 0
M  V30 14975 H 1416.48 -0.384232 -0.866643 0
M  V30 14976 H 1416.18 -0.864378 -3.40913 0
M  V30 14977 H 1416.06 0.866117 -3.67122 0
M  V30 14978 H 1418.45 1.1456 -2.71956 0
M  V30 14979 H 1418.53 -0.606342 -2.4851 0
M  V30 14980 H 1418.17 -0.935839 -4.99204 0
M  V30 14981 H 1418.1 0.832131 -5.19984 0
M  V30 14982 H 1420.59 0.195229 -3.77395 0
M  V30 14983 H 1420.9 -0.226517 -7.72468 0
M  V30 14984 H 1419.25 -0.196766 -6.94721 0
M  V30 14985 H 1422.44 0.157648 -4.67834 0
M  V30 14986 H 1422.61 -0.0344435 -6.47991 0
M  V30 14987 N 1416.02 1.56195 0.209972 0
M  V30 14988 C 1417.27 1.79745 0.932638 0
M  V30 14989 C 1417.59 0.634252 1.83868 0
M  V30 14990 O 1416.85 -0.380798 1.91959 0
M  V30 14991 C 1417.15 3.09154 1.79328 0
M  V30 14992 C 1416.81 4.38754 1.03949 0
M  V30 14993 C 1415.48 4.73965 0.831308 0
M  V30 14994 C 1417.83 5.18718 0.508031 0
M  V30 14995 C 1415.16 5.86646 0.0799547 0
M  V30 14996 C 1417.51 6.32182 -0.230037 0
M  V30 14997 C 1416.17 6.65986 -0.449366 0
M  V30 14998 H 1415.44 0.657732 0.341276 0
M  V30 14999 H 1418.09 1.90453 0.199998 0
M  V30 15000 H 1416.39 2.93618 2.59414 0
M  V30 15001 H 1418.09 3.24578 2.35478 0
M  V30 15002 H 1414.68 4.11114 1.21174 0
M  V30 15003 H 1418.87 4.91941 0.656306 0
M  V30 15004 H 1414.12 6.11318 -0.100092 0
M  V30 15005 H 1418.3 6.93367 -0.649296 0
M  V30 15006 H 1415.92 7.53142 -1.03349 0
M  V30 15007 N 1417.5 -0.477127 1.50204 0
M  V30 15008 C 1418.75 -1.22639 1.60133 0
M  V30 15009 C 1419.06 -1.93218 0.304333 0
M  V30 15010 O 1420.27 -2.70027 0.282457 0
M  V30 15011 C 1418.72 -2.22807 2.82639 0
M  V30 15012 C 1418.33 -1.58059 4.19191 0
M  V30 15013 C 1420.07 -2.98413 3.01911 0
M  V30 15014 C 1417.98 -2.56478 5.32891 0
M  V30 15015 H 1416.91 -0.461439 0.596314 0
M  V30 15016 H 1419.56 -0.497533 1.76626 0
M  V30 15017 H 1417.94 -2.98959 2.59692 0
M  V30 15018 H 1419.12 -0.877374 4.5237 0
M  V30 15019 H 1417.43 -0.947563 4.05475 0
M  V30 15020 H 1420.03 -3.72059 3.84026 0
M  V30 15021 H 1420.37 -3.57444 2.134 0
M  V30 15022 H 1420.91 -2.29375 3.25011 0
M  V30 15023 H 1417.64 -2.02194 6.23536 0
M  V30 15024 H 1417.16 -3.24969 5.04138 0
M  V30 15025 H 1418.84 -3.18429 5.63216 0
M  V30 15026 N 1418.98 -1.3968 -0.729882 0
M  V30 15027 C 1419.89 -1.41094 -1.87429 0
M  V30 15028 C 1420.9 -0.305142 -1.71303 0
M  V30 15029 O 1422.08 -0.54744 -1.93817 0
M  V30 15030 C 1419.14 -1.25786 -3.23077 0
M  V30 15031 C 1418.2 -2.46382 -3.5156 0
M  V30 15032 C 1417.44 -2.31795 -4.80735 0
M  V30 15033 O 1417.66 -1.32415 -5.54818 0
M  V30 15034 O 1416.59 -3.20883 -5.09232 0
M  V30 15035 H 1420.42 -2.37571 -1.89192 0
M  V30 15036 H 1418.01 -1.2085 -0.878389 0
M  V30 15037 H 1419.89 -1.19402 -4.0413 0
M  V30 15038 H 1418.56 -0.324065 -3.22074 0
M  V30 15039 H 1417.47 -2.58343 -2.70573 0
M  V30 15040 H 1418.8 -3.38473 -3.57347 0
M  V30 15041 N 1420.45 0.960609 -1.2494 0
M  V30 15042 C 1421.42 2.03791 -1.04891 0
M  V30 15043 C 1422.42 1.608 -0.00375792 0
M  V30 15044 O 1423.61 1.72463 -0.24539 0
M  V30 15045 C 1420.74 3.35733 -0.591309 0
M  V30 15046 H 1421.93 2.2301 -2.00516 0
M  V30 15047 H 1419.49 1.13686 -1.07263 0
M  V30 15048 H 1420.22 3.22207 0.367816 0
M  V30 15049 H 1420.01 3.68283 -1.34574 0
M  V30 15050 H 1421.5 4.14921 -0.472283 0
M  V30 15051 N 1421.93 1.0643 1.16234 0
M  V30 15052 C 1422.86 0.697605 2.22836 0
M  V30 15053 C 1423.84 -0.310563 1.67241 0
M  V30 15054 O 1425.03 -0.185385 1.93313 0
M  V30 15055 C 1422.16 0.0847097 3.47197 0
M  V30 15056 C 1421.11 1.019 4.15693 0
M  V30 15057 C 1420.44 0.269339 5.34021 0
M  V30 15058 C 1421.74 2.34861 4.66516 0
M  V30 15059 H 1423.43 1.58883 2.53765 0
M  V30 15060 H 1420.98 0.765388 1.21975 0
M  V30 15061 H 1422.93 -0.1837 4.20999 0
M  V30 15062 H 1421.66 -0.84154 3.15572 0
M  V30 15063 H 1420.31 1.27218 3.43818 0
M  V30 15064 H 1419.96 -0.660072 4.9865 0
M  V30 15065 H 1419.66 0.892001 5.8079 0
M  V30 15066 H 1421.19 0.00850775 6.10599 0
M  V30 15067 H 1422.6 2.13922 5.31893 0
M  V30 15068 H 1421 2.92637 5.23912 0
M  V30 15069 H 1422.07 2.97834 3.82653 0
M  V30 15070 N 1423.41 -1.329 0.847073 0
M  V30 15071 C 1424.32 -2.32815 0.288878 0
M  V30 15072 C 1425.34 -1.63715 -0.589363 0
M  V30 15073 O 1426.51 -1.9531 -0.491537 0
M  V30 15074 C 1423.58 -3.42778 -0.519988 0
M  V30 15075 C 1422.64 -4.27584 0.383496 0
M  V30 15076 C 1421.87 -5.32296 -0.386862 0
M  V30 15077 O 1422.09 -5.4698 -1.61768 0
M  V30 15078 O 1421.03 -6.01408 0.2434 0
M  V30 15079 H 1424.85 -2.82434 1.11647 0
M  V30 15080 H 1422.44 -1.36388 0.609807 0
M  V30 15081 H 1424.32 -4.09862 -0.979357 0
M  V30 15082 H 1423 -2.95362 -1.3245 0
M  V30 15083 H 1421.9 -3.63338 0.890879 0
M  V30 15084 H 1423.24 -4.78505 1.15299 0
M  V30 15085 N 1424.89 -0.604284 -1.45555 0
M  V30 15086 C 1426.12 -0.104452 -2.06636 0
M  V30 15087 C 1426.53 1.20976 -1.44949 0
M  V30 15088 O 1425.89 1.73616 -0.562468 0
M  V30 15089 C 1425.94 0.0451646 -3.61472 0
M  V30 15090 O 1425.66 -1.21705 -4.20856 0
M  V30 15091 C 1427.16 0.57684 -4.39531 0
M  V30 15092 H 1424.38 -0.067326 -0.667614 0
M  V30 15093 H 1426.93 -0.831079 -1.86851 0
M  V30 15094 H 1425.08 0.722104 -3.80611 0
M  V30 15095 H 1425.49 -1.04462 -5.13992 0
M  V30 15096 H 1426.97 0.630627 -5.48386 0
M  V30 15097 H 1427.45 1.59842 -4.09081 0
M  V30 15098 H 1428.05 -0.0659444 -4.25249 0
M  V30 15099 N 1426.37 1.53816 -0.343257 0
M  V30 15100 C 1427.28 2.28716 0.522121 0
M  V30 15101 C 1428.29 1.33815 1.11218 0
M  V30 15102 O 1429.47 1.66853 1.12793 0
M  V30 15103 C 1426.53 3.04517 1.65741 0
M  V30 15104 C 1425.59 4.15043 1.09716 0
M  V30 15105 C 1424.83 4.8722 2.17835 0
M  V30 15106 O 1425.05 4.59065 3.38549 0
M  V30 15107 O 1423.98 5.73678 1.82145 0
M  V30 15108 H 1427.81 3.03576 -0.086732 0
M  V30 15109 H 1425.4 1.49007 -0.108313 0
M  V30 15110 H 1427.28 3.51921 2.31796 0
M  V30 15111 H 1425.95 2.32514 2.25208 0
M  V30 15112 H 1424.86 3.71943 0.401152 0
M  V30 15113 H 1426.19 4.89147 0.547362 0
M  V30 15114 N 1427.84 0.0718701 1.57436 0
M  V30 15115 C 1428.77 -0.89288 2.15754 0
M  V30 15116 C 1429.76 -1.31036 1.0846 0
M  V30 15117 O 1430.94 -1.38139 1.36496 0
M  V30 15118 C 1428.07 -2.16044 2.71923 0
M  V30 15119 C 1427.02 -1.88236 3.84384 0
M  V30 15120 C 1426.35 -3.21624 4.27156 0
M  V30 15121 C 1427.65 -1.18758 5.0862 0
M  V30 15122 H 1429.34 -0.407061 2.9662 0
M  V30 15123 H 1426.89 -0.194354 1.42682 0
M  V30 15124 H 1428.84 -2.83952 3.11366 0
M  V30 15125 H 1427.57 -2.66868 1.88279 0
M  V30 15126 H 1426.23 -1.22734 3.45445 0
M  V30 15127 H 1425.87 -3.70289 3.40433 0
M  V30 15128 H 1425.57 -3.03809 5.02965 0
M  V30 15129 H 1427.1 -3.90729 4.69215 0
M  V30 15130 H 1428.51 -1.76735 5.45378 0
M  V30 15131 H 1426.91 -1.11201 5.89707 0
M  V30 15132 H 1427.98 -0.166682 4.84613 0
M  V30 15133 N 1429.32 -1.56304 -0.201686 0
M  V30 15134 C 1430.23 -1.97215 -1.27057 0
M  V30 15135 C 1431.25 -0.878834 -1.50175 0
M  V30 15136 O 1432.42 -1.18405 -1.62918 0
M  V30 15137 C 1429.49 -2.29772 -2.59626 0
M  V30 15138 C 1428.55 -3.52776 -2.44637 0
M  V30 15139 C 1427.78 -3.83771 -3.70885 0
M  V30 15140 O 1428.01 -3.16149 -4.7477 0
M  V30 15141 O 1426.94 -4.77216 -3.66808 0
M  V30 15142 H 1430.77 -2.88347 -0.953393 0
M  V30 15143 H 1428.35 -1.43773 -0.406158 0
M  V30 15144 H 1430.23 -2.51817 -3.37885 0
M  V30 15145 H 1428.91 -1.41809 -2.90984 0
M  V30 15146 H 1427.82 -3.35986 -1.64512 0
M  V30 15147 H 1429.15 -4.41184 -2.18214 0
M  V30 15148 N 1430.8 0.469154 -1.50455 0
M  V30 15149 C 1431.75 1.56691 -1.6946 0
M  V30 15150 C 1432.72 1.57217 -0.535921 0
M  V30 15151 O 1433.9 1.74717 -0.766715 0
M  V30 15152 C 1431.04 2.94651 -1.79651 0
M  V30 15153 C 1430.16 3.03899 -3.07033 0
M  V30 15154 C 1429.29 4.32786 -3.08009 0
M  V30 15155 C 1428.33 4.35784 -4.29836 0
M  V30 15156 N 1427.47 5.56145 -4.28541 0
M  V30 15157 H 1432.31 1.39791 -2.63178 0
M  V30 15158 H 1429.84 0.679628 -1.30459 0
M  V30 15159 H 1431.8 3.74658 -1.83541 0
M  V30 15160 H 1430.43 3.10182 -0.893713 0
M  V30 15161 H 1429.48 2.16754 -3.12605 0
M  V30 15162 H 1430.8 3.01974 -3.97005 0
M  V30 15163 H 1429.95 5.21141 -3.10639 0
M  V30 15164 H 1428.69 4.37323 -2.1587 0
M  V30 15165 H 1427.69 3.45825 -4.27417 0
M  V30 15166 H 1428.92 4.32937 -5.23204 0
M  V30 15167 H 1426.86 5.61464 -3.39256 0
M  V30 15168 H 1426.78 5.55969 -5.12284 0
M  V30 15169 H 1428.05 6.4662 -4.35319 0
M  V30 15170 N 1432.28 1.40065 0.722464 0
M  V30 15171 C 1433.69 1.33876 1.30131 0
M  V30 15172 C 1434.04 0.00899369 1.96198 0
M  V30 15173 O 1433.17 -0.893082 1.97112 0
M  V30 15174 C 1433.76 2.42469 2.36631 0
M  V30 15175 C 1432.32 2.39762 2.90157 0
M  V30 15176 C 1431.47 2.23704 1.63865 0
M  V30 15177 H 1434.42 1.49971 0.519077 0
M  V30 15178 H 1434.44 2.0998 3.17315 0
M  V30 15179 H 1433.95 3.39239 1.88517 0
M  V30 15180 H 1432.05 1.46669 3.42519 0
M  V30 15181 H 1432.16 3.35092 3.42419 0
M  V30 15182 H 1430.53 1.71098 1.88674 0
M  V30 15183 H 1431.31 3.22462 1.17785 0
M  V30 15184 N 1433.76 -0.95397 1.25448 0
M  V30 15185 C 1435 -1.69866 1.10235 0
M  V30 15186 C 1435.33 -1.91204 -0.356552 0
M  V30 15187 O 1434.59 -1.4811 -1.27914 0
M  V30 15188 C 1434.89 -3.08613 1.80258 0
M  V30 15189 C 1434.55 -3.07072 3.30178 0
M  V30 15190 C 1433.21 -3.0636 3.71076 0
M  V30 15191 C 1435.57 -3.00351 4.25956 0
M  V30 15192 C 1432.89 -2.96675 5.06163 0
M  V30 15193 C 1435.25 -2.92209 5.61067 0
M  V30 15194 C 1433.91 -2.89832 6.01293 0
M  V30 15195 H 1433.18 -0.621583 0.40338 0
M  V30 15196 H 1435.83 -1.11448 1.55729 0
M  V30 15197 H 1434.13 -3.70578 1.27197 0
M  V30 15198 H 1435.83 -3.65055 1.6594 0
M  V30 15199 H 1432.42 -3.084 2.97637 0
M  V30 15200 H 1436.6 -3.0002 3.9535 0
M  V30 15201 H 1431.86 -2.93204 5.36508 0
M  V30 15202 H 1436.03 -2.8597 6.34976 0
M  V30 15203 H 1433.66 -2.82084 7.05927 0
M  V30 15204 N 1435.24 -1.07045 -1.15668 0
M  V30 15205 C 1436.18 -0.688004 -2.20307 0
M  V30 15206 C 1437.15 0.319081 -1.63006 0
M  V30 15207 O 1438.34 0.206239 -1.89682 0
M  V30 15208 C 1435.48 -0.0886692 -3.44986 0
M  V30 15209 C 1434.59 -1.14685 -4.16499 0
M  V30 15210 C 1433.73 -0.512852 -5.28719 0
M  V30 15211 C 1432.76 -1.55404 -5.92044 0
M  V30 15212 N 1431.9 -0.942848 -6.9574 0
M  V30 15213 H 1436.74 -1.58469 -2.52372 0
M  V30 15214 H 1434.28 -0.792184 -1.23947 0
M  V30 15215 H 1436.24 0.276415 -4.16283 0
M  V30 15216 H 1434.87 0.77139 -3.13448 0
M  V30 15217 H 1433.92 -1.62955 -3.43729 0
M  V30 15218 H 1435.23 -1.93643 -4.59678 0
M  V30 15219 H 1434.38 -0.0952274 -6.06625 0
M  V30 15220 H 1433.12 0.308524 -4.86723 0
M  V30 15221 H 1432.13 -1.98148 -5.12852 0
M  V30 15222 H 1433.35 -2.37765 -6.36117 0
M  V30 15223 H 1431.3 -0.142319 -6.55846 0
M  V30 15224 H 1431.22 -1.6697 -7.37331 0
M  V30 15225 H 1432.48 -0.550621 -7.77553 0
M  V30 15226 N 1436.71 1.32449 -0.85411 0
M  V30 15227 C 1437.94 2.01463 -0.471188 0
M  V30 15228 C 1438.36 1.64195 0.931954 0
M  V30 15229 O 1437.71 0.862994 1.60806 0
M  V30 15230 C 1437.76 3.56486 -0.600022 0
M  V30 15231 O 1437.49 3.92414 -1.94789 0
M  V30 15232 C 1438.99 4.42773 -0.216036 0
M  V30 15233 H 1436.21 0.644914 -0.185275 0
M  V30 15234 H 1438.75 1.6904 -1.1509 0
M  V30 15235 H 1436.91 3.87387 0.0319488 0
M  V30 15236 H 1437.32 4.87133 -1.94427 0
M  V30 15237 H 1438.79 5.50843 -0.357186 0
M  V30 15238 H 1439.27 4.31025 0.843468 0
M  V30 15239 H 1439.88 4.1726 -0.823058 0
M  V30 15240 N 1438.19 0.611994 1.45232 0
M  V30 15241 C 1439.15 -0.0943825 2.29006 0
M  V30 15242 C 1440.15 -0.790863 1.40007 0
M  V30 15243 O 1441.34 -0.638356 1.62082 0
M  V30 15244 C 1438.48 -1.1439 3.21135 0
M  V30 15245 H 1439.67 0.6422 2.92943 0
M  V30 15246 H 1437.22 0.37124 1.51827 0
M  V30 15247 H 1437.96 -1.9111 2.62007 0
M  V30 15248 H 1437.74 -0.648638 3.86698 0
M  V30 15249 H 1439.23 -1.63848 3.84114 0
M  V30 15250 N 1439.67 -1.53632 0.351409 0
M  V30 15251 C 1440.92 -2.00222 -0.243731 0
M  V30 15252 C 1441.23 -1.24305 -1.51022 0
M  V30 15253 O 1442.44 -1.61411 -2.18309 0
M  V30 15254 C 1440.89 -3.56619 -0.48487 0
M  V30 15255 C 1440.5 -4.414 0.766173 0
M  V30 15256 C 1442.25 -4.11603 -1.03844 0
M  V30 15257 C 1440.15 -5.89321 0.4954 0
M  V30 15258 H 1439.08 -0.74801 -0.0948534 0
M  V30 15259 H 1441.73 -1.77433 0.467957 0
M  V30 15260 H 1440.12 -3.75505 -1.25746 0
M  V30 15261 H 1441.29 -4.34288 1.54047 0
M  V30 15262 H 1439.6 -3.97448 1.24194 0
M  V30 15263 H 1442.2 -5.19736 -1.25611 0
M  V30 15264 H 1442.54 -3.65311 -1.99634 0
M  V30 15265 H 1443.08 -3.96459 -0.326363 0
M  V30 15266 H 1439.82 -6.39863 1.42324 0
M  V30 15267 H 1439.34 -5.99317 -0.240662 0
M  V30 15268 H 1441.02 -6.46897 0.115584 0
M  V30 15269 N 1441.15 -0.0802183 -1.57396 0
M  V30 15270 C 1442.08 0.913777 -2.10197 0
M  V30 15271 C 1443.09 1.25588 -1.03593 0
M  V30 15272 O 1444.28 1.21159 -1.31083 0
M  V30 15273 C 1441.38 2.2272 -2.55439 0
M  V30 15274 C 1440.55 2.06268 -3.8571 0
M  V30 15275 C 1439.61 3.20989 -4.16956 0
M  V30 15276 O 1438.64 2.95608 -4.8642 0
M  V30 15277 N 1439.84 4.46331 -3.71172 0
M  V30 15278 H 1442.61 0.462908 -2.96103 0
M  V30 15279 H 1440.17 0.105287 -1.61557 0
M  V30 15280 H 1442.16 2.98389 -2.73397 0
M  V30 15281 H 1440.73 2.59278 -1.74624 0
M  V30 15282 H 1439.95 1.15016 -3.77048 0
M  V30 15283 H 1441.24 1.92535 -4.70965 0
M  V30 15284 H 1440.64 4.69837 -3.15071 0
M  V30 15285 H 1439.19 5.18999 -3.94314 0
M  V30 15286 N 1442.63 1.56409 0.193394 0
M  V30 15287 C 1443.57 1.94681 1.23968 0
M  V30 15288 C 1444.54 0.807634 1.45143 0
M  V30 15289 O 1445.73 1.06593 1.58248 0
M  V30 15290 C 1442.87 2.29306 2.57901 0
M  V30 15291 C 1441.98 3.56296 2.4429 0
M  V30 15292 C 1441.12 3.80235 3.70938 0
M  V30 15293 C 1440.15 5.00645 3.52167 0
M  V30 15294 N 1439.29 5.20829 4.70831 0
M  V30 15295 H 1444.13 2.83884 0.906298 0
M  V30 15296 H 1441.67 1.40486 0.436146 0
M  V30 15297 H 1443.63 2.47398 3.35932 0
M  V30 15298 H 1442.26 1.43241 2.89278 0
M  V30 15299 H 1441.31 3.46241 1.57547 0
M  V30 15300 H 1442.62 4.44483 2.26354 0
M  V30 15301 H 1441.77 3.98575 4.57408 0
M  V30 15302 H 1440.51 2.90381 3.91829 0
M  V30 15303 H 1439.52 4.82225 2.64081 0
M  V30 15304 H 1440.74 5.92009 3.32719 0
M  V30 15305 H 1438.69 4.33923 4.91983 0
M  V30 15306 H 1438.61 6.03199 4.55726 0
M  V30 15307 H 1439.87 5.4363 5.58648 0
M  V30 15308 N 1444.1 -0.461169 1.50702 0
M  V30 15309 C 1445.07 -1.54032 1.69725 0
M  V30 15310 C 1446.07 -1.50445 0.567707 0
M  V30 15311 O 1447.26 -1.52889 0.834901 0
M  V30 15312 C 1444.39 -2.93642 1.73168 0
M  V30 15313 H 1445.58 -1.38478 2.66015 0
M  V30 15314 H 1443.13 -0.688235 1.40332 0
M  V30 15315 H 1443.87 -3.14629 0.786078 0
M  V30 15316 H 1443.65 -2.97652 2.55236 0
M  V30 15317 H 1445.14 -3.71972 1.89807 0
M  V30 15318 N 1445.58 -1.40446 -0.715026 0
M  V30 15319 C 1446.53 -1.40931 -1.85044 0
M  V30 15320 C 1447.52 -0.289745 -1.66904 0
M  V30 15321 O 1448.73 -0.460809 -1.74002 0
M  V30 15322 H 1445.1 -0.440534 -0.609454 0
M  V30 15323 H 1447.08 -2.36662 -1.81752 0
M  V30 15324 C 1445.82 -1.28933 -3.22911 0
M  V30 15325 H 1445.15 -2.14359 -3.37476 0
M  V30 15326 H 1446.59 -1.33331 -4.02491 0
M  V30 15327 C 1445.05 0.000379936 -3.369 0
M  V30 15328 O 1445.58 0.963093 -3.89984 0
M  V30 15329 N 1443.78 0.0700649 -2.90516 0
M  V30 15330 H 1443.33 -0.714088 -2.47505 0
M  V30 15331 H 1443.29 0.932457 -3.00254 0
M  V30 15332 N 1447.06 0.947303 -1.25952 0
M  V30 15333 C 1448.31 1.68721 -1.10527 0
M  V30 15334 C 1448.62 1.92403 0.352215 0
M  V30 15335 O 1449.83 2.6416 0.627036 0
M  V30 15336 C 1448.28 3.03785 -1.92983 0
M  V30 15337 C 1447.89 2.87873 -3.43268 0
M  V30 15338 C 1449.64 3.81509 -1.86149 0
M  V30 15339 C 1447.54 4.18373 -4.17993 0
M  V30 15340 H 1446.47 0.632774 -0.410016 0
M  V30 15341 H 1449.12 1.054 -1.5021 0
M  V30 15342 H 1447.51 3.68052 -1.46128 0
M  V30 15343 H 1448.68 2.32493 -3.97848 0
M  V30 15344 H 1446.99 2.23598 -3.51273 0
M  V30 15345 H 1449.59 4.78179 -2.39267 0
M  V30 15346 H 1449.93 4.07923 -0.83091 0
M  V30 15347 H 1450.47 3.24005 -2.30794 0
M  V30 15348 H 1447.21 3.97145 -5.21494 0
M  V30 15349 H 1446.73 4.7349 -3.68194 0
M  V30 15350 H 1448.41 4.86869 -4.26108 0
M  V30 15351 N 1448.54 1.07657 1.15099 0
M  V30 15352 C 1449.77 0.821631 1.89559 0
M  V30 15353 C 1450.18 -0.629174 1.78432 0
M  V30 15354 O 1449.52 -1.44353 1.13613 0
M  V30 15355 C 1449.58 1.15473 3.4045 0
M  V30 15356 C 1449.25 2.60675 3.75363 0
M  V30 15357 C 1450.24 3.58923 3.76125 0
M  V30 15358 C 1447.93 2.96333 4.05576 0
M  V30 15359 C 1449.92 4.90863 4.06611 0
M  V30 15360 C 1447.61 4.28469 4.35727 0
M  V30 15361 C 1448.61 5.25543 4.36226 0
M  V30 15362 O 1448.29 6.55305 4.65651 0
M  V30 15363 H 1448.03 0.296469 0.607521 0
M  V30 15364 H 1450.58 1.43722 1.46742 0
M  V30 15365 H 1448.81 0.482117 3.83683 0
M  V30 15366 H 1450.5 0.881832 3.96205 0
M  V30 15367 H 1451.27 3.32718 3.52879 0
M  V30 15368 H 1447.14 2.2142 4.04344 0
M  V30 15369 H 1450.69 5.66626 4.06916 0
M  V30 15370 H 1446.59 4.54425 4.58441 0
M  V30 15371 H 1447.35 6.60503 4.83402 0
M  V30 15372 N 1450.02 -1.31994 0.861122 0
M  V30 15373 C 1451.26 -1.96636 0.466754 0
M  V30 15374 C 1451.59 -1.6845 -0.982328 0
M  V30 15375 O 1450.86 -0.995157 -1.68741 0
M  V30 15376 H 1449.44 -0.727489 0.169613 0
M  V30 15377 H 1452.1 -1.60962 1.09897 0
M  V30 15378 H 1451.19 -3.05937 0.61716 0
M  V30 15379 N 1451.49 -0.619688 -1.44906 0
M  V30 15380 C 1452.74 -0.119633 -2.02146 0
M  V30 15381 C 1453.07 1.25432 -1.48651 0
M  V30 15382 O 1452.32 1.84372 -0.656155 0
M  V30 15383 C 1452.62 -0.0432891 -3.57374 0
M  V30 15384 C 1452.29 -1.35451 -4.30074 0
M  V30 15385 C 1450.95 -1.71365 -4.49653 0
M  V30 15386 C 1453.3 -2.22053 -4.71532 0
M  V30 15387 C 1450.63 -2.93611 -5.07946 0
M  V30 15388 C 1452.98 -3.43559 -5.31178 0
M  V30 15389 C 1451.65 -3.7971 -5.48977 0
M  V30 15390 H 1450.92 -0.0437769 -0.739706 0
M  V30 15391 H 1453.56 -0.803722 -1.73818 0
M  V30 15392 H 1451.87 0.72412 -3.8505 0
M  V30 15393 H 1453.57 0.359964 -3.99381 0
M  V30 15394 H 1450.16 -1.06499 -4.15158 0
M  V30 15395 H 1454.34 -1.95603 -4.56129 0
M  V30 15396 H 1449.6 -3.21712 -5.19915 0
M  V30 15397 H 1453.77 -4.10906 -5.62254 0
M  V30 15398 H 1451.4 -4.7452 -5.93915 0
M  V30 15399 N 1452.97 1.53444 -0.359552 0
M  V30 15400 C 1454.21 2.03077 0.232169 0
M  V30 15401 C 1454.58 1.24125 1.46482 0
M  V30 15402 O 1455.78 1.63735 2.13177 0
M  V30 15403 C 1454.05 3.53554 0.522891 0
M  V30 15404 S 1455.61 4.25068 1.08914 0
M  V30 15405 H 1452.43 0.707738 0.0680317 0
M  V30 15406 H 1455.03 1.88971 -0.501022 0
M  V30 15407 H 1453.73 4.0862 -0.381812 0
M  V30 15408 H 1453.26 3.71811 1.28532 0
M  V30 15409 H 1455.28 4.35734 2.37382 0
M  V30 15410 N 1454.45 0.0885642 1.57351 0
M  V30 15411 C 1455.7 -0.576675 1.94115 0
M  V30 15412 C 1456.03 -1.68595 0.969842 0
M  V30 15413 O 1455.28 -1.95697 -0.0116998 0
M  V30 15414 C 1455.58 -1.17764 3.37441 0
M  V30 15415 C 1455.25 -0.192813 4.50488 0
M  V30 15416 C 1453.91 0.0780722 4.81137 0
M  V30 15417 C 1456.26 0.479997 5.18985 0
M  V30 15418 C 1453.59 1.02857 5.77613 0
M  V30 15419 C 1455.94 1.41892 6.16481 0
M  V30 15420 C 1454.6 1.69811 6.45539 0
M  V30 15421 H 1453.87 -0.21102 0.710318 0
M  V30 15422 H 1456.52 0.163009 1.90805 0
M  V30 15423 H 1454.83 -1.99343 3.37298 0
M  V30 15424 H 1456.52 -1.69994 3.63185 0
M  V30 15425 H 1453.11 -0.41413 4.26595 0
M  V30 15426 H 1457.3 0.283854 4.95488 0
M  V30 15427 H 1452.55 1.25194 5.98445 0
M  V30 15428 H 1456.73 1.94612 6.68655 0
M  V30 15429 H 1454.35 2.43621 7.20106 0
M  V30 15430 N 1455.93 -1.56509 -0.185096 0
M  V30 15431 C 1456.89 -1.94468 -1.21305 0
M  V30 15432 C 1457.89 -0.826838 -1.37913 0
M  V30 15433 O 1459.08 -1.09411 -1.35554 0
M  V30 15434 C 1456.21 -2.22747 -2.58063 0
M  V30 15435 H 1457.41 -2.86442 -0.888323 0
M  V30 15436 H 1454.96 -1.50354 -0.427012 0
M  V30 15437 H 1455.69 -1.33443 -2.95573 0
M  V30 15438 H 1455.48 -3.04215 -2.47378 0
M  V30 15439 H 1456.97 -2.53084 -3.32172 0
M  V30 15440 N 1457.41 0.45317 -1.50944 0
M  V30 15441 C 1458.65 1.20389 -1.62827 0
M  V30 15442 C 1458.98 1.91559 -0.336982 0
M  V30 15443 O 1458.24 1.83574 0.678153 0
M  V30 15444 C 1458.54 2.25747 -2.7708 0
M  V30 15445 C 1458.2 1.71703 -4.16928 0
M  V30 15446 C 1456.86 1.56686 -4.54976 0
M  V30 15447 C 1459.22 1.31804 -5.04259 0
M  V30 15448 C 1456.54 1.0022 -5.78077 0
M  V30 15449 C 1458.9 0.767738 -6.27924 0
M  V30 15450 C 1457.56 0.604341 -6.64759 0
M  V30 15451 H 1456.83 0.440536 -0.595827 0
M  V30 15452 H 1459.48 0.497234 -1.84932 0
M  V30 15453 H 1457.78 3.0239 -2.49134 0
M  V30 15454 H 1459.48 2.83625 -2.83475 0
M  V30 15455 H 1456.07 1.84364 -3.86921 0
M  V30 15456 H 1460.25 1.42233 -4.75482 0
M  V30 15457 H 1455.51 0.863228 -6.05275 0
M  V30 15458 H 1459.68 0.449994 -6.94945 0
M  V30 15459 H 1457.31 0.164663 -7.60022 0
M  V30 15460 N 1458.88 1.40823 0.707568 0
M  V30 15461 C 1459.85 1.41464 1.80334 0
M  V30 15462 C 1460.85 0.307143 1.57839 0
M  V30 15463 O 1462.04 0.566444 1.64733 0
M  V30 15464 C 1459.17 1.21426 3.18541 0
M  V30 15465 H 1460.36 2.38998 1.81162 0
M  V30 15466 H 1457.92 1.2679 0.914007 0
M  V30 15467 H 1458.65 0.246847 3.23359 0
M  V30 15468 H 1458.44 2.01657 3.36269 0
M  V30 15469 H 1459.93 1.24681 3.98553 0
M  V30 15470 N 1460.36 -0.94061 1.26453 0
M  V30 15471 C 1461.29 -2.04322 1.03852 0
M  V30 15472 C 1462.31 -1.628 -0.00122618 0
M  V30 15473 O 1463.5 -1.76894 0.238911 0
M  V30 15474 C 1460.6 -3.34394 0.550789 0
M  V30 15475 C 1459.77 -4.0468 1.6599 0
M  V30 15476 C 1458.83 -5.13025 1.17012 0
M  V30 15477 O 1457.85 -5.37699 1.8673 0
M  V30 15478 N 1459.06 -5.80497 0.0188478 0
M  V30 15479 H 1461.82 -2.24276 1.98797 0
M  V30 15480 H 1459.38 -1.11013 1.17846 0
M  V30 15481 H 1461.37 -4.04169 0.207305 0
M  V30 15482 H 1459.94 -3.11108 -0.30509 0
M  V30 15483 H 1459.16 -3.28813 2.17429 0
M  V30 15484 H 1460.45 -4.48392 2.40463 0
M  V30 15485 H 1459.85 -5.62888 -0.563368 0
M  V30 15486 H 1458.41 -6.51259 -0.265556 0
M  V30 15487 N 1461.84 -1.08266 -1.14527 0
M  V30 15488 C 1463.08 -0.820945 -1.87189 0
M  V30 15489 C 1463.44 0.641556 -1.80964 0
M  V30 15490 O 1464.65 1.01871 -2.48749 0
M  V30 15491 C 1462.92 -1.32668 -3.31865 0
M  V30 15492 S 1464.48 -1.19705 -4.22157 0
M  V30 15493 H 1461.29 -0.297237 -0.645888 0
M  V30 15494 H 1463.9 -1.38364 -1.38114 0
M  V30 15495 H 1462.6 -2.38558 -3.33943 0
M  V30 15496 H 1462.13 -0.759588 -3.85997 0
M  V30 15497 H 1464.15 -0.140421 -4.96001 0
M  V30 15498 N 1463.32 1.31536 -0.86811 0
M  V30 15499 C 1464.57 1.96045 -0.474271 0
M  V30 15500 C 1464.88 1.6939 0.978071 0
M  V30 15501 O 1466.09 2.27746 1.47797 0
M  V30 15502 C 1464.54 3.5096 -0.797203 0
M  V30 15503 C 1464.15 3.86456 -2.26618 0
M  V30 15504 C 1465.9 4.21871 -0.471745 0
M  V30 15505 C 1463.8 5.34474 -2.53162 0
M  V30 15506 H 1462.73 0.733737 -0.173627 0
M  V30 15507 H 1465.38 1.49734 -1.06076 0
M  V30 15508 H 1463.77 3.95752 -0.139994 0
M  V30 15509 H 1464.94 3.52629 -2.9663 0
M  V30 15510 H 1463.25 3.28605 -2.55749 0
M  V30 15511 H 1465.85 5.30767 -0.647317 0
M  V30 15512 H 1466.19 4.12131 0.58768 0
M  V30 15513 H 1466.73 3.82706 -1.08542 0
M  V30 15514 H 1463.47 5.49248 -3.57781 0
M  V30 15515 H 1462.99 5.6966 -1.87743 0
M  V30 15516 H 1464.67 6.01716 -2.37797 0
M  V30 15517 N 1464.8 0.627364 1.44575 0
M  V30 15518 C 1465.73 -0.129056 2.27835 0
M  V30 15519 C 1466.71 -0.854852 1.38315 0
M  V30 15520 O 1467.89 -0.859709 1.67754 0
M  V30 15521 C 1465.02 -1.18866 3.17157 0
M  V30 15522 C 1464.07 -0.563816 4.22757 0
M  V30 15523 S 1464.9 0.643269 5.31622 0
M  V30 15524 C 1466.05 -0.416443 6.24513 0
M  V30 15525 H 1466.29 0.577281 2.91641 0
M  V30 15526 H 1463.82 0.415427 1.48706 0
M  V30 15527 H 1465.78 -1.79508 3.69171 0
M  V30 15528 H 1464.44 -1.86717 2.52578 0
M  V30 15529 H 1463.63 -1.36173 4.85256 0
M  V30 15530 H 1463.23 -0.0321045 3.73986 0
M  V30 15531 H 1465.53 -1.29006 6.65104 0
M  V30 15532 H 1466.47 0.172871 7.07889 0
M  V30 15533 H 1466.88 -0.740651 5.5962 0
M  V30 15534 N 1466.28 -1.53251 0.367684 0
M  V30 15535 C 1467.52 -2.01287 -0.221351 0
M  V30 15536 C 1467.85 -1.25489 -1.48603 0
M  V30 15537 O 1467.11 -0.337392 -1.9277 0
M  V30 15538 C 1467.4 -3.53031 -0.557149 0
M  V30 15539 C 1467.07 -4.46708 0.613444 0
M  V30 15540 C 1465.73 -4.72036 0.934633 0
M  V30 15541 C 1468.08 -5.02112 1.3976 0
M  V30 15542 C 1465.41 -5.50021 2.04191 0
M  V30 15543 C 1467.76 -5.81306 2.49531 0
M  V30 15544 C 1466.43 -6.04921 2.82182 0
M  V30 15545 H 1465.7 -0.73656 -0.080998 0
M  V30 15546 H 1468.35 -1.84842 0.500581 0
M  V30 15547 H 1466.65 -3.67434 -1.36012 0
M  V30 15548 H 1468.35 -3.87674 -1.02519 0
M  V30 15549 H 1464.94 -4.27143 0.353075 0
M  V30 15550 H 1469.12 -4.82488 1.1627 0
M  V30 15551 H 1464.38 -5.66536 2.29884 0
M  V30 15552 H 1468.55 -6.23245 3.10707 0
M  V30 15553 H 1466.18 -6.65134 3.68104 0
M  V30 15554 N 1467.75 -0.0969077 -1.57302 0
M  V30 15555 C 1469 0.566072 -1.93594 0
M  V30 15556 C 1469.32 1.69226 -0.980922 0
M  V30 15557 O 1470.52 2.41651 -1.23763 0
M  V30 15558 C 1468.98 1.05832 -3.43988 0
M  V30 15559 C 1468.59 -0.038207 -4.47984 0
M  V30 15560 C 1470.33 1.69393 -3.89238 0
M  V30 15561 C 1468.24 0.4695 -5.89533 0
M  V30 15562 H 1467.17 0.215226 -0.72263 0
M  V30 15563 H 1469.82 -0.173202 -1.82681 0
M  V30 15564 H 1468.2 1.85134 -3.50059 0
M  V30 15565 H 1469.37 -0.813761 -4.53558 0
M  V30 15566 H 1467.69 -0.579113 -4.12353 0
M  V30 15567 H 1470.29 2.08454 -4.92393 0
M  V30 15568 H 1470.63 2.56381 -3.27986 0
M  V30 15569 H 1471.16 0.966709 -3.85875 0
M  V30 15570 H 1467.9 -0.363802 -6.5449 0
M  V30 15571 H 1467.42 1.21202 -5.87427 0
M  V30 15572 H 1469.1 0.937885 -6.40166 0
M  V30 15573 N 1469.23 1.56605 0.176793 0
M  V30 15574 C 1470.19 1.95109 1.20271 0
M  V30 15575 C 1471.19 0.83414 1.37473 0
M  V30 15576 O 1472.38 1.10128 1.34972 0
M  V30 15577 C 1469.52 2.24112 2.56878 0
M  V30 15578 H 1470.71 2.86909 0.87312 0
M  V30 15579 H 1468.26 1.50578 0.419033 0
M  V30 15580 H 1469 1.35009 2.94861 0
M  V30 15581 H 1468.78 3.05523 2.45761 0
M  V30 15582 H 1470.27 2.54842 3.30825 0
M  V30 15583 N 1470.71 -0.445159 1.51182 0
M  V30 15584 C 1471.66 -1.5604 1.72494 0
M  V30 15585 C 1472.65 -1.58753 0.591101 0
M  V30 15586 O 1473.86 -1.62591 0.772285 0
M  V30 15587 H 1470.23 -0.518265 0.544891 0
M  V30 15588 H 1472.2 -1.35237 2.65995 0
M  V30 15589 C 1470.95 -2.93768 1.85999 0
M  V30 15590 H 1470.28 -2.9241 2.72647 0
M  V30 15591 H 1471.72 -3.71189 2.04926 0
M  V30 15592 C 1470.17 -3.31186 0.617853 0
M  V30 15593 O 1470.7 -4.01035 -0.231101 0
M  V30 15594 N 1468.91 -2.86868 0.464234 0
M  V30 15595 H 1468.46 -2.30198 1.15614 0
M  V30 15596 H 1468.42 -3.12267 -0.365643 0
M  V30 15597 N 1472.19 -1.41197 -0.700089 0
M  V30 15598 C 1473.41 -1.43856 -1.494 0
M  V30 15599 C 1473.84 -0.0441877 -1.88048 0
M  V30 15600 O 1473.2 0.951503 -1.54325 0
M  V30 15601 C 1473.24 -2.34913 -2.73584 0
M  V30 15602 O 1472.35 -1.80305 -3.70896 0
M  V30 15603 H 1471.69 -0.488412 -0.449833 0
M  V30 15604 H 1474.22 -1.85606 -0.860911 0
M  V30 15605 H 1474.23 -2.50633 -3.21943 0
M  V30 15606 H 1472.9 -3.36229 -2.44791 0
M  V30 15607 H 1471.48 -1.74012 -3.29809 0
M  V30 15608 N 1473.67 0.933891 -1.2695 0
M  V30 15609 C 1474.63 2.0152 -1.0919 0
M  V30 15610 C 1475.63 1.60755 -0.037865 0
M  V30 15611 O 1476.82 1.71904 -0.281917 0
M  V30 15612 C 1473.95 3.34403 -0.66239 0
M  V30 15613 H 1475.14 2.18706 -2.05201 0
M  V30 15614 H 1472.7 1.11385 -1.0965 0
M  V30 15615 H 1473.43 3.22915 0.299388 0
M  V30 15616 H 1473.22 3.65345 -1.42356 0
M  V30 15617 H 1474.71 4.13826 -0.560187 0
M  V30 15618 N 1475.14 1.08871 1.13951 0
M  V30 15619 C 1476.37 0.843055 1.89492 0
M  V30 15620 C 1476.79 -0.599539 1.78289 0
M  V30 15621 O 1476.15 -1.42062 1.12642 0
M  V30 15622 C 1476.2 1.27572 3.3728 0
M  V30 15623 O 1475.3 0.430611 4.10146 0
M  V30 15624 H 1474.64 0.3058 0.589391 0
M  V30 15625 H 1477.17 1.45137 1.44209 0
M  V30 15626 H 1477.18 1.25864 3.88101 0
M  V30 15627 H 1475.86 2.32635 3.44751 0
M  V30 15628 H 1474.44 0.511516 3.69375 0
M  V30 15629 N 1476.62 -1.31073 0.875073 0
M  V30 15630 C 1477.85 -2.00397 0.50245 0
M  V30 15631 C 1478.26 -1.65826 -0.910951 0
M  V30 15632 O 1477.6 -0.886276 -1.60906 0
M  V30 15633 C 1477.66 -3.54696 0.585744 0
M  V30 15634 C 1477.33 -4.12756 1.96167 0
M  V30 15635 C 1478.33 -4.29484 2.92984 0
M  V30 15636 C 1476.01 -4.48365 2.26437 0
M  V30 15637 C 1478 -4.81019 4.18209 0
M  V30 15638 C 1475.69 -4.99601 3.51912 0
M  V30 15639 C 1476.69 -5.1588 4.47613 0
M  V30 15640 O 1476.38 -5.66014 5.70862 0
M  V30 15641 H 1476.11 -0.647645 0.193733 0
M  V30 15642 H 1478.66 -1.6816 1.17947 0
M  V30 15643 H 1476.89 -3.86416 -0.148214 0
M  V30 15644 H 1478.58 -4.05271 0.225818 0
M  V30 15645 H 1479.35 -4.02286 2.70907 0
M  V30 15646 H 1475.23 -4.34968 1.52721 0
M  V30 15647 H 1478.77 -4.9364 4.92915 0
M  V30 15648 H 1474.67 -5.26234 3.73829 0
M  V30 15649 H 1475.44 -5.84374 5.73105 0
M  V30 15650 N 1478.1 -0.635022 -1.4424 0
M  V30 15651 C 1479.52 -0.300978 -1.56736 0
M  V30 15652 C 1479.72 1.19571 -1.62188 0
M  V30 15653 O 1478.77 1.97991 -1.56703 0
M  V30 15654 C 1480.09 -0.996327 -2.83714 0
M  V30 15655 C 1481.63 -0.97484 -2.97432 0
M  V30 15656 C 1482.11 -1.65073 -4.27218 0
M  V30 15657 N 1483.6 -1.6175 -4.3404 0
M  V30 15658 C 1484.33 -2.10938 -5.33191 0
M  V30 15659 N 1483.83 -2.68333 -6.38725 0
M  V30 15660 N 1485.62 -2.01544 -5.24725 0
M  V30 15661 H 1477.77 -1.60649 -1.38945 0
M  V30 15662 H 1480.04 -0.674561 -0.666087 0
M  V30 15663 H 1479.74 -2.05128 -2.85684 0
M  V30 15664 H 1479.62 -0.536511 -3.73365 0
M  V30 15665 H 1482 0.071646 -2.95013 0
M  V30 15666 H 1482.09 -1.47318 -2.0912 0
M  V30 15667 H 1481.73 -2.69669 -4.30397 0
M  V30 15668 H 1481.66 -1.12719 -5.14395 0
M  V30 15669 H 1484.15 -1.1985 -3.58392 0
M  V30 15670 H 1484.46 -3.03588 -7.10672 0
M  V30 15671 H 1482.81 -2.72385 -6.39399 0
M  V30 15672 H 1486 -1.56423 -4.41191 0
M  V30 15673 H 1486.17 -2.40187 -6.01842 0
M  V30 15674 N 1479.58 1.53054 -0.375806 0
M  V30 15675 C 1480.81 2.05521 0.210828 0
M  V30 15676 C 1481.22 1.24837 1.4217 0
M  V30 15677 O 1480.56 0.284634 1.81481 0
M  V30 15678 C 1480.62 3.53417 0.658548 0
M  V30 15679 C 1480.29 4.54906 -0.437025 0
M  V30 15680 C 1481.28 5.03638 -1.29016 0
M  V30 15681 C 1478.97 4.98701 -0.600194 0
M  V30 15682 C 1480.96 5.94777 -2.29171 0
M  V30 15683 C 1478.65 5.89644 -1.6051 0
M  V30 15684 C 1479.65 6.37573 -2.44929 0
M  V30 15685 O 1479.33 7.26721 -3.43703 0
M  V30 15686 H 1479.07 0.674893 0.0386627 0
M  V30 15687 H 1481.62 1.98296 -0.535534 0
M  V30 15688 H 1479.85 3.58215 1.45667 0
M  V30 15689 H 1481.54 3.88692 1.16933 0
M  V30 15690 H 1482.31 4.70543 -1.17534 0
M  V30 15691 H 1478.18 4.60976 0.0471346 0
M  V30 15692 H 1481.73 6.3211 -2.95099 0
M  V30 15693 H 1477.63 6.22153 -1.72035 0
M  V30 15694 H 1478.39 7.44746 -3.39553 0
M  V30 15695 N 1481.06 0.105248 1.57248 0
M  V30 15696 C 1482.3 -0.554956 1.94331 0
M  V30 15697 C 1482.63 -1.68087 0.988528 0
M  V30 15698 O 1481.9 -1.95854 0.042366 0
M  V30 15699 H 1480.48 -0.207994 0.717459 0
M  V30 15700 H 1483.14 0.170964 1.94149 0
M  V30 15701 H 1482.23 -0.95853 2.97016 0
M  V30 15702 N 1482.53 -1.56697 -0.168486 0
M  V30 15703 C 1483.78 -1.81794 -0.882907 0
M  V30 15704 C 1484.1 -0.682707 -1.82658 0
M  V30 15705 O 1483.37 0.297234 -1.93632 0
M  V30 15706 H 1481.95 -0.670636 -0.329024 0
M  V30 15707 H 1484.62 -1.94178 -0.167625 0
M  V30 15708 H 1483.71 -2.75945 -1.45811 0
M  V30 15709 N 1484.01 0.437135 -1.51416 0
M  V30 15710 C 1485.24 1.20723 -1.67659 0
M  V30 15711 C 1485.65 1.85476 -0.373547 0
M  V30 15712 O 1484.99 1.71516 0.657876 0
M  V30 15713 C 1485.06 2.33257 -2.73553 0
M  V30 15714 C 1484.72 1.8887 -4.16146 0
M  V30 15715 C 1485.72 1.39203 -5.00918 0
M  V30 15716 C 1483.4 1.96555 -4.62246 0
M  V30 15717 C 1485.4 0.978071 -6.29851 0
M  V30 15718 C 1483.08 1.54771 -5.91176 0
M  V30 15719 C 1484.08 1.05479 -6.74806 0
M  V30 15720 O 1483.77 0.64288 -8.01325 0
M  V30 15721 H 1483.5 0.36993 -0.565798 0
M  V30 15722 H 1486.05 0.524183 -1.98599 0
M  V30 15723 H 1484.28 3.04839 -2.37929 0
M  V30 15724 H 1485.97 2.95121 -2.78673 0
M  V30 15725 H 1486.74 1.3266 -4.66505 0
M  V30 15726 H 1482.62 2.33868 -3.97274 0
M  V30 15727 H 1486.16 0.592633 -6.95078 0
M  V30 15728 H 1482.06 1.60985 -6.25103 0
M  V30 15729 H 1482.83 0.768711 -8.14882 0
M  V30 15730 N 1485.49 1.41566 0.692592 0
M  V30 15731 C 1486.42 1.46423 1.81886 0
M  V30 15732 C 1487.4 0.32258 1.67013 0
M  V30 15733 O 1488.59 0.534437 1.86701 0
M  V30 15734 C 1485.72 1.3486 3.20047 0
M  V30 15735 C 1484.67 2.46867 3.49629 0
M  V30 15736 C 1484 2.20369 4.87177 0
M  V30 15737 C 1485.3 3.89205 3.48306 0
M  V30 15738 H 1486.99 2.40683 1.78079 0
M  V30 15739 H 1484.54 1.15845 0.855334 0
M  V30 15740 H 1486.49 1.36869 3.98553 0
M  V30 15741 H 1485.21 0.370859 3.24488 0
M  V30 15742 H 1483.87 2.44146 2.73475 0
M  V30 15743 H 1483.52 1.20931 4.88247 0
M  V30 15744 H 1483.22 2.95426 5.07934 0
M  V30 15745 H 1484.74 2.24099 5.6799 0
M  V30 15746 H 1486.16 3.93626 4.16811 0
M  V30 15747 H 1484.56 4.63969 3.80595 0
M  V30 15748 H 1485.63 4.17144 2.47222 0
M  V30 15749 N 1486.97 -0.927146 1.27443 0
M  V30 15750 C 1488.22 -1.66941 1.13197 0
M  V30 15751 C 1488.53 -1.92939 -0.32156 0
M  V30 15752 O 1489.74 -2.65124 -0.584931 0
M  V30 15753 C 1488.19 -3.00677 1.97791 0
M  V30 15754 C 1487.8 -2.82376 3.47805 0
M  V30 15755 C 1489.54 -3.78499 1.92195 0
M  V30 15756 C 1487.45 -4.1167 4.24596 0
M  V30 15757 H 1486.38 -0.626171 0.420031 0
M  V30 15758 H 1489.03 -1.02997 1.51868 0
M  V30 15759 H 1487.41 -3.65681 1.51965 0
M  V30 15760 H 1488.59 -2.26135 4.01497 0
M  V30 15761 H 1486.9 -2.17982 3.54786 0
M  V30 15762 H 1489.5 -4.74312 2.46844 0
M  V30 15763 H 1489.84 -4.0655 0.895702 0
M  V30 15764 H 1490.38 -3.20292 2.35919 0
M  V30 15765 H 1487.12 -3.88798 5.27747 0
M  V30 15766 H 1486.64 -4.67573 3.75681 0
M  V30 15767 H 1488.31 -4.80028 4.338 0
M  V30 15768 N 1488.45 -1.09474 -1.13372 0
M  V30 15769 C 1489.67 -0.853093 -1.89043 0
M  V30 15770 C 1490.1 0.590075 -1.78605 0
M  V30 15771 O 1489.45 1.41462 -1.13394 0
M  V30 15772 C 1489.5 -1.29359 -3.36599 0
M  V30 15773 O 1488.61 -0.452355 -4.09912 0
M  V30 15774 H 1487.95 -0.308922 -0.587761 0
M  V30 15775 H 1490.48 -1.459 -1.43437 0
M  V30 15776 H 1490.49 -1.27921 -3.87428 0
M  V30 15777 H 1489.16 -2.3446 -3.43513 0
M  V30 15778 H 1487.74 -0.531098 -3.69099 0
M  V30 15779 N 1489.92 1.30607 -0.882012 0
M  V30 15780 C 1490.87 2.3016 -0.336011 0
M  V30 15781 C 1491.87 1.60037 0.555389 0
M  V30 15782 O 1493.07 1.74536 0.440152 0
M  V30 15783 H 1489.45 0.746595 -0.0899982 0
M  V30 15784 H 1491.42 2.73673 -1.18936 0
M  V30 15785 C 1490.17 3.44942 0.437061 0
M  V30 15786 H 1489.49 3.99081 -0.2396 0
M  V30 15787 H 1490.93 4.16684 0.784242 0
M  V30 15788 C 1489.39 2.94678 1.633 0
M  V30 15789 O 1489.92 2.94457 2.73236 0
M  V30 15790 N 1488.13 2.50727 1.46917 0
M  V30 15791 H 1487.67 2.51105 0.574807 0
M  V30 15792 H 1487.63 2.17453 2.27072 0
M  V30 15793 N 1491.4 0.642663 1.43901 0
M  V30 15794 C 1492.31 -0.0562462 2.34533 0
M  V30 15795 C 1493.33 -0.823457 1.53281 0
M  V30 15796 O 1494.5 -0.773103 1.85971 0
M  V30 15797 C 1491.57 -1.01787 3.31422 0
M  V30 15798 C 1490.63 -0.248759 4.28579 0
M  V30 15799 C 1489.86 -1.16458 5.20839 0
M  V30 15800 O 1490.09 -2.40361 5.17284 0
M  V30 15801 O 1489.02 -0.642671 5.98459 0
M  V30 15802 H 1492.85 0.689476 2.9577 0
M  V30 15803 H 1490.43 0.402847 1.43866 0
M  V30 15804 H 1492.31 -1.5708 3.91029 0
M  V30 15805 H 1490.99 -1.744 2.72702 0
M  V30 15806 H 1489.9 0.347495 3.72483 0
M  V30 15807 H 1491.23 0.437589 4.90251 0
M  V30 15808 N 1492.88 -1.52852 0.383918 0
M  V30 15809 C 1494.13 -2.01112 -0.199594 0
M  V30 15810 C 1494.45 -1.27237 -1.47769 0
M  V30 15811 O 1493.72 -0.390873 -1.91961 0
M  V30 15812 H 1492.3 -0.743047 -0.0767466 0
M  V30 15813 H 1494.96 -1.8799 0.51437 0
M  V30 15814 H 1494.06 -3.09347 -0.413627 0
M  V30 15815 N 1494.36 -0.113586 -1.5719 0
M  V30 15816 C 1495.29 0.835363 -2.18046 0
M  V30 15817 C 1496.27 1.28114 -1.11897 0
M  V30 15818 O 1497.46 1.34472 -1.40111 0
M  V30 15819 C 1494.59 2.08759 -2.77556 0
M  V30 15820 C 1493.54 1.77979 -3.8924 0
M  V30 15821 C 1492.87 3.10185 -4.35533 0
M  V30 15822 C 1494.17 1.05231 -5.11589 0
M  V30 15823 H 1495.86 0.328275 -2.97595 0
M  V30 15824 H 1493.41 0.156456 -1.43148 0
M  V30 15825 H 1495.36 2.75597 -3.18785 0
M  V30 15826 H 1494.08 2.61783 -1.95288 0
M  V30 15827 H 1492.74 1.13532 -3.48577 0
M  V30 15828 H 1492.39 3.61133 -3.50131 0
M  V30 15829 H 1492.09 2.90367 -5.10843 0
M  V30 15830 H 1493.61 3.78151 -4.7941 0
M  V30 15831 H 1495.03 1.62213 -5.49872 0
M  V30 15832 H 1493.42 0.955269 -5.92448 0
M  V30 15833 H 1494.49 0.038137 -4.84885 0
M  V30 15834 N 1495.84 1.56784 0.160173 0
M  V30 15835 C 1496.79 1.9368 1.203 0
M  V30 15836 C 1497.77 0.806435 1.39232 0
M  V30 15837 O 1498.96 1.06975 1.41015 0
M  V30 15838 C 1496.09 2.30972 2.53982 0
M  V30 15839 C 1495.18 3.50549 2.38697 0
M  V30 15840 N 1495.57 4.6747 1.93145 0
M  V30 15841 C 1493.87 3.55375 2.6949 0
M  V30 15842 C 1494.57 5.49591 1.9059 0
M  V30 15843 N 1493.54 4.90938 2.33412 0
M  V30 15844 H 1497.35 2.8156 0.842691 0
M  V30 15845 H 1494.86 1.58167 0.368351 0
M  V30 15846 H 1496.86 2.55604 3.29351 0
M  V30 15847 H 1495.52 1.44437 2.90806 0
M  V30 15848 H 1496.53 4.91477 1.63312 0
M  V30 15849 H 1493.21 2.79346 3.10277 0
M  V30 15850 H 1494.6 6.53306 1.56976 0
M  V30 15851 N 1497.32 -0.429099 1.51646 0
M  V30 15852 C 1498.56 -1.17784 1.64722 0
M  V30 15853 C 1498.89 -1.90998 0.367415 0
M  V30 15854 O 1498.15 -1.8463 -0.648862 0
M  V30 15855 C 1498.44 -2.2131 2.80636 0
M  V30 15856 C 1498.11 -1.65048 4.19607 0
M  V30 15857 C 1496.77 -1.49428 4.57411 0
M  V30 15858 C 1499.12 -1.23765 5.06292 0
M  V30 15859 C 1496.45 -0.910109 5.79598 0
M  V30 15860 C 1498.8 -0.667743 6.29066 0
M  V30 15861 C 1497.47 -0.498507 6.65636 0
M  V30 15862 H 1496.74 -0.431001 0.60276 0
M  V30 15863 H 1499.39 -0.46775 1.857 0
M  V30 15864 H 1497.69 -2.98388 2.53913 0
M  V30 15865 H 1499.39 -2.79079 2.87951 0
M  V30 15866 H 1495.98 -1.78185 3.89805 0
M  V30 15867 H 1500.16 -1.3465 4.77685 0
M  V30 15868 H 1495.42 -0.766825 6.06572 0
M  V30 15869 H 1499.59 -0.339377 6.95573 0
M  V30 15870 H 1497.22 -0.0437292 7.60187 0
M  V30 15871 N 1498.79 -1.41931 -0.685074 0
M  V30 15872 C 1500.02 -1.45432 -1.47866 0
M  V30 15873 C 1500.44 -0.0641302 -1.87991 0
M  V30 15874 O 1499.8 0.935081 -1.55325 0
M  V30 15875 C 1499.85 -2.37801 -2.71077 0
M  V30 15876 O 1498.95 -1.84229 -3.68963 0
M  V30 15877 H 1498.29 -0.493156 -0.444627 0
M  V30 15878 H 1500.82 -1.86508 -0.841177 0
M  V30 15879 H 1500.83 -2.54033 -3.19266 0
M  V30 15880 H 1499.51 -3.38807 -2.41211 0
M  V30 15881 H 1498.09 -1.775 -3.27945 0
M  V30 15882 N 1500.27 0.920374 -1.27933 0
M  V30 15883 C 1501.5 1.70028 -1.17363 0
M  V30 15884 C 1501.91 1.87246 0.271214 0
M  V30 15885 O 1501.25 1.39449 1.19581 0
M  V30 15886 C 1501.31 3.11595 -1.79301 0
M  V30 15887 C 1500.98 3.17687 -3.28518 0
M  V30 15888 C 1501.98 2.99383 -4.25048 0
M  V30 15889 C 1499.66 3.40412 -3.69357 0
M  V30 15890 C 1501.65 3.03704 -5.60395 0
M  V30 15891 C 1499.34 3.44367 -5.04832 0
M  V30 15892 C 1500.34 3.26032 -6.0016 0
M  V30 15893 O 1500.03 3.29735 -7.33164 0
M  V30 15894 H 1499.76 0.538497 -0.408652 0
M  V30 15895 H 1502.31 1.16086 -1.6945 0
M  V30 15896 H 1500.54 3.6705 -1.217 0
M  V30 15897 H 1502.23 3.71584 -1.63341 0
M  V30 15898 H 1503 2.8166 -3.94833 0
M  V30 15899 H 1498.88 3.53731 -2.95627 0
M  V30 15900 H 1502.42 2.89312 -6.34779 0
M  V30 15901 H 1498.32 3.61616 -5.347 0
M  V30 15902 H 1499.09 3.46141 -7.41707 0
M  V30 15903 N 1501.75 1.10074 1.1279 0
M  V30 15904 C 1503 0.842118 1.84489 0
M  V30 15905 C 1503.33 -0.630737 1.83672 0
M  V30 15906 O 1502.6 -1.46481 1.27959 0
M  V30 15907 C 1502.89 1.3864 3.32342 0
M  V30 15908 C 1502.74 2.92585 3.41635 0
M  V30 15909 C 1504.06 1.02565 4.27982 0
M  V30 15910 H 1501.18 0.307376 0.669842 0
M  V30 15911 H 1503.82 1.36326 1.32345 0
M  V30 15912 H 1501.97 0.943134 3.76878 0
M  V30 15913 H 1503.64 3.4541 3.0576 0
M  V30 15914 H 1501.88 3.29378 2.82299 0
M  V30 15915 H 1502.56 3.25749 4.45636 0
M  V30 15916 H 1505.03 1.40807 3.91552 0
M  V30 15917 H 1503.91 1.43345 5.29852 0
M  V30 15918 H 1504.17 -0.0653712 4.42052 0
M  V30 15919 N 1503.23 -1.30138 0.888926 0
M  V30 15920 C 1504.47 -1.95989 0.509365 0
M  V30 15921 C 1504.8 -1.70153 -0.942249 0
M  V30 15922 O 1504.06 -1.00123 -1.68148 0
M  V30 15923 C 1504.36 -3.4975 0.735488 0
M  V30 15924 C 1504.02 -3.95644 2.1628 0
M  V30 15925 C 1502.68 -4.07886 2.55309 0
M  V30 15926 C 1505.04 -4.1952 3.09277 0
M  V30 15927 C 1502.36 -4.41367 3.86539 0
M  V30 15928 C 1504.72 -4.54472 4.40043 0
M  V30 15929 C 1503.38 -4.64923 4.7896 0
M  V30 15930 H 1502.65 -0.717175 0.18639 0
M  V30 15931 H 1505.3 -1.54932 1.12553 0
M  V30 15932 H 1503.6 -3.91783 0.0363165 0
M  V30 15933 H 1505.3 -3.9878 0.421351 0
M  V30 15934 H 1501.89 -3.86624 1.84985 0
M  V30 15935 H 1506.07 -4.09539 2.80342 0
M  V30 15936 H 1501.33 -4.47659 4.16427 0
M  V30 15937 H 1505.5 -4.71897 5.12138 0
M  V30 15938 H 1503.13 -4.90622 5.80685 0
M  V30 15939 N 1504.71 -0.650285 -1.43559 0
M  V30 15940 C 1506.12 -0.317586 -1.56408 0
M  V30 15941 C 1506.32 1.17844 -1.63447 0
M  V30 15942 O 1505.38 1.96318 -1.58794 0
M  V30 15943 C 1506.69 -1.02636 -2.82642 0
M  V30 15944 C 1508.24 -1.00633 -2.96381 0
M  V30 15945 C 1508.71 -1.69595 -4.25443 0
M  V30 15946 N 1510.2 -1.66345 -4.323 0
M  V30 15947 C 1510.94 -2.16581 -5.30924 0
M  V30 15948 N 1510.44 -2.75092 -6.35843 0
M  V30 15949 N 1512.23 -2.07098 -5.22558 0
M  V30 15950 H 1504.38 -1.62114 -1.37233 0
M  V30 15951 H 1506.64 -0.681588 -0.658895 0
M  V30 15952 H 1506.35 -2.08146 -2.83493 0
M  V30 15953 H 1506.22 -0.576081 -3.72775 0
M  V30 15954 H 1508.61 0.0403519 -2.95072 0
M  V30 15955 H 1508.69 -1.49528 -2.07545 0
M  V30 15956 H 1508.33 -2.74218 -4.27512 0
M  V30 15957 H 1508.26 -1.18168 -5.1317 0
M  V30 15958 H 1510.76 -1.23644 -3.571 0
M  V30 15959 H 1511.07 -3.11108 -7.07412 0
M  V30 15960 H 1509.41 -2.79152 -6.36474 0
M  V30 15961 H 1512.6 -1.61093 -4.39507 0
M  V30 15962 H 1512.78 -2.46557 -5.99261 0
M  V30 15963 N 1506.18 1.52647 -0.392018 0
M  V30 15964 C 1507.43 2.01912 0.18958 0
M  V30 15965 C 1507.76 1.27786 1.46234 0
M  V30 15966 O 1507.04 0.379124 1.90769 0
M  V30 15967 C 1507.32 3.57217 0.454734 0
M  V30 15968 C 1507.17 4.4201 -0.833501 0
M  V30 15969 C 1508.49 4.22146 1.24421 0
M  V30 15970 H 1505.61 0.733909 0.0674281 0
M  V30 15971 H 1508.25 1.82685 -0.52212 0
M  V30 15972 H 1506.4 3.73731 1.06101 0
M  V30 15973 H 1508.08 4.37242 -1.47027 0
M  V30 15974 H 1506.32 4.08912 -1.44823 0
M  V30 15975 H 1506.99 5.48701 -0.602585 0
M  V30 15976 H 1509.47 4.09627 0.731093 0
M  V30 15977 H 1508.34 5.30786 1.39848 0
M  V30 15978 H 1508.6 3.7996 2.26016 0
M  V30 15979 N 1507.66 0.121921 1.57128 0
M  V30 15980 C 1508.91 -0.535201 1.9447 0
M  V30 15981 C 1509.22 -1.67644 1.00772 0
M  V30 15982 O 1510.43 -2.39651 1.27592 0
M  V30 15983 C 1508.89 -1.00346 3.45628 0
M  V30 15984 C 1508.49 0.109473 4.47866 0
M  V30 15985 C 1510.24 -1.63179 3.91884 0
M  V30 15986 C 1508.15 -0.375651 5.90206 0
M  V30 15987 H 1507.08 -0.203702 0.725962 0
M  V30 15988 H 1509.73 0.202243 1.82382 0
M  V30 15989 H 1508.11 -1.79541 3.5296 0
M  V30 15990 H 1509.28 0.885815 4.52206 0
M  V30 15991 H 1507.6 0.644642 4.1138 0
M  V30 15992 H 1510.19 -2.00594 4.95647 0
M  V30 15993 H 1510.54 -2.5113 3.32023 0
M  V30 15994 H 1511.07 -0.905197 3.87364 0
M  V30 15995 H 1507.81 0.46788 6.53828 0
M  V30 15996 H 1507.33 -1.11841 5.89281 0
M  V30 15997 H 1509.01 -0.835921 6.41577 0
M  V30 15998 N 1509.14 -1.56867 -0.151857 0
M  V30 15999 C 1510.37 -1.87601 -0.884347 0
M  V30 16000 C 1510.79 -0.710419 -1.74168 0
M  V30 16001 O 1510.15 0.340103 -1.78081 0
M  V30 16002 C 1510.2 -3.16887 -1.72091 0
M  V30 16003 O 1509.3 -3.00479 -2.82464 0
M  V30 16004 H 1508.64 -0.616509 -0.246603 0
M  V30 16005 H 1511.17 -2.04092 -0.144135 0
M  V30 16006 H 1511.18 -3.48785 -2.11691 0
M  V30 16007 H 1509.86 -4.01327 -1.09131 0
M  V30 16008 H 1508.43 -2.79978 -2.46306 0
M  V30 16009 N 1510.62 0.421051 -1.51871 0
M  V30 16010 C 1511.58 1.49478 -1.73749 0
M  V30 16011 C 1512.58 1.48887 -0.607395 0
M  V30 16012 O 1513.77 1.50622 -0.875143 0
M  V30 16013 C 1510.9 2.88947 -1.80893 0
M  V30 16014 H 1512.1 1.31377 -2.69593 0
M  V30 16015 H 1509.65 0.650786 -1.42107 0
M  V30 16016 H 1510.38 3.12434 -0.86922 0
M  V30 16017 H 1510.17 2.90781 -2.63038 0
M  V30 16018 H 1511.66 3.66809 -1.99602 0
M  V30 16019 N 1512.1 1.42293 0.677538 0
M  V30 16020 C 1513.34 1.42827 1.43973 0
M  V30 16021 C 1513.68 0.0435041 1.94151 0
M  V30 16022 O 1512.95 -0.931794 1.70727 0
M  V30 16023 C 1513.23 2.45037 2.63873 0
M  V30 16024 C 1513.09 3.92694 2.19344 0
M  V30 16025 C 1514.41 2.4427 3.66087 0
M  V30 16026 H 1511.52 0.520097 0.522176 0
M  V30 16027 H 1514.17 1.73688 0.770219 0
M  V30 16028 H 1512.32 2.18851 3.20993 0
M  V30 16029 H 1513.99 4.2985 1.67412 0
M  V30 16030 H 1512.23 4.06692 1.50944 0
M  V30 16031 H 1512.9 4.59784 3.05455 0
M  V30 16032 H 1515.38 2.67551 3.18678 0
M  V30 16033 H 1514.25 3.17769 4.47564 0
M  V30 16034 H 1514.52 1.46769 4.17027 0
M  V30 16035 N 1513.57 -0.913576 1.28419 0
M  V30 16036 C 1514.82 -1.66519 1.15755 0
M  V30 16037 C 1515.15 -1.91974 -0.293166 0
M  V30 16038 O 1514.43 -1.52025 -1.21321 0
M  V30 16039 C 1514.71 -3.02299 1.95672 0
M  V30 16040 C 1514.56 -2.83996 3.48807 0
M  V30 16041 C 1515.88 -4.02838 1.77226 0
M  V30 16042 H 1513 -0.604309 0.421877 0
M  V30 16043 H 1515.64 -1.05919 1.57737 0
M  V30 16044 H 1513.79 -3.54025 1.59995 0
M  V30 16045 H 1515.47 -2.39279 3.9439 0
M  V30 16046 H 1513.71 -2.19052 3.74431 0
M  V30 16047 H 1514.38 -3.80419 3.99982 0
M  V30 16048 H 1516.86 -3.60174 2.0836 0
M  V30 16049 H 1515.73 -4.95806 2.35515 0
M  V30 16050 H 1515.99 -4.36135 0.723804 0
M  V30 16051 N 1515.05 -1.1067 -1.12204 0
M  V30 16052 C 1515.98 -0.779829 -2.20093 0
M  V30 16053 C 1516.96 0.248279 -1.68278 0
M  V30 16054 O 1518.15 0.113511 -1.93868 0
M  V30 16055 C 1515.28 -0.213511 -3.46643 0
M  V30 16056 C 1514.23 -1.17258 -4.11624 0
M  V30 16057 C 1513.56 -0.467352 -5.32654 0
M  V30 16058 C 1514.86 -2.52014 -4.57478 0
M  V30 16059 H 1516.55 -1.68192 -2.47693 0
M  V30 16060 H 1514.1 -0.810131 -1.1905 0
M  V30 16061 H 1516.05 0.0273225 -4.21391 0
M  V30 16062 H 1514.78 0.723837 -3.18478 0
M  V30 16063 H 1513.43 -1.39891 -3.3886 0
M  V30 16064 H 1513.08 0.474547 -5.00756 0
M  V30 16065 H 1512.78 -1.10694 -5.77079 0
M  V30 16066 H 1514.31 -0.235122 -6.10147 0
M  V30 16067 H 1515.72 -2.33516 -5.23587 0
M  V30 16068 H 1514.12 -3.1188 -5.1269 0
M  V30 16069 H 1515.19 -3.11831 -3.71335 0
M  V30 16070 N 1516.53 1.29665 -0.895815 0
M  V30 16071 C 1517.76 2.00399 -0.534333 0
M  V30 16072 C 1518.18 1.66632 0.872654 0
M  V30 16073 O 1517.54 0.888811 1.58018 0
M  V30 16074 C 1517.59 3.53154 -0.729023 0
M  V30 16075 O 1516.69 4.11812 0.22023 0
M  V30 16076 H 1516.03 0.630173 -0.209233 0
M  V30 16077 H 1518.56 1.65253 -1.20634 0
M  V30 16078 H 1518.57 4.03073 -0.632179 0
M  V30 16079 H 1517.25 3.77067 -1.75481 0
M  V30 16080 H 1515.82 3.72822 0.0761687 0
M  V30 16081 N 1518.01 0.657889 1.43212 0
M  V30 16082 C 1518.97 -0.0214783 2.2919 0
M  V30 16083 C 1519.97 -0.745921 1.42452 0
M  V30 16084 O 1521.16 -0.586468 1.64031 0
M  V30 16085 C 1518.29 -1.04115 3.24612 0
M  V30 16086 H 1519.49 0.735072 2.90752 0
M  V30 16087 H 1517.04 0.419354 1.50569 0
M  V30 16088 H 1517.77 -1.82677 2.67954 0
M  V30 16089 H 1517.56 -0.525285 3.88566 0
M  V30 16090 H 1519.05 -1.51544 3.89132 0
M  V30 16091 N 1519.49 -1.52437 0.400108 0
M  V30 16092 C 1520.71 -2.0613 -0.178364 0
M  V30 16093 C 1521.13 -1.27094 -1.39616 0
M  V30 16094 O 1520.49 -0.320409 -1.79665 0
M  V30 16095 C 1520.54 -3.57478 -0.53777 0
M  V30 16096 O 1520.26 -4.33522 0.631657 0
M  V30 16097 C 1521.76 -4.27556 -1.17094 0
M  V30 16098 H 1518.98 -0.670558 -0.0243619 0
M  V30 16099 H 1521.52 -1.9644 0.568459 0
M  V30 16100 H 1519.68 -3.67205 -1.23449 0
M  V30 16101 H 1520.09 -5.23437 0.333803 0
M  V30 16102 H 1521.57 -5.3466 -1.3727 0
M  V30 16103 H 1522.04 -3.83456 -2.14145 0
M  V30 16104 H 1522.65 -4.22174 -0.514687 0
M  V30 16105 N 1520.96 -0.130252 -1.57061 0
M  V30 16106 C 1521.93 0.801529 -2.14728 0
M  V30 16107 C 1522.93 1.18687 -1.08489 0
M  V30 16108 O 1524.12 1.11054 -1.34211 0
M  V30 16109 C 1521.25 2.08542 -2.69672 0
M  V30 16110 H 1522.44 0.300172 -2.98394 0
M  V30 16111 H 1520 0.119077 -1.55846 0
M  V30 16112 H 1520.73 2.63083 -1.89625 0
M  V30 16113 H 1520.52 1.81849 -3.47381 0
M  V30 16114 H 1522.01 2.75126 -3.14158 0
M  V30 16115 N 1522.44 1.56945 0.143535 0
M  V30 16116 C 1523.37 2.0156 1.17881 0
M  V30 16117 C 1524.35 0.895744 1.44604 0
M  V30 16118 O 1525.54 1.16379 1.55466 0
M  V30 16119 C 1522.67 2.39915 2.51114 0
M  V30 16120 C 1521.62 3.55117 2.38905 0
M  V30 16121 C 1520.95 3.79296 3.7688 0
M  V30 16122 C 1522.25 4.87668 1.87021 0
M  V30 16123 H 1523.94 2.88296 0.80783 0
M  V30 16124 H 1521.49 1.38698 0.387149 0
M  V30 16125 H 1523.44 2.69727 3.23767 0
M  V30 16126 H 1522.17 1.5012 2.90055 0
M  V30 16127 H 1520.83 3.25476 1.68703 0
M  V30 16128 H 1520.47 2.86747 4.13262 0
M  V30 16129 H 1520.17 4.56827 3.69571 0
M  V30 16130 H 1521.7 4.11537 4.51076 0
M  V30 16131 H 1523.11 5.16176 2.4947 0
M  V30 16132 H 1521.51 5.69029 1.90594 0
M  V30 16133 H 1522.58 4.77811 0.82611 0
M  V30 16134 N 1523.92 -0.412991 1.52093 0
M  V30 16135 C 1525.17 -1.15801 1.65634 0
M  V30 16136 C 1525.49 -1.91127 0.386737 0
M  V30 16137 O 1524.76 -1.86541 -0.598262 0
M  V30 16138 H 1523.34 -0.430467 0.610498 0
M  V30 16139 H 1526 -0.471127 1.8912 0
M  V30 16140 H 1525.1 -1.87421 2.49559 0
M  V30 16141 N 1525.4 -1.4265 -0.669982 0
M  V30 16142 C 1526.82 -1.25682 -0.983682 0
M  V30 16143 C 1527.02 -0.164456 -2.00828 0
M  V30 16144 O 1526.07 0.462711 -2.48224 0
M  V30 16145 C 1527.38 -2.61536 -1.4839 0
M  V30 16146 C 1528.93 -2.6893 -1.60143 0
M  V30 16147 C 1529.41 -4.05162 -2.1356 0
M  V30 16148 N 1530.9 -4.07141 -2.20886 0
M  V30 16149 C 1531.63 -5.09371 -2.63303 0
M  V30 16150 N 1531.13 -6.21983 -3.05137 0
M  V30 16151 N 1532.92 -4.96727 -2.63094 0
M  V30 16152 H 1525.07 -2.12398 0.0083059 0
M  V30 16153 H 1527.34 -0.946173 -0.058823 0
M  V30 16154 H 1527.04 -3.42351 -0.805527 0
M  V30 16155 H 1526.92 -2.85786 -2.46183 0
M  V30 16156 H 1529.3 -1.88457 -2.27085 0
M  V30 16157 H 1529.38 -2.48463 -0.608266 0
M  V30 16158 H 1529.03 -4.86094 -1.47224 0
M  V30 16159 H 1528.96 -4.22984 -3.13676 0
M  V30 16160 H 1531.45 -3.25846 -1.91396 0
M  V30 16161 H 1531.76 -6.95835 -3.36204 0
M  V30 16162 H 1530.11 -6.25481 -3.02983 0
M  V30 16163 H 1533.3 -4.07824 -2.29777 0
M  V30 16164 H 1533.47 -5.76531 -2.95831 0
M  V30 16165 N 1526.88 0.906753 -1.28902 0
M  V30 16166 C 1527.84 1.99158 -1.1344 0
M  V30 16167 C 1528.84 1.60639 -0.0719551 0
M  V30 16168 O 1530.03 1.71267 -0.318317 0
M  V30 16169 C 1527.16 3.32923 -0.733172 0
M  V30 16170 H 1528.36 2.14305 -2.09794 0
M  V30 16171 H 1525.91 1.09034 -1.11988 0
M  V30 16172 H 1526.64 3.23477 0.230826 0
M  V30 16173 H 1526.43 3.62244 -1.50073 0
M  V30 16174 H 1527.92 4.12544 -0.64784 0
M  V30 16175 N 1528.36 1.11264 1.11616 0
M  V30 16176 C 1529.6 0.860364 1.83314 0
M  V30 16177 C 1529.93 -0.614011 1.84554 0
M  V30 16178 O 1529.19 -1.4692 1.29279 0
M  V30 16179 C 1529.48 1.36481 3.30315 0
M  V30 16180 C 1529.15 2.85209 3.49237 0
M  V30 16181 C 1527.81 3.25822 3.54109 0
M  V30 16182 C 1530.16 3.81009 3.55642 0
M  V30 16183 C 1527.49 4.60968 3.62941 0
M  V30 16184 C 1529.84 5.15968 3.66005 0
M  V30 16185 C 1528.51 5.56142 3.69137 0
M  V30 16186 H 1527.78 0.314829 0.670793 0
M  V30 16187 H 1530.43 1.39073 1.31647 0
M  V30 16188 H 1528.73 0.754639 3.84464 0
M  V30 16189 H 1530.43 1.14597 3.84276 0
M  V30 16190 H 1527.02 2.52791 3.46114 0
M  V30 16191 H 1531.2 3.50734 3.5114 0
M  V30 16192 H 1526.46 4.91503 3.63641 0
M  V30 16193 H 1530.63 5.90037 3.69904 0
M  V30 16194 H 1528.26 6.60855 3.75732 0
M  V30 16195 N 1529.83 -1.29188 0.902679 0
M  V30 16196 C 1531.06 -2.00113 0.544953 0
M  V30 16197 C 1531.48 -1.67093 -0.863805 0
M  V30 16198 O 1530.84 -0.897179 -1.57545 0
M  V30 16199 C 1530.89 -3.52762 0.747741 0
M  V30 16200 O 1529.99 -4.11923 -0.198388 0
M  V30 16201 H 1529.33 -0.629054 0.212572 0
M  V30 16202 H 1531.86 -1.64611 1.21508 0
M  V30 16203 H 1531.87 -4.02732 0.653546 0
M  V30 16204 H 1530.55 -3.76131 1.77478 0
M  V30 16205 H 1529.13 -3.72857 -0.0563959 0
M  V30 16206 N 1531.31 -0.665475 -1.42861 0
M  V30 16207 C 1532.54 -0.191722 -2.05709 0
M  V30 16208 C 1532.95 1.15263 -1.50037 0
M  V30 16209 O 1532.29 1.72517 -0.63116 0
M  V30 16210 C 1532.35 -0.0393003 -3.59479 0
M  V30 16211 C 1532.02 -1.31088 -4.37795 0
M  V30 16212 C 1533.02 -2.24232 -4.69058 0
M  V30 16213 C 1530.7 -1.55588 -4.77596 0
M  V30 16214 C 1532.69 -3.4016 -5.39045 0
M  V30 16215 C 1530.38 -2.71807 -5.47325 0
M  V30 16216 C 1531.38 -3.63918 -5.77973 0
M  V30 16217 O 1531.07 -4.78105 -6.46275 0
M  V30 16218 H 1530.8 -0.0929467 -0.66958 0
M  V30 16219 H 1533.35 -0.909904 -1.84146 0
M  V30 16220 H 1531.58 0.734372 -3.79663 0
M  V30 16221 H 1533.27 0.39338 -4.03989 0
M  V30 16222 H 1534.04 -2.06551 -4.38819 0
M  V30 16223 H 1529.92 -0.847686 -4.53139 0
M  V30 16224 H 1533.46 -4.12076 -5.62885 0
M  V30 16225 H 1529.36 -2.89418 -5.76981 0
M  V30 16226 H 1530.13 -4.77529 -6.64762 0
M  V30 16227 N 1532.79 1.52222 -0.408187 0
M  V30 16228 C 1534.02 2.06221 0.16743 0
M  V30 16229 C 1534.43 1.27832 1.3894 0
M  V30 16230 O 1533.79 0.329933 1.79493 0
M  V30 16231 C 1533.84 3.57758 0.518804 0
M  V30 16232 O 1533.56 4.33181 -0.654639 0
M  V30 16233 C 1535.06 4.28171 1.14825 0
M  V30 16234 H 1532.28 0.670677 0.0208054 0
M  V30 16235 H 1534.83 1.96136 -0.578868 0
M  V30 16236 H 1532.98 3.67854 1.215 0
M  V30 16237 H 1533.4 5.23252 -0.361558 0
M  V30 16238 H 1534.87 5.3538 1.34433 0
M  V30 16239 H 1535.35 3.84586 2.12108 0
M  V30 16240 H 1535.95 4.22441 0.492291 0
M  V30 16241 N 1534.27 0.138579 1.5699 0
M  V30 16242 C 1535.68 -0.383633 1.82716 0
M  V30 16243 C 1536.03 -1.65304 1.05684 0
M  V30 16244 O 1535.15 -2.14318 0.299488 0
M  V30 16245 C 1535.75 -0.7028 3.3143 0
M  V30 16246 C 1534.31 -1.16957 3.57768 0
M  V30 16247 C 1533.46 -0.188295 2.7666 0
M  V30 16248 H 1536.41 0.363415 1.54483 0
M  V30 16249 H 1536.43 -1.55832 3.47126 0
M  V30 16250 H 1535.94 0.221271 3.87469 0
M  V30 16251 H 1534.04 -2.10987 3.07108 0
M  V30 16252 H 1534.15 -1.10136 4.66269 0
M  V30 16253 H 1532.52 -0.679255 2.45475 0
M  V30 16254 H 1533.3 0.729218 3.35466 0
M  V30 16255 N 1535.75 -1.57019 -0.13521 0
M  V30 16256 C 1536.97 -1.88528 -0.864399 0
M  V30 16257 C 1537.4 -0.728852 -1.73405 0
M  V30 16258 O 1536.75 0.321196 -1.78432 0
M  V30 16259 C 1536.8 -3.18694 -1.6872 0
M  V30 16260 O 1535.91 -3.03458 -2.79262 0
M  V30 16261 H 1535.25 -0.61909 -0.24005 0
M  V30 16262 H 1537.78 -2.04233 -0.12248 0
M  V30 16263 H 1537.79 -3.51011 -2.0798 0
M  V30 16264 H 1536.46 -4.02462 -1.04868 0
M  V30 16265 H 1535.04 -2.82575 -2.43323 0
M  V30 16266 N 1537.22 0.404919 -1.52309 0
M  V30 16267 C 1538.45 1.17139 -1.70182 0
M  V30 16268 C 1538.86 1.84642 -0.412805 0
M  V30 16269 O 1538.21 1.72873 0.621347 0
M  V30 16270 C 1538.27 2.27402 -2.78439 0
M  V30 16271 C 1537.93 1.8 -4.20058 0
M  V30 16272 C 1538.93 1.28546 -5.03758 0
M  V30 16273 C 1536.61 1.86706 -4.66311 0
M  V30 16274 C 1538.61 0.84425 -6.31784 0
M  V30 16275 C 1536.29 1.42197 -5.94326 0
M  V30 16276 C 1537.29 0.911418 -6.76892 0
M  V30 16277 O 1536.98 0.472762 -8.02509 0
M  V30 16278 H 1536.71 0.357845 -0.573518 0
M  V30 16279 H 1539.27 0.481939 -1.99666 0
M  V30 16280 H 1537.5 2.99724 -2.44341 0
M  V30 16281 H 1539.19 2.89143 -2.8487 0
M  V30 16282 H 1539.95 1.22734 -4.69213 0
M  V30 16283 H 1535.83 2.25389 -4.02145 0
M  V30 16284 H 1539.37 0.445063 -6.96179 0
M  V30 16285 H 1535.27 1.47689 -6.28377 0
M  V30 16286 H 1536.04 0.595689 -8.16329 0
M  V30 16287 N 1538.7 1.43003 0.662408 0
M  V30 16288 C 1539.67 1.4713 1.75743 0
M  V30 16289 C 1540.67 0.357203 1.56782 0
M  V30 16290 O 1541.86 0.618566 1.62848 0
M  V30 16291 C 1538.99 1.31499 3.14517 0
M  V30 16292 H 1540.18 2.44641 1.73467 0
M  V30 16293 H 1537.73 1.29633 0.873208 0
M  V30 16294 H 1538.47 0.349596 3.2241 0
M  V30 16295 H 1538.25 2.12253 3.29683 0
M  V30 16296 H 1539.74 1.37298 3.94384 0
M  V30 16297 N 1540.18 -0.899904 1.29381 0
M  V30 16298 C 1541.13 -2.004 1.14493 0
M  V30 16299 C 1542.1 -1.66056 0.0383099 0
M  V30 16300 O 1543.28 -1.89687 0.20579 0
M  V30 16301 C 1540.42 -3.35039 0.827237 0
M  V30 16302 C 1539.54 -3.82166 2.01427 0
M  V30 16303 C 1538.67 -5.0538 1.63598 0
M  V30 16304 C 1537.71 -5.44876 2.78884 0
M  V30 16305 N 1536.85 -6.59276 2.41452 0
M  V30 16306 H 1541.69 -2.12466 2.08955 0
M  V30 16307 H 1539.22 -1.0405 1.03981 0
M  V30 16308 H 1541.18 -4.12511 0.62373 0
M  V30 16309 H 1539.81 -3.227 -0.0804772 0
M  V30 16310 H 1538.86 -3.00731 2.32949 0
M  V30 16311 H 1540.18 -4.07387 2.87814 0
M  V30 16312 H 1539.33 -5.90436 1.39534 0
M  V30 16313 H 1538.07 -4.81998 0.743593 0
M  V30 16314 H 1537.07 -4.58355 3.0363 0
M  V30 16315 H 1538.3 -5.7024 3.68786 0
M  V30 16316 H 1536.24 -6.37498 1.54701 0
M  V30 16317 H 1536.16 -6.84293 3.21372 0
M  V30 16318 H 1537.43 -7.47602 2.20708 0
M  V30 16319 N 1541.66 -1.11854 -1.11024 0
M  V30 16320 C 1542.62 -0.784033 -2.15373 0
M  V30 16321 C 1543.62 0.198686 -1.59568 0
M  V30 16322 O 1544.81 -0.0263428 -1.7418 0
M  V30 16323 C 1541.94 -0.163987 -3.40505 0
M  V30 16324 H 1543.14 -1.70849 -2.46477 0
M  V30 16325 H 1540.69 -0.920988 -1.26283 0
M  V30 16326 H 1541.42 0.770483 -3.15014 0
M  V30 16327 H 1541.21 -0.871447 -3.82293 0
M  V30 16328 H 1542.7 0.0537739 -4.17565 0
M  V30 16329 N 1543.14 1.28707 -0.909517 0
M  V30 16330 C 1544.08 2.27427 -0.393155 0
M  V30 16331 C 1545.05 1.57414 0.53009 0
M  V30 16332 O 1546.24 1.85339 0.453205 0
M  V30 16333 C 1543.38 3.4317 0.364507 0
M  V30 16334 C 1542.49 4.27942 -0.590757 0
M  V30 16335 C 1541.63 5.30878 0.184931 0
M  V30 16336 C 1540.67 6.07311 -0.764222 0
M  V30 16337 N 1539.8 7.02096 -0.0223203 0
M  V30 16338 H 1544.64 2.70974 -1.24005 0
M  V30 16339 H 1542.18 1.33265 -0.6228 0
M  V30 16340 H 1544.14 4.09063 0.819937 0
M  V30 16341 H 1542.77 3.00625 1.17578 0
M  V30 16342 H 1541.82 3.62131 -1.16471 0
M  V30 16343 H 1543.13 4.81102 -1.31689 0
M  V30 16344 H 1542.29 6.02635 0.701116 0
M  V30 16345 H 1541.02 4.78474 0.944143 0
M  V30 16346 H 1540.03 5.34408 -1.29182 0
M  V30 16347 H 1541.25 6.61804 -1.52292 0
M  V30 16348 H 1539.2 6.52048 0.718978 0
M  V30 16349 H 1539.12 7.5286 -0.688359 0
M  V30 16350 H 1540.39 7.78059 0.473807 0
M  V30 16351 N 1544.61 0.673042 1.42506 0
M  V30 16352 C 1545.86 0.1918 2.00786 0
M  V30 16353 C 1546.18 -1.20814 1.53829 0
M  V30 16354 O 1547.38 -1.78566 2.04515 0
M  V30 16355 C 1545.84 0.292045 3.58713 0
M  V30 16356 C 1545.45 1.69593 4.14659 0
M  V30 16357 C 1547.19 -0.130575 4.24299 0
M  V30 16358 C 1545.1 1.74904 5.64945 0
M  V30 16359 H 1544.03 0.0679452 0.750932 0
M  V30 16360 H 1546.68 0.837968 1.63249 0
M  V30 16361 H 1545.06 -0.421985 3.93745 0
M  V30 16362 H 1546.23 2.4369 3.9109 0
M  V30 16363 H 1544.55 2.06625 3.61518 0
M  V30 16364 H 1547.15 -0.11102 5.34585 0
M  V30 16365 H 1547.49 -1.16552 3.99651 0
M  V30 16366 H 1548.02 0.532386 3.94221 0
M  V30 16367 H 1544.76 2.76374 5.94388 0
M  V30 16368 H 1544.28 1.0516 5.9051 0
M  V30 16369 H 1545.96 1.50168 6.29332 0
M  V30 16370 N 1546.09 -1.52004 0.416254 0
M  V30 16371 C 1547.32 -2.0679 -0.158937 0
M  V30 16372 C 1547.74 -1.28366 -1.37491 0
M  V30 16373 O 1547.1 -0.315815 -1.78528 0
M  V30 16374 C 1547.15 -3.57381 -0.480717 0
M  V30 16375 O 1546.25 -3.81321 -1.5706 0
M  V30 16376 H 1545.59 -0.663907 -0.0110938 0
M  V30 16377 H 1548.12 -1.95863 0.591509 0
M  V30 16378 H 1548.13 -4.01283 -0.737297 0
M  V30 16379 H 1546.81 -4.13893 0.408137 0
M  V30 16380 H 1545.39 -3.49296 -1.30563 0
M  V30 16381 N 1547.57 -0.146903 -1.56914 0
M  V30 16382 C 1548.53 0.778709 -2.15566 0
M  V30 16383 C 1549.53 1.1753 -1.09742 0
M  V30 16384 O 1550.72 1.09624 -1.35382 0
M  V30 16385 C 1547.86 2.0567 -2.71869 0
M  V30 16386 H 1549.05 0.268506 -2.98696 0
M  V30 16387 H 1546.6 0.10254 -1.55963 0
M  V30 16388 H 1547.34 2.61057 -1.92405 0
M  V30 16389 H 1547.12 1.78154 -3.4929 0
M  V30 16390 H 1548.61 2.71779 -3.17059 0
M  V30 16391 N 1549.05 1.57088 0.126881 0
M  V30 16392 C 1550.01 1.98836 1.14003 0
M  V30 16393 C 1551.01 0.877454 1.34749 0
M  V30 16394 O 1552.2 1.14366 1.314 0
M  V30 16395 C 1549.33 2.32171 2.49618 0
M  V30 16396 H 1550.53 2.89541 0.7814 0
M  V30 16397 H 1548.08 1.51835 0.370915 0
M  V30 16398 H 1548.81 1.44321 2.90417 0
M  V30 16399 H 1548.6 3.13187 2.35916 0
M  V30 16400 H 1550.09 2.65238 3.2255 0
M  V30 16401 N 1550.53 -0.396836 1.52522 0
M  V30 16402 C 1551.94 -0.736347 1.41598 0
M  V30 16403 C 1552.14 -1.944 0.530191 0
M  V30 16404 O 1551.2 -2.525 0.000649033 0
M  V30 16405 C 1552.51 -0.978775 2.84325 0
M  V30 16406 C 1554.06 -1.08073 2.9375 0
M  V30 16407 C 1554.53 -1.35584 4.37471 0
M  V30 16408 N 1556.03 -1.42423 4.40761 0
M  V30 16409 C 1556.76 -1.6536 5.49039 0
M  V30 16410 N 1556.26 -1.85819 6.67415 0
M  V30 16411 N 1558.05 -1.67475 5.36571 0
M  V30 16412 H 1550.2 0.397925 2.08639 0
M  V30 16413 H 1552.46 0.115803 0.9409 0
M  V30 16414 H 1552.17 -0.16362 3.51319 0
M  V30 16415 H 1552.04 -1.8956 3.26109 0
M  V30 16416 H 1554.43 -1.88646 2.26928 0
M  V30 16417 H 1554.51 -0.141996 2.55406 0
M  V30 16418 H 1554.16 -0.555238 5.04856 0
M  V30 16419 H 1554.09 -2.3073 4.73362 0
M  V30 16420 H 1556.58 -1.28352 3.55435 0
M  V30 16421 H 1556.89 -2.02806 7.45714 0
M  V30 16422 H 1555.23 -1.83059 6.70458 0
M  V30 16423 H 1558.43 -1.51038 4.43064 0
M  V30 16424 H 1558.6 -1.85011 6.21027 0
M  V30 16425 N 1552.01 -1.43353 -0.654814 0
M  V30 16426 C 1553.25 -1.44885 -1.41473 0
M  V30 16427 C 1553.58 -0.0725577 -1.94365 0
M  V30 16428 O 1552.84 0.9222 -1.72609 0
M  V30 16429 C 1553.13 -2.437 -2.61429 0
M  V30 16430 C 1552.8 -3.89612 -2.26965 0
M  V30 16431 C 1551.46 -4.29353 -2.17278 0
M  V30 16432 C 1553.81 -4.81569 -1.99351 0
M  V30 16433 C 1551.14 -5.59005 -1.7813 0
M  V30 16434 C 1553.49 -6.11584 -1.61702 0
M  V30 16435 C 1552.16 -6.50303 -1.50539 0
M  V30 16436 H 1551.43 -0.530172 -0.517686 0
M  V30 16437 H 1554.08 -1.76422 -0.744824 0
M  V30 16438 H 1552.38 -2.05561 -3.33544 0
M  V30 16439 H 1554.08 -2.42141 -3.19638 0
M  V30 16440 H 1550.67 -3.58159 -2.35414 0
M  V30 16441 H 1554.85 -4.51639 -2.05757 0
M  V30 16442 H 1550.11 -5.87845 -1.68072 0
M  V30 16443 H 1554.28 -6.82312 -1.39365 0
M  V30 16444 H 1551.91 -7.50673 -1.19975 0
M  V30 16445 N 1553.48 0.89303 -1.29857 0
M  V30 16446 C 1554.73 1.64413 -1.18214 0
M  V30 16447 C 1555.06 1.92687 0.26492 0
M  V30 16448 O 1554.31 1.54044 1.20702 0
M  V30 16449 C 1554.61 2.99661 -1.94777 0
M  V30 16450 C 1554.28 2.90969 -3.44453 0
M  V30 16451 C 1552.94 2.88306 -3.8527 0
M  V30 16452 C 1555.29 2.79686 -4.39801 0
M  V30 16453 C 1552.62 2.72188 -5.19741 0
M  V30 16454 C 1554.97 2.65107 -5.7437 0
M  V30 16455 C 1553.64 2.60814 -6.14437 0
M  V30 16456 H 1552.91 0.60163 -0.432577 0
M  V30 16457 H 1555.55 1.03891 -1.60869 0
M  V30 16458 H 1553.86 3.64087 -1.44733 0
M  V30 16459 H 1555.56 3.56722 -1.83168 0
M  V30 16460 H 1552.15 2.93848 -3.12012 0
M  V30 16461 H 1556.33 2.80816 -4.09214 0
M  V30 16462 H 1551.59 2.67273 -5.49886 0
M  V30 16463 H 1555.76 2.55349 -6.47897 0
M  V30 16464 H 1553.39 2.48082 -7.18582 0
M  V30 16465 N 1554.96 1.12442 1.10429 0
M  V30 16466 C 1555.89 0.750131 2.16577 0
M  V30 16467 C 1556.91 -0.223265 1.61262 0
M  V30 16468 O 1558.1 -0.00459454 1.78499 0
M  V30 16469 C 1555.2 0.0895474 3.38782 0
M  V30 16470 C 1554.37 1.09242 4.23539 0
M  V30 16471 C 1553.43 0.45945 5.2419 0
M  V30 16472 O 1552.45 1.11646 5.58143 0
M  V30 16473 N 1553.66 -0.773093 5.75329 0
M  V30 16474 H 1556.42 1.66349 2.49295 0
M  V30 16475 H 1553.98 1.01603 1.26049 0
M  V30 16476 H 1555.97 -0.345895 4.03219 0
M  V30 16477 H 1554.54 -0.726572 3.04039 0
M  V30 16478 H 1553.76 1.70549 3.55396 0
M  V30 16479 H 1555.05 1.77057 4.76999 0
M  V30 16480 H 1554.45 -1.32585 5.49943 0
M  V30 16481 H 1553.01 -1.15135 6.41551 0
M  V30 16482 N 1556.44 -1.28223 0.91633 0
M  V30 16483 C 1557.37 -2.29623 0.423735 0
M  V30 16484 C 1558.35 -1.62274 -0.510016 0
M  V30 16485 O 1559.54 -1.89666 -0.4172 0
M  V30 16486 C 1556.67 -3.45684 -0.334686 0
M  V30 16487 C 1555.62 -4.24949 0.510169 0
M  V30 16488 C 1554.95 -5.33371 -0.376745 0
M  V30 16489 C 1556.25 -4.91438 1.76877 0
M  V30 16490 H 1557.94 -2.71076 1.27115 0
M  V30 16491 H 1555.49 -1.30316 0.612678 0
M  V30 16492 H 1557.44 -4.1571 -0.690154 0
M  V30 16493 H 1556.16 -3.03118 -1.21603 0
M  V30 16494 H 1554.82 -3.56653 0.848191 0
M  V30 16495 H 1554.47 -4.87048 -1.25671 0
M  V30 16496 H 1554.17 -5.87309 0.18496 0
M  V30 16497 H 1555.69 -6.06244 -0.728039 0
M  V30 16498 H 1557.11 -5.53812 1.48205 0
M  V30 16499 H 1555.5 -5.55384 2.27308 0
M  V30 16500 H 1556.57 -4.15783 2.49505 0
M  V30 16501 N 1557.92 -0.68059 -1.42147 0
M  V30 16502 C 1558.85 -0.0199376 -2.33491 0
M  V30 16503 C 1559.83 0.783164 -1.50999 0
M  V30 16504 O 1561.01 0.739154 -1.79583 0
M  V30 16505 C 1558.14 0.927902 -3.34675 0
M  V30 16506 C 1557.1 0.232979 -4.27365 0
M  V30 16507 C 1556.42 1.29415 -5.18802 0
M  V30 16508 C 1557.72 -0.891559 -5.14634 0
M  V30 16509 H 1559.42 -0.782823 -2.88985 0
M  V30 16510 H 1556.96 -0.377898 -1.38953 0
M  V30 16511 H 1558.92 1.3992 -3.97493 0
M  V30 16512 H 1557.64 1.72228 -2.77498 0
M  V30 16513 H 1556.3 -0.21814 -3.6595 0
M  V30 16514 H 1555.95 2.08067 -4.57949 0
M  V30 16515 H 1555.65 0.834274 -5.81647 0
M  V30 16516 H 1557.17 1.76627 -5.84496 0
M  V30 16517 H 1558.59 -0.501219 -5.71105 0
M  V30 16518 H 1556.98 -1.27759 -5.86343 0
M  V30 16519 H 1558.05 -1.73781 -4.5269 0
M  V30 16520 N 1559.4 1.51781 -0.424309 0
M  V30 16521 C 1560.67 1.94514 0.205791 0
M  V30 16522 C 1561.05 1.36219 1.61269 0
M  V30 16523 O 1560.4 0.544019 2.21929 0
M  V30 16524 C 1560.61 3.48445 0.196749 0
M  V30 16525 C 1561.96 4.22628 0.408702 0
M  V30 16526 O 1562.98 3.55133 0.275441 0
M  V30 16527 O 1561.84 5.42344 0.672698 0
M  V30 16528 H 1558.94 0.815576 0.136983 0
M  V30 16529 H 1561.48 1.6273 -0.481349 0
M  V30 16530 H 1560.25 3.83297 -0.787342 0
M  V30 16531 H 1559.88 3.86634 0.92735 0
M  V30 16532 N 1560.87 0.155222 1.56834 0
M  V30 16533 C 1562.29 -0.201116 1.58328 0
M  V30 16534 C 1562.49 -1.64061 1.16988 0
M  V30 16535 O 1561.55 -2.36892 0.873989 0
M  V30 16536 C 1562.86 0.0651005 3.0063 0
M  V30 16537 C 1564.41 0.00203866 3.13 0
M  V30 16538 C 1564.88 0.241032 4.57365 0
M  V30 16539 N 1566.37 0.188245 4.62817 0
M  V30 16540 C 1567.11 0.347562 5.72346 0
M  V30 16541 N 1566.6 0.565052 6.90492 0
M  V30 16542 N 1568.4 0.284589 5.61379 0
M  V30 16543 H 1560.55 1.09503 1.81997 0
M  V30 16544 H 1562.81 0.434106 0.842767 0
M  V30 16545 H 1562.52 1.06167 3.35293 0
M  V30 16546 H 1562.39 -0.650601 3.71547 0
M  V30 16547 H 1564.78 -0.98509 2.78173 0
M  V30 16548 H 1564.86 0.750199 2.44552 0
M  V30 16549 H 1564.5 1.2253 4.92898 0
M  V30 16550 H 1564.43 -0.52755 5.23951 0
M  V30 16551 H 1566.92 0.0251352 3.77892 0
M  V30 16552 H 1567.24 0.676502 7.69833 0
M  V30 16553 H 1565.58 0.601473 6.92392 0
M  V30 16554 H 1568.77 0.115381 4.67958 0
M  V30 16555 H 1568.95 0.412182 6.46688 0
M  V30 16556 N 1562.35 -1.57153 -0.118549 0
M  V30 16557 C 1563.28 -1.97022 -1.1711 0
M  V30 16558 C 1564.3 -0.869599 -1.37629 0
M  V30 16559 O 1565.49 -1.14788 -1.36696 0
M  V30 16560 C 1562.59 -2.25371 -2.53103 0
M  V30 16561 C 1561.76 -3.56677 -2.5318 0
M  V30 16562 C 1560.82 -3.73233 -3.70922 0
M  V30 16563 O 1559.84 -4.4534 -3.54487 0
M  V30 16564 N 1561.05 -3.12036 -4.89504 0
M  V30 16565 H 1563.81 -2.87921 -0.831959 0
M  V30 16566 H 1561.37 -1.58947 -0.307817 0
M  V30 16567 H 1563.36 -2.33662 -3.3043 0
M  V30 16568 H 1561.93 -1.40597 -2.79197 0
M  V30 16569 H 1561.15 -3.5957 -1.61564 0
M  V30 16570 H 1562.44 -4.42982 -2.50288 0
M  V30 16571 H 1561.84 -2.53422 -5.05761 0
M  V30 16572 H 1560.4 -3.25846 -5.64506 0
M  V30 16573 N 1563.83 0.388742 -1.5273 0
M  V30 16574 C 1565.24 0.966667 -1.59726 0
M  V30 16575 C 1565.59 1.90963 -0.450272 0
M  V30 16576 O 1564.72 2.12153 0.426611 0
M  V30 16577 C 1565.31 1.75998 -2.895 0
M  V30 16578 C 1563.87 2.28761 -2.98907 0
M  V30 16579 C 1563.02 1.09322 -2.54841 0
M  V30 16580 H 1565.97 0.16828 -1.57805 0
M  V30 16581 H 1565.99 2.61924 -2.76 0
M  V30 16582 H 1565.5 1.07342 -3.7296 0
M  V30 16583 H 1563.6 3.00728 -2.19985 0
M  V30 16584 H 1563.72 2.58229 -4.03552 0
M  V30 16585 H 1562.08 1.45332 -2.09167 0
M  V30 16586 H 1562.86 0.421999 -3.40696 0
M  V30 16587 N 1565.31 1.43698 0.647203 0
M  V30 16588 C 1566.72 1.40586 1.22851 0
M  V30 16589 C 1567.07 0.112981 1.95874 0
M  V30 16590 O 1566.19 -0.787342 2.01569 0
M  V30 16591 C 1566.79 2.54672 2.23445 0
M  V30 16592 C 1565.35 2.54806 2.7704 0
M  V30 16593 C 1564.5 2.32076 1.51777 0
M  V30 16594 H 1567.45 1.52512 0.43885 0
M  V30 16595 H 1567.47 2.26505 3.05738 0
M  V30 16596 H 1566.98 3.48755 1.70269 0
M  V30 16597 H 1565.08 1.64619 3.34262 0
M  V30 16598 H 1565.19 3.52771 3.24175 0
M  V30 16599 H 1563.56 1.80858 1.79339 0
M  V30 16600 H 1564.34 3.28252 1.00527 0
M  V30 16601 N 1566.79 -0.886131 1.30328 0
M  V30 16602 C 1568.04 -1.63255 1.18451 0
M  V30 16603 C 1568.35 -1.93864 -0.260016 0
M  V30 16604 O 1569.55 -2.66851 -0.500288 0
M  V30 16605 C 1568.01 -2.94232 2.07257 0
M  V30 16606 C 1567.62 -2.71168 3.56612 0
M  V30 16607 C 1569.36 -3.72193 2.04139 0
M  V30 16608 C 1567.27 -3.97954 4.37478 0
M  V30 16609 H 1566.2 -0.612491 0.439739 0
M  V30 16610 H 1568.85 -0.981129 1.55068 0
M  V30 16611 H 1567.23 -3.60661 1.63522 0
M  V30 16612 H 1568.41 -2.13247 4.08488 0
M  V30 16613 H 1566.72 -2.06584 3.61541 0
M  V30 16614 H 1569.32 -4.66219 2.61809 0
M  V30 16615 H 1569.66 -4.03495 1.02459 0
M  V30 16616 H 1570.19 -3.12624 2.45989 0
M  V30 16617 H 1566.93 -3.71811 5.39849 0
M  V30 16618 H 1566.45 -4.55384 3.90366 0
M  V30 16619 H 1568.13 -4.65984 4.48852 0
M  V30 16620 N 1568.26 -1.13026 -1.09832 0
M  V30 16621 C 1569.49 -0.912803 -1.86233 0
M  V30 16622 C 1569.91 0.532955 -1.80392 0
M  V30 16623 O 1569.27 1.37783 -1.17837 0
M  V30 16624 C 1569.32 -1.40002 -3.32313 0
M  V30 16625 O 1568.42 -0.582537 -4.08265 0
M  V30 16626 H 1567.77 -0.327464 -0.577636 0
M  V30 16627 H 1570.3 -1.5039 -1.38723 0
M  V30 16628 H 1570.31 -1.40182 -3.83162 0
M  V30 16629 H 1568.98 -2.4527 -3.3588 0
M  V30 16630 H 1567.56 -0.648255 -3.67222 0
M  V30 16631 N 1569.74 1.27735 -0.923117 0
M  V30 16632 C 1570.99 1.94858 -0.56198 0
M  V30 16633 C 1571.32 1.72414 0.893698 0
M  V30 16634 O 1570.6 1.05054 1.63689 0
M  V30 16635 C 1570.88 3.49102 -0.883173 0
M  V30 16636 C 1570.73 3.80908 -2.39227 0
M  V30 16637 C 1572.05 4.38405 -0.385848 0
M  V30 16638 H 1569.17 0.707728 -0.205646 0
M  V30 16639 H 1571.81 1.50935 -1.15406 0
M  V30 16640 H 1569.96 3.86644 -0.379292 0
M  V30 16641 H 1571.63 3.53182 -2.96749 0
M  V30 16642 H 1569.88 3.2762 -2.84337 0
M  V30 16643 H 1570.55 4.88653 -2.56754 0
M  V30 16644 H 1573.02 4.07988 -0.817631 0
M  V30 16645 H 1571.9 5.45161 -0.63958 0
M  V30 16646 H 1572.16 4.36296 0.714009 0
M  V30 16647 N 1571.22 0.688118 1.41784 0
M  V30 16648 C 1572.45 0.224424 2.05377 0
M  V30 16649 C 1572.86 -1.12862 1.51852 0
M  V30 16650 O 1572.2 -1.71491 0.658526 0
M  V30 16651 C 1572.26 0.0964852 3.5937 0
M  V30 16652 C 1571.93 1.38037 4.35655 0
M  V30 16653 C 1572.92 2.31666 4.65432 0
M  V30 16654 C 1570.61 1.63167 4.7506 0
M  V30 16655 C 1572.6 3.48693 5.33565 0
M  V30 16656 C 1570.29 2.8048 5.42931 0
M  V30 16657 C 1571.29 3.73067 5.7211 0
M  V30 16658 O 1570.98 4.88326 6.38587 0
M  V30 16659 H 1570.71 0.103587 0.668016 0
M  V30 16660 H 1573.26 0.939084 1.82676 0
M  V30 16661 H 1571.49 -0.673878 3.80783 0
M  V30 16662 H 1573.18 -0.329059 4.04564 0
M  V30 16663 H 1573.95 2.13506 4.35477 0
M  V30 16664 H 1569.83 0.919669 4.51733 0
M  V30 16665 H 1573.37 4.20979 5.56258 0
M  V30 16666 H 1569.27 2.9856 5.72304 0
M  V30 16667 H 1570.04 4.88044 6.57081 0
M  V30 16668 N 1572.7 -1.51554 0.432352 0
M  V30 16669 C 1573.65 -2.29204 -0.396044 0
M  V30 16670 C 1574.64 -1.34846 -1.02532 0
M  V30 16671 O 1575.85 -1.52209 -0.960861 0
M  V30 16672 H 1572.22 -0.737587 -0.146525 0
M  V30 16673 H 1574.19 -2.97085 0.279781 0
M  V30 16674 C 1572.94 -3.1427 -1.4876 0
M  V30 16675 H 1572.26 -3.8676 -1.01274 0
M  V30 16676 H 1573.7 -3.71667 -2.04058 0
M  V30 16677 C 1572.16 -2.29322 -2.46806 0
M  V30 16678 O 1572.69 -1.94941 -3.51228 0
M  V30 16679 N 1570.9 -1.92641 -2.17573 0
M  V30 16680 H 1570.45 -2.208 -1.32685 0
M  V30 16681 H 1570.4 -1.361 -2.83415 0
M  V30 16682 N 1574.18 -0.163538 -1.56749 0
M  V30 16683 C 1575.4 0.489888 -2.01017 0
M  V30 16684 C 1575.82 1.57327 -1.04373 0
M  V30 16685 O 1575.18 1.82449 -0.0433414 0
M  V30 16686 C 1575.23 1.07537 -3.45135 0
M  V30 16687 O 1574.95 0.0352465 -4.38086 0
M  V30 16688 C 1576.45 1.80779 -4.04764 0
M  V30 16689 H 1573.67 0.126095 -0.659046 0
M  V30 16690 H 1576.21 -0.262982 -2.02802 0
M  V30 16691 H 1574.37 1.77877 -3.44149 0
M  V30 16692 H 1574.78 0.466426 -5.22422 0
M  V30 16693 H 1576.26 2.17014 -5.07552 0
M  V30 16694 H 1576.73 2.6999 -3.46413 0
M  V30 16695 H 1577.34 1.15098 -4.09429 0
M  V30 16696 N 1575.65 1.57214 0.110213 0
M  V30 16697 C 1576.62 2.00034 1.11888 0
M  V30 16698 C 1577.62 0.891697 1.33811 0
M  V30 16699 O 1578.81 1.15754 1.3018 0
M  V30 16700 C 1575.94 2.34806 2.47142 0
M  V30 16701 H 1577.13 2.90354 0.750647 0
M  V30 16702 H 1574.69 1.5222 0.35479 0
M  V30 16703 H 1575.42 1.47393 2.8887 0
M  V30 16704 H 1575.21 3.15671 2.32581 0
M  V30 16705 H 1576.7 2.68644 3.19719 0
M  V30 16706 N 1577.13 -0.380637 1.52934 0
M  V30 16707 C 1578.38 -1.12261 1.68053 0
M  V30 16708 C 1578.7 -1.90263 0.427191 0
M  V30 16709 O 1577.97 -1.87768 -0.558559 0
M  V30 16710 H 1576.55 -0.41742 0.619491 0
M  V30 16711 H 1579.21 -0.430906 1.90077 0
M  V30 16712 H 1578.31 -1.82085 2.53479 0
M  V30 16713 N 1578.61 -1.44039 -0.639573 0
M  V30 16714 C 1579.52 -1.52728 -1.78077 0
M  V30 16715 C 1580.54 -0.413467 -1.69016 0
M  V30 16716 O 1581.71 -0.669592 -1.89943 0
M  V30 16717 C 1578.78 -1.46078 -3.14424 0
M  V30 16718 C 1577.84 -2.68242 -3.35179 0
M  V30 16719 C 1577.07 -2.61899 -4.65021 0
M  V30 16720 O 1577.29 -1.67431 -5.45273 0
M  V30 16721 O 1576.23 -3.52619 -4.87795 0
M  V30 16722 H 1580.05 -2.49122 -1.737 0
M  V30 16723 H 1577.64 -1.26191 -0.799755 0
M  V30 16724 H 1579.52 -1.44861 -3.95719 0
M  V30 16725 H 1578.2 -0.528236 -3.19361 0
M  V30 16726 H 1577.1 -2.75028 -2.53595 0
M  V30 16727 H 1578.44 -3.60514 -3.35098 0
M  V30 16728 N 1580.09 0.879207 -1.30796 0
M  V30 16729 C 1581.04 1.98553 -1.17667 0
M  V30 16730 C 1582.01 1.65974 -0.0647231 0
M  V30 16731 O 1583.19 1.89336 -0.235941 0
M  V30 16732 C 1580.33 3.3368 -0.880434 0
M  V30 16733 C 1579.44 3.78913 -2.07482 0
M  V30 16734 C 1578.58 5.02714 -1.71617 0
M  V30 16735 C 1577.62 5.40371 -2.87517 0
M  V30 16736 N 1576.75 6.55352 -2.5191 0
M  V30 16737 H 1581.59 2.09115 -2.12309 0
M  V30 16738 H 1579.13 1.02382 -1.05623 0
M  V30 16739 H 1581.09 4.11467 -0.689278 0
M  V30 16740 H 1579.72 3.22787 0.0291283 0
M  V30 16741 H 1578.77 2.96987 -2.37704 0
M  V30 16742 H 1580.08 4.02757 -2.94259 0
M  V30 16743 H 1579.24 5.88142 -1.4891 0
M  V30 16744 H 1577.98 4.80754 -0.820181 0
M  V30 16745 H 1576.98 4.53466 -3.10883 0
M  V30 16746 H 1578.21 5.64301 -3.77811 0
M  V30 16747 H 1576.15 6.34956 -1.64823 0
M  V30 16748 H 1576.07 6.79093 -3.32217 0
M  V30 16749 H 1577.34 7.43996 -2.32573 0
M  V30 16750 N 1581.57 1.13606 1.09231 0
M  V30 16751 C 1582.81 0.910333 1.81891 0
M  V30 16752 C 1583.17 -0.557482 1.84146 0
M  V30 16753 O 1582.46 -1.40735 1.30016 0
M  V30 16754 C 1582.66 1.43456 3.27345 0
M  V30 16755 C 1582.48 2.95182 3.39261 0
M  V30 16756 C 1581.25 3.63546 3.50945 0
M  V30 16757 C 1583.45 3.93105 3.31621 0
M  V30 16758 N 1581.43 5.03265 3.51564 0
M  V30 16759 C 1582.81 5.19026 3.39133 0
M  V30 16760 C 1584.86 3.85343 3.15302 0
M  V30 16761 C 1583.56 6.38094 3.32007 0
M  V30 16762 C 1585.59 5.03947 3.09502 0
M  V30 16763 C 1584.95 6.28733 3.17608 0
M  V30 16764 H 1581.05 0.386545 0.679785 0
M  V30 16765 H 1583.63 1.44465 1.30529 0
M  V30 16766 H 1581.81 0.927132 3.77172 0
M  V30 16767 H 1583.54 1.14962 3.88028 0
M  V30 16768 H 1580.29 3.14072 3.54479 0
M  V30 16769 H 1580.72 5.76179 3.55453 0
M  V30 16770 H 1585.36 2.8975 3.07904 0
M  V30 16771 H 1583.08 7.3394 3.38168 0
M  V30 16772 H 1586.66 4.99683 2.98008 0
M  V30 16773 H 1585.54 7.18967 3.13139 0
M  V30 16774 N 1583.05 -1.27244 0.929878 0
M  V30 16775 C 1584.32 -1.89369 0.489774 0
M  V30 16776 C 1584.7 -1.84142 -1.03222 0
M  V30 16777 O 1584.05 -1.2881 -1.88733 0
M  V30 16778 C 1584.26 -3.33196 1.03833 0
M  V30 16779 C 1585.61 -4.101 1.10013 0
M  V30 16780 O 1586.63 -3.42221 0.988106 0
M  V30 16781 O 1585.49 -5.31468 1.27296 0
M  V30 16782 H 1582.59 -0.811789 0.157882 0
M  V30 16783 H 1585.13 -1.35496 1.02171 0
M  V30 16784 H 1583.9 -3.31304 2.08214 0
M  V30 16785 H 1583.53 -3.94592 0.488167 0
M  V30 16786 N 1584.52 -0.695628 -1.41417 0
M  V30 16787 C 1585.47 -0.0189456 -2.32592 0
M  V30 16788 C 1586.47 0.76848 -1.50966 0
M  V30 16789 O 1587.67 0.674096 -1.66901 0
M  V30 16790 H 1584.05 0.0126742 -0.751893 0
M  V30 16791 H 1586.02 -0.804968 -2.87337 0
M  V30 16792 C 1584.77 0.903458 -3.35757 0
M  V30 16793 H 1584.09 0.306963 -3.9862 0
M  V30 16794 H 1585.53 1.34525 -4.02093 0
M  V30 16795 C 1583.99 2.01966 -2.69651 0
M  V30 16796 O 1584.52 3.10845 -2.54438 0
M  V30 16797 N 1582.72 1.79741 -2.28345 0
M  V30 16798 H 1582.27 0.911929 -2.40918 0
M  V30 16799 H 1582.23 2.54609 -1.84449 0
M  V30 16800 N 1586 1.51322 -0.440383 0
M  V30 16801 C 1587.25 2.02113 0.125062 0
M  V30 16802 C 1587.58 1.32436 1.42446 0
M  V30 16803 O 1586.83 0.428981 1.9094 0
M  V30 16804 C 1587.13 3.55287 0.388079 0
M  V30 16805 C 1586.8 4.43272 -0.825876 0
M  V30 16806 C 1585.46 4.67039 -1.15878 0
M  V30 16807 C 1587.81 4.94872 -1.63557 0
M  V30 16808 C 1585.14 5.39652 -2.30201 0
M  V30 16809 C 1587.49 5.68739 -2.76981 0
M  V30 16810 C 1586.15 5.90769 -3.10722 0
M  V30 16811 H 1585.42 0.739585 0.0457635 0
M  V30 16812 H 1588.07 1.82243 -0.588201 0
M  V30 16813 H 1586.38 3.73505 1.18327 0
M  V30 16814 H 1588.07 3.92124 0.839055 0
M  V30 16815 H 1584.66 4.24972 -0.556468 0
M  V30 16816 H 1588.85 4.76391 -1.39158 0
M  V30 16817 H 1584.1 5.54923 -2.56653 0
M  V30 16818 H 1588.28 6.07711 -3.40089 0
M  V30 16819 H 1585.9 6.46814 -3.9942 0
M  V30 16820 N 1587.48 0.171848 1.5666 0
M  V30 16821 C 1588.41 -0.789671 2.15167 0
M  V30 16822 C 1589.42 -1.19335 1.10739 0
M  V30 16823 O 1590.61 -1.13311 1.37924 0
M  V30 16824 C 1587.71 -2.07448 2.6799 0
M  V30 16825 C 1586.89 -1.83429 3.9708 0
M  V30 16826 C 1585.95 -2.96134 4.34961 0
M  V30 16827 O 1584.97 -2.66746 5.02827 0
M  V30 16828 N 1586.17 -4.23932 3.96563 0
M  V30 16829 H 1588.94 -0.289484 2.98299 0
M  V30 16830 H 1586.5 -0.0109154 1.61896 0
M  V30 16831 H 1588.49 -2.81941 2.90329 0
M  V30 16832 H 1587.06 -2.48656 1.89444 0
M  V30 16833 H 1586.28 -0.928376 3.83112 0
M  V30 16834 H 1587.57 -1.64749 4.81389 0
M  V30 16835 H 1586.97 -4.50668 3.41928 0
M  V30 16836 H 1585.52 -4.95126 4.23903 0
M  V30 16837 N 1588.96 -1.5727 -0.101874 0
M  V30 16838 C 1590.21 -1.85375 -0.805007 0
M  V30 16839 C 1590.53 -0.759564 -1.79599 0
M  V30 16840 O 1589.8 0.21484 -1.94718 0
M  V30 16841 H 1588.38 -0.683987 -0.300284 0
M  V30 16842 H 1591.04 -1.94714 -0.0851166 0
M  V30 16843 H 1590.13 -2.81881 -1.33976 0
M  V30 16844 N 1590.44 0.372521 -1.53134 0
M  V30 16845 C 1591.38 1.45597 -1.79082 0
M  V30 16846 C 1592.35 1.5349 -0.63482 0
M  V30 16847 O 1593.54 1.69488 -0.876276 0
M  V30 16848 C 1590.68 2.8263 -1.98026 0
M  V30 16849 C 1589.79 2.83758 -3.25738 0
M  V30 16850 C 1588.93 4.12322 -3.34909 0
M  V30 16851 C 1587.96 4.07565 -4.5668 0
M  V30 16852 N 1587.1 5.27766 -4.63042 0
M  V30 16853 H 1591.94 1.22771 -2.71535 0
M  V30 16854 H 1589.48 0.595285 -1.34517 0
M  V30 16855 H 1591.44 3.62227 -2.06997 0
M  V30 16856 H 1590.07 3.0387 -1.08917 0
M  V30 16857 H 1589.12 1.96435 -3.25757 0
M  V30 16858 H 1590.43 2.76114 -4.15406 0
M  V30 16859 H 1589.58 5.00331 -3.43153 0
M  V30 16860 H 1588.32 4.22709 -2.43245 0
M  V30 16861 H 1587.33 3.17943 -4.48545 0
M  V30 16862 H 1588.55 3.98786 -5.49678 0
M  V30 16863 H 1586.5 5.38752 -3.74276 0
M  V30 16864 H 1586.42 5.22264 -5.46605 0
M  V30 16865 H 1587.68 6.17626 -4.75561 0
M  V30 16866 N 1591.91 1.44376 0.631925 0
M  V30 16867 C 1593.16 1.46398 1.38747 0
M  V30 16868 C 1593.48 0.100149 1.95343 0
M  V30 16869 O 1594.68 -0.00210908 2.715 0
M  V30 16870 C 1593.14 2.57731 2.51203 0
M  V30 16871 C 1592.75 4.00317 2.01123 0
M  V30 16872 C 1594.49 2.68972 3.28412 0
M  V30 16873 C 1592.4 5.03075 3.10917 0
M  V30 16874 H 1591.33 0.544667 0.521396 0
M  V30 16875 H 1593.98 1.70439 0.679912 0
M  V30 16876 H 1592.36 2.26928 3.2453 0
M  V30 16877 H 1593.53 4.40683 1.34666 0
M  V30 16878 H 1591.85 3.93311 1.36732 0
M  V30 16879 H 1594.45 3.42916 4.10259 0
M  V30 16880 H 1594.79 1.74762 3.77841 0
M  V30 16881 H 1595.32 2.9918 2.62176 0
M  V30 16882 H 1592.06 5.98911 2.66433 0
M  V30 16883 H 1591.58 4.67302 3.76017 0
M  V30 16884 H 1593.26 5.2674 3.75705 0
M  V30 16885 N 1593.39 -0.872258 1.31261 0
M  V30 16886 C 1594.67 -1.60739 1.11456 0
M  V30 16887 C 1595.05 -2.0848 -0.331569 0
M  V30 16888 O 1594.4 -1.86141 -1.32528 0
M  V30 16889 C 1594.61 -2.76714 2.12674 0
M  V30 16890 C 1595.95 -3.46734 2.45074 0
M  V30 16891 O 1596.98 -2.86919 2.11083 0
M  V30 16892 O 1595.84 -4.54632 3.0327 0
M  V30 16893 H 1592.93 -0.70707 0.428929 0
M  V30 16894 H 1595.48 -0.917922 1.42732 0
M  V30 16895 H 1594.25 -2.38834 3.09958 0
M  V30 16896 H 1593.87 -3.5335 1.8229 0
M  V30 16897 N 1594.87 -1.14184 -1.08627 0
M  V30 16898 C 1596.12 -0.908664 -1.80968 0
M  V30 16899 C 1596.44 0.564864 -1.86117 0
M  V30 16900 O 1595.7 1.4344 -1.33129 0
M  V30 16901 C 1596 -1.4519 -3.2658 0
M  V30 16902 C 1595.66 -2.94368 -3.41552 0
M  V30 16903 C 1594.33 -3.35096 -3.45346 0
M  V30 16904 C 1596.68 -3.90304 -3.45416 0
M  V30 16905 C 1594.01 -4.70428 -3.50591 0
M  V30 16906 C 1596.36 -5.25491 -3.52196 0
M  V30 16907 C 1595.02 -5.65734 -3.54262 0
M  V30 16908 H 1594.29 -0.332504 -0.66221 0
M  V30 16909 H 1596.94 -1.42514 -1.27914 0
M  V30 16910 H 1595.24 -0.856308 -3.82328 0
M  V30 16911 H 1596.94 -1.24746 -3.81103 0
M  V30 16912 H 1593.53 -2.61879 -3.3929 0
M  V30 16913 H 1597.72 -3.59921 -3.41718 0
M  V30 16914 H 1592.97 -5.00971 -3.50482 0
M  V30 16915 H 1597.15 -5.99637 -3.54131 0
M  V30 16916 H 1594.77 -6.70585 -3.58079 0
M  V30 16917 N 1596.35 1.26749 -0.936613 0
M  V30 16918 C 1597.59 1.94251 -0.582616 0
M  V30 16919 C 1597.93 1.73352 0.875361 0
M  V30 16920 O 1597.2 1.06784 1.62565 0
M  V30 16921 C 1597.49 3.48145 -0.920151 0
M  V30 16922 C 1597.34 3.78349 -2.43253 0
M  V30 16923 C 1598.66 4.37971 -0.432326 0
M  V30 16924 H 1595.78 0.705507 -0.213141 0
M  V30 16925 H 1598.42 1.49703 -1.17001 0
M  V30 16926 H 1596.57 3.8622 -0.420279 0
M  V30 16927 H 1598.24 3.50015 -3.00478 0
M  V30 16928 H 1596.48 3.24586 -2.87795 0
M  V30 16929 H 1597.15 4.85902 -2.61922 0
M  V30 16930 H 1599.63 4.07098 -0.860857 0
M  V30 16931 H 1598.51 5.44452 -0.697366 0
M  V30 16932 H 1598.77 4.37029 0.667694 0
M  V30 16933 N 1597.83 0.703118 1.41046 0
M  V30 16934 C 1599.1 0.164985 1.94903 0
M  V30 16935 C 1599.48 -1.32665 1.64205 0
M  V30 16936 O 1598.83 -2.07675 0.953058 0
M  V30 16937 C 1599.04 0.464354 3.45897 0
M  V30 16938 C 1600.39 0.396205 4.22747 0
M  V30 16939 O 1601.41 0.399698 3.5395 0
M  V30 16940 O 1600.27 0.362874 5.45294 0
M  V30 16941 H 1597.37 0.0193901 0.826773 0
M  V30 16942 H 1599.91 0.779796 1.50722 0
M  V30 16943 H 1598.68 1.49653 3.61552 0
M  V30 16944 H 1598.31 -0.18105 3.97188 0
M  V30 16945 N 1599.3 -1.51086 0.448402 0
M  V30 16946 C 1600.54 -2.04085 -0.113374 0
M  V30 16947 C 1600.91 -1.32454 -1.38996 0
M  V30 16948 O 1602.11 -1.75885 -2.03268 0
M  V30 16949 C 1600.38 -3.56001 -0.315869 0
M  V30 16950 S 1601.94 -4.30695 -0.839462 0
M  V30 16951 H 1598.76 -0.7105 -0.0266528 0
M  V30 16952 H 1601.36 -1.85728 0.610345 0
M  V30 16953 H 1600.06 -4.05699 0.6194 0
M  V30 16954 H 1599.59 -3.78672 -1.06635 0
M  V30 16955 H 1601.61 -4.48833 -2.11573 0
M  V30 16956 N 1600.78 -0.180154 -1.56567 0
M  V30 16957 C 1601.73 0.746666 -2.18389 0
M  V30 16958 C 1602.7 1.22058 -1.12655 0
M  V30 16959 O 1603.88 1.28716 -1.40843 0
M  V30 16960 C 1601.02 1.96688 -2.83563 0
M  V30 16961 C 1600.14 1.53572 -4.03782 0
M  V30 16962 C 1599.27 2.71028 -4.56856 0
M  V30 16963 C 1598.31 2.24445 -5.69465 0
M  V30 16964 N 1597.45 3.35026 -6.17011 0
M  V30 16965 H 1602.29 0.212707 -2.9724 0
M  V30 16966 H 1599.83 0.093256 -1.46804 0
M  V30 16967 H 1601.78 2.68269 -3.19511 0
M  V30 16968 H 1600.41 2.4744 -2.073 0
M  V30 16969 H 1599.47 0.716323 -3.73595 0
M  V30 16970 H 1600.78 1.15385 -4.85271 0
M  V30 16971 H 1599.93 3.50753 -4.95032 0
M  V30 16972 H 1598.67 3.1248 -3.74443 0
M  V30 16973 H 1597.68 1.43169 -5.30832 0
M  V30 16974 H 1598.9 1.84041 -6.53686 0
M  V30 16975 H 1596.85 3.76037 -5.37524 0
M  V30 16976 H 1596.76 3.0096 -6.93512 0
M  V30 16977 H 1598.03 4.15009 -6.59839 0
M  V30 16978 N 1602.26 1.57322 0.0935319 0
M  V30 16979 C 1603.51 1.86167 0.796739 0
M  V30 16980 C 1603.84 0.768893 1.78657 0
M  V30 16981 O 1603.09 -0.237358 1.94255 0
M  V30 16982 C 1603.39 3.21605 1.55901 0
M  V30 16983 C 1603.06 4.45256 0.711165 0
M  V30 16984 C 1601.72 4.78826 0.477442 0
M  V30 16985 C 1604.07 5.21058 0.121859 0
M  V30 16986 C 1601.4 5.85622 -0.355425 0
M  V30 16987 C 1603.75 6.28734 -0.69834 0
M  V30 16988 C 1602.41 6.60818 -0.94214 0
M  V30 16989 H 1601.68 0.681235 0.291547 0
M  V30 16990 H 1604.33 1.91412 0.0581736 0
M  V30 16991 H 1602.64 3.12052 2.36919 0
M  V30 16992 H 1604.33 3.41151 2.10753 0
M  V30 16993 H 1600.92 4.1897 0.903444 0
M  V30 16994 H 1605.11 4.95454 0.289588 0
M  V30 16995 H 1600.36 6.08891 -0.553277 0
M  V30 16996 H 1604.54 6.8664 -1.16183 0
M  V30 16997 H 1602.16 7.43401 -1.5893 0
M  V30 16998 N 1603.74 -0.364395 1.53329 0
M  V30 16999 C 1604.97 -1.1275 1.7348 0
M  V30 17000 C 1605.38 -1.83002 0.4643 0
M  V30 17001 O 1604.74 -1.73603 -0.562864 0
M  V30 17002 C 1604.79 -2.15691 2.90103 0
M  V30 17003 O 1604.51 -1.48298 4.12237 0
M  V30 17004 C 1606.01 -3.04539 3.22135 0
M  V30 17005 H 1603.23 -0.337084 0.580186 0
M  V30 17006 H 1605.78 -0.422952 2.00078 0
M  V30 17007 H 1603.93 -2.81742 2.65895 0
M  V30 17008 H 1604.34 -2.16896 4.77553 0
M  V30 17009 H 1605.82 -3.72747 4.07141 0
M  V30 17010 H 1606.3 -3.69414 2.3755 0
M  V30 17011 H 1606.9 -2.44103 3.48273 0
M  V30 17012 N 1605.22 -1.44709 -0.62426 0
M  V30 17013 C 1606.45 -1.51129 -1.40867 0
M  V30 17014 C 1606.85 -0.1371 -1.88703 0
M  V30 17015 O 1606.2 0.868546 -1.6187 0
M  V30 17016 C 1606.26 -2.42015 -2.65836 0
M  V30 17017 C 1605.92 -3.89061 -2.39752 0
M  V30 17018 C 1606.92 -4.79411 -2.01151 0
M  V30 17019 C 1604.61 -4.33827 -2.53179 0
M  V30 17020 C 1606.6 -6.12529 -1.76314 0
M  V30 17021 C 1604.29 -5.66991 -2.27957 0
M  V30 17022 C 1605.28 -6.56161 -1.89584 0
M  V30 17023 O 1604.97 -7.86859 -1.64647 0
M  V30 17024 H 1604.7 -0.514731 -0.43821 0
M  V30 17025 H 1607.26 -1.90421 -0.770008 0
M  V30 17026 H 1605.49 -1.97663 -3.32365 0
M  V30 17027 H 1607.18 -2.39306 -3.27852 0
M  V30 17028 H 1607.94 -4.46095 -1.90328 0
M  V30 17029 H 1603.82 -3.64675 -2.82016 0
M  V30 17030 H 1607.37 -6.82089 -1.46288 0
M  V30 17031 H 1603.26 -5.99866 -2.38392 0
M  V30 17032 H 1604.03 -7.98724 -1.78837 0
M  V30 17033 N 1606.69 0.865285 -1.31722 0
M  V30 17034 C 1608.11 1.43445 -1.195 0
M  V30 17035 C 1608.46 1.95212 0.196688 0
M  V30 17036 O 1607.58 1.86666 1.09475 0
M  V30 17037 C 1608.18 2.6074 -2.16333 0
M  V30 17038 C 1606.74 3.13688 -2.08031 0
M  V30 17039 C 1605.88 1.86409 -2.05298 0
M  V30 17040 H 1608.83 0.6734 -1.43705 0
M  V30 17041 H 1608.85 3.37575 -1.75566 0
M  V30 17042 H 1608.37 2.23033 -3.17612 0
M  V30 17043 H 1606.47 3.56004 -1.09962 0
M  V30 17044 H 1606.58 3.75653 -2.97358 0
M  V30 17045 H 1604.94 2.05567 -1.50381 0
M  V30 17046 H 1605.73 1.50933 -3.08341 0
M  V30 17047 N 1608.17 1.14759 1.0802 0
M  V30 17048 C 1609.4 0.942316 1.84757 0
M  V30 17049 C 1609.82 -0.504188 1.81217 0
M  V30 17050 O 1609.18 -1.35891 1.20014 0
M  V30 17051 C 1609.23 1.45271 3.30043 0
M  V30 17052 O 1608.33 0.647414 4.07287 0
M  V30 17053 H 1607.67 0.336613 0.572353 0
M  V30 17054 H 1610.2 1.52578 1.36313 0
M  V30 17055 H 1610.21 1.4626 3.80883 0
M  V30 17056 H 1608.89 2.50583 3.31935 0
M  V30 17057 H 1607.47 0.706595 3.66144 0
M  V30 17058 N 1609.65 -1.26251 0.943322 0
M  V30 17059 C 1611.07 -1.45943 0.645966 0
M  V30 17060 C 1611.27 -1.84936 -0.800064 0
M  V30 17061 O 1610.32 -1.97238 -1.57649 0
M  V30 17062 C 1611.64 -2.54017 1.60922 0
M  V30 17063 C 1613.18 -2.67866 1.61916 0
M  V30 17064 C 1613.66 -3.79113 2.56977 0
M  V30 17065 N 1615.15 -3.86509 2.55275 0
M  V30 17066 C 1615.88 -4.72048 3.25513 0
M  V30 17067 N 1615.38 -5.61959 4.05184 0
M  V30 17068 N 1617.17 -4.65913 3.14454 0
M  V30 17069 H 1609.32 -0.992295 1.87796 0
M  V30 17070 H 1611.59 -0.497204 0.80715 0
M  V30 17071 H 1611.29 -2.32197 2.64155 0
M  V30 17072 H 1611.17 -3.51715 1.36294 0
M  V30 17073 H 1613.55 -2.89059 0.594067 0
M  V30 17074 H 1613.64 -1.70604 1.90598 0
M  V30 17075 H 1613.28 -3.58673 3.59605 0
M  V30 17076 H 1613.21 -4.75836 2.25583 0
M  V30 17077 H 1615.7 -3.22229 1.97425 0
M  V30 17078 H 1616.01 -6.24127 4.55725 0
M  V30 17079 H 1614.36 -5.61704 4.09285 0
M  V30 17080 H 1617.55 -3.94675 2.51693 0
M  V30 17081 H 1617.72 -5.32356 3.69461 0
M  V30 17082 N 1611.13 -0.710588 -1.40671 0
M  V30 17083 C 1612.54 -0.320926 -1.83921 0
M  V30 17084 C 1612.89 1.14358 -1.59426 0
M  V30 17085 O 1612.02 1.87952 -1.07252 0
M  V30 17086 C 1612.61 -0.5757 -3.33873 0
M  V30 17087 C 1611.17 -0.239799 -3.75635 0
M  V30 17088 C 1610.32 -0.850552 -2.63934 0
M  V30 17089 H 1613.27 -0.910118 -1.3001 0
M  V30 17090 H 1613.29 0.160707 -3.8016 0
M  V30 17091 H 1612.8 -1.64166 -3.51669 0
M  V30 17092 H 1610.9 0.821297 -3.63436 0
M  V30 17093 H 1611.02 -0.705306 -4.7388 0
M  V30 17094 H 1609.38 -0.278977 -2.53168 0
M  V30 17095 H 1610.16 -1.92068 -2.84543 0
M  V30 17096 N 1612.61 1.50847 -0.456408 0
M  V30 17097 C 1613.88 1.94907 0.164485 0
M  V30 17098 C 1614.26 1.39609 1.58343 0
M  V30 17099 O 1613.61 0.590971 2.20726 0
M  V30 17100 C 1613.82 3.48784 0.122794 0
M  V30 17101 C 1615.17 4.234 0.318964 0
M  V30 17102 O 1616.19 3.55638 0.20005 0
M  V30 17103 O 1615.05 5.43649 0.557507 0
M  V30 17104 H 1612.15 0.818298 0.119652 0
M  V30 17105 H 1614.69 1.61673 -0.515758 0
M  V30 17106 H 1613.47 3.81541 -0.868468 0
M  V30 17107 H 1613.09 3.88514 0.84513 0
M  V30 17108 N 1614.09 0.188454 1.56469 0
M  V30 17109 C 1615.31 -0.460975 2.02212 0
M  V30 17110 C 1615.74 -1.54856 1.06777 0
M  V30 17111 O 1615.09 -1.81231 0.0501425 0
M  V30 17112 C 1615.14 -1.00047 3.46443 0
M  V30 17113 O 1614.25 -2.1137 3.54114 0
M  V30 17114 H 1613.59 -0.108497 0.655076 0
M  V30 17115 H 1616.12 0.297381 2.02427 0
M  V30 17116 H 1616.13 -1.31876 3.86099 0
M  V30 17117 H 1614.8 -0.204273 4.15398 0
M  V30 17118 H 1613.38 -1.80456 3.26328 0
M  V30 17119 N 1615.56 -1.5737 -0.0851874 0
M  V30 17120 C 1616.5 -1.99462 -1.12905 0
M  V30 17121 C 1617.51 -0.898597 -1.35754 0
M  V30 17122 O 1618.7 -1.17662 -1.34231 0
M  V30 17123 C 1615.8 -2.30689 -2.48266 0
M  V30 17124 C 1614.97 -3.61967 -2.45557 0
M  V30 17125 C 1614.03 -3.81017 -3.62922 0
M  V30 17126 O 1613.06 -4.52759 -3.44961 0
M  V30 17127 N 1614.26 -3.22348 -4.82775 0
M  V30 17128 H 1617.02 -2.89621 -0.7707 0
M  V30 17129 H 1614.58 -1.59564 -0.274033 0
M  V30 17130 H 1616.58 -2.40618 -3.254 0
M  V30 17131 H 1615.15 -1.46488 -2.76152 0
M  V30 17132 H 1614.37 -3.62916 -1.539 0
M  V30 17133 H 1615.65 -4.48191 -2.40836 0
M  V30 17134 H 1615.05 -2.64093 -5.00271 0
M  V30 17135 H 1613.61 -3.37747 -5.57468 0
M  V30 17136 N 1617.04 0.356258 -1.53521 0
M  V30 17137 C 1618.29 1.09953 -1.70406 0
M  V30 17138 C 1618.62 1.8869 -0.459304 0
M  V30 17139 O 1617.9 1.86751 0.54354 0
M  V30 17140 C 1618.18 2.05114 -2.95973 0
M  V30 17141 C 1618.03 1.29924 -4.30627 0
M  V30 17142 C 1619.35 3.0511 -3.17168 0
M  V30 17143 H 1616.47 0.398343 -0.620074 0
M  V30 17144 H 1619.11 0.379376 -1.86174 0
M  V30 17145 H 1617.26 2.66524 -2.82661 0
M  V30 17146 H 1618.93 0.71226 -4.55768 0
M  V30 17147 H 1617.18 0.601141 -4.29615 0
M  V30 17148 H 1617.85 1.99624 -5.1464 0
M  V30 17149 H 1620.32 2.53809 -3.29728 0
M  V30 17150 H 1619.2 3.68908 -4.06445 0
M  V30 17151 H 1619.46 3.75794 -2.32876 0
M  V30 17152 N 1618.52 1.45038 0.616577 0
M  V30 17153 C 1619.45 1.55858 1.73869 0
M  V30 17154 C 1620.43 0.410657 1.65069 0
M  V30 17155 O 1621.62 0.632652 1.83606 0
M  V30 17156 C 1618.75 1.51635 3.12448 0
M  V30 17157 C 1617.7 2.65053 3.36052 0
M  V30 17158 C 1617.03 2.45883 4.74811 0
M  V30 17159 C 1618.33 4.07121 3.27185 0
M  V30 17160 H 1620.02 2.49784 1.6507 0
M  V30 17161 H 1617.57 1.20216 0.792724 0
M  V30 17162 H 1619.52 1.57803 3.90738 0
M  V30 17163 H 1618.24 0.542342 3.22066 0
M  V30 17164 H 1616.9 2.58299 2.60149 0
M  V30 17165 H 1616.55 1.46641 4.8115 0
M  V30 17166 H 1616.25 3.21935 4.9156 0
M  V30 17167 H 1617.77 2.53892 5.55312 0
M  V30 17168 H 1619.19 4.15167 3.9536 0
M  V30 17169 H 1617.58 4.83491 3.55466 0
M  V30 17170 H 1618.65 4.29663 2.24762 0
M  V30 17171 N 1620 -0.858287 1.32179 0
M  V30 17172 C 1620.95 -1.98796 1.2076 0
M  V30 17173 C 1621.94 -1.69021 0.11322 0
M  V30 17174 O 1623.15 -1.77873 0.275903 0
M  V30 17175 H 1619.52 -0.652269 0.374232 0
M  V30 17176 H 1621.49 -2.05555 2.1631 0
M  V30 17177 C 1620.24 -3.34646 0.943787 0
M  V30 17178 H 1619.56 -3.58084 1.77808 0
M  V30 17179 H 1621 -4.14248 0.904121 0
M  V30 17180 C 1619.46 -3.35041 -0.353477 0
M  V30 17181 O 1619.99 -3.77742 -1.36652 0
M  V30 17182 N 1618.2 -2.88181 -0.374164 0
M  V30 17183 H 1617.75 -2.53626 0.45075 0
M  V30 17184 H 1617.7 -2.88828 -1.24201 0
M  V30 17185 N 1621.48 -1.1533 -1.07409 0
M  V30 17186 C 1622.72 -0.925974 -1.79639 0
M  V30 17187 C 1623.04 0.548365 -1.87131 0
M  V30 17188 O 1622.31 1.39854 -1.37178 0
M  V30 17189 H 1620.89 -0.339599 -0.665343 0
M  V30 17190 H 1623.56 -1.45383 -1.29806 0
M  V30 17191 H 1622.65 -1.33484 -2.82114 0
M  V30 17192 N 1622.95 1.25748 -0.950004 0
M  V30 17193 C 1623.88 2.28419 -0.484467 0
M  V30 17194 C 1624.86 1.63569 0.466813 0
M  V30 17195 O 1626.05 1.90705 0.366766 0
M  V30 17196 C 1623.18 3.46449 0.242916 0
M  V30 17197 C 1622.13 4.23447 -0.622657 0
M  V30 17198 C 1621.46 5.34182 0.235199 0
M  V30 17199 C 1622.76 4.86576 -1.89845 0
M  V30 17200 H 1624.45 2.6761 -1.34257 0
M  V30 17201 H 1622 1.28646 -0.647014 0
M  V30 17202 H 1623.95 4.17394 0.579693 0
M  V30 17203 H 1622.68 3.06235 1.13523 0
M  V30 17204 H 1621.34 3.54279 -0.942453 0
M  V30 17205 H 1620.98 4.90209 1.12713 0
M  V30 17206 H 1620.68 5.86612 -0.340609 0
M  V30 17207 H 1622.21 6.07961 0.567048 0
M  V30 17208 H 1623.62 5.49688 -1.62837 0
M  V30 17209 H 1622.02 5.49162 -2.41954 0
M  V30 17210 H 1623.09 4.09021 -2.60441 0
M  V30 17211 N 1624.43 0.718038 1.40292 0
M  V30 17212 C 1625.66 0.266918 2.05675 0
M  V30 17213 C 1626.08 -1.08364 1.53749 0
M  V30 17214 O 1625.44 -1.6831 0.673912 0
M  V30 17215 C 1625.49 0.259606 3.59664 0
M  V30 17216 O 1624.59 -0.758372 4.05367 0
M  V30 17217 H 1623.93 0.124786 0.652169 0
M  V30 17218 H 1626.46 0.979207 1.79646 0
M  V30 17219 H 1626.47 0.098135 4.07882 0
M  V30 17220 H 1625.15 1.24517 3.96823 0
M  V30 17221 H 1623.72 -0.564425 3.68604 0
M  V30 17222 N 1625.91 -1.50602 0.464402 0
M  V30 17223 C 1627.16 -2.02587 -0.0930295 0
M  V30 17224 C 1627.49 -1.34618 -1.3997 0
M  V30 17225 O 1626.76 -0.469711 -1.88743 0
M  V30 17226 C 1627.05 -3.5898 -0.283783 0
M  V30 17227 C 1626.9 -4.3753 1.04344 0
M  V30 17228 C 1628.22 -4.27602 -1.04138 0
M  V30 17229 H 1625.34 -0.73629 -0.0323356 0
M  V30 17230 H 1627.98 -1.79986 0.608687 0
M  V30 17231 H 1626.13 -3.78368 -0.881488 0
M  V30 17232 H 1627.8 -4.29729 1.67721 0
M  V30 17233 H 1626.05 -4.01536 1.64168 0
M  V30 17234 H 1626.72 -5.45201 0.863691 0
M  V30 17235 H 1629.19 -4.12649 -0.534822 0
M  V30 17236 H 1628.07 -5.36854 -1.14364 0
M  V30 17237 H 1628.33 -3.9031 -2.0763 0
M  V30 17238 N 1627.39 -0.19675 -1.56367 0
M  V30 17239 C 1628.61 0.450245 -2.02454 0
M  V30 17240 C 1629.04 1.54287 -1.07597 0
M  V30 17241 O 1628.4 1.81202 -0.0597529 0
M  V30 17242 C 1628.44 0.982087 -3.46969 0
M  V30 17243 O 1627.55 2.09489 -3.5523 0
M  V30 17244 H 1626.89 0.105022 -0.655642 0
M  V30 17245 H 1629.42 -0.308112 -2.02267 0
M  V30 17246 H 1629.43 1.29826 -3.86793 0
M  V30 17247 H 1628.1 0.18224 -4.15501 0
M  V30 17248 H 1626.68 1.78723 -3.27281 0
M  V30 17249 N 1628.87 1.57413 0.0768405 0
M  V30 17250 C 1630.12 1.86186 0.775741 0
M  V30 17251 C 1630.43 0.788676 1.78995 0
M  V30 17252 O 1631.63 0.964095 2.53806 0
M  V30 17253 C 1630.09 3.30247 1.43055 0
M  V30 17254 C 1629.7 4.45682 0.45517 0
M  V30 17255 C 1631.44 3.68225 2.11211 0
M  V30 17256 C 1629.35 5.80782 1.11561 0
M  V30 17257 H 1628.28 0.694546 0.293466 0
M  V30 17258 H 1630.93 1.83477 0.0289478 0
M  V30 17259 H 1629.31 3.27552 2.22544 0
M  V30 17260 H 1630.49 4.59759 -0.309535 0
M  V30 17261 H 1628.8 4.16222 -0.121671 0
M  V30 17262 H 1631.4 4.66454 2.6139 0
M  V30 17263 H 1631.74 2.9777 2.90928 0
M  V30 17264 H 1632.27 3.72888 1.38561 0
M  V30 17265 H 1629.01 6.54517 0.358877 0
M  V30 17266 H 1628.53 5.70515 1.8513 0
M  V30 17267 H 1630.21 6.25951 1.63689 0
M  V30 17268 N 1630.34 -0.348112 1.53707 0
M  V30 17269 C 1631.57 -1.11346 1.74976 0
M  V30 17270 C 1631.99 -1.81726 0.485525 0
M  V30 17271 O 1631.35 -1.72384 -0.561565 0
M  V30 17272 C 1631.4 -2.10611 2.92703 0
M  V30 17273 O 1630.5 -3.18042 2.62532 0
M  V30 17274 H 1629.85 -0.322247 0.580563 0
M  V30 17275 H 1632.38 -0.399898 2.00654 0
M  V30 17276 H 1632.39 -2.53912 3.19363 0
M  V30 17277 H 1631.06 -1.58782 3.84397 0
M  V30 17278 H 1629.64 -2.79591 2.46746 0
M  V30 17279 N 1631.82 -1.45363 -0.608876 0
M  V30 17280 C 1633.23 -1.43794 -1.19081 0
M  V30 17281 C 1633.58 -0.164874 -1.95506 0
M  V30 17282 O 1632.71 0.733623 -2.03585 0
M  V30 17283 C 1633.3 -2.60506 -2.16615 0
M  V30 17284 C 1631.86 -2.62061 -2.70187 0
M  V30 17285 C 1631.01 -2.36018 -1.4557 0
M  V30 17286 H 1633.96 -1.53622 -0.39826 0
M  V30 17287 H 1633.98 -2.34531 -2.99625 0
M  V30 17288 H 1633.49 -3.53147 -1.60963 0
M  V30 17289 H 1631.6 -1.73423 -3.2978 0
M  V30 17290 H 1631.71 -3.61242 -3.14708 0
M  V30 17291 H 1630.07 -1.8555 -1.74481 0
M  V30 17292 H 1630.86 -3.30802 -0.917884 0
M  V30 17293 N 1633.3 0.851265 -1.32632 0
M  V30 17294 C 1634.55 1.60252 -1.23141 0
M  V30 17295 C 1634.87 1.93909 0.205946 0
M  V30 17296 O 1634.14 1.59914 1.13156 0
M  V30 17297 H 1632.72 0.594137 -0.452781 0
M  V30 17298 H 1635.38 1.01806 -1.66197 0
M  V30 17299 H 1634.48 2.53796 -1.81643 0
M  V30 17300 N 1634.78 1.15898 1.06796 0
M  V30 17301 C 1635.71 0.818654 2.14081 0
M  V30 17302 C 1636.72 -0.171847 1.6189 0
M  V30 17303 O 1637.91 0.052196 1.78424 0
M  V30 17304 C 1635.01 0.197283 3.38325 0
M  V30 17305 C 1634.19 1.22662 4.19849 0
M  V30 17306 C 1633.24 0.625985 5.22463 0
M  V30 17307 O 1632.27 1.29347 5.54309 0
M  V30 17308 N 1633.47 -0.589665 5.77497 0
M  V30 17309 H 1636.24 1.74196 2.43877 0
M  V30 17310 H 1633.8 1.05562 1.22753 0
M  V30 17311 H 1635.79 -0.217439 4.04115 0
M  V30 17312 H 1634.36 -0.629476 3.06197 0
M  V30 17313 H 1633.58 1.8177 3.49791 0
M  V30 17314 H 1634.87 1.92143 4.71125 0
M  V30 17315 H 1634.27 -1.15022 5.53883 0
M  V30 17316 H 1632.82 -0.946667 6.44889 0
M  V30 17317 N 1636.26 -1.25243 0.956659 0
M  V30 17318 C 1637.48 -1.97082 0.629791 0
M  V30 17319 C 1637.9 -1.71082 -0.798529 0
M  V30 17320 O 1637.26 -0.98805 -1.5344 0
M  V30 17321 C 1637.31 -3.5059 0.881406 0
M  V30 17322 O 1637.03 -3.75694 2.25356 0
M  V30 17323 C 1638.53 -4.39656 0.567203 0
M  V30 17324 H 1635.75 -0.628152 0.235938 0
M  V30 17325 H 1638.29 -1.5936 1.28159 0
M  V30 17326 H 1636.45 -3.86416 0.27599 0
M  V30 17327 H 1636.86 -4.70142 2.32523 0
M  V30 17328 H 1638.34 -5.46263 0.793785 0
M  V30 17329 H 1638.81 -4.36364 -0.498287 0
M  V30 17330 H 1639.42 -4.094 1.15203 0
M  V30 17331 N 1637.73 -0.725468 -1.3991 0
M  V30 17332 C 1638.66 -0.094211 -2.3331 0
M  V30 17333 C 1639.65 0.734728 -1.53414 0
M  V30 17334 O 1640.83 0.681647 -1.81844 0
M  V30 17335 C 1637.96 0.820958 -3.37457 0
M  V30 17336 C 1636.91 0.0968983 -4.2789 0
M  V30 17337 C 1636.24 1.12845 -5.22657 0
M  V30 17338 C 1637.54 -1.05483 -5.11537 0
M  V30 17339 H 1639.23 -0.874365 -2.86348 0
M  V30 17340 H 1636.78 -0.421913 -1.3768 0
M  V30 17341 H 1638.73 1.27203 -4.01743 0
M  V30 17342 H 1637.46 1.63312 -2.82837 0
M  V30 17343 H 1636.12 -0.334454 -3.65071 0
M  V30 17344 H 1635.76 1.93392 -4.64337 0
M  V30 17345 H 1635.46 0.648805 -5.84007 0
M  V30 17346 H 1636.99 1.57942 -5.89819 0
M  V30 17347 H 1638.4 -0.682657 -5.69221 0
M  V30 17348 H 1636.8 -1.46349 -5.81981 0
M  V30 17349 H 1637.87 -1.88095 -4.46932 0
M  V30 17350 N 1639.21 1.50354 -0.472382 0
M  V30 17351 C 1640.18 2.27096 0.30981 0
M  V30 17352 C 1641.18 1.3193 0.919306 0
M  V30 17353 O 1642.37 1.55344 0.788284 0
M  V30 17354 C 1639.5 3.08924 1.44149 0
M  V30 17355 H 1640.69 2.97692 -0.363228 0
M  V30 17356 H 1638.24 1.5465 -0.226483 0
M  V30 17357 H 1638.98 2.42828 2.14954 0
M  V30 17358 H 1638.76 3.78862 1.01023 0
M  V30 17359 H 1640.25 3.66961 1.99323 0
M  V30 17360 N 1640.69 0.205039 1.56261 0
M  V30 17361 C 1641.94 -0.431097 1.97858 0
M  V30 17362 C 1642.27 -1.60937 1.09223 0
M  V30 17363 O 1641.52 -1.95244 0.133495 0
M  V30 17364 C 1641.82 -0.924086 3.45247 0
M  V30 17365 C 1641.49 0.141879 4.50677 0
M  V30 17366 C 1640.15 0.434753 4.79232 0
M  V30 17367 C 1642.5 0.863645 5.13995 0
M  V30 17368 C 1639.83 1.4542 5.68392 0
M  V30 17369 C 1642.18 1.87231 6.04258 0
M  V30 17370 C 1640.84 2.17227 6.31164 0
M  V30 17371 H 1640.11 -0.157749 0.724014 0
M  V30 17372 H 1642.76 0.304094 1.8907 0
M  V30 17373 H 1641.07 -1.73774 3.51155 0
M  V30 17374 H 1642.76 -1.42586 3.74794 0
M  V30 17375 H 1639.35 -0.0965514 4.28491 0
M  V30 17376 H 1643.54 0.650612 4.92017 0
M  V30 17377 H 1638.79 1.69241 5.8751 0
M  V30 17378 H 1642.97 2.43675 6.52377 0
M  V30 17379 H 1640.59 2.96366 7.00051 0
M  V30 17380 N 1642.17 -1.57451 -0.0684915 0
M  V30 17381 C 1643.42 -1.87689 -0.768156 0
M  V30 17382 C 1643.75 -0.79776 -1.77058 0
M  V30 17383 O 1643.02 0.191614 -1.93554 0
M  V30 17384 C 1643.31 -3.28587 -1.47319 0
M  V30 17385 C 1643.16 -4.47156 -0.486954 0
M  V30 17386 C 1644.48 -3.67772 -2.41727 0
M  V30 17387 H 1641.6 -0.682642 -0.277793 0
M  V30 17388 H 1644.24 -1.89974 -0.0312968 0
M  V30 17389 H 1642.39 -3.26769 -2.10129 0
M  V30 17390 H 1644.06 -4.61099 0.136189 0
M  V30 17391 H 1642.3 -4.33351 0.197429 0
M  V30 17392 H 1642.98 -5.42533 -1.01795 0
M  V30 17393 H 1645.45 -3.70704 -1.88992 0
M  V30 17394 H 1644.33 -4.6724 -2.88059 0
M  V30 17395 H 1644.59 -2.97882 -3.26679 0
M  V30 17396 N 1643.65 0.339955 -1.5389 0
M  V30 17397 C 1644.9 1.07766 -1.7097 0
M  V30 17398 C 1645.22 1.89064 -0.477486 0
M  V30 17399 O 1644.49 1.89183 0.508579 0
M  V30 17400 H 1643.07 0.400849 -0.630341 0
M  V30 17401 H 1645.73 0.380359 -1.91153 0
M  V30 17402 H 1644.82 1.75301 -2.58217 0
M  V30 17403 N 1645.13 1.45684 0.601159 0
M  V30 17404 C 1646.35 1.53806 1.39135 0
M  V30 17405 C 1646.78 0.173625 1.87297 0
M  V30 17406 O 1646.13 -0.842931 1.60513 0
M  V30 17407 C 1646.18 2.53201 2.56752 0
M  V30 17408 O 1645.29 2.05427 3.57594 0
M  V30 17409 H 1644.63 0.51824 0.415118 0
M  V30 17410 H 1647.16 1.91095 0.731006 0
M  V30 17411 H 1647.17 2.72215 3.03912 0
M  V30 17412 H 1645.84 3.52294 2.21047 0
M  V30 17413 H 1644.42 1.96318 3.17039 0
M  V30 17414 N 1646.6 -0.84422 1.33082 0
M  V30 17415 C 1647.83 -1.63654 1.27405 0
M  V30 17416 C 1648.25 -1.87476 -0.153146 0
M  V30 17417 O 1647.61 -1.43502 -1.10801 0
M  V30 17418 C 1647.66 -2.96698 2.04945 0
M  V30 17419 O 1646.76 -3.87751 1.40439 0
M  V30 17420 H 1646.1 -0.498545 0.438576 0
M  V30 17421 H 1648.63 -1.0507 1.7556 0
M  V30 17422 H 1648.64 -3.46438 2.1551 0
M  V30 17423 H 1647.32 -2.78682 3.08722 0
M  V30 17424 H 1645.9 -3.46231 1.38487 0
M  V30 17425 N 1648.08 -1.16463 -1.0618 0
M  V30 17426 C 1649.33 -0.944975 -1.78647 0
M  V30 17427 C 1649.65 0.528486 -1.87702 0
M  V30 17428 O 1648.92 1.38391 -1.38653 0
M  V30 17429 H 1647.5 -0.346637 -0.661704 0
M  V30 17430 H 1650.16 -1.46752 -1.28257 0
M  V30 17431 H 1649.26 -1.36469 -2.80683 0
M  V30 17432 N 1649.56 1.24734 -0.963288 0
M  V30 17433 C 1650.8 1.94431 -0.630554 0
M  V30 17434 C 1651.16 1.7368 0.818489 0
M  V30 17435 O 1652.36 2.37374 1.26123 0
M  V30 17436 C 1650.64 3.43421 -0.989774 0
M  V30 17437 S 1652.19 4.31975 -0.770922 0
M  V30 17438 H 1649.01 0.672265 -0.231474 0
M  V30 17439 H 1651.61 1.512 -1.2393 0
M  V30 17440 H 1650.32 3.5603 -2.04135 0
M  V30 17441 H 1649.85 3.91641 -0.371622 0
M  V30 17442 H 1651.86 4.94936 0.35396 0
M  V30 17443 N 1651.04 0.732878 1.39523 0
M  V30 17444 C 1652.29 0.279338 2.0016 0
M  V30 17445 C 1652.61 -1.13673 1.58441 0
M  V30 17446 O 1651.88 -1.77369 0.831681 0
M  V30 17447 H 1650.46 0.100288 0.740237 0
M  V30 17448 H 1653.12 0.942363 1.70603 0
M  V30 17449 H 1652.21 0.326053 3.10392 0
M  V30 17450 N 1652.52 -1.50101 0.480349 0
M  V30 17451 C 1653.46 -2.28722 -0.308993 0
M  V30 17452 C 1654.43 -1.34186 -0.978948 0
M  V30 17453 O 1655.62 -1.6313 -0.989602 0
M  V30 17454 C 1652.76 -3.16322 -1.37966 0
M  V30 17455 C 1651.87 -4.25898 -0.723552 0
M  V30 17456 C 1651.01 -5.00741 -1.7729 0
M  V30 17457 C 1650.04 -6.0218 -1.09754 0
M  V30 17458 N 1649.18 -6.70266 -2.09015 0
M  V30 17459 H 1654.02 -2.95722 0.367739 0
M  V30 17460 H 1651.56 -1.45826 0.193197 0
M  V30 17461 H 1653.52 -3.65469 -2.01217 0
M  V30 17462 H 1652.15 -2.51349 -2.02543 0
M  V30 17463 H 1651.2 -3.80394 0.0217507 0
M  V30 17464 H 1652.51 -4.98435 -0.190905 0
M  V30 17465 H 1651.66 -5.53653 -2.48098 0
M  V30 17466 H 1650.4 -4.27931 -2.33937 0
M  V30 17467 H 1649.41 -5.48519 -0.375123 0
M  V30 17468 H 1650.63 -6.76967 -0.537841 0
M  V30 17469 H 1648.58 -6.00242 -2.64662 0
M  V30 17470 H 1648.5 -7.3871 -1.6076 0
M  V30 17471 H 1649.76 -7.27792 -2.79175 0
M  V30 17472 N 1653.99 -0.213323 -1.5615 0
M  V30 17473 C 1655.22 0.428746 -2.0292 0
M  V30 17474 C 1655.64 1.53137 -1.09227 0
M  V30 17475 O 1655 1.81128 -0.0789684 0
M  V30 17476 C 1655.05 0.945231 -3.47991 0
M  V30 17477 O 1654.15 2.05709 -3.57432 0
M  V30 17478 H 1653.49 0.0980619 -0.656719 0
M  V30 17479 H 1656.02 -0.329548 -2.01929 0
M  V30 17480 H 1656.03 1.25717 -3.88149 0
M  V30 17481 H 1654.71 0.138161 -4.1567 0
M  V30 17482 H 1653.29 1.75242 -3.29158 0
M  V30 17483 N 1655.47 1.57485 0.0601405 0
M  V30 17484 C 1656.7 1.92051 0.769681 0
M  V30 17485 C 1657.12 0.810364 1.70524 0
M  V30 17486 O 1656.47 -0.215527 1.81223 0
M  V30 17487 C 1656.52 3.26423 1.55339 0
M  V30 17488 O 1656.24 4.3317 0.655423 0
M  V30 17489 C 1657.75 3.75076 2.36289 0
M  V30 17490 H 1654.97 0.63454 0.218175 0
M  V30 17491 H 1657.51 2.04482 0.0269308 0
M  V30 17492 H 1655.66 3.15483 2.24831 0
M  V30 17493 H 1656.08 5.10548 1.20171 0
M  V30 17494 H 1657.55 4.71695 2.86719 0
M  V30 17495 H 1658.03 3.04677 3.16336 0
M  V30 17496 H 1658.64 3.88998 1.71932 0
M  V30 17497 N 1656.95 -0.331789 1.54068 0
M  V30 17498 C 1658.18 -1.09484 1.76148 0
M  V30 17499 C 1658.6 -1.81201 0.504772 0
M  V30 17500 O 1657.96 -1.7297 -0.54325 0
M  V30 17501 C 1658.01 -2.07495 2.94921 0
M  V30 17502 O 1657.11 -3.15239 2.65891 0
M  V30 17503 H 1656.45 -0.316071 0.583948 0
M  V30 17504 H 1658.98 -0.378593 2.01067 0
M  V30 17505 H 1658.99 -2.5051 3.22038 0
M  V30 17506 H 1657.67 -1.54696 3.8606 0
M  V30 17507 H 1656.24 -2.76958 2.49697 0
M  V30 17508 N 1658.43 -1.46001 -0.593424 0
M  V30 17509 C 1659.68 -1.50025 -1.34816 0
M  V30 17510 C 1659.99 -0.151905 -1.95009 0
M  V30 17511 O 1661.2 -0.0698751 -2.7141 0
M  V30 17512 C 1659.65 -2.643 -2.44282 0
M  V30 17513 C 1659.26 -4.05509 -1.90438 0
M  V30 17514 C 1661 -2.77584 -3.21165 0
M  V30 17515 C 1658.91 -5.11142 -2.97469 0
M  V30 17516 H 1657.84 -0.558299 -0.506772 0
M  V30 17517 H 1660.49 -1.72182 -0.634484 0
M  V30 17518 H 1658.87 -2.35453 -3.18399 0
M  V30 17519 H 1660.05 -4.44099 -1.22935 0
M  V30 17520 H 1658.36 -3.96798 -1.26256 0
M  V30 17521 H 1660.96 -3.53673 -4.01023 0
M  V30 17522 H 1661.3 -1.84718 -3.73075 0
M  V30 17523 H 1661.84 -3.06026 -2.54151 0
M  V30 17524 H 1658.58 -6.05764 -2.5046 0
M  V30 17525 H 1658.1 -4.77107 -3.63495 0
M  V30 17526 H 1659.77 -5.36516 -3.61607 0
M  V30 17527 N 1659.91 0.83715 -1.33527 0
M  V30 17528 C 1660.84 1.95423 -1.1976 0
M  V30 17529 C 1661.85 1.62295 -0.128147 0
M  V30 17530 O 1663.04 1.74436 -0.378725 0
M  V30 17531 C 1660.14 3.2896 -0.814775 0
M  V30 17532 C 1659.31 3.9021 -1.97623 0
M  V30 17533 C 1658.37 5.02104 -1.5741 0
M  V30 17534 O 1657.4 5.2116 -2.28868 0
M  V30 17535 N 1658.6 5.78511 -0.480081 0
M  V30 17536 H 1661.37 2.0777 -2.15991 0
M  V30 17537 H 1658.93 1.01297 -1.26295 0
M  V30 17538 H 1660.92 4.01243 -0.527823 0
M  V30 17539 H 1659.49 3.12548 0.0569031 0
M  V30 17540 H 1658.71 3.10495 -2.42871 0
M  V30 17541 H 1660 4.27865 -2.75334 0
M  V30 17542 H 1659.39 5.65585 0.114287 0
M  V30 17543 H 1657.95 6.5131 -0.252808 0
M  V30 17544 N 1661.38 1.17024 1.05561 0
M  V30 17545 C 1662.31 0.906823 2.15172 0
M  V30 17546 C 1663.3 -0.149745 1.6944 0
M  V30 17547 O 1664.48 -0.000287092 1.942 0
M  V30 17548 C 1661.61 0.415251 3.44809 0
M  V30 17549 C 1660.56 1.41058 4.04088 0
M  V30 17550 C 1659.89 0.777109 5.29023 0
M  V30 17551 C 1661.19 2.78258 4.42007 0
M  V30 17552 H 1662.88 1.82347 2.37466 0
M  V30 17553 H 1660.43 0.878162 1.14124 0
M  V30 17554 H 1662.38 0.218407 4.20834 0
M  V30 17555 H 1661.11 -0.536924 3.22156 0
M  V30 17556 H 1659.77 1.5941 3.30127 0
M  V30 17557 H 1659.41 -0.181784 5.02671 0
M  V30 17558 H 1659.11 1.44151 5.69644 0
M  V30 17559 H 1660.64 0.590455 6.07738 0
M  V30 17560 H 1662.05 2.63645 5.09082 0
M  V30 17561 H 1660.45 3.41241 4.93634 0
M  V30 17562 H 1661.52 3.3295 3.52523 0
M  V30 17563 N 1662.86 -1.24221 0.969889 0
M  V30 17564 C 1663.79 -2.27619 0.520745 0
M  V30 17565 C 1664.77 -1.64291 -0.440731 0
M  V30 17566 O 1665.96 -1.91265 -0.336381 0
M  V30 17567 C 1663.09 -3.46792 -0.187768 0
M  V30 17568 C 1662.04 -4.22402 0.689945 0
M  V30 17569 C 1661.37 -5.34489 -0.150186 0
M  V30 17570 C 1662.67 -4.83494 1.97562 0
M  V30 17571 H 1664.36 -2.65441 1.38498 0
M  V30 17572 H 1661.91 -1.276 0.667398 0
M  V30 17573 H 1663.86 -4.18263 -0.513216 0
M  V30 17574 H 1662.59 -3.08002 -1.08637 0
M  V30 17575 H 1661.24 -3.52734 0.998696 0
M  V30 17576 H 1660.89 -4.9194 -1.049 0
M  V30 17577 H 1660.59 -5.85996 0.433891 0
M  V30 17578 H 1662.12 -6.08786 -0.470255 0
M  V30 17579 H 1663.53 -5.47028 1.71561 0
M  V30 17580 H 1661.93 -5.45243 2.5066 0
M  V30 17581 H 1663 -4.04826 2.66915 0
M  V30 17582 N 1664.34 -0.740267 -1.39132 0
M  V30 17583 C 1665.25 -0.105452 -2.34363 0
M  V30 17584 C 1666.27 0.715908 -1.5859 0
M  V30 17585 O 1667.44 0.643155 -1.90855 0
M  V30 17586 C 1664.51 0.787141 -3.37646 0
M  V30 17587 C 1663.57 -0.047071 -4.29274 0
M  V30 17588 C 1662.8 0.803014 -5.27624 0
M  V30 17589 O 1663.02 2.04155 -5.32613 0
M  V30 17590 O 1661.96 0.228879 -6.01465 0
M  V30 17591 H 1665.78 -0.891588 -2.90318 0
M  V30 17592 H 1663.37 -0.500996 -1.40749 0
M  V30 17593 H 1665.25 1.29769 -4.00921 0
M  V30 17594 H 1663.93 1.552 -2.84068 0
M  V30 17595 H 1662.83 -0.603265 -3.69204 0
M  V30 17596 H 1664.17 -0.774273 -4.86072 0
M  V30 17597 N 1665.82 1.49844 -0.488302 0
M  V30 17598 C 1667.23 1.58954 -0.14348 0
M  V30 17599 C 1667.43 1.49482 1.3512 0
M  V30 17600 O 1666.49 1.36218 2.12605 0
M  V30 17601 C 1667.8 2.92222 -0.708991 0
M  V30 17602 C 1669.35 3.05658 -0.673957 0
M  V30 17603 C 1669.83 4.41526 -1.21731 0
M  V30 17604 N 1671.32 4.47985 -1.17746 0
M  V30 17605 C 1672.05 5.51539 -1.5682 0
M  V30 17606 N 1671.55 6.62261 -2.03426 0
M  V30 17607 N 1673.34 5.4218 -1.48315 0
M  V30 17608 H 1665.49 1.54244 -1.46022 0
M  V30 17609 H 1667.76 0.72992 -0.604914 0
M  V30 17610 H 1667.46 3.04683 -1.75674 0
M  V30 17611 H 1667.34 3.76851 -0.162226 0
M  V30 17612 H 1669.72 2.92835 0.364925 0
M  V30 17613 H 1669.8 2.22744 -1.25772 0
M  V30 17614 H 1669.45 4.551 -2.25491 0
M  V30 17615 H 1669.38 5.2306 -0.609598 0
M  V30 17616 H 1671.87 3.68541 -0.835828 0
M  V30 17617 H 1672.18 7.3736 -2.31345 0
M  V30 17618 H 1670.53 6.63335 -2.07392 0
M  V30 17619 H 1673.72 4.54569 -1.11733 0
M  V30 17620 H 1673.89 6.2276 -1.79092 0
M  V30 17621 N 1667.3 0.221601 1.56034 0
M  V30 17622 C 1668.54 -0.410087 1.98304 0
M  V30 17623 C 1668.87 -1.59769 1.10924 0
M  V30 17624 O 1668.13 -1.95092 0.154196 0
M  V30 17625 C 1668.43 -0.887416 3.46208 0
M  V30 17626 C 1668.09 0.189671 4.50501 0
M  V30 17627 C 1666.75 0.485557 4.78744 0
M  V30 17628 C 1669.11 0.918112 5.1305 0
M  V30 17629 C 1666.43 1.5144 5.66818 0
M  V30 17630 C 1668.79 1.93629 6.02238 0
M  V30 17631 C 1667.45 2.23909 6.28825 0
M  V30 17632 H 1666.72 -0.150061 0.725646 0
M  V30 17633 H 1669.37 0.32413 1.88737 0
M  V30 17634 H 1667.67 -1.70039 3.52979 0
M  V30 17635 H 1669.37 -1.38602 3.76285 0
M  V30 17636 H 1665.96 -0.0510987 4.2857 0
M  V30 17637 H 1670.14 0.702761 4.91299 0
M  V30 17638 H 1665.4 1.75462 5.85682 0
M  V30 17639 H 1669.57 2.5058 6.49756 0
M  V30 17640 H 1667.2 3.03774 6.96868 0
M  V30 17641 N 1668.77 -1.57515 -0.0517878 0
M  V30 17642 C 1670 -1.92177 -0.758384 0
M  V30 17643 C 1670.41 -0.817721 -1.70616 0
M  V30 17644 O 1669.76 0.216391 -1.82421 0
M  V30 17645 C 1669.82 -3.22471 -1.58912 0
M  V30 17646 C 1669.48 -4.4979 -0.808569 0
M  V30 17647 C 1670.48 -5.19764 -0.118871 0
M  V30 17648 C 1668.16 -4.96366 -0.769824 0
M  V30 17649 C 1670.16 -6.34578 0.599123 0
M  V30 17650 C 1667.84 -6.11081 -0.0480698 0
M  V30 17651 C 1668.84 -6.8004 0.635185 0
M  V30 17652 O 1668.53 -7.92564 1.34527 0
M  V30 17653 H 1668.26 -0.639335 -0.219607 0
M  V30 17654 H 1670.82 -2.0539 -0.0202648 0
M  V30 17655 H 1669.05 -3.05522 -2.37051 0
M  V30 17656 H 1670.74 -3.4263 -2.17622 0
M  V30 17657 H 1671.5 -4.84798 -0.139982 0
M  V30 17658 H 1667.38 -4.42551 -1.29112 0
M  V30 17659 H 1670.92 -6.88338 1.13298 0
M  V30 17660 H 1666.82 -6.45495 -0.0249563 0
M  V30 17661 H 1667.59 -8.08797 1.2566 0
M  V30 17662 N 1670.25 0.323614 -1.54242 0
M  V30 17663 C 1671.53 1.07979 -1.63095 0
M  V30 17664 C 1671.91 2.0592 -0.464774 0
M  V30 17665 O 1671.26 2.22004 0.540961 0
M  V30 17666 C 1671.47 1.78178 -3.0009 0
M  V30 17667 C 1672.82 2.31201 -3.56134 0
M  V30 17668 O 1673.84 1.88245 -3.02394 0
M  V30 17669 O 1672.7 3.09843 -4.50177 0
M  V30 17670 H 1669.79 0.497726 -0.660453 0
M  V30 17671 H 1672.34 0.323509 -1.66588 0
M  V30 17672 H 1671.11 1.06938 -3.76404 0
M  V30 17673 H 1670.73 2.60616 -3.00275 0
M  V30 17674 N 1671.73 1.46313 0.585673 0
M  V30 17675 C 1673.14 1.4567 1.16778 0
M  V30 17676 C 1673.49 0.195957 1.95219 0
M  V30 17677 O 1672.62 -0.701142 2.04727 0
M  V30 17678 C 1673.21 2.6392 2.12443 0
M  V30 17679 C 1671.77 2.66327 2.65983 0
M  V30 17680 C 1670.92 2.38304 1.41797 0
M  V30 17681 H 1673.87 1.54236 0.37377 0
M  V30 17682 H 1673.89 2.39268 2.95856 0
M  V30 17683 H 1673.4 3.55663 1.55324 0
M  V30 17684 H 1671.5 1.78648 3.2698 0
M  V30 17685 H 1671.62 3.66203 3.08921 0
M  V30 17686 H 1669.98 1.88302 1.71507 0
M  V30 17687 H 1670.76 3.3222 0.86514 0
M  V30 17688 N 1673.21 -0.830057 1.33969 0
M  V30 17689 C 1674.49 -1.57112 1.16513 0
M  V30 17690 C 1674.87 -2.09429 -0.265075 0
M  V30 17691 O 1674.21 -1.90263 -1.26539 0
M  V30 17692 C 1674.42 -2.69808 2.2137 0
M  V30 17693 C 1675.77 -3.38761 2.55981 0
M  V30 17694 O 1676.8 -2.80058 2.20104 0
M  V30 17695 O 1675.66 -4.44753 3.1758 0
M  V30 17696 H 1672.75 -0.693066 0.451207 0
M  V30 17697 H 1675.3 -0.872048 1.4558 0
M  V30 17698 H 1674.07 -2.28852 3.17399 0
M  V30 17699 H 1673.69 -3.47372 1.93439 0
M  V30 17700 N 1674.69 -1.17582 -1.04939 0
M  V30 17701 C 1675.62 -0.852608 -2.12752 0
M  V30 17702 C 1676.63 0.14607 -1.62143 0
M  V30 17703 O 1677.82 -0.0805751 -1.78318 0
M  V30 17704 C 1674.92 -0.251083 -3.37969 0
M  V30 17705 C 1674.09 -1.29325 -4.17844 0
M  V30 17706 C 1673.15 -0.709025 -5.21401 0
M  V30 17707 O 1672.18 -1.38149 -5.52181 0
M  V30 17708 N 1673.38 0.497716 -5.78362 0
M  V30 17709 H 1676.15 -1.78054 -2.41074 0
M  V30 17710 H 1673.71 -1.07502 -1.21058 0
M  V30 17711 H 1675.7 0.15312 -4.0441 0
M  V30 17712 H 1674.27 0.580684 -3.07159 0
M  V30 17713 H 1673.49 -1.87311 -3.46855 0
M  V30 17714 H 1674.78 -1.99614 -4.68008 0
M  V30 17715 H 1674.18 1.06196 -5.55643 0
M  V30 17716 H 1672.73 0.843951 -6.46313 0
M  V30 17717 N 1676.17 1.23705 -0.976463 0
M  V30 17718 C 1677.41 1.91635 -0.641897 0
M  V30 17719 C 1677.73 1.7661 0.826678 0
M  V30 17720 O 1677 1.14304 1.59096 0
M  V30 17721 H 1675.58 0.709264 -0.234422 0
M  V30 17722 H 1678.25 1.50414 -1.23943 0
M  V30 17723 H 1677.34 2.99138 -0.890099 0
M  V30 17724 N 1677.64 0.747635 1.38738 0
M  V30 17725 C 1678.59 0.11597 2.30508 0
M  V30 17726 C 1679.56 -0.716088 1.49871 0
M  V30 17727 O 1680.75 -0.673446 1.7852 0
M  V30 17728 C 1677.89 -0.775765 3.36268 0
M  V30 17729 C 1677 0.070275 4.31943 0
M  V30 17730 C 1676.13 -0.823908 5.24772 0
M  V30 17731 C 1675.17 0.0261249 6.12094 0
M  V30 17732 N 1674.31 -0.824688 6.9724 0
M  V30 17733 H 1679.15 0.904158 2.83952 0
M  V30 17734 H 1676.69 0.457513 1.39804 0
M  V30 17735 H 1678.64 -1.30735 3.96187 0
M  V30 17736 H 1677.27 -1.5298 2.84248 0
M  V30 17737 H 1676.33 0.719421 3.73535 0
M  V30 17738 H 1677.64 0.726987 4.93474 0
M  V30 17739 H 1676.79 -1.42287 5.89779 0
M  V30 17740 H 1675.53 -1.51437 4.63593 0
M  V30 17741 H 1674.54 0.637803 5.46088 0
M  V30 17742 H 1675.76 0.713556 6.75341 0
M  V30 17743 H 1673.71 -1.50021 6.38616 0
M  V30 17744 H 1673.62 -0.22474 7.55666 0
M  V30 17745 H 1674.89 -1.40882 7.66663 0
M  V30 17746 N 1679.12 -1.49583 0.496242 0
M  V30 17747 C 1680.37 -2.02738 -0.050037 0
M  V30 17748 C 1680.7 -1.37556 -1.37083 0
M  V30 17749 O 1679.98 -0.50964 -1.87704 0
M  V30 17750 C 1680.26 -3.59501 -0.207575 0
M  V30 17751 C 1680.11 -4.35218 1.13601 0
M  V30 17752 C 1681.43 -4.29715 -0.950443 0
M  V30 17753 H 1678.55 -0.736811 -0.0167105 0
M  V30 17754 H 1681.19 -1.78654 0.646728 0
M  V30 17755 H 1679.34 -3.80152 -0.801033 0
M  V30 17756 H 1681.01 -4.26075 1.76798 0
M  V30 17757 H 1679.26 -3.97964 1.72648 0
M  V30 17758 H 1679.93 -5.43247 0.979142 0
M  V30 17759 H 1682.4 -4.1369 -0.447173 0
M  V30 17760 H 1681.28 -5.39159 -1.02951 0
M  V30 17761 H 1681.54 -3.94627 -1.99304 0
M  V30 17762 N 1680.6 -0.229873 -1.55915 0
M  V30 17763 C 1681.53 0.717016 -2.16643 0
M  V30 17764 C 1682.51 1.18509 -1.1133 0
M  V30 17765 O 1683.69 1.26632 -1.3963 0
M  V30 17766 C 1680.82 1.97243 -2.75342 0
M  V30 17767 C 1679.87 1.64364 -3.93556 0
M  V30 17768 S 1680.7 0.76114 -5.30063 0
M  V30 17769 C 1681.86 2.02593 -5.92205 0
M  V30 17770 H 1682.09 0.200879 -2.96621 0
M  V30 17771 H 1679.62 -0.0144837 -1.54393 0
M  V30 17772 H 1681.58 2.69323 -3.09799 0
M  V30 17773 H 1680.24 2.45969 -1.95341 0
M  V30 17774 H 1679.43 2.57662 -4.33159 0
M  V30 17775 H 1679.04 1.00341 -3.60288 0
M  V30 17776 H 1681.33 2.97504 -6.08685 0
M  V30 17777 H 1682.27 1.67367 -6.88036 0
M  V30 17778 H 1682.68 2.17026 -5.21114 0
M  V30 17779 N 1682.08 1.5754 0.0434337 0
M  V30 17780 C 1683.33 1.87789 0.736074 0
M  V30 17781 C 1683.64 0.826466 1.77282 0
M  V30 17782 O 1684.85 1.01771 2.51704 0
M  V30 17783 C 1683.3 3.33207 1.36018 0
M  V30 17784 C 1682.91 4.46547 0.360532 0
M  V30 17785 C 1684.65 3.72623 2.03353 0
M  V30 17786 C 1682.56 5.83018 0.992167 0
M  V30 17787 H 1681.49 0.700614 0.278667 0
M  V30 17788 H 1684.14 1.83497 -0.00997697 0
M  V30 17789 H 1682.52 3.32199 2.15546 0
M  V30 17790 H 1683.7 4.58999 -0.406987 0
M  V30 17791 H 1682.01 4.1587 -0.209931 0
M  V30 17792 H 1684.61 4.71893 2.51437 0
M  V30 17793 H 1684.95 3.03874 2.84546 0
M  V30 17794 H 1685.49 3.75744 1.3062 0
M  V30 17795 H 1682.22 6.55131 0.219964 0
M  V30 17796 H 1681.74 5.74313 1.72987 0
M  V30 17797 H 1683.42 6.29283 1.50374 0
M  V30 17798 N 1683.56 -0.31543 1.54411 0
M  V30 17799 C 1684.83 -1.07113 1.63665 0
M  V30 17800 C 1685.21 -2.05671 0.475688 0
M  V30 17801 O 1684.56 -2.22288 -0.52918 0
M  V30 17802 C 1684.77 -1.76584 3.0103 0
M  V30 17803 C 1686.12 -2.29309 3.57355 0
M  V30 17804 O 1687.14 -1.86638 3.03388 0
M  V30 17805 O 1686 -3.07452 4.51814 0
M  V30 17806 H 1683.1 -0.494217 0.663083 0
M  V30 17807 H 1685.64 -0.31467 1.66757 0
M  V30 17808 H 1684.41 -1.0494 3.76966 0
M  V30 17809 H 1684.04 -2.5902 3.01653 0
M  V30 17810 N 1685.03 -1.46622 -0.577906 0
M  V30 17811 C 1686.28 -1.5188 -1.3333 0
M  V30 17812 C 1686.6 -0.173993 -1.94222 0
M  V30 17813 O 1685.87 0.799972 -1.78822 0
M  V30 17814 H 1684.45 -0.559401 -0.495055 0
M  V30 17815 H 1687.12 -1.82785 -0.676449 0
M  V30 17816 H 1686.21 -2.27411 -2.13754 0
M  V30 17817 N 1686.51 0.822941 -1.34408 0
M  V30 17818 C 1687.46 1.92272 -1.22537 0
M  V30 17819 C 1688.45 1.60418 -0.124416 0
M  V30 17820 O 1689.64 1.73422 -0.354077 0
M  V30 17821 C 1686.77 3.28926 -0.982998 0
M  V30 17822 C 1685.85 3.66898 -2.12712 0
M  V30 17823 N 1686.24 3.76436 -3.37831 0
M  V30 17824 C 1684.54 3.96746 -2.03736 0
M  V30 17825 C 1685.24 4.09674 -4.12968 0
M  V30 17826 N 1684.22 4.22893 -3.41559 0
M  V30 17827 H 1688.02 1.97824 -2.17354 0
M  V30 17828 H 1685.54 1.0166 -1.26645 0
M  V30 17829 H 1687.53 4.07531 -0.878862 0
M  V30 17830 H 1686.19 3.24671 -0.0435162 0
M  V30 17831 H 1687.2 3.59931 -3.72384 0
M  V30 17832 H 1683.88 4.00611 -1.17544 0
M  V30 17833 H 1685.27 4.24257 -5.21014 0
M  V30 17834 N 1687.99 1.18137 1.04314 0
M  V30 17835 C 1689.27 0.884901 1.74439 0
M  V30 17836 C 1689.65 -0.612825 2.02009 0
M  V30 17837 O 1689 -1.56679 1.66325 0
M  V30 17838 C 1689.21 1.72944 3.03136 0
M  V30 17839 C 1690.55 1.95491 3.7692 0
M  V30 17840 O 1691.58 1.69976 3.13028 0
M  V30 17841 O 1690.44 2.38426 4.91747 0
M  V30 17842 H 1687.53 0.328481 0.758966 0
M  V30 17843 H 1690.08 1.28878 1.10402 0
M  V30 17844 H 1688.85 2.74485 2.78879 0
M  V30 17845 H 1688.47 1.32392 3.74911 0
M  V30 17846 N 1689.47 -1.23186 0.98301 0
M  V30 17847 C 1690.69 -1.96242 0.671114 0
M  V30 17848 C 1691.12 -1.72248 -0.755792 0
M  V30 17849 O 1690.48 -0.995555 -1.5152 0
M  V30 17850 C 1690.52 -3.47293 0.970571 0
M  V30 17851 O 1689.63 -4.1235 0.0639814 0
M  V30 17852 H 1688.97 -0.614262 0.252147 0
M  V30 17853 H 1691.5 -1.56551 1.31731 0
M  V30 17854 H 1691.51 -3.9776 0.908345 0
M  V30 17855 H 1690.18 -3.64083 2.01039 0
M  V30 17856 H 1688.76 -3.72461 0.180842 0
M  V30 17857 N 1690.95 -0.754982 -1.38339 0
M  V30 17858 C 1691.89 -0.128193 -2.30444 0
M  V30 17859 C 1692.86 0.70813 -1.50249 0
M  V30 17860 O 1694.05 0.663969 -1.78875 0
M  V30 17861 C 1691.19 0.757921 -3.36674 0
M  V30 17862 C 1690.3 -0.093181 -4.31899 0
M  V30 17863 C 1689.44 0.796067 -5.25201 0
M  V30 17864 C 1688.48 -0.0585854 -6.12072 0
M  V30 17865 N 1687.61 0.7877 -6.97667 0
M  V30 17866 H 1692.45 -0.919204 -2.83469 0
M  V30 17867 H 1689.99 -0.464921 -1.3956 0
M  V30 17868 H 1691.95 1.28632 -3.96875 0
M  V30 17869 H 1690.58 1.5147 -2.85055 0
M  V30 17870 H 1689.63 -0.73922 -3.73148 0
M  V30 17871 H 1690.94 -0.753146 -4.93081 0
M  V30 17872 H 1690.1 1.39158 -5.90525 0
M  V30 17873 H 1688.83 1.48976 -4.64389 0
M  V30 17874 H 1687.84 -0.666754 -5.45742 0
M  V30 17875 H 1689.06 -0.749361 -6.74953 0
M  V30 17876 H 1687.01 1.46632 -6.39402 0
M  V30 17877 H 1686.93 0.184662 -7.55774 0
M  V30 17878 H 1688.2 1.36814 -7.674 0
M  V30 17879 N 1692.42 1.49318 -0.504168 0
M  V30 17880 C 1693.37 2.29185 0.272566 0
M  V30 17881 C 1694.34 1.35726 0.957476 0
M  V30 17882 O 1695.53 1.64684 0.963524 0
M  V30 17883 C 1692.67 3.18477 1.32916 0
M  V30 17884 C 1691.78 4.26995 0.655704 0
M  V30 17885 C 1690.91 5.03498 1.69301 0
M  V30 17886 C 1689.95 6.0385 1.0016 0
M  V30 17887 N 1689.09 6.73507 1.98325 0
M  V30 17888 H 1693.93 2.951 -0.41474 0
M  V30 17889 H 1691.47 1.455 -0.216372 0
M  V30 17890 H 1693.43 3.68624 1.95377 0
M  V30 17891 H 1692.06 2.54539 1.98519 0
M  V30 17892 H 1691.11 3.80311 -0.0822653 0
M  V30 17893 H 1692.42 4.98675 0.111584 0
M  V30 17894 H 1691.57 5.5753 2.39259 0
M  V30 17895 H 1690.31 4.31599 2.27099 0
M  V30 17896 H 1689.32 5.49046 0.287811 0
M  V30 17897 H 1690.54 6.77737 0.430073 0
M  V30 17898 H 1688.49 6.04376 2.55079 0
M  V30 17899 H 1688.41 7.41174 1.48988 0
M  V30 17900 H 1689.67 7.32141 2.67561 0
M  V30 17901 N 1693.9 0.238138 1.5579 0
M  V30 17902 C 1695.15 -0.389608 1.99022 0
M  V30 17903 C 1695.48 -1.58226 1.12597 0
M  V30 17904 O 1694.76 -1.93595 0.187363 0
M  V30 17905 C 1695.04 -0.808025 3.50917 0
M  V30 17906 C 1694.89 0.389417 4.48111 0
M  V30 17907 C 1696.21 -1.6582 4.07666 0
M  V30 17908 H 1693.33 -0.140141 0.723553 0
M  V30 17909 H 1695.97 0.337696 1.86975 0
M  V30 17910 H 1694.12 -1.42772 3.61315 0
M  V30 17911 H 1695.79 1.02777 4.49705 0
M  V30 17912 H 1694.04 1.03404 4.21296 0
M  V30 17913 H 1694.71 0.0534549 5.51974 0
M  V30 17914 H 1697.18 -1.13518 4.00316 0
M  V30 17915 H 1696.06 -1.91984 5.14231 0
M  V30 17916 H 1696.32 -2.62712 3.55577 0
M  V30 17917 N 1695.38 -1.57561 -0.0350783 0
M  V30 17918 C 1696.33 -2.07246 -1.05602 0
M  V30 17919 C 1697.32 -0.985013 -1.37818 0
M  V30 17920 O 1698.53 -1.16993 -1.36794 0
M  V30 17921 H 1694.9 -0.661286 -0.358057 0
M  V30 17922 H 1696.87 -2.92075 -0.611124 0
M  V30 17923 C 1695.62 -2.56235 -2.3503 0
M  V30 17924 H 1694.95 -3.39525 -2.111 0
M  V30 17925 H 1696.39 -2.94716 -3.04826 0
M  V30 17926 C 1694.85 -1.46096 -3.03575 0
M  V30 17927 O 1695.38 -0.823772 -3.93163 0
M  V30 17928 N 1693.58 -1.19698 -2.64803 0
M  V30 17929 H 1693.13 -1.71697 -1.92036 0
M  V30 17930 H 1693.09 -0.462174 -3.10984 0
M  V30 17931 N 1696.86 0.307236 -1.54576 0
M  V30 17932 C 1698.1 1.04476 -1.73818 0
M  V30 17933 C 1698.44 1.87134 -0.519102 0
M  V30 17934 O 1697.71 1.88386 0.483852 0
M  V30 17935 C 1698 1.95594 -3.02349 0
M  V30 17936 C 1697.85 1.16158 -4.34543 0
M  V30 17937 C 1699.17 2.94865 -3.26715 0
M  V30 17938 H 1696.29 0.378415 -0.632433 0
M  V30 17939 H 1698.93 0.319955 -1.87287 0
M  V30 17940 H 1697.08 2.57396 -2.90997 0
M  V30 17941 H 1698.75 0.5669 -4.57803 0
M  V30 17942 H 1696.99 0.464158 -4.3131 0
M  V30 17943 H 1697.66 1.8315 -5.2073 0
M  V30 17944 H 1700.14 2.4319 -3.37636 0
M  V30 17945 H 1699.02 3.55791 -4.17976 0
M  V30 17946 H 1699.28 3.68195 -2.44714 0
M  V30 17947 N 1698.34 1.46926 0.570122 0
M  V30 17948 C 1699.27 1.54487 1.69311 0
M  V30 17949 C 1700.28 0.432119 1.5696 0
M  V30 17950 O 1701.47 0.701107 1.64155 0
M  V30 17951 C 1698.57 1.42093 3.07673 0
M  V30 17952 C 1697.74 2.6771 3.45905 0
M  V30 17953 C 1696.8 2.49336 4.63377 0
M  V30 17954 O 1695.83 3.23107 4.68605 0
M  V30 17955 N 1697.03 1.56319 5.59057 0
M  V30 17956 H 1699.8 2.51319 1.63276 0
M  V30 17957 H 1697.36 1.43142 0.756434 0
M  V30 17958 H 1699.35 1.27554 3.84073 0
M  V30 17959 H 1697.92 0.533945 3.08006 0
M  V30 17960 H 1697.14 2.97102 2.59083 0
M  V30 17961 H 1698.43 3.51131 3.68218 0
M  V30 17962 H 1697.82 0.955109 5.57579 0
M  V30 17963 H 1696.38 1.47738 6.34836 0
M  V30 17964 N 1699.82 -0.815801 1.34842 0
M  V30 17965 C 1701.06 -1.57241 1.27599 0
M  V30 17966 C 1701.39 -1.93904 -0.152127 0
M  V30 17967 O 1700.65 -1.60819 -1.11515 0
M  V30 17968 C 1700.94 -2.87795 2.11917 0
M  V30 17969 C 1700.61 -2.70392 3.60831 0
M  V30 17970 C 1699.27 -2.65353 4.01424 0
M  V30 17971 C 1701.62 -2.53569 4.55359 0
M  V30 17972 C 1698.95 -2.41422 5.34726 0
M  V30 17973 C 1701.3 -2.31169 5.8885 0
M  V30 17974 C 1699.97 -2.24546 6.28598 0
M  V30 17975 H 1699.24 -0.575386 0.466918 0
M  V30 17976 H 1701.89 -0.943355 1.66653 0
M  V30 17977 H 1700.19 -3.5503 1.65714 0
M  V30 17978 H 1701.89 -3.45436 2.03654 0
M  V30 17979 H 1698.48 -2.75157 3.28613 0
M  V30 17980 H 1702.66 -2.5648 4.2489 0
M  V30 17981 H 1697.92 -2.34758 5.64534 0
M  V30 17982 H 1702.09 -2.1714 6.61682 0
M  V30 17983 H 1699.72 -2.05765 7.31823 0
M  V30 17984 N 1701.29 -1.18689 -1.03686 0
M  V30 17985 C 1702.22 -0.94094 -2.13702 0
M  V30 17986 C 1703.2 0.12277 -1.69656 0
M  V30 17987 O 1704.39 -0.0306085 -1.94176 0
M  V30 17988 C 1701.52 -0.470054 -3.44104 0
M  V30 17989 C 1700.47 -1.47468 -4.01792 0
M  V30 17990 C 1699.8 -0.861174 -5.2772 0
M  V30 17991 C 1701.1 -2.85254 -4.37524 0
M  V30 17992 H 1702.79 -1.86102 -2.34534 0
M  V30 17993 H 1700.34 -0.896207 -1.12713 0
M  V30 17994 H 1702.29 -0.28533 -4.20433 0
M  V30 17995 H 1701.02 0.485604 -3.2297 0
M  V30 17996 H 1699.68 -1.64641 -3.2755 0
M  V30 17997 H 1699.32 0.10179 -5.02897 0
M  V30 17998 H 1699.02 -1.53196 -5.67278 0
M  V30 17999 H 1700.55 -0.687066 -6.06722 0
M  V30 18000 H 1701.96 -2.71711 -5.04823 0
M  V30 18001 H 1700.36 -3.49051 -4.88143 0
M  V30 18002 H 1701.43 -3.38516 -3.47181 0
M  V30 18003 N 1702.77 1.22662 -0.989529 0
M  V30 18004 C 1704.19 1.43445 -0.699687 0
M  V30 18005 C 1704.39 1.87778 0.730875 0
M  V30 18006 O 1703.44 2.02953 1.5022 0
M  V30 18007 C 1704.76 2.47869 -1.70239 0
M  V30 18008 C 1706.3 2.61672 -1.71746 0
M  V30 18009 C 1706.78 3.69315 -2.7087 0
M  V30 18010 N 1708.27 3.76768 -2.69444 0
M  V30 18011 C 1709.01 4.59641 -3.42808 0
M  V30 18012 N 1708.5 5.46533 -4.25762 0
M  V30 18013 N 1710.29 4.53921 -3.3153 0
M  V30 18014 H 1702.45 0.921912 -1.91349 0
M  V30 18015 H 1704.71 0.466905 -0.825048 0
M  V30 18016 H 1704.41 2.22233 -2.7259 0
M  V30 18017 H 1704.29 3.46415 -1.49254 0
M  V30 18018 H 1706.68 2.86655 -0.70094 0
M  V30 18019 H 1706.76 1.63413 -1.96799 0
M  V30 18020 H 1706.4 3.4508 -3.72669 0
M  V30 18021 H 1706.33 4.67136 -2.43088 0
M  V30 18022 H 1708.82 3.1468 -2.09249 0
M  V30 18023 H 1709.13 6.06783 -4.78575 0
M  V30 18024 H 1707.48 5.46126 -4.2985 0
M  V30 18025 H 1710.67 3.85062 -2.66168 0
M  V30 18026 H 1710.84 5.18277 -3.88964 0
M  V30 18027 N 1704.25 0.762308 1.37937 0
M  V30 18028 C 1705.47 0.332217 2.04722 0
M  V30 18029 C 1705.9 -1.03417 1.57119 0
M  V30 18030 O 1705.26 -1.6608 0.727117 0
M  V30 18031 C 1705.31 0.373899 3.58656 0
M  V30 18032 O 1704.41 -0.629024 4.07575 0
M  V30 18033 H 1703.75 0.145471 0.647869 0
M  V30 18034 H 1706.28 1.03586 1.7644 0
M  V30 18035 H 1706.29 0.22785 4.07363 0
M  V30 18036 H 1704.97 1.37079 3.92661 0
M  V30 18037 H 1703.54 -0.446871 3.70213 0
M  V30 18038 N 1705.73 -1.49049 0.51208 0
M  V30 18039 C 1706.68 -2.30981 -0.273991 0
M  V30 18040 C 1707.67 -1.40092 -0.952402 0
M  V30 18041 O 1708.88 -1.57088 -0.878828 0
M  V30 18042 H 1705.25 -0.744317 -0.107221 0
M  V30 18043 H 1707.22 -2.95185 0.436866 0
M  V30 18044 C 1705.97 -3.21714 -1.31892 0
M  V30 18045 H 1705.29 -3.91585 -0.806302 0
M  V30 18046 H 1706.73 -3.81961 -1.8407 0
M  V30 18047 C 1705.19 -2.42082 -2.34303 0
M  V30 18048 O 1705.72 -2.13285 -3.40401 0
M  V30 18049 N 1703.93 -2.03903 -2.07055 0
M  V30 18050 H 1703.48 -2.27523 -1.20794 0
M  V30 18051 H 1703.43 -1.50932 -2.75802 0
M  V30 18052 N 1707.21 -0.246397 -1.55662 0
M  V30 18053 C 1708.45 0.378973 -1.98108 0
M  V30 18054 C 1708.77 1.59106 -1.13775 0
M  V30 18055 O 1709.97 2.28754 -1.46232 0
M  V30 18056 C 1708.43 0.725634 -3.52509 0
M  V30 18057 C 1708.04 -0.465024 -4.4558 0
M  V30 18058 C 1709.78 1.31522 -4.03611 0
M  V30 18059 C 1707.69 -0.0945447 -5.91324 0
M  V30 18060 H 1706.62 0.14537 -0.739854 0
M  V30 18061 H 1709.27 -0.346533 -1.80198 0
M  V30 18062 H 1707.65 1.50925 -3.66111 0
M  V30 18063 H 1708.83 -1.24236 -4.43736 0
M  V30 18064 H 1707.14 -0.969507 -4.04956 0
M  V30 18065 H 1709.74 1.60573 -5.1002 0
M  V30 18066 H 1710.08 2.23952 -3.50929 0
M  V30 18067 H 1710.61 0.594515 -3.93332 0
M  V30 18068 H 1707.35 -0.985965 -6.48042 0
M  V30 18069 H 1706.87 0.646601 -5.96305 0
M  V30 18070 H 1708.55 0.323447 -6.46191 0
M  V30 18071 N 1708.68 1.57577 0.026722 0
M  V30 18072 C 1709.93 1.89005 0.715645 0
M  V30 18073 C 1710.25 0.844388 1.7577 0
M  V30 18074 O 1709.52 -0.121693 1.95522 0
M  V30 18075 H 1708.1 0.697535 0.267308 0
M  V30 18076 H 1710.76 1.94898 -0.00788096 0
M  V30 18077 H 1709.86 2.87952 1.20374 0
M  V30 18078 N 1710.16 -0.299034 1.54737 0
M  V30 18079 C 1711.41 -1.03164 1.7332 0
M  V30 18080 C 1711.72 -1.88362 0.527184 0
M  V30 18081 O 1712.93 -2.64903 0.594868 0
M  V30 18082 C 1711.39 -1.88391 3.06654 0
M  V30 18083 C 1710.99 -1.08187 4.34741 0
M  V30 18084 C 1712.74 -2.6124 3.34595 0
M  V30 18085 C 1710.64 -1.92702 5.59124 0
M  V30 18086 H 1709.57 -0.388887 0.645975 0
M  V30 18087 H 1712.23 -0.288544 1.81217 0
M  V30 18088 H 1710.61 -2.66696 2.92727 0
M  V30 18089 H 1711.78 -0.344817 4.59508 0
M  V30 18090 H 1710.1 -0.469118 4.13749 0
M  V30 18091 H 1712.69 -3.24826 4.24726 0
M  V30 18092 H 1713.04 -3.30172 2.53559 0
M  V30 18093 H 1713.57 -1.89982 3.49502 0
M  V30 18094 H 1710.31 -1.28236 6.42834 0
M  V30 18095 H 1709.83 -2.64074 5.38539 0
M  V30 18096 H 1711.51 -2.50702 5.96454 0
M  V30 18097 N 1711.64 -1.47227 -0.562322 0
M  V30 18098 C 1712.89 -1.53816 -1.32168 0
M  V30 18099 C 1713.22 -0.197649 -1.93192 0
M  V30 18100 O 1712.49 0.793178 -1.77592 0
M  V30 18101 C 1712.78 -2.65231 -2.43566 0
M  V30 18102 C 1712.63 -4.08882 -1.87445 0
M  V30 18103 C 1713.95 -2.72589 -3.45519 0
M  V30 18104 H 1711.07 -0.559947 -0.479195 0
M  V30 18105 H 1713.71 -1.7926 -0.629762 0
M  V30 18106 H 1711.86 -2.43667 -3.02587 0
M  V30 18107 H 1713.53 -4.41794 -1.32725 0
M  V30 18108 H 1711.77 -4.17401 -1.18149 0
M  V30 18109 H 1712.45 -4.82603 -2.67952 0
M  V30 18110 H 1714.92 -2.92028 -2.9641 0
M  V30 18111 H 1713.8 -3.5233 -4.20898 0
M  V30 18112 H 1714.06 -1.79444 -4.04045 0
M  V30 18113 N 1713.12 0.808639 -1.35273 0
M  V30 18114 C 1714.34 1.60219 -1.31699 0
M  V30 18115 C 1714.77 1.87816 0.103386 0
M  V30 18116 O 1714.13 1.46389 1.06957 0
M  V30 18117 C 1714.17 2.9116 -2.12739 0
M  V30 18118 O 1713.28 3.83891 -1.5067 0
M  V30 18119 H 1712.62 0.486742 -0.45164 0
M  V30 18120 H 1715.15 1.00378 -1.78284 0
M  V30 18121 H 1715.16 3.40602 -2.2462 0
M  V30 18122 H 1713.83 2.70399 -3.16002 0
M  V30 18123 H 1712.41 3.42437 -1.47618 0
M  V30 18124 N 1714.6 1.19237 1.03055 0
M  V30 18125 C 1715.53 0.886348 2.11368 0
M  V30 18126 C 1716.54 -0.120256 1.62355 0
M  V30 18127 O 1717.73 0.108934 1.78167 0
M  V30 18128 C 1714.83 0.304819 3.37526 0
M  V30 18129 C 1714 1.35957 4.15734 0
M  V30 18130 C 1713.06 0.791885 5.20207 0
M  V30 18131 O 1712.09 1.46916 5.49913 0
M  V30 18132 N 1713.29 -0.40564 5.79081 0
M  V30 18133 H 1716.06 1.81867 2.38211 0
M  V30 18134 H 1713.62 1.09414 1.19332 0
M  V30 18135 H 1715.61 -0.0887629 4.04603 0
M  V30 18136 H 1714.18 -0.531744 3.08044 0
M  V30 18137 H 1713.4 1.92806 3.43831 0
M  V30 18138 H 1714.69 2.07034 4.64773 0
M  V30 18139 H 1714.08 -0.973423 5.57262 0
M  V30 18140 H 1712.64 -0.741021 6.47574 0
M  V30 18141 N 1716.07 -1.22136 0.99602 0
M  V30 18142 C 1716.98 -2.27869 0.557927 0
M  V30 18143 C 1718 -1.69462 -0.394781 0
M  V30 18144 O 1719.18 -1.99704 -0.26084 0
M  V30 18145 C 1716.24 -3.46501 -0.117434 0
M  V30 18146 C 1715.3 -4.20213 0.878627 0
M  V30 18147 C 1714.54 -5.33181 0.2354 0
M  V30 18148 O 1714.76 -5.62093 -0.969954 0
M  V30 18149 O 1713.69 -5.94486 0.941828 0
M  V30 18150 H 1717.52 -2.67517 1.43765 0
M  V30 18151 H 1715.1 -1.28362 0.764428 0
M  V30 18152 H 1716.99 -4.18476 -0.49559 0
M  V30 18153 H 1715.66 -3.08772 -0.971674 0
M  V30 18154 H 1714.57 -3.50497 1.30777 0
M  V30 18155 H 1715.9 -4.6183 1.70217 0
M  V30 18156 N 1717.55 -0.769612 -1.37531 0
M  V30 18157 C 1718.96 -0.398644 -1.82394 0
M  V30 18158 C 1719.31 1.07493 -1.64133 0
M  V30 18159 O 1718.44 1.83234 -1.15127 0
M  V30 18160 C 1719.03 -0.716789 -3.31131 0
M  V30 18161 C 1717.59 -0.398903 -3.7428 0
M  V30 18162 C 1716.74 -0.96173 -2.60089 0
M  V30 18163 H 1719.69 -0.964441 -1.26033 0
M  V30 18164 H 1719.71 -0.00067688 -3.805 0
M  V30 18165 H 1719.22 -1.78933 -3.4439 0
M  V30 18166 H 1717.33 0.666412 -3.66592 0
M  V30 18167 H 1717.44 -0.90566 -4.70462 0
M  V30 18168 H 1715.8 -0.386103 -2.51757 0
M  V30 18169 H 1716.59 -2.03963 -2.76141 0
M  V30 18170 N 1719.03 1.48775 -0.519977 0
M  V30 18171 C 1720.28 2.02792 0.0177768 0
M  V30 18172 C 1720.61 1.3972 1.34878 0
M  V30 18173 O 1719.88 0.539438 1.8687 0
M  V30 18174 C 1720.17 3.59786 0.150355 0
M  V30 18175 C 1720.02 4.33356 -1.20511 0
M  V30 18176 C 1721.34 4.31172 0.881959 0
M  V30 18177 H 1718.46 0.736983 0.00498634 0
M  V30 18178 H 1721.1 1.77603 -0.675069 0
M  V30 18179 H 1719.25 3.81378 0.740452 0
M  V30 18180 H 1720.92 4.23209 -1.83554 0
M  V30 18181 H 1719.17 3.95167 -1.78957 0
M  V30 18182 H 1719.84 5.4162 -1.06544 0
M  V30 18183 H 1722.31 4.14349 0.381302 0
M  V30 18184 H 1721.19 5.40729 0.943601 0
M  V30 18185 H 1721.45 3.97747 1.93001 0
M  V30 18186 N 1720.51 0.254649 1.55529 0
M  V30 18187 C 1721.44 -0.635656 2.24681 0
M  V30 18188 C 1722.42 -1.17519 1.22977 0
M  V30 18189 O 1723.6 -1.21311 1.51649 0
M  V30 18190 C 1720.73 -1.82922 2.95224 0
M  V30 18191 C 1719.69 -1.42212 4.03683 0
M  V30 18192 C 1719.01 -2.69713 4.61691 0
M  V30 18193 C 1720.31 -0.587436 5.18986 0
M  V30 18194 H 1722.01 -0.0590063 2.99342 0
M  V30 18195 H 1719.55 -0.02694 1.43975 0
M  V30 18196 H 1721.51 -2.45777 3.42304 0
M  V30 18197 H 1720.23 -2.43137 2.18064 0
M  V30 18198 H 1718.89 -0.81687 3.57383 0
M  V30 18199 H 1718.54 -3.28143 3.81223 0
M  V30 18200 H 1718.24 -2.43194 5.34911 0
M  V30 18201 H 1719.76 -3.33453 5.11509 0
M  V30 18202 H 1721.18 -1.12048 5.62244 0
M  V30 18203 H 1719.57 -0.417988 5.98643 0
M  V30 18204 H 1720.64 0.398577 4.83259 0
M  V30 18205 N 1721.99 -1.57589 -0.0183649 0
M  V30 18206 C 1723.23 -1.89757 -0.707008 0
M  V30 18207 C 1723.56 -0.853257 -1.74785 0
M  V30 18208 O 1722.82 0.144406 -1.95166 0
M  V30 18209 C 1723.12 -3.28677 -1.4038 0
M  V30 18210 C 1722.78 -4.48142 -0.497917 0
M  V30 18211 C 1721.44 -4.80558 -0.248444 0
M  V30 18212 C 1723.8 -5.21046 0.126883 0
M  V30 18213 C 1721.12 -5.8326 0.634428 0
M  V30 18214 C 1723.48 -6.24686 0.997521 0
M  V30 18215 C 1722.14 -6.5557 1.25635 0
M  V30 18216 H 1721.41 -0.694369 -0.258713 0
M  V30 18217 H 1724.06 -1.91471 0.0332176 0
M  V30 18218 H 1722.36 -3.23 -2.21761 0
M  V30 18219 H 1724.06 -3.50818 -1.94236 0
M  V30 18220 H 1720.65 -4.22803 -0.702519 0
M  V30 18221 H 1724.83 -4.96272 -0.0528705 0
M  V30 18222 H 1720.09 -6.05558 0.843157 0
M  V30 18223 H 1724.26 -6.80315 1.48811 0
M  V30 18224 H 1721.89 -7.34972 1.94218 0
M  V30 18225 N 1723.46 0.290824 -1.54893 0
M  V30 18226 C 1724.43 1.34215 -1.85793 0
M  V30 18227 C 1725.43 1.43204 -0.731393 0
M  V30 18228 O 1726.62 1.42663 -0.999647 0
M  V30 18229 C 1723.75 2.72577 -2.0473 0
M  V30 18230 H 1724.94 1.08056 -2.79757 0
M  V30 18231 H 1722.5 0.528008 -1.47111 0
M  V30 18232 H 1723.23 3.03943 -1.13088 0
M  V30 18233 H 1723.02 2.67442 -2.86736 0
M  V30 18234 H 1724.51 3.48573 -2.29971 0
M  V30 18235 N 1724.94 1.47523 0.554506 0
M  V30 18236 C 1726.18 1.55867 1.32231 0
M  V30 18237 C 1726.55 0.216987 1.9077 0
M  V30 18238 O 1727.75 0.175283 2.68228 0
M  V30 18239 C 1726.02 2.64761 2.40076 0
M  V30 18240 S 1727.58 2.92706 3.26908 0
M  V30 18241 H 1724.4 0.550369 0.450128 0
M  V30 18242 H 1727 1.84917 0.634504 0
M  V30 18243 H 1725.7 3.60838 1.95509 0
M  V30 18244 H 1725.23 2.37534 3.13594 0
M  V30 18245 H 1727.25 2.30127 4.39609 0
M  V30 18246 N 1726.42 -0.801453 1.357 0
M  V30 18247 C 1727.65 -1.59518 1.32547 0
M  V30 18248 C 1728.07 -1.87868 -0.0934243 0
M  V30 18249 O 1727.43 -1.46955 -1.06179 0
M  V30 18250 C 1727.48 -2.90028 2.14281 0
M  V30 18251 O 1726.58 -3.83086 1.52704 0
M  V30 18252 H 1725.92 -0.48434 0.454215 0
M  V30 18253 H 1728.45 -0.994315 1.78814 0
M  V30 18254 H 1728.46 -3.39406 2.26423 0
M  V30 18255 H 1727.14 -2.6872 3.17431 0
M  V30 18256 H 1725.71 -3.4165 1.49432 0
M  V30 18257 N 1727.9 -1.19782 -1.02421 0
M  V30 18258 C 1729.15 -0.997598 -1.75302 0
M  V30 18259 C 1729.46 0.471843 -1.89824 0
M  V30 18260 O 1730.67 0.790999 -2.59722 0
M  V30 18261 C 1729.12 -1.73608 -3.15259 0
M  V30 18262 C 1728.73 -3.24594 -3.08776 0
M  V30 18263 C 1730.47 -1.61927 -3.92403 0
M  V30 18264 C 1728.38 -3.91012 -4.43693 0
M  V30 18265 H 1727.31 -0.369643 -0.657176 0
M  V30 18266 H 1729.96 -1.43325 -1.14587 0
M  V30 18267 H 1728.34 -1.22826 -3.7647 0
M  V30 18268 H 1729.52 -3.82531 -2.56918 0
M  V30 18269 H 1727.83 -3.36603 -2.45127 0
M  V30 18270 H 1730.43 -2.08896 -4.92206 0
M  V30 18271 H 1730.77 -0.574192 -4.12321 0
M  V30 18272 H 1731.31 -2.10081 -3.37803 0
M  V30 18273 H 1728.05 -4.95639 -4.28979 0
M  V30 18274 H 1727.57 -3.37864 -4.95588 0
M  V30 18275 H 1729.24 -3.94828 -5.12562 0
M  V30 18276 N 1729.38 1.21606 -1.00248 0
M  V30 18277 C 1730.31 2.22528 -0.505624 0
M  V30 18278 C 1731.29 1.56553 0.439305 0
M  V30 18279 O 1732.47 1.84979 0.362615 0
M  V30 18280 C 1729.6 3.37655 0.26586 0
M  V30 18281 C 1728.65 4.21874 -0.626492 0
M  V30 18282 S 1729.48 4.9314 -2.08743 0
M  V30 18283 C 1730.63 6.11699 -1.32571 0
M  V30 18284 H 1730.87 2.64329 -1.36079 0
M  V30 18285 H 1728.4 1.31434 -0.810219 0
M  V30 18286 H 1730.36 4.04402 0.70491 0
M  V30 18287 H 1729.02 2.94342 1.09642 0
M  V30 18288 H 1728.21 5.0399 -0.0323809 0
M  V30 18289 H 1727.81 3.60308 -1.00271 0
M  V30 18290 H 1730.11 6.74853 -0.598298 0
M  V30 18291 H 1731.05 6.75541 -2.12249 0
M  V30 18292 H 1731.46 5.58293 -0.834785 0
M  V30 18293 N 1730.86 0.776895 1.37121 0
M  V30 18294 C 1732.13 0.268067 1.93754 0
M  V30 18295 C 1732.51 -1.23774 1.71007 0
M  V30 18296 O 1731.86 -2.02331 1.0618 0
M  V30 18297 C 1732.07 0.647054 3.42949 0
M  V30 18298 C 1733.42 0.619737 4.20053 0
M  V30 18299 O 1734.44 0.586757 3.51334 0
M  V30 18300 O 1733.3 0.651412 5.42604 0
M  V30 18301 H 1730.4 0.0631883 0.824582 0
M  V30 18302 H 1732.94 0.858594 1.46377 0
M  V30 18303 H 1731.71 1.68608 3.5311 0
M  V30 18304 H 1731.34 0.0297448 3.97589 0
M  V30 18305 N 1732.33 -1.48497 0.527859 0
M  V30 18306 C 1733.28 -2.31258 -0.249477 0
M  V30 18307 C 1734.28 -1.41094 -0.93749 0
M  V30 18308 O 1735.48 -1.58011 -0.862117 0
M  V30 18309 H 1731.86 -0.745412 -0.0993208 0
M  V30 18310 H 1733.83 -2.94705 0.46815 0
M  V30 18311 C 1732.58 -3.23095 -1.28472 0
M  V30 18312 H 1731.9 -3.92418 -0.764724 0
M  V30 18313 H 1733.34 -3.83892 -1.80008 0
M  V30 18314 C 1731.8 -2.44554 -2.31722 0
M  V30 18315 O 1732.33 -2.16883 -3.38119 0
M  V30 18316 N 1730.53 -2.06088 -2.04881 0
M  V30 18317 H 1730.08 -2.28791 -1.18374 0
M  V30 18318 H 1730.04 -1.53849 -2.74186 0
M  V30 18319 N 1733.81 -0.262893 -1.55392 0
M  V30 18320 C 1735.06 0.357939 -1.98499 0
M  V30 18321 C 1735.37 1.5789 -1.15456 0
M  V30 18322 O 1736.58 2.2719 -1.4865 0
M  V30 18323 C 1735.04 0.688205 -3.53259 0
M  V30 18324 C 1734.64 -0.512257 -4.45062 0
M  V30 18325 C 1736.39 1.27234 -4.04984 0
M  V30 18326 C 1734.29 -0.157257 -5.91191 0
M  V30 18327 H 1733.22 0.137514 -0.741354 0
M  V30 18328 H 1735.88 -0.365626 -1.79821 0
M  V30 18329 H 1734.26 1.47034 -3.67692 0
M  V30 18330 H 1735.43 -1.28935 -4.42394 0
M  V30 18331 H 1733.75 -1.0124 -4.03905 0
M  V30 18332 H 1736.34 1.55155 -5.11694 0
M  V30 18333 H 1736.69 2.20217 -3.53285 0
M  V30 18334 H 1737.22 0.552763 -3.93941 0
M  V30 18335 H 1733.96 -1.05464 -6.4696 0
M  V30 18336 H 1733.48 0.583319 -5.96957 0
M  V30 18337 H 1735.16 0.254892 -6.46498 0
M  V30 18338 N 1735.29 1.57597 0.0100073 0
M  V30 18339 C 1736.24 2.07788 1.00463 0
M  V30 18340 C 1737.21 0.971101 1.34755 0
M  V30 18341 O 1738.39 1.2429 1.44764 0
M  V30 18342 C 1735.53 2.57769 2.29454 0
M  V30 18343 C 1734.64 3.8231 2.01153 0
M  V30 18344 C 1733.78 4.2083 3.24154 0
M  V30 18345 C 1732.82 5.38236 2.91494 0
M  V30 18346 N 1731.96 5.72096 4.07001 0
M  V30 18347 H 1736.8 2.92504 0.569675 0
M  V30 18348 H 1734.33 1.44607 0.269645 0
M  V30 18349 H 1736.29 2.84821 3.04849 0
M  V30 18350 H 1734.92 1.75942 2.70637 0
M  V30 18351 H 1733.97 3.62227 1.16171 0
M  V30 18352 H 1735.28 4.67811 1.73074 0
M  V30 18353 H 1734.44 4.49111 4.07902 0
M  V30 18354 H 1733.18 3.34019 3.55363 0
M  V30 18355 H 1732.18 5.09688 2.06151 0
M  V30 18356 H 1733.41 6.26716 2.61543 0
M  V30 18357 H 1731.35 4.88243 4.38126 0
M  V30 18358 H 1731.27 6.52148 3.82411 0
M  V30 18359 H 1732.54 6.04964 4.91567 0
M  V30 18360 N 1736.77 -0.282606 1.55045 0
M  V30 18361 C 1738 -1.03245 1.78952 0
M  V30 18362 C 1738.41 -1.80777 0.558225 0
M  V30 18363 O 1737.75 -1.77264 -0.482009 0
M  V30 18364 C 1737.81 -2.04557 2.95629 0
M  V30 18365 C 1737.47 -1.46051 4.33034 0
M  V30 18366 C 1738.47 -0.881083 5.1238 0
M  V30 18367 C 1736.16 -1.4906 4.79673 0
M  V30 18368 C 1738.15 -0.339532 6.36495 0
M  V30 18369 C 1735.84 -0.945189 6.03746 0
M  V30 18370 C 1736.84 -0.370643 6.81994 0
M  V30 18371 O 1736.52 0.166447 8.03728 0
M  V30 18372 H 1736.26 -0.311139 0.60014 0
M  V30 18373 H 1738.81 -0.32175 2.02864 0
M  V30 18374 H 1737.04 -2.79359 2.67386 0
M  V30 18375 H 1738.73 -2.65592 3.06946 0
M  V30 18376 H 1739.49 -0.850602 4.77483 0
M  V30 18377 H 1735.37 -1.92719 4.18784 0
M  V30 18378 H 1738.92 0.109564 6.97514 0
M  V30 18379 H 1734.81 -0.972878 6.38126 0
M  V30 18380 H 1735.58 0.054892 8.18482 0
M  V30 18381 N 1738.25 -1.47815 -0.546675 0
M  V30 18382 C 1739.49 -1.54674 -1.30078 0
M  V30 18383 C 1739.81 -0.215151 -1.93809 0
M  V30 18384 O 1739.08 0.761862 -1.80478 0
M  V30 18385 H 1737.66 -0.569776 -0.483078 0
M  V30 18386 H 1740.33 -1.84178 -0.637525 0
M  V30 18387 H 1739.42 -2.31894 -2.08882 0
M  V30 18388 N 1739.72 0.794246 -1.36123 0
M  V30 18389 C 1741 1.53967 -1.20638 0
M  V30 18390 C 1741.38 2.10058 0.209456 0
M  V30 18391 O 1740.73 1.93551 1.2145 0
M  V30 18392 C 1740.94 2.63844 -2.28445 0
M  V30 18393 C 1742.29 3.31855 -2.64872 0
M  V30 18394 O 1743.31 2.74124 -2.27452 0
M  V30 18395 O 1742.17 4.36177 -3.2926 0
M  V30 18396 H 1739.26 0.68086 -0.469424 0
M  V30 18397 H 1741.81 0.833144 -1.4784 0
M  V30 18398 H 1740.58 2.20357 -3.23355 0
M  V30 18399 H 1740.2 3.42121 -2.02581 0
M  V30 18400 N 1741.2 1.20323 1.01785 0
M  V30 18401 C 1742.15 0.947754 2.12416 0
M  V30 18402 C 1743.14 -0.100443 1.69102 0
M  V30 18403 O 1744.35 0.0498028 1.79931 0
M  V30 18404 H 1740.72 0.289148 0.694188 0
M  V30 18405 H 1742.7 1.88714 2.31149 0
M  V30 18406 C 1741.44 0.51503 3.43864 0
M  V30 18407 H 1740.77 1.31318 3.77618 0
M  V30 18408 H 1742.21 0.375476 4.22334 0
M  V30 18409 C 1740.67 -0.772413 3.27926 0
M  V30 18410 O 1741.2 -1.83115 3.57536 0
M  V30 18411 N 1739.4 -0.733948 2.81179 0
M  V30 18412 H 1738.95 0.127902 2.57282 0
M  V30 18413 H 1738.91 -1.59571 2.70896 0
M  V30 18414 N 1742.68 -1.21073 1.00892 0
M  V30 18415 C 1743.91 -1.94233 0.712813 0
M  V30 18416 C 1744.32 -1.74315 -0.725249 0
M  V30 18417 O 1743.68 -1.05224 -1.49111 0
M  V30 18418 C 1743.73 -3.46536 1.02931 0
M  V30 18419 O 1743.45 -3.65798 2.41088 0
M  V30 18420 C 1744.95 -4.36855 0.753166 0
M  V30 18421 H 1742.17 -0.617579 0.262367 0
M  V30 18422 H 1744.72 -1.53781 1.34802 0
M  V30 18423 H 1742.87 -3.84897 0.439634 0
M  V30 18424 H 1743.29 -4.59857 2.52254 0
M  V30 18425 H 1744.76 -5.42405 1.02476 0
M  V30 18426 H 1745.24 -4.38085 -0.312761 0
M  V30 18427 H 1745.84 -4.04145 1.32464 0
M  V30 18428 N 1744.16 -0.784156 -1.36707 0
M  V30 18429 C 1745.11 -0.177044 -2.3012 0
M  V30 18430 C 1746.08 0.6761 -1.51717 0
M  V30 18431 O 1747.26 0.625878 -1.80243 0
M  V30 18432 C 1744.4 0.686337 -3.38206 0
M  V30 18433 C 1743.51 -0.184772 -4.31605 0
M  V30 18434 C 1742.65 0.684485 -5.26772 0
M  V30 18435 C 1741.69 -0.188402 -6.1181 0
M  V30 18436 N 1740.82 0.639537 -6.99181 0
M  V30 18437 H 1745.66 -0.979125 -2.81455 0
M  V30 18438 H 1743.2 -0.494419 -1.38542 0
M  V30 18439 H 1745.16 1.20185 -3.99514 0
M  V30 18440 H 1743.79 1.4539 -2.88204 0
M  V30 18441 H 1742.84 -0.818204 -3.71496 0
M  V30 18442 H 1744.15 -0.857567 -4.91373 0
M  V30 18443 H 1743.31 1.26601 -5.93344 0
M  V30 18444 H 1742.05 1.39092 -4.67445 0
M  V30 18445 H 1741.05 -0.782364 -5.44205 0
M  V30 18446 H 1742.28 -0.89236 -6.73212 0
M  V30 18447 H 1740.22 1.33036 -6.42369 0
M  V30 18448 H 1740.14 0.0243097 -7.55996 0
M  V30 18449 H 1741.41 1.20505 -7.70129 0
M  V30 18450 N 1745.64 1.48215 -0.535727 0
M  V30 18451 C 1746.55 2.33494 0.227577 0
M  V30 18452 C 1747.56 1.4685 0.933327 0
M  V30 18453 O 1748.74 1.7982 0.907008 0
M  V30 18454 C 1745.8 3.23092 1.25747 0
M  V30 18455 C 1744.86 4.25613 0.561454 0
M  V30 18456 C 1744.1 5.1093 1.54228 0
M  V30 18457 O 1744.32 4.98325 2.77539 0
M  V30 18458 O 1743.25 5.92158 1.07852 0
M  V30 18459 H 1747.08 3.0002 -0.471375 0
M  V30 18460 H 1744.67 1.46427 -0.296579 0
M  V30 18461 H 1746.55 3.78498 1.8525 0
M  V30 18462 H 1745.22 2.5922 1.93872 0
M  V30 18463 H 1744.13 3.74026 -0.0742194 0
M  V30 18464 H 1745.46 4.92138 -0.0779649 0
M  V30 18465 N 1747.11 0.27113 1.5525 0
M  V30 18466 C 1748.36 -0.347408 1.98686 0
M  V30 18467 C 1748.68 -1.57275 1.16292 0
M  V30 18468 O 1749.88 -2.26399 1.49853 0
M  V30 18469 C 1748.34 -0.669461 3.53619 0
M  V30 18470 C 1747.95 0.535853 4.44784 0
M  V30 18471 C 1749.69 -1.25084 4.05653 0
M  V30 18472 C 1747.6 0.188607 5.91099 0
M  V30 18473 H 1746.53 -0.133581 0.742073 0
M  V30 18474 H 1749.18 0.375157 1.79624 0
M  V30 18475 H 1747.56 -1.45082 3.68466 0
M  V30 18476 H 1748.73 1.3128 4.41704 0
M  V30 18477 H 1747.05 1.03381 4.03363 0
M  V30 18478 H 1749.65 -1.52439 5.1251 0
M  V30 18479 H 1749.99 -2.18341 3.54448 0
M  V30 18480 H 1750.52 -0.531864 3.94228 0
M  V30 18481 H 1747.26 1.08894 6.46392 0
M  V30 18482 H 1746.78 -0.551653 5.97258 0
M  V30 18483 H 1748.46 -0.220603 6.46624 0
M  V30 18484 N 1748.59 -1.576 -0.00164943 0
M  V30 18485 C 1750 -1.78578 -0.544681 0
M  V30 18486 C 1750.35 -0.905575 -1.74051 0
M  V30 18487 O 1749.48 -0.107614 -2.16132 0
M  V30 18488 C 1750.07 -3.23863 -0.994898 0
M  V30 18489 C 1748.63 -3.45943 -1.48325 0
M  V30 18490 C 1747.78 -2.73887 -0.433702 0
M  V30 18491 H 1750.73 -1.57104 0.224524 0
M  V30 18492 H 1750.75 -3.31885 -1.86099 0
M  V30 18493 H 1750.26 -3.87901 -0.124352 0
M  V30 18494 H 1748.37 -2.87118 -2.37474 0
M  V30 18495 H 1748.48 -4.54621 -1.51185 0
M  V30 18496 H 1746.84 -2.38458 -0.894969 0
M  V30 18497 H 1747.63 -3.40623 0.42785 0
M  V30 18498 N 1750.07 0.274379 -1.55193 0
M  V30 18499 C 1751 1.36461 -1.82903 0
M  V30 18500 C 1751.98 1.47607 -0.681977 0
M  V30 18501 O 1753.17 1.64253 -0.924827 0
M  V30 18502 C 1750.29 2.74116 -1.98942 0
M  V30 18503 C 1749.34 2.80261 -3.2149 0
M  V30 18504 S 1750.17 2.39647 -4.78884 0
M  V30 18505 C 1751.33 3.79279 -4.97894 0
M  V30 18506 H 1751.56 1.12752 -2.75089 0
M  V30 18507 H 1749.09 0.473936 -1.46946 0
M  V30 18508 H 1751.05 3.5339 -2.08868 0
M  V30 18509 H 1749.71 2.95078 -1.07647 0
M  V30 18510 H 1748.91 3.81291 -3.29595 0
M  V30 18511 H 1748.51 2.09007 -3.10148 0
M  V30 18512 H 1750.8 4.74537 -4.83551 0
M  V30 18513 H 1751.74 3.76127 -5.99945 0
M  V30 18514 H 1752.15 3.70518 -4.25883 0
M  V30 18515 N 1751.55 1.48103 0.538828 0
M  V30 18516 C 1752.46 1.64632 1.67133 0
M  V30 18517 C 1753.47 0.528917 1.65766 0
M  V30 18518 O 1754.65 0.798849 1.84879 0
M  V30 18519 C 1751.72 1.67391 3.03614 0
M  V30 18520 C 1750.78 2.90694 3.15904 0
M  V30 18521 C 1750.01 2.93311 4.45875 0
M  V30 18522 O 1750.23 2.04596 5.32444 0
M  V30 18523 O 1749.17 3.85384 4.62345 0
M  V30 18524 H 1752.99 2.60496 1.56126 0
M  V30 18525 H 1750.58 1.31401 0.710925 0
M  V30 18526 H 1752.46 1.71777 3.84799 0
M  V30 18527 H 1751.13 0.746982 3.14963 0
M  V30 18528 H 1750.04 2.91844 2.34047 0
M  V30 18529 H 1751.37 3.82742 3.09467 0
M  V30 18530 N 1753.03 -0.787016 1.36542 0
M  V30 18531 C 1754.44 -1.08541 1.17008 0
M  V30 18532 C 1754.64 -2.015 -0.00419378 0
M  V30 18533 O 1753.7 -2.43481 -0.668826 0
M  V30 18534 C 1755.01 -1.69758 2.48199 0
M  V30 18535 C 1756.56 -1.82088 2.54584 0
M  V30 18536 C 1757.03 -2.46719 3.85868 0
M  V30 18537 N 1758.53 -2.54185 3.87227 0
M  V30 18538 C 1759.26 -3.05008 4.85549 0
M  V30 18539 N 1758.76 -3.56121 5.94264 0
M  V30 18540 N 1760.55 -3.03742 4.72966 0
M  V30 18541 H 1752.7 -0.16948 2.11723 0
M  V30 18542 H 1754.96 -0.137802 0.937931 0
M  V30 18543 H 1754.67 -1.08922 3.34408 0
M  V30 18544 H 1754.54 -2.69237 2.6418 0
M  V30 18545 H 1756.93 -2.42061 1.68792 0
M  V30 18546 H 1757.01 -0.814071 2.42501 0
M  V30 18547 H 1756.66 -1.87389 4.72068 0
M  V30 18548 H 1756.59 -3.47975 3.95248 0
M  V30 18549 H 1759.08 -2.17995 3.08685 0
M  V30 18550 H 1759.39 -3.93259 6.65257 0
M  V30 18551 H 1757.73 -3.54266 5.9793 0
M  V30 18552 H 1760.93 -2.63102 3.87163 0
M  V30 18553 H 1761.1 -3.43043 5.49751 0
M  V30 18554 N 1754.5 -1.20861 -1.01145 0
M  V30 18555 C 1755.75 -1.02343 -1.75082 0
M  V30 18556 C 1756.08 0.44278 -1.89085 0
M  V30 18557 O 1755.36 1.32867 -1.42045 0
M  V30 18558 C 1755.64 -1.71368 -3.1671 0
M  V30 18559 C 1755.49 -3.25466 -3.1047 0
M  V30 18560 C 1756.81 -1.45097 -4.15494 0
M  V30 18561 H 1753.93 -0.373198 -0.635525 0
M  V30 18562 H 1756.57 -1.48947 -1.17961 0
M  V30 18563 H 1754.72 -1.31746 -3.6548 0
M  V30 18564 H 1756.4 -3.74415 -2.69464 0
M  V30 18565 H 1754.64 -3.56104 -2.47735 0
M  V30 18566 H 1755.31 -3.68924 -4.10608 0
M  V30 18567 H 1757.79 -1.7948 -3.75401 0
M  V30 18568 H 1756.66 -1.95917 -5.12745 0
M  V30 18569 H 1756.92 -0.379628 -4.40467 0
M  V30 18570 N 1755.98 1.20536 -1.01532 0
M  V30 18571 C 1757.23 1.89191 -0.699258 0
M  V30 18572 C 1757.54 1.79624 0.774238 0
M  V30 18573 O 1758.75 2.43402 1.20281 0
M  V30 18574 C 1757.21 3.39294 -1.20033 0
M  V30 18575 C 1756.81 3.57449 -2.70064 0
M  V30 18576 C 1758.56 4.13511 -0.959626 0
M  V30 18577 C 1756.47 5.01371 -3.13658 0
M  V30 18578 H 1755.4 0.708537 -0.257859 0
M  V30 18579 H 1758.05 1.36368 -1.22785 0
M  V30 18580 H 1756.43 3.91432 -0.599728 0
M  V30 18581 H 1757.6 3.15702 -3.35662 0
M  V30 18582 H 1755.92 2.966 -2.92262 0
M  V30 18583 H 1758.51 5.19624 -1.26077 0
M  V30 18584 H 1758.86 4.1617 0.103934 0
M  V30 18585 H 1759.39 3.67469 -1.52354 0
M  V30 18586 H 1756.13 5.03866 -4.19285 0
M  V30 18587 H 1755.65 5.43933 -2.52779 0
M  V30 18588 H 1757.33 5.69944 -3.06224 0
M  V30 18589 N 1757.46 0.791395 1.36289 0
M  V30 18590 C 1758.42 0.197069 2.28351 0
M  V30 18591 C 1759.42 -0.606748 1.48913 0
M  V30 18592 O 1760.61 -0.427453 1.68874 0
M  V30 18593 C 1757.75 -0.727009 3.33058 0
M  V30 18594 H 1758.94 1.00885 2.82422 0
M  V30 18595 H 1756.49 0.560959 1.45887 0
M  V30 18596 H 1757.23 -1.56306 2.84146 0
M  V30 18597 H 1757.01 -0.152537 3.91803 0
M  V30 18598 H 1758.5 -1.13765 4.01805 0
M  V30 18599 N 1758.94 -1.47929 0.54358 0
M  V30 18600 C 1759.9 -2.28316 -0.201107 0
M  V30 18601 C 1760.9 -1.36165 -0.855313 0
M  V30 18602 O 1762.09 -1.58928 -0.71327 0
M  V30 18603 C 1759.22 -3.1545 -1.29245 0
M  V30 18604 H 1760.42 -2.9562 0.504848 0
M  V30 18605 H 1757.97 -1.53394 0.300011 0
M  V30 18606 H 1758.71 -2.52807 -2.03124 0
M  V30 18607 H 1758.49 -3.83251 -0.82832 0
M  V30 18608 H 1759.98 -3.76053 -1.81587 0
M  V30 18609 N 1760.42 -0.27936 -1.55104 0
M  V30 18610 C 1761.38 0.593214 -2.2139 0
M  V30 18611 C 1762.38 1.07807 -1.19308 0
M  V30 18612 O 1763.57 0.97756 -1.44185 0
M  V30 18613 C 1760.7 1.81889 -2.88321 0
M  V30 18614 H 1761.9 0.0143941 -2.99897 0
M  V30 18615 H 1759.45 -0.0300083 -1.56271 0
M  V30 18616 H 1760.18 2.43811 -2.13838 0
M  V30 18617 H 1759.97 1.4791 -3.63132 0
M  V30 18618 H 1761.46 2.4393 -3.38951 0
M  V30 18619 N 1761.9 1.57599 -0.0067085 0
M  V30 18620 C 1762.84 2.08842 0.982532 0
M  V30 18621 C 1763.81 0.985339 1.33717 0
M  V30 18622 O 1765 1.25818 1.43438 0
M  V30 18623 C 1762.14 2.60188 2.26708 0
M  V30 18624 C 1761.25 3.84422 1.97087 0
M  V30 18625 C 1760.39 4.24244 3.19672 0
M  V30 18626 C 1759.42 5.41297 2.85769 0
M  V30 18627 N 1758.56 5.76381 4.00911 0
M  V30 18628 H 1763.4 2.93092 0.538618 0
M  V30 18629 H 1760.94 1.44885 0.254293 0
M  V30 18630 H 1762.9 2.88038 3.01811 0
M  V30 18631 H 1761.53 1.78802 2.68756 0
M  V30 18632 H 1760.58 3.63439 1.12323 0
M  V30 18633 H 1761.89 4.6962 1.68102 0
M  V30 18634 H 1761.04 4.53413 4.03115 0
M  V30 18635 H 1759.78 3.37769 3.518 0
M  V30 18636 H 1758.79 5.11846 2.00734 0
M  V30 18637 H 1760.01 6.29454 2.54881 0
M  V30 18638 H 1757.96 4.92863 4.32923 0
M  V30 18639 H 1757.88 6.56168 3.75473 0
M  V30 18640 H 1759.14 6.10144 4.85123 0
M  V30 18641 N 1763.37 -0.266145 1.55336 0
M  V30 18642 C 1764.31 -1.35159 1.85107 0
M  V30 18643 C 1765.32 -1.45213 0.736006 0
M  V30 18644 O 1766.51 -1.46907 1.01393 0
M  V30 18645 C 1763.61 -2.73218 2.00512 0
M  V30 18646 C 1762.78 -2.85671 3.31226 0
M  V30 18647 C 1761.84 -4.0445 3.36611 0
M  V30 18648 O 1760.87 -3.94884 4.09945 0
M  V30 18649 N 1762.07 -5.16735 2.64508 0
M  V30 18650 H 1764.83 -1.09963 2.78798 0
M  V30 18651 H 1762.39 -0.456261 1.55338 0
M  V30 18652 H 1764.39 -3.50983 2.01477 0
M  V30 18653 H 1762.96 -2.91206 1.13655 0
M  V30 18654 H 1762.18 -1.94736 3.42741 0
M  V30 18655 H 1763.46 -2.90927 4.17419 0
M  V30 18656 H 1762.86 -5.27395 2.04624 0
M  V30 18657 H 1761.42 -5.92706 2.71189 0
M  V30 18658 N 1764.85 -1.48386 -0.530967 0
M  V30 18659 C 1765.81 -1.62355 -1.61782 0
M  V30 18660 C 1766.81 -0.496909 -1.5293 0
M  V30 18661 O 1768 -0.762672 -1.56617 0
M  V30 18662 C 1765.14 -1.59282 -3.014 0
M  V30 18663 H 1766.33 -2.59265 -1.50737 0
M  V30 18664 H 1763.88 -1.36969 -0.752948 0
M  V30 18665 H 1764.62 -0.638453 -3.17953 0
M  V30 18666 H 1764.4 -2.41073 -3.09235 0
M  V30 18667 H 1765.89 -1.72248 -3.80421 0
M  V30 18668 N 1766.33 0.779763 -1.36958 0
M  V30 18669 C 1767.26 1.90168 -1.27941 0
M  V30 18670 C 1768.27 1.61605 -0.196866 0
M  V30 18671 O 1769.46 1.72673 -0.452368 0
M  V30 18672 C 1766.56 3.25208 -0.953565 0
M  V30 18673 C 1765.74 3.81477 -2.13995 0
M  V30 18674 C 1764.8 4.94976 -1.78564 0
M  V30 18675 O 1763.82 5.10984 -2.50767 0
M  V30 18676 N 1765.02 5.75955 -0.725015 0
M  V30 18677 H 1767.79 1.98422 -2.24608 0
M  V30 18678 H 1765.35 0.958495 -1.30478 0
M  V30 18679 H 1767.34 3.98643 -0.697529 0
M  V30 18680 H 1765.91 3.12508 -0.0757105 0
M  V30 18681 H 1765.13 2.99915 -2.55822 0
M  V30 18682 H 1766.42 4.15803 -2.93233 0
M  V30 18683 H 1765.82 5.6556 -0.125699 0
M  V30 18684 H 1764.37 6.49651 -0.528823 0
M  V30 18685 N 1767.81 1.21396 1.00503 0
M  V30 18686 C 1768.74 0.997268 2.11132 0
M  V30 18687 C 1769.72 -0.0777455 1.69922 0
M  V30 18688 O 1770.9 0.08208 1.94026 0
M  V30 18689 C 1768.03 0.561122 3.42737 0
M  V30 18690 C 1766.99 1.58069 3.97741 0
M  V30 18691 C 1766.31 1.00079 5.25251 0
M  V30 18692 C 1767.61 2.96754 4.29807 0
M  V30 18693 H 1769.31 1.92255 2.29518 0
M  V30 18694 H 1766.85 0.925776 1.10297 0
M  V30 18695 H 1768.81 0.396701 4.19529 0
M  V30 18696 H 1767.53 -0.399804 3.24144 0
M  V30 18697 H 1766.19 1.73268 3.23069 0
M  V30 18698 H 1765.84 0.0315797 5.0299 0
M  V30 18699 H 1765.54 1.68182 5.63017 0
M  V30 18700 H 1767.06 0.847687 6.04687 0
M  V30 18701 H 1768.48 2.85 4.97441 0
M  V30 18702 H 1766.87 3.61871 4.78717 0
M  V30 18703 H 1767.94 3.47602 3.38084 0
M  V30 18704 N 1769.29 -1.19996 1.0217 0
M  V30 18705 C 1770.24 -2.20837 0.567029 0
M  V30 18706 C 1771.22 -1.56339 -0.380377 0
M  V30 18707 O 1772.41 -1.75838 -0.202513 0
M  V30 18708 C 1769.54 -3.43187 -0.0880995 0
M  V30 18709 C 1768.63 -4.14842 0.881318 0
M  V30 18710 N 1769.02 -4.62798 2.04088 0
M  V30 18711 C 1767.32 -4.40421 0.703226 0
M  V30 18712 C 1768.02 -5.17744 2.65172 0
M  V30 18713 N 1766.99 -5.08112 1.93192 0
M  V30 18714 H 1770.79 -2.55586 1.45097 0
M  V30 18715 H 1768.31 -1.3599 0.887727 0
M  V30 18716 H 1770.31 -4.14662 -0.431407 0
M  V30 18717 H 1768.97 -3.09941 -0.967819 0
M  V30 18718 H 1769.98 -4.57851 2.42061 0
M  V30 18719 H 1766.65 -4.17304 -0.128008 0
M  V30 18720 H 1768.04 -5.65189 3.63333 0
M  V30 18721 N 1770.76 -0.798611 -1.35867 0
M  V30 18722 C 1772.04 -0.298858 -1.93303 0
M  V30 18723 C 1772.42 1.21038 -1.72954 0
M  V30 18724 O 1771.77 2.00617 -1.09386 0
M  V30 18725 C 1771.98 -0.701532 -3.41876 0
M  V30 18726 C 1773.33 -0.686486 -4.19014 0
M  V30 18727 O 1774.35 -0.642577 -3.50356 0
M  V30 18728 O 1773.21 -0.737653 -5.41499 0
M  V30 18729 H 1770.3 -0.0762987 -0.823473 0
M  V30 18730 H 1772.85 -0.881773 -1.44993 0
M  V30 18731 H 1771.62 -1.74204 -3.50383 0
M  V30 18732 H 1771.24 -0.092994 -3.97491 0
M  V30 18733 N 1772.24 1.47639 -0.551417 0
M  V30 18734 C 1773.49 2.02484 -0.0252051 0
M  V30 18735 C 1773.82 1.42638 1.3223 0
M  V30 18736 O 1773.07 0.569434 1.87232 0
M  V30 18737 C 1773.37 3.57187 0.123467 0
M  V30 18738 C 1773.04 4.35925 -1.15241 0
M  V30 18739 C 1771.7 4.57157 -1.50203 0
M  V30 18740 C 1774.05 4.81377 -1.99815 0
M  V30 18741 C 1771.38 5.2109 -2.69597 0
M  V30 18742 C 1773.73 5.46626 -3.18406 0
M  V30 18743 C 1772.39 5.66093 -3.53688 0
M  V30 18744 H 1771.66 0.740943 -0.0092232 0
M  V30 18745 H 1774.31 1.77378 -0.721764 0
M  V30 18746 H 1772.62 3.81253 0.902951 0
M  V30 18747 H 1774.31 3.97267 0.545876 0
M  V30 18748 H 1770.9 4.19674 -0.870169 0
M  V30 18749 H 1775.09 4.64756 -1.74112 0
M  V30 18750 H 1770.34 5.34356 -2.97108 0
M  V30 18751 H 1774.52 5.8081 -3.84231 0
M  V30 18752 H 1772.14 6.15404 -4.46298 0
M  V30 18753 N 1773.72 0.287581 1.54954 0
M  V30 18754 C 1774.97 -0.326093 2.00161 0
M  V30 18755 C 1775.3 -1.54564 1.17574 0
M  V30 18756 O 1774.57 -1.92901 0.248859 0
M  V30 18757 C 1774.86 -0.695974 3.5331 0
M  V30 18758 C 1774.71 0.531783 4.46645 0
M  V30 18759 C 1776.03 -1.52767 4.12735 0
M  V30 18760 H 1773.15 -0.117051 0.727646 0
M  V30 18761 H 1775.79 0.39701 1.85806 0
M  V30 18762 H 1773.94 -1.31205 3.65674 0
M  V30 18763 H 1775.61 1.17032 4.46208 0
M  V30 18764 H 1773.86 1.16754 4.17793 0
M  V30 18765 H 1774.53 0.229034 5.51525 0
M  V30 18766 H 1777 -1.00724 4.03725 0
M  V30 18767 H 1775.88 -1.75527 5.20078 0
M  V30 18768 H 1776.14 -2.51267 3.63755 0
M  V30 18769 N 1775.2 -1.57593 0.0150662 0
M  V30 18770 C 1776.13 -2.04839 -1.0058 0
M  V30 18771 C 1777.11 -0.941261 -1.32586 0
M  V30 18772 O 1778.29 -1.21053 -1.44493 0
M  V30 18773 C 1775.42 -2.45866 -2.32954 0
M  V30 18774 C 1774.47 -3.6746 -2.16507 0
M  V30 18775 S 1775.3 -5.14728 -1.477 0
M  V30 18776 C 1776.46 -5.59038 -2.81473 0
M  V30 18777 H 1776.69 -2.91109 -0.603575 0
M  V30 18778 H 1774.22 -1.53148 -0.196235 0
M  V30 18779 H 1776.18 -2.7017 -3.09061 0
M  V30 18780 H 1774.84 -1.59967 -2.70313 0
M  V30 18781 H 1774.03 -3.93967 -3.14334 0
M  V30 18782 H 1773.64 -3.43235 -1.48545 0
M  V30 18783 H 1775.93 -5.62419 -3.77745 0
M  V30 18784 H 1776.87 -6.58778 -2.59648 0
M  V30 18785 H 1777.28 -4.86643 -2.86075 0
M  V30 18786 N 1776.68 0.257904 -1.55475 0
M  V30 18787 C 1777.9 1.00955 -1.81171 0
M  V30 18788 C 1778.33 1.78586 -0.590651 0
M  V30 18789 O 1777.68 1.75365 0.460105 0
M  V30 18790 C 1777.73 1.93188 -3.04485 0
M  V30 18791 O 1776.84 3.02194 -2.80628 0
M  V30 18792 H 1776.18 0.28785 -0.598363 0
M  V30 18793 H 1778.71 0.28223 -2.02644 0
M  V30 18794 H 1778.72 2.3486 -3.33624 0
M  V30 18795 H 1777.39 1.361 -3.93001 0
M  V30 18796 H 1775.97 2.64729 -2.62627 0
M  V30 18797 N 1778.15 1.48666 0.52309 0
M  V30 18798 C 1779.08 1.666 1.63605 0
M  V30 18799 C 1780.07 0.514803 1.62123 0
M  V30 18800 O 1781.25 0.748138 1.79211 0
M  V30 18801 C 1778.38 1.71199 3.02172 0
M  V30 18802 C 1777.33 2.85888 3.18515 0
M  V30 18803 C 1776.66 2.75582 4.58213 0
M  V30 18804 C 1777.96 4.27104 3.00631 0
M  V30 18805 H 1779.65 2.59776 1.48851 0
M  V30 18806 H 1777.2 1.25014 0.714667 0
M  V30 18807 H 1779.15 1.82333 3.79911 0
M  V30 18808 H 1777.88 0.746066 3.17964 0
M  V30 18809 H 1776.54 2.7432 2.43195 0
M  V30 18810 H 1776.18 1.76944 4.7085 0
M  V30 18811 H 1775.88 3.52545 4.70091 0
M  V30 18812 H 1777.41 2.88693 5.38041 0
M  V30 18813 H 1778.82 4.3947 3.68157 0
M  V30 18814 H 1777.22 5.05119 3.23999 0
M  V30 18815 H 1778.29 4.43087 1.96982 0
M  V30 18816 N 1779.63 -0.772489 1.37369 0
M  V30 18817 C 1781.04 -1.34873 1.29098 0
M  V30 18818 C 1781.39 -1.96103 -0.0617433 0
M  V30 18819 O 1780.52 -1.93764 -0.963562 0
M  V30 18820 C 1781.11 -2.45218 2.33781 0
M  V30 18821 C 1779.67 -2.98612 2.29146 0
M  V30 18822 C 1778.82 -1.71823 2.17651 0
M  V30 18823 H 1781.77 -0.572805 1.48002 0
M  V30 18824 H 1781.79 -3.24679 1.98404 0
M  V30 18825 H 1781.3 -2.00624 3.32222 0
M  V30 18826 H 1779.41 -3.47583 1.34225 0
M  V30 18827 H 1779.52 -3.54276 3.22529 0
M  V30 18828 H 1777.88 -1.94719 1.64185 0
M  V30 18829 H 1778.67 -1.29334 3.18006 0
M  V30 18830 N 1781.11 -1.21927 -0.998575 0
M  V30 18831 C 1782.02 -1.00049 -2.12197 0
M  V30 18832 C 1783.04 0.0494414 -1.7393 0
M  V30 18833 O 1784.21 -0.142033 -2.00899 0
M  V30 18834 C 1781.28 -0.574871 -3.41901 0
M  V30 18835 C 1780.34 -1.69776 -3.94303 0
M  V30 18836 C 1779.57 -1.29236 -5.17816 0
M  V30 18837 O 1779.79 -0.168709 -5.7015 0
M  V30 18838 O 1778.73 -2.10671 -5.63827 0
M  V30 18839 H 1782.55 -1.94154 -2.33534 0
M  V30 18840 H 1780.14 -1.00472 -1.10571 0
M  V30 18841 H 1782.02 -0.347603 -4.19964 0
M  V30 18842 H 1780.7 0.337389 -3.21937 0
M  V30 18843 H 1779.6 -1.9795 -3.17438 0
M  V30 18844 H 1780.94 -2.58768 -4.18688 0
M  V30 18845 N 1782.59 1.19452 -1.02805 0
M  V30 18846 C 1783.54 2.22644 -0.608134 0
M  V30 18847 C 1784.51 1.6175 0.377639 0
M  V30 18848 O 1785.69 1.88815 0.274487 0
M  V30 18849 C 1782.83 3.45081 0.0357589 0
M  V30 18850 C 1781.94 4.20363 -0.995955 0
M  V30 18851 C 1781.08 5.30224 -0.321911 0
M  V30 18852 C 1780.12 5.97261 -1.33959 0
M  V30 18853 N 1779.25 6.98687 -0.691414 0
M  V30 18854 H 1784.09 2.57921 -1.49268 0
M  V30 18855 H 1781.63 1.26722 -0.746985 0
M  V30 18856 H 1783.59 4.15016 0.426309 0
M  V30 18857 H 1782.22 3.10463 0.883889 0
M  V30 18858 H 1781.27 3.49381 -1.50457 0
M  V30 18859 H 1782.58 4.6636 -1.76945 0
M  V30 18860 H 1781.74 6.06574 0.123528 0
M  V30 18861 H 1780.48 4.85294 0.483792 0
M  V30 18862 H 1779.48 5.19662 -1.7953 0
M  V30 18863 H 1780.71 6.44275 -2.14678 0
M  V30 18864 H 1778.65 6.55932 0.0942121 0
M  V30 18865 H 1778.57 7.42871 -1.40281 0
M  V30 18866 H 1779.84 7.79032 -0.269948 0
M  V30 18867 N 1784.07 0.805805 1.35442 0
M  V30 18868 C 1785.3 0.397675 2.02737 0
M  V30 18869 C 1785.7 -0.99586 1.6087 0
M  V30 18870 O 1785.05 -1.65293 0.801496 0
M  V30 18871 C 1785.11 0.400706 3.5726 0
M  V30 18872 C 1784.77 1.74462 4.22388 0
M  V30 18873 C 1785.77 2.70278 4.44123 0
M  V30 18874 C 1783.46 2.02841 4.59522 0
M  V30 18875 C 1785.45 3.92658 5.02094 0
M  V30 18876 C 1783.14 3.25485 5.17207 0
M  V30 18877 C 1784.13 4.20211 5.38435 0
M  V30 18878 O 1783.82 5.4069 5.94903 0
M  V30 18879 H 1783.55 0.159829 0.656834 0
M  V30 18880 H 1786.11 1.09052 1.7406 0
M  V30 18881 H 1784.34 -0.348738 3.85124 0
M  V30 18882 H 1786.03 0.0149949 4.05897 0
M  V30 18883 H 1786.79 2.49645 4.15815 0
M  V30 18884 H 1782.67 1.29921 4.42314 0
M  V30 18885 H 1786.22 4.66607 5.18578 0
M  V30 18886 H 1782.11 3.45989 5.44942 0
M  V30 18887 H 1782.88 5.41976 6.13355 0
M  V30 18888 N 1785.54 -1.47344 0.559239 0
M  V30 18889 C 1786.45 -2.33826 -0.190402 0
M  V30 18890 C 1787.47 -1.48317 -0.909846 0
M  V30 18891 O 1788.65 -1.8124 -0.878286 0
M  V30 18892 C 1785.71 -3.25052 -1.20591 0
M  V30 18893 C 1784.77 -4.26452 -0.493671 0
M  V30 18894 C 1784.01 -5.13319 -1.4608 0
M  V30 18895 O 1784.23 -5.02678 -2.69576 0
M  V30 18896 O 1783.16 -5.93799 -0.984178 0
M  V30 18897 H 1786.99 -2.99232 0.519046 0
M  V30 18898 H 1784.57 -1.45936 0.319836 0
M  V30 18899 H 1786.46 -3.81397 -1.79205 0
M  V30 18900 H 1785.13 -2.62272 -1.89724 0
M  V30 18901 H 1784.04 -3.73861 0.133714 0
M  V30 18902 H 1785.37 -4.91952 0.15625 0
M  V30 18903 N 1787.02 -0.295795 -1.54799 0
M  V30 18904 C 1788.25 0.317763 -2.04445 0
M  V30 18905 C 1788.67 1.47915 -1.17331 0
M  V30 18906 O 1788.02 1.81425 -0.197811 0
M  V30 18907 C 1788.07 0.778995 -3.53007 0
M  V30 18908 O 1787.79 -0.33616 -4.36808 0
M  V30 18909 C 1789.3 1.45824 -4.18629 0
M  V30 18910 H 1786.52 0.0697871 -0.667361 0
M  V30 18911 H 1789.06 -0.433911 -1.99844 0
M  V30 18912 H 1787.21 1.4807 -3.57986 0
M  V30 18913 H 1787.63 0.0219928 -5.24495 0
M  V30 18914 H 1789.1 1.73218 -5.24118 0
M  V30 18915 H 1789.58 2.3966 -3.68049 0
M  V30 18916 H 1790.19 0.799847 -4.17711 0
M  V30 18917 N 1788.5 1.57583 -0.0234236 0
M  V30 18918 C 1789.45 2.11023 0.978379 0
M  V30 18919 C 1790.44 1.03548 1.34067 0
M  V30 18920 O 1791.65 1.2199 1.32357 0
M  V30 18921 H 1788.02 0.674119 0.333267 0
M  V30 18922 H 1790 2.94142 0.502301 0
M  V30 18923 C 1788.74 2.64782 2.25358 0
M  V30 18924 H 1788.07 3.47125 1.98353 0
M  V30 18925 H 1789.51 3.05826 2.93678 0
M  V30 18926 C 1787.97 1.57262 2.97943 0
M  V30 18927 O 1788.5 0.969124 3.89834 0
M  V30 18928 N 1786.7 1.29443 2.60178 0
M  V30 18929 H 1786.25 1.78706 1.85532 0
M  V30 18930 H 1786.21 0.577276 3.09055 0
M  V30 18931 N 1789.98 -0.249655 1.5561 0
M  V30 18932 C 1791.23 -0.979529 1.77576 0
M  V30 18933 C 1791.56 -1.85078 0.588198 0
M  V30 18934 O 1790.83 -1.90052 -0.4136 0
M  V30 18935 C 1791.12 -1.84238 3.094 0
M  V30 18936 C 1790.97 -0.9995 4.38554 0
M  V30 18937 C 1792.29 -2.82536 3.37433 0
M  V30 18938 H 1789.41 -0.354681 0.646042 0
M  V30 18939 H 1792.05 -0.250224 1.88345 0
M  V30 18940 H 1790.2 -2.46419 3.0035 0
M  V30 18941 H 1791.87 -0.396599 4.59592 0
M  V30 18942 H 1790.11 -0.30376 4.32735 0
M  V30 18943 H 1790.79 -1.63697 5.27169 0
M  V30 18944 H 1793.26 -2.30491 3.46429 0
M  V30 18945 H 1792.14 -3.40033 4.30893 0
M  V30 18946 H 1792.4 -3.58859 2.58211 0
M  V30 18947 N 1791.46 -1.48941 -0.515198 0
M  V30 18948 C 1792.71 -1.57398 -1.26768 0
M  V30 18949 C 1793.03 -0.256213 -1.93309 0
M  V30 18950 O 1792.3 0.723408 -1.82054 0
M  V30 18951 H 1790.88 -0.579895 -0.470883 0
M  V30 18952 H 1793.54 -1.85489 -0.598315 0
M  V30 18953 H 1792.63 -2.36272 -2.03916 0
M  V30 18954 N 1792.94 0.765193 -1.37777 0
M  V30 18955 C 1794.16 1.55948 -1.3673 0
M  V30 18956 C 1794.59 1.8805 0.0435817 0
M  V30 18957 O 1793.94 1.49718 1.02246 0
M  V30 18958 C 1793.99 2.84245 -2.21895 0
M  V30 18959 O 1793.1 3.78903 -1.62807 0
M  V30 18960 H 1792.44 0.472127 -0.466897 0
M  V30 18961 H 1794.97 0.946556 -1.81388 0
M  V30 18962 H 1794.98 3.33284 -2.35342 0
M  V30 18963 H 1793.65 2.60209 -3.24444 0
M  V30 18964 H 1792.23 3.37568 -1.58437 0
M  V30 18965 N 1794.41 1.22455 0.992094 0
M  V30 18966 C 1795.35 0.953144 2.08441 0
M  V30 18967 C 1796.36 -0.0685432 1.62656 0
M  V30 18968 O 1797.55 0.165561 1.77731 0
M  V30 18969 C 1794.65 0.412046 3.36386 0
M  V30 18970 C 1793.82 1.49114 4.11198 0
M  V30 18971 C 1792.88 0.956984 5.17425 0
M  V30 18972 O 1791.91 1.64337 5.44961 0
M  V30 18973 N 1793.11 -0.221205 5.80078 0
M  V30 18974 H 1795.87 1.89353 2.32305 0
M  V30 18975 H 1793.43 1.13155 1.15791 0
M  V30 18976 H 1795.43 0.0400033 4.0468 0
M  V30 18977 H 1794 -0.433473 3.0958 0
M  V30 18978 H 1793.22 2.03647 3.37523 0
M  V30 18979 H 1794.5 2.21716 4.57951 0
M  V30 18980 H 1793.9 -0.795642 5.60077 0
M  V30 18981 H 1792.46 -0.534625 6.49604 0
M  V30 18982 N 1795.89 -1.18905 1.03437 0
M  V30 18983 C 1797.14 -1.88354 0.732598 0
M  V30 18984 C 1797.46 -1.80353 -0.741474 0
M  V30 18985 O 1796.73 -1.21764 -1.53461 0
M  V30 18986 H 1795.31 -0.697272 0.267995 0
M  V30 18987 H 1797.97 -1.44329 1.30978 0
M  V30 18988 H 1797.07 -2.94551 1.03181 0
M  V30 18989 N 1797.37 -0.812977 -1.35013 0
M  V30 18990 C 1798.59 -0.407969 -2.03348 0
M  V30 18991 C 1799.02 0.975148 -1.60849 0
M  V30 18992 O 1798.38 1.63267 -0.788256 0
M  V30 18993 C 1798.43 -0.506754 -3.57022 0
M  V30 18994 O 1797.53 0.477322 -4.09628 0
M  V30 18995 H 1796.87 -0.169416 -0.642023 0
M  V30 18996 H 1799.4 -1.10064 -1.72474 0
M  V30 18997 H 1799.41 -0.378883 -4.06237 0
M  V30 18998 H 1798.09 -1.51557 -3.87302 0
M  V30 18999 H 1796.66 0.309161 -3.71616 0
M  V30 19000 N 1798.85 1.47045 -0.567045 0
M  V30 19001 C 1799.78 2.28211 0.212726 0
M  V30 19002 C 1800.79 1.37591 0.870207 0
M  V30 19003 O 1801.98 1.62329 0.742404 0
M  V30 19004 C 1799.08 3.12155 1.31957 0
M  V30 19005 C 1798.25 4.30799 0.75701 0
M  V30 19006 C 1797.31 4.96262 1.74958 0
M  V30 19007 O 1796.34 5.54347 1.29181 0
M  V30 19008 N 1797.54 4.91848 3.08327 0
M  V30 19009 H 1800.31 2.95773 -0.483552 0
M  V30 19010 H 1797.87 1.56784 -0.403768 0
M  V30 19011 H 1799.86 3.52815 1.98252 0
M  V30 19012 H 1798.43 2.4677 1.91894 0
M  V30 19013 H 1797.65 3.94113 -0.0829881 0
M  V30 19014 H 1798.94 5.0752 0.360671 0
M  V30 19015 H 1798.34 4.45875 3.48155 0
M  V30 19016 H 1796.89 5.36497 3.70154 0
M  V30 19017 N 1800.33 0.304 1.5464 0
M  V30 19018 C 1801.26 -0.563854 2.2659 0
M  V30 19019 C 1802.24 -1.13547 1.26653 0
M  V30 19020 O 1803.42 -1.16425 1.55431 0
M  V30 19021 C 1800.55 -1.73437 3.00894 0
M  V30 19022 C 1799.51 -1.29297 4.08003 0
M  V30 19023 C 1798.83 -2.54888 4.70038 0
M  V30 19024 C 1800.13 -0.422027 5.20592 0
M  V30 19025 H 1801.83 0.0362569 2.99378 0
M  V30 19026 H 1799.37 0.0188781 1.43988 0
M  V30 19027 H 1801.32 -2.34762 3.4995 0
M  V30 19028 H 1800.05 -2.36076 2.25689 0
M  V30 19029 H 1798.71 -0.702757 3.59801 0
M  V30 19030 H 1798.36 -3.15848 3.9147 0
M  V30 19031 H 1798.06 -2.26054 5.42378 0
M  V30 19032 H 1799.58 -3.17011 5.21859 0
M  V30 19033 H 1800.99 -0.941036 5.65524 0
M  V30 19034 H 1799.39 -0.227323 5.99669 0
M  V30 19035 H 1800.46 0.55212 4.81746 0
M  V30 19036 N 1801.8 -1.57568 0.0317802 0
M  V30 19037 C 1803.03 -1.9662 -0.659953 0
M  V30 19038 C 1803.45 -0.908334 -1.64715 0
M  V30 19039 O 1802.81 0.130491 -1.8083 0
M  V30 19040 C 1802.86 -3.34765 -1.34033 0
M  V30 19041 O 1801.96 -3.31317 -2.45566 0
M  V30 19042 H 1801.3 -0.641024 -0.17316 0
M  V30 19043 H 1803.83 -2.04382 0.0944231 0
M  V30 19044 H 1803.84 -3.71056 -1.69651 0
M  V30 19045 H 1802.52 -4.11302 -0.616716 0
M  V30 19046 H 1801.1 -3.06746 -2.1204 0
M  V30 19047 N 1803.28 0.241399 -1.5574 0
M  V30 19048 C 1804.7 0.590176 -1.48287 0
M  V30 19049 C 1804.9 1.8808 -0.723052 0
M  V30 19050 O 1803.95 2.51213 -0.25464 0
M  V30 19051 C 1805.27 0.687804 -2.92728 0
M  V30 19052 C 1806.82 0.779763 -3.03131 0
M  V30 19053 C 1807.29 0.908905 -4.48891 0
M  V30 19054 N 1808.78 0.973636 -4.52852 0
M  V30 19055 C 1809.52 1.09292 -5.62888 0
M  V30 19056 N 1809.01 1.1774 -6.82722 0
M  V30 19057 N 1810.81 1.12651 -5.50696 0
M  V30 19058 H 1802.96 -0.605781 -2.03578 0
M  V30 19059 H 1805.22 -0.209862 -0.924479 0
M  V30 19060 H 1804.93 -0.190608 -3.51183 0
M  V30 19061 H 1804.8 1.55794 -3.43523 0
M  V30 19062 H 1807.19 1.64863 -2.44754 0
M  V30 19063 H 1807.27 -0.115641 -2.55538 0
M  V30 19064 H 1806.91 0.0445788 -5.0788 0
M  V30 19065 H 1806.84 1.81943 -4.9417 0
M  V30 19066 H 1809.33 0.919469 -3.66544 0
M  V30 19067 H 1809.65 1.26764 -7.62332 0
M  V30 19068 H 1807.99 1.14688 -6.85472 0
M  V30 19069 H 1811.18 1.05703 -4.56009 0
M  V30 19070 H 1811.35 1.21602 -6.36488 0
M  V30 19071 N 1804.76 1.49212 0.507292 0
M  V30 19072 C 1806.01 1.58068 1.25932 0
M  V30 19073 C 1806.33 0.266461 1.93171 0
M  V30 19074 O 1805.6 -0.713743 1.82435 0
M  V30 19075 H 1804.18 0.582384 0.467801 0
M  V30 19076 H 1806.84 1.85804 0.58847 0
M  V30 19077 H 1805.94 2.37351 2.0266 0
M  V30 19078 N 1806.24 -0.757876 1.38181 0
M  V30 19079 C 1807.15 -1.90234 1.37289 0
M  V30 19080 C 1808.16 -1.71883 0.270567 0
M  V30 19081 O 1809.34 -1.94881 0.508279 0
M  V30 19082 C 1806.41 -3.25546 1.19251 0
M  V30 19083 C 1805.47 -3.56452 2.39249 0
M  V30 19084 C 1804.7 -4.85308 2.22063 0
M  V30 19085 O 1804.92 -5.57373 1.2121 0
M  V30 19086 O 1803.86 -5.15594 3.10558 0
M  V30 19087 H 1807.68 -1.9394 2.33711 0
M  V30 19088 H 1805.27 -0.902559 1.19056 0
M  V30 19089 H 1807.15 -4.06454 1.11235 0
M  V30 19090 H 1805.82 -3.22661 0.259109 0
M  V30 19091 H 1804.73 -2.75723 2.52839 0
M  V30 19092 H 1806.06 -3.64094 3.31205 0
M  V30 19093 N 1807.72 -1.22979 -0.985586 0
M  V30 19094 C 1808.66 -1.00637 -2.07704 0
M  V30 19095 C 1809.63 0.0744076 -1.65933 0
M  V30 19096 O 1810.82 -0.0766583 -1.90646 0
M  V30 19097 C 1807.96 -0.598088 -3.39878 0
M  V30 19098 C 1807.07 -1.75043 -3.94948 0
M  V30 19099 C 1806.21 -1.28943 -5.15313 0
M  V30 19100 C 1805.25 -2.41285 -5.62537 0
M  V30 19101 N 1804.38 -1.9618 -6.74135 0
M  V30 19102 H 1809.22 -1.94063 -2.26149 0
M  V30 19103 H 1806.76 -0.966841 -1.10863 0
M  V30 19104 H 1808.72 -0.342503 -4.15792 0
M  V30 19105 H 1807.35 0.299167 -3.21411 0
M  V30 19106 H 1806.4 -2.12015 -3.15838 0
M  V30 19107 H 1807.71 -2.5952 -4.25971 0
M  V30 19108 H 1806.87 -0.99166 -5.98541 0
M  V30 19109 H 1805.6 -0.41496 -4.85931 0
M  V30 19110 H 1804.61 -2.71842 -4.77893 0
M  V30 19111 H 1805.83 -3.2926 -5.9394 0
M  V30 19112 H 1803.78 -1.11105 -6.46523 0
M  V30 19113 H 1803.7 -2.74219 -7.04514 0
M  V30 19114 H 1804.97 -1.69492 -7.6085 0
M  V30 19115 N 1809.19 1.18355 -1.04066 0
M  V30 19116 C 1810.13 2.21482 -0.58977 0
M  V30 19117 C 1811.14 1.59198 0.340576 0
M  V30 19118 O 1812.33 1.77988 0.135094 0
M  V30 19119 C 1809.43 3.3853 0.158397 0
M  V30 19120 C 1808.6 4.30392 -0.779824 0
M  V30 19121 C 1807.66 5.26147 -0.0749517 0
M  V30 19122 O 1806.69 5.64812 -0.705381 0
M  V30 19123 N 1807.89 5.68137 1.19168 0
M  V30 19124 H 1810.65 2.60791 -1.47676 0
M  V30 19125 H 1808.21 1.33141 -0.921151 0
M  V30 19126 H 1810.21 3.99611 0.639788 0
M  V30 19127 H 1808.78 2.97913 0.946929 0
M  V30 19128 H 1808 3.66915 -1.44107 0
M  V30 19129 H 1809.28 4.88668 -1.41707 0
M  V30 19130 H 1808.68 5.38777 1.7244 0
M  V30 19131 H 1807.24 6.31415 1.61735 0
M  V30 19132 N 1810.67 0.820125 1.3458 0
M  V30 19133 C 1812.09 0.505533 1.51382 0
M  V30 19134 C 1812.29 -0.970812 1.76571 0
M  V30 19135 O 1811.34 -1.75538 1.81501 0
M  V30 19136 C 1812.66 1.36264 2.68054 0
M  V30 19137 C 1814.21 1.35947 2.81935 0
M  V30 19138 C 1814.68 2.201 4.01647 0
M  V30 19139 N 1816.17 2.17708 4.08849 0
M  V30 19140 C 1816.91 2.79571 5.00627 0
M  V30 19141 N 1816.4 3.50413 5.97647 0
M  V30 19142 N 1818.2 2.6914 4.93477 0
M  V30 19143 H 1810.35 1.77607 1.16488 0
M  V30 19144 H 1812.61 0.756693 0.571068 0
M  V30 19145 H 1812.32 2.41093 2.56061 0
M  V30 19146 H 1812.19 1.02537 3.62996 0
M  V30 19147 H 1814.58 0.318971 2.93371 0
M  V30 19148 H 1814.66 1.7367 1.8781 0
M  V30 19149 H 1814.3 3.24198 3.90971 0
M  V30 19150 H 1814.23 1.79729 4.9498 0
M  V30 19151 H 1816.72 1.66175 3.39403 0
M  V30 19152 H 1817.04 3.9487 6.64303 0
M  V30 19153 H 1815.38 3.54519 5.9778 0
M  V30 19154 H 1818.57 2.13372 4.16641 0
M  V30 19155 H 1818.74 3.17639 5.64809 0
M  V30 19156 N 1812.15 -1.46743 0.574835 0
M  V30 19157 C 1813.4 -2.01625 0.0551724 0
M  V30 19158 C 1813.71 -1.4528 -1.3097 0
M  V30 19159 O 1814.92 -1.91932 -1.92026 0
M  V30 19160 C 1813.37 -3.59868 0.0480708 0
M  V30 19161 C 1812.98 -4.25207 1.41078 0
M  V30 19162 C 1814.73 -4.22436 -0.41806 0
M  V30 19163 C 1812.63 -5.75507 1.36183 0
M  V30 19164 H 1811.56 -0.753812 0.0168558 0
M  V30 19165 H 1814.21 -1.68557 0.725313 0
M  V30 19166 H 1812.6 -3.89976 -0.688076 0
M  V30 19167 H 1813.77 -4.06718 2.16603 0
M  V30 19168 H 1812.09 -3.747 1.81628 0
M  V30 19169 H 1814.68 -5.32601 -0.473353 0
M  V30 19170 H 1815.03 -3.90826 -1.43391 0
M  V30 19171 H 1815.56 -3.96925 0.263775 0
M  V30 19172 H 1812.3 -6.11765 2.35423 0
M  V30 19173 H 1811.82 -5.96282 0.648655 0
M  V30 19174 H 1813.5 -6.38068 1.07137 0
M  V30 19175 N 1813.63 -0.312197 -1.54477 0
M  V30 19176 C 1814.59 0.54612 -2.22599 0
M  V30 19177 C 1815.59 1.05252 -1.21568 0
M  V30 19178 O 1816.78 0.946756 -1.46226 0
M  V30 19179 C 1813.91 1.75733 -2.92114 0
M  V30 19180 H 1815.11 -0.0492216 -2.9986 0
M  V30 19181 H 1812.66 -0.063149 -1.56172 0
M  V30 19182 H 1813.39 2.39221 -2.18961 0
M  V30 19183 H 1813.18 1.40175 -3.66188 0
M  V30 19184 H 1814.67 2.36685 -3.44049 0
M  V30 19185 N 1815.11 1.57549 -0.040136 0
M  V30 19186 C 1816.36 1.91427 0.635496 0
M  V30 19187 C 1816.67 0.919277 1.72652 0
M  V30 19188 O 1817.87 1.14971 2.45955 0
M  V30 19189 C 1816.33 3.39949 1.18164 0
M  V30 19190 C 1815.94 4.4783 0.12332 0
M  V30 19191 C 1817.68 3.82878 1.83315 0
M  V30 19192 C 1815.59 5.87458 0.681727 0
M  V30 19193 H 1814.52 0.714401 0.241138 0
M  V30 19194 H 1817.17 1.83186 -0.107231 0
M  V30 19195 H 1815.55 3.43157 1.97633 0
M  V30 19196 H 1816.73 4.56197 -0.64972 0
M  V30 19197 H 1815.04 4.14173 -0.43008 0
M  V30 19198 H 1817.64 4.84558 2.2607 0
M  V30 19199 H 1817.98 3.1853 2.68038 0
M  V30 19200 H 1818.51 3.82139 1.10519 0
M  V30 19201 H 1815.25 6.55376 -0.127616 0
M  V30 19202 H 1814.77 5.82675 1.423 0
M  V30 19203 H 1816.45 6.36369 1.16806 0
M  V30 19204 N 1816.58 -0.233136 1.55866 0
M  V30 19205 C 1817.55 -1.27227 1.90646 0
M  V30 19206 C 1818.55 -1.4039 0.784038 0
M  V30 19207 O 1819.74 -1.38854 1.05191 0
M  V30 19208 C 1816.87 -2.64791 2.14706 0
M  V30 19209 H 1818.06 -0.975986 2.83575 0
M  V30 19210 H 1815.62 -0.473045 1.4897 0
M  V30 19211 H 1816.35 -2.99537 1.24291 0
M  V30 19212 H 1816.14 -2.56615 2.96464 0
M  V30 19213 H 1817.63 -3.39797 2.4275 0
M  V30 19214 N 1818.06 -1.49479 -0.499372 0
M  V30 19215 C 1819.48 -1.36278 -0.830692 0
M  V30 19216 C 1819.68 -0.397116 -1.97548 0
M  V30 19217 O 1818.74 0.170614 -2.51923 0
M  V30 19218 C 1820.05 -2.77031 -1.16937 0
M  V30 19219 C 1821.6 -2.85744 -1.27748 0
M  V30 19220 C 1822.07 -4.27267 -1.64944 0
M  V30 19221 N 1823.56 -4.30086 -1.7199 0
M  V30 19222 C 1824.3 -5.36559 -2.02218 0
M  V30 19223 N 1823.79 -6.53275 -2.30659 0
M  V30 19224 N 1825.59 -5.23976 -2.03483 0
M  V30 19225 H 1817.74 -2.10858 0.255497 0
M  V30 19226 H 1820 -0.946588 0.0517184 0
M  V30 19227 H 1819.71 -3.494 -0.401529 0
M  V30 19228 H 1819.58 -3.12501 -2.11242 0
M  V30 19229 H 1821.97 -2.13611 -2.03604 0
M  V30 19230 H 1822.05 -2.53854 -0.314901 0
M  V30 19231 H 1821.69 -4.99927 -0.896384 0
M  V30 19232 H 1821.62 -4.56622 -2.62305 0
M  V30 19233 H 1824.11 -3.45911 -1.52164 0
M  V30 19234 H 1824.43 -7.30241 -2.52918 0
M  V30 19235 H 1822.77 -6.56498 -2.28112 0
M  V30 19236 H 1825.96 -4.31799 -1.80741 0
M  V30 19237 H 1826.14 -6.07049 -2.26707 0
M  V30 19238 N 1819.54 0.750537 -1.38581 0
M  V30 19239 C 1820.5 1.84599 -1.35852 0
M  V30 19240 C 1821.5 1.58709 -0.258462 0
M  V30 19241 O 1822.69 1.66397 -0.51552 0
M  V30 19242 C 1819.83 3.22124 -1.11573 0
M  V30 19243 H 1821.02 1.88426 -2.33314 0
M  V30 19244 H 1818.57 0.952564 -1.23919 0
M  V30 19245 H 1819.31 3.23965 -0.147295 0
M  V30 19246 H 1819.09 3.42311 -1.91221 0
M  V30 19247 H 1820.58 4.02198 -1.12367 0
M  V30 19248 N 1821.02 1.235 0.979051 0
M  V30 19249 C 1822.27 1.06197 1.71479 0
M  V30 19250 C 1822.58 -0.401066 1.91444 0
M  V30 19251 O 1823.79 -0.69406 2.62479 0
M  V30 19252 C 1822.24 1.85189 3.08598 0
M  V30 19253 C 1821.85 3.35831 2.96516 0
M  V30 19254 C 1823.6 1.76379 3.86122 0
M  V30 19255 C 1821.5 4.0721 4.28875 0
M  V30 19256 H 1820.43 0.393779 0.643004 0
M  V30 19257 H 1823.08 1.47479 1.09188 0
M  V30 19258 H 1821.47 1.36714 3.71652 0
M  V30 19259 H 1822.64 3.91803 2.42543 0
M  V30 19260 H 1820.95 3.45469 2.32466 0
M  V30 19261 H 1823.55 2.2702 4.84114 0
M  V30 19262 H 1823.89 0.726826 4.09906 0
M  V30 19263 H 1824.43 2.22473 3.29773 0
M  V30 19264 H 1821.17 5.11218 4.10288 0
M  V30 19265 H 1820.69 3.56025 4.82707 0
M  V30 19266 H 1822.37 4.13579 4.97555 0
M  V30 19267 N 1822.5 -1.17802 1.04693 0
M  V30 19268 C 1823.74 -1.88217 0.755141 0
M  V30 19269 C 1824.08 -1.8053 -0.715731 0
M  V30 19270 O 1823.35 -1.20987 -1.52291 0
M  V30 19271 C 1823.63 -3.38447 1.22986 0
M  V30 19272 C 1823.49 -3.54911 2.7633 0
M  V30 19273 C 1824.81 -4.323 0.824891 0
M  V30 19274 H 1821.93 -0.683452 0.275795 0
M  V30 19275 H 1824.57 -1.38561 1.30004 0
M  V30 19276 H 1822.72 -3.80868 0.7663 0
M  V30 19277 H 1824.39 -3.2154 3.30771 0
M  V30 19278 H 1822.63 -2.97357 3.1585 0
M  V30 19279 H 1823.3 -4.60347 3.04606 0
M  V30 19280 H 1825.78 -3.97694 1.22389 0
M  V30 19281 H 1824.66 -5.35962 1.18472 0
M  V30 19282 H 1824.92 -4.41265 -0.27151 0
M  V30 19283 N 1823.98 -0.827251 -1.34143 0
M  V30 19284 C 1825.39 -0.513554 -1.51112 0
M  V30 19285 C 1825.59 0.961434 -1.77084 0
M  V30 19286 O 1824.65 1.74573 -1.82429 0
M  V30 19287 C 1825.96 -1.37683 -2.67327 0
M  V30 19288 C 1827.51 -1.3744 -2.8121 0
M  V30 19289 C 1827.98 -2.22226 -4.00474 0
M  V30 19290 N 1829.47 -2.19873 -4.07689 0
M  V30 19291 C 1830.21 -2.82222 -4.99138 0
M  V30 19292 N 1829.71 -3.53578 -5.95781 0
M  V30 19293 N 1831.5 -2.71753 -4.92043 0
M  V30 19294 H 1823.65 -1.78222 -1.15545 0
M  V30 19295 H 1825.91 -0.759711 -0.567047 0
M  V30 19296 H 1825.62 -2.42448 -2.54778 0
M  V30 19297 H 1825.49 -1.0446 -3.62447 0
M  V30 19298 H 1827.88 -0.334525 -2.93198 0
M  V30 19299 H 1827.96 -1.74663 -1.86886 0
M  V30 19300 H 1827.6 -3.26266 -3.89246 0
M  V30 19301 H 1827.53 -1.82352 -4.9402 0
M  V30 19302 H 1830.03 -1.67972 -3.38517 0
M  V30 19303 H 1830.34 -3.98387 -6.62199 0
M  V30 19304 H 1828.68 -3.57685 -5.95892 0
M  V30 19305 H 1831.87 -2.15579 -4.15504 0
M  V30 19306 H 1832.05 -3.2063 -5.63117 0
M  V30 19307 N 1825.45 1.46436 -0.582609 0
M  V30 19308 C 1826.73 1.956 -0.00129167 0
M  V30 19309 C 1827.11 1.52526 1.45942 0
M  V30 19310 O 1826.46 0.775911 2.14923 0
M  V30 19311 C 1826.67 3.4857 -0.173243 0
M  V30 19312 C 1828.02 4.2458 -0.0410173 0
M  V30 19313 O 1829.04 3.56054 -0.102074 0
M  V30 19314 O 1827.9 5.46418 0.0947564 0
M  V30 19315 H 1824.99 0.825495 0.0498706 0
M  V30 19316 H 1827.54 1.5672 -0.650921 0
M  V30 19317 H 1826.31 3.72808 -1.1887 0
M  V30 19318 H 1825.93 3.94279 0.512822 0
M  V30 19319 N 1826.93 0.320385 1.54309 0
M  V30 19320 C 1828.34 -0.16833 1.8594 0
M  V30 19321 C 1828.69 -1.51877 1.24208 0
M  V30 19322 O 1827.82 -2.09374 0.546933 0
M  V30 19323 C 1828.41 -0.312212 3.37358 0
M  V30 19324 C 1826.97 -0.745147 3.68951 0
M  V30 19325 C 1826.12 0.135038 2.76971 0
M  V30 19326 H 1829.07 0.540773 1.49202 0
M  V30 19327 H 1829.09 -1.14364 3.62906 0
M  V30 19328 H 1828.6 0.670809 3.82259 0
M  V30 19329 H 1826.7 -1.73803 3.29581 0
M  V30 19330 H 1826.82 -0.5511 4.7592 0
M  V30 19331 H 1825.18 -0.388886 2.51714 0
M  V30 19332 H 1825.96 1.11477 3.24697 0
M  V30 19333 N 1828.41 -1.57525 0.0484906 0
M  V30 19334 C 1829.36 -2.11374 -0.926816 0
M  V30 19335 C 1830.33 -1.02045 -1.31058 0
M  V30 19336 O 1831.51 -1.29577 -1.40052 0
M  V30 19337 C 1828.65 -2.66107 -2.19729 0
M  V30 19338 C 1827.76 -3.89513 -1.86826 0
M  V30 19339 C 1826.9 -4.32571 -3.08312 0
M  V30 19340 C 1825.94 -5.48684 -2.71317 0
M  V30 19341 N 1825.08 -5.86808 -3.85488 0
M  V30 19342 H 1829.92 -2.94417 -0.460721 0
M  V30 19343 H 1827.45 -1.45509 -0.215789 0
M  V30 19344 H 1829.41 -2.95939 -2.94068 0
M  V30 19345 H 1828.04 -1.85865 -2.63921 0
M  V30 19346 H 1827.09 -3.66289 -1.02647 0
M  V30 19347 H 1828.4 -4.73912 -1.55592 0
M  V30 19348 H 1827.56 -4.63941 -3.90952 0
M  V30 19349 H 1826.3 -3.46978 -3.42721 0
M  V30 19350 H 1825.3 -5.16988 -1.87092 0
M  V30 19351 H 1826.53 -6.35991 -2.38102 0
M  V30 19352 H 1824.47 -5.04168 -4.19703 0
M  V30 19353 H 1824.39 -6.65892 -3.57944 0
M  V30 19354 H 1825.66 -6.22792 -4.68776 0
M  V30 19355 N 1829.89 0.224867 -1.55988 0
M  V30 19356 C 1831.14 0.947776 -1.78045 0
M  V30 19357 C 1831.45 1.85632 -0.616454 0
M  V30 19358 O 1832.66 2.61763 -0.720579 0
M  V30 19359 C 1831.11 1.73546 -3.15293 0
M  V30 19360 C 1830.72 0.873219 -4.39407 0
M  V30 19361 C 1832.46 2.44978 -3.46679 0
M  V30 19362 C 1830.37 1.65806 -5.67682 0
M  V30 19363 H 1829.3 0.357623 -0.663793 0
M  V30 19364 H 1831.95 0.201754 -1.82388 0
M  V30 19365 H 1830.33 2.52426 -3.05118 0
M  V30 19366 H 1831.51 0.125187 -4.6063 0
M  V30 19367 H 1829.82 0.271179 -4.15516 0
M  V30 19368 H 1832.42 3.04192 -4.3974 0
M  V30 19369 H 1832.76 3.17699 -2.69023 0
M  V30 19370 H 1833.3 1.7309 -3.58168 0
M  V30 19371 H 1830.03 0.974191 -6.4822 0
M  V30 19372 H 1829.55 2.38079 -5.50526 0
M  V30 19373 H 1831.23 2.21959 -6.07736 0
M  V30 19374 N 1831.37 1.49742 0.491438 0
M  V30 19375 C 1832.3 1.70033 1.60034 0
M  V30 19376 C 1833.28 0.549076 1.60994 0
M  V30 19377 O 1834.46 0.785983 1.77584 0
M  V30 19378 C 1831.59 1.7757 2.98473 0
M  V30 19379 C 1830.55 2.9258 3.12379 0
M  V30 19380 C 1829.87 2.85239 4.52264 0
M  V30 19381 C 1831.17 4.33385 2.91504 0
M  V30 19382 H 1832.87 2.62875 1.43307 0
M  V30 19383 H 1830.41 1.26502 0.687989 0
M  V30 19384 H 1832.36 1.90351 3.75958 0
M  V30 19385 H 1831.09 0.813343 3.1631 0
M  V30 19386 H 1829.75 2.79417 2.37322 0
M  V30 19387 H 1829.4 1.86892 4.66991 0
M  V30 19388 H 1829.1 3.62437 4.62508 0
M  V30 19389 H 1830.62 3.00041 5.31797 0
M  V30 19390 H 1832.03 4.4718 3.58752 0
M  V30 19391 H 1830.43 5.11878 3.13211 0
M  V30 19392 H 1831.5 4.47166 1.87539 0
M  V30 19393 N 1832.84 -0.743177 1.38977 0
M  V30 19394 C 1833.77 -1.87047 1.3977 0
M  V30 19395 C 1834.76 -1.68068 0.262161 0
M  V30 19396 O 1835.94 -1.88507 0.466782 0
M  V30 19397 C 1833.07 -3.24701 1.23234 0
M  V30 19398 C 1832.02 -3.58302 2.34102 0
M  V30 19399 C 1831.35 -4.94805 2.02663 0
M  V30 19400 C 1832.65 -3.62111 3.76395 0
M  V30 19401 H 1834.34 -1.8664 2.34107 0
M  V30 19402 H 1831.89 -0.896541 1.12686 0
M  V30 19403 H 1833.84 -4.03228 1.22412 0
M  V30 19404 H 1832.57 -3.25614 0.253638 0
M  V30 19405 H 1831.23 -2.82099 2.34128 0
M  V30 19406 H 1830.87 -4.92289 1.0325 0
M  V30 19407 H 1830.57 -5.18254 2.76922 0
M  V30 19408 H 1832.1 -5.75699 2.03477 0
M  V30 19409 H 1833.51 -4.30731 3.78343 0
M  V30 19410 H 1831.91 -3.97075 4.49946 0
M  V30 19411 H 1832.98 -2.62099 4.07961 0
M  V30 19412 N 1834.32 -1.24018 -0.972487 0
M  V30 19413 C 1835.25 -1.0529 -2.08414 0
M  V30 19414 C 1836.23 0.0326663 -1.70069 0
M  V30 19415 O 1837.42 -0.133494 -1.93741 0
M  V30 19416 C 1834.55 -0.651796 -3.41129 0
M  V30 19417 C 1833.5 -1.68559 -3.9341 0
M  V30 19418 C 1832.83 -1.1397 -5.22413 0
M  V30 19419 C 1834.13 -3.08046 -4.21788 0
M  V30 19420 H 1835.82 -1.98272 -2.2434 0
M  V30 19421 H 1833.37 -0.954694 -1.07804 0
M  V30 19422 H 1835.32 -0.507792 -4.18329 0
M  V30 19423 H 1834.05 0.313722 -3.2509 0
M  V30 19424 H 1832.7 -1.81773 -3.18362 0
M  V30 19425 H 1832.35 -0.164928 -5.0273 0
M  V30 19426 H 1832.05 -1.83051 -5.5836 0
M  V30 19427 H 1833.58 -1.00771 -6.02227 0
M  V30 19428 H 1834.99 -2.98088 -4.8971 0
M  V30 19429 H 1833.39 -3.74436 -4.68954 0
M  V30 19430 H 1834.46 -3.56444 -3.28749 0
M  V30 19431 N 1835.8 1.17245 -1.05316 0
M  V30 19432 C 1837.08 1.83482 -0.677779 0
M  V30 19433 C 1837.46 1.93592 0.841753 0
M  V30 19434 O 1836.81 1.47142 1.74818 0
M  V30 19435 C 1837.02 3.21062 -1.36823 0
M  V30 19436 C 1838.36 3.96954 -1.50708 0
M  V30 19437 O 1839.39 3.30545 -1.32734 0
M  V30 19438 O 1838.25 5.15967 -1.80111 0
M  V30 19439 H 1835.34 0.79179 -0.238741 0
M  V30 19440 H 1837.89 1.24531 -1.15283 0
M  V30 19441 H 1836.66 3.08679 -2.40484 0
M  V30 19442 H 1836.28 3.8768 -0.882617 0
M  V30 19443 N 1837.28 0.834353 1.33702 0
M  V30 19444 C 1838.19 0.266649 2.3308 0
M  V30 19445 C 1839.2 -0.604958 1.63145 0
M  V30 19446 O 1840.38 -0.510151 1.94832 0
M  V30 19447 C 1837.45 -0.552673 3.42267 0
M  V30 19448 C 1836.51 0.342677 4.2793 0
M  V30 19449 C 1835.74 -0.437637 5.31903 0
M  V30 19450 O 1835.96 -1.6698 5.45412 0
M  V30 19451 O 1834.9 0.186001 6.01613 0
M  V30 19452 H 1838.72 1.08946 2.83486 0
M  V30 19453 H 1836.31 0.596765 1.36964 0
M  V30 19454 H 1838.19 -1.01842 4.08908 0
M  V30 19455 H 1836.86 -1.35263 2.94085 0
M  V30 19456 H 1835.77 0.856168 3.64171 0
M  V30 19457 H 1837.1 1.10728 4.79583 0
M  V30 19458 N 1838.76 -1.46125 0.590367 0
M  V30 19459 C 1839.72 -2.2884 -0.128368 0
M  V30 19460 C 1840.72 -1.38818 -0.81156 0
M  V30 19461 O 1841.91 -1.61117 -0.662347 0
M  V30 19462 C 1839.04 -3.19402 -1.19144 0
M  V30 19463 H 1840.23 -2.93864 0.598641 0
M  V30 19464 H 1837.79 -1.52362 0.34866 0
M  V30 19465 H 1838.52 -2.59141 -1.94978 0
M  V30 19466 H 1838.31 -3.85692 -0.705973 0
M  V30 19467 H 1839.8 -3.8164 -1.69532 0
M  V30 19468 N 1840.23 -0.328564 -1.54137 0
M  V30 19469 C 1841.46 0.274326 -2.05073 0
M  V30 19470 C 1841.88 1.45393 -1.20442 0
M  V30 19471 O 1841.23 1.80964 -0.23625 0
M  V30 19472 C 1841.29 0.703941 -3.5458 0
M  V30 19473 O 1841.01 -0.428738 -4.35997 0
M  V30 19474 C 1842.51 1.36912 -4.21628 0
M  V30 19475 H 1839.73 0.0556157 -0.668691 0
M  V30 19476 H 1842.27 -0.476204 -1.98878 0
M  V30 19477 H 1840.43 1.40444 -3.61046 0
M  V30 19478 H 1840.84 -0.0892654 -5.24424 0
M  V30 19479 H 1842.31 1.62062 -5.27674 0
M  V30 19480 H 1842.79 2.31799 -3.73049 0
M  V30 19481 H 1843.4 0.711064 -4.19314 0
M  V30 19482 N 1841.71 1.57497 -0.0568439 0
M  V30 19483 C 1842.94 1.97645 0.628589 0
M  V30 19484 C 1843.36 0.934424 1.63249 0
M  V30 19485 O 1842.72 -0.101706 1.81015 0
M  V30 19486 C 1842.77 3.36855 1.2869 0
M  V30 19487 O 1841.87 3.35182 2.40264 0
M  V30 19488 H 1841.21 0.643698 0.16294 0
M  V30 19489 H 1843.74 2.04206 -0.126927 0
M  V30 19490 H 1843.75 3.73708 1.63726 0
M  V30 19491 H 1842.43 4.12231 0.551203 0
M  V30 19492 H 1841.01 3.10081 2.07133 0
M  V30 19493 N 1843.19 -0.216591 1.56105 0
M  V30 19494 C 1844.15 -1.25198 1.91985 0
M  V30 19495 C 1845.15 -1.39551 0.798884 0
M  V30 19496 O 1846.34 -1.37731 1.06657 0
M  V30 19497 C 1843.48 -2.62499 2.17502 0
M  V30 19498 H 1844.67 -0.945854 2.84594 0
M  V30 19499 H 1842.22 -0.457218 1.49463 0
M  V30 19500 H 1842.96 -2.98202 1.27461 0
M  V30 19501 H 1842.74 -2.53457 2.99169 0
M  V30 19502 H 1844.23 -3.37204 2.4634 0
M  V30 19503 N 1844.67 -1.5 -0.48349 0
M  V30 19504 C 1845.6 -1.70879 -1.5913 0
M  V30 19505 C 1846.58 -0.557606 -1.60701 0
M  V30 19506 O 1847.76 -0.79539 -1.77164 0
M  V30 19507 C 1844.89 -1.7915 -2.97527 0
M  V30 19508 C 1843.85 -2.94233 -3.10823 0
M  V30 19509 C 1843.17 -2.87634 -4.50745 0
M  V30 19510 C 1844.47 -4.34925 -2.89202 0
M  V30 19511 H 1846.17 -2.63632 -1.41911 0
M  V30 19512 H 1843.71 -1.26865 -0.68127 0
M  V30 19513 H 1845.67 -1.92342 -3.74943 0
M  V30 19514 H 1844.39 -0.830106 -3.15875 0
M  V30 19515 H 1843.05 -2.80672 -2.35837 0
M  V30 19516 H 1842.7 -1.89365 -4.65993 0
M  V30 19517 H 1842.4 -3.64885 -4.60579 0
M  V30 19518 H 1843.92 -3.02857 -5.30198 0
M  V30 19519 H 1845.34 -4.49076 -3.56376 0
M  V30 19520 H 1843.73 -5.13531 -3.10492 0
M  V30 19521 H 1844.8 -4.48154 -1.85165 0
M  V30 19522 N 1846.15 0.735796 -1.39369 0
M  V30 19523 C 1847.42 1.48712 -1.27059 0
M  V30 19524 C 1847.8 2.10758 0.120174 0
M  V30 19525 O 1847.15 1.98528 1.13132 0
M  V30 19526 C 1847.36 2.53918 -2.3943 0
M  V30 19527 C 1848.71 3.20322 -2.78709 0
M  V30 19528 O 1849.73 2.6423 -2.38874 0
M  V30 19529 O 1848.59 4.21819 -3.47463 0
M  V30 19530 H 1845.69 0.660337 -0.497879 0
M  V30 19531 H 1848.23 0.76969 -1.51241 0
M  V30 19532 H 1847 2.06444 -3.3241 0
M  V30 19533 H 1846.63 3.33221 -2.16909 0
M  V30 19534 N 1847.63 1.24532 0.965897 0
M  V30 19535 C 1848.85 1.11318 1.74401 0
M  V30 19536 C 1849.27 -0.33411 1.8582 0
M  V30 19537 O 1848.63 -1.23044 1.34783 0
M  V30 19538 C 1848.68 1.74927 3.16358 0
M  V30 19539 O 1848.4 3.13998 3.05511 0
M  V30 19540 C 1849.9 1.67347 4.105 0
M  V30 19541 H 1847.12 0.388835 0.546853 0
M  V30 19542 H 1849.66 1.64674 1.21255 0
M  V30 19543 H 1847.82 1.2557 3.66485 0
M  V30 19544 H 1848.23 3.45097 3.94979 0
M  V30 19545 H 1849.71 2.16533 5.07757 0
M  V30 19546 H 1850.18 0.635036 4.34585 0
M  V30 19547 H 1850.79 2.16139 3.66284 0
M  V30 19548 N 1849.1 -1.16685 1.05936 0
M  V30 19549 C 1850.01 -2.24591 0.677931 0
M  V30 19550 C 1851.03 -1.71317 -0.304397 0
M  V30 19551 O 1852.21 -2.00806 -0.154615 0
M  V30 19552 C 1849.27 -3.46636 0.0664037 0
M  V30 19553 C 1848.33 -4.14964 1.10014 0
M  V30 19554 C 1847.56 -5.31183 0.517697 0
M  V30 19555 O 1847.79 -5.66444 -0.670637 0
M  V30 19556 O 1846.72 -5.88657 1.25563 0
M  V30 19557 H 1850.55 -2.5952 1.57743 0
M  V30 19558 H 1848.13 -1.2413 0.831395 0
M  V30 19559 H 1850.01 -4.20514 -0.273069 0
M  V30 19560 H 1848.69 -3.13489 -0.806634 0
M  V30 19561 H 1847.6 -3.43072 1.49173 0
M  V30 19562 H 1848.93 -4.52158 1.94458 0
M  V30 19563 N 1850.58 -0.841432 -1.33258 0
M  V30 19564 C 1851.81 -0.45101 -2.02437 0
M  V30 19565 C 1852.23 0.940811 -1.62881 0
M  V30 19566 O 1851.59 1.61559 -0.82271 0
M  V30 19567 C 1851.64 -0.58237 -3.55866 0
M  V30 19568 O 1850.74 0.390326 -4.10549 0
M  V30 19569 H 1850.08 -0.182996 -0.638285 0
M  V30 19570 H 1852.61 -1.13697 -1.701 0
M  V30 19571 H 1852.62 -0.464967 -4.05342 0
M  V30 19572 H 1851.3 -1.59739 -3.84 0
M  V30 19573 H 1849.87 0.230266 -3.72188 0
M  V30 19574 N 1852.06 1.4581 -0.598108 0
M  V30 19575 C 1852.97 2.34249 0.12834 0
M  V30 19576 C 1853.99 1.50677 0.870202 0
M  V30 19577 O 1855.16 1.83505 0.829924 0
M  V30 19578 C 1852.23 3.28135 1.1193 0
M  V30 19579 C 1851.29 4.27611 0.380432 0
M  V30 19580 C 1850.52 5.17012 1.32419 0
M  V30 19581 O 1850.74 5.09648 2.56154 0
M  V30 19582 O 1849.68 5.962 0.826397 0
M  V30 19583 H 1853.5 2.9775 -0.598199 0
M  V30 19584 H 1851.09 1.45037 -0.358416 0
M  V30 19585 H 1852.97 3.86014 1.6903 0
M  V30 19586 H 1851.65 2.6721 1.82703 0
M  V30 19587 H 1850.55 3.73375 -0.23279 0
M  V30 19588 H 1851.89 4.91365 -0.286627 0
M  V30 19589 N 1853.54 0.336733 1.53961 0
M  V30 19590 C 1854.48 -0.523198 2.24792 0
M  V30 19591 C 1855.45 -1.10107 1.24361 0
M  V30 19592 O 1856.64 -1.13895 1.53077 0
M  V30 19593 C 1853.78 -1.67166 3.0191 0
M  V30 19594 C 1852.89 -1.12176 4.17182 0
M  V30 19595 C 1852.03 -2.23697 4.81802 0
M  V30 19596 C 1851.07 -1.66023 5.89154 0
M  V30 19597 N 1850.2 -2.7126 6.47582 0
M  V30 19598 H 1855.04 0.0873707 2.97872 0
M  V30 19599 H 1852.58 0.0548897 1.46998 0
M  V30 19600 H 1854.54 -2.34768 3.44876 0
M  V30 19601 H 1853.17 -2.25332 2.31139 0
M  V30 19602 H 1852.22 -0.336885 3.78905 0
M  V30 19603 H 1853.53 -0.659852 4.94416 0
M  V30 19604 H 1852.69 -2.99178 5.27804 0
M  V30 19605 H 1851.43 -2.7323 4.03976 0
M  V30 19606 H 1850.43 -0.890457 5.42541 0
M  V30 19607 H 1851.66 -1.17352 6.68884 0
M  V30 19608 H 1849.6 -3.20059 5.72624 0
M  V30 19609 H 1849.52 -2.29671 7.20269 0
M  V30 19610 H 1850.79 -3.4653 6.98239 0
M  V30 19611 N 1855.02 -1.57465 0.0651956 0
M  V30 19612 C 1856.24 -1.9756 -0.614633 0
M  V30 19613 C 1856.66 -0.943308 -1.63546 0
M  V30 19614 O 1856.02 0.0708362 -1.82362 0
M  V30 19615 C 1856.07 -3.37735 -1.28909 0
M  V30 19616 O 1855.79 -4.37008 -0.309131 0
M  V30 19617 C 1857.29 -3.92667 -2.05736 0
M  V30 19618 H 1854.51 -0.64987 -0.167061 0
M  V30 19619 H 1857.05 -2.0405 0.135647 0
M  V30 19620 H 1855.21 -3.32352 -1.9905 0
M  V30 19621 H 1855.62 -5.18483 -0.792206 0
M  V30 19622 H 1857.1 -4.92988 -2.48329 0
M  V30 19623 H 1857.57 -3.28851 -2.91124 0
M  V30 19624 H 1858.18 -4.01431 -1.40476 0
M  V30 19625 N 1856.49 0.20831 -1.56217 0
M  V30 19626 C 1857.74 0.932104 -1.8011 0
M  V30 19627 C 1858.07 1.83453 -0.637061 0
M  V30 19628 O 1857.35 1.91081 0.363066 0
M  V30 19629 C 1857.63 1.7597 -3.14176 0
M  V30 19630 C 1857.48 0.882874 -4.4105 0
M  V30 19631 C 1858.8 2.7349 -3.44806 0
M  V30 19632 H 1855.92 0.337428 -0.655218 0
M  V30 19633 H 1858.56 0.2002 -1.88942 0
M  V30 19634 H 1856.71 2.38369 -3.06778 0
M  V30 19635 H 1858.39 0.274607 -4.60482 0
M  V30 19636 H 1856.63 0.188921 -4.33388 0
M  V30 19637 H 1857.3 1.49662 -5.31324 0
M  V30 19638 H 1859.78 2.21225 -3.52418 0
M  V30 19639 H 1858.65 3.28489 -4.39757 0
M  V30 19640 H 1858.91 3.51887 -2.67635 0
M  V30 19641 N 1857.97 1.50255 0.475528 0
M  V30 19642 C 1858.9 1.64942 1.59144 0
M  V30 19643 C 1859.92 0.531065 1.53895 0
M  V30 19644 O 1861.11 0.804084 1.59364 0
M  V30 19645 C 1858.21 1.61372 2.98014 0
M  V30 19646 C 1857.38 2.89167 3.28179 0
M  V30 19647 C 1856.44 2.783 4.46582 0
M  V30 19648 O 1855.46 3.52254 4.47108 0
M  V30 19649 N 1856.67 1.91557 5.47984 0
M  V30 19650 H 1859.43 2.61194 1.46962 0
M  V30 19651 H 1856.99 1.47663 0.663869 0
M  V30 19652 H 1858.98 1.51722 3.75183 0
M  V30 19653 H 1857.55 0.728744 3.03987 0
M  V30 19654 H 1856.77 3.12977 2.39664 0
M  V30 19655 H 1858.06 3.73838 3.45142 0
M  V30 19656 H 1857.46 1.30778 5.50376 0
M  V30 19657 H 1856.02 1.87813 6.24155 0
M  V30 19658 N 1859.45 -0.728395 1.39758 0
M  V30 19659 C 1860.7 -1.49028 1.37544 0
M  V30 19660 C 1861.03 -1.94182 -0.0265175 0
M  V30 19661 O 1860.3 -1.67257 -0.992737 0
M  V30 19662 C 1860.59 -2.72535 2.35365 0
M  V30 19663 C 1860.44 -2.33358 3.84531 0
M  V30 19664 C 1861.76 -3.74656 2.30914 0
M  V30 19665 H 1858.88 -0.540587 0.500934 0
M  V30 19666 H 1861.52 -0.832335 1.70799 0
M  V30 19667 H 1859.67 -3.28674 2.07137 0
M  V30 19668 H 1861.34 -1.828 4.23535 0
M  V30 19669 H 1859.58 -1.65508 4.00986 0
M  V30 19670 H 1860.26 -3.21832 4.48473 0
M  V30 19671 H 1862.73 -3.28117 2.55888 0
M  V30 19672 H 1861.61 -4.58729 3.01428 0
M  V30 19673 H 1861.87 -4.22047 1.31639 0
M  V30 19674 N 1860.93 -1.25042 -0.959279 0
M  V30 19675 C 1861.89 -1.05107 -2.03679 0
M  V30 19676 C 1862.89 -0.0054691 -1.60799 0
M  V30 19677 O 1864.08 -0.247225 -1.72437 0
M  V30 19678 C 1861.21 -0.594881 -3.35669 0
M  V30 19679 H 1862.41 -2.00753 -2.22796 0
M  V30 19680 H 1859.96 -1.07384 -1.13571 0
M  V30 19681 H 1860.69 0.364387 -3.22246 0
M  V30 19682 H 1860.48 -1.34966 -3.68139 0
M  V30 19683 H 1861.97 -0.476698 -4.1487 0
M  V30 19684 N 1862.41 1.16121 -1.06553 0
M  V30 19685 C 1863.34 2.22761 -0.699976 0
M  V30 19686 C 1864.32 1.67274 0.308783 0
M  V30 19687 O 1865.5 1.93333 0.183328 0
M  V30 19688 C 1862.63 3.47187 -0.0884044 0
M  V30 19689 C 1861.59 4.15584 -1.02343 0
M  V30 19690 C 1860.91 5.33992 -0.275022 0
M  V30 19691 C 1862.21 4.66266 -2.35358 0
M  V30 19692 H 1863.91 2.53595 -1.59153 0
M  V30 19693 H 1861.45 1.21893 -0.766686 0
M  V30 19694 H 1863.41 4.21019 0.17922 0
M  V30 19695 H 1862.13 3.15661 0.838181 0
M  V30 19696 H 1860.79 3.43683 -1.27584 0
M  V30 19697 H 1860.44 4.9872 0.654765 0
M  V30 19698 H 1860.14 5.80695 -0.898181 0
M  V30 19699 H 1861.66 6.10598 -0.0150056 0
M  V30 19700 H 1863.07 5.31665 -2.14488 0
M  V30 19701 H 1861.47 5.236 -2.93195 0
M  V30 19702 H 1862.54 3.82335 -2.98241 0
M  V30 19703 N 1863.88 0.848487 1.3281 0
M  V30 19704 C 1865.16 0.370395 1.92061 0
M  V30 19705 C 1865.54 -1.14535 1.77327 0
M  V30 19706 O 1864.89 -1.96419 1.16756 0
M  V30 19707 C 1865.1 0.827934 3.39037 0
M  V30 19708 C 1866.45 0.841527 4.16177 0
M  V30 19709 O 1867.47 0.772167 3.4773 0
M  V30 19710 O 1866.33 0.938119 5.38388 0
M  V30 19711 H 1863.42 0.106809 0.820074 0
M  V30 19712 H 1865.97 0.934979 1.4162 0
M  V30 19713 H 1864.74 1.87089 3.43676 0
M  V30 19714 H 1864.37 0.240456 3.96872 0
M  V30 19715 N 1865.36 -1.4549 0.605832 0
M  V30 19716 C 1866.31 -2.30518 -0.114038 0
M  V30 19717 C 1867.28 -1.42 -0.861703 0
M  V30 19718 O 1868.46 -1.7093 -0.847788 0
M  V30 19719 C 1865.6 -3.26876 -1.10661 0
M  V30 19720 C 1864.72 -4.30497 -0.359999 0
M  V30 19721 C 1863.85 -5.13965 -1.34214 0
M  V30 19722 C 1862.89 -6.09315 -0.58324 0
M  V30 19723 N 1862.03 -6.85569 -1.51457 0
M  V30 19724 H 1866.87 -2.91542 0.617043 0
M  V30 19725 H 1864.41 -1.43664 0.31609 0
M  V30 19726 H 1866.36 -3.81207 -1.69519 0
M  V30 19727 H 1864.99 -2.6761 -1.80512 0
M  V30 19728 H 1864.05 -3.78841 0.344058 0
M  V30 19729 H 1865.36 -4.98259 0.232208 0
M  V30 19730 H 1864.51 -5.72688 -2.00283 0
M  V30 19731 H 1863.25 -4.46218 -1.96828 0
M  V30 19732 H 1862.26 -5.49725 0.0910986 0
M  V30 19733 H 1863.48 -6.79089 0.0378268 0
M  V30 19734 H 1861.43 -6.20512 -2.12839 0
M  V30 19735 H 1861.34 -7.49677 -0.97576 0
M  V30 19736 H 1862.61 -7.48834 -2.1649 0
M  V30 19737 N 1866.84 -0.344893 -1.5378 0
M  V30 19738 C 1867.8 0.498781 -2.23707 0
M  V30 19739 C 1868.8 1.02649 -1.23773 0
M  V30 19740 O 1869.99 0.915526 -1.48202 0
M  V30 19741 C 1867.13 1.69497 -2.95776 0
M  V30 19742 H 1868.32 -0.112815 -2.99688 0
M  V30 19743 H 1865.87 -0.0962613 -1.56003 0
M  V30 19744 H 1866.61 2.34522 -2.23986 0
M  V30 19745 H 1866.39 1.32376 -3.69079 0
M  V30 19746 H 1867.88 2.29334 -3.48992 0
M  V30 19747 N 1868.32 1.57428 -0.0735454 0
M  V30 19748 C 1869.73 1.57069 0.283088 0
M  V30 19749 C 1869.93 1.08308 1.69917 0
M  V30 19750 O 1868.99 0.749756 2.41112 0
M  V30 19751 C 1870.3 3.00562 0.0911498 0
M  V30 19752 C 1871.85 3.12588 0.160552 0
M  V30 19753 C 1872.33 4.58 -0.00312732 0
M  V30 19754 N 1873.82 4.6317 0.0524201 0
M  V30 19755 C 1874.55 5.73378 -0.0497867 0
M  V30 19756 N 1874.05 6.92495 -0.205612 0
M  V30 19757 N 1875.84 5.621 0.00740387 0
M  V30 19758 H 1867.99 1.87439 -0.999015 0
M  V30 19759 H 1870.26 0.864179 -0.389742 0
M  V30 19760 H 1869.96 3.40355 -0.886068 0
M  V30 19761 H 1869.84 3.67666 0.842723 0
M  V30 19762 H 1872.22 2.7268 1.12826 0
M  V30 19763 H 1872.3 2.48119 -0.622153 0
M  V30 19764 H 1871.95 4.98598 -0.967606 0
M  V30 19765 H 1871.88 5.20503 0.799004 0
M  V30 19766 H 1874.37 3.77512 0.171195 0
M  V30 19767 H 1874.68 7.72308 -0.275698 0
M  V30 19768 H 1873.03 6.94582 -0.240997 0
M  V30 19769 H 1876.22 4.67925 0.127856 0
M  V30 19770 H 1876.39 6.47956 -0.075703 0
M  V30 19771 N 1869.8 -0.200022 1.56326 0
M  V30 19772 C 1870.71 -1.26847 1.9735 0
M  V30 19773 C 1871.72 -1.50081 0.880432 0
M  V30 19774 O 1872.9 -1.62792 1.18578 0
M  V30 19775 C 1869.96 -2.59382 2.30048 0
M  V30 19776 C 1869.02 -2.44262 3.53036 0
M  V30 19777 C 1868.26 -3.70476 3.84165 0
M  V30 19778 O 1868.48 -4.74433 3.16654 0
M  V30 19779 O 1867.41 -3.663 4.77606 0
M  V30 19780 H 1871.24 -0.950324 2.88449 0
M  V30 19781 H 1868.83 -0.404628 1.43816 0
M  V30 19782 H 1870.71 -3.37616 2.52177 0
M  V30 19783 H 1869.38 -2.90833 1.42119 0
M  V30 19784 H 1868.29 -1.64154 3.36161 0
M  V30 19785 H 1869.62 -2.17744 4.41416 0
M  V30 19786 N 1871.27 -1.50505 -0.467553 0
M  V30 19787 C 1872.52 -1.61352 -1.21697 0
M  V30 19788 C 1872.84 -0.317583 -1.92396 0
M  V30 19789 O 1872.11 0.665123 -1.84263 0
M  V30 19790 H 1870.69 -0.594582 -0.452196 0
M  V30 19791 H 1873.36 -1.87299 -0.539 0
M  V30 19792 H 1872.45 -2.4264 -1.96296 0
M  V30 19793 N 1872.75 0.720973 -1.40142 0
M  V30 19794 C 1874.17 1.02835 -1.22054 0
M  V30 19795 C 1874.37 2.0129 -0.091949 0
M  V30 19796 O 1873.42 2.46395 0.551897 0
M  V30 19797 C 1874.74 1.57722 -2.56016 0
M  V30 19798 C 1876.29 1.69734 -2.62982 0
M  V30 19799 C 1876.76 2.28027 -3.972 0
M  V30 19800 N 1878.25 2.3542 -3.98913 0
M  V30 19801 C 1878.99 2.81495 -4.99548 0
M  V30 19802 N 1878.48 3.27362 -6.10578 0
M  V30 19803 N 1880.28 2.80831 -4.86919 0
M  V30 19804 H 1872.43 0.068271 -2.1229 0
M  V30 19805 H 1874.69 0.0928952 -0.943438 0
M  V30 19806 H 1874.4 0.928424 -3.39224 0
M  V30 19807 H 1874.27 2.56326 -2.76725 0
M  V30 19808 H 1876.66 2.33732 -1.80148 0
M  V30 19809 H 1876.74 0.697443 -2.46108 0
M  V30 19810 H 1876.38 1.64653 -4.80471 0
M  V30 19811 H 1876.31 3.28721 -4.114 0
M  V30 19812 H 1878.8 2.03019 -3.18735 0
M  V30 19813 H 1879.12 3.61071 -6.83263 0
M  V30 19814 H 1877.46 3.25335 -6.14152 0
M  V30 19815 H 1880.65 2.4433 -3.99275 0
M  V30 19816 H 1880.82 3.16423 -5.65492 0
M  V30 19817 N 1874.23 1.25549 0.952634 0
M  V30 19818 C 1875.46 1.13162 1.73211 0
M  V30 19819 C 1875.87 -0.314383 1.86164 0
M  V30 19820 O 1875.23 -1.21608 1.3608 0
M  V30 19821 C 1875.28 1.78273 3.14485 0
M  V30 19822 O 1875 3.17221 3.02163 0
M  V30 19823 C 1876.5 1.71691 4.08702 0
M  V30 19824 H 1873.72 0.394613 0.542698 0
M  V30 19825 H 1876.27 1.65951 1.19502 0
M  V30 19826 H 1874.42 1.2945 3.65132 0
M  V30 19827 H 1874.84 3.49266 3.91297 0
M  V30 19828 H 1876.31 2.21906 5.05432 0
M  V30 19829 H 1876.79 0.681094 4.33887 0
M  V30 19830 H 1877.39 2.20012 3.63971 0
M  V30 19831 N 1875.71 -1.15554 1.07168 0
M  V30 19832 C 1876.95 -1.87964 0.803046 0
M  V30 19833 C 1877.31 -1.80344 -0.658795 0
M  V30 19834 O 1878.51 -2.47765 -1.0424 0
M  V30 19835 C 1876.78 -3.33115 1.29495 0
M  V30 19836 S 1878.34 -4.2328 1.15671 0
M  V30 19837 H 1875.16 -0.648695 0.29106 0
M  V30 19838 H 1877.76 -1.39428 1.3704 0
M  V30 19839 H 1876.47 -3.36205 2.35361 0
M  V30 19840 H 1876 -3.86704 0.722721 0
M  V30 19841 H 1878.01 -4.96113 0.0930855 0
M  V30 19842 N 1877.19 -0.855519 -1.32358 0
M  V30 19843 C 1878.44 -0.455543 -1.96488 0
M  V30 19844 C 1878.75 0.99419 -1.68449 0
M  V30 19845 O 1879.96 1.49964 -2.26325 0
M  V30 19846 C 1878.41 -0.763678 -3.51704 0
M  V30 19847 C 1878.02 -2.2292 -3.88601 0
M  V30 19848 C 1879.76 -0.431467 -4.22302 0
M  V30 19849 C 1877.67 -2.48051 -5.36866 0
M  V30 19850 H 1876.6 -0.166617 -0.73536 0
M  V30 19851 H 1879.25 -1.04642 -1.50739 0
M  V30 19852 H 1877.63 -0.102224 -3.95868 0
M  V30 19853 H 1878.81 -2.93251 -3.55444 0
M  V30 19854 H 1877.12 -2.52602 -3.31031 0
M  V30 19855 H 1879.72 -0.596641 -5.31361 0
M  V30 19856 H 1880.06 0.62698 -4.11552 0
M  V30 19857 H 1880.6 -1.04885 -3.83724 0
M  V30 19858 H 1877.33 -3.52523 -5.52637 0
M  V30 19859 H 1876.85 -1.82298 -5.71426 0
M  V30 19860 H 1878.53 -2.32044 -6.03957 0
M  V30 19861 N 1878.67 1.45167 -0.61354 0
M  V30 19862 C 1879.91 2.02495 -0.111227 0
M  V30 19863 C 1880.24 1.48015 1.25719 0
M  V30 19864 O 1879.52 0.657188 1.83061 0
M  V30 19865 C 1879.8 3.60014 -0.07876 0
M  V30 19866 C 1879.66 4.24814 -1.47827 0
M  V30 19867 C 1880.97 4.35908 0.605964 0
M  V30 19868 H 1878.09 0.735808 -0.0418931 0
M  V30 19869 H 1880.74 1.7295 -0.786651 0
M  V30 19870 H 1878.89 3.85315 0.496411 0
M  V30 19871 H 1880.56 4.10678 -2.10097 0
M  V30 19872 H 1878.8 3.82986 -2.03726 0
M  V30 19873 H 1879.47 5.33748 -1.40774 0
M  V30 19874 H 1881.95 4.15935 0.117019 0
M  V30 19875 H 1880.82 5.45635 0.597808 0
M  V30 19876 H 1881.08 4.09216 1.67315 0
M  V30 19877 N 1880.14 0.353044 1.53595 0
M  V30 19878 C 1881.39 -0.2416 2.00248 0
M  V30 19879 C 1881.71 -1.5089 1.24465 0
M  V30 19880 O 1882.91 -2.18137 1.61643 0
M  V30 19881 C 1881.37 -0.481075 3.5667 0
M  V30 19882 C 1880.98 0.77087 4.41318 0
M  V30 19883 C 1882.72 -1.03406 4.11713 0
M  V30 19884 C 1880.63 0.501671 5.89268 0
M  V30 19885 H 1879.56 -0.0940573 0.74811 0
M  V30 19886 H 1882.21 0.469845 1.77383 0
M  V30 19887 H 1880.59 -1.25346 3.75639 0
M  V30 19888 H 1881.76 1.54509 4.34124 0
M  V30 19889 H 1880.08 1.24617 3.97315 0
M  V30 19890 H 1882.68 -1.25058 5.1987 0
M  V30 19891 H 1883.02 -1.99245 3.65523 0
M  V30 19892 H 1883.55 -0.322144 3.96493 0
M  V30 19893 H 1880.29 1.43005 6.39711 0
M  V30 19894 H 1879.81 -0.234284 5.99342 0
M  V30 19895 H 1881.49 0.122468 6.46884 0
M  V30 19896 N 1881.62 -1.57387 0.0818932 0
M  V30 19897 C 1882.58 -2.12162 -0.86718 0
M  V30 19898 C 1883.58 -1.04788 -1.21967 0
M  V30 19899 O 1884.77 -1.30733 -1.15128 0
M  V30 19900 C 1881.91 -2.63132 -2.16736 0
M  V30 19901 H 1883.1 -2.9733 -0.391788 0
M  V30 19902 H 1880.65 -1.55406 -0.166944 0
M  V30 19903 H 1881.39 -1.81446 -2.6879 0
M  V30 19904 H 1881.17 -3.41625 -1.92445 0
M  V30 19905 H 1882.66 -3.05549 -2.84657 0
M  V30 19906 N 1883.1 0.191729 -1.56429 0
M  V30 19907 C 1884.05 1.24177 -1.91217 0
M  V30 19908 C 1885.03 1.40828 -0.778219 0
M  V30 19909 O 1886.23 1.43142 -1.04112 0
M  V30 19910 C 1883.35 2.58584 -2.25808 0
M  V30 19911 C 1882.44 2.45712 -3.45668 0
M  V30 19912 N 1882.83 2.02524 -4.63484 0
M  V30 19913 C 1881.13 2.76595 -3.49873 0
M  V30 19914 C 1881.83 2.01625 -5.45639 0
M  V30 19915 N 1880.81 2.43256 -4.86135 0
M  V30 19916 H 1884.61 0.899247 -2.79805 0
M  V30 19917 H 1882.12 0.400144 -1.57393 0
M  V30 19918 H 1884.12 3.34434 -2.48917 0
M  V30 19919 H 1882.78 2.93657 -1.38549 0
M  V30 19920 H 1883.79 1.7318 -4.88087 0
M  V30 19921 H 1880.47 3.15842 -2.73038 0
M  V30 19922 H 1881.86 1.70106 -6.5001 0
M  V30 19923 N 1884.58 1.50751 0.459565 0
M  V30 19924 C 1885.99 1.38432 0.794269 0
M  V30 19925 C 1886.19 0.449353 1.96426 0
M  V30 19926 O 1885.25 -0.103761 2.52287 0
M  V30 19927 C 1886.56 2.80034 1.09551 0
M  V30 19928 C 1888.11 2.8903 1.20127 0
M  V30 19929 C 1888.59 4.3149 1.53558 0
M  V30 19930 N 1890.08 4.34494 1.60527 0
M  V30 19931 C 1890.81 5.41732 1.87921 0
M  V30 19932 N 1890.31 6.59161 2.13258 0
M  V30 19933 N 1892.1 5.29187 1.89519 0
M  V30 19934 H 1884.25 2.10106 -0.311312 0
M  V30 19935 H 1886.51 0.944884 -0.0767974 0
M  V30 19936 H 1886.22 3.50342 0.308751 0
M  V30 19937 H 1886.09 3.17992 2.02882 0
M  V30 19938 H 1888.48 2.18934 1.97869 0
M  V30 19939 H 1888.56 2.546 0.247486 0
M  V30 19940 H 1888.21 5.02128 0.763522 0
M  V30 19941 H 1888.14 4.63416 2.50106 0
M  V30 19942 H 1890.63 3.49824 1.42939 0
M  V30 19943 H 1890.94 7.3669 2.33468 0
M  V30 19944 H 1889.29 6.62315 2.10626 0
M  V30 19945 H 1892.48 4.36439 1.69229 0
M  V30 19946 H 1892.65 6.12846 2.10532 0
M  V30 19947 N 1886.06 -0.713531 1.40522 0
M  V30 19948 C 1886.99 -1.8404 1.43707 0
M  V30 19949 C 1887.97 -1.67474 0.297751 0
M  V30 19950 O 1889.15 -1.87474 0.506662 0
M  V30 19951 C 1886.28 -3.22014 1.30094 0
M  V30 19952 C 1885.24 -3.53255 2.4165 0
M  V30 19953 C 1884.56 -4.90395 2.13113 0
M  V30 19954 C 1885.86 -3.54045 3.83991 0
M  V30 19955 H 1887.56 -1.81632 2.38013 0
M  V30 19956 H 1885.1 -0.872437 1.14562 0
M  V30 19957 H 1887.05 -4.00541 1.30938 0
M  V30 19958 H 1885.78 -3.25002 0.322648 0
M  V30 19959 H 1884.44 -2.77069 2.40059 0
M  V30 19960 H 1884.09 -4.89988 1.13669 0
M  V30 19961 H 1883.79 -5.12264 2.87853 0
M  V30 19962 H 1885.31 -5.71254 2.15642 0
M  V30 19963 H 1886.72 -4.22609 3.87395 0
M  V30 19964 H 1885.12 -3.87441 4.58268 0
M  V30 19965 H 1886.19 -2.53387 4.13428 0
M  V30 19966 N 1887.53 -1.26053 -0.945962 0
M  V30 19967 C 1888.76 -1.14181 -1.7314 0
M  V30 19968 C 1889.18 0.299663 -1.85698 0
M  V30 19969 O 1888.54 1.21711 -1.34373 0
M  V30 19970 C 1888.59 -1.81052 -3.11854 0
M  V30 19971 O 1887.69 -1.09606 -3.97568 0
M  V30 19972 H 1887.03 -0.398138 -0.531397 0
M  V30 19973 H 1889.56 -1.66782 -1.18511 0
M  V30 19974 H 1889.57 -1.87685 -3.62269 0
M  V30 19975 H 1888.25 -2.85921 -3.0203 0
M  V30 19976 H 1886.83 -1.10915 -3.56023 0
M  V30 19977 N 1889.01 1.14984 -1.07779 0
M  V30 19978 C 1890.24 1.89747 -0.824844 0
M  V30 19979 C 1890.65 1.78246 0.622385 0
M  V30 19980 O 1890.01 1.13739 1.42723 0
M  V30 19981 C 1890.06 3.39946 -1.2296 0
M  V30 19982 O 1889.78 3.5112 -2.62005 0
M  V30 19983 C 1891.28 4.31721 -1.00658 0
M  V30 19984 H 1888.5 0.601232 -0.297928 0
M  V30 19985 H 1891.05 1.4566 -1.43539 0
M  V30 19986 H 1889.2 3.81679 -0.663292 0
M  V30 19987 H 1889.62 4.44367 -2.78636 0
M  V30 19988 H 1891.09 5.35507 -1.33925 0
M  V30 19989 H 1891.57 4.39163 0.0568131 0
M  V30 19990 H 1892.17 3.95735 -1.55801 0
M  V30 19991 N 1890.49 0.862526 1.31902 0
M  V30 19992 C 1891.74 0.465956 1.96244 0
M  V30 19993 C 1892.05 -0.985243 1.68974 0
M  V30 19994 O 1893.26 -1.48761 2.27118 0
M  V30 19995 C 1891.71 0.782319 3.51294 0
M  V30 19996 C 1891.32 2.24978 3.87413 0
M  V30 19997 C 1893.07 0.453857 4.22067 0
M  V30 19998 C 1890.97 2.50894 5.35543 0
M  V30 19999 H 1889.9 0.170515 0.734466 0
M  V30 20000 H 1892.55 1.0544 1.50182 0
M  V30 20001 H 1890.94 0.123217 3.95808 0
M  V30 20002 H 1892.11 2.95132 3.53884 0
M  V30 20003 H 1890.42 2.54354 3.29687 0
M  V30 20004 H 1893.02 0.624812 5.31037 0
M  V30 20005 H 1893.36 -0.605145 4.11878 0
M  V30 20006 H 1893.9 1.06918 3.83162 0
M  V30 20007 H 1890.64 3.55449 5.5076 0
M  V30 20008 H 1890.16 1.85326 5.70451 0
M  V30 20009 H 1891.84 2.35244 6.02718 0
M  V30 20010 N 1891.97 -1.4484 0.62123 0
M  V30 20011 C 1892.9 -2.28843 -0.127881 0
M  V30 20012 C 1893.91 -1.40726 -0.818542 0
M  V30 20013 O 1895.1 -1.64972 -0.681645 0
M  V30 20014 C 1892.2 -3.16837 -1.20281 0
M  V30 20015 C 1891.38 -4.33312 -0.5966 0
M  V30 20016 C 1890.43 -5.02414 -1.56419 0
M  V30 20017 O 1889.46 -5.5876 -1.08517 0
M  V30 20018 N 1890.66 -5.02953 -2.8986 0
M  V30 20019 H 1893.43 -2.93775 0.592994 0
M  V30 20020 H 1890.99 -1.55178 0.461679 0
M  V30 20021 H 1892.98 -3.59929 -1.85021 0
M  V30 20022 H 1891.55 -2.53722 -1.82603 0
M  V30 20023 H 1890.77 -3.93533 0.229203 0
M  V30 20024 H 1892.06 -5.08509 -0.17206 0
M  V30 20025 H 1891.46 -4.58489 -3.31367 0
M  V30 20026 H 1890.01 -5.49866 -3.49987 0
M  V30 20027 N 1893.45 -0.361184 -1.53405 0
M  V30 20028 C 1894.39 0.502532 -2.27107 0
M  V30 20029 C 1895.39 1.08711 -1.29916 0
M  V30 20030 O 1896.59 1.03082 -1.47561 0
M  V30 20031 H 1892.97 0.180773 -0.729949 0
M  V30 20032 H 1894.94 -0.140891 -2.98067 0
M  V30 20033 C 1893.69 1.63258 -3.06989 0
M  V30 20034 H 1893.01 1.19205 -3.81615 0
M  V30 20035 H 1894.45 2.21174 -3.61743 0
M  V30 20036 C 1892.91 2.57234 -2.17559 0
M  V30 20037 O 1893.44 3.59939 -1.78345 0
M  V30 20038 N 1891.65 2.26322 -1.82282 0
M  V30 20039 H 1891.19 1.4284 -2.1437 0
M  V30 20040 H 1891.15 2.89455 -1.22731 0
M  V30 20041 N 1894.92 1.57341 -0.0902386 0
M  V30 20042 C 1895.89 2.12619 0.855916 0
M  V30 20043 C 1896.89 1.05434 1.2141 0
M  V30 20044 O 1898.08 1.31342 1.14433 0
M  V30 20045 C 1895.21 2.64277 2.15338 0
M  V30 20046 H 1896.4 2.97533 0.376014 0
M  V30 20047 H 1893.96 1.55492 0.1587 0
M  V30 20048 H 1894.69 1.82869 2.67824 0
M  V30 20049 H 1894.48 3.4264 1.9063 0
M  V30 20050 H 1895.97 3.07055 2.83032 0
M  V30 20051 N 1896.4 -0.183431 1.56529 0
M  V30 20052 C 1897.68 -0.928567 1.72154 0
M  V30 20053 C 1898.06 -2.00899 0.648284 0
M  V30 20054 O 1897.41 -2.25973 -0.338886 0
M  V30 20055 C 1897.62 -1.50436 3.14913 0
M  V30 20056 C 1898.97 -1.98198 3.75503 0
M  V30 20057 O 1899.99 -1.60255 3.18115 0
M  V30 20058 O 1898.85 -2.68054 4.76245 0
M  V30 20059 H 1895.94 -0.436242 0.702582 0
M  V30 20060 H 1898.49 -0.17221 1.68824 0
M  V30 20061 H 1897.26 -0.726145 3.84503 0
M  V30 20062 H 1896.88 -2.32523 3.22519 0
M  V30 20063 N 1897.88 -1.50992 -0.451564 0
M  V30 20064 C 1899.13 -1.62192 -1.19903 0
M  V30 20065 C 1899.44 -0.337085 -1.92674 0
M  V30 20066 O 1900.65 -0.328248 -2.69508 0
M  V30 20067 C 1899.1 -2.8638 -2.17978 0
M  V30 20068 C 1898.71 -4.21814 -1.50921 0
M  V30 20069 C 1900.46 -3.06932 -2.93246 0
M  V30 20070 C 1898.36 -5.37168 -2.47396 0
M  V30 20071 H 1897.29 -0.60406 -0.451251 0
M  V30 20072 H 1899.94 -1.77445 -0.467482 0
M  V30 20073 H 1898.33 -2.64728 -2.94508 0
M  V30 20074 H 1899.5 -4.53794 -0.800466 0
M  V30 20075 H 1897.82 -4.07025 -0.878604 0
M  V30 20076 H 1900.41 -3.90286 -3.65487 0
M  V30 20077 H 1900.76 -2.19437 -3.5377 0
M  V30 20078 H 1901.29 -3.28857 -2.23826 0
M  V30 20079 H 1898.03 -6.26878 -1.91582 0
M  V30 20080 H 1897.55 -5.09581 -3.16365 0
M  V30 20081 H 1899.23 -5.68539 -3.08824 0
M  V30 20082 N 1899.36 0.706069 -1.40899 0
M  V30 20083 C 1900.61 1.46164 -1.38993 0
M  V30 20084 C 1900.92 1.956 0.00145788 0
M  V30 20085 O 1902.13 2.71122 0.143137 0
M  V30 20086 C 1900.58 2.64252 -2.44334 0
M  V30 20087 C 1900.19 2.21646 -3.89329 0
M  V30 20088 C 1901.93 3.41941 -2.51549 0
M  V30 20089 C 1899.84 3.36629 -4.86245 0
M  V30 20090 H 1898.77 0.548985 -0.516847 0
M  V30 20091 H 1901.42 0.767528 -1.66677 0
M  V30 20092 H 1899.8 3.3588 -2.09764 0
M  V30 20093 H 1900.98 1.57376 -4.33093 0
M  V30 20094 H 1899.29 1.56978 -3.85677 0
M  V30 20095 H 1901.89 4.27518 -3.21142 0
M  V30 20096 H 1902.23 3.86409 -1.54899 0
M  V30 20097 H 1902.77 2.77363 -2.85158 0
M  V30 20098 H 1899.51 2.97183 -5.84262 0
M  V30 20099 H 1899.03 3.99784 -4.47139 0
M  V30 20100 H 1900.7 4.02559 -5.06513 0
M  V30 20101 N 1900.84 1.26553 0.939264 0
M  V30 20102 C 1901.8 1.08335 2.01981 0
M  V30 20103 C 1902.8 0.0310501 1.6077 0
M  V30 20104 O 1903.99 0.274627 1.72022 0
M  V30 20105 C 1901.12 0.648208 3.34681 0
M  V30 20106 H 1902.31 2.04272 2.19574 0
M  V30 20107 H 1899.87 1.09177 1.11849 0
M  V30 20108 H 1900.6 -0.313074 3.22785 0
M  V30 20109 H 1900.39 1.40806 3.65946 0
M  V30 20110 H 1901.88 0.54264 4.14059 0
M  V30 20111 N 1902.31 -1.14411 1.08387 0
M  V30 20112 C 1903.56 -1.85719 0.814638 0
M  V30 20113 C 1903.89 -1.82715 -0.657934 0
M  V30 20114 O 1903.17 -1.2577 -1.48365 0
M  V30 20115 C 1903.45 -3.34363 1.33691 0
M  V30 20116 C 1903.3 -3.4594 2.87481 0
M  V30 20117 C 1904.62 -4.29457 0.962006 0
M  V30 20118 H 1901.74 -0.674332 0.297399 0
M  V30 20119 H 1904.38 -1.34354 1.34346 0
M  V30 20120 H 1902.53 -3.78237 0.887082 0
M  V30 20121 H 1904.21 -3.10854 3.40833 0
M  V30 20122 H 1902.45 -2.87158 3.25151 0
M  V30 20123 H 1903.12 -4.50423 3.19097 0
M  V30 20124 H 1905.6 -3.93599 1.34979 0
M  V30 20125 H 1904.47 -5.31922 1.35464 0
M  V30 20126 H 1904.73 -4.41906 -0.130987 0
M  V30 20127 N 1903.79 -0.869509 -1.31443 0
M  V30 20128 C 1904.73 -0.269612 -2.26602 0
M  V30 20129 C 1905.7 0.600966 -1.51087 0
M  V30 20130 O 1906.89 0.554491 -1.8016 0
M  V30 20131 C 1904.01 0.618287 -3.33009 0
M  V30 20132 C 1903.06 -0.180883 -4.26116 0
M  V30 20133 S 1903.89 -1.55908 -5.12302 0
M  V30 20134 C 1905.05 -0.677295 -6.22225 0
M  V30 20135 H 1905.28 -1.07626 -2.77135 0
M  V30 20136 H 1902.82 -0.668003 -1.39202 0
M  V30 20137 H 1904.77 1.12488 -3.94787 0
M  V30 20138 H 1903.43 1.39888 -2.8123 0
M  V30 20139 H 1902.63 0.496021 -5.01553 0
M  V30 20140 H 1902.23 -0.619555 -3.68833 0
M  V30 20141 H 1904.52 0.1123 -6.77407 0
M  V30 20142 H 1905.46 -1.40278 -6.94066 0
M  V30 20143 H 1905.87 -0.245049 -5.63968 0
M  V30 20144 N 1905.27 1.44508 -0.628902 0
M  V30 20145 C 1906.23 2.291 0.0676501 0
M  V30 20146 C 1907.23 1.40921 0.77447 0
M  V30 20147 O 1908.42 1.62816 0.619397 0
M  V30 20148 C 1905.56 3.22448 1.10634 0
M  V30 20149 H 1906.75 2.92174 -0.676344 0
M  V30 20150 H 1904.3 1.51384 -0.388933 0
M  V30 20151 H 1905.04 2.64219 1.88039 0
M  V30 20152 H 1904.82 3.87428 0.603465 0
M  V30 20153 H 1906.31 3.86 1.59354 0
M  V30 20154 N 1906.75 0.369315 1.53212 0
M  V30 20155 C 1907.68 -0.510161 2.2345 0
M  V30 20156 C 1908.69 -1.04313 1.24991 0
M  V30 20157 O 1909.88 -0.948869 1.51191 0
M  V30 20158 C 1906.98 -1.71753 2.92154 0
M  V30 20159 C 1906.16 -1.31542 4.17152 0
M  V30 20160 C 1905.22 -2.38526 4.69033 0
M  V30 20161 O 1904.24 -2.00761 5.32619 0
M  V30 20162 N 1905.44 -3.70165 4.47167 0
M  V30 20163 H 1908.21 0.0915031 2.9956 0
M  V30 20164 H 1905.77 0.194676 1.60725 0
M  V30 20165 H 1907.76 -2.42808 3.23769 0
M  V30 20166 H 1906.33 -2.22598 2.19474 0
M  V30 20167 H 1905.55 -0.434563 3.91797 0
M  V30 20168 H 1906.84 -1.02311 4.98407 0
M  V30 20169 H 1906.24 -4.0362 3.96368 0
M  V30 20170 H 1904.79 -4.37313 4.83323 0
M  V30 20171 N 1908.23 -1.57291 0.0985816 0
M  V30 20172 C 1909.48 -1.94094 -0.563189 0
M  V30 20173 C 1909.8 -0.981394 -1.68504 0
M  V30 20174 O 1909.07 -0.0340632 -1.9587 0
M  V30 20175 H 1907.65 -0.716571 -0.211033 0
M  V30 20176 H 1910.31 -1.94219 0.162732 0
M  V30 20177 H 1909.4 -2.96607 -0.971113 0
M  V30 20178 N 1909.71 0.175127 -1.56624 0
M  V30 20179 C 1910.95 0.89369 -1.82047 0
M  V30 20180 C 1911.28 1.82061 -0.675831 0
M  V30 20181 O 1910.56 1.91808 0.322453 0
M  V30 20182 C 1910.84 1.69266 -3.17838 0
M  V30 20183 C 1910.7 0.789122 -4.42824 0
M  V30 20184 C 1912.01 2.66115 -3.50529 0
M  V30 20185 H 1909.13 0.323454 -0.662228 0
M  V30 20186 H 1911.78 0.160077 -1.89324 0
M  V30 20187 H 1909.93 2.31808 -3.11765 0
M  V30 20188 H 1911.6 0.17687 -4.60961 0
M  V30 20189 H 1909.84 0.0969508 -4.33692 0
M  V30 20190 H 1910.51 1.38358 -5.34379 0
M  V30 20191 H 1912.99 2.137 -3.57031 0
M  V30 20192 H 1911.86 3.19087 -4.46626 0
M  V30 20193 H 1912.12 3.4613 -2.75038 0
M  V30 20194 N 1911.18 1.5123 0.44355 0
M  V30 20195 C 1912.43 1.63833 1.19527 0
M  V30 20196 C 1912.76 0.350544 1.9101 0
M  V30 20197 O 1912.04 -0.649546 1.83333 0
M  V30 20198 C 1912.32 2.83747 2.21719 0
M  V30 20199 C 1912.17 4.22484 1.5436 0
M  V30 20200 C 1913.49 2.99184 3.22765 0
M  V30 20201 H 1910.61 0.596256 0.433184 0
M  V30 20202 H 1913.25 1.83697 0.485321 0
M  V30 20203 H 1911.4 2.66942 2.82267 0
M  V30 20204 H 1913.08 4.50944 0.971976 0
M  V30 20205 H 1911.32 4.25469 0.846069 0
M  V30 20206 H 1911.99 5.0237 2.28754 0
M  V30 20207 H 1914.47 3.14659 2.72266 0
M  V30 20208 H 1913.34 3.84663 3.91569 0
M  V30 20209 H 1913.6 2.10984 3.88508 0
M  V30 20210 N 1912.66 -0.698586 1.41271 0
M  V30 20211 C 1913.91 -1.45425 1.39766 0
M  V30 20212 C 1914.22 -1.95598 0.00891528 0
M  V30 20213 O 1915.43 -2.71195 -0.128757 0
M  V30 20214 C 1913.89 -2.62952 2.45732 0
M  V30 20215 C 1913.49 -2.19578 3.90499 0
M  V30 20216 C 1915.24 -3.40602 2.53359 0
M  V30 20217 C 1913.14 -3.34046 4.88024 0
M  V30 20218 H 1912.07 -0.546236 0.519752 0
M  V30 20219 H 1914.73 -0.758678 1.67082 0
M  V30 20220 H 1913.11 -3.34762 2.11542 0
M  V30 20221 H 1914.28 -1.55077 4.33921 0
M  V30 20222 H 1912.6 -1.5493 3.86504 0
M  V30 20223 H 1915.19 -4.25809 3.23405 0
M  V30 20224 H 1915.54 -3.85582 1.56946 0
M  V30 20225 H 1916.07 -2.75846 2.86625 0
M  V30 20226 H 1912.81 -2.94081 5.8583 0
M  V30 20227 H 1912.33 -3.97407 4.49253 0
M  V30 20228 H 1914.01 -3.99867 5.0864 0
M  V30 20229 N 1914.14 -1.27049 -0.93254 0
M  V30 20230 C 1915.05 -1.11156 -2.06595 0
M  V30 20231 C 1916.07 -0.0428245 -1.73947 0
M  V30 20232 O 1917.24 -0.248326 -1.99863 0
M  V30 20233 C 1914.31 -0.755297 -3.38373 0
M  V30 20234 C 1913.37 -1.90439 -3.84749 0
M  V30 20235 C 1912.6 -1.56502 -5.10238 0
M  V30 20236 O 1912.82 -0.470696 -5.68455 0
M  V30 20237 O 1911.76 -2.40262 -5.51868 0
M  V30 20238 H 1915.58 -2.0626 -2.22914 0
M  V30 20239 H 1913.17 -1.06191 -1.05089 0
M  V30 20240 H 1915.05 -0.569728 -4.17531 0
M  V30 20241 H 1913.73 0.166262 -3.23273 0
M  V30 20242 H 1912.63 -2.14498 -3.06499 0
M  V30 20243 H 1913.97 -2.80598 -4.04383 0
M  V30 20244 N 1915.62 1.13835 -1.08993 0
M  V30 20245 C 1916.56 2.19107 -0.725298 0
M  V30 20246 C 1917.53 1.63524 0.291368 0
M  V30 20247 O 1918.72 1.90005 0.174014 0
M  V30 20248 C 1915.86 3.44786 -0.147212 0
M  V30 20249 C 1914.97 4.14492 -1.21738 0
M  V30 20250 C 1914.11 5.27772 -0.602519 0
M  V30 20251 C 1913.15 5.89321 -1.65431 0
M  V30 20252 N 1912.28 6.9404 -1.0608 0
M  V30 20253 H 1917.12 2.49646 -1.6273 0
M  V30 20254 H 1914.66 1.22585 -0.813108 0
M  V30 20255 H 1916.62 4.16692 0.205719 0
M  V30 20256 H 1915.25 3.14712 0.718077 0
M  V30 20257 H 1914.3 3.40914 -1.68766 0
M  V30 20258 H 1915.61 4.56325 -2.01417 0
M  V30 20259 H 1914.77 6.06376 -0.198177 0
M  V30 20260 H 1913.51 4.87177 0.225868 0
M  V30 20261 H 1912.51 5.09415 -2.06824 0
M  V30 20262 H 1913.74 6.3199 -2.48528 0
M  V30 20263 H 1911.68 6.5551 -0.253616 0
M  V30 20264 H 1911.6 7.34391 -1.79461 0
M  V30 20265 H 1912.87 7.76506 -0.682517 0
M  V30 20266 N 1917.1 0.876467 1.3098 0
M  V30 20267 C 1918.34 0.489671 1.96078 0
M  V30 20268 C 1918.66 -0.962603 1.69585 0
M  V30 20269 O 1917.93 -1.67568 1.01478 0
M  V30 20270 H 1916.51 0.178091 0.72546 0
M  V30 20271 H 1919.18 1.11768 1.59668 0
M  V30 20272 H 1918.27 0.652822 3.05196 0
M  V30 20273 N 1918.57 -1.44173 0.636557 0
M  V30 20274 C 1919.8 -2.06352 0.150456 0
M  V30 20275 C 1920.22 -1.47608 -1.17718 0
M  V30 20276 O 1919.57 -0.601003 -1.7232 0
M  V30 20277 C 1919.62 -3.61483 0.0353658 0
M  V30 20278 O 1919.35 -4.1804 1.3105 0
M  V30 20279 C 1920.85 -4.40707 -0.478789 0
M  V30 20280 H 1918.07 -0.665948 0.0821807 0
M  V30 20281 H 1920.61 -1.84953 0.872495 0
M  V30 20282 H 1918.77 -3.82125 -0.637142 0
M  V30 20283 H 1919.18 -5.11538 1.15886 0
M  V30 20284 H 1920.65 -5.49655 -0.508315 0
M  V30 20285 H 1921.13 -4.1254 -1.5069 0
M  V30 20286 H 1921.74 -4.24996 0.160654 0
M  V30 20287 N 1920.05 -0.377435 -1.53014 0
M  V30 20288 C 1921 0.480105 -2.22888 0
M  V30 20289 C 1921.99 1.0392 -1.22839 0
M  V30 20290 O 1923.18 0.967277 -1.48232 0
M  V30 20291 C 1920.31 1.61312 -3.0304 0
M  V30 20292 C 1919.39 1.06633 -4.10476 0
M  V30 20293 N 1919.78 0.243501 -5.05214 0
M  V30 20294 C 1918.08 1.33999 -4.25394 0
M  V30 20295 C 1918.78 -0.0572358 -5.81672 0
M  V30 20296 N 1917.76 0.543562 -5.40876 0
M  V30 20297 H 1921.56 -0.155223 -2.9349 0
M  V30 20298 H 1919.07 -0.18609 -1.6133 0
M  V30 20299 H 1921.07 2.23975 -3.51626 0
M  V30 20300 H 1919.73 2.25138 -2.33972 0
M  V30 20301 H 1920.74 -0.118276 -5.17765 0
M  V30 20302 H 1917.42 1.98017 -3.67553 0
M  V30 20303 H 1918.81 -0.72317 -6.67997 0
M  V30 20304 N 1921.53 1.57237 -0.106922 0
M  V30 20305 C 1922.44 2.18202 0.861685 0
M  V30 20306 C 1923.46 1.15476 1.30159 0
M  V30 20307 O 1924.63 1.47896 1.36707 0
M  V30 20308 C 1921.7 2.7598 2.09847 0
M  V30 20309 C 1920.76 3.93702 1.71164 0
M  V30 20310 C 1919.99 4.48716 2.88946 0
M  V30 20311 O 1920.21 4.02645 4.04021 0
M  V30 20312 O 1919.15 5.39573 2.66729 0
M  V30 20313 H 1922.97 3.01402 0.372924 0
M  V30 20314 H 1920.56 1.48933 0.118058 0
M  V30 20315 H 1922.44 3.12861 2.82305 0
M  V30 20316 H 1921.12 1.9582 2.57753 0
M  V30 20317 H 1920.02 3.61613 0.958499 0
M  V30 20318 H 1921.36 4.75262 1.28011 0
M  V30 20319 N 1923.01 -0.166818 1.56715 0
M  V30 20320 C 1923.92 -1.22632 1.99996 0
M  V30 20321 C 1924.93 -1.4818 0.912068 0
M  V30 20322 O 1926.11 -1.6024 1.22005 0
M  V30 20323 C 1923.18 -2.54444 2.35498 0
M  V30 20324 C 1922.24 -2.36718 3.58138 0
M  V30 20325 C 1921.47 -3.62244 3.91937 0
M  V30 20326 O 1921.69 -4.67609 3.26646 0
M  V30 20327 O 1920.63 -3.56087 4.85269 0
M  V30 20328 H 1924.45 -0.888926 2.90399 0
M  V30 20329 H 1922.04 -0.374032 1.44642 0
M  V30 20330 H 1923.92 -3.32191 2.59281 0
M  V30 20331 H 1922.59 -2.87753 1.48256 0
M  V30 20332 H 1921.5 -1.56987 3.39567 0
M  V30 20333 H 1922.83 -2.08332 4.45936 0
M  V30 20334 N 1924.49 -1.51463 -0.435524 0
M  V30 20335 C 1925.42 -1.75856 -1.53613 0
M  V30 20336 C 1926.4 -0.608449 -1.58846 0
M  V30 20337 O 1927.58 -0.85135 -1.74544 0
M  V30 20338 C 1924.71 -1.88525 -2.91677 0
M  V30 20339 C 1923.67 -3.03972 -3.01305 0
M  V30 20340 C 1922.99 -3.01828 -4.41366 0
M  V30 20341 C 1924.29 -4.43905 -2.75219 0
M  V30 20342 H 1925.99 -2.68013 -1.33452 0
M  V30 20343 H 1923.53 -1.28968 -0.640564 0
M  V30 20344 H 1925.49 -2.04173 -3.68634 0
M  V30 20345 H 1924.21 -0.930179 -3.13074 0
M  V30 20346 H 1922.87 -2.88033 -2.26788 0
M  V30 20347 H 1922.52 -2.04095 -4.59733 0
M  V30 20348 H 1922.22 -3.79353 -4.48737 0
M  V30 20349 H 1923.74 -3.19572 -5.20294 0
M  V30 20350 H 1925.15 -4.60187 -3.41908 0
M  V30 20351 H 1923.55 -5.2315 -2.93998 0
M  V30 20352 H 1924.62 -4.53818 -1.70814 0
M  V30 20353 N 1925.96 0.691085 -1.4164 0
M  V30 20354 C 1926.9 1.81547 -1.3826 0
M  V30 20355 C 1927.88 1.60679 -0.249192 0
M  V30 20356 O 1929.06 1.83369 -0.436821 0
M  V30 20357 C 1926.19 3.18298 -1.15777 0
M  V30 20358 C 1925.23 3.57948 -2.31896 0
M  V30 20359 S 1926.07 3.6224 -3.94388 0
M  V30 20360 C 1927.22 5.0171 -3.74217 0
M  V30 20361 H 1927.45 1.84138 -2.33411 0
M  V30 20362 H 1924.99 0.860221 -1.28217 0
M  V30 20363 H 1926.95 3.9724 -1.03492 0
M  V30 20364 H 1925.61 3.13312 -0.222389 0
M  V30 20365 H 1924.8 4.57304 -2.1187 0
M  V30 20366 H 1924.4 2.86325 -2.40612 0
M  V30 20367 H 1926.69 5.89336 -3.342 0
M  V30 20368 H 1927.64 5.26778 -4.73192 0
M  V30 20369 H 1928.04 4.73459 -3.07403 0
M  V30 20370 N 1927.44 1.27542 0.925789 0
M  V30 20371 C 1928.41 1.10471 2.0082 0
M  V30 20372 C 1929.41 0.0481002 1.60728 0
M  V30 20373 O 1930.6 0.292857 1.71721 0
M  V30 20374 C 1927.73 0.683669 3.33974 0
M  V30 20375 H 1928.92 2.0659 2.17395 0
M  V30 20376 H 1926.47 1.10357 1.10684 0
M  V30 20377 H 1927.21 -0.278821 3.23099 0
M  V30 20378 H 1926.99 1.44679 3.64431 0
M  V30 20379 H 1928.48 0.586526 4.13461 0
M  V30 20380 N 1928.92 -1.13255 1.09595 0
M  V30 20381 C 1929.85 -2.18416 0.69477 0
M  V30 20382 C 1930.87 -1.60641 -0.264232 0
M  V30 20383 O 1932.05 -1.7843 -0.0500201 0
M  V30 20384 C 1929.15 -3.389 0.00330039 0
M  V30 20385 C 1928.33 -4.26181 0.984281 0
M  V30 20386 C 1927.39 -5.2519 0.325898 0
M  V30 20387 O 1926.41 -5.60804 0.974057 0
M  V30 20388 N 1927.61 -5.73175 -0.919261 0
M  V30 20389 H 1930.38 -2.53448 1.59951 0
M  V30 20390 H 1927.94 -1.28594 0.983625 0
M  V30 20391 H 1929.93 -4.02208 -0.4484 0
M  V30 20392 H 1928.5 -3.02091 -0.803713 0
M  V30 20393 H 1927.72 -3.59622 1.61449 0
M  V30 20394 H 1929.01 -4.81351 1.64861 0
M  V30 20395 H 1928.41 -5.46391 -1.46538 0
M  V30 20396 H 1926.97 -6.38413 -1.31425 0
M  V30 20397 N 1930.4 -0.883401 -1.30514 0
M  V30 20398 C 1931.35 -0.347254 -2.28173 0
M  V30 20399 C 1932.32 0.561698 -1.56314 0
M  V30 20400 O 1933.5 0.490454 -1.84389 0
M  V30 20401 C 1930.64 0.433573 -3.42366 0
M  V30 20402 C 1929.75 -0.504417 -4.29045 0
M  V30 20403 C 1928.89 0.291853 -5.30398 0
M  V30 20404 C 1927.93 -0.641708 -6.08727 0
M  V30 20405 N 1927.06 0.119139 -7.01999 0
M  V30 20406 H 1931.9 -1.1852 -2.73417 0
M  V30 20407 H 1929.44 -0.595824 -1.34493 0
M  V30 20408 H 1931.4 0.902186 -4.07328 0
M  V30 20409 H 1930.03 1.23611 -2.98195 0
M  V30 20410 H 1929.08 -1.09152 -3.64404 0
M  V30 20411 H 1930.39 -1.21969 -4.83658 0
M  V30 20412 H 1929.55 0.822389 -6.011 0
M  V30 20413 H 1928.29 1.04035 -4.76475 0
M  V30 20414 H 1927.29 -1.18389 -5.36902 0
M  V30 20415 H 1928.52 -1.38927 -6.64738 0
M  V30 20416 H 1926.46 0.850204 -6.50467 0
M  V30 20417 H 1926.38 -0.536537 -7.54094 0
M  V30 20418 H 1927.65 0.63047 -7.76946 0
M  V30 20419 N 1931.88 1.43833 -0.644194 0
M  V30 20420 C 1933.12 2.01515 -0.153623 0
M  V30 20421 C 1933.45 1.51022 1.23358 0
M  V30 20422 O 1932.72 0.719137 1.82223 0
M  V30 20423 H 1931.3 0.74506 -0.053802 0
M  V30 20424 H 1933.96 1.76163 -0.833833 0
M  V30 20425 H 1933.05 3.11824 -0.131313 0
M  V30 20426 N 1933.35 0.385544 1.52811 0
M  V30 20427 C 1934.32 -0.439294 2.24951 0
M  V30 20428 C 1935.32 -0.993315 1.26451 0
M  V30 20429 O 1936.51 -0.875911 1.50577 0
M  V30 20430 C 1933.64 -1.61595 3.00166 0
M  V30 20431 H 1934.83 0.192232 2.99283 0
M  V30 20432 H 1932.39 0.137589 1.55693 0
M  V30 20433 H 1933.12 -2.28501 2.30125 0
M  V30 20434 H 1932.91 -1.22544 3.72459 0
M  V30 20435 H 1934.4 -2.20001 3.5495 0
M  V30 20436 N 1934.83 -1.57178 0.115259 0
M  V30 20437 C 1936.06 -1.99126 -0.550671 0
M  V30 20438 C 1936.47 -0.993751 -1.61001 0
M  V30 20439 O 1935.81 0.0220518 -1.83687 0
M  V30 20440 C 1935.88 -3.37482 -1.2388 0
M  V30 20441 C 1935.54 -4.55823 -0.327848 0
M  V30 20442 C 1936.54 -5.18102 0.432054 0
M  V30 20443 C 1934.22 -5.01726 -0.240012 0
M  V30 20444 C 1936.22 -6.24669 1.26756 0
M  V30 20445 C 1933.9 -6.08156 0.599131 0
M  V30 20446 C 1934.9 -6.69494 1.35155 0
M  V30 20447 O 1934.59 -7.73868 2.17677 0
M  V30 20448 H 1934.32 -0.658991 -0.150689 0
M  V30 20449 H 1936.87 -2.0445 0.197288 0
M  V30 20450 H 1935.1 -3.28901 -2.03375 0
M  V30 20451 H 1936.79 -3.63744 -1.80126 0
M  V30 20452 H 1937.56 -4.83555 0.374044 0
M  V30 20453 H 1933.44 -4.53732 -0.81535 0
M  V30 20454 H 1936.98 -6.72475 1.85533 0
M  V30 20455 H 1932.88 -6.42132 0.658548 0
M  V30 20456 H 1933.65 -7.90948 2.10578 0
M  V30 20457 N 1936.31 0.158505 -1.56801 0
M  V30 20458 C 1937.54 0.886984 -1.86591 0
M  V30 20459 C 1937.95 1.7577 -0.700115 0
M  V30 20460 O 1937.29 1.80533 0.339622 0
M  V30 20461 C 1937.35 1.80418 -3.1095 0
M  V30 20462 C 1937.02 1.11178 -4.4327 0
M  V30 20463 C 1938.02 0.471134 -5.17761 0
M  V30 20464 C 1935.7 1.10472 -4.90001 0
M  V30 20465 C 1937.69 -0.167333 -6.3718 0
M  V30 20466 C 1935.38 0.462432 -6.09348 0
M  V30 20467 C 1936.38 -0.172477 -6.82782 0
M  V30 20468 O 1936.07 -0.804604 -7.99863 0
M  V30 20469 H 1935.8 0.262465 -0.622967 0
M  V30 20470 H 1938.35 0.159526 -2.0478 0
M  V30 20471 H 1936.58 2.57228 -2.8874 0
M  V30 20472 H 1938.27 2.4036 -3.27081 0
M  V30 20473 H 1939.04 0.468479 -4.82732 0
M  V30 20474 H 1934.92 1.58831 -4.32774 0
M  V30 20475 H 1938.46 -0.663498 -6.94438 0
M  V30 20476 H 1934.36 0.462714 -6.43839 0
M  V30 20477 H 1935.13 -0.705126 -8.15457 0
M  V30 20478 N 1937.79 1.51692 0.427485 0
M  V30 20479 C 1938.74 1.73716 1.51958 0
M  V30 20480 C 1939.71 0.579073 1.55679 0
M  V30 20481 O 1940.89 0.814605 1.72536 0
M  V30 20482 C 1938.03 1.87709 2.89585 0
M  V30 20483 C 1937.14 3.15297 2.95317 0
M  V30 20484 C 1936.28 3.19827 4.24128 0
M  V30 20485 C 1935.32 4.4169 4.23764 0
M  V30 20486 N 1934.46 4.43715 5.44116 0
M  V30 20487 H 1939.3 2.66933 1.3248 0
M  V30 20488 H 1936.83 1.32283 0.643393 0
M  V30 20489 H 1938.79 1.93804 3.69454 0
M  V30 20490 H 1937.42 0.978912 3.07599 0
M  V30 20491 H 1936.47 3.18464 2.08051 0
M  V30 20492 H 1937.78 4.05182 2.90911 0
M  V30 20493 H 1936.94 3.24892 5.12377 0
M  V30 20494 H 1935.68 2.27848 4.31204 0
M  V30 20495 H 1934.68 4.36791 3.33907 0
M  V30 20496 H 1935.91 5.34944 4.18343 0
M  V30 20497 H 1933.85 3.5461 5.51894 0
M  V30 20498 H 1933.77 5.27421 5.4163 0
M  V30 20499 H 1935.04 4.52986 6.34369 0
M  V30 20500 N 1939.27 -0.683564 1.42004 0
M  V30 20501 C 1940.2 -1.8095 1.47578 0
M  V30 20502 C 1941.18 -1.66804 0.333208 0
M  V30 20503 O 1942.36 -1.86357 0.546314 0
M  V30 20504 C 1939.49 -3.19182 1.36895 0
M  V30 20505 C 1938.45 -3.4805 2.49089 0
M  V30 20506 C 1937.77 -4.85764 2.23467 0
M  V30 20507 C 1939.07 -3.4582 3.91415 0
M  V30 20508 H 1940.77 -1.76543 2.41812 0
M  V30 20509 H 1938.31 -0.84794 1.16387 0
M  V30 20510 H 1940.27 -3.97674 1.39404 0
M  V30 20511 H 1938.99 -3.24245 0.391513 0
M  V30 20512 H 1937.65 -2.71915 2.45882 0
M  V30 20513 H 1937.3 -4.87467 1.24037 0
M  V30 20514 H 1937 -5.06043 2.98654 0
M  V30 20515 H 1938.52 -5.66551 2.27711 0
M  V30 20516 H 1939.94 -4.14297 3.96272 0
M  V30 20517 H 1938.33 -3.77633 4.66383 0
M  V30 20518 H 1939.4 -2.4456 4.1871 0
M  V30 20519 N 1940.75 -1.28031 -0.919012 0
M  V30 20520 C 1941.99 -1.15048 -1.67008 0
M  V30 20521 C 1942.32 0.301301 -1.91848 0
M  V30 20522 O 1941.6 1.21964 -1.51509 0
M  V30 20523 C 1941.88 -1.94388 -3.03126 0
M  V30 20524 C 1941.74 -3.476 -2.85473 0
M  V30 20525 C 1943.05 -1.75517 -4.03586 0
M  V30 20526 H 1940.17 -0.419311 -0.606091 0
M  V30 20527 H 1942.82 -1.57287 -1.06587 0
M  V30 20528 H 1940.97 -1.58493 -3.547 0
M  V30 20529 H 1942.64 -3.93372 -2.40949 0
M  V30 20530 H 1940.88 -3.73499 -2.20637 0
M  V30 20531 H 1941.55 -3.98365 -3.82111 0
M  V30 20532 H 1944.03 -2.06832 -3.61054 0
M  V30 20533 H 1942.9 -2.33411 -4.968 0
M  V30 20534 H 1943.16 -0.705309 -4.36438 0
M  V30 20535 N 1942.22 1.12672 -1.10194 0
M  V30 20536 C 1943.45 1.87955 -0.864907 0
M  V30 20537 C 1943.87 1.79527 0.584436 0
M  V30 20538 O 1943.22 1.1674 1.40278 0
M  V30 20539 C 1943.27 3.37261 -1.30143 0
M  V30 20540 O 1943 3.45483 -2.69394 0
M  V30 20541 C 1944.5 4.29488 -1.09793 0
M  V30 20542 H 1941.72 0.594777 -0.310614 0
M  V30 20543 H 1944.26 1.42583 -1.46596 0
M  V30 20544 H 1942.42 3.80187 -0.744103 0
M  V30 20545 H 1942.83 4.38357 -2.87999 0
M  V30 20546 H 1944.3 5.32546 -1.45254 0
M  V30 20547 H 1944.78 4.39185 -0.0363527 0
M  V30 20548 H 1945.39 3.92341 -1.6416 0
M  V30 20549 N 1943.7 0.89031 1.30043 0
M  V30 20550 C 1944.93 0.526566 2.00087 0
M  V30 20551 C 1945.34 -0.88632 1.66703 0
M  V30 20552 O 1944.7 -1.58365 0.907012 0
M  V30 20553 C 1944.75 0.698102 3.54695 0
M  V30 20554 O 1944.47 2.05537 3.86893 0
M  V30 20555 C 1945.97 0.338058 4.42009 0
M  V30 20556 H 1943.19 0.20299 0.639559 0
M  V30 20557 H 1945.74 1.19708 1.65802 0
M  V30 20558 H 1943.89 0.0748931 3.87328 0
M  V30 20559 H 1944.31 2.07787 4.81586 0
M  V30 20560 H 1945.78 0.508957 5.49649 0
M  V30 20561 H 1946.26 -0.724284 4.33187 0
M  V30 20562 H 1946.86 0.937813 4.14831 0
M  V30 20563 N 1945.18 -1.43489 0.651812 0
M  V30 20564 C 1946.43 -2.01431 0.164307 0
M  V30 20565 C 1946.75 -1.51674 -1.22556 0
M  V30 20566 O 1946.02 -0.728791 -1.81839 0
M  V30 20567 H 1944.6 -0.744764 0.0577525 0
M  V30 20568 H 1947.26 -1.75718 0.843164 0
M  V30 20569 H 1946.36 -3.1175 0.147848 0
M  V30 20570 N 1946.66 -0.393643 -1.52605 0
M  V30 20571 C 1947.88 0.189618 -2.06531 0
M  V30 20572 C 1948.31 1.39382 -1.26311 0
M  V30 20573 O 1947.67 1.78977 -0.289278 0
M  V30 20574 C 1947.71 0.533717 -3.56628 0
M  V30 20575 O 1946.82 1.62703 -3.78948 0
M  V30 20576 H 1946.16 0.0209483 -0.663669 0
M  V30 20577 H 1948.69 -0.562368 -1.9672 0
M  V30 20578 H 1948.7 0.796786 -4.00144 0
M  V30 20579 H 1947.37 -0.34665 -4.14453 0
M  V30 20580 H 1945.95 1.35734 -3.47319 0
M  V30 20581 N 1948.14 1.57115 -0.123593 0
M  V30 20582 C 1949.55 1.82342 0.401051 0
M  V30 20583 C 1949.9 1.04102 1.66304 0
M  V30 20584 O 1949.02 0.279024 2.14594 0
M  V30 20585 C 1949.62 3.30745 0.734394 0
M  V30 20586 C 1948.18 3.56636 1.20365 0
M  V30 20587 C 1947.32 2.76468 0.214686 0
M  V30 20588 H 1950.27 1.54823 -0.348657 0
M  V30 20589 H 1950.3 3.45624 1.59137 0
M  V30 20590 H 1949.81 3.87662 -0.184288 0
M  V30 20591 H 1947.91 3.05081 2.13908 0
M  V30 20592 H 1948.02 4.65197 1.1458 0
M  V30 20593 H 1946.39 2.44816 0.702648 0
M  V30 20594 H 1947.17 3.36146 -0.697174 0
M  V30 20595 N 1949.61 -0.150187 1.56883 0
M  V30 20596 C 1950.86 -0.861749 1.82364 0
M  V30 20597 C 1951.18 -1.82479 0.704319 0
M  V30 20598 O 1952.38 -2.58027 0.844649 0
M  V30 20599 C 1950.84 -1.58305 3.23214 0
M  V30 20600 C 1950.45 -0.662577 4.43073 0
M  V30 20601 C 1952.19 -2.28159 3.57972 0
M  V30 20602 C 1950.1 -1.38532 5.74946 0
M  V30 20603 H 1949.03 -0.325546 0.6801 0
M  V30 20604 H 1951.68 -0.114505 1.83142 0
M  V30 20605 H 1950.06 -2.37581 3.16814 0
M  V30 20606 H 1951.23 0.0947281 4.60703 0
M  V30 20607 H 1949.55 -0.0726217 4.16337 0
M  V30 20608 H 1952.15 -2.82865 4.53753 0
M  V30 20609 H 1952.49 -3.04501 2.83874 0
M  V30 20610 H 1953.02 -1.55805 3.66019 0
M  V30 20611 H 1949.76 -0.663808 6.5213 0
M  V30 20612 H 1949.28 -2.11542 5.61258 0
M  V30 20613 H 1950.96 -1.9271 6.17634 0
M  V30 20614 N 1951.09 -1.51916 -0.419434 0
M  V30 20615 C 1952.32 -1.69592 -1.19387 0
M  V30 20616 C 1952.74 -0.400225 -1.83793 0
M  V30 20617 O 1952.1 0.641368 -1.69576 0
M  V30 20618 C 1952.15 -2.8256 -2.24036 0
M  V30 20619 O 1951.25 -2.4741 -3.29942 0
M  V30 20620 H 1950.59 -0.564898 -0.348978 0
M  V30 20621 H 1953.12 -1.9857 -0.493064 0
M  V30 20622 H 1953.13 -3.07171 -2.68533 0
M  V30 20623 H 1951.81 -3.76572 -1.7654 0
M  V30 20624 H 1950.39 -2.33435 -2.90796 0
M  V30 20625 O 1952.61 0.565276 -1.51284 0
M  V30 20626 H 1953.3 1.22036 -1.50422 0
M  V30 END ATOM
M  V30 BEGIN BOND
M  V30 END BOND
M  V30 END CTAB
M  END
$$$$
