drugbank_target|P31939 Bifunctional purine biosynthesis protein PURH (DB00116; DB00563; DB00642; DB01700; DB01972; DB02309; DB03442; DB04057)
 OpenBabel12092119503D

  0  0  0     0  0            999 V3000
M  V30 BEGIN CTAB
M  V30 COUNTS 9122 9206 0 0 0
M  V30 BEGIN ATOM
M  V30 1 H -0.908 1.98254 -0.117106 0
M  V30 2 N 0 1.576 0 0
M  V30 3 C 0.933 2.03868 1.02534 0
M  V30 4 C 1.911 0.928543 1.3348 0
M  V30 5 O 3.095 1.19667 1.45644 0
M  V30 6 C 0.222 2.43627 2.35294 0
M  V30 7 C -0.732 3.65373 2.2001 0
M  V30 8 S 0.101 5.13292 1.52614 0
M  V30 9 C 1.257 5.56322 2.86805 0
M  V30 10 H 1.49 2.90518 0.631377 0
M  V30 11 H -0.977 1.52953 0.210867 0
M  V30 12 H 0.981 2.67203 3.11629 0
M  V30 13 H -0.358 1.57376 2.7183 0
M  V30 14 H -1.165 3.90944 3.18086 0
M  V30 15 H -1.563 3.418 1.51819 0
M  V30 16 H 0.729 5.58782 3.83104 0
M  V30 17 H 1.672 6.56266 2.65933 0
M  V30 18 H 2.08 4.83886 2.90714 0
M  V30 19 N 1.4781 -0.272755 1.55222 0
M  V30 20 C 2.4411 -1.32041 1.87344 0
M  V30 21 C 3.4411 -1.42342 0.74803 0
M  V30 22 O 4.6311 -1.41488 1.0162 0
M  V30 23 C 1.7631 -2.70173 2.07893 0
M  V30 24 H 2.9561 -1.04789 2.80997 0
M  V30 25 H 0.5091 -0.51083 1.47717 0
M  V30 26 H 1.2441 -3.02605 1.16622 0
M  V30 27 H 1.0291 -2.64082 2.89833 0
M  V30 28 H 2.5191 -3.45869 2.34017 0
M  V30 29 N 2.9562 -1.48159 -0.537278 0
M  V30 30 C 4.3672 -1.49429 -1.11928 0
M  V30 31 C 4.7182 -0.26 -1.9447 0
M  V30 32 O 3.8432 0.633489 -2.0692 0
M  V30 33 C 4.4382 -2.70758 -2.03656 0
M  V30 34 C 2.9972 -2.74923 -2.57088 0
M  V30 35 C 2.1442 -2.42835 -1.3389 0
M  V30 36 H 5.0952 -1.55381 -0.322886 0
M  V30 37 H 5.1162 -2.48861 -2.87834 0
M  V30 38 H 4.6282 -3.60575 -1.43553 0
M  V30 39 H 2.7292 -1.89296 -3.20933 0
M  V30 40 H 2.8422 -3.76157 -2.9672 0
M  V30 41 H 1.2062 -1.93836 -1.65226 0
M  V30 42 H 1.9892 -3.34884 -0.755504 0
M  V30 43 N 4.4343 0.785586 -1.36625 0
M  V30 44 C 5.6823 1.54057 -1.30808 0
M  V30 45 C 6.0033 1.94683 0.111157 0
M  V30 46 O 5.2733 1.65241 1.05224 0
M  V30 47 H 3.8533 0.571354 -0.481211 0
M  V30 48 H 6.5153 0.935821 -1.70963 0
M  V30 49 H 5.6113 2.44637 -1.93801 0
M  V30 50 N 5.9124 1.20967 1.01018 0
M  V30 51 C 6.8444 0.922059 2.09835 0
M  V30 52 C 7.8574 -0.0927106 1.62536 0
M  V30 53 O 9.0464 0.139127 1.77957 0
M  V30 54 C 6.1464 0.362004 3.36961 0
M  V30 55 C 5.3194 1.42986 4.13369 0
M  V30 56 C 4.3784 0.879976 5.1879 0
M  V30 57 O 3.4044 1.56219 5.47343 0
M  V30 58 N 4.6064 -0.307396 5.79686 0
M  V30 59 H 7.3714 1.8588 2.35093 0
M  V30 60 H 4.9324 1.11422 1.1746 0
M  V30 61 H 6.9244 -0.0201474 4.04695 0
M  V30 62 H 5.4944 -0.479437 3.08902 0
M  V30 63 H 4.7144 1.98608 3.40512 0
M  V30 64 H 6.0024 2.14885 4.61196 0
M  V30 65 H 5.4004 -0.878796 5.58832 0
M  V30 66 H 3.9574 -0.631115 6.48737 0
M  V30 67 N 7.3905 -1.2043 1.01659 0
M  V30 68 C 8.3205 -2.25466 0.607226 0
M  V30 69 C 9.3015 -1.65853 -0.377716 0
M  V30 70 O 10.4865 -1.92409 -0.263149 0
M  V30 71 C 7.6165 -3.47256 -0.0552949 0
M  V30 72 C 6.5705 -4.19462 0.850632 0
M  V30 73 C 5.8965 -5.34673 0.0538859 0
M  V30 74 C 7.1965 -4.75603 2.15868 0
M  V30 75 H 8.8905 -2.59962 1.48526 0
M  V30 76 H 6.4365 -1.2496 0.715605 0
M  V30 77 H 8.3895 -4.19917 -0.353233 0
M  V30 78 H 7.1135 -3.11924 -0.968045 0
M  V30 79 H 5.7725 -3.48667 1.13257 0
M  V30 80 H 5.4205 -4.95585 -0.860514 0
M  V30 81 H 5.1205 -5.83913 0.657192 0
M  V30 82 H 6.6445 -6.10138 -0.237598 0
M  V30 83 H 8.0585 -5.40083 1.92311 0
M  V30 84 H 6.4555 -5.3528 2.71284 0
M  V30 85 H 7.5255 -3.94346 2.82169 0
M  V30 86 N 8.8686 -0.792821 -1.36206 0
M  V30 87 C 9.8316 -0.199459 -2.2833 0
M  V30 88 C 10.8316 0.605189 -1.48977 0
M  V30 89 O 12.0216 0.425685 -1.68919 0
M  V30 90 C 9.1536 0.723523 -3.33134 0
M  V30 91 H 10.3466 -1.01181 -2.82316 0
M  V30 92 H 7.8996 -0.562485 -1.45828 0
M  V30 93 H 8.6346 1.56008 -2.84309 0
M  V30 94 H 8.4196 0.148436 -3.91819 0
M  V30 95 H 9.9096 1.13344 -4.01924 0
M  V30 96 N 10.3467 1.47872 -0.545128 0
M  V30 97 C 11.2767 2.32661 0.197793 0
M  V30 98 C 12.2577 1.43041 0.920504 0
M  V30 99 O 13.4427 1.71912 0.90333 0
M  V30 100 C 10.5727 3.24569 1.23582 0
M  V30 101 C 9.5267 4.23333 0.630323 0
M  V30 102 C 8.8527 5.0448 1.77211 0
M  V30 103 C 10.1527 5.20704 -0.407974 0
M  V30 104 H 11.8467 2.95024 -0.510045 0
M  V30 105 H 9.3927 1.4187 -0.246731 0
M  V30 106 H 11.3457 3.8272 1.76362 0
M  V30 107 H 10.0697 2.60236 1.97344 0
M  V30 108 H 8.7287 3.6639 0.123922 0
M  V30 109 H 8.3767 4.36561 2.49847 0
M  V30 110 H 8.0767 5.71339 1.37281 0
M  V30 111 H 9.6007 5.65487 2.3034 0
M  V30 112 H 11.0147 5.7329 0.033305 0
M  V30 113 H 9.4117 5.95699 -0.725486 0
M  V30 114 H 10.4817 4.66917 -1.30828 0
M  V30 115 N 11.8248 0.280983 1.55075 0
M  V30 116 C 13.0718 -0.334115 1.99725 0
M  V30 117 C 13.3998 -1.5542 1.1694 0
M  V30 118 O 12.6548 -1.94361 0.228531 0
M  V30 119 C 12.9538 -0.754656 3.49342 0
M  V30 120 C 12.6198 0.361445 4.49449 0
M  V30 121 C 11.2818 0.667893 4.76542 0
M  V30 122 C 13.6338 1.11322 5.09173 0
M  V30 123 C 10.9618 1.7296 5.60626 0
M  V30 124 C 13.3138 2.1647 5.9441 0
M  V30 125 C 11.9778 2.47742 6.19822 0
M  V30 126 H 11.2478 -0.122261 0.730844 0
M  V30 127 H 13.8948 0.395917 1.87363 0
M  V30 128 H 12.1998 -1.56446 3.5921 0
M  V30 129 H 13.8968 -1.24142 3.813 0
M  V30 130 H 10.4868 0.112481 4.28452 0
M  V30 131 H 14.6708 0.88973 4.8826 0
M  V30 132 H 9.9268 1.97684 5.78559 0
M  V30 133 H 14.1008 2.75193 6.3972 0
M  V30 134 H 11.7278 3.30145 6.84769 0
M  V30 135 N 13.3029 -1.57598 0.00835791 0
M  V30 136 C 14.5279 -1.95617 -0.689103 0
M  V30 137 C 14.9529 -0.883753 -1.66046 0
M  V30 138 O 14.3109 0.157352 -1.80616 0
M  V30 139 C 14.3589 -3.32736 -1.38994 0
M  V30 140 O 13.4629 -3.27631 -2.50463 0
M  V30 141 H 12.8039 -0.638379 -0.182668 0
M  V30 142 H 15.3339 -2.045 0.064036 0
M  V30 143 H 15.3439 -3.68494 -1.75147 0
M  V30 144 H 14.0189 -4.1034 -0.677778 0
M  V30 145 H 12.5959 -3.03561 -2.16576 0
M  V30 146 N 14.781 0.264519 -1.55364 0
M  V30 147 C 16.027 0.99646 -1.76631 0
M  V30 148 C 16.36 1.85632 -0.570478 0
M  V30 149 O 15.635 1.89647 0.43175 0
M  V30 150 C 15.918 1.87187 -3.07625 0
M  V30 151 C 15.771 1.04138 -4.37579 0
M  V30 152 C 17.09 2.85749 -3.34717 0
M  V30 153 H 14.209 0.360841 -0.642622 0
M  V30 154 H 16.851 0.268218 -1.88097 0
M  V30 155 H 15.001 2.49279 -2.9798 0
M  V30 156 H 16.673 0.440517 -4.59192 0
M  V30 157 H 14.916 0.345115 -4.32425 0
M  V30 158 H 15.587 1.68729 -5.2558 0
M  V30 159 H 18.063 2.33793 -3.4421 0
M  V30 160 H 16.939 3.44136 -4.27623 0
M  V30 161 H 17.2 3.61311 -2.54768 0
M  V30 162 N 16.2591 1.48442 0.529413 0
M  V30 163 C 17.4841 1.60406 1.31471 0
M  V30 164 C 17.9091 0.264738 1.86228 0
M  V30 165 O 17.2671 -0.763668 1.64432 0
M  V30 166 C 17.3151 2.65419 2.44101 0
M  V30 167 O 16.4191 2.22618 3.47153 0
M  V30 168 H 15.7601 0.537863 0.389357 0
M  V30 169 H 18.2901 1.94432 0.636965 0
M  V30 170 H 18.3001 2.86709 2.90279 0
M  V30 171 H 16.9751 3.62652 2.03608 0
M  V30 172 H 15.5521 2.11543 3.0709 0
M  V30 173 N 17.7372 -0.778329 1.37039 0
M  V30 174 C 19.0142 -1.52551 1.22424 0
M  V30 175 C 19.3942 -2.10288 -0.184964 0
M  V30 176 O 18.7422 -1.94953 -1.19187 0
M  V30 177 C 18.9522 -2.61164 2.31504 0
M  V30 178 C 20.3002 -3.28746 2.68721 0
M  V30 179 O 21.3242 -2.71455 2.30631 0
M  V30 180 O 20.1832 -4.3231 3.3432 0
M  V30 181 H 17.2772 -0.675343 0.477326 0
M  V30 182 H 19.8232 -0.815859 1.48801 0
M  V30 183 H 18.5952 -2.16574 3.25901 0
M  V30 184 H 18.2182 -3.39737 2.06554 0
M  V30 185 N 19.2153 -1.21501 -1.00376 0
M  V30 186 C 20.1623 -0.975387 -2.09177 0
M  V30 187 C 21.1323 0.0990615 -1.65804 0
M  V30 188 O 22.3173 -0.0483147 -1.90739 0
M  V30 189 C 19.4573 -0.547507 -3.40729 0
M  V30 190 C 18.5703 -1.69153 -3.97506 0
M  V30 191 C 17.7053 -1.2127 -5.17172 0
M  V30 192 C 16.7443 -2.32897 -5.66061 0
M  V30 193 N 15.8813 -1.86138 -6.76976 0
M  V30 194 H 20.7213 -1.9068 -2.29009 0
M  V30 195 H 18.2583 -0.950257 -1.12288 0
M  V30 196 H 20.2163 -0.280667 -4.16255 0
M  V30 197 H 18.8463 0.346904 -3.20931 0
M  V30 198 H 17.8983 -2.07298 -3.18954 0
M  V30 199 H 19.2103 -2.5316 -4.29781 0
M  V30 200 H 18.3643 -0.902591 -5.99948 0
M  V30 201 H 17.1033 -0.342692 -4.86495 0
M  V30 202 H 16.1083 -2.64709 -4.81881 0
M  V30 203 H 17.3333 -3.20396 -5.98768 0
M  V30 204 H 15.2793 -1.01484 -6.48103 0
M  V30 205 H 15.1963 -2.63717 -7.08512 0
M  V30 206 H 16.4643 -1.58165 -7.63285 0
M  V30 207 N 20.6934 1.19889 -1.02296 0
M  V30 208 C 21.9214 1.9339 -0.735399 0
M  V30 209 C 22.3364 1.75148 0.704887 0
M  V30 210 O 21.6934 1.06954 1.47875 0
M  V30 211 C 21.7444 3.45313 -1.06962 0
M  V30 212 O 21.4654 3.62964 -2.45334 0
M  V30 213 C 22.9664 4.35948 -0.804021 0
M  V30 214 H 20.1864 0.61448 -0.269546 0
M  V30 215 H 22.7304 1.522 -1.36585 0
M  V30 216 H 20.8854 3.84359 -0.484455 0
M  V30 217 H 21.2994 4.56886 -2.57595 0
M  V30 218 H 22.7734 5.41174 -1.0879 0
M  V30 219 H 23.2504 4.3842 0.261691 0
M  V30 220 H 23.8564 4.02574 -1.37164 0
M  V30 221 N 22.1715 0.800033 1.35784 0
M  V30 222 C 23.4195 0.376597 1.9856 0
M  V30 223 C 23.7405 -1.05812 1.63795 0
M  V30 224 O 23.0105 -1.73103 0.917171 0
M  V30 225 H 21.5905 0.136261 0.734467 0
M  V30 226 H 24.2525 1.02442 1.65806 0
M  V30 227 H 23.3485 0.477002 3.08433 0
M  V30 228 N 23.6496 -1.47581 0.552962 0
M  V30 229 C 24.5796 -2.32762 -0.185451 0
M  V30 230 C 25.5606 -1.43527 -0.912905 0
M  V30 231 O 26.7456 -1.72388 -0.894201 0
M  V30 232 C 23.8756 -3.25219 -1.21859 0
M  V30 233 C 22.8296 -4.23661 -0.607864 0
M  V30 234 C 22.1556 -5.05413 -1.74533 0
M  V30 235 C 23.4556 -5.20481 0.435582 0
M  V30 236 H 25.1496 -2.94749 0.525684 0
M  V30 237 H 22.6956 -1.41738 0.254251 0
M  V30 238 H 24.6486 -3.8365 -1.7433 0
M  V30 239 H 23.3726 -2.61279 -1.95961 0
M  V30 240 H 22.0316 -3.66451 -0.104489 0
M  V30 241 H 21.6796 -4.3788 -2.47529 0
M  V30 242 H 21.3796 -5.72059 -1.34249 0
M  V30 243 H 22.9036 -5.66701 -2.27338 0
M  V30 244 H 24.3176 -5.733 -0.00290157 0
M  V30 245 H 22.7146 -5.95305 0.757067 0
M  V30 246 H 23.7846 -4.66217 1.33303 0
M  V30 247 N 25.1277 -0.289203 -1.54924 0
M  V30 248 C 26.3737 0.323998 -2.00195 0
M  V30 249 C 26.7067 1.54441 -1.17735 0
M  V30 250 O 25.9817 1.92875 -0.250878 0
M  V30 251 C 26.2647 0.692276 -3.53383 0
M  V30 252 C 26.1177 -0.536457 -4.46589 0
M  V30 253 C 27.4367 1.52335 -4.12895 0
M  V30 254 H 24.5557 0.116289 -0.727768 0
M  V30 255 H 27.1977 -0.398954 -1.85764 0
M  V30 256 H 25.3477 1.30822 -3.65811 0
M  V30 257 H 27.0197 -1.17499 -4.46085 0
M  V30 258 H 25.2627 -1.17192 -4.1767 0
M  V30 259 H 25.9337 -0.234806 -5.515 0
M  V30 260 H 28.4097 1.00302 -4.0383 0
M  V30 261 H 27.2857 1.74982 -5.20262 0
M  V30 262 H 27.5467 2.50886 -3.64018 0
M  V30 263 N 26.6058 1.57591 -0.0167156 0
M  V30 264 C 27.5158 2.1291 0.98521 0
M  V30 265 C 28.5318 1.07834 1.36557 0
M  V30 266 O 29.7078 1.39826 1.44951 0
M  V30 267 C 26.7728 2.63512 2.25305 0
M  V30 268 C 25.8338 3.83256 1.93426 0
M  V30 269 C 25.0668 4.31435 3.14165 0
M  V30 270 O 25.2898 3.78851 4.26413 0
M  V30 271 O 24.2238 5.23416 2.97186 0
M  V30 272 H 28.0498 2.98772 0.544888 0
M  V30 273 H 25.6348 1.48012 0.203141 0
M  V30 274 H 27.5168 2.96183 2.99756 0
M  V30 275 H 26.1918 1.8074 2.68542 0
M  V30 276 H 25.0988 3.55531 1.16398 0
M  V30 277 H 26.4318 4.67153 1.55013 0
M  V30 278 N 28.0839 -0.256276 1.55502 0
M  V30 279 C 29.3309 -0.985619 1.76895 0
M  V30 280 C 29.6589 -1.85671 0.579355 0
M  V30 281 O 28.9139 -1.90744 -0.437651 0
M  V30 282 C 29.2129 -1.88432 3.03691 0
M  V30 283 C 28.8789 -1.16936 4.35473 0
M  V30 284 C 27.5409 -0.97173 4.71286 0
M  V30 285 C 29.8929 -0.661889 5.1698 0
M  V30 286 C 27.2209 -0.254179 5.86149 0
M  V30 287 C 29.5729 0.042149 6.32586 0
M  V30 288 C 28.2369 0.25134 6.67027 0
M  V30 289 H 27.5069 -0.360663 0.647304 0
M  V30 290 H 30.1539 -0.256483 1.89775 0
M  V30 291 H 28.4589 -2.68021 2.85783 0
M  V30 292 H 30.1559 -2.45015 3.1744 0
M  V30 293 H 26.7459 -1.33332 4.07333 0
M  V30 294 H 30.9299 -0.802145 4.89775 0
M  V30 295 H 26.1859 -0.0815408 6.11346 0
M  V30 296 H 30.3599 0.443049 6.94989 0
M  V30 297 H 27.9869 0.809314 7.5588 0
M  V30 298 N 29.562 -1.4872 -0.521534 0
M  V30 299 C 30.525 -1.63379 -1.60748 0
M  V30 300 C 31.525 -0.50661 -1.52611 0
M  V30 301 O 32.715 -0.772601 -1.5613 0
M  V30 302 C 29.847 -1.61192 -3.00383 0
M  V30 303 H 31.04 -2.60217 -1.49087 0
M  V30 304 H 28.593 -1.37444 -0.744235 0
M  V30 305 H 29.328 -0.65863 -3.17541 0
M  V30 306 H 29.113 -2.43032 -3.07698 0
M  V30 307 H 30.603 -1.7466 -3.7932 0
M  V30 308 N 31.0401 0.771051 -1.3745 0
M  V30 309 C 32.4561 1.07171 -1.18265 0
M  V30 310 C 32.6561 2.01491 -0.019287 0
M  V30 311 O 31.7121 2.44244 0.640408 0
M  V30 312 C 33.0251 1.66854 -2.50161 0
M  V30 313 C 34.5731 1.79109 -2.56689 0
M  V30 314 C 35.0481 2.42205 -3.88717 0
M  V30 315 N 36.5391 2.49655 -3.90162 0
M  V30 316 C 37.2741 2.9933 -4.8907 0
M  V30 317 N 36.7701 3.49172 -5.98374 0
M  V30 318 N 38.5631 2.9821 -4.76474 0
M  V30 319 H 30.7141 0.144796 -2.11906 0
M  V30 320 H 32.9771 0.126863 -0.939473 0
M  V30 321 H 32.6831 1.05017 -3.35655 0
M  V30 322 H 32.5571 2.6614 -2.673 0
M  V30 323 H 34.9441 2.40077 -1.71601 0
M  V30 324 H 35.0251 0.785757 -2.43433 0
M  V30 325 H 34.6691 1.81875 -4.74219 0
M  V30 326 H 34.5991 3.43345 -3.99276 0
M  V30 327 H 37.0901 2.14383 -3.11205 0
M  V30 328 H 37.4031 3.8548 -6.69795 0
M  V30 329 H 35.7481 3.47275 -6.02018 0
M  V30 330 H 38.9391 2.58572 -3.90203 0
M  V30 331 H 39.1121 3.36613 -5.53711 0
M  V30 332 N 32.5182 1.22032 0.997298 0
M  V30 333 C 33.4662 0.983634 2.10778 0
M  V30 334 C 34.4602 -0.0717564 1.69248 0
M  V30 335 O 35.6662 0.080304 1.79821 0
M  V30 336 H 32.0412 0.300877 0.689186 0
M  V30 337 H 34.0122 1.92606 2.27916 0
M  V30 338 C 32.7612 0.57326 3.42942 0
M  V30 339 H 32.0842 1.37702 3.75338 0
M  V30 340 H 33.5242 0.447031 4.21637 0
M  V30 341 C 31.9832 -0.7167 3.29188 0
M  V30 342 O 32.5132 -1.77027 3.60589 0
M  V30 343 N 30.7192 -0.686167 2.82383 0
M  V30 344 H 30.2662 0.171507 2.57028 0
M  V30 345 H 30.2242 -1.54955 2.73562 0
M  V30 346 N 33.9963 -1.19345 1.0293 0
M  V30 347 C 34.9263 -2.2481 0.631105 0
M  V30 348 C 35.9073 -1.66245 -0.360104 0
M  V30 349 O 37.0923 -1.92677 -0.242726 0
M  V30 350 C 34.2223 -3.47295 -0.0184607 0
M  V30 351 C 33.1763 -4.18536 0.895073 0
M  V30 352 C 32.5023 -5.34586 0.110592 0
M  V30 353 C 33.8023 -4.73287 2.209 0
M  V30 354 H 35.4963 -2.58372 1.51275 0
M  V30 355 H 33.0423 -1.24194 0.728818 0
M  V30 356 H 34.9953 -4.20268 -0.308675 0
M  V30 357 H 33.7193 -3.12933 -0.934907 0
M  V30 358 H 32.3783 -3.47446 1.16949 0
M  V30 359 H 32.0263 -4.96469 -0.807902 0
M  V30 360 H 31.7263 -5.83183 0.719087 0
M  V30 361 H 33.2503 -6.10355 -0.172871 0
M  V30 362 H 34.6643 -5.38013 1.98028 0
M  V30 363 H 33.0613 -5.32373 2.76946 0
M  V30 364 H 34.1313 -3.91331 2.86336 0
M  V30 365 N 35.4744 -0.807222 -1.35358 0
M  V30 366 C 36.7024 -0.400377 -2.02989 0
M  V30 367 C 37.1174 0.988859 -1.60832 0
M  V30 368 O 36.4744 1.63729 -0.806175 0
M  V30 369 C 36.5254 -0.474867 -3.58368 0
M  V30 370 O 36.2464 -1.80933 -3.98992 0
M  V30 371 C 37.7474 -0.0609112 -4.43258 0
M  V30 372 H 34.9674 -0.162587 -0.651004 0
M  V30 373 H 37.5114 -1.09102 -1.72965 0
M  V30 374 H 35.6664 0.167534 -3.87038 0
M  V30 375 H 36.0804 -1.77256 -4.9364 0
M  V30 376 H 37.5544 -0.164145 -5.51756 0
M  V30 377 H 38.0314 0.993831 -4.27808 0
M  V30 378 H 38.6374 -0.676492 -4.19885 0
M  V30 379 N 36.9525 1.47285 -0.560781 0
M  V30 380 C 37.9155 2.28535 0.174488 0
M  V30 381 C 38.9155 1.37153 0.839388 0
M  V30 382 O 40.1055 1.59748 0.694702 0
M  V30 383 C 37.2375 3.16934 1.25561 0
M  V30 384 H 38.4305 2.95012 -0.539262 0
M  V30 385 H 35.9835 1.53034 -0.317865 0
M  V30 386 H 36.7185 2.55157 2.00164 0
M  V30 387 H 36.5035 3.8419 0.783604 0
M  V30 388 H 37.9935 3.78143 1.77193 0
M  V30 389 N 38.4306 0.297415 1.54768 0
M  V30 390 C 39.3606 -0.573494 2.26348 0
M  V30 391 C 40.3416 -1.14085 1.26169 0
M  V30 392 O 41.5266 -1.17086 1.54934 0
M  V30 393 C 38.6566 -1.74716 3.00153 0
M  V30 394 C 37.6106 -1.31032 4.07449 0
M  V30 395 C 36.9366 -2.56887 4.68949 0
M  V30 396 C 38.2366 -0.444183 5.20408 0
M  V30 397 H 39.9306 0.0235131 2.99391 0
M  V30 398 H 37.4766 0.0127488 1.43994 0
M  V30 399 H 39.4296 -2.3625 3.48947 0
M  V30 400 H 38.1536 -2.37035 2.24682 0
M  V30 401 H 36.8126 -0.718066 3.59499 0
M  V30 402 H 36.4606 -3.17512 3.90122 0
M  V30 403 H 36.1606 -2.2836 5.41411 0
M  V30 404 H 37.6846 -3.19229 5.20505 0
M  V30 405 H 39.0986 -0.9651 5.65118 0
M  V30 406 H 37.4956 -0.252846 5.99567 0
M  V30 407 H 38.5656 0.531609 4.81977 0
M  V30 408 N 39.9087 -1.5758 0.0250728 0
M  V30 409 C 41.1567 -1.91255 -0.653151 0
M  V30 410 C 41.4777 -0.901691 -1.729 0
M  V30 411 O 40.7477 0.0573785 -1.95816 0
M  V30 412 H 39.3277 -0.705942 -0.244243 0
M  V30 413 H 41.9897 -1.94767 0.0719209 0
M  V30 414 H 41.0857 -2.91752 -1.10847 0
M  V30 415 N 41.3868 0.248026 -1.55636 0
M  V30 416 C 42.3168 1.31079 -1.93237 0
M  V30 417 C 43.2978 1.50264 -0.797174 0
M  V30 418 O 44.4828 1.62891 -1.05737 0
M  V30 419 C 41.6128 2.66575 -2.22609 0
M  V30 420 C 40.5668 2.62087 -3.3837 0
M  V30 421 C 39.8928 4.01369 -3.53281 0
M  V30 422 C 41.1928 2.19171 -4.7409 0
M  V30 423 H 42.8868 0.998556 -2.82257 0
M  V30 424 H 40.4328 0.47891 -1.35803 0
M  V30 425 H 42.3858 3.41057 -2.47503 0
M  V30 426 H 41.1098 2.99432 -1.30414 0
M  V30 427 H 39.7688 1.90063 -3.13483 0
M  V30 428 H 39.4168 4.31489 -2.58508 0
M  V30 429 H 39.1168 3.99254 -4.31127 0
M  V30 430 H 40.6408 4.77552 -3.80495 0
M  V30 431 H 42.0548 2.83384 -4.98363 0
M  V30 432 H 40.4518 2.2817 -5.5503 0
M  V30 433 H 41.5218 1.14336 -4.71227 0
M  V30 434 N 42.8649 1.48995 0.513639 0
M  V30 435 C 43.8129 1.65199 1.63744 0
M  V30 436 C 44.8069 0.51809 1.61283 0
M  V30 437 O 46.0129 0.697335 1.65943 0
M  V30 438 H 42.3879 0.52069 0.542574 0
M  V30 439 H 44.3589 2.59552 1.47226 0
M  V30 440 C 43.1079 1.72409 3.01945 0
M  V30 441 H 42.4309 2.59029 3.04539 0
M  V30 442 H 43.8709 1.87785 3.80148 0
M  V30 443 C 42.3299 0.46618 3.33659 0
M  V30 444 O 42.8599 -0.413744 3.99564 0
M  V30 445 N 41.0659 0.332931 2.88687 0
M  V30 446 H 40.6129 1.04996 2.35231 0
M  V30 447 H 40.5709 -0.507665 3.10274 0
M  V30 448 N 44.343 -0.763751 1.37857 0
M  V30 449 C 45.273 -1.89103 1.36975 0
M  V30 450 C 46.254 -1.68439 0.237152 0
M  V30 451 O 47.439 -1.8918 0.438713 0
M  V30 452 C 44.569 -3.26496 1.18395 0
M  V30 453 C 43.523 -3.61741 2.28751 0
M  V30 454 C 42.849 -4.97762 1.95286 0
M  V30 455 C 44.149 -3.67665 3.70972 0
M  V30 456 H 45.843 -1.90099 2.31307 0
M  V30 457 H 43.389 -0.91319 1.11341 0
M  V30 458 H 45.342 -4.05003 1.16406 0
M  V30 459 H 44.066 -3.25955 0.205215 0
M  V30 460 H 42.725 -2.85547 2.29909 0
M  V30 461 H 42.373 -4.93769 0.959221 0
M  V30 462 H 42.073 -5.22313 2.69189 0
M  V30 463 H 43.597 -5.7866 1.94898 0
M  V30 464 H 45.011 -4.36307 3.719 0
M  V30 465 H 43.408 -4.03718 4.43995 0
M  V30 466 H 44.478 -2.68134 4.0402 0
M  V30 467 N 45.8211 -1.22559 -0.990812 0
M  V30 468 C 47.0671 -1.05297 -1.73322 0
M  V30 469 C 47.4001 0.410655 -1.89808 0
M  V30 470 O 46.6751 1.30439 -1.44277 0
M  V30 471 C 46.9581 -1.76713 -3.13759 0
M  V30 472 C 46.8111 -3.30684 -3.04907 0
M  V30 473 C 48.1301 -1.52121 -4.12974 0
M  V30 474 H 45.2491 -0.38392 -0.629106 0
M  V30 475 H 47.8911 -1.50926 -1.15418 0
M  V30 476 H 46.0411 -1.37924 -3.63193 0
M  V30 477 H 47.7131 -3.7893 -2.63077 0
M  V30 478 H 45.9561 -3.60253 -2.41661 0
M  V30 479 H 46.6271 -3.75833 -4.04294 0
M  V30 480 H 49.1031 -1.85819 -3.72304 0
M  V30 481 H 47.9791 -2.04582 -5.0935 0
M  V30 482 H 48.2401 -0.454257 -4.3976 0
M  V30 483 N 47.2992 1.18797 -1.03562 0
M  V30 484 C 48.2622 2.20464 -0.626769 0
M  V30 485 C 49.2622 1.57721 0.313173 0
M  V30 486 O 50.4522 1.73917 0.0992615 0
M  V30 487 C 47.5842 3.40802 0.0818498 0
M  V30 488 H 48.7772 2.58149 -1.5264 0
M  V30 489 H 46.3302 1.32593 -0.827578 0
M  V30 490 H 47.0652 3.08642 0.995518 0
M  V30 491 H 46.8502 3.8758 -0.593652 0
M  V30 492 H 48.3402 4.16092 0.354584 0
M  V30 493 N 48.7773 0.814389 1.34928 0
M  V30 494 C 50.0023 0.410097 2.03305 0
M  V30 495 C 50.4273 -0.973464 1.60951 0
M  V30 496 O 49.7853 -1.63185 0.789964 0
M  V30 497 C 49.8333 0.51049 3.56968 0
M  V30 498 O 48.9373 -0.473035 4.09678 0
M  V30 499 H 48.2783 0.170088 0.641846 0
M  V30 500 H 50.8083 1.10244 1.72358 0
M  V30 501 H 50.8183 0.383135 4.06197 0
M  V30 502 H 49.4933 1.51963 3.87144 0
M  V30 503 H 48.0703 -0.305272 3.71648 0
M  V30 504 N 50.2554 -1.46986 0.568584 0
M  V30 505 C 51.5034 -2.02041 0.0487022 0
M  V30 506 C 51.8244 -1.44408 -1.31039 0
M  V30 507 O 51.0944 -0.623477 -1.85714 0
M  V30 508 H 49.6744 -0.746849 0.015014 0
M  V30 509 H 52.3364 -1.80257 0.741168 0
M  V30 510 H 51.4324 -3.12085 -0.0308961 0
M  V30 511 N 51.7335 -0.305618 -1.54608 0
M  V30 512 C 52.9815 0.301701 -1.99835 0
M  V30 513 C 53.3025 1.54054 -1.19551 0
M  V30 514 O 52.5725 1.93702 -0.292658 0
M  V30 515 H 51.1525 0.114468 -0.738178 0
M  V30 516 H 53.8145 -0.418016 -1.90364 0
M  V30 517 H 52.9105 0.570548 -3.06841 0
M  V30 518 N 53.2116 1.57565 -0.0334293 0
M  V30 519 C 54.4396 1.9628 0.654347 0
M  V30 520 C 54.8546 0.910138 1.65414 0
M  V30 521 O 54.2116 -0.107595 1.82183 0
M  V30 522 C 54.2626 3.35067 1.35693 0
M  V30 523 O 53.9836 4.36296 0.397191 0
M  V30 524 C 55.4846 3.88439 2.13613 0
M  V30 525 H 52.7046 0.646369 0.180132 0
M  V30 526 H 55.2486 2.04282 -0.0944721 0
M  V30 527 H 53.4036 3.2827 2.05712 0
M  V30 528 H 53.8176 5.1678 0.896597 0
M  V30 529 H 55.2916 4.8788 2.58219 0
M  V30 530 H 55.7686 3.22914 2.97696 0
M  V30 531 H 56.3746 3.98516 1.48543 0
M  V30 532 N 54.6897 -0.239769 1.55765 0
M  V30 533 C 55.6527 -1.28038 1.90103 0
M  V30 534 C 56.6527 -1.40723 0.778055 0
M  V30 535 O 57.8427 -1.39301 1.04599 0
M  V30 536 C 54.9747 -2.65702 2.13577 0
M  V30 537 H 56.1677 -0.988048 2.83157 0
M  V30 538 H 53.7207 -0.479382 1.48767 0
M  V30 539 H 54.4557 -3.00063 1.23015 0
M  V30 540 H 54.2407 -2.57875 2.95369 0
M  V30 541 H 55.7307 -3.40828 2.41301 0
M  V30 542 N 56.1678 -1.49265 -0.50573 0
M  V30 543 C 57.1148 -1.65585 -1.6078 0
M  V30 544 C 58.0848 -0.497396 -1.58478 0
M  V30 545 O 59.2698 -0.72385 -1.76536 0
M  V30 546 C 56.4098 -1.72408 -2.98948 0
M  V30 547 C 55.5228 -2.99525 -3.11301 0
M  V30 548 C 54.6578 -2.97356 -4.40174 0
M  V30 549 C 53.6968 -4.19074 -4.46143 0
M  V30 550 N 52.8338 -4.14841 -5.66437 0
M  V30 551 H 57.6738 -2.59688 -1.46172 0
M  V30 552 H 55.2108 -1.28761 -0.711261 0
M  V30 553 H 57.1688 -1.74344 -3.79025 0
M  V30 554 H 55.7988 -0.817753 -3.1227 0
M  V30 555 H 54.8508 -3.07222 -2.24318 0
M  V30 556 H 56.1628 -3.89518 -3.11572 0
M  V30 557 H 55.3168 -2.97829 -5.28567 0
M  V30 558 H 54.0558 -2.05133 -4.42461 0
M  V30 559 H 53.0608 -4.1885 -3.56153 0
M  V30 560 H 54.2858 -5.12483 -4.45575 0
M  V30 561 H 52.2318 -3.25453 -5.69575 0
M  V30 562 H 52.1488 -4.98564 -5.68304 0
M  V30 563 H 53.4168 -4.1941 -6.57051 0
M  V30 564 N 57.6459 0.756429 -1.3826 0
M  V30 565 C 58.6089 1.85176 -1.35065 0
M  V30 566 C 59.6089 1.58818 -0.251703 0
M  V30 567 O 60.7989 1.66615 -0.508433 0
M  V30 568 C 57.9309 3.22596 -1.10201 0
M  V30 569 H 59.1239 1.89417 -2.3251 0
M  V30 570 H 56.6769 0.95783 -1.23512 0
M  V30 571 H 57.4119 3.24025 -0.133504 0
M  V30 572 H 57.1969 3.43122 -1.89762 0
M  V30 573 H 58.6869 4.02673 -1.10654 0
M  V30 574 N 59.124 1.23083 0.984299 0
M  V30 575 C 60.054 1.03292 2.09411 0
M  V30 576 C 61.035 -0.048923 1.7003 0
M  V30 577 O 62.22 0.114967 1.93859 0
M  V30 578 C 59.35 0.619155 3.41736 0
M  V30 579 C 58.304 1.64791 3.95004 0
M  V30 580 C 57.63 1.0897 5.23478 0
M  V30 581 C 58.93 3.03999 4.24714 0
M  V30 582 H 60.624 1.96119 2.26225 0
M  V30 583 H 58.17 0.944344 1.08711 0
M  V30 584 H 60.123 0.467777 4.18796 0
M  V30 585 H 58.847 -0.344786 3.24775 0
M  V30 586 H 57.506 1.78721 3.20085 0
M  V30 587 H 57.154 0.11686 5.02864 0
M  V30 588 H 56.854 1.77704 5.60085 0
M  V30 589 H 58.378 0.950093 6.03163 0
M  V30 590 H 59.792 2.93393 4.92538 0
M  V30 591 H 58.189 3.69936 4.72512 0
M  V30 592 H 59.259 3.53285 3.32142 0
M  V30 593 N 60.6021 -1.18246 1.0419 0
M  V30 594 C 62.0181 -1.40269 0.761366 0
M  V30 595 C 62.2181 -1.90777 -0.648578 0
M  V30 596 O 61.2741 -2.0929 -1.41258 0
M  V30 597 C 62.5871 -2.40237 1.8085 0
M  V30 598 C 64.1351 -2.53961 1.82955 0
M  V30 599 C 64.6101 -3.57194 2.86664 0
M  V30 600 N 66.1011 -3.64702 2.85563 0
M  V30 601 C 66.8361 -4.44309 3.6246 0
M  V30 602 N 66.3321 -5.27514 4.49111 0
M  V30 603 N 68.1251 -4.39084 3.50944 0
M  V30 604 H 60.2761 -0.837882 1.95175 0
M  V30 605 H 62.5391 -0.430608 0.84456 0
M  V30 606 H 62.2451 -2.10176 2.81991 0
M  V30 607 H 62.1191 -3.39601 1.64168 0
M  V30 608 H 64.5061 -2.83338 0.824855 0
M  V30 609 H 64.5871 -1.54706 2.03715 0
M  V30 610 H 64.2311 -3.28558 3.87314 0
M  V30 611 H 64.1611 -4.5613 2.6316 0
M  V30 612 H 66.6521 -3.05289 2.22727 0
M  V30 613 H 66.9651 -5.85411 5.04493 0
M  V30 614 H 65.3101 -5.2693 4.53178 0
M  V30 615 H 68.5011 -3.7313 2.82651 0
M  V30 616 H 68.6741 -5.00883 4.11121 0
M  V30 617 N 62.0802 -0.821533 -1.34494 0
M  V30 618 C 63.3572 -0.33159 -1.92769 0
M  V30 619 C 63.7372 1.18088 -1.74981 0
M  V30 620 O 63.0852 1.98733 -1.12772 0
M  V30 621 C 63.2952 -0.759398 -3.40638 0
M  V30 622 C 64.6432 -0.757433 -4.1779 0
M  V30 623 O 65.6672 -0.70189 -3.49216 0
M  V30 624 O 64.5262 -0.829361 -5.4017 0
M  V30 625 H 61.6202 -0.0902502 -0.822061 0
M  V30 626 H 64.1662 -0.906231 -1.43477 0
M  V30 627 H 62.9382 -1.8012 -3.47379 0
M  V30 628 H 62.5612 -0.160378 -3.97276 0
M  V30 629 N 63.5583 1.46682 -0.576371 0
M  V30 630 C 64.5213 2.28707 0.150239 0
M  V30 631 C 65.5213 1.38035 0.824794 0
M  V30 632 O 66.7113 1.60476 0.677719 0
M  V30 633 C 63.8433 3.18248 1.22192 0
M  V30 634 H 65.0363 2.94423 -0.570521 0
M  V30 635 H 62.5893 1.52688 -0.334078 0
M  V30 636 H 63.3243 2.57265 1.97447 0
M  V30 637 H 63.1093 3.85 0.742812 0
M  V30 638 H 64.5993 3.80001 1.73172 0
M  V30 639 N 65.0364 0.313813 1.54444 0
M  V30 640 C 66.2844 -0.291099 1.99993 0
M  V30 641 C 66.6054 -1.53418 1.20366 0
M  V30 642 O 65.8754 -1.93544 0.302927 0
M  V30 643 H 64.4554 -0.110552 0.738774 0
M  V30 644 H 67.1174 0.428106 1.9014 0
M  V30 645 H 66.2134 -0.554268 3.07139 0
M  V30 646 N 66.5145 -1.57545 0.0417849 0
M  V30 647 C 67.4445 -2.14009 -0.933929 0
M  V30 648 C 68.4255 -1.05938 -1.33083 0
M  V30 649 O 69.6105 -1.33833 -1.40721 0
M  V30 650 C 66.7405 -2.67747 -2.21199 0
M  V30 651 C 65.6945 -3.80718 -1.95544 0
M  V30 652 C 65.0205 -4.20935 -3.29724 0
M  V30 653 C 66.3205 -5.06258 -1.28452 0
M  V30 654 H 68.0145 -2.95788 -0.463645 0
M  V30 655 H 65.5605 -1.42285 -0.221573 0
M  V30 656 H 67.5135 -3.05886 -2.89848 0
M  V30 657 H 66.2375 -1.83147 -2.70416 0
M  V30 658 H 64.8965 -3.43037 -1.2931 0
M  V30 659 H 64.5445 -3.33298 -3.76724 0
M  V30 660 H 64.2445 -4.9707 -3.13361 0
M  V30 661 H 65.7685 -4.61666 -3.9962 0
M  V30 662 H 67.1825 -5.41903 -1.8712 0
M  V30 663 H 65.5795 -5.87475 -1.22445 0
M  V30 664 H 66.6495 -4.84207 -0.259219 0
M  V30 665 N 67.9926 0.231505 -1.5589 0
M  V30 666 C 68.9556 1.27028 -1.90779 0
M  V30 667 C 69.9556 1.40308 -0.785507 0
M  V30 668 O 71.1456 1.38744 -1.05336 0
M  V30 669 C 68.2776 2.64566 -2.14983 0
M  V30 670 H 69.4706 0.973017 -2.83677 0
M  V30 671 H 67.0236 0.471486 -1.49019 0
M  V30 672 H 67.7586 2.99406 -1.24604 0
M  V30 673 H 67.5436 2.56305 -2.96732 0
M  V30 674 H 69.0336 3.39543 -2.43105 0
M  V30 675 N 69.4707 1.49531 0.497807 0
M  V30 676 C 70.7167 1.59415 1.25358 0
M  V30 677 C 71.0497 0.281422 1.9215 0
M  V30 678 O 70.3247 -0.715249 1.80871 0
M  V30 679 C 70.6077 2.75566 2.3181 0
M  V30 680 C 70.4607 4.16642 1.69498 0
M  V30 681 C 71.7797 2.87347 3.33346 0
M  V30 682 H 68.8987 0.580244 0.454408 0
M  V30 683 H 71.5407 1.81827 0.551262 0
M  V30 684 H 69.6907 2.56587 2.91711 0
M  V30 685 H 71.3627 4.47145 1.13399 0
M  V30 686 H 69.6057 4.22141 0.998978 0
M  V30 687 H 70.2767 4.93792 2.46725 0
M  V30 688 H 72.7527 3.04634 2.83438 0
M  V30 689 H 71.6287 3.70289 4.05188 0
M  V30 690 H 71.8897 1.96834 3.95865 0
M  V30 691 N 70.9488 -0.749086 1.3866 0
M  V30 692 C 72.3648 -1.05276 1.19955 0
M  V30 693 C 72.5648 -2.01435 0.05134 0
M  V30 694 O 71.6208 -2.45232 -0.60147 0
M  V30 695 C 72.9338 -1.62853 2.52783 0
M  V30 696 C 74.4818 -1.75002 2.59506 0
M  V30 697 C 74.9568 -2.35991 3.92521 0
M  V30 698 N 76.4478 -2.43416 3.94085 0
M  V30 699 C 77.1828 -2.91511 4.9377 0
M  V30 700 N 76.6788 -3.39608 6.03853 0
M  V30 701 N 78.4718 -2.90592 4.81157 0
M  V30 702 H 70.6228 -0.111066 2.12109 0
M  V30 703 H 72.8858 -0.111901 0.941373 0
M  V30 704 H 72.5918 -0.99664 3.37283 0
M  V30 705 H 72.4658 -2.61854 2.715 0
M  V30 706 H 74.8528 -2.37317 1.75398 0
M  V30 707 H 74.9338 -0.74693 2.44652 0
M  V30 708 H 74.5778 -1.74308 4.77053 0
M  V30 709 H 74.5078 -3.3695 4.04688 0
M  V30 710 H 76.9988 -2.09405 3.14576 0
M  V30 711 H 77.3118 -3.74775 6.75843 0
M  V30 712 H 75.6568 -3.37653 6.07466 0
M  V30 713 H 78.8478 -2.52332 3.94267 0
M  V30 714 H 79.0208 -3.27762 5.58996 0
M  V30 715 N 72.4269 -1.23603 -0.977757 0
M  V30 716 C 73.7039 -0.977897 -1.69401 0
M  V30 717 C 74.0839 0.502738 -2.05026 0
M  V30 718 O 73.4319 1.47459 -1.74551 0
M  V30 719 C 73.6419 -1.89077 -2.93345 0
M  V30 720 C 74.9899 -2.15579 -3.65802 0
M  V30 721 O 76.0139 -1.86648 -3.03383 0
M  V30 722 O 74.8729 -2.64658 -4.78141 0
M  V30 723 H 71.9669 -0.369025 -0.740101 0
M  V30 724 H 74.5129 -1.34657 -1.03274 0
M  V30 725 H 73.2849 -2.89158 -2.63634 0
M  V30 726 H 72.9079 -1.52463 -3.67207 0
M  V30 727 N 73.905 1.17692 -1.04816 0
M  V30 728 C 75.151 1.88137 -0.75711 0
M  V30 729 C 75.484 1.80604 0.713841 0
M  V30 730 O 74.759 1.21146 1.52164 0
M  V30 731 C 75.042 3.38318 -1.2334 0
M  V30 732 C 74.895 3.54622 -2.76701 0
M  V30 733 C 76.214 4.32214 -0.829415 0
M  V30 734 H 73.333 0.683163 -0.27651 0
M  V30 735 H 75.975 1.38424 -1.30149 0
M  V30 736 H 74.125 3.80787 -0.770286 0
M  V30 737 H 75.797 3.21194 -3.31107 0
M  V30 738 H 74.04 2.97026 -3.16161 0
M  V30 739 H 74.711 4.60028 -3.05088 0
M  V30 740 H 77.187 3.97565 -1.22805 0
M  V30 741 H 76.063 5.35838 -1.19033 0
M  V30 742 H 76.324 4.41294 0.266891 0
M  V30 743 N 75.3831 0.828654 1.34056 0
M  V30 744 C 76.6081 0.431637 2.02859 0
M  V30 745 C 77.0331 -0.956339 1.61975 0
M  V30 746 O 76.3911 -1.62338 0.807228 0
M  V30 747 C 76.4391 0.548323 3.56407 0
M  V30 748 O 75.5431 -0.429556 4.10157 0
M  V30 749 H 74.8841 0.176886 0.640006 0
M  V30 750 H 77.4141 1.12066 1.71179 0
M  V30 751 H 77.4241 0.426196 4.05768 0
M  V30 752 H 76.0991 1.5606 3.8551 0
M  V30 753 H 74.6761 -0.265836 3.71951 0
M  V30 754 N 76.8612 -1.46375 0.584142 0
M  V30 755 C 77.7712 -2.34115 -0.150728 0
M  V30 756 C 78.7872 -1.49838 -0.884567 0
M  V30 757 O 79.9632 -1.82704 -0.847429 0
M  V30 758 C 77.0282 -3.2705 -1.15062 0
M  V30 759 C 76.0892 -4.27228 -0.421293 0
M  V30 760 C 75.3222 -5.15722 -1.37355 0
M  V30 761 O 75.5452 -5.07176 -2.61014 0
M  V30 762 O 74.4792 -5.95383 -0.883355 0
M  V30 763 H 78.3052 -2.98309 0.569708 0
M  V30 764 H 75.8902 -1.45373 0.344535 0
M  V30 765 H 77.7722 -3.84381 -1.72712 0
M  V30 766 H 76.4472 -2.65451 -1.8525 0
M  V30 767 H 75.3542 -3.7358 0.197085 0
M  V30 768 H 76.6872 -4.91616 0.239641 0
M  V30 769 N 78.3393 -0.321999 -1.54275 0
M  V30 770 C 79.2693 0.537411 -2.27231 0
M  V30 771 C 80.2503 1.12064 -1.27968 0
M  V30 772 O 81.4353 1.14606 -1.56777 0
M  V30 773 C 78.5653 1.69919 -3.02894 0
M  V30 774 C 77.5193 1.24534 -4.09482 0
M  V30 775 C 76.8453 2.49394 -4.72977 0
M  V30 776 C 78.1453 0.361335 -5.21049 0
M  V30 777 H 79.8393 -0.0711406 -2.99315 0
M  V30 778 H 77.3853 -0.0356555 -1.43956 0
M  V30 779 H 79.3383 2.30668 -3.52662 0
M  V30 780 H 78.0623 2.33431 -2.28424 0
M  V30 781 H 76.7213 0.660782 -3.60596 0
M  V30 782 H 76.3693 3.11265 -3.95124 0
M  V30 783 H 76.0693 2.19718 -5.44975 0
M  V30 784 H 77.5933 3.10908 -5.25517 0
M  V30 785 H 79.0073 0.875072 -5.66582 0
M  V30 786 H 77.4043 0.157428 -5.99893 0
M  V30 787 H 78.4743 -0.60822 -4.8107 0
M  V30 788 N 79.8174 1.5752 -0.0501392 0
M  V30 789 C 81.0454 1.96963 0.633492 0
M  V30 790 C 81.4604 0.927631 1.6444 0
M  V30 791 O 80.8174 -0.0882665 1.82286 0
M  V30 792 C 80.8684 3.36487 1.32132 0
M  V30 793 O 80.5894 4.36693 0.350894 0
M  V30 794 C 82.0904 3.90682 2.09481 0
M  V30 795 H 79.3104 0.648244 0.173266 0
M  V30 796 H 81.8544 2.0417 -0.116134 0
M  V30 797 H 80.0094 3.30434 2.02218 0
M  V30 798 H 80.4234 5.17702 0.841735 0
M  V30 799 H 81.8974 4.90591 2.5303 0
M  V30 800 H 82.3744 3.26053 2.94255 0
M  V30 801 H 82.9804 4.00069 1.44307 0
M  V30 802 N 81.2955 -0.223234 1.56011 0
M  V30 803 C 82.5435 -0.946003 1.78592 0
M  V30 804 C 82.8645 -1.84936 0.618349 0
M  V30 805 O 82.1345 -1.92473 -0.364833 0
M  V30 806 H 80.7145 -0.352298 0.658707 0
M  V30 807 H 83.3765 -0.235494 1.93472 0
M  V30 808 H 82.4725 -1.55381 2.70672 0
M  V30 809 N 82.7736 -1.49793 -0.48987 0
M  V30 810 C 84.0206 -1.59841 -1.24327 0
M  V30 811 C 84.3486 -0.290135 -1.92324 0
M  V30 812 O 83.6036 0.722749 -1.81865 0
M  V30 813 C 83.9026 -2.71488 -2.32441 0
M  V30 814 C 83.5686 -4.12614 -1.81826 0
M  V30 815 C 82.2306 -4.51017 -1.67742 0
M  V30 816 C 84.5826 -5.00892 -1.4407 0
M  V30 817 C 81.9106 -5.75459 -1.14297 0
M  V30 818 C 84.2626 -6.25863 -0.920742 0
M  V30 819 C 82.9266 -6.63086 -0.766383 0
M  V30 820 H 82.1966 -0.584899 -0.454944 0
M  V30 821 H 84.8436 -1.83663 -0.542215 0
M  V30 822 H 83.1486 -2.4168 -3.0838 0
M  V30 823 H 84.8456 -2.76469 -2.90458 0
M  V30 824 H 81.4356 -3.82307 -1.93751 0
M  V30 825 H 85.6196 -4.7187 -1.53794 0
M  V30 826 H 80.8756 -6.02989 -1.01068 0
M  V30 827 H 85.0496 -6.9364 -0.619448 0
M  V30 828 H 82.6766 -7.59393 -0.350083 0
M  V30 829 N 84.2517 0.741722 -1.39055 0
M  V30 830 C 85.6627 1.31966 -1.32068 0
M  V30 831 C 86.0137 1.96192 0.0180797 0
M  V30 832 O 85.1387 1.95861 0.920196 0
M  V30 833 C 85.7337 2.39954 -2.39181 0
M  V30 834 C 84.2927 2.93438 -2.35735 0
M  V30 835 C 83.4397 1.66936 -2.21422 0
M  V30 836 H 86.3907 0.539721 -1.4924 0
M  V30 837 H 86.4117 3.20182 -2.05581 0
M  V30 838 H 85.9237 1.9318 -3.36605 0
M  V30 839 H 84.0247 3.4451 -1.41929 0
M  V30 840 H 84.1377 3.4701 -3.30335 0
M  V30 841 H 82.5017 1.91016 -1.68478 0
M  V30 842 H 83.2847 1.22224 -3.20806 0
M  V30 843 N 85.7298 1.2412 0.971189 0
M  V30 844 C 86.6398 1.04747 2.09917 0
M  V30 845 C 87.6558 -0.0107162 1.73997 0
M  V30 846 O 88.8318 0.186714 2.00533 0
M  V30 847 C 85.8968 0.650828 3.40537 0
M  V30 848 C 84.9578 1.7851 3.90426 0
M  V30 849 C 84.1908 1.40729 5.14812 0
M  V30 850 O 84.4138 0.29557 5.69634 0
M  V30 851 O 83.3478 2.23168 5.58999 0
M  V30 852 H 87.1738 1.99304 2.29154 0
M  V30 853 H 84.7588 1.02908 1.08307 0
M  V30 854 H 86.6408 0.440992 4.19086 0
M  V30 855 H 85.3158 -0.265649 3.22608 0
M  V30 856 H 84.2228 2.04966 3.12953 0
M  V30 857 H 85.5558 2.68023 4.12825 0
M  V30 858 N 87.2079 -1.17134 1.05439 0
M  V30 859 C 88.1409 -2.2012 0.601855 0
M  V30 860 C 89.1189 -1.58314 -0.370854 0
M  V30 861 O 90.3029 -1.8638 -0.281882 0
M  V30 862 C 87.4299 -3.38491 -0.118868 0
M  V30 863 C 86.4759 -4.18752 0.809242 0
M  V30 864 S 87.3089 -4.83602 2.29977 0
M  V30 865 C 88.4649 -6.0536 1.59029 0
M  V30 866 H 88.6979 -2.58165 1.47438 0
M  V30 867 H 86.2309 -1.27788 0.866573 0
M  V30 868 H 88.1889 -4.07084 -0.528495 0
M  V30 869 H 86.8499 -2.98829 -0.967465 0
M  V30 870 H 86.0429 -5.03373 0.251379 0
M  V30 871 H 85.6449 -3.5561 1.15835 0
M  V30 872 H 87.9369 -6.71615 0.891017 0
M  V30 873 H 88.8799 -6.65679 2.41407 0
M  V30 874 H 89.2879 -5.54138 1.07663 0
M  V30 875 N 88.686 -0.835752 -1.33615 0
M  V30 876 C 89.616 -0.281739 -2.31794 0
M  V30 877 C 90.597 0.608833 -1.58831 0
M  V30 878 O 91.782 0.533035 -1.86741 0
M  V30 879 C 88.912 0.546612 -3.42971 0
M  V30 880 C 87.866 -0.247904 -4.27281 0
M  V30 881 C 87.192 0.704001 -5.30045 0
M  V30 882 C 88.492 -1.46324 -5.01385 0
M  V30 883 H 90.186 -1.10206 -2.78379 0
M  V30 884 H 87.732 -0.531388 -1.33837 0
M  V30 885 H 89.685 0.944467 -4.1068 0
M  V30 886 H 88.409 1.40011 -2.95067 0
M  V30 887 H 87.068 -0.627281 -3.61194 0
M  V30 888 H 86.716 1.55381 -4.78399 0
M  V30 889 H 86.416 0.176524 -5.87335 0
M  V30 890 H 87.94 1.09944 -6.0062 0
M  V30 891 H 89.354 -1.13871 -5.61877 0
M  V30 892 H 87.751 -1.92728 -5.6831 0
M  V30 893 H 88.821 -2.23467 -4.30338 0
M  V30 894 N 90.1641 1.46063 -0.591896 0
M  V30 895 C 91.4121 2.01938 -0.0808391 0
M  V30 896 C 91.7331 1.46475 1.28725 0
M  V30 897 O 91.0031 0.652944 1.84698 0
M  V30 898 H 89.5831 0.746516 -0.0268938 0
M  V30 899 H 92.2451 1.79055 -0.769752 0
M  V30 900 H 91.3411 3.12094 -0.0187578 0
M  V30 901 N 91.6422 0.330177 1.54103 0
M  V30 902 C 92.8902 -0.269871 2.0029 0
M  V30 903 C 93.2112 -1.52133 1.21986 0
M  V30 904 O 92.4812 -1.93212 0.323438 0
M  V30 905 H 91.0612 -0.10271 0.739905 0
M  V30 906 H 93.7232 0.448249 1.89675 0
M  V30 907 H 92.8192 -0.52166 3.07709 0
M  V30 908 N 93.1203 -1.57491 0.0584922 0
M  V30 909 C 94.5363 -1.56792 -0.298091 0
M  V30 910 C 94.7363 -1.06679 -1.70944 0
M  V30 911 O 93.7923 -0.726672 -2.41818 0
M  V30 912 C 95.1053 -3.00461 -0.119879 0
M  V30 913 C 96.6533 -3.1242 -0.190428 0
M  V30 914 C 97.1283 -4.57982 -0.0406567 0
M  V30 915 N 98.6193 -4.63099 -0.0966958 0
M  V30 916 C 99.3543 -5.734 -0.00502943 0
M  V30 917 N 98.8503 -6.9266 0.139402 0
M  V30 918 N 100.643 -5.62067 -0.0611391 0
M  V30 919 H 92.7943 -1.88386 0.98105 0
M  V30 920 H 95.0573 -0.867865 0.381463 0
M  V30 921 H 94.7633 -3.41187 0.85349 0
M  V30 922 H 94.6373 -3.66843 -0.877833 0
M  V30 923 H 97.0243 -2.71589 -1.15427 0
M  V30 924 H 97.1053 -2.48702 0.598405 0
M  V30 925 H 96.7493 -4.995 0.919897 0
M  V30 926 H 96.6793 -5.19715 -0.848727 0
M  V30 927 H 99.1703 -3.77331 -0.207277 0
M  V30 928 H 99.4833 -7.72536 0.201855 0
M  V30 929 H 97.8283 -6.94781 0.174586 0
M  V30 930 H 101.019 -4.67782 -0.172583 0
M  V30 931 H 101.192 -6.47999 0.0137562 0
M  V30 932 N 94.5984 0.214957 -1.56127 0
M  V30 933 C 95.8444 0.939762 -1.79712 0
M  V30 934 C 96.1774 1.83723 -0.629247 0
M  V30 935 O 95.4524 1.90925 0.371197 0
M  V30 936 C 95.7354 1.77306 -3.13424 0
M  V30 937 C 95.5884 0.90164 -4.40671 0
M  V30 938 C 96.9074 2.74956 -3.43638 0
M  V30 939 H 94.0264 0.340214 -0.653776 0
M  V30 940 H 96.6684 0.20824 -1.88855 0
M  V30 941 H 94.8184 2.39673 -3.0576 0
M  V30 942 H 96.4904 0.294206 -4.60361 0
M  V30 943 H 94.7334 0.207368 -4.33304 0
M  V30 944 H 95.4044 1.51923 -5.30682 0
M  V30 945 H 97.8804 2.22724 -3.51473 0
M  V30 946 H 96.7564 3.30358 -4.38355 0
M  V30 947 H 97.0174 3.53023 -2.66134 0
M  V30 948 N 96.0765 1.50051 0.48192 0
M  V30 949 C 97.0235 1.68122 1.58125 0
M  V30 950 C 97.9935 0.522545 1.57666 0
M  V30 951 O 99.1785 0.751844 1.75362 0
M  V30 952 C 96.3185 1.77142 2.96167 0
M  V30 953 C 95.4315 3.0444 3.06497 0
M  V30 954 C 94.5665 3.04321 4.35387 0
M  V30 955 C 93.6055 4.26118 4.3942 0
M  V30 956 N 92.7425 4.238 5.59766 0
M  V30 957 H 97.5825 2.6198 1.42022 0
M  V30 958 H 95.1195 1.29877 0.690687 0
M  V30 959 H 97.0775 1.80352 3.76203 0
M  V30 960 H 95.7075 0.867329 3.1093 0
M  V30 961 H 94.7595 3.10752 2.19402 0
M  V30 962 H 96.0715 3.94426 3.05336 0
M  V30 963 H 95.2255 3.062 5.23762 0
M  V30 964 H 93.9645 2.12147 4.39141 0
M  V30 965 H 92.9695 4.24463 3.49444 0
M  V30 966 H 94.1945 5.19507 4.37366 0
M  V30 967 H 92.1405 3.34474 5.64326 0
M  V30 968 H 92.0575 5.07542 5.60301 0
M  V30 969 H 93.3255 4.2981 6.50295 0
M  V30 970 N 97.5546 -0.734337 1.39446 0
M  V30 971 C 98.7826 -1.52358 1.39981 0
M  V30 972 C 99.1976 -1.88799 -0.0054975 0
M  V30 973 O 98.5546 -1.54146 -0.976998 0
M  V30 974 C 98.6056 -2.81072 2.27333 0
M  V30 975 O 98.3266 -2.46178 3.62392 0
M  V30 976 C 99.8276 -3.75096 2.36259 0
M  V30 977 H 97.0476 -0.470806 0.478103 0
M  V30 978 H 99.5916 -0.907339 1.83269 0
M  V30 979 H 97.7466 -3.39026 1.87457 0
M  V30 980 H 98.1606 -3.28866 4.08592 0
M  V30 981 H 99.6346 -4.62305 3.01626 0
M  V30 982 H 100.112 -4.16892 1.38194 0
M  V30 983 H 100.718 -3.23061 2.76608 0
M  V30 984 N 99.0327 -1.24633 -0.964593 0
M  V30 985 C 99.9627 -1.06611 -2.07741 0
M  V30 986 C 100.944 0.0218666 -1.70086 0
M  V30 987 O 102.129 -0.145793 -1.93652 0
M  V30 988 C 99.2587 -0.673444 -3.40708 0
M  V30 989 C 98.2127 -1.71054 -3.92332 0
M  V30 990 C 97.5387 -1.17285 -5.21678 0
M  V30 991 C 98.8387 -3.10718 -4.19824 0
M  V30 992 H 100.533 -1.99693 -2.23076 0
M  V30 993 H 98.0787 -0.96152 -1.07195 0
M  V30 994 H 100.032 -0.534345 -4.17998 0
M  V30 995 H 98.7557 0.293073 -3.25282 0
M  V30 996 H 97.4147 -1.83791 -3.17201 0
M  V30 997 H 97.0627 -0.196847 -5.02615 0
M  V30 998 H 96.7627 -1.86592 -5.57187 0
M  V30 999 H 98.2867 -1.04593 -6.01575 0
M  V30 1000 H 99.7007 -3.01192 -4.87808 0
M  V30 1001 H 98.0977 -3.77406 -4.66567 0
M  V30 1002 H 99.1677 -3.58524 -3.26479 0
M  V30 1003 N 100.511 1.16574 -1.06058 0
M  V30 1004 C 101.461 2.18854 -0.63929 0
M  V30 1005 C 102.445 1.57505 0.328798 0
M  V30 1006 O 103.637 1.76408 0.144623 0
M  V30 1007 C 100.766 3.43291 -0.0247203 0
M  V30 1008 C 99.8518 4.11722 -1.01716 0
M  V30 1009 N 100.243 4.55841 -2.19186 0
M  V30 1010 C 98.5408 4.37872 -0.847569 0
M  V30 1011 C 99.2418 5.08751 -2.82042 0
M  V30 1012 N 98.2178 5.01489 -2.09784 0
M  V30 1013 H 102.02 2.5068 -1.53417 0
M  V30 1014 H 99.5338 1.32999 -0.931935 0
M  V30 1015 H 101.531 4.15856 0.294915 0
M  V30 1016 H 100.191 3.12954 0.865448 0
M  V30 1017 H 101.202 4.49649 -2.56975 0
M  V30 1018 H 97.8788 4.17499 -0.00918848 0
M  V30 1019 H 99.2688 5.52944 -3.81709 0
M  V30 1020 N 101.989 0.842826 1.3317 0
M  V30 1021 C 103.4 0.496651 1.79973 0
M  V30 1022 C 103.751 -0.984641 1.69703 0
M  V30 1023 O 102.876 -1.76743 1.24863 0
M  V30 1024 C 103.471 0.894727 3.26772 0
M  V30 1025 C 102.03 0.600629 3.71577 0
M  V30 1026 C 101.177 1.10091 2.5451 0
M  V30 1027 H 104.128 1.03116 1.20635 0
M  V30 1028 H 104.149 0.206347 3.7994 0
M  V30 1029 H 103.661 1.97287 3.34215 0
M  V30 1030 H 101.762 -0.467284 3.69658 0
M  V30 1031 H 101.875 1.15863 4.64879 0
M  V30 1032 H 100.239 0.52162 2.49301 0
M  V30 1033 H 101.022 2.18591 2.64713 0
M  V30 1034 N 103.467 -1.45747 0.599634 0
M  V30 1035 C 104.43 -2.28917 -0.113835 0
M  V30 1036 C 105.43 -1.3933 -0.802729 0
M  V30 1037 O 106.62 -1.61534 -0.652103 0
M  V30 1038 C 103.752 -3.20152 -1.17114 0
M  V30 1039 H 104.945 -2.93478 0.617289 0
M  V30 1040 H 102.498 -1.52137 0.358327 0
M  V30 1041 H 103.233 -2.60374 -1.93329 0
M  V30 1042 H 103.018 -3.86133 -0.681468 0
M  V30 1043 H 104.508 -3.82708 -1.67105 0
M  V30 1044 N 104.945 -0.338344 -1.53925 0
M  V30 1045 C 106.191 0.260143 -2.01125 0
M  V30 1046 C 106.524 1.50617 -1.22589 0
M  V30 1047 O 105.799 1.91979 -0.312113 0
M  V30 1048 C 106.082 0.579499 -3.55407 0
M  V30 1049 C 105.935 -0.678264 -4.44657 0
M  V30 1050 C 107.254 1.39122 -4.17532 0
M  V30 1051 H 104.373 0.0930772 -0.731099 0
M  V30 1052 H 107.015 -0.457852 -1.84401 0
M  V30 1053 H 105.165 1.19118 -3.69788 0
M  V30 1054 H 106.837 -1.31631 -4.42121 0
M  V30 1055 H 105.08 -1.3042 -4.13731 0
M  V30 1056 H 105.751 -0.410143 -5.50474 0
M  V30 1057 H 108.227 0.874035 -4.06817 0
M  V30 1058 H 107.103 1.58342 -5.25565 0
M  V30 1059 H 107.364 2.39178 -3.71815 0
M  V30 1060 N 106.423 1.57458 -0.0668435 0
M  V30 1061 C 107.373 2.0896 0.912119 0
M  V30 1062 C 108.357 0.998186 1.26195 0
M  V30 1063 O 109.549 1.26133 1.24175 0
M  V30 1064 C 106.678 2.6508 2.18145 0
M  V30 1065 C 105.764 3.81218 1.85832 0
M  V30 1066 N 106.155 4.90378 1.23948 0
M  V30 1067 C 104.453 3.9042 2.15612 0
M  V30 1068 C 105.154 5.71279 1.09616 0
M  V30 1069 N 104.13 5.19389 1.60423 0
M  V30 1070 H 107.932 2.90749 0.42924 0
M  V30 1071 H 105.446 1.6182 0.137184 0
M  V30 1072 H 107.443 3.0029 2.89192 0
M  V30 1073 H 106.103 1.84736 2.67025 0
M  V30 1074 H 107.114 5.09847 0.909731 0
M  V30 1075 H 103.791 3.21043 2.66903 0
M  V30 1076 H 105.181 6.69085 0.614425 0
M  V30 1077 N 107.901 -0.206675 1.56239 0
M  V30 1078 C 108.864 -1.23976 1.92776 0
M  V30 1079 C 109.864 -1.39041 0.807729 0
M  V30 1080 O 111.054 -1.37051 1.0753 0
M  V30 1081 C 108.186 -2.61112 2.19165 0
M  V30 1082 H 109.379 -0.927764 2.85189 0
M  V30 1083 H 106.932 -0.447718 1.4975 0
M  V30 1084 H 107.667 -2.97386 1.29352 0
M  V30 1085 H 107.452 -2.51552 3.00772 0
M  V30 1086 H 108.942 -3.35633 2.48476 0
M  V30 1087 N 109.379 -1.50304 -0.473955 0
M  V30 1088 C 110.627 -1.60832 -1.22382 0
M  V30 1089 C 110.948 -0.30939 -1.9253 0
M  V30 1090 O 110.218 0.67296 -1.83978 0
M  V30 1091 H 108.798 -0.592652 -0.454723 0
M  V30 1092 H 111.46 -1.87068 -0.546968 0
M  V30 1093 H 110.556 -2.41803 -1.97327 0
M  V30 1094 N 110.857 0.726932 -1.39834 0
M  V30 1095 C 112.106 1.48214 -1.36805 0
M  V30 1096 C 112.419 1.95576 0.0305291 0
M  V30 1097 O 113.625 2.7088 0.183417 0
M  V30 1098 C 112.081 2.67854 -2.40379 0
M  V30 1099 C 111.689 2.27408 -3.85992 0
M  V30 1100 C 113.433 3.45641 -2.46439 0
M  V30 1101 C 111.34 3.43819 -4.81189 0
M  V30 1102 H 110.27 0.556606 -0.508631 0
M  V30 1103 H 112.921 0.792216 -1.65518 0
M  V30 1104 H 111.303 3.3896 -2.04749 0
M  V30 1105 H 112.477 1.63795 -4.30706 0
M  V30 1106 H 110.792 1.62692 -3.83302 0
M  V30 1107 H 113.389 4.32244 -3.14753 0
M  V30 1108 H 113.732 3.88669 -1.49139 0
M  V30 1109 H 114.265 2.8157 -2.81004 0
M  V30 1110 H 111.004 3.05834 -5.79781 0
M  V30 1111 H 110.524 4.06385 -4.41148 0
M  V30 1112 H 112.203 4.10043 -5.00474 0
M  V30 1113 N 112.336 1.25143 0.95797 0
M  V30 1114 C 113.266 1.07711 2.07173 0
M  V30 1115 C 114.247 -0.0128462 1.70095 0
M  V30 1116 O 115.432 0.156061 1.93572 0
M  V30 1117 C 112.562 0.691503 3.40346 0
M  V30 1118 C 111.516 1.73132 3.9142 0
M  V30 1119 C 110.842 1.20049 5.21049 0
M  V30 1120 C 112.142 3.1294 4.1817 0
M  V30 1121 H 113.836 2.00873 2.22014 0
M  V30 1122 H 111.382 0.967191 1.06684 0
M  V30 1123 H 113.335 0.556505 4.17709 0
M  V30 1124 H 112.059 -0.275819 3.25433 0
M  V30 1125 H 110.718 1.8547 3.16222 0
M  V30 1126 H 110.366 0.223499 5.02503 0
M  V30 1127 H 110.066 1.89545 5.56189 0
M  V30 1128 H 111.59 1.07782 6.01012 0
M  V30 1129 H 113.004 3.03775 4.86203 0
M  V30 1130 H 111.401 3.79875 4.64559 0
M  V30 1131 H 112.471 3.6025 3.24573 0
M  V30 1132 N 113.814 -1.1601 1.06675 0
M  V30 1133 C 114.777 -2.18724 0.685001 0
M  V30 1134 C 115.777 -1.58496 -0.271246 0
M  V30 1135 O 116.967 -1.74119 -0.0531156 0
M  V30 1136 C 114.099 -3.40899 0.00853648 0
M  V30 1137 H 115.292 -2.54011 1.59431 0
M  V30 1138 H 112.845 -1.30352 0.862441 0
M  V30 1139 H 113.58 -3.11173 -0.913337 0
M  V30 1140 H 113.365 -3.8587 0.696204 0
M  V30 1141 H 114.855 -4.16886 -0.24414 0
M  V30 1142 N 115.292 -0.849877 -1.32721 0
M  V30 1143 C 116.708 -0.539102 -1.50219 0
M  V30 1144 C 116.908 0.931271 -1.78689 0
M  V30 1145 O 115.964 1.71455 -1.85363 0
M  V30 1146 C 117.277 -1.42196 -2.64954 0
M  V30 1147 C 118.825 -1.42189 -2.78839 0
M  V30 1148 C 119.3 -2.28985 -3.96648 0
M  V30 1149 N 120.791 -2.26754 -4.03902 0
M  V30 1150 C 121.526 -2.90644 -4.94281 0
M  V30 1151 N 121.022 -3.63629 -5.897 0
M  V30 1152 N 122.815 -2.80057 -4.87365 0
M  V30 1153 H 114.966 -1.80156 -1.12506 0
M  V30 1154 H 117.229 -0.769217 -0.554085 0
M  V30 1155 H 116.935 -2.46733 -2.50631 0
M  V30 1156 H 116.809 -1.10591 -3.60624 0
M  V30 1157 H 119.196 -0.38419 -2.92588 0
M  V30 1158 H 119.277 -1.77807 -1.83898 0
M  V30 1159 H 118.921 -3.32819 -3.83658 0
M  V30 1160 H 118.851 -1.90702 -4.90857 0
M  V30 1161 H 121.342 -1.73688 -3.3562 0
M  V30 1162 H 121.655 -4.09558 -6.55349 0
M  V30 1163 H 120 -3.67737 -5.89741 0
M  V30 1164 H 123.191 -2.22593 -4.11789 0
M  V30 1165 H 123.364 -3.30132 -5.57599 0
M  V30 1166 N 116.77 1.45427 -0.607355 0
M  V30 1167 C 117.718 2.32269 0.12411 0
M  V30 1168 C 118.712 1.45955 0.859854 0
M  V30 1169 O 119.918 1.6244 0.775447 0
M  V30 1170 H 116.293 0.749691 0.0588839 0
M  V30 1171 H 118.264 2.91743 -0.626762 0
M  V30 1172 C 117.013 3.29567 1.1082 0
M  V30 1173 H 116.336 3.95978 0.551492 0
M  V30 1174 H 117.776 3.93061 1.58995 0
M  V30 1175 C 116.235 2.56722 2.18164 0
M  V30 1176 O 116.765 2.34842 3.25902 0
M  V30 1177 N 114.971 2.16861 1.93442 0
M  V30 1178 H 114.518 2.34855 1.05834 0
M  V30 1179 H 114.476 1.68444 2.65469 0
M  V30 1180 N 118.248 0.346503 1.53744 0
M  V30 1181 C 119.497 -0.250122 2.00143 0
M  V30 1182 C 119.81 -1.51418 1.23822 0
M  V30 1183 O 121.016 -2.18823 1.60713 0
M  V30 1184 C 119.472 -0.496252 3.56462 0
M  V30 1185 C 119.08 0.752077 4.41642 0
M  V30 1186 C 120.824 -1.05157 4.11269 0
M  V30 1187 C 118.731 0.476583 5.89477 0
M  V30 1188 H 117.661 -0.0972409 0.747703 0
M  V30 1189 H 120.312 0.46229 1.77581 0
M  V30 1190 H 118.694 -1.26944 3.75102 0
M  V30 1191 H 119.868 1.5266 4.34778 0
M  V30 1192 H 118.183 1.22925 3.97842 0
M  V30 1193 H 120.78 -1.27269 5.19333 0
M  V30 1194 H 121.123 -2.00799 3.64672 0
M  V30 1195 H 121.656 -0.339019 3.96353 0
M  V30 1196 H 118.395 1.4028 6.40314 0
M  V30 1197 H 117.915 -0.259794 5.99237 0
M  V30 1198 H 119.594 0.0949315 6.4693 0
M  V30 1199 N 119.726 -1.57421 0.075193 0
M  V30 1200 C 121.137 -1.81021 -0.456964 0
M  V30 1201 C 121.488 -0.98936 -1.69429 0
M  V30 1202 O 120.613 -0.212865 -2.15351 0
M  V30 1203 C 121.208 -3.28329 -0.83581 0
M  V30 1204 C 119.767 -3.52764 -1.31281 0
M  V30 1205 C 118.914 -2.75676 -0.299648 0
M  V30 1206 H 121.865 -1.55822 0.300856 0
M  V30 1207 H 121.886 -3.40564 -1.69696 0
M  V30 1208 H 121.398 -3.88046 0.0649238 0
M  V30 1209 H 119.499 -2.98355 -2.23193 0
M  V30 1210 H 119.612 -4.61451 -1.28839 0
M  V30 1211 H 117.976 -2.42538 -0.777641 0
M  V30 1212 H 118.759 -3.38132 0.593417 0
M  V30 1213 N 121.204 0.198386 -1.56346 0
M  V30 1214 C 122.114 1.2664 -1.97483 0
M  V30 1215 C 123.13 1.49989 -0.882002 0
M  V30 1216 O 124.306 1.62668 -1.18748 0
M  V30 1217 C 121.371 2.59141 -2.30319 0
M  V30 1218 C 120.432 2.43892 -3.53292 0
M  V30 1219 C 119.665 3.70074 -3.84553 0
M  V30 1220 O 119.888 4.74101 -3.1715 0
M  V30 1221 O 118.822 3.658 -4.7799 0
M  V30 1222 H 122.648 0.947304 -2.88548 0
M  V30 1223 H 120.233 0.403123 -1.43859 0
M  V30 1224 H 122.115 3.37352 -2.5253 0
M  V30 1225 H 120.79 2.90684 -1.42423 0
M  V30 1226 H 119.697 1.63803 -3.36332 0
M  V30 1227 H 121.03 2.17282 -4.41644 0
M  V30 1228 N 122.682 1.50554 0.465978 0
M  V30 1229 C 123.959 1.5232 1.22712 0
M  V30 1230 C 124.339 0.270807 2.09356 0
M  V30 1231 O 123.687 -0.745541 2.15995 0
M  V30 1232 C 123.897 2.82175 2.05374 0
M  V30 1233 C 125.245 3.33033 2.6339 0
M  V30 1234 O 126.269 2.83531 2.15612 0
M  V30 1235 O 125.128 4.19336 3.50456 0
M  V30 1236 H 122.222 0.611183 0.557122 0
M  V30 1237 H 124.768 1.62847 0.477381 0
M  V30 1238 H 123.54 3.64797 1.41558 0
M  V30 1239 H 123.163 2.74675 2.87471 0
M  V30 1240 N 124.16 -0.719506 1.40217 0
M  V30 1241 C 125.108 -1.85493 1.40339 0
M  V30 1242 C 126.102 -1.66995 0.284415 0
M  V30 1243 O 127.308 -1.74148 0.455252 0
M  V30 1244 H 123.683 -0.610857 0.438586 0
M  V30 1245 H 125.654 -1.82506 2.36081 0
M  V30 1246 C 124.403 -3.23321 1.27901 0
M  V30 1247 H 123.726 -3.38159 2.1328 0
M  V30 1248 H 125.166 -4.02914 1.32045 0
M  V30 1249 C 123.625 -3.36898 -0.0111355 0
M  V30 1250 O 124.155 -3.89674 -0.975538 0
M  V30 1251 N 122.361 -2.90492 -0.0793393 0
M  V30 1252 H 121.908 -2.47731 0.706183 0
M  V30 1253 H 121.866 -2.99955 -0.942038 0
M  V30 1254 N 125.638 -1.25649 -0.95132 0
M  V30 1255 C 126.601 -1.06399 -2.03007 0
M  V30 1256 C 127.601 -0.0156794 -1.60792 0
M  V30 1257 O 128.791 -0.25817 -1.72276 0
M  V30 1258 C 125.923 -0.616184 -3.35285 0
M  V30 1259 H 127.116 -2.02164 -2.21517 0
M  V30 1260 H 124.669 -1.08103 -1.12887 0
M  V30 1261 H 125.404 0.343917 -3.22471 0
M  V30 1262 H 125.189 -1.37301 -3.67275 0
M  V30 1263 H 126.679 -0.503032 -4.14559 0
M  V30 1264 N 127.117 1.15442 -1.07289 0
M  V30 1265 C 128.394 1.82306 -0.708792 0
M  V30 1266 C 128.774 1.94991 0.808807 0
M  V30 1267 O 128.122 1.50085 1.72298 0
M  V30 1268 C 128.332 3.18695 -1.42247 0
M  V30 1269 C 129.68 3.94341 -1.57417 0
M  V30 1270 O 130.704 3.28247 -1.38319 0
M  V30 1271 O 129.563 5.12839 -1.88834 0
M  V30 1272 H 126.657 0.787628 -0.252132 0
M  V30 1273 H 129.203 1.22559 -1.17377 0
M  V30 1274 H 127.975 3.04557 -2.45684 0
M  V30 1275 H 127.598 3.86128 -0.948223 0
M  V30 1276 N 128.595 0.856903 1.32268 0
M  V30 1277 C 129.528 0.247937 2.26849 0
M  V30 1278 C 130.506 -0.615382 1.50505 0
M  V30 1279 O 131.69 -0.571689 1.79622 0
M  V30 1280 C 128.817 -0.650093 3.32403 0
M  V30 1281 C 127.863 0.140138 4.2627 0
M  V30 1282 S 128.696 1.51004 5.13769 0
M  V30 1283 C 129.852 0.61778 6.22844 0
M  V30 1284 H 130.085 1.04971 2.78152 0
M  V30 1285 H 127.618 0.654665 1.39834 0
M  V30 1286 H 129.576 -1.16256 3.93694 0
M  V30 1287 H 128.237 -1.4257 2.7988 0
M  V30 1288 H 127.43 -0.543945 5.01056 0
M  V30 1289 H 127.032 0.584267 3.69408 0
M  V30 1290 H 129.324 -0.177053 6.77269 0
M  V30 1291 H 130.267 1.33636 6.95375 0
M  V30 1292 H 130.675 0.191124 5.64176 0
M  V30 1293 N 130.073 -1.45103 0.615059 0
M  V30 1294 C 131.036 -2.29025 -0.0895485 0
M  V30 1295 C 132.036 -1.40174 -0.787906 0
M  V30 1296 O 133.226 -1.62217 -0.634933 0
M  V30 1297 C 130.358 -3.21376 -1.13711 0
M  V30 1298 H 131.551 -2.92807 0.648382 0
M  V30 1299 H 129.104 -1.51749 0.374444 0
M  V30 1300 H 129.839 -2.6241 -1.90556 0
M  V30 1301 H 129.624 -3.86834 -0.640475 0
M  V30 1302 H 131.114 -3.84459 -1.63036 0
M  V30 1303 N 131.551 -0.354651 -1.53558 0
M  V30 1304 C 132.967 -0.00315426 -1.596 0
M  V30 1305 C 133.167 1.47741 -1.37021 0
M  V30 1306 O 132.223 2.23759 -1.16996 0
M  V30 1307 C 133.536 -0.44929 -2.97325 0
M  V30 1308 C 135.084 -0.402578 -3.104 0
M  V30 1309 C 135.559 -0.824355 -4.5052 0
M  V30 1310 N 137.05 -0.778979 -4.56603 0
M  V30 1311 C 137.785 -1.07715 -5.63192 0
M  V30 1312 N 137.281 -1.44405 -6.77583 0
M  V30 1313 N 139.074 -1.00066 -5.53121 0
M  V30 1314 H 131.225 -1.31893 -1.66487 0
M  V30 1315 H 133.488 -0.538388 -0.780284 0
M  V30 1316 H 133.194 -1.48202 -3.1895 0
M  V30 1317 H 133.068 0.169772 -3.76818 0
M  V30 1318 H 135.455 0.621004 -2.88492 0
M  V30 1319 H 135.536 -1.05699 -2.32941 0
M  V30 1320 H 135.18 -1.846 -4.73165 0
M  V30 1321 H 135.11 -0.147304 -5.26394 0
M  V30 1322 H 137.601 -0.508528 -3.74463 0
M  V30 1323 H 137.914 -1.65612 -7.54846 0
M  V30 1324 H 136.259 -1.4826 -6.79002 0
M  V30 1325 H 139.45 -0.713293 -4.62633 0
M  V30 1326 H 139.623 -1.23638 -6.36096 0
M  V30 1327 N 133.029 1.57378 -0.0835403 0
M  V30 1328 C 133.959 2.1641 0.87686 0
M  V30 1329 C 134.94 1.09429 1.30228 0
M  V30 1330 O 136.125 1.37516 1.37124 0
M  V30 1331 C 133.255 2.73517 2.14022 0
M  V30 1332 C 132.209 3.85769 1.85381 0
M  V30 1333 C 131.535 4.29529 3.18448 0
M  V30 1334 C 132.835 5.09486 1.14984 0
M  V30 1335 H 134.529 2.96914 0.385059 0
M  V30 1336 H 132.075 1.42823 0.18377 0
M  V30 1337 H 134.028 3.13463 2.81636 0
M  V30 1338 H 132.752 1.90252 2.65465 0
M  V30 1339 H 131.411 3.46345 1.20169 0
M  V30 1340 H 131.059 3.43169 3.67755 0
M  V30 1341 H 130.759 5.05204 3.00071 0
M  V30 1342 H 132.283 4.72099 3.8724 0
M  V30 1343 H 133.697 5.46674 1.72687 0
M  V30 1344 H 132.094 5.90515 1.06826 0
M  V30 1345 H 133.164 4.84724 0.130749 0
M  V30 1346 N 134.507 -0.190092 1.56449 0
M  V30 1347 C 135.784 -0.935886 1.71757 0
M  V30 1348 C 136.164 -2.01173 0.639726 0
M  V30 1349 O 135.512 -2.25827 -0.348502 0
M  V30 1350 C 135.722 -1.51775 3.1427 0
M  V30 1351 C 137.07 -1.99794 3.74656 0
M  V30 1352 O 138.094 -1.61607 3.1743 0
M  V30 1353 O 136.953 -2.70079 4.751 0
M  V30 1354 H 134.047 -0.439229 0.700719 0
M  V30 1355 H 136.593 -0.179395 1.68749 0
M  V30 1356 H 135.365 -0.742505 3.84191 0
M  V30 1357 H 134.988 -2.33894 3.21527 0
M  V30 1358 N 135.985 -1.50799 -0.457987 0
M  V30 1359 C 137.232 -1.62442 -1.20908 0
M  V30 1360 C 137.56 -0.330865 -1.91665 0
M  V30 1361 O 136.815 0.68401 -1.83357 0
M  V30 1362 C 137.114 -2.76358 -2.2663 0
M  V30 1363 C 136.78 -4.16378 -1.73033 0
M  V30 1364 C 135.442 -4.54473 -1.58138 0
M  V30 1365 C 137.794 -5.03836 -1.33413 0
M  V30 1366 C 135.122 -5.77754 -1.02065 0
M  V30 1367 C 137.474 -6.27676 -0.78778 0
M  V30 1368 C 136.138 -6.64562 -0.625561 0
M  V30 1369 H 135.408 -0.594417 -0.442435 0
M  V30 1370 H 138.055 -1.84772 -0.503136 0
M  V30 1371 H 136.36 -2.48167 -3.03184 0
M  V30 1372 H 138.057 -2.82568 -2.84528 0
M  V30 1373 H 134.647 -3.86331 -1.85598 0
M  V30 1374 H 138.831 -4.75026 -1.4375 0
M  V30 1375 H 134.087 -6.04997 -0.882547 0
M  V30 1376 H 138.261 -6.94797 -0.472177 0
M  V30 1377 H 135.888 -7.59965 -0.188926 0
M  V30 1378 N 137.463 0.71206 -1.40597 0
M  V30 1379 C 138.411 1.84746 -1.41321 0
M  V30 1380 C 139.405 1.66842 -0.293268 0
M  V30 1381 O 140.611 1.73904 -0.464481 0
M  V30 1382 H 136.986 0.608522 -0.441819 0
M  V30 1383 H 138.957 1.81252 -2.37045 0
M  V30 1384 C 137.706 3.22638 -1.29614 0
M  V30 1385 H 137.029 3.37023 -2.15071 0
M  V30 1386 H 138.469 4.02209 -1.3418 0
M  V30 1387 C 136.928 3.36899 -0.00673121 0
M  V30 1388 O 137.458 3.90186 0.954859 0
M  V30 1389 N 135.664 2.9053 0.0639327 0
M  V30 1390 H 135.211 2.47353 -0.719311 0
M  V30 1391 H 135.169 3.0045 0.926118 0
M  V30 1392 N 138.941 1.26152 0.944643 0
M  V30 1393 C 139.871 1.09902 2.06019 0
M  V30 1394 C 140.852 0.00519538 1.70099 0
M  V30 1395 O 142.037 0.176583 1.93396 0
M  V30 1396 C 139.167 0.727562 3.39594 0
M  V30 1397 C 138.121 1.77274 3.89561 0
M  V30 1398 C 137.447 1.25569 5.19747 0
M  V30 1399 C 138.747 3.17357 4.14827 0
M  V30 1400 H 140.441 2.03217 2.19871 0
M  V30 1401 H 137.987 0.978452 1.05652 0
M  V30 1402 H 139.94 0.600777 4.17095 0
M  V30 1403 H 138.664 -0.241287 3.25707 0
M  V30 1404 H 137.323 1.88814 3.14237 0
M  V30 1405 H 136.971 0.276783 5.02238 0
M  V30 1406 H 136.671 1.95433 5.54148 0
M  V30 1407 H 138.195 1.1415 5.99835 0
M  V30 1408 H 139.609 3.08914 4.82954 0
M  V30 1409 H 138.006 3.84781 4.60504 0
M  V30 1410 H 139.076 3.63673 3.20734 0
M  V30 1411 N 140.419 -1.14872 1.07899 0
M  V30 1412 C 141.668 -1.85135 0.800499 0
M  V30 1413 C 141.981 -1.83547 -0.676014 0
M  V30 1414 O 143.187 -2.49548 -1.06948 0
M  V30 1415 C 141.643 -3.3231 1.38197 0
M  V30 1416 C 141.251 -3.42329 2.8899 0
M  V30 1417 C 142.995 -4.0772 1.18174 0
M  V30 1418 C 140.902 -4.83684 3.403 0
M  V30 1419 H 139.832 -0.693563 0.29578 0
M  V30 1420 H 142.483 -1.29532 1.29976 0
M  V30 1421 H 140.865 -3.87618 0.810431 0
M  V30 1422 H 142.039 -2.97097 3.52236 0
M  V30 1423 H 140.354 -2.80369 3.07867 0
M  V30 1424 H 142.951 -5.12049 1.5398 0
M  V30 1425 H 143.294 -4.16124 0.12117 0
M  V30 1426 H 143.827 -3.58696 1.71994 0
M  V30 1427 H 140.566 -4.80465 4.45907 0
M  V30 1428 H 140.086 -5.29474 2.81811 0
M  V30 1429 H 141.765 -5.52558 3.36584 0
M  V30 1430 N 141.898 -0.863906 -1.31812 0
M  V30 1431 C 143.314 -0.555004 -1.49639 0
M  V30 1432 C 143.514 0.912266 -1.79666 0
M  V30 1433 O 142.57 1.69479 -1.87171 0
M  V30 1434 C 143.883 -1.44998 -2.63431 0
M  V30 1435 C 145.431 -1.45138 -2.77316 0
M  V30 1436 C 145.906 -2.33179 -3.94197 0
M  V30 1437 N 147.397 -2.31025 -4.01474 0
M  V30 1438 C 148.132 -2.95871 -4.9117 0
M  V30 1439 N 147.628 -3.69863 -5.8581 0
M  V30 1440 N 149.421 -2.85211 -4.84367 0
M  V30 1441 H 141.572 -1.81339 -1.10589 0
M  V30 1442 H 143.835 -0.77505 -0.545895 0
M  V30 1443 H 143.541 -2.49377 -2.48 0
M  V30 1444 H 143.415 -1.14409 -3.59431 0
M  V30 1445 H 145.802 -0.415201 -2.92164 0
M  V30 1446 H 145.883 -1.79747 -1.82001 0
M  V30 1447 H 145.527 -3.3687 -3.80107 0
M  V30 1448 H 145.457 -1.95897 -4.88807 0
M  V30 1449 H 147.948 -1.77238 -3.33759 0
M  V30 1450 H 148.261 -4.16486 -6.50968 0
M  V30 1451 H 146.606 -3.73971 -5.85808 0
M  V30 1452 H 149.797 -2.26948 -4.09405 0
M  V30 1453 H 149.97 -3.36027 -5.54066 0
M  V30 1454 N 143.376 1.44774 -0.622745 0
M  V30 1455 C 144.622 2.0242 -0.124083 0
M  V30 1456 C 144.955 1.4881 1.24777 0
M  V30 1457 O 144.23 0.668799 1.8264 0
M  V30 1458 C 144.513 3.59957 -0.101619 0
M  V30 1459 C 144.366 4.23867 -1.50521 0
M  V30 1460 C 145.685 4.36284 0.578272 0
M  V30 1461 H 142.804 0.735528 -0.0465645 0
M  V30 1462 H 145.446 1.72447 -0.797617 0
M  V30 1463 H 143.596 3.85623 0.471934 0
M  V30 1464 H 145.268 4.09336 -2.12701 0
M  V30 1465 H 143.511 3.81684 -2.06154 0
M  V30 1466 H 144.182 5.32843 -1.4416 0
M  V30 1467 H 146.658 4.16001 0.0906057 0
M  V30 1468 H 145.534 5.46004 0.563149 0
M  V30 1469 H 145.795 4.10271 1.64713 0
M  V30 1470 N 144.854 0.36279 1.53368 0
M  V30 1471 C 146.1 -0.228113 2.01513 0
M  V30 1472 C 146.433 -1.48648 1.2497 0
M  V30 1473 O 145.708 -1.91459 0.342616 0
M  V30 1474 C 145.991 -0.522884 3.56284 0
M  V30 1475 C 145.844 0.74892 4.43521 0
M  V30 1476 C 147.163 -1.32461 4.19693 0
M  V30 1477 H 144.282 -0.0814343 0.732487 0
M  V30 1478 H 146.924 0.48713 1.83649 0
M  V30 1479 H 145.074 -1.1322 3.71636 0
M  V30 1480 H 146.746 1.38648 4.39971 0
M  V30 1481 H 144.989 1.36986 4.11603 0
M  V30 1482 H 145.66 0.497667 5.49752 0
M  V30 1483 H 148.136 -0.809203 4.08156 0
M  V30 1484 H 147.012 -1.49961 5.28018 0
M  V30 1485 H 147.273 -2.33232 3.75573 0
M  V30 1486 N 146.332 -1.57332 0.0918853 0
M  V30 1487 C 147.295 -2.12708 -0.85369 0
M  V30 1488 C 148.295 -1.05561 -1.213 0
M  V30 1489 O 149.485 -1.31461 -1.14296 0
M  V30 1490 C 146.617 -2.64503 -2.15061 0
M  V30 1491 H 147.81 -2.97573 -0.3729 0
M  V30 1492 H 145.363 -1.55509 -0.157072 0
M  V30 1493 H 146.098 -1.83149 -2.67632 0
M  V30 1494 H 145.883 -3.4284 -1.90272 0
M  V30 1495 H 147.373 -3.07351 -2.82711 0
M  V30 1496 N 147.81 0.181792 -1.56548 0
M  V30 1497 C 149.05 0.906711 -1.83189 0
M  V30 1498 C 149.414 1.79882 -0.671312 0
M  V30 1499 O 150.615 2.56054 -0.81792 0
M  V30 1500 C 148.886 1.69023 -3.14906 0
M  V30 1501 S 150.445 2.46535 -3.62996 0
M  V30 1502 H 147.263 0.303877 -0.642791 0
M  V30 1503 H 149.865 0.169107 -1.94767 0
M  V30 1504 H 148.569 1.02571 -3.97376 0
M  V30 1505 H 148.1 2.46941 -3.06241 0
M  V30 1506 H 150.115 3.71014 -3.29489 0
M  V30 1507 N 149.288 1.51039 0.449983 0
M  V30 1508 C 150.236 1.71995 1.5659 0
M  V30 1509 C 151.23 0.586029 1.5894 0
M  V30 1510 O 152.436 0.76709 1.62837 0
M  V30 1511 H 148.811 0.543233 0.520001 0
M  V30 1512 H 150.782 2.65562 1.36085 0
M  V30 1513 C 149.531 1.8506 2.9436 0
M  V30 1514 H 148.854 2.71712 2.93279 0
M  V30 1515 H 150.294 2.0374 3.71842 0
M  V30 1516 C 148.753 0.607277 3.31382 0
M  V30 1517 O 149.283 -0.243903 4.00959 0
M  V30 1518 N 147.489 0.455073 2.87015 0
M  V30 1519 H 147.036 1.14879 2.30566 0
M  V30 1520 H 146.994 -0.375611 3.12148 0
M  V30 1521 N 150.766 -0.704594 1.40972 0
M  V30 1522 C 151.696 -1.83124 1.44872 0
M  V30 1523 C 152.677 -1.67281 0.30838 0
M  V30 1524 O 153.862 -1.87149 0.518556 0
M  V30 1525 C 150.992 -3.21181 1.32136 0
M  V30 1526 C 149.946 -3.51714 2.43888 0
M  V30 1527 C 149.272 -4.89032 2.16222 0
M  V30 1528 C 150.572 -3.516 3.86232 0
M  V30 1529 H 152.266 -1.80117 2.39161 0
M  V30 1530 H 149.812 -0.865145 1.15114 0
M  V30 1531 H 151.765 -3.99702 1.33479 0
M  V30 1532 H 150.489 -3.24791 0.343279 0
M  V30 1533 H 149.148 -2.75539 2.41813 0
M  V30 1534 H 148.796 -4.89256 1.16778 0
M  V30 1535 H 148.496 -5.10426 2.911 0
M  V30 1536 H 150.02 -5.69873 2.19265 0
M  V30 1537 H 151.434 -4.2014 3.9007 0
M  V30 1538 H 149.831 -3.84523 4.60719 0
M  V30 1539 H 150.901 -2.50757 4.15029 0
M  V30 1540 N 152.244 -1.26651 -0.937939 0
M  V30 1541 C 153.474 -1.15006 -1.71631 0
M  V30 1542 C 153.882 0.297026 -1.86854 0
M  V30 1543 O 153.225 1.21493 -1.37786 0
M  V30 1544 C 153.287 -1.74984 -3.14039 0
M  V30 1545 C 152.951 -3.24103 -3.2219 0
M  V30 1546 C 153.948 -4.20877 -3.05219 0
M  V30 1547 C 151.633 -3.64625 -3.45476 0
M  V30 1548 C 153.627 -5.56151 -3.11408 0
M  V30 1549 C 151.314 -5.00032 -3.513 0
M  V30 1550 C 152.312 -5.95604 -3.34282 0
M  V30 1551 O 152 -7.28545 -3.3982 0
M  V30 1552 H 151.732 -0.401183 -0.544085 0
M  V30 1553 H 154.286 -1.67832 -1.18413 0
M  V30 1554 H 152.516 -1.16624 -3.68695 0
M  V30 1555 H 154.205 -1.58199 -3.73802 0
M  V30 1556 H 154.971 -3.90908 -2.87081 0
M  V30 1557 H 150.85 -2.90718 -3.57777 0
M  V30 1558 H 154.394 -6.30727 -2.98043 0
M  V30 1559 H 150.291 -5.29659 -3.68959 0
M  V30 1560 H 151.059 -7.3686 -3.56343 0
M  V30 1561 N 153.722 1.14298 -1.08507 0
M  V30 1562 C 155.133 1.66926 -0.836227 0
M  V30 1563 C 155.484 1.85576 0.63686 0
M  V30 1564 O 154.609 1.56767 1.49175 0
M  V30 1565 C 155.204 3.03219 -1.51142 0
M  V30 1566 C 153.763 3.52876 -1.30979 0
M  V30 1567 C 152.91 2.2833 -1.57356 0
M  V30 1568 H 155.861 0.983491 -1.24552 0
M  V30 1569 H 155.882 3.68726 -0.939211 0
M  V30 1570 H 155.394 2.89612 -2.58353 0
M  V30 1571 H 153.495 3.71703 -0.258429 0
M  V30 1572 H 153.608 4.33586 -2.03814 0
M  V30 1573 H 151.972 2.34454 -0.995164 0
M  V30 1574 H 152.755 2.17298 -2.65775 0
M  V30 1575 N 155.201 0.870884 1.31352 0
M  V30 1576 C 156.448 0.482273 1.96673 0
M  V30 1577 C 156.776 -0.965638 1.68836 0
M  V30 1578 O 156.031 -1.69514 0.977937 0
M  V30 1579 C 156.33 0.687157 3.50732 0
M  V30 1580 C 155.996 2.108 3.9859 0
M  V30 1581 C 154.658 2.49656 4.1137 0
M  V30 1582 C 157.01 3.03459 4.23748 0
M  V30 1583 C 154.338 3.80412 4.46659 0
M  V30 1584 C 156.69 4.3373 4.60501 0
M  V30 1585 C 155.354 4.725 4.71487 0
M  V30 1586 H 154.624 0.176476 0.719679 0
M  V30 1587 H 157.271 1.10405 1.56471 0
M  V30 1588 H 155.576 -0.0177476 3.91796 0
M  V30 1589 H 157.273 0.366284 3.99324 0
M  V30 1590 H 153.863 1.79633 3.8914 0
M  V30 1591 H 158.047 2.74665 4.13368 0
M  V30 1592 H 153.303 4.1021 4.53362 0
M  V30 1593 H 157.477 5.05578 4.78919 0
M  V30 1594 H 155.104 5.73859 4.98588 0
M  V30 1595 N 156.679 -1.44442 0.630414 0
M  V30 1596 C 157.925 -2.02351 0.134816 0
M  V30 1597 C 158.258 -1.4947 -1.23986 0
M  V30 1598 O 157.533 -0.678475 -1.82283 0
M  V30 1599 C 157.816 -3.59898 0.120707 0
M  V30 1600 C 157.669 -4.23063 1.52767 0
M  V30 1601 C 158.988 -4.36585 -0.555127 0
M  V30 1602 H 156.107 -0.73527 0.0504646 0
M  V30 1603 H 158.749 -1.72022 0.806751 0
M  V30 1604 H 156.899 -3.85868 -0.451477 0
M  V30 1605 H 158.571 -4.08202 2.14869 0
M  V30 1606 H 156.814 -3.80586 2.08175 0
M  V30 1607 H 157.485 -5.32071 1.46984 0
M  V30 1608 H 159.961 -4.16044 -0.0685429 0
M  V30 1609 H 158.837 -5.46294 -0.534185 0
M  V30 1610 H 159.098 -4.11138 -1.62535 0
M  V30 1611 N 158.157 -0.370918 -1.53173 0
M  V30 1612 C 159.104 0.473035 -2.259 0
M  V30 1613 C 160.074 1.07311 -1.26781 0
M  V30 1614 O 161.259 1.1046 -1.55574 0
M  V30 1615 C 158.399 1.60405 -3.05556 0
M  V30 1616 C 157.512 1.02863 -4.19575 0
M  V30 1617 C 156.647 2.12918 -4.86661 0
M  V30 1618 C 155.686 1.52869 -5.92704 0
M  V30 1619 N 154.823 2.56779 -6.53459 0
M  V30 1620 H 159.663 -0.153649 -2.97604 0
M  V30 1621 H 157.2 -0.0875946 -1.46839 0
M  V30 1622 H 159.158 2.27034 -3.50016 0
M  V30 1623 H 157.788 2.20131 -2.36097 0
M  V30 1624 H 156.84 0.252465 -3.79561 0
M  V30 1625 H 158.152 0.549642 -4.95762 0
M  V30 1626 H 157.306 2.87356 -5.34333 0
M  V30 1627 H 156.045 2.6417 -4.09958 0
M  V30 1628 H 155.05 0.769479 -5.44389 0
M  V30 1629 H 156.275 1.02435 -6.7133 0
M  V30 1630 H 154.221 3.07235 -5.79606 0
M  V30 1631 H 154.138 2.13583 -7.25202 0
M  V30 1632 H 155.406 3.30903 -7.05779 0
M  V30 1633 N 159.635 1.57281 -0.100228 0
M  V30 1634 C 160.863 1.98879 0.570509 0
M  V30 1635 C 161.278 0.979476 1.61405 0
M  V30 1636 O 160.635 -0.0302288 1.82475 0
M  V30 1637 C 160.686 3.4052 1.2136 0
M  V30 1638 O 160.407 4.37588 0.211786 0
M  V30 1639 C 161.908 3.97149 1.96945 0
M  V30 1640 H 159.128 0.653428 0.152555 0
M  V30 1641 H 161.672 2.03697 -0.18103 0
M  V30 1642 H 159.827 3.367 1.91603 0
M  V30 1643 H 160.241 5.20118 0.676607 0
M  V30 1644 H 161.715 4.98393 2.37294 0
M  V30 1645 H 162.192 3.3525 2.83733 0
M  V30 1646 H 162.798 4.04458 1.31506 0
M  V30 1647 N 161.113 -0.173488 1.56642 0
M  V30 1648 C 162.359 -0.891784 1.8214 0
M  V30 1649 C 162.692 -1.8199 0.677736 0
M  V30 1650 O 161.967 -1.91842 -0.320446 0
M  V30 1651 C 162.25 -1.68933 3.18015 0
M  V30 1652 C 162.103 -0.784487 4.42906 0
M  V30 1653 C 163.422 -2.65748 3.50808 0
M  V30 1654 H 160.541 -0.322761 0.662567 0
M  V30 1655 H 163.183 -0.158095 1.89341 0
M  V30 1656 H 161.333 -2.31482 3.12007 0
M  V30 1657 H 163.005 -0.172046 4.60979 0
M  V30 1658 H 161.248 -0.0924117 4.33702 0
M  V30 1659 H 161.919 -1.37799 5.34524 0
M  V30 1660 H 164.395 -2.13327 3.57255 0
M  V30 1661 H 163.271 -3.18619 4.4696 0
M  V30 1662 H 163.532 -3.45842 2.75401 0
M  V30 1663 N 162.591 -1.51276 -0.441967 0
M  V30 1664 C 163.554 -1.7167 -1.51862 0
M  V30 1665 C 164.554 -0.586793 -1.49711 0
M  V30 1666 O 165.744 -0.854276 -1.51815 0
M  V30 1667 C 162.876 -1.76889 -2.91416 0
M  V30 1668 H 164.069 -2.67754 -1.35084 0
M  V30 1669 H 161.622 -1.41196 -0.670333 0
M  V30 1670 H 162.357 -0.826026 -3.13604 0
M  V30 1671 H 162.142 -2.59001 -2.94382 0
M  V30 1672 H 163.632 -1.94522 -3.69528 0
M  V30 1673 N 164.069 0.697108 -1.41344 0
M  V30 1674 C 165.294 1.49096 -1.44171 0
M  V30 1675 C 165.719 1.88038 -0.0481568 0
M  V30 1676 O 165.077 1.54525 0.948243 0
M  V30 1677 C 165.125 2.73088 -2.3549 0
M  V30 1678 O 164.229 3.70514 -1.81088 0
M  V30 1679 H 163.57 0.448801 -0.489361 0
M  V30 1680 H 166.1 0.856992 -1.85787 0
M  V30 1681 H 166.11 3.21413 -2.51312 0
M  V30 1682 H 164.785 2.44081 -3.36745 0
M  V30 1683 H 163.362 3.29441 -1.74708 0
M  V30 1684 N 165.547 1.27147 0.931209 0
M  V30 1685 C 166.958 1.12044 1.49342 0
M  V30 1686 C 167.309 -0.295795 1.93957 0
M  V30 1687 O 166.434 -1.18835 1.80852 0
M  V30 1688 C 167.029 2.02781 2.71414 0
M  V30 1689 C 165.588 1.91794 3.2387 0
M  V30 1690 C 164.735 1.95543 1.96617 0
M  V30 1691 H 167.686 1.40091 0.745672 0
M  V30 1692 H 167.707 1.58156 3.46074 0
M  V30 1693 H 167.219 3.05848 2.38911 0
M  V30 1694 H 165.32 0.916992 3.6114 0
M  V30 1695 H 165.433 2.77852 3.90302 0
M  V30 1696 H 163.797 1.39722 2.12955 0
M  V30 1697 H 164.58 3.00259 1.66432 0
M  V30 1698 N 167.025 -1.13721 1.09112 0
M  V30 1699 C 168.273 -1.84559 0.823562 0
M  V30 1700 C 168.594 -1.83754 -0.652658 0
M  V30 1701 O 167.864 -1.29102 -1.47342 0
M  V30 1702 H 166.444 -0.683376 0.301673 0
M  V30 1703 H 169.106 -1.37771 1.37859 0
M  V30 1704 H 168.202 -2.8917 1.17419 0
M  V30 1705 N 168.503 -0.877838 -1.30888 0
M  V30 1706 C 169.749 -0.493426 -1.96706 0
M  V30 1707 C 170.082 0.953504 -1.6918 0
M  V30 1708 O 169.357 1.67266 -0.992594 0
M  V30 1709 C 169.64 -0.760429 -3.51979 0
M  V30 1710 C 169.493 -2.25747 -3.89048 0
M  V30 1711 C 170.812 -0.232148 -4.39487 0
M  V30 1712 H 167.931 -0.180746 -0.714493 0
M  V30 1713 H 170.573 -1.10052 -1.54882 0
M  V30 1714 H 168.723 -0.243715 -3.87735 0
M  V30 1715 H 170.395 -2.84204 -3.63354 0
M  V30 1716 H 168.638 -2.72694 -3.37373 0
M  V30 1717 H 169.309 -2.39491 -4.97341 0
M  V30 1718 H 171.785 -0.674314 -4.106 0
M  V30 1719 H 170.661 -0.448355 -5.47066 0
M  V30 1720 H 170.922 0.866297 -4.33529 0
M  V30 1721 N 169.982 1.44106 -0.638065 0
M  V30 1722 C 171.21 2.06336 -0.152615 0
M  V30 1723 C 171.625 1.47731 1.17563 0
M  V30 1724 O 170.982 0.602806 1.72257 0
M  V30 1725 C 171.033 3.61479 -0.0391491 0
M  V30 1726 O 170.754 4.17903 -1.31487 0
M  V30 1727 C 172.255 4.40757 0.474176 0
M  V30 1728 H 169.475 0.665862 -0.0828776 0
M  V30 1729 H 172.019 1.84862 -0.87443 0
M  V30 1730 H 170.174 3.82191 0.633142 0
M  V30 1731 H 170.588 5.11416 -1.16421 0
M  V30 1732 H 172.062 5.49707 0.502562 0
M  V30 1733 H 172.539 4.12697 1.50258 0
M  V30 1734 H 173.145 4.24979 -0.165102 0
M  V30 1735 N 171.46 0.379036 1.52974 0
M  V30 1736 C 172.706 -0.206727 2.01744 0
M  V30 1737 C 173.039 -1.47314 1.26539 0
M  V30 1738 O 172.314 -1.91084 0.362903 0
M  V30 1739 C 172.597 -0.485066 3.56818 0
M  V30 1740 C 172.45 0.795919 4.42702 0
M  V30 1741 C 173.769 -1.28003 4.21074 0
M  V30 1742 H 170.888 -0.0736607 0.73331 0
M  V30 1743 H 173.53 0.506581 1.83122 0
M  V30 1744 H 171.68 -1.09272 3.72816 0
M  V30 1745 H 173.352 1.43307 4.38476 0
M  V30 1746 H 171.595 1.41344 4.10127 0
M  V30 1747 H 172.266 0.555947 5.49193 0
M  V30 1748 H 174.742 -0.765867 4.08991 0
M  V30 1749 H 173.618 -1.44352 5.29579 0
M  V30 1750 H 173.879 -2.29236 3.78026 0
M  V30 1751 N 172.938 -1.57226 0.108567 0
M  V30 1752 C 173.848 -2.18292 -0.859401 0
M  V30 1753 C 174.864 -1.15612 -1.30038 0
M  V30 1754 O 176.04 -1.48039 -1.36552 0
M  V30 1755 C 173.105 -2.762 -2.09558 0
M  V30 1756 C 172.166 -3.93881 -1.70752 0
M  V30 1757 C 171.399 -4.49018 -2.88477 0
M  V30 1758 O 171.622 -4.03068 -4.036 0
M  V30 1759 O 170.556 -5.39852 -2.66164 0
M  V30 1760 H 174.382 -3.01441 -0.369769 0
M  V30 1761 H 171.967 -1.48945 -0.1165 0
M  V30 1762 H 173.849 -3.13156 -2.81978 0
M  V30 1763 H 172.524 -1.96089 -2.57548 0
M  V30 1764 H 171.431 -3.61713 -0.954714 0
M  V30 1765 H 172.764 -4.75396 -1.27513 0
M  V30 1766 N 174.416 0.165178 -1.56732 0
M  V30 1767 C 175.326 1.22423 -2.00125 0
M  V30 1768 C 176.342 1.48084 -0.913619 0
M  V30 1769 O 177.518 1.60112 -1.22172 0
M  V30 1770 C 174.583 2.54197 -2.35764 0
M  V30 1771 C 173.644 2.36343 -3.58386 0
M  V30 1772 C 172.877 3.61834 -3.92316 0
M  V30 1773 O 173.1 4.67267 -3.27135 0
M  V30 1774 O 172.034 3.55579 -4.85641 0
M  V30 1775 H 175.86 0.885886 -2.90492 0
M  V30 1776 H 173.445 0.372518 -1.44681 0
M  V30 1777 H 175.327 3.3192 -2.59629 0
M  V30 1778 H 174.002 2.87598 -1.48557 0
M  V30 1779 H 172.909 1.56632 -3.39731 0
M  V30 1780 H 174.242 2.07865 -4.46154 0
M  V30 1781 N 175.894 1.51508 0.433938 0
M  V30 1782 C 176.857 1.72473 1.50949 0
M  V30 1783 C 177.857 0.594725 1.49398 0
M  V30 1784 O 179.047 0.862315 1.5136 0
M  V30 1785 C 176.179 1.78431 2.90474 0
M  V30 1786 H 177.372 2.68467 1.33662 0
M  V30 1787 H 174.925 1.41549 0.662836 0
M  V30 1788 H 175.66 0.842645 3.13161 0
M  V30 1789 H 175.445 2.60558 2.93005 0
M  V30 1790 H 176.935 1.96479 3.68491 0
M  V30 1791 N 177.372 -0.689602 1.41712 0
M  V30 1792 C 178.618 -1.45181 1.41599 0
M  V30 1793 C 178.951 -1.94181 0.0270081 0
M  V30 1794 O 178.226 -1.6993 -0.946265 0
M  V30 1795 C 178.509 -2.65945 2.42787 0
M  V30 1796 C 178.362 -2.22672 3.90816 0
M  V30 1797 C 179.681 -3.68149 2.41151 0
M  V30 1798 H 176.8 -0.526576 0.515642 0
M  V30 1799 H 179.442 -0.784947 1.73028 0
M  V30 1800 H 177.592 -3.2284 2.16116 0
M  V30 1801 H 179.264 -1.71058 4.28412 0
M  V30 1802 H 177.507 -1.54394 4.05395 0
M  V30 1803 H 178.178 -3.0935 4.57172 0
M  V30 1804 H 180.654 -3.2094 2.64834 0
M  V30 1805 H 179.53 -4.50248 3.13955 0
M  V30 1806 H 179.791 -4.18259 1.43221 0
M  V30 1807 N 178.85 -1.27639 -0.924453 0
M  V30 1808 C 179.76 -1.12466 -2.05885 0
M  V30 1809 C 180.776 -0.053869 -1.73917 0
M  V30 1810 O 181.952 -0.261012 -1.99702 0
M  V30 1811 C 179.017 -0.776768 -3.37886 0
M  V30 1812 C 178.078 -1.92878 -3.83532 0
M  V30 1813 C 177.311 -1.59739 -5.09234 0
M  V30 1814 O 177.534 -0.506782 -5.68144 0
M  V30 1815 O 176.468 -2.43761 -5.50331 0
M  V30 1816 H 180.294 -2.07671 -2.21599 0
M  V30 1817 H 177.879 -1.06857 -1.04413 0
M  V30 1818 H 179.761 -0.596229 -4.17161 0
M  V30 1819 H 178.436 0.145732 -3.23372 0
M  V30 1820 H 177.343 -2.1644 -3.0513 0
M  V30 1821 H 178.676 -2.8316 -4.02593 0
M  V30 1822 N 180.328 1.1314 -1.09713 0
M  V30 1823 C 181.26 2.18343 -0.697056 0
M  V30 1824 C 182.273 1.60669 0.262551 0
M  V30 1825 O 183.462 1.78435 0.0481527 0
M  V30 1826 C 180.562 3.38899 -0.00684728 0
M  V30 1827 C 179.735 4.26078 -0.988741 0
M  V30 1828 C 178.794 5.25155 -0.331394 0
M  V30 1829 O 177.82 5.60701 -0.979926 0
M  V30 1830 N 179.022 5.73271 0.913261 0
M  V30 1831 H 181.787 2.5328 -1.60216 0
M  V30 1832 H 179.348 1.28491 -0.984971 0
M  V30 1833 H 181.34 4.02255 0.444191 0
M  V30 1834 H 179.91 3.02175 0.800551 0
M  V30 1835 H 179.13 3.59453 -1.61826 0
M  V30 1836 H 180.418 4.81178 -1.65364 0
M  V30 1837 H 179.816 5.46544 1.45966 0
M  V30 1838 H 178.373 6.3855 1.30757 0
M  V30 1839 N 181.806 0.884767 1.30421 0
M  V30 1840 C 183.055 0.499164 1.95426 0
M  V30 1841 C 183.368 -0.95645 1.70621 0
M  V30 1842 O 184.574 -1.44889 2.29607 0
M  V30 1843 C 183.03 0.84177 3.49917 0
M  V30 1844 C 182.638 2.31514 3.83543 0
M  V30 1845 C 184.382 0.525355 4.21237 0
M  V30 1846 C 182.289 2.59939 5.31212 0
M  V30 1847 H 181.219 0.182944 0.73147 0
M  V30 1848 H 183.87 1.07971 1.48373 0
M  V30 1849 H 182.252 0.190311 3.95542 0
M  V30 1850 H 183.426 3.0109 3.48829 0
M  V30 1851 H 181.741 2.59907 3.25326 0
M  V30 1852 H 184.338 0.714762 5.29901 0
M  V30 1853 H 184.681 -0.535222 4.12845 0
M  V30 1854 H 185.214 1.134 3.81294 0
M  V30 1855 H 181.953 3.64736 5.44654 0
M  V30 1856 H 181.473 1.94972 5.67227 0
M  V30 1857 H 183.152 2.45429 5.98643 0
M  V30 1858 N 183.284 -1.43765 0.645699 0
M  V30 1859 C 184.561 -1.9541 0.0862963 0
M  V30 1860 C 184.941 -1.58725 -1.39175 0
M  V30 1861 O 184.289 -0.868581 -2.11348 0
M  V30 1862 C 184.499 -3.47488 0.324565 0
M  V30 1863 C 185.847 -4.24001 0.225497 0
M  V30 1864 O 186.871 -3.55274 0.256715 0
M  V30 1865 O 185.73 -5.46313 0.142801 0
M  V30 1866 H 182.824 -0.826882 -0.0139483 0
M  V30 1867 H 185.37 -1.53743 0.718415 0
M  V30 1868 H 184.142 -3.67289 1.3496 0
M  V30 1869 H 183.765 -3.96135 -0.340987 0
M  V30 1870 N 184.763 -0.387143 -1.52771 0
M  V30 1871 C 186.012 0.19697 -2.00736 0
M  V30 1872 C 186.325 1.48082 -1.27793 0
M  V30 1873 O 187.531 2.14485 -1.66458 0
M  V30 1874 C 185.987 0.401568 -3.57653 0
M  V30 1875 C 185.595 -0.868907 -4.39493 0
M  V30 1876 C 187.339 0.942164 -4.13912 0
M  V30 1877 C 185.246 -0.632705 -5.88006 0
M  V30 1878 H 184.176 0.0773827 -0.750019 0
M  V30 1879 H 186.827 -0.50921 -1.76293 0
M  V30 1880 H 185.209 1.16954 -3.78335 0
M  V30 1881 H 186.383 -1.64133 -4.30577 0
M  V30 1882 H 184.698 -1.33429 -3.94443 0
M  V30 1883 H 187.295 1.13455 -5.22525 0
M  V30 1884 H 187.638 1.9106 -3.69867 0
M  V30 1885 H 188.171 0.233814 -3.97112 0
M  V30 1886 H 184.91 -1.57208 -6.36369 0
M  V30 1887 H 184.43 0.100825 -5.99715 0
M  V30 1888 H 186.109 -0.26642 -6.46451 0
M  V30 1889 N 186.241 1.57166 -0.116904 0
M  V30 1890 C 187.489 1.94737 0.540533 0
M  V30 1891 C 187.81 1.00096 1.67349 0
M  V30 1892 O 187.08 0.0568854 1.95817 0
M  V30 1893 H 185.66 0.718981 0.202669 0
M  V30 1894 H 188.322 1.94017 -0.185353 0
M  V30 1895 H 187.418 2.97719 0.936483 0
M  V30 1896 N 187.719 -0.156864 1.56817 0
M  V30 1897 C 188.967 -0.869404 1.82444 0
M  V30 1898 C 189.288 -1.82147 0.69623 0
M  V30 1899 O 188.558 -1.93847 -0.28287 0
M  V30 1900 H 187.138 -0.324043 0.673056 0
M  V30 1901 H 189.8 -0.153224 1.94297 0
M  V30 1902 H 188.896 -1.43761 2.77019 0
M  V30 1903 N 189.197 -1.51736 -0.425897 0
M  V30 1904 C 190.443 -1.65214 -1.1761 0
M  V30 1905 C 190.776 -0.372778 -1.90589 0
M  V30 1906 O 190.051 0.628139 -1.84078 0
M  V30 1907 C 190.334 -2.86312 -2.18398 0
M  V30 1908 C 190.187 -4.24254 -1.49426 0
M  V30 1909 C 191.506 -3.02925 -3.19256 0
M  V30 1910 H 188.625 -0.601263 -0.426206 0
M  V30 1911 H 191.267 -1.8425 -0.463882 0
M  V30 1912 H 189.417 -2.70213 -2.79137 0
M  V30 1913 H 191.089 -4.52046 -0.919362 0
M  V30 1914 H 189.332 -4.26426 -0.796432 0
M  V30 1915 H 190.003 -5.05001 -2.22885 0
M  V30 1916 H 192.479 -3.1781 -2.68581 0
M  V30 1917 H 191.355 -3.89199 -3.8706 0
M  V30 1918 H 191.616 -2.15497 -3.86023 0
M  V30 1919 N 190.675 0.682077 -1.42076 0
M  V30 1920 C 191.903 1.47057 -1.4554 0
M  V30 1921 C 192.318 1.8869 -0.0645779 0
M  V30 1922 O 191.675 1.57666 0.919115 0
M  V30 1923 C 191.726 2.72442 -2.37609 0
M  V30 1924 O 191.447 2.32559 -3.71279 0
M  V30 1925 C 192.948 3.66069 -2.50017 0
M  V30 1926 H 190.168 0.452737 -0.495248 0
M  V30 1927 H 192.712 0.838695 -1.8651 0
M  V30 1928 H 190.867 3.31835 -1.9991 0
M  V30 1929 H 191.281 3.13475 -4.20516 0
M  V30 1930 H 192.755 4.50792 -3.18576 0
M  V30 1931 H 193.232 4.11476 -1.53572 0
M  V30 1932 H 193.838 3.12572 -2.88407 0
M  V30 1933 N 192.153 1.28127 0.917671 0
M  V30 1934 C 193.083 1.14248 2.03641 0
M  V30 1935 C 194.064 0.0412748 1.7005 0
M  V30 1936 O 195.249 0.217566 1.92977 0
M  V30 1937 C 192.379 0.799431 3.37974 0
M  V30 1938 C 191.333 1.85497 3.85713 0
M  V30 1939 C 190.659 1.36565 5.16966 0
M  V30 1940 C 191.959 3.26085 4.08002 0
M  V30 1941 H 193.653 2.07835 2.15511 0
M  V30 1942 H 191.199 1.00064 1.03553 0
M  V30 1943 H 193.152 0.689114 4.15727 0
M  V30 1944 H 191.876 -0.172145 3.26146 0
M  V30 1945 H 190.535 1.95437 3.10161 0
M  V30 1946 H 190.183 0.383253 5.01538 0
M  V30 1947 H 189.883 2.07143 5.49878 0
M  V30 1948 H 191.407 1.26848 5.97279 0
M  V30 1949 H 192.821 3.19089 4.76293 0
M  V30 1950 H 191.218 3.94462 4.52238 0
M  V30 1951 H 192.288 3.70394 3.12948 0
M  V30 1952 N 193.631 -1.12557 1.10312 0
M  V30 1953 C 194.561 -2.20341 0.772798 0
M  V30 1954 C 195.542 -1.68198 -0.25365 0
M  V30 1955 O 196.727 -1.93831 -0.119699 0
M  V30 1956 C 193.857 -3.46709 0.202443 0
M  V30 1957 C 192.811 -4.11996 1.15943 0
M  V30 1958 C 192.137 -5.328 0.450345 0
M  V30 1959 C 193.437 -4.5828 2.50552 0
M  V30 1960 H 195.131 -2.48229 1.674 0
M  V30 1961 H 192.677 -1.19308 0.806326 0
M  V30 1962 H 194.63 -4.2138 -0.0407752 0
M  V30 1963 H 193.354 -3.18245 -0.734001 0
M  V30 1964 H 192.013 -3.39305 1.38808 0
M  V30 1965 H 191.661 -5.00602 -0.490531 0
M  V30 1966 H 191.361 -5.7743 1.08851 0
M  V30 1967 H 192.885 -6.10219 0.215642 0
M  V30 1968 H 194.299 -5.2433 2.31843 0
M  V30 1969 H 192.696 -5.13683 3.10242 0
M  V30 1970 H 193.766 -3.72329 3.10643 0
M  V30 1971 N 195.109 -0.891671 -1.2995 0
M  V30 1972 C 196.525 -0.58662 -1.48428 0
M  V30 1973 C 196.725 0.873951 -1.81561 0
M  V30 1974 O 195.781 1.65471 -1.90724 0
M  V30 1975 C 197.094 -1.50553 -2.60296 0
M  V30 1976 C 198.642 -1.50988 -2.74175 0
M  V30 1977 C 199.117 -2.41488 -3.89163 0
M  V30 1978 N 200.608 -2.39489 -3.96483 0
M  V30 1979 C 201.343 -3.06223 -4.84784 0
M  V30 1980 N 200.839 -3.82206 -5.77833 0
M  V30 1981 N 202.632 -2.95421 -4.78208 0
M  V30 1982 H 194.783 -1.83644 -1.06718 0
M  V30 1983 H 197.046 -0.786455 -0.529332 0
M  V30 1984 H 196.752 -2.54581 -2.42654 0
M  V30 1985 H 196.626 -1.22008 -3.56923 0
M  V30 1986 H 199.013 -0.47708 -2.91218 0
M  V30 1987 H 199.094 -1.83567 -1.78148 0
M  V30 1988 H 198.738 -3.44857 -3.72876 0
M  V30 1989 H 198.668 -2.06222 -4.84541 0
M  V30 1990 H 201.159 -1.84278 -3.29924 0
M  V30 1991 H 201.472 -4.302 -6.41988 0
M  V30 1992 H 199.817 -3.86313 -5.77743 0
M  V30 1993 H 203.008 -2.35581 -4.04499 0
M  V30 1994 H 203.181 -3.47704 -5.46814 0
M  V30 1995 N 196.587 1.43421 -0.653314 0
M  V30 1996 C 197.55 2.29182 0.0287951 0
M  V30 1997 C 198.55 1.42213 0.750465 0
M  V30 1998 O 199.74 1.63843 0.591701 0
M  V30 1999 C 196.872 3.24278 1.05151 0
M  V30 2000 H 198.065 2.90985 -0.725786 0
M  V30 2001 H 195.618 1.50702 -0.414545 0
M  V30 2002 H 196.353 2.6737 1.83532 0
M  V30 2003 H 196.138 3.88396 0.537687 0
M  V30 2004 H 197.628 3.88647 1.52786 0
M  V30 2005 N 198.065 0.39524 1.52563 0
M  V30 2006 C 199.028 -0.425001 2.25225 0
M  V30 2007 C 200.028 -0.985266 1.27079 0
M  V30 2008 O 201.218 -0.866332 1.5113 0
M  V30 2009 C 198.35 -1.59686 3.01186 0
M  V30 2010 H 199.543 0.211233 2.99155 0
M  V30 2011 H 197.096 0.147472 1.55603 0
M  V30 2012 H 197.831 -2.27035 2.31572 0
M  V30 2013 H 197.616 -1.20176 3.73229 0
M  V30 2014 H 199.106 -2.17743 3.5634 0
M  V30 2015 N 199.544 -1.57102 0.125237 0
M  V30 2016 C 200.507 -2.14471 -0.80838 0
M  V30 2017 C 201.507 -1.0811 -1.19033 0
M  V30 2018 O 202.697 -1.33856 -1.11482 0
M  V30 2019 C 199.829 -2.69005 -2.09402 0
M  V30 2020 H 201.022 -2.98297 -0.309696 0
M  V30 2021 H 198.575 -1.55807 -0.124051 0
M  V30 2022 H 199.31 -1.88785 -2.63687 0
M  V30 2023 H 199.095 -3.46799 -1.82957 0
M  V30 2024 H 200.585 -3.13278 -2.76128 0
M  V30 2025 N 201.022 0.148545 -1.56898 0
M  V30 2026 C 201.969 1.18345 -1.98149 0
M  V30 2027 C 202.939 1.42772 -0.848848 0
M  V30 2028 O 204.124 1.55132 -1.11079 0
M  V30 2029 C 201.264 2.51231 -2.36594 0
M  V30 2030 C 200.377 2.33991 -3.63142 0
M  V30 2031 C 199.512 3.59902 -3.90697 0
M  V30 2032 C 198.551 3.37692 -5.1052 0
M  V30 2033 N 197.688 4.5573 -5.34092 0
M  V30 2034 H 202.528 0.82467 -2.86362 0
M  V30 2035 H 200.065 0.395756 -1.41676 0
M  V30 2036 H 202.023 3.28713 -2.56912 0
M  V30 2037 H 200.653 2.85059 -1.51463 0
M  V30 2038 H 199.705 1.47572 -3.50609 0
M  V30 2039 H 201.017 2.13539 -4.5078 0
M  V30 2040 H 200.171 4.45813 -4.11505 0
M  V30 2041 H 198.91 3.83357 -3.01477 0
M  V30 2042 H 197.915 2.5017 -4.89587 0
M  V30 2043 H 199.14 3.15637 -6.0129 0
M  V30 2044 H 197.086 4.79361 -4.47827 0
M  V30 2045 H 197.003 4.38274 -6.15996 0
M  V30 2046 H 198.271 5.42858 -5.59397 0
M  V30 2047 N 202.5 1.5196 0.417844 0
M  V30 2048 C 203.448 1.75278 1.52907 0
M  V30 2049 C 204.442 0.619611 1.57662 0
M  V30 2050 O 205.648 0.801457 1.61173 0
M  V30 2051 H 202.023 0.554141 0.508362 0
M  V30 2052 H 203.994 2.68389 1.30422 0
M  V30 2053 C 202.743 1.91262 2.90369 0
M  V30 2054 H 202.066 2.77872 2.8745 0
M  V30 2055 H 203.506 2.11581 3.67436 0
M  V30 2056 C 201.965 0.677431 3.30019 0
M  V30 2057 O 202.495 -0.158799 4.01386 0
M  V30 2058 N 200.701 0.515851 2.85985 0
M  V30 2059 H 200.248 1.19744 2.28077 0
M  V30 2060 H 200.206 -0.309315 3.12875 0
M  V30 2061 N 203.978 -0.674533 1.42435 0
M  V30 2062 C 204.928 -1.7807 1.4239 0
M  V30 2063 C 205.912 -1.58169 0.295202 0
M  V30 2064 O 207.104 -1.68643 0.537449 0
M  V30 2065 C 204.233 -3.16532 1.32901 0
M  V30 2066 C 203.319 -3.42055 2.50717 0
M  V30 2067 N 203.71 -3.38162 3.76139 0
M  V30 2068 C 202.008 -3.72692 2.44983 0
M  V30 2069 C 202.709 -3.63177 4.54398 0
M  V30 2070 N 201.685 -3.83954 3.84812 0
M  V30 2071 H 205.487 -1.73454 2.37257 0
M  V30 2072 H 203.001 -0.875381 1.36788 0
M  V30 2073 H 204.998 -3.958 1.30951 0
M  V30 2074 H 203.658 -3.22345 0.390363 0
M  V30 2075 H 204.669 -3.18057 4.0873 0
M  V30 2076 H 201.346 -3.85749 1.59699 0
M  V30 2077 H 202.736 -3.66125 5.63384 0
M  V30 2078 N 205.456 -1.28612 -0.910864 0
M  V30 2079 C 206.419 -1.12803 -1.9952 0
M  V30 2080 C 207.419 -0.0668264 -1.60661 0
M  V30 2081 O 208.609 -0.312847 -1.71368 0
M  V30 2082 C 205.741 -0.72254 -3.33155 0
M  V30 2083 H 206.934 -2.09109 -2.14973 0
M  V30 2084 H 204.487 -1.11639 -1.09391 0
M  V30 2085 H 205.222 0.241152 -3.23402 0
M  V30 2086 H 205.007 -1.48916 -3.62721 0
M  V30 2087 H 206.497 -0.634666 -4.12749 0
M  V30 2088 N 206.934 1.1197 -1.10907 0
M  V30 2089 C 208.35 1.35591 -0.841852 0
M  V30 2090 C 208.55 1.94233 0.536246 0
M  V30 2091 O 207.606 2.1717 1.28816 0
M  V30 2092 C 208.919 2.29284 -1.94549 0
M  V30 2093 C 210.467 2.42862 -1.97451 0
M  V30 2094 C 210.942 3.39873 -3.07002 0
M  V30 2095 N 212.433 3.47433 -3.06341 0
M  V30 2096 C 213.168 4.22421 -3.87748 0
M  V30 2097 N 212.664 5.00432 -4.79103 0
M  V30 2098 N 214.457 4.17876 -3.75946 0
M  V30 2099 H 206.608 0.722664 -1.99728 0
M  V30 2100 H 208.871 0.380635 -0.868229 0
M  V30 2101 H 208.577 1.93378 -2.93765 0
M  V30 2102 H 208.451 3.29452 -1.83688 0
M  V30 2103 H 210.838 2.78046 -0.988645 0
M  V30 2104 H 210.919 1.42566 -2.12388 0
M  V30 2105 H 210.563 3.05417 -4.05811 0
M  V30 2106 H 210.493 4.40011 -2.89306 0
M  V30 2107 H 212.984 2.91784 -2.40147 0
M  V30 2108 H 213.297 5.55002 -5.37766 0
M  V30 2109 H 211.642 4.99612 -4.83128 0
M  V30 2110 H 214.833 3.56016 -3.03924 0
M  V30 2111 H 215.006 4.76061 -4.39624 0
M  V30 2112 N 208.412 0.89855 1.29475 0
M  V30 2113 C 209.658 0.524658 1.95896 0
M  V30 2114 C 209.991 -0.926468 1.70676 0
M  V30 2115 O 209.266 -1.65665 1.01908 0
M  V30 2116 C 209.549 0.81633 3.50725 0
M  V30 2117 C 209.402 2.31907 3.85408 0
M  V30 2118 C 210.721 0.302038 4.39062 0
M  V30 2119 H 207.84 0.19209 0.711527 0
M  V30 2120 H 210.482 1.12502 1.53112 0
M  V30 2121 H 208.632 0.305369 3.87298 0
M  V30 2122 H 210.304 2.89949 3.58786 0
M  V30 2123 H 208.547 2.78027 3.32992 0
M  V30 2124 H 209.218 2.47373 4.93468 0
M  V30 2125 H 211.694 0.739551 4.09475 0
M  V30 2126 H 210.57 0.535331 5.46283 0
M  V30 2127 H 210.831 -0.797216 4.34853 0
M  V30 2128 N 209.89 -1.43072 0.660911 0
M  V30 2129 C 211.118 -2.06067 0.185422 0
M  V30 2130 C 211.533 -1.49582 -1.15198 0
M  V30 2131 O 210.89 -0.630134 -1.71276 0
M  V30 2132 C 210.941 -3.61371 0.0966523 0
M  V30 2133 O 210.662 -4.15758 1.38119 0
M  V30 2134 C 212.163 -4.41455 -0.403996 0
M  V30 2135 H 209.383 -0.664459 0.0934604 0
M  V30 2136 H 211.927 -1.83447 0.90373 0
M  V30 2137 H 210.082 -3.8315 -0.572259 0
M  V30 2138 H 210.496 -5.09499 1.24542 0
M  V30 2139 H 211.97 -5.50437 -0.415045 0
M  V30 2140 H 212.447 -4.15036 -1.43674 0
M  V30 2141 H 213.053 -4.24663 0.232691 0
M  V30 2142 N 211.368 -0.403325 -1.52352 0
M  V30 2143 C 212.614 0.174605 -2.02047 0
M  V30 2144 C 212.947 1.45282 -1.28867 0
M  V30 2145 O 212.222 1.90483 -0.393257 0
M  V30 2146 C 212.505 0.428238 -3.57545 0
M  V30 2147 C 212.358 -0.866248 -4.4138 0
M  V30 2148 C 213.677 1.21287 -4.23057 0
M  V30 2149 H 210.796 0.0619851 -0.734389 0
M  V30 2150 H 213.438 -0.53565 -1.82293 0
M  V30 2151 H 211.588 1.03327 -3.74507 0
M  V30 2152 H 213.26 -1.50265 -4.3614 0
M  V30 2153 H 211.503 -1.47851 -4.07827 0
M  V30 2154 H 212.174 -0.643249 -5.48239 0
M  V30 2155 H 214.65 0.700703 -4.10158 0
M  V30 2156 H 213.526 1.35909 -5.31808 0
M  V30 2157 H 213.787 2.23193 -3.81625 0
M  V30 2158 N 212.846 1.57033 -0.133567 0
M  V30 2159 C 214.092 1.95976 0.521649 0
M  V30 2160 C 214.425 1.01779 1.65393 0
M  V30 2161 O 213.7 0.0576581 1.94415 0
M  V30 2162 C 213.983 3.44738 1.04057 0
M  V30 2163 C 213.836 4.49711 -0.0892897 0
M  V30 2164 C 215.155 3.95682 1.92675 0
M  V30 2165 H 212.274 0.712579 0.188149 0
M  V30 2166 H 214.916 1.88813 -0.212076 0
M  V30 2167 H 213.066 3.50973 1.66583 0
M  V30 2168 H 214.738 4.55565 -0.725152 0
M  V30 2169 H 212.981 4.27261 -0.750378 0
M  V30 2170 H 213.652 5.51099 0.315284 0
M  V30 2171 H 216.128 3.91841 1.39998 0
M  V30 2172 H 215.004 5.00262 2.25897 0
M  V30 2173 H 215.265 3.37239 2.85872 0
M  V30 2174 N 214.325 -0.140222 1.56975 0
M  V30 2175 C 215.565 -0.857823 1.85528 0
M  V30 2176 C 215.929 -1.78039 0.718768 0
M  V30 2177 O 217.13 -2.53795 0.885521 0
M  V30 2178 C 215.401 -1.60615 3.19277 0
M  V30 2179 S 216.96 -2.36824 3.69405 0
M  V30 2180 H 213.778 -0.286727 0.650622 0
M  V30 2181 H 216.38 -0.117408 1.95147 0
M  V30 2182 H 215.084 -0.919994 3.99955 0
M  V30 2183 H 214.615 -2.38735 3.12681 0
M  V30 2184 H 216.63 -3.62148 3.3921 0
M  V30 2185 N 215.803 -1.52179 -0.40978 0
M  V30 2186 C 216.713 -1.78364 -1.52392 0
M  V30 2187 C 217.729 -0.669183 -1.60617 0
M  V30 2188 O 218.905 -0.954518 -1.77344 0
M  V30 2189 C 215.97 -1.92822 -2.88133 0
M  V30 2190 C 215.031 -3.16725 -2.898 0
M  V30 2191 C 214.264 -3.30483 -4.19067 0
M  V30 2192 O 214.487 -2.49522 -5.12928 0
M  V30 2193 O 213.421 -4.2363 -4.27576 0
M  V30 2194 H 217.247 -2.72931 -1.33201 0
M  V30 2195 H 214.832 -1.37016 -0.59557 0
M  V30 2196 H 216.714 -2.04157 -3.68643 0
M  V30 2197 H 215.389 -1.01444 -3.07393 0
M  V30 2198 H 214.296 -3.10848 -2.08146 0
M  V30 2199 H 215.629 -4.07881 -2.75489 0
M  V30 2200 N 217.281 0.66697 -1.42791 0
M  V30 2201 C 218.692 1.2478 -1.38877 0
M  V30 2202 C 219.043 1.96012 -0.0859426 0
M  V30 2203 O 218.168 2.00463 0.815081 0
M  V30 2204 C 218.763 2.26938 -2.51564 0
M  V30 2205 C 217.322 2.80529 -2.50959 0
M  V30 2206 C 216.469 1.54965 -2.29959 0
M  V30 2207 H 219.42 0.459853 -1.51892 0
M  V30 2208 H 219.441 3.08834 -2.22265 0
M  V30 2209 H 218.953 1.75065 -3.46372 0
M  V30 2210 H 217.054 3.36502 -1.59991 0
M  V30 2211 H 217.167 3.29012 -3.48265 0
M  V30 2212 H 215.531 1.81817 -1.78366 0
M  V30 2213 H 216.314 1.05047 -3.26833 0
M  V30 2214 N 218.759 1.29093 0.90403 0
M  V30 2215 C 219.669 1.15727 2.0407 0
M  V30 2216 C 220.685 0.0815308 1.73809 0
M  V30 2217 O 221.861 0.292749 1.99261 0
M  V30 2218 C 218.926 0.830424 3.36608 0
M  V30 2219 C 217.987 1.98955 3.80415 0
M  V30 2220 C 217.22 1.6782 5.06628 0
M  V30 2221 O 217.443 0.597105 5.67266 0
M  V30 2222 O 216.377 2.52486 5.46383 0
M  V30 2223 H 220.203 2.11171 2.18267 0
M  V30 2224 H 217.788 1.08504 1.027 0
M  V30 2225 H 219.67 0.662521 4.16159 0
M  V30 2226 H 218.345 -0.0942678 3.23563 0
M  V30 2227 H 217.252 2.21267 3.01648 0
M  V30 2228 H 218.585 2.89529 3.98037 0
M  V30 2229 N 220.237 -1.11381 1.11499 0
M  V30 2230 C 221.514 -1.7955 0.775965 0
M  V30 2231 C 221.894 -1.97859 -0.73588 0
M  V30 2232 O 221.242 -1.56376 -1.66609 0
M  V30 2233 C 221.452 -3.13196 1.53977 0
M  V30 2234 C 222.8 -3.88227 1.71944 0
M  V30 2235 O 223.824 -3.22887 1.50407 0
M  V30 2236 O 222.683 -5.05477 2.07738 0
M  V30 2237 H 219.777 -0.777728 0.28119 0
M  V30 2238 H 222.323 -1.18118 1.21845 0
M  V30 2239 H 221.095 -2.95229 2.56818 0
M  V30 2240 H 220.718 -3.82342 1.09088 0
M  V30 2241 N 221.715 -0.905404 -1.28997 0
M  V30 2242 C 222.945 -0.549049 -1.99171 0
M  V30 2243 C 223.353 0.87203 -1.67906 0
M  V30 2244 O 222.696 1.58796 -0.923561 0
M  V30 2245 C 222.758 -0.668306 -3.53234 0
M  V30 2246 C 222.422 -2.0574 -4.08069 0
M  V30 2247 C 223.419 -3.0292 -4.22534 0
M  V30 2248 C 221.104 -2.36833 -4.42962 0
M  V30 2249 C 223.098 -4.29314 -4.71135 0
M  V30 2250 C 220.785 -3.63467 -4.91258 0
M  V30 2251 C 221.783 -4.59522 -5.053 0
M  V30 2252 O 221.471 -5.83907 -5.52546 0
M  V30 2253 H 221.203 -0.208784 -0.64295 0
M  V30 2254 H 223.757 -1.21836 -1.65363 0
M  V30 2255 H 221.987 0.0580547 -3.86656 0
M  V30 2256 H 223.676 -0.320273 -4.04634 0
M  V30 2257 H 224.442 -2.80216 -3.95859 0
M  V30 2258 H 220.321 -1.62824 -4.31288 0
M  V30 2259 H 223.865 -5.04293 -4.8201 0
M  V30 2260 H 219.762 -3.86 -5.17372 0
M  V30 2261 H 220.53 -5.86578 -5.70849 0
M  V30 2262 N 223.193 1.4272 -0.668489 0
M  V30 2263 C 224.439 2.01923 -0.188419 0
M  V30 2264 C 224.772 1.52704 1.19979 0
M  V30 2265 O 224.047 0.726566 1.8042 0
M  V30 2266 C 224.33 3.59451 -0.216085 0
M  V30 2267 C 224.183 4.18864 -1.6393 0
M  V30 2268 C 225.502 4.37903 0.439179 0
M  V30 2269 H 222.621 0.733674 -0.0699412 0
M  V30 2270 H 225.263 1.69822 -0.852076 0
M  V30 2271 H 223.413 3.86929 0.349012 0
M  V30 2272 H 225.085 4.02362 -2.25616 0
M  V30 2273 H 223.328 3.74933 -2.18193 0
M  V30 2274 H 223.999 5.27987 -1.61039 0
M  V30 2275 H 226.475 4.16079 -0.0417878 0
M  V30 2276 H 225.351 5.47519 0.389157 0
M  V30 2277 H 225.612 4.15303 1.51577 0
M  V30 2278 N 224.671 0.411399 1.52136 0
M  V30 2279 C 225.917 -0.163888 2.02137 0
M  V30 2280 C 226.25 -1.44597 1.29636 0
M  V30 2281 O 225.525 -1.90272 0.403353 0
M  V30 2282 C 225.808 -0.40927 3.57767 0
M  V30 2283 C 225.661 0.889643 4.40914 0
M  V30 2284 C 226.98 -1.19042 4.23694 0
M  V30 2285 H 224.099 -0.0580896 0.734707 0
M  V30 2286 H 226.741 0.54531 1.82007 0
M  V30 2287 H 224.891 -1.0134 3.7505 0
M  V30 2288 H 226.563 1.52575 4.35337 0
M  V30 2289 H 224.806 1.50011 4.07037 0
M  V30 2290 H 225.477 0.672314 5.4789 0
M  V30 2291 H 227.953 -0.678942 4.10524 0
M  V30 2292 H 226.829 -1.33086 5.32522 0
M  V30 2293 H 227.09 -2.21166 3.82803 0
M  V30 2294 N 226.149 -1.5696 0.141893 0
M  V30 2295 C 227.395 -1.9625 -0.511248 0
M  V30 2296 C 227.728 -1.02654 -1.64851 0
M  V30 2297 O 227.003 -0.0679676 -1.94381 0
M  V30 2298 C 227.286 -3.45285 -1.02227 0
M  V30 2299 C 227.139 -4.49658 0.113138 0
M  V30 2300 C 228.458 -3.96698 -1.90574 0
M  V30 2301 H 225.577 -0.713567 -0.184367 0
M  V30 2302 H 228.219 -1.88698 0.222087 0
M  V30 2303 H 226.369 -3.51852 -1.64719 0
M  V30 2304 H 228.041 -4.55174 0.749302 0
M  V30 2305 H 226.284 -4.26857 0.773026 0
M  V30 2306 H 226.955 -5.51258 -0.286053 0
M  V30 2307 H 229.431 -3.92578 -1.37918 0
M  V30 2308 H 228.307 -5.01453 -2.2324 0
M  V30 2309 H 228.568 -3.3875 -2.84079 0
M  V30 2310 N 227.627 0.131896 -1.57047 0
M  V30 2311 C 228.852 0.860418 -1.8871 0
M  V30 2312 C 229.277 1.73251 -0.73251 0
M  V30 2313 O 228.635 1.785 0.317429 0
M  V30 2314 C 228.683 1.68047 -3.19049 0
M  V30 2315 O 227.787 2.7862 -3.04047 0
M  V30 2316 H 227.128 0.238743 -0.619595 0
M  V30 2317 H 229.658 0.118169 -2.04258 0
M  V30 2318 H 229.668 2.07238 -3.51449 0
M  V30 2319 H 228.343 1.04018 -4.02682 0
M  V30 2320 H 226.92 2.42726 -2.83088 0
M  V30 2321 N 229.106 1.52395 0.401703 0
M  V30 2322 C 230.334 1.70676 1.16949 0
M  V30 2323 C 230.749 0.419503 1.8408 0
M  V30 2324 O 230.106 -0.605061 1.72178 0
M  V30 2325 C 230.157 2.84753 2.22706 0
M  V30 2326 O 229.878 4.08495 1.58314 0
M  V30 2327 C 231.379 3.14608 3.12309 0
M  V30 2328 H 228.599 0.571787 0.351142 0
M  V30 2329 H 231.143 1.98987 0.471652 0
M  V30 2330 H 229.298 2.58941 2.88147 0
M  V30 2331 H 229.712 4.72117 2.28485 0
M  V30 2332 H 231.186 3.97923 3.82572 0
M  V30 2333 H 231.663 2.28464 3.75101 0
M  V30 2334 H 232.269 3.42212 2.52529 0
M  V30 2335 N 230.584 -0.659388 1.43143 0
M  V30 2336 C 231.494 -1.80167 1.50256 0
M  V30 2337 C 232.51 -1.69571 0.390106 0
M  V30 2338 O 233.686 -1.90849 0.643319 0
M  V30 2339 C 230.751 -3.16409 1.41725 0
M  V30 2340 C 229.812 -3.38848 2.63591 0
M  V30 2341 C 229.045 -4.68591 2.55458 0
M  V30 2342 O 229.268 -5.47532 1.59891 0
M  V30 2343 O 228.202 -4.92614 3.45854 0
M  V30 2344 H 232.028 -1.77121 2.46702 0
M  V30 2345 H 229.613 -0.817092 1.25076 0
M  V30 2346 H 231.495 -3.9768 1.39387 0
M  V30 2347 H 230.17 -3.20059 0.484118 0
M  V30 2348 H 229.077 -2.57366 2.71502 0
M  V30 2349 H 230.41 -3.4004 3.55856 0
M  V30 2350 N 232.062 -1.29571 -0.897171 0
M  V30 2351 C 232.995 -1.0924 -2.00354 0
M  V30 2352 C 233.973 -0.00354011 -1.626 0
M  V30 2353 O 235.157 -0.15473 -1.87864 0
M  V30 2354 C 232.284 -0.66352 -3.32137 0
M  V30 2355 C 231.33 -1.75146 -3.88878 0
M  V30 2356 S 232.163 -3.35124 -4.17674 0
M  V30 2357 C 233.319 -2.9411 -5.52494 0
M  V30 2358 H 233.552 -2.02907 -2.17292 0
M  V30 2359 H 231.085 -1.13746 -1.04408 0
M  V30 2360 H 233.043 -0.422791 -4.08317 0
M  V30 2361 H 231.704 0.253588 -3.13075 0
M  V30 2362 H 230.897 -1.40337 -4.84068 0
M  V30 2363 H 230.499 -1.94584 -3.19395 0
M  V30 2364 H 232.791 -2.41312 -6.33068 0
M  V30 2365 H 233.734 -3.88161 -5.9223 0
M  V30 2366 H 234.142 -2.32332 -5.14473 0
M  V30 2367 N 233.54 1.10788 -1.12088 0
M  V30 2368 C 234.472 2.16816 -0.743213 0
M  V30 2369 C 235.485 1.6119 0.228412 0
M  V30 2370 O 236.674 1.78497 0.0102931 0
M  V30 2371 C 233.774 3.38809 -0.0787313 0
M  V30 2372 C 232.947 4.23885 -1.0789 0
M  V30 2373 C 232.006 5.24334 -0.442713 0
M  V30 2374 O 231.032 5.58497 -1.09864 0
M  V30 2375 N 232.234 5.75079 0.791457 0
M  V30 2376 H 234.999 2.49825 -1.65552 0
M  V30 2377 H 232.56 1.26373 -1.012 0
M  V30 2378 H 234.552 4.03107 0.358766 0
M  V30 2379 H 233.122 3.03805 0.736275 0
M  V30 2380 H 232.342 3.55939 -1.69414 0
M  V30 2381 H 233.63 4.77562 -1.75533 0
M  V30 2382 H 233.028 5.49517 1.3434 0
M  V30 2383 H 231.585 6.4118 1.17183 0
M  V30 2384 N 235.018 0.912232 1.28515 0
M  V30 2385 C 236.243 0.559774 1.99703 0
M  V30 2386 C 236.668 -0.851393 1.67729 0
M  V30 2387 O 236.026 -1.56875 0.908834 0
M  V30 2388 C 236.074 0.773874 3.52198 0
M  V30 2389 O 235.178 -0.167842 4.12058 0
M  V30 2390 H 234.519 0.21723 0.627461 0
M  V30 2391 H 237.049 1.22725 1.63706 0
M  V30 2392 H 237.059 0.683386 4.02236 0
M  V30 2393 H 235.734 1.80261 3.74805 0
M  V30 2394 H 234.311 -0.0287509 3.72889 0
M  V30 2395 N 236.496 -1.42363 0.676048 0
M  V30 2396 C 237.721 -2.06377 0.205705 0
M  V30 2397 C 238.146 -1.50463 -1.12883 0
M  V30 2398 O 237.504 -0.623619 -1.70237 0
M  V30 2399 C 237.552 -3.60277 0.152655 0
M  V30 2400 O 236.656 -4.02935 -0.87845 0
M  V30 2401 H 235.997 -0.655588 0.105359 0
M  V30 2402 H 238.527 -1.82475 0.925412 0
M  V30 2403 H 238.537 -4.07993 -0.0230675 0
M  V30 2404 H 237.212 -4.00346 1.12675 0
M  V30 2405 H 235.789 -3.66764 -0.673668 0
M  V30 2406 N 237.974 -0.419461 -1.51915 0
M  V30 2407 C 238.884 0.407528 -2.31033 0
M  V30 2408 C 239.9 1.04413 -1.3919 0
M  V30 2409 O 241.076 1.0434 -1.72265 0
M  V30 2410 C 238.141 1.50365 -3.12396 0
M  V30 2411 C 237.202 0.889029 -4.19994 0
M  V30 2412 C 236.435 1.93291 -4.97468 0
M  V30 2413 O 236.658 3.15259 -4.75361 0
M  V30 2414 O 235.592 1.53339 -5.8204 0
M  V30 2415 H 239.418 -0.237865 -3.02767 0
M  V30 2416 H 237.003 -0.182413 -1.48282 0
M  V30 2417 H 238.885 2.13975 -3.63032 0
M  V30 2418 H 237.56 2.13345 -2.43445 0
M  V30 2419 H 236.467 0.215353 -3.7348 0
M  V30 2420 H 237.8 0.302991 -4.91267 0
M  V30 2421 N 239.452 1.56882 -0.150215 0
M  V30 2422 C 240.677 2.01027 0.510184 0
M  V30 2423 C 241.102 1.02966 1.57415 0
M  V30 2424 O 240.46 0.00590158 1.81299 0
M  V30 2425 C 240.508 3.43899 1.08472 0
M  V30 2426 O 239.612 3.4885 2.19948 0
M  V30 2427 H 238.953 0.652233 0.124451 0
M  V30 2428 H 241.483 2.03093 -0.247894 0
M  V30 2429 H 241.493 3.82766 1.41259 0
M  V30 2430 H 240.168 4.14776 0.305582 0
M  V30 2431 H 238.745 3.21827 1.88366 0
M  V30 2432 N 240.93 -0.123565 1.57115 0
M  V30 2433 C 241.877 -1.15177 2.00007 0
M  V30 2434 C 242.847 -1.41403 0.871454 0
M  V30 2435 O 244.032 -1.53346 1.13533 0
M  V30 2436 C 241.172 -2.47436 2.40561 0
M  V30 2437 C 240.285 -2.28184 3.66819 0
M  V30 2438 C 239.42 -3.53641 3.96373 0
M  V30 2439 C 238.459 -3.29528 5.15827 0
M  V30 2440 N 237.596 -4.47175 5.41275 0
M  V30 2441 H 242.436 -0.779008 2.87638 0
M  V30 2442 H 239.973 -0.373166 1.42288 0
M  V30 2443 H 241.931 -3.24584 2.62109 0
M  V30 2444 H 240.561 -2.82614 1.55978 0
M  V30 2445 H 239.613 -1.41976 3.52912 0
M  V30 2446 H 240.925 -2.0634 4.5412 0
M  V30 2447 H 240.079 -4.39209 4.18545 0
M  V30 2448 H 238.818 -3.78512 3.07538 0
M  V30 2449 H 237.823 -2.42349 4.93505 0
M  V30 2450 H 239.048 -3.06031 6.06236 0
M  V30 2451 H 236.994 -4.72175 4.55397 0
M  V30 2452 H 236.911 -4.28419 6.22891 0
M  V30 2453 H 238.179 -5.3389 5.67963 0
M  V30 2454 N 242.408 -1.52605 -0.393616 0
M  V30 2455 C 243.685 -1.58001 -1.15304 0
M  V30 2456 C 244.065 -0.370385 -2.07825 0
M  V30 2457 O 243.413 0.641638 -2.19306 0
M  V30 2458 C 243.623 -2.91652 -1.91677 0
M  V30 2459 C 244.971 -3.4522 -2.47201 0
M  V30 2460 O 245.995 -2.93495 -2.01839 0
M  V30 2461 O 244.854 -4.35579 -3.3005 0
M  V30 2462 H 241.948 -0.637068 -0.527327 0
M  V30 2463 H 244.494 -1.64939 -0.399141 0
M  V30 2464 H 243.266 -3.71136 -1.23992 0
M  V30 2465 H 242.889 -2.88077 -2.74039 0
M  V30 2466 N 243.887 0.651787 -1.4349 0
M  V30 2467 C 245.115 1.43937 -1.48626 0
M  V30 2468 C 245.53 1.8851 -0.104587 0
M  V30 2469 O 244.887 1.5958 0.885464 0
M  V30 2470 C 244.938 2.6734 -2.43334 0
M  V30 2471 O 244.659 2.24631 -3.76128 0
M  V30 2472 C 246.16 3.60683 -2.57726 0
M  V30 2473 H 243.38 0.44213 -0.504739 0
M  V30 2474 H 245.924 0.798944 -1.88248 0
M  V30 2475 H 244.079 3.2752 -2.06904 0
M  V30 2476 H 244.493 3.04485 -4.2707 0
M  V30 2477 H 245.967 4.43933 -3.28067 0
M  V30 2478 H 246.444 4.08126 -1.62265 0
M  V30 2479 H 247.05 3.06384 -2.94973 0
M  V30 2480 N 245.365 1.30045 0.890287 0
M  V30 2481 C 246.59 1.21598 1.68014 0
M  V30 2482 C 247.015 -0.218678 1.86825 0
M  V30 2483 O 246.373 -1.15756 1.39536 0
M  V30 2484 C 246.421 1.94434 3.03691 0
M  V30 2485 O 245.525 1.2678 3.92429 0
M  V30 2486 H 244.866 0.420856 0.513592 0
M  V30 2487 H 247.396 1.71775 1.11151 0
M  V30 2488 H 247.406 2.03251 3.5377 0
M  V30 2489 H 246.081 2.98777 2.89318 0
M  V30 2490 H 244.658 1.26282 3.50866 0
M  V30 2491 N 246.843 -1.10192 1.12674 0
M  V30 2492 C 247.773 -2.18652 0.819362 0
M  V30 2493 C 248.754 -1.68698 -0.217915 0
M  V30 2494 O 249.939 -1.94041 -0.0785581 0
M  V30 2495 C 247.069 -3.46202 0.27594 0
M  V30 2496 C 246.023 -4.09444 1.24656 0
M  V30 2497 C 245.349 -5.31725 0.563258 0
M  V30 2498 C 246.649 -4.52863 2.60217 0
M  V30 2499 H 248.343 -2.44622 1.72628 0
M  V30 2500 H 245.889 -1.17571 0.831451 0
M  V30 2501 H 247.842 -4.21372 0.0486149 0
M  V30 2502 H 246.566 -3.1973 -0.666331 0
M  V30 2503 H 245.225 -3.36284 1.45974 0
M  V30 2504 H 244.873 -5.0153 -0.384235 0
M  V30 2505 H 244.573 -5.74991 1.21075 0
M  V30 2506 H 246.097 -6.09624 0.34503 0
M  V30 2507 H 247.511 -5.19294 2.42913 0
M  V30 2508 H 245.908 -5.06986 3.21068 0
M  V30 2509 H 246.978 -3.65656 3.18471 0
M  V30 2510 N 248.321 -0.919034 -1.28029 0
M  V30 2511 C 249.231 -0.416756 -2.30869 0
M  V30 2512 C 250.247 0.498235 -1.66714 0
M  V30 2513 O 251.423 0.383144 -1.97722 0
M  V30 2514 C 248.488 0.330274 -3.45123 0
M  V30 2515 C 247.549 -0.618578 -4.2482 0
M  V30 2516 C 246.782 0.0928959 -5.33619 0
M  V30 2517 O 247.005 1.31375 -5.55065 0
M  V30 2518 O 245.939 -0.574499 -5.99152 0
M  V30 2519 H 249.765 -1.27043 -2.75851 0
M  V30 2520 H 247.35 -0.684052 -1.3282 0
M  V30 2521 H 249.232 0.751972 -4.14636 0
M  V30 2522 H 247.907 1.1597 -3.02213 0
M  V30 2523 H 246.814 -1.08978 -3.57875 0
M  V30 2524 H 248.147 -1.41497 -4.71423 0
M  V30 2525 N 249.799 1.42003 -0.683588 0
M  V30 2526 C 251.027 2.05746 -0.218182 0
M  V30 2527 C 251.442 1.51396 1.12804 0
M  V30 2528 O 250.799 0.657303 1.70252 0
M  V30 2529 C 250.85 3.61171 -0.154131 0
M  V30 2530 O 250.571 4.13508 -1.44716 0
M  V30 2531 C 252.072 4.42042 0.333713 0
M  V30 2532 H 249.292 0.662888 -0.10402 0
M  V30 2533 H 251.836 1.81987 -0.9328 0
M  V30 2534 H 249.991 3.84012 0.511231 0
M  V30 2535 H 250.405 5.07453 -1.32632 0
M  V30 2536 H 251.879 5.51028 0.327423 0
M  V30 2537 H 252.356 4.17269 1.37053 0
M  V30 2538 H 252.962 4.24239 -0.300222 0
M  V30 2539 N 251.277 0.427512 1.51691 0
M  V30 2540 C 252.693 0.0792977 1.59403 0
M  V30 2541 C 252.893 -1.41035 1.43914 0
M  V30 2542 O 251.949 -2.17922 1.27539 0
M  V30 2543 C 253.262 0.590636 2.94842 0
M  V30 2544 C 254.81 0.550215 3.08126 0
M  V30 2545 C 255.285 1.03836 4.46074 0
M  V30 2546 N 256.776 0.995943 4.52366 0
M  V30 2547 C 257.511 1.34463 5.57411 0
M  V30 2548 N 257.007 1.76569 6.69922 0
M  V30 2549 N 258.8 1.26343 5.47717 0
M  V30 2550 H 250.951 1.39687 1.60004 0
M  V30 2551 H 253.214 0.575003 0.753708 0
M  V30 2552 H 252.92 1.63251 3.11516 0
M  V30 2553 H 252.794 0.0102061 3.77199 0
M  V30 2554 H 255.181 -0.482654 2.91126 0
M  V30 2555 H 255.262 1.16693 2.27632 0
M  V30 2556 H 254.906 2.06965 4.63819 0
M  V30 2557 H 254.836 0.398286 5.25092 0
M  V30 2558 H 257.327 0.68661 3.7161 0
M  V30 2559 H 257.64 2.01438 7.46085 0
M  V30 2560 H 255.985 1.80488 6.71155 0
M  V30 2561 H 259.176 0.933209 4.58703 0
M  V30 2562 H 259.349 1.53846 6.29472 0
M  V30 2563 N 252.755 -1.56801 0.158532 0
M  V30 2564 C 254.171 -1.5837 -0.197774 0
M  V30 2565 C 254.371 -1.17334 -1.63814 0
M  V30 2566 O 253.427 -0.878988 -2.36707 0
M  V30 2567 C 254.74 -3.00615 0.0714459 0
M  V30 2568 C 256.288 -3.12999 0.00864533 0
M  V30 2569 C 256.763 -4.57313 0.250685 0
M  V30 2570 N 258.254 -4.62777 0.198014 0
M  V30 2571 C 258.989 -5.72271 0.359642 0
M  V30 2572 N 258.485 -6.90371 0.579625 0
M  V30 2573 N 260.278 -5.61318 0.296438 0
M  V30 2574 H 252.429 -1.81765 1.09887 0
M  V30 2575 H 254.692 -0.841849 0.435884 0
M  V30 2576 H 254.398 -3.35068 1.06874 0
M  V30 2577 H 254.272 -3.71683 -0.642757 0
M  V30 2578 H 256.659 -2.7838 -0.979217 0
M  V30 2579 H 256.74 -2.44393 0.755359 0
M  V30 2580 H 256.384 -4.92639 1.2357 0
M  V30 2581 H 256.314 -5.24061 -0.516489 0
M  V30 2582 H 258.805 -3.77885 0.0331115 0
M  V30 2583 H 259.118 -7.69689 0.69275 0
M  V30 2584 H 257.463 -6.92264 0.616087 0
M  V30 2585 H 260.654 -4.67932 0.125258 0
M  V30 2586 H 260.827 -6.46599 0.425831 0
M  V30 2587 N 254.233 0.115231 -1.57178 0
M  V30 2588 C 255.165 1.16694 -1.97269 0
M  V30 2589 C 256.178 1.37445 -0.872502 0
M  V30 2590 O 257.367 1.36454 -1.15077 0
M  V30 2591 C 254.467 2.52627 -2.25905 0
M  V30 2592 C 253.64 2.52427 -3.57211 0
M  V30 2593 C 252.699 3.70134 -3.74016 0
M  V30 2594 O 251.725 3.53546 -4.46087 0
M  V30 2595 N 252.927 4.88844 -3.13068 0
M  V30 2596 H 255.692 0.82588 -2.88096 0
M  V30 2597 H 253.253 0.304461 -1.59011 0
M  V30 2598 H 255.245 3.29937 -2.34359 0
M  V30 2599 H 253.815 2.789 -1.41186 0
M  V30 2600 H 253.035 1.60805 -3.5991 0
M  V30 2601 H 254.323 2.49353 -4.43509 0
M  V30 2602 H 253.721 5.05225 -2.54489 0
M  V30 2603 H 252.278 5.63817 -3.27037 0
M  V30 2604 N 255.711 1.52812 0.385517 0
M  V30 2605 C 256.641 1.80808 1.47752 0
M  V30 2606 C 257.622 0.660318 1.5676 0
M  V30 2607 O 258.807 0.908246 1.71652 0
M  V30 2608 C 255.937 1.98008 2.85324 0
M  V30 2609 C 254.891 3.13709 2.91154 0
M  V30 2610 C 254.217 3.16169 4.31209 0
M  V30 2611 C 255.517 4.52709 2.60483 0
M  V30 2612 H 257.211 2.72253 1.24573 0
M  V30 2613 H 254.757 1.31003 0.597839 0
M  V30 2614 H 256.71 2.16176 3.61726 0
M  V30 2615 H 255.434 1.03255 3.09848 0
M  V30 2616 H 254.093 2.95329 2.17201 0
M  V30 2617 H 253.741 2.19092 4.52778 0
M  V30 2618 H 253.441 3.93894 4.36029 0
M  V30 2619 H 254.965 3.36496 5.09512 0
M  V30 2620 H 256.379 4.71173 3.26602 0
M  V30 2621 H 254.776 5.32528 2.76648 0
M  V30 2622 H 255.846 4.59186 1.55809 0
M  V30 2623 N 257.189 -0.644168 1.43834 0
M  V30 2624 C 258.152 -1.73857 1.49353 0
M  V30 2625 C 259.152 -1.56315 0.377112 0
M  V30 2626 O 260.342 -1.62048 0.639226 0
M  V30 2627 C 257.474 -3.12819 1.35488 0
M  V30 2628 H 258.667 -1.70342 2.46827 0
M  V30 2629 H 256.22 -0.856652 1.30733 0
M  V30 2630 H 256.955 -3.2194 0.390569 0
M  V30 2631 H 256.74 -3.26958 2.16428 0
M  V30 2632 H 258.23 -3.92606 1.42302 0
M  V30 2633 N 258.668 -1.30515 -0.883378 0
M  V30 2634 C 259.598 -1.19607 -2.00541 0
M  V30 2635 C 260.579 -0.086346 -1.69881 0
M  V30 2636 O 261.764 -0.268654 -1.92333 0
M  V30 2637 C 258.894 -0.888758 -3.35736 0
M  V30 2638 C 257.848 -1.95659 -3.8066 0
M  V30 2639 C 257.174 -1.50224 -5.13164 0
M  V30 2640 C 258.474 -3.36788 -3.99213 0
M  V30 2641 H 260.168 -2.13476 -2.09925 0
M  V30 2642 H 257.714 -1.02775 -1.00863 0
M  V30 2643 H 259.667 -0.799094 -4.13754 0
M  V30 2644 H 258.391 0.0856125 -3.26488 0
M  V30 2645 H 257.05 -2.03591 -3.04871 0
M  V30 2646 H 256.698 -0.516092 -5.00345 0
M  V30 2647 H 256.398 -2.2165 -5.44192 0
M  V30 2648 H 257.922 -1.42639 -5.93706 0
M  V30 2649 H 259.336 -3.31605 -4.67665 0
M  V30 2650 H 257.733 -4.06314 -4.41621 0
M  V30 2651 H 258.803 -3.78561 -3.03017 0
M  V30 2652 N 260.146 1.09593 -1.13257 0
M  V30 2653 C 261.093 2.1618 -0.808381 0
M  V30 2654 C 262.063 1.64517 0.228754 0
M  V30 2655 O 263.248 1.9053 0.101381 0
M  V30 2656 C 260.388 3.43973 -0.278675 0
M  V30 2657 C 259.501 4.09545 -1.37466 0
M  V30 2658 C 258.636 5.25088 -0.803479 0
M  V30 2659 C 257.675 5.82579 -1.87799 0
M  V30 2660 N 256.812 6.89486 -1.32488 0
M  V30 2661 H 261.652 2.43254 -1.72138 0
M  V30 2662 H 259.189 1.19392 -0.859294 0
M  V30 2663 H 261.147 4.17174 0.0465583 0
M  V30 2664 H 259.777 3.17223 0.597459 0
M  V30 2665 H 258.829 3.34226 -1.81652 0
M  V30 2666 H 260.141 4.48307 -2.18684 0
M  V30 2667 H 259.295 6.05178 -0.429427 0
M  V30 2668 H 258.034 4.87684 0.0397956 0
M  V30 2669 H 257.039 5.01152 -2.26113 0
M  V30 2670 H 258.264 6.22045 -2.72463 0
M  V30 2671 H 256.21 6.54064 -0.503575 0
M  V30 2672 H 256.127 7.27007 -2.07355 0
M  V30 2673 H 257.395 7.73336 -0.978336 0
M  V30 2674 N 261.624 0.925811 1.2754 0
M  V30 2675 C 262.587 0.428129 2.25166 0
M  V30 2676 C 263.587 -0.452261 1.54309 0
M  V30 2677 O 264.777 -0.253608 1.72344 0
M  V30 2678 C 261.909 -0.384749 3.38722 0
M  V30 2679 H 263.102 1.29066 2.70706 0
M  V30 2680 H 260.655 0.706323 1.3943 0
M  V30 2681 H 261.39 -1.26618 2.98561 0
M  V30 2682 H 261.175 0.246454 3.91325 0
M  V30 2683 H 262.665 -0.723389 4.11287 0
M  V30 2684 N 263.102 -1.41638 0.69111 0
M  V30 2685 C 264.349 -2.01299 0.220193 0
M  V30 2686 C 264.677 -1.54715 -1.17871 0
M  V30 2687 O 263.932 -0.747193 -1.80874 0
M  V30 2688 C 264.231 -3.56714 0.221277 0
M  V30 2689 C 263.897 -4.22792 1.56709 0
M  V30 2690 C 262.559 -4.40557 1.93554 0
M  V30 2691 C 264.911 -4.59883 2.45268 0
M  V30 2692 C 262.239 -4.92688 3.18552 0
M  V30 2693 C 264.591 -5.13403 3.69595 0
M  V30 2694 C 263.255 -5.29379 4.06589 0
M  V30 2695 H 262.525 -0.736606 0.0805743 0
M  V30 2696 H 265.172 -1.69598 0.889319 0
M  V30 2697 H 263.477 -3.8818 -0.531391 0
M  V30 2698 H 265.174 -4.00678 -0.160547 0
M  V30 2699 H 261.764 -4.09336 1.2705 0
M  V30 2700 H 265.948 -4.45817 2.18084 0
M  V30 2701 H 261.204 -5.03242 3.47214 0
M  V30 2702 H 265.378 -5.41084 4.38407 0
M  V30 2703 H 263.005 -5.69537 5.03519 0
M  V30 2704 N 264.58 -0.43555 -1.51462 0
M  V30 2705 C 265.808 0.130242 -2.0649 0
M  V30 2706 C 266.223 1.36614 -1.30315 0
M  V30 2707 O 265.58 1.78869 -0.362223 0
M  V30 2708 C 265.631 0.454253 -3.58635 0
M  V30 2709 O 265.352 -0.73259 -4.31931 0
M  V30 2710 C 266.853 1.07091 -4.3017 0
M  V30 2711 H 264.073 0.00871669 -0.670943 0
M  V30 2712 H 266.617 -0.614117 -1.95061 0
M  V30 2713 H 264.772 1.14851 -3.69984 0
M  V30 2714 H 265.186 -0.455787 -5.22516 0
M  V30 2715 H 266.66 1.24764 -5.37716 0
M  V30 2716 H 267.137 2.05144 -3.88346 0
M  V30 2717 H 267.743 0.416089 -4.2326 0
M  V30 2718 N 266.058 1.56714 -0.166846 0
M  V30 2719 C 267.008 2.14338 0.777382 0
M  V30 2720 C 267.992 1.07642 1.19591 0
M  V30 2721 O 269.184 1.33775 1.15902 0
M  V30 2722 C 266.313 2.78417 2.00846 0
M  V30 2723 C 265.399 3.92264 1.61212 0
M  V30 2724 N 265.79 4.97268 0.925104 0
M  V30 2725 C 264.088 4.03342 1.90346 0
M  V30 2726 C 264.789 5.77093 0.730627 0
M  V30 2727 N 263.765 5.2854 1.27067 0
M  V30 2728 H 267.567 2.9289 0.243466 0
M  V30 2729 H 265.081 1.62364 0.0339954 0
M  V30 2730 H 267.078 3.18073 2.69509 0
M  V30 2731 H 265.738 2.01344 2.54736 0
M  V30 2732 H 266.749 5.14601 0.583646 0
M  V30 2733 H 263.426 3.37368 2.45946 0
M  V30 2734 H 264.816 6.71638 0.187668 0
M  V30 2735 N 267.536 -0.106894 1.57237 0
M  V30 2736 C 268.764 -0.826389 1.8968 0
M  V30 2737 C 269.179 -1.72856 0.759353 0
M  V30 2738 O 268.536 -1.80503 -0.269263 0
M  V30 2739 C 268.587 -1.64967 3.21665 0
M  V30 2740 O 268.308 -0.783804 4.31031 0
M  V30 2741 C 269.809 -2.47326 3.67892 0
M  V30 2742 H 267.029 -0.236927 0.627779 0
M  V30 2743 H 269.573 -0.0876593 2.04312 0
M  V30 2744 H 267.728 -2.34103 3.08666 0
M  V30 2745 H 268.142 -1.35284 5.06753 0
M  V30 2746 H 269.616 -3.00604 4.6297 0
M  V30 2747 H 270.093 -3.25247 2.95146 0
M  V30 2748 H 270.699 -1.83411 3.83719 0
M  V30 2749 N 269.014 -1.53014 -0.377408 0
M  V30 2750 C 269.977 -1.77957 -1.44444 0
M  V30 2751 C 270.977 -0.649763 -1.47087 0
M  V30 2752 O 272.167 -0.917897 -1.48055 0
M  V30 2753 C 269.299 -1.89089 -2.83651 0
M  V30 2754 H 270.492 -2.73243 -1.23606 0
M  V30 2755 H 268.045 -1.43912 -0.609844 0
M  V30 2756 H 268.78 -0.958293 -3.09818 0
M  V30 2757 H 268.565 -2.71254 -2.83132 0
M  V30 2758 H 270.055 -2.1002 -3.60945 0
M  V30 2759 N 270.492 0.636531 -1.44174 0
M  V30 2760 C 271.424 1.7618 -1.46606 0
M  V30 2761 C 272.437 1.58768 -0.360091 0
M  V30 2762 O 273.626 1.67181 -0.625518 0
M  V30 2763 C 270.726 3.13833 -1.27915 0
M  V30 2764 C 269.899 3.57753 -2.51658 0
M  V30 2765 C 268.958 4.74265 -2.27945 0
M  V30 2766 O 267.984 4.82852 -3.01401 0
M  V30 2767 N 269.186 5.65604 -1.30662 0
M  V30 2768 H 271.951 1.74567 -2.43612 0
M  V30 2769 H 269.512 0.820924 -1.39544 0
M  V30 2770 H 271.504 3.8949 -1.09907 0
M  V30 2771 H 270.074 3.10121 -0.39293 0
M  V30 2772 H 269.294 2.72362 -2.84978 0
M  V30 2773 H 270.582 3.83847 -3.33974 0
M  V30 2774 H 269.98 5.61354 -0.699844 0
M  V30 2775 H 268.537 6.40913 -1.18634 0
M  V30 2776 N 271.97 1.30982 0.876444 0
M  V30 2777 C 273.2 1.23063 1.65949 0
M  V30 2778 C 273.608 -0.207537 1.88058 0
M  V30 2779 O 272.951 -1.14781 1.43426 0
M  V30 2780 C 273.013 1.89768 3.05333 0
M  V30 2781 C 272.677 3.39106 3.0636 0
M  V30 2782 C 273.674 4.3496 2.84791 0
M  V30 2783 C 271.359 3.80693 3.27686 0
M  V30 2784 C 273.353 5.70375 2.84519 0
M  V30 2785 C 271.04 5.16223 3.27043 0
M  V30 2786 C 272.038 6.10875 3.05485 0
M  V30 2787 O 271.726 7.43928 3.04674 0
M  V30 2788 H 271.458 0.426685 0.524324 0
M  V30 2789 H 274.012 1.7329 1.10271 0
M  V30 2790 H 272.242 1.34082 3.6271 0
M  V30 2791 H 273.931 1.75853 3.65829 0
M  V30 2792 H 274.697 4.0416 2.68103 0
M  V30 2793 H 270.576 3.07457 3.43499 0
M  V30 2794 H 274.12 6.44228 2.67611 0
M  V30 2795 H 270.017 5.4666 3.43269 0
M  V30 2796 H 270.785 7.53022 3.2078 0
M  V30 2797 N 273.449 -1.08991 1.13837 0
M  V30 2798 C 274.726 -1.77863 0.813876 0
M  V30 2799 C 275.106 -1.99375 -0.693746 0
M  V30 2800 O 274.454 -1.59875 -1.63255 0
M  V30 2801 C 274.664 -3.0986 1.60586 0
M  V30 2802 C 276.012 -3.84493 1.8014 0
M  V30 2803 O 277.036 -3.19624 1.57222 0
M  V30 2804 O 275.895 -5.00957 2.18413 0
M  V30 2805 H 272.989 -0.771589 0.297624 0
M  V30 2806 H 275.535 -1.15507 1.24323 0
M  V30 2807 H 274.307 -2.89715 2.63022 0
M  V30 2808 H 273.93 -3.79942 1.17173 0
M  V30 2809 N 274.927 -0.932562 -1.27047 0
M  V30 2810 C 275.837 -0.441219 -2.30414 0
M  V30 2811 C 276.853 0.480525 -1.67233 0
M  V30 2812 O 278.029 0.362151 -1.98117 0
M  V30 2813 C 275.094 0.293651 -3.45454 0
M  V30 2814 C 274.155 -0.663601 -4.2414 0
M  V30 2815 C 273.388 0.0362932 -5.33688 0
M  V30 2816 O 273.611 1.2548 -5.56427 0
M  V30 2817 O 272.545 -0.638015 -5.98509 0
M  V30 2818 H 276.371 -1.29962 -2.74488 0
M  V30 2819 H 273.956 -0.6981 -1.32087 0
M  V30 2820 H 275.838 0.707951 -4.15411 0
M  V30 2821 H 274.513 1.12758 -3.03426 0
M  V30 2822 H 273.42 -1.12768 -3.56699 0
M  V30 2823 H 274.753 -1.46489 -4.69896 0
M  V30 2824 N 276.405 1.4127 -0.698611 0
M  V30 2825 C 277.368 2.29158 -0.044132 0
M  V30 2826 C 278.368 1.44529 0.704841 0
M  V30 2827 O 279.558 1.65643 0.539276 0
M  V30 2828 C 276.69 3.27459 0.947809 0
M  V30 2829 H 277.883 2.88529 -0.817994 0
M  V30 2830 H 275.436 1.49307 -0.46228 0
M  V30 2831 H 276.171 2.73073 1.74933 0
M  V30 2832 H 275.956 3.8991 0.41385 0
M  V30 2833 H 277.446 3.93311 1.40344 0
M  V30 2834 N 277.883 0.443576 1.51229 0
M  V30 2835 C 279.132 -0.122332 2.01329 0
M  V30 2836 C 279.445 -1.43237 1.33201 0
M  V30 2837 O 280.651 -2.0816 1.74304 0
M  V30 2838 C 279.107 -0.268551 3.58897 0
M  V30 2839 C 278.715 1.03142 4.35965 0
M  V30 2840 C 280.459 -0.787894 4.17124 0
M  V30 2841 C 278.366 0.850504 5.85252 0
M  V30 2842 H 277.296 -0.0494929 0.752374 0
M  V30 2843 H 279.947 0.574289 1.74282 0
M  V30 2844 H 278.329 -1.02832 3.82415 0
M  V30 2845 H 279.503 1.80001 4.24189 0
M  V30 2846 H 277.818 1.47977 3.89219 0
M  V30 2847 H 280.415 -0.939841 5.26375 0
M  V30 2848 H 280.758 -1.77201 3.76703 0
M  V30 2849 H 281.291 -0.0862669 3.97706 0
M  V30 2850 H 278.03 1.80718 6.30096 0
M  V30 2851 H 277.55 0.121825 5.99676 0
M  V30 2852 H 279.229 0.506163 6.45017 0
M  V30 2853 N 279.361 -1.56624 0.175154 0
M  V30 2854 C 280.586 -2.01813 -0.478137 0
M  V30 2855 C 281.011 -1.05457 -1.55757 0
M  V30 2856 O 280.369 -0.0347439 -1.81267 0
M  V30 2857 C 280.417 -3.45581 -1.02987 0
M  V30 2858 O 279.521 -3.52305 -2.14371 0
M  V30 2859 H 278.862 -0.65413 -0.114059 0
M  V30 2860 H 281.392 -2.02673 0.280173 0
M  V30 2861 H 281.402 -3.84965 -1.35151 0
M  V30 2862 H 280.077 -4.1521 -0.239556 0
M  V30 2863 H 278.654 -3.24783 -1.83222 0
M  V30 2864 N 280.839 0.0985539 -1.57292 0
M  V30 2865 C 282.116 0.834155 -1.76921 0
M  V30 2866 C 282.496 1.97101 -0.755928 0
M  V30 2867 O 281.844 2.27474 0.216245 0
M  V30 2868 C 282.054 1.33194 -3.22584 0
M  V30 2869 C 283.402 1.77611 -3.85668 0
M  V30 2870 O 284.426 1.42825 -3.26312 0
M  V30 2871 O 283.285 2.4192 -4.90038 0
M  V30 2872 H 280.379 0.397628 -0.725135 0
M  V30 2873 H 282.925 0.0807044 -1.69508 0
M  V30 2874 H 281.697 0.517248 -3.87866 0
M  V30 2875 H 281.32 2.1475 -3.34616 0
M  V30 2876 N 282.317 1.53212 0.369288 0
M  V30 2877 C 283.547 1.72868 1.13139 0
M  V30 2878 C 283.955 0.455754 1.83629 0
M  V30 2879 O 283.298 -0.580861 1.74275 0
M  V30 2880 C 283.36 2.83667 2.20847 0
M  V30 2881 C 283.024 4.24142 1.70155 0
M  V30 2882 C 284.021 5.06619 1.16763 0
M  V30 2883 C 281.706 4.70539 1.7578 0
M  V30 2884 C 283.7 6.33581 0.696678 0
M  V30 2885 C 281.387 5.97481 1.28297 0
M  V30 2886 C 282.385 6.78833 0.753307 0
M  V30 2887 O 282.073 8.03393 0.285475 0
M  V30 2888 H 281.805 0.581707 0.344373 0
M  V30 2889 H 284.359 2.00736 0.435243 0
M  V30 2890 H 282.589 2.51265 2.93944 0
M  V30 2891 H 284.278 2.91536 2.82421 0
M  V30 2892 H 285.044 4.71948 1.11758 0
M  V30 2893 H 280.923 4.07293 2.15949 0
M  V30 2894 H 284.467 6.97027 0.282581 0
M  V30 2895 H 280.364 6.31651 1.32994 0
M  V30 2896 H 281.132 8.17497 0.405145 0
M  V30 2897 N 283.795 -0.628877 1.44509 0
M  V30 2898 C 285.042 -1.38839 1.47411 0
M  V30 2899 C 285.37 -1.94202 0.10757 0
M  V30 2900 O 284.625 -1.74243 -0.890947 0
M  V30 2901 C 284.924 -2.56995 2.48371 0
M  V30 2902 C 284.59 -2.19908 3.93639 0
M  V30 2903 C 283.252 -2.09506 4.33198 0
M  V30 2904 C 285.604 -1.9064 4.85083 0
M  V30 2905 C 282.932 -1.68028 5.62124 0
M  V30 2906 C 285.284 -1.50655 6.14399 0
M  V30 2907 C 283.948 -1.38796 6.5291 0
M  V30 2908 H 283.218 -0.508048 0.539414 0
M  V30 2909 H 285.865 -0.712913 1.77735 0
M  V30 2910 H 284.17 -3.29786 2.11538 0
M  V30 2911 H 285.867 -3.15223 2.47861 0
M  V30 2912 H 282.457 -2.28922 3.62343 0
M  V30 2913 H 286.641 -1.97585 4.55273 0
M  V30 2914 H 281.897 -1.57452 5.90778 0
M  V30 2915 H 286.071 -1.27048 6.84713 0
M  V30 2916 H 283.698 -1.06429 7.52713 0
M  V30 2917 N 285.273 -1.31445 -0.869486 0
M  V30 2918 C 286.689 -1.10113 -1.15531 0
M  V30 2919 C 286.889 0.128087 -2.01092 0
M  V30 2920 O 285.945 0.817276 -2.38908 0
M  V30 2921 C 287.258 -2.37291 -1.84698 0
M  V30 2922 C 288.806 -2.42906 -1.97397 0
M  V30 2923 C 289.281 -3.69967 -2.69979 0
M  V30 2924 N 290.772 -3.70864 -2.77514 0
M  V30 2925 C 291.507 -4.65875 -3.34287 0
M  V30 2926 N 291.003 -5.71242 -3.91988 0
M  V30 2927 N 292.796 -4.53394 -3.3225 0
M  V30 2928 H 284.947 -2.1028 -0.299347 0
M  V30 2929 H 287.21 -0.927683 -0.195214 0
M  V30 2930 H 286.916 -3.27078 -1.29278 0
M  V30 2931 H 286.79 -2.47125 -2.84972 0
M  V30 2932 H 289.177 -1.53588 -2.51982 0
M  V30 2933 H 289.258 -2.37036 -0.961643 0
M  V30 2934 H 288.902 -4.59652 -2.16062 0
M  V30 2935 H 288.832 -3.73103 -3.7162 0
M  V30 2936 H 291.323 -2.94697 -2.36563 0
M  V30 2937 H 291.636 -6.39817 -4.33421 0
M  V30 2938 H 289.981 -5.75015 -3.90362 0
M  V30 2939 H 293.172 -3.70252 -2.8641 0
M  V30 2940 H 293.345 -5.27617 -3.76197 0
M  V30 2941 N 286.751 1.08385 -1.14413 0
M  V30 2942 C 287.698 2.15311 -0.831265 0
M  V30 2943 C 288.668 1.64751 0.211292 0
M  V30 2944 O 289.853 1.90627 0.0811674 0
M  V30 2945 C 286.993 3.43658 -0.315143 0
M  V30 2946 C 286.106 4.08064 -1.41802 0
M  V30 2947 C 285.241 5.24207 -0.859126 0
M  V30 2948 C 284.28 5.80554 -1.93967 0
M  V30 2949 N 283.417 6.88042 -1.39793 0
M  V30 2950 H 288.257 2.41415 -1.74708 0
M  V30 2951 H 285.794 1.18474 -0.871909 0
M  V30 2952 H 287.752 4.172 0.00230884 0
M  V30 2953 H 286.382 3.17839 0.56378 0
M  V30 2954 H 285.434 3.3228 -1.85187 0
M  V30 2955 H 286.746 4.45962 -2.23427 0
M  V30 2956 H 285.9 6.04689 -0.49359 0
M  V30 2957 H 284.639 4.87699 -0.011932 0
M  V30 2958 H 283.644 4.98725 -2.31415 0
M  V30 2959 H 284.869 6.19121 -2.79046 0
M  V30 2960 H 282.815 6.53493 -0.572919 0
M  V30 2961 H 282.732 7.24767 -2.15054 0
M  V30 2962 H 284 7.72255 -1.0603 0
M  V30 2963 N 288.23 0.939286 1.26551 0
M  V30 2964 C 289.162 0.404704 2.25599 0
M  V30 2965 C 290.175 -0.470983 1.55838 0
M  V30 2966 O 291.364 -0.281734 1.76263 0
M  V30 2967 C 288.464 -0.43764 3.36062 0
M  V30 2968 C 287.637 0.421449 4.35365 0
M  V30 2969 C 286.696 -0.36015 5.24966 0
M  V30 2970 O 285.722 0.236167 5.6871 0
M  V30 2971 N 286.924 -1.65715 5.56344 0
M  V30 2972 H 289.689 1.25618 2.72103 0
M  V30 2973 H 287.25 0.807963 1.40298 0
M  V30 2974 H 289.242 -0.967866 3.92956 0
M  V30 2975 H 287.812 -1.18991 2.89067 0
M  V30 2976 H 287.032 1.1329 3.7757 0
M  V30 2977 H 288.32 1.00835 4.98708 0
M  V30 2978 H 287.718 -2.16378 5.22682 0
M  V30 2979 H 286.275 -2.13366 6.15888 0
M  V30 2980 N 289.708 -1.40897 0.706093 0
M  V30 2981 C 290.938 -2.05075 0.250523 0
M  V30 2982 C 291.346 -1.53275 -1.10921 0
M  V30 2983 O 290.689 -0.680281 -1.7064 0
M  V30 2984 C 290.751 -3.59219 0.142178 0
M  V30 2985 C 290.415 -4.33864 1.43566 0
M  V30 2986 C 291.412 -4.62448 2.37566 0
M  V30 2987 C 289.097 -4.72946 1.69195 0
M  V30 2988 C 291.091 -5.29088 3.5545 0
M  V30 2989 C 288.778 -5.3932 2.87362 0
M  V30 2990 C 289.776 -5.6732 3.80312 0
M  V30 2991 O 289.464 -6.32325 4.96408 0
M  V30 2992 H 289.196 -0.666645 0.112074 0
M  V30 2993 H 291.75 -1.81467 0.962239 0
M  V30 2994 H 289.98 -3.81609 -0.6254 0
M  V30 2995 H 291.669 -4.0495 -0.277584 0
M  V30 2996 H 292.435 -4.32727 2.19027 0
M  V30 2997 H 288.314 -4.50527 0.977042 0
M  V30 2998 H 291.858 -5.50859 4.28018 0
M  V30 2999 H 287.755 -5.68461 3.05814 0
M  V30 3000 H 288.523 -6.50821 4.9636 0
M  V30 3001 N 291.186 -0.45159 -1.50991 0
M  V30 3002 C 292.411 0.110667 -2.07105 0
M  V30 3003 C 292.836 1.3446 -1.31538 0
M  V30 3004 O 292.194 1.77743 -0.357365 0
M  V30 3005 C 292.242 0.397238 -3.58405 0
M  V30 3006 O 291.346 1.48124 -3.84881 0
M  V30 3007 H 290.687 -0.00439271 -0.663985 0
M  V30 3008 H 293.217 -0.637026 -1.9443 0
M  V30 3009 H 293.227 0.64351 -4.02893 0
M  V30 3010 H 291.902 -0.504553 -4.12828 0
M  V30 3011 H 290.479 1.22381 -3.52246 0
M  V30 3012 N 292.664 1.56529 -0.183458 0
M  V30 3013 C 293.611 2.18546 0.742055 0
M  V30 3014 C 294.581 1.12912 1.2182 0
M  V30 3015 O 295.766 1.41115 1.28418 0
M  V30 3016 C 292.906 2.83977 1.96089 0
M  V30 3017 C 292.019 4.04105 1.52719 0
M  V30 3018 C 291.154 4.57427 2.70063 0
M  V30 3019 C 290.193 5.69938 2.23243 0
M  V30 3020 N 289.33 6.17717 3.33722 0
M  V30 3021 H 294.17 2.97284 0.206432 0
M  V30 3022 H 291.707 1.46823 0.0901571 0
M  V30 3023 H 293.665 3.20077 2.67594 0
M  V30 3024 H 292.295 2.07822 2.47002 0
M  V30 3025 H 291.347 3.73745 0.708436 0
M  V30 3026 H 292.659 4.85513 1.1436 0
M  V30 3027 H 291.813 4.95772 3.49708 0
M  V30 3028 H 290.552 3.75101 3.11689 0
M  V30 3029 H 289.557 5.31133 1.42048 0
M  V30 3030 H 290.782 6.54073 1.82661 0
M  V30 3031 H 288.728 5.38317 3.74902 0
M  V30 3032 H 288.645 6.94146 2.99495 0
M  V30 3033 H 289.913 6.60713 4.13616 0
M  V30 3034 N 294.142 -0.090211 1.57342 0
M  V30 3035 C 295.39 -0.791241 1.85967 0
M  V30 3036 C 295.711 -1.7903 0.772859 0
M  V30 3037 O 294.981 -1.94872 -0.200398 0
M  V30 3038 H 293.561 -0.295205 0.686195 0
M  V30 3039 H 296.223 -0.0706782 1.94772 0
M  V30 3040 H 295.319 -1.31882 2.82867 0
M  V30 3041 N 295.62 -1.53406 -0.361157 0
M  V30 3042 C 296.866 -1.70054 -1.10496 0
M  V30 3043 C 297.199 -0.453278 -1.88836 0
M  V30 3044 O 296.474 0.5495 -1.86576 0
M  V30 3045 C 296.757 -2.95317 -2.06058 0
M  V30 3046 C 296.61 -4.3021 -1.31298 0
M  V30 3047 C 297.929 -3.16193 -3.06121 0
M  V30 3048 H 295.048 -0.618799 -0.400321 0
M  V30 3049 H 297.69 -1.86052 -0.385318 0
M  V30 3050 H 295.84 -2.81809 -2.67425 0
M  V30 3051 H 297.512 -4.55538 -0.726807 0
M  V30 3052 H 295.755 -4.29421 -0.614853 0
M  V30 3053 H 296.426 -5.14 -2.01265 0
M  V30 3054 H 298.902 -3.28916 -2.5486 0
M  V30 3055 H 297.778 -4.05266 -3.70204 0
M  V30 3056 H 298.039 -2.31676 -3.76535 0
M  V30 3057 N 297.098 0.621204 -1.44841 0
M  V30 3058 C 298.323 1.41244 -1.51871 0
M  V30 3059 C 298.748 1.87519 -0.147764 0
M  V30 3060 O 298.106 1.59334 0.865 0
M  V30 3061 C 298.154 2.60221 -2.49634 0
M  V30 3062 O 297.258 3.60395 -2.00473 0
M  V30 3063 H 296.599 0.42223 -0.512463 0
M  V30 3064 H 299.129 0.757305 -1.90069 0
M  V30 3065 H 299.139 3.0764 -2.67996 0
M  V30 3066 H 297.814 2.25887 -3.4921 0
M  V30 3067 H 296.391 3.19717 -1.91925 0
M  V30 3068 N 298.576 1.31904 0.862503 0
M  V30 3069 C 299.508 1.16005 1.97675 0
M  V30 3070 C 300.521 0.0971234 1.6251 0
M  V30 3071 O 301.71 0.345337 1.75128 0
M  V30 3072 C 298.81 0.751791 3.30456 0
M  V30 3073 C 297.983 1.90133 3.93914 0
M  V30 3074 C 297.042 1.4779 5.05019 0
M  V30 3075 O 296.068 2.18872 5.25437 0
M  V30 3076 N 297.27 0.369491 5.79323 0
M  V30 3077 H 300.035 2.11982 2.11857 0
M  V30 3078 H 297.596 1.24337 1.03691 0
M  V30 3079 H 299.588 0.451084 4.02178 0
M  V30 3080 H 298.158 -0.116593 3.12382 0
M  V30 3081 H 297.378 2.36896 3.15078 0
M  V30 3082 H 298.666 2.67111 4.33047 0
M  V30 3083 H 298.064 -0.222299 5.65263 0
M  V30 3084 H 296.621 0.128354 6.51674 0
M  V30 3085 N 300.054 -1.07777 1.14986 0
M  V30 3086 C 300.987 -2.14228 0.786243 0
M  V30 3087 C 301.965 -1.60888 -0.235347 0
M  V30 3088 O 303.149 -1.88099 -0.122909 0
M  V30 3089 C 300.276 -3.38281 0.168433 0
M  V30 3090 C 299.322 -4.10387 1.16123 0
M  V30 3091 S 300.155 -4.62371 2.70135 0
M  V30 3092 C 301.311 -5.89704 2.09762 0
M  V30 3093 H 301.544 -2.44741 1.68787 0
M  V30 3094 H 299.077 -1.19984 0.971756 0
M  V30 3095 H 301.035 -4.10098 -0.181588 0
M  V30 3096 H 299.696 -3.05953 -0.710725 0
M  V30 3097 H 298.889 -4.99431 0.677086 0
M  V30 3098 H 298.491 -3.44513 1.45556 0
M  V30 3099 H 300.783 -6.61648 1.45701 0
M  V30 3100 H 301.726 -6.42824 2.96955 0
M  V30 3101 H 302.134 -5.4302 1.54239 0
M  V30 3102 N 301.532 -0.945985 -1.26051 0
M  V30 3103 C 302.943 -0.638096 -1.75457 0
M  V30 3104 C 303.294 0.846672 -1.76991 0
M  V30 3105 O 302.419 1.66262 -1.38513 0
M  V30 3106 C 303.014 -1.15157 -3.18629 0
M  V30 3107 C 301.573 -0.894004 -3.65629 0
M  V30 3108 C 300.72 -1.29967 -2.44957 0
M  V30 3109 H 303.671 -1.12376 -1.1206 0
M  V30 3110 H 303.692 -0.507615 -3.77099 0
M  V30 3111 H 303.204 -2.23222 -3.1748 0
M  V30 3112 H 301.305 0.172057 -3.72203 0
M  V30 3113 H 301.418 -1.52439 -4.54202 0
M  V30 3114 H 299.782 -0.718078 -2.44368 0
M  V30 3115 H 300.565 -2.38935 -2.46505 0
M  V30 3116 N 303.011 1.40521 -0.713556 0
M  V30 3117 C 303.941 2.33381 -0.0743864 0
M  V30 3118 C 304.922 1.52784 0.747735 0
M  V30 3119 O 306.107 1.81258 0.697071 0
M  V30 3120 C 303.237 3.36748 0.849598 0
M  V30 3121 C 302.191 4.27793 0.133247 0
M  V30 3122 C 301.517 5.21679 1.17281 0
M  V30 3123 C 302.817 5.12415 -1.01134 0
M  V30 3124 H 304.511 2.87081 -0.850007 0
M  V30 3125 H 302.057 1.38034 -0.410201 0
M  V30 3126 H 304.01 4.00648 1.30612 0
M  V30 3127 H 302.734 2.81439 1.65709 0
M  V30 3128 H 301.393 3.65342 -0.303426 0
M  V30 3129 H 301.041 4.62677 1.9733 0
M  V30 3130 H 300.741 5.83435 0.698397 0
M  V30 3131 H 302.265 5.88456 1.62947 0
M  V30 3132 H 303.679 5.69781 -0.634274 0
M  V30 3133 H 302.076 5.83203 -1.41399 0
M  V30 3134 H 303.146 4.48514 -1.84292 0
M  V30 3135 N 304.489 0.459591 1.5075 0
M  V30 3136 C 305.905 0.113092 1.59199 0
M  V30 3137 C 306.105 -1.37951 1.46874 0
M  V30 3138 O 305.161 -2.15168 1.32132 0
M  V30 3139 C 306.474 0.653043 2.93523 0
M  V30 3140 C 308.022 0.615449 3.0689 0
M  V30 3141 C 308.497 1.13275 4.43771 0
M  V30 3142 N 309.988 1.09167 4.50152 0
M  V30 3143 C 310.723 1.46256 5.54434 0
M  V30 3144 N 310.219 1.90739 6.66026 0
M  V30 3145 N 312.012 1.37932 5.44914 0
M  V30 3146 H 304.163 1.43049 1.57005 0
M  V30 3147 H 306.426 0.590861 0.741341 0
M  V30 3148 H 306.132 1.69822 3.07983 0
M  V30 3149 H 306.006 0.0902132 3.77092 0
M  V30 3150 H 308.393 -0.420793 2.92084 0
M  V30 3151 H 308.474 1.21495 2.25106 0
M  V30 3152 H 308.118 2.16757 4.59324 0
M  V30 3153 H 308.048 0.509576 5.24129 0
M  V30 3154 H 310.539 0.76528 3.7007 0
M  V30 3155 H 310.852 2.17218 7.41644 0
M  V30 3156 H 309.197 1.94683 6.67176 0
M  V30 3157 H 312.388 1.0303 4.56621 0
M  V30 3158 H 312.561 1.67164 6.26067 0
M  V30 3159 N 305.967 -1.56429 0.191757 0
M  V30 3160 C 307.197 -2.01574 -0.452928 0
M  V30 3161 C 307.605 -1.07107 -1.55964 0
M  V30 3162 O 306.948 -0.067534 -1.83576 0
M  V30 3163 C 307.01 -3.43121 -1.07278 0
M  V30 3164 C 306.674 -4.56879 -0.105214 0
M  V30 3165 C 307.671 -5.15379 0.684149 0
M  V30 3166 C 305.356 -5.023 0.00489824 0
M  V30 3167 C 307.35 -6.17746 1.57062 0
M  V30 3168 C 305.037 -6.04511 0.894935 0
M  V30 3169 C 306.035 -6.62108 1.67637 0
M  V30 3170 O 305.723 -7.62335 2.55149 0
M  V30 3171 H 305.455 -0.665554 -0.118379 0
M  V30 3172 H 308.009 -2.03245 0.296737 0
M  V30 3173 H 306.239 -3.38425 -1.87097 0
M  V30 3174 H 307.928 -3.72093 -1.62177 0
M  V30 3175 H 308.694 -4.81157 0.609365 0
M  V30 3176 H 304.573 -4.57168 -0.593156 0
M  V30 3177 H 308.117 -6.6263 2.181 0
M  V30 3178 H 304.014 -6.38157 0.970847 0
M  V30 3179 H 304.782 -7.79741 2.48892 0
M  V30 3180 N 307.445 0.0818655 -1.57387 0
M  V30 3181 C 308.693 0.781368 -1.86384 0
M  V30 3182 C 309.014 1.78618 -0.782342 0
M  V30 3183 O 308.284 1.94976 0.190061 0
M  V30 3184 H 306.864 0.291562 -0.687751 0
M  V30 3185 H 309.526 0.060348 -1.94807 0
M  V30 3186 H 308.622 1.3038 -2.83562 0
M  V30 3187 N 308.923 1.53595 0.353017 0
M  V30 3188 C 309.856 1.7572 1.45594 0
M  V30 3189 C 310.834 0.605961 1.50887 0
M  V30 3190 O 312.018 0.840023 1.68748 0
M  V30 3191 C 309.145 1.84732 2.83887 0
M  V30 3192 C 308.191 3.06808 2.96262 0
M  V30 3193 S 309.024 4.66065 2.63711 0
M  V30 3194 C 310.18 4.77943 4.04131 0
M  V30 3195 H 310.413 2.68994 1.26608 0
M  V30 3196 H 307.946 1.44343 0.548117 0
M  V30 3197 H 309.904 1.9061 3.63563 0
M  V30 3198 H 308.565 0.92488 3.00175 0
M  V30 3199 H 307.758 3.09761 3.97573 0
M  V30 3200 H 307.36 2.99108 2.24523 0
M  V30 3201 H 309.652 4.5877 4.98534 0
M  V30 3202 H 310.595 5.80022 4.06177 0
M  V30 3203 H 311.003 4.06472 3.91715 0
M  V30 3204 N 310.401 -0.613514 1.45168 0
M  V30 3205 C 311.349 -1.74572 1.53712 0
M  V30 3206 C 312.343 -1.64426 0.407505 0
M  V30 3207 O 313.549 -1.70291 0.583176 0
M  V30 3208 H 309.924 -0.576641 0.48269 0
M  V30 3209 H 311.895 -1.64492 2.48968 0
M  V30 3210 C 310.644 -3.12943 1.51532 0
M  V30 3211 H 309.967 -3.21407 2.37776 0
M  V30 3212 H 311.407 -3.9201 1.61569 0
M  V30 3213 C 309.866 -3.36053 0.238798 0
M  V30 3214 O 310.396 -3.95837 -0.6838 0
M  V30 3215 N 308.602 -2.9028 0.136359 0
M  V30 3216 H 308.149 -2.41811 0.887999 0
M  V30 3217 H 308.107 -3.06116 -0.716944 0
M  V30 3218 N 311.879 -1.3236 -0.855495 0
M  V30 3219 C 313.29 -1.2056 -1.42556 0
M  V30 3220 C 313.641 0.182209 -1.95352 0
M  V30 3221 O 312.766 1.08088 -1.87472 0
M  V30 3222 C 313.361 -2.1826 -2.59129 0
M  V30 3223 C 311.92 -2.10351 -3.12137 0
M  V30 3224 C 311.067 -2.06674 -1.84882 0
M  V30 3225 H 314.018 -1.442 -0.662727 0
M  V30 3226 H 314.039 -1.78064 -3.36264 0
M  V30 3227 H 313.551 -3.19257 -2.20673 0
M  V30 3228 H 311.652 -1.12599 -3.55179 0
M  V30 3229 H 311.765 -3.00135 -3.73438 0
M  V30 3230 H 310.129 -1.51901 -2.04446 0
M  V30 3231 H 310.912 -3.09451 -1.48643 0
M  V30 3232 N 313.357 1.07166 -1.15556 0
M  V30 3233 C 314.307 2.12649 -0.82247 0
M  V30 3234 C 315.291 1.59725 0.194129 0
M  V30 3235 O 316.483 1.76999 -0.00540402 0
M  V30 3236 C 313.612 3.41847 -0.315572 0
M  V30 3237 C 312.698 4.0162 -1.36244 0
M  V30 3238 N 313.089 4.35625 -2.5703 0
M  V30 3239 C 311.387 4.29114 -1.21562 0
M  V30 3240 C 312.088 4.83017 -3.24144 0
M  V30 3241 N 311.064 4.81906 -2.51531 0
M  V30 3242 H 314.866 2.36776 -1.74111 0
M  V30 3243 H 312.38 1.24622 -1.0413 0
M  V30 3244 H 314.377 4.16859 -0.0585855 0
M  V30 3245 H 313.037 3.19163 0.597105 0
M  V30 3246 H 314.048 4.26253 -2.94158 0
M  V30 3247 H 310.725 4.15919 -0.362988 0
M  V30 3248 H 312.115 5.18605 -4.27198 0
M  V30 3249 N 314.835 0.952656 1.25548 0
M  V30 3250 C 315.767 0.428609 2.25157 0
M  V30 3251 C 316.78 -0.454428 1.56329 0
M  V30 3252 O 317.969 -0.263023 1.76552 0
M  V30 3253 C 315.069 -0.401972 3.36508 0
M  V30 3254 C 314.242 0.467601 4.34893 0
M  V30 3255 C 313.301 -0.30445 5.25319 0
M  V30 3256 O 312.327 0.296473 5.68427 0
M  V30 3257 N 313.529 -1.59805 5.5807 0
M  V30 3258 H 316.294 1.28497 2.70756 0
M  V30 3259 H 313.855 0.822798 1.39433 0
M  V30 3260 H 315.847 -0.926134 3.9396 0
M  V30 3261 H 314.417 -1.15918 2.90313 0
M  V30 3262 H 313.637 1.17288 3.76347 0
M  V30 3263 H 314.925 1.06119 4.97611 0
M  V30 3264 H 314.323 -2.10823 5.24948 0
M  V30 3265 H 312.88 -2.06822 6.18116 0
M  V30 3266 N 316.313 -1.40141 0.720998 0
M  V30 3267 C 317.541 -2.05096 0.272656 0
M  V30 3268 C 317.956 -1.54334 -1.0875 0
M  V30 3269 O 317.313 -0.702211 -1.6845 0
M  V30 3270 C 317.364 -3.60636 0.249835 0
M  V30 3271 O 317.085 -4.09526 1.55629 0
M  V30 3272 C 318.586 -4.42772 -0.216396 0
M  V30 3273 H 315.806 -0.659897 0.121558 0
M  V30 3274 H 318.35 -1.79449 0.980723 0
M  V30 3275 H 316.505 -3.85232 -0.409237 0
M  V30 3276 H 316.919 -5.03758 1.4604 0
M  V30 3277 H 318.393 -5.51702 -0.181212 0
M  V30 3278 H 318.87 -4.20756 -1.25941 0
M  V30 3279 H 319.476 -4.23294 0.412596 0
M  V30 3280 N 317.792 -0.46758 -1.50504 0
M  V30 3281 C 319.203 -0.0116166 -1.86696 0
M  V30 3282 C 319.554 1.39202 -1.38265 0
M  V30 3283 O 318.679 2.0313 -0.746132 0
M  V30 3284 C 319.274 -0.0143044 -3.38797 0
M  V30 3285 C 317.833 0.386175 -3.74414 0
M  V30 3286 C 316.98 -0.401287 -2.74381 0
M  V30 3287 H 319.931 -0.682022 -1.43297 0
M  V30 3288 H 319.952 0.788641 -3.72237 0
M  V30 3289 H 319.464 -1.03602 -3.74016 0
M  V30 3290 H 317.565 1.41237 -3.44794 0
M  V30 3291 H 317.678 0.0899596 -4.79016 0
M  V30 3292 H 316.042 0.144536 -2.5429 0
M  V30 3293 H 316.825 -1.42244 -3.12444 0
M  V30 3294 N 319.27 1.56325 -0.20005 0
M  V30 3295 C 320.233 2.18084 0.705132 0
M  V30 3296 C 321.233 1.13666 1.1374 0
M  V30 3297 O 322.423 1.39023 1.04968 0
M  V30 3298 C 319.555 2.78689 1.96329 0
M  V30 3299 H 320.748 2.99435 0.167023 0
M  V30 3300 H 318.301 1.56221 0.0495725 0
M  V30 3301 H 319.036 2.0115 2.5438 0
M  V30 3302 H 318.821 3.55133 1.66202 0
M  V30 3303 H 320.311 3.26096 2.60866 0
M  V30 3304 N 320.748 -0.0735177 1.57428 0
M  V30 3305 C 321.68 -1.11423 2.00294 0
M  V30 3306 C 322.693 -1.35084 0.908637 0
M  V30 3307 O 323.882 -1.33355 1.18654 0
M  V30 3308 C 320.982 -2.46548 2.32523 0
M  V30 3309 C 320.155 -2.42867 3.63778 0
M  V30 3310 C 319.214 -3.60087 3.83697 0
M  V30 3311 O 318.24 -3.41595 4.55304 0
M  V30 3312 N 319.442 -4.80372 3.25919 0
M  V30 3313 H 322.207 -0.749206 2.90184 0
M  V30 3314 H 319.768 -0.262195 1.59763 0
M  V30 3315 H 321.76 -3.23607 2.43024 0
M  V30 3316 H 320.33 -2.75059 1.48531 0
M  V30 3317 H 319.55 -1.51206 3.64047 0
M  V30 3318 H 320.838 -2.37506 4.49965 0
M  V30 3319 H 320.236 -4.983 2.67795 0
M  V30 3320 H 318.793 -5.54948 3.41871 0
M  V30 3321 N 322.226 -1.5378 -0.344866 0
M  V30 3322 C 323.156 -1.84662 -1.42906 0
M  V30 3323 C 324.137 -0.701648 -1.54955 0
M  V30 3324 O 325.322 -0.953438 -1.69184 0
M  V30 3325 C 322.452 -2.05503 -2.79974 0
M  V30 3326 C 321.406 -3.21318 -2.82734 0
M  V30 3327 C 320.732 -3.2749 -4.22675 0
M  V30 3328 C 322.032 -4.59456 -2.48389 0
M  V30 3329 H 323.726 -2.75461 -1.17311 0
M  V30 3330 H 321.272 -1.32542 -0.562896 0
M  V30 3331 H 323.225 -2.25691 -3.55867 0
M  V30 3332 H 321.949 -1.11434 -3.07002 0
M  V30 3333 H 320.608 -3.00984 -2.09294 0
M  V30 3334 H 320.256 -2.31019 -4.4681 0
M  V30 3335 H 319.956 -4.05316 -4.25433 0
M  V30 3336 H 321.48 -3.49887 -5.00412 0
M  V30 3337 H 322.894 -4.79667 -3.13995 0
M  V30 3338 H 321.291 -5.39675 -2.62432 0
M  V30 3339 H 322.361 -4.63155 -1.4358 0
M  V30 3340 N 323.704 0.605807 -1.45491 0
M  V30 3341 C 324.934 1.38934 -1.52908 0
M  V30 3342 C 325.342 1.88513 -0.161086 0
M  V30 3343 O 324.685 1.62962 0.847891 0
M  V30 3344 C 324.747 2.62737 -2.45376 0
M  V30 3345 C 324.411 2.34785 -3.92078 0
M  V30 3346 C 325.408 1.95038 -4.8193 0
M  V30 3347 C 323.093 2.47642 -4.37011 0
M  V30 3348 C 325.087 1.68511 -6.14722 0
M  V30 3349 C 322.774 2.20728 -5.69844 0
M  V30 3350 C 323.772 1.81225 -6.58519 0
M  V30 3351 O 323.46 1.54627 -7.88889 0
M  V30 3352 H 323.192 0.431629 -0.520262 0
M  V30 3353 H 325.746 0.74573 -1.91384 0
M  V30 3354 H 323.976 3.29824 -2.01874 0
M  V30 3355 H 325.665 3.24783 -2.43456 0
M  V30 3356 H 326.431 1.84639 -4.48479 0
M  V30 3357 H 322.31 2.77356 -3.68232 0
M  V30 3358 H 325.854 1.37602 -6.83894 0
M  V30 3359 H 321.751 2.30744 -6.02849 0
M  V30 3360 H 322.519 1.68665 -8.00933 0
M  V30 3361 N 325.182 1.32811 0.848464 0
M  V30 3362 C 326.41 1.26739 1.63538 0
M  V30 3363 C 326.825 -0.163484 1.88091 0
M  V30 3364 O 326.182 -1.10258 1.45429 0
M  V30 3365 C 326.233 2.03013 2.99112 0
M  V30 3366 O 325.954 3.40518 2.75643 0
M  V30 3367 C 327.455 2.04038 3.93552 0
M  V30 3368 H 324.675 0.437024 0.509167 0
M  V30 3369 H 327.219 1.75033 1.05753 0
M  V30 3370 H 325.374 1.58426 3.53525 0
M  V30 3371 H 325.788 3.79635 3.61908 0
M  V30 3372 H 327.262 2.61877 4.85926 0
M  V30 3373 H 327.739 1.0282 4.26995 0
M  V30 3374 H 328.345 2.486 3.45077 0
M  V30 3375 N 326.66 -1.06551 1.16123 0
M  V30 3376 C 327.59 -2.15935 0.88851 0
M  V30 3377 C 328.571 -1.69306 -0.164135 0
M  V30 3378 O 329.756 -1.94193 -0.0167857 0
M  V30 3379 C 326.886 -3.45149 0.385942 0
M  V30 3380 C 325.84 -4.05271 1.3762 0
M  V30 3381 C 325.166 -5.29664 0.732137 0
M  V30 3382 C 326.466 -4.44355 2.74493 0
M  V30 3383 H 328.16 -2.39006 1.80323 0
M  V30 3384 H 325.706 -1.14866 0.868435 0
M  V30 3385 H 327.659 -4.21004 0.182647 0
M  V30 3386 H 326.383 -3.21689 -0.564274 0
M  V30 3387 H 325.042 -3.3147 1.56599 0
M  V30 3388 H 324.69 -5.02499 -0.224483 0
M  V30 3389 H 324.39 -5.70848 1.39307 0
M  V30 3390 H 325.914 -6.08218 0.538802 0
M  V30 3391 H 327.328 -5.11303 2.59311 0
M  V30 3392 H 325.725 -4.96515 3.37035 0
M  V30 3393 H 326.795 -3.55339 3.29943 0
M  V30 3394 N 328.138 -0.959301 -1.25041 0
M  V30 3395 C 329.07 -0.440543 -2.24926 0
M  V30 3396 C 330.083 0.446131 -1.56568 0
M  V30 3397 O 331.272 0.253657 -1.76689 0
M  V30 3398 C 328.372 0.38412 -3.36716 0
M  V30 3399 C 327.545 -0.490658 -4.34639 0
M  V30 3400 C 326.604 0.276587 -5.25473 0
M  V30 3401 O 325.63 -0.326614 -5.68262 0
M  V30 3402 N 326.832 1.56844 -5.5891 0
M  V30 3403 H 329.597 -1.29931 -2.70071 0
M  V30 3404 H 327.158 -0.830181 -1.38995 0
M  V30 3405 H 329.15 0.905228 -3.94446 0
M  V30 3406 H 327.72 1.14377 -2.90924 0
M  V30 3407 H 326.94 -1.19282 -3.7572 0
M  V30 3408 H 328.228 -1.08756 -4.97041 0
M  V30 3409 H 327.626 2.08036 -5.26059 0
M  V30 3410 H 326.183 2.03541 -6.19205 0
M  V30 3411 N 329.616 1.39756 -0.72842 0
M  V30 3412 C 331.027 1.83498 -0.344289 0
M  V30 3413 C 331.378 1.60868 1.12321 0
M  V30 3414 O 330.503 1.09634 1.86573 0
M  V30 3415 C 331.098 3.33114 -0.618112 0
M  V30 3416 C 329.657 3.753 -0.287549 0
M  V30 3417 C 328.804 2.62831 -0.884048 0
M  V30 3418 H 331.755 1.28842 -0.926578 0
M  V30 3419 H 331.776 3.80334 0.112349 0
M  V30 3420 H 331.288 3.49553 -1.68625 0
M  V30 3421 H 329.389 3.64451 0.775012 0
M  V30 3422 H 329.502 4.72945 -0.765512 0
M  V30 3423 H 327.866 2.52792 -0.311149 0
M  V30 3424 H 328.649 2.82078 -1.95671 0
M  V30 3425 N 331.094 0.475555 1.50254 0
M  V30 3426 C 332.041 -0.316293 2.28622 0
M  V30 3427 C 333.011 -0.983227 1.33873 0
M  V30 3428 O 334.196 -0.994805 1.62814 0
M  V30 3429 C 331.336 -1.38975 3.1588 0
M  V30 3430 C 330.449 -0.737146 4.25664 0
M  V30 3431 C 329.584 -1.78887 5.00173 0
M  V30 3432 C 328.623 -1.11676 6.01826 0
M  V30 3433 N 327.76 -2.11154 6.69596 0
M  V30 3434 H 332.6 0.358297 2.95838 0
M  V30 3435 H 330.137 0.188541 1.45887 0
M  V30 3436 H 332.095 -2.02383 3.64825 0
M  V30 3437 H 330.725 -2.03344 2.50701 0
M  V30 3438 H 329.777 0.0096065 3.80399 0
M  V30 3439 H 331.089 -0.206816 4.98371 0
M  V30 3440 H 330.243 -2.49865 5.52859 0
M  V30 3441 H 328.982 -2.35302 4.27182 0
M  V30 3442 H 327.987 -0.392633 5.48396 0
M  V30 3443 H 329.212 -0.55945 6.76792 0
M  V30 3444 H 327.158 -2.66577 5.99394 0
M  V30 3445 H 327.075 -1.63118 7.38193 0
M  V30 3446 H 328.343 -2.81497 7.26897 0
M  V30 3447 N 332.573 -1.56217 0.208337 0
M  V30 3448 C 333.503 -2.22694 -0.702116 0
M  V30 3449 C 334.484 -1.19432 -1.2112 0
M  V30 3450 O 335.669 -1.47978 -1.25762 0
M  V30 3451 C 332.799 -2.8966 -1.9161 0
M  V30 3452 C 331.753 -3.9928 -1.5414 0
M  V30 3453 C 331.079 -4.53476 -2.83308 0
M  V30 3454 C 332.379 -5.17012 -0.741339 0
M  V30 3455 H 334.073 -2.99034 -0.147898 0
M  V30 3456 H 331.619 -1.43831 -0.0696951 0
M  V30 3457 H 333.572 -3.34852 -2.55836 0
M  V30 3458 H 332.296 -2.10746 -2.49507 0
M  V30 3459 H 330.955 -3.54799 -0.922668 0
M  V30 3460 H 330.603 -3.71308 -3.39322 0
M  V30 3461 H 330.303 -5.27451 -2.58976 0
M  V30 3462 H 331.827 -5.01378 -3.485 0
M  V30 3463 H 333.241 -5.58667 -1.28699 0
M  V30 3464 H 331.638 -5.97137 -0.595627 0
M  V30 3465 H 332.708 -4.8423 0.254851 0
M  V30 3466 N 334.051 0.0651679 -1.57465 0
M  V30 3467 C 335.462 0.616213 -1.76238 0
M  V30 3468 C 335.813 1.7756 -0.834689 0
M  V30 3469 O 334.938 2.1639 -0.0204156 0
M  V30 3470 C 335.533 1.12462 -3.1959 0
M  V30 3471 C 334.092 1.62147 -3.39684 0
M  V30 3472 C 333.239 0.543739 -2.71917 0
M  V30 3473 H 336.19 -0.161022 -1.57881 0
M  V30 3474 H 336.211 1.99324 -3.24114 0
M  V30 3475 H 335.723 0.280592 -3.87084 0
M  V30 3476 H 333.824 2.48854 -2.77313 0
M  V30 3477 H 333.937 1.69385 -4.48158 0
M  V30 3478 H 332.301 0.990352 -2.34657 0
M  V30 3479 H 333.084 -0.290216 -3.42071 0
M  V30 3480 N 335.529 1.53961 0.336706 0
M  V30 3481 C 336.778 1.70751 1.07363 0
M  V30 3482 C 337.091 0.481061 1.89592 0
M  V30 3483 O 338.297 0.530046 2.66276 0
M  V30 3484 C 336.753 3.01965 1.95818 0
M  V30 3485 C 336.361 4.31971 1.18764 0
M  V30 3486 C 338.105 3.28121 2.69327 0
M  V30 3487 C 336.012 5.54255 2.06289 0
M  V30 3488 H 334.942 0.636292 0.404535 0
M  V30 3489 H 337.593 1.80459 0.332681 0
M  V30 3490 H 335.975 2.86132 2.7376 0
M  V30 3491 H 337.149 4.5853 0.456849 0
M  V30 3492 H 335.464 4.12481 0.569946 0
M  V30 3493 H 338.061 4.16673 3.35094 0
M  V30 3494 H 338.404 2.45426 3.36261 0
M  V30 3495 H 338.937 3.44762 1.98454 0
M  V30 3496 H 335.676 6.39513 1.43885 0
M  V30 3497 H 335.196 5.31935 2.77138 0
M  V30 3498 H 336.875 5.90159 2.65182 0
M  V30 3499 N 337.007 -0.598083 1.45811 0
M  V30 3500 C 338.235 -1.38322 1.53866 0
M  V30 3501 C 338.65 -1.87992 0.174479 0
M  V30 3502 O 338.007 -1.62756 -0.825627 0
M  V30 3503 C 338.058 -2.58125 2.53089 0
M  V30 3504 O 337.779 -2.10516 3.84206 0
M  V30 3505 C 339.28 -3.50869 2.70935 0
M  V30 3506 H 336.5 -0.423093 0.520801 0
M  V30 3507 H 339.044 -0.728527 1.91083 0
M  V30 3508 H 337.199 -3.19615 2.18917 0
M  V30 3509 H 337.613 -2.88425 4.38077 0
M  V30 3510 H 339.087 -4.31451 3.44317 0
M  V30 3511 H 339.564 -4.01822 1.77301 0
M  V30 3512 H 340.17 -2.95225 3.06141 0
M  V30 3513 N 338.485 -1.33259 -0.841409 0
M  V30 3514 C 339.731 -1.24757 -1.59886 0
M  V30 3515 C 340.064 0.186913 -1.93298 0
M  V30 3516 O 339.339 1.12757 -1.5848 0
M  V30 3517 C 339.622 -2.12036 -2.91055 0
M  V30 3518 C 339.475 -3.63929 -2.6434 0
M  V30 3519 C 340.794 -1.9916 -3.92458 0
M  V30 3520 H 337.913 -0.454542 -0.580138 0
M  V30 3521 H 340.555 -1.63335 -0.970647 0
M  V30 3522 H 338.705 -1.79265 -3.44669 0
M  V30 3523 H 340.377 -4.06978 -2.17178 0
M  V30 3524 H 338.62 -3.85935 -1.98082 0
M  V30 3525 H 339.291 -4.20341 -3.57796 0
M  V30 3526 H 341.767 -2.27895 -3.48143 0
M  V30 3527 H 340.643 -2.62484 -4.82072 0
M  V30 3528 H 340.904 -0.963082 -4.31482 0
M  V30 3529 N 339.963 1.05934 -1.16686 0
M  V30 3530 C 340.893 2.1546 -0.899949 0
M  V30 3531 C 341.874 1.69391 0.155154 0
M  V30 3532 O 343.059 1.94199 0.00648693 0
M  V30 3533 C 340.189 3.44939 -0.404241 0
M  V30 3534 C 339.143 4.04536 -1.39767 0
M  V30 3535 C 338.469 5.29268 -0.760216 0
M  V30 3536 C 339.769 4.42893 -2.76845 0
M  V30 3537 H 341.463 2.38046 -1.81588 0
M  V30 3538 H 339.009 1.14404 -0.874514 0
M  V30 3539 H 340.962 4.20901 -0.204971 0
M  V30 3540 H 339.686 3.21983 0.547206 0
M  V30 3541 H 338.345 3.30635 -1.58355 0
M  V30 3542 H 337.993 5.02611 0.197831 0
M  V30 3543 H 337.693 5.70101 -1.42332 0
M  V30 3544 H 339.217 6.07924 -0.57105 0
M  V30 3545 H 340.631 5.09921 -2.62019 0
M  V30 3546 H 339.028 4.94721 -3.39663 0
M  V30 3547 H 340.098 3.53584 -3.31823 0
M  V30 3548 N 341.441 0.965919 1.2453 0
M  V30 3549 C 342.389 0.486506 2.27455 0
M  V30 3550 C 343.383 -0.449041 1.6334 0
M  V30 3551 O 344.589 -0.324527 1.7705 0
M  V30 3552 H 340.964 0.138857 0.739069 0
M  V30 3553 H 342.935 1.3666 2.65267 0
M  V30 3554 C 341.684 -0.209481 3.47068 0
M  V30 3555 H 341.007 0.50129 3.96645 0
M  V30 3556 H 342.447 -0.508775 4.20936 0
M  V30 3557 C 340.906 -1.43586 3.0477 0
M  V30 3558 O 341.436 -2.53299 3.11773 0
M  V30 3559 N 339.642 -1.30126 2.59838 0
M  V30 3560 H 339.189 -0.408583 2.54339 0
M  V30 3561 H 339.147 -2.12294 2.31902 0
M  V30 3562 N 342.919 -1.39368 0.735821 0
M  V30 3563 C 344.167 -2.00101 0.283562 0
M  V30 3564 C 344.488 -1.5868 -1.13338 0
M  V30 3565 O 343.758 -0.835423 -1.77193 0
M  V30 3566 H 342.338 -0.740024 0.101851 0
M  V30 3567 H 345 -1.70404 0.945962 0
M  V30 3568 H 344.096 -3.10323 0.332604 0
M  V30 3569 N 344.397 -0.483516 -1.5 0
M  V30 3570 C 345.36 0.292965 -2.2732 0
M  V30 3571 C 346.36 0.909499 -1.32608 0
M  V30 3572 O 347.55 0.776745 -1.55924 0
M  V30 3573 C 344.682 1.41854 -3.09984 0
M  V30 3574 H 345.875 -0.385289 -2.97415 0
M  V30 3575 H 343.428 -0.237942 -1.54478 0
M  V30 3576 H 344.163 2.13148 -2.44414 0
M  V30 3577 H 343.948 0.982114 -3.79601 0
M  V30 3578 H 345.438 1.96597 -3.68429 0
M  V30 3579 N 345.875 1.56104 -0.216619 0
M  V30 3580 C 347.286 1.844 0.292128 0
M  V30 3581 C 347.637 1.13788 1.59833 0
M  V30 3582 O 346.762 0.405888 2.12559 0
M  V30 3583 C 347.357 3.3452 0.53681 0
M  V30 3584 C 345.916 3.63151 0.989876 0
M  V30 3585 C 345.063 2.77255 0.0502302 0
M  V30 3586 H 348.014 1.52481 -0.439926 0
M  V30 3587 H 348.035 3.54459 1.38345 0
M  V30 3588 H 347.547 3.85885 -0.414031 0
M  V30 3589 H 345.648 3.17238 1.95425 0
M  V30 3590 H 345.761 4.71177 0.867698 0
M  V30 3591 H 344.125 2.48555 0.556117 0
M  V30 3592 H 344.908 3.31416 -0.89544 0
M  V30 3593 N 347.353 -0.0568162 1.57498 0
M  V30 3594 C 348.601 -0.751617 1.87604 0
M  V30 3595 C 348.922 -1.77351 0.81066 0
M  V30 3596 O 348.192 -1.95254 -0.159018 0
M  V30 3597 H 346.772 -0.280583 0.692302 0
M  V30 3598 H 349.434 -0.0293483 1.94878 0
M  V30 3599 H 348.53 -1.25852 2.856 0
M  V30 3600 N 348.832 -1.54138 -0.328536 0
M  V30 3601 C 350.079 -1.72105 -1.06706 0
M  V30 3602 C 350.407 -0.492111 -1.88171 0
M  V30 3603 O 349.662 0.526153 -1.88494 0
M  V30 3604 C 349.961 -2.9457 -2.02393 0
M  V30 3605 C 349.627 -4.29544 -1.37122 0
M  V30 3606 C 348.289 -4.6624 -1.19052 0
M  V30 3607 C 350.641 -5.1333 -0.902331 0
M  V30 3608 C 347.969 -5.84325 -0.527331 0
M  V30 3609 C 350.321 -6.32094 -0.252988 0
M  V30 3610 C 348.985 -6.67473 -0.0600901 0
M  V30 3611 H 348.255 -0.629775 -0.390466 0
M  V30 3612 H 350.902 -1.88372 -0.34473 0
M  V30 3613 H 349.207 -2.72969 -2.81061 0
M  V30 3614 H 350.904 -3.05665 -2.59557 0
M  V30 3615 H 347.494 -4.0067 -1.52188 0
M  V30 3616 H 351.678 -4.855 -1.02974 0
M  V30 3617 H 346.934 -6.103 -0.366634 0
M  V30 3618 H 351.108 -6.96299 0.118366 0
M  V30 3619 H 348.735 -7.58832 0.455828 0
M  V30 3620 N 350.31 0.590341 -1.46126 0
M  V30 3621 C 351.559 1.34499 -1.50309 0
M  V30 3622 C 351.872 1.94977 -0.156021 0
M  V30 3623 O 353.078 2.71395 -0.0756037 0
M  V30 3624 C 351.534 2.43723 -2.64815 0
M  V30 3625 C 351.142 1.89582 -4.0591 0
M  V30 3626 C 352.886 3.20579 -2.78262 0
M  V30 3627 C 350.793 2.9639 -5.11769 0
M  V30 3628 H 349.723 0.505593 -0.559368 0
M  V30 3629 H 352.374 0.630848 -1.72315 0
M  V30 3630 H 350.756 3.17902 -2.36124 0
M  V30 3631 H 351.93 1.21997 -4.44357 0
M  V30 3632 H 350.245 1.25418 -3.97063 0
M  V30 3633 H 352.842 4.00276 -3.54519 0
M  V30 3634 H 353.185 3.72684 -1.85505 0
M  V30 3635 H 353.718 2.53505 -3.06562 0
M  V30 3636 H 350.457 2.49181 -6.06291 0
M  V30 3637 H 349.977 3.62487 -4.77873 0
M  V30 3638 H 351.656 3.60474 -5.37278 0
M  V30 3639 N 351.788 1.33704 0.83433 0
M  V30 3640 C 352.736 1.24323 1.96587 0
M  V30 3641 C 353.73 0.143659 1.6879 0
M  V30 3642 O 354.936 0.30791 1.77347 0
M  V30 3643 H 351.311 0.385925 0.645419 0
M  V30 3644 H 353.282 2.19978 2.01624 0
M  V30 3645 C 352.031 1.00394 3.32891 0
M  V30 3646 H 351.354 1.84231 3.54822 0
M  V30 3647 H 352.794 0.97862 4.12552 0
M  V30 3648 C 351.253 -0.293047 3.35623 0
M  V30 3649 O 351.783 -1.29823 3.80143 0
M  V30 3650 N 349.989 -0.322174 2.88809 0
M  V30 3651 H 349.536 0.496379 2.52772 0
M  V30 3652 H 349.494 -1.18977 2.91019 0
M  V30 3653 N 353.266 -1.05314 1.17247 0
M  V30 3654 C 354.196 -2.1498 0.911362 0
M  V30 3655 C 355.177 -1.69471 -0.146169 0
M  V30 3656 O 356.362 -1.942 0.003812 0
M  V30 3657 C 353.492 -3.4472 0.422528 0
M  V30 3658 C 352.446 -4.03789 1.4191 0
M  V30 3659 C 351.772 -5.28858 0.788274 0
M  V30 3660 C 353.072 -4.41418 2.7919 0
M  V30 3661 H 354.766 -2.3708 1.82848 0
M  V30 3662 H 352.312 -1.13938 0.880569 0
M  V30 3663 H 354.265 -4.20787 0.227289 0
M  V30 3664 H 352.989 -3.22269 -0.530123 0
M  V30 3665 H 351.648 -3.2979 1.60106 0
M  V30 3666 H 351.296 -5.02709 -0.171173 0
M  V30 3667 H 350.996 -5.69338 1.45353 0
M  V30 3668 H 352.52 -6.07612 0.603282 0
M  V30 3669 H 353.934 -5.08524 2.64719 0
M  V30 3670 H 352.331 -4.92913 3.42282 0
M  V30 3671 H 353.401 -3.51819 3.33693 0
M  V30 3672 N 354.744 -0.972509 -1.24016 0
M  V30 3673 C 355.984 -0.644951 -1.93958 0
M  V30 3674 C 356.348 0.80559 -1.74282 0
M  V30 3675 O 357.549 1.2436 -2.38302 0
M  V30 3676 C 355.82 -1.01521 -3.42678 0
M  V30 3677 S 357.379 -0.802927 -4.31391 0
M  V30 3678 H 354.197 -0.236452 -0.670531 0
M  V30 3679 H 356.799 -1.25048 -1.50277 0
M  V30 3680 H 355.503 -2.06769 -3.54506 0
M  V30 3681 H 355.034 -0.400648 -3.91355 0
M  V30 3682 H 357.049 0.317256 -4.95185 0
M  V30 3683 N 356.222 1.38976 -0.743202 0
M  V30 3684 C 357.499 1.94351 -0.220705 0
M  V30 3685 C 357.879 1.67935 1.2791 0
M  V30 3686 O 357.227 1.01211 2.04862 0
M  V30 3687 C 357.437 3.44426 -0.563171 0
M  V30 3688 C 358.785 4.2144 -0.517046 0
M  V30 3689 O 359.809 3.52661 -0.500846 0
M  V30 3690 O 358.668 5.44032 -0.518806 0
M  V30 3691 H 355.762 0.825879 -0.043047 0
M  V30 3692 H 358.308 1.48429 -0.822618 0
M  V30 3693 H 357.08 3.5712 -1.59941 0
M  V30 3694 H 356.703 3.97543 0.0672883 0
M  V30 3695 N 357.7 0.491464 1.49741 0
M  V30 3696 C 358.663 -0.280906 2.27472 0
M  V30 3697 C 359.663 -0.902454 1.33088 0
M  V30 3698 O 360.853 -0.768465 1.56334 0
M  V30 3699 C 357.985 -1.40209 3.10732 0
M  V30 3700 H 359.178 0.401056 2.97206 0
M  V30 3701 H 356.731 0.246131 1.5435 0
M  V30 3702 H 357.466 -2.11849 2.45541 0
M  V30 3703 H 357.251 -0.961969 3.80117 0
M  V30 3704 H 358.741 -1.9464 3.69466 0
M  V30 3705 N 359.178 -1.55987 0.224894 0
M  V30 3706 C 360.108 -2.23426 -0.678457 0
M  V30 3707 C 361.089 -1.20709 -1.19847 0
M  V30 3708 O 362.274 -1.49304 -1.24186 0
M  V30 3709 C 359.404 -2.91676 -1.88527 0
M  V30 3710 C 358.358 -4.00893 -1.49896 0
M  V30 3711 C 357.684 -4.56455 -2.78483 0
M  V30 3712 C 358.984 -5.17769 -0.686461 0
M  V30 3713 H 360.678 -2.99175 -0.116173 0
M  V30 3714 H 358.224 -1.43897 -0.054436 0
M  V30 3715 H 360.177 -3.37547 -2.5227 0
M  V30 3716 H 358.901 -2.1338 -2.47258 0
M  V30 3717 H 357.56 -3.55758 -0.884985 0
M  V30 3718 H 357.208 -3.74886 -3.35365 0
M  V30 3719 H 356.908 -5.30169 -2.53368 0
M  V30 3720 H 358.432 -5.05047 -3.43162 0
M  V30 3721 H 359.846 -5.60001 -1.22767 0
M  V30 3722 H 358.243 -5.97735 -0.532259 0
M  V30 3723 H 359.313 -4.83932 0.306196 0
M  V30 3724 N 360.656 0.0484629 -1.57525 0
M  V30 3725 C 361.604 1.07359 -2.06341 0
M  V30 3726 C 362.598 1.3865 -0.973269 0
M  V30 3727 O 363.804 1.37783 -1.15827 0
M  V30 3728 H 360.179 0.363662 -0.65822 0
M  V30 3729 H 362.15 0.635916 -2.91545 0
M  V30 3730 C 360.899 2.37198 -2.54229 0
M  V30 3731 H 360.222 2.13977 -3.37719 0
M  V30 3732 H 361.662 3.07319 -2.92115 0
M  V30 3733 C 360.121 3.04805 -1.43511 0
M  V30 3734 O 360.651 3.93848 -0.79034 0
M  V30 3735 N 358.857 2.65811 -1.17444 0
M  V30 3736 H 358.404 1.93488 -1.70059 0
M  V30 3737 H 358.362 3.11366 -0.435737 0
M  V30 3738 N 362.134 1.5431 0.320358 0
M  V30 3739 C 363.097 1.83195 1.3774 0
M  V30 3740 C 364.097 0.703906 1.44575 0
M  V30 3741 O 365.287 0.972214 1.44546 0
M  V30 3742 C 362.419 1.99487 2.76438 0
M  V30 3743 H 363.612 2.77642 1.1338 0
M  V30 3744 H 361.165 1.46076 0.556012 0
M  V30 3745 H 361.9 1.07262 3.06048 0
M  V30 3746 H 361.685 2.81575 2.7287 0
M  V30 3747 H 363.175 2.23271 3.52902 0
M  V30 3748 N 363.613 -0.582584 1.46437 0
M  V30 3749 C 364.859 -1.34064 1.52965 0
M  V30 3750 C 365.214 -1.91566 0.178968 0
M  V30 3751 O 364.507 -1.73526 -0.812365 0
M  V30 3752 C 364.701 -2.48964 2.56421 0
M  V30 3753 C 364.53 -2.02717 4.01417 0
M  V30 3754 C 363.3 -1.87728 4.69134 0
M  V30 3755 C 365.498 -1.58675 4.8921 0
M  V30 3756 N 363.48 -1.35554 5.98747 0
M  V30 3757 C 364.851 -1.18093 6.08649 0
M  V30 3758 C 366.906 -1.46494 4.75861 0
M  V30 3759 C 365.609 -0.665427 7.16215 0
M  V30 3760 C 367.635 -0.96347 5.83499 0
M  V30 3761 C 366.997 -0.567432 7.02111 0
M  V30 3762 H 363.096 -0.483551 0.614575 0
M  V30 3763 H 365.68 -0.663309 1.83053 0
M  V30 3764 H 363.851 -3.1426 2.28244 0
M  V30 3765 H 365.583 -3.15913 2.52944 0
M  V30 3766 H 362.338 -2.09678 4.24655 0
M  V30 3767 H 362.762 -1.11628 6.67734 0
M  V30 3768 H 367.404 -1.75731 3.8455 0
M  V30 3769 H 365.122 -0.360639 8.07295 0
M  V30 3770 H 368.708 -0.873129 5.75211 0
M  V30 3771 H 367.588 -0.185389 7.83981 0
M  V30 3772 N 365.091 -1.34144 -0.827227 0
M  V30 3773 C 366.023 -1.21206 -1.9453 0
M  V30 3774 C 367.036 -0.140176 -1.62195 0
M  V30 3775 O 368.225 -0.391647 -1.7415 0
M  V30 3776 C 365.325 -0.839141 -3.28347 0
M  V30 3777 C 364.498 -2.0051 -3.88734 0
M  V30 3778 C 363.557 -1.61128 -5.00923 0
M  V30 3779 O 362.583 -2.32726 -5.19449 0
M  V30 3780 N 363.785 -0.522958 -5.7814 0
M  V30 3781 H 366.55 -2.17525 -2.06162 0
M  V30 3782 H 364.111 -1.27043 -1.00358 0
M  V30 3783 H 366.103 -0.557556 -4.00841 0
M  V30 3784 H 364.673 0.0337293 -3.12582 0
M  V30 3785 H 363.893 -2.45166 -3.08686 0
M  V30 3786 H 365.181 -2.78498 -4.25812 0
M  V30 3787 H 364.579 0.0723518 -5.65654 0
M  V30 3788 H 363.136 -0.301089 -6.51104 0
M  V30 3789 N 366.569 1.04691 -1.17803 0
M  V30 3790 C 367.499 2.14494 -0.92275 0
M  V30 3791 C 368.48 1.69546 0.137179 0
M  V30 3792 O 369.665 1.94195 -0.0141108 0
M  V30 3793 C 366.795 3.44491 -0.440803 0
M  V30 3794 C 365.749 4.03031 -1.4405 0
M  V30 3795 C 365.075 5.28432 -0.81631 0
M  V30 3796 C 366.375 4.39932 -2.81527 0
M  V30 3797 H 368.069 2.36107 -1.84103 0
M  V30 3798 H 365.615 1.1347 -0.886599 0
M  V30 3799 H 367.568 4.2066 -0.249602 0
M  V30 3800 H 366.292 3.22546 0.513025 0
M  V30 3801 H 364.951 3.28937 -1.61853 0
M  V30 3802 H 364.599 5.02792 0.144511 0
M  V30 3803 H 364.299 5.68559 -1.48371 0
M  V30 3804 H 365.823 6.07284 -0.635496 0
M  V30 3805 H 367.237 5.07113 -2.67412 0
M  V30 3806 H 365.634 4.9109 -3.44892 0
M  V30 3807 H 366.704 3.50045 -3.35554 0
M  V30 3808 N 368.047 0.979072 1.23499 0
M  V30 3809 C 369.293 0.648178 1.92163 0
M  V30 3810 C 369.626 -0.816049 1.76222 0
M  V30 3811 O 368.901 -1.58849 1.12237 0
M  V30 3812 C 369.184 1.03773 3.44824 0
M  V30 3813 C 369.037 2.55948 3.69879 0
M  V30 3814 C 370.356 0.580653 4.36253 0
M  V30 3815 H 367.475 0.236952 0.69787 0
M  V30 3816 H 370.117 1.22012 1.45647 0
M  V30 3817 H 368.267 0.551058 3.84572 0
M  V30 3818 H 369.939 3.12179 3.3962 0
M  V30 3819 H 368.182 2.98641 3.14636 0
M  V30 3820 H 368.853 2.78255 4.76737 0
M  V30 3821 H 371.329 0.998465 4.03943 0
M  V30 3822 H 370.205 0.881663 5.41773 0
M  V30 3823 H 370.466 -0.519052 4.39042 0
M  V30 3824 N 369.525 -1.3858 0.750561 0
M  V30 3825 C 370.472 -2.30483 0.120835 0
M  V30 3826 C 371.442 -1.50022 -0.712923 0
M  V30 3827 O 372.627 -1.78662 -0.669676 0
M  V30 3828 C 369.767 -3.36431 -0.768666 0
M  V30 3829 C 368.88 -4.31927 0.0793922 0
M  V30 3830 C 368.015 -5.24944 -0.81283 0
M  V30 3831 C 367.054 -6.12088 0.0390447 0
M  V30 3832 N 366.191 -6.97412 -0.809969 0
M  V30 3833 H 371.031 -2.83761 0.91015 0
M  V30 3834 H 368.568 -1.39707 0.460463 0
M  V30 3835 H 370.526 -3.96462 -1.29898 0
M  V30 3836 H 369.156 -2.8457 -1.5238 0
M  V30 3837 H 368.208 -3.73382 0.727303 0
M  V30 3838 H 369.52 -4.93319 0.737401 0
M  V30 3839 H 368.674 -5.90078 -1.41042 0
M  V30 3840 H 367.413 -4.63911 -1.50458 0
M  V30 3841 H 366.418 -5.45952 0.649328 0
M  V30 3842 H 367.643 -6.75189 0.727809 0
M  V30 3843 H 365.589 -6.38931 -1.48672 0
M  V30 3844 H 365.506 -7.55712 -0.208789 0
M  V30 3845 H 366.774 -7.66959 -1.39263 0
M  V30 3846 N 371.003 -0.499398 -1.49478 0
M  V30 3847 C 371.913 0.284489 -2.32869 0
M  V30 3848 C 372.929 0.968885 -1.44529 0
M  V30 3849 O 374.105 0.95062 -1.77553 0
M  V30 3850 C 371.17 1.33594 -3.19928 0
M  V30 3851 C 370.231 0.665149 -4.24116 0
M  V30 3852 C 369.464 1.6665 -5.07014 0
M  V30 3853 O 369.687 2.89618 -4.91404 0
M  V30 3854 O 368.621 1.22271 -5.8935 0
M  V30 3855 H 372.447 -0.39802 -3.01081 0
M  V30 3856 H 370.032 -0.260758 -1.47107 0
M  V30 3857 H 371.914 1.94431 -3.73864 0
M  V30 3858 H 370.589 2.0014 -2.54412 0
M  V30 3859 H 369.496 0.0170769 -3.74096 0
M  V30 3860 H 370.829 0.0421555 -4.92182 0
M  V30 3861 N 372.481 1.55866 -0.233164 0
M  V30 3862 C 373.411 2.23783 0.666599 0
M  V30 3863 C 374.392 1.21343 1.19205 0
M  V30 3864 O 375.577 1.4996 1.23392 0
M  V30 3865 C 372.707 2.92671 1.86978 0
M  V30 3866 C 371.661 4.01682 1.47768 0
M  V30 3867 C 370.987 4.57926 2.76058 0
M  V30 3868 C 372.287 5.18126 0.658993 0
M  V30 3869 H 373.981 2.99232 0.100306 0
M  V30 3870 H 371.527 1.43924 0.046804 0
M  V30 3871 H 373.48 3.3888 2.50476 0
M  V30 3872 H 372.204 2.14688 2.46123 0
M  V30 3873 H 370.863 3.56222 0.866106 0
M  V30 3874 H 370.511 3.76659 3.33372 0
M  V30 3875 H 370.211 5.31505 2.50552 0
M  V30 3876 H 371.735 5.06859 3.40479 0
M  V30 3877 H 373.149 5.60644 1.19795 0
M  V30 3878 H 371.546 5.98009 0.500552 0
M  V30 3879 H 372.616 4.83763 -0.331856 0
M  V30 3880 N 373.959 -0.0401083 1.57549 0
M  V30 3881 C 374.906 -1.04413 2.05831 0
M  V30 3882 C 375.876 -1.36585 0.945184 0
M  V30 3883 O 377.061 -1.47112 1.21502 0
M  V30 3884 C 374.201 -2.34336 2.53339 0
M  V30 3885 C 373.314 -2.08419 3.78398 0
M  V30 3886 C 372.449 -3.32133 4.14561 0
M  V30 3887 C 371.488 -3.01721 5.3257 0
M  V30 3888 N 370.625 -4.17855 5.64218 0
M  V30 3889 H 375.465 -0.625442 2.91363 0
M  V30 3890 H 373.002 -0.297218 1.44066 0
M  V30 3891 H 374.96 -3.10234 2.78946 0
M  V30 3892 H 373.59 -2.73948 1.7074 0
M  V30 3893 H 372.642 -1.23069 3.59942 0
M  V30 3894 H 373.954 -1.81978 4.64419 0
M  V30 3895 H 373.108 -4.16406 4.41238 0
M  V30 3896 H 371.847 -3.61678 3.2717 0
M  V30 3897 H 370.852 -2.15849 5.05657 0
M  V30 3898 H 372.077 -2.73466 6.21605 0
M  V30 3899 H 370.023 -4.47372 4.79786 0
M  V30 3900 H 369.94 -3.94798 6.44725 0
M  V30 3901 H 371.208 -5.03033 5.95465 0
M  V30 3902 N 375.437 -1.54477 -0.31217 0
M  V30 3903 C 376.347 -1.87695 -1.4074 0
M  V30 3904 C 377.363 -0.769975 -1.56036 0
M  V30 3905 O 378.539 -1.06537 -1.70915 0
M  V30 3906 C 375.604 -2.10755 -2.75287 0
M  V30 3907 C 374.665 -3.34514 -2.69071 0
M  V30 3908 C 373.898 -3.56465 -3.97201 0
M  V30 3909 O 374.121 -2.81637 -4.96021 0
M  V30 3910 O 373.055 -4.49964 -3.9977 0
M  V30 3911 H 376.881 -2.80849 -1.15574 0
M  V30 3912 H 374.466 -1.40526 -0.507228 0
M  V30 3913 H 376.348 -2.27188 -3.54913 0
M  V30 3914 H 375.023 -1.20788 -3.0032 0
M  V30 3915 H 373.93 -3.23456 -1.87955 0
M  V30 3916 H 375.263 -4.24575 -2.48992 0
M  V30 3917 N 376.915 0.57481 -1.46744 0
M  V30 3918 C 377.878 1.66533 -1.57478 0
M  V30 3919 C 378.878 1.54338 -0.451263 0
M  V30 3920 O 380.068 1.58814 -0.715813 0
M  V30 3921 C 377.2 3.05999 -1.50259 0
M  V30 3922 H 378.393 1.58372 -2.54673 0
M  V30 3923 H 375.946 0.793301 -1.34672 0
M  V30 3924 H 376.681 3.19709 -0.543725 0
M  V30 3925 H 376.466 3.16259 -2.31781 0
M  V30 3926 H 377.956 3.8537 -1.60872 0
M  V30 3927 N 378.394 1.34581 0.820102 0
M  V30 3928 C 379.324 1.29038 1.94606 0
M  V30 3929 C 380.305 0.1673 1.69275 0
M  V30 3930 O 381.49 0.360112 1.90832 0
M  V30 3931 C 378.62 1.04793 3.31113 0
M  V30 3932 C 377.574 2.13597 3.70891 0
M  V30 3933 C 376.9 1.74537 5.05412 0
M  V30 3934 C 378.2 3.55451 3.8269 0
M  V30 3935 H 379.894 2.23248 1.99501 0
M  V30 3936 H 377.44 1.0747 0.958449 0
M  V30 3937 H 379.393 0.995592 4.0947 0
M  V30 3938 H 378.117 0.0702565 3.26524 0
M  V30 3939 H 376.776 2.17905 2.9481 0
M  V30 3940 H 376.424 0.754226 4.97313 0
M  V30 3941 H 376.124 2.47361 5.32997 0
M  V30 3942 H 377.648 1.70803 5.86224 0
M  V30 3943 H 379.062 3.5354 4.51312 0
M  V30 3944 H 377.459 4.26922 4.21732 0
M  V30 3945 H 378.529 3.92587 2.84611 0
M  V30 3946 N 379.872 -1.04064 1.18357 0
M  V30 3947 C 381.12 -1.76915 0.977013 0
M  V30 3948 C 381.441 -1.88624 -0.494577 0
M  V30 3949 O 380.711 -1.41125 -1.3587 0
M  V30 3950 H 379.291 -0.65535 0.358504 0
M  V30 3951 H 381.953 -1.25592 1.49039 0
M  V30 3952 H 381.049 -2.78178 1.41504 0
M  V30 3953 N 381.35 -0.985608 -1.22978 0
M  V30 3954 C 382.599 -0.652881 -1.90841 0
M  V30 3955 C 382.912 0.817842 -1.77681 0
M  V30 3956 O 384.118 1.26185 -2.40395 0
M  V30 3957 C 382.574 -1.11717 -3.42122 0
M  V30 3958 C 382.182 -2.6126 -3.63933 0
M  V30 3959 C 383.926 -0.85843 -4.1573 0
M  V30 3960 C 381.833 -3.0133 -5.08876 0
M  V30 3961 H 380.763 -0.240491 -0.714619 0
M  V30 3962 H 383.414 -1.1942 -1.39324 0
M  V30 3963 H 381.796 -0.504027 -3.92779 0
M  V30 3964 H 382.97 -3.27858 -3.23799 0
M  V30 3965 H 381.285 -2.84937 -3.03644 0
M  V30 3966 H 383.882 -1.13359 -5.22546 0
M  V30 3967 H 384.225 0.205461 -4.15793 0
M  V30 3968 H 384.758 -1.43341 -3.71077 0
M  V30 3969 H 381.497 -4.06864 -5.13947 0
M  V30 3970 H 381.017 -2.3943 -5.49939 0
M  V30 3971 H 382.696 -2.92224 -5.77247 0
M  V30 3972 N 382.828 1.3818 -0.7579 0
M  V30 3973 C 384.239 1.82726 -0.383134 0
M  V30 3974 C 384.59 1.63214 1.08884 0
M  V30 3975 O 383.715 1.13566 1.84205 0
M  V30 3976 C 384.31 3.31728 -0.688631 0
M  V30 3977 C 382.869 3.74606 -0.367091 0
M  V30 3978 C 382.016 2.60896 -0.939599 0
M  V30 3979 H 384.967 1.26847 -0.953699 0
M  V30 3980 H 384.988 3.80487 0.0316492 0
M  V30 3981 H 384.5 3.45898 -1.76001 0
M  V30 3982 H 382.601 3.66013 0.697532 0
M  V30 3983 H 382.714 4.71215 -0.865658 0
M  V30 3984 H 381.078 2.52075 -0.3647 0
M  V30 3985 H 381.861 2.77864 -2.0161 0
M  V30 3986 N 384.306 0.507319 1.49211 0
M  V30 3987 C 385.269 -0.256763 2.27757 0
M  V30 3988 C 386.269 -0.888287 1.34038 0
M  V30 3989 O 387.459 -0.751841 1.5714 0
M  V30 3990 C 384.591 -1.36905 3.12202 0
M  V30 3991 H 385.784 0.432557 2.96764 0
M  V30 3992 H 383.337 0.262488 1.5408 0
M  V30 3993 H 384.072 -2.09233 2.47775 0
M  V30 3994 H 383.857 -0.921599 3.81115 0
M  V30 3995 H 385.347 -1.9071 3.7151 0
M  V30 3996 N 385.784 -1.5574 0.241426 0
M  V30 3997 C 386.747 -2.19877 -0.647063 0
M  V30 3998 C 387.747 -1.16642 -1.10686 0
M  V30 3999 O 388.937 -1.41757 -1.01245 0
M  V30 4000 C 386.069 -2.83797 -1.88871 0
M  V30 4001 H 387.262 -2.99772 -0.087574 0
M  V30 4002 H 384.815 -1.56298 -0.00813574 0
M  V30 4003 H 385.55 -2.07824 -2.48957 0
M  V30 4004 H 385.335 -3.59414 -1.56728 0
M  V30 4005 H 386.825 -3.32898 -2.52129 0
M  V30 4006 N 387.262 0.0317525 -1.57568 0
M  V30 4007 C 388.225 1.01783 -2.0536 0
M  V30 4008 C 389.225 1.29203 -0.957253 0
M  V30 4009 O 390.415 1.24251 -1.22095 0
M  V30 4010 C 387.547 2.35137 -2.46827 0
M  V30 4011 H 388.74 0.605062 -2.93733 0
M  V30 4012 H 386.293 0.278514 -1.53799 0
M  V30 4013 H 387.028 2.81168 -1.61602 0
M  V30 4014 H 386.813 2.16566 -3.26866 0
M  V30 4015 H 388.303 3.05938 -2.84239 0
M  V30 4016 N 388.74 1.54641 0.303973 0
M  V30 4017 C 389.965 1.78092 1.06292 0
M  V30 4018 C 390.39 0.537342 1.80262 0
M  V30 4019 O 389.748 -0.511993 1.7392 0
M  V30 4020 C 389.796 2.98612 2.02147 0
M  V30 4021 O 388.9 2.71528 3.10397 0
M  V30 4022 H 388.241 0.589548 0.305497 0
M  V30 4023 H 390.771 2.01716 0.3423 0
M  V30 4024 H 390.781 3.265 2.44667 0
M  V30 4025 H 389.456 3.88785 1.47714 0
M  V30 4026 H 388.033 2.54648 2.72413 0
M  V30 4027 N 390.218 -0.567019 1.47046 0
M  V30 4028 C 391.465 -1.32462 1.53167 0
M  V30 4029 C 391.793 -1.93571 0.189841 0
M  V30 4030 O 391.048 -1.77865 -0.816243 0
M  V30 4031 C 391.347 -2.4623 2.59047 0
M  V30 4032 C 391.013 -2.03014 4.02612 0
M  V30 4033 C 389.675 -1.90944 4.41694 0
M  V30 4034 C 392.027 -1.69895 4.92732 0
M  V30 4035 C 389.355 -1.44035 5.68745 0
M  V30 4036 C 391.707 -1.2446 6.20236 0
M  V30 4037 C 390.371 -1.10979 6.5821 0
M  V30 4038 H 389.641 -0.484713 0.560477 0
M  V30 4039 H 392.288 -0.636888 1.80599 0
M  V30 4040 H 390.593 -3.20517 2.25335 0
M  V30 4041 H 392.29 -3.04427 2.61008 0
M  V30 4042 H 388.88 -2.13348 3.71726 0
M  V30 4043 H 393.064 -1.78098 4.63244 0
M  V30 4044 H 388.32 -1.32254 5.96925 0
M  V30 4045 H 392.494 -0.978924 6.89485 0
M  V30 4046 H 390.121 -0.744078 7.5655 0
M  V30 4047 N 391.696 -1.35014 -0.812953 0
M  V30 4048 C 392.643 -1.27412 -1.92444 0
M  V30 4049 C 393.613 -0.14733 -1.65445 0
M  V30 4050 O 394.798 -0.329974 -1.87925 0
M  V30 4051 C 391.938 -1.04558 -3.28879 0
M  V30 4052 C 391.051 -2.26101 -3.68106 0
M  V30 4053 C 390.186 -1.96449 -4.9354 0
M  V30 4054 C 389.225 -3.14081 -5.25376 0
M  V30 4055 N 388.362 -2.84246 -6.41988 0
M  V30 4056 H 393.202 -2.22463 -1.98278 0
M  V30 4057 H 390.739 -1.10593 -0.969933 0
M  V30 4058 H 392.697 -0.893413 -4.07522 0
M  V30 4059 H 391.327 -0.131719 -3.22531 0
M  V30 4060 H 390.379 -2.52204 -2.84775 0
M  V30 4061 H 391.691 -3.13959 -3.87597 0
M  V30 4062 H 390.845 -1.78026 -5.79993 0
M  V30 4063 H 389.584 -1.05867 -4.76071 0
M  V30 4064 H 388.589 -3.33089 -4.37415 0
M  V30 4065 H 389.814 -4.05455 -5.44778 0
M  V30 4066 H 387.76 -1.96252 -6.25956 0
M  V30 4067 H 387.677 -3.65637 -6.61699 0
M  V30 4068 H 388.945 -2.6935 -7.31485 0
M  V30 4069 N 393.175 1.03435 -1.18907 0
M  V30 4070 C 394.125 2.09924 -0.889706 0
M  V30 4071 C 395.109 1.60261 0.143216 0
M  V30 4072 O 396.301 1.76892 -0.0617122 0
M  V30 4073 C 393.43 3.40669 -0.424168 0
M  V30 4074 C 392.516 3.97082 -1.48952 0
M  V30 4075 N 392.907 4.27227 -2.70759 0
M  V30 4076 C 391.205 4.25029 -1.35152 0
M  V30 4077 C 391.906 4.7246 -3.39347 0
M  V30 4078 N 390.882 4.7366 -2.66735 0
M  V30 4079 H 394.684 2.31116 -1.81555 0
M  V30 4080 H 392.198 1.21246 -1.08042 0
M  V30 4081 H 394.195 4.16461 -0.191176 0
M  V30 4082 H 392.855 3.20901 0.495263 0
M  V30 4083 H 393.866 4.16678 -3.0757 0
M  V30 4084 H 390.543 4.14554 -0.495126 0
M  V30 4085 H 391.933 5.04751 -4.43481 0
M  V30 4086 N 394.653 0.992116 1.22453 0
M  V30 4087 C 395.899 0.668523 1.91464 0
M  V30 4088 C 396.232 -0.797313 1.77078 0
M  V30 4089 O 395.507 -1.5765 1.13916 0
M  V30 4090 C 395.79 1.07424 3.43703 0
M  V30 4091 C 395.643 2.59857 3.67143 0
M  V30 4092 C 396.962 0.626891 4.35612 0
M  V30 4093 H 394.081 0.244341 0.695318 0
M  V30 4094 H 396.723 1.2355 1.44345 0
M  V30 4095 H 394.873 0.591816 3.83966 0
M  V30 4096 H 396.545 3.15764 3.3629 0
M  V30 4097 H 394.788 3.01961 3.11451 0
M  V30 4098 H 395.459 2.83296 4.73759 0
M  V30 4099 H 397.935 1.04125 4.02861 0
M  V30 4100 H 396.811 0.939076 5.40807 0
M  V30 4101 H 397.072 -0.472457 4.39568 0
M  V30 4102 N 396.131 -1.37776 0.765217 0
M  V30 4103 C 397.356 -2.04651 0.336537 0
M  V30 4104 C 397.781 -1.57337 -1.03086 0
M  V30 4105 O 397.139 -0.730621 -1.65927 0
M  V30 4106 C 397.187 -3.58577 0.381468 0
M  V30 4107 O 396.291 -4.07706 -0.62042 0
M  V30 4108 H 395.632 -0.64756 0.146838 0
M  V30 4109 H 398.162 -1.76221 1.03959 0
M  V30 4110 H 398.172 -4.07314 0.236448 0
M  V30 4111 H 396.847 -3.9237 1.37907 0
M  V30 4112 H 395.424 -3.70306 -0.439056 0
M  V30 4113 N 397.609 -0.515225 -1.4894 0
M  V30 4114 C 399.02 -0.0710067 -1.86565 0
M  V30 4115 C 399.371 1.34733 -1.42623 0
M  V30 4116 O 398.496 2.00653 -0.810379 0
M  V30 4117 C 399.091 -0.122083 -3.3858 0
M  V30 4118 C 397.65 0.266863 -3.75453 0
M  V30 4119 C 396.797 -0.488376 -2.72966 0
M  V30 4120 H 399.748 -0.727266 -1.41055 0
M  V30 4121 H 399.769 0.669818 -3.74558 0
M  V30 4122 H 399.281 -1.15448 -3.70531 0
M  V30 4123 H 397.382 1.30196 -3.49113 0
M  V30 4124 H 397.495 -0.0624811 -4.79059 0
M  V30 4125 H 395.859 0.0635622 -2.54621 0
M  V30 4126 H 396.642 -1.52113 -3.07761 0
M  V30 4127 N 399.087 1.5561 -0.249682 0
M  V30 4128 C 400.05 2.20217 0.635394 0
M  V30 4129 C 401.05 1.17227 1.10066 0
M  V30 4130 O 402.24 1.42292 1.00492 0
M  V30 4131 C 399.372 2.84794 1.87363 0
M  V30 4132 H 400.565 2.99814 0.0716752 0
M  V30 4133 H 398.118 1.563 -0.000153234 0
M  V30 4134 H 398.853 2.09142 2.47851 0
M  V30 4135 H 398.638 3.60241 1.5482 0
M  V30 4136 H 400.128 3.3423 2.5036 0
M  V30 4137 N 400.565 -0.0233959 1.57583 0
M  V30 4138 C 401.813 -0.711654 1.89156 0
M  V30 4139 C 402.134 -1.75591 0.848096 0
M  V30 4140 O 401.404 -1.95547 -0.117566 0
M  V30 4141 H 399.984 -0.265835 0.698098 0
M  V30 4142 H 402.646 0.0119948 1.94896 0
M  V30 4143 H 401.742 -1.19766 2.88206 0
M  V30 4144 N 402.043 -1.548 -0.295768 0
M  V30 4145 C 403.006 -1.85363 -1.34808 0
M  V30 4146 C 404.006 -0.726817 -1.43436 0
M  V30 4147 O 405.196 -0.995088 -1.42981 0
M  V30 4148 C 402.328 -2.03859 -2.73229 0
M  V30 4149 H 403.521 -2.7941 -1.08949 0
M  V30 4150 H 401.074 -1.46942 -0.532702 0
M  V30 4151 H 401.809 -1.12117 -3.04303 0
M  V30 4152 H 401.594 -2.8588 -2.68356 0
M  V30 4153 H 403.084 -2.28857 -3.49305 0
M  V30 4154 N 403.521 0.559213 -1.47345 0
M  V30 4155 C 404.484 1.64854 -1.59235 0
M  V30 4156 C 405.484 1.53851 -0.467607 0
M  V30 4157 O 406.674 1.58045 -0.732617 0
M  V30 4158 C 403.806 3.04388 -1.53496 0
M  V30 4159 H 404.999 1.55662 -2.56339 0
M  V30 4160 H 402.552 0.778973 -1.35505 0
M  V30 4161 H 403.287 3.19115 -0.577604 0
M  V30 4162 H 403.072 3.13783 -2.35123 0
M  V30 4163 H 404.562 3.83642 -1.6495 0
M  V30 4164 N 404.999 1.35443 0.805782 0
M  V30 4165 C 406.245 1.28952 1.56522 0
M  V30 4166 C 406.578 -0.135597 1.93726 0
M  V30 4167 O 405.853 -1.08516 1.61414 0
M  V30 4168 C 406.136 2.19678 2.85331 0
M  V30 4169 C 405.989 3.7081 2.54598 0
M  V30 4170 C 407.308 2.09495 3.8704 0
M  V30 4171 H 404.427 0.469764 0.567883 0
M  V30 4172 H 407.069 1.65851 0.927001 0
M  V30 4173 H 405.219 1.8834 3.39795 0
M  V30 4174 H 406.891 4.12593 2.06312 0
M  V30 4175 H 405.134 3.91051 1.8778 0
M  V30 4176 H 405.805 4.29679 3.46525 0
M  V30 4177 H 408.281 2.37045 3.41978 0
M  V30 4178 H 407.157 2.75173 4.74943 0
M  V30 4179 H 407.418 1.07714 4.28777 0
M  V30 4180 N 406.477 -1.02803 1.19454 0
M  V30 4181 C 407.725 -1.75869 0.995722 0
M  V30 4182 C 408.046 -1.89138 -0.474543 0
M  V30 4183 O 407.316 -1.42558 -1.34366 0
M  V30 4184 H 405.896 -0.651511 0.365435 0
M  V30 4185 H 408.558 -1.24004 1.50363 0
M  V30 4186 H 407.654 -2.76661 1.44447 0
M  V30 4187 N 407.956 -0.998596 -1.21925 0
M  V30 4188 C 409.205 -0.673085 -1.90138 0
M  V30 4189 C 409.518 0.79895 -1.78539 0
M  V30 4190 O 410.724 1.23628 -2.4172 0
M  V30 4191 C 409.18 -1.15339 -3.40918 0
M  V30 4192 C 408.788 -2.65106 -3.61141 0
M  V30 4193 C 410.532 -0.902476 -4.14796 0
M  V30 4194 C 408.439 -3.0671 -5.05651 0
M  V30 4195 H 407.369 -0.248057 -0.712028 0
M  V30 4196 H 410.02 -1.20891 -1.38049 0
M  V30 4197 H 408.402 -0.545658 -3.92223 0
M  V30 4198 H 409.576 -3.31274 -3.20304 0
M  V30 4199 H 407.891 -2.88142 -3.00605 0
M  V30 4200 H 410.488 -1.18895 -5.21314 0
M  V30 4201 H 410.831 0.161349 -4.15987 0
M  V30 4202 H 411.364 -1.47269 -3.69536 0
M  V30 4203 H 408.103 -4.12292 -5.09603 0
M  V30 4204 H 407.623 -2.45249 -5.47369 0
M  V30 4205 H 409.302 -2.9833 -5.74115 0
M  V30 4206 N 409.434 1.37368 -0.772513 0
M  V30 4207 C 410.845 1.8231 -0.402493 0
M  V30 4208 C 411.196 1.6436 1.07146 0
M  V30 4209 O 410.321 1.15514 1.82991 0
M  V30 4210 C 410.916 3.30979 -0.723776 0
M  V30 4211 C 409.475 3.74195 -0.406802 0
M  V30 4212 C 408.622 2.59885 -0.967218 0
M  V30 4213 H 411.573 1.25829 -0.967099 0
M  V30 4214 H 411.594 3.80499 -0.00870832 0
M  V30 4215 H 411.106 3.44011 -1.7966 0
M  V30 4216 H 409.207 3.66732 0.658673 0
M  V30 4217 H 409.32 4.7027 -0.915588 0
M  V30 4218 H 407.684 2.51674 -0.391416 0
M  V30 4219 H 408.467 2.7571 -2.04546 0
M  V30 4220 N 410.912 0.523116 1.48665 0
M  V30 4221 C 411.842 -0.23231 2.32342 0
M  V30 4222 C 412.823 -0.941637 1.41659 0
M  V30 4223 O 414.008 -0.928751 1.70552 0
M  V30 4224 C 411.138 -1.28387 3.22698 0
M  V30 4225 C 410.092 -0.693098 4.22351 0
M  V30 4226 C 409.418 -1.8468 5.01794 0
M  V30 4227 C 410.718 0.33063 5.21252 0
M  V30 4228 H 412.412 0.466192 2.95748 0
M  V30 4229 H 409.958 0.225643 1.42221 0
M  V30 4230 H 411.911 -1.82024 3.80059 0
M  V30 4231 H 410.635 -2.01186 2.57278 0
M  V30 4232 H 409.294 -0.178299 3.66166 0
M  V30 4233 H 408.942 -2.56301 4.32804 0
M  V30 4234 H 408.642 -1.45747 5.69238 0
M  V30 4235 H 410.166 -2.38709 5.62006 0
M  V30 4236 H 411.58 -0.118407 5.73178 0
M  V30 4237 H 409.977 0.636974 5.9671 0
M  V30 4238 H 411.047 1.23883 4.68808 0
M  V30 4239 N 412.39 -1.55475 0.257931 0
M  V30 4240 C 413.615 -2.04064 -0.370488 0
M  V30 4241 C 414.04 -1.13565 -1.49948 0
M  V30 4242 O 413.398 -0.130781 -1.80828 0
M  V30 4243 C 413.446 -3.50554 -0.845237 0
M  V30 4244 O 412.55 -3.63173 -1.95394 0
M  V30 4245 H 411.891 -0.659257 -0.0792243 0
M  V30 4246 H 414.421 -2.00903 0.387212 0
M  V30 4247 H 414.431 -3.91588 -1.14555 0
M  V30 4248 H 413.106 -4.15896 -0.0191259 0
M  V30 4249 H 411.683 -3.34039 -1.65748 0
M  V30 4250 N 413.868 0.0150385 -1.57593 0
M  V30 4251 C 414.778 1.02791 -2.10882 0
M  V30 4252 C 415.794 1.38702 -1.0506 0
M  V30 4253 O 416.97 1.47739 -1.36877 0
M  V30 4254 C 414.035 2.30568 -2.58919 0
M  V30 4255 C 413.096 2.01108 -3.79281 0
M  V30 4256 C 412.329 3.22794 -4.25018 0
M  V30 4257 O 412.552 4.33959 -3.70183 0
M  V30 4258 O 411.486 3.07672 -5.17322 0
M  V30 4259 H 415.312 0.604973 -2.97613 0
M  V30 4260 H 412.897 0.23292 -1.47573 0
M  V30 4261 H 414.779 3.05662 -2.90084 0
M  V30 4262 H 413.454 2.72129 -1.75293 0
M  V30 4263 H 412.361 1.23537 -3.53114 0
M  V30 4264 H 413.694 1.64394 -4.63935 0
M  V30 4265 N 415.346 1.54954 0.287554 0
M  V30 4266 C 416.623 1.65569 1.04146 0
M  V30 4267 C 417.003 0.512672 2.0478 0
M  V30 4268 O 416.351 -0.489038 2.23205 0
M  V30 4269 C 416.561 3.04163 1.71131 0
M  V30 4270 C 417.909 3.61429 2.22832 0
M  V30 4271 O 418.933 3.06702 1.81141 0
M  V30 4272 O 417.792 4.57281 2.9926 0
M  V30 4273 H 414.886 0.671881 0.482188 0
M  V30 4274 H 417.432 1.67297 0.28457 0
M  V30 4275 H 416.204 3.78796 0.981303 0
M  V30 4276 H 415.827 3.06271 2.53543 0
M  V30 4277 N 416.824 -0.551391 1.4764 0
M  V30 4278 C 417.734 -1.68525 1.63207 0
M  V30 4279 C 418.75 -1.6621 0.514815 0
M  V30 4280 O 419.926 -1.85551 0.783113 0
M  V30 4281 C 416.991 -3.05025 1.64805 0
M  V30 4282 C 416.052 -3.18362 2.88 0
M  V30 4283 C 415.285 -4.4835 2.89513 0
M  V30 4284 O 415.508 -5.34163 2.00065 0
M  V30 4285 O 414.442 -4.65602 3.81443 0
M  V30 4286 H 418.268 -1.58333 2.59161 0
M  V30 4287 H 415.853 -0.722063 1.30792 0
M  V30 4288 H 417.735 -3.86245 1.68502 0
M  V30 4289 H 416.41 -3.15587 0.720197 0
M  V30 4290 H 415.317 -2.36518 2.89845 0
M  V30 4291 H 416.65 -3.12707 3.80099 0
M  V30 4292 N 418.302 -1.35869 -0.798587 0
M  V30 4293 C 419.265 -1.29307 -1.89242 0
M  V30 4294 C 420.265 -0.202747 -1.59517 0
M  V30 4295 O 421.455 -0.456957 -1.681 0
M  V30 4296 C 418.587 -1.00229 -3.25833 0
M  V30 4297 H 419.78 -2.26576 -1.96478 0
M  V30 4298 H 417.333 -1.20509 -0.995358 0
M  V30 4299 H 418.068 -0.033801 -3.24282 0
M  V30 4300 H 417.853 -1.79121 -3.48795 0
M  V30 4301 H 419.343 -0.98219 -4.05885 0
M  V30 4302 N 419.78 1.02168 -1.19998 0
M  V30 4303 C 420.727 2.10601 -0.944228 0
M  V30 4304 C 421.697 1.65639 0.123664 0
M  V30 4305 O 422.882 1.9079 -0.0199941 0
M  V30 4306 C 420.022 3.41504 -0.496865 0
M  V30 4307 C 419.135 3.99973 -1.63234 0
M  V30 4308 C 418.27 5.18915 -1.13579 0
M  V30 4309 C 417.309 5.69456 -2.24468 0
M  V30 4310 N 416.446 6.79665 -1.76068 0
M  V30 4311 H 421.286 2.31814 -1.8726 0
M  V30 4312 H 418.823 1.13686 -0.933483 0
M  V30 4313 H 420.781 4.16626 -0.218843 0
M  V30 4314 H 419.411 3.2038 0.394508 0
M  V30 4315 H 418.463 3.21997 -2.0254 0
M  V30 4316 H 419.775 4.33492 -2.46752 0
M  V30 4317 H 418.929 6.01222 -0.813429 0
M  V30 4318 H 417.668 4.8695 -0.270434 0
M  V30 4319 H 416.673 4.85757 -2.57526 0
M  V30 4320 H 417.898 6.03459 -3.11472 0
M  V30 4321 H 415.844 6.49538 -0.918516 0
M  V30 4322 H 415.761 7.12349 -2.5317 0
M  V30 4323 H 417.029 7.65549 -1.46817 0
M  V30 4324 N 421.258 1.00505 1.21394 0
M  V30 4325 C 422.504 0.688793 1.90745 0
M  V30 4326 C 422.837 -0.778486 1.77914 0
M  V30 4327 O 422.112 -1.56433 1.15581 0
M  V30 4328 C 422.395 1.11063 3.42545 0
M  V30 4329 C 422.248 2.63737 3.64367 0
M  V30 4330 C 423.567 0.673059 4.34923 0
M  V30 4331 H 420.686 0.251702 0.692687 0
M  V30 4332 H 423.328 1.25074 1.43026 0
M  V30 4333 H 421.478 0.632508 3.83317 0
M  V30 4334 H 423.15 3.19313 3.32922 0
M  V30 4335 H 421.393 3.05248 3.08231 0
M  V30 4336 H 422.064 2.88305 4.70727 0
M  V30 4337 H 424.54 1.08392 4.01734 0
M  V30 4338 H 423.416 0.996383 5.39781 0
M  V30 4339 H 423.677 -0.425808 4.40045 0
M  V30 4340 N 422.737 -1.36956 0.779787 0
M  V30 4341 C 423.977 -2.01328 0.353043 0
M  V30 4342 C 424.341 -1.60558 -1.05286 0
M  V30 4343 O 425.542 -2.1745 -1.58016 0
M  V30 4344 C 423.813 -3.53874 0.500822 0
M  V30 4345 S 425.372 -4.38506 0.16053 0
M  V30 4346 H 422.19 -0.69799 0.13539 0
M  V30 4347 H 424.792 -1.67016 1.01617 0
M  V30 4348 H 423.496 -3.81034 1.52451 0
M  V30 4349 H 423.027 -3.92994 -0.178574 0
M  V30 4350 H 425.042 -4.85153 -1.04121 0
M  V30 4351 N 424.215 -0.530993 -1.48385 0
M  V30 4352 C 425.148 0.278511 -2.26494 0
M  V30 4353 C 426.126 0.943905 -1.32398 0
M  V30 4354 O 427.31 0.968098 -1.61741 0
M  V30 4355 C 424.437 1.39453 -3.08659 0
M  V30 4356 C 423.483 0.840434 -4.18137 0
M  V30 4357 S 424.316 -0.292496 -5.34701 0
M  V30 4358 C 425.472 0.825973 -6.20426 0
M  V30 4359 H 425.705 -0.384365 -2.94805 0
M  V30 4360 H 423.238 -0.316799 -1.51115 0
M  V30 4361 H 425.196 2.03382 -3.56575 0
M  V30 4362 H 423.857 2.02913 -2.3976 0
M  V30 4363 H 423.05 1.67769 -4.75257 0
M  V30 4364 H 422.652 0.277819 -3.72967 0
M  V30 4365 H 424.944 1.72438 -6.55188 0
M  V30 4366 H 425.887 0.292728 -7.07495 0
M  V30 4367 H 426.295 1.10683 -5.53543 0
M  V30 4368 N 425.693 1.55336 -0.266172 0
M  V30 4369 C 426.939 1.99692 0.353681 0
M  V30 4370 C 427.272 1.1543 1.56172 0
M  V30 4371 O 426.547 0.222218 1.93226 0
M  V30 4372 C 426.83 3.52316 0.74466 0
M  V30 4373 C 426.683 4.47337 -0.470101 0
M  V30 4374 C 428.002 4.10588 1.58447 0
M  V30 4375 H 425.121 0.725961 0.12708 0
M  V30 4376 H 427.763 1.86336 -0.371333 0
M  V30 4377 H 425.913 3.63829 1.36239 0
M  V30 4378 H 427.585 4.4778 -1.10864 0
M  V30 4379 H 425.828 4.19364 -1.10978 0
M  V30 4380 H 426.499 5.51788 -0.15291 0
M  V30 4381 H 428.975 4.02297 1.06286 0
M  V30 4382 H 427.851 5.17607 1.82686 0
M  V30 4383 H 428.112 3.60253 2.56262 0
M  V30 4384 N 427.171 -0.0066808 1.57599 0
M  V30 4385 C 428.401 -0.703066 1.94269 0
M  V30 4386 C 428.809 -1.68206 0.866222 0
M  V30 4387 O 428.152 -1.82966 -0.164087 0
M  V30 4388 C 428.214 -1.49616 3.26887 0
M  V30 4389 C 427.878 -0.679494 4.5192 0
M  V30 4390 C 428.875 0.0299508 5.19891 0
M  V30 4391 C 426.56 -0.627433 4.98366 0
M  V30 4392 C 428.554 0.780514 6.32603 0
M  V30 4393 C 426.241 0.126861 6.10968 0
M  V30 4394 C 427.239 0.829574 6.77943 0
M  V30 4395 O 426.927 1.57157 7.88389 0
M  V30 4396 H 426.659 -0.201217 0.645359 0
M  V30 4397 H 429.213 0.0385326 2.05364 0
M  V30 4398 H 427.443 -2.28209 3.12182 0
M  V30 4399 H 429.132 -2.07726 3.48719 0
M  V30 4400 H 429.898 -0.00115963 4.85 0
M  V30 4401 H 425.777 -1.16392 4.46065 0
M  V30 4402 H 429.321 1.32954 6.84813 0
M  V30 4403 H 425.218 0.159815 6.45302 0
M  V30 4404 H 425.986 1.48758 8.04868 0
M  V30 4405 N 428.649 -1.55105 -0.279332 0
M  V30 4406 C 429.926 -1.66119 -1.03267 0
M  V30 4407 C 430.306 -0.523525 -2.04505 0
M  V30 4408 O 429.654 0.477194 -2.23462 0
M  V30 4409 C 429.864 -3.05067 -1.69515 0
M  V30 4410 C 431.212 -3.62606 -2.20912 0
M  V30 4411 O 432.236 -3.07659 -1.79512 0
M  V30 4412 O 431.095 -4.58861 -2.96831 0
M  V30 4413 H 428.189 -0.674429 -0.478618 0
M  V30 4414 H 430.735 -1.67446 -0.275694 0
M  V30 4415 H 429.507 -3.79311 -0.9612 0
M  V30 4416 H 429.13 -3.07611 -2.51915 0
M  V30 4417 N 430.127 0.543554 -1.4793 0
M  V30 4418 C 431.057 1.65888 -1.64327 0
M  V30 4419 C 432.038 1.62818 -0.492383 0
M  V30 4420 O 433.223 1.80226 -0.723338 0
M  V30 4421 C 430.353 3.04506 -1.67013 0
M  V30 4422 C 429.307 3.2243 -2.81466 0
M  V30 4423 C 428.633 4.61972 -2.69233 0
M  V30 4424 C 429.933 3.06496 -4.22915 0
M  V30 4425 H 431.627 1.52421 -2.57698 0
M  V30 4426 H 429.173 0.731849 -1.24016 0
M  V30 4427 H 431.126 3.82391 -1.77074 0
M  V30 4428 H 429.85 3.18964 -0.70212 0
M  V30 4429 H 428.509 2.46957 -2.70938 0
M  V30 4430 H 428.157 4.73247 -1.7043 0
M  V30 4431 H 427.857 4.74911 -3.46025 0
M  V30 4432 H 429.381 5.41974 -2.81242 0
M  V30 4433 H 430.795 3.74186 -4.34348 0
M  V30 4434 H 429.192 3.30938 -5.006 0
M  V30 4435 H 430.262 2.03077 -4.40327 0
M  V30 4436 N 431.605 1.3629 0.791371 0
M  V30 4437 C 432.835 1.33368 1.57786 0
M  V30 4438 C 433.243 -0.0875188 1.88997 0
M  V30 4439 O 432.586 -1.05427 1.50435 0
M  V30 4440 C 432.648 2.08802 2.92646 0
M  V30 4441 C 432.312 3.57903 2.84174 0
M  V30 4442 C 433.309 4.52191 2.56553 0
M  V30 4443 C 430.994 4.00762 3.02812 0
M  V30 4444 C 432.988 5.87315 2.47669 0
M  V30 4445 C 430.675 5.35977 2.93551 0
M  V30 4446 C 431.673 6.29066 2.66017 0
M  V30 4447 O 431.361 7.61798 2.56746 0
M  V30 4448 H 431.093 0.459166 0.496128 0
M  V30 4449 H 433.647 1.79952 0.990269 0
M  V30 4450 H 431.877 1.56878 3.53449 0
M  V30 4451 H 433.566 1.98762 3.53904 0
M  V30 4452 H 434.332 4.20393 2.41858 0
M  V30 4453 H 430.211 3.2868 3.2325 0
M  V30 4454 H 433.755 6.59943 2.26099 0
M  V30 4455 H 429.652 5.67384 3.07808 0
M  V30 4456 H 430.42 7.71898 2.72242 0
M  V30 4457 N 433.083 -1.0153 1.20538 0
M  V30 4458 C 434.03 -2.10098 0.955383 0
M  V30 4459 C 435 -1.65702 -0.114878 0
M  V30 4460 O 436.185 -1.90776 0.0301118 0
M  V30 4461 C 433.325 -3.41236 0.514969 0
M  V30 4462 C 432.438 -3.99102 1.65353 0
M  V30 4463 C 431.573 -5.18306 1.16329 0
M  V30 4464 C 430.612 -5.68258 2.27485 0
M  V30 4465 N 429.749 -6.78722 1.7967 0
M  V30 4466 H 434.589 -2.30818 1.88486 0
M  V30 4467 H 432.126 -1.13189 0.939499 0
M  V30 4468 H 434.084 -4.16504 0.240935 0
M  V30 4469 H 432.714 -3.20585 -0.377512 0
M  V30 4470 H 431.766 -3.20918 2.04245 0
M  V30 4471 H 433.078 -4.32177 2.49047 0
M  V30 4472 H 432.232 -6.00782 0.845302 0
M  V30 4473 H 430.971 -4.86799 0.296254 0
M  V30 4474 H 429.976 -4.84385 2.60099 0
M  V30 4475 H 431.201 -6.01798 3.14667 0
M  V30 4476 H 429.147 -6.49042 0.95295 0
M  V30 4477 H 429.064 -7.10996 2.56944 0
M  V30 4478 H 430.332 -7.64759 1.50875 0
M  V30 4479 N 434.561 -1.01147 -1.20859 0
M  V30 4480 C 435.789 -0.716911 -1.94082 0
M  V30 4481 C 436.204 0.721568 -1.74467 0
M  V30 4482 O 435.561 1.48889 -1.05539 0
M  V30 4483 C 435.612 -1.03662 -3.46318 0
M  V30 4484 O 435.333 -2.4186 -3.65288 0
M  V30 4485 C 436.834 -0.762386 -4.36695 0
M  V30 4486 H 434.054 -0.26367 -0.617024 0
M  V30 4487 H 436.598 -1.35127 -1.53496 0
M  V30 4488 H 434.753 -0.447757 -3.84804 0
M  V30 4489 H 435.167 -2.53224 -4.59323 0
M  V30 4490 H 436.641 -1.03621 -5.42187 0
M  V30 4491 H 437.118 0.303514 -4.3815 0
M  V30 4492 H 437.724 -1.33316 -4.03865 0
M  V30 4493 N 436.039 1.36541 -0.78704 0
M  V30 4494 C 436.969 2.32659 -0.197992 0
M  V30 4495 C 437.95 1.56533 0.665697 0
M  V30 4496 O 439.135 1.84698 0.60001 0
M  V30 4497 C 436.265 3.40778 0.669901 0
M  V30 4498 C 435.219 4.27897 -0.0937039 0
M  V30 4499 C 434.545 5.27163 0.894629 0
M  V30 4500 C 435.845 5.06334 -1.28154 0
M  V30 4501 H 437.539 2.82171 -1.00099 0
M  V30 4502 H 435.085 1.35665 -0.482793 0
M  V30 4503 H 437.038 4.07008 1.09191 0
M  V30 4504 H 435.762 2.89827 1.50558 0
M  V30 4505 H 434.421 3.6322 -0.49666 0
M  V30 4506 H 434.069 4.72486 1.72527 0
M  V30 4507 H 433.769 5.86317 0.388149 0
M  V30 4508 H 435.293 5.96266 1.31525 0
M  V30 4509 H 436.707 5.65617 -0.93541 0
M  V30 4510 H 435.104 5.74888 -1.72115 0
M  V30 4511 H 436.174 4.38114 -2.07807 0
M  V30 4512 N 437.518 0.538854 1.48102 0
M  V30 4513 C 438.746 0.0123136 2.06896 0
M  V30 4514 C 439.161 -1.27312 1.39417 0
M  V30 4515 O 438.518 -1.75949 0.484582 0
M  V30 4516 C 438.569 -0.206118 3.60912 0
M  V30 4517 O 438.29 1.0284 4.25859 0
M  V30 4518 C 439.791 -0.772033 4.36526 0
M  V30 4519 H 437.011 0.0375239 0.66995 0
M  V30 4520 H 439.555 0.747032 1.90367 0
M  V30 4521 H 437.71 -0.89091 3.77017 0
M  V30 4522 H 438.124 0.814654 5.18135 0
M  V30 4523 H 439.598 -0.874251 5.45033 0
M  V30 4524 H 440.075 -1.77904 4.01555 0
M  V30 4525 H 440.681 -0.123526 4.25121 0
M  V30 4526 N 438.996 -1.55193 0.274407 0
M  V30 4527 C 440.407 -1.85358 -0.223488 0
M  V30 4528 C 440.758 -1.19642 -1.555 0
M  V30 4529 O 439.883 -0.484498 -2.10907 0
M  V30 4530 C 440.478 -3.36282 -0.412285 0
M  V30 4531 C 439.037 -3.66574 -0.854413 0
M  V30 4532 C 438.184 -2.7725 0.0527056 0
M  V30 4533 H 441.135 -1.50743 0.496215 0
M  V30 4534 H 441.156 -3.59349 -1.25094 0
M  V30 4535 H 440.668 -3.84083 0.556965 0
M  V30 4536 H 438.769 -3.24273 -1.83516 0
M  V30 4537 H 438.882 -4.74073 -0.692226 0
M  V30 4538 H 437.246 -2.50447 -0.463484 0
M  V30 4539 H 438.029 -3.27865 1.01783 0
M  V30 4540 N 440.474 -0.00167713 -1.576 0
M  V30 4541 C 441.723 0.682021 -1.89819 0
M  V30 4542 C 442.036 1.74844 -0.876871 0
M  V30 4543 O 443.242 2.48688 -1.08934 0
M  V30 4544 C 441.698 1.26425 -3.36964 0
M  V30 4545 C 441.306 0.232568 -4.47396 0
M  V30 4546 C 443.05 1.92604 -3.78291 0
M  V30 4547 C 440.957 0.824882 -5.85619 0
M  V30 4548 H 439.887 0.258499 -0.708304 0
M  V30 4549 H 442.538 -0.0624957 -1.83394 0
M  V30 4550 H 440.92 2.05949 -3.38232 0
M  V30 4551 H 442.094 -0.5382 -4.57646 0
M  V30 4552 H 440.409 -0.32888 -4.15099 0
M  V30 4553 H 443.006 2.37827 -4.78897 0
M  V30 4554 H 443.349 2.75732 -3.11894 0
M  V30 4555 H 443.882 1.19812 -3.79328 0
M  V30 4556 H 440.621 0.0323542 -6.55492 0
M  V30 4557 H 440.141 1.56477 -5.79029 0
M  V30 4558 H 441.82 1.32301 -6.33329 0
M  V30 4559 N 441.952 1.55251 0.271103 0
M  V30 4560 C 443.177 1.80306 1.02491 0
M  V30 4561 C 443.602 0.575457 1.79081 0
M  V30 4562 O 442.96 -0.474987 1.74967 0
M  V30 4563 C 443.008 3.02832 1.95768 0
M  V30 4564 O 442.112 2.78051 3.04568 0
M  V30 4565 H 441.453 0.595896 0.292923 0
M  V30 4566 H 443.983 2.02397 0.299436 0
M  V30 4567 H 443.993 3.31616 2.37686 0
M  V30 4568 H 442.668 3.9183 1.39434 0
M  V30 4569 H 441.245 2.60369 2.66951 0
M  V30 4570 N 443.43 -0.535701 1.48216 0
M  V30 4571 C 444.393 -1.623 1.61838 0
M  V30 4572 C 445.393 -1.53087 0.492024 0
M  V30 4573 O 446.583 -1.5686 0.757668 0
M  V30 4574 C 443.715 -3.01907 1.58319 0
M  V30 4575 H 444.908 -1.51564 2.58783 0
M  V30 4576 H 442.461 -0.757317 1.36727 0
M  V30 4577 H 443.196 -3.18155 0.628299 0
M  V30 4578 H 442.981 -3.10003 2.40085 0
M  V30 4579 H 444.471 -3.80969 1.71033 0
M  V30 4580 N 444.908 -1.36708 -0.784132 0
M  V30 4581 C 445.871 -1.31307 -1.87859 0
M  V30 4582 C 446.871 -0.219654 -1.59293 0
M  V30 4583 O 448.061 -0.47476 -1.67606 0
M  V30 4584 C 445.193 -1.03679 -3.24751 0
M  V30 4585 H 446.386 -2.28647 -1.94064 0
M  V30 4586 H 443.939 -1.21558 -0.98252 0
M  V30 4587 H 444.674 -0.0681936 -3.24228 0
M  V30 4588 H 444.459 -1.82811 -3.46876 0
M  V30 4589 H 445.949 -1.02518 -4.04821 0
M  V30 4590 N 446.386 1.0089 -1.21074 0
M  V30 4591 C 447.616 1.77933 -1.04993 0
M  V30 4592 C 448.024 1.84847 0.403495 0
M  V30 4593 O 447.367 1.30606 1.29181 0
M  V30 4594 C 447.429 3.23541 -1.56722 0
M  V30 4595 C 447.093 3.40214 -3.05129 0
M  V30 4596 C 448.09 3.2881 -4.02716 0
M  V30 4597 C 445.775 3.65781 -3.44252 0
M  V30 4598 C 447.769 3.42732 -5.37414 0
M  V30 4599 C 445.456 3.79346 -4.79103 0
M  V30 4600 C 446.454 3.67827 -5.75493 0
M  V30 4601 O 446.142 3.80965 -7.07899 0
M  V30 4602 H 445.874 0.566157 -0.369381 0
M  V30 4603 H 448.428 1.27826 -1.60779 0
M  V30 4604 H 446.658 3.74766 -0.953285 0
M  V30 4605 H 448.347 3.82245 -1.36543 0
M  V30 4606 H 449.113 3.08986 -3.73835 0
M  V30 4607 H 444.992 3.73831 -2.69762 0
M  V30 4608 H 448.536 3.33658 -6.12632 0
M  V30 4609 H 444.433 3.98672 -5.07672 0
M  V30 4610 H 445.201 3.97937 -7.15254 0
M  V30 4611 N 447.864 1.01787 1.20321 0
M  V30 4612 C 448.827 0.593972 2.2137 0
M  V30 4613 C 449.827 -0.336553 1.57239 0
M  V30 4614 O 451.017 -0.125069 1.7375 0
M  V30 4615 C 448.149 -0.132433 3.40643 0
M  V30 4616 H 449.342 1.48791 2.60387 0
M  V30 4617 H 446.895 0.807803 1.33807 0
M  V30 4618 H 447.63 -1.04123 3.0713 0
M  V30 4619 H 447.415 0.53605 3.88418 0
M  V30 4620 H 448.905 -0.416314 4.1552 0
M  V30 4621 N 449.342 -1.36122 0.79427 0
M  V30 4622 C 450.758 -1.5232 0.476525 0
M  V30 4623 C 450.958 -1.74685 -1.00436 0
M  V30 4624 O 450.014 -1.78115 -1.78973 0
M  V30 4625 C 451.327 -2.70607 1.31119 0
M  V30 4626 C 452.875 -2.8448 1.30537 0
M  V30 4627 C 453.35 -4.05778 2.12387 0
M  V30 4628 N 454.841 -4.12933 2.09859 0
M  V30 4629 C 455.576 -5.05876 2.69957 0
M  V30 4630 N 455.072 -6.04232 3.38934 0
M  V30 4631 N 456.865 -4.98528 2.59665 0
M  V30 4632 H 449.016 -1.1986 1.75349 0
M  V30 4633 H 451.279 -0.585418 0.745647 0
M  V30 4634 H 450.985 -2.60619 2.36158 0
M  V30 4635 H 450.859 -3.64888 0.955843 0
M  V30 4636 H 453.246 -2.93927 0.262876 0
M  V30 4637 H 453.327 -1.91093 1.70051 0
M  V30 4638 H 452.971 -3.97092 3.1667 0
M  V30 4639 H 452.901 -4.98323 1.70242 0
M  V30 4640 H 455.392 -3.42515 1.59662 0
M  V30 4641 H 455.705 -6.71724 3.82109 0
M  V30 4642 H 454.05 -6.04443 3.43036 0
M  V30 4643 H 457.241 -4.20641 2.05375 0
M  V30 4644 H 457.414 -5.70773 3.06793 0
M  V30 4645 N 450.82 -0.546701 -1.47814 0
M  V30 4646 C 451.783 0.196287 -2.28358 0
M  V30 4647 C 452.783 0.852437 -1.36346 0
M  V30 4648 O 453.973 0.709913 -1.59078 0
M  V30 4649 C 451.105 1.28579 -3.15722 0
M  V30 4650 H 452.298 -0.511086 -2.95513 0
M  V30 4651 H 449.851 -0.303248 -1.5333 0
M  V30 4652 H 450.586 2.0259 -2.53235 0
M  V30 4653 H 450.371 0.820229 -3.83425 0
M  V30 4654 H 451.861 1.80793 -3.76435 0
M  V30 4655 N 452.299 1.55045 -0.282633 0
M  V30 4656 C 453.715 1.59441 0.0712997 0
M  V30 4657 C 453.915 1.2998 1.53972 0
M  V30 4658 O 452.971 1.06431 2.28973 0
M  V30 4659 C 454.284 2.99097 -0.310104 0
M  V30 4660 C 455.832 3.1194 -0.257343 0
M  V30 4661 C 456.307 4.53875 -0.613297 0
M  V30 4662 N 457.798 4.5974 -0.565134 0
M  V30 4663 C 458.533 5.67603 -0.81326 0
M  V30 4664 N 458.029 6.83582 -1.1264 0
M  V30 4665 N 459.822 5.57187 -0.741553 0
M  V30 4666 H 451.973 1.72458 -1.23984 0
M  V30 4667 H 454.236 0.804549 -0.501403 0
M  V30 4668 H 453.942 3.25516 -1.33163 0
M  V30 4669 H 453.816 3.75616 0.345366 0
M  V30 4670 H 456.203 2.85281 0.754905 0
M  V30 4671 H 456.284 2.37618 -0.947178 0
M  V30 4672 H 455.928 4.81261 -1.62327 0
M  V30 4673 H 455.858 5.26508 0.09841 0
M  V30 4674 H 458.349 3.76427 -0.333294 0
M  V30 4675 H 458.662 7.6175 -1.30219 0
M  V30 4676 H 457.007 6.85179 -1.16425 0
M  V30 4677 H 460.198 4.65457 -0.496705 0
M  V30 4678 H 460.371 6.41171 -0.938306 0
M  V30 4679 N 453.777 0.010035 1.57597 0
M  V30 4680 C 455.025 -0.671371 1.90623 0
M  V30 4681 C 455.346 -1.73753 0.885151 0
M  V30 4682 O 454.616 -1.95752 -0.0760611 0
M  V30 4683 H 453.196 -0.250968 0.703579 0
M  V30 4684 H 455.858 0.0533325 1.94827 0
M  V30 4685 H 454.954 -1.13626 2.90681 0
M  V30 4686 N 455.255 -1.55392 -0.262866 0
M  V30 4687 C 456.218 -1.88181 -1.30846 0
M  V30 4688 C 457.218 -0.757079 -1.41862 0
M  V30 4689 O 458.408 -1.02519 -1.40838 0
M  V30 4690 C 455.54 -2.09609 -2.68844 0
M  V30 4691 H 456.733 -2.81659 -1.02997 0
M  V30 4692 H 454.286 -1.48039 -0.501414 0
M  V30 4693 H 455.021 -1.18547 -3.01856 0
M  V30 4694 H 454.806 -2.91508 -2.62231 0
M  V30 4695 H 456.296 -2.36215 -3.44372 0
M  V30 4696 N 456.733 0.527833 -1.48498 0
M  V30 4697 C 458.01 1.28905 -1.47115 0
M  V30 4698 C 458.39 2.10297 -0.184007 0
M  V30 4699 O 457.738 2.12728 0.834218 0
M  V30 4700 C 457.948 2.16866 -2.73441 0
M  V30 4701 C 459.296 2.76936 -3.21857 0
M  V30 4702 O 460.32 2.27152 -2.74373 0
M  V30 4703 O 459.179 3.67496 -4.04486 0
M  V30 4704 H 456.273 0.581918 -0.587623 0
M  V30 4705 H 458.819 0.544311 -1.60734 0
M  V30 4706 H 457.591 1.56521 -3.58632 0
M  V30 4707 H 457.214 2.98583 -2.62553 0
M  V30 4708 N 458.211 1.37122 0.776871 0
M  V30 4709 C 459.627 1.1781 1.07671 0
M  V30 4710 C 459.827 0.0107454 2.01497 0
M  V30 4711 O 458.883 -0.650756 2.4397 0
M  V30 4712 C 460.196 2.49451 1.67913 0
M  V30 4713 C 461.744 2.55927 1.80195 0
M  V30 4714 C 462.219 3.87686 2.43851 0
M  V30 4715 N 463.71 3.891 2.51307 0
M  V30 4716 C 464.445 4.87797 3.014 0
M  V30 4717 N 463.941 5.96888 3.51705 0
M  V30 4718 N 465.734 4.75205 3.00227 0
M  V30 4719 H 457.885 2.11843 0.153778 0
M  V30 4720 H 460.148 0.938927 0.130844 0
M  V30 4721 H 459.854 3.35207 1.06439 0
M  V30 4722 H 459.728 2.66169 2.67271 0
M  V30 4723 H 462.115 1.70582 2.40803 0
M  V30 4724 H 462.196 2.43097 0.796069 0
M  V30 4725 H 461.84 4.73444 1.83884 0
M  V30 4726 H 461.77 3.97817 3.45035 0
M  V30 4727 H 464.261 3.10293 2.157 0
M  V30 4728 H 464.574 6.68155 3.88316 0
M  V30 4729 H 462.919 6.0054 3.49824 0
M  V30 4730 H 466.11 3.89103 2.60224 0
M  V30 4731 H 466.283 5.52279 3.38957 0
M  V30 4732 N 459.689 -1.00246 1.21608 0
M  V30 4733 C 460.622 -2.08794 0.920892 0
M  V30 4734 C 461.6 -1.62059 -0.132552 0
M  V30 4735 O 462.784 -1.885 -0.0030366 0
M  V30 4736 C 459.911 -3.36525 0.383226 0
M  V30 4737 C 458.957 -4.02172 1.41987 0
M  V30 4738 S 459.79 -4.44256 2.98994 0
M  V30 4739 C 460.946 -5.7517 2.4684 0
M  V30 4740 H 461.179 -2.33511 1.8401 0
M  V30 4741 H 458.712 -1.13562 1.04609 0
M  V30 4742 H 460.67 -4.10423 0.0795871 0
M  V30 4743 H 459.331 -3.09854 -0.514711 0
M  V30 4744 H 458.524 -4.94114 0.993335 0
M  V30 4745 H 458.126 -3.34559 1.67171 0
M  V30 4746 H 460.418 -6.51042 1.87484 0
M  V30 4747 H 461.361 -6.22638 3.37235 0
M  V30 4748 H 461.769 -5.32112 1.88461 0
M  V30 4749 N 461.167 -1.02423 -1.1978 0
M  V30 4750 C 462.392 -0.7373 -1.93852 0
M  V30 4751 C 462.817 0.696923 -1.74713 0
M  V30 4752 O 462.175 1.48056 -1.04638 0
M  V30 4753 C 462.223 -1.08783 -3.438 0
M  V30 4754 O 461.327 -0.20383 -4.11896 0
M  V30 4755 H 460.668 -0.27284 -0.605355 0
M  V30 4756 H 463.198 -1.36966 -1.51992 0
M  V30 4757 H 463.208 -1.04276 -3.9445 0
M  V30 4758 H 461.883 -2.13274 -3.57053 0
M  V30 4759 H 460.46 -0.307091 -3.71633 0
M  V30 4760 N 462.645 1.35699 -0.801477 0
M  V30 4761 C 463.87 2.03687 -0.390678 0
M  V30 4762 C 464.295 1.60015 0.988778 0
M  V30 4763 O 463.653 0.774357 1.63931 0
M  V30 4764 C 463.701 3.57439 -0.476404 0
M  V30 4765 O 462.805 4.09208 0.512106 0
M  V30 4766 H 462.146 0.64344 -0.163956 0
M  V30 4767 H 464.676 1.73403 -1.08594 0
M  V30 4768 H 464.686 4.06544 -0.344357 0
M  V30 4769 H 463.361 3.88576 -1.48262 0
M  V30 4770 H 461.938 3.7134 0.340721 0
M  V30 4771 N 464.123 0.554532 1.47522 0
M  V30 4772 C 465.37 0.029479 2.02479 0
M  V30 4773 C 465.698 -1.31929 1.42916 0
M  V30 4774 O 464.953 -1.87112 0.573385 0
M  V30 4775 C 465.252 -0.115927 3.57212 0
M  V30 4776 C 464.918 1.16161 4.3568 0
M  V30 4777 C 463.58 1.51168 4.56839 0
M  V30 4778 C 465.932 2.0083 4.80954 0
M  V30 4779 C 463.26 2.70696 5.2052 0
M  V30 4780 C 465.612 3.19559 5.45953 0
M  V30 4781 C 464.276 3.54882 5.65345 0
M  V30 4782 H 463.546 0.0107871 0.740921 0
M  V30 4783 H 466.193 0.725506 1.77225 0
M  V30 4784 H 464.498 -0.894902 3.81443 0
M  V30 4785 H 466.195 -0.53749 3.97381 0
M  V30 4786 H 462.785 0.879026 4.19489 0
M  V30 4787 H 466.969 1.75093 4.64388 0
M  V30 4788 H 462.225 2.98236 5.33728 0
M  V30 4789 H 466.399 3.85456 5.79997 0
M  V30 4790 H 464.026 4.47596 6.1446 0
M  V30 4791 N 465.601 -1.54893 0.290851 0
M  V30 4792 C 466.849 -1.99538 -0.320756 0
M  V30 4793 C 467.17 -1.18075 -1.55188 0
M  V30 4794 O 466.44 -0.274162 -1.93972 0
M  V30 4795 H 465.02 -0.737052 -0.121507 0
M  V30 4796 H 467.682 -1.90755 0.399832 0
M  V30 4797 H 466.778 -3.06282 -0.599802 0
M  V30 4798 N 467.08 -0.0183926 -1.57589 0
M  V30 4799 C 468.357 0.700621 -1.82622 0
M  V30 4800 C 468.737 1.90951 -0.90005 0
M  V30 4801 O 468.085 2.28452 0.0469145 0
M  V30 4802 C 468.295 1.08899 -3.31575 0
M  V30 4803 C 469.643 1.48514 -3.9778 0
M  V30 4804 O 470.667 1.18227 -3.36007 0
M  V30 4805 O 469.526 2.04903 -5.06633 0
M  V30 4806 H 466.62 0.342743 -0.752633 0
M  V30 4807 H 469.166 -0.0452548 -1.6964 0
M  V30 4808 H 467.938 0.228113 -3.90635 0
M  V30 4809 H 467.561 1.89338 -3.49624 0
M  V30 4810 N 468.558 1.5553 0.254621 0
M  V30 4811 C 469.805 1.77 0.983736 0
M  V30 4812 C 470.133 0.58133 1.85609 0
M  V30 4813 O 469.388 -0.435621 1.9079 0
M  V30 4814 C 469.687 3.03891 1.88109 0
M  V30 4815 C 469.353 4.35597 1.16472 0
M  V30 4816 C 468.015 4.7139 0.966714 0
M  V30 4817 C 470.367 5.1705 0.656387 0
M  V30 4818 C 467.695 5.86176 0.247942 0
M  V30 4819 C 470.047 6.32581 -0.0488807 0
M  V30 4820 C 468.711 6.67 -0.258438 0
M  V30 4821 H 467.981 0.647688 0.359974 0
M  V30 4822 H 470.628 1.89802 0.254463 0
M  V30 4823 H 468.933 2.86068 2.67717 0
M  V30 4824 H 470.63 3.17701 2.44677 0
M  V30 4825 H 467.22 4.07475 1.32899 0
M  V30 4826 H 471.404 4.8986 0.796933 0
M  V30 4827 H 466.66 6.11354 0.075035 0
M  V30 4828 H 470.834 6.94942 -0.450444 0
M  V30 4829 H 468.461 7.55793 -0.817358 0
M  V30 4830 N 470.036 -0.519951 1.48776 0
M  V30 4831 C 471.282 -1.27711 1.57536 0
M  V30 4832 C 471.615 -1.92547 0.252866 0
M  V30 4833 O 470.89 -1.7979 -0.742021 0
M  V30 4834 C 471.173 -2.35875 2.72094 0
M  V30 4835 C 471.026 -1.75664 4.1408 0
M  V30 4836 C 472.345 -3.37575 2.82367 0
M  V30 4837 H 469.464 -0.462971 0.573434 0
M  V30 4838 H 472.106 -0.578194 1.80989 0
M  V30 4839 H 470.256 -2.95488 2.52228 0
M  V30 4840 H 471.928 -1.20025 4.45412 0
M  V30 4841 H 470.171 -1.06154 4.20611 0
M  V30 4842 H 470.842 -2.54029 4.90075 0
M  V30 4843 H 473.318 -2.87929 3.00393 0
M  V30 4844 H 472.194 -4.1064 3.64233 0
M  V30 4845 H 472.455 -3.98743 1.90936 0
M  V30 4846 N 471.514 -1.37532 -0.769588 0
M  V30 4847 C 472.477 -1.33292 -1.86456 0
M  V30 4848 C 473.477 -0.236537 -1.59051 0
M  V30 4849 O 474.667 -0.492511 -1.67093 0
M  V30 4850 C 471.799 -1.07118 -3.23633 0
M  V30 4851 H 472.992 -2.30692 -1.91628 0
M  V30 4852 H 470.545 -1.22593 -0.969572 0
M  V30 4853 H 471.28 -0.102578 -3.24138 0
M  V30 4854 H 471.065 -1.86479 -3.44917 0
M  V30 4855 H 472.555 -1.06806 -4.03711 0
M  V30 4856 N 472.992 0.995999 -1.22138 0
M  V30 4857 C 473.922 2.10387 -1.01289 0
M  V30 4858 C 474.903 1.69975 0.0651454 0
M  V30 4859 O 476.088 1.9396 -0.0964628 0
M  V30 4860 C 473.218 3.42312 -0.586517 0
M  V30 4861 C 472.172 3.96558 -1.61014 0
M  V30 4862 C 471.498 5.24494 -1.0397 0
M  V30 4863 C 472.798 4.27595 -2.99933 0
M  V30 4864 H 474.492 2.28086 -1.93951 0
M  V30 4865 H 472.038 1.09607 -0.933928 0
M  V30 4866 H 473.991 4.19223 -0.427793 0
M  V30 4867 H 472.715 3.24431 0.375761 0
M  V30 4868 H 471.374 3.21776 -1.75658 0
M  V30 4869 H 471.022 5.02953 -0.0688703 0
M  V30 4870 H 470.722 5.61755 -1.72352 0
M  V30 4871 H 472.246 6.04042 -0.892494 0
M  V30 4872 H 473.66 4.95315 -2.8868 0
M  V30 4873 H 472.057 4.76021 -3.6541 0
M  V30 4874 H 473.127 3.35498 -3.50099 0
M  V30 4875 N 474.47 1.03057 1.19235 0
M  V30 4876 C 475.695 0.74757 1.93458 0
M  V30 4877 C 476.12 -0.687648 1.7508 0
M  V30 4878 O 475.478 -1.47499 1.05422 0
M  V30 4879 C 475.526 1.10604 3.43219 0
M  V30 4880 O 474.63 0.225671 4.11782 0
M  V30 4881 H 473.971 0.276047 0.603899 0
M  V30 4882 H 476.501 1.3777 1.51263 0
M  V30 4883 H 476.511 1.06366 3.93891 0
M  V30 4884 H 475.186 2.15165 3.55917 0
M  V30 4885 H 473.763 0.326795 3.71465 0
M  V30 4886 N 475.948 -1.35272 0.808662 0
M  V30 4887 C 477.225 -1.93077 0.313181 0
M  V30 4888 C 477.605 -1.73847 -1.19752 0
M  V30 4889 O 476.953 -1.1087 -1.998 0
M  V30 4890 C 477.163 -3.41347 0.726859 0
M  V30 4891 C 478.511 -4.18493 0.717532 0
M  V30 4892 O 479.535 -3.4987 0.668535 0
M  V30 4893 O 478.394 -5.40937 0.777779 0
M  V30 4894 H 475.488 -0.822885 0.0824018 0
M  V30 4895 H 478.034 -1.44335 0.892499 0
M  V30 4896 H 476.806 -3.49082 1.76797 0
M  V30 4897 H 476.429 -3.97411 0.122461 0
M  V30 4898 N 477.426 -0.562348 -1.47226 0
M  V30 4899 C 478.672 -0.0402761 -2.0276 0
M  V30 4900 C 479.005 1.30823 -1.43523 0
M  V30 4901 O 478.28 1.85249 -0.592705 0
M  V30 4902 C 478.563 0.047311 -3.60069 0
M  V30 4903 C 478.416 -1.32865 -4.29729 0
M  V30 4904 C 479.735 0.758182 -4.3352 0
M  V30 4905 H 476.854 -0.0161105 -0.736824 0
M  V30 4906 H 479.496 -0.725628 -1.75598 0
M  V30 4907 H 477.646 0.630986 -3.83342 0
M  V30 4908 H 479.318 -1.95593 -4.17781 0
M  V30 4909 H 477.561 -1.90195 -3.89882 0
M  V30 4910 H 478.232 -1.22004 -5.38349 0
M  V30 4911 H 480.708 0.262546 -4.15271 0
M  V30 4912 H 479.584 0.78844 -5.43208 0
M  V30 4913 H 479.845 1.81537 -4.03109 0
M  V30 4914 N 478.904 1.54736 -0.299062 0
M  V30 4915 C 480.144 2.0201 0.31168 0
M  V30 4916 C 480.508 1.18281 1.5124 0
M  V30 4917 O 481.709 1.55243 2.19438 0
M  V30 4918 C 479.98 3.5123 0.661227 0
M  V30 4919 S 481.539 4.20467 1.2551 0
M  V30 4920 H 478.357 0.704523 0.0957517 0
M  V30 4921 H 480.959 1.90791 -0.426482 0
M  V30 4922 H 479.663 4.09804 -0.221171 0
M  V30 4923 H 479.194 3.66481 1.43023 0
M  V30 4924 H 481.209 4.26083 2.54298 0
M  V30 4925 N 480.382 0.0267497 1.57577 0
M  V30 4926 C 481.659 -0.690926 1.82991 0
M  V30 4927 C 482.039 -1.90471 0.910164 0
M  V30 4928 O 481.387 -2.28474 -0.0347985 0
M  V30 4929 C 481.597 -1.07139 3.32148 0
M  V30 4930 C 482.945 -1.46402 3.98562 0
M  V30 4931 O 483.969 -1.16443 3.36629 0
M  V30 4932 O 482.828 -2.02214 5.07712 0
M  V30 4933 H 479.922 -0.338747 0.75444 0
M  V30 4934 H 482.468 0.0542506 1.69613 0
M  V30 4935 H 481.24 -0.207394 3.9075 0
M  V30 4936 H 480.863 -1.87481 3.50623 0
M  V30 4937 N 481.861 -1.55662 -0.24637 0
M  V30 4938 C 483.107 -1.77782 -0.975779 0
M  V30 4939 C 483.44 -0.592103 -1.84953 0
M  V30 4940 O 482.715 0.409588 -1.90138 0
M  V30 4941 C 482.998 -3.09788 -1.83584 0
M  V30 4942 C 482.851 -4.38764 -0.990241 0
M  V30 4943 C 484.17 -3.38029 -2.81823 0
M  V30 4944 H 481.289 -0.646789 -0.353317 0
M  V30 4945 H 483.931 -1.88398 -0.246248 0
M  V30 4946 H 482.081 -3.00869 -2.45784 0
M  V30 4947 H 483.753 -4.59675 -0.386897 0
M  V30 4948 H 481.996 -4.32798 -0.294626 0
M  V30 4949 H 482.667 -5.27514 -1.62584 0
M  V30 4950 H 485.143 -3.46915 -2.2976 0
M  V30 4951 H 484.019 -4.3161 -3.39122 0
M  V30 4952 H 484.28 -2.58968 -3.58313 0
M  V30 4953 N 483.339 0.512053 -1.4905 0
M  V30 4954 C 484.75 1.09376 -1.51307 0
M  V30 4955 C 485.101 1.94 -0.292971 0
M  V30 4956 O 484.226 2.07965 0.598277 0
M  V30 4957 C 484.821 1.99031 -2.74176 0
M  V30 4958 C 483.38 2.52385 -2.79247 0
M  V30 4959 C 482.527 1.29749 -2.45073 0
M  V30 4960 H 485.478 0.296467 -1.55906 0
M  V30 4961 H 485.499 2.83569 -2.53711 0
M  V30 4962 H 485.011 1.37412 -3.62959 0
M  V30 4963 H 483.112 3.17673 -1.94716 0
M  V30 4964 H 483.225 2.90293 -3.81139 0
M  V30 4965 H 481.589 1.61912 -1.96612 0
M  V30 4966 H 482.372 0.698555 -3.36118 0
M  V30 4967 N 484.817 1.37938 0.762283 0
M  V30 4968 C 486.045 1.36883 1.55147 0
M  V30 4969 C 486.46 -0.0435348 1.8875 0
M  V30 4970 O 485.817 -1.00786 1.52146 0
M  V30 4971 C 485.868 2.21624 2.85596 0
M  V30 4972 O 485.589 3.57358 2.5343 0
M  V30 4973 C 487.09 2.28653 3.7978 0
M  V30 4974 H 484.31 0.468521 0.480343 0
M  V30 4975 H 486.854 1.81404 0.944079 0
M  V30 4976 H 485.009 1.80588 3.42734 0
M  V30 4977 H 485.423 4.01883 3.37032 0
M  V30 4978 H 486.897 2.9225 4.68288 0
M  V30 4979 H 487.374 1.29767 4.19592 0
M  V30 4980 H 487.98 2.70043 3.28568 0
M  V30 4981 N 486.295 -0.989507 1.22664 0
M  V30 4982 C 487.258 -2.06183 1.00106 0
M  V30 4983 C 488.258 -1.60765 -0.0337726 0
M  V30 4984 O 489.448 -1.72989 0.205072 0
M  V30 4985 C 486.58 -3.37021 0.51279 0
M  V30 4986 H 487.773 -2.27629 1.95256 0
M  V30 4987 H 485.326 -1.16158 1.0458 0
M  V30 4988 H 486.061 -3.21261 -0.442917 0
M  V30 4989 H 485.846 -3.71323 1.25942 0
M  V30 4990 H 487.336 -4.1591 0.375315 0
M  V30 4991 N 487.773 -1.03688 -1.18687 0
M  V30 4992 C 488.72 -0.624624 -2.22187 0
M  V30 4993 C 489.69 0.365636 -1.62026 0
M  V30 4994 O 490.875 0.260481 -1.89014 0
M  V30 4995 C 488.015 0.0101738 -3.45099 0
M  V30 4996 C 487.128 -1.02709 -4.19613 0
M  V30 4997 C 486.263 -0.361213 -5.2997 0
M  V30 4998 C 485.302 -1.38384 -5.96252 0
M  V30 4999 N 484.439 -0.743196 -6.98155 0
M  V30 5000 H 489.279 -1.51176 -2.56807 0
M  V30 5001 H 486.816 -0.75636 -1.26165 0
M  V30 5002 H 488.774 0.395528 -4.15321 0
M  V30 5003 H 487.404 0.860848 -3.1111 0
M  V30 5004 H 486.456 -1.53043 -3.48256 0
M  V30 5005 H 487.768 -1.80398 -4.65036 0
M  V30 5006 H 486.922 0.0785537 -6.06649 0
M  V30 5007 H 485.661 0.447799 -4.8564 0
M  V30 5008 H 484.666 -1.83378 -5.18317 0
M  V30 5009 H 485.891 -2.19448 -6.42666 0
M  V30 5010 H 483.837 0.0455789 -6.55984 0
M  V30 5011 H 483.754 -1.45784 -7.41811 0
M  V30 5012 H 485.022 -0.327698 -7.78811 0
M  V30 5013 N 489.251 1.34841 -0.815825 0
M  V30 5014 C 490.5 1.97755 -0.396976 0
M  V30 5015 C 490.813 1.65422 1.04379 0
M  V30 5016 O 492.019 2.21771 1.5662 0
M  V30 5017 C 490.475 3.53818 -0.658869 0
M  V30 5018 C 490.083 3.95051 -2.11278 0
M  V30 5019 C 491.827 4.23397 -0.305834 0
M  V30 5020 C 489.734 5.43997 -2.31994 0
M  V30 5021 H 488.664 0.739985 -0.1447 0
M  V30 5022 H 491.315 1.53781 -1.00118 0
M  V30 5023 H 489.697 3.95997 0.0154112 0
M  V30 5024 H 490.871 3.63998 -2.82564 0
M  V30 5025 H 489.186 3.38388 -2.42657 0
M  V30 5026 H 491.783 5.32899 -0.43854 0
M  V30 5027 H 492.126 4.09508 0.748952 0
M  V30 5028 H 492.659 3.8667 -0.934403 0
M  V30 5029 H 489.398 5.62865 -3.35952 0
M  V30 5030 H 488.918 5.76589 -1.65244 0
M  V30 5031 H 490.597 6.10584 -2.14001 0
M  V30 5032 N 490.729 0.570148 1.46925 0
M  V30 5033 C 491.978 0.0487352 2.01641 0
M  V30 5034 C 492.291 -1.31433 1.44861 0
M  V30 5035 O 493.497 -1.92638 1.91318 0
M  V30 5036 C 491.953 0.0365817 3.59881 0
M  V30 5037 C 491.561 1.39719 4.25655 0
M  V30 5038 C 493.305 -0.431545 4.22301 0
M  V30 5039 C 491.212 1.34345 5.75939 0
M  V30 5040 H 490.142 0.0144492 0.753862 0
M  V30 5041 H 492.793 0.719928 1.68788 0
M  V30 5042 H 491.175 -0.700522 3.89755 0
M  V30 5043 H 492.349 2.15303 4.07408 0
M  V30 5044 H 490.664 1.80431 3.75278 0
M  V30 5045 H 493.261 -0.490354 5.32447 0
M  V30 5046 H 493.604 -1.44638 3.90366 0
M  V30 5047 H 494.137 0.251102 3.97007 0
M  V30 5048 H 490.876 2.33469 6.12513 0
M  V30 5049 H 490.396 0.629615 5.96486 0
M  V30 5050 H 492.075 1.051 6.38407 0
M  V30 5051 N 492.207 -1.54576 0.307264 0
M  V30 5052 C 493.432 -2.05139 -0.305379 0
M  V30 5053 C 493.857 -1.18278 -1.46259 0
M  V30 5054 O 493.215 -0.188243 -1.8032 0
M  V30 5055 C 493.263 -3.53066 -0.733283 0
M  V30 5056 O 492.367 -3.69206 -1.83741 0
M  V30 5057 H 491.708 -0.661444 -0.0582105 0
M  V30 5058 H 494.238 -1.99569 0.450931 0
M  V30 5059 H 494.248 -3.95034 -1.02039 0
M  V30 5060 H 492.923 -4.15746 0.113198 0
M  V30 5061 H 491.5 -3.39143 -1.55037 0
M  V30 5062 N 493.685 -0.035106 -1.57561 0
M  V30 5063 C 495.101 0.321334 -1.56332 0
M  V30 5064 C 495.301 1.72509 -1.04129 0
M  V30 5065 O 494.357 2.4287 -0.690694 0
M  V30 5066 C 495.67 0.164469 -3.0025 0
M  V30 5067 C 497.218 0.236786 -3.12103 0
M  V30 5068 C 497.693 0.10864 -4.57871 0
M  V30 5069 N 499.184 0.165433 -4.62904 0
M  V30 5070 C 499.919 0.0901506 -5.73329 0
M  V30 5071 N 499.415 -0.0365606 -6.9279 0
M  V30 5072 N 501.208 0.144572 -5.61914 0
M  V30 5073 H 493.359 -0.952976 -1.89821 0
M  V30 5074 H 495.622 -0.368537 -0.873432 0
M  V30 5075 H 495.328 -0.802746 -3.42416 0
M  V30 5076 H 495.202 0.932194 -3.655 0
M  V30 5077 H 497.589 1.19446 -2.69845 0
M  V30 5078 H 497.67 -0.561419 -2.49563 0
M  V30 5079 H 497.314 -0.845644 -5.00811 0
M  V30 5080 H 497.244 0.925786 -5.18398 0
M  V30 5081 H 499.735 0.263269 -3.76982 0
M  V30 5082 H 500.048 -0.0871487 -7.72751 0
M  V30 5083 H 498.393 -0.0714256 -6.94963 0
M  V30 5084 H 501.584 0.242006 -4.67474 0
M  V30 5085 H 501.757 0.0824413 -6.47948 0
M  V30 5086 N 495.163 1.55791 0.238111 0
M  V30 5087 C 496.073 1.94196 1.31625 0
M  V30 5088 C 497.089 0.843545 1.52185 0
M  V30 5089 O 498.265 1.1457 1.65637 0
M  V30 5090 C 495.33 2.2365 2.64918 0
M  V30 5091 C 494.391 3.46971 2.52804 0
M  V30 5092 C 493.624 3.7501 3.79741 0
M  V30 5093 O 493.847 3.04982 4.82019 0
M  V30 5094 O 492.781 4.68525 3.77846 0
M  V30 5095 H 496.607 2.86044 1.02043 0
M  V30 5096 H 494.192 1.42786 0.439603 0
M  V30 5097 H 496.074 2.43863 3.4367 0
M  V30 5098 H 494.749 1.34979 2.94215 0
M  V30 5099 H 493.656 3.32055 1.72309 0
M  V30 5100 H 494.989 4.35971 2.28451 0
M  V30 5101 N 496.642 -0.504142 1.49319 0
M  V30 5102 C 497.888 -1.26033 1.58882 0
M  V30 5103 C 498.221 -1.92268 0.273274 0
M  V30 5104 O 497.496 -1.80567 -0.72291 0
M  V30 5105 C 497.779 -2.32976 2.7458 0
M  V30 5106 C 497.632 -1.71263 4.1592 0
M  V30 5107 C 498.951 -3.34561 2.85932 0
M  V30 5108 H 496.07 -0.456863 0.578312 0
M  V30 5109 H 498.712 -0.558965 1.81592 0
M  V30 5110 H 496.862 -2.92796 2.55348 0
M  V30 5111 H 498.534 -1.15294 4.4666 0
M  V30 5112 H 496.777 -1.01686 4.21714 0
M  V30 5113 H 497.448 -2.48816 4.92742 0
M  V30 5114 H 499.924 -2.84727 3.0343 0
M  V30 5115 H 498.8 -4.06754 3.68568 0
M  V30 5116 H 499.061 -3.96695 1.95154 0
M  V30 5117 N 498.12 -1.38341 -0.754957 0
M  V30 5118 C 499.345 -1.37882 -1.5493 0
M  V30 5119 C 499.77 0.0296385 -1.88077 0
M  V30 5120 O 499.128 1.01133 -1.50472 0
M  V30 5121 C 499.176 -2.23996 -2.82592 0
M  V30 5122 O 498.28 -1.65612 -3.77686 0
M  V30 5123 H 497.621 -0.470384 -0.468652 0
M  V30 5124 H 500.151 -1.82084 -0.933082 0
M  V30 5125 H 500.161 -2.37806 -3.3153 0
M  V30 5126 H 498.836 -3.26365 -2.57796 0
M  V30 5127 H 497.413 -1.60936 -3.36384 0
M  V30 5128 N 499.598 0.982988 -1.23187 0
M  V30 5129 C 500.875 1.69814 -0.970707 0
M  V30 5130 C 501.255 2.04811 0.511424 0
M  V30 5131 O 500.603 1.73924 1.48198 0
M  V30 5132 C 500.813 2.94143 -1.87831 0
M  V30 5133 C 502.161 3.66712 -2.14026 0
M  V30 5134 O 503.185 3.04171 -1.8536 0
M  V30 5135 O 502.044 4.79258 -2.62629 0
M  V30 5136 H 499.138 0.741659 -0.365884 0
M  V30 5137 H 501.684 1.03844 -1.34218 0
M  V30 5138 H 500.456 2.64858 -2.88038 0
M  V30 5139 H 500.079 3.6785 -1.50905 0
M  V30 5140 N 501.076 1.04316 1.18135 0
M  V30 5141 C 502.324 0.746542 1.87806 0
M  V30 5142 C 502.645 -0.728082 1.80898 0
M  V30 5143 O 501.915 -1.52554 1.22899 0
M  V30 5144 H 500.495 0.273157 0.695265 0
M  V30 5145 H 503.157 1.32044 1.43354 0
M  V30 5146 H 502.253 1.05362 2.93778 0
M  V30 5147 N 502.554 -1.34406 0.822964 0
M  V30 5148 C 503.803 -1.97542 0.407458 0
M  V30 5149 C 504.116 -1.65973 -1.035 0
M  V30 5150 O 505.322 -2.22598 -1.55442 0
M  V30 5151 C 503.778 -3.53463 0.677623 0
M  V30 5152 C 503.386 -3.93925 2.1337 0
M  V30 5153 C 505.13 -4.23229 0.328284 0
M  V30 5154 C 503.037 -5.42759 2.34876 0
M  V30 5155 H 501.967 -0.739207 0.148623 0
M  V30 5156 H 504.618 -1.53248 1.00932 0
M  V30 5157 H 503 -3.96 0.00558965 0
M  V30 5158 H 504.174 -3.62494 2.8449 0
M  V30 5159 H 502.489 -3.37097 2.44448 0
M  V30 5160 H 505.086 -5.32659 0.466794 0
M  V30 5161 H 505.429 -4.09899 -0.727224 0
M  V30 5162 H 505.962 -3.86169 0.954896 0
M  V30 5163 H 502.701 -5.61075 3.38932 0
M  V30 5164 H 502.221 -5.75704 1.68299 0
M  V30 5165 H 503.9 -6.0944 2.17236 0
M  V30 5166 N 504.032 -0.577932 -1.46621 0
M  V30 5167 C 505.281 -0.0594281 -2.01612 0
M  V30 5168 C 505.594 1.30663 -1.45556 0
M  V30 5169 O 506.8 1.91621 -1.92337 0
M  V30 5170 C 505.256 -0.0556666 -3.59857 0
M  V30 5171 C 504.864 -1.41975 -4.24908 0
M  V30 5172 C 506.608 0.409143 -4.22524 0
M  V30 5173 C 504.515 -1.37397 -5.75218 0
M  V30 5174 H 503.445 -0.0184469 -0.753774 0
M  V30 5175 H 506.096 -0.728869 -1.68404 0
M  V30 5176 H 504.478 0.679843 -3.90121 0
M  V30 5177 H 505.652 -2.17461 -4.0626 0
M  V30 5178 H 503.967 -1.82419 -3.74316 0
M  V30 5179 H 506.564 0.46211 -5.32699 0
M  V30 5180 H 506.907 1.42565 -3.91128 0
M  V30 5181 H 507.44 -0.272152 -3.96868 0
M  V30 5182 H 504.179 -2.36714 -6.11267 0
M  V30 5183 H 503.699 -0.661239 -5.96144 0
M  V30 5184 H 505.378 -1.08484 -6.3784 0
M  V30 5185 N 505.51 1.54411 -0.315457 0
M  V30 5186 C 506.473 2.22713 0.54142 0
M  V30 5187 C 507.473 1.2179 1.04995 0
M  V30 5188 O 508.663 1.46426 0.943667 0
M  V30 5189 C 505.795 2.92485 1.75116 0
M  V30 5190 H 506.988 2.99849 -0.0555508 0
M  V30 5191 H 504.541 1.56159 -0.0664453 0
M  V30 5192 H 505.276 2.19466 2.38758 0
M  V30 5193 H 505.061 3.66483 1.39401 0
M  V30 5194 H 506.551 3.44548 2.35959 0
M  V30 5195 N 506.988 0.0434614 1.5754 0
M  V30 5196 C 508.399 -0.493343 1.80064 0
M  V30 5197 C 508.75 -1.71388 0.955023 0
M  V30 5198 O 507.875 -2.15736 0.169434 0
M  V30 5199 C 508.47 -0.90179 3.26578 0
M  V30 5200 C 507.029 -1.38362 3.50047 0
M  V30 5201 C 506.176 -0.355129 2.75017 0
M  V30 5202 H 509.127 0.2694 1.56397 0
M  V30 5203 H 509.148 -1.76523 3.37075 0
M  V30 5204 H 508.66 -0.013271 3.88098 0
M  V30 5205 H 506.761 -2.29159 2.93798 0
M  V30 5206 H 506.874 -1.3811 4.58762 0
M  V30 5207 H 505.238 -0.826348 2.40922 0
M  V30 5208 H 506.021 0.525172 3.39259 0
M  V30 5209 N 508.466 -1.55915 -0.229846 0
M  V30 5210 C 509.714 -1.7819 -0.953565 0
M  V30 5211 C 510.035 -0.610504 -1.85197 0
M  V30 5212 O 509.305 0.372988 -1.92316 0
M  V30 5213 H 507.885 -0.657208 -0.355087 0
M  V30 5214 H 510.547 -1.9337 -0.243693 0
M  V30 5215 H 509.643 -2.70011 -1.56527 0
M  V30 5216 N 509.944 0.496216 -1.49584 0
M  V30 5217 C 511.174 1.27209 -1.62793 0
M  V30 5218 C 511.582 1.86799 -0.300476 0
M  V30 5219 O 510.925 1.68802 0.724674 0
M  V30 5220 C 510.987 2.43812 -2.64189 0
M  V30 5221 C 510.651 2.05055 -4.08414 0
M  V30 5222 C 511.648 1.58752 -4.9507 0
M  V30 5223 C 509.333 2.14543 -4.54177 0
M  V30 5224 C 511.327 1.22448 -6.25528 0
M  V30 5225 C 509.014 1.77851 -5.84647 0
M  V30 5226 C 510.012 1.31878 -6.70147 0
M  V30 5227 O 509.7 0.956834 -7.98185 0
M  V30 5228 H 509.432 0.391848 -0.550846 0
M  V30 5229 H 511.986 0.601712 -1.96389 0
M  V30 5230 H 510.216 3.13941 -2.25783 0
M  V30 5231 H 511.905 3.05829 -2.66877 0
M  V30 5232 H 512.671 1.50863 -4.60939 0
M  V30 5233 H 508.55 2.49277 -3.87791 0
M  V30 5234 H 512.094 0.864933 -6.92217 0
M  V30 5235 H 507.991 1.8539 -6.18305 0
M  V30 5236 H 508.759 1.08789 -8.11238 0
M  V30 5237 N 511.423 1.38739 0.74761 0
M  V30 5238 C 512.333 1.38696 1.89211 0
M  V30 5239 C 513.349 0.283303 1.71678 0
M  V30 5240 O 514.525 0.522713 1.94498 0
M  V30 5241 C 511.59 1.21662 3.24653 0
M  V30 5242 C 510.651 2.41886 3.54669 0
M  V30 5243 C 509.884 2.25655 4.83648 0
M  V30 5244 O 510.107 1.25339 5.56459 0
M  V30 5245 O 509.041 3.14372 5.13277 0
M  V30 5246 H 512.867 2.35143 1.92202 0
M  V30 5247 H 510.452 1.19721 0.893708 0
M  V30 5248 H 512.334 1.14246 4.05618 0
M  V30 5249 H 511.009 0.283024 3.2246 0
M  V30 5250 H 509.916 2.54877 2.73841 0
M  V30 5251 H 511.249 3.33895 3.61628 0
M  V30 5252 N 512.901 -0.976442 1.23707 0
M  V30 5253 C 513.811 -2.10359 1.03856 0
M  V30 5254 C 514.827 -1.73991 -0.0180919 0
M  V30 5255 O 516.003 -2.0061 0.178211 0
M  V30 5256 C 513.068 -3.40809 0.636387 0
M  V30 5257 C 512.129 -3.91179 1.76854 0
M  V30 5258 C 511.362 -5.15404 1.38546 0
M  V30 5259 O 511.585 -5.69754 0.27142 0
M  V30 5260 O 510.519 -5.5994 2.20797 0
M  V30 5261 H 514.345 -2.29997 1.98331 0
M  V30 5262 H 511.93 -1.08742 1.02448 0
M  V30 5263 H 513.812 -4.19269 0.423223 0
M  V30 5264 H 512.487 -3.22493 -0.279322 0
M  V30 5265 H 511.394 -3.13819 2.03638 0
M  V30 5266 H 512.727 -4.13958 2.6627 0
M  V30 5267 N 514.379 -1.04941 -1.1758 0
M  V30 5268 C 515.289 -0.658826 -2.25159 0
M  V30 5269 C 516.305 0.318941 -1.71052 0
M  V30 5270 O 517.481 0.171669 -2.00667 0
M  V30 5271 C 514.546 -0.0369522 -3.4668 0
M  V30 5272 C 513.607 -1.06484 -4.15884 0
M  V30 5273 C 512.84 -0.472551 -5.31604 0
M  V30 5274 O 513.063 0.718736 -5.65854 0
M  V30 5275 O 511.997 -1.20557 -5.89703 0
M  V30 5276 H 515.823 -1.55533 -2.60851 0
M  V30 5277 H 513.408 -0.820819 -1.24832 0
M  V30 5278 H 515.29 0.308784 -4.20267 0
M  V30 5279 H 513.965 0.833238 -3.12792 0
M  V30 5280 H 512.872 -1.46253 -3.44327 0
M  V30 5281 H 514.205 -1.9061 -4.53794 0
M  V30 5282 N 515.857 1.33968 -0.830081 0
M  V30 5283 C 516.82 2.27694 -0.26235 0
M  V30 5284 C 517.82 1.50589 0.563876 0
M  V30 5285 O 519.01 1.70028 0.378941 0
M  V30 5286 C 516.142 3.35002 0.63138 0
M  V30 5287 H 517.335 2.79419 -1.08928 0
M  V30 5288 H 514.888 1.44221 -0.602486 0
M  V30 5289 H 515.623 2.88504 1.48109 0
M  V30 5290 H 515.408 3.92079 0.0403276 0
M  V30 5291 H 516.898 4.04897 1.02217 0
M  V30 5292 N 517.335 0.585699 1.46312 0
M  V30 5293 C 518.265 -0.133556 2.33118 0
M  V30 5294 C 519.246 -0.880707 1.45525 0
M  V30 5295 O 520.431 -0.855579 1.74337 0
M  V30 5296 C 517.561 -1.14585 3.27853 0
M  V30 5297 C 516.515 -0.513341 4.2491 0
M  V30 5298 C 515.841 -1.63231 5.09175 0
M  V30 5299 C 517.141 0.551413 5.19381 0
M  V30 5300 H 518.835 0.59121 2.93505 0
M  V30 5301 H 516.381 0.285761 1.41136 0
M  V30 5302 H 518.334 -1.65741 3.87438 0
M  V30 5303 H 517.058 -1.90093 2.65579 0
M  V30 5304 H 515.717 -0.0228349 3.66593 0
M  V30 5305 H 515.365 -2.37713 4.43285 0
M  V30 5306 H 515.065 -1.21473 5.74907 0
M  V30 5307 H 516.589 -2.14658 5.71624 0
M  V30 5308 H 518.003 0.124804 5.73164 0
M  V30 5309 H 516.4 0.889486 5.93471 0
M  V30 5310 H 517.47 1.43655 4.63132 0
M  V30 5311 N 518.813 -1.54241 0.323641 0
M  V30 5312 C 520.041 -2.04985 -0.280871 0
M  V30 5313 C 520.456 -1.19978 -1.45777 0
M  V30 5314 O 519.813 -0.230471 -1.81039 0
M  V30 5315 C 519.864 -3.54353 -0.715258 0
M  V30 5316 O 519.585 -4.36132 0.414817 0
M  V30 5317 C 521.086 -4.21189 -1.38257 0
M  V30 5318 H 518.306 -0.66851 -0.0577502 0
M  V30 5319 H 520.85 -1.99029 0.469852 0
M  V30 5320 H 519.005 -3.60596 -1.41596 0
M  V30 5321 H 519.419 -5.2445 0.0725227 0
M  V30 5322 H 520.893 -5.27154 -1.63745 0
M  V30 5323 H 521.37 -3.72307 -2.32989 0
M  V30 5324 H 521.976 -4.19085 -0.724447 0
M  V30 5325 N 520.291 -0.0518155 -1.57515 0
M  V30 5326 C 521.54 0.621286 -1.91893 0
M  V30 5327 C 521.853 1.71966 -0.932052 0
M  V30 5328 O 523.059 2.45096 -1.16791 0
M  V30 5329 C 521.515 1.15641 -3.40816 0
M  V30 5330 C 521.123 0.0901146 -4.47909 0
M  V30 5331 C 522.867 1.80472 -3.84227 0
M  V30 5332 C 520.774 0.638154 -5.87947 0
M  V30 5333 H 519.704 0.235835 -0.716169 0
M  V30 5334 H 522.355 -0.120809 -1.83102 0
M  V30 5335 H 520.737 1.95084 -3.44613 0
M  V30 5336 H 521.911 -0.683525 -4.55702 0
M  V30 5337 H 520.226 -0.460774 -4.13843 0
M  V30 5338 H 522.823 2.22471 -4.86221 0
M  V30 5339 H 523.166 2.65669 -3.20508 0
M  V30 5340 H 523.699 1.07683 -3.82948 0
M  V30 5341 H 520.438 -0.176202 -6.55263 0
M  V30 5342 H 519.958 1.37976 -5.83714 0
M  V30 5343 H 521.637 1.12085 -6.37217 0
M  V30 5344 N 521.769 1.56035 0.221574 0
M  V30 5345 C 522.699 1.95434 1.2778 0
M  V30 5346 C 523.68 0.822564 1.48889 0
M  V30 5347 O 524.865 1.08486 1.61072 0
M  V30 5348 C 521.995 2.27102 2.62759 0
M  V30 5349 C 520.949 3.4277 2.56306 0
M  V30 5350 C 520.275 3.60043 3.95314 0
M  V30 5351 C 521.575 4.77742 2.11093 0
M  V30 5352 H 523.269 2.83912 0.950504 0
M  V30 5353 H 520.815 1.36596 0.455791 0
M  V30 5354 H 522.768 2.53256 3.36807 0
M  V30 5355 H 521.492 1.35478 2.97176 0
M  V30 5356 H 520.151 3.16664 1.84715 0
M  V30 5357 H 519.799 2.65794 4.27039 0
M  V30 5358 H 519.499 4.37841 3.91879 0
M  V30 5359 H 521.023 3.88545 4.71025 0
M  V30 5360 H 522.437 5.03102 2.74885 0
M  V30 5361 H 520.834 5.58823 2.18716 0
M  V30 5362 H 521.904 4.731 1.06321 0
M  V30 5363 N 523.247 -0.488276 1.49845 0
M  V30 5364 C 524.472 -1.26997 1.63971 0
M  V30 5365 C 524.897 -1.85427 0.315994 0
M  V30 5366 O 524.255 -1.66475 -0.718032 0
M  V30 5367 C 524.303 -2.36689 2.72049 0
M  V30 5368 O 523.407 -3.40882 2.32107 0
M  V30 5369 H 522.748 -0.374376 0.548396 0
M  V30 5370 H 525.278 -0.583104 1.96115 0
M  V30 5371 H 525.288 -2.82262 2.94605 0
M  V30 5372 H 523.963 -1.93529 3.68129 0
M  V30 5373 H 522.54 -3.01139 2.19931 0
M  V30 5374 N 524.725 -1.39134 -0.740242 0
M  V30 5375 C 525.672 -1.37434 -1.8542 0
M  V30 5376 C 526.642 -0.234822 -1.64432 0
M  V30 5377 O 527.827 -0.429125 -1.85912 0
M  V30 5378 C 524.967 -1.21844 -3.22875 0
M  V30 5379 C 524.08 -2.45296 -3.55603 0
M  V30 5380 C 523.215 -2.22334 -4.82432 0
M  V30 5381 C 522.254 -3.41488 -5.07988 0
M  V30 5382 N 521.391 -3.17877 -6.26018 0
M  V30 5383 H 526.231 -2.3266 -1.86207 0
M  V30 5384 H 523.768 -1.15578 -0.909946 0
M  V30 5385 H 525.726 -1.10818 -4.02213 0
M  V30 5386 H 524.356 -0.3025 -3.21379 0
M  V30 5387 H 523.408 -2.66945 -2.71006 0
M  V30 5388 H 524.72 -3.34063 -3.7041 0
M  V30 5389 H 523.874 -2.0852 -5.69741 0
M  V30 5390 H 522.613 -1.30954 -4.6979 0
M  V30 5391 H 521.618 -3.55807 -4.19144 0
M  V30 5392 H 522.843 -4.33763 -5.22519 0
M  V30 5393 H 520.789 -2.29156 -6.14673 0
M  V30 5394 H 520.706 -4.00198 -6.41387 0
M  V30 5395 H 521.974 -3.07746 -7.16179 0
M  V30 5396 N 526.204 0.969867 -1.24223 0
M  V30 5397 C 527.151 2.06407 -1.0327 0
M  V30 5398 C 528.121 1.66014 0.0533 0
M  V30 5399 O 529.306 1.90533 -0.100896 0
M  V30 5400 C 526.446 3.3909 -0.641262 0
M  V30 5401 C 525.559 3.9269 -1.80051 0
M  V30 5402 C 524.694 5.13631 -1.35486 0
M  V30 5403 C 523.733 5.59423 -2.48419 0
M  V30 5404 N 522.87 6.71586 -2.04737 0
M  V30 5405 H 527.71 2.23663 -1.96923 0
M  V30 5406 H 525.247 1.09624 -0.980862 0
M  V30 5407 H 527.205 4.15323 -0.395351 0
M  V30 5408 H 525.835 3.21765 0.258269 0
M  V30 5409 H 524.887 3.13116 -2.16014 0
M  V30 5410 H 526.199 4.22636 -2.64916 0
M  V30 5411 H 525.353 5.97231 -1.0677 0
M  V30 5412 H 524.092 4.85364 -0.476722 0
M  V30 5413 H 523.097 4.74398 -2.77897 0
M  V30 5414 H 524.322 5.89705 -3.36786 0
M  V30 5415 H 522.268 6.45058 -1.19318 0
M  V30 5416 H 522.185 7.0097 -2.83156 0
M  V30 5417 H 523.453 7.58633 -1.79154 0
M  V30 5418 N 527.682 1.05563 1.17022 0
M  V30 5419 C 528.629 0.659893 2.21165 0
M  V30 5420 C 529.599 -0.339813 1.62587 0
M  V30 5421 O 530.784 -0.230378 1.89404 0
M  V30 5422 C 527.924 0.0447297 3.45071 0
M  V30 5423 C 527.037 1.09372 4.17926 0
M  V30 5424 C 526.172 0.445481 5.29329 0
M  V30 5425 C 525.211 1.47852 5.93975 0
M  V30 5426 N 524.348 0.854172 6.96885 0
M  V30 5427 H 529.188 1.55243 2.54369 0
M  V30 5428 H 526.725 0.776336 1.24946 0
M  V30 5429 H 528.683 -0.329404 4.15898 0
M  V30 5430 H 527.313 -0.811244 3.1244 0
M  V30 5431 H 526.365 1.58564 3.45777 0
M  V30 5432 H 527.677 1.87773 4.62107 0
M  V30 5433 H 526.831 0.0179688 6.06697 0
M  V30 5434 H 525.57 -0.370481 4.86291 0
M  V30 5435 H 524.575 1.91601 5.15334 0
M  V30 5436 H 525.8 2.29645 6.39093 0
M  V30 5437 H 523.746 0.0587882 6.55974 0
M  V30 5438 H 523.663 1.57567 7.39397 0
M  V30 5439 H 524.931 0.451559 7.78191 0
M  V30 5440 N 529.16 -1.33526 0.837174 0
M  V30 5441 C 530.108 -2.31168 0.257698 0
M  V30 5442 C 531.102 -1.5806 -0.609388 0
M  V30 5443 O 532.308 -1.72941 -0.499139 0
M  V30 5444 H 528.683 -0.74922 0.0646058 0
M  V30 5445 H 530.654 -2.77552 1.09578 0
M  V30 5446 C 529.403 -3.4326 -0.553887 0
M  V30 5447 H 528.726 -3.99665 0.104008 0
M  V30 5448 H 530.166 -4.13782 -0.925219 0
M  V30 5449 C 528.625 -2.88965 -1.73207 0
M  V30 5450 O 529.155 -2.85013 -2.83073 0
M  V30 5451 N 527.361 -2.45596 -1.55342 0
M  V30 5452 H 526.908 -2.49009 -0.659705 0
M  V30 5453 H 526.866 -2.0962 -2.34322 0
M  V30 5454 N 530.638 -0.59345 -1.46 0
M  V30 5455 C 531.886 -0.082988 -2.0193 0
M  V30 5456 C 532.207 1.28569 -1.46612 0
M  V30 5457 O 531.477 1.84629 -0.654909 0
M  V30 5458 H 530.057 -0.0276882 -0.746487 0
M  V30 5459 H 532.719 -0.771657 -1.78973 0
M  V30 5460 H 531.815 -0.022079 -3.12092 0
M  V30 5461 N 532.116 1.54067 -0.331816 0
M  V30 5462 C 533.064 2.26105 0.54582 0
M  V30 5463 C 534.058 1.27816 1.11173 0
M  V30 5464 O 535.264 1.45565 1.05882 0
M  V30 5465 H 531.639 0.726363 0.194683 0
M  V30 5466 H 533.61 2.98282 -0.083931 0
M  V30 5467 C 532.359 3.03814 1.69092 0
M  V30 5468 H 531.682 3.79269 1.26473 0
M  V30 5469 H 533.122 3.57453 2.28043 0
M  V30 5470 C 531.581 2.12606 2.61343 0
M  V30 5471 O 532.111 1.71437 3.6328 0
M  V30 5472 N 530.317 1.77925 2.29763 0
M  V30 5473 H 529.864 2.11602 1.46909 0
M  V30 5474 H 529.822 1.1718 2.91747 0
M  V30 5475 N 533.594 0.0601682 1.57485 0
M  V30 5476 C 534.824 -0.620037 1.97076 0
M  V30 5477 C 535.232 -1.64381 0.936784 0
M  V30 5478 O 534.575 -1.83497 -0.0863377 0
M  V30 5479 C 534.637 -1.35617 3.32939 0
M  V30 5480 C 534.301 -0.487208 4.54396 0
M  V30 5481 C 535.298 0.250428 5.19297 0
M  V30 5482 C 532.983 -0.415494 5.00579 0
M  V30 5483 C 534.977 1.04812 6.28723 0
M  V30 5484 C 532.664 0.385879 6.0988 0
M  V30 5485 C 533.662 1.11637 6.73815 0
M  V30 5486 O 533.35 1.90454 7.81014 0
M  V30 5487 H 533.082 -0.173664 0.653312 0
M  V30 5488 H 535.636 0.1256 2.05016 0
M  V30 5489 H 533.866 -2.14763 3.2158 0
M  V30 5490 H 535.555 -1.92749 3.57215 0
M  V30 5491 H 536.321 0.204546 4.84568 0
M  V30 5492 H 532.2 -0.973679 4.506 0
M  V30 5493 H 535.744 1.6188 6.78558 0
M  V30 5494 H 531.641 0.433366 6.44044 0
M  V30 5495 H 532.409 1.82762 7.97835 0
M  V30 5496 N 535.072 -1.5615 -0.213296 0
M  V30 5497 C 536.312 -1.81325 -0.943435 0
M  V30 5498 C 536.676 -0.634934 -1.81198 0
M  V30 5499 O 537.877 -0.766166 -2.5765 0
M  V30 5500 C 536.148 -3.11437 -1.75334 0
M  V30 5501 S 537.707 -3.57955 -2.53799 0
M  V30 5502 H 534.525 -0.636538 -0.316766 0
M  V30 5503 H 537.127 -1.94387 -0.208313 0
M  V30 5504 H 535.831 -3.95228 -1.10556 0
M  V30 5505 H 535.362 -3.01204 -2.53061 0
M  V30 5506 H 537.377 -3.21947 -3.77577 0
M  V30 5507 N 536.55 0.480323 -1.50102 0
M  V30 5508 C 537.796 1.23489 -1.60867 0
M  V30 5509 C 538.129 1.91809 -0.303827 0
M  V30 5510 O 537.404 1.81694 0.694092 0
M  V30 5511 C 537.687 2.28578 -2.78252 0
M  V30 5512 C 537.54 1.64624 -4.18592 0
M  V30 5513 C 538.859 3.2997 -2.91218 0
M  V30 5514 H 535.978 0.447605 -0.585507 0
M  V30 5515 H 538.62 0.530005 -1.82458 0
M  V30 5516 H 536.77 2.88697 -2.59974 0
M  V30 5517 H 538.442 1.08173 -4.48438 0
M  V30 5518 H 536.685 0.949645 -4.23278 0
M  V30 5519 H 537.356 2.40946 -4.96638 0
M  V30 5520 H 539.832 2.79864 -3.07921 0
M  V30 5521 H 538.708 4.00839 -3.74993 0
M  V30 5522 H 538.969 3.93541 -2.0144 0
M  V30 5523 N 538.028 1.39524 0.732853 0
M  V30 5524 C 538.958 1.41153 1.86005 0
M  V30 5525 C 539.939 0.274614 1.67869 0
M  V30 5526 O 541.124 0.480745 1.88155 0
M  V30 5527 C 538.254 1.25638 3.23778 0
M  V30 5528 C 537.208 2.36752 3.56556 0
M  V30 5529 C 536.534 2.06326 4.93289 0
M  V30 5530 C 537.834 3.79069 3.5931 0
M  V30 5531 H 539.528 2.35484 1.84899 0
M  V30 5532 H 537.074 1.13348 0.888162 0
M  V30 5533 H 539.027 1.25398 4.0231 0
M  V30 5534 H 537.751 0.277772 3.25417 0
M  V30 5535 H 536.41 2.36213 2.80355 0
M  V30 5536 H 536.058 1.06897 4.9151 0
M  V30 5537 H 535.758 2.80757 5.16187 0
M  V30 5538 H 537.282 2.07739 5.74175 0
M  V30 5539 H 538.696 3.81526 4.27914 0
M  V30 5540 H 537.093 4.52878 3.93728 0
M  V30 5541 H 538.163 4.09893 2.59068 0
M  V30 5542 N 539.506 -0.963266 1.24736 0
M  V30 5543 C 540.438 -2.06162 1.0015 0
M  V30 5544 C 541.451 -1.62771 -0.0305905 0
M  V30 5545 O 542.64 -1.77296 0.206966 0
M  V30 5546 C 539.74 -3.35333 0.490385 0
M  V30 5547 C 538.913 -4.07609 1.58663 0
M  V30 5548 C 537.972 -5.15052 1.0774 0
M  V30 5549 O 536.998 -5.4098 1.77002 0
M  V30 5550 N 538.2 -5.80436 -0.0858605 0
M  V30 5551 H 540.965 -2.27825 1.94719 0
M  V30 5552 H 538.526 -1.13121 1.15825 0
M  V30 5553 H 540.518 -4.04477 0.134371 0
M  V30 5554 H 539.088 -3.10507 -0.361155 0
M  V30 5555 H 538.308 -3.32681 2.11463 0
M  V30 5556 H 539.596 -4.52656 2.32336 0
M  V30 5557 H 538.994 -5.6178 -0.664806 0
M  V30 5558 H 537.551 -6.50674 -0.382981 0
M  V30 5559 N 540.985 -1.06182 -1.16461 0
M  V30 5560 C 541.918 -0.615859 -2.19733 0
M  V30 5561 C 542.896 0.360766 -1.58547 0
M  V30 5562 O 544.08 0.270009 -1.86556 0
M  V30 5563 C 541.207 0.097312 -3.3856 0
M  V30 5564 C 540.253 -0.835889 -4.18229 0
M  V30 5565 S 541.086 -2.33052 -4.82128 0
M  V30 5566 C 542.242 -1.62881 -6.04335 0
M  V30 5567 H 542.475 -1.49079 -2.57221 0
M  V30 5568 H 540.008 -0.874692 -1.27234 0
M  V30 5569 H 541.966 0.502563 -4.07412 0
M  V30 5570 H 540.627 0.948418 -2.99439 0
M  V30 5571 H 539.82 -0.283426 -5.03202 0
M  V30 5572 H 539.422 -1.18097 -3.54865 0
M  V30 5573 H 541.714 -0.933764 -6.71034 0
M  V30 5574 H 542.657 -2.45641 -6.64128 0
M  V30 5575 H 543.065 -1.11189 -5.53441 0
M  V30 5576 N 542.463 1.3308 -0.844243 0
M  V30 5577 C 543.74 1.92178 -0.364261 0
M  V30 5578 C 544.12 1.76961 1.15101 0
M  V30 5579 O 543.468 1.16128 1.9679 0
M  V30 5580 C 543.678 3.393 -0.817106 0
M  V30 5581 C 545.026 4.16444 -0.828236 0
M  V30 5582 O 546.05 3.47975 -0.761062 0
M  V30 5583 O 544.909 5.38685 -0.920926 0
M  V30 5584 H 542.003 0.820411 -0.10419 0
M  V30 5585 H 544.549 1.41918 -0.930453 0
M  V30 5586 H 543.321 3.44272 -1.85991 0
M  V30 5587 H 542.944 3.96947 -0.227785 0
M  V30 5588 N 543.941 0.601185 1.45683 0
M  V30 5589 C 544.873 -0.159446 2.28645 0
M  V30 5590 C 545.886 -0.837882 1.39583 0
M  V30 5591 O 547.075 -0.704344 1.64016 0
M  V30 5592 C 544.175 -1.24641 3.15147 0
M  V30 5593 C 543.348 -0.656334 4.32448 0
M  V30 5594 C 542.407 -1.63337 5.00208 0
M  V30 5595 O 541.433 -1.16217 5.57209 0
M  V30 5596 N 542.635 -2.96773 4.98905 0
M  V30 5597 H 545.4 0.5524 2.94565 0
M  V30 5598 H 542.961 0.440223 1.558 0
M  V30 5599 H 544.953 -1.8997 3.57342 0
M  V30 5600 H 543.523 -1.86087 2.51178 0
M  V30 5601 H 542.743 0.174879 3.93812 0
M  V30 5602 H 544.031 -0.242211 5.08223 0
M  V30 5603 H 543.429 -3.37662 4.53873 0
M  V30 5604 H 541.986 -3.57541 5.44984 0
M  V30 5605 N 545.419 -1.53889 0.339982 0
M  V30 5606 C 546.644 -2.05741 -0.261798 0
M  V30 5607 C 547.069 -1.21354 -1.43718 0
M  V30 5608 O 546.427 -0.22645 -1.7988 0
M  V30 5609 C 546.475 -3.54542 -0.658228 0
M  V30 5610 O 545.579 -3.7302 -1.75869 0
M  V30 5611 H 544.92 -0.662529 -0.0441672 0
M  V30 5612 H 547.45 -1.98568 0.493161 0
M  V30 5613 H 547.46 -3.9711 -0.936368 0
M  V30 5614 H 546.135 -4.15412 0.201358 0
M  V30 5615 H 544.712 -3.42355 -1.47809 0
M  V30 5616 N 546.897 -0.0685191 -1.57451 0
M  V30 5617 C 548.127 0.609577 -1.97402 0
M  V30 5618 C 548.535 1.63882 -0.945489 0
M  V30 5619 O 547.878 1.8354 0.0766052 0
M  V30 5620 C 547.94 1.3385 -3.33653 0
M  V30 5621 C 547.604 0.463103 -4.54648 0
M  V30 5622 C 548.601 -0.277964 -5.19156 0
M  V30 5623 C 546.286 0.388941 -5.00792 0
M  V30 5624 C 548.28 -1.08145 -6.28159 0
M  V30 5625 C 545.967 -0.418217 -6.09667 0
M  V30 5626 C 546.965 -1.15208 -6.73213 0
M  V30 5627 O 546.653 -1.94594 -7.79993 0
M  V30 5628 H 546.385 0.170197 -0.654224 0
M  V30 5629 H 548.939 -0.13647 -2.04946 0
M  V30 5630 H 547.169 2.13055 -3.22714 0
M  V30 5631 H 548.858 1.90851 -3.58233 0
M  V30 5632 H 549.624 -0.230241 -4.84453 0
M  V30 5633 H 545.503 0.949769 -4.5111 0
M  V30 5634 H 549.047 -1.65476 -6.7769 0
M  V30 5635 H 544.944 -0.467515 -6.43805 0
M  V30 5636 H 545.712 -1.8699 -7.96854 0
M  V30 5637 N 548.375 1.56261 0.205012 0
M  V30 5638 C 549.322 1.93754 1.25411 0
M  V30 5639 C 550.292 0.796826 1.45739 0
M  V30 5640 O 551.477 1.05414 1.59036 0
M  V30 5641 C 548.617 2.27383 2.59598 0
M  V30 5642 C 547.73 3.5447 2.46931 0
M  V30 5643 C 546.865 3.77468 3.73753 0
M  V30 5644 C 545.904 4.98014 3.55877 0
M  V30 5645 N 545.041 5.17316 4.74688 0
M  V30 5646 H 549.881 2.83203 0.92737 0
M  V30 5647 H 547.418 1.40158 0.446574 0
M  V30 5648 H 549.376 2.44895 3.37761 0
M  V30 5649 H 548.006 1.41088 2.90335 0
M  V30 5650 H 547.058 3.45061 1.60116 0
M  V30 5651 H 548.37 4.42789 2.29651 0
M  V30 5652 H 547.524 3.95165 4.60358 0
M  V30 5653 H 546.263 2.87461 3.93976 0
M  V30 5654 H 545.268 4.80249 2.67657 0
M  V30 5655 H 546.493 5.8952 3.37109 0
M  V30 5656 H 544.439 4.30255 4.95194 0
M  V30 5657 H 544.356 5.99796 4.60197 0
M  V30 5658 H 545.624 5.39463 5.62672 0
M  V30 5659 N 549.853 -0.472356 1.50355 0
M  V30 5660 C 551.264 -1.05326 1.54154 0
M  V30 5661 C 551.615 -1.93155 0.344303 0
M  V30 5662 O 550.74 -2.09479 -0.542928 0
M  V30 5663 C 551.335 -1.91691 2.79356 0
M  V30 5664 C 549.894 -2.44892 2.8584 0
M  V30 5665 C 549.041 -1.23205 2.48426 0
M  V30 5666 H 551.992 -0.255027 1.56637 0
M  V30 5667 H 552.013 -2.76742 2.6114 0
M  V30 5668 H 551.525 -1.27741 3.66475 0
M  V30 5669 H 549.626 -3.12399 2.0307 0
M  V30 5670 H 549.739 -2.80086 3.88701 0
M  V30 5671 H 548.103 -1.56643 2.00836 0
M  V30 5672 H 548.886 -0.609194 3.37852 0
M  V30 5673 N 551.331 -1.39911 -0.725443 0
M  V30 5674 C 552.608 -1.28158 -1.47766 0
M  V30 5675 C 552.988 0.104545 -2.10841 0
M  V30 5676 O 552.336 1.11657 -1.99361 0
M  V30 5677 C 552.546 -2.41306 -2.52135 0
M  V30 5678 C 553.894 -2.81076 -3.18247 0
M  V30 5679 O 554.918 -2.40827 -2.62452 0
M  V30 5680 O 553.777 -3.50581 -4.19231 0
M  V30 5681 H 550.871 -0.502761 -0.656628 0
M  V30 5682 H 553.417 -1.51808 -0.758456 0
M  V30 5683 H 552.189 -3.33932 -2.03974 0
M  V30 5684 H 551.812 -2.19374 -3.31603 0
M  V30 5685 N 552.809 0.956637 -1.25245 0
M  V30 5686 C 553.719 2.0868 -1.0719 0
M  V30 5687 C 554.735 1.73997 -0.00959074 0
M  V30 5688 O 555.911 2.00301 -0.210104 0
M  V30 5689 C 552.976 3.39754 -0.690526 0
M  V30 5690 C 552.037 3.88316 -1.83055 0
M  V30 5691 C 551.27 5.13134 -1.46728 0
M  V30 5692 O 551.493 5.6925 -0.362029 0
M  V30 5693 O 550.427 5.56356 -2.29677 0
M  V30 5694 H 554.253 2.26813 -2.01965 0
M  V30 5695 H 551.838 1.07098 -1.04165 0
M  V30 5696 H 553.72 4.18543 -0.489871 0
M  V30 5697 H 552.395 3.22896 0.227981 0
M  V30 5698 H 551.302 3.1054 -2.08604 0
M  V30 5699 H 552.635 4.09669 -2.72822 0
M  V30 5700 N 554.287 1.06798 1.15896 0
M  V30 5701 C 555.235 0.677525 2.22514 0
M  V30 5702 C 556.229 -0.308994 1.66558 0
M  V30 5703 O 557.435 -0.173308 1.79164 0
M  V30 5704 H 553.81 0.200994 0.724642 0
M  V30 5705 H 555.781 1.5865 2.52731 0
M  V30 5706 C 554.53 0.0854153 3.47595 0
M  V30 5707 H 553.853 0.835645 3.90969 0
M  V30 5708 H 555.293 -0.150199 4.23734 0
M  V30 5709 C 553.752 -1.1724 3.15843 0
M  V30 5710 O 554.282 -2.25965 3.32119 0
M  V30 5711 N 552.488 -1.07636 2.69931 0
M  V30 5712 H 552.035 -0.191559 2.56887 0
M  V30 5713 H 551.993 -1.91876 2.4906 0
M  V30 5714 N 555.766 -1.3263 0.851289 0
M  V30 5715 C 556.676 -2.32722 0.296268 0
M  V30 5716 C 557.692 -1.63901 -0.584162 0
M  V30 5717 O 558.868 -1.95465 -0.485334 0
M  V30 5718 C 555.933 -3.42942 -0.509103 0
M  V30 5719 C 554.994 -4.2746 0.397069 0
M  V30 5720 C 554.227 -5.32416 -0.36996 0
M  V30 5721 O 554.45 -5.47491 -1.6003 0
M  V30 5722 O 553.384 -6.01327 0.262493 0
M  V30 5723 H 557.21 -2.82078 1.12543 0
M  V30 5724 H 554.795 -1.36194 0.614135 0
M  V30 5725 H 556.677 -4.1017 -0.96634 0
M  V30 5726 H 555.352 -2.95781 -1.31512 0
M  V30 5727 H 554.259 -3.63053 0.902411 0
M  V30 5728 H 555.592 -4.78136 1.16818 0
M  V30 5729 N 557.244 -0.608902 -1.45362 0
M  V30 5730 C 558.49 -0.104762 -2.02529 0
M  V30 5731 C 558.823 1.26191 -1.47613 0
M  V30 5732 O 558.098 1.8327 -0.65134 0
M  V30 5733 C 558.381 -0.0672661 -3.60037 0
M  V30 5734 C 558.234 -1.4647 -4.25284 0
M  V30 5735 C 559.553 0.619877 -4.35713 0
M  V30 5736 H 556.672 -0.0395438 -0.735938 0
M  V30 5737 H 559.314 -0.781126 -1.73201 0
M  V30 5738 H 557.464 0.50871 -3.85155 0
M  V30 5739 H 559.136 -2.08785 -4.11347 0
M  V30 5740 H 557.379 -2.02502 -3.83634 0
M  V30 5741 H 558.05 -1.39069 -5.34195 0
M  V30 5742 H 560.526 0.130297 -4.15896 0
M  V30 5743 H 559.402 0.615224 -5.45441 0
M  V30 5744 H 559.663 1.68621 -4.0868 0
M  V30 5745 N 558.722 1.53707 -0.348139 0
M  V30 5746 C 560.138 1.596 0.00361134 0
M  V30 5747 C 560.338 1.36394 1.4832 0
M  V30 5748 O 559.394 1.16046 2.24253 0
M  V30 5749 C 560.707 2.97512 -0.436682 0
M  V30 5750 C 562.255 3.10568 -0.389416 0
M  V30 5751 C 562.73 4.50866 -0.805249 0
M  V30 5752 N 564.221 4.56929 -0.759616 0
M  V30 5753 C 564.956 5.63643 -1.05327 0
M  V30 5754 N 564.452 6.78189 -1.41531 0
M  V30 5755 N 566.245 5.5354 -0.977207 0
M  V30 5756 H 558.396 1.67044 -1.31187 0
M  V30 5757 H 560.659 0.782559 -0.535075 0
M  V30 5758 H 560.365 3.19575 -1.46849 0
M  V30 5759 H 560.239 3.76742 0.185744 0
M  V30 5760 H 562.626 2.88226 0.633228 0
M  V30 5761 H 562.707 2.33387 -1.04711 0
M  V30 5762 H 562.351 4.73943 -1.82593 0
M  V30 5763 H 562.281 5.26452 -0.124989 0
M  V30 5764 H 564.772 3.74675 -0.49265 0
M  V30 5765 H 565.085 7.55541 -1.62411 0
M  V30 5766 H 563.43 6.79624 -1.45381 0
M  V30 5767 H 566.621 4.62932 -0.693675 0
M  V30 5768 H 566.794 6.36614 -1.2094 0
M  V30 5769 N 560.2 0.0768682 1.57412 0
M  V30 5770 C 561.428 -0.59997 1.9801 0
M  V30 5771 C 561.843 -1.62842 0.955408 0
M  V30 5772 O 561.2 -1.8241 -0.057314 0
M  V30 5773 C 561.251 -1.26401 3.38681 0
M  V30 5774 O 560.972 -0.276723 4.37225 0
M  V30 5775 C 562.473 -2.0282 3.94182 0
M  V30 5776 H 559.693 -0.162239 0.651091 0
M  V30 5777 H 562.237 0.150771 2.03943 0
M  V30 5778 H 560.392 -1.96581 3.33819 0
M  V30 5779 H 560.806 -0.753744 5.19056 0
M  V30 5780 H 562.28 -2.44667 4.94815 0
M  V30 5781 H 562.757 -2.88678 3.31001 0
M  V30 5782 H 563.363 -1.37496 4.02461 0
M  V30 5783 N 561.678 -1.56367 -0.196722 0
M  V30 5784 C 562.608 -1.97442 -1.24655 0
M  V30 5785 C 563.589 -0.846147 -1.47561 0
M  V30 5786 O 564.774 -1.11035 -1.59326 0
M  V30 5787 C 561.904 -2.31253 -2.59112 0
M  V30 5788 C 560.858 -3.46804 -2.50821 0
M  V30 5789 C 560.184 -3.66286 -3.89536 0
M  V30 5790 C 561.484 -4.8104 -2.03465 0
M  V30 5791 H 563.178 -2.85388 -0.905216 0
M  V30 5792 H 560.724 -1.37304 -0.434002 0
M  V30 5793 H 562.677 -2.58583 -3.32736 0
M  V30 5794 H 561.401 -1.40188 -2.94983 0
M  V30 5795 H 560.06 -3.19563 -1.79653 0
M  V30 5796 H 559.708 -2.72555 -4.22756 0
M  V30 5797 H 559.408 -4.4402 -3.84864 0
M  V30 5798 H 560.932 -3.9599 -4.64784 0
M  V30 5799 H 562.346 -5.07411 -2.66846 0
M  V30 5800 H 560.743 -5.62232 -2.09798 0
M  V30 5801 H 561.813 -4.74732 -0.98781 0
M  V30 5802 N 563.156 0.464375 -1.50603 0
M  V30 5803 C 564.403 1.21596 -1.61928 0
M  V30 5804 C 564.731 1.91804 -0.322737 0
M  V30 5805 O 563.986 1.83065 0.691776 0
M  V30 5806 C 564.285 2.278 -2.75394 0
M  V30 5807 C 563.951 1.74797 -4.1564 0
M  V30 5808 C 562.613 1.60063 -4.53799 0
M  V30 5809 C 564.965 1.35548 -5.03266 0
M  V30 5810 C 562.293 1.04514 -5.77316 0
M  V30 5811 C 564.645 0.814381 -6.27336 0
M  V30 5812 C 563.309 0.653726 -6.64291 0
M  V30 5813 H 562.579 0.444951 -0.592536 0
M  V30 5814 H 565.226 0.510964 -1.84557 0
M  V30 5815 H 563.531 3.04233 -2.46879 0
M  V30 5816 H 565.228 2.85723 -2.81359 0
M  V30 5817 H 561.818 1.87234 -3.8554 0
M  V30 5818 H 566.002 1.45763 -4.74412 0
M  V30 5819 H 561.258 0.908186 -6.04617 0
M  V30 5820 H 565.432 0.501626 -6.94591 0
M  V30 5821 H 563.059 0.22114 -7.59878 0
M  V30 5822 N 564.634 1.40294 0.718013 0
M  V30 5823 C 565.882 1.38167 1.47494 0
M  V30 5824 C 566.203 -0.01607 1.94993 0
M  V30 5825 O 565.473 -0.970396 1.70177 0
M  V30 5826 H 564.053 0.508505 0.547203 0
M  V30 5827 H 566.715 1.75324 0.851322 0
M  V30 5828 H 565.811 2.05503 2.34894 0
M  V30 5829 N 566.112 -0.949982 1.2575 0
M  V30 5830 C 567.042 -2.06483 1.09028 0
M  V30 5831 C 568.023 -1.701 -0.00201532 0
M  V30 5832 O 569.208 -1.93469 0.168383 0
M  V30 5833 C 566.338 -3.39899 0.71316 0
M  V30 5834 C 565.292 -3.90309 1.75621 0
M  V30 5835 C 564.618 -5.20274 1.23365 0
M  V30 5836 C 565.918 -4.16169 3.15596 0
M  V30 5837 H 567.612 -2.20731 2.02283 0
M  V30 5838 H 565.158 -1.06066 0.973964 0
M  V30 5839 H 567.111 -4.17346 0.58309 0
M  V30 5840 H 565.835 -3.25602 -0.255091 0
M  V30 5841 H 564.494 -3.15035 1.8748 0
M  V30 5842 H 564.142 -5.02351 0.255491 0
M  V30 5843 H 563.842 -5.54971 1.93082 0
M  V30 5844 H 565.366 -6.00314 1.11607 0
M  V30 5845 H 566.78 -4.84259 3.06864 0
M  V30 5846 H 565.177 -4.62131 3.82825 0
M  V30 5847 H 566.247 -3.22273 3.6231 0
M  V30 5848 N 567.59 -1.07411 -1.15328 0
M  V30 5849 C 568.54 -0.664788 -2.18093 0
M  V30 5850 C 569.524 0.310395 -1.57878 0
M  V30 5851 O 570.716 0.124026 -1.76565 0
M  V30 5852 C 567.845 -0.0647822 -3.43239 0
M  V30 5853 C 566.931 -1.06514 -4.10506 0
M  V30 5854 N 567.322 -2.24491 -4.53252 0
M  V30 5855 C 565.62 -0.898613 -4.36853 0
M  V30 5856 C 566.321 -2.8796 -5.05424 0
M  V30 5857 N 565.297 -2.15622 -4.99007 0
M  V30 5858 H 569.099 -1.56333 -2.48872 0
M  V30 5859 H 566.613 -0.947393 -1.31902 0
M  V30 5860 H 568.61 0.246363 -4.16171 0
M  V30 5861 H 567.27 0.828866 -3.13943 0
M  V30 5862 H 568.281 -2.62205 -4.46619 0
M  V30 5863 H 564.958 -0.0579118 -4.1746 0
M  V30 5864 H 566.348 -3.88137 -5.48452 0
M  V30 5865 N 569.068 1.32177 -0.85831 0
M  V30 5866 C 569.998 2.31282 -0.321041 0
M  V30 5867 C 570.979 1.59841 0.581786 0
M  V30 5868 O 572.164 1.87619 0.501262 0
M  V30 5869 C 569.294 3.4385 0.48832 0
M  V30 5870 C 568.248 4.26799 -0.320391 0
M  V30 5871 C 567.574 5.31164 0.613934 0
M  V30 5872 C 568.874 4.98829 -1.54813 0
M  V30 5873 H 570.568 2.76469 -1.14915 0
M  V30 5874 H 568.114 1.32916 -0.554028 0
M  V30 5875 H 570.067 4.12224 0.874626 0
M  V30 5876 H 568.791 2.97401 1.34983 0
M  V30 5877 H 567.45 3.60077 -0.688497 0
M  V30 5878 H 567.098 4.80967 1.47239 0
M  V30 5879 H 566.798 5.8755 0.0768097 0
M  V30 5880 H 568.322 6.024 0.997336 0
M  V30 5881 H 569.736 5.59864 -1.23392 0
M  V30 5882 H 568.133 5.64957 -2.02346 0
M  V30 5883 H 569.203 4.26483 -2.30739 0
M  V30 5884 N 570.547 0.616602 1.45037 0
M  V30 5885 C 571.772 0.120192 2.07051 0
M  V30 5886 C 572.197 -1.19008 1.45666 0
M  V30 5887 O 571.555 -1.7267 0.552692 0
M  V30 5888 C 571.603 0.00354901 3.606 0
M  V30 5889 O 570.707 -1.04431 3.98958 0
M  V30 5890 H 570.048 0.0781599 0.659384 0
M  V30 5891 H 572.578 0.849167 1.86146 0
M  V30 5892 H 572.588 -0.191754 4.07549 0
M  V30 5893 H 571.263 0.960239 4.04663 0
M  V30 5894 H 569.84 -0.824749 3.63665 0
M  V30 5895 N 572.025 -1.5352 0.356285 0
M  V30 5896 C 572.957 -2.23009 -0.529127 0
M  V30 5897 C 573.97 -1.241 -1.05371 0
M  V30 5898 O 575.159 -1.50379 -0.961679 0
M  V30 5899 C 572.259 -2.90685 -1.74229 0
M  V30 5900 C 571.432 -4.16019 -1.35081 0
M  V30 5901 C 570.491 -4.66989 -2.42502 0
M  V30 5902 O 569.517 -5.30895 -2.05279 0
M  V30 5903 N 570.719 -4.44006 -3.7395 0
M  V30 5904 H 573.484 -2.99627 0.0660501 0
M  V30 5905 H 571.045 -1.60885 0.181014 0
M  V30 5906 H 573.037 -3.21695 -2.4555 0
M  V30 5907 H 571.607 -2.17575 -2.24454 0
M  V30 5908 H 570.827 -3.91414 -0.467833 0
M  V30 5909 H 572.115 -4.9752 -1.06542 0
M  V30 5910 H 571.513 -3.92924 -4.06973 0
M  V30 5911 H 570.07 -4.7959 -4.41403 0
M  V30 5912 N 573.503 -0.0852151 -1.57369 0
M  V30 5913 C 574.45 0.877268 -2.13478 0
M  V30 5914 C 575.42 1.28642 -1.05073 0
M  V30 5915 O 576.605 1.36992 -1.32808 0
M  V30 5916 C 573.745 2.13464 -2.71159 0
M  V30 5917 C 572.858 1.77691 -3.93764 0
M  V30 5918 C 571.993 2.98139 -4.39643 0
M  V30 5919 C 571.032 2.58447 -5.54862 0
M  V30 5920 N 570.169 3.71698 -5.95639 0
M  V30 5921 H 575.009 0.391933 -2.95411 0
M  V30 5922 H 572.546 0.181796 -1.45972 0
M  V30 5923 H 574.504 2.87086 -3.02717 0
M  V30 5924 H 573.134 2.59514 -1.91969 0
M  V30 5925 H 572.186 0.940768 -3.68583 0
M  V30 5926 H 573.498 1.44497 -4.77412 0
M  V30 5927 H 572.652 3.80026 -4.72933 0
M  V30 5928 H 571.391 3.34536 -3.54876 0
M  V30 5929 H 570.396 1.74984 -5.21211 0
M  V30 5930 H 571.621 2.23205 -6.41371 0
M  V30 5931 H 569.567 4.07831 -5.13819 0
M  V30 5932 H 569.484 3.42317 -6.74059 0
M  V30 5933 H 570.752 4.54123 -6.33555 0
M  V30 5934 N 574.981 1.5647 0.188427 0
M  V30 5935 C 576.397 1.50204 0.539532 0
M  V30 5936 C 576.597 0.78644 1.85519 0
M  V30 5937 O 575.653 0.339714 2.50204 0
M  V30 5938 C 576.966 2.94893 0.588103 0
M  V30 5939 C 578.514 3.05602 0.67648 0
M  V30 5940 C 578.989 4.51716 0.756101 0
M  V30 5941 N 580.48 4.55894 0.819451 0
M  V30 5942 C 581.215 5.66272 0.90134 0
M  V30 5943 N 580.711 6.86323 0.945118 0
M  V30 5944 N 582.504 5.54201 0.939043 0
M  V30 5945 H 574.655 2.01406 -0.674493 0
M  V30 5946 H 576.918 0.916828 -0.241103 0
M  V30 5947 H 576.624 3.50334 -0.309633 0
M  V30 5948 H 576.498 3.4861 1.44051 0
M  V30 5949 H 578.885 2.50206 1.56465 0
M  V30 5950 H 578.966 2.54999 -0.202262 0
M  V30 5951 H 578.61 5.07739 -0.12774 0
M  V30 5952 H 578.54 5.00058 1.65074 0
M  V30 5953 H 581.031 3.69452 0.794594 0
M  V30 5954 H 581.344 7.66194 1.0083 0
M  V30 5955 H 579.689 6.88968 0.913683 0
M  V30 5956 H 582.88 4.59333 0.901725 0
M  V30 5957 H 583.053 6.40247 0.999402 0
M  V30 5958 N 576.459 -0.456382 1.50847 0
M  V30 5959 C 577.407 -1.57318 1.71329 0
M  V30 5960 C 578.401 -1.59187 0.579287 0
M  V30 5961 O 579.607 -1.6316 0.76018 0
M  V30 5962 H 575.982 -0.5223 0.541024 0
M  V30 5963 H 577.953 -1.3721 2.64983 0
M  V30 5964 C 576.702 -2.95142 1.83811 0
M  V30 5965 H 576.025 -2.94428 2.70467 0
M  V30 5966 H 577.465 -3.72702 2.02161 0
M  V30 5967 C 575.924 -3.31636 0.593224 0
M  V30 5968 O 576.454 -4.00852 -0.260898 0
M  V30 5969 N 574.66 -2.87205 0.442902 0
M  V30 5970 H 574.207 -2.31051 1.13901 0
M  V30 5971 H 574.165 -3.11986 -0.38884 0
M  V30 5972 N 577.937 -1.40673 -0.710563 0
M  V30 5973 C 578.885 -1.41517 -1.84596 0
M  V30 5974 C 579.879 -0.295043 -1.66811 0
M  V30 5975 O 581.085 -0.466331 -1.73854 0
M  V30 5976 H 577.46 -0.442467 -0.608052 0
M  V30 5977 H 579.431 -2.37238 -1.80999 0
M  V30 5978 C 578.18 -1.29957 -3.225 0
M  V30 5979 H 577.503 -2.15429 -3.36794 0
M  V30 5980 H 578.943 -1.34608 -4.02066 0
M  V30 5981 C 577.402 -0.0103164 -3.36898 0
M  V30 5982 O 577.932 0.950707 -3.90288 0
M  V30 5983 N 576.138 0.0608409 -2.90536 0
M  V30 5984 H 575.685 -0.721943 -2.47277 0
M  V30 5985 H 575.643 0.92292 -3.00549 0
M  V30 5986 N 579.415 0.9433 -1.26252 0
M  V30 5987 C 580.663 1.68592 -1.11451 0
M  V30 5988 C 580.984 1.91957 0.343123 0
M  V30 5989 O 580.254 1.51475 1.24226 0
M  V30 5990 H 578.834 0.624789 -0.409448 0
M  V30 5991 H 581.496 1.13351 -1.58548 0
M  V30 5992 H 580.592 2.66054 -1.63162 0
M  V30 5993 N 580.893 1.08022 1.14757 0
M  V30 5994 C 582.139 0.808705 1.85978 0
M  V30 5995 C 582.472 -0.663764 1.82504 0
M  V30 5996 O 581.747 -1.48765 1.25296 0
M  V30 5997 C 582.03 1.32623 3.34788 0
M  V30 5998 C 581.883 2.86375 3.46856 0
M  V30 5999 C 583.202 0.948291 4.29762 0
M  V30 6000 H 580.321 0.295244 0.675278 0
M  V30 6001 H 582.963 1.33917 1.34783 0
M  V30 6002 H 581.113 0.875002 3.78518 0
M  V30 6003 H 582.785 3.39839 3.11941 0
M  V30 6004 H 581.028 3.24232 2.88194 0
M  V30 6005 H 581.699 3.17658 4.51439 0
M  V30 6006 H 584.175 1.33722 3.94028 0
M  V30 6007 H 583.051 1.33765 5.32352 0
M  V30 6008 H 583.312 -0.145094 4.41862 0
M  V30 6009 N 582.371 -1.3172 0.865308 0
M  V30 6010 C 583.617 -1.97168 0.474633 0
M  V30 6011 C 583.95 -1.68263 -0.969604 0
M  V30 6012 O 583.225 -0.976588 -1.68205 0
M  V30 6013 C 583.508 -3.52689 0.726808 0
M  V30 6014 C 583.361 -3.91185 2.22024 0
M  V30 6015 C 584.68 -4.39689 0.190201 0
M  V30 6016 H 581.799 -0.716185 0.17392 0
M  V30 6017 H 584.441 -1.55925 1.08569 0
M  V30 6018 H 582.591 -3.8795 0.206705 0
M  V30 6019 H 584.263 -3.66049 2.80724 0
M  V30 6020 H 582.506 -3.3996 2.69462 0
M  V30 6021 H 583.177 -4.99604 2.34735 0
M  V30 6022 H 585.653 -4.11225 0.635103 0
M  V30 6023 H 584.529 -5.47469 0.396132 0
M  V30 6024 H 584.79 -4.32683 -0.907625 0
M  V30 6025 N 583.85 -0.624285 -1.44708 0
M  V30 6026 C 585.127 -0.0572781 -1.95516 0
M  V30 6027 C 585.507 1.41516 -1.56641 0
M  V30 6028 O 584.855 2.12614 -0.837111 0
M  V30 6029 C 585.065 -0.272944 -3.47931 0
M  V30 6030 C 586.413 -0.162529 -4.24289 0
M  V30 6031 O 587.437 -0.203946 -3.55616 0
M  V30 6032 O 586.296 -0.0616847 -5.46465 0
M  V30 6033 H 583.389 0.0262219 -0.826584 0
M  V30 6034 H 585.936 -0.695512 -1.54793 0
M  V30 6035 H 584.707 -1.29492 -3.69253 0
M  V30 6036 H 584.331 0.399756 -3.95585 0
M  V30 6037 N 585.328 1.53329 -0.364422 0
M  V30 6038 C 586.275 2.25698 0.482607 0
M  V30 6039 C 587.245 1.26325 1.07848 0
M  V30 6040 O 588.43 1.55104 1.11119 0
M  V30 6041 C 585.57 3.04873 1.61699 0
M  V30 6042 C 584.683 4.19135 1.0464 0
M  V30 6043 C 583.818 4.85754 2.14979 0
M  V30 6044 C 582.857 5.9205 1.5538 0
M  V30 6045 N 581.994 6.52365 2.59547 0
M  V30 6046 H 586.834 2.97666 -0.141032 0
M  V30 6047 H 584.371 1.46875 -0.0813692 0
M  V30 6048 H 586.329 3.49051 2.28516 0
M  V30 6049 H 584.959 2.35162 2.2113 0
M  V30 6050 H 584.011 3.79451 0.268553 0
M  V30 6051 H 585.323 4.95525 0.570653 0
M  V30 6052 H 584.477 5.3311 2.89619 0
M  V30 6053 H 583.216 4.08834 2.65906 0
M  V30 6054 H 582.221 5.44058 0.792549 0
M  V30 6055 H 583.446 6.7089 1.0528 0
M  V30 6056 H 581.392 5.78298 3.09689 0
M  V30 6057 H 581.309 7.2429 2.16655 0
M  V30 6058 H 582.577 7.0437 3.33892 0
M  V30 6059 N 586.806 0.0935595 1.57322 0
M  V30 6060 C 588.031 -0.582324 1.99057 0
M  V30 6061 C 588.456 -1.61025 0.972242 0
M  V30 6062 O 587.814 -1.81202 -0.0594622 0
M  V30 6063 C 587.862 -1.20799 3.39765 0
M  V30 6064 O 586.966 -2.32382 3.40694 0
M  V30 6065 H 586.307 -0.147884 0.647323 0
M  V30 6066 H 588.837 0.174516 2.03854 0
M  V30 6067 H 588.847 -1.54966 3.77425 0
M  V30 6068 H 587.522 -0.454914 4.13405 0
M  V30 6069 H 586.099 -1.99845 3.14827 0
M  V30 6070 N 588.284 -1.56567 -0.180126 0
M  V30 6071 C 589.214 -1.98753 -1.22553 0
M  V30 6072 C 590.195 -0.86175 -1.46656 0
M  V30 6073 O 591.38 -1.12719 -1.58139 0
M  V30 6074 C 588.51 -2.33988 -2.56645 0
M  V30 6075 C 587.464 -3.49445 -2.47128 0
M  V30 6076 C 586.79 -3.70397 -3.8563 0
M  V30 6077 C 588.09 -4.83171 -1.98352 0
M  V30 6078 H 589.784 -2.86332 -0.874896 0
M  V30 6079 H 587.33 -1.37757 -0.419414 0
M  V30 6080 H 589.283 -2.62097 -3.29974 0
M  V30 6081 H 588.007 -1.43309 -2.93479 0
M  V30 6082 H 586.666 -3.2145 -1.76254 0
M  V30 6083 H 586.314 -2.77023 -4.19842 0
M  V30 6084 H 586.014 -4.48077 -3.80132 0
M  V30 6085 H 587.538 -4.00897 -4.60558 0
M  V30 6086 H 588.952 -5.10213 -2.61449 0
M  V30 6087 H 587.349 -5.64425 -2.03823 0
M  V30 6088 H 588.419 -4.75753 -0.937402 0
M  V30 6089 N 589.762 0.448376 -1.51087 0
M  V30 6090 C 591.009 1.19872 -1.63209 0
M  V30 6091 C 591.337 1.91451 -0.343062 0
M  V30 6092 O 590.592 1.83789 0.672321 0
M  V30 6093 C 590.891 2.24866 -2.77795 0
M  V30 6094 C 590.557 1.70378 -4.17471 0
M  V30 6095 C 589.219 1.55241 -4.55471 0
M  V30 6096 C 591.571 1.30203 -5.04675 0
M  V30 6097 C 588.899 0.983844 -5.78392 0
M  V30 6098 C 591.251 0.747798 -6.28165 0
M  V30 6099 C 589.915 0.583233 -6.64947 0
M  V30 6100 H 589.185 0.438642 -0.597222 0
M  V30 6101 H 591.832 0.49136 -1.85089 0
M  V30 6102 H 590.137 3.01598 -2.50092 0
M  V30 6103 H 591.834 2.82723 -2.84374 0
M  V30 6104 H 588.424 1.83134 -3.87505 0
M  V30 6105 H 592.608 1.40723 -4.75932 0
M  V30 6106 H 587.864 0.844007 -6.05546 0
M  V30 6107 H 592.038 0.427927 -6.95084 0
M  V30 6108 H 589.665 0.140532 -7.6007 0
M  V30 6109 N 591.24 1.41047 0.703093 0
M  V30 6110 C 592.465 1.43537 1.49706 0
M  V30 6111 C 592.89 0.0401853 1.88057 0
M  V30 6112 O 592.248 -0.954785 1.54122 0
M  V30 6113 C 592.296 2.3433 2.74084 0
M  V30 6114 O 591.4 1.79515 3.71279 0
M  V30 6115 H 590.741 0.487454 0.450871 0
M  V30 6116 H 593.271 1.85422 0.86486 0
M  V30 6117 H 593.281 2.49947 3.22476 0
M  V30 6118 H 591.956 3.35708 2.45506 0
M  V30 6119 H 590.533 1.7331 3.30179 0
M  V30 6120 N 592.718 -0.936591 1.26751 0
M  V30 6121 C 593.666 -2.0573 1.08527 0
M  V30 6122 C 594.66 -1.69397 0.0108784 0
M  V30 6123 O 595.866 -1.79215 0.167915 0
M  V30 6124 H 592.241 -0.673691 0.334133 0
M  V30 6125 H 594.212 -2.1825 2.03493 0
M  V30 6126 C 592.961 -3.39738 0.739845 0
M  V30 6127 H 592.284 -3.68174 1.55845 0
M  V30 6128 H 593.724 -4.18955 0.652149 0
M  V30 6129 C 592.183 -3.32292 -0.555288 0
M  V30 6130 O 592.713 -3.68794 -1.59229 0
M  V30 6131 N 590.919 -2.85394 -0.54762 0
M  V30 6132 H 590.466 -2.55886 0.296667 0
M  V30 6133 H 590.424 -2.80795 -1.41427 0
M  V30 6134 N 594.196 -1.08629 -1.14182 0
M  V30 6135 C 595.442 -0.818556 -1.85546 0
M  V30 6136 C 595.775 0.654076 -1.82854 0
M  V30 6137 O 595.05 1.48099 -1.26083 0
M  V30 6138 C 595.333 -1.34397 -3.3408 0
M  V30 6139 C 595.186 -2.8821 -3.45333 0
M  V30 6140 C 596.505 -0.971069 -4.29253 0
M  V30 6141 H 593.624 -0.298821 -0.673702 0
M  V30 6142 H 596.266 -1.34629 -1.34071 0
M  V30 6143 H 594.416 -0.895064 -3.78049 0
M  V30 6144 H 596.088 -3.41488 -3.10134 0
M  V30 6145 H 594.331 -3.25756 -2.86471 0
M  V30 6146 H 595.002 -3.20047 -4.49749 0
M  V30 6147 H 597.478 -1.35809 -3.93313 0
M  V30 6148 H 596.354 -1.36586 -5.31635 0
M  V30 6149 H 596.615 0.121659 -4.41933 0
M  V30 6150 N 595.674 1.31259 -0.872281 0
M  V30 6151 C 596.92 1.96913 -0.485083 0
M  V30 6152 C 597.253 1.68774 0.960667 0
M  V30 6153 O 596.528 0.985495 1.67685 0
M  V30 6154 C 596.811 3.52299 -0.745502 0
M  V30 6155 C 596.664 3.90002 -2.24095 0
M  V30 6156 C 597.983 4.39582 -0.213516 0
M  V30 6157 H 595.102 0.715252 -0.177716 0
M  V30 6158 H 597.744 1.55347 -1.09395 0
M  V30 6159 H 595.894 3.87835 -0.227276 0
M  V30 6160 H 597.566 3.64555 -2.82661 0
M  V30 6161 H 595.809 3.38526 -2.71261 0
M  V30 6162 H 596.48 4.98352 -2.37381 0
M  V30 6163 H 598.956 4.10882 -0.656902 0
M  V30 6164 H 597.832 5.47251 -0.42516 0
M  V30 6165 H 598.093 4.33158 0.884666 0
M  V30 6166 N 597.152 0.631951 1.44375 0
M  V30 6167 C 598.38 0.143867 2.06399 0
M  V30 6168 C 598.795 -1.18188 1.47231 0
M  V30 6169 O 598.152 -1.72511 0.595498 0
M  V30 6170 C 598.203 0.0238253 3.61492 0
M  V30 6171 O 597.924 1.29715 4.18456 0
M  V30 6172 C 599.425 -0.492856 4.40552 0
M  V30 6173 H 596.645 0.0800542 0.666207 0
M  V30 6174 H 599.189 0.866586 1.85231 0
M  V30 6175 H 597.344 -0.649338 3.81919 0
M  V30 6176 H 597.758 1.14252 5.11905 0
M  V30 6177 H 599.232 -0.525861 5.49489 0
M  V30 6178 H 599.709 -1.52006 4.12057 0
M  V30 6179 H 600.315 0.147085 4.25046 0
M  V30 6180 N 598.631 -1.53133 0.372548 0
M  V30 6181 C 599.578 -2.25951 -0.470631 0
M  V30 6182 C 600.548 -1.26895 -1.07176 0
M  V30 6183 O 601.733 -1.55691 -1.10294 0
M  V30 6184 C 598.873 -3.05726 -1.6008 0
M  V30 6185 C 597.986 -4.19684 -1.02416 0
M  V30 6186 C 597.121 -4.86888 -2.124 0
M  V30 6187 C 596.16 -5.92866 -1.52238 0
M  V30 6188 N 595.297 -6.53732 -2.56084 0
M  V30 6189 H 600.137 -2.97587 0.156816 0
M  V30 6190 H 597.674 -1.4683 0.0891571 0
M  V30 6191 H 599.632 -3.50258 -2.26661 0
M  V30 6192 H 598.262 -2.36331 -2.1988 0
M  V30 6193 H 597.314 -3.79588 -0.248426 0
M  V30 6194 H 598.626 -4.95821 -0.544366 0
M  V30 6195 H 597.78 -5.34638 -2.86787 0
M  V30 6196 H 596.519 -4.10239 -2.63734 0
M  V30 6197 H 595.524 -5.4447 -0.763685 0
M  V30 6198 H 596.749 -6.71439 -1.0172 0
M  V30 6199 H 594.695 -5.79932 -3.06618 0
M  V30 6200 H 594.612 -7.25429 -2.12811 0
M  V30 6201 H 595.88 -7.0613 -3.30152 0
M  V30 6202 N 600.109 -0.101901 -1.5727 0
M  V30 6203 C 601.057 0.872034 -2.15635 0
M  V30 6204 C 602.051 1.28742 -1.10099 0
M  V30 6205 O 603.257 1.26116 -1.28432 0
M  V30 6206 H 599.632 0.299269 -0.689886 0
M  V30 6207 H 601.603 0.355137 -2.96279 0
M  V30 6208 C 600.352 2.11886 -2.7568 0
M  V30 6209 H 599.675 1.80813 -3.56576 0
M  V30 6210 H 601.115 2.78077 -3.20077 0
M  V30 6211 C 599.574 2.89739 -1.7191 0
M  V30 6212 O 600.104 3.84522 -1.16213 0
M  V30 6213 N 598.31 2.53407 -1.42245 0
M  V30 6214 H 597.857 1.76398 -1.87727 0
M  V30 6215 H 597.815 3.05795 -0.730529 0
M  V30 6216 N 601.587 1.56661 0.17182 0
M  V30 6217 C 602.534 1.96371 1.21273 0
M  V30 6218 C 603.504 0.82756 1.44016 0
M  V30 6219 O 604.689 1.08764 1.56764 0
M  V30 6220 C 601.829 2.32838 2.54716 0
M  V30 6221 C 600.942 3.59628 2.39356 0
M  V30 6222 C 600.077 3.85311 3.65662 0
M  V30 6223 C 599.116 5.0545 3.45234 0
M  V30 6224 N 598.253 5.27268 4.63608 0
M  V30 6225 H 603.093 2.85106 0.86709 0
M  V30 6226 H 600.63 1.41073 0.416744 0
M  V30 6227 H 602.588 2.52004 3.3249 0
M  V30 6228 H 601.218 1.47214 2.87277 0
M  V30 6229 H 600.27 3.4838 1.52761 0
M  V30 6230 H 601.582 4.4756 2.20207 0
M  V30 6231 H 600.736 4.04841 4.51872 0
M  V30 6232 H 599.475 2.95753 3.8779 0
M  V30 6233 H 598.48 4.85819 2.5741 0
M  V30 6234 H 599.705 5.96538 3.24529 0
M  V30 6235 H 597.651 4.40662 4.85956 0
M  V30 6236 H 597.568 6.09422 4.4737 0
M  V30 6237 H 598.836 5.51277 5.51103 0
M  V30 6238 N 603.065 -0.440357 1.51323 0
M  V30 6239 C 604.342 -1.20109 1.5438 0
M  V30 6240 C 604.722 -2.08866 0.306303 0
M  V30 6241 O 604.07 -2.1723 -0.708773 0
M  V30 6242 C 604.28 -2.00555 2.8562 0
M  V30 6243 C 605.628 -2.577 3.37455 0
M  V30 6244 O 606.652 -2.10769 2.8715 0
M  V30 6245 O 605.511 -3.43289 4.25224 0
M  V30 6246 H 602.605 -0.546668 0.620551 0
M  V30 6247 H 605.151 -0.449672 1.63634 0
M  V30 6248 H 603.923 -1.35346 3.67147 0
M  V30 6249 H 603.546 -2.82768 2.79514 0
M  V30 6250 N 604.543 -1.41418 -0.695603 0
M  V30 6251 C 605.473 -1.46035 -1.82197 0
M  V30 6252 C 606.454 -0.319025 -1.67082 0
M  V30 6253 O 607.639 -0.530462 -1.86815 0
M  V30 6254 C 604.769 -1.34179 -3.20333 0
M  V30 6255 C 603.723 -2.46123 -3.50154 0
M  V30 6256 C 603.049 -2.19332 -4.87645 0
M  V30 6257 C 604.349 -3.88463 -3.49133 0
M  V30 6258 H 606.043 -2.40303 -1.78591 0
M  V30 6259 H 603.589 -1.15663 -0.857797 0
M  V30 6260 H 605.542 -1.36021 -3.98844 0
M  V30 6261 H 604.266 -0.363952 -3.24566 0
M  V30 6262 H 602.925 -2.43563 -2.73994 0
M  V30 6263 H 602.573 -1.19891 -4.88503 0
M  V30 6264 H 602.273 -2.94344 -5.08562 0
M  V30 6265 H 603.797 -2.22889 -5.68465 0
M  V30 6266 H 605.211 -3.92738 -4.17648 0
M  V30 6267 H 603.608 -4.63158 -3.81582 0
M  V30 6268 H 604.678 -4.16617 -2.48109 0
M  V30 6269 N 606.021 0.929856 -1.27246 0
M  V30 6270 C 607.432 1.49223 -1.12203 0
M  V30 6271 C 607.783 1.93989 0.293731 0
M  V30 6272 O 606.908 1.80978 1.18642 0
M  V30 6273 C 607.503 2.71198 -2.0307 0
M  V30 6274 C 606.062 3.23666 -1.92139 0
M  V30 6275 C 605.209 1.96409 -1.95752 0
M  V30 6276 H 608.16 0.744181 -1.4017 0
M  V30 6277 H 608.181 3.45905 -1.58524 0
M  V30 6278 H 607.693 2.38585 -3.06102 0
M  V30 6279 H 605.794 3.61042 -0.920834 0
M  V30 6280 H 605.907 3.90006 -2.78267 0
M  V30 6281 H 604.271 2.12806 -1.39949 0
M  V30 6282 H 605.054 1.66113 -3.00436 0
M  V30 6283 N 607.499 1.09233 1.13605 0
M  V30 6284 C 608.409 0.741939 2.22559 0
M  V30 6285 C 609.425 -0.255236 1.72118 0
M  V30 6286 O 610.601 -0.0970747 2.01166 0
M  V30 6287 C 607.666 0.165595 3.46304 0
M  V30 6288 C 606.727 1.21846 4.11645 0
M  V30 6289 C 605.96 0.669526 5.29484 0
M  V30 6290 O 606.183 -0.508228 5.68131 0
M  V30 6291 O 605.117 1.42361 5.84822 0
M  V30 6292 H 608.943 1.65107 2.54899 0
M  V30 6293 H 606.528 0.866584 1.21699 0
M  V30 6294 H 608.41 -0.152592 4.21124 0
M  V30 6295 H 607.085 -0.716573 3.15669 0
M  V30 6296 H 605.992 1.58931 3.38662 0
M  V30 6297 H 607.325 2.07321 4.46407 0
M  V30 6298 N 608.977 -1.30795 0.87923 0
M  V30 6299 C 610.202 -2.01063 0.508769 0
M  V30 6300 C 610.627 -1.65508 -0.893803 0
M  V30 6301 O 609.985 -0.868616 -1.59138 0
M  V30 6302 C 610.033 -3.54054 0.683991 0
M  V30 6303 O 609.137 -4.11498 -0.272654 0
M  V30 6304 H 608.478 -0.632786 0.201191 0
M  V30 6305 H 611.008 -1.66776 1.18519 0
M  V30 6306 H 611.018 -4.03845 0.580798 0
M  V30 6307 H 609.693 -3.79271 1.70665 0
M  V30 6308 H 608.27 -3.72695 -0.12364 0
M  V30 6309 N 610.455 -0.639598 -1.44038 0
M  V30 6310 C 611.418 0.0506628 -2.29144 0
M  V30 6311 C 612.418 0.764001 -1.41491 0
M  V30 6312 O 613.608 0.607309 -1.63271 0
M  V30 6313 C 610.74 1.0824 -3.2326 0
M  V30 6314 H 611.933 -0.697987 -2.91664 0
M  V30 6315 H 609.486 -0.400146 -1.51091 0
M  V30 6316 H 610.221 1.86075 -2.65606 0
M  V30 6317 H 610.006 0.574725 -3.87865 0
M  V30 6318 H 611.496 1.56487 -3.87171 0
M  V30 6319 N 611.933 1.52934 -0.380664 0
M  V30 6320 C 612.863 2.29118 0.450268 0
M  V30 6321 C 613.844 1.32153 1.07096 0
M  V30 6322 O 615.029 1.61038 1.08537 0
M  V30 6323 C 612.159 3.09161 1.58231 0
M  V30 6324 C 611.113 4.13938 1.0881 0
M  V30 6325 C 610.439 4.82153 2.31155 0
M  V30 6326 C 611.739 5.22048 0.162146 0
M  V30 6327 H 613.433 2.98826 -0.185361 0
M  V30 6328 H 610.979 1.43715 -0.0905886 0
M  V30 6329 H 612.932 3.61211 2.17036 0
M  V30 6330 H 611.656 2.3717 2.2454 0
M  V30 6331 H 610.315 3.62855 0.522633 0
M  V30 6332 H 609.963 4.06719 2.95953 0
M  V30 6333 H 609.663 5.52966 1.98752 0
M  V30 6334 H 611.187 5.37004 2.90618 0
M  V30 6335 H 612.601 5.6951 0.658126 0
M  V30 6336 H 610.998 6.00057 -0.0717122 0
M  V30 6337 H 612.068 4.78398 -0.791438 0
M  V30 6338 N 613.412 0.11024 1.57214 0
M  V30 6339 C 614.828 -0.24638 1.57687 0
M  V30 6340 C 615.028 -1.67344 1.12241 0
M  V30 6341 O 614.084 -2.39298 0.805783 0
M  V30 6342 C 615.397 -0.0210288 3.00693 0
M  V30 6343 C 616.945 -0.0876077 3.12877 0
M  V30 6344 C 617.42 0.10994 4.57868 0
M  V30 6345 N 618.911 0.0556135 4.63167 0
M  V30 6346 C 619.646 0.183495 5.73106 0
M  V30 6347 N 619.142 0.367058 6.91827 0
M  V30 6348 N 620.935 0.123689 5.61964 0
M  V30 6349 H 613.086 1.04246 1.85058 0
M  V30 6350 H 615.349 0.40979 0.854854 0
M  V30 6351 H 615.055 0.965203 3.38196 0
M  V30 6352 H 614.929 -0.756748 3.69531 0
M  V30 6353 H 617.316 -1.06436 2.75237 0
M  V30 6354 H 617.397 0.67985 2.466 0
M  V30 6355 H 617.041 1.08362 4.96206 0
M  V30 6356 H 616.971 -0.677397 5.22225 0
M  V30 6357 H 619.462 -0.0831062 3.77809 0
M  V30 6358 H 619.775 0.455739 7.71455 0
M  V30 6359 H 618.12 0.40292 6.93831 0
M  V30 6360 H 621.311 -0.0186928 4.68096 0
M  V30 6361 H 621.484 0.226797 6.47603 0
M  V30 6362 N 614.89 -1.56749 -0.16351 0
M  V30 6363 C 616.167 -1.73321 -0.906599 0
M  V30 6364 C 616.547 -0.673779 -2.00059 0
M  V30 6365 O 615.895 0.310121 -2.26386 0
M  V30 6366 C 616.105 -3.168 -1.46419 0
M  V30 6367 C 617.453 -3.77993 -1.93407 0
M  V30 6368 O 618.477 -3.20127 -1.56196 0
M  V30 6369 O 617.336 -4.79615 -2.61976 0
M  V30 6370 H 614.43 -0.708073 -0.427272 0
M  V30 6371 H 616.976 -1.69029 -0.150727 0
M  V30 6372 H 615.748 -3.85396 -0.677189 0
M  V30 6373 H 615.371 -3.2545 -2.28403 0
M  V30 6374 N 616.368 0.432326 -1.51554 0
M  V30 6375 C 617.298 1.53242 -1.76179 0
M  V30 6376 C 618.279 1.58717 -0.611801 0
M  V30 6377 O 619.464 1.74364 -0.855033 0
M  V30 6378 C 616.594 2.91278 -1.89141 0
M  V30 6379 C 615.548 3.00663 -3.04608 0
M  V30 6380 C 614.874 4.40728 -3.02759 0
M  V30 6381 C 616.174 2.74281 -4.44485 0
M  V30 6382 H 617.868 1.32886 -2.68294 0
M  V30 6383 H 615.414 0.637841 -1.29103 0
M  V30 6384 H 617.367 3.68203 -2.04951 0
M  V30 6385 H 616.091 3.12877 -0.936785 0
M  V30 6386 H 614.75 2.26179 -2.88511 0
M  V30 6387 H 614.398 4.59301 -2.05065 0
M  V30 6388 H 614.098 4.47936 -3.80299 0
M  V30 6389 H 615.622 5.19619 -3.20669 0
M  V30 6390 H 617.036 3.40936 -4.60907 0
M  V30 6391 H 615.433 2.92893 -5.23769 0
M  V30 6392 H 616.503 1.69856 -4.54177 0
M  V30 6393 N 617.846 1.41785 0.688094 0
M  V30 6394 C 619.095 1.4084 1.44385 0
M  V30 6395 C 619.408 0.0234166 1.95586 0
M  V30 6396 O 620.614 -0.108647 2.71283 0
M  V30 6397 C 619.07 2.47675 2.61123 0
M  V30 6398 C 618.678 3.92116 2.16677 0
M  V30 6399 C 620.422 2.55877 3.38714 0
M  V30 6400 C 618.329 4.90487 3.30419 0
M  V30 6401 H 617.259 0.523787 0.542368 0
M  V30 6402 H 619.91 1.6764 0.74627 0
M  V30 6403 H 618.292 2.14018 3.33185 0
M  V30 6404 H 619.466 4.35059 1.51856 0
M  V30 6405 H 617.781 3.87642 1.5206 0
M  V30 6406 H 620.378 3.26553 4.234 0
M  V30 6407 H 620.721 1.59801 3.84408 0
M  V30 6408 H 621.254 2.88662 2.73714 0
M  V30 6409 H 617.993 5.87994 2.89729 0
M  V30 6410 H 617.513 4.52187 3.94065 0
M  V30 6411 H 619.192 5.11591 3.96085 0
M  V30 6412 N 619.324 -0.923095 1.27737 0
M  V30 6413 C 620.57 -1.67375 1.14514 0
M  V30 6414 C 620.903 -1.91751 -0.307424 0
M  V30 6415 O 620.178 -1.51119 -1.22447 0
M  V30 6416 C 620.461 -3.03745 1.9342 0
M  V30 6417 C 620.314 -2.86581 3.46686 0
M  V30 6418 C 621.633 -4.04144 1.74228 0
M  V30 6419 H 618.752 -0.607427 0.417374 0
M  V30 6420 H 621.394 -1.07089 1.56946 0
M  V30 6421 H 619.544 -3.55204 1.5736 0
M  V30 6422 H 621.216 -2.42203 3.92601 0
M  V30 6423 H 619.459 -2.21829 3.72793 0
M  V30 6424 H 620.13 -3.83381 3.97143 0
M  V30 6425 H 622.606 -3.61712 2.05678 0
M  V30 6426 H 621.482 -4.97543 2.31824 0
M  V30 6427 H 621.743 -4.36661 0.691373 0
M  V30 6428 N 620.802 -1.09834 -1.13024 0
M  V30 6429 C 621.765 -0.745058 -2.16752 0
M  V30 6430 C 622.765 0.227435 -1.59183 0
M  V30 6431 O 623.955 0.0050786 -1.74199 0
M  V30 6432 C 621.087 -0.102543 -3.40746 0
M  V30 6433 H 622.28 -1.66375 -2.49518 0
M  V30 6434 H 619.833 -0.898061 -1.27924 0
M  V30 6435 H 620.568 0.827177 -3.13573 0
M  V30 6436 H 620.353 -0.80235 -3.83803 0
M  V30 6437 H 621.843 0.129082 -4.174 0
M  V30 6438 N 622.28 1.30327 -0.886154 0
M  V30 6439 C 623.508 2.00254 -0.520176 0
M  V30 6440 C 623.923 1.66419 0.891637 0
M  V30 6441 O 623.28 0.901951 1.58654 0
M  V30 6442 C 623.331 3.54916 -0.686775 0
M  V30 6443 O 623.052 3.87547 -2.04301 0
M  V30 6444 C 624.553 4.42115 -0.323945 0
M  V30 6445 H 621.773 0.640204 -0.200947 0
M  V30 6446 H 624.317 1.66183 -1.19178 0
M  V30 6447 H 622.472 3.8735 -0.0625273 0
M  V30 6448 H 622.886 4.82247 -2.06249 0
M  V30 6449 H 624.36 5.49808 -0.491407 0
M  V30 6450 H 624.837 4.32953 0.73811 0
M  V30 6451 H 625.443 4.15129 -0.924565 0
M  V30 6452 N 623.758 0.647228 1.43697 0
M  V30 6453 C 625.007 0.155552 2.01099 0
M  V30 6454 C 625.32 -1.23569 1.51624 0
M  V30 6455 O 626.526 -1.82226 2.01261 0
M  V30 6456 C 624.982 0.227296 3.59182 0
M  V30 6457 C 624.59 1.62086 4.17651 0
M  V30 6458 C 626.334 -0.207085 4.23995 0
M  V30 6459 C 624.241 1.64685 5.68008 0
M  V30 6460 H 623.171 0.0543895 0.752036 0
M  V30 6461 H 625.822 0.808386 1.64734 0
M  V30 6462 H 624.204 -0.492937 3.9292 0
M  V30 6463 H 625.378 2.36597 3.95422 0
M  V30 6464 H 623.693 2.0007 3.65186 0
M  V30 6465 H 626.29 -0.207426 5.34298 0
M  V30 6466 H 626.633 -1.23742 3.97484 0
M  V30 6467 H 627.166 0.461193 3.95118 0
M  V30 6468 H 623.905 2.65608 5.99277 0
M  V30 6469 H 623.425 0.944914 5.9231 0
M  V30 6470 H 625.104 1.38792 6.31938 0
M  V30 6471 N 625.236 -1.5273 0.388769 0
M  V30 6472 C 626.199 -2.25043 -0.434544 0
M  V30 6473 C 627.199 -1.26661 -0.990644 0
M  V30 6474 O 628.389 -1.50762 -0.872731 0
M  V30 6475 C 625.521 -3.00507 -1.60961 0
M  V30 6476 H 626.714 -2.99242 0.198549 0
M  V30 6477 H 624.267 -1.55664 0.140875 0
M  V30 6478 H 625.002 -2.30607 -2.28015 0
M  V30 6479 H 624.787 -3.72716 -1.21757 0
M  V30 6480 H 626.277 -3.55413 -2.19251 0
M  V30 6481 N 626.714 -0.118576 -1.57153 0
M  V30 6482 C 627.96 0.540326 -1.95469 0
M  V30 6483 C 628.293 1.66356 -1.00196 0
M  V30 6484 O 627.568 1.94461 -0.039104 0
M  V30 6485 C 627.851 1.07342 -3.43729 0
M  V30 6486 C 627.704 -0.0463732 -4.49776 0
M  V30 6487 C 629.023 1.96442 -3.93826 0
M  V30 6488 H 626.142 0.19494 -0.710751 0
M  V30 6489 H 628.784 -0.19405 -1.89006 0
M  V30 6490 H 626.934 1.69925 -3.49368 0
M  V30 6491 H 628.606 -0.681648 -4.56236 0
M  V30 6492 H 626.849 -0.709574 -4.27957 0
M  V30 6493 H 627.52 0.367856 -5.50773 0
M  V30 6494 H 629.996 1.43731 -3.90488 0
M  V30 6495 H 628.872 2.3066 -4.98084 0
M  V30 6496 H 629.133 2.89077 -3.34495 0
M  V30 6497 N 628.193 1.56834 0.155195 0
M  V30 6498 C 629.14 1.97646 1.19184 0
M  V30 6499 C 630.11 0.842788 1.4313 0
M  V30 6500 O 631.295 1.1042 1.55602 0
M  V30 6501 C 628.435 2.35527 2.52232 0
M  V30 6502 C 627.548 3.62147 2.35529 0
M  V30 6503 C 626.683 3.89167 3.61555 0
M  V30 6504 C 625.722 5.09084 3.39853 0
M  V30 6505 N 624.859 5.32156 4.5799 0
M  V30 6506 H 629.699 2.8601 0.836802 0
M  V30 6507 H 627.236 1.41507 0.401758 0
M  V30 6508 H 629.194 2.55516 3.29799 0
M  V30 6509 H 627.824 1.50253 2.85699 0
M  V30 6510 H 626.876 3.4998 1.49057 0
M  V30 6511 H 628.188 4.49871 2.15448 0
M  V30 6512 H 627.342 4.09611 4.47553 0
M  V30 6513 H 626.081 2.9985 3.84632 0
M  V30 6514 H 625.086 4.88522 2.52243 0
M  V30 6515 H 626.311 5.99947 3.18183 0
M  V30 6516 H 624.257 4.45791 4.81255 0
M  V30 6517 H 624.174 6.14133 4.40882 0
M  V30 6518 H 625.442 5.57091 5.45225 0
M  V30 6519 N 629.671 -0.424282 1.51781 0
M  V30 6520 C 630.901 -1.19297 1.68677 0
M  V30 6521 C 631.309 -1.85152 0.389258 0
M  V30 6522 O 630.652 -1.72067 -0.643311 0
M  V30 6523 C 630.714 -2.30929 2.75521 0
M  V30 6524 C 630.378 -1.85335 4.17732 0
M  V30 6525 C 631.375 -1.34951 5.0208 0
M  V30 6526 C 629.06 -1.92629 4.63896 0
M  V30 6527 C 631.054 -0.924636 6.30658 0
M  V30 6528 C 628.741 -1.49754 5.92467 0
M  V30 6529 C 629.739 -0.997543 6.75676 0
M  V30 6530 O 629.427 -0.57492 8.01842 0
M  V30 6531 H 629.159 -0.36512 0.568914 0
M  V30 6532 H 631.713 -0.507327 1.99036 0
M  V30 6533 H 629.943 -3.02811 2.40505 0
M  V30 6534 H 631.632 -2.92748 2.81165 0
M  V30 6535 H 632.398 -1.287 4.67612 0
M  V30 6536 H 628.277 -2.30491 3.99243 0
M  V30 6537 H 631.821 -0.533682 6.95556 0
M  V30 6538 H 627.718 -1.55679 6.26446 0
M  V30 6539 H 628.486 -0.699597 8.15505 0
M  V30 6540 N 631.149 -1.42148 -0.680565 0
M  V30 6541 C 632.377 -1.45696 -1.46902 0
M  V30 6542 C 632.792 -0.0665858 -1.88683 0
M  V30 6543 O 632.149 0.917436 -1.57764 0
M  V30 6544 C 632.2 -2.37898 -2.72188 0
M  V30 6545 O 631.921 -3.71526 -2.32163 0
M  V30 6546 C 633.422 -2.50407 -3.65802 0
M  V30 6547 H 630.642 -0.495729 -0.45221 0
M  V30 6548 H 633.186 -1.866 -0.836709 0
M  V30 6549 H 631.341 -2.00263 -3.31622 0
M  V30 6550 H 631.755 -4.20849 -3.13027 0
M  V30 6551 H 633.229 -3.19056 -4.50452 0
M  V30 6552 H 633.706 -1.5401 -4.11312 0
M  V30 6553 H 634.312 -2.8874 -3.12265 0
M  V30 6554 N 632.627 0.916307 -1.28225 0
M  V30 6555 C 633.559 2.02303 -1.07732 0
M  V30 6556 C 634.572 1.62773 -0.0298421 0
M  V30 6557 O 635.761 1.76406 -0.272626 0
M  V30 6558 C 632.861 3.33282 -0.614504 0
M  V30 6559 C 632.034 4.01439 -1.73682 0
M  V30 6560 C 631.093 5.10698 -1.26781 0
M  V30 6561 O 630.119 5.34038 -1.96958 0
M  V30 6562 N 631.321 5.80355 -0.129624 0
M  V30 6563 H 634.086 2.20442 -2.03041 0
M  V30 6564 H 631.647 1.08744 -1.19943 0
M  V30 6565 H 633.639 4.03699 -0.284397 0
M  V30 6566 H 632.209 3.11633 0.245664 0
M  V30 6567 H 631.429 3.24604 -2.23665 0
M  V30 6568 H 632.717 4.43721 -2.48976 0
M  V30 6569 H 632.115 5.6386 0.455847 0
M  V30 6570 H 630.672 6.51647 0.141224 0
M  V30 6571 N 634.105 1.10431 1.1244 0
M  V30 6572 C 635.33 0.869089 1.88313 0
M  V30 6573 C 635.755 -0.574912 1.79099 0
M  V30 6574 O 635.113 -1.40496 1.14589 0
M  V30 6575 C 635.161 1.32208 3.3549 0
M  V30 6576 O 634.265 0.487092 4.09513 0
M  V30 6577 H 633.606 0.313894 0.585121 0
M  V30 6578 H 636.136 1.47111 1.42195 0
M  V30 6579 H 636.146 1.31201 3.86329 0
M  V30 6580 H 634.821 2.37364 3.41513 0
M  V30 6581 H 633.398 0.562372 3.68635 0
M  V30 6582 N 635.583 -1.29855 0.893053 0
M  V30 6583 C 636.531 -2.29867 0.355512 0
M  V30 6584 C 637.525 -1.60502 -0.541801 0
M  V30 6585 O 638.731 -1.74902 -0.425339 0
M  V30 6586 H 635.106 -0.745805 0.0963247 0
M  V30 6587 H 637.077 -2.72655 1.21252 0
M  V30 6588 C 635.826 -3.453 -0.407801 0
M  V30 6589 H 635.149 -3.98864 0.273426 0
M  V30 6590 H 636.589 -4.17334 -0.748887 0
M  V30 6591 C 635.048 -2.96051 -1.60795 0
M  V30 6592 O 635.578 -2.96763 -2.7073 0
M  V30 6593 N 633.784 -2.51963 -1.44786 0
M  V30 6594 H 633.331 -2.51583 -0.553498 0
M  V30 6595 H 633.289 -2.1937 -2.2522 0
M  V30 6596 N 637.061 -0.65484 -1.43351 0
M  V30 6597 C 638.286 -0.175046 -2.0666 0
M  V30 6598 C 638.711 1.15104 -1.4877 0
M  V30 6599 O 638.069 1.71144 -0.598279 0
M  V30 6600 C 638.117 -0.0991544 -3.60464 0
M  V30 6601 O 637.221 0.938169 -4.01587 0
M  V30 6602 H 636.562 -0.0956148 -0.65708 0
M  V30 6603 H 639.092 -0.898222 -1.83829 0
M  V30 6604 H 639.102 0.083632 -4.07914 0
M  V30 6605 H 637.777 -1.06719 -4.01975 0
M  V30 6606 H 636.354 0.72804 -3.65724 0
M  V30 6607 N 638.539 1.52521 -0.396863 0
M  V30 6608 C 639.785 2.01971 0.183169 0
M  V30 6609 C 640.118 1.2825 1.45827 0
M  V30 6610 O 639.393 0.385179 1.90648 0
M  V30 6611 C 639.676 3.5736 0.443391 0
M  V30 6612 C 639.529 4.41743 -0.84753 0
M  V30 6613 C 640.848 4.22539 1.2308 0
M  V30 6614 H 637.967 0.734119 0.0650976 0
M  V30 6615 H 640.609 1.82519 -0.527918 0
M  V30 6616 H 638.759 3.74066 1.04914 0
M  V30 6617 H 640.431 4.36773 -1.48414 0
M  V30 6618 H 638.674 4.0845 -1.4612 0
M  V30 6619 H 639.345 5.48507 -0.620003 0
M  V30 6620 H 641.821 4.09857 0.718084 0
M  V30 6621 H 640.697 5.31227 1.38162 0
M  V30 6622 H 640.958 3.80675 2.24808 0
M  V30 6623 N 640.017 0.126909 1.57088 0
M  V30 6624 C 641.257 -0.53216 1.97351 0
M  V30 6625 C 641.621 -1.63342 1.00913 0
M  V30 6626 O 642.822 -2.35194 1.30144 0
M  V30 6627 C 641.093 -1.04385 3.41817 0
M  V30 6628 S 642.652 -1.71033 4.04095 0
M  V30 6629 H 639.47 -0.172724 0.689701 0
M  V30 6630 H 642.072 0.213865 1.94327 0
M  V30 6631 H 640.776 -0.231289 4.09748 0
M  V30 6632 H 640.307 -1.82496 3.48509 0
M  V30 6633 H 642.322 -2.99656 3.95501 0
M  V30 6634 N 641.495 -1.56914 -0.146875 0
M  V30 6635 C 642.725 -1.87243 -0.873126 0
M  V30 6636 C 643.133 -0.713127 -1.75246 0
M  V30 6637 O 642.476 0.326228 -1.8078 0
M  V30 6638 C 642.538 -3.12279 -1.78107 0
M  V30 6639 C 642.202 -4.44082 -1.07889 0
M  V30 6640 C 643.199 -5.18096 -0.432734 0
M  V30 6641 C 640.884 -4.90807 -1.06836 0
M  V30 6642 C 642.878 -6.37039 0.214569 0
M  V30 6643 C 640.565 -6.09674 -0.417243 0
M  V30 6644 C 641.563 -6.82636 0.223093 0
M  V30 6645 O 641.251 -7.99245 0.863884 0
M  V30 6646 H 640.983 -0.624896 -0.257839 0
M  V30 6647 H 643.537 -2.04892 -0.14434 0
M  V30 6648 H 641.767 -2.90639 -2.5508 0
M  V30 6649 H 643.456 -3.28854 -2.37929 0
M  V30 6650 H 644.222 -4.83066 -0.432677 0
M  V30 6651 H 640.101 -4.3394 -1.55618 0
M  V30 6652 H 643.645 -6.93927 0.714965 0
M  V30 6653 H 639.542 -6.44165 -0.414967 0
M  V30 6654 H 640.31 -8.14912 0.765564 0
M  V30 6655 N 642.974 0.416227 -1.52004 0
M  V30 6656 C 643.937 1.48926 -1.74223 0
M  V30 6657 C 644.937 1.48693 -0.612119 0
M  V30 6658 O 646.127 1.50343 -0.879921 0
M  V30 6659 C 643.259 2.88372 -1.81809 0
M  V30 6660 H 644.452 1.3052 -2.70008 0
M  V30 6661 H 642.005 0.646271 -1.42313 0
M  V30 6662 H 642.74 3.12157 -0.879135 0
M  V30 6663 H 642.525 2.89944 -2.6396 0
M  V30 6664 H 644.015 3.66173 -2.00766 0
M  V30 6665 N 644.452 1.42507 0.673017 0
M  V30 6666 C 645.399 1.46124 1.78651 0
M  V30 6667 C 646.369 0.313007 1.63124 0
M  V30 6668 O 647.554 0.517337 1.83653 0
M  V30 6669 C 644.694 1.3711 3.16694 0
M  V30 6670 C 643.807 2.61983 3.43495 0
M  V30 6671 C 642.942 2.45098 4.71275 0
M  V30 6672 C 641.981 3.65336 4.91117 0
M  V30 6673 N 641.118 3.47383 6.10139 0
M  V30 6674 H 645.958 2.4128 1.74895 0
M  V30 6675 H 643.495 1.19788 0.853766 0
M  V30 6676 H 645.453 1.29881 3.96468 0
M  V30 6677 H 644.083 0.45549 3.1957 0
M  V30 6678 H 643.135 2.79571 2.57961 0
M  V30 6679 H 644.447 3.51355 3.5405 0
M  V30 6680 H 643.601 2.35466 5.59143 0
M  V30 6681 H 642.34 1.53219 4.63007 0
M  V30 6682 H 641.345 3.754 4.0169 0
M  V30 6683 H 642.57 4.58199 5.01229 0
M  V30 6684 H 640.516 2.58222 6.0304 0
M  V30 6685 H 640.433 4.30344 6.21563 0
M  V30 6686 H 641.701 3.41565 7.00681 0
M  V30 6687 N 645.93 -0.909495 1.28709 0
M  V30 6688 C 646.878 -2.03381 1.12866 0
M  V30 6689 C 647.872 -1.69335 0.0468074 0
M  V30 6690 O 649.078 -1.78819 0.205891 0
M  V30 6691 H 645.453 -0.666452 0.348348 0
M  V30 6692 H 647.424 -2.13885 2.08077 0
M  V30 6693 C 646.173 -3.38092 0.811742 0
M  V30 6694 H 645.496 -3.64786 1.63619 0
M  V30 6695 H 646.936 -4.17477 0.740869 0
M  V30 6696 C 645.395 -3.33395 -0.484679 0
M  V30 6697 O 645.925 -3.72089 -1.5137 0
M  V30 6698 N 644.131 -2.86491 -0.486961 0
M  V30 6699 H 643.678 -2.55199 0.350877 0
M  V30 6700 H 643.636 -2.83731 -1.3544 0
M  V30 6701 N 647.408 -1.11026 -1.11852 0
M  V30 6702 C 648.656 -0.854769 -1.83134 0
M  V30 6703 C 648.977 0.621375 -1.84835 0
M  V30 6704 O 648.247 1.45129 -1.31584 0
M  V30 6705 H 646.827 -0.313229 -0.678157 0
M  V30 6706 H 649.489 -1.40178 -1.35411 0
M  V30 6707 H 648.585 -1.22311 -2.87135 0
M  V30 6708 N 648.886 1.2938 -0.899927 0
M  V30 6709 C 649.818 2.26737 -0.335139 0
M  V30 6710 C 650.831 1.54316 0.518681 0
M  V30 6711 O 652.02 1.75313 0.335803 0
M  V30 6712 C 649.12 3.34558 0.540774 0
M  V30 6713 C 648.293 4.36455 -0.287372 0
M  V30 6714 C 647.352 5.2361 0.52141 0
M  V30 6715 O 646.378 5.69167 -0.0611735 0
M  V30 6716 N 647.58 5.50985 1.82745 0
M  V30 6717 H 650.345 2.75838 -1.17191 0
M  V30 6718 H 647.906 1.42716 -0.764438 0
M  V30 6719 H 649.898 3.89794 1.08825 0
M  V30 6720 H 648.468 2.85272 1.27823 0
M  V30 6721 H 647.688 3.80875 -1.01626 0
M  V30 6722 H 648.976 5.01573 -0.854518 0
M  V30 6723 H 648.374 5.15781 2.32349 0
M  V30 6724 H 646.931 6.09036 2.32204 0
M  V30 6725 N 650.364 0.662433 1.43002 0
M  V30 6726 C 651.61 0.179857 2.02001 0
M  V30 6727 C 651.943 -1.20625 1.52195 0
M  V30 6728 O 651.218 -1.80726 0.718911 0
M  V30 6729 C 651.501 0.200845 3.59539 0
M  V30 6730 C 651.354 1.62153 4.19555 0
M  V30 6731 C 652.673 -0.457738 4.37713 0
M  V30 6732 H 649.792 0.0668305 0.733964 0
M  V30 6733 H 652.434 0.84487 1.70182 0
M  V30 6734 H 650.584 -0.365411 3.86778 0
M  V30 6735 H 652.256 2.23908 4.03315 0
M  V30 6736 H 650.499 2.16601 3.75854 0
M  V30 6737 H 651.17 1.58799 5.28665 0
M  V30 6738 H 653.646 0.0241495 4.16093 0
M  V30 6739 H 652.522 -0.412363 5.47349 0
M  V30 6740 H 652.783 -1.53336 4.14657 0
M  V30 6741 N 651.842 -1.52309 0.404946 0
M  V30 6742 C 653.091 -2.00952 -0.173529 0
M  V30 6743 C 653.404 -1.29512 -1.46581 0
M  V30 6744 O 654.61 -1.6895 -2.12528 0
M  V30 6745 C 653.066 -3.58097 -0.359801 0
M  V30 6746 C 652.674 -4.38449 0.920138 0
M  V30 6747 C 654.418 -4.14984 -0.893794 0
M  V30 6748 C 652.325 -5.87227 0.701285 0
M  V30 6749 H 651.255 -0.750871 -0.0686244 0
M  V30 6750 H 653.906 -1.75687 0.529749 0
M  V30 6751 H 652.288 -3.79675 -1.12531 0
M  V30 6752 H 653.462 -4.28633 1.69147 0
M  V30 6753 H 651.777 -3.92859 1.38024 0
M  V30 6754 H 654.374 -5.23813 -1.0735 0
M  V30 6755 H 654.717 -3.72072 -1.8673 0
M  V30 6756 H 655.25 -3.97358 -0.187453 0
M  V30 6757 H 651.989 -6.34491 1.64624 0
M  V30 6758 H 651.509 -5.99792 -0.0308288 0
M  V30 6759 H 653.188 -6.46096 0.341846 0
M  V30 6760 N 653.32 -0.135238 -1.57019 0
M  V30 6761 C 654.568 0.51777 -1.95355 0
M  V30 6762 C 654.889 1.6617 -1.02042 0
M  V30 6763 O 654.159 1.95738 -0.0797343 0
M  V30 6764 H 652.739 0.194264 -0.721298 0
M  V30 6765 H 655.401 -0.207983 -1.93787 0
M  V30 6766 H 654.497 0.901675 -2.98791 0
M  V30 6767 N 654.798 1.5699 0.138552 0
M  V30 6768 C 656.047 1.82998 0.848205 0
M  V30 6769 C 656.36 0.717829 1.81952 0
M  V30 6770 O 657.566 0.863756 2.57394 0
M  V30 6771 C 656.022 3.24379 1.55904 0
M  V30 6772 C 655.63 4.43552 0.62971 0
M  V30 6773 C 657.374 3.59654 2.25498 0
M  V30 6774 C 655.281 5.75957 1.34266 0
M  V30 6775 H 654.211 0.682495 0.320495 0
M  V30 6776 H 656.862 1.83222 0.100924 0
M  V30 6777 H 655.244 3.18567 2.35226 0
M  V30 6778 H 656.418 4.6062 -0.128882 0
M  V30 6779 H 654.733 4.16379 0.0417526 0
M  V30 6780 H 657.33 4.55837 2.79493 0
M  V30 6781 H 657.673 2.86124 3.02388 0
M  V30 6782 H 658.206 3.67164 1.53087 0
M  V30 6783 H 654.945 6.52604 0.615441 0
M  V30 6784 H 654.465 5.62811 2.07375 0
M  V30 6785 H 656.144 6.19046 1.88126 0
M  V30 6786 N 656.276 -0.40816 1.52223 0
M  V30 6787 C 657.524 -1.15274 1.66001 0
M  V30 6788 C 657.845 -1.91003 0.392803 0
M  V30 6789 O 657.115 -1.8673 -0.592336 0
M  V30 6790 H 655.695 -0.428526 0.611861 0
M  V30 6791 H 658.357 -0.46512 1.89269 0
M  V30 6792 H 657.453 -1.86628 2.50153 0
M  V30 6793 N 657.755 -1.42862 -0.66545 0
M  V30 6794 C 658.718 -1.46756 -1.76055 0
M  V30 6795 C 659.718 -0.353866 -1.56858 0
M  V30 6796 O 660.908 -0.615099 -1.62979 0
M  V30 6797 C 658.04 -1.30829 -3.14796 0
M  V30 6798 H 659.233 -2.44271 -1.73987 0
M  V30 6799 H 656.786 -1.29447 -0.875965 0
M  V30 6800 H 657.521 -0.342733 -3.22484 0
M  V30 6801 H 657.306 -2.11551 -3.30134 0
M  V30 6802 H 658.796 -1.36458 -3.94676 0
M  V30 6803 N 659.233 0.902656 -1.29189 0
M  V30 6804 C 660.481 1.6496 -1.16758 0
M  V30 6805 C 660.802 1.92952 0.28188 0
M  V30 6806 O 660.072 1.55351 1.19344 0
M  V30 6807 H 658.652 0.611447 -0.429118 0
M  V30 6808 H 661.314 1.0825 -1.62074 0
M  V30 6809 H 660.41 2.60728 -1.71544 0
M  V30 6810 N 660.711 1.11618 1.11262 0
M  V30 6811 C 661.643 0.734015 2.17129 0
M  V30 6812 C 662.656 -0.235243 1.61091 0
M  V30 6813 O 663.845 -0.0178597 1.78491 0
M  V30 6814 C 660.945 0.0643682 3.38839 0
M  V30 6815 C 660.118 1.06092 4.24339 0
M  V30 6816 C 659.177 0.420482 5.24517 0
M  V30 6817 O 658.203 1.07495 5.58957 0
M  V30 6818 N 659.405 -0.815828 5.74739 0
M  V30 6819 H 662.17 1.64492 2.50524 0
M  V30 6820 H 659.731 1.00664 1.26801 0
M  V30 6821 H 661.723 -0.375851 4.02951 0
M  V30 6822 H 660.293 -0.749147 3.03491 0
M  V30 6823 H 659.513 1.67903 3.56654 0
M  V30 6824 H 660.801 1.73507 4.78302 0
M  V30 6825 H 660.199 -1.36668 5.48943 0
M  V30 6826 H 658.756 -1.199 6.40677 0
M  V30 6827 N 662.189 -1.289 0.906776 0
M  V30 6828 C 663.121 -2.26556 0.347159 0
M  V30 6829 C 664.134 -1.54589 -0.51049 0
M  V30 6830 O 665.323 -1.75489 -0.326501 0
M  V30 6831 C 662.423 -3.3484 -0.523024 0
M  V30 6832 C 661.596 -4.36296 0.310515 0
M  V30 6833 C 660.655 -5.23879 -0.493634 0
M  V30 6834 O 659.681 -5.69127 0.0913569 0
M  V30 6835 N 660.883 -5.51946 -1.7982 0
M  V30 6836 H 663.648 -2.75212 1.18652 0
M  V30 6837 H 661.209 -1.42309 0.771996 0
M  V30 6838 H 663.201 -3.90366 -1.06756 0
M  V30 6839 H 661.771 -2.85946 -1.26309 0
M  V30 6840 H 660.991 -3.80331 1.03644 0
M  V30 6841 H 662.279 -5.01113 0.881106 0
M  V30 6842 H 661.677 -5.17006 -2.2961 0
M  V30 6843 H 660.234 -6.10258 -2.28971 0
M  V30 6844 N 663.667 -0.670007 -1.42649 0
M  V30 6845 C 664.892 -0.196955 -2.06463 0
M  V30 6846 C 665.317 1.1352 -1.49983 0
M  V30 6847 O 664.675 1.705 -0.616397 0
M  V30 6848 C 664.723 -0.137381 -3.60338 0
M  V30 6849 O 663.827 0.895523 -4.02559 0
M  V30 6850 H 663.168 -0.102579 -0.656029 0
M  V30 6851 H 665.698 -0.917669 -1.82866 0
M  V30 6852 H 665.708 0.0403625 -4.0798 0
M  V30 6853 H 664.383 -1.10977 -4.0082 0
M  V30 6854 H 662.96 0.689209 -3.66476 0
M  V30 6855 N 665.145 1.52092 -0.413018 0
M  V30 6856 C 666.561 1.59471 -0.0640836 0
M  V30 6857 C 666.761 1.42562 1.42402 0
M  V30 6858 O 665.817 1.25453 2.19129 0
M  V30 6859 C 667.13 2.95392 -0.562474 0
M  V30 6860 C 668.678 3.08637 -0.520788 0
M  V30 6861 C 669.153 4.47044 -0.995752 0
M  V30 6862 N 670.644 4.53296 -0.952732 0
M  V30 6863 C 671.379 5.58669 -1.29138 0
M  V30 6864 N 670.875 6.71576 -1.70168 0
M  V30 6865 N 672.668 5.48898 -1.2111 0
M  V30 6866 H 664.819 1.6133 -1.38153 0
M  V30 6867 H 667.082 0.75916 -0.567785 0
M  V30 6868 H 666.788 3.13059 -1.60271 0
M  V30 6869 H 666.662 3.77191 0.0257875 0
M  V30 6870 H 669.049 2.90652 0.510412 0
M  V30 6871 H 669.13 2.28735 -1.14515 0
M  V30 6872 H 668.774 4.65773 -2.0253 0
M  V30 6873 H 668.704 5.25448 -0.348162 0
M  V30 6874 H 671.195 3.72248 -0.651119 0
M  V30 6875 H 671.508 7.47973 -1.9431 0
M  V30 6876 H 669.853 6.72847 -1.74075 0
M  V30 6877 H 673.044 4.59573 -0.889396 0
M  V30 6878 H 673.217 6.30912 -1.47833 0
M  V30 6879 N 666.623 0.143563 1.56945 0
M  V30 6880 C 667.872 -0.50835 1.95189 0
M  V30 6881 C 668.185 -1.66239 1.03073 0
M  V30 6882 O 669.391 -2.3787 1.30882 0
M  V30 6883 C 667.847 -0.955735 3.46978 0
M  V30 6884 C 667.455 0.171183 4.47673 0
M  V30 6885 C 669.199 -1.57763 3.94095 0
M  V30 6886 C 667.106 -0.294279 5.90667 0
M  V30 6887 H 666.036 -0.193679 0.728701 0
M  V30 6888 H 668.687 0.227357 1.82086 0
M  V30 6889 H 667.069 -1.7466 3.55401 0
M  V30 6890 H 668.243 0.948049 4.50942 0
M  V30 6891 H 666.558 0.701273 4.10452 0
M  V30 6892 H 669.155 -1.93745 4.98364 0
M  V30 6893 H 669.498 -2.46531 3.35452 0
M  V30 6894 H 670.031 -0.851728 3.88575 0
M  V30 6895 H 666.77 0.557939 6.53121 0
M  V30 6896 H 666.29 -1.0371 5.90766 0
M  V30 6897 H 667.969 -0.747426 6.42668 0
M  V30 6898 N 668.101 -1.57061 -0.130224 0
M  V30 6899 C 669.051 -1.95941 -1.16582 0
M  V30 6900 C 670.035 -0.832858 -1.37667 0
M  V30 6901 O 671.227 -1.09647 -1.38948 0
M  V30 6902 C 668.356 -2.35777 -2.49528 0
M  V30 6903 C 667.442 -3.5504 -2.31964 0
M  V30 6904 N 667.833 -4.71071 -1.84189 0
M  V30 6905 C 666.131 -3.60453 -2.62659 0
M  V30 6906 C 666.832 -5.53128 -1.80068 0
M  V30 6907 N 665.808 -4.95303 -2.24001 0
M  V30 6908 H 669.61 -2.83117 -0.788806 0
M  V30 6909 H 667.124 -1.58842 -0.3381 0
M  V30 6910 H 669.121 -2.61843 -3.24413 0
M  V30 6911 H 667.781 -1.49961 -2.87996 0
M  V30 6912 H 668.792 -4.94504 -1.53903 0
M  V30 6913 H 665.469 -2.85217 -3.0489 0
M  V30 6914 H 666.859 -6.56182 -1.4448 0
M  V30 6915 N 669.579 0.400081 -1.52437 0
M  V30 6916 C 670.819 1.15526 -1.68622 0
M  V30 6917 C 671.183 1.87533 -0.411744 0
M  V30 6918 O 672.384 2.6501 -0.449804 0
M  V30 6919 C 670.655 2.11618 -2.88015 0
M  V30 6920 S 672.214 2.95121 -3.24729 0
M  V30 6921 H 669.032 0.39123 -0.593683 0
M  V30 6922 H 671.634 0.441255 -1.90455 0
M  V30 6923 H 670.338 1.5742 -3.79008 0
M  V30 6924 H 669.869 2.87544 -2.68481 0
M  V30 6925 H 671.884 4.13653 -2.74055 0
M  V30 6926 N 671.057 1.43213 0.657864 0
M  V30 6927 C 672.285 1.48015 1.44566 0
M  V30 6928 C 672.7 0.0965951 1.88553 0
M  V30 6929 O 672.057 -0.892221 1.59203 0
M  V30 6930 C 672.108 2.42199 2.68369 0
M  V30 6931 O 671.829 3.75173 2.26223 0
M  V30 6932 C 673.33 2.56195 3.61772 0
M  V30 6933 H 670.55 0.502861 0.444266 0
M  V30 6934 H 673.094 1.87907 0.806917 0
M  V30 6935 H 671.249 2.05514 3.28394 0
M  V30 6936 H 671.663 4.25776 3.06293 0
M  V30 6937 H 673.137 3.26182 4.4532 0
M  V30 6938 H 673.614 1.60534 4.0881 0
M  V30 6939 H 674.22 2.93671 3.07632 0
M  V30 6940 N 672.536 -0.895792 1.29666 0
M  V30 6941 C 673.952 -1.17726 1.07763 0
M  V30 6942 C 674.152 -2.00794 -0.168576 0
M  V30 6943 O 673.208 -2.37213 -0.865244 0
M  V30 6944 C 674.521 -1.89441 2.33522 0
M  V30 6945 C 676.069 -2.02251 2.3888 0
M  V30 6946 C 676.544 -2.77378 3.64452 0
M  V30 6947 N 678.035 -2.8493 3.65198 0
M  V30 6948 C 678.77 -3.43606 4.59045 0
M  V30 6949 N 678.266 -4.03417 5.63228 0
M  V30 6950 N 680.059 -3.41317 4.46608 0
M  V30 6951 H 672.21 -0.341652 2.09634 0
M  V30 6952 H 674.473 -0.213865 0.923561 0
M  V30 6953 H 674.179 -1.35842 3.24407 0
M  V30 6954 H 674.053 -2.89893 2.41334 0
M  V30 6955 H 676.44 -2.55025 1.4848 0
M  V30 6956 H 676.521 -1.0092 2.3505 0
M  V30 6957 H 676.165 -2.25279 4.55205 0
M  V30 6958 H 676.095 -3.79062 3.65541 0
M  V30 6959 H 678.586 -2.42453 2.89871 0
M  V30 6960 H 678.899 -4.46224 6.30955 0
M  V30 6961 H 677.244 -4.01868 5.67033 0
M  V30 6962 H 680.435 -2.93812 3.64407 0
M  V30 6963 H 680.608 -3.86751 5.1993 0
M  V30 6964 N 674.014 -1.12206 -1.10668 0
M  V30 6965 C 674.944 -0.810086 -2.18997 0
M  V30 6966 C 675.925 0.225065 -1.68604 0
M  V30 6967 O 677.11 0.086783 -1.94006 0
M  V30 6968 C 674.24 -0.261262 -3.46316 0
M  V30 6969 C 673.194 -1.2292 -4.09969 0
M  V30 6970 C 672.52 -0.540713 -5.31959 0
M  V30 6971 C 673.82 -2.58295 -4.53962 0
M  V30 6972 H 675.514 -1.7159 -2.45352 0
M  V30 6973 H 673.06 -0.82646 -1.17922 0
M  V30 6974 H 675.013 -0.0307522 -4.21389 0
M  V30 6975 H 673.737 0.679879 -3.19445 0
M  V30 6976 H 672.396 -1.44548 -3.369 0
M  V30 6977 H 672.044 0.405492 -5.01363 0
M  V30 6978 H 671.744 -1.18637 -5.75499 0
M  V30 6979 H 673.268 -0.319184 -6.09765 0
M  V30 6980 H 674.682 -2.40709 -5.20319 0
M  V30 6981 H 673.079 -3.18916 -5.08343 0
M  V30 6982 H 674.149 -3.16918 -3.67002 0
M  V30 6983 N 675.492 1.28418 -0.913599 0
M  V30 6984 C 676.455 2.25564 -0.406624 0
M  V30 6985 C 677.455 1.5387 0.466965 0
M  V30 6986 O 678.645 1.72094 0.270042 0
M  V30 6987 C 675.777 3.38339 0.417053 0
M  V30 6988 H 676.97 2.71926 -1.26477 0
M  V30 6989 H 674.523 1.40098 -0.692986 0
M  V30 6990 H 675.258 2.97339 1.29461 0
M  V30 6991 H 675.043 3.91542 -0.209102 0
M  V30 6992 H 676.533 4.10578 0.762602 0
M  V30 6993 N 676.97 0.677563 1.42291 0
M  V30 6994 C 678.218 0.200578 2.01102 0
M  V30 6995 C 678.539 -1.19803 1.53858 0
M  V30 6996 O 677.809 -1.80496 0.761439 0
M  V30 6997 H 676.389 0.0711634 0.743603 0
M  V30 6998 H 679.051 0.874691 1.7417 0
M  V30 6999 H 678.147 0.204 3.11433 0
M  V30 7000 N 678.448 -1.51871 0.421078 0
M  V30 7001 C 679.725 -1.9447 -0.20993 0
M  V30 7002 C 680.105 -1.35875 -1.61558 0
M  V30 7003 O 679.453 -0.539294 -2.22045 0
M  V30 7004 C 679.663 -3.48402 -0.204165 0
M  V30 7005 C 681.011 -4.2254 -0.417696 0
M  V30 7006 O 682.035 -3.55074 -0.282999 0
M  V30 7007 O 680.894 -5.422 -0.684239 0
M  V30 7008 H 677.988 -0.815283 -0.138718 0
M  V30 7009 H 680.534 -1.62832 0.477884 0
M  V30 7010 H 679.306 -3.83464 0.779183 0
M  V30 7011 H 678.929 -3.86436 -0.935576 0
M  V30 7012 N 679.926 -0.151884 -1.56866 0
M  V30 7013 C 680.873 0.785936 -2.17006 0
M  V30 7014 C 681.843 1.2407 -1.10435 0
M  V30 7015 O 683.028 1.31235 -1.38499 0
M  V30 7016 C 680.168 2.01771 -2.79969 0
M  V30 7017 C 679.281 1.6083 -4.00946 0
M  V30 7018 C 678.416 2.79224 -4.51893 0
M  V30 7019 C 677.455 2.3468 -5.65324 0
M  V30 7020 N 676.592 3.461 -6.10867 0
M  V30 7021 H 681.432 0.266286 -2.96808 0
M  V30 7022 H 678.969 0.11972 -1.46612 0
M  V30 7023 H 680.927 2.73989 -3.14621 0
M  V30 7024 H 679.557 2.51139 -2.02803 0
M  V30 7025 H 678.609 0.783592 -3.72242 0
M  V30 7026 H 679.921 1.24119 -4.83111 0
M  V30 7027 H 679.075 3.59625 -4.88625 0
M  V30 7028 H 677.814 3.19183 -3.68746 0
M  V30 7029 H 676.819 1.52721 -5.28163 0
M  V30 7030 H 678.044 1.95801 -6.5026 0
M  V30 7031 H 675.99 3.85671 -5.30654 0
M  V30 7032 H 675.907 3.1342 -6.87971 0
M  V30 7033 H 677.175 4.26844 -6.52246 0
M  V30 7034 N 681.404 1.57128 0.121893 0
M  V30 7035 C 682.367 1.99197 1.13372 0
M  V30 7036 C 683.367 0.881728 1.3447 0
M  V30 7037 O 684.557 1.14783 1.31036 0
M  V30 7038 C 681.689 2.32963 2.4888 0
M  V30 7039 H 682.882 2.89788 0.772204 0
M  V30 7040 H 680.435 1.51952 0.366093 0
M  V30 7041 H 681.17 1.45243 2.89957 0
M  V30 7042 H 680.955 3.13934 2.34921 0
M  V30 7043 H 682.445 2.66261 3.21706 0
M  V30 7044 N 682.882 -0.391992 1.52647 0
M  V30 7045 C 683.83 -1.4991 1.77848 0
M  V30 7046 C 684.824 -1.56587 0.646282 0
M  V30 7047 O 686.03 -1.59789 0.828698 0
M  V30 7048 H 682.405 -0.498883 0.56269 0
M  V30 7049 H 684.376 -1.25847 2.70564 0
M  V30 7050 C 683.125 -2.87081 1.96163 0
M  V30 7051 H 682.448 -2.82692 2.82711 0
M  V30 7052 H 683.888 -3.63792 2.17787 0
M  V30 7053 C 682.347 -3.28822 0.733348 0
M  V30 7054 O 682.877 -4.01598 -0.0906481 0
M  V30 7055 N 681.083 -2.85068 0.564317 0
M  V30 7056 H 680.63 -2.26012 1.23598 0
M  V30 7057 H 680.588 -3.13355 -0.256166 0
M  V30 7058 N 684.36 -1.4356 -0.65026 0
M  V30 7059 C 685.59 -1.48563 -1.4357 0
M  V30 7060 C 685.998 -0.103041 -1.88919 0
M  V30 7061 O 685.341 0.897602 -1.60277 0
M  V30 7062 C 685.403 -2.37181 -2.70158 0
M  V30 7063 C 685.067 -3.84673 -2.4673 0
M  V30 7064 C 686.064 -4.75704 -2.09765 0
M  V30 7065 C 683.749 -4.29189 -2.60963 0
M  V30 7066 C 685.743 -6.09249 -1.87334 0
M  V30 7067 C 683.43 -5.62787 -2.38147 0
M  V30 7068 C 684.428 -6.52634 -2.01389 0
M  V30 7069 O 684.116 -7.83761 -1.78813 0
M  V30 7070 H 683.848 -0.506743 -0.447423 0
M  V30 7071 H 686.402 -1.89001 -0.80423 0
M  V30 7072 H 684.632 -1.91636 -3.35876 0
M  V30 7073 H 686.321 -2.33354 -3.32116 0
M  V30 7074 H 687.087 -4.42589 -1.98343 0
M  V30 7075 H 682.966 -3.59529 -2.88548 0
M  V30 7076 H 686.51 -6.7934 -1.58567 0
M  V30 7077 H 682.407 -5.95469 -2.49173 0
M  V30 7078 H 683.175 -7.95368 -1.93214 0
M  V30 7079 N 685.838 0.888903 -1.30139 0
M  V30 7080 C 687.084 1.64288 -1.19922 0
M  V30 7081 C 687.439 1.90839 0.244561 0
M  V30 7082 O 686.732 1.51544 1.17239 0
M  V30 7083 C 686.926 2.99041 -1.95728 0
M  V30 7084 C 686.755 2.85644 -3.47329 0
M  V30 7085 C 685.525 2.85836 -4.16685 0
M  V30 7086 C 687.723 2.6188 -4.42632 0
M  V30 7087 N 685.705 2.63289 -5.54574 0
M  V30 7088 C 687.076 2.48418 -5.68057 0
M  V30 7089 C 689.131 2.47073 -4.32272 0
M  V30 7090 C 687.834 2.21655 -6.84296 0
M  V30 7091 C 689.86 2.21695 -5.48275 0
M  V30 7092 C 689.222 2.09007 -6.72678 0
M  V30 7093 H 685.321 0.606315 -0.493868 0
M  V30 7094 H 687.905 1.0478 -1.64102 0
M  V30 7095 H 686.076 3.56589 -1.53945 0
M  V30 7096 H 687.808 3.63607 -1.77685 0
M  V30 7097 H 684.563 2.97521 -3.68481 0
M  V30 7098 H 684.987 2.55039 -6.27124 0
M  V30 7099 H 689.629 2.55621 -3.36776 0
M  V30 7100 H 687.347 2.11845 -7.79838 0
M  V30 7101 H 690.933 2.11067 -5.42164 0
M  V30 7102 H 689.813 1.89643 -7.60924 0
M  V30 7103 N 687.317 1.12792 1.10072 0
M  V30 7104 C 688.563 0.89679 1.82563 0
M  V30 7105 C 688.918 -0.571152 1.83727 0
M  V30 7106 O 688.211 -1.41697 1.28967 0
M  V30 7107 C 688.405 1.4102 3.28403 0
M  V30 7108 C 688.234 2.92652 3.41445 0
M  V30 7109 C 687.004 3.60928 3.53637 0
M  V30 7110 C 689.202 3.9063 3.34534 0
M  V30 7111 N 687.184 5.00638 3.55295 0
M  V30 7112 C 688.555 5.16492 3.42981 0
M  V30 7113 C 690.61 3.82989 3.18157 0
M  V30 7114 C 689.313 6.35609 3.3674 0
M  V30 7115 C 691.339 5.01633 3.13239 0
M  V30 7116 C 690.701 6.26355 3.22272 0
M  V30 7117 H 686.8 0.381482 0.682638 0
M  V30 7118 H 689.384 1.43491 1.31599 0
M  V30 7119 H 687.555 0.899077 3.77851 0
M  V30 7120 H 689.287 1.12075 3.88872 0
M  V30 7121 H 686.042 3.11429 3.56803 0
M  V30 7122 H 686.466 5.73521 3.59725 0
M  V30 7123 H 691.108 2.87454 3.10049 0
M  V30 7124 H 688.826 7.31407 3.43613 0
M  V30 7125 H 692.412 4.97454 3.01713 0
M  V30 7126 H 691.292 7.1662 3.18473 0
M  V30 7127 N 688.795 -1.27931 0.920396 0
M  V30 7128 C 689.725 -2.29487 0.431024 0
M  V30 7129 C 690.706 -1.62435 -0.504861 0
M  V30 7130 O 691.891 -1.89797 -0.411176 0
M  V30 7131 C 689.021 -3.45788 -0.323709 0
M  V30 7132 C 687.975 -4.24784 0.523658 0
M  V30 7133 C 687.301 -5.33488 -0.359809 0
M  V30 7134 C 688.601 -4.90874 1.78437 0
M  V30 7135 H 690.295 -2.70671 1.27975 0
M  V30 7136 H 687.841 -1.30121 0.616813 0
M  V30 7137 H 689.794 -4.15927 -0.676952 0
M  V30 7138 H 688.518 -3.03502 -1.2064 0
M  V30 7139 H 687.177 -3.56382 0.85951 0
M  V30 7140 H 686.825 -4.87445 -1.24124 0
M  V30 7141 H 686.525 -5.87247 0.203605 0
M  V30 7142 H 688.049 -6.06472 -0.708787 0
M  V30 7143 H 689.463 -5.53339 1.49963 0
M  V30 7144 H 687.86 -5.54659 2.29071 0
M  V30 7145 H 688.93 -4.14988 2.50824 0
M  V30 7146 N 690.273 -0.685099 -1.4193 0
M  V30 7147 C 691.689 -0.355632 -1.55587 0
M  V30 7148 C 691.889 1.13823 -1.66273 0
M  V30 7149 O 690.945 1.92387 -1.63534 0
M  V30 7150 C 692.258 -1.09498 -2.80055 0
M  V30 7151 C 693.806 -1.07831 -2.93839 0
M  V30 7152 C 694.281 -1.79919 -4.21181 0
M  V30 7153 N 695.772 -1.76837 -4.28115 0
M  V30 7154 C 696.507 -2.29463 -5.25485 0
M  V30 7155 N 696.003 -2.90516 -6.28945 0
M  V30 7156 N 697.796 -2.19779 -5.17353 0
M  V30 7157 H 689.947 -1.65412 -1.33239 0
M  V30 7158 H 692.21 -0.697453 -0.642078 0
M  V30 7159 H 691.916 -2.14997 -2.78333 0
M  V30 7160 H 691.79 -0.666813 -3.71259 0
M  V30 7161 H 694.177 -0.0316152 -2.95083 0
M  V30 7162 H 694.258 -1.54545 -2.03837 0
M  V30 7163 H 693.902 -2.84562 -4.20698 0
M  V30 7164 H 693.832 -1.30647 -5.10136 0
M  V30 7165 H 696.323 -1.32315 -3.53979 0
M  V30 7166 H 696.636 -3.28266 -6.99615 0
M  V30 7167 H 694.981 -2.94589 -6.29478 0
M  V30 7168 H 698.172 -1.71763 -4.35448 0
M  V30 7169 H 698.345 -2.61097 -5.9307 0
M  V30 7170 N 691.751 1.51645 -0.429126 0
M  V30 7171 C 692.701 2.24388 0.404217 0
M  V30 7172 C 693.685 1.26294 0.996933 0
M  V30 7173 O 694.877 1.51428 0.916434 0
M  V30 7174 C 692.006 3.08338 1.50938 0
M  V30 7175 C 691.092 4.13857 0.926464 0
M  V30 7176 N 691.483 5.05749 0.0719732 0
M  V30 7177 C 689.781 4.29695 1.19491 0
M  V30 7178 C 690.482 5.81143 -0.254528 0
M  V30 7179 N 689.458 5.42408 0.359763 0
M  V30 7180 H 693.26 2.92794 -0.254697 0
M  V30 7181 H 690.774 1.60606 -0.240712 0
M  V30 7182 H 692.771 3.59022 2.11918 0
M  V30 7183 H 691.431 2.41475 2.17072 0
M  V30 7184 H 692.442 5.17066 -0.293854 0
M  V30 7185 H 689.119 3.74059 1.85434 0
M  V30 7186 H 690.509 6.65159 -0.949365 0
M  V30 7187 N 693.229 0.160201 1.56784 0
M  V30 7188 C 694.179 -0.786461 2.14007 0
M  V30 7189 C 695.163 -1.20046 1.07134 0
M  V30 7190 O 696.355 -1.16468 1.33283 0
M  V30 7191 C 693.484 -2.02024 2.77563 0
M  V30 7192 C 692.57 -1.62874 3.91578 0
M  V30 7193 N 692.961 -0.946176 4.96871 0
M  V30 7194 C 691.259 -1.92054 4.02531 0
M  V30 7195 C 691.96 -0.755084 5.76778 0
M  V30 7196 N 690.936 -1.29307 5.27997 0
M  V30 7197 H 694.738 -0.255879 2.92784 0
M  V30 7198 H 692.252 -0.0408778 1.62349 0
M  V30 7199 H 694.249 -2.70855 3.16928 0
M  V30 7200 H 692.909 -2.55587 2.00263 0
M  V30 7201 H 693.92 -0.605455 5.14349 0
M  V30 7202 H 690.597 -2.47374 3.36322 0
M  V30 7203 H 691.987 -0.216138 6.71552 0
M  V30 7204 N 694.707 -1.5719 -0.113559 0
M  V30 7205 C 696.118 -1.74259 -0.670116 0
M  V30 7206 C 696.469 -0.779694 -1.80042 0
M  V30 7207 O 695.594 0.0461353 -2.16351 0
M  V30 7208 C 696.189 -3.15981 -1.22236 0
M  V30 7209 C 694.748 -3.34537 -1.72516 0
M  V30 7210 C 693.895 -2.70116 -0.627098 0
M  V30 7211 H 696.846 -1.58301 0.112396 0
M  V30 7212 H 696.867 -3.17832 -2.09197 0
M  V30 7213 H 696.379 -3.86038 -0.39949 0
M  V30 7214 H 694.48 -2.6953 -2.57263 0
M  V30 7215 H 694.593 -4.42737 -1.83086 0
M  V30 7216 H 692.957 -2.31501 -1.06204 0
M  V30 7217 H 693.74 -3.42802 0.184889 0
M  V30 7218 N 696.185 0.383891 -1.52853 0
M  V30 7219 C 697.117 1.48889 -1.74255 0
M  V30 7220 C 698.13 1.50405 -0.623063 0
M  V30 7221 O 699.319 1.54215 -0.898887 0
M  V30 7222 C 696.419 2.87721 -1.79081 0
M  V30 7223 C 695.592 3.10111 -3.08464 0
M  V30 7224 C 694.651 4.28954 -3.0477 0
M  V30 7225 O 693.677 4.25012 -3.78621 0
M  V30 7226 N 694.879 5.35411 -2.24311 0
M  V30 7227 H 697.644 1.30915 -2.69595 0
M  V30 7228 H 695.205 0.573454 -1.51404 0
M  V30 7229 H 697.197 3.65333 -1.7411 0
M  V30 7230 H 695.767 2.99029 -0.911052 0
M  V30 7231 H 694.987 2.20319 -3.26884 0
M  V30 7232 H 696.275 3.21928 -3.94005 0
M  V30 7233 H 695.673 5.41471 -1.63787 0
M  V30 7234 H 694.23 6.1167 -2.25175 0
M  V30 7235 N 697.663 1.43903 0.642637 0
M  V30 7236 C 698.909 1.46296 1.40447 0
M  V30 7237 C 699.242 0.0908361 1.93987 0
M  V30 7238 O 698.517 -0.889884 1.72949 0
M  V30 7239 C 698.8 2.51399 2.57819 0
M  V30 7240 C 698.653 3.97926 2.09702 0
M  V30 7241 C 699.972 2.53125 3.60022 0
M  V30 7242 H 697.091 0.532676 0.509338 0
M  V30 7243 H 699.733 1.75515 0.727635 0
M  V30 7244 H 697.883 2.26614 3.1556 0
M  V30 7245 H 699.555 4.33804 1.5688 0
M  V30 7246 H 697.798 4.10252 1.40982 0
M  V30 7247 H 698.469 4.67096 2.94152 0
M  V30 7248 H 700.945 2.75242 3.12059 0
M  V30 7249 H 699.821 3.28589 4.39682 0
M  V30 7250 H 700.082 1.56895 4.13324 0
M  V30 7251 N 699.141 -0.881989 1.30609 0
M  V30 7252 C 700.071 -2.00413 1.1982 0
M  V30 7253 C 701.052 -1.69871 0.0881538 0
M  V30 7254 O 702.237 -1.92304 0.2707 0
M  V30 7255 C 699.367 -3.35641 0.89233 0
M  V30 7256 C 698.321 -3.80451 1.96064 0
M  V30 7257 C 697.647 -5.13003 1.5077 0
M  V30 7258 C 698.947 -3.98855 3.37213 0
M  V30 7259 H 700.641 -2.09698 2.13699 0
M  V30 7260 H 698.187 -1.00754 1.02882 0
M  V30 7261 H 700.14 -4.13669 0.803497 0
M  V30 7262 H 698.864 -3.26497 -0.0821381 0
M  V30 7263 H 697.523 -3.04654 2.03916 0
M  V30 7264 H 697.171 -5.0029 0.521417 0
M  V30 7265 H 696.871 -5.43956 2.22229 0
M  V30 7266 H 698.395 -5.93554 1.43271 0
M  V30 7267 H 699.809 -4.67312 3.32103 0
M  V30 7268 H 698.206 -4.41188 4.06784 0
M  V30 7269 H 699.276 -3.02614 3.78883 0
M  V30 7270 N 700.619 -1.13374 -1.09472 0
M  V30 7271 C 701.844 -0.918711 -1.85942 0
M  V30 7272 C 702.269 0.527225 -1.8056 0
M  V30 7273 O 701.627 1.37408 -1.18274 0
M  V30 7274 C 701.675 -1.41056 -3.31867 0
M  V30 7275 O 700.779 -0.595496 -4.08078 0
M  V30 7276 H 700.12 -0.329297 -0.576593 0
M  V30 7277 H 702.65 -1.50829 -1.38245 0
M  V30 7278 H 702.66 -1.41398 -3.82715 0
M  V30 7279 H 701.335 -2.46335 -3.35099 0
M  V30 7280 H 699.912 -0.659911 -3.67014 0
M  V30 7281 N 702.098 1.27442 -0.927168 0
M  V30 7282 C 703.031 2.25177 -0.370232 0
M  V30 7283 C 704.009 1.53612 0.533103 0
M  V30 7284 O 705.193 1.8245 0.47373 0
M  V30 7285 C 702.32 3.35431 0.469411 0
M  V30 7286 C 701.366 4.24888 -0.370419 0
M  V30 7287 S 702.199 5.04852 -1.78562 0
M  V30 7288 C 703.355 6.18592 -0.953651 0
M  V30 7289 H 703.588 2.72069 -1.19858 0
M  V30 7290 H 701.121 1.36089 -0.729316 0
M  V30 7291 H 703.079 3.99404 0.947992 0
M  V30 7292 H 701.74 2.87179 1.27228 0
M  V30 7293 H 700.933 5.03264 0.272226 0
M  V30 7294 H 700.535 3.65709 -0.783153 0
M  V30 7295 H 702.827 6.77235 -0.189408 0
M  V30 7296 H 703.77 6.87132 -1.7104 0
M  V30 7297 H 704.178 5.62318 -0.495897 0
M  V30 7298 N 703.576 0.692616 1.41565 0
M  V30 7299 C 704.523 0.0254264 2.30786 0
M  V30 7300 C 705.493 -0.774347 1.46946 0
M  V30 7301 O 706.678 -0.742981 1.7574 0
M  V30 7302 C 703.818 -0.907123 3.32964 0
M  V30 7303 C 702.931 -0.0992784 4.31886 0
M  V30 7304 C 702.066 -1.0292 5.21134 0
M  V30 7305 C 701.105 -0.214088 6.11725 0
M  V30 7306 N 700.242 -1.09766 6.93467 0
M  V30 7307 H 705.082 0.792036 2.87282 0
M  V30 7308 H 702.619 0.4023 1.41492 0
M  V30 7309 H 704.577 -1.46181 3.90752 0
M  V30 7310 H 703.207 -1.64016 2.78026 0
M  V30 7311 H 702.259 0.572287 3.76071 0
M  V30 7312 H 703.571 0.532782 4.95946 0
M  V30 7313 H 702.725 -1.65321 5.83741 0
M  V30 7314 H 701.464 -1.69512 4.57293 0
M  V30 7315 H 700.469 0.42302 5.4817 0
M  V30 7316 H 701.694 0.447995 6.77621 0
M  V30 7317 H 699.64 -1.74965 6.32237 0
M  V30 7318 H 699.557 -0.521099 7.54202 0
M  V30 7319 H 700.825 -1.70858 7.60544 0
M  V30 7320 N 705.054 -1.51416 0.437162 0
M  V30 7321 C 706.301 -2.02086 -0.129364 0
M  V30 7322 C 706.629 -1.32133 -1.42728 0
M  V30 7323 O 705.884 -0.424916 -1.91031 0
M  V30 7324 C 706.183 -3.55203 -0.39564 0
M  V30 7325 C 705.849 -4.43447 0.81644 0
M  V30 7326 C 704.511 -4.67285 1.14884 0
M  V30 7327 C 706.863 -4.95219 1.62503 0
M  V30 7328 C 704.191 -5.40141 2.29052 0
M  V30 7329 C 706.543 -5.69327 2.7577 0
M  V30 7330 C 705.207 -5.91429 3.09464 0
M  V30 7331 H 704.477 -0.739486 -0.0473375 0
M  V30 7332 H 707.124 -1.82368 0.584321 0
M  V30 7333 H 705.429 -3.73252 -1.19121 0
M  V30 7334 H 707.126 -3.91944 -0.847399 0
M  V30 7335 H 703.716 -4.2509 0.547422 0
M  V30 7336 H 707.9 -4.76686 1.38144 0
M  V30 7337 H 703.156 -5.55468 2.55471 0
M  V30 7338 H 707.33 -6.08433 3.38795 0
M  V30 7339 H 704.957 -6.47662 3.98042 0
M  V30 7340 N 706.532 -0.168513 -1.56696 0
M  V30 7341 C 707.479 0.762875 -2.17828 0
M  V30 7342 C 708.449 1.22892 -1.11745 0
M  V30 7343 O 709.634 1.29759 -1.39883 0
M  V30 7344 C 706.774 1.9879 -2.82093 0
M  V30 7345 C 705.887 1.56568 -4.02629 0
M  V30 7346 C 705.022 2.74416 -4.54829 0
M  V30 7347 C 704.061 2.28671 -5.67782 0
M  V30 7348 N 703.198 3.39602 -6.14504 0
M  V30 7349 H 708.038 0.23479 -2.97074 0
M  V30 7350 H 705.575 0.104163 -1.46731 0
M  V30 7351 H 707.533 2.70636 -3.17509 0
M  V30 7352 H 706.163 2.48973 -2.05456 0
M  V30 7353 H 705.215 0.744067 -3.73052 0
M  V30 7354 H 706.527 1.18988 -4.844 0
M  V30 7355 H 705.681 3.54423 -4.92412 0
M  V30 7356 H 704.42 3.15254 -3.7211 0
M  V30 7357 H 703.425 1.4711 -5.29753 0
M  V30 7358 H 704.65 1.88894 -6.52301 0
M  V30 7359 H 702.596 3.80021 -5.34715 0
M  V30 7360 H 702.513 3.06105 -6.91257 0
M  V30 7361 H 703.781 4.19902 -6.56737 0
M  V30 7362 N 708.01 1.57248 0.105221 0
M  V30 7363 C 709.238 1.89768 0.82437 0
M  V30 7364 C 709.653 0.761192 1.72775 0
M  V30 7365 O 709.01 -0.267342 1.80531 0
M  V30 7366 C 709.061 3.2184 1.64625 0
M  V30 7367 O 708.782 4.31115 0.779217 0
M  V30 7368 C 710.283 3.68155 2.46935 0
M  V30 7369 H 707.503 0.628031 0.236259 0
M  V30 7370 H 710.047 2.04321 0.085485 0
M  V30 7371 H 708.202 3.08915 2.33775 0
M  V30 7372 H 708.616 5.06897 1.34745 0
M  V30 7373 H 710.09 4.6329 3.00111 0
M  V30 7374 H 710.567 2.95492 3.24932 0
M  V30 7375 H 711.173 3.83914 1.83002 0
M  V30 7376 N 709.488 -0.375779 1.53054 0
M  V30 7377 C 710.736 -1.11727 1.68409 0
M  V30 7378 C 711.057 -1.90127 0.43323 0
M  V30 7379 O 710.327 -1.87945 -0.552595 0
M  V30 7380 H 708.907 -0.415451 0.620813 0
M  V30 7381 H 711.569 -0.424869 1.90213 0
M  V30 7382 H 710.665 -1.8128 2.54055 0
M  V30 7383 N 710.966 -1.44241 -0.634997 0
M  V30 7384 C 712.212 -1.47038 -1.39669 0
M  V30 7385 C 712.545 -0.101122 -1.93937 0
M  V30 7386 O 711.82 0.880699 -1.73418 0
M  V30 7387 C 712.103 -2.52763 -2.56482 0
M  V30 7388 C 711.956 -3.99032 -2.07589 0
M  V30 7389 C 713.275 -2.55031 -3.58674 0
M  V30 7390 H 710.394 -0.53537 -0.506506 0
M  V30 7391 H 713.036 -1.75898 -0.718317 0
M  V30 7392 H 711.186 -2.28284 -3.14354 0
M  V30 7393 H 712.858 -4.3463 -1.54577 0
M  V30 7394 H 711.101 -4.10994 -1.38804 0
M  V30 7395 H 711.772 -4.68649 -2.91671 0
M  V30 7396 H 714.248 -2.76893 -3.10595 0
M  V30 7397 H 713.124 -3.30916 -4.37934 0
M  V30 7398 H 713.385 -1.59085 -4.12486 0
M  V30 7399 N 712.444 0.87505 -1.31075 0
M  V30 7400 C 713.391 1.98178 -1.18296 0
M  V30 7401 C 714.361 1.65952 -0.0699923 0
M  V30 7402 O 715.546 1.8926 -0.241951 0
M  V30 7403 C 712.686 3.33399 -0.891024 0
M  V30 7404 C 711.799 3.78253 -2.08684 0
M  V30 7405 C 710.934 5.02166 -1.73212 0
M  V30 7406 C 709.973 5.39455 -2.89231 0
M  V30 7407 N 709.11 6.54549 -2.53989 0
M  V30 7408 H 713.95 2.0844 -2.12971 0
M  V30 7409 H 711.487 1.02047 -1.05948 0
M  V30 7410 H 713.445 4.11246 -0.702338 0
M  V30 7411 H 712.075 3.22794 0.0188799 0
M  V30 7412 H 711.127 2.9623 -2.38646 0
M  V30 7413 H 712.439 4.01821 -2.95536 0
M  V30 7414 H 711.593 5.87666 -1.50777 0
M  V30 7415 H 710.332 4.80491 -0.83544 0
M  V30 7416 H 709.337 4.52477 -3.12321 0
M  V30 7417 H 710.562 5.63098 -3.79601 0
M  V30 7418 H 708.508 6.3443 -1.66838 0
M  V30 7419 H 708.425 6.78035 -3.34372 0
M  V30 7420 H 709.693 7.43254 -2.34934 0
M  V30 7421 N 713.922 1.13953 1.08869 0
M  V30 7422 C 715.338 0.878924 1.33218 0
M  V30 7423 C 715.538 -0.482478 1.95638 0
M  V30 7424 O 714.594 -1.22778 2.2064 0
M  V30 7425 C 715.907 2.00798 2.23832 0
M  V30 7426 C 717.455 2.04073 2.37325 0
M  V30 7427 C 717.93 3.16258 3.31278 0
M  V30 7428 N 719.421 3.15805 3.38853 0
M  V30 7429 C 720.156 3.99249 4.11567 0
M  V30 7430 N 719.652 4.92721 4.87029 0
M  V30 7431 N 721.445 3.87327 4.0735 0
M  V30 7432 H 713.596 2.01645 0.66731 0
M  V30 7433 H 715.859 0.878395 0.356547 0
M  V30 7434 H 715.565 2.98986 1.85203 0
M  V30 7435 H 715.439 1.92704 3.24261 0
M  V30 7436 H 717.826 1.06495 2.75214 0
M  V30 7437 H 717.907 2.16239 1.36654 0
M  V30 7438 H 717.551 4.14079 2.9411 0
M  V30 7439 H 717.481 3.0133 4.31866 0
M  V30 7440 H 719.972 2.48102 2.8505 0
M  V30 7441 H 720.285 5.52867 5.39961 0
M  V30 7442 H 718.63 4.96723 4.86098 0
M  V30 7443 H 721.821 3.13627 3.475 0
M  V30 7444 H 721.994 4.52585 4.63757 0
M  V30 7445 N 715.4 -1.26948 0.933913 0
M  V30 7446 C 716.363 -2.24889 0.442457 0
M  V30 7447 C 717.363 -1.54594 -0.442426 0
M  V30 7448 O 718.553 -1.72502 -0.242629 0
M  V30 7449 C 715.685 -3.3896 -0.363173 0
M  V30 7450 H 716.878 -2.69879 1.30787 0
M  V30 7451 H 714.431 -1.38978 0.715187 0
M  V30 7452 H 715.166 -2.99361 -1.24714 0
M  V30 7453 H 714.951 -3.9116 0.271366 0
M  V30 7454 H 716.441 -4.11739 -0.697186 0
M  V30 7455 N 716.879 -0.700114 -1.41195 0
M  V30 7456 C 717.789 -0.0382854 -2.34569 0
M  V30 7457 C 718.805 0.761036 -1.56474 0
M  V30 7458 O 719.981 0.697553 -1.88934 0
M  V30 7459 C 717.046 0.883522 -3.35253 0
M  V30 7460 C 716.107 0.0758957 -4.29233 0
M  V30 7461 C 715.34 0.9538 -5.25108 0
M  V30 7462 O 715.563 2.19326 -5.26547 0
M  V30 7463 O 714.497 0.401049 -6.00562 0
M  V30 7464 H 718.323 -0.808073 -2.92752 0
M  V30 7465 H 715.908 -0.460479 -1.42127 0
M  V30 7466 H 717.79 1.41199 -3.9704 0
M  V30 7467 H 716.465 1.63272 -2.79506 0
M  V30 7468 H 715.372 -0.497274 -3.7078 0
M  V30 7469 H 716.705 -0.634741 -4.8809 0
M  V30 7470 N 718.357 1.51182 -0.445186 0
M  V30 7471 C 719.606 2.01342 0.120189 0
M  V30 7472 C 719.919 1.33353 1.43095 0
M  V30 7473 O 721.125 1.74525 2.07974 0
M  V30 7474 C 719.581 3.58925 0.264732 0
M  V30 7475 C 719.189 4.35855 -1.03606 0
M  V30 7476 C 720.933 4.17208 0.783455 0
M  V30 7477 C 718.84 5.85162 -0.856731 0
M  V30 7478 H 717.77 0.752426 0.0486922 0
M  V30 7479 H 720.421 1.74221 -0.576143 0
M  V30 7480 H 718.803 3.82525 1.02425 0
M  V30 7481 H 719.977 4.23997 -1.80452 0
M  V30 7482 H 718.292 3.89062 -1.48391 0
M  V30 7483 H 720.889 5.26475 0.934239 0
M  V30 7484 H 721.232 3.76892 1.768 0
M  V30 7485 H 721.765 3.97715 0.0820346 0
M  V30 7486 H 718.504 6.29904 -1.81388 0
M  V30 7487 H 718.024 5.99663 -0.128206 0
M  V30 7488 H 719.703 6.44963 -0.513027 0
M  V30 7489 N 719.835 0.176821 1.56605 0
M  V30 7490 C 721.06 -0.47599 2.01864 0
M  V30 7491 C 721.485 -1.55645 1.05623 0
M  V30 7492 O 720.843 -1.81263 0.0366729 0
M  V30 7493 C 720.891 -1.02619 3.4569 0
M  V30 7494 O 719.995 -2.13996 3.52533 0
M  V30 7495 H 719.336 -0.113363 0.654251 0
M  V30 7496 H 721.866 0.28233 2.02643 0
M  V30 7497 H 721.876 -1.34742 3.85109 0
M  V30 7498 H 720.551 -0.235138 4.15235 0
M  V30 7499 H 719.128 -1.82876 3.24978 0
M  V30 7500 N 721.313 -1.57302 -0.09688 0
M  V30 7501 C 722.261 -2.02942 -1.13654 0
M  V30 7502 C 723.255 -0.930173 -1.41577 0
M  V30 7503 O 724.461 -1.11535 -1.41279 0
M  V30 7504 H 720.836 -0.646726 -0.383731 0
M  V30 7505 H 722.807 -2.89452 -0.725267 0
M  V30 7506 C 721.556 -2.46815 -2.44903 0
M  V30 7507 H 720.879 -3.30979 -2.24261 0
M  V30 7508 H 722.319 -2.82527 -3.16156 0
M  V30 7509 C 720.778 -1.34071 -3.09074 0
M  V30 7510 O 721.308 -0.668856 -3.96092 0
M  V30 7511 N 719.514 -1.09214 -2.69296 0
M  V30 7512 H 719.061 -1.64029 -1.98626 0
M  V30 7513 H 719.019 -0.339785 -3.12559 0
M  V30 7514 N 722.791 0.367657 -1.53252 0
M  V30 7515 C 723.754 1.43308 -1.78873 0
M  V30 7516 C 724.754 1.46671 -0.659115 0
M  V30 7517 O 725.944 1.47468 -0.927306 0
M  V30 7518 C 723.076 2.82442 -1.90892 0
M  V30 7519 H 724.269 1.21864 -2.74024 0
M  V30 7520 H 721.822 0.600668 -1.44297 0
M  V30 7521 H 722.557 3.09202 -0.978 0
M  V30 7522 H 722.342 2.81399 -2.73051 0
M  V30 7523 H 723.832 3.59601 -2.12314 0
M  V30 7524 N 724.269 1.44576 0.627338 0
M  V30 7525 C 725.518 1.46837 1.38281 0
M  V30 7526 C 725.831 0.10635 1.95311 0
M  V30 7527 O 727.037 0.00651084 2.71499 0
M  V30 7528 C 725.493 2.58527 2.50384 0
M  V30 7529 C 725.101 4.00953 1.99851 0
M  V30 7530 C 726.845 2.70013 3.27557 0
M  V30 7531 C 724.752 5.0406 3.09318 0
M  V30 7532 H 723.682 0.546319 0.519664 0
M  V30 7533 H 726.333 1.70654 0.674497 0
M  V30 7534 H 724.715 2.27957 3.23808 0
M  V30 7535 H 725.889 4.41108 1.33267 0
M  V30 7536 H 724.204 3.93743 1.35482 0
M  V30 7537 H 726.801 3.44217 4.09168 0
M  V30 7538 H 727.144 1.75961 3.77284 0
M  V30 7539 H 727.677 3.00011 2.61224 0
M  V30 7540 H 724.416 5.99753 2.6453 0
M  V30 7541 H 723.936 4.68493 3.74532 0
M  V30 7542 H 725.615 5.2793 3.74031 0
M  V30 7543 N 725.747 -0.868086 1.31537 0
M  V30 7544 C 727.024 -1.60384 1.11965 0
M  V30 7545 C 727.404 -2.08584 -0.324949 0
M  V30 7546 O 726.752 -1.86561 -1.31937 0
M  V30 7547 C 726.962 -2.76038 2.13551 0
M  V30 7548 C 728.31 -3.45954 2.46173 0
M  V30 7549 O 729.334 -2.86247 2.11993 0
M  V30 7550 O 728.193 -4.53666 3.04711 0
M  V30 7551 H 725.287 -0.705705 0.431172 0
M  V30 7552 H 727.833 -0.913385 1.43022 0
M  V30 7553 H 726.605 -2.37849 3.10714 0
M  V30 7554 H 726.228 -3.52769 1.83411 0
M  V30 7555 N 727.225 -1.14528 -1.08264 0
M  V30 7556 C 728.157 -0.791325 -2.15106 0
M  V30 7557 C 729.17 0.192449 -1.61659 0
M  V30 7558 O 730.359 -0.0294704 -1.78476 0
M  V30 7559 C 727.459 -0.154183 -3.38549 0
M  V30 7560 C 726.632 -1.17305 -4.21377 0
M  V30 7561 C 725.691 -0.559401 -5.23218 0
M  V30 7562 O 724.717 -1.22277 -5.55911 0
M  V30 7563 N 725.919 0.663159 -5.767 0
M  V30 7564 H 728.684 -1.71076 -2.46075 0
M  V30 7565 H 726.245 -1.0399 -1.24087 0
M  V30 7566 H 728.237 0.268884 -4.03806 0
M  V30 7567 H 726.807 0.668418 -3.0537 0
M  V30 7568 H 726.027 -1.773 -3.52077 0
M  V30 7569 H 727.315 -1.86128 -4.73533 0
M  V30 7570 H 726.713 1.22066 -5.52373 0
M  V30 7571 H 725.27 1.02871 -6.43631 0
M  V30 7572 N 728.703 1.26451 -0.940633 0
M  V30 7573 C 729.933 1.97581 -0.603766 0
M  V30 7574 C 730.341 1.70246 0.825395 0
M  V30 7575 O 729.684 0.967001 1.56188 0
M  V30 7576 C 729.746 3.51256 -0.765463 0
M  V30 7577 C 729.41 4.0224 -2.16915 0
M  V30 7578 C 730.407 4.1402 -3.14457 0
M  V30 7579 C 728.092 4.36263 -2.48958 0
M  V30 7580 C 730.086 4.59117 -4.42143 0
M  V30 7581 C 727.773 4.81048 -3.76877 0
M  V30 7582 C 728.771 4.92436 -4.73282 0
M  V30 7583 O 728.459 5.36234 -5.98923 0
M  V30 7584 H 728.191 0.636948 -0.226436 0
M  V30 7585 H 730.745 1.61941 -1.2635 0
M  V30 7586 H 728.975 3.86669 -0.0485956 0
M  V30 7587 H 730.664 4.03597 -0.431738 0
M  V30 7588 H 731.43 3.87981 -2.91026 0
M  V30 7589 H 727.309 4.26634 -1.74656 0
M  V30 7590 H 730.853 4.6792 -5.17394 0
M  V30 7591 H 726.75 5.06531 -4.00121 0
M  V30 7592 H 727.518 5.54456 -6.02097 0
M  V30 7593 N 730.181 0.707592 1.40822 0
M  V30 7594 C 731.427 0.244031 2.01326 0
M  V30 7595 C 731.76 -1.15722 1.55955 0
M  V30 7596 O 731.035 -1.78347 0.776044 0
M  V30 7597 C 731.318 0.315128 3.58718 0
M  V30 7598 C 731.171 1.75419 4.14184 0
M  V30 7599 C 732.49 -0.318251 4.38948 0
M  V30 7600 H 729.609 0.0901471 0.731466 0
M  V30 7601 H 732.251 0.898584 1.67408 0
M  V30 7602 H 730.401 -0.242176 3.87744 0
M  V30 7603 H 732.073 2.36626 3.95987 0
M  V30 7604 H 730.316 2.28449 3.68773 0
M  V30 7605 H 730.987 1.75538 5.23345 0
M  V30 7606 H 733.463 0.156514 4.15806 0
M  V30 7607 H 732.339 -0.238019 5.48384 0
M  V30 7608 H 732.6 -1.40067 4.19325 0
M  V30 7609 N 731.66 -1.50943 0.453197 0
M  V30 7610 C 732.888 -2.06628 -0.106135 0
M  V30 7611 C 733.303 -1.31901 -1.35084 0
M  V30 7612 O 732.66 -0.383074 -1.78434 0
M  V30 7613 C 732.711 -3.5914 -0.412368 0
M  V30 7614 O 732.432 -4.31047 0.782948 0
M  V30 7615 C 733.933 -4.31391 -1.02064 0
M  V30 7616 H 731.153 -0.670999 -0.000885896 0
M  V30 7617 H 733.697 -1.94331 0.63684 0
M  V30 7618 H 731.852 -3.71299 -1.10526 0
M  V30 7619 H 732.266 -5.21948 0.516736 0
M  V30 7620 H 733.74 -5.39135 -1.1848 0
M  V30 7621 H 734.217 -3.90714 -2.00598 0
M  V30 7622 H 734.823 -4.23716 -0.366664 0
M  V30 7623 N 733.138 -0.185124 -1.56509 0
M  V30 7624 C 734.386 0.455357 -1.96903 0
M  V30 7625 C 734.707 1.62839 -1.07277 0
M  V30 7626 O 733.977 1.95385 -0.141966 0
M  V30 7627 H 732.557 0.171218 -0.727113 0
M  V30 7628 H 735.219 -0.26953 -1.93027 0
M  V30 7629 H 734.315 0.80616 -3.01509 0
M  V30 7630 N 734.616 1.57351 0.0885366 0
M  V30 7631 C 735.844 1.90631 0.804196 0
M  V30 7632 C 736.259 0.779474 1.71958 0
M  V30 7633 O 735.616 -0.248179 1.80805 0
M  V30 7634 C 735.667 3.23568 1.61202 0
M  V30 7635 O 735.388 4.31917 0.733447 0
M  V30 7636 C 736.889 3.70753 2.43016 0
M  V30 7637 H 734.109 0.630501 0.229585 0
M  V30 7638 H 736.653 2.044 0.0638092 0
M  V30 7639 H 734.808 3.11377 2.30485 0
M  V30 7640 H 735.222 5.08297 1.29361 0
M  V30 7641 H 736.696 4.66447 2.9518 0
M  V30 7642 H 737.173 2.98922 3.2178 0
M  V30 7643 H 737.779 3.85834 1.7892 0
M  V30 7644 N 736.094 -0.359525 1.53444 0
M  V30 7645 C 737.343 -1.09886 1.69139 0
M  V30 7646 C 737.656 -1.90285 0.452863 0
M  V30 7647 O 738.862 -2.67033 0.490459 0
M  V30 7648 C 737.318 -2.0028 2.99025 0
M  V30 7649 C 736.926 -1.25164 4.30161 0
M  V30 7650 C 738.67 -2.74168 3.24086 0
M  V30 7651 C 736.577 -2.14494 5.51132 0
M  V30 7652 H 735.507 -0.413936 0.630217 0
M  V30 7653 H 738.158 -0.359434 1.79945 0
M  V30 7654 H 736.54 -2.77978 2.82036 0
M  V30 7655 H 737.714 -0.524867 4.57801 0
M  V30 7656 H 736.029 -0.631116 4.11589 0
M  V30 7657 H 738.626 -3.41243 4.11652 0
M  V30 7658 H 738.969 -3.39868 2.40407 0
M  V30 7659 H 739.502 -2.0355 3.41778 0
M  V30 7660 H 736.241 -1.53362 6.37307 0
M  V30 7661 H 735.761 -2.85004 5.27762 0
M  V30 7662 H 737.44 -2.73914 5.86157 0
M  V30 7663 N 737.572 -1.44907 -0.619662 0
M  V30 7664 C 738.82 -1.47999 -1.37625 0
M  V30 7665 C 739.141 -0.118295 -1.94641 0
M  V30 7666 O 738.411 0.85086 -1.76457 0
M  V30 7667 H 736.991 -0.544993 -0.510873 0
M  V30 7668 H 739.653 -1.80772 -0.728522 0
M  V30 7669 H 738.749 -2.21196 -2.20179 0
M  V30 7670 N 739.05 0.861098 -1.31996 0
M  V30 7671 C 739.96 2.00154 -1.22374 0
M  V30 7672 C 740.976 1.73447 -0.138631 0
M  V30 7673 O 742.152 1.98191 -0.358104 0
M  V30 7674 C 739.217 3.33696 -0.940645 0
M  V30 7675 C 738.278 3.73668 -2.11355 0
M  V30 7676 C 737.511 5.00837 -1.84386 0
M  V30 7677 O 737.734 5.64996 -0.783287 0
M  V30 7678 O 736.668 5.37787 -2.70313 0
M  V30 7679 H 740.494 2.11207 -2.18233 0
M  V30 7680 H 738.079 0.990768 -1.11822 0
M  V30 7681 H 739.961 4.13756 -0.798987 0
M  V30 7682 H 738.636 3.23698 -0.0121636 0
M  V30 7683 H 737.543 2.94211 -2.31065 0
M  V30 7684 H 738.876 3.88303 -3.02459 0
M  V30 7685 N 740.528 1.15101 1.07655 0
M  V30 7686 C 741.805 0.834578 1.76902 0
M  V30 7687 C 742.185 -0.670431 2.00171 0
M  V30 7688 O 741.533 -1.61378 1.6177 0
M  V30 7689 C 741.743 1.64191 3.07965 0
M  V30 7690 C 743.091 1.84615 3.82364 0
M  V30 7691 O 744.115 1.60941 3.17768 0
M  V30 7692 O 742.974 2.24244 4.98374 0
M  V30 7693 H 740.068 0.306608 0.768063 0
M  V30 7694 H 742.614 1.25663 1.14048 0
M  V30 7695 H 741.386 2.66386 2.86626 0
M  V30 7696 H 741.009 1.216 3.78549 0
M  V30 7697 N 742.006 -1.2595 0.947325 0
M  V30 7698 C 742.916 -2.29883 0.468079 0
M  V30 7699 C 743.932 -1.67783 -0.460975 0
M  V30 7700 O 745.108 -1.98526 -0.339006 0
M  V30 7701 C 742.173 -3.45773 -0.253315 0
M  V30 7702 C 741.234 -4.23337 0.713054 0
M  V30 7703 C 740.467 -5.33694 0.025993 0
M  V30 7704 O 740.69 -5.57853 -1.18978 0
M  V30 7705 O 739.624 -5.97724 0.70782 0
M  V30 7706 H 743.45 -2.72952 1.33156 0
M  V30 7707 H 741.035 -1.31263 0.713468 0
M  V30 7708 H 742.917 -4.16209 -0.659423 0
M  V30 7709 H 741.592 -3.04721 -1.09209 0
M  V30 7710 H 740.499 -3.55359 1.16923 0
M  V30 7711 H 741.832 -4.68154 1.51963 0
M  V30 7712 N 743.484 -0.715051 -1.40445 0
M  V30 7713 C 744.761 -0.181503 -1.94756 0
M  V30 7714 C 745.141 1.31268 -1.65324 0
M  V30 7715 O 744.489 2.0686 -0.970631 0
M  V30 7716 C 744.699 -0.493663 -3.45491 0
M  V30 7717 C 746.047 -0.432032 -4.22396 0
M  V30 7718 O 747.071 -0.429692 -3.53599 0
M  V30 7719 O 745.93 -0.409091 -5.44967 0
M  V30 7720 H 743.024 -0.0263989 -0.826579 0
M  V30 7721 H 745.57 -0.792546 -1.50056 0
M  V30 7722 H 744.342 -1.52713 -3.6027 0
M  V30 7723 H 743.965 0.14737 -3.97327 0
M  V30 7724 N 744.962 1.50701 -0.461195 0
M  V30 7725 C 745.892 2.31182 0.328184 0
M  V30 7726 C 746.873 1.37644 0.999408 0
M  V30 7727 O 748.058 1.66565 0.99848 0
M  V30 7728 C 745.188 3.17113 1.41621 0
M  V30 7729 C 744.142 4.19124 0.867148 0
M  V30 7730 C 743.468 4.93728 2.05272 0
M  V30 7731 C 744.768 5.22174 -0.114808 0
M  V30 7732 H 746.462 2.97423 -0.343501 0
M  V30 7733 H 744.008 1.43033 -0.166641 0
M  V30 7734 H 745.961 3.72208 1.97584 0
M  V30 7735 H 744.685 2.48739 2.11652 0
M  V30 7736 H 743.344 3.65116 0.329557 0
M  V30 7737 H 742.992 4.21835 2.73978 0
M  V30 7738 H 742.692 5.62724 1.69161 0
M  V30 7739 H 744.216 5.51654 2.61744 0
M  V30 7740 H 745.63 5.72198 0.355316 0
M  V30 7741 H 744.027 5.98833 -0.389689 0
M  V30 7742 H 745.097 4.7353 -1.04391 0
M  V30 7743 N 746.441 0.193421 1.56409 0
M  V30 7744 C 747.69 -0.445995 1.96707 0
M  V30 7745 C 748.003 -1.62876 1.08309 0
M  V30 7746 O 749.209 -2.33586 1.38383 0
M  V30 7747 C 747.665 -0.844863 3.49843 0
M  V30 7748 C 747.273 0.31352 4.46902 0
M  V30 7749 C 749.017 -1.45146 3.98915 0
M  V30 7750 C 746.924 -0.106214 5.91305 0
M  V30 7751 H 745.854 -0.170398 0.734493 0
M  V30 7752 H 748.505 0.285172 1.81271 0
M  V30 7753 H 746.887 -1.63265 3.60778 0
M  V30 7754 H 748.061 1.09103 4.47698 0
M  V30 7755 H 746.376 0.8315 4.08014 0
M  V30 7756 H 748.973 -1.77792 5.04276 0
M  V30 7757 H 749.316 -2.35734 3.43126 0
M  V30 7758 H 749.849 -0.727675 3.91088 0
M  V30 7759 H 746.588 0.765442 6.51016 0
M  V30 7760 H 746.108 -0.848623 5.93766 0
M  V30 7761 H 747.787 -0.542588 6.44721 0
M  V30 7762 N 747.919 -1.57396 -0.0801906 0
M  V30 7763 C 748.866 -2.03107 -1.09618 0
M  V30 7764 C 749.836 -0.910118 -1.38946 0
M  V30 7765 O 751.021 -1.17719 -1.50156 0
M  V30 7766 C 748.161 -2.47293 -2.40708 0
M  V30 7767 C 747.274 -3.72972 -2.17982 0
M  V30 7768 C 746.409 -4.05975 -3.42576 0
M  V30 7769 C 745.448 -5.24719 -3.15177 0
M  V30 7770 N 744.585 -5.53401 -4.32078 0
M  V30 7771 H 749.425 -2.89677 -0.69939 0
M  V30 7772 H 746.962 -1.43263 -0.333785 0
M  V30 7773 H 748.92 -2.7096 -3.17232 0
M  V30 7774 H 747.55 -1.63713 -2.78205 0
M  V30 7775 H 746.602 -3.56693 -1.32189 0
M  V30 7776 H 747.914 -4.59638 -1.93738 0
M  V30 7777 H 747.068 -4.30498 -4.275 0
M  V30 7778 H 745.807 -3.17859 -3.69887 0
M  V30 7779 H 744.812 -5 -2.28648 0
M  V30 7780 H 746.037 -6.14445 -2.89197 0
M  V30 7781 H 743.983 -4.68245 -4.59437 0
M  V30 7782 H 743.9 -6.34469 -4.11078 0
M  V30 7783 H 745.168 -5.8247 -5.18024 0
M  V30 7784 N 749.397 0.351382 -1.53633 0
M  V30 7785 C 750.643 1.09049 -1.71697 0
M  V30 7786 C 750.998 1.86563 -0.470314 0
M  V30 7787 O 750.291 1.83922 0.536954 0
M  V30 7788 C 750.485 2.06744 -2.91533 0
M  V30 7789 C 750.314 1.38832 -4.27733 0
M  V30 7790 C 749.084 1.13646 -4.92354 0
M  V30 7791 C 751.282 0.818602 -5.07743 0
M  V30 7792 N 749.264 0.422324 -6.12446 0
M  V30 7793 C 750.635 0.234602 -6.19556 0
M  V30 7794 C 752.69 0.718679 -4.92686 0
M  V30 7795 C 751.393 -0.439592 -7.17955 0
M  V30 7796 C 753.419 0.0582402 -5.91371 0
M  V30 7797 C 752.781 -0.514823 -7.02516 0
M  V30 7798 H 748.88 0.383697 -0.681396 0
M  V30 7799 H 751.464 0.375063 -1.91053 0
M  V30 7800 H 749.635 2.75586 -2.73691 0
M  V30 7801 H 751.367 2.73436 -2.98353 0
M  V30 7802 H 748.122 1.4215 -4.51764 0
M  V30 7803 H 748.546 0.0802092 -6.76952 0
M  V30 7804 H 753.188 1.14748 -4.06931 0
M  V30 7805 H 750.906 -0.880307 -8.03291 0
M  V30 7806 H 754.492 -0.0183382 -5.81797 0
M  V30 7807 H 753.372 -1.01777 -7.77567 0
M  V30 7808 N 750.875 1.45233 0.611969 0
M  V30 7809 C 751.822 1.5357 1.72293 0
M  V30 7810 C 752.792 0.381912 1.6165 0
M  V30 7811 O 753.977 0.594765 1.81293 0
M  V30 7812 C 751.117 1.50419 3.10593 0
M  V30 7813 C 750.23 2.76316 3.32074 0
M  V30 7814 C 749.365 2.64866 4.60456 0
M  V30 7815 C 748.404 3.85838 4.7518 0
M  V30 7816 N 747.541 3.72949 5.94856 0
M  V30 7817 H 752.381 2.4848 1.64504 0
M  V30 7818 H 749.918 1.23302 0.802191 0
M  V30 7819 H 751.876 1.4658 3.90602 0
M  V30 7820 H 750.506 0.590621 3.17351 0
M  V30 7821 H 749.558 2.90261 2.45872 0
M  V30 7822 H 750.87 3.66055 3.38829 0
M  V30 7823 H 750.024 2.58969 5.48653 0
M  V30 7824 H 748.763 1.72719 4.56092 0
M  V30 7825 H 747.768 3.92099 3.85407 0
M  V30 7826 H 748.993 4.79045 4.81344 0
M  V30 7827 H 746.939 2.83567 5.91545 0
M  V30 7828 H 746.856 4.56319 6.02751 0
M  V30 7829 H 748.124 3.70976 6.85563 0
M  V30 7830 N 752.353 -0.854086 1.3245 0
M  V30 7831 C 753.316 -1.94427 1.21371 0
M  V30 7832 C 754.316 -1.60219 0.136613 0
M  V30 7833 O 755.506 -1.69846 0.387057 0
M  V30 7834 C 752.638 -3.29698 0.866701 0
M  V30 7835 H 753.831 -2.05679 2.18257 0
M  V30 7836 H 751.384 -1.04434 1.1629 0
M  V30 7837 H 752.119 -3.24145 -0.100319 0
M  V30 7838 H 751.904 -3.55903 1.64545 0
M  V30 7839 H 753.394 -4.09599 0.813515 0
M  V30 7840 N 753.831 -1.1567 -1.07043 0
M  V30 7841 C 754.761 -0.879348 -2.16309 0
M  V30 7842 C 755.742 0.171311 -1.69235 0
M  V30 7843 O 756.927 0.0250175 -1.94184 0
M  V30 7844 C 754.057 -0.371307 -3.45309 0
M  V30 7845 C 753.011 -1.359 -4.05851 0
M  V30 7846 C 752.337 -0.709678 -5.29969 0
M  V30 7847 C 753.637 -2.72606 -4.45514 0
M  V30 7848 H 755.331 -1.79308 -2.39768 0
M  V30 7849 H 752.877 -0.863558 -1.15233 0
M  V30 7850 H 754.83 -0.164798 -4.21078 0
M  V30 7851 H 753.554 0.577906 -3.21446 0
M  V30 7852 H 752.213 -1.55193 -3.32131 0
M  V30 7853 H 751.861 0.245782 -5.02399 0
M  V30 7854 H 751.561 -1.36886 -5.71433 0
M  V30 7855 H 753.085 -0.513015 -6.08441 0
M  V30 7856 H 754.499 -2.57141 -5.12398 0
M  V30 7857 H 752.896 -3.34927 -4.97939 0
M  V30 7858 H 753.966 -3.28434 -3.56734 0
M  V30 7859 N 755.309 1.25446 -0.953992 0
M  V30 7860 C 756.556 1.93143 -0.608429 0
M  V30 7861 C 756.884 1.74727 0.854451 0
M  V30 7862 O 756.139 1.0855 1.62836 0
M  V30 7863 C 756.438 3.45555 -0.912496 0
M  V30 7864 C 756.104 3.84126 -2.36131 0
M  V30 7865 C 754.766 3.94367 -2.75732 0
M  V30 7866 C 757.118 4.0324 -3.30223 0
M  V30 7867 C 754.446 4.21127 -4.08496 0
M  V30 7868 C 756.798 4.31493 -4.62598 0
M  V30 7869 C 755.462 4.3995 -5.01996 0
M  V30 7870 H 754.732 0.706762 -0.22264 0
M  V30 7871 H 757.379 1.49005 -1.20291 0
M  V30 7872 H 755.684 3.91091 -0.235618 0
M  V30 7873 H 757.381 3.9612 -0.623714 0
M  V30 7874 H 753.971 3.76711 -2.04418 0
M  V30 7875 H 758.155 3.94744 -3.00817 0
M  V30 7876 H 753.411 4.2589 -4.38665 0
M  V30 7877 H 757.585 4.45227 -5.35486 0
M  V30 7878 H 755.212 4.60439 -6.04896 0
M  V30 7879 N 756.787 0.722489 1.40064 0
M  V30 7880 C 757.697 0.0755984 2.34478 0
M  V30 7881 C 758.713 -0.736046 1.57665 0
M  V30 7882 O 759.889 -0.667407 1.9002 0
M  V30 7883 C 756.954 -0.830075 3.36616 0
M  V30 7884 C 756.015 -0.00759884 4.29299 0
M  V30 7885 C 755.248 -0.870139 5.26559 0
M  V30 7886 O 755.471 -2.10921 5.2997 0
M  V30 7887 O 754.405 -0.305454 6.01124 0
M  V30 7888 H 758.231 0.854545 2.9143 0
M  V30 7889 H 755.816 0.483032 1.41376 0
M  V30 7890 H 757.698 -1.34864 3.99236 0
M  V30 7891 H 756.373 -1.58805 2.82069 0
M  V30 7892 H 755.28 0.556199 3.69942 0
M  V30 7893 H 756.613 0.712312 4.87018 0
M  V30 7894 N 758.265 -1.50454 0.469181 0
M  V30 7895 C 759.175 -2.32248 -0.331349 0
M  V30 7896 C 760.191 -1.42548 -0.997807 0
M  V30 7897 O 761.367 -1.75602 -0.9862 0
M  V30 7898 C 758.432 -3.17171 -1.40012 0
M  V30 7899 C 757.493 -4.2269 -0.750463 0
M  V30 7900 C 756.726 -5.03554 -1.76831 0
M  V30 7901 O 756.949 -4.85469 -2.99459 0
M  V30 7902 O 755.883 -5.86767 -1.3412 0
M  V30 7903 H 759.709 -3.01821 0.337279 0
M  V30 7904 H 757.294 -1.47602 0.231066 0
M  V30 7905 H 759.176 -3.69871 -2.01924 0
M  V30 7906 H 757.851 -2.50328 -2.05226 0
M  V30 7907 H 756.758 -3.73986 -0.0924446 0
M  V30 7908 H 758.091 -4.91997 -0.14131 0
M  V30 7909 N 759.743 -0.201713 -1.56304 0
M  V30 7910 C 760.989 0.435952 -1.98059 0
M  V30 7911 C 761.322 1.60811 -1.08873 0
M  V30 7912 O 760.597 1.9398 -0.142128 0
M  V30 7913 C 760.88 0.889706 -3.48936 0
M  V30 7914 C 760.733 -0.284725 -4.48898 0
M  V30 7915 C 762.052 1.7529 -4.03685 0
M  V30 7916 H 759.171 0.15699 -0.720085 0
M  V30 7917 H 761.813 -0.293965 -1.87712 0
M  V30 7918 H 759.963 1.51166 -3.57884 0
M  V30 7919 H 761.635 -0.922531 -4.51981 0
M  V30 7920 H 759.878 -0.935427 -4.23594 0
M  V30 7921 H 760.549 0.0753865 -5.51949 0
M  V30 7922 H 763.025 1.2283 -3.97558 0
M  V30 7923 H 761.901 2.03933 -5.0961 0
M  V30 7924 H 762.162 2.70939 -3.49348 0
M  V30 7925 N 761.222 1.57436 0.0718424 0
M  V30 7926 C 762.633 1.75975 0.623678 0
M  V30 7927 C 762.984 0.827155 1.77912 0
M  V30 7928 O 762.109 0.0112425 2.16397 0
M  V30 7929 C 762.704 3.1911 1.13816 0
M  V30 7930 C 761.263 3.38994 1.63586 0
M  V30 7931 C 760.41 2.71684 0.555261 0
M  V30 7932 H 763.361 1.57948 -0.154328 0
M  V30 7933 H 763.382 3.23267 2.00696 0
M  V30 7934 H 762.894 3.86962 0.296998 0
M  V30 7935 H 760.995 2.76256 2.50027 0
M  V30 7936 H 761.108 4.47436 1.71283 0
M  V30 7937 H 759.472 2.34236 1.00029 0
M  V30 7938 H 760.255 3.42191 -0.275712 0
M  V30 7939 N 762.7 -0.34323 1.53817 0
M  V30 7940 C 763.61 -1.44493 1.84821 0
M  V30 7941 C 764.626 -1.57556 0.738381 0
M  V30 7942 O 765.802 -1.73026 1.03072 0
M  V30 7943 C 762.867 -2.79478 2.05166 0
M  V30 7944 C 761.928 -2.75756 3.29025 0
M  V30 7945 C 761.161 -4.04302 3.4839 0
M  V30 7946 O 761.384 -5.01595 2.71586 0
M  V30 7947 O 760.318 -4.08754 4.41819 0
M  V30 7948 H 764.144 -1.21209 2.78464 0
M  V30 7949 H 761.729 -0.535437 1.39476 0
M  V30 7950 H 763.611 -3.59419 2.19991 0
M  V30 7951 H 762.286 -3.02692 1.14713 0
M  V30 7952 H 761.193 -1.94434 3.19603 0
M  V30 7953 H 762.526 -2.57495 4.19472 0
M  V30 7954 N 764.178 -1.45556 -0.604258 0
M  V30 7955 C 765.108 -1.57327 -1.72541 0
M  V30 7956 C 766.089 -0.424637 -1.64714 0
M  V30 7957 O 767.274 -0.648196 -1.83063 0
M  V30 7958 C 764.404 -1.54279 -3.11152 0
M  V30 7959 C 763.358 -2.67893 -3.33792 0
M  V30 7960 C 762.684 -2.499 -4.72709 0
M  V30 7961 C 763.984 -4.0988 -3.23722 0
M  V30 7962 H 765.678 -2.51175 -1.62947 0
M  V30 7963 H 763.224 -1.20884 -0.782504 0
M  V30 7964 H 765.177 -1.6111 -3.89386 0
M  V30 7965 H 763.901 -0.569627 -3.21594 0
M  V30 7966 H 762.56 -2.60495 -2.57949 0
M  V30 7967 H 762.208 -1.50715 -4.79889 0
M  V30 7968 H 761.908 -3.26091 -4.88813 0
M  V30 7969 H 763.432 -2.5859 -5.5314 0
M  V30 7970 H 764.846 -4.18503 -3.91826 0
M  V30 7971 H 763.243 -4.86487 -3.51355 0
M  V30 7972 H 764.313 -4.31553 -2.21111 0
M  V30 7973 N 765.656 0.84705 -1.32902 0
M  V30 7974 C 766.586 1.97166 -1.25091 0
M  V30 7975 C 767.567 1.69578 -0.133161 0
M  V30 7976 O 768.752 1.91519 -0.321591 0
M  V30 7977 C 765.882 3.33157 -0.981006 0
M  V30 7978 C 764.836 3.75119 -2.06082 0
M  V30 7979 C 764.162 5.08826 -1.64318 0
M  V30 7980 C 765.462 3.89774 -3.47669 0
M  V30 7981 H 767.156 2.03958 -2.19184 0
M  V30 7982 H 764.702 0.979907 -1.05517 0
M  V30 7983 H 766.655 4.11393 -0.912891 0
M  V30 7984 H 765.379 3.266 -0.00445559 0
M  V30 7985 H 764.038 2.9914 -2.11921 0
M  V30 7986 H 763.686 4.98732 -0.653876 0
M  V30 7987 H 763.386 5.37873 -2.36572 0
M  V30 7988 H 764.91 5.89546 -1.58958 0
M  V30 7989 H 766.324 4.58343 -3.44376 0
M  V30 7990 H 764.721 4.30248 -4.18338 0
M  V30 7991 H 765.791 2.92463 -3.86773 0
M  V30 7992 N 767.134 1.16236 1.06428 0
M  V30 7993 C 768.362 0.967184 1.82902 0
M  V30 7994 C 768.777 -0.484601 1.82475 0
M  V30 7995 O 768.134 -1.33631 1.24294 0
M  V30 7996 C 768.185 1.48534 3.29576 0
M  V30 7997 O 767.906 2.88026 3.3011 0
M  V30 7998 C 769.407 1.33298 4.22784 0
M  V30 7999 H 766.627 0.342923 0.576754 0
M  V30 8000 H 769.171 1.54232 1.34286 0
M  V30 8001 H 767.326 0.952513 3.75508 0
M  V30 8002 H 767.74 3.11721 4.21818 0
M  V30 8003 H 769.214 1.74385 5.23731 0
M  V30 8004 H 769.691 0.278356 4.38317 0
M  V30 8005 H 770.297 1.85535 3.82697 0
M  V30 8006 N 768.612 -1.24939 0.960631 0
M  V30 8007 C 769.522 -2.29374 0.492435 0
M  V30 8008 C 770.538 -1.68262 -0.443154 0
M  V30 8009 O 771.714 -1.98875 -0.31793 0
M  V30 8010 C 768.779 -3.46023 -0.216626 0
M  V30 8011 C 767.84 -4.22557 0.757915 0
M  V30 8012 C 767.073 -5.33636 0.0825969 0
M  V30 8013 O 767.296 -5.59084 -1.13054 0
M  V30 8014 O 766.23 -5.96939 0.771177 0
M  V30 8015 H 770.056 -2.71525 1.36044 0
M  V30 8016 H 767.641 -1.30499 0.72735 0
M  V30 8017 H 769.523 -4.16885 -0.615241 0
M  V30 8018 H 768.198 -3.05862 -1.05971 0
M  V30 8019 H 767.105 -3.54099 1.20685 0
M  V30 8020 H 768.438 -4.66516 1.5692 0
M  V30 8021 N 770.09 -0.729906 -1.39679 0
M  V30 8022 C 771.053 -0.0951668 -2.29002 0
M  V30 8023 C 772.053 0.672471 -1.46063 0
M  V30 8024 O 773.243 0.502245 -1.66803 0
M  V30 8025 C 770.375 0.874631 -3.29489 0
M  V30 8026 H 771.568 -0.882062 -2.86635 0
M  V30 8027 H 769.121 -0.495424 -1.4824 0
M  V30 8028 H 769.856 1.68807 -2.76902 0
M  V30 8029 H 769.641 0.326893 -3.90735 0
M  V30 8030 H 771.131 1.31548 -3.96339 0
M  V30 8031 N 771.568 1.50203 -0.477153 0
M  V30 8032 C 772.478 2.32421 0.319027 0
M  V30 8033 C 773.494 1.43075 0.990233 0
M  V30 8034 O 774.67 1.76123 0.976873 0
M  V30 8035 C 771.735 3.17909 1.38328 0
M  V30 8036 C 770.796 4.23082 0.728036 0
M  V30 8037 C 770.029 5.04484 1.74158 0
M  V30 8038 O 770.252 4.8705 2.96881 0
M  V30 8039 O 769.186 5.8747 1.31006 0
M  V30 8040 H 773.012 3.01638 -0.353281 0
M  V30 8041 H 770.597 1.47478 -0.238891 0
M  V30 8042 H 772.479 3.70937 1.9996 0
M  V30 8043 H 771.154 2.51413 2.03895 0
M  V30 8044 H 770.061 3.7403 0.07261 0
M  V30 8045 H 771.394 4.92065 0.115216 0
M  V30 8046 N 773.046 0.209999 1.56195 0
M  V30 8047 C 773.993 -0.704854 2.19774 0
M  V30 8048 C 774.963 -1.19886 1.14964 0
M  V30 8049 O 776.148 -1.26005 1.43274 0
M  V30 8050 C 773.288 -1.91241 2.87265 0
M  V30 8051 C 772.401 -1.45838 4.06639 0
M  V30 8052 C 771.536 -2.6226 4.61945 0
M  V30 8053 C 770.575 -2.13537 5.73645 0
M  V30 8054 N 769.712 -3.2319 6.23292 0
M  V30 8055 H 774.552 -0.155944 2.97592 0
M  V30 8056 H 772.089 -0.0652235 1.46955 0
M  V30 8057 H 774.047 -2.62123 3.24573 0
M  V30 8058 H 772.677 -2.43439 2.11985 0
M  V30 8059 H 771.729 -0.644897 3.74894 0
M  V30 8060 H 773.041 -1.06103 4.87384 0
M  V30 8061 H 772.195 -3.41243 5.01636 0
M  V30 8062 H 770.934 -3.05278 3.80338 0
M  V30 8063 H 769.939 -1.33013 5.33468 0
M  V30 8064 H 771.164 -1.71533 6.57079 0
M  V30 8065 H 769.11 -3.65711 5.44602 0
M  V30 8066 H 769.027 -2.8767 6.99129 0
M  V30 8067 H 770.295 -4.02342 6.67639 0
M  V30 8068 N 774.524 -1.57472 -0.0634922 0
M  V30 8069 C 775.471 -2.04258 -1.07457 0
M  V30 8070 C 776.441 -0.924804 -1.37973 0
M  V30 8071 O 777.626 -1.19305 -1.48899 0
M  V30 8072 C 774.766 -2.49832 -2.38071 0
M  V30 8073 C 773.879 -3.75263 -2.14014 0
M  V30 8074 C 773.014 -4.09585 -3.38251 0
M  V30 8075 C 772.053 -5.28032 -3.09594 0
M  V30 8076 N 771.19 -5.57953 -4.26185 0
M  V30 8077 H 776.03 -2.90402 -0.668626 0
M  V30 8078 H 773.567 -1.43609 -0.318572 0
M  V30 8079 H 775.525 -2.7431 -3.14341 0
M  V30 8080 H 774.155 -1.66654 -2.76453 0
M  V30 8081 H 773.207 -3.58075 -1.28399 0
M  V30 8082 H 774.519 -4.61667 -1.88852 0
M  V30 8083 H 773.673 -4.35008 -4.2291 0
M  V30 8084 H 772.412 -3.21765 -3.66495 0
M  V30 8085 H 771.417 -5.02397 -2.23332 0
M  V30 8086 H 772.642 -6.17477 -2.82663 0
M  V30 8087 H 770.588 -4.73092 -4.54445 0
M  V30 8088 H 770.505 -6.38793 -4.04326 0
M  V30 8089 H 771.773 -5.87931 -5.11817 0
M  V30 8090 N 776.003 0.335068 -1.53997 0
M  V30 8091 C 776.913 1.43511 -1.85585 0
M  V30 8092 C 777.929 1.57162 -0.746726 0
M  V30 8093 O 779.105 1.72477 -1.03988 0
M  V30 8094 C 776.17 2.78386 -2.06646 0
M  V30 8095 C 775.231 2.74007 -3.30483 0
M  V30 8096 C 774.464 4.02449 -3.50529 0
M  V30 8097 O 774.687 5.00147 -2.74242 0
M  V30 8098 O 773.621 4.06405 -4.4398 0
M  V30 8099 H 777.447 1.19731 -2.79102 0
M  V30 8100 H 775.032 0.528033 -1.39758 0
M  V30 8101 H 776.914 3.58247 -2.21894 0
M  V30 8102 H 775.589 3.0208 -1.16317 0
M  V30 8103 H 774.496 1.92736 -3.2063 0
M  V30 8104 H 775.829 2.55267 -4.20832 0
M  V30 8105 N 777.481 1.45874 0.596531 0
M  V30 8106 C 778.727 1.51679 1.35518 0
M  V30 8107 C 779.082 0.160681 1.91728 0
M  V30 8108 O 778.375 -0.828886 1.72743 0
M  V30 8109 C 778.569 2.54034 2.51399 0
M  V30 8110 C 778.398 3.99465 2.06538 0
M  V30 8111 C 777.168 4.67321 1.92196 0
M  V30 8112 C 779.366 4.87674 1.63336 0
M  V30 8113 N 777.348 5.97427 1.41261 0
M  V30 8114 C 778.719 6.07495 1.23895 0
M  V30 8115 C 780.774 4.74442 1.51028 0
M  V30 8116 C 779.477 7.15548 0.733739 0
M  V30 8117 C 781.503 5.82553 1.0191 0
M  V30 8118 C 780.865 7.01537 0.634403 0
M  V30 8119 H 776.964 0.609933 0.489393 0
M  V30 8120 H 779.548 1.82411 0.680746 0
M  V30 8121 H 777.719 2.25235 3.16424 0
M  V30 8122 H 779.451 2.49918 3.18313 0
M  V30 8123 H 776.206 4.22635 2.1372 0
M  V30 8124 H 776.63 6.66638 1.17995 0
M  V30 8125 H 781.272 3.82855 1.79393 0
M  V30 8126 H 778.99 8.06914 0.437656 0
M  V30 8127 H 782.576 5.74352 0.927977 0
M  V30 8128 H 781.456 7.83768 0.26019 0
M  V30 8129 N 778.959 -0.83999 1.33349 0
M  V30 8130 C 780.205 -1.59753 1.24927 0
M  V30 8131 C 780.538 -1.93318 -0.184855 0
M  V30 8132 O 779.813 -1.586 -1.12589 0
M  V30 8133 C 780.096 -2.90829 2.12345 0
M  V30 8134 C 779.949 -2.63953 3.6421 0
M  V30 8135 C 781.268 -3.92246 1.99577 0
M  V30 8136 H 778.387 -0.579654 0.45516 0
M  V30 8137 H 781.029 -0.968909 1.63439 0
M  V30 8138 H 779.179 -3.44478 1.79631 0
M  V30 8139 H 780.851 -2.16745 4.07209 0
M  V30 8140 H 779.094 -1.97671 3.86146 0
M  V30 8141 H 779.765 -3.57348 4.20721 0
M  V30 8142 H 782.241 -3.479 2.28265 0
M  V30 8143 H 781.117 -4.81793 2.62996 0
M  V30 8144 H 781.378 -4.3138 0.967673 0
M  V30 8145 N 780.437 -1.16799 -1.0581 0
M  V30 8146 C 781.347 -0.893492 -2.16919 0
M  V30 8147 C 782.363 0.136061 -1.73467 0
M  V30 8148 O 783.539 -0.0417348 -2.01357 0
M  V30 8149 C 780.604 -0.403763 -3.44341 0
M  V30 8150 C 779.665 -1.49914 -4.02274 0
M  V30 8151 C 778.898 -1.03269 -5.23614 0
M  V30 8152 O 779.121 0.115647 -5.70283 0
M  V30 8153 O 778.055 -1.8231 -5.73626 0
M  V30 8154 H 781.881 -1.82274 -2.42919 0
M  V30 8155 H 779.466 -0.948361 -1.1544 0
M  V30 8156 H 781.348 -0.137874 -4.21174 0
M  V30 8157 H 780.023 0.497413 -3.19855 0
M  V30 8158 H 778.93 -1.81883 -3.26909 0
M  V30 8159 H 780.263 -2.3758 -4.31064 0
M  V30 8160 N 781.915 1.24427 -0.967243 0
M  V30 8161 C 782.862 2.25398 -0.496419 0
M  V30 8162 C 783.832 1.59667 0.457781 0
M  V30 8163 O 785.017 1.87213 0.368246 0
M  V30 8164 C 782.157 3.44474 0.207693 0
M  V30 8165 C 781.27 4.24804 -0.785221 0
M  V30 8166 C 780.405 5.31169 -0.0572631 0
M  V30 8167 C 779.444 6.03195 -1.04027 0
M  V30 8168 N 778.581 7.01265 -0.34235 0
M  V30 8169 H 783.421 2.65039 -1.36229 0
M  V30 8170 H 780.958 1.30288 -0.682902 0
M  V30 8171 H 782.916 4.12376 0.632612 0
M  V30 8172 H 781.546 3.05672 1.03752 0
M  V30 8173 H 780.598 3.56445 -1.32858 0
M  V30 8174 H 781.91 4.74599 -1.53483 0
M  V30 8175 H 781.064 6.05205 0.425674 0
M  V30 8176 H 779.803 4.8228 0.725047 0
M  V30 8177 H 778.808 5.27964 -1.53409 0
M  V30 8178 H 780.033 6.54173 -1.82302 0
M  V30 8179 H 777.979 6.54648 0.420993 0
M  V30 8180 H 777.896 7.48939 -1.03084 0
M  V30 8181 H 779.164 7.7941 0.118634 0
M  V30 8182 N 783.393 0.737304 1.3929 0
M  V30 8183 C 784.323 0.113988 2.33222 0
M  V30 8184 C 785.304 -0.721695 1.54031 0
M  V30 8185 O 786.489 -0.666206 1.82415 0
M  V30 8186 C 783.619 -0.792319 3.38141 0
M  V30 8187 C 782.573 -0.0606178 4.27957 0
M  V30 8188 C 781.899 -1.08409 5.23595 0
M  V30 8189 C 783.199 1.09817 5.10625 0
M  V30 8190 H 784.893 0.898611 2.85596 0
M  V30 8191 H 782.439 0.433571 1.37318 0
M  V30 8192 H 784.392 -1.23793 4.02807 0
M  V30 8193 H 783.116 -1.60908 2.84211 0
M  V30 8194 H 781.775 0.365393 3.64775 0
M  V30 8195 H 781.423 -1.89449 4.6596 0
M  V30 8196 H 781.123 -0.599269 5.84536 0
M  V30 8197 H 782.647 -1.52936 5.91137 0
M  V30 8198 H 784.061 0.730892 5.68622 0
M  V30 8199 H 782.458 1.51278 5.80719 0
M  V30 8200 H 783.528 1.91878 4.45321 0
M  V30 8201 N 784.871 -1.49948 0.485112 0
M  V30 8202 C 786.099 -2.06806 -0.0622824 0
M  V30 8203 C 786.514 -1.34736 -1.32256 0
M  V30 8204 O 785.871 -0.420836 -1.77582 0
M  V30 8205 C 785.922 -3.59934 -0.336096 0
M  V30 8206 O 785.643 -4.29289 0.874203 0
M  V30 8207 C 787.144 -4.33459 -0.928903 0
M  V30 8208 H 784.364 -0.670867 0.0133472 0
M  V30 8209 H 786.908 -1.92937 0.677917 0
M  V30 8210 H 785.063 -3.7356 -1.02625 0
M  V30 8211 H 785.477 -5.20735 0.627332 0
M  V30 8212 H 786.951 -5.41527 -1.07017 0
M  V30 8213 H 787.428 -3.94881 -1.92265 0
M  V30 8214 H 788.034 -4.24399 -0.276705 0
M  V30 8215 N 786.349 -0.21828 -1.56081 0
M  V30 8216 C 787.259 0.704602 -2.23769 0
M  V30 8217 C 788.275 1.21633 -1.24425 0
M  V30 8218 O 789.451 1.25862 -1.57228 0
M  V30 8219 C 786.516 1.89725 -2.90182 0
M  V30 8220 C 785.577 1.42782 -4.0486 0
M  V30 8221 C 784.81 2.56361 -4.68097 0
M  V30 8222 O 785.033 3.74417 -4.30312 0
M  V30 8223 O 783.967 2.2775 -5.57148 0
M  V30 8224 H 787.793 0.158007 -3.03289 0
M  V30 8225 H 785.378 0.0120279 -1.49395 0
M  V30 8226 H 787.26 2.59382 -3.32113 0
M  V30 8227 H 785.935 2.432 -2.13624 0
M  V30 8228 H 784.842 0.699359 -3.67505 0
M  V30 8229 H 786.175 0.939474 -4.83151 0
M  V30 8230 N 787.827 1.57504 0.0551401 0
M  V30 8231 C 789.073 1.88334 0.752216 0
M  V30 8232 C 789.406 0.812742 1.76375 0
M  V30 8233 O 788.681 -0.175198 1.93709 0
M  V30 8234 C 788.964 3.29824 1.44528 0
M  V30 8235 C 788.817 4.47553 0.449026 0
M  V30 8236 C 790.136 3.69808 2.38601 0
M  V30 8237 H 787.255 0.684973 0.271995 0
M  V30 8238 H 789.897 1.89994 0.0151895 0
M  V30 8239 H 788.047 3.28539 2.07351 0
M  V30 8240 H 789.719 4.60967 -0.175277 0
M  V30 8241 H 787.962 4.33168 -0.234162 0
M  V30 8242 H 788.633 5.43376 0.971917 0
M  V30 8243 H 791.109 3.72293 1.85842 0
M  V30 8244 H 789.985 4.69665 2.84088 0
M  V30 8245 H 790.246 3.00641 3.24141 0
M  V30 8246 N 789.305 -0.326896 1.54172 0
M  V30 8247 C 790.53 -1.08924 1.76494 0
M  V30 8248 C 790.955 -1.81039 0.510523 0
M  V30 8249 O 790.313 -1.73141 -0.537756 0
M  V30 8250 C 790.361 -2.06558 2.95578 0
M  V30 8251 O 789.465 -3.14394 2.6689 0
M  V30 8252 H 788.806 -0.314216 0.584948 0
M  V30 8253 H 791.336 -0.372207 2.01186 0
M  V30 8254 H 791.346 -2.49487 3.22832 0
M  V30 8255 H 790.021 -1.53469 3.86549 0
M  V30 8256 H 788.598 -2.76164 2.50576 0
M  V30 8257 N 790.784 -1.46188 -0.588786 0
M  V30 8258 C 792.033 -1.50452 -1.34339 0
M  V30 8259 C 792.346 -0.158096 -1.9496 0
M  V30 8260 O 793.552 -0.0784918 -2.71387 0
M  V30 8261 C 792.008 -2.65074 -2.43441 0
M  V30 8262 C 791.616 -4.06111 -1.8915 0
M  V30 8263 C 793.36 -2.78603 -3.20282 0
M  V30 8264 C 791.267 -5.12084 -2.95845 0
M  V30 8265 H 790.197 -0.559905 -0.504997 0
M  V30 8266 H 792.848 -1.72382 -0.629014 0
M  V30 8267 H 791.23 -2.36462 -3.1765 0
M  V30 8268 H 792.404 -4.44487 -1.21524 0
M  V30 8269 H 790.719 -3.97197 -1.24995 0
M  V30 8270 H 793.316 -3.54944 -3.99898 0
M  V30 8271 H 793.659 -1.85902 -3.72486 0
M  V30 8272 H 794.192 -3.06832 -2.53178 0
M  V30 8273 H 790.931 -6.06556 -2.48535 0
M  V30 8274 H 790.451 -4.78259 -3.61979 0
M  V30 8275 H 792.13 -5.37661 -3.59902 0
M  V30 8276 N 792.262 0.832906 -1.33792 0
M  V30 8277 C 793.487 1.62568 -1.28788 0
M  V30 8278 C 793.912 1.87599 0.137246 0
M  V30 8279 O 793.27 1.44436 1.0958 0
M  V30 8280 C 793.318 2.9495 -2.07453 0
M  V30 8281 O 792.422 3.86546 -1.43722 0
M  V30 8282 H 791.763 0.494809 -0.442787 0
M  V30 8283 H 794.293 1.03578 -1.76445 0
M  V30 8284 H 794.303 3.44599 -2.1844 0
M  V30 8285 H 792.978 2.76055 -3.11073 0
M  V30 8286 H 791.555 3.45044 -1.41417 0
M  V30 8287 N 793.74 1.17359 1.05189 0
M  V30 8288 C 794.965 0.98709 1.82404 0
M  V30 8289 C 795.39 -0.459848 1.82392 0
M  V30 8290 O 794.748 -1.32924 1.23292 0
M  V30 8291 C 794.796 1.53276 3.26403 0
M  V30 8292 O 793.9 0.746541 4.05587 0
M  V30 8293 H 793.241 0.35047 0.563974 0
M  V30 8294 H 795.771 1.55856 1.32552 0
M  V30 8295 H 795.781 1.55504 3.77203 0
M  V30 8296 H 794.456 2.58603 3.25726 0
M  V30 8297 H 793.033 0.795671 3.64312 0
M  V30 8298 N 795.218 -1.23913 0.973828 0
M  V30 8299 C 796.495 -1.87539 0.555729 0
M  V30 8300 C 796.875 -1.87641 -0.967162 0
M  V30 8301 O 796.223 -1.35335 -1.84111 0
M  V30 8302 C 796.433 -3.29359 1.15427 0
M  V30 8303 C 797.781 -4.06 1.24294 0
M  V30 8304 O 798.805 -3.38554 1.10723 0
M  V30 8305 O 797.664 -5.26689 1.45813 0
M  V30 8306 H 794.758 -0.805769 0.186188 0
M  V30 8307 H 797.304 -1.31838 1.06849 0
M  V30 8308 H 796.076 -3.23817 2.19678 0
M  V30 8309 H 795.699 -3.92642 0.625925 0
M  V30 8310 N 796.696 -0.74468 -1.38897 0
M  V30 8311 C 797.659 -0.11945 -2.28889 0
M  V30 8312 C 798.659 0.656942 -1.46768 0
M  V30 8313 O 799.849 0.484525 -1.67326 0
M  V30 8314 C 796.981 0.839635 -3.30398 0
M  V30 8315 H 798.174 -0.912414 -2.85683 0
M  V30 8316 H 795.727 -0.511119 -1.47707 0
M  V30 8317 H 796.462 1.6586 -2.78677 0
M  V30 8318 H 796.247 0.285432 -3.9106 0
M  V30 8319 H 797.737 1.27337 -3.97712 0
M  V30 8320 N 798.174 1.49689 -0.493057 0
M  V30 8321 C 799.421 2.02427 0.0542714 0
M  V30 8322 C 799.749 1.37339 1.37725 0
M  V30 8323 O 799.004 0.495523 1.89323 0
M  V30 8324 C 799.303 3.56427 0.263536 0
M  V30 8325 C 798.969 4.40111 -0.98046 0
M  V30 8326 C 797.631 4.62699 -1.32148 0
M  V30 8327 C 799.983 4.88847 -1.80771 0
M  V30 8328 C 797.311 5.31268 -2.48941 0
M  V30 8329 C 799.663 5.587 -2.96711 0
M  V30 8330 C 798.327 5.79536 -3.31202 0
M  V30 8331 H 797.597 0.740734 0.0198593 0
M  V30 8332 H 800.244 1.80073 -0.651603 0
M  V30 8333 H 798.549 3.77416 1.05186 0
M  V30 8334 H 800.246 3.94819 0.701348 0
M  V30 8335 H 796.836 4.22765 -0.704814 0
M  V30 8336 H 801.02 4.71231 -1.55741 0
M  V30 8337 H 796.276 5.45603 -2.75911 0
M  V30 8338 H 800.45 5.9544 -3.61143 0
M  V30 8339 H 798.077 6.32443 -4.21805 0
M  V30 8340 N 799.652 0.226554 1.55963 0
M  V30 8341 C 800.899 -0.403789 1.98433 0
M  V30 8342 C 801.227 -1.59416 1.1143 0
M  V30 8343 O 800.482 -1.95042 0.160389 0
M  V30 8344 C 800.781 -0.87642 3.46488 0
M  V30 8345 C 800.447 0.203973 4.50438 0
M  V30 8346 C 799.109 0.500754 4.78587 0
M  V30 8347 C 801.461 0.934396 5.12756 0
M  V30 8348 C 798.789 1.53239 5.66334 0
M  V30 8349 C 801.141 1.9554 6.0162 0
M  V30 8350 C 799.805 2.25905 6.28111 0
M  V30 8351 H 799.075 -0.147757 0.726119 0
M  V30 8352 H 801.722 0.330121 1.88633 0
M  V30 8353 H 800.027 -1.68918 3.53517 0
M  V30 8354 H 801.724 -1.37407 3.76723 0
M  V30 8355 H 798.314 -0.0374917 4.28584 0
M  V30 8356 H 802.498 0.718355 4.91074 0
M  V30 8357 H 797.754 1.77321 5.85122 0
M  V30 8358 H 801.928 2.52642 6.48957 0
M  V30 8359 H 799.555 3.05985 6.959 0
M  V30 8360 N 801.13 -1.57531 -0.0467866 0
M  V30 8361 C 802.541 -1.76945 -0.595603 0
M  V30 8362 C 802.892 -0.855354 -1.76573 0
M  V30 8363 O 802.017 -0.045668 -2.16352 0
M  V30 8364 C 802.612 -3.20881 -1.08725 0
M  V30 8365 C 801.171 -3.41553 -1.58172 0
M  V30 8366 C 800.318 -2.72533 -0.511968 0
M  V30 8367 H 803.269 -1.57682 0.179436 0
M  V30 8368 H 803.29 -3.26419 -1.95528 0
M  V30 8369 H 802.802 -3.87385 -0.235398 0
M  V30 8370 H 800.903 -2.80199 -2.456 0
M  V30 8371 H 801.016 -4.50104 -1.64143 0
M  V30 8372 H 799.38 -2.35797 -0.962899 0
M  V30 8373 H 800.163 -3.41709 0.330117 0
M  V30 8374 N 802.608 0.318715 -1.54344 0
M  V30 8375 C 803.855 1.05608 -1.72781 0
M  V30 8376 C 804.183 1.87854 -0.504083 0
M  V30 8377 O 803.438 1.88826 0.51414 0
M  V30 8378 C 803.737 2.00514 -2.95853 0
M  V30 8379 C 803.403 1.34385 -4.30409 0
M  V30 8380 C 802.065 1.16081 -4.66989 0
M  V30 8381 C 804.417 0.869627 -5.13894 0
M  V30 8382 C 801.745 0.490114 -5.84649 0
M  V30 8383 C 804.097 0.212735 -6.32242 0
M  V30 8384 C 802.761 0.0175882 -6.67498 0
M  V30 8385 H 802.031 0.386449 -0.632249 0
M  V30 8386 H 804.678 0.332729 -1.88587 0
M  V30 8387 H 802.983 2.79317 -2.74753 0
M  V30 8388 H 804.68 2.57605 -3.07312 0
M  V30 8389 H 801.27 1.49634 -4.01631 0
M  V30 8390 H 805.454 0.998809 -4.86146 0
M  V30 8391 H 800.71 0.327767 -6.10521 0
M  V30 8392 H 804.884 -0.162699 -6.9621 0
M  V30 8393 H 802.511 -0.504137 -7.58527 0
M  V30 8394 N 804.086 1.46499 0.581025 0
M  V30 8395 C 805.502 1.31491 0.904563 0
M  V30 8396 C 805.702 0.287598 1.99437 0
M  V30 8397 O 804.758 -0.309247 2.50599 0
M  V30 8398 C 806.071 2.70163 1.32032 0
M  V30 8399 C 807.619 2.78266 1.43308 0
M  V30 8400 C 808.094 4.17524 1.8825 0
M  V30 8401 N 809.585 4.19949 1.9544 0
M  V30 8402 C 810.32 5.24594 2.31493 0
M  V30 8403 N 809.816 6.39564 2.66326 0
M  V30 8404 N 811.609 5.11961 2.32062 0
M  V30 8405 H 803.76 2.11946 -0.138856 0
M  V30 8406 H 806.023 0.948 0.000548528 0
M  V30 8407 H 805.729 3.46655 0.593554 0
M  V30 8408 H 805.603 3.00379 2.2815 0
M  V30 8409 H 807.99 2.02061 2.15071 0
M  V30 8410 H 808.071 2.51732 0.45438 0
M  V30 8411 H 807.715 4.94225 1.17065 0
M  V30 8412 H 807.645 4.41466 2.87081 0
M  V30 8413 H 810.136 3.36996 1.71004 0
M  V30 8414 H 810.449 7.15187 2.92793 0
M  V30 8415 H 808.794 6.42923 2.6396 0
M  V30 8416 H 811.985 4.21177 2.04272 0
M  V30 8417 H 812.158 5.93626 2.5983 0
M  V30 8418 N 805.565 -0.825799 1.34232 0
M  V30 8419 C 806.842 -1.56741 1.17011 0
M  V30 8420 C 807.222 -2.09512 -0.258425 0
M  V30 8421 O 806.57 -1.90664 -1.25935 0
M  V30 8422 C 806.78 -2.69104 2.22225 0
M  V30 8423 C 808.128 -3.37947 2.57055 0
M  V30 8424 O 809.152 -2.79358 2.20992 0
M  V30 8425 O 808.011 -4.43743 3.1899 0
M  V30 8426 H 805.105 -0.69163 0.453405 0
M  V30 8427 H 807.651 -0.867422 1.45856 0
M  V30 8428 H 806.423 -2.27844 3.18124 0
M  V30 8429 H 806.046 -3.46756 1.94541 0
M  V30 8430 N 807.043 -1.17915 -1.04565 0
M  V30 8431 C 807.991 -0.897919 -2.1457 0
M  V30 8432 C 808.985 0.139883 -1.68821 0
M  V30 8433 O 810.191 -0.00779463 -1.79998 0
M  V30 8434 H 806.566 -0.272867 -0.700748 0
M  V30 8435 H 808.537 -1.83268 -2.3549 0
M  V30 8436 C 807.286 -0.434634 -3.44973 0
M  V30 8437 H 806.609 -1.22469 -3.8058 0
M  V30 8438 H 808.049 -0.276804 -4.23095 0
M  V30 8439 C 806.508 0.848738 -3.26034 0
M  V30 8440 O 807.038 1.9141 -3.53164 0
M  V30 8441 N 805.244 0.799373 -2.79389 0
M  V30 8442 H 804.791 -0.0678192 -2.57511 0
M  V30 8443 H 804.749 1.6585 -2.67098 0
M  V30 8444 N 808.521 1.23394 -0.980386 0
M  V30 8445 C 809.767 1.92094 -0.650223 0
M  V30 8446 C 810.1 1.76309 0.814173 0
M  V30 8447 O 809.375 1.12406 1.5873 0
M  V30 8448 C 809.658 3.44713 -1.04139 0
M  V30 8449 C 809.511 3.69606 -2.56342 0
M  V30 8450 C 810.83 4.36191 -0.585296 0
M  V30 8451 H 807.949 0.697618 -0.237695 0
M  V30 8452 H 810.591 1.45517 -1.22167 0
M  V30 8453 H 808.741 3.84513 -0.55515 0
M  V30 8454 H 810.413 3.39288 -3.1254 0
M  V30 8455 H 808.656 3.14318 -2.98976 0
M  V30 8456 H 809.327 4.76441 -2.78762 0
M  V30 8457 H 811.803 4.03836 -1.00276 0
M  V30 8458 H 810.679 5.41679 -0.887428 0
M  V30 8459 H 810.94 4.39097 0.51438 0
M  V30 8460 N 809.999 0.752036 1.385 0
M  V30 8461 C 811.276 0.233075 1.94206 0
M  V30 8462 C 811.656 -1.26838 1.68746 0
M  V30 8463 O 811.004 -2.04214 1.02513 0
M  V30 8464 C 811.214 0.58509 3.44061 0
M  V30 8465 C 812.562 0.543871 4.21102 0
M  V30 8466 O 813.586 0.523291 3.52335 0
M  V30 8467 O 812.445 0.553436 5.4369 0
M  V30 8468 H 809.539 0.0483049 0.825588 0
M  V30 8469 H 812.085 0.832053 1.47902 0
M  V30 8470 H 810.857 1.62212 3.56094 0
M  V30 8471 H 810.48 -0.0419738 3.97578 0
M  V30 8472 N 811.477 -1.49425 0.500989 0
M  V30 8473 C 812.893 -1.58826 0.156951 0
M  V30 8474 C 813.093 -1.50622 -1.33848 0
M  V30 8475 O 812.149 -1.38016 -2.11442 0
M  V30 8476 C 813.462 -2.91611 0.73374 0
M  V30 8477 C 815.01 -3.05076 0.699846 0
M  V30 8478 C 815.485 -4.40479 1.2547 0
M  V30 8479 N 816.976 -4.4697 1.2154 0
M  V30 8480 C 817.711 -5.50189 1.6149 0
M  V30 8481 N 817.207 -6.60512 2.09034 0
M  V30 8482 N 819 -5.40903 1.52907 0
M  V30 8483 H 811.151 -1.53001 1.47324 0
M  V30 8484 H 813.414 -0.724765 0.61108 0
M  V30 8485 H 813.12 -3.03182 1.78251 0
M  V30 8486 H 812.994 -3.767 0.19417 0
M  V30 8487 H 815.381 -2.93134 -0.340085 0
M  V30 8488 H 815.462 -2.2167 1.27656 0
M  V30 8489 H 815.106 -4.53172 2.29341 0
M  V30 8490 H 815.036 -5.22524 0.653921 0
M  V30 8491 H 817.527 -3.67819 0.867043 0
M  V30 8492 H 817.84 -7.35372 2.37588 0
M  V30 8493 H 816.185 -6.61553 2.13008 0
M  V30 8494 H 819.376 -4.53606 1.15583 0
M  V30 8495 H 819.549 -6.21219 1.84365 0
M  V30 8496 N 812.955 -0.234822 -1.55841 0
M  V30 8497 C 813.918 0.656378 -2.196 0
M  V30 8498 C 814.918 1.11179 -1.16171 0
M  V30 8499 O 816.108 1.01845 -1.41326 0
M  V30 8500 C 813.24 1.90072 -2.82993 0
M  V30 8501 H 814.433 0.100281 -2.99732 0
M  V30 8502 H 811.986 0.0147613 -1.56293 0
M  V30 8503 H 812.721 2.49836 -2.06767 0
M  V30 8504 H 812.506 1.5825 -3.58747 0
M  V30 8505 H 813.996 2.53538 -3.31826 0
M  V30 8506 N 814.433 1.57553 0.0384317 0
M  V30 8507 C 815.38 2.05942 1.04194 0
M  V30 8508 C 816.35 0.946637 1.36484 0
M  V30 8509 O 817.535 1.21658 1.46983 0
M  V30 8510 C 814.675 2.53588 2.34066 0
M  V30 8511 C 813.788 3.7862 2.08017 0
M  V30 8512 C 812.923 4.14915 3.31692 0
M  V30 8513 C 811.962 5.32891 3.01155 0
M  V30 8514 N 811.099 5.64662 4.17254 0
M  V30 8515 H 815.939 2.91429 0.622341 0
M  V30 8516 H 813.476 1.44098 0.295684 0
M  V30 8517 H 815.434 2.79276 3.09937 0
M  V30 8518 H 814.064 1.71031 2.73767 0
M  V30 8519 H 813.116 3.60073 1.22686 0
M  V30 8520 H 814.428 4.64613 1.81484 0
M  V30 8521 H 813.582 4.41681 4.15936 0
M  V30 8522 H 812.321 3.27555 3.6133 0
M  V30 8523 H 811.326 5.05887 2.15311 0
M  V30 8524 H 812.551 6.21896 2.72804 0
M  V30 8525 H 810.497 4.80261 4.46861 0
M  V30 8526 H 810.414 6.45145 3.94112 0
M  V30 8527 H 811.682 5.96 5.02399 0
M  V30 8528 N 815.911 -0.310526 1.54511 0
M  V30 8529 C 817.327 -0.655637 1.45511 0
M  V30 8530 C 817.527 -1.91114 0.638564 0
M  V30 8531 O 816.583 -2.52098 0.142497 0
M  V30 8532 C 817.896 -0.817501 2.89374 0
M  V30 8533 C 819.444 -0.914003 2.99358 0
M  V30 8534 C 819.919 -1.10794 4.44397 0
M  V30 8535 N 821.41 -1.17437 4.48066 0
M  V30 8536 C 822.145 -1.34255 5.57461 0
M  V30 8537 N 821.641 -1.48032 6.768 0
M  V30 8538 N 823.434 -1.37067 5.45132 0
M  V30 8539 H 815.585 0.514506 2.06074 0
M  V30 8540 H 817.848 0.168478 0.932909 0
M  V30 8541 H 817.554 0.034003 3.51684 0
M  V30 8542 H 817.428 -1.7094 3.36243 0
M  V30 8543 H 819.815 -1.756 2.37168 0
M  V30 8544 H 819.896 0.00170958 2.558 0
M  V30 8545 H 819.54 -0.270743 5.07178 0
M  V30 8546 H 819.47 -2.03773 4.85576 0
M  V30 8547 H 821.961 -1.08181 3.62084 0
M  V30 8548 H 822.274 -1.60593 7.5593 0
M  V30 8549 H 820.619 -1.45105 6.79683 0
M  V30 8550 H 823.81 -1.25909 4.50849 0
M  V30 8551 H 823.983 -1.49831 6.3044 0
M  V30 8552 N 817.389 -1.46805 -0.573248 0
M  V30 8553 C 818.614 -1.56433 -1.36175 0
M  V30 8554 C 819.039 -0.209336 -1.86932 0
M  V30 8555 O 818.397 0.812146 -1.62092 0
M  V30 8556 C 818.445 -2.58055 -2.51873 0
M  V30 8557 O 817.549 -2.12214 -3.53609 0
M  V30 8558 H 816.89 -0.526068 -0.405153 0
M  V30 8559 H 819.42 -1.92456 -0.694405 0
M  V30 8560 H 819.43 -2.77966 -2.98662 0
M  V30 8561 H 818.105 -3.56448 -2.14284 0
M  V30 8562 H 816.682 -2.02333 -3.13234 0
M  V30 8563 N 818.867 0.818669 -1.34668 0
M  V30 8564 C 820.115 1.57201 -1.27013 0
M  V30 8565 C 820.436 1.94354 0.158599 0
M  V30 8566 O 819.706 1.62626 1.09223 0
M  V30 8567 H 818.286 0.582919 -0.467135 0
M  V30 8568 H 820.948 0.977234 -1.6863 0
M  V30 8569 H 820.044 2.49291 -1.87778 0
M  V30 8570 N 820.346 1.18468 1.03938 0
M  V30 8571 C 821.592 0.982286 1.77423 0
M  V30 8572 C 821.925 -0.48679 1.88 0
M  V30 8573 O 821.2 -1.36146 1.38905 0
M  V30 8574 C 821.483 1.63929 3.20623 0
M  V30 8575 C 821.336 3.18132 3.17982 0
M  V30 8576 C 822.655 1.3536 4.18767 0
M  V30 8577 H 819.774 0.358264 0.644062 0
M  V30 8578 H 822.416 1.46154 1.21405 0
M  V30 8579 H 820.566 1.2318 3.68455 0
M  V30 8580 H 822.238 3.68024 2.78129 0
M  V30 8581 H 820.481 3.50225 2.55978 0
M  V30 8582 H 821.152 3.5924 4.19107 0
M  V30 8583 H 823.628 1.70669 3.79488 0
M  V30 8584 H 822.504 1.83896 5.17178 0
M  V30 8585 H 822.765 0.276722 4.41233 0
M  V30 8586 N 821.824 -1.22873 0.986916 0
M  V30 8587 C 822.787 -2.2281 0.537442 0
M  V30 8588 C 823.787 -1.56331 -0.37646 0
M  V30 8589 O 824.977 -1.73376 -0.169247 0
M  V30 8590 C 822.109 -3.40195 -0.219082 0
M  V30 8591 H 823.302 -2.64089 1.42116 0
M  V30 8592 H 820.855 -1.35819 0.773488 0
M  V30 8593 H 821.59 -3.04381 -1.11905 0
M  V30 8594 H 821.375 -3.89657 0.437026 0
M  V30 8595 H 822.865 -4.14326 -0.521926 0
M  V30 8596 N 823.302 -0.75937 -1.38099 0
M  V30 8597 C 824.532 -0.328634 -2.0397 0
M  V30 8598 C 824.94 1.04989 -1.57398 0
M  V30 8599 O 824.283 1.67918 -0.744932 0
M  V30 8600 C 824.345 -0.279216 -3.58414 0
M  V30 8601 C 824.009 -1.60025 -4.28067 0
M  V30 8602 C 825.006 -2.55048 -4.53041 0
M  V30 8603 C 822.691 -1.87128 -4.66142 0
M  V30 8604 C 824.685 -3.7539 -5.15132 0
M  V30 8605 C 822.372 -3.07742 -5.27956 0
M  V30 8606 C 823.37 -4.01694 -5.52387 0
M  V30 8607 O 823.058 -5.20186 -6.12912 0
M  V30 8608 H 822.79 -0.137443 -0.66188 0
M  V30 8609 H 825.344 -1.03082 -1.77661 0
M  V30 8610 H 823.574 0.479254 -3.83719 0
M  V30 8611 H 825.263 0.122781 -4.05714 0
M  V30 8612 H 826.029 -2.35387 -4.24049 0
M  V30 8613 H 821.908 -1.14833 -4.46469 0
M  V30 8614 H 825.452 -4.48737 -5.34117 0
M  V30 8615 H 821.349 -3.27294 -5.56371 0
M  V30 8616 H 822.117 -5.20846 -6.31397 0
M  V30 8617 N 824.78 1.49157 -0.508906 0
M  V30 8618 C 826.029 2.0167 0.0346854 0
M  V30 8619 C 826.342 1.39302 1.37311 0
M  V30 8620 O 827.548 1.83189 2.00385 0
M  V30 8621 C 826.004 3.59725 0.112261 0
M  V30 8622 C 825.612 4.31069 -1.21999 0
M  V30 8623 C 827.356 4.20155 0.605798 0
M  V30 8624 C 825.263 5.81001 -1.10415 0
M  V30 8625 H 824.193 0.753814 0.0167355 0
M  V30 8626 H 826.844 1.7162 -0.649518 0
M  V30 8627 H 825.226 3.86525 0.861087 0
M  V30 8628 H 826.4 4.15962 -1.98273 0
M  V30 8629 H 824.715 3.82418 -1.64759 0
M  V30 8630 H 827.312 5.29964 0.710102 0
M  V30 8631 H 827.655 3.84051 1.60656 0
M  V30 8632 H 828.188 3.97705 -0.0867239 0
M  V30 8633 H 824.927 6.21643 -2.07941 0
M  V30 8634 H 824.447 5.9858 -0.382428 0
M  V30 8635 H 826.126 6.42207 -0.786116 0
M  V30 8636 N 826.258 0.243083 1.55714 0
M  V30 8637 C 827.221 -0.644723 2.19945 0
M  V30 8638 C 828.221 -1.10562 1.16759 0
M  V30 8639 O 829.411 -1.01095 1.41865 0
M  V30 8640 C 826.543 -1.88569 2.83997 0
M  V30 8641 H 827.736 -0.0843839 2.99781 0
M  V30 8642 H 825.289 -0.00647246 1.56299 0
M  V30 8643 H 826.024 -2.48736 2.08089 0
M  V30 8644 H 825.809 -1.56345 3.59581 0
M  V30 8645 H 827.299 -2.51774 3.33166 0
M  V30 8646 N 827.736 -1.57571 -0.0300757 0
M  V30 8647 C 828.699 -2.05468 -1.01565 0
M  V30 8648 C 829.699 -0.958628 -1.29101 0
M  V30 8649 O 830.889 -1.22228 -1.24121 0
M  V30 8650 C 828.021 -2.47077 -2.34874 0
M  V30 8651 H 829.214 -2.93797 -0.601936 0
M  V30 8652 H 826.767 -1.53828 -0.276878 0
M  V30 8653 H 827.502 -1.61901 -2.80996 0
M  V30 8654 H 827.287 -3.27097 -2.16218 0
M  V30 8655 H 828.777 -2.84564 -3.05635 0
M  V30 8656 N 829.214 0.302327 -1.54673 0
M  V30 8657 C 830.625 0.875409 -1.64904 0
M  V30 8658 C 830.976 1.88132 -0.55684 0
M  V30 8659 O 830.101 2.14215 0.306754 0
M  V30 8660 C 830.696 1.59457 -2.9893 0
M  V30 8661 C 829.255 2.11607 -3.11287 0
M  V30 8662 C 828.402 0.948324 -2.6058 0
M  V30 8663 H 831.353 0.079362 -1.58501 0
M  V30 8664 H 831.374 2.46005 -2.90279 0
M  V30 8665 H 830.886 0.8622 -3.78402 0
M  V30 8666 H 828.987 2.87895 -2.36532 0
M  V30 8667 H 829.1 2.35151 -4.17422 0
M  V30 8668 H 827.464 1.33352 -2.17001 0
M  V30 8669 H 828.247 0.229936 -3.42529 0
M  V30 8670 N 830.692 1.47107 0.565454 0
M  V30 8671 C 831.917 1.57153 1.35343 0
M  V30 8672 C 832.342 0.219247 1.86818 0
M  V30 8673 O 831.7 -0.803539 1.62521 0
M  V30 8674 C 831.748 2.59387 2.50501 0
M  V30 8675 O 830.852 2.14086 3.52478 0
M  V30 8676 H 830.193 0.528209 0.402357 0
M  V30 8677 H 832.723 1.92821 0.684189 0
M  V30 8678 H 832.733 2.79546 2.97184 0
M  V30 8679 H 831.408 3.57579 2.12391 0
M  V30 8680 H 829.985 2.03991 3.12157 0
M  V30 8681 N 832.17 -0.811516 1.35101 0
M  V30 8682 C 833.418 -1.56525 1.27845 0
M  V30 8683 C 833.739 -1.94435 -0.14829 0
M  V30 8684 O 833.009 -1.63203 -1.08359 0
M  V30 8685 H 831.589 -0.580433 0.47022 0
M  V30 8686 H 834.251 -0.968277 1.69146 0
M  V30 8687 H 833.347 -2.48291 1.89097 0
M  V30 8688 N 833.648 -1.19017 -1.03309 0
M  V30 8689 C 834.873 -1.01598 -1.80811 0
M  V30 8690 C 835.298 0.430773 -1.83101 0
M  V30 8691 O 834.656 1.30946 -1.25391 0
M  V30 8692 C 834.704 -1.5845 -3.23923 0
M  V30 8693 O 833.808 -0.810972 -4.04348 0
M  V30 8694 H 833.149 -0.359398 -0.558327 0
M  V30 8695 H 835.679 -1.57945 -1.30055 0
M  V30 8696 H 835.689 -1.61486 -3.74682 0
M  V30 8697 H 834.364 -2.63752 -3.21571 0
M  V30 8698 H 832.941 -0.85353 -3.63 0
M  V30 8699 N 835.127 1.22348 -0.993418 0
M  V30 8700 C 836.09 2.22522 -0.549251 0
M  V30 8701 C 837.09 1.56529 0.368164 0
M  V30 8702 O 838.28 1.73463 0.16005 0
M  V30 8703 C 835.412 3.40307 0.201037 0
M  V30 8704 H 836.605 2.63332 -1.43515 0
M  V30 8705 H 834.158 1.35407 -0.78068 0
M  V30 8706 H 834.893 3.0497 1.10289 0
M  V30 8707 H 834.678 3.8942 -0.457685 0
M  V30 8708 H 836.168 4.14597 0.499946 0
M  V30 8709 N 836.605 0.766683 1.37694 0
M  V30 8710 C 837.568 0.155849 2.2867 0
M  V30 8711 C 838.568 -0.633509 1.47795 0
M  V30 8712 O 839.758 -0.457844 1.68076 0
M  V30 8713 C 836.89 -0.786965 3.31692 0
M  V30 8714 H 838.083 0.957748 2.84196 0
M  V30 8715 H 835.636 0.534554 1.46875 0
M  V30 8716 H 836.371 -1.61406 2.8128 0
M  V30 8717 H 836.156 -0.223182 3.91464 0
M  V30 8718 H 837.646 -1.20994 3.99688 0
M  V30 8719 N 838.083 -1.48885 0.516809 0
M  V30 8720 C 839.36 -1.95412 -0.0858293 0
M  V30 8721 C 839.74 -1.45875 -1.5259 0
M  V30 8722 O 839.088 -0.679415 -2.18166 0
M  V30 8723 C 839.298 -3.48995 0.0178194 0
M  V30 8724 C 840.646 -4.24342 -0.14813 0
M  V30 8725 O 841.67 -3.56155 -0.0566125 0
M  V30 8726 O 840.529 -5.45454 -0.338035 0
M  V30 8727 H 837.623 -0.822455 -0.0865884 0
M  V30 8728 H 840.169 -1.59464 0.580472 0
M  V30 8729 H 838.941 -3.77732 1.02147 0
M  V30 8730 H 838.564 -3.91604 -0.687924 0
M  V30 8731 N 839.561 -0.251338 -1.55583 0
M  V30 8732 C 840.508 0.646337 -2.21565 0
M  V30 8733 C 841.478 1.16796 -1.18102 0
M  V30 8734 O 842.663 1.22162 -1.46564 0
M  V30 8735 C 839.803 1.83557 -2.92234 0
M  V30 8736 C 838.916 1.35006 -4.10363 0
M  V30 8737 C 838.051 2.4992 -4.68736 0
M  V30 8738 C 837.09 1.98253 -5.79105 0
M  V30 8739 N 836.227 3.06551 -6.31642 0
M  V30 8740 H 841.067 0.0769881 -2.97901 0
M  V30 8741 H 838.604 0.026238 -1.47077 0
M  V30 8742 H 840.562 2.53425 -3.31408 0
M  V30 8743 H 839.192 2.37733 -2.18364 0
M  V30 8744 H 838.244 0.545274 -3.76472 0
M  V30 8745 H 839.556 0.931435 -4.90026 0
M  V30 8746 H 838.71 3.27823 -5.10507 0
M  V30 8747 H 837.449 2.95086 -3.88298 0
M  V30 8748 H 836.454 1.18822 -5.36807 0
M  V30 8749 H 837.679 1.54051 -6.61396 0
M  V30 8750 H 835.625 3.51143 -5.54107 0
M  V30 8751 H 835.542 2.69033 -7.06511 0
M  V30 8752 H 836.81 3.84499 -6.78071 0
M  V30 8753 N 841.039 1.57585 0.0217189 0
M  V30 8754 C 842.285 1.89887 0.712099 0
M  V30 8755 C 842.618 0.849971 1.74611 0
M  V30 8756 O 841.893 -0.13407 1.94037 0
M  V30 8757 C 842.176 3.32815 1.37499 0
M  V30 8758 C 842.029 4.48405 0.353993 0
M  V30 8759 C 843.348 3.74786 2.30703 0
M  V30 8760 H 840.467 0.690588 0.257405 0
M  V30 8761 H 843.109 1.89983 -0.0251145 0
M  V30 8762 H 841.259 3.32863 2.00335 0
M  V30 8763 H 842.931 4.60491 -0.273015 0
M  V30 8764 H 841.174 4.32573 -0.32599 0
M  V30 8765 H 841.845 5.45316 0.85644 0
M  V30 8766 H 844.321 3.76151 1.77904 0
M  V30 8767 H 843.197 4.75585 2.74061 0
M  V30 8768 H 843.458 3.07449 3.17691 0
M  V30 8769 N 842.517 -0.29412 1.54831 0
M  V30 8770 C 843.763 -1.02999 1.74697 0
M  V30 8771 C 844.096 -1.86687 0.534949 0
M  V30 8772 O 843.371 -1.88789 -0.467863 0
M  V30 8773 C 843.654 -1.93024 3.03996 0
M  V30 8774 C 843.507 -1.1247 4.35512 0
M  V30 8775 C 844.826 -2.92085 3.29203 0
M  V30 8776 H 841.945 -0.373039 0.635618 0
M  V30 8777 H 844.587 -0.304065 1.87551 0
M  V30 8778 H 842.737 -2.5492 2.93169 0
M  V30 8779 H 844.409 -0.528067 4.58268 0
M  V30 8780 H 842.652 -0.427574 4.31688 0
M  V30 8781 H 843.323 -1.78728 5.22265 0
M  V30 8782 H 845.799 -2.40319 3.39685 0
M  V30 8783 H 844.675 -3.52234 4.20978 0
M  V30 8784 H 844.936 -3.66107 2.47827 0
M  V30 8785 N 843.995 -1.47404 -0.557645 0
M  V30 8786 C 845.244 -1.53268 -1.31118 0
M  V30 8787 C 845.557 -0.199414 -1.94581 0
M  V30 8788 O 846.763 -0.136039 -2.71159 0
M  V30 8789 C 845.219 -2.70178 -2.37764 0
M  V30 8790 C 844.827 -4.10032 -1.80493 0
M  V30 8791 C 846.571 -2.85334 -3.14301 0
M  V30 8792 C 844.478 -5.18244 -2.84916 0
M  V30 8793 H 843.408 -0.570491 -0.493007 0
M  V30 8794 H 846.059 -1.73678 -0.592308 0
M  V30 8795 H 844.441 -2.43147 -3.12563 0
M  V30 8796 H 845.615 -4.46964 -1.12069 0
M  V30 8797 H 843.93 -3.99759 -1.16542 0
M  V30 8798 H 846.527 -3.63347 -3.92279 0
M  V30 8799 H 846.87 -1.93761 -3.68459 0
M  V30 8800 H 847.403 -3.12133 -2.46613 0
M  V30 8801 H 844.142 -6.11691 -2.35614 0
M  V30 8802 H 843.662 -4.85829 -3.51753 0
M  V30 8803 H 845.341 -5.45174 -3.48417 0
M  V30 8804 N 845.473 0.80434 -1.35529 0
M  V30 8805 C 846.383 1.94784 -1.30753 0
M  V30 8806 C 847.399 1.72703 -0.212071 0
M  V30 8807 O 848.575 1.96494 -0.441841 0
M  V30 8808 C 845.64 3.29406 -1.08133 0
M  V30 8809 C 844.701 3.64367 -2.27013 0
M  V30 8810 C 843.934 4.92566 -2.05463 0
M  V30 8811 O 844.157 5.61166 -1.02222 0
M  V30 8812 O 843.091 5.25838 -2.92879 0
M  V30 8813 H 846.917 2.01761 -2.26994 0
M  V30 8814 H 844.502 0.942448 -1.15924 0
M  V30 8815 H 846.384 4.09995 -0.973756 0
M  V30 8816 H 845.059 3.23355 -0.149444 0
M  V30 8817 H 843.966 2.84146 -2.43335 0
M  V30 8818 H 845.299 3.75125 -3.18656 0
M  V30 8819 N 846.951 1.19563 1.02676 0
M  V30 8820 C 847.914 0.937182 2.09164 0
M  V30 8821 C 848.914 -0.0831927 1.60585 0
M  V30 8822 O 850.104 0.15178 1.73538 0
M  V30 8823 C 847.236 0.408912 3.38439 0
M  V30 8824 H 848.429 1.88164 2.33526 0
M  V30 8825 H 845.982 1.00959 1.19319 0
M  V30 8826 H 846.717 -0.541497 3.19747 0
M  V30 8827 H 846.502 1.14464 3.7502 0
M  V30 8828 H 847.992 0.247242 4.16867 0
M  V30 8829 N 848.429 -1.21819 0.999893 0
M  V30 8830 C 849.669 -1.92473 0.687996 0
M  V30 8831 C 850.033 -1.76033 -0.766569 0
M  V30 8832 O 851.234 -2.41013 -1.19021 0
M  V30 8833 C 849.505 -3.40332 1.09129 0
M  V30 8834 S 851.064 -4.29496 0.898822 0
M  V30 8835 H 847.882 -0.665097 0.251329 0
M  V30 8836 H 850.484 -1.47454 1.28364 0
M  V30 8837 H 849.188 -3.49812 2.14615 0
M  V30 8838 H 848.719 -3.90365 0.487724 0
M  V30 8839 H 850.734 -4.95769 -0.206873 0
M  V30 8840 N 849.908 -0.773975 -1.37286 0
M  V30 8841 C 851.185 -0.263942 -1.93811 0
M  V30 8842 C 851.565 1.24138 -1.70743 0
M  V30 8843 O 850.913 2.02557 -1.05749 0
M  V30 8844 C 851.123 -0.639753 -3.43086 0
M  V30 8845 C 852.471 -0.610796 -4.20184 0
M  V30 8846 O 853.495 -0.579278 -3.51458 0
M  V30 8847 O 852.354 -0.639862 -5.42741 0
M  V30 8848 H 849.448 -0.0614331 -0.824715 0
M  V30 8849 H 851.994 -0.855477 -1.46559 0
M  V30 8850 H 850.766 -1.67856 -3.53469 0
M  V30 8851 H 850.389 -0.0212827 -3.97594 0
M  V30 8852 N 851.386 1.48609 -0.524698 0
M  V30 8853 C 852.296 2.33318 0.244923 0
M  V30 8854 C 853.312 1.46153 0.944214 0
M  V30 8855 O 854.488 1.79141 0.920347 0
M  V30 8856 C 851.553 3.22149 1.28144 0
M  V30 8857 C 850.614 4.25184 0.593068 0
M  V30 8858 C 849.847 5.0977 1.5802 0
M  V30 8859 O 850.07 4.96249 2.81235 0
M  V30 8860 O 849.004 5.9134 1.1225 0
M  V30 8861 H 852.83 3.00362 -0.449066 0
M  V30 8862 H 850.415 1.46643 -0.285689 0
M  V30 8863 H 852.297 3.77111 1.88057 0
M  V30 8864 H 850.972 2.57772 1.95793 0
M  V30 8865 H 849.879 3.74071 -0.0464214 0
M  V30 8866 H 851.212 4.92183 -0.0413893 0
M  V30 8867 N 852.864 0.259585 1.55447 0
M  V30 8868 C 853.794 -0.62852 2.24882 0
M  V30 8869 C 854.775 -1.17128 1.23349 0
M  V30 8870 O 855.96 -1.20829 1.52033 0
M  V30 8871 C 853.09 -1.81983 2.95803 0
M  V30 8872 C 852.044 -1.40929 4.04132 0
M  V30 8873 C 851.37 -2.68246 4.62545 0
M  V30 8874 C 852.67 -0.570956 5.1917 0
M  V30 8875 H 854.364 -0.0495021 2.99359 0
M  V30 8876 H 851.91 -0.0223688 1.43983 0
M  V30 8877 H 853.863 -2.44689 3.43082 0
M  V30 8878 H 852.587 -2.42444 2.18835 0
M  V30 8879 H 851.246 -0.805519 3.57641 0
M  V30 8880 H 850.894 -3.26931 3.82263 0
M  V30 8881 H 850.594 -2.41495 5.35681 0
M  V30 8882 H 852.118 -3.31827 5.12565 0
M  V30 8883 H 853.532 -1.10262 5.62597 0
M  V30 8884 H 851.929 -0.398979 5.98772 0
M  V30 8885 H 852.999 0.413918 4.8313 0
M  V30 8886 N 854.342 -1.57594 -0.0133615 0
M  V30 8887 C 855.59 -1.89605 -0.699596 0
M  V30 8888 C 855.911 -0.85926 -1.75048 0
M  V30 8889 O 855.181 0.105112 -1.95618 0
M  V30 8890 H 853.761 -0.699776 -0.261385 0
M  V30 8891 H 856.423 -1.94885 0.0244044 0
M  V30 8892 H 855.519 -2.88962 -1.17928 0
M  V30 8893 N 855.82 0.285905 -1.54985 0
M  V30 8894 C 857.069 1.01691 -1.74189 0
M  V30 8895 C 857.382 1.87908 -0.543135 0
M  V30 8896 O 858.588 2.64389 -0.617305 0
M  V30 8897 C 857.044 1.85785 -3.0824 0
M  V30 8898 C 856.652 1.04497 -4.35642 0
M  V30 8899 C 858.396 2.58393 -3.36798 0
M  V30 8900 C 856.303 1.87955 -5.60738 0
M  V30 8901 H 855.233 0.383396 -0.649248 0
M  V30 8902 H 857.884 0.27317 -1.81455 0
M  V30 8903 H 856.266 2.64205 -2.94978 0
M  V30 8904 H 857.44 0.305847 -4.59784 0
M  V30 8905 H 855.755 0.434023 -4.14132 0
M  V30 8906 H 858.352 3.21214 -4.27464 0
M  V30 8907 H 858.695 3.28011 -2.56349 0
M  V30 8908 H 859.228 1.87012 -3.511 0
M  V30 8909 H 855.967 1.22781 -6.43898 0
M  V30 8910 H 855.487 2.59499 -5.40759 0
M  V30 8911 H 857.166 2.45636 -5.98558 0
M  V30 8912 N 857.298 1.47698 0.54982 0
M  V30 8913 C 858.547 1.53961 1.30303 0
M  V30 8914 C 858.86 0.209731 1.94472 0
M  V30 8915 O 860.066 0.150418 2.71083 0
M  V30 8916 C 858.522 2.71436 2.36328 0
M  V30 8917 C 858.13 4.10983 1.78316 0
M  V30 8918 C 859.874 2.86996 3.12783 0
M  V30 8919 C 857.781 5.19747 2.82164 0
M  V30 8920 H 856.711 0.573098 0.489975 0
M  V30 8921 H 859.362 1.73989 0.583089 0
M  V30 8922 H 857.744 2.44801 3.11269 0
M  V30 8923 H 858.918 4.47552 1.09697 0
M  V30 8924 H 857.233 4.00371 1.1442 0
M  V30 8925 H 859.83 3.65422 3.90347 0
M  V30 8926 H 860.173 1.95712 3.67427 0
M  V30 8927 H 860.706 3.13436 2.44954 0
M  V30 8928 H 857.445 6.12932 2.32366 0
M  V30 8929 H 856.965 4.87688 3.49171 0
M  V30 8930 H 858.644 5.47014 3.4552 0
M  V30 8931 N 858.776 -0.797141 1.35954 0
M  V30 8932 C 859.706 -1.92387 1.32323 0
M  V30 8933 C 860.687 -1.68967 0.196007 0
M  V30 8934 O 861.872 -1.90193 0.39245 0
M  V30 8935 C 859.002 -3.29286 1.10398 0
M  V30 8936 C 857.956 -3.67212 2.19862 0
M  V30 8937 C 857.282 -5.02377 1.8309 0
M  V30 8938 C 858.582 -3.76602 3.61896 0
M  V30 8939 H 860.276 -1.95683 2.26602 0
M  V30 8940 H 857.822 -0.94007 1.09081 0
M  V30 8941 H 859.775 -4.07721 1.06495 0
M  V30 8942 H 858.499 -3.26358 0.125668 0
M  V30 8943 H 857.158 -2.91069 2.22878 0
M  V30 8944 H 856.806 -4.95961 0.838527 0
M  V30 8945 H 856.506 -5.28722 2.56372 0
M  V30 8946 H 858.03 -5.8324 1.80729 0
M  V30 8947 H 859.444 -4.45246 3.6115 0
M  V30 8948 H 857.841 -4.14425 4.34018 0
M  V30 8949 H 858.911 -2.77906 3.97361 0
M  V30 8950 N 860.254 -1.20106 -1.0204 0
M  V30 8951 C 861.217 -0.948261 -2.08664 0
M  V30 8952 C 862.217 0.0746753 -1.60627 0
M  V30 8953 O 863.407 -0.160981 -1.73455 0
M  V30 8954 C 860.539 -0.426854 -3.38217 0
M  V30 8955 H 861.732 -1.894 -2.32524 0
M  V30 8956 H 859.285 -1.0159 -1.18782 0
M  V30 8957 H 860.02 0.524532 -3.2003 0
M  V30 8958 H 859.805 -1.16451 -3.74408 0
M  V30 8959 H 861.295 -0.269346 -4.1673 0
M  V30 8960 N 861.732 1.21287 -1.00634 0
M  V30 8961 C 862.682 2.21541 -0.53886 0
M  V30 8962 C 863.666 1.55842 0.400256 0
M  V30 8963 O 864.858 1.75566 0.224889 0
M  V30 8964 C 861.987 3.43047 0.131796 0
M  V30 8965 C 861.073 4.1593 -0.828419 0
M  V30 8966 N 861.464 4.65359 -1.98178 0
M  V30 8967 C 859.762 4.41281 -0.647083 0
M  V30 8968 C 860.463 5.21079 -2.58557 0
M  V30 8969 N 859.439 5.10531 -1.86705 0
M  V30 8970 H 863.241 2.57413 -1.41831 0
M  V30 8971 H 860.755 1.37109 -0.870338 0
M  V30 8972 H 862.752 4.14079 0.484178 0
M  V30 8973 H 861.412 3.08683 1.00721 0
M  V30 8974 H 862.423 4.60896 -2.3621 0
M  V30 8975 H 859.1 4.17107 0.181139 0
M  V30 8976 H 860.49 5.6977 -3.56107 0
M  V30 8977 N 863.21 0.781244 1.36873 0
M  V30 8978 C 864.438 0.361566 2.03716 0
M  V30 8979 C 864.853 -1.01937 1.58916 0
M  V30 8980 O 864.21 -1.65237 0.774783 0
M  V30 8981 C 864.261 0.406391 3.59208 0
M  V30 8982 O 863.982 1.73286 4.02372 0
M  V30 8983 C 865.483 -0.0236894 4.43294 0
M  V30 8984 H 862.703 0.150133 0.653988 0
M  V30 8985 H 865.247 1.05781 1.75016 0
M  V30 8986 H 863.402 -0.241364 3.86647 0
M  V30 8987 H 863.816 1.67804 4.96933 0
M  V30 8988 H 865.29 0.0588205 5.51969 0
M  V30 8989 H 865.767 -1.07529 4.25833 0
M  V30 8990 H 866.373 0.59624 4.211 0
M  V30 8991 N 864.689 -1.48329 0.532571 0
M  V30 8992 C 865.637 -2.31336 -0.242133 0
M  V30 8993 C 866.631 -1.41391 -0.933006 0
M  V30 8994 O 867.837 -1.58284 -0.857096 0
M  V30 8995 H 864.212 -0.745724 -0.0969536 0
M  V30 8996 H 866.183 -2.94555 0.477504 0
M  V30 8997 C 864.932 -3.23501 -1.27446 0
M  V30 8998 H 864.255 -3.92659 -0.752261 0
M  V30 8999 H 865.695 -3.84461 -1.78789 0
M  V30 9000 C 864.154 -2.45288 -2.30944 0
M  V30 9001 O 864.684 -2.17955 -3.37429 0
M  V30 9002 N 862.89 -2.06737 -2.04226 0
M  V30 9003 H 862.437 -2.29166 -1.17647 0
M  V30 9004 H 862.395 -1.54719 -2.73696 0
M  V30 9005 N 866.167 -0.267825 -1.55308 0
M  V30 9006 C 867.097 0.616585 -2.25212 0
M  V30 9007 C 868.078 1.16472 -1.23969 0
M  V30 9008 O 869.263 1.20021 -1.52672 0
M  V30 9009 C 866.393 1.80412 -2.96764 0
M  V30 9010 C 865.347 1.38784 -4.04874 0
M  V30 9011 C 864.673 2.65789 -4.63961 0
M  V30 9012 C 865.973 0.543415 -5.19465 0
M  V30 9013 H 867.667 0.0336257 -2.99381 0
M  V30 9014 H 865.213 0.0147328 -1.43992 0
M  V30 9015 H 867.166 2.42866 -3.44375 0
M  V30 9016 H 865.89 2.4128 -2.20118 0
M  V30 9017 H 864.549 0.786541 -3.58063 0
M  V30 9018 H 864.197 3.24899 -3.83992 0
M  V30 9019 H 863.897 2.38651 -5.36954 0
M  V30 9020 H 865.421 3.29104 -5.14318 0
M  V30 9021 H 866.835 1.07277 -5.63174 0
M  V30 9022 H 865.232 0.367219 -5.98975 0
M  V30 9023 H 866.302 -0.439534 -4.82904 0
M  V30 9024 N 867.645 1.57599 0.00500368 0
M  V30 9025 C 869.061 1.55463 0.361015 0
M  V30 9026 C 869.261 0.997051 1.75103 0
M  V30 9027 O 868.317 0.628661 2.44549 0
M  V30 9028 C 869.63 2.99734 0.240828 0
M  V30 9029 C 871.178 3.11399 0.316138 0
M  V30 9030 C 871.653 4.57446 0.22513 0
M  V30 9031 N 873.144 4.62334 0.283186 0
M  V30 9032 C 873.879 5.72914 0.23603 0
M  V30 9033 N 873.375 6.92659 0.139762 0
M  V30 9034 N 875.168 5.61364 0.287529 0
M  V30 9035 H 867.319 1.92185 -0.904359 0
M  V30 9036 H 869.582 0.882529 -0.34619 0
M  V30 9037 H 869.288 3.44348 -0.715343 0
M  V30 9038 H 869.162 3.63009 1.02491 0
M  V30 9039 H 871.549 2.66718 1.26275 0
M  V30 9040 H 871.63 2.50911 -0.497725 0
M  V30 9041 H 871.274 5.02801 -0.717917 0
M  V30 9042 H 871.204 5.15874 1.05742 0
M  V30 9043 H 873.695 3.7619 0.359123 0
M  V30 9044 H 874.008 7.72722 0.10954 0
M  V30 9045 H 872.353 6.9492 0.105462 0
M  V30 9046 H 875.544 4.66707 0.360897 0
M  V30 9047 H 875.717 6.47528 0.247313 0
M  V30 9048 N 869.123 -0.277682 1.55134 0
M  V30 9049 C 870.053 -1.34742 1.90701 0
M  V30 9050 C 871.034 -1.51757 0.768354 0
M  V30 9051 O 872.219 -1.64879 1.02609 0
M  V30 9052 C 869.349 -2.70775 2.17481 0
M  V30 9053 C 868.303 -2.68497 3.33307 0
M  V30 9054 C 867.629 -4.08037 3.45557 0
M  V30 9055 C 868.929 -2.28178 4.69821 0
M  V30 9056 H 870.623 -1.05224 2.803 0
M  V30 9057 H 868.169 -0.504738 1.34864 0
M  V30 9058 H 870.122 -3.45719 2.40949 0
M  V30 9059 H 868.846 -3.01867 1.24676 0
M  V30 9060 H 867.505 -1.9601 3.09799 0
M  V30 9061 H 867.153 -4.36344 2.50226 0
M  V30 9062 H 866.853 -4.07409 4.23429 0
M  V30 9063 H 868.377 -4.84726 3.71312 0
M  V30 9064 H 869.791 -2.92843 4.92865 0
M  V30 9065 H 868.188 -2.3872 5.50575 0
M  V30 9066 H 869.258 -1.23308 4.6896 0
M  V30 9067 N 870.601 -1.47988 -0.541979 0
M  V30 9068 C 871.848 -1.55393 -1.29843 0
M  V30 9069 C 872.176 -0.222668 -1.93221 0
M  V30 9070 O 871.431 0.785936 -1.79225 0
M  V30 9071 C 871.73 -2.63189 -2.41798 0
M  V30 9072 C 871.396 -4.05999 -1.96151 0
M  V30 9073 C 870.058 -4.44872 -1.83419 0
M  V30 9074 C 872.41 -4.95545 -1.61507 0
M  V30 9075 C 869.738 -5.71108 -1.34361 0
M  V30 9076 C 872.09 -6.22259 -1.13915 0
M  V30 9077 C 870.754 -6.59998 -0.997911 0
M  V30 9078 H 870.024 -0.568623 -0.47513 0
M  V30 9079 H 872.671 -1.81654 -0.606142 0
M  V30 9080 H 870.976 -2.30743 -3.16647 0
M  V30 9081 H 872.673 -2.66138 -2.99953 0
M  V30 9082 H 869.263 -3.75294 -2.07008 0
M  V30 9083 H 873.447 -4.662 -1.70209 0
M  V30 9084 H 868.703 -5.99083 -1.22103 0
M  V30 9085 H 872.877 -6.91048 -0.861755 0
M  V30 9086 H 870.504 -7.57704 -0.615561 0
M  V30 9087 N 872.079 0.78992 -1.36375 0
M  V30 9088 C 873.029 1.89227 -1.27189 0
M  V30 9089 C 874.013 1.60067 -0.163498 0
M  V30 9090 O 875.205 1.72507 -0.396262 0
M  V30 9091 C 872.334 3.26431 -1.06292 0
M  V30 9092 C 871.42 3.61602 -2.21596 0
M  V30 9093 N 871.811 3.68086 -3.4691 0
M  V30 9094 C 870.109 3.9166 -2.1335 0
M  V30 9095 C 870.81 3.99481 -4.22835 0
M  V30 9096 N 869.786 4.14438 -3.5177 0
M  V30 9097 H 873.588 1.92465 -2.22113 0
M  V30 9098 H 871.102 0.985414 -1.29087 0
M  V30 9099 H 873.099 4.05267 -0.97798 0
M  V30 9100 H 871.759 3.24468 -0.122676 0
M  V30 9101 H 872.77 3.50743 -3.81051 0
M  V30 9102 H 869.447 3.97626 -1.27279 0
M  V30 9103 H 870.837 4.11425 -5.31205 0
M  V30 9104 N 873.557 1.20646 1.01402 0
M  V30 9105 C 874.507 0.925209 2.08384 0
M  V30 9106 C 875.491 -0.115994 1.60481 0
M  V30 9107 O 876.683 0.0917276 1.76762 0
M  V30 9108 C 873.812 0.48193 3.399 0
M  V30 9109 C 872.898 1.5567 3.94497 0
M  V30 9110 N 873.289 2.77971 4.2257 0
M  V30 9111 C 871.587 1.42347 4.22674 0
M  V30 9112 C 872.288 3.47317 4.66632 0
M  V30 9113 N 871.264 2.74736 4.69064 0
M  V30 9114 H 875.066 1.85452 2.28002 0
M  V30 9115 H 872.58 1.10084 1.19395 0
M  V30 9116 H 874.577 0.261835 4.16077 0
M  V30 9117 H 873.237 -0.440725 3.21695 0
M  V30 9118 H 874.248 3.14598 4.11398 0
M  V30 9119 H 870.925 0.565417 4.13654 0
M  V30 9120 H 872.315 4.51985 4.97151 0
M  V30 9121 O 875.074 -1.14398 1.13997 0
M  V30 9122 H 875.765 -1.73596 0.859308 0
M  V30 END ATOM
M  V30 BEGIN BOND
M  V30 END BOND
M  V30 END CTAB
M  END
$$$$
