drugbank_target|P30419 Glycylpeptide N-tetradecanoyltransferase 1 (DB03062)
 OpenBabel12092120513D

  0  0  0     0  0            999 V3000
M  V30 BEGIN CTAB
M  V30 COUNTS 7978 8080 0 0 0
M  V30 BEGIN ATOM
M  V30 1 H -0.908 1.98254 -0.117106 0
M  V30 2 N 0 1.576 0 0
M  V30 3 C 0.933 2.03868 1.02534 0
M  V30 4 C 1.911 0.928543 1.3348 0
M  V30 5 O 3.095 1.19667 1.45644 0
M  V30 6 C 0.222 2.43627 2.35294 0
M  V30 7 C -0.732 3.65373 2.2001 0
M  V30 8 S 0.101 5.13292 1.52614 0
M  V30 9 C 1.257 5.56322 2.86805 0
M  V30 10 H 1.49 2.90518 0.631377 0
M  V30 11 H -0.977 1.52953 0.210867 0
M  V30 12 H 0.981 2.67203 3.11629 0
M  V30 13 H -0.358 1.57376 2.7183 0
M  V30 14 H -1.165 3.90944 3.18086 0
M  V30 15 H -1.563 3.418 1.51819 0
M  V30 16 H 0.729 5.58782 3.83104 0
M  V30 17 H 1.672 6.56266 2.65933 0
M  V30 18 H 2.08 4.83886 2.90714 0
M  V30 19 N 1.4781 -0.272755 1.55222 0
M  V30 20 C 2.4411 -1.32041 1.87344 0
M  V30 21 C 3.4411 -1.42342 0.74803 0
M  V30 22 O 4.6311 -1.41488 1.0162 0
M  V30 23 C 1.7631 -2.70173 2.07893 0
M  V30 24 H 2.9561 -1.04789 2.80997 0
M  V30 25 H 0.5091 -0.51083 1.47717 0
M  V30 26 H 1.2441 -3.02605 1.16622 0
M  V30 27 H 1.0291 -2.64082 2.89833 0
M  V30 28 H 2.5191 -3.45869 2.34017 0
M  V30 29 N 2.9562 -1.48159 -0.537278 0
M  V30 30 C 4.2332 -1.46291 -1.29839 0
M  V30 31 C 4.6132 -0.170613 -2.10409 0
M  V30 32 O 3.9612 0.847746 -2.12192 0
M  V30 33 C 4.1712 -2.72055 -2.18603 0
M  V30 34 C 5.5192 -3.20087 -2.7898 0
M  V30 35 O 6.5432 -2.72921 -2.28894 0
M  V30 36 O 5.4022 -4.02138 -3.70064 0
M  V30 37 H 2.4962 -0.583906 -0.585647 0
M  V30 38 H 5.0422 -1.60384 -0.554534 0
M  V30 39 H 3.8142 -3.57628 -1.58801 0
M  V30 40 H 3.4372 -2.60646 -3.00249 0
M  V30 41 N 4.4343 0.785586 -1.36625 0
M  V30 42 C 5.3443 1.92964 -1.33425 0
M  V30 43 C 6.3603 1.72394 -0.235851 0
M  V30 44 O 7.5363 1.95866 -0.468878 0
M  V30 45 C 4.6013 3.27884 -1.12662 0
M  V30 46 C 3.6623 3.61204 -2.32013 0
M  V30 47 C 2.8953 4.89687 -2.12231 0
M  V30 48 O 3.1183 5.59704 -1.09945 0
M  V30 49 O 2.0523 5.21752 -3.00098 0
M  V30 50 H 5.8783 1.98613 -2.29753 0
M  V30 51 H 3.4633 0.926384 -1.17211 0
M  V30 52 H 5.3453 4.08614 -1.03016 0
M  V30 53 H 4.0203 3.23118 -0.193991 0
M  V30 54 H 2.9273 2.80765 -2.47228 0
M  V30 55 H 4.2603 3.70698 -3.23796 0
M  V30 56 N 5.9124 1.20967 1.01018 0
M  V30 57 C 7.1374 1.0503 1.78839 0
M  V30 58 C 7.5624 -0.395752 1.8389 0
M  V30 59 O 6.9204 -1.28529 1.27867 0
M  V30 60 C 6.9684 1.64602 3.2084 0
M  V30 61 O 6.0724 0.887988 4.02726 0
M  V30 62 H 5.4134 0.369987 0.551367 0
M  V30 63 H 7.9434 1.60399 1.27018 0
M  V30 64 H 7.9534 1.68607 3.71532 0
M  V30 65 H 6.6284 2.69841 3.16479 0
M  V30 66 H 5.2054 0.922648 3.61305 0
M  V30 67 N 7.3905 -1.2043 1.01659 0
M  V30 68 C 8.3005 -2.2689 0.596484 0
M  V30 69 C 9.3165 -1.70107 -0.36599 0
M  V30 70 O 10.4925 -2.00117 -0.226942 0
M  V30 71 C 7.5575 -3.4665 -0.0586659 0
M  V30 72 C 6.6185 -4.18662 0.949751 0
M  V30 73 C 5.8515 -5.32705 0.32577 0
M  V30 74 O 6.0745 -5.63656 -0.874509 0
M  V30 75 O 5.0085 -5.92803 1.04249 0
M  V30 76 H 8.8345 -2.65041 1.4828 0
M  V30 77 H 6.4195 -1.27048 0.786082 0
M  V30 78 H 8.3015 -4.19256 -0.424564 0
M  V30 79 H 6.9765 -3.10375 -0.91918 0
M  V30 80 H 5.8835 -3.48229 1.36702 0
M  V30 81 H 7.2165 -4.58878 1.78023 0
M  V30 82 N 8.8686 -0.792821 -1.36206 0
M  V30 83 C 10.0966 -0.378825 -2.03402 0
M  V30 84 C 10.5116 1.00586 -1.59774 0
M  V30 85 O 9.8686 1.64574 -0.788764 0
M  V30 86 C 9.9196 -0.43683 -3.58851 0
M  V30 87 O 9.6406 -1.76691 -4.00889 0
M  V30 88 C 11.1416 -0.0138943 -4.43298 0
M  V30 89 H 8.3616 -0.155673 -0.652692 0
M  V30 90 H 10.9056 -1.07261 -1.74113 0
M  V30 91 H 9.0606 0.208575 -3.86838 0
M  V30 92 H 9.4746 -1.72011 -4.95492 0
M  V30 93 H 10.9486 -0.105615 -5.51899 0
M  V30 94 H 11.4256 1.03915 -4.2673 0
M  V30 95 H 12.0316 -0.63192 -4.20579 0
M  V30 96 N 10.3467 1.47872 -0.545128 0
M  V30 97 C 11.3097 2.28337 0.198717 0
M  V30 98 C 12.3097 1.36255 0.853888 0
M  V30 99 O 13.4997 1.59003 0.711606 0
M  V30 100 C 10.6317 3.15585 1.28915 0
M  V30 101 H 11.8247 2.95567 -0.507941 0
M  V30 102 H 9.3777 1.53362 -0.301616 0
M  V30 103 H 10.1127 2.53019 2.02859 0
M  V30 104 H 9.8977 3.83337 0.824309 0
M  V30 105 H 11.3877 3.76243 1.81194 0
M  V30 106 N 11.8248 0.280983 1.55075 0
M  V30 107 C 13.0708 -0.33461 2.00021 0
M  V30 108 C 13.4038 -1.55063 1.16915 0
M  V30 109 O 12.6788 -1.93006 0.240646 0
M  V30 110 C 12.9618 -0.711007 3.53011 0
M  V30 111 C 12.8148 0.512766 4.46868 0
M  V30 112 C 14.1338 -1.54522 4.12081 0
M  V30 113 H 11.2528 -0.120147 0.727141 0
M  V30 114 H 13.8948 0.389097 1.85973 0
M  V30 115 H 12.0448 -1.32761 3.65112 0
M  V30 116 H 13.7168 1.15131 4.46702 0
M  V30 117 H 11.9598 1.14975 4.18286 0
M  V30 118 H 12.6308 0.205556 5.51617 0
M  V30 119 H 15.1068 -1.02442 4.03293 0
M  V30 120 H 13.9828 -1.77739 5.19327 0
M  V30 121 H 14.2438 -2.52813 3.62682 0
M  V30 122 N 13.3029 -1.57598 0.00835791 0
M  V30 123 C 14.2499 -2.08945 -0.980346 0
M  V30 124 C 15.2199 -0.986738 -1.33614 0
M  V30 125 O 16.4049 -1.25968 -1.43306 0
M  V30 126 C 13.5449 -2.60425 -2.26435 0
M  V30 127 C 12.6579 -3.84628 -1.96685 0
M  V30 128 C 11.7929 -4.24579 -3.19228 0
M  V30 129 C 10.8319 -5.41596 -2.85202 0
M  V30 130 N 9.9689 -5.768 -4.00307 0
M  V30 131 H 14.8089 -2.93148 -0.535551 0
M  V30 132 H 12.3459 -1.44912 -0.252776 0
M  V30 133 H 14.3039 -2.88354 -3.01509 0
M  V30 134 H 12.9339 -1.79083 -2.68568 0
M  V30 135 H 11.9859 -3.63556 -1.11942 0
M  V30 136 H 13.2979 -4.69796 -1.67611 0
M  V30 137 H 12.4519 -4.53834 -4.02641 0
M  V30 138 H 11.1909 -3.38137 -3.51447 0
M  V30 139 H 10.1959 -5.12056 -2.00198 0
M  V30 140 H 11.4209 -6.29721 -2.54222 0
M  V30 141 H 9.3669 -4.93316 -4.32407 0
M  V30 142 H 9.2839 -6.5656 -3.74786 0
M  V30 143 H 10.5519 -6.10652 -4.84484 0
M  V30 144 N 14.781 0.264519 -1.55364 0
M  V30 145 C 16.192 0.834936 -1.6699 0
M  V30 146 C 16.543 1.86718 -0.602552 0
M  V30 147 O 15.668 2.14899 0.254425 0
M  V30 148 C 16.263 1.5212 -3.02729 0
M  V30 149 C 14.822 2.03954 -3.16354 0
M  V30 150 C 13.969 0.884498 -2.62815 0
M  V30 151 H 16.92 0.0406869 -1.58648 0
M  V30 152 H 16.941 2.38853 -2.96191 0
M  V30 153 H 16.453 0.769668 -3.80392 0
M  V30 154 H 14.554 2.82041 -2.43482 0
M  V30 155 H 14.667 2.24902 -4.23032 0
M  V30 156 H 13.031 1.2802 -2.20188 0
M  V30 157 H 13.814 0.14634 -3.42988 0
M  V30 158 N 16.2591 1.48442 0.529413 0
M  V30 159 C 17.6701 1.5002 1.11134 0
M  V30 160 C 18.0211 0.27031 1.94329 0
M  V30 161 O 17.1461 -0.622507 2.07253 0
M  V30 162 C 17.7411 2.71834 2.02217 0
M  V30 163 C 16.3001 2.76283 2.55627 0
M  V30 164 C 15.4471 2.43542 1.326 0
M  V30 165 H 18.3981 1.5555 0.314641 0
M  V30 166 H 18.4191 2.50384 2.8651 0
M  V30 167 H 17.9311 3.61331 1.41639 0
M  V30 168 H 16.0321 1.90995 3.19924 0
M  V30 169 H 16.1451 3.77725 2.94721 0
M  V30 170 H 14.5091 1.94709 1.64196 0
M  V30 171 H 15.2921 3.3528 0.737734 0
M  V30 172 N 17.7372 -0.778329 1.37039 0
M  V30 173 C 18.7002 -1.87301 1.32102 0
M  V30 174 C 19.7002 -1.59198 0.226405 0
M  V30 175 O 20.8902 -1.67403 0.481861 0
M  V30 176 C 18.0222 -3.24309 1.05055 0
M  V30 177 H 19.2152 -1.93093 2.29467 0
M  V30 178 H 16.7682 -0.977358 1.21973 0
M  V30 179 H 17.5032 -3.24196 0.0819373 0
M  V30 180 H 17.2882 -3.46098 1.84279 0
M  V30 181 H 18.7782 -4.04382 1.04234 0
M  V30 182 N 19.2153 -1.21501 -1.00376 0
M  V30 183 C 20.6263 -1.03146 -1.55621 0
M  V30 184 C 20.9773 0.408375 -1.91903 0
M  V30 185 O 20.1023 1.29177 -1.73616 0
M  V30 186 C 20.6973 -1.86612 -2.82775 0
M  V30 187 C 19.2563 -1.72586 -3.34501 0
M  V30 188 C 18.4033 -1.83747 -2.07683 0
M  V30 189 H 21.3543 -1.35505 -0.826081 0
M  V30 190 H 21.3753 -1.3771 -3.54706 0
M  V30 191 H 20.8873 -2.91399 -2.56336 0
M  V30 192 H 18.9883 -0.704877 -3.65872 0
M  V30 193 H 19.1013 -2.54623 -4.05837 0
M  V30 194 H 17.4653 -1.27069 -2.20739 0
M  V30 195 H 18.2483 -2.90044 -1.83655 0
M  V30 196 N 20.6934 1.19889 -1.02296 0
M  V30 197 C 22.1044 1.71124 -0.746568 0
M  V30 198 C 22.4554 1.81939 0.734335 0
M  V30 199 O 21.5804 1.48639 1.57275 0
M  V30 200 C 22.1754 3.10804 -1.34857 0
M  V30 201 C 20.7344 3.59323 -1.1209 0
M  V30 202 C 19.8814 2.3635 -1.45031 0
M  V30 203 H 22.8324 1.04813 -1.19163 0
M  V30 204 H 22.8534 3.73186 -0.742437 0
M  V30 205 H 22.3654 3.029 -2.42638 0
M  V30 206 H 20.4664 3.7255 -0.0610337 0
M  V30 207 H 20.5794 4.4378 -1.80544 0
M  V30 208 H 18.9434 2.39399 -0.869487 0
M  V30 209 H 19.7264 2.31081 -2.53883 0
M  V30 210 N 22.1715 0.800033 1.35784 0
M  V30 211 C 23.1015 0.220184 2.3246 0
M  V30 212 C 24.0825 -0.65073 1.57161 0
M  V30 213 O 25.2675 -0.582359 1.85263 0
M  V30 214 C 22.3975 -0.637353 3.41402 0
M  V30 215 C 21.3515 0.134531 4.27789 0
M  V30 216 C 20.6775 -0.844285 5.27992 0
M  V30 217 C 21.9775 1.32979 5.05088 0
M  V30 218 H 23.6715 1.02787 2.81203 0
M  V30 219 H 21.2175 0.495717 1.35199 0
M  V30 220 H 23.1705 -1.05302 4.08031 0
M  V30 221 H 21.8945 -1.47785 2.91251 0
M  V30 222 H 20.5535 0.531296 3.6273 0
M  V30 223 H 20.2015 -1.68011 4.74111 0
M  V30 224 H 19.9015 -0.332184 5.8666 0
M  V30 225 H 21.4255 -1.2583 5.97494 0
M  V30 226 H 22.8395 0.98934 5.64699 0
M  V30 227 H 21.2365 1.77593 5.7322 0
M  V30 228 H 22.3065 2.11978 4.36111 0
M  V30 229 N 23.6496 -1.47581 0.552962 0
M  V30 230 C 25.0606 -1.86324 0.118463 0
M  V30 231 C 25.4116 -1.46006 -1.3106 0
M  V30 232 O 24.5366 -0.861182 -1.98526 0
M  V30 233 C 25.1316 -3.3816 0.20821 0
M  V30 234 C 23.6906 -3.7601 -0.171226 0
M  V30 235 C 22.8376 -2.71634 0.557686 0
M  V30 236 H 25.7886 -1.39159 0.762928 0
M  V30 237 H 25.8096 -3.76141 -0.574278 0
M  V30 238 H 25.3216 -3.67473 1.24841 0
M  V30 239 H 23.4226 -3.52313 -1.21269 0
M  V30 240 H 23.5356 -4.78745 0.184379 0
M  V30 241 H 21.8996 -2.547 0.00125792 0
M  V30 242 H 22.6826 -3.0379 1.59896 0
M  V30 243 N 25.1277 -0.289203 -1.54924 0
M  V30 244 C 26.0597 0.625583 -2.20497 0
M  V30 245 C 27.0727 1.10667 -1.19402 0
M  V30 246 O 28.2617 1.02615 -1.46056 0
M  V30 247 C 25.3617 1.86702 -2.82835 0
M  V30 248 C 24.5347 1.5304 -4.09753 0
M  V30 249 C 23.5937 2.62576 -4.56005 0
M  V30 250 O 22.6197 2.28167 -5.21468 0
M  V30 251 N 23.8217 3.92901 -4.27328 0
M  V30 252 H 26.5867 0.0642801 -2.99631 0
M  V30 253 H 24.1477 -0.110896 -1.6152 0
M  V30 254 H 26.1397 2.59304 -3.10715 0
M  V30 255 H 24.7097 2.33702 -2.07611 0
M  V30 256 H 23.9297 0.637564 -3.8901 0
M  V30 257 H 25.2177 1.28072 -4.92418 0
M  V30 258 H 24.6157 4.23671 -3.74859 0
M  V30 259 H 23.1727 4.61837 -4.59946 0
M  V30 260 N 26.6058 1.57591 -0.0167156 0
M  V30 261 C 27.5388 2.04944 1.00366 0
M  V30 262 C 28.5168 0.942648 1.32487 0
M  V30 263 O 29.7008 1.21205 1.44367 0
M  V30 264 C 26.8278 2.46109 2.32697 0
M  V30 265 C 25.8738 3.67686 2.16123 0
M  V30 266 S 26.7068 5.14882 1.47161 0
M  V30 267 C 27.8628 5.59332 2.80888 0
M  V30 268 H 28.0958 2.91172 0.600528 0
M  V30 269 H 25.6288 1.53168 0.194632 0
M  V30 270 H 27.5868 2.70493 3.08778 0
M  V30 271 H 26.2478 1.6025 2.70146 0
M  V30 272 H 25.4408 3.94296 3.13922 0
M  V30 273 H 25.0428 3.43391 1.48185 0
M  V30 274 H 27.3348 5.62814 3.77156 0
M  V30 275 H 28.2778 6.5905 2.58958 0
M  V30 276 H 28.6858 4.86942 2.85565 0
M  V30 277 N 28.0839 -0.256276 1.55502 0
M  V30 278 C 29.0169 -1.34321 1.84481 0
M  V30 279 C 29.9949 -1.46802 0.699131 0
M  V30 280 O 31.1789 -1.63165 0.943904 0
M  V30 281 C 28.3059 -2.71779 2.02123 0
M  V30 282 C 27.3519 -2.76496 3.24734 0
M  V30 283 S 28.1849 -2.3405 4.81644 0
M  V30 284 C 29.3409 -3.73452 5.02279 0
M  V30 285 H 29.5739 -1.09539 2.76385 0
M  V30 286 H 27.1069 -0.45678 1.47489 0
M  V30 287 H 29.0649 -3.50932 2.12972 0
M  V30 288 H 27.7259 -2.93803 1.11078 0
M  V30 289 H 26.9189 -3.77424 3.34016 0
M  V30 290 H 26.5209 -2.05379 3.12563 0
M  V30 291 H 28.8129 -4.6887 4.89047 0
M  V30 292 H 29.7559 -3.6911 6.04287 0
M  V30 293 H 30.1639 -3.6553 4.30172 0
M  V30 294 N 29.562 -1.4872 -0.521534 0
M  V30 295 C 30.472 -1.66569 -1.65203 0
M  V30 296 C 31.488 -0.548197 -1.65139 0
M  V30 297 O 32.664 -0.820339 -1.83936 0
M  V30 298 C 29.729 -1.70917 -3.01642 0
M  V30 299 C 28.79 -2.94356 -3.12495 0
M  V30 300 C 28.023 -2.98487 -4.42426 0
M  V30 301 O 28.246 -2.10786 -5.30024 0
M  V30 302 O 27.18 -3.90746 -4.57822 0
M  V30 303 H 31.006 -2.62298 -1.5308 0
M  V30 304 H 28.591 -1.3222 -0.695565 0
M  V30 305 H 30.473 -1.7625 -3.82771 0
M  V30 306 H 29.148 -0.783633 -3.14071 0
M  V30 307 H 28.055 -2.94552 -2.3063 0
M  V30 308 H 29.388 -3.86322 -3.04986 0
M  V30 309 N 31.0401 0.771051 -1.3745 0
M  V30 310 C 32.2881 1.52661 -1.32435 0
M  V30 311 C 32.6091 1.9479 0.0905024 0
M  V30 312 O 31.8791 1.66348 1.03466 0
M  V30 313 H 30.4591 0.566218 -0.487244 0
M  V30 314 H 33.1211 0.917636 -1.71946 0
M  V30 315 H 32.2171 2.42568 -1.96385 0
M  V30 316 N 32.5182 1.22032 0.997298 0
M  V30 317 C 33.4662 0.983634 2.10778 0
M  V30 318 C 34.4602 -0.0717564 1.69248 0
M  V30 319 O 35.6662 0.080304 1.79821 0
M  V30 320 H 32.0412 0.300877 0.689186 0
M  V30 321 H 34.0122 1.92606 2.27916 0
M  V30 322 C 32.7612 0.57326 3.42942 0
M  V30 323 H 32.0842 1.37702 3.75338 0
M  V30 324 H 33.5242 0.447031 4.21637 0
M  V30 325 C 31.9832 -0.7167 3.29188 0
M  V30 326 O 32.5132 -1.77027 3.60589 0
M  V30 327 N 30.7192 -0.686167 2.82383 0
M  V30 328 H 30.2662 0.171507 2.57028 0
M  V30 329 H 30.2242 -1.54955 2.73562 0
M  V30 330 N 33.9963 -1.19345 1.0293 0
M  V30 331 C 35.2443 -1.88665 0.724574 0
M  V30 332 C 35.5653 -1.80036 -0.749144 0
M  V30 333 O 34.8353 -1.2111 -1.53978 0
M  V30 334 H 33.4153 -0.698406 0.265025 0
M  V30 335 H 36.0773 -1.44885 1.30362 0
M  V30 336 H 35.1733 -2.94987 1.01926 0
M  V30 337 N 35.4744 -0.807222 -1.35358 0
M  V30 338 C 36.4224 -0.20614 -2.31685 0
M  V30 339 C 37.4164 0.644445 -1.56663 0
M  V30 340 O 38.6224 0.537538 -1.71786 0
M  V30 341 H 34.9974 -0.0479006 -0.750473 0
M  V30 342 H 36.9684 -1.03369 -2.79924 0
M  V30 343 C 35.7174 0.630212 -3.41941 0
M  V30 344 H 35.0404 -0.0149558 -3.99797 0
M  V30 345 H 36.4804 1.01716 -4.11619 0
M  V30 346 C 34.9394 1.79601 -2.85035 0
M  V30 347 O 35.4694 2.89351 -2.78637 0
M  V30 348 N 33.6754 1.60774 -2.42074 0
M  V30 349 H 33.2224 0.715009 -2.47478 0
M  V30 350 H 33.1804 2.38933 -2.04349 0
M  V30 351 N 36.9525 1.47285 -0.560781 0
M  V30 352 C 38.2005 2.02064 -0.0379868 0
M  V30 353 C 38.5215 1.43711 1.31803 0
M  V30 354 O 37.7915 0.61362 1.86042 0
M  V30 355 H 36.3715 0.746918 -0.0110531 0
M  V30 356 H 39.0335 1.80648 -0.731598 0
M  V30 357 H 38.1295 3.12064 0.0474463 0
M  V30 358 N 38.4306 0.297415 1.54768 0
M  V30 359 C 39.3806 -0.595275 2.20092 0
M  V30 360 C 40.3646 -1.10163 1.17273 0
M  V30 361 O 41.5566 -1.043 1.43006 0
M  V30 362 C 38.6856 -1.7684 2.94249 0
M  V30 363 C 37.7716 -1.27818 4.0438 0
M  V30 364 N 38.1626 -0.505695 5.03266 0
M  V30 365 C 36.4606 -1.55923 4.17857 0
M  V30 366 C 37.1616 -0.245094 5.81183 0
M  V30 367 N 36.1376 -0.823881 5.3732 0
M  V30 368 H 39.9396 0.00250837 2.939 0
M  V30 369 H 37.4536 0.102007 1.62079 0
M  V30 370 H 39.4506 -2.41944 3.39513 0
M  V30 371 H 38.1106 -2.36992 2.21957 0
M  V30 372 H 39.1216 -0.150928 5.1768 0
M  V30 373 H 35.7986 -2.16849 3.56767 0
M  V30 374 H 37.1886 0.375084 6.70852 0
M  V30 375 N 39.9087 -1.5758 0.0250728 0
M  V30 376 C 40.8187 -2.1343 -0.973905 0
M  V30 377 C 41.8347 -1.08556 -1.35984 0
M  V30 378 O 43.0107 -1.40592 -1.44207 0
M  V30 379 C 40.0757 -2.64703 -2.23904 0
M  V30 380 C 39.1367 -3.84276 -1.91391 0
M  V30 381 C 38.3697 -4.33095 -3.11873 0
M  V30 382 O 38.5927 -3.81107 -4.24398 0
M  V30 383 O 37.5267 -5.24984 -2.94406 0
M  V30 384 H 41.3527 -2.99057 -0.529036 0
M  V30 385 H 38.9377 -1.48118 -0.195288 0
M  V30 386 H 40.8197 -2.97769 -2.98181 0
M  V30 387 H 39.4947 -1.82161 -2.6758 0
M  V30 388 H 38.4017 -3.56143 -1.14511 0
M  V30 389 H 39.7347 -4.67968 -1.52534 0
M  V30 390 N 41.3868 0.248026 -1.55636 0
M  V30 391 C 42.3368 1.30994 -1.86614 0
M  V30 392 C 43.3208 1.43543 -0.726918 0
M  V30 393 O 44.5128 1.46804 -0.988818 0
M  V30 394 C 41.6418 2.6656 -2.16335 0
M  V30 395 C 40.7278 2.58019 -3.36581 0
M  V30 396 N 41.1188 2.1911 -4.55878 0
M  V30 397 C 39.4168 2.89035 -3.39669 0
M  V30 398 C 40.1178 2.21174 -5.38012 0
M  V30 399 N 39.0938 2.60632 -4.77045 0
M  V30 400 H 42.8958 0.999583 -2.76379 0
M  V30 401 H 40.4098 0.456652 -1.55848 0
M  V30 402 H 42.4068 3.43194 -2.36692 0
M  V30 403 H 41.0668 2.98463 -1.27867 0
M  V30 404 H 42.0778 1.90672 -4.81523 0
M  V30 405 H 38.7548 3.25485 -2.61469 0
M  V30 406 H 40.1448 1.9344 -6.43452 0
M  V30 407 N 42.8649 1.48995 0.513639 0
M  V30 408 C 44.1049 1.59452 1.27885 0
M  V30 409 C 44.4689 0.269479 1.90099 0
M  V30 410 O 45.6699 0.249139 2.67643 0
M  V30 411 C 43.9409 2.71277 2.32688 0
M  V30 412 S 45.4999 3.01604 3.18717 0
M  V30 413 H 42.3179 0.562565 0.434789 0
M  V30 414 H 44.9199 1.86595 0.583301 0
M  V30 415 H 43.6239 3.66089 1.8549 0
M  V30 416 H 43.1549 2.46086 3.06929 0
M  V30 417 H 45.1699 2.42155 4.331 0
M  V30 418 N 44.343 -0.763751 1.37857 0
M  V30 419 C 45.568 -1.55805 1.36893 0
M  V30 420 C 45.993 -1.88054 -0.0416135 0
M  V30 421 O 45.351 -1.49825 -1.02089 0
M  V30 422 C 45.399 -2.84012 2.22192 0
M  V30 423 O 44.503 -3.78732 1.63204 0
M  V30 424 H 43.844 -0.471638 0.46739 0
M  V30 425 H 46.374 -0.944657 1.81487 0
M  V30 426 H 46.384 -3.33037 2.35691 0
M  V30 427 H 45.059 -2.59869 3.24716 0
M  V30 428 H 43.636 -3.37402 1.58791 0
M  V30 429 N 45.8211 -1.22559 -0.990812 0
M  V30 430 C 47.0981 -0.959875 -1.70428 0
M  V30 431 C 47.4781 0.524455 -2.04481 0
M  V30 432 O 46.8261 1.49302 -1.72977 0
M  V30 433 C 47.0361 -1.85955 -2.95333 0
M  V30 434 C 48.3841 -2.11687 -3.68068 0
M  V30 435 O 49.4081 -1.8342 -3.05345 0
M  V30 436 O 48.2671 -2.59572 -4.80921 0
M  V30 437 H 45.3611 -0.361154 -0.743974 0
M  V30 438 H 47.9071 -1.33554 -1.04697 0
M  V30 439 H 46.6791 -2.86346 -2.66687 0
M  V30 440 H 46.3021 -1.4856 -3.68803 0
M  V30 441 N 47.2992 1.18797 -1.03562 0
M  V30 442 C 48.5392 1.90346 -0.744832 0
M  V30 443 C 48.9032 1.78231 0.713972 0
M  V30 444 O 50.1042 2.44441 1.11813 0
M  V30 445 C 48.3752 3.36942 -1.19184 0
M  V30 446 S 49.9342 4.26638 -1.02593 0
M  V30 447 H 46.7522 0.657343 -0.270963 0
M  V30 448 H 49.3542 1.43579 -1.32685 0
M  V30 449 H 48.0582 3.43287 -2.24905 0
M  V30 450 H 47.5892 3.88745 -0.603397 0
M  V30 451 H 49.6042 4.96164 0.0596033 0
M  V30 452 N 48.7773 0.814389 1.34928 0
M  V30 453 C 49.6873 0.231978 2.3345 0
M  V30 454 C 50.7033 -0.629139 1.62228 0
M  V30 455 O 51.8793 -0.539052 1.94052 0
M  V30 456 C 48.9443 -0.603482 3.41407 0
M  V30 457 C 48.0053 0.279037 4.28392 0
M  V30 458 C 47.2383 -0.516643 5.31193 0
M  V30 459 O 47.4613 -1.75068 5.4287 0
M  V30 460 O 46.3953 0.0965652 6.01823 0
M  V30 461 H 50.2213 1.04721 2.85074 0
M  V30 462 H 47.8063 0.576343 1.37836 0
M  V30 463 H 49.6883 -1.07908 4.0735 0
M  V30 464 H 48.3633 -1.39618 2.92042 0
M  V30 465 H 47.2703 0.801948 3.65403 0
M  V30 466 H 48.6033 1.03588 4.81176 0
M  V30 467 N 50.2554 -1.46986 0.568584 0
M  V30 468 C 51.2034 -2.31858 -0.185649 0
M  V30 469 C 52.1974 -1.43624 -0.898249 0
M  V30 470 O 53.4034 -1.60327 -0.818242 0
M  V30 471 H 49.7784 -0.747866 -0.0787399 0
M  V30 472 H 51.7494 -2.93303 0.549191 0
M  V30 473 C 50.4984 -3.26513 -1.19519 0
M  V30 474 H 49.8214 -3.94377 -0.656285 0
M  V30 475 H 51.2614 -3.88707 -1.6936 0
M  V30 476 C 49.7204 -2.50847 -2.24894 0
M  V30 477 O 50.2504 -2.26119 -3.32014 0
M  V30 478 N 48.4564 -2.11656 -1.99124 0
M  V30 479 H 48.0034 -2.31966 -1.12024 0
M  V30 480 H 47.9614 -1.61347 -2.69842 0
M  V30 481 N 51.7335 -0.305618 -1.54608 0
M  V30 482 C 52.6435 0.57778 -2.27374 0
M  V30 483 C 53.6595 1.14451 -1.31061 0
M  V30 484 O 54.8355 1.16831 -1.6405 0
M  V30 485 C 51.9005 1.73123 -3.00382 0
M  V30 486 C 50.9615 1.19812 -4.12242 0
M  V30 487 C 50.1945 2.2966 -4.81759 0
M  V30 488 O 50.4175 3.49651 -4.50666 0
M  V30 489 O 49.3515 1.96091 -5.69062 0
M  V30 490 H 53.1775 -0.012624 -3.03697 0
M  V30 491 H 50.7625 -0.0719184 -1.49227 0
M  V30 492 H 52.6445 2.40315 -3.4616 0
M  V30 493 H 51.3195 2.30815 -2.26949 0
M  V30 494 H 50.2265 0.491798 -3.70853 0
M  V30 495 H 51.5595 0.666566 -4.87666 0
M  V30 496 N 53.2116 1.57565 -0.0334293 0
M  V30 497 C 54.1216 2.13943 0.962572 0
M  V30 498 C 55.1376 1.09276 1.35406 0
M  V30 499 O 56.3136 1.41355 1.4346 0
M  V30 500 C 53.3786 2.65887 2.22497 0
M  V30 501 C 52.4396 3.85286 1.8935 0
M  V30 502 C 51.6726 4.34743 3.09571 0
M  V30 503 O 51.8956 3.83352 4.22371 0
M  V30 504 O 50.8296 5.26538 2.91618 0
M  V30 505 H 54.6556 2.99333 0.513169 0
M  V30 506 H 52.2406 1.4822 0.18743 0
M  V30 507 H 54.1226 2.99346 2.96598 0
M  V30 508 H 52.7976 1.83578 2.6661 0
M  V30 509 H 51.7046 3.56746 1.1262 0
M  V30 510 H 53.0376 4.68771 1.5005 0
M  V30 511 N 54.6897 -0.239769 1.55765 0
M  V30 512 C 55.9667 -0.990056 1.68693 0
M  V30 513 C 56.3467 -2.03107 0.5754 0
M  V30 514 O 55.6947 -2.24604 -0.42017 0
M  V30 515 C 55.9047 -1.61696 3.09282 0
M  V30 516 C 57.2527 -2.11613 3.6811 0
M  V30 517 O 58.2767 -1.71624 3.12127 0
M  V30 518 O 57.1357 -2.85057 4.66267 0
M  V30 519 H 54.2297 -0.461299 0.686391 0
M  V30 520 H 56.7757 -0.232991 1.68093 0
M  V30 521 H 55.5477 -0.864357 3.81634 0
M  V30 522 H 55.1707 -2.44005 3.13923 0
M  V30 523 N 56.1678 -1.49265 -0.50573 0
M  V30 524 C 57.1158 -1.66065 -1.62866 0
M  V30 525 C 58.1098 -0.526636 -1.61006 0
M  V30 526 O 59.3158 -0.706126 -1.65571 0
M  V30 527 H 55.6908 -0.52356 -0.539805 0
M  V30 528 H 57.6618 -2.60329 -1.45848 0
M  V30 529 C 56.4108 -1.74008 -3.01026 0
M  V30 530 H 55.7338 -2.6064 -3.03161 0
M  V30 531 H 57.1738 -1.89798 -3.79147 0
M  V30 532 C 55.6328 -0.483868 -3.33407 0
M  V30 533 O 56.1628 0.392548 -3.99777 0
M  V30 534 N 54.3688 -0.348236 -2.88506 0
M  V30 535 H 53.9158 -1.06242 -2.34671 0
M  V30 536 H 53.8738 0.491204 -3.10539 0
M  V30 537 N 57.6459 0.756429 -1.3826 0
M  V30 538 C 58.8709 1.55077 -1.37717 0
M  V30 539 C 59.2959 1.88073 0.03164 0
M  V30 540 O 58.6539 1.50364 1.01293 0
M  V30 541 C 58.7019 2.8283 -2.23695 0
M  V30 542 O 57.8059 3.77862 -1.6521 0
M  V30 543 H 57.1469 0.469152 -0.469885 0
M  V30 544 H 59.6769 0.935019 -1.81985 0
M  V30 545 H 59.6869 3.31783 -2.37453 0
M  V30 546 H 58.3619 2.58144 -3.2609 0
M  V30 547 H 56.9389 3.36555 -1.60578 0
M  V30 548 N 59.124 1.23083 0.984299 0
M  V30 549 C 60.354 1.08556 1.75781 0
M  V30 550 C 60.762 -0.366171 1.85623 0
M  V30 551 O 60.105 -1.26524 1.33182 0
M  V30 552 C 60.167 1.63208 3.20318 0
M  V30 553 C 59.831 3.11922 3.33997 0
M  V30 554 C 60.828 4.09259 3.2063 0
M  V30 555 C 58.513 3.51552 3.58771 0
M  V30 556 C 60.507 5.4421 3.31835 0
M  V30 557 C 58.194 4.86649 3.69616 0
M  V30 558 C 59.192 5.82787 3.56157 0
M  V30 559 O 58.88 7.15431 3.66626 0
M  V30 560 H 58.612 0.380713 0.5586 0
M  V30 561 H 61.166 1.63321 1.2456 0
M  V30 562 H 59.396 1.0286 3.72769 0
M  V30 563 H 61.085 1.44216 3.79416 0
M  V30 564 H 61.851 3.79984 3.01392 0
M  V30 565 H 57.73 2.77239 3.6832 0
M  V30 566 H 61.274 6.1923 3.21247 0
M  V30 567 H 57.171 5.15601 3.88363 0
M  V30 568 H 57.939 7.23127 3.83445 0
M  V30 569 N 60.6021 -1.18246 1.0419 0
M  V30 570 C 61.5501 -2.23968 0.627792 0
M  V30 571 C 62.5441 -1.65828 -0.346019 0
M  V30 572 O 63.7501 -1.78733 -0.213175 0
M  V30 573 H 60.1251 -0.728939 0.184802 0
M  V30 574 H 62.0961 -2.56202 1.52981 0
M  V30 575 C 60.8451 -3.47699 0.00796591 0
M  V30 576 H 60.1681 -3.92734 0.748347 0
M  V30 577 H 61.6081 -4.23294 -0.24455 0
M  V30 578 C 60.0671 -3.13153 -1.24246 0
M  V30 579 O 60.5971 -3.27003 -2.33307 0
M  V30 580 N 58.8031 -2.67467 -1.13622 0
M  V30 581 H 58.3501 -2.56396 -0.248734 0
M  V30 582 H 58.3081 -2.44724 -1.97377 0
M  V30 583 N 62.0802 -0.821533 -1.34494 0
M  V30 584 C 63.4962 -0.507117 -1.51329 0
M  V30 585 C 63.6962 0.968964 -1.76673 0
M  V30 586 O 62.7522 1.75348 -1.81685 0
M  V30 587 C 64.0652 -1.36544 -2.67911 0
M  V30 588 C 65.6132 -1.36242 -2.81793 0
M  V30 589 C 66.0882 -2.2052 -4.01416 0
M  V30 590 N 67.5792 -2.18136 -4.08621 0
M  V30 591 C 68.3142 -2.80095 -5.00334 0
M  V30 592 N 67.8102 -3.51039 -5.9728 0
M  V30 593 N 69.6032 -2.69656 -4.93196 0
M  V30 594 H 61.7542 -1.77729 -1.16302 0
M  V30 595 H 64.0172 -0.757291 -0.570276 0
M  V30 596 H 63.7232 -2.41361 -2.55808 0
M  V30 597 H 63.5972 -1.02917 -3.62888 0
M  V30 598 H 65.9842 -0.322041 -2.93338 0
M  V30 599 H 66.0652 -1.73866 -1.87628 0
M  V30 600 H 65.7092 -3.24607 -3.90631 0
M  V30 601 H 65.6392 -1.80247 -4.94791 0
M  V30 602 H 68.1302 -1.6653 -3.39229 0
M  V30 603 H 68.4432 -3.95565 -6.63889 0
M  V30 604 H 66.7882 -3.55145 -5.97409 0
M  V30 605 H 69.9792 -2.13808 -4.16418 0
M  V30 606 H 70.1522 -3.1823 -5.64476 0
M  V30 607 N 63.5583 1.46682 -0.576371 0
M  V30 608 C 64.8063 2.02013 -0.0594163 0
M  V30 609 C 65.1273 1.45101 1.30271 0
M  V30 610 O 64.3973 0.633317 1.8538 0
M  V30 611 H 62.9773 0.746759 -0.0189745 0
M  V30 612 H 65.6393 1.79862 -0.750717 0
M  V30 613 H 64.7353 3.12097 0.014345 0
M  V30 614 N 65.0364 0.313813 1.54444 0
M  V30 615 C 66.2844 -0.291099 1.99993 0
M  V30 616 C 66.6054 -1.53418 1.20366 0
M  V30 617 O 65.8754 -1.93544 0.302927 0
M  V30 618 H 64.4554 -0.110552 0.738774 0
M  V30 619 H 67.1174 0.428106 1.9014 0
M  V30 620 H 66.2134 -0.554268 3.07139 0
M  V30 621 N 66.5145 -1.57545 0.0417849 0
M  V30 622 C 67.4445 -2.14009 -0.933929 0
M  V30 623 C 68.4255 -1.05938 -1.33083 0
M  V30 624 O 69.6105 -1.33833 -1.40721 0
M  V30 625 C 66.7405 -2.67747 -2.21199 0
M  V30 626 C 65.6945 -3.80718 -1.95544 0
M  V30 627 C 65.0205 -4.20935 -3.29724 0
M  V30 628 C 66.3205 -5.06258 -1.28452 0
M  V30 629 H 68.0145 -2.95788 -0.463645 0
M  V30 630 H 65.5605 -1.42285 -0.221573 0
M  V30 631 H 67.5135 -3.05886 -2.89848 0
M  V30 632 H 66.2375 -1.83147 -2.70416 0
M  V30 633 H 64.8965 -3.43037 -1.2931 0
M  V30 634 H 64.5445 -3.33298 -3.76724 0
M  V30 635 H 64.2445 -4.9707 -3.13361 0
M  V30 636 H 65.7685 -4.61666 -3.9962 0
M  V30 637 H 67.1825 -5.41903 -1.8712 0
M  V30 638 H 65.5795 -5.87475 -1.22445 0
M  V30 639 H 66.6495 -4.84207 -0.259219 0
M  V30 640 N 67.9926 0.231505 -1.5589 0
M  V30 641 C 69.2176 0.978689 -1.82856 0
M  V30 642 C 69.6426 1.77559 -0.620846 0
M  V30 643 O 69.0006 1.76119 0.430305 0
M  V30 644 C 69.0486 1.87997 -3.07716 0
M  V30 645 O 68.1526 2.97393 -2.85712 0
M  V30 646 H 67.4936 0.277663 -0.603158 0
M  V30 647 H 70.0236 0.24783 -2.03093 0
M  V30 648 H 70.0336 2.2917 -3.37558 0
M  V30 649 H 68.7086 1.29417 -3.95252 0
M  V30 650 H 67.2856 2.60238 -2.67078 0
M  V30 651 N 69.4707 1.49531 0.497807 0
M  V30 652 C 70.8817 1.52344 1.07927 0
M  V30 653 C 71.2327 0.311469 1.93712 0
M  V30 654 O 70.3577 -0.578405 2.08527 0
M  V30 655 C 70.9527 2.76062 1.96405 0
M  V30 656 C 69.5117 2.81643 2.49709 0
M  V30 657 C 68.6587 2.46299 1.27404 0
M  V30 658 H 71.6097 1.56182 0.281576 0
M  V30 659 H 71.6307 2.56405 2.81135 0
M  V30 660 H 71.1427 3.64254 1.33943 0
M  V30 661 H 69.2437 1.97739 3.15801 0
M  V30 662 H 69.3567 3.83891 2.86643 0
M  V30 663 H 67.7207 1.98148 1.60029 0
M  V30 664 H 68.5037 3.36769 0.66645 0
M  V30 665 N 70.9488 -0.749086 1.3866 0
M  V30 666 C 71.9118 -1.84457 1.36045 0
M  V30 667 C 72.9118 -1.58682 0.260122 0
M  V30 668 O 74.1018 -1.66343 0.517261 0
M  V30 669 C 71.2338 -3.22008 1.11911 0
M  V30 670 H 72.4268 -1.88182 2.33512 0
M  V30 671 H 69.9798 -0.951266 1.24019 0
M  V30 672 H 70.7148 -3.2395 0.150686 0
M  V30 673 H 70.4998 -3.42111 1.91579 0
M  V30 674 H 71.9898 -4.0208 1.12788 0
M  V30 675 N 72.4269 -1.23603 -0.977757 0
M  V30 676 C 73.3749 -1.01704 -2.09187 0
M  V30 677 C 74.3689 0.0448214 -1.69341 0
M  V30 678 O 75.5749 -0.108902 -1.7967 0
M  V30 679 H 71.9499 -0.311803 -0.684312 0
M  V30 680 H 73.9209 -1.96207 -2.24823 0
M  V30 681 C 72.6699 -0.627746 -3.41986 0
M  V30 682 H 71.9929 -1.43656 -3.73099 0
M  V30 683 H 73.4329 -0.514053 -4.20872 0
M  V30 684 C 71.8919 0.664238 -3.30287 0
M  V30 685 O 72.4219 1.71268 -3.6336 0
M  V30 686 N 70.6279 0.641156 -2.83439 0
M  V30 687 H 70.1749 -0.212376 -2.56723 0
M  V30 688 H 70.1329 1.50583 -2.75993 0
M  V30 689 N 73.905 1.17692 -1.04816 0
M  V30 690 C 75.182 1.83768 -0.669963 0
M  V30 691 C 75.562 1.93232 0.849986 0
M  V30 692 O 74.91 1.46397 1.75443 0
M  V30 693 C 75.12 3.21641 -1.35455 0
M  V30 694 C 76.468 3.97592 -1.49017 0
M  V30 695 O 77.492 3.31107 -1.31326 0
M  V30 696 O 76.351 5.16729 -1.77914 0
M  V30 697 H 73.445 0.792799 -0.235368 0
M  V30 698 H 75.991 1.25021 -1.14751 0
M  V30 699 H 74.763 3.097 -2.39168 0
M  V30 700 H 74.386 3.88052 -0.866107 0
M  V30 701 N 75.3831 0.828654 1.34056 0
M  V30 702 C 76.6111 0.43262 2.02326 0
M  V30 703 C 77.0261 -0.963147 1.62385 0
M  V30 704 O 76.3831 -1.62425 0.832121 0
M  V30 705 C 76.4341 0.53182 3.57567 0
M  V30 706 O 76.1551 1.87258 3.96063 0
M  V30 707 C 77.6561 0.131422 4.43105 0
M  V30 708 H 74.8761 0.172923 0.648335 0
M  V30 709 H 77.4201 1.1184 1.71208 0
M  V30 710 H 75.5751 -0.105938 3.87255 0
M  V30 711 H 75.9891 1.85087 4.90758 0
M  V30 712 H 77.4631 0.251904 5.51425 0
M  V30 713 H 77.9401 -0.925645 4.29335 0
M  V30 714 H 78.5461 0.743207 4.18756 0
M  V30 715 N 76.8612 -1.46375 0.584142 0
M  V30 716 C 78.1092 -2.01978 0.0701287 0
M  V30 717 C 78.4302 -1.4579 -1.295 0
M  V30 718 O 77.7002 -0.64314 -1.85042 0
M  V30 719 H 76.2802 -0.746648 0.0229345 0
M  V30 720 H 78.9422 -1.79461 0.760245 0
M  V30 721 H 78.0382 -3.121 0.0022064 0
M  V30 722 N 78.3393 -0.321999 -1.54275 0
M  V30 723 C 79.3023 0.531975 -2.22941 0
M  V30 724 C 80.3023 1.04478 -1.22234 0
M  V30 725 O 81.4923 0.937452 -1.46825 0
M  V30 726 C 78.6243 1.73874 -2.93224 0
M  V30 727 H 79.8173 -0.0682612 -2.99822 0
M  V30 728 H 77.3703 -0.0730644 -1.56129 0
M  V30 729 H 78.1053 2.37825 -2.20476 0
M  V30 730 H 77.8903 1.37847 -3.6707 0
M  V30 731 H 79.3803 2.34496 -3.45545 0
M  V30 732 N 79.8174 1.5752 -0.0501392 0
M  V30 733 C 80.7644 2.1147 0.924603 0
M  V30 734 C 81.7344 1.02182 1.30951 0
M  V30 735 O 82.9194 1.29723 1.39916 0
M  V30 736 C 80.0594 2.66337 2.19451 0
M  V30 737 C 79.1724 3.89708 1.86418 0
M  V30 738 C 78.3074 4.32893 3.07859 0
M  V30 739 C 77.3464 5.48967 2.70742 0
M  V30 740 N 76.4834 5.87211 3.84874 0
M  V30 741 H 81.3234 2.94465 0.457639 0
M  V30 742 H 78.8604 1.45531 0.214266 0
M  V30 743 H 80.8184 2.96247 2.93758 0
M  V30 744 H 79.4484 1.86141 2.63726 0
M  V30 745 H 78.5004 3.66396 1.02264 0
M  V30 746 H 79.8124 4.74074 1.55096 0
M  V30 747 H 78.9664 4.6435 3.90466 0
M  V30 748 H 77.7054 3.47336 3.42358 0
M  V30 749 H 76.7104 5.17183 1.86551 0
M  V30 750 H 77.9354 6.3624 2.37436 0
M  V30 751 H 75.8814 5.04607 4.19175 0
M  V30 752 H 75.7984 6.66266 3.57247 0
M  V30 753 H 77.0664 6.23282 4.68123 0
M  V30 754 N 81.2955 -0.223234 1.56011 0
M  V30 755 C 82.2425 -1.27664 1.92277 0
M  V30 756 C 83.2125 -1.46659 0.779763 0
M  V30 757 O 84.3975 -1.60256 1.03551 0
M  V30 758 C 81.5375 -2.62234 2.24338 0
M  V30 759 C 80.6505 -2.51051 3.51564 0
M  V30 760 C 79.7855 -3.78133 3.7308 0
M  V30 761 C 78.8245 -3.61665 4.93827 0
M  V30 762 N 77.9615 -4.80693 5.11741 0
M  V30 763 H 82.8015 -0.960358 2.82101 0
M  V30 764 H 80.3385 -0.462901 1.39627 0
M  V30 765 H 82.2965 -3.40596 2.40936 0
M  V30 766 H 80.9265 -2.91961 1.3769 0
M  V30 767 H 79.9785 -1.64132 3.43169 0
M  V30 768 H 81.2905 -2.34803 4.40079 0
M  V30 769 H 80.4445 -4.64938 3.89766 0
M  V30 770 H 79.1835 -3.97304 2.82844 0
M  V30 771 H 78.1885 -2.73244 4.77093 0
M  V30 772 H 79.4135 -3.43966 5.85546 0
M  V30 773 H 77.3595 -5.00181 4.24446 0
M  V30 774 H 77.2765 -4.67165 5.94384 0
M  V30 775 H 78.5445 -5.6893 5.3286 0
M  V30 776 N 82.7736 -1.49793 -0.48987 0
M  V30 777 C 83.7206 -1.67281 -1.59014 0
M  V30 778 C 84.6906 -0.514177 -1.57941 0
M  V30 779 O 85.8756 -0.742533 -1.75759 0
M  V30 780 C 83.0156 -1.75569 -2.97102 0
M  V30 781 C 82.1286 -3.0281 -3.08107 0
M  V30 782 C 81.2636 -3.02008 -4.36995 0
M  V30 783 C 80.3026 -4.23782 -4.41673 0
M  V30 784 N 79.4396 -4.20826 -5.62005 0
M  V30 785 H 84.2796 -2.61224 -1.43409 0
M  V30 786 H 81.8166 -1.29508 -0.697565 0
M  V30 787 H 83.7746 -1.78354 -3.77155 0
M  V30 788 H 82.4046 -0.850827 -3.11385 0
M  V30 789 H 81.4566 -3.09584 -2.21047 0
M  V30 790 H 82.7686 -3.92801 -3.07423 0
M  V30 791 H 81.9226 -3.03418 -5.25378 0
M  V30 792 H 80.6616 -2.09815 -4.4026 0
M  V30 793 H 79.6666 -4.22604 -3.5169 0
M  V30 794 H 80.8916 -5.17181 -4.40115 0
M  V30 795 H 78.8376 -3.31476 -5.66091 0
M  V30 796 H 78.7546 -5.04564 -5.62984 0
M  V30 797 H 80.0226 -4.26355 -6.52565 0
M  V30 798 N 84.2517 0.741722 -1.39055 0
M  V30 799 C 85.1987 1.85566 -1.37237 0
M  V30 800 C 86.1687 1.64457 -0.233072 0
M  V30 801 O 87.3537 1.85957 -0.427147 0
M  V30 802 C 84.4937 3.23004 -1.215 0
M  V30 803 C 83.6067 3.55864 -2.44918 0
M  V30 804 C 82.7417 4.82669 -2.21821 0
M  V30 805 C 81.7807 5.08351 -3.40948 0
M  V30 806 N 80.9177 6.26356 -3.17211 0
M  V30 807 H 85.7577 1.86455 -2.32462 0
M  V30 808 H 83.2947 0.911176 -1.15482 0
M  V30 809 H 85.2527 4.02331 -1.10389 0
M  V30 810 H 83.8827 3.21411 -0.29908 0
M  V30 811 H 82.9347 2.7129 -2.66657 0
M  V30 812 H 84.2467 3.70765 -3.33668 0
M  V30 813 H 83.4007 5.69962 -2.07914 0
M  V30 814 H 82.1397 4.69929 -1.30454 0
M  V30 815 H 81.1447 4.19522 -3.55361 0
M  V30 816 H 82.3697 5.22981 -4.33207 0
M  V30 817 H 80.3157 6.14917 -2.28502 0
M  V30 818 H 80.2327 6.41813 -3.99515 0
M  V30 819 H 81.5007 7.16506 -3.06984 0
M  V30 820 N 85.7298 1.2412 0.971189 0
M  V30 821 C 86.6768 1.0305 2.06517 0
M  V30 822 C 87.6468 -0.0550666 1.66009 0
M  V30 823 O 88.8318 0.0988688 1.90544 0
M  V30 824 C 85.9718 0.637653 3.39158 0
M  V30 825 C 85.0848 1.79633 3.92882 0
M  V30 826 C 84.2198 1.34939 5.13775 0
M  V30 827 C 83.2588 2.47823 5.59687 0
M  V30 828 N 82.3958 2.04022 6.71803 0
M  V30 829 H 87.2358 1.96685 2.23873 0
M  V30 830 H 84.7728 0.979694 1.09729 0
M  V30 831 H 86.7308 0.390931 4.15364 0
M  V30 832 H 85.3608 -0.261693 3.21737 0
M  V30 833 H 84.4128 2.15681 3.13346 0
M  V30 834 H 85.7248 2.64466 4.22918 0
M  V30 835 H 84.8788 1.06134 5.97345 0
M  V30 836 H 83.6178 0.471557 4.85415 0
M  V30 837 H 82.6228 2.77392 4.74693 0
M  V30 838 H 83.8478 3.36158 5.90063 0
M  V30 839 H 81.7938 1.18632 6.45184 0
M  V30 840 H 81.7108 2.82409 7.01271 0
M  V30 841 H 82.9788 1.78347 7.58823 0
M  V30 842 N 87.2079 -1.17134 1.05439 0
M  V30 843 C 88.1549 -2.21235 0.657539 0
M  V30 844 C 89.1249 -1.62551 -0.341543 0
M  V30 845 O 90.3099 -1.89379 -0.232393 0
M  V30 846 C 87.4499 -3.45076 0.0410575 0
M  V30 847 C 86.5629 -4.18042 1.08927 0
M  V30 848 C 85.6979 -5.29376 0.439848 0
M  V30 849 C 84.7369 -5.94132 1.4722 0
M  V30 850 N 83.8739 -6.96975 0.846756 0
M  V30 851 H 88.7139 -2.54534 1.54972 0
M  V30 852 H 86.2509 -1.25028 0.775006 0
M  V30 853 H 88.2089 -4.15862 -0.33383 0
M  V30 854 H 86.8389 -3.12353 -0.814568 0
M  V30 855 H 85.8909 -3.45945 1.58196 0
M  V30 856 H 87.2029 -4.62306 1.87282 0
M  V30 857 H 86.3569 -6.06699 0.0115125 0
M  V30 858 H 85.0959 -4.86251 -0.375656 0
M  V30 859 H 84.1009 -5.15538 1.91052 0
M  V30 860 H 85.3259 -6.39337 2.28965 0
M  V30 861 H 83.2719 -6.5598 0.0518075 0
M  V30 862 H 83.1889 -7.39565 1.5678 0
M  V30 863 H 84.4569 -7.78239 0.443277 0
M  V30 864 N 88.686 -0.835752 -1.33615 0
M  V30 865 C 89.618 -0.224151 -2.28101 0
M  V30 866 C 90.631 0.593331 -1.51603 0
M  V30 867 O 91.82 0.420911 -1.73466 0
M  V30 868 C 88.92 0.703309 -3.31522 0
M  V30 869 C 88.093 -0.0741528 -4.37337 0
M  V30 870 C 87.152 0.776176 -5.20444 0
M  V30 871 O 86.178 0.216506 -5.68788 0
M  V30 872 N 87.38 2.09401 -5.41416 0
M  V30 873 H 90.145 -1.03598 -2.81225 0
M  V30 874 H 87.706 -0.69392 -1.46275 0
M  V30 875 H 89.698 1.27707 -3.84022 0
M  V30 876 H 88.268 1.41585 -2.78698 0
M  V30 877 H 87.488 -0.82928 -3.85378 0
M  V30 878 H 88.776 -0.608863 -5.05144 0
M  V30 879 H 88.174 2.57229 -5.03835 0
M  V30 880 H 86.731 2.61633 -5.96985 0
M  V30 881 N 90.1641 1.46063 -0.591896 0
M  V30 882 C 91.1111 2.30399 0.136069 0
M  V30 883 C 92.0811 1.41169 0.875238 0
M  V30 884 O 93.2661 1.70112 0.86409 0
M  V30 885 C 90.4061 3.25804 1.13781 0
M  V30 886 C 89.5191 4.30134 0.401137 0
M  V30 887 C 88.6541 5.12659 1.39121 0
M  V30 888 C 87.6931 6.0873 0.641462 0
M  V30 889 N 86.8301 6.8409 1.58004 0
M  V30 890 H 91.6701 2.92118 -0.589144 0
M  V30 891 H 89.2071 1.43959 -0.302342 0
M  V30 892 H 91.1651 3.79569 1.73156 0
M  V30 893 H 89.7951 2.65872 1.83062 0
M  V30 894 H 88.8471 3.79152 -0.307826 0
M  V30 895 H 90.1591 4.98458 -0.184565 0
M  V30 896 H 89.3131 5.70747 2.05749 0
M  V30 897 H 88.0521 4.44316 2.01084 0
M  V30 898 H 87.0571 5.49786 -0.0385419 0
M  V30 899 H 88.2821 6.79095 0.0270945 0
M  V30 900 H 86.2281 6.18449 2.18761 0
M  V30 901 H 86.1451 7.48709 1.04738 0
M  V30 902 H 87.4131 7.4673 2.23639 0
M  V30 903 N 91.6422 0.330177 1.54103 0
M  V30 904 C 92.5892 -0.532762 2.24567 0
M  V30 905 C 93.5592 -1.10635 1.23892 0
M  V30 906 O 94.7442 -1.14546 1.5259 0
M  V30 907 C 91.8842 -1.6845 3.01195 0
M  V30 908 C 90.9972 -1.13951 4.167 0
M  V30 909 C 90.1322 -2.25746 4.80845 0
M  V30 910 C 89.1712 -1.6853 5.88442 0
M  V30 911 N 88.3082 -2.74014 6.46421 0
M  V30 912 H 93.1482 0.0746905 2.97906 0
M  V30 913 H 90.6852 0.048632 1.4702 0
M  V30 914 H 92.6432 -2.36234 3.43874 0
M  V30 915 H 91.2732 -2.26314 2.30178 0
M  V30 916 H 90.3252 -0.35301 3.78758 0
M  V30 917 H 91.6372 -0.680892 4.94131 0
M  V30 918 H 90.7912 -3.01422 5.26526 0
M  V30 919 H 89.5302 -2.74947 4.0281 0
M  V30 920 H 88.5352 -0.913543 5.42157 0
M  V30 921 H 89.7602 -1.20198 6.68378 0
M  V30 922 H 87.7062 -3.22494 5.71256 0
M  V30 923 H 87.6232 -2.32735 7.19285 0
M  V30 924 H 88.8912 -3.49499 6.96757 0
M  V30 925 N 93.1203 -1.57491 0.0584922 0
M  V30 926 C 94.0673 -2.11958 -0.913376 0
M  V30 927 C 95.0373 -1.02875 -1.30407 0
M  V30 928 O 96.2223 -1.30464 -1.39226 0
M  V30 929 C 93.3623 -2.67497 -2.18035 0
M  V30 930 C 92.4753 -3.90691 -1.84349 0
M  V30 931 C 91.6103 -4.3452 -3.05559 0
M  V30 932 C 90.6493 -5.50395 -2.67827 0
M  V30 933 N 89.7863 -5.89244 -3.81754 0
M  V30 934 H 94.6263 -2.94704 -0.442017 0
M  V30 935 H 92.1633 -1.45643 -0.206545 0
M  V30 936 H 94.1213 -2.978 -2.92183 0
M  V30 937 H 92.7513 -1.87537 -2.62735 0
M  V30 938 H 91.8033 -3.66934 -1.00319 0
M  V30 939 H 93.1153 -4.7489 -1.5258 0
M  V30 940 H 92.2693 -4.66414 -3.87998 0
M  V30 941 H 91.0083 -3.49147 -3.40511 0
M  V30 942 H 90.0133 -5.18165 -1.83806 0
M  V30 943 H 91.2383 -6.3749 -2.34059 0
M  V30 944 H 89.1843 -5.06823 -4.16493 0
M  V30 945 H 89.1013 -6.68151 -3.53708 0
M  V30 946 H 90.3693 -6.25756 -4.64811 0
M  V30 947 N 94.5984 0.214957 -1.56127 0
M  V30 948 C 95.5454 1.26642 -1.92952 0
M  V30 949 C 96.5154 1.46244 -0.78753 0
M  V30 950 O 97.7004 1.59704 -1.04399 0
M  V30 951 C 94.8404 2.6104 -2.25726 0
M  V30 952 C 93.9534 2.49183 -3.52891 0
M  V30 953 C 93.0884 3.76149 -3.7508 0
M  V30 954 C 92.1274 3.59041 -4.95738 0
M  V30 955 N 91.2644 4.77972 -5.14283 0
M  V30 956 H 96.1044 0.945384 -2.82607 0
M  V30 957 H 93.6414 0.455489 -1.3987 0
M  V30 958 H 95.5994 3.39313 -2.42739 0
M  V30 959 H 94.2294 2.91227 -1.39236 0
M  V30 960 H 93.2814 1.6231 -3.44034 0
M  V30 961 H 94.5934 2.32466 -4.41318 0
M  V30 962 H 93.7474 4.62865 -3.92226 0
M  V30 963 H 92.4864 3.95799 -2.84947 0
M  V30 964 H 91.4914 2.7071 -4.78535 0
M  V30 965 H 92.7164 3.40856 -5.87362 0
M  V30 966 H 90.6624 4.97923 -4.27093 0
M  V30 967 H 90.5794 4.64006 -5.96853 0
M  V30 968 H 91.8474 5.66096 -5.35869 0
M  V30 969 N 96.0765 1.50051 0.48192 0
M  V30 970 C 96.9865 1.7089 1.60728 0
M  V30 971 C 98.0025 0.591788 1.63627 0
M  V30 972 O 99.1785 0.868817 1.81696 0
M  V30 973 C 96.2435 1.78855 2.97005 0
M  V30 974 C 95.3045 3.02537 3.04581 0
M  V30 975 C 94.5375 3.10112 4.34357 0
M  V30 976 O 94.7605 2.24765 5.24249 0
M  V30 977 O 93.6945 4.02747 4.47301 0
M  V30 978 H 97.5205 2.66264 1.46072 0
M  V30 979 H 95.1055 1.34018 0.660264 0
M  V30 980 H 96.9875 1.86336 3.77964 0
M  V30 981 H 95.6625 0.866628 3.11883 0
M  V30 982 H 94.5695 3.00563 2.22739 0
M  V30 983 H 95.9025 3.94272 2.94636 0
M  V30 984 N 97.5546 -0.734337 1.39446 0
M  V30 985 C 98.5016 -1.84835 1.38219 0
M  V30 986 C 99.4716 -1.64331 0.24179 0
M  V30 987 O 100.657 -1.85728 0.437002 0
M  V30 988 C 97.7966 -3.22355 1.23212 0
M  V30 989 C 96.9096 -3.5456 2.46801 0
M  V30 990 C 96.0446 -4.81485 2.24377 0
M  V30 991 C 95.0836 -5.06536 3.43639 0
M  V30 992 N 94.2206 -6.24665 3.20528 0
M  V30 993 H 99.0606 -1.85219 2.33448 0
M  V30 994 H 96.5976 -0.905039 1.15963 0
M  V30 995 H 98.5556 -4.0174 1.12522 0
M  V30 996 H 97.1856 -3.21248 0.316121 0
M  V30 997 H 96.2376 -2.69872 2.68092 0
M  V30 998 H 97.5496 -3.6899 3.3563 0
M  V30 999 H 96.7036 -5.68852 2.10933 0
M  V30 1000 H 95.4426 -4.6923 1.32944 0
M  V30 1001 H 94.4476 -4.17632 3.5758 0
M  V30 1002 H 95.6726 -5.20676 4.35974 0
M  V30 1003 H 93.6186 -6.13696 2.3176 0
M  V30 1004 H 93.5356 -6.39685 4.02913 0
M  V30 1005 H 94.8036 -7.14868 3.10779 0
M  V30 1006 N 99.0327 -1.24633 -0.964593 0
M  V30 1007 C 100.281 -1.08573 -1.70459 0
M  V30 1008 C 100.602 0.375655 -1.91347 0
M  V30 1009 O 99.8717 1.26779 -1.49345 0
M  V30 1010 H 98.4517 -0.398784 -0.631649 0
M  V30 1011 H 101.114 -1.56601 -1.16026 0
M  V30 1012 H 100.21 -1.58623 -2.68785 0
M  V30 1013 N 100.511 1.16574 -1.06058 0
M  V30 1014 C 101.736 1.91493 -0.796562 0
M  V30 1015 C 102.161 1.76773 0.642868 0
M  V30 1016 O 101.519 1.09142 1.44768 0
M  V30 1017 C 101.567 3.40293 -1.19303 0
M  V30 1018 O 100.671 4.11074 -0.330394 0
M  V30 1019 H 100.012 0.596678 -0.291326 0
M  V30 1020 H 102.542 1.47708 -1.41575 0
M  V30 1021 H 102.552 3.91057 -1.16356 0
M  V30 1022 H 101.227 3.50326 -2.24153 0
M  V30 1023 H 99.8038 3.70513 -0.421225 0
M  V30 1024 N 101.989 0.842826 1.3317 0
M  V30 1025 C 102.899 0.281444 2.32906 0
M  V30 1026 C 103.915 -0.594587 1.63526 0
M  V30 1027 O 105.091 -0.49777 1.95152 0
M  V30 1028 C 102.156 -0.530929 3.42611 0
M  V30 1029 C 101.217 0.369843 4.27704 0
M  V30 1030 C 100.45 -0.403853 5.3217 0
M  V30 1031 O 100.673 -1.63513 5.46461 0
M  V30 1032 O 99.6069 0.224199 6.01482 0
M  V30 1033 H 103.433 1.10744 2.82789 0
M  V30 1034 H 101.018 0.60545 1.36582 0
M  V30 1035 H 102.9 -0.992437 4.09547 0
M  V30 1036 H 101.575 -1.33392 2.94938 0
M  V30 1037 H 100.482 0.879275 3.6362 0
M  V30 1038 H 101.815 1.13771 4.78871 0
M  V30 1039 N 103.467 -1.45747 0.599634 0
M  V30 1040 C 104.695 -2.06668 0.0978551 0
M  V30 1041 C 105.11 -1.44562 -1.21439 0
M  V30 1042 O 104.467 -0.556923 -1.73795 0
M  V30 1043 C 104.518 -3.61456 -0.0567044 0
M  V30 1044 O 104.239 -4.21242 1.20361 0
M  V30 1045 C 105.74 -4.39345 -0.590869 0
M  V30 1046 H 102.96 -0.667825 0.0651943 0
M  V30 1047 H 105.504 -1.87115 0.82511 0
M  V30 1048 H 103.659 -3.80378 -0.734251 0
M  V30 1049 H 104.073 -5.14323 1.02821 0
M  V30 1050 H 105.547 -5.48182 -0.648131 0
M  V30 1051 H 106.024 -4.08568 -1.61147 0
M  V30 1052 H 106.63 -4.25268 0.0523679 0
M  V30 1053 N 104.945 -0.338344 -1.53925 0
M  V30 1054 C 106.222 0.314774 -1.93051 0
M  V30 1055 C 106.602 1.68669 -1.26941 0
M  V30 1056 O 105.95 2.24636 -0.418445 0
M  V30 1057 C 106.16 0.392249 -3.46789 0
M  V30 1058 C 107.508 0.645554 -4.19664 0
M  V30 1059 O 108.532 0.474575 -3.53024 0
M  V30 1060 O 107.391 0.976408 -5.37707 0
M  V30 1061 H 104.485 0.182598 -0.80659 0
M  V30 1062 H 107.031 -0.389141 -1.65178 0
M  V30 1063 H 105.803 -0.570702 -3.87116 0
M  V30 1064 H 105.426 1.14316 -3.80812 0
M  V30 1065 N 106.423 1.57458 -0.0668435 0
M  V30 1066 C 107.648 1.9804 0.616027 0
M  V30 1067 C 108.073 0.944771 1.62652 0
M  V30 1068 O 107.431 -0.0902094 1.81075 0
M  V30 1069 C 107.479 3.37665 1.26549 0
M  V30 1070 O 106.583 3.36701 2.38131 0
M  V30 1071 H 105.924 0.644719 0.158849 0
M  V30 1072 H 108.454 2.04121 -0.139891 0
M  V30 1073 H 108.464 3.7474 1.6135 0
M  V30 1074 H 107.139 4.12573 0.525016 0
M  V30 1075 H 105.716 3.1139 2.0516 0
M  V30 1076 N 107.901 -0.206675 1.56239 0
M  V30 1077 C 108.864 -1.23976 1.92776 0
M  V30 1078 C 109.864 -1.39041 0.807729 0
M  V30 1079 O 111.054 -1.37051 1.0753 0
M  V30 1080 C 108.186 -2.61112 2.19165 0
M  V30 1081 H 109.379 -0.927764 2.85189 0
M  V30 1082 H 106.932 -0.447718 1.4975 0
M  V30 1083 H 107.667 -2.97386 1.29352 0
M  V30 1084 H 107.452 -2.51552 3.00772 0
M  V30 1085 H 108.942 -3.35633 2.48476 0
M  V30 1086 N 109.379 -1.50304 -0.473955 0
M  V30 1087 C 110.311 -1.65109 -1.58971 0
M  V30 1088 C 111.324 -0.532676 -1.53839 0
M  V30 1089 O 112.513 -0.805751 -1.59279 0
M  V30 1090 C 109.613 -1.61684 -2.97845 0
M  V30 1091 C 108.786 -2.8951 -3.27876 0
M  V30 1092 C 107.845 -2.78768 -4.4629 0
M  V30 1093 O 106.871 -3.52722 -4.46739 0
M  V30 1094 N 108.073 -1.9213 -5.47783 0
M  V30 1095 H 110.838 -2.61347 -1.46689 0
M  V30 1096 H 108.399 -1.47732 -0.662324 0
M  V30 1097 H 110.391 -1.52114 -3.75024 0
M  V30 1098 H 108.961 -0.731925 -3.03911 0
M  V30 1099 H 108.181 -3.13228 -2.39336 0
M  V30 1100 H 109.469 -3.74199 -3.4475 0
M  V30 1101 H 108.867 -1.31353 -5.50239 0
M  V30 1102 H 107.424 -1.88466 -6.23958 0
M  V30 1103 N 110.857 0.726932 -1.39834 0
M  V30 1104 C 112.134 1.47902 -1.28001 0
M  V30 1105 C 112.514 2.1083 0.106789 0
M  V30 1106 O 111.862 1.99242 1.11869 0
M  V30 1107 C 112.072 2.52392 -2.41038 0
M  V30 1108 C 113.42 3.18546 -2.80737 0
M  V30 1109 O 114.444 2.62708 -2.40547 0
M  V30 1110 O 113.303 4.19604 -3.50135 0
M  V30 1111 H 110.397 0.657163 -0.502062 0
M  V30 1112 H 112.943 0.760071 -1.51727 0
M  V30 1113 H 111.715 2.04329 -3.33715 0
M  V30 1114 H 111.338 3.31837 -2.19021 0
M  V30 1115 N 112.336 1.25143 0.95797 0
M  V30 1116 C 113.268 1.01023 2.05735 0
M  V30 1117 C 114.281 -0.0236902 1.62783 0
M  V30 1118 O 115.47 0.21448 1.77207 0
M  V30 1119 C 112.57 0.504595 3.35122 0
M  V30 1120 C 111.743 1.6039 4.06932 0
M  V30 1121 C 110.802 1.09922 5.14591 0
M  V30 1122 O 109.828 1.79293 5.40225 0
M  V30 1123 N 111.03 -0.0612545 5.80468 0
M  V30 1124 H 113.795 1.95683 2.26998 0
M  V30 1125 H 111.356 1.16303 1.12629 0
M  V30 1126 H 113.348 0.151516 4.04416 0
M  V30 1127 H 111.918 -0.347989 3.10657 0
M  V30 1128 H 111.138 2.12872 3.31782 0
M  V30 1129 H 112.426 2.34252 4.51667 0
M  V30 1130 H 111.824 -0.640985 5.62057 0
M  V30 1131 H 110.381 -0.355395 6.5083 0
M  V30 1132 N 113.814 -1.1601 1.06675 0
M  V30 1133 C 115.225 -1.68235 0.809565 0
M  V30 1134 C 115.576 -1.8454 -0.666303 0
M  V30 1135 O 114.701 -1.54374 -1.5165 0
M  V30 1136 C 115.296 -3.05585 1.46299 0
M  V30 1137 C 113.855 -3.54915 1.25349 0
M  V30 1138 C 113.002 -2.30804 1.53703 0
M  V30 1139 H 115.953 -1.00318 1.22971 0
M  V30 1140 H 115.974 -3.70174 0.880431 0
M  V30 1141 H 115.486 -2.93686 2.53713 0
M  V30 1142 H 113.587 -3.72067 0.199261 0
M  V30 1143 H 113.7 -4.36774 1.9689 0
M  V30 1144 H 112.064 -2.36007 0.957739 0
M  V30 1145 H 112.847 -2.21499 2.62284 0
M  V30 1146 N 115.292 -0.849877 -1.32721 0
M  V30 1147 C 116.538 -0.451591 -1.97708 0
M  V30 1148 C 116.871 0.989175 -1.6712 0
M  V30 1149 O 116.146 1.69334 -0.956891 0
M  V30 1150 C 116.429 -0.685598 -3.53513 0
M  V30 1151 C 116.282 -2.17444 -3.93749 0
M  V30 1152 C 117.601 -0.138874 -4.39881 0
M  V30 1153 H 114.72 -0.16555 -0.718166 0
M  V30 1154 H 117.362 -1.06742 -1.57182 0
M  V30 1155 H 115.512 -0.161416 -3.88165 0
M  V30 1156 H 117.184 -2.76433 -3.693 0
M  V30 1157 H 115.427 -2.65476 -3.43081 0
M  V30 1158 H 116.098 -2.28888 -5.02309 0
M  V30 1159 H 118.574 -0.587068 -4.11938 0
M  V30 1160 H 117.45 -0.332213 -5.47894 0
M  V30 1161 H 117.711 0.95806 -4.31594 0
M  V30 1162 N 116.77 1.45427 -0.607355 0
M  V30 1163 C 117.717 2.3053 0.111625 0
M  V30 1164 C 118.687 1.4209 0.860216 0
M  V30 1165 O 119.872 1.71019 0.845998 0
M  V30 1166 C 117.012 3.26992 1.10319 0
M  V30 1167 C 116.125 4.30535 0.355493 0
M  V30 1168 C 115.26 5.14105 1.33676 0
M  V30 1169 C 114.299 6.09376 0.576862 0
M  V30 1170 N 113.436 6.85727 1.5074 0
M  V30 1171 H 118.276 2.91477 -0.620093 0
M  V30 1172 H 115.813 1.43631 -0.317594 0
M  V30 1173 H 117.771 3.81385 1.6912 0
M  V30 1174 H 116.401 2.67799 1.80232 0
M  V30 1175 H 115.453 3.78805 -0.348023 0
M  V30 1176 H 116.765 4.98235 -0.237423 0
M  V30 1177 H 115.919 5.72897 1.99684 0
M  V30 1178 H 114.658 4.46423 1.9636 0
M  V30 1179 H 113.663 5.49715 -0.0968519 0
M  V30 1180 H 114.888 6.79085 -0.0449341 0
M  V30 1181 H 112.834 6.20735 2.12189 0
M  V30 1182 H 112.751 7.49778 0.967913 0
M  V30 1183 H 114.019 7.4906 2.15706 0
M  V30 1184 N 118.248 0.346503 1.53744 0
M  V30 1185 C 119.181 -0.552023 2.21423 0
M  V30 1186 C 120.159 -1.09798 1.19929 0
M  V30 1187 O 121.343 -1.1577 1.4876 0
M  V30 1188 C 118.47 -1.75972 2.89398 0
M  V30 1189 C 117.516 -1.34295 4.04805 0
M  V30 1190 S 118.349 -0.360263 5.34287 0
M  V30 1191 C 119.505 -1.57473 6.05767 0
M  V30 1192 H 119.738 0.0228119 2.97291 0
M  V30 1193 H 117.271 0.130579 1.53847 0
M  V30 1194 H 119.229 -2.45256 3.2918 0
M  V30 1195 H 117.89 -2.30578 2.1329 0
M  V30 1196 H 117.083 -2.24349 4.51313 0
M  V30 1197 H 116.685 -0.729555 3.66815 0
M  V30 1198 H 118.977 -2.50875 6.29339 0
M  V30 1199 H 119.92 -1.15138 6.98676 0
M  V30 1200 H 120.328 -1.77212 5.35963 0
M  V30 1201 N 119.726 -1.57421 0.075193 0
M  V30 1202 C 120.674 -2.14124 -0.908508 0
M  V30 1203 C 121.668 -1.07898 -1.30592 0
M  V30 1204 O 122.874 -1.26273 -1.28277 0
M  V30 1205 H 119.249 -0.684707 -0.310935 0
M  V30 1206 H 121.22 -2.95634 -0.405374 0
M  V30 1207 C 119.969 -2.72044 -2.16535 0
M  V30 1208 H 119.292 -3.53456 -1.86839 0
M  V30 1209 H 120.732 -3.15311 -2.83469 0
M  V30 1210 C 119.191 -1.66968 -2.92615 0
M  V30 1211 O 119.721 -1.0967 -3.86439 0
M  V30 1212 N 117.927 -1.37923 -2.55784 0
M  V30 1213 H 117.474 -1.84706 -1.79559 0
M  V30 1214 H 117.432 -0.67852 -3.06991 0
M  V30 1215 N 121.204 0.198386 -1.56346 0
M  V30 1216 C 122.429 0.939682 -1.84891 0
M  V30 1217 C 122.854 1.76202 -0.658369 0
M  V30 1218 O 122.212 1.76993 0.392851 0
M  V30 1219 C 122.26 1.81428 -3.11635 0
M  V30 1220 O 121.364 2.91265 -2.91956 0
M  V30 1221 H 120.705 0.264807 -0.608912 0
M  V30 1222 H 123.235 0.204695 -2.03573 0
M  V30 1223 H 123.245 2.21958 -3.42343 0
M  V30 1224 H 121.92 1.21004 -3.97908 0
M  V30 1225 H 120.497 2.54514 -2.72538 0
M  V30 1226 N 122.682 1.50554 0.465978 0
M  V30 1227 C 123.612 1.72722 1.57128 0
M  V30 1228 C 124.593 0.576294 1.6004 0
M  V30 1229 O 125.778 0.81598 1.76225 0
M  V30 1230 C 122.908 1.82605 2.95419 0
M  V30 1231 C 121.862 2.97835 3.07373 0
M  V30 1232 C 121.188 2.92867 4.47363 0
M  V30 1233 C 122.488 4.38265 2.84114 0
M  V30 1234 H 124.182 2.65267 1.38829 0
M  V30 1235 H 121.728 1.2765 0.666441 0
M  V30 1236 H 123.681 1.96698 3.72677 0
M  V30 1237 H 122.405 0.866858 3.14886 0
M  V30 1238 H 121.064 2.83401 2.3255 0
M  V30 1239 H 120.712 1.94783 4.63755 0
M  V30 1240 H 120.412 3.70227 4.56296 0
M  V30 1241 H 121.936 3.09015 5.26633 0
M  V30 1242 H 123.35 4.53198 3.51118 0
M  V30 1243 H 121.747 5.17115 3.04487 0
M  V30 1244 H 122.817 4.50281 1.7993 0
M  V30 1245 N 124.16 -0.719506 1.40217 0
M  V30 1246 C 125.571 -1.29848 1.34151 0
M  V30 1247 C 125.922 -1.96196 0.0131349 0
M  V30 1248 O 125.047 -1.973 -0.88892 0
M  V30 1249 C 125.642 -2.36118 2.42968 0
M  V30 1250 C 124.201 -2.8965 2.40374 0
M  V30 1251 C 123.348 -1.63393 2.24049 0
M  V30 1252 H 126.299 -0.51591 1.5008 0
M  V30 1253 H 126.32 -3.16871 2.10649 0
M  V30 1254 H 125.832 -1.878 3.39636 0
M  V30 1255 H 123.933 -3.42208 1.47392 0
M  V30 1256 H 124.046 -3.4171 3.35814 0
M  V30 1257 H 122.41 -1.88312 1.71495 0
M  V30 1258 H 123.193 -1.17104 3.2271 0
M  V30 1259 N 125.638 -1.25649 -0.95132 0
M  V30 1260 C 126.601 -1.06399 -2.03007 0
M  V30 1261 C 127.601 -0.0156794 -1.60792 0
M  V30 1262 O 128.791 -0.25817 -1.72276 0
M  V30 1263 C 125.923 -0.616184 -3.35285 0
M  V30 1264 H 127.116 -2.02164 -2.21517 0
M  V30 1265 H 124.669 -1.08103 -1.12887 0
M  V30 1266 H 125.404 0.343917 -3.22471 0
M  V30 1267 H 125.189 -1.37301 -3.67275 0
M  V30 1268 H 126.679 -0.503032 -4.14559 0
M  V30 1269 N 127.117 1.15442 -1.07289 0
M  V30 1270 C 128.027 2.23786 -0.704057 0
M  V30 1271 C 129.043 1.7166 0.284413 0
M  V30 1272 O 130.219 2.00972 0.131205 0
M  V30 1273 C 127.284 3.46535 -0.106792 0
M  V30 1274 C 126.345 4.13654 -1.14842 0
M  V30 1275 C 125.578 5.30544 -0.57956 0
M  V30 1276 O 125.801 5.67187 0.604585 0
M  V30 1277 O 124.735 5.87154 -1.32414 0
M  V30 1278 H 128.561 2.57664 -1.60757 0
M  V30 1279 H 126.146 1.23152 -0.845803 0
M  V30 1280 H 128.028 4.20804 0.224048 0
M  V30 1281 H 126.703 3.14407 0.770049 0
M  V30 1282 H 125.61 3.4131 -1.5316 0
M  V30 1283 H 126.943 4.49861 -1.99714 0
M  V30 1284 N 128.595 0.856903 1.32268 0
M  V30 1285 C 130.011 0.547061 1.49931 0
M  V30 1286 C 130.211 -0.921781 1.7918 0
M  V30 1287 O 129.267 -1.70469 1.8627 0
M  V30 1288 C 130.58 1.43599 2.64196 0
M  V30 1289 C 132.128 1.43665 2.78081 0
M  V30 1290 C 132.603 2.31085 3.95428 0
M  V30 1291 N 134.094 2.28893 4.02694 0
M  V30 1292 C 134.829 2.93262 4.92732 0
M  V30 1293 N 134.325 3.66751 5.87763 0
M  V30 1294 N 136.118 2.82638 4.85873 0
M  V30 1295 H 128.269 1.8075 1.11549 0
M  V30 1296 H 130.532 0.772144 0.549997 0
M  V30 1297 H 130.238 2.48058 2.49319 0
M  V30 1298 H 130.112 1.12502 3.60032 0
M  V30 1299 H 132.499 0.399701 2.92381 0
M  V30 1300 H 132.58 1.7878 1.82952 0
M  V30 1301 H 132.224 3.34849 3.81888 0
M  V30 1302 H 132.154 1.93302 4.89839 0
M  V30 1303 H 134.645 1.75466 3.34694 0
M  V30 1304 H 134.958 4.13027 6.53168 0
M  V30 1305 H 133.303 3.70859 5.87783 0
M  V30 1306 H 136.494 2.24774 4.10602 0
M  V30 1307 H 136.667 3.33084 5.55841 0
M  V30 1308 N 130.073 -1.45103 0.615059 0
M  V30 1309 C 131.322 -2.01396 0.110718 0
M  V30 1310 C 131.635 -1.48834 -1.26916 0
M  V30 1311 O 132.841 -1.97152 -1.86664 0
M  V30 1312 C 131.297 -3.59599 0.14723 0
M  V30 1313 C 130.905 -4.21158 1.52743 0
M  V30 1314 C 132.649 -4.23428 -0.30148 0
M  V30 1315 C 130.556 -5.71535 1.51992 0
M  V30 1316 H 129.486 -0.753061 0.0376241 0
M  V30 1317 H 132.137 -1.66494 0.77149 0
M  V30 1318 H 130.519 -3.91724 -0.580339 0
M  V30 1319 H 131.693 -4.00594 2.2773 0
M  V30 1320 H 130.008 -3.69552 1.91886 0
M  V30 1321 H 132.605 -5.33703 -0.326392 0
M  V30 1322 H 132.948 -3.94629 -1.32565 0
M  V30 1323 H 133.481 -3.96047 0.373065 0
M  V30 1324 H 130.22 -6.05044 2.52193 0
M  V30 1325 H 129.74 -5.94268 0.81274 0
M  V30 1326 H 131.419 -6.34873 1.24681 0
M  V30 1327 N 131.551 -0.354651 -1.53558 0
M  V30 1328 C 132.483 0.5315 -2.22952 0
M  V30 1329 C 133.496 1.05503 -1.23988 0
M  V30 1330 O 134.685 0.963279 -1.50277 0
M  V30 1331 C 131.785 1.74538 -2.90499 0
M  V30 1332 C 130.958 1.35524 -4.15875 0
M  V30 1333 C 130.017 2.42999 -4.66731 0
M  V30 1334 O 129.043 2.05844 -5.30676 0
M  V30 1335 N 130.245 3.74423 -4.43608 0
M  V30 1336 H 133.01 -0.0628615 -2.99634 0
M  V30 1337 H 130.571 -0.179302 -1.60904 0
M  V30 1338 H 132.563 2.45892 -3.21433 0
M  V30 1339 H 131.133 2.24686 -2.17336 0
M  V30 1340 H 130.353 0.471998 -3.91364 0
M  V30 1341 H 131.641 1.07071 -4.97406 0
M  V30 1342 H 131.039 4.07391 -3.92491 0
M  V30 1343 H 129.596 4.41913 -4.7912 0
M  V30 1344 N 133.029 1.57378 -0.0835403 0
M  V30 1345 C 133.939 2.16897 0.894021 0
M  V30 1346 C 134.955 1.13528 1.31861 0
M  V30 1347 O 136.131 1.45848 1.3889 0
M  V30 1348 C 133.196 2.72831 2.13925 0
M  V30 1349 C 132.257 3.91115 1.76997 0
M  V30 1350 C 131.49 4.44371 2.95584 0
M  V30 1351 O 131.713 3.96596 4.09961 0
M  V30 1352 O 130.647 5.35549 2.74719 0
M  V30 1353 H 134.473 3.00814 0.417679 0
M  V30 1354 H 132.058 1.48741 0.140181 0
M  V30 1355 H 133.94 3.0863 2.86924 0
M  V30 1356 H 132.615 1.91967 2.60635 0
M  V30 1357 H 131.522 3.60148 1.01214 0
M  V30 1358 H 132.855 4.73307 1.3506 0
M  V30 1359 N 134.507 -0.190092 1.56449 0
M  V30 1360 C 135.756 -0.907912 1.80111 0
M  V30 1361 C 136.069 -1.84214 0.657619 0
M  V30 1362 O 137.275 -2.60094 0.778663 0
M  V30 1363 C 135.731 -1.66485 3.19078 0
M  V30 1364 C 135.339 -0.7752 4.41242 0
M  V30 1365 C 137.083 -2.37201 3.52045 0
M  V30 1366 C 134.99 -1.53129 5.71231 0
M  V30 1367 H 133.92 -0.34276 0.671589 0
M  V30 1368 H 136.571 -0.161109 1.82791 0
M  V30 1369 H 134.953 -2.45572 3.10661 0
M  V30 1370 H 136.127 -0.0226298 4.60794 0
M  V30 1371 H 134.442 -0.178627 4.16017 0
M  V30 1372 H 137.039 -2.94329 4.46402 0
M  V30 1373 H 137.382 -3.11632 2.76028 0
M  V30 1374 H 137.915 -1.65075 3.61932 0
M  V30 1375 H 134.654 -0.82967 6.50228 0
M  V30 1376 H 134.174 -2.25767 5.55688 0
M  V30 1377 H 135.853 -2.08377 6.12526 0
M  V30 1378 N 135.985 -1.50799 -0.457987 0
M  V30 1379 C 136.917 -1.66786 -1.57211 0
M  V30 1380 C 137.93 -0.548962 -1.53265 0
M  V30 1381 O 139.119 -0.8226 -1.58416 0
M  V30 1382 C 136.219 -1.64834 -2.96113 0
M  V30 1383 C 135.392 -2.92971 -3.24787 0
M  V30 1384 C 134.451 -2.83485 -4.43309 0
M  V30 1385 O 133.477 -3.5744 -4.42973 0
M  V30 1386 N 134.679 -1.97929 -5.45714 0
M  V30 1387 H 137.444 -2.62889 -1.43909 0
M  V30 1388 H 135.005 -1.48427 -0.646617 0
M  V30 1389 H 136.997 -1.56084 -3.7339 0
M  V30 1390 H 135.567 -0.764118 -3.03117 0
M  V30 1391 H 134.787 -3.15749 -2.36 0
M  V30 1392 H 136.075 -3.77834 -3.40762 0
M  V30 1393 H 135.473 -1.37182 -5.48815 0
M  V30 1394 H 134.03 -1.95073 -6.21924 0
M  V30 1395 N 137.463 0.71206 -1.40597 0
M  V30 1396 C 138.41 1.82613 -1.41142 0
M  V30 1397 C 139.38 1.63925 -0.267903 0
M  V30 1398 O 140.565 1.85009 -0.466495 0
M  V30 1399 C 137.705 3.20354 -1.28324 0
M  V30 1400 C 136.818 3.50589 -2.52411 0
M  V30 1401 C 135.953 4.77855 -2.32009 0
M  V30 1402 C 134.992 5.01005 -3.51654 0
M  V30 1403 N 134.129 6.19487 -3.30425 0
M  V30 1404 H 138.969 1.81482 -2.36365 0
M  V30 1405 H 136.506 0.886475 -1.17388 0
M  V30 1406 H 138.464 3.99899 -1.18899 0
M  V30 1407 H 137.094 3.20705 -0.367189 0
M  V30 1408 H 136.146 2.65573 -2.72351 0
M  V30 1409 H 137.458 3.63604 -3.41458 0
M  V30 1410 H 136.612 5.65424 -2.19956 0
M  V30 1411 H 135.351 4.67056 -1.40392 0
M  V30 1412 H 134.356 4.1189 -3.64179 0
M  V30 1413 H 135.581 5.13674 -4.44202 0
M  V30 1414 H 133.527 6.09932 -2.41494 0
M  V30 1415 H 133.444 6.33194 -4.13039 0
M  V30 1416 H 134.712 7.09834 -3.22113 0
M  V30 1417 N 138.941 1.26152 0.944643 0
M  V30 1418 C 139.904 1.07474 2.0244 0
M  V30 1419 C 140.904 0.0242064 1.60782 0
M  V30 1420 O 142.094 0.267302 1.72137 0
M  V30 1421 C 139.226 0.633956 3.34953 0
M  V30 1422 H 140.419 2.03336 2.20442 0
M  V30 1423 H 137.972 1.087 1.12312 0
M  V30 1424 H 138.707 -0.326811 3.22649 0
M  V30 1425 H 138.492 1.39247 3.66542 0
M  V30 1426 H 139.982 0.52501 4.14287 0
M  V30 1427 N 140.419 -1.14872 1.07899 0
M  V30 1428 C 141.668 -1.85135 0.800499 0
M  V30 1429 C 141.981 -1.83547 -0.676014 0
M  V30 1430 O 143.187 -2.49548 -1.06948 0
M  V30 1431 C 141.643 -3.3231 1.38197 0
M  V30 1432 C 141.251 -3.42329 2.8899 0
M  V30 1433 C 142.995 -4.0772 1.18174 0
M  V30 1434 C 140.902 -4.83684 3.403 0
M  V30 1435 H 139.832 -0.693563 0.29578 0
M  V30 1436 H 142.483 -1.29532 1.29976 0
M  V30 1437 H 140.865 -3.87618 0.810431 0
M  V30 1438 H 142.039 -2.97097 3.52236 0
M  V30 1439 H 140.354 -2.80369 3.07867 0
M  V30 1440 H 142.951 -5.12049 1.5398 0
M  V30 1441 H 143.294 -4.16124 0.12117 0
M  V30 1442 H 143.827 -3.58696 1.71994 0
M  V30 1443 H 140.566 -4.80465 4.45907 0
M  V30 1444 H 140.086 -5.29474 2.81811 0
M  V30 1445 H 141.765 -5.52558 3.36584 0
M  V30 1446 N 141.898 -0.863906 -1.31812 0
M  V30 1447 C 142.808 -0.318461 -2.32428 0
M  V30 1448 C 143.824 0.568496 -1.64451 0
M  V30 1449 O 145 0.46666 -1.95919 0
M  V30 1450 C 142.065 0.476355 -3.43412 0
M  V30 1451 C 141.126 -0.43784 -4.27061 0
M  V30 1452 C 140.359 0.319138 -5.32745 0
M  V30 1453 O 140.582 1.54799 -5.48993 0
M  V30 1454 O 139.516 -0.319861 -6.01049 0
M  V30 1455 H 143.342 -1.15229 -2.80991 0
M  V30 1456 H 140.927 -0.627103 -1.35602 0
M  V30 1457 H 142.809 0.927156 -4.11074 0
M  V30 1458 H 141.484 1.28683 -2.97022 0
M  V30 1459 H 140.391 -0.937013 -3.62175 0
M  V30 1460 H 141.724 -1.21375 -4.77 0
M  V30 1461 N 143.376 1.44774 -0.622745 0
M  V30 1462 C 144.306 2.33382 0.0741861 0
M  V30 1463 C 145.287 1.47719 0.843387 0
M  V30 1464 O 146.472 1.76458 0.810934 0
M  V30 1465 C 143.602 3.30663 1.06204 0
M  V30 1466 C 142.556 4.26079 0.405037 0
M  V30 1467 C 141.882 5.13165 1.5022 0
M  V30 1468 C 143.182 5.1781 -0.683414 0
M  V30 1469 H 144.876 2.91905 -0.665713 0
M  V30 1470 H 142.422 1.40363 -0.321587 0
M  V30 1471 H 144.375 3.9153 1.55827 0
M  V30 1472 H 143.099 2.70331 1.83272 0
M  V30 1473 H 141.758 3.66532 -0.0704683 0
M  V30 1474 H 141.406 4.49191 2.26355 0
M  V30 1475 H 141.106 5.77812 1.06803 0
M  V30 1476 H 142.63 5.76902 2.00041 0
M  V30 1477 H 144.044 5.72661 -0.270631 0
M  V30 1478 H 142.441 5.91015 -1.04023 0
M  V30 1479 H 143.511 4.59326 -1.55395 0
M  V30 1480 N 144.854 0.36279 1.53368 0
M  V30 1481 C 146.101 -0.227776 2.01215 0
M  V30 1482 C 146.429 -1.49003 1.25014 0
M  V30 1483 O 145.684 -1.92876 0.331236 0
M  V30 1484 C 145.983 -0.568417 3.52851 0
M  V30 1485 C 145.649 0.59918 4.46901 0
M  V30 1486 C 144.311 0.919559 4.72332 0
M  V30 1487 C 146.663 1.38156 5.02556 0
M  V30 1488 C 143.991 2.02434 5.5067 0
M  V30 1489 C 146.343 2.47674 5.821 0
M  V30 1490 C 145.007 2.8025 6.05819 0
M  V30 1491 H 144.277 -0.083349 0.736297 0
M  V30 1492 H 146.924 0.494677 1.85001 0
M  V30 1493 H 145.229 -1.37185 3.66998 0
M  V30 1494 H 146.926 -1.03756 3.87344 0
M  V30 1495 H 143.516 0.339437 4.27254 0
M  V30 1496 H 147.7 1.14729 4.82857 0
M  V30 1497 H 142.956 2.28075 5.67267 0
M  V30 1498 H 147.13 3.08716 6.24234 0
M  V30 1499 H 144.757 3.65979 6.66306 0
M  V30 1500 N 146.332 -1.57332 0.0918853 0
M  V30 1501 C 147.557 -1.98995 -0.584442 0
M  V30 1502 C 147.982 -0.970528 -1.61128 0
M  V30 1503 O 147.34 0.0613904 -1.81196 0
M  V30 1504 C 147.388 -3.39636 -1.21161 0
M  V30 1505 O 146.492 -3.40447 -2.32744 0
M  V30 1506 H 145.833 -0.647165 -0.148572 0
M  V30 1507 H 148.363 -2.03873 0.172347 0
M  V30 1508 H 148.373 -3.7726 -1.55367 0
M  V30 1509 H 147.048 -4.13356 -0.459313 0
M  V30 1510 H 145.625 -3.14614 -2.0018 0
M  V30 1511 N 147.81 0.181792 -1.56548 0
M  V30 1512 C 149.056 0.901431 -1.81665 0
M  V30 1513 C 149.389 1.82347 -0.668075 0
M  V30 1514 O 148.664 1.91669 0.330615 0
M  V30 1515 C 148.947 1.70618 -3.17115 0
M  V30 1516 C 148.8 0.807964 -4.42484 0
M  V30 1517 C 150.119 2.67605 -3.49393 0
M  V30 1518 H 147.238 0.32627 -0.660846 0
M  V30 1519 H 149.88 0.168134 -1.89255 0
M  V30 1520 H 148.03 2.33133 -3.10775 0
M  V30 1521 H 149.702 0.19649 -4.60881 0
M  V30 1522 H 147.945 0.115411 -4.33646 0
M  V30 1523 H 148.616 1.40632 -5.33785 0
M  V30 1524 H 151.092 2.15218 -3.56118 0
M  V30 1525 H 149.968 3.20985 -4.45264 0
M  V30 1526 H 150.229 3.47298 -2.73563 0
M  V30 1527 N 149.288 1.51039 0.449983 0
M  V30 1528 C 150.536 1.62759 1.19808 0
M  V30 1529 C 150.857 0.339981 1.92013 0
M  V30 1530 O 150.127 -0.643606 1.85026 0
M  V30 1531 H 148.707 0.599811 0.445237 0
M  V30 1532 H 151.369 1.87914 0.517138 0
M  V30 1533 H 150.465 2.44911 1.93455 0
M  V30 1534 N 150.766 -0.704594 1.40972 0
M  V30 1535 C 151.698 -1.82974 1.38033 0
M  V30 1536 C 152.711 -1.60305 0.283931 0
M  V30 1537 O 153.9 -1.69975 0.545042 0
M  V30 1538 C 151 -3.19578 1.12795 0
M  V30 1539 C 150.173 -3.69352 2.34302 0
M  V30 1540 C 149.232 -4.84601 2.05058 0
M  V30 1541 O 148.258 -4.96682 2.7802 0
M  V30 1542 N 149.46 -5.71194 1.03528 0
M  V30 1543 H 152.225 -1.85991 2.35005 0
M  V30 1544 H 149.786 -0.886567 1.35468 0
M  V30 1545 H 151.778 -3.9429 0.911987 0
M  V30 1546 H 150.348 -3.11642 0.24452 0
M  V30 1547 H 149.568 -2.85649 2.71659 0
M  V30 1548 H 150.856 -3.99345 3.1528 0
M  V30 1549 H 150.254 -5.64054 0.431217 0
M  V30 1550 H 148.811 -6.45843 0.879205 0
M  V30 1551 N 152.244 -1.26651 -0.937939 0
M  V30 1552 C 153.492 -1.12165 -1.68118 0
M  V30 1553 C 153.813 0.334983 -1.92101 0
M  V30 1554 O 153.083 1.23583 -1.52 0
M  V30 1555 H 151.663 -0.412093 -0.623048 0
M  V30 1556 H 154.325 -1.59027 -1.12678 0
M  V30 1557 H 153.421 -1.64289 -2.6536 0
M  V30 1558 N 153.722 1.14298 -1.08507 0
M  V30 1559 C 155.133 1.66926 -0.836227 0
M  V30 1560 C 155.484 1.85576 0.63686 0
M  V30 1561 O 154.609 1.56767 1.49175 0
M  V30 1562 C 155.204 3.03219 -1.51142 0
M  V30 1563 C 153.763 3.52876 -1.30979 0
M  V30 1564 C 152.91 2.2833 -1.57356 0
M  V30 1565 H 155.861 0.983491 -1.24552 0
M  V30 1566 H 155.882 3.68726 -0.939211 0
M  V30 1567 H 155.394 2.89612 -2.58353 0
M  V30 1568 H 153.495 3.71703 -0.258429 0
M  V30 1569 H 153.608 4.33586 -2.03814 0
M  V30 1570 H 151.972 2.34454 -0.995164 0
M  V30 1571 H 152.755 2.17298 -2.65775 0
M  V30 1572 N 155.201 0.870884 1.31352 0
M  V30 1573 C 156.164 0.332243 2.26779 0
M  V30 1574 C 157.164 -0.517302 1.52252 0
M  V30 1575 O 158.354 -0.326477 1.71113 0
M  V30 1576 C 155.486 -0.528066 3.36785 0
M  V30 1577 H 156.679 1.17469 2.75937 0
M  V30 1578 H 154.232 0.64655 1.423 0
M  V30 1579 H 154.967 -1.39167 2.92922 0
M  V30 1580 H 154.752 0.0802582 3.92018 0
M  V30 1581 H 156.242 -0.897179 4.07849 0
M  V30 1582 N 156.679 -1.44442 0.630414 0
M  V30 1583 C 157.626 -2.30678 -0.0749355 0
M  V30 1584 C 158.596 -1.4344 -0.837502 0
M  V30 1585 O 159.781 -1.72343 -0.818684 0
M  V30 1586 C 156.921 -3.28706 -1.05103 0
M  V30 1587 C 156.034 -4.31046 -0.286954 0
M  V30 1588 C 155.169 -5.16167 -1.2548 0
M  V30 1589 C 154.208 -6.10216 -0.479843 0
M  V30 1590 N 153.345 -6.88039 -1.39811 0
M  V30 1591 H 158.185 -2.90454 0.666386 0
M  V30 1592 H 155.722 -1.43107 0.340404 0
M  V30 1593 H 157.68 -3.84027 -1.63031 0
M  V30 1594 H 156.31 -2.70632 -1.75949 0
M  V30 1595 H 155.362 -3.78203 0.408243 0
M  V30 1596 H 156.674 -4.97794 0.316657 0
M  V30 1597 H 155.828 -5.76002 -1.90544 0
M  V30 1598 H 154.567 -4.49491 -1.89233 0
M  V30 1599 H 153.572 -5.49491 0.184295 0
M  V30 1600 H 154.797 -6.78928 0.152965 0
M  V30 1601 H 152.743 -6.24032 -2.02287 0
M  V30 1602 H 152.66 -7.51223 -0.848508 0
M  V30 1603 H 153.928 -7.52397 -2.03762 0
M  V30 1604 N 158.157 -0.370918 -1.53173 0
M  V30 1605 C 159.385 0.217704 -2.05751 0
M  V30 1606 C 159.8 1.42018 -1.24404 0
M  V30 1607 O 159.157 1.80245 -0.286033 0
M  V30 1608 C 159.208 0.605954 -3.56385 0
M  V30 1609 O 158.929 -0.548734 -4.3465 0
M  V30 1610 C 160.43 1.2524 -4.25241 0
M  V30 1611 H 157.65 0.0371659 -0.66997 0
M  V30 1612 H 160.194 -0.530832 -1.9749 0
M  V30 1613 H 158.349 1.3044 -3.6478 0
M  V30 1614 H 158.763 -0.23376 -5.23979 0
M  V30 1615 H 160.237 1.47458 -5.3194 0
M  V30 1616 H 160.714 2.2143 -3.79296 0
M  V30 1617 H 161.32 0.595233 -4.21114 0
M  V30 1618 N 159.635 1.57281 -0.100228 0
M  V30 1619 C 160.568 2.09976 0.893612 0
M  V30 1620 C 161.546 1.01155 1.27304 0
M  V30 1621 O 162.73 1.28687 1.37739 0
M  V30 1622 C 159.857 2.58098 2.19324 0
M  V30 1623 C 158.903 3.78626 1.96328 0
M  V30 1624 S 159.736 5.21959 1.19662 0
M  V30 1625 C 160.892 5.73435 2.50844 0
M  V30 1626 H 161.125 2.93946 0.44534 0
M  V30 1627 H 158.658 1.53985 0.113167 0
M  V30 1628 H 160.616 2.8648 2.94005 0
M  V30 1629 H 159.277 1.74344 2.61272 0
M  V30 1630 H 158.47 4.10382 2.92579 0
M  V30 1631 H 158.072 3.50763 1.29775 0
M  V30 1632 H 160.364 5.82015 3.46792 0
M  V30 1633 H 161.307 6.7185 2.23659 0
M  V30 1634 H 161.715 5.01395 2.59352 0
M  V30 1635 N 161.113 -0.173488 1.56642 0
M  V30 1636 C 162.023 -1.23482 1.99473 0
M  V30 1637 C 163.039 -1.48567 0.905752 0
M  V30 1638 O 164.215 -1.60758 1.21321 0
M  V30 1639 C 161.28 -2.55444 2.34413 0
M  V30 1640 C 160.341 -2.38241 3.57127 0
M  V30 1641 C 159.574 -3.63909 3.90392 0
M  V30 1642 O 159.797 -4.68996 3.24653 0
M  V30 1643 O 158.731 -3.58149 4.83749 0
M  V30 1644 H 162.557 -0.901279 2.90018 0
M  V30 1645 H 160.142 -0.380185 1.44482 0
M  V30 1646 H 162.024 -3.33292 2.57865 0
M  V30 1647 H 160.699 -2.88382 1.4703 0
M  V30 1648 H 159.606 -1.58431 3.38896 0
M  V30 1649 H 160.939 -2.10228 4.45045 0
M  V30 1650 N 162.591 -1.51276 -0.441967 0
M  V30 1651 C 163.501 -1.75092 -1.56141 0
M  V30 1652 C 164.517 -0.634963 -1.62001 0
M  V30 1653 O 165.693 -0.916686 -1.79329 0
M  V30 1654 C 162.758 -1.86666 -2.92158 0
M  V30 1655 C 161.819 -3.10506 -2.96453 0
M  V30 1656 C 161.052 -3.21519 -4.25982 0
M  V30 1657 O 161.275 -2.38586 -5.18105 0
M  V30 1658 O 160.209 -4.14465 -4.36466 0
M  V30 1659 H 164.035 -2.70044 -1.38961 0
M  V30 1660 H 161.62 -1.35722 -0.624499 0
M  V30 1661 H 163.502 -1.96292 -3.72891 0
M  V30 1662 H 162.177 -0.949014 -3.09476 0
M  V30 1663 H 161.084 -3.06363 -2.14692 0
M  V30 1664 H 162.417 -4.01945 -2.84079 0
M  V30 1665 N 164.069 0.697108 -1.41344 0
M  V30 1666 C 165.032 1.79281 -1.42797 0
M  V30 1667 C 166.032 1.57607 -0.318837 0
M  V30 1668 O 167.222 1.64309 -0.578642 0
M  V30 1669 C 164.354 3.17632 -1.23785 0
M  V30 1670 H 165.547 1.79385 -2.40335 0
M  V30 1671 H 163.1 0.904582 -1.27464 0
M  V30 1672 H 163.835 3.23167 -0.270814 0
M  V30 1673 H 163.62 3.34765 -2.04144 0
M  V30 1674 H 165.11 3.97617 -1.27633 0
M  V30 1675 N 165.547 1.27147 0.931209 0
M  V30 1676 C 166.772 1.16191 1.71797 0
M  V30 1677 C 167.197 -0.278004 1.86034 0
M  V30 1678 O 166.555 -1.20137 1.35782 0
M  V30 1679 C 166.603 1.84673 3.09723 0
M  V30 1680 O 165.707 1.14231 3.96264 0
M  V30 1681 H 165.048 0.404303 0.526721 0
M  V30 1682 H 167.578 1.68152 1.1656 0
M  V30 1683 H 167.588 1.91893 3.60057 0
M  V30 1684 H 166.263 2.89421 2.98677 0
M  V30 1685 H 164.84 1.15056 3.54706 0
M  V30 1686 N 167.025 -1.13721 1.09112 0
M  V30 1687 C 167.972 -2.19031 0.727591 0
M  V30 1688 C 168.942 -1.63555 -0.289656 0
M  V30 1689 O 170.127 -1.90023 -0.172026 0
M  V30 1690 C 167.267 -3.4477 0.15082 0
M  V30 1691 C 166.38 -4.14365 1.22172 0
M  V30 1692 C 165.515 -5.27709 0.608042 0
M  V30 1693 C 164.554 -5.89147 1.66047 0
M  V30 1694 N 163.691 -6.93929 1.06806 0
M  V30 1695 H 168.531 -2.49475 1.62991 0
M  V30 1696 H 166.068 -1.22499 0.81439 0
M  V30 1697 H 168.026 -4.16714 -0.201358 0
M  V30 1698 H 166.656 -3.14787 -0.714783 0
M  V30 1699 H 165.708 -3.40737 1.69122 0
M  V30 1700 H 167.02 -4.56114 2.01895 0
M  V30 1701 H 166.174 -6.06355 0.204523 0
M  V30 1702 H 164.913 -4.872 -0.220769 0
M  V30 1703 H 163.918 -5.09198 2.07357 0
M  V30 1704 H 165.143 -6.31729 2.49189 0
M  V30 1705 H 163.089 -6.55483 0.260476 0
M  V30 1706 H 163.006 -7.34202 1.8023 0
M  V30 1707 H 164.274 -7.76434 0.690644 0
M  V30 1708 N 168.503 -0.877838 -1.30888 0
M  V30 1709 C 169.919 -0.570844 -1.49042 0
M  V30 1710 C 170.119 0.893159 -1.80624 0
M  V30 1711 O 169.175 1.67485 -1.88958 0
M  V30 1712 C 170.488 -1.47784 -2.61878 0
M  V30 1713 C 172.036 -1.48071 -2.75761 0
M  V30 1714 C 172.511 -2.37347 -3.91702 0
M  V30 1715 N 174.002 -2.35271 -3.99001 0
M  V30 1716 C 174.737 -3.01063 -4.88004 0
M  V30 1717 N 174.233 -3.76055 -5.81854 0
M  V30 1718 N 176.026 -2.90332 -4.81315 0
M  V30 1719 H 168.177 -1.82502 -1.0866 0
M  V30 1720 H 170.44 -0.780797 -0.537644 0
M  V30 1721 H 170.146 -2.51993 -2.45341 0
M  V30 1722 H 170.02 -1.18215 -3.58197 0
M  V30 1723 H 172.407 -0.446166 -2.91708 0
M  V30 1724 H 172.488 -1.81668 -1.80085 0
M  V30 1725 H 172.132 -3.40883 -3.76512 0
M  V30 1726 H 172.062 -2.01071 -4.86701 0
M  V30 1727 H 174.553 -1.80768 -3.3186 0
M  V30 1728 H 174.866 -4.23366 -6.46514 0
M  V30 1729 H 173.211 -3.80163 -5.81808 0
M  V30 1730 H 176.402 -2.31278 -4.06974 0
M  V30 1731 H 176.575 -3.41885 -5.50471 0
M  V30 1732 N 169.982 1.44106 -0.638065 0
M  V30 1733 C 171.207 2.0685 -0.150916 0
M  V30 1734 C 171.632 1.47417 1.16833 0
M  V30 1735 O 170.99 0.578264 1.71831 0
M  V30 1736 C 171.038 3.60555 -0.05708 0
M  V30 1737 O 170.142 4.00465 0.984972 0
M  V30 1738 H 169.483 0.658151 -0.0879399 0
M  V30 1739 H 172.013 1.84865 -0.876707 0
M  V30 1740 H 172.023 4.07789 0.131232 0
M  V30 1741 H 170.698 4.03193 -1.02021 0
M  V30 1742 H 169.275 3.64849 0.770672 0
M  V30 1743 N 171.46 0.379036 1.52974 0
M  V30 1744 C 172.69 -0.20649 2.05566 0
M  V30 1745 C 173.098 -1.41906 1.25137 0
M  V30 1746 O 172.441 -1.81421 0.288464 0
M  V30 1747 C 172.503 -0.651086 3.53555 0
M  V30 1748 C 172.167 0.446626 4.54812 0
M  V30 1749 C 173.164 1.30079 5.03364 0
M  V30 1750 C 170.849 0.610719 4.98573 0
M  V30 1751 C 172.843 2.30426 5.94292 0
M  V30 1752 C 170.53 1.61754 5.89304 0
M  V30 1753 C 171.528 2.46274 6.37054 0
M  V30 1754 O 171.216 3.45237 7.25994 0
M  V30 1755 H 170.948 -0.0372381 0.674974 0
M  V30 1756 H 173.502 0.539718 1.98182 0
M  V30 1757 H 171.732 -1.44911 3.58522 0
M  V30 1758 H 173.421 -1.16112 3.88938 0
M  V30 1759 H 174.187 1.18527 4.70294 0
M  V30 1760 H 170.066 -0.0374044 4.60985 0
M  V30 1761 H 173.61 2.96432 6.31485 0
M  V30 1762 H 169.507 1.73348 6.21788 0
M  V30 1763 H 170.275 3.41124 7.44027 0
M  V30 1764 N 172.938 -1.57226 0.108567 0
M  V30 1765 C 173.87 -2.11809 -0.875752 0
M  V30 1766 C 174.883 -1.05839 -1.23701 0
M  V30 1767 O 176.072 -1.33245 -1.18778 0
M  V30 1768 C 173.172 -2.59411 -2.18081 0
M  V30 1769 C 172.345 -3.89364 -1.99284 0
M  V30 1770 C 171.404 -4.22672 -3.13424 0
M  V30 1771 O 170.43 -4.91668 -2.86795 0
M  V30 1772 N 171.632 -3.79154 -4.3957 0
M  V30 1773 H 174.397 -2.9689 -0.409477 0
M  V30 1774 H 171.958 -1.61721 -0.076158 0
M  V30 1775 H 173.95 -2.7873 -2.93414 0
M  V30 1776 H 172.52 -1.79268 -2.5609 0
M  V30 1777 H 171.74 -3.79059 -1.08203 0
M  V30 1778 H 173.028 -4.74358 -1.84017 0
M  V30 1779 H 172.426 -3.23486 -4.64083 0
M  V30 1780 H 170.983 -4.03602 -5.11809 0
M  V30 1781 N 174.416 0.165178 -1.56732 0
M  V30 1782 C 175.663 0.880807 -1.8234 0
M  V30 1783 C 175.991 1.81977 -0.686621 0
M  V30 1784 O 175.246 1.92971 0.325697 0
M  V30 1785 C 175.545 1.70405 -3.1416 0
M  V30 1786 C 175.211 0.913475 -4.4155 0
M  V30 1787 C 173.873 0.695303 -4.7615 0
M  V30 1788 C 176.225 0.359349 -5.1996 0
M  V30 1789 C 173.553 -0.0879947 -5.86634 0
M  V30 1790 C 175.905 -0.410893 -6.31264 0
M  V30 1791 C 174.569 -0.639808 -6.64427 0
M  V30 1792 H 173.839 0.32231 -0.667231 0
M  V30 1793 H 176.486 0.145402 -1.90947 0
M  V30 1794 H 174.791 2.50903 -3.00923 0
M  V30 1795 H 176.488 2.26091 -3.31186 0
M  V30 1796 H 173.078 1.09357 -4.14414 0
M  V30 1797 H 177.262 0.515228 -4.93618 0
M  V30 1798 H 172.518 -0.27503 -6.10781 0
M  V30 1799 H 176.692 -0.847494 -6.91224 0
M  V30 1800 H 174.319 -1.24864 -7.49875 0
M  V30 1801 N 175.894 1.51508 0.433938 0
M  V30 1802 C 177.14 1.65549 1.18173 0
M  V30 1803 C 177.495 0.368751 1.88833 0
M  V30 1804 O 176.788 -0.635616 1.8075 0
M  V30 1805 C 176.982 2.79928 2.22205 0
M  V30 1806 C 176.811 4.19601 1.61756 0
M  V30 1807 C 175.581 4.85489 1.40101 0
M  V30 1808 C 177.779 5.02574 1.09194 0
M  V30 1809 N 175.761 6.09266 0.752859 0
M  V30 1810 C 177.132 6.17381 0.569255 0
M  V30 1811 C 179.187 4.88079 0.984025 0
M  V30 1812 C 177.89 7.19282 -0.0507472 0
M  V30 1813 C 179.916 5.90191 0.377912 0
M  V30 1814 C 179.278 7.04272 -0.134216 0
M  V30 1815 H 175.377 0.659653 0.419979 0
M  V30 1816 H 177.961 1.88746 0.477818 0
M  V30 1817 H 176.132 2.5839 2.89982 0
M  V30 1818 H 177.864 2.83132 2.89168 0
M  V30 1819 H 174.619 4.43417 1.66369 0
M  V30 1820 H 175.043 6.75528 0.446123 0
M  V30 1821 H 179.685 4.00131 1.36583 0
M  V30 1822 H 177.403 8.06876 -0.444676 0
M  V30 1823 H 180.989 5.81045 0.296269 0
M  V30 1824 H 179.869 7.81933 -0.59585 0
M  V30 1825 N 177.372 -0.689602 1.41712 0
M  V30 1826 C 178.649 -1.44457 1.31877 0
M  V30 1827 C 179.029 -2.11039 -0.0508537 0
M  V30 1828 O 178.377 -2.02138 -1.06547 0
M  V30 1829 C 178.587 -2.45913 2.47645 0
M  V30 1830 C 179.935 -3.10991 2.89084 0
M  V30 1831 O 180.959 -2.56238 2.47428 0
M  V30 1832 O 179.818 -4.10174 3.61137 0
M  V30 1833 H 176.912 -0.64362 0.519309 0
M  V30 1834 H 179.458 -0.719576 1.53689 0
M  V30 1835 H 178.23 -1.95409 3.39015 0
M  V30 1836 H 177.853 -3.25913 2.27742 0
M  V30 1837 N 178.85 -1.27639 -0.924453 0
M  V30 1838 C 180.078 -1.16989 -1.70649 0
M  V30 1839 C 180.493 0.272869 -1.86818 0
M  V30 1840 O 179.85 1.18549 -1.38753 0
M  V30 1841 C 179.901 -1.85229 -3.10439 0
M  V30 1842 O 179.622 -3.23868 -2.95028 0
M  V30 1843 C 181.123 -1.80746 -4.04779 0
M  V30 1844 H 178.343 -0.406595 -0.53378 0
M  V30 1845 H 180.887 -1.68569 -1.15778 0
M  V30 1846 H 179.042 -1.37545 -3.6216 0
M  V30 1847 H 179.456 -3.57889 -3.83426 0
M  V30 1848 H 180.93 -2.33101 -5.00368 0
M  V30 1849 H 181.407 -0.777499 -4.32263 0
M  V30 1850 H 182.013 -2.28059 -3.58984 0
M  V30 1851 N 180.328 1.1314 -1.09713 0
M  V30 1852 C 181.26 2.18343 -0.697056 0
M  V30 1853 C 182.273 1.60669 0.262551 0
M  V30 1854 O 183.462 1.78435 0.0481527 0
M  V30 1855 C 180.562 3.38899 -0.00684728 0
M  V30 1856 C 179.735 4.26078 -0.988741 0
M  V30 1857 C 178.794 5.25155 -0.331394 0
M  V30 1858 O 177.82 5.60701 -0.979926 0
M  V30 1859 N 179.022 5.73271 0.913261 0
M  V30 1860 H 181.787 2.5328 -1.60216 0
M  V30 1861 H 179.348 1.28491 -0.984971 0
M  V30 1862 H 181.34 4.02255 0.444191 0
M  V30 1863 H 179.91 3.02175 0.800551 0
M  V30 1864 H 179.13 3.59453 -1.61826 0
M  V30 1865 H 180.418 4.81178 -1.65364 0
M  V30 1866 H 179.816 5.46544 1.45966 0
M  V30 1867 H 178.373 6.3855 1.30757 0
M  V30 1868 N 181.806 0.884767 1.30421 0
M  V30 1869 C 183.217 0.553656 1.78302 0
M  V30 1870 C 183.568 -0.930153 1.7275 0
M  V30 1871 O 182.693 -1.72681 1.30423 0
M  V30 1872 C 183.288 0.998234 3.2376 0
M  V30 1873 C 181.847 0.71854 3.69478 0
M  V30 1874 C 180.994 1.18132 2.50879 0
M  V30 1875 H 183.945 1.06901 1.17294 0
M  V30 1876 H 183.966 0.327118 3.79091 0
M  V30 1877 H 183.478 2.0782 3.27769 0
M  V30 1878 H 181.579 -0.349444 3.70958 0
M  V30 1879 H 181.692 1.30595 4.60958 0
M  V30 1880 H 180.056 0.600669 2.47516 0
M  V30 1881 H 180.839 2.26902 2.57624 0
M  V30 1882 N 183.284 -1.43765 0.645699 0
M  V30 1883 C 184.53 -2.02197 0.156271 0
M  V30 1884 C 184.863 -1.50776 -1.22393 0
M  V30 1885 O 184.138 -0.697771 -1.81553 0
M  V30 1886 C 184.421 -3.59749 0.158872 0
M  V30 1887 C 184.274 -4.21419 1.57245 0
M  V30 1888 C 185.593 -4.37149 -0.50879 0
M  V30 1889 H 182.712 -0.734694 0.0582602 0
M  V30 1890 H 185.354 -1.71157 0.824951 0
M  V30 1891 H 183.504 -3.86325 -0.410525 0
M  V30 1892 H 185.176 -4.059 2.19186 0
M  V30 1893 H 183.419 -3.78356 2.122 0
M  V30 1894 H 184.09 -5.30482 1.52619 0
M  V30 1895 H 186.566 -4.16093 -0.024412 0
M  V30 1896 H 185.442 -5.4683 -0.476213 0
M  V30 1897 H 185.703 -4.12839 -1.58165 0
M  V30 1898 N 184.763 -0.387143 -1.52771 0
M  V30 1899 C 186.174 0.0873634 -1.86495 0
M  V30 1900 C 186.525 1.46336 -1.30691 0
M  V30 1901 O 185.65 2.068 -0.637409 0
M  V30 1902 C 186.245 0.165305 -3.38396 0
M  V30 1903 C 184.804 0.584101 -3.7184 0
M  V30 1904 C 183.951 -0.255279 -2.76122 0
M  V30 1905 H 186.902 -0.605104 -1.46711 0
M  V30 1906 H 186.923 0.984848 -3.67534 0
M  V30 1907 H 186.435 -0.836301 -3.78982 0
M  V30 1908 H 184.536 1.59315 -3.36823 0
M  V30 1909 H 184.649 0.343749 -4.77865 0
M  V30 1910 H 183.013 0.279126 -2.53166 0
M  V30 1911 H 183.796 -1.25482 -3.19545 0
M  V30 1912 N 186.241 1.57166 -0.116904 0
M  V30 1913 C 187.188 2.15202 0.83408 0
M  V30 1914 C 188.158 1.07644 1.26499 0
M  V30 1915 O 189.343 1.35541 1.34288 0
M  V30 1916 C 186.483 2.75405 2.07957 0
M  V30 1917 C 185.596 3.97264 1.69721 0
M  V30 1918 C 184.731 4.45561 2.89221 0
M  V30 1919 C 183.77 5.59956 2.47215 0
M  V30 1920 N 182.907 6.03006 3.59622 0
M  V30 1921 H 187.747 2.96141 0.332335 0
M  V30 1922 H 185.284 1.46309 0.152349 0
M  V30 1923 H 187.242 3.08439 2.80929 0
M  V30 1924 H 185.872 1.97159 2.55594 0
M  V30 1925 H 184.924 3.70404 0.866316 0
M  V30 1926 H 186.236 4.80226 1.34849 0
M  V30 1927 H 185.39 4.80493 3.7042 0
M  V30 1928 H 184.129 3.61544 3.27318 0
M  V30 1929 H 183.134 5.2463 1.64448 0
M  V30 1930 H 184.359 6.45738 2.10238 0
M  V30 1931 H 182.305 5.21931 3.97396 0
M  V30 1932 H 182.222 6.80819 3.28667 0
M  V30 1933 H 183.49 6.42576 4.41267 0
M  V30 1934 N 187.719 -0.156864 1.56817 0
M  V30 1935 C 188.649 -1.19589 2.00551 0
M  V30 1936 C 189.63 -1.4536 0.883426 0
M  V30 1937 O 190.815 -1.56449 1.15054 0
M  V30 1938 C 187.945 -2.53143 2.37773 0
M  V30 1939 C 186.899 -2.41913 3.53075 0
M  V30 1940 C 186.225 -3.80088 3.76081 0
M  V30 1941 C 187.525 -1.91157 4.86062 0
M  V30 1942 H 189.219 -0.832293 2.87599 0
M  V30 1943 H 186.765 -0.398918 1.38364 0
M  V30 1944 H 188.718 -3.26047 2.66967 0
M  V30 1945 H 187.442 -2.91319 1.4765 0
M  V30 1946 H 186.101 -1.71462 3.24031 0
M  V30 1947 H 185.749 -4.15683 2.83225 0
M  V30 1948 H 185.449 -3.73439 4.53671 0
M  V30 1949 H 186.973 -4.54556 4.0769 0
M  V30 1950 H 188.387 -2.53846 5.14038 0
M  V30 1951 H 186.784 -1.95422 5.67389 0
M  V30 1952 H 187.854 -0.866673 4.77092 0
M  V30 1953 N 189.197 -1.51736 -0.425897 0
M  V30 1954 C 190.445 -1.64644 -1.17204 0
M  V30 1955 C 190.766 -0.370486 -1.91448 0
M  V30 1956 O 190.036 0.614088 -1.86026 0
M  V30 1957 H 188.616 -0.606819 -0.435638 0
M  V30 1958 H 191.278 -1.88713 -0.487177 0
M  V30 1959 H 190.374 -2.47958 -1.89534 0
M  V30 1960 N 190.675 0.682077 -1.42076 0
M  V30 1961 C 191.585 1.82535 -1.47371 0
M  V30 1962 C 192.601 1.7017 -0.363079 0
M  V30 1963 O 193.777 1.91848 -0.612875 0
M  V30 1964 C 190.842 3.18624 -1.36674 0
M  V30 1965 C 189.903 3.42999 -2.58167 0
M  V30 1966 C 189.136 4.72595 -2.4797 0
M  V30 1967 O 189.359 5.50006 -1.5116 0
M  V30 1968 O 188.293 4.98054 -3.37974 0
M  V30 1969 H 192.119 1.81023 -2.43853 0
M  V30 1970 H 189.704 0.836887 -1.2376 0
M  V30 1971 H 191.586 3.99847 -1.33043 0
M  V30 1972 H 190.261 3.20789 -0.433138 0
M  V30 1973 H 189.168 2.61653 -2.67373 0
M  V30 1974 H 190.501 3.45659 -3.50401 0
M  V30 1975 N 192.153 1.28127 0.917671 0
M  V30 1976 C 193.399 1.15223 1.66888 0
M  V30 1977 C 193.732 -0.299293 1.9188 0
M  V30 1978 O 193.007 -1.21805 1.51637 0
M  V30 1979 C 193.29 1.94706 3.02922 0
M  V30 1980 C 193.143 3.47898 2.85109 0
M  V30 1981 C 194.462 1.75939 4.03402 0
M  V30 1982 H 191.581 0.419946 0.605652 0
M  V30 1983 H 194.223 1.57398 1.06423 0
M  V30 1984 H 192.373 1.58864 3.54534 0
M  V30 1985 H 194.045 3.93624 2.40537 0
M  V30 1986 H 192.288 3.7373 2.20246 0
M  V30 1987 H 192.959 3.98765 3.81694 0
M  V30 1988 H 195.435 2.07209 3.60837 0
M  V30 1989 H 194.311 2.33931 4.96556 0
M  V30 1990 H 194.572 0.709877 4.36364 0
M  V30 1991 N 193.631 -1.12557 1.10312 0
M  V30 1992 C 194.877 -1.84311 0.846011 0
M  V30 1993 C 195.21 -1.83805 -0.626859 0
M  V30 1994 O 194.485 -1.28268 -1.46211 0
M  V30 1995 C 194.768 -3.32048 1.39341 0
M  V30 1996 C 194.621 -3.41016 2.93305 0
M  V30 1997 C 195.94 -4.27764 1.03468 0
M  V30 1998 H 193.059 -0.669192 0.30879 0
M  V30 1999 H 195.701 -1.32057 1.36605 0
M  V30 2000 H 193.851 -3.76678 0.951087 0
M  V30 2001 H 195.523 -3.05031 3.46055 0
M  V30 2002 H 193.766 -2.81603 3.29973 0
M  V30 2003 H 194.437 -4.44948 3.26689 0
M  V30 2004 H 196.913 -3.91253 1.41633 0
M  V30 2005 H 195.789 -5.29549 1.44463 0
M  V30 2006 H 196.05 -4.42064 -0.0560404 0
M  V30 2007 N 195.109 -0.891671 -1.2995 0
M  V30 2008 C 196.057 -0.353066 -2.29905 0
M  V30 2009 C 197.051 0.543509 -1.60444 0
M  V30 2010 O 198.257 0.4272 -1.74857 0
M  V30 2011 H 194.632 -0.095531 -0.745907 0
M  V30 2012 H 196.603 -1.20961 -2.72784 0
M  V30 2013 C 195.352 0.411475 -3.45257 0
M  V30 2014 H 194.675 -0.269182 -3.98893 0
M  V30 2015 H 196.115 0.753328 -4.17254 0
M  V30 2016 C 194.574 1.6111 -2.9588 0
M  V30 2017 O 195.104 2.71045 -2.96475 0
M  V30 2018 N 193.31 1.45054 -2.51809 0
M  V30 2019 H 192.857 0.556175 -2.51524 0
M  V30 2020 H 192.815 2.25453 -2.1913 0
M  V30 2021 N 196.587 1.43421 -0.653314 0
M  V30 2022 C 197.815 2.06163 -0.174491 0
M  V30 2023 C 198.23 1.48969 1.1599 0
M  V30 2024 O 197.587 0.621042 1.71608 0
M  V30 2025 C 197.638 3.61417 -0.0774865 0
M  V30 2026 O 197.359 4.16485 -1.35912 0
M  V30 2027 C 198.86 4.41235 0.427402 0
M  V30 2028 H 196.08 0.664946 -0.0899353 0
M  V30 2029 H 198.624 1.83924 -0.893988 0
M  V30 2030 H 196.779 3.82841 0.59257 0
M  V30 2031 H 197.193 5.10153 -1.21839 0
M  V30 2032 H 198.667 5.5021 0.44423 0
M  V30 2033 H 199.144 4.14268 1.45873 0
M  V30 2034 H 199.75 4.2478 -0.210167 0
M  V30 2035 N 198.065 0.39524 1.52563 0
M  V30 2036 C 199.015 -0.4541 2.23432 0
M  V30 2037 C 199.999 -1.02482 1.24042 0
M  V30 2038 O 201.191 -0.949938 1.49349 0
M  V30 2039 C 198.32 -1.57769 3.049 0
M  V30 2040 C 197.406 -1.01842 4.1169 0
M  V30 2041 N 197.797 -0.184613 5.05463 0
M  V30 2042 C 196.095 -1.29033 4.26927 0
M  V30 2043 C 196.796 0.125013 5.81566 0
M  V30 2044 N 195.772 -0.480498 5.41472 0
M  V30 2045 H 199.574 0.189413 2.93289 0
M  V30 2046 H 197.088 0.204877 1.61102 0
M  V30 2047 H 199.085 -2.19862 3.54212 0
M  V30 2048 H 197.745 -2.22397 2.36579 0
M  V30 2049 H 198.756 0.178602 5.17592 0
M  V30 2050 H 195.433 -1.93721 3.69836 0
M  V30 2051 H 196.823 0.800962 6.67109 0
M  V30 2052 N 199.544 -1.57102 0.125237 0
M  V30 2053 C 200.792 -1.95021 -0.530198 0
M  V30 2054 C 201.113 -1.00982 -1.66816 0
M  V30 2055 O 200.383 -0.0672693 -1.95784 0
M  V30 2056 H 198.963 -0.720046 -0.198853 0
M  V30 2057 H 201.625 -1.93916 0.19564 0
M  V30 2058 H 200.721 -2.98211 -0.920681 0
M  V30 2059 N 201.022 0.148545 -1.56898 0
M  V30 2060 C 202.433 0.708766 -1.72723 0
M  V30 2061 C 202.784 1.81734 -0.739395 0
M  V30 2062 O 201.909 2.16194 0.0943169 0
M  V30 2063 C 202.504 1.29245 -3.13179 0
M  V30 2064 C 201.063 1.79925 -3.30611 0
M  V30 2065 C 200.21 0.687111 -2.68652 0
M  V30 2066 H 203.161 -0.0771063 -1.58513 0
M  V30 2067 H 203.182 2.16224 -3.13093 0
M  V30 2068 H 202.694 0.485382 -3.85053 0
M  V30 2069 H 200.795 2.63203 -2.63732 0
M  V30 2070 H 200.908 1.92903 -4.38549 0
M  V30 2071 H 199.272 1.11335 -2.29078 0
M  V30 2072 H 200.055 -0.108483 -3.43129 0
M  V30 2073 N 202.5 1.5196 0.417844 0
M  V30 2074 C 203.746 1.65836 1.16732 0
M  V30 2075 C 204.079 0.382881 1.90388 0
M  V30 2076 O 203.354 -0.618368 1.84408 0
M  V30 2077 C 203.637 2.87466 2.16876 0
M  V30 2078 C 203.49 4.25041 1.47174 0
M  V30 2079 C 204.809 3.04613 3.17646 0
M  V30 2080 H 201.928 0.603515 0.423011 0
M  V30 2081 H 204.57 1.84494 0.454105 0
M  V30 2082 H 202.72 2.71689 2.777 0
M  V30 2083 H 204.392 4.52527 0.895376 0
M  V30 2084 H 202.635 4.26843 0.773806 0
M  V30 2085 H 203.306 5.06176 2.20204 0
M  V30 2086 H 205.782 3.1923 2.66892 0
M  V30 2087 H 204.658 3.91247 3.8499 0
M  V30 2088 H 204.919 2.17541 3.84874 0
M  V30 2089 N 203.978 -0.674533 1.42435 0
M  V30 2090 C 204.888 -1.81751 1.48337 0
M  V30 2091 C 205.904 -1.69975 0.372099 0
M  V30 2092 O 207.08 -1.91521 0.62304 0
M  V30 2093 C 204.145 -3.17895 1.38361 0
M  V30 2094 C 203.206 -3.41625 2.59982 0
M  V30 2095 C 202.439 -4.71274 2.50473 0
M  V30 2096 O 202.662 -5.49197 1.54075 0
M  V30 2097 O 201.596 -4.96254 3.4061 0
M  V30 2098 H 205.422 -1.79728 2.44809 0
M  V30 2099 H 203.007 -0.830312 1.24202 0
M  V30 2100 H 204.889 -3.99136 1.35161 0
M  V30 2101 H 203.564 -3.20555 0.450144 0
M  V30 2102 H 202.471 -2.60231 2.68757 0
M  V30 2103 H 203.804 -3.43796 3.52229 0
M  V30 2104 N 205.456 -1.28612 -0.910864 0
M  V30 2105 C 206.867 -1.14406 -1.47541 0
M  V30 2106 C 207.218 0.264901 -1.94403 0
M  V30 2107 O 206.343 1.15942 -1.82719 0
M  V30 2108 C 206.938 -2.07073 -2.68153 0
M  V30 2109 C 205.497 -1.96923 -3.20778 0
M  V30 2110 C 204.644 -1.98646 -1.93481 0
M  V30 2111 H 207.595 -1.41259 -0.723291 0
M  V30 2112 H 207.616 -1.63642 -3.43514 0
M  V30 2113 H 207.128 -3.09611 -2.34015 0
M  V30 2114 H 205.229 -0.97433 -3.59635 0
M  V30 2115 H 205.342 -2.84026 -3.85832 0
M  V30 2116 H 203.706 -1.43093 -2.10705 0
M  V30 2117 H 204.489 -3.02868 -1.61634 0
M  V30 2118 N 206.934 1.1197 -1.10907 0
M  V30 2119 C 208.211 1.79959 -0.766432 0
M  V30 2120 C 208.591 1.97466 0.746363 0
M  V30 2121 O 207.939 1.55491 1.67436 0
M  V30 2122 C 208.149 3.14009 -1.52314 0
M  V30 2123 C 209.497 3.89134 -1.69883 0
M  V30 2124 O 210.521 3.2368 -1.48692 0
M  V30 2125 O 209.38 5.06572 -2.05054 0
M  V30 2126 H 206.474 0.779208 -0.277062 0
M  V30 2127 H 209.02 1.18762 -1.21217 0
M  V30 2128 H 207.792 2.96587 -2.55249 0
M  V30 2129 H 207.415 3.82915 -1.07059 0
M  V30 2130 N 208.412 0.89855 1.29475 0
M  V30 2131 C 209.359 0.373819 2.27753 0
M  V30 2132 C 210.329 -0.543444 1.56958 0
M  V30 2133 O 211.514 -0.468934 1.84948 0
M  V30 2134 C 208.654 -0.393648 3.42848 0
M  V30 2135 C 207.767 0.554379 4.28428 0
M  V30 2136 C 206.902 -0.230026 5.30702 0
M  V30 2137 C 205.941 0.712599 6.07938 0
M  V30 2138 N 205.078 -0.0373283 7.0209 0
M  V30 2139 H 209.918 1.21699 2.72017 0
M  V30 2140 H 207.455 0.611456 1.33789 0
M  V30 2141 H 209.413 -0.85466 4.08352 0
M  V30 2142 H 208.043 -1.20128 2.99615 0
M  V30 2143 H 207.095 1.13391 3.63107 0
M  V30 2144 H 208.407 1.27597 4.82204 0
M  V30 2145 H 207.561 -0.752288 6.02018 0
M  V30 2146 H 206.3 -0.984758 4.77654 0
M  V30 2147 H 205.305 1.24637 5.35486 0
M  V30 2148 H 206.53 1.46664 6.63074 0
M  V30 2149 H 204.476 -0.774348 6.51414 0
M  V30 2150 H 204.393 0.624374 7.53417 0
M  V30 2151 H 205.661 -0.539891 7.77628 0
M  V30 2152 N 209.89 -1.43072 0.660911 0
M  V30 2153 C 211.167 -1.95307 0.107017 0
M  V30 2154 C 211.547 -1.60192 -1.37484 0
M  V30 2155 O 210.895 -0.890949 -2.10415 0
M  V30 2156 C 211.105 -3.47124 0.361402 0
M  V30 2157 C 212.453 -4.23738 0.270455 0
M  V30 2158 O 213.477 -3.54981 0.294382 0
M  V30 2159 O 212.336 -5.46131 0.200737 0
M  V30 2160 H 209.43 -0.826984 -0.00517729 0
M  V30 2161 H 211.976 -1.52972 0.734681 0
M  V30 2162 H 210.748 -3.65837 1.38848 0
M  V30 2163 H 210.371 -3.96475 -0.298953 0
M  V30 2164 N 211.368 -0.403325 -1.52352 0
M  V30 2165 C 212.316 0.439752 -2.28405 0
M  V30 2166 C 213.31 1.05089 -1.32863 0
M  V30 2167 O 214.516 0.989759 -1.50345 0
M  V30 2168 H 210.891 0.160587 -0.734653 0
M  V30 2169 H 212.862 -0.222983 -2.97566 0
M  V30 2170 C 211.611 1.54736 -3.11371 0
M  V30 2171 H 210.934 1.08643 -3.84755 0
M  V30 2172 H 212.374 2.1112 -3.67701 0
M  V30 2173 C 210.833 2.51141 -2.24566 0
M  V30 2174 O 211.363 3.54887 -1.88196 0
M  V30 2175 N 209.569 2.21213 -1.8845 0
M  V30 2176 H 209.116 1.36878 -2.18225 0
M  V30 2177 H 209.074 2.85963 -1.30662 0
M  V30 2178 N 212.846 1.57033 -0.133567 0
M  V30 2179 C 214.095 1.94861 0.520768 0
M  V30 2180 C 214.408 1.02012 1.66892 0
M  V30 2181 O 215.614 1.29365 2.38699 0
M  V30 2182 C 214.07 3.46362 0.977809 0
M  V30 2183 C 213.678 4.47773 -0.142674 0
M  V30 2184 C 215.422 3.93083 1.60269 0
M  V30 2185 C 213.329 5.90468 0.331883 0
M  V30 2186 H 212.259 0.727453 0.198315 0
M  V30 2187 H 214.91 1.82227 -0.215759 0
M  V30 2188 H 213.292 3.54282 1.7692 0
M  V30 2189 H 214.466 4.51536 -0.919317 0
M  V30 2190 H 212.781 4.10891 -0.675124 0
M  V30 2191 H 215.378 4.97121 1.96914 0
M  V30 2192 H 215.721 3.33876 2.48662 0
M  V30 2193 H 216.254 3.88025 0.876453 0
M  V30 2194 H 212.993 6.53463 -0.516341 0
M  V30 2195 H 212.513 5.90094 1.07469 0
M  V30 2196 H 214.192 6.42179 0.788332 0
M  V30 2197 N 214.325 -0.140222 1.56975 0
M  V30 2198 C 215.741 -0.493088 1.51792 0
M  V30 2199 C 215.941 -1.83013 0.843116 0
M  V30 2200 O 214.997 -2.49041 0.416493 0
M  V30 2201 C 216.31 -0.497144 2.96562 0
M  V30 2202 C 217.858 -0.582186 3.07538 0
M  V30 2203 C 218.333 -0.616838 4.53827 0
M  V30 2204 N 219.824 -0.678873 4.58198 0
M  V30 2205 C 220.559 -0.726782 5.68775 0
M  V30 2206 N 220.055 -0.733623 6.88905 0
M  V30 2207 N 221.848 -0.768179 5.56826 0
M  V30 2208 H 213.999 0.736108 1.99237 0
M  V30 2209 H 216.262 0.269182 0.90898 0
M  V30 2210 H 215.968 0.417217 3.49217 0
M  V30 2211 H 215.842 -1.33263 3.52875 0
M  V30 2212 H 218.229 -1.48697 2.54899 0
M  V30 2213 H 218.31 0.280581 2.54257 0
M  V30 2214 H 217.954 0.283812 5.07106 0
M  V30 2215 H 217.884 -1.49619 5.04898 0
M  V30 2216 H 220.375 -0.68061 3.7172 0
M  V30 2217 H 220.688 -0.772215 7.68932 0
M  V30 2218 H 219.033 -0.701389 6.91452 0
M  V30 2219 H 222.224 -0.760051 4.61888 0
M  V30 2220 H 222.397 -0.80205 6.43017 0
M  V30 2221 N 215.803 -1.52179 -0.40978 0
M  V30 2222 C 216.735 -1.71703 -1.51825 0
M  V30 2223 C 217.748 -0.597445 -1.51441 0
M  V30 2224 O 218.937 -0.872582 -1.55719 0
M  V30 2225 C 216.037 -1.74171 -2.90719 0
M  V30 2226 C 215.21 -3.03156 -3.15302 0
M  V30 2227 C 214.269 -2.97445 -4.34065 0
M  V30 2228 O 213.295 -3.71352 -4.31377 0
M  V30 2229 N 214.497 -2.15191 -5.39141 0
M  V30 2230 H 217.262 -2.67334 -1.35472 0
M  V30 2231 H 214.823 -1.50409 -0.599069 0
M  V30 2232 H 216.815 -1.67884 -3.68235 0
M  V30 2233 H 215.385 -0.860166 -3.00533 0
M  V30 2234 H 214.605 -3.23097 -2.25836 0
M  V30 2235 H 215.893 -3.88484 -3.28569 0
M  V30 2236 H 215.291 -1.54573 -5.44173 0
M  V30 2237 H 213.848 -2.1476 -6.15403 0
M  V30 2238 N 217.281 0.66697 -1.42791 0
M  V30 2239 C 218.191 1.80962 -1.49299 0
M  V30 2240 C 219.207 1.69775 -0.381108 0
M  V30 2241 O 220.383 1.91188 -0.633188 0
M  V30 2242 C 217.448 3.17156 -1.40045 0
M  V30 2243 C 216.509 3.40242 -2.6179 0
M  V30 2244 C 215.742 4.69939 -2.52969 0
M  V30 2245 O 215.965 5.48372 -1.56985 0
M  V30 2246 O 214.899 4.94441 -3.43237 0
M  V30 2247 H 218.725 1.78427 -2.45759 0
M  V30 2248 H 216.31 0.823713 -1.24641 0
M  V30 2249 H 218.192 3.98413 -1.37276 0
M  V30 2250 H 216.867 3.20312 -0.467138 0
M  V30 2251 H 215.774 2.58802 -2.70134 0
M  V30 2252 H 217.107 3.41923 -3.54047 0
M  V30 2253 N 218.759 1.29093 0.90403 0
M  V30 2254 C 220.17 1.15186 1.46932 0
M  V30 2255 C 220.521 -0.254587 1.94541 0
M  V30 2256 O 219.646 -1.14972 1.83332 0
M  V30 2257 C 220.241 2.08492 2.67051 0
M  V30 2258 C 218.8 1.98621 3.19729 0
M  V30 2259 C 217.947 1.9967 1.92425 0
M  V30 2260 H 220.898 1.41641 0.715789 0
M  V30 2261 H 220.919 1.65461 3.42641 0
M  V30 2262 H 220.431 3.10847 2.3237 0
M  V30 2263 H 218.532 0.993389 3.59114 0
M  V30 2264 H 218.645 2.86068 3.8432 0
M  V30 2265 H 217.009 1.44208 2.09943 0
M  V30 2266 H 217.792 3.03721 1.60026 0
M  V30 2267 N 220.237 -1.11381 1.11499 0
M  V30 2268 C 221.467 -1.86663 0.885464 0
M  V30 2269 C 221.875 -1.80464 -0.568281 0
M  V30 2270 O 221.218 -1.18445 -1.40415 0
M  V30 2271 C 221.28 -3.36337 1.26956 0
M  V30 2272 C 220.944 -3.66304 2.73259 0
M  V30 2273 C 221.941 -3.63733 3.71476 0
M  V30 2274 C 219.626 -3.9529 3.09921 0
M  V30 2275 C 221.62 -3.89725 5.04374 0
M  V30 2276 C 219.307 -4.20941 4.43004 0
M  V30 2277 C 220.305 -4.18147 5.40039 0
M  V30 2278 O 219.993 -4.43153 6.70724 0
M  V30 2279 H 219.725 -0.597114 0.316908 0
M  V30 2280 H 222.279 -1.41782 1.48617 0
M  V30 2281 H 220.509 -3.81826 0.611999 0
M  V30 2282 H 222.198 -3.92986 1.01573 0
M  V30 2283 H 222.964 -3.41389 3.44498 0
M  V30 2284 H 218.843 -3.966 2.35009 0
M  V30 2285 H 222.387 -3.8746 5.80104 0
M  V30 2286 H 218.284 -4.42761 4.69716 0
M  V30 2287 H 219.052 -4.60717 6.76522 0
M  V30 2288 N 221.715 -0.905404 -1.28997 0
M  V30 2289 C 222.943 -0.549846 -1.9946 0
M  V30 2290 C 223.358 0.866834 -1.67724 0
M  V30 2291 O 222.715 1.57298 -0.925404 0
M  V30 2292 C 222.766 -0.739387 -3.53858 0
M  V30 2293 O 222.487 -2.10031 -3.84472 0
M  V30 2294 C 223.988 -0.389541 -4.41585 0
M  V30 2295 H 221.208 -0.210429 -0.637151 0
M  V30 2296 H 223.752 -1.21632 -1.64396 0
M  V30 2297 H 221.907 -0.120023 -3.87214 0
M  V30 2298 H 222.321 -2.13385 -4.79132 0
M  V30 2299 H 223.795 -0.572972 -5.49018 0
M  V30 2300 H 224.272 0.673756 -4.34001 0
M  V30 2301 H 224.878 -0.986089 -4.1371 0
M  V30 2302 N 223.193 1.4272 -0.668489 0
M  V30 2303 C 224.123 2.335 -0.000100175 0
M  V30 2304 C 225.104 1.50328 0.795964 0
M  V30 2305 O 226.289 1.78949 0.754385 0
M  V30 2306 C 223.419 3.33874 0.956302 0
M  V30 2307 C 222.373 4.27152 0.269278 0
M  V30 2308 C 221.699 5.17684 1.33818 0
M  V30 2309 C 222.999 5.15373 -0.847805 0
M  V30 2310 H 224.693 2.89639 -0.758244 0
M  V30 2311 H 222.239 1.39269 -0.366079 0
M  V30 2312 H 224.192 3.9629 1.43292 0
M  V30 2313 H 222.916 2.76025 1.74579 0
M  V30 2314 H 221.575 3.66123 -0.187042 0
M  V30 2315 H 221.223 4.56165 2.1195 0
M  V30 2316 H 220.923 5.80918 0.883659 0
M  V30 2317 H 222.447 5.82974 1.81586 0
M  V30 2318 H 223.861 5.7151 -0.452681 0
M  V30 2319 H 222.258 5.87407 -1.22773 0
M  V30 2320 H 223.328 4.5415 -1.69929 0
M  V30 2321 N 224.671 0.411399 1.52136 0
M  V30 2322 C 226.082 -0.0576826 1.86611 0
M  V30 2323 C 226.433 -1.44238 1.33003 0
M  V30 2324 O 225.558 -2.05759 0.670228 0
M  V30 2325 C 226.153 -0.111448 3.38617 0
M  V30 2326 C 224.712 -0.52487 3.72723 0
M  V30 2327 C 223.859 0.299176 2.75681 0
M  V30 2328 H 226.81 0.628368 1.4573 0
M  V30 2329 H 226.831 -0.926252 3.69054 0
M  V30 2330 H 226.343 0.896488 3.77604 0
M  V30 2331 H 224.444 -1.53936 3.39315 0
M  V30 2332 H 224.557 -0.267681 4.78352 0
M  V30 2333 H 222.921 -0.238814 2.53578 0
M  V30 2334 H 223.704 1.3055 3.17508 0
M  V30 2335 N 226.149 -1.5696 0.141893 0
M  V30 2336 C 227.081 -2.13619 -0.830627 0
M  V30 2337 C 228.094 -1.08439 -1.21428 0
M  V30 2338 O 229.283 -1.35734 -1.15925 0
M  V30 2339 C 226.383 -2.63978 -2.12529 0
M  V30 2340 C 225.556 -3.93504 -1.9098 0
M  V30 2341 C 224.615 -4.29225 -3.04388 0
M  V30 2342 O 223.641 -4.97641 -2.76302 0
M  V30 2343 N 224.843 -3.88393 -4.31429 0
M  V30 2344 H 227.608 -2.97691 -0.34641 0
M  V30 2345 H 225.169 -1.61846 -0.0418375 0
M  V30 2346 H 227.161 -2.84891 -2.87436 0
M  V30 2347 H 225.731 -1.84659 -2.52229 0
M  V30 2348 H 224.951 -3.81269 -1.00139 0
M  V30 2349 H 226.239 -4.78154 -1.73914 0
M  V30 2350 H 225.637 -3.33257 -4.57117 0
M  V30 2351 H 224.194 -4.14368 -5.03133 0
M  V30 2352 N 227.627 0.131896 -1.57047 0
M  V30 2353 C 228.875 0.840269 -1.83804 0
M  V30 2354 C 229.196 1.81017 -0.72512 0
M  V30 2355 O 228.466 1.94272 0.251995 0
M  V30 2356 H 227.046 0.313294 -0.678127 0
M  V30 2357 H 229.708 0.122294 -1.94516 0
M  V30 2358 H 228.804 1.39335 -2.79271 0
M  V30 2359 N 229.106 1.52395 0.401703 0
M  V30 2360 C 230.353 1.66817 1.14796 0
M  V30 2361 C 230.681 0.401772 1.90305 0
M  V30 2362 O 229.936 -0.615487 1.85769 0
M  V30 2363 C 230.235 2.84578 2.16217 0
M  V30 2364 C 229.901 4.22513 1.5746 0
M  V30 2365 C 228.563 4.60029 1.41161 0
M  V30 2366 C 230.915 5.0844 1.14622 0
M  V30 2367 C 228.243 5.81144 0.80552 0
M  V30 2368 C 230.595 6.30167 0.55428 0
M  V30 2369 C 229.259 6.66426 0.378482 0
M  V30 2370 H 228.529 0.610428 0.420069 0
M  V30 2371 H 231.176 1.86512 0.434212 0
M  V30 2372 H 229.481 2.59248 2.93764 0
M  V30 2373 H 231.178 2.92933 2.73845 0
M  V30 2374 H 227.768 3.92953 1.71132 0
M  V30 2375 H 231.952 4.80034 1.26021 0
M  V30 2376 H 227.208 6.07855 0.657399 0
M  V30 2377 H 231.382 6.96071 0.213983 0
M  V30 2378 H 229.009 7.60143 -0.0932606 0
M  V30 2379 N 230.584 -0.659388 1.43143 0
M  V30 2380 C 231.812 -1.44723 1.47861 0
M  V30 2381 C 232.227 -1.88563 0.0945886 0
M  V30 2382 O 231.584 -1.59108 -0.893915 0
M  V30 2383 C 231.635 -2.68627 2.41913 0
M  V30 2384 O 231.356 -2.26623 3.74932 0
M  V30 2385 C 232.857 -3.62045 2.55809 0
M  V30 2386 H 230.077 -0.444801 0.502387 0
M  V30 2387 H 232.621 -0.808916 1.87821 0
M  V30 2388 H 230.776 -3.28613 2.05164 0
M  V30 2389 H 231.19 -3.06745 4.2545 0
M  V30 2390 H 232.664 -4.45666 3.25708 0
M  V30 2391 H 233.141 -4.08981 1.60099 0
M  V30 2392 H 233.747 -3.07944 2.93344 0
M  V30 2393 N 232.062 -1.29571 -0.897171 0
M  V30 2394 C 233.308 -1.18873 -1.65048 0
M  V30 2395 C 233.663 0.256707 -1.9068 0
M  V30 2396 O 232.956 1.18202 -1.50794 0
M  V30 2397 C 233.15 -1.9382 -3.00281 0
M  V30 2398 C 232.979 -3.45503 -2.8785 0
M  V30 2399 C 231.749 -4.14856 -2.88483 0
M  V30 2400 C 233.947 -4.40956 -2.64693 0
M  V30 2401 N 231.929 -5.52886 -2.66815 0
M  V30 2402 C 233.3 -5.66464 -2.5203 0
M  V30 2403 C 235.355 -4.3069 -2.49821 0
M  V30 2404 C 234.058 -6.82871 -2.26008 0
M  V30 2405 C 236.084 -5.46852 -2.25182 0
M  V30 2406 C 235.446 -6.71333 -2.13286 0
M  V30 2407 H 231.545 -0.489998 -0.609447 0
M  V30 2408 H 234.129 -1.63431 -1.05822 0
M  V30 2409 H 232.3 -1.51671 -3.57562 0
M  V30 2410 H 234.032 -1.75366 -3.64731 0
M  V30 2411 H 230.787 -3.66579 -2.99861 0
M  V30 2412 H 231.211 -6.25487 -2.59027 0
M  V30 2413 H 235.853 -3.35141 -2.5776 0
M  V30 2414 H 233.571 -7.78473 -2.16806 0
M  V30 2415 H 237.157 -5.40809 -2.14515 0
M  V30 2416 H 236.037 -7.59701 -1.94485 0
M  V30 2417 N 233.54 1.10788 -1.12088 0
M  V30 2418 C 234.817 1.79136 -0.785476 0
M  V30 2419 C 235.197 1.98246 0.725377 0
M  V30 2420 O 234.545 1.57258 1.65778 0
M  V30 2421 C 234.755 3.12375 -1.55636 0
M  V30 2422 C 236.103 3.8731 -1.74001 0
M  V30 2423 O 237.127 3.22085 -1.52117 0
M  V30 2424 O 235.986 5.04369 -2.10415 0
M  V30 2425 H 233.08 0.776226 -0.285311 0
M  V30 2426 H 235.626 1.1747 -1.2247 0
M  V30 2427 H 234.398 2.93863 -2.5838 0
M  V30 2428 H 234.021 3.81758 -1.11114 0
M  V30 2429 N 235.018 0.912232 1.28515 0
M  V30 2430 C 235.981 0.404223 2.25607 0
M  V30 2431 C 236.981 -0.468602 1.53821 0
M  V30 2432 O 238.171 -0.271873 1.72065 0
M  V30 2433 C 235.303 -0.420653 3.38295 0
M  V30 2434 H 236.496 1.26188 2.7206 0
M  V30 2435 H 234.049 0.691495 1.40171 0
M  V30 2436 H 234.784 -1.29777 2.97201 0
M  V30 2437 H 234.569 0.204935 3.91564 0
M  V30 2438 H 236.059 -0.766971 4.10496 0
M  V30 2439 N 236.496 -1.42363 0.676048 0
M  V30 2440 C 237.426 -2.33497 0.0124832 0
M  V30 2441 C 238.407 -1.50748 -0.787981 0
M  V30 2442 O 239.592 -1.79346 -0.744884 0
M  V30 2443 C 236.722 -3.34377 -0.938582 0
M  V30 2444 C 235.676 -4.27289 -0.246622 0
M  V30 2445 C 235.002 -5.18386 -1.31071 0
M  V30 2446 C 236.302 -5.14916 0.875125 0
M  V30 2447 H 237.996 -2.89233 0.773593 0
M  V30 2448 H 235.542 -1.39073 0.37346 0
M  V30 2449 H 237.495 -3.97044 -1.41188 0
M  V30 2450 H 236.219 -2.76947 -1.73113 0
M  V30 2451 H 234.878 -3.66018 0.206456 0
M  V30 2452 H 234.526 -4.57282 -2.09528 0
M  V30 2453 H 234.226 -5.81378 -0.852839 0
M  V30 2454 H 235.75 -5.83929 -1.78492 0
M  V30 2455 H 237.164 -5.71262 0.482983 0
M  V30 2456 H 235.561 -5.86747 1.25887 0
M  V30 2457 H 236.631 -4.53242 1.72335 0
M  V30 2458 N 237.974 -0.419461 -1.51915 0
M  V30 2459 C 239.251 0.211999 -1.94448 0
M  V30 2460 C 239.631 1.61703 -1.35703 0
M  V30 2461 O 238.979 2.22102 -0.536931 0
M  V30 2462 C 239.189 0.207872 -3.4838 0
M  V30 2463 C 240.537 0.422192 -4.22496 0
M  V30 2464 O 241.561 0.286778 -3.55044 0
M  V30 2465 O 240.42 0.690009 -5.42126 0
M  V30 2466 H 237.514 0.139586 -0.815135 0
M  V30 2467 H 240.06 -0.476151 -1.62883 0
M  V30 2468 H 238.832 -0.775102 -3.83546 0
M  V30 2469 H 238.455 0.939688 -3.86336 0
M  V30 2470 N 239.452 1.56882 -0.150215 0
M  V30 2471 C 240.382 2.19935 0.784284 0
M  V30 2472 C 241.363 1.14854 1.25469 0
M  V30 2473 O 242.548 1.43209 1.31168 0
M  V30 2474 C 239.678 2.82349 2.02229 0
M  V30 2475 C 238.632 3.93285 1.68853 0
M  V30 2476 C 237.958 4.42649 2.99944 0
M  V30 2477 C 239.258 5.13904 0.932714 0
M  V30 2478 H 240.952 2.9828 0.258781 0
M  V30 2479 H 238.498 1.43473 0.123029 0
M  V30 2480 H 240.451 3.25126 2.68088 0
M  V30 2481 H 239.175 2.0134 2.57157 0
M  V30 2482 H 237.834 3.5113 1.05371 0
M  V30 2483 H 237.482 3.58458 3.52869 0
M  V30 2484 H 237.182 5.17476 2.78374 0
M  V30 2485 H 238.706 4.88099 3.66868 0
M  V30 2486 H 240.12 5.53506 1.49345 0
M  V30 2487 H 238.517 5.94515 0.81684 0
M  V30 2488 H 239.587 4.84842 -0.0749568 0
M  V30 2489 N 240.93 -0.123565 1.57115 0
M  V30 2490 C 242.178 -0.83051 1.84247 0
M  V30 2491 C 242.499 -1.80629 0.73471 0
M  V30 2492 O 241.769 -1.94403 -0.241688 0
M  V30 2493 H 240.349 -0.309694 0.679778 0
M  V30 2494 H 243.011 -0.111976 1.94578 0
M  V30 2495 H 242.107 -1.37852 2.80006 0
M  V30 2496 N 242.408 -1.52605 -0.393616 0
M  V30 2497 C 243.685 -1.58001 -1.15304 0
M  V30 2498 C 244.065 -0.370385 -2.07825 0
M  V30 2499 O 243.413 0.641638 -2.19306 0
M  V30 2500 C 243.623 -2.91652 -1.91677 0
M  V30 2501 C 244.971 -3.4522 -2.47201 0
M  V30 2502 O 245.995 -2.93495 -2.01839 0
M  V30 2503 O 244.854 -4.35579 -3.3005 0
M  V30 2504 H 241.948 -0.637068 -0.527327 0
M  V30 2505 H 244.494 -1.64939 -0.399141 0
M  V30 2506 H 243.266 -3.71136 -1.23992 0
M  V30 2507 H 242.889 -2.88077 -2.74039 0
M  V30 2508 N 243.887 0.651787 -1.4349 0
M  V30 2509 C 245.303 0.96762 -1.26922 0
M  V30 2510 C 245.503 2.00602 -0.189982 0
M  V30 2511 O 244.559 2.48793 0.431107 0
M  V30 2512 C 245.872 1.45052 -2.63401 0
M  V30 2513 C 247.42 1.5671 -2.70945 0
M  V30 2514 C 247.895 2.0839 -4.07845 0
M  V30 2515 N 249.386 2.1569 -4.09917 0
M  V30 2516 C 250.121 2.56804 -5.12679 0
M  V30 2517 N 249.617 2.97203 -6.25813 0
M  V30 2518 N 251.41 2.56756 -5.00033 0
M  V30 2519 H 243.561 -0.0353158 -2.12371 0
M  V30 2520 H 245.824 0.0467858 -0.946845 0
M  V30 2521 H 245.53 0.761926 -3.43348 0
M  V30 2522 H 245.404 2.42529 -2.88894 0
M  V30 2523 H 247.791 2.2467 -1.9133 0
M  V30 2524 H 247.872 0.57662 -2.49216 0
M  V30 2525 H 247.516 1.41031 -4.87927 0
M  V30 2526 H 247.446 3.08271 -4.26938 0
M  V30 2527 H 249.937 1.87237 -3.28254 0
M  V30 2528 H 250.25 3.27328 -7.00055 0
M  V30 2529 H 248.595 2.95004 -6.29283 0
M  V30 2530 H 251.786 2.24572 -4.10713 0
M  V30 2531 H 251.959 2.88475 -5.80247 0
M  V30 2532 N 245.365 1.30045 0.890287 0
M  V30 2533 C 246.613 1.18327 1.63839 0
M  V30 2534 C 246.934 -0.263455 1.93212 0
M  V30 2535 O 246.204 -1.17856 1.56482 0
M  V30 2536 H 244.784 0.434933 0.607324 0
M  V30 2537 H 247.446 1.631 1.06698 0
M  V30 2538 H 246.542 1.74024 2.59079 0
M  V30 2539 N 246.843 -1.10192 1.12674 0
M  V30 2540 C 248.089 -1.82475 0.884915 0
M  V30 2541 C 248.422 -1.85093 -0.58773 0
M  V30 2542 O 247.697 -1.3134 -1.43457 0
M  V30 2543 C 247.98 -3.29018 1.46353 0
M  V30 2544 C 247.833 -3.34718 3.00473 0
M  V30 2545 C 249.152 -4.25473 1.12519 0
M  V30 2546 H 246.271 -0.662492 0.322915 0
M  V30 2547 H 248.913 -1.2913 1.39375 0
M  V30 2548 H 247.063 -3.74576 1.03077 0
M  V30 2549 H 248.735 -2.97622 3.52447 0
M  V30 2550 H 246.978 -2.74541 3.35872 0
M  V30 2551 H 247.649 -4.37918 3.36053 0
M  V30 2552 H 250.125 -3.88161 1.499 0
M  V30 2553 H 249.001 -5.26365 1.55663 0
M  V30 2554 H 249.262 -4.42084 0.0377407 0
M  V30 2555 N 248.321 -0.919034 -1.28029 0
M  V30 2556 C 249.251 -0.428581 -2.29533 0
M  V30 2557 C 250.232 0.50659 -1.62381 0
M  V30 2558 O 251.417 0.413195 -1.89753 0
M  V30 2559 C 248.547 0.327388 -3.45753 0
M  V30 2560 C 247.501 -0.519137 -4.2484 0
M  V30 2561 C 246.827 0.365486 -5.33449 0
M  V30 2562 C 248.127 -1.77914 -4.91064 0
M  V30 2563 H 249.821 -1.27687 -2.70807 0
M  V30 2564 H 247.367 -0.615428 -1.30186 0
M  V30 2565 H 249.32 0.681378 -4.15855 0
M  V30 2566 H 248.044 1.20963 -3.03374 0
M  V30 2567 H 246.703 -0.855717 -3.56473 0
M  V30 2568 H 246.351 1.24642 -4.87312 0
M  V30 2569 H 246.051 -0.197356 -5.87268 0
M  V30 2570 H 247.575 0.715241 -6.06396 0
M  V30 2571 H 248.989 -1.49374 -5.53498 0
M  V30 2572 H 247.386 -2.2848 -5.54903 0
M  V30 2573 H 248.456 -2.50382 -4.15255 0
M  V30 2574 N 249.799 1.42003 -0.683588 0
M  V30 2575 C 250.746 2.30798 -0.0107309 0
M  V30 2576 C 251.716 1.4645 0.783688 0
M  V30 2577 O 252.901 1.75263 0.754156 0
M  V30 2578 C 250.041 3.3238 0.928306 0
M  V30 2579 C 249.154 4.31814 0.126776 0
M  V30 2580 C 248.289 5.20468 1.06236 0
M  V30 2581 C 247.328 6.11577 0.253035 0
M  V30 2582 N 246.465 6.92754 1.14179 0
M  V30 2583 H 251.305 2.8778 -0.773727 0
M  V30 2584 H 248.842 1.41745 -0.393283 0
M  V30 2585 H 250.8 3.89813 1.48666 0
M  V30 2586 H 249.43 2.76976 1.65783 0
M  V30 2587 H 248.482 3.76427 -0.54833 0
M  V30 2588 H 249.794 4.96276 -0.501192 0
M  V30 2589 H 248.948 5.82677 1.69035 0
M  V30 2590 H 247.687 4.56204 1.7242 0
M  V30 2591 H 246.692 5.48428 -0.388108 0
M  V30 2592 H 247.917 6.77892 -0.404839 0
M  V30 2593 H 245.863 6.3111 1.78987 0
M  V30 2594 H 245.78 7.53855 0.569111 0
M  V30 2595 H 247.048 7.59441 1.75697 0
M  V30 2596 N 251.277 0.427512 1.51691 0
M  V30 2597 C 252.187 -0.39527 2.31246 0
M  V30 2598 C 253.203 -1.03674 1.39742 0
M  V30 2599 O 254.379 -1.03425 1.72816 0
M  V30 2600 C 251.444 -1.48706 3.13189 0
M  V30 2601 C 250.505 -0.866743 4.20459 0
M  V30 2602 C 249.738 -1.90651 4.98486 0
M  V30 2603 O 249.961 -3.12733 4.77026 0
M  V30 2604 O 248.895 -1.5025 5.82845 0
M  V30 2605 H 252.721 0.253918 3.02637 0
M  V30 2606 H 250.306 0.190274 1.48183 0
M  V30 2607 H 252.188 -2.12047 3.64162 0
M  V30 2608 H 250.863 -2.12051 2.44573 0
M  V30 2609 H 249.77 -0.195544 3.73589 0
M  V30 2610 H 251.103 -0.276934 4.9142 0
M  V30 2611 N 252.755 -1.56801 0.158532 0
M  V30 2612 C 253.685 -2.20347 -0.772609 0
M  V30 2613 C 254.666 -1.15518 -1.24859 0
M  V30 2614 O 255.851 -1.43902 -1.30406 0
M  V30 2615 C 252.981 -2.83417 -2.00729 0
M  V30 2616 C 251.935 -3.94174 -1.66765 0
M  V30 2617 C 251.261 -4.44233 -2.97592 0
M  V30 2618 C 252.561 -5.14392 -0.905447 0
M  V30 2619 H 254.255 -2.98413 -0.242959 0
M  V30 2620 H 251.801 -1.43537 -0.115419 0
M  V30 2621 H 253.754 -3.26543 -2.6636 0
M  V30 2622 H 252.478 -2.02701 -2.56086 0
M  V30 2623 H 251.137 -3.51684 -1.03508 0
M  V30 2624 H 250.785 -3.60325 -3.50963 0
M  V30 2625 H 250.485 -5.18945 -2.75626 0
M  V30 2626 H 252.009 -4.90037 -3.64274 0
M  V30 2627 H 253.423 -5.5429 -1.46408 0
M  V30 2628 H 251.82 -5.9494 -0.7853 0
M  V30 2629 H 252.89 -4.84795 0.100668 0
M  V30 2630 N 254.233 0.115231 -1.57178 0
M  V30 2631 C 255.463 0.835224 -1.88964 0
M  V30 2632 C 255.871 1.73774 -0.74829 0
M  V30 2633 O 255.214 1.81401 0.289739 0
M  V30 2634 C 255.276 1.7178 -3.15804 0
M  V30 2635 C 254.94 0.989198 -4.46166 0
M  V30 2636 C 255.937 0.328263 -5.18863 0
M  V30 2637 C 253.622 0.969256 -4.9286 0
M  V30 2638 C 255.616 -0.342873 -6.36477 0
M  V30 2639 C 253.303 0.294324 -6.10391 0
M  V30 2640 C 254.301 -0.360582 -6.82048 0
M  V30 2641 O 253.989 -1.02474 -7.97342 0
M  V30 2642 H 253.721 0.245197 -0.629964 0
M  V30 2643 H 256.275 0.10303 -2.05141 0
M  V30 2644 H 254.505 2.49173 -2.95719 0
M  V30 2645 H 256.194 2.31255 -3.33581 0
M  V30 2646 H 256.96 0.335263 -4.8384 0
M  V30 2647 H 252.839 1.46844 -4.36987 0
M  V30 2648 H 256.383 -0.854629 -6.92345 0
M  V30 2649 H 252.28 0.285099 -6.4487 0
M  V30 2650 H 253.048 -0.929594 -8.13204 0
M  V30 2651 N 255.711 1.52812 0.385517 0
M  V30 2652 C 256.939 1.71907 1.15133 0
M  V30 2653 C 257.354 0.439004 1.83625 0
M  V30 2654 O 256.711 -0.586765 1.7281 0
M  V30 2655 C 256.762 2.87099 2.19673 0
M  V30 2656 O 256.483 4.10151 1.53973 0
M  V30 2657 C 257.984 3.17902 3.08955 0
M  V30 2658 H 255.204 0.575479 0.345057 0
M  V30 2659 H 257.748 1.99476 0.45052 0
M  V30 2660 H 255.903 2.61982 2.85384 0
M  V30 2661 H 256.317 4.74514 2.23465 0
M  V30 2662 H 257.791 4.01959 3.7833 0
M  V30 2663 H 258.268 2.3243 3.72657 0
M  V30 2664 H 258.874 3.44871 2.48885 0
M  V30 2665 N 257.189 -0.644168 1.43834 0
M  V30 2666 C 258.119 -1.76814 1.52509 0
M  V30 2667 C 259.1 -1.65823 0.379052 0
M  V30 2668 O 260.285 -1.84781 0.597466 0
M  V30 2669 C 257.415 -3.15288 1.4564 0
M  V30 2670 C 256.369 -3.41053 2.58586 0
M  V30 2671 C 255.695 -4.79421 2.36769 0
M  V30 2672 C 256.995 -3.34902 4.00797 0
M  V30 2673 H 258.689 -1.69812 2.46586 0
M  V30 2674 H 256.235 -0.815542 1.1868 0
M  V30 2675 H 258.188 -3.93681 1.50311 0
M  V30 2676 H 256.912 -3.23043 0.480725 0
M  V30 2677 H 255.571 -2.65035 2.53282 0
M  V30 2678 H 255.219 -4.83863 1.37424 0
M  V30 2679 H 254.919 -4.9762 3.12487 0
M  V30 2680 H 256.443 -5.6006 2.43238 0
M  V30 2681 H 257.857 -4.03218 4.07539 0
M  V30 2682 H 256.254 -3.64637 4.76613 0
M  V30 2683 H 257.324 -2.32928 4.25291 0
M  V30 2684 N 258.668 -1.30515 -0.883378 0
M  V30 2685 C 259.598 -1.19607 -2.00541 0
M  V30 2686 C 260.579 -0.086346 -1.69881 0
M  V30 2687 O 261.764 -0.268654 -1.92333 0
M  V30 2688 C 258.894 -0.888758 -3.35736 0
M  V30 2689 C 257.848 -1.95659 -3.8066 0
M  V30 2690 C 257.174 -1.50224 -5.13164 0
M  V30 2691 C 258.474 -3.36788 -3.99213 0
M  V30 2692 H 260.168 -2.13476 -2.09925 0
M  V30 2693 H 257.714 -1.02775 -1.00863 0
M  V30 2694 H 259.667 -0.799094 -4.13754 0
M  V30 2695 H 258.391 0.0856125 -3.26488 0
M  V30 2696 H 257.05 -2.03591 -3.04871 0
M  V30 2697 H 256.698 -0.516092 -5.00345 0
M  V30 2698 H 256.398 -2.2165 -5.44192 0
M  V30 2699 H 257.922 -1.42639 -5.93706 0
M  V30 2700 H 259.336 -3.31605 -4.67665 0
M  V30 2701 H 257.733 -4.06314 -4.41621 0
M  V30 2702 H 258.803 -3.78561 -3.03017 0
M  V30 2703 N 260.146 1.09593 -1.13257 0
M  V30 2704 C 261.094 2.18271 -0.803783 0
M  V30 2705 C 262.088 1.68054 0.213148 0
M  V30 2706 O 263.294 1.79862 0.0704699 0
M  V30 2707 H 259.669 0.711949 -0.242143 0
M  V30 2708 H 261.64 2.43235 -1.72856 0
M  V30 2709 C 260.389 3.46536 -0.28424 0
M  V30 2710 H 259.712 3.85545 -1.05807 0
M  V30 2711 H 261.152 4.23899 -0.0925945 0
M  V30 2712 C 259.611 3.22036 0.989684 0
M  V30 2713 O 260.141 3.44509 2.06584 0
M  V30 2714 N 258.347 2.7565 0.920086 0
M  V30 2715 H 257.894 2.57562 0.0442019 0
M  V30 2716 H 257.852 2.59635 1.77306 0
M  V30 2717 N 261.624 0.925811 1.2754 0
M  V30 2718 C 262.534 0.428993 2.30644 0
M  V30 2719 C 263.55 -0.489387 1.66976 0
M  V30 2720 O 264.726 -0.372653 1.97922 0
M  V30 2721 C 261.791 -0.311967 3.45294 0
M  V30 2722 C 260.852 0.641098 4.24486 0
M  V30 2723 C 260.085 -0.0645955 5.33661 0
M  V30 2724 O 260.308 -1.28429 5.55754 0
M  V30 2725 O 259.242 0.606265 5.98839 0
M  V30 2726 H 263.068 1.28504 2.75173 0
M  V30 2727 H 260.653 0.691086 1.32455 0
M  V30 2728 H 262.535 -0.729972 4.15029 0
M  V30 2729 H 261.21 -1.14365 3.02824 0
M  V30 2730 H 260.117 1.10874 3.57292 0
M  V30 2731 H 261.45 1.43995 4.70666 0
M  V30 2732 N 263.102 -1.41638 0.69111 0
M  V30 2733 C 264.05 -2.32597 0.0115199 0
M  V30 2734 C 265.044 -1.5072 -0.773296 0
M  V30 2735 O 266.25 -1.66685 -0.67942 0
M  V30 2736 H 262.625 -0.751849 -0.0150746 0
M  V30 2737 H 264.596 -2.87593 0.795791 0
M  V30 2738 C 263.345 -3.35467 -0.914172 0
M  V30 2739 H 262.668 -3.9852 -0.319687 0
M  V30 2740 H 264.108 -4.01662 -1.35808 0
M  V30 2741 C 262.567 -2.69004 -2.02826 0
M  V30 2742 O 263.097 -2.53444 -3.11655 0
M  V30 2743 N 261.303 -2.2777 -1.80469 0
M  V30 2744 H 260.85 -2.40626 -0.919615 0
M  V30 2745 H 260.808 -1.83635 -2.55197 0
M  V30 2746 N 264.58 -0.43555 -1.51462 0
M  V30 2747 C 265.81 0.130053 -2.0619 0
M  V30 2748 C 266.218 1.37164 -1.30317 0
M  V30 2749 O 265.561 1.80225 -0.355598 0
M  V30 2750 C 265.623 0.519418 -3.55728 0
M  V30 2751 C 265.287 -0.615119 -4.52841 0
M  V30 2752 C 266.284 -1.48671 -4.9819 0
M  V30 2753 C 263.969 -0.795341 -4.95963 0
M  V30 2754 C 265.963 -2.52324 -5.8533 0
M  V30 2755 C 263.65 -1.83514 -5.82894 0
M  V30 2756 C 264.648 -2.69748 -6.27475 0
M  V30 2757 O 264.336 -3.71944 -7.1268 0
M  V30 2758 H 264.068 0.0121612 -0.675891 0
M  V30 2759 H 266.622 -0.6129 -1.96043 0
M  V30 2760 H 264.852 1.31505 -3.63653 0
M  V30 2761 H 266.541 1.01597 -3.92979 0
M  V30 2762 H 267.307 -1.359 -4.65571 0
M  V30 2763 H 263.186 -0.133713 -4.60806 0
M  V30 2764 H 266.73 -3.19665 -6.20048 0
M  V30 2765 H 262.627 -1.96306 -6.14926 0
M  V30 2766 H 263.395 -3.68503 -7.30854 0
M  V30 2767 N 266.058 1.56714 -0.166846 0
M  V30 2768 C 267.304 1.97039 0.479962 0
M  V30 2769 C 267.637 1.05264 1.63197 0
M  V30 2770 O 266.912 0.0988833 1.94248 0
M  V30 2771 C 267.195 3.46867 0.967212 0
M  V30 2772 C 267.048 4.49421 -0.18466 0
M  V30 2773 C 268.367 3.9968 1.84238 0
M  V30 2774 H 265.486 0.71641 0.172992 0
M  V30 2775 H 268.128 1.8832 -0.252079 0
M  V30 2776 H 266.278 3.54428 1.59101 0
M  V30 2777 H 267.95 4.53924 -0.821621 0
M  V30 2778 H 266.193 4.25573 -0.840837 0
M  V30 2779 H 266.864 5.51644 0.198317 0
M  V30 2780 H 269.34 3.94723 1.31655 0
M  V30 2781 H 268.216 5.04941 2.15234 0
M  V30 2782 H 268.477 3.43226 2.78654 0
M  V30 2783 N 267.536 -0.106894 1.57237 0
M  V30 2784 C 268.446 -1.14911 2.0453 0
M  V30 2785 C 269.462 -1.44592 0.96795 0
M  V30 2786 O 270.638 -1.55468 1.2803 0
M  V30 2787 C 267.703 -2.45272 2.45036 0
M  V30 2788 C 266.764 -2.22879 3.66911 0
M  V30 2789 C 265.997 -3.47024 4.05475 0
M  V30 2790 O 266.22 -4.54804 3.44252 0
M  V30 2791 O 265.154 -3.3731 4.98504 0
M  V30 2792 H 268.98 -0.777461 2.9358 0
M  V30 2793 H 266.565 -0.318563 1.45964 0
M  V30 2794 H 268.447 -3.22055 2.71769 0
M  V30 2795 H 267.122 -2.81886 1.59129 0
M  V30 2796 H 266.029 -1.43915 3.45311 0
M  V30 2797 H 267.362 -1.91163 4.53561 0
M  V30 2798 N 269.014 -1.53014 -0.377408 0
M  V30 2799 C 270.291 -1.59215 -1.13622 0
M  V30 2800 C 270.671 -0.392407 -2.07421 0
M  V30 2801 O 270.019 0.618342 -2.19975 0
M  V30 2802 C 270.229 -2.93669 -1.88573 0
M  V30 2803 C 271.577 -3.47822 -2.43526 0
M  V30 2804 O 272.601 -2.9562 -1.98715 0
M  V30 2805 O 271.46 -4.39055 -3.25412 0
M  V30 2806 H 268.554 -0.642625 -0.52054 0
M  V30 2807 H 271.1 -1.65353 -0.381625 0
M  V30 2808 H 269.872 -3.7243 -1.20048 0
M  V30 2809 H 269.495 -2.90968 -2.70968 0
M  V30 2810 N 270.492 0.636531 -1.44174 0
M  V30 2811 C 271.769 1.39463 -1.37148 0
M  V30 2812 C 272.149 2.11082 -0.027507 0
M  V30 2813 O 271.497 2.05954 0.989716 0
M  V30 2814 C 271.707 2.36552 -2.56601 0
M  V30 2815 C 273.055 3.00048 -3.00427 0
M  V30 2816 O 274.079 2.46878 -2.56767 0
M  V30 2817 O 272.938 3.96488 -3.76111 0
M  V30 2818 H 270.032 0.623903 -0.542839 0
M  V30 2819 H 272.578 0.662039 -1.56253 0
M  V30 2820 H 271.35 1.82692 -3.46034 0
M  V30 2821 H 270.973 3.17236 -2.39681 0
M  V30 2822 N 271.97 1.30982 0.876444 0
M  V30 2823 C 273.247 1.10942 1.61094 0
M  V30 2824 C 273.627 -0.338223 2.08373 0
M  V30 2825 O 272.975 -1.33122 1.85717 0
M  V30 2826 C 273.185 2.11789 2.77392 0
M  V30 2827 C 274.533 2.43965 3.47514 0
M  V30 2828 O 275.557 2.10166 2.87591 0
M  V30 2829 O 274.416 3.01817 4.55597 0
M  V30 2830 H 271.51 0.42667 0.708436 0
M  V30 2831 H 274.056 1.42438 0.922474 0
M  V30 2832 H 272.828 3.09194 2.39823 0
M  V30 2833 H 272.451 1.81161 3.5393 0
M  V30 2834 N 273.449 -1.08991 1.13837 0
M  V30 2835 C 274.397 -2.17841 0.815347 0
M  V30 2836 C 275.391 -1.68164 -0.204233 0
M  V30 2837 O 276.597 -1.79897 -0.0609304 0
M  V30 2838 H 272.972 -0.710654 0.245915 0
M  V30 2839 H 274.943 -2.42315 1.74143 0
M  V30 2840 C 273.692 -3.46381 0.302614 0
M  V30 2841 H 273.015 -3.84979 1.0785 0
M  V30 2842 H 274.455 -4.23844 0.115074 0
M  V30 2843 C 272.914 -3.22556 -0.972591 0
M  V30 2844 O 273.444 -3.45599 -2.04754 0
M  V30 2845 N 271.65 -2.76134 -0.905455 0
M  V30 2846 H 271.197 -2.57582 -0.0305421 0
M  V30 2847 H 271.155 -2.60571 -1.75926 0
M  V30 2848 N 274.927 -0.932562 -1.27047 0
M  V30 2849 C 275.86 -0.379774 -2.25018 0
M  V30 2850 C 276.838 0.526587 -1.53837 0
M  V30 2851 O 278.022 0.465992 -1.82649 0
M  V30 2852 C 275.149 0.455187 -3.35627 0
M  V30 2853 C 274.195 -0.388428 -4.24728 0
M  V30 2854 S 275.028 -1.80701 -5.04091 0
M  V30 2855 C 276.184 -0.979865 -6.18182 0
M  V30 2856 H 276.417 -1.2101 -2.71558 0
M  V30 2857 H 273.95 -0.735078 -1.35779 0
M  V30 2858 H 275.908 0.931052 -3.99802 0
M  V30 2859 H 274.569 1.26009 -2.87716 0
M  V30 2860 H 273.762 0.25089 -5.03375 0
M  V30 2861 H 273.364 -0.798649 -3.65373 0
M  V30 2862 H 275.656 -0.218115 -6.77149 0
M  V30 2863 H 276.599 -1.73951 -6.86401 0
M  V30 2864 H 277.007 -0.51973 -5.62102 0
M  V30 2865 N 276.405 1.4127 -0.698611 0
M  V30 2866 C 277.652 2.0118 -0.230865 0
M  V30 2867 C 277.98 1.55338 1.17049 0
M  V30 2868 O 277.235 0.756775 1.80475 0
M  V30 2869 C 277.534 3.56592 -0.240192 0
M  V30 2870 C 277.2 4.21955 -1.58948 0
M  V30 2871 C 275.862 4.39524 -1.95887 0
M  V30 2872 C 278.214 4.58576 -2.47704 0
M  V30 2873 C 275.542 4.90992 -3.2116 0
M  V30 2874 C 277.894 5.11435 -3.72313 0
M  V30 2875 C 276.558 5.27215 -4.0939 0
M  V30 2876 H 275.828 0.736169 -0.0844796 0
M  V30 2877 H 278.475 1.69124 -0.8983 0
M  V30 2878 H 276.78 3.88456 0.510797 0
M  V30 2879 H 278.477 4.00758 0.139296 0
M  V30 2880 H 275.067 4.08657 -1.29219 0
M  V30 2881 H 279.251 4.44654 -2.20445 0
M  V30 2882 H 274.507 5.01393 -3.49878 0
M  V30 2883 H 278.681 5.38752 -4.4127 0
M  V30 2884 H 276.308 5.66859 -5.06533 0
M  V30 2885 N 277.883 0.443576 1.51229 0
M  V30 2886 C 279.299 0.0962001 1.5931 0
M  V30 2887 C 279.499 -1.39501 1.45402 0
M  V30 2888 O 278.555 -2.16557 1.29843 0
M  V30 2889 C 279.868 0.621875 2.94199 0
M  V30 2890 C 281.416 0.582865 3.07525 0
M  V30 2891 C 281.891 1.08562 4.44948 0
M  V30 2892 N 283.382 1.04387 4.51284 0
M  V30 2893 C 284.117 1.40368 5.55954 0
M  V30 2894 N 283.613 1.83664 6.68011 0
M  V30 2895 N 285.406 1.32145 5.46346 0
M  V30 2896 H 277.557 1.41376 1.58514 0
M  V30 2897 H 279.82 0.582965 0.747567 0
M  V30 2898 H 279.526 1.66546 3.09767 0
M  V30 2899 H 279.4 0.0502125 3.77167 0
M  V30 2900 H 281.787 -0.451749 2.91622 0
M  V30 2901 H 281.868 1.191 2.26382 0
M  V30 2902 H 281.512 2.11873 4.61598 0
M  V30 2903 H 281.442 0.453956 5.2464 0
M  V30 2904 H 283.933 0.725986 3.70861 0
M  V30 2905 H 284.246 2.0934 7.43906 0
M  V30 2906 H 282.591 1.87596 6.69203 0
M  V30 2907 H 285.782 0.981808 4.57688 0
M  V30 2908 H 285.955 1.60514 6.27805 0
M  V30 2909 N 279.361 -1.56624 0.175154 0
M  V30 2910 C 280.608 -1.96999 -0.468811 0
M  V30 2911 C 280.936 -1.06129 -1.62994 0
M  V30 2912 O 280.191 -0.0961771 -1.95464 0
M  V30 2913 C 280.49 -3.43419 -0.989864 0
M  V30 2914 C 280.156 -4.50866 0.0557687 0
M  V30 2915 C 278.818 -4.79975 0.343134 0
M  V30 2916 C 281.17 -5.15551 0.765308 0
M  V30 2917 C 278.498 -5.71066 1.34536 0
M  V30 2918 C 280.85 -6.07724 1.75654 0
M  V30 2919 C 279.514 -6.35199 2.05132 0
M  V30 2920 H 278.784 -0.720869 -0.17155 0
M  V30 2921 H 281.431 -1.89616 0.267924 0
M  V30 2922 H 279.736 -3.47772 -1.80449 0
M  V30 2923 H 281.433 -3.72002 -1.49719 0
M  V30 2924 H 278.023 -4.28229 -0.178381 0
M  V30 2925 H 282.207 -4.9317 0.556513 0
M  V30 2926 H 277.463 -5.90635 1.57988 0
M  V30 2927 H 281.637 -6.56912 2.31169 0
M  V30 2928 H 279.264 -7.05584 2.8294 0
M  V30 2929 N 280.839 0.0985539 -1.57292 0
M  V30 2930 C 282.116 0.834155 -1.76921 0
M  V30 2931 C 282.496 1.97101 -0.755928 0
M  V30 2932 O 281.844 2.27474 0.216245 0
M  V30 2933 C 282.054 1.33194 -3.22584 0
M  V30 2934 C 283.402 1.77611 -3.85668 0
M  V30 2935 O 284.426 1.42825 -3.26312 0
M  V30 2936 O 283.285 2.4192 -4.90038 0
M  V30 2937 H 280.379 0.397628 -0.725135 0
M  V30 2938 H 282.925 0.0807044 -1.69508 0
M  V30 2939 H 281.697 0.517248 -3.87866 0
M  V30 2940 H 281.32 2.1475 -3.34616 0
M  V30 2941 N 282.317 1.53212 0.369288 0
M  V30 2942 C 283.547 1.72868 1.13139 0
M  V30 2943 C 283.955 0.455754 1.83629 0
M  V30 2944 O 283.298 -0.580861 1.74275 0
M  V30 2945 C 283.36 2.83667 2.20847 0
M  V30 2946 C 283.024 4.24142 1.70155 0
M  V30 2947 C 284.021 5.06619 1.16763 0
M  V30 2948 C 281.706 4.70539 1.7578 0
M  V30 2949 C 283.7 6.33581 0.696678 0
M  V30 2950 C 281.387 5.97481 1.28297 0
M  V30 2951 C 282.385 6.78833 0.753307 0
M  V30 2952 O 282.073 8.03393 0.285475 0
M  V30 2953 H 281.805 0.581707 0.344373 0
M  V30 2954 H 284.359 2.00736 0.435243 0
M  V30 2955 H 282.589 2.51265 2.93944 0
M  V30 2956 H 284.278 2.91536 2.82421 0
M  V30 2957 H 285.044 4.71948 1.11758 0
M  V30 2958 H 280.923 4.07293 2.15949 0
M  V30 2959 H 284.467 6.97027 0.282581 0
M  V30 2960 H 280.364 6.31651 1.32994 0
M  V30 2961 H 281.132 8.17497 0.405145 0
M  V30 2962 N 283.795 -0.628877 1.44509 0
M  V30 2963 C 285.02 -1.42048 1.5112 0
M  V30 2964 C 285.445 -1.87594 0.137818 0
M  V30 2965 O 284.803 -1.58873 -0.873437 0
M  V30 2966 C 284.851 -2.61541 2.48251 0
M  V30 2967 O 283.955 -3.61453 1.98559 0
M  V30 2968 H 283.296 -0.424942 0.510216 0
M  V30 2969 H 285.826 -0.767374 1.89664 0
M  V30 2970 H 285.836 -3.09057 2.66361 0
M  V30 2971 H 284.511 -2.27736 3.48007 0
M  V30 2972 H 283.088 -3.20731 1.90227 0
M  V30 2973 N 285.273 -1.31445 -0.869486 0
M  V30 2974 C 286.684 -1.19042 -1.43826 0
M  V30 2975 C 287.035 0.202919 -1.95148 0
M  V30 2976 O 286.16 1.10071 -1.86315 0
M  V30 2977 C 286.755 -2.15499 -2.6143 0
M  V30 2978 C 285.314 -2.07028 -3.14351 0
M  V30 2979 C 284.461 -2.04701 -1.87063 0
M  V30 2980 H 287.412 -1.43489 -0.677984 0
M  V30 2981 H 287.433 -1.74488 -3.38134 0
M  V30 2982 H 286.945 -3.16899 -2.24046 0
M  V30 2983 H 285.046 -1.08825 -3.56354 0
M  V30 2984 H 285.159 -2.96157 -3.766 0
M  V30 2985 H 283.523 -1.49724 -2.06046 0
M  V30 2986 H 284.306 -3.07857 -1.51917 0
M  V30 2987 N 286.751 1.08385 -1.14413 0
M  V30 2988 C 287.661 2.18856 -0.844951 0
M  V30 2989 C 288.677 1.73121 0.174668 0
M  V30 2990 O 289.853 2.014 0.00312857 0
M  V30 2991 C 286.918 3.45155 -0.32696 0
M  V30 2992 C 285.979 4.05513 -1.40916 0
M  V30 2993 C 285.212 5.25784 -0.915793 0
M  V30 2994 O 285.435 5.69884 0.242651 0
M  V30 2995 O 284.369 5.77545 -1.69487 0
M  V30 2996 H 288.195 2.46919 -1.76818 0
M  V30 2997 H 285.78 1.17524 -0.922411 0
M  V30 2998 H 287.662 4.21377 -0.0440211 0
M  V30 2999 H 286.337 3.18668 0.568539 0
M  V30 3000 H 285.244 3.30879 -1.74556 0
M  V30 3001 H 286.577 4.3625 -2.27919 0
M  V30 3002 N 288.23 0.939286 1.26551 0
M  V30 3003 C 289.477 0.585847 1.9384 0
M  V30 3004 C 289.805 -0.874784 1.73718 0
M  V30 3005 O 289.06 -1.64092 1.06642 0
M  V30 3006 C 289.359 0.872106 3.46596 0
M  V30 3007 C 289.025 2.31632 3.86856 0
M  V30 3008 C 287.687 2.71111 3.97558 0
M  V30 3009 C 290.039 3.25494 4.07066 0
M  V30 3010 C 287.367 4.03553 4.25866 0
M  V30 3011 C 289.719 4.57531 4.36862 0
M  V30 3012 C 288.383 4.96828 4.45778 0
M  V30 3013 H 287.653 0.214377 0.709312 0
M  V30 3014 H 290.3 1.18544 1.50398 0
M  V30 3015 H 288.605 0.18996 3.91339 0
M  V30 3016 H 290.302 0.577442 3.96821 0
M  V30 3017 H 286.892 2.00008 3.79071 0
M  V30 3018 H 291.076 2.9619 3.98227 0
M  V30 3019 H 286.332 4.33665 4.30981 0
M  V30 3020 H 290.506 5.30254 4.51446 0
M  V30 3021 H 288.133 5.99482 4.67468 0
M  V30 3022 N 289.708 -1.40897 0.706093 0
M  V30 3023 C 290.638 -2.33418 0.0620085 0
M  V30 3024 C 291.619 -1.52385 -0.755827 0
M  V30 3025 O 292.804 -1.80886 -0.706674 0
M  V30 3026 C 289.934 -3.36293 -0.867445 0
M  V30 3027 C 288.888 -4.27716 -0.155932 0
M  V30 3028 C 288.214 -5.2105 -1.20046 0
M  V30 3029 C 289.514 -5.12944 0.984149 0
M  V30 3030 H 291.208 -2.87527 0.83477 0
M  V30 3031 H 288.754 -1.38249 0.402875 0
M  V30 3032 H 290.707 -3.99949 -1.32735 0
M  V30 3033 H 289.431 -2.80556 -1.67199 0
M  V30 3034 H 288.09 -3.65498 0.284047 0
M  V30 3035 H 287.738 -4.61624 -1.99781 0
M  V30 3036 H 287.438 -5.83056 -0.729328 0
M  V30 3037 H 288.962 -5.87584 -1.66066 0
M  V30 3038 H 290.376 -5.70109 0.604048 0
M  V30 3039 H 288.773 -5.83945 1.38304 0
M  V30 3040 H 289.843 -4.49485 1.81911 0
M  V30 3041 N 291.186 -0.45159 -1.50991 0
M  V30 3042 C 292.116 0.342898 -2.30969 0
M  V30 3043 C 293.097 1.00815 -1.37005 0
M  V30 3044 O 294.282 1.00907 -1.65926 0
M  V30 3045 C 291.412 1.43637 -3.16205 0
M  V30 3046 C 290.366 0.893818 -4.18563 0
M  V30 3047 C 289.692 2.08411 -4.92411 0
M  V30 3048 C 290.992 -0.0815568 -5.22236 0
M  V30 3049 H 292.686 -0.324556 -2.97636 0
M  V30 3050 H 290.232 -0.157531 -1.43136 0
M  V30 3051 H 292.185 1.9995 -3.70942 0
M  V30 3052 H 290.909 2.13232 -2.47386 0
M  V30 3053 H 289.568 0.352798 -3.64898 0
M  V30 3054 H 289.216 2.76658 -4.20082 0
M  V30 3055 H 288.916 1.72741 -5.61636 0
M  V30 3056 H 290.44 2.65251 -5.49976 0
M  V30 3057 H 291.854 0.391742 -5.7196 0
M  V30 3058 H 290.251 -0.351551 -5.99069 0
M  V30 3059 H 291.321 -1.01374 -4.74185 0
M  V30 3060 N 292.664 1.56529 -0.183458 0
M  V30 3061 C 293.91 1.98304 0.452466 0
M  V30 3062 C 294.265 1.06799 1.60037 0
M  V30 3063 O 293.558 0.110049 1.91284 0
M  V30 3064 C 293.752 3.43939 0.971637 0
M  V30 3065 C 293.581 4.49528 -0.124425 0
M  V30 3066 C 292.351 5.01981 -0.578168 0
M  V30 3067 C 294.549 5.05836 -0.929207 0
M  V30 3068 N 292.531 5.91219 -1.65327 0
M  V30 3069 C 293.902 5.91632 -1.85396 0
M  V30 3070 C 295.957 4.88302 -0.972929 0
M  V30 3071 C 294.66 6.61768 -2.81878 0
M  V30 3072 C 296.686 5.59168 -1.92574 0
M  V30 3073 C 296.048 6.44701 -2.83795 0
M  V30 3074 H 292.147 0.770551 0.133324 0
M  V30 3075 H 294.731 1.92581 -0.286473 0
M  V30 3076 H 292.902 3.50184 1.68006 0
M  V30 3077 H 294.634 3.72702 1.5772 0
M  V30 3078 H 291.389 4.73282 -0.173639 0
M  V30 3079 H 291.813 6.40543 -2.19167 0
M  V30 3080 H 296.455 4.21861 -0.28168 0
M  V30 3081 H 294.173 7.27415 -3.51984 0
M  V30 3082 H 297.759 5.47582 -1.96583 0
M  V30 3083 H 296.639 6.98573 -3.56322 0
M  V30 3084 N 294.142 -0.090211 1.57342 0
M  V30 3085 C 295.105 -1.09335 2.01441 0
M  V30 3086 C 296.105 -1.32666 0.908641 0
M  V30 3087 O 297.295 -1.28697 1.174 0
M  V30 3088 C 294.427 -2.44136 2.3793 0
M  V30 3089 H 295.62 -0.713662 2.91285 0
M  V30 3090 H 293.173 -0.335404 1.52659 0
M  V30 3091 H 293.908 -2.86972 1.51055 0
M  V30 3092 H 293.693 -2.28548 3.18603 0
M  V30 3093 H 295.183 -3.16277 2.72688 0
M  V30 3094 N 295.62 -1.53406 -0.361157 0
M  V30 3095 C 296.55 -1.83136 -1.44857 0
M  V30 3096 C 297.531 -0.685174 -1.5569 0
M  V30 3097 O 298.716 -0.93544 -1.70186 0
M  V30 3098 C 295.846 -2.02522 -2.82138 0
M  V30 3099 C 294.8 -3.18302 -2.86126 0
M  V30 3100 C 294.126 -3.22989 -4.26125 0
M  V30 3101 C 295.426 -4.56796 -2.53248 0
M  V30 3102 H 297.12 -2.74201 -1.20226 0
M  V30 3103 H 294.666 -1.31938 -0.576922 0
M  V30 3104 H 296.619 -2.21904 -3.58241 0
M  V30 3105 H 295.343 -1.08172 -3.08166 0
M  V30 3106 H 294.002 -2.98747 -2.12475 0
M  V30 3107 H 293.65 -2.26267 -4.49235 0
M  V30 3108 H 293.35 -4.00781 -4.29708 0
M  V30 3109 H 294.874 -3.44559 -5.04094 0
M  V30 3110 H 296.288 -4.7631 -3.19064 0
M  V30 3111 H 294.685 -5.36862 -2.68141 0
M  V30 3112 H 295.755 -4.61606 -1.48484 0
M  V30 3113 N 297.098 0.621204 -1.44841 0
M  V30 3114 C 298.514 0.94048 -1.28946 0
M  V30 3115 C 298.714 2.00154 -0.23249 0
M  V30 3116 O 297.77 2.49651 0.378237 0
M  V30 3117 C 299.083 1.39433 -2.66419 0
M  V30 3118 C 300.631 1.50927 -2.74208 0
M  V30 3119 C 301.106 1.99692 -4.12174 0
M  V30 3120 N 302.597 2.06947 -4.144 0
M  V30 3121 C 303.332 2.45871 -5.1801 0
M  V30 3122 N 302.828 2.83862 -6.31977 0
M  V30 3123 N 304.621 2.46092 -5.05366 0
M  V30 3124 H 296.772 -0.0803548 -2.12248 0
M  V30 3125 H 299.035 0.0266913 -0.947624 0
M  V30 3126 H 298.741 0.688925 -3.44887 0
M  V30 3127 H 298.615 2.36347 -2.93973 0
M  V30 3128 H 301.002 2.20561 -1.96053 0
M  V30 3129 H 301.083 0.523627 -2.50383 0
M  V30 3130 H 300.727 1.30649 -4.90809 0
M  V30 3131 H 300.657 2.99146 -4.33381 0
M  V30 3132 H 303.148 1.80232 -3.32152 0
M  V30 3133 H 303.461 3.12405 -7.0684 0
M  V30 3134 H 301.806 2.8159 -6.35399 0
M  V30 3135 H 304.997 2.1581 -4.15384 0
M  V30 3136 H 305.17 2.76102 -5.86235 0
M  V30 3137 N 298.576 1.31904 0.862503 0
M  V30 3138 C 299.987 1.19803 1.43193 0
M  V30 3139 C 300.338 -0.192567 1.95253 0
M  V30 3140 O 299.463 -1.09081 1.86896 0
M  V30 3141 C 300.058 2.16883 2.60283 0
M  V30 3142 C 298.617 2.08692 3.13248 0
M  V30 3143 C 297.764 2.05691 1.85975 0
M  V30 3144 H 300.715 1.43846 0.670365 0
M  V30 3145 H 300.736 1.76278 3.37204 0
M  V30 3146 H 300.248 3.18083 2.22363 0
M  V30 3147 H 298.349 1.10713 3.55771 0
M  V30 3148 H 298.462 2.9815 3.75025 0
M  V30 3149 H 296.826 1.50814 2.05249 0
M  V30 3150 H 297.609 3.08659 1.50282 0
M  V30 3151 N 300.054 -1.07777 1.14986 0
M  V30 3152 C 301.465 -1.61766 0.932127 0
M  V30 3153 C 301.816 -1.88974 -0.527581 0
M  V30 3154 O 300.941 -1.65198 -1.39781 0
M  V30 3155 C 301.536 -2.93891 1.68563 0
M  V30 3156 C 300.095 -3.44639 1.5133 0
M  V30 3157 C 299.242 -2.18767 1.704 0
M  V30 3158 H 302.193 -0.909201 1.30074 0
M  V30 3159 H 302.214 -3.62623 1.15259 0
M  V30 3160 H 301.726 -2.74057 2.74799 0
M  V30 3161 H 299.827 -3.69564 0.474702 0
M  V30 3162 H 299.94 -4.20966 2.28746 0
M  V30 3163 H 298.304 -2.28253 1.13016 0
M  V30 3164 H 299.087 -2.01433 2.77992 0
M  V30 3165 N 301.532 -0.945985 -1.26051 0
M  V30 3166 C 302.78 -0.594941 -1.93145 0
M  V30 3167 C 303.101 0.86953 -1.7454 0
M  V30 3168 O 302.371 1.61838 -1.10387 0
M  V30 3169 H 300.951 -0.217044 -0.714773 0
M  V30 3170 H 303.613 -1.20235 -1.53393 0
M  V30 3171 H 302.709 -0.816835 -3.01221 0
M  V30 3172 N 303.011 1.40521 -0.713556 0
M  V30 3173 C 304.257 2.01714 -0.261382 0
M  V30 3174 C 304.612 1.55562 1.13217 0
M  V30 3175 O 303.905 0.764893 1.7567 0
M  V30 3176 C 304.099 3.56317 -0.278 0
M  V30 3177 C 303.928 4.17476 -1.67163 0
M  V30 3178 C 302.698 4.50998 -2.2788 0
M  V30 3179 C 304.896 4.42472 -2.6215 0
M  V30 3180 N 302.878 4.9754 -3.5962 0
M  V30 3181 C 304.249 4.90985 -3.78594 0
M  V30 3182 C 306.304 4.24508 -2.60188 0
M  V30 3183 C 305.007 5.2342 -4.9338 0
M  V30 3184 C 307.033 4.58043 -3.741 0
M  V30 3185 C 306.395 5.06743 -4.89276 0
M  V30 3186 H 302.494 0.769104 -0.141434 0
M  V30 3187 H 305.078 1.70785 -0.934915 0
M  V30 3188 H 303.249 3.8668 0.36509 0
M  V30 3189 H 304.981 4.0425 0.190695 0
M  V30 3190 H 301.736 4.38062 -1.79997 0
M  V30 3191 H 302.16 5.25196 -4.27198 0
M  V30 3192 H 306.802 3.86078 -1.72348 0
M  V30 3193 H 304.52 5.60765 -5.81866 0
M  V30 3194 H 308.106 4.45785 -3.73854 0
M  V30 3195 H 306.986 5.32204 -5.75959 0
M  V30 3196 N 304.489 0.459591 1.5075 0
M  V30 3197 C 305.419 -0.330644 2.31147 0
M  V30 3198 C 306.4 -1.00087 1.37538 0
M  V30 3199 O 307.585 -1.00025 1.66459 0
M  V30 3200 C 304.715 -1.41958 3.16962 0
M  V30 3201 C 303.669 -0.871608 4.19031 0
M  V30 3202 C 302.995 -2.05797 4.9351 0
M  V30 3203 C 304.295 0.109251 5.22186 0
M  V30 3204 H 305.989 0.340336 2.97459 0
M  V30 3205 H 303.535 0.165119 1.4305 0
M  V30 3206 H 305.488 -1.9798 3.71997 0
M  V30 3207 H 304.212 -2.11917 2.48513 0
M  V30 3208 H 302.871 -0.333442 3.6508 0
M  V30 3209 H 302.519 -2.74427 4.21544 0
M  V30 3210 H 302.219 -1.6976 5.62544 0
M  V30 3211 H 303.743 -2.62331 5.51375 0
M  V30 3212 H 305.157 -0.361405 5.7216 0
M  V30 3213 H 303.554 0.383316 5.98875 0
M  V30 3214 H 304.624 1.03887 4.73641 0
M  V30 3215 N 305.967 -1.56429 0.191757 0
M  V30 3216 C 307.378 -1.83912 -0.321428 0
M  V30 3217 C 307.729 -1.11231 -1.61623 0
M  V30 3218 O 306.854 -0.37202 -2.13178 0
M  V30 3219 C 307.449 -3.33624 -0.589961 0
M  V30 3220 C 306.008 -3.6153 -1.04753 0
M  V30 3221 C 305.155 -2.7714 -0.0943327 0
M  V30 3222 H 308.106 -1.53161 0.415612 0
M  V30 3223 H 308.127 -3.52213 -1.43966 0
M  V30 3224 H 307.639 -3.86495 0.352588 0
M  V30 3225 H 305.74 -3.14089 -2.00447 0
M  V30 3226 H 305.853 -4.69737 -0.942549 0
M  V30 3227 H 304.217 -2.47638 -0.595589 0
M  V30 3228 H 305 -3.32799 0.842601 0
M  V30 3229 N 307.445 0.0818655 -1.57387 0
M  V30 3230 C 308.377 1.12484 -1.997 0
M  V30 3231 C 309.39 1.35564 -0.90146 0
M  V30 3232 O 310.579 1.33982 -1.17945 0
M  V30 3233 C 307.679 2.47778 -2.31213 0
M  V30 3234 C 306.852 2.44793 -3.62485 0
M  V30 3235 C 305.911 3.62117 -3.81782 0
M  V30 3236 O 304.937 3.44005 -4.53486 0
M  V30 3237 N 306.139 4.82094 -3.23367 0
M  V30 3238 H 308.904 0.764585 -2.89783 0
M  V30 3239 H 306.465 0.270664 -1.59621 0
M  V30 3240 H 308.457 3.24891 -2.41304 0
M  V30 3241 H 307.027 2.75843 -1.4707 0
M  V30 3242 H 306.247 1.53134 -3.6324 0
M  V30 3243 H 307.535 2.39889 -4.48699 0
M  V30 3244 H 306.933 4.99713 -2.65148 0
M  V30 3245 H 305.49 5.56753 -3.38923 0
M  V30 3246 N 308.923 1.53595 0.353017 0
M  V30 3247 C 310.169 1.71581 1.09232 0
M  V30 3248 C 310.524 0.468328 1.86613 0
M  V30 3249 O 309.817 -0.538911 1.83865 0
M  V30 3250 C 310.011 2.91313 2.07054 0
M  V30 3251 C 309.84 4.27585 1.39287 0
M  V30 3252 C 308.61 4.92233 1.1417 0
M  V30 3253 C 310.808 5.07656 0.824005 0
M  V30 3254 N 308.79 6.124 0.428841 0
M  V30 3255 C 310.161 6.19531 0.241195 0
M  V30 3256 C 312.216 4.92609 0.723922 0
M  V30 3257 C 310.919 7.18002 -0.431952 0
M  V30 3258 C 312.945 5.91365 0.0645334 0
M  V30 3259 C 312.307 7.02571 -0.507347 0
M  V30 3260 H 308.406 0.680987 0.384422 0
M  V30 3261 H 310.99 1.91013 0.377096 0
M  V30 3262 H 309.161 2.73398 2.75877 0
M  V30 3263 H 310.893 2.98062 2.73753 0
M  V30 3264 H 307.648 4.51612 1.42631 0
M  V30 3265 H 308.072 6.76944 0.0874131 0
M  V30 3266 H 312.714 4.06808 1.15181 0
M  V30 3267 H 310.432 8.03384 -0.871758 0
M  V30 3268 H 314.018 5.81799 -0.0121469 0
M  V30 3269 H 312.898 7.77675 -1.0095 0
M  V30 3270 N 310.401 -0.613514 1.45168 0
M  V30 3271 C 311.351 -1.71871 1.49815 0
M  V30 3272 C 312.335 -1.56774 0.362021 0
M  V30 3273 O 313.527 -1.66212 0.608493 0
M  V30 3274 C 310.656 -3.1061 1.46207 0
M  V30 3275 C 309.742 -3.31114 2.64999 0
M  V30 3276 N 310.133 -3.21904 3.90143 0
M  V30 3277 C 308.431 -3.61966 2.6057 0
M  V30 3278 C 309.132 -3.43577 4.69393 0
M  V30 3279 N 308.108 -3.67287 4.00751 0
M  V30 3280 H 311.91 -1.63235 2.444 0
M  V30 3281 H 309.424 -0.816577 1.40377 0
M  V30 3282 H 311.421 -3.8989 1.4762 0
M  V30 3283 H 310.081 -3.20399 0.52673 0
M  V30 3284 H 311.092 -3.00436 4.21852 0
M  V30 3285 H 307.769 -3.78629 1.75916 0
M  V30 3286 H 309.159 -3.41901 5.78406 0
M  V30 3287 N 311.879 -1.3236 -0.855495 0
M  V30 3288 C 313.119 -1.24187 -1.62348 0
M  V30 3289 C 313.483 0.193597 -1.91021 0
M  V30 3290 O 314.684 0.39904 -2.65822 0
M  V30 3291 C 312.955 -2.07661 -2.90881 0
M  V30 3292 S 314.514 -2.16505 -3.81669 0
M  V30 3293 H 311.332 -0.442076 -0.556857 0
M  V30 3294 H 313.934 -1.67198 -1.01317 0
M  V30 3295 H 312.638 -3.11018 -2.67761 0
M  V30 3296 H 312.169 -1.65425 -3.56929 0
M  V30 3297 H 314.184 -1.31394 -4.78487 0
M  V30 3298 N 313.357 1.07166 -1.15556 0
M  V30 3299 C 314.605 1.79443 -0.929764 0
M  V30 3300 C 314.926 1.87246 0.544414 0
M  V30 3301 O 314.196 1.37473 1.39564 0
M  V30 3302 H 312.776 0.664625 -0.341003 0
M  V30 3303 H 315.438 1.29499 -1.45657 0
M  V30 3304 H 314.534 2.81832 -1.34079 0
M  V30 3305 N 314.835 0.952656 1.25548 0
M  V30 3306 C 316.081 0.607272 1.93494 0
M  V30 3307 C 316.414 -0.853245 1.74452 0
M  V30 3308 O 315.689 -1.61194 1.08843 0
M  V30 3309 C 315.972 0.96435 3.46947 0
M  V30 3310 C 315.825 2.48045 3.75225 0
M  V30 3311 C 317.144 0.487987 4.37386 0
M  V30 3312 H 314.263 0.222096 0.702739 0
M  V30 3313 H 316.905 1.18895 1.48203 0
M  V30 3314 H 315.055 0.469361 3.85654 0
M  V30 3315 H 316.727 3.04905 3.46166 0
M  V30 3316 H 314.97 2.919 3.209 0
M  V30 3317 H 315.641 2.6808 4.82532 0
M  V30 3318 H 318.117 0.912558 4.0597 0
M  V30 3319 H 316.993 0.766547 5.43521 0
M  V30 3320 H 317.254 -0.612063 4.37843 0
M  V30 3321 N 316.313 -1.40141 0.720998 0
M  V30 3322 C 317.729 -1.54632 0.395113 0
M  V30 3323 C 317.929 -1.69115 -1.09555 0
M  V30 3324 O 316.985 -1.68377 -1.88163 0
M  V30 3325 C 318.298 -2.77177 1.1659 0
M  V30 3326 C 319.846 -2.91 1.15274 0
M  V30 3327 C 320.321 -4.16465 1.90579 0
M  V30 3328 N 321.812 -4.23476 1.87675 0
M  V30 3329 C 322.547 -5.19475 2.42762 0
M  V30 3330 N 322.043 -6.21348 3.06428 0
M  V30 3331 N 323.836 -5.11592 2.32874 0
M  V30 3332 H 315.987 -1.28986 1.68749 0
M  V30 3333 H 318.25 -0.62412 0.713567 0
M  V30 3334 H 317.956 -2.72771 2.22011 0
M  V30 3335 H 317.83 -3.69442 0.76108 0
M  V30 3336 H 320.217 -2.94907 0.106702 0
M  V30 3337 H 320.298 -1.99838 1.59682 0
M  V30 3338 H 319.942 -4.1332 2.95176 0
M  V30 3339 H 319.872 -5.06646 1.43587 0
M  V30 3340 H 322.363 -3.50497 1.41281 0
M  V30 3341 H 322.676 -6.91034 3.45965 0
M  V30 3342 H 321.021 -6.21777 3.10514 0
M  V30 3343 H 324.212 -4.30936 1.82789 0
M  V30 3344 H 324.385 -5.86233 2.76106 0
M  V30 3345 N 317.792 -0.46758 -1.50504 0
M  V30 3346 C 319.038 0.0887532 -2.02606 0
M  V30 3347 C 319.371 1.39686 -1.34913 0
M  V30 3348 O 318.646 1.88644 -0.473694 0
M  V30 3349 C 318.929 0.276206 -3.59039 0
M  V30 3350 C 318.782 -1.05267 -4.37309 0
M  V30 3351 C 320.101 1.03235 -4.27821 0
M  V30 3352 H 317.22 0.0307814 -0.736357 0
M  V30 3353 H 319.862 -0.612485 -1.79857 0
M  V30 3354 H 318.012 0.8735 -3.78553 0
M  V30 3355 H 319.684 -1.68628 -4.29374 0
M  V30 3356 H 317.927 -1.65015 -4.01189 0
M  V30 3357 H 318.598 -0.875197 -5.45018 0
M  V30 3358 H 321.074 0.526111 -4.12761 0
M  V30 3359 H 319.95 1.1323 -5.37094 0
M  V30 3360 H 320.211 2.06806 -3.90748 0
M  V30 3361 N 319.27 1.56325 -0.20005 0
M  V30 3362 C 320.516 1.98012 0.438059 0
M  V30 3363 C 320.849 1.08702 1.60927 0
M  V30 3364 O 320.124 0.140064 1.93995 0
M  V30 3365 C 320.407 3.48841 0.893419 0
M  V30 3366 C 320.26 4.48928 -0.279947 0
M  V30 3367 C 321.579 4.03498 1.75719 0
M  V30 3368 H 318.698 0.719918 0.157757 0
M  V30 3369 H 321.34 1.87743 -0.291968 0
M  V30 3370 H 319.49 3.57723 1.51547 0
M  V30 3371 H 321.162 4.52079 -0.91772 0
M  V30 3372 H 319.405 4.23694 -0.930919 0
M  V30 3373 H 320.076 5.5194 0.0812601 0
M  V30 3374 H 322.552 3.97427 1.23253 0
M  V30 3375 H 321.428 5.09393 2.04476 0
M  V30 3376 H 321.689 3.4906 2.71311 0
M  V30 3377 N 320.748 -0.0735177 1.57428 0
M  V30 3378 C 321.973 -0.789787 1.91774 0
M  V30 3379 C 322.398 -1.70413 0.796306 0
M  V30 3380 O 321.756 -1.79555 -0.250961 0
M  V30 3381 C 321.804 -1.5609 3.25067 0
M  V30 3382 O 320.908 -2.67144 3.14178 0
M  V30 3383 H 320.249 -0.215582 0.628029 0
M  V30 3384 H 322.779 -0.0422781 2.04556 0
M  V30 3385 H 322.789 -1.94052 3.58898 0
M  V30 3386 H 321.464 -0.890015 4.06265 0
M  V30 3387 H 320.041 -2.32052 2.91901 0
M  V30 3388 N 322.226 -1.5378 -0.344866 0
M  V30 3389 C 323.451 -1.75211 -1.10977 0
M  V30 3390 C 323.876 -0.48936 -1.81623 0
M  V30 3391 O 323.234 0.557925 -1.72502 0
M  V30 3392 C 323.282 -2.93147 -2.09993 0
M  V30 3393 O 322.386 -2.63203 -3.17487 0
M  V30 3394 H 321.727 -0.581241 -0.321021 0
M  V30 3395 H 324.257 -2.00738 -0.395661 0
M  V30 3396 H 324.267 -3.19898 -2.53237 0
M  V30 3397 H 322.942 -3.84731 -1.5797 0
M  V30 3398 H 321.519 -2.47336 -2.79069 0
M  V30 3399 N 323.704 0.605807 -1.45491 0
M  V30 3400 C 325.12 0.926751 -1.29936 0
M  V30 3401 C 325.32 1.99896 -0.253706 0
M  V30 3402 O 324.376 2.50038 0.351737 0
M  V30 3403 C 325.689 1.36599 -2.67883 0
M  V30 3404 C 327.237 1.4801 -2.75793 0
M  V30 3405 C 327.712 1.95309 -4.14268 0
M  V30 3406 N 329.203 2.0254 -4.16571 0
M  V30 3407 C 329.938 2.40363 -5.20589 0
M  V30 3408 N 329.434 2.77143 -6.34952 0
M  V30 3409 N 331.227 2.40718 -5.07948 0
M  V30 3410 H 323.378 -0.102862 -2.12151 0
M  V30 3411 H 325.641 0.016639 -0.947854 0
M  V30 3412 H 325.347 0.652306 -3.45598 0
M  V30 3413 H 325.221 2.33215 -2.96463 0
M  V30 3414 H 327.608 2.1847 -1.98381 0
M  V30 3415 H 327.689 0.497041 -2.50925 0
M  V30 3416 H 327.333 1.25436 -4.92167 0
M  V30 3417 H 327.263 2.94532 -4.3653 0
M  V30 3418 H 329.754 1.76699 -3.34045 0
M  V30 3419 H 330.067 3.0489 -7.10114 0
M  V30 3420 H 328.412 2.74834 -6.3835 0
M  V30 3421 H 331.603 2.11392 -4.1765 0
M  V30 3422 H 331.776 2.69869 -5.89131 0
M  V30 3423 N 325.182 1.32811 0.848464 0
M  V30 3424 C 326.129 1.22265 1.95755 0
M  V30 3425 C 327.099 0.103413 1.65778 0
M  V30 3426 O 328.284 0.280033 1.88734 0
M  V30 3427 C 325.424 0.958014 3.31536 0
M  V30 3428 C 324.537 2.16262 3.73971 0
M  V30 3429 C 323.672 1.83295 4.98575 0
M  V30 3430 C 322.711 3.00041 5.33518 0
M  V30 3431 N 321.848 2.67125 6.49299 0
M  V30 3432 H 326.688 2.17128 2.04107 0
M  V30 3433 H 324.225 1.07982 0.998913 0
M  V30 3434 H 326.183 0.785052 4.09747 0
M  V30 3435 H 324.813 0.046159 3.22767 0
M  V30 3436 H 323.865 2.44565 2.91362 0
M  V30 3437 H 325.177 3.03572 3.95785 0
M  V30 3438 H 324.331 1.62586 5.84509 0
M  V30 3439 H 323.07 0.932078 4.7871 0
M  V30 3440 H 322.075 3.21374 4.46093 0
M  V30 3441 H 323.3 3.90869 5.55336 0
M  V30 3442 H 321.246 1.79586 6.3094 0
M  V30 3443 H 321.163 3.47965 6.71161 0
M  V30 3444 H 322.431 2.49861 7.3837 0
M  V30 3445 N 326.66 -1.06551 1.16123 0
M  V30 3446 C 327.59 -2.15935 0.88851 0
M  V30 3447 C 328.571 -1.69306 -0.164135 0
M  V30 3448 O 329.756 -1.94193 -0.0167857 0
M  V30 3449 C 326.886 -3.45149 0.385942 0
M  V30 3450 C 325.84 -4.05271 1.3762 0
M  V30 3451 C 325.166 -5.29664 0.732137 0
M  V30 3452 C 326.466 -4.44355 2.74493 0
M  V30 3453 H 328.16 -2.39006 1.80323 0
M  V30 3454 H 325.706 -1.14866 0.868435 0
M  V30 3455 H 327.659 -4.21004 0.182647 0
M  V30 3456 H 326.383 -3.21689 -0.564274 0
M  V30 3457 H 325.042 -3.3147 1.56599 0
M  V30 3458 H 324.69 -5.02499 -0.224483 0
M  V30 3459 H 324.39 -5.70848 1.39307 0
M  V30 3460 H 325.914 -6.08218 0.538802 0
M  V30 3461 H 327.328 -5.11303 2.59311 0
M  V30 3462 H 325.725 -4.96515 3.37035 0
M  V30 3463 H 326.795 -3.55339 3.29943 0
M  V30 3464 N 328.138 -0.959301 -1.25041 0
M  V30 3465 C 329.384 -0.617525 -1.9317 0
M  V30 3466 C 329.717 0.843981 -1.74902 0
M  V30 3467 O 328.992 1.60615 -1.09696 0
M  V30 3468 C 329.275 -0.982736 -3.46431 0
M  V30 3469 C 329.128 -2.50032 -3.73904 0
M  V30 3470 C 330.447 -0.511176 -4.37121 0
M  V30 3471 H 327.566 -0.22582 -0.701552 0
M  V30 3472 H 330.208 -1.19679 -1.4757 0
M  V30 3473 H 328.358 -0.489806 -3.854 0
M  V30 3474 H 330.03 -3.06737 -3.44544 0
M  V30 3475 H 328.273 -2.93598 -3.19348 0
M  V30 3476 H 328.944 -2.70635 -4.81103 0
M  V30 3477 H 331.42 -0.934075 -4.0548 0
M  V30 3478 H 330.296 -0.795361 -5.43107 0
M  V30 3479 H 330.557 0.588834 -4.38161 0
M  V30 3480 N 329.616 1.39756 -0.72842 0
M  V30 3481 C 330.864 2.00248 -0.272946 0
M  V30 3482 C 331.185 1.58077 1.14178 0
M  V30 3483 O 330.455 0.826014 1.77634 0
M  V30 3484 H 329.035 0.740554 -0.0979247 0
M  V30 3485 H 331.697 1.70903 -0.936912 0
M  V30 3486 H 330.793 3.10495 -0.316142 0
M  V30 3487 N 331.094 0.475555 1.50254 0
M  V30 3488 C 332.341 -0.0778919 2.0235 0
M  V30 3489 C 332.669 -1.39319 1.35722 0
M  V30 3490 O 331.924 -1.89888 0.473395 0
M  V30 3491 C 332.223 -0.305114 3.56095 0
M  V30 3492 C 331.889 0.92903 4.41225 0
M  V30 3493 C 330.551 1.26739 4.6421 0
M  V30 3494 C 332.903 1.75054 4.90923 0
M  V30 3495 C 330.231 2.42724 5.34137 0
M  V30 3496 C 332.583 2.9017 5.62125 0
M  V30 3497 C 331.247 3.24416 5.83362 0
M  V30 3498 H 330.517 -0.0285027 0.740452 0
M  V30 3499 H 333.164 0.630543 1.80821 0
M  V30 3500 H 331.469 -1.09584 3.76163 0
M  V30 3501 H 333.166 -0.747377 3.93974 0
M  V30 3502 H 329.756 0.655428 4.23559 0
M  V30 3503 H 333.94 1.50231 4.73016 0
M  V30 3504 H 329.196 2.69525 5.48786 0
M  V30 3505 H 333.37 3.54169 5.99614 0
M  V30 3506 H 330.997 4.14396 6.37323 0
M  V30 3507 N 332.573 -1.56217 0.208337 0
M  V30 3508 C 333.822 -1.97124 -0.427204 0
M  V30 3509 C 334.135 -1.09859 -1.61835 0
M  V30 3510 O 335.341 -1.40606 -2.32255 0
M  V30 3511 C 333.797 -3.50633 -0.811442 0
M  V30 3512 C 333.405 -4.46582 0.35615 0
M  V30 3513 C 335.149 -4.00282 -1.41332 0
M  V30 3514 C 333.056 -5.91379 -0.0497852 0
M  V30 3515 H 331.986 -0.736086 -0.163381 0
M  V30 3516 H 334.637 -1.8099 0.302456 0
M  V30 3517 H 333.019 -3.62319 -1.59815 0
M  V30 3518 H 334.193 -4.46636 1.1337 0
M  V30 3519 H 332.508 -4.07202 0.870396 0
M  V30 3520 H 335.105 -5.0595 -1.72972 0
M  V30 3521 H 335.448 -3.45359 -2.32449 0
M  V30 3522 H 335.981 -3.91764 -0.690323 0
M  V30 3523 H 332.72 -6.50255 0.827529 0
M  V30 3524 H 332.24 -5.94549 -0.791926 0
M  V30 3525 H 333.919 -6.45209 -0.481042 0
M  V30 3526 N 334.051 0.0651679 -1.57465 0
M  V30 3527 C 335.276 0.779605 -1.9219 0
M  V30 3528 C 335.701 1.69988 -0.805333 0
M  V30 3529 O 335.059 1.79685 0.241435 0
M  V30 3530 C 335.107 1.54364 -3.2589 0
M  V30 3531 O 334.211 2.65474 -3.1559 0
M  V30 3532 H 333.552 0.212249 -0.629163 0
M  V30 3533 H 336.082 0.0314294 -2.04576 0
M  V30 3534 H 336.092 1.92146 -3.59922 0
M  V30 3535 H 334.767 0.868457 -4.06732 0
M  V30 3536 H 333.344 2.30501 -2.93128 0
M  V30 3537 N 335.529 1.53961 0.336706 0
M  V30 3538 C 336.492 1.81724 1.39675 0
M  V30 3539 C 337.492 0.688532 1.45313 0
M  V30 3540 O 338.682 0.956829 1.45569 0
M  V30 3541 C 335.814 1.96543 2.78538 0
M  V30 3542 H 337.007 2.76424 1.16318 0
M  V30 3543 H 334.56 1.45478 0.571474 0
M  V30 3544 H 335.295 1.0401 3.07168 0
M  V30 3545 H 335.08 2.78665 2.75841 0
M  V30 3546 H 336.57 2.19516 3.5525 0
M  V30 3547 N 337.007 -0.598083 1.45811 0
M  V30 3548 C 338.256 -1.35295 1.49594 0
M  V30 3549 C 338.569 -1.95057 0.145679 0
M  V30 3550 O 339.775 -2.71431 0.0612099 0
M  V30 3551 C 338.231 -2.45124 2.63519 0
M  V30 3552 C 337.839 -1.91732 4.04899 0
M  V30 3553 C 339.583 -3.2205 2.76558 0
M  V30 3554 C 337.49 -2.991 5.1019 0
M  V30 3555 H 336.42 -0.508552 0.556679 0
M  V30 3556 H 339.071 -0.639977 1.71978 0
M  V30 3557 H 337.453 -3.19149 2.34435 0
M  V30 3558 H 338.627 -1.24352 4.43704 0
M  V30 3559 H 336.942 -1.27522 3.96393 0
M  V30 3560 H 339.539 -4.0215 3.52391 0
M  V30 3561 H 339.882 -3.73663 1.83526 0
M  V30 3562 H 340.415 -2.55127 3.05213 0
M  V30 3563 H 337.154 -2.52393 6.04961 0
M  V30 3564 H 336.674 -3.65017 4.75944 0
M  V30 3565 H 338.353 -3.63318 5.35359 0
M  V30 3566 N 338.485 -1.33259 -0.841409 0
M  V30 3567 C 339.896 -1.22066 -1.41269 0
M  V30 3568 C 340.247 0.161479 -1.95534 0
M  V30 3569 O 339.372 1.06094 -1.88608 0
M  V30 3570 C 339.967 -2.20996 -2.568 0
M  V30 3571 C 338.526 -2.13649 -3.09888 0
M  V30 3572 C 337.673 -2.08623 -1.82679 0
M  V30 3573 H 340.624 -1.44895 -0.647395 0
M  V30 3574 H 340.645 -1.81621 -3.34356 0
M  V30 3575 H 340.157 -3.2158 -2.17274 0
M  V30 3576 H 338.258 -1.16359 -3.53965 0
M  V30 3577 H 338.371 -3.04079 -3.70234 0
M  V30 3578 H 336.735 -1.54061 -2.02824 0
M  V30 3579 H 337.518 -3.1101 -1.45353 0
M  V30 3580 N 339.963 1.05934 -1.16686 0
M  V30 3581 C 340.926 2.11669 -0.879144 0
M  V30 3582 C 341.926 1.60294 0.127445 0
M  V30 3583 O 343.116 1.7389 -0.103865 0
M  V30 3584 C 340.248 3.39438 -0.315425 0
M  V30 3585 H 341.441 2.38626 -1.81653 0
M  V30 3586 H 338.994 1.22058 -0.976299 0
M  V30 3587 H 339.729 3.18132 0.629468 0
M  V30 3588 H 339.514 3.78034 -1.04079 0
M  V30 3589 H 341.004 4.17391 -0.132189 0
M  V30 3590 N 341.441 0.965919 1.2453 0
M  V30 3591 C 342.389 0.486506 2.27455 0
M  V30 3592 C 343.383 -0.449041 1.6334 0
M  V30 3593 O 344.589 -0.324527 1.7705 0
M  V30 3594 H 340.964 0.138857 0.739069 0
M  V30 3595 H 342.935 1.3666 2.65267 0
M  V30 3596 C 341.684 -0.209481 3.47068 0
M  V30 3597 H 341.007 0.50129 3.96645 0
M  V30 3598 H 342.447 -0.508775 4.20936 0
M  V30 3599 C 340.906 -1.43586 3.0477 0
M  V30 3600 O 341.436 -2.53299 3.11773 0
M  V30 3601 N 339.642 -1.30126 2.59838 0
M  V30 3602 H 339.189 -0.408583 2.54339 0
M  V30 3603 H 339.147 -2.12294 2.31902 0
M  V30 3604 N 342.919 -1.39368 0.735821 0
M  V30 3605 C 344.168 -1.99733 0.281004 0
M  V30 3606 C 344.481 -1.59055 -1.13846 0
M  V30 3607 O 345.687 -2.12262 -1.69284 0
M  V30 3608 C 344.143 -3.57057 0.451462 0
M  V30 3609 C 343.751 -4.06697 1.87886 0
M  V30 3610 C 345.495 -4.2446 0.0584616 0
M  V30 3611 C 343.402 -5.56598 1.99883 0
M  V30 3612 H 342.332 -0.747163 0.101311 0
M  V30 3613 H 344.983 -1.59357 0.909819 0
M  V30 3614 H 343.365 -3.95234 -0.246263 0
M  V30 3615 H 344.539 -3.79853 2.60861 0
M  V30 3616 H 342.854 -3.5196 2.22515 0
M  V30 3617 H 345.451 -5.34549 0.127099 0
M  V30 3618 H 345.794 -4.04444 -0.986433 0
M  V30 3619 H 346.327 -3.9146 0.707374 0
M  V30 3620 H 343.066 -5.81494 3.02564 0
M  V30 3621 H 342.586 -5.85242 1.31346 0
M  V30 3622 H 344.265 -6.22022 1.78039 0
M  V30 3623 N 344.397 -0.483516 -1.5 0
M  V30 3624 C 345.347 0.32306 -2.257 0
M  V30 3625 C 346.331 0.950755 -1.29805 0
M  V30 3626 O 347.523 0.861247 -1.54634 0
M  V30 3627 C 344.652 1.39724 -3.13579 0
M  V30 3628 C 343.738 0.776663 -4.16928 0
M  V30 3629 N 344.129 -0.1104 -5.0568 0
M  V30 3630 C 342.427 1.03922 -4.33724 0
M  V30 3631 C 343.128 -0.46387 -5.79848 0
M  V30 3632 N 342.104 0.163987 -5.43353 0
M  V30 3633 H 345.906 -0.360086 -2.91686 0
M  V30 3634 H 343.42 -0.298456 -1.59634 0
M  V30 3635 H 345.417 1.98837 -3.66428 0
M  V30 3636 H 344.077 2.08225 -2.49143 0
M  V30 3637 H 345.088 -0.480069 -5.1567 0
M  V30 3638 H 341.765 1.71829 -3.80501 0
M  V30 3639 H 343.155 -1.18854 -6.61304 0
M  V30 3640 N 345.875 1.56104 -0.216619 0
M  V30 3641 C 347.124 1.97348 0.416744 0
M  V30 3642 C 347.437 1.10715 1.6125 0
M  V30 3643 O 348.643 1.41836 2.31506 0
M  V30 3644 C 347.099 3.51059 0.792835 0
M  V30 3645 C 346.707 4.46387 -0.379828 0
M  V30 3646 C 348.451 4.01026 1.39208 0
M  V30 3647 C 346.358 5.91397 0.0184223 0
M  V30 3648 H 345.288 0.736942 0.159475 0
M  V30 3649 H 347.939 1.80827 -0.31205 0
M  V30 3650 H 346.321 3.63162 1.57891 0
M  V30 3651 H 347.495 4.46029 -1.15737 0
M  V30 3652 H 345.81 4.06734 -0.891979 0
M  V30 3653 H 348.407 5.0686 1.70286 0
M  V30 3654 H 348.75 3.46587 2.30614 0
M  V30 3655 H 349.283 3.92125 0.669537 0
M  V30 3656 H 346.022 6.49807 -0.862002 0
M  V30 3657 H 345.542 5.94961 0.760384 0
M  V30 3658 H 347.221 6.45455 0.446818 0
M  V30 3659 N 347.353 -0.0568162 1.57498 0
M  V30 3660 C 348.583 -0.764515 1.91934 0
M  V30 3661 C 348.991 -1.70877 0.81227 0
M  V30 3662 O 348.334 -1.82351 -0.222213 0
M  V30 3663 C 348.396 -1.5994 3.21962 0
M  V30 3664 C 348.06 -0.822925 4.4953 0
M  V30 3665 C 349.057 -0.135464 5.19723 0
M  V30 3666 C 346.742 -0.785666 4.96117 0
M  V30 3667 C 348.736 0.578861 6.34766 0
M  V30 3668 C 346.423 -0.0675784 6.11063 0
M  V30 3669 C 347.421 0.613471 6.80239 0
M  V30 3670 O 347.109 1.31996 7.92989 0
M  V30 3671 H 346.841 -0.221647 0.63863 0
M  V30 3672 H 349.395 -0.0268218 2.05382 0
M  V30 3673 H 347.625 -2.38026 3.04763 0
M  V30 3674 H 349.314 -2.18715 3.41934 0
M  V30 3675 H 350.08 -0.155458 4.84751 0
M  V30 3676 H 345.959 -1.30524 4.42136 0
M  V30 3677 H 349.503 1.111 6.88696 0
M  V30 3678 H 345.4 -0.0455636 6.45484 0
M  V30 3679 H 346.168 1.23077 8.09194 0
M  V30 3680 N 348.832 -1.54138 -0.328536 0
M  V30 3681 C 350.109 -1.62749 -1.08499 0
M  V30 3682 C 350.489 -0.458198 -2.06067 0
M  V30 3683 O 349.837 0.548046 -2.2183 0
M  V30 3684 C 350.047 -2.99519 -1.79135 0
M  V30 3685 C 351.395 -3.55394 -2.32337 0
M  V30 3686 O 352.419 -3.01792 -1.89209 0
M  V30 3687 O 351.278 -4.49186 -3.11279 0
M  V30 3688 H 348.372 -0.65886 -0.499832 0
M  V30 3689 H 350.918 -1.66484 -0.328826 0
M  V30 3690 H 349.69 -3.76061 -1.08139 0
M  V30 3691 H 349.313 -2.99441 -2.61574 0
M  V30 3692 N 350.31 0.590341 -1.46126 0
M  V30 3693 C 351.538 1.37504 -1.54597 0
M  V30 3694 C 351.953 1.87897 -0.184447 0
M  V30 3695 O 351.31 1.63192 0.816984 0
M  V30 3696 C 351.361 2.56779 -2.54454 0
M  V30 3697 O 351.082 2.08476 -3.85317 0
M  V30 3698 C 352.583 3.49427 -2.72792 0
M  V30 3699 H 349.803 0.420325 -0.523037 0
M  V30 3700 H 352.347 0.718383 -1.91467 0
M  V30 3701 H 350.502 3.1845 -2.20609 0
M  V30 3702 H 350.916 2.86097 -4.396 0
M  V30 3703 H 352.39 4.29619 -3.466 0
M  V30 3704 H 352.867 4.00876 -1.79429 0
M  V30 3705 H 353.473 2.93598 -3.07702 0
M  V30 3706 N 351.788 1.33704 0.83433 0
M  V30 3707 C 352.698 1.26382 1.97648 0
M  V30 3708 C 353.714 0.173548 1.73132 0
M  V30 3709 O 354.89 0.397962 1.97429 0
M  V30 3710 C 351.955 1.00769 3.31733 0
M  V30 3711 C 351.016 2.1884 3.69334 0
M  V30 3712 C 350.249 1.9444 4.9702 0
M  V30 3713 O 350.472 0.896961 5.63303 0
M  V30 3714 O 349.406 2.81093 5.32231 0
M  V30 3715 H 353.232 2.22444 2.06767 0
M  V30 3716 H 350.817 1.13795 0.968037 0
M  V30 3717 H 352.699 0.882186 4.12062 0
M  V30 3718 H 351.374 0.0773783 3.23608 0
M  V30 3719 H 350.281 2.36946 2.89495 0
M  V30 3720 H 351.614 3.10221 3.82131 0
M  V30 3721 N 353.266 -1.05314 1.17247 0
M  V30 3722 C 354.213 -2.13031 0.888058 0
M  V30 3723 C 355.183 -1.65253 -0.167537 0
M  V30 3724 O 356.368 -1.90775 -0.0305974 0
M  V30 3725 C 353.508 -3.42702 0.406147 0
M  V30 3726 C 352.621 -4.04161 1.52572 0
M  V30 3727 C 351.756 -5.21744 0.997808 0
M  V30 3728 C 350.795 -5.75207 2.09291 0
M  V30 3729 N 349.932 -6.84094 1.57986 0
M  V30 3730 H 354.772 -2.36698 1.81048 0
M  V30 3731 H 352.309 -1.16121 0.903013 0
M  V30 3732 H 354.267 -4.17059 0.108305 0
M  V30 3733 H 352.897 -3.19222 -0.479313 0
M  V30 3734 H 351.949 -3.27253 1.93931 0
M  V30 3735 H 353.261 -4.39881 2.35172 0
M  V30 3736 H 352.415 -6.03168 0.653739 0
M  V30 3737 H 351.154 -4.87495 0.141232 0
M  V30 3738 H 350.159 -4.92414 2.44557 0
M  V30 3739 H 351.384 -6.11505 2.95362 0
M  V30 3740 H 349.33 -6.51745 0.74598 0
M  V30 3741 H 349.247 -7.18811 2.34195 0
M  V30 3742 H 350.515 -7.69172 1.26468 0
M  V30 3743 N 354.744 -0.972509 -1.24016 0
M  V30 3744 C 355.691 -0.505969 -2.25186 0
M  V30 3745 C 356.661 0.451009 -1.5986 0
M  V30 3746 O 357.846 0.360307 -1.87367 0
M  V30 3747 C 354.986 0.193089 -3.44559 0
M  V30 3748 C 354.099 -0.803222 -4.24467 0
M  V30 3749 C 353.234 -0.0797793 -5.3114 0
M  V30 3750 C 352.273 -1.06583 -6.02749 0
M  V30 3751 N 351.41 -0.372074 -7.01113 0
M  V30 3752 H 356.25 -1.37351 -2.64459 0
M  V30 3753 H 353.787 -0.688419 -1.29997 0
M  V30 3754 H 355.745 0.615125 -4.1264 0
M  V30 3755 H 354.375 1.02455 -3.06109 0
M  V30 3756 H 353.427 -1.34368 -3.55878 0
M  V30 3757 H 354.739 -1.55494 -4.73944 0
M  V30 3758 H 353.893 0.400015 -6.0538 0
M  V30 3759 H 352.632 0.704597 -4.82583 0
M  V30 3760 H 351.637 -1.55645 -5.27309 0
M  V30 3761 H 352.862 -1.85074 -6.53395 0
M  V30 3762 H 350.808 0.393238 -6.5482 0
M  V30 3763 H 350.725 -1.06258 -7.48495 0
M  V30 3764 H 351.993 0.0855932 -7.79453 0
M  V30 3765 N 356.222 1.38976 -0.743202 0
M  V30 3766 C 357.155 2.28128 -0.0572165 0
M  V30 3767 C 358.133 1.44827 0.739182 0
M  V30 3768 O 359.317 1.74207 0.720009 0
M  V30 3769 C 356.444 3.25796 0.926001 0
M  V30 3770 C 355.49 4.25947 0.217099 0
M  V30 3771 S 356.323 5.24604 -1.07477 0
M  V30 3772 C 357.479 6.25829 -0.0943545 0
M  V30 3773 H 357.712 2.85961 -0.813246 0
M  V30 3774 H 355.245 1.44822 -0.535341 0
M  V30 3775 H 357.203 3.82583 1.48797 0
M  V30 3776 H 355.864 2.66966 1.65493 0
M  V30 3777 H 355.057 4.94746 0.961372 0
M  V30 3778 H 354.659 3.73002 -0.273059 0
M  V30 3779 H 356.951 6.73411 0.743239 0
M  V30 3780 H 357.894 7.0412 -0.749713 0
M  V30 3781 H 358.302 5.63797 0.281706 0
M  V30 3782 N 357.7 0.491464 1.49741 0
M  V30 3783 C 358.946 -0.0565092 2.02721 0
M  V30 3784 C 359.279 -1.37522 1.37118 0
M  V30 3785 O 358.554 -1.87866 0.503645 0
M  V30 3786 C 358.837 -0.219051 3.59433 0
M  V30 3787 C 358.69 1.12211 4.35579 0
M  V30 3788 C 360.009 -0.964157 4.29409 0
M  V30 3789 H 357.128 -0.0190627 0.736753 0
M  V30 3790 H 359.77 0.641021 1.7886 0
M  V30 3791 H 357.92 -0.813165 3.79895 0
M  V30 3792 H 359.592 1.75437 4.26637 0
M  V30 3793 H 357.835 1.71377 3.98513 0
M  V30 3794 H 358.506 0.961794 5.43556 0
M  V30 3795 H 360.982 -0.460378 4.13545 0
M  V30 3796 H 359.858 -1.04671 5.38828 0
M  V30 3797 H 360.119 -2.00563 3.93988 0
M  V30 3798 N 359.178 -1.55987 0.224894 0
M  V30 3799 C 360.088 -2.24066 -0.69511 0
M  V30 3800 C 361.104 -1.24939 -1.21104 0
M  V30 3801 O 362.28 -1.5776 -1.25195 0
M  V30 3802 C 359.345 -2.90983 -1.88493 0
M  V30 3803 C 358.406 -4.05462 -1.41064 0
M  V30 3804 C 357.639 -4.69179 -2.54375 0
M  V30 3805 O 357.862 -4.31895 -3.72589 0
M  V30 3806 O 356.796 -5.58108 -2.25386 0
M  V30 3807 H 360.622 -3.03353 -0.145149 0
M  V30 3808 H 358.207 -1.49399 -0.00569476 0
M  V30 3809 H 360.089 -3.33209 -2.57972 0
M  V30 3810 H 358.764 -2.14653 -2.42293 0
M  V30 3811 H 357.671 -3.67798 -0.683774 0
M  V30 3812 H 359.004 -4.83545 -0.918985 0
M  V30 3813 N 360.656 0.0484629 -1.57525 0
M  V30 3814 C 361.905 0.742065 -1.87553 0
M  V30 3815 C 362.218 1.77545 -0.820802 0
M  V30 3816 O 363.424 2.52027 -1.00967 0
M  V30 3817 C 361.88 1.37081 -3.32771 0
M  V30 3818 C 361.488 0.374786 -4.4643 0
M  V30 3819 C 363.232 2.04542 -3.71972 0
M  V30 3820 C 361.139 1.01077 -5.82698 0
M  V30 3821 H 360.069 0.280903 -0.699721 0
M  V30 3822 H 362.72 -0.00411877 -1.835 0
M  V30 3823 H 361.102 2.16605 -3.31509 0
M  V30 3824 H 362.276 -0.392331 -4.59127 0
M  V30 3825 H 360.591 -0.196653 -4.15935 0
M  V30 3826 H 363.188 2.52943 -4.71088 0
M  V30 3827 H 363.531 2.85515 -3.02964 0
M  V30 3828 H 364.064 1.31819 -3.75325 0
M  V30 3829 H 360.803 0.240878 -6.55057 0
M  V30 3830 H 360.323 1.74819 -5.73758 0
M  V30 3831 H 362.002 1.52383 -6.28799 0
M  V30 3832 N 362.134 1.5431 0.320358 0
M  V30 3833 C 363.082 1.84647 1.4145 0
M  V30 3834 C 364.076 0.718624 1.53402 0
M  V30 3835 O 365.282 0.902335 1.5575 0
M  V30 3836 H 361.657 0.585349 0.472091 0
M  V30 3837 H 363.628 2.7614 1.13089 0
M  V30 3838 C 362.377 2.09341 2.77617 0
M  V30 3839 H 361.7 2.9559 2.69196 0
M  V30 3840 H 363.14 2.3452 3.53237 0
M  V30 3841 C 361.599 0.885939 3.25043 0
M  V30 3842 O 362.129 0.0967891 4.01583 0
M  V30 3843 N 360.335 0.696682 2.82125 0
M  V30 3844 H 359.882 1.34006 2.2 0
M  V30 3845 H 359.84 -0.109712 3.14209 0
M  V30 3846 N 363.613 -0.582584 1.46437 0
M  V30 3847 C 364.86 -1.34079 1.51753 0
M  V30 3848 C 365.188 -1.93762 0.169299 0
M  V30 3849 O 364.443 -1.76989 -0.835062 0
M  V30 3850 C 364.742 -2.48964 2.56421 0
M  V30 3851 C 364.408 -2.07273 4.00436 0
M  V30 3852 C 363.07 -1.95618 4.39644 0
M  V30 3853 C 365.422 -1.75111 4.90903 0
M  V30 3854 C 362.75 -1.5006 5.67185 0
M  V30 3855 C 365.102 -1.31032 6.18881 0
M  V30 3856 C 363.766 -1.17954 6.56996 0
M  V30 3857 H 363.036 -0.49063 0.555304 0
M  V30 3858 H 365.683 -0.656007 1.79913 0
M  V30 3859 H 363.988 -3.22889 2.21923 0
M  V30 3860 H 365.685 -3.07178 2.57765 0
M  V30 3861 H 362.275 -2.17279 3.69443 0
M  V30 3862 H 366.459 -1.83001 4.61329 0
M  V30 3863 H 361.715 -1.38577 5.95488 0
M  V30 3864 H 365.889 -1.052 6.88408 0
M  V30 3865 H 363.516 -0.824279 7.55718 0
M  V30 3866 N 365.091 -1.34144 -0.827227 0
M  V30 3867 C 366.021 -1.28005 -1.95287 0
M  V30 3868 C 367.002 -0.158321 -1.69362 0
M  V30 3869 O 368.187 -0.349987 -1.9102 0
M  V30 3870 C 365.317 -1.03036 -3.31664 0
M  V30 3871 C 364.271 -2.11628 -3.72019 0
M  V30 3872 C 363.597 -1.71854 -5.0633 0
M  V30 3873 C 364.897 -3.53417 -3.8457 0
M  V30 3874 H 366.591 -2.22187 -2.00682 0
M  V30 3875 H 364.137 -1.0696 -0.964135 0
M  V30 3876 H 366.09 -0.973863 -4.09993 0
M  V30 3877 H 364.814 -0.0529391 -3.26557 0
M  V30 3878 H 363.473 -2.16339 -2.95961 0
M  V30 3879 H 363.121 -0.727841 -4.97706 0
M  V30 3880 H 362.821 -2.44531 -5.34302 0
M  V30 3881 H 364.345 -1.67692 -5.87122 0
M  V30 3882 H 365.759 -3.51142 -4.5318 0
M  V30 3883 H 364.156 -4.24679 -4.2399 0
M  V30 3884 H 365.226 -3.91072 -2.86689 0
M  V30 3885 N 366.569 1.04691 -1.17803 0
M  V30 3886 C 367.809 1.79352 -0.980423 0
M  V30 3887 C 368.173 1.85853 0.481958 0
M  V30 3888 O 369.374 2.56656 0.798809 0
M  V30 3889 C 367.645 3.19088 -1.6099 0
M  V30 3890 S 369.204 4.10164 -1.55918 0
M  V30 3891 H 366.022 0.617631 -0.352211 0
M  V30 3892 H 368.624 1.25575 -1.49837 0
M  V30 3893 H 367.328 3.11962 -2.66661 0
M  V30 3894 H 366.859 3.77941 -1.09197 0
M  V30 3895 H 368.874 4.92907 -0.570685 0
M  V30 3896 N 368.047 0.979072 1.23499 0
M  V30 3897 C 369.293 0.648178 1.92163 0
M  V30 3898 C 369.626 -0.816049 1.76222 0
M  V30 3899 O 368.901 -1.58849 1.12237 0
M  V30 3900 C 369.184 1.03773 3.44824 0
M  V30 3901 C 369.037 2.55948 3.69879 0
M  V30 3902 C 370.356 0.580653 4.36253 0
M  V30 3903 H 367.475 0.236952 0.69787 0
M  V30 3904 H 370.117 1.22012 1.45647 0
M  V30 3905 H 368.267 0.551058 3.84572 0
M  V30 3906 H 369.939 3.12179 3.3962 0
M  V30 3907 H 368.182 2.98641 3.14636 0
M  V30 3908 H 368.853 2.78255 4.76737 0
M  V30 3909 H 371.329 0.998465 4.03943 0
M  V30 3910 H 370.205 0.881663 5.41773 0
M  V30 3911 H 370.466 -0.519052 4.39042 0
M  V30 3912 N 369.525 -1.3858 0.750561 0
M  V30 3913 C 370.475 -2.27795 0.0965949 0
M  V30 3914 C 371.459 -1.45048 -0.696411 0
M  V30 3915 O 372.651 -1.67812 -0.562863 0
M  V30 3916 C 369.78 -3.33894 -0.798085 0
M  V30 3917 C 368.866 -4.241 0.0016067 0
M  V30 3918 N 369.257 -4.95067 1.03647 0
M  V30 3919 C 367.555 -4.45429 -0.225674 0
M  V30 3920 C 368.256 -5.61489 1.52004 0
M  V30 3921 N 367.232 -5.37135 0.835874 0
M  V30 3922 H 371.034 -2.80125 0.889228 0
M  V30 3923 H 368.548 -1.51446 0.586323 0
M  V30 3924 H 370.545 -3.96693 -1.28219 0
M  V30 3925 H 369.205 -2.83123 -1.5897 0
M  V30 3926 H 370.216 -4.98104 1.41819 0
M  V30 3927 H 366.893 -4.05571 -0.990872 0
M  V30 3928 H 368.283 -6.28264 2.38188 0
M  V30 3929 N 371.003 -0.499398 -1.49478 0
M  V30 3930 C 371.95 0.279881 -2.29097 0
M  V30 3931 C 372.92 0.961805 -1.3542 0
M  V30 3932 O 374.105 0.968777 -1.64376 0
M  V30 3933 C 371.245 1.33932 -3.18051 0
M  V30 3934 C 370.358 0.669333 -4.26783 0
M  V30 3935 C 369.493 1.70907 -5.02955 0
M  V30 3936 C 368.532 1.02087 -6.03527 0
M  V30 3937 N 367.669 2.00474 -6.7287 0
M  V30 3938 H 372.509 -0.405317 -2.95231 0
M  V30 3939 H 370.046 -0.211726 -1.45568 0
M  V30 3940 H 372.004 1.96553 -3.67998 0
M  V30 3941 H 370.634 1.9933 -2.53904 0
M  V30 3942 H 369.686 -0.0701234 -3.80335 0
M  V30 3943 H 370.998 0.127503 -4.98637 0
M  V30 3944 H 370.152 2.41037 -5.56764 0
M  V30 3945 H 368.891 2.28476 -4.30871 0
M  V30 3946 H 367.896 0.305338 -5.48951 0
M  V30 3947 H 369.121 0.451708 -6.77596 0
M  V30 3948 H 367.067 2.57007 -6.03559 0
M  V30 3949 H 366.984 1.51353 -7.40694 0
M  V30 3950 H 368.252 2.69897 -7.31284 0
M  V30 3951 N 372.481 1.55866 -0.233164 0
M  V30 3952 C 373.428 2.20796 0.67215 0
M  V30 3953 C 374.398 1.16731 1.18166 0
M  V30 3954 O 375.583 1.45129 1.23864 0
M  V30 3955 C 372.723 2.90072 1.86955 0
M  V30 3956 C 371.836 4.08759 1.39786 0
M  V30 3957 C 370.971 4.65787 2.55374 0
M  V30 3958 C 370.01 5.76752 2.04998 0
M  V30 3959 N 369.147 6.28021 3.13901 0
M  V30 3960 H 373.987 2.9779 0.111749 0
M  V30 3961 H 371.524 1.47036 0.0434007 0
M  V30 3962 H 373.482 3.28428 2.57276 0
M  V30 3963 H 372.112 2.15575 2.40265 0
M  V30 3964 H 371.164 3.7581 0.589173 0
M  V30 3965 H 372.476 4.88906 0.98856 0
M  V30 3966 H 371.63 5.06646 3.33758 0
M  V30 3967 H 370.369 3.84828 2.99598 0
M  V30 3968 H 369.374 5.35383 1.25079 0
M  V30 3969 H 370.599 6.59553 1.61759 0
M  V30 3970 H 368.545 5.49971 3.57586 0
M  V30 3971 H 368.462 7.03323 2.7726 0
M  V30 3972 H 369.73 6.73538 3.92386 0
M  V30 3973 N 373.959 -0.0401083 1.57549 0
M  V30 3974 C 374.889 -1.04384 2.08869 0
M  V30 3975 C 375.87 -1.38407 0.988817 0
M  V30 3976 O 377.055 -1.47483 1.26342 0
M  V30 3977 C 374.185 -2.34808 2.55895 0
M  V30 3978 C 373.139 -2.15057 3.70047 0
M  V30 3979 C 372.465 -3.51145 4.03239 0
M  V30 3980 C 373.765 -1.54576 4.98902 0
M  V30 3981 H 375.459 -0.616666 2.92981 0
M  V30 3982 H 373.005 -0.295184 1.40942 0
M  V30 3983 H 374.958 -3.05346 2.90417 0
M  V30 3984 H 373.682 -2.79565 1.68853 0
M  V30 3985 H 372.341 -1.46954 3.35857 0
M  V30 3986 H 371.989 -3.93529 3.13279 0
M  V30 3987 H 371.689 -3.38758 4.80122 0
M  V30 3988 H 373.213 -4.23062 4.40285 0
M  V30 3989 H 374.627 -2.15017 5.31451 0
M  V30 3990 H 373.024 -1.52796 5.80322 0
M  V30 3991 H 374.094 -0.51039 4.82206 0
M  V30 3992 N 375.437 -1.54477 -0.31217 0
M  V30 3993 C 376.853 -1.45442 -0.657185 0
M  V30 3994 C 377.053 -0.63653 -1.91182 0
M  V30 3995 O 376.109 -0.139815 -2.52113 0
M  V30 3996 C 377.422 -2.89287 -0.82058 0
M  V30 3997 C 378.97 -2.9926 -0.917188 0
M  V30 3998 C 379.445 -4.44279 -1.11267 0
M  V30 3999 N 380.936 -4.4794 -1.17914 0
M  V30 4000 C 381.671 -5.57318 -1.34848 0
M  V30 4001 N 381.167 -6.76642 -1.48752 0
M  V30 4002 N 382.96 -5.44986 -1.37647 0
M  V30 4003 H 375.111 -2.06129 0.512313 0
M  V30 4004 H 377.374 -0.933088 0.167485 0
M  V30 4005 H 377.08 -3.51687 0.0302604 0
M  V30 4006 H 376.954 -3.36061 -1.71298 0
M  V30 4007 H 379.341 -2.36981 -1.75852 0
M  V30 4008 H 379.422 -2.558 -0.00101257 0
M  V30 4009 H 379.066 -5.07149 -0.27614 0
M  V30 4010 H 378.996 -4.85359 -2.04289 0
M  V30 4011 H 381.487 -3.61969 -1.08567 0
M  V30 4012 H 381.8 -7.55758 -1.61397 0
M  V30 4013 H 380.145 -6.79529 -1.45828 0
M  V30 4014 H 383.336 -4.50715 -1.26388 0
M  V30 4015 H 383.509 -6.3028 -1.50501 0
M  V30 4016 N 376.915 0.57481 -1.46744 0
M  V30 4017 C 378.14 1.36341 -1.56288 0
M  V30 4018 C 378.565 1.86954 -0.207347 0
M  V30 4019 O 377.923 1.62006 0.813871 0
M  V30 4020 C 377.971 2.52147 -2.57787 0
M  V30 4021 O 377.075 3.53834 -2.11838 0
M  V30 4022 H 376.416 0.405713 -0.525636 0
M  V30 4023 H 378.946 0.696453 -1.92382 0
M  V30 4024 H 378.956 2.98958 -2.77648 0
M  V30 4025 H 377.631 2.14663 -3.5622 0
M  V30 4026 H 376.208 3.1345 -2.01999 0
M  V30 4027 N 378.394 1.34581 0.820102 0
M  V30 4028 C 379.341 1.2639 1.93117 0
M  V30 4029 C 380.311 0.138554 1.65521 0
M  V30 4030 O 381.496 0.320004 1.88097 0
M  V30 4031 C 378.636 1.02812 3.29429 0
M  V30 4032 C 377.749 2.24146 3.693 0
M  V30 4033 C 376.884 1.93829 4.94574 0
M  V30 4034 C 375.923 3.1129 5.27034 0
M  V30 4035 N 375.06 2.80838 6.43486 0
M  V30 4036 H 379.9 2.21408 1.99455 0
M  V30 4037 H 377.437 1.10077 0.975784 0
M  V30 4038 H 379.395 0.871788 4.0799 0
M  V30 4039 H 378.025 0.114612 3.22596 0
M  V30 4040 H 377.077 2.50691 2.86109 0
M  V30 4041 H 378.389 3.11899 3.89257 0
M  V30 4042 H 377.543 1.74948 5.80929 0
M  V30 4043 H 376.282 1.03341 4.76626 0
M  V30 4044 H 375.287 3.30764 4.39175 0
M  V30 4045 H 376.512 4.02561 5.4692 0
M  V30 4046 H 374.458 1.92929 6.26988 0
M  V30 4047 H 374.375 3.62123 6.63629 0
M  V30 4048 H 375.643 2.65467 7.32903 0
M  V30 4049 N 379.872 -1.04064 1.18357 0
M  V30 4050 C 381.288 -1.2947 0.933258 0
M  V30 4051 C 381.488 -1.97466 -0.401169 0
M  V30 4052 O 380.544 -2.25528 -1.13549 0
M  V30 4053 C 381.857 -2.15337 2.09882 0
M  V30 4054 C 383.405 -2.28683 2.13712 0
M  V30 4055 C 383.88 -3.17917 3.29686 0
M  V30 4056 N 385.371 -3.25504 3.29547 0
M  V30 4057 C 386.106 -3.94706 4.15926 0
M  V30 4058 N 385.602 -4.66239 5.12439 0
M  V30 4059 N 387.395 -3.90986 4.0384 0
M  V30 4060 H 379.546 -0.583359 2.04232 0
M  V30 4061 H 381.809 -0.319921 0.892387 0
M  V30 4062 H 381.515 -1.72682 3.06389 0
M  V30 4063 H 381.389 -3.16015 2.05947 0
M  V30 4064 H 383.776 -2.70575 1.17784 0
M  V30 4065 H 383.857 -1.27596 2.21705 0
M  V30 4066 H 383.501 -2.76736 4.25887 0
M  V30 4067 H 383.431 -4.19036 3.1893 0
M  V30 4068 H 385.922 -2.74547 2.59677 0
M  V30 4069 H 386.235 -5.16638 5.74722 0
M  V30 4070 H 384.58 -4.65143 5.16398 0
M  V30 4071 H 387.771 -3.34234 3.27727 0
M  V30 4072 H 387.944 -4.44646 4.71375 0
M  V30 4073 N 381.35 -0.985608 -1.22978 0
M  V30 4074 C 382.596 -0.65836 -1.91816 0
M  V30 4075 C 382.929 0.806692 -1.76653 0
M  V30 4076 O 382.204 1.58252 -1.13078 0
M  V30 4077 C 382.487 -1.056 -3.44268 0
M  V30 4078 C 382.34 -2.57906 -3.68516 0
M  V30 4079 C 383.659 -0.603781 -4.35939 0
M  V30 4080 H 380.778 -0.24065 -0.696604 0
M  V30 4081 H 383.42 -1.22783 -1.44998 0
M  V30 4082 H 381.57 -0.571445 -3.84274 0
M  V30 4083 H 383.242 -3.13976 -3.3796 0
M  V30 4084 H 381.485 -3.00305 -3.13048 0
M  V30 4085 H 382.156 -2.80779 -4.75255 0
M  V30 4086 H 384.632 -1.01987 -4.03408 0
M  V30 4087 H 383.508 -0.910383 -5.41298 0
M  V30 4088 H 383.769 0.495761 -4.39312 0
M  V30 4089 N 382.828 1.3818 -0.7579 0
M  V30 4090 C 383.791 2.28764 -0.141286 0
M  V30 4091 C 384.791 1.47388 0.642907 0
M  V30 4092 O 385.981 1.67781 0.468536 0
M  V30 4093 C 383.113 3.31184 0.808069 0
M  V30 4094 H 384.306 2.848 -0.939633 0
M  V30 4095 H 381.859 1.47212 -0.525191 0
M  V30 4096 H 382.594 2.80247 1.63193 0
M  V30 4097 H 382.379 3.91314 0.248104 0
M  V30 4098 H 383.869 3.98909 1.23536 0
M  V30 4099 N 384.306 0.507319 1.49211 0
M  V30 4100 C 385.717 0.0611118 1.866 0
M  V30 4101 C 386.068 -1.35488 1.41907 0
M  V30 4102 O 385.193 -2.0108 0.799726 0
M  V30 4103 C 385.788 0.104125 3.3864 0
M  V30 4104 C 384.347 -0.28677 3.75306 0
M  V30 4105 C 383.494 0.473893 2.73221 0
M  V30 4106 H 386.445 0.719775 1.41439 0
M  V30 4107 H 386.466 -0.689672 3.74198 0
M  V30 4108 H 385.978 1.13482 3.71138 0
M  V30 4109 H 384.079 -1.32046 3.48417 0
M  V30 4110 H 384.192 0.0370745 4.79086 0
M  V30 4111 H 382.556 -0.0770644 2.54583 0
M  V30 4112 H 383.339 1.50478 3.08563 0
M  V30 4113 N 385.784 -1.5574 0.241426 0
M  V30 4114 C 387.03 -1.99104 -0.385406 0
M  V30 4115 C 387.363 -1.1293 -1.57988 0
M  V30 4116 O 386.638 -0.191449 -1.93555 0
M  V30 4117 C 386.921 -3.51087 -0.800616 0
M  V30 4118 C 386.774 -4.48028 0.398874 0
M  V30 4119 C 388.093 -4.08015 -1.64959 0
M  V30 4120 H 385.212 -0.723848 -0.138614 0
M  V30 4121 H 387.854 -1.86903 0.341642 0
M  V30 4122 H 386.004 -3.61615 -1.4201 0
M  V30 4123 H 387.676 -4.49487 1.03726 0
M  V30 4124 H 385.919 -4.21077 1.04293 0
M  V30 4125 H 386.59 -5.51962 0.0651056 0
M  V30 4126 H 389.066 -4.00555 -1.12672 0
M  V30 4127 H 387.942 -5.14635 -1.90898 0
M  V30 4128 H 388.203 -3.56131 -2.61961 0
M  V30 4129 N 387.262 0.0317525 -1.57568 0
M  V30 4130 C 388.192 1.03274 -2.0942 0
M  V30 4131 C 389.173 1.3788 -0.996143 0
M  V30 4132 O 390.358 1.46811 -1.27122 0
M  V30 4133 C 387.488 2.33448 -2.57137 0
M  V30 4134 C 386.442 2.13091 -3.71182 0
M  V30 4135 C 385.768 3.49001 -4.05095 0
M  V30 4136 C 387.068 1.51928 -4.99715 0
M  V30 4137 H 388.762 0.60112 -2.93303 0
M  V30 4138 H 386.308 0.287705 -1.41097 0
M  V30 4139 H 388.261 3.03802 -2.92032 0
M  V30 4140 H 386.985 2.78665 -1.70333 0
M  V30 4141 H 385.644 1.45171 -3.36632 0
M  V30 4142 H 385.292 3.91862 -3.15362 0
M  V30 4143 H 384.992 3.36207 -4.81911 0
M  V30 4144 H 386.516 4.20721 -4.42522 0
M  V30 4145 H 387.93 2.12196 -5.32584 0
M  V30 4146 H 386.327 1.49716 -5.81124 0
M  V30 4147 H 387.397 0.484811 -4.8247 0
M  V30 4148 N 388.74 1.54641 0.303973 0
M  V30 4149 C 389.989 1.7299 1.03717 0
M  V30 4150 C 390.302 0.521168 1.88529 0
M  V30 4151 O 391.508 0.586408 2.65092 0
M  V30 4152 C 389.964 3.06051 1.89369 0
M  V30 4153 C 389.572 4.34393 1.09574 0
M  V30 4154 C 391.316 3.3376 2.62306 0
M  V30 4155 C 389.223 5.58506 1.94486 0
M  V30 4156 H 388.153 0.64473 0.390947 0
M  V30 4157 H 390.804 1.81124 0.294328 0
M  V30 4158 H 389.186 2.91874 2.67629 0
M  V30 4159 H 390.36 4.59396 0.359485 0
M  V30 4160 H 388.675 4.13597 0.482324 0
M  V30 4161 H 391.272 4.23687 3.26181 0
M  V30 4162 H 391.615 2.52503 3.3098 0
M  V30 4163 H 392.148 3.48894 1.91097 0
M  V30 4164 H 388.887 6.42422 1.30287 0
M  V30 4165 H 388.407 5.37694 2.65792 0
M  V30 4166 H 390.086 5.95651 2.52605 0
M  V30 4167 N 390.218 -0.567019 1.47046 0
M  V30 4168 C 391.634 -0.891975 1.32348 0
M  V30 4169 C 391.834 -1.99154 0.306616 0
M  V30 4170 O 390.89 -2.50883 -0.28532 0
M  V30 4171 C 392.203 -1.29449 2.7141 0
M  V30 4172 C 393.751 -1.40646 2.79621 0
M  V30 4173 C 394.226 -1.84257 4.19301 0
M  V30 4174 N 395.717 -1.91424 4.21795 0
M  V30 4175 C 396.452 -2.26476 5.26779 0
M  V30 4176 N 395.948 -2.60211 6.42077 0
M  V30 4177 N 397.741 -2.27166 5.14152 0
M  V30 4178 H 389.892 0.159074 2.11803 0
M  V30 4179 H 392.155 0.00849752 0.947962 0
M  V30 4180 H 391.861 -0.560448 3.47206 0
M  V30 4181 H 391.735 -2.25273 3.02542 0
M  V30 4182 H 394.122 -2.13133 2.04104 0
M  V30 4183 H 394.203 -0.430339 2.52154 0
M  V30 4184 H 393.847 -1.12343 4.95319 0
M  V30 4185 H 393.777 -2.82855 4.44185 0
M  V30 4186 H 396.268 -1.6778 3.38612 0
M  V30 4187 H 396.581 -2.85956 7.17948 0
M  V30 4188 H 394.926 -2.57813 6.45413 0
M  V30 4189 H 398.117 -2.00244 4.23107 0
M  V30 4190 H 398.29 -2.54154 5.96079 0
M  V30 4191 N 391.696 -1.35014 -0.812953 0
M  V30 4192 C 392.606 -1.2951 -1.95613 0
M  V30 4193 C 393.622 -0.20107 -1.72834 0
M  V30 4194 O 394.798 -0.42932 -1.96771 0
M  V30 4195 C 391.863 -1.06033 -3.30088 0
M  V30 4196 C 390.924 -2.24688 -3.65805 0
M  V30 4197 C 390.157 -2.02322 -4.93864 0
M  V30 4198 O 390.38 -0.986464 -5.61805 0
M  V30 4199 O 389.314 -2.89525 -5.27692 0
M  V30 4200 H 393.14 -2.25705 -2.03202 0
M  V30 4201 H 390.725 -1.15321 -0.949811 0
M  V30 4202 H 392.607 -0.94763 -4.10607 0
M  V30 4203 H 391.282 -0.128852 -3.23443 0
M  V30 4204 H 390.189 -2.41521 -2.85689 0
M  V30 4205 H 391.522 -3.16261 -3.77147 0
M  V30 4206 N 393.175 1.03435 -1.18907 0
M  V30 4207 C 394.424 1.76143 -0.982669 0
M  V30 4208 C 394.737 1.89416 0.487953 0
M  V30 4209 O 395.943 2.59041 0.813036 0
M  V30 4210 C 394.399 3.16722 -1.70924 0
M  V30 4211 C 394.007 3.11522 -3.21959 0
M  V30 4212 C 395.751 3.93764 -1.58588 0
M  V30 4213 C 393.658 4.46999 -3.87228 0
M  V30 4214 H 392.588 0.660292 -0.364047 0
M  V30 4215 H 395.239 1.158 -1.42347 0
M  V30 4216 H 393.621 3.775 -1.19623 0
M  V30 4217 H 394.795 2.60158 -3.80335 0
M  V30 4218 H 393.11 2.47978 -3.34508 0
M  V30 4219 H 395.707 4.93963 -2.04707 0
M  V30 4220 H 396.05 4.12794 -0.539142 0
M  V30 4221 H 396.583 3.39576 -2.07203 0
M  V30 4222 H 393.322 4.33174 -4.91976 0
M  V30 4223 H 392.842 4.98441 -3.33642 0
M  V30 4224 H 394.521 5.15898 -3.90459 0
M  V30 4225 N 394.653 0.992116 1.22453 0
M  V30 4226 C 395.881 0.685944 1.95198 0
M  V30 4227 C 396.296 -0.749233 1.73297 0
M  V30 4228 O 395.653 -1.50549 1.03156 0
M  V30 4229 C 395.704 0.981395 3.47924 0
M  V30 4230 O 395.425 2.36018 3.6909 0
M  V30 4231 C 396.926 0.692815 4.37853 0
M  V30 4232 H 394.146 0.253821 0.621141 0
M  V30 4233 H 396.69 1.32668 1.55626 0
M  V30 4234 H 394.845 0.386481 3.85467 0
M  V30 4235 H 395.259 2.45884 4.63294 0
M  V30 4236 H 396.733 0.949818 5.43767 0
M  V30 4237 H 397.21 -0.373181 4.37612 0
M  V30 4238 H 397.816 1.26874 4.05935 0
M  V30 4239 N 396.131 -1.37776 0.765217 0
M  V30 4240 C 397.547 -1.53297 0.444108 0
M  V30 4241 C 397.747 -1.72515 -1.04119 0
M  V30 4242 O 396.803 -1.74278 -1.82711 0
M  V30 4243 C 398.116 -2.73328 1.25349 0
M  V30 4244 C 399.664 -2.87185 1.24473 0
M  V30 4245 C 400.139 -4.10191 2.03733 0
M  V30 4246 N 401.63 -4.17291 2.01053 0
M  V30 4247 C 402.365 -5.11488 2.59166 0
M  V30 4248 N 401.861 -6.11285 3.26041 0
M  V30 4249 N 403.654 -5.03924 2.49032 0
M  V30 4250 H 395.805 -1.23552 1.72768 0
M  V30 4251 H 398.068 -0.601103 0.733062 0
M  V30 4252 H 397.774 -2.6557 2.30577 0
M  V30 4253 H 397.648 -3.66834 0.87823 0
M  V30 4254 H 400.035 -2.94418 0.20047 0
M  V30 4255 H 400.116 -1.94657 1.65959 0
M  V30 4256 H 399.76 -4.0372 3.08176 0
M  V30 4257 H 399.69 -5.01821 1.59633 0
M  V30 4258 H 402.181 -3.45825 1.5236 0
M  V30 4259 H 402.494 -6.79678 3.67774 0
M  V30 4260 H 400.839 -6.11583 3.30138 0
M  V30 4261 H 404.03 -4.24902 1.96407 0
M  V30 4262 H 404.203 -5.77152 2.94617 0
M  V30 4263 N 397.609 -0.515225 -1.4894 0
M  V30 4264 C 399.025 -0.172099 -1.58669 0
M  V30 4265 C 399.225 1.32405 -1.51892 0
M  V30 4266 O 398.281 2.10116 -1.40027 0
M  V30 4267 C 399.594 -0.761533 -2.90897 0
M  V30 4268 C 401.142 -0.728926 -3.04394 0
M  V30 4269 C 401.617 -1.29667 -4.39261 0
M  V30 4270 N 403.108 -1.25799 -4.4579 0
M  V30 4271 C 403.843 -1.66733 -5.48623 0
M  V30 4272 N 403.339 -2.15327 -6.58488 0
M  V30 4273 N 405.132 -1.58061 -5.39419 0
M  V30 4274 H 397.283 -1.48778 -1.51588 0
M  V30 4275 H 399.546 -0.617968 -0.718901 0
M  V30 4276 H 399.252 -1.81136 -3.01468 0
M  V30 4277 H 399.126 -0.230106 -3.76497 0
M  V30 4278 H 401.513 0.312098 -2.93445 0
M  V30 4279 H 401.594 -1.29766 -2.20442 0
M  V30 4280 H 401.238 -2.33655 -4.50963 0
M  V30 4281 H 401.168 -0.703752 -5.21876 0
M  V30 4282 H 403.659 -0.902102 -3.66975 0
M  V30 4283 H 403.972 -2.44594 -7.33071 0
M  V30 4284 H 402.317 -2.19311 -6.59491 0
M  V30 4285 H 405.508 -1.19906 -4.52482 0
M  V30 4286 H 405.681 -1.90284 -6.19432 0
M  V30 4287 N 399.087 1.5561 -0.249682 0
M  V30 4288 C 400.333 1.99306 0.374841 0
M  V30 4289 C 400.666 1.13767 1.57387 0
M  V30 4290 O 399.941 0.201711 1.93451 0
M  V30 4291 C 400.224 3.51507 0.781986 0
M  V30 4292 C 400.077 4.4781 -0.422629 0
M  V30 4293 C 401.396 4.08884 1.62793 0
M  V30 4294 H 398.515 0.724572 0.134773 0
M  V30 4295 H 401.157 1.86719 -0.351549 0
M  V30 4296 H 399.307 3.62363 1.4009 0
M  V30 4297 H 400.979 4.48931 -1.06108 0
M  V30 4298 H 399.222 4.20518 -1.06524 0
M  V30 4299 H 399.893 5.51919 -0.0943766 0
M  V30 4300 H 402.369 4.01147 1.10547 0
M  V30 4301 H 401.245 5.1564 1.88166 0
M  V30 4302 H 401.506 3.57515 2.60068 0
M  V30 4303 N 400.565 -0.0233959 1.57583 0
M  V30 4304 C 401.515 -1.03023 2.03397 0
M  V30 4305 C 402.499 -1.31701 0.924315 0
M  V30 4306 O 403.691 -1.31191 1.18819 0
M  V30 4307 C 400.82 -2.32961 2.52159 0
M  V30 4308 C 399.906 -2.07349 3.69956 0
M  V30 4309 N 400.297 -1.51814 4.82479 0
M  V30 4310 C 398.595 -2.37606 3.77438 0
M  V30 4311 C 399.296 -1.42136 5.64068 0
M  V30 4312 N 398.272 -1.89891 5.09355 0
M  V30 4313 H 402.074 -0.594962 2.87815 0
M  V30 4314 H 399.588 -0.229586 1.60769 0
M  V30 4315 H 401.585 -3.05906 2.83244 0
M  V30 4316 H 400.245 -2.77162 1.69149 0
M  V30 4317 H 401.256 -1.20008 5.03804 0
M  V30 4318 H 397.933 -2.84842 3.05239 0
M  V30 4319 H 399.323 -0.996405 6.64471 0
M  V30 4320 N 402.043 -1.548 -0.295768 0
M  V30 4321 C 402.973 -1.89115 -1.36959 0
M  V30 4322 C 403.954 -0.75059 -1.52644 0
M  V30 4323 O 405.139 -1.00678 -1.66065 0
M  V30 4324 C 402.269 -2.14307 -2.73295 0
M  V30 4325 C 401.223 -3.30151 -2.72368 0
M  V30 4326 C 400.549 -3.40772 -4.12042 0
M  V30 4327 C 401.849 -4.67126 -2.33646 0
M  V30 4328 H 403.543 -2.79053 -1.08488 0
M  V30 4329 H 401.089 -1.34266 -0.520443 0
M  V30 4330 H 403.042 -2.36898 -3.48507 0
M  V30 4331 H 401.766 -1.21145 -3.03301 0
M  V30 4332 H 400.425 -3.0749 -1.99613 0
M  V30 4333 H 400.073 -2.45117 -4.39234 0
M  V30 4334 H 399.773 -4.18645 -4.12322 0
M  V30 4335 H 401.297 -3.6563 -4.89027 0
M  V30 4336 H 402.711 -4.89414 -2.98575 0
M  V30 4337 H 401.108 -5.47751 -2.45129 0
M  V30 4338 H 402.178 -4.67489 -1.28772 0
M  V30 4339 N 403.521 0.559213 -1.47345 0
M  V30 4340 C 404.431 1.69388 -1.62311 0
M  V30 4341 C 405.447 1.6648 -0.505993 0
M  V30 4342 O 406.623 1.85964 -0.773262 0
M  V30 4343 C 403.688 3.05894 -1.63185 0
M  V30 4344 C 402.749 3.19885 -2.86307 0
M  V30 4345 C 401.982 4.49879 -2.87131 0
M  V30 4346 O 402.205 5.35217 -1.97229 0
M  V30 4347 O 401.139 4.67618 -3.78968 0
M  V30 4348 H 404.965 1.59706 -2.58317 0
M  V30 4349 H 402.55 0.728989 -1.30407 0
M  V30 4350 H 404.432 3.87133 -1.66451 0
M  V30 4351 H 403.107 3.15964 -0.70345 0
M  V30 4352 H 402.014 2.38052 -2.88587 0
M  V30 4353 H 403.347 3.14718 -3.78435 0
M  V30 4354 N 404.999 1.35443 0.805782 0
M  V30 4355 C 406.247 1.28507 1.55982 0
M  V30 4356 C 406.568 -0.140046 1.94496 0
M  V30 4357 O 405.838 -1.07666 1.63661 0
M  V30 4358 H 404.418 0.472676 0.578434 0
M  V30 4359 H 407.08 1.69555 0.961098 0
M  V30 4360 H 406.176 1.90148 2.47488 0
M  V30 4361 N 406.477 -1.02803 1.19454 0
M  V30 4362 C 407.726 -1.7562 0.991996 0
M  V30 4363 C 408.039 -1.89672 -0.477901 0
M  V30 4364 O 409.245 -2.59468 -0.799287 0
M  V30 4365 C 407.701 -3.15812 1.72601 0
M  V30 4366 C 407.309 -3.0981 3.23607 0
M  V30 4367 C 409.053 -3.92918 1.60674 0
M  V30 4368 C 406.96 -4.44939 3.89594 0
M  V30 4369 H 405.89 -0.658352 0.367543 0
M  V30 4370 H 408.541 -1.15044 1.42959 0
M  V30 4371 H 406.923 -3.7686 1.21624 0
M  V30 4372 H 408.097 -2.58138 3.81709 0
M  V30 4373 H 406.412 -2.46201 3.35819 0
M  V30 4374 H 409.009 -4.9287 2.07323 0
M  V30 4375 H 409.352 -4.12502 0.561025 0
M  V30 4376 H 409.885 -3.38472 2.09001 0
M  V30 4377 H 406.624 -4.30559 4.94267 0
M  V30 4378 H 406.144 -4.96664 3.36281 0
M  V30 4379 H 407.823 -5.1382 3.93189 0
M  V30 4380 N 407.956 -0.998596 -1.21925 0
M  V30 4381 C 409.203 -0.677663 -1.90824 0
M  V30 4382 C 409.531 0.790905 -1.77693 0
M  V30 4383 O 408.786 1.58817 -1.14349 0
M  V30 4384 C 409.085 -1.03648 -3.42041 0
M  V30 4385 C 408.751 -2.49825 -3.75364 0
M  V30 4386 C 407.413 -2.8977 -3.8417 0
M  V30 4387 C 409.765 -3.44545 -3.91073 0
M  V30 4388 C 407.093 -4.23412 -4.06127 0
M  V30 4389 C 409.445 -4.77853 -4.14535 0
M  V30 4390 C 408.109 -5.17531 -4.21566 0
M  V30 4391 H 407.379 -0.247975 -0.698276 0
M  V30 4392 H 410.026 -1.25584 -1.44571 0
M  V30 4393 H 408.331 -0.376457 -3.89987 0
M  V30 4394 H 410.028 -0.766113 -3.93614 0
M  V30 4395 H 406.618 -2.17866 -3.69097 0
M  V30 4396 H 410.802 -3.14853 -3.83642 0
M  V30 4397 H 406.058 -4.53734 -4.09799 0
M  V30 4398 H 410.232 -5.51189 -4.25633 0
M  V30 4399 H 407.859 -6.21102 -4.38333 0
M  V30 4400 N 409.434 1.37368 -0.772513 0
M  V30 4401 C 410.366 2.28899 -0.117502 0
M  V30 4402 C 411.379 1.4867 0.663405 0
M  V30 4403 O 412.568 1.71314 0.501372 0
M  V30 4404 C 409.668 3.2788 0.857192 0
M  V30 4405 C 408.841 4.37207 0.129938 0
M  V30 4406 C 407.9 5.16257 1.01811 0
M  V30 4407 O 406.926 5.67159 0.481601 0
M  V30 4408 N 408.128 5.31058 2.3443 0
M  V30 4409 H 410.893 2.85752 -0.903662 0
M  V30 4410 H 408.454 1.49353 -0.62493 0
M  V30 4411 H 410.446 3.77647 1.45482 0
M  V30 4412 H 409.016 2.7179 1.54432 0
M  V30 4413 H 408.236 3.88827 -0.648605 0
M  V30 4414 H 409.524 5.07434 -0.372559 0
M  V30 4415 H 408.922 4.91287 2.80452 0
M  V30 4416 H 407.479 5.84131 2.89197 0
M  V30 4417 N 410.912 0.523116 1.48665 0
M  V30 4418 C 411.875 -0.232592 2.28017 0
M  V30 4419 C 412.875 -0.874021 1.34972 0
M  V30 4420 O 414.065 -0.735132 1.57929 0
M  V30 4421 C 411.197 -1.33586 3.13636 0
M  V30 4422 H 412.39 0.464008 2.96289 0
M  V30 4423 H 409.943 0.278816 1.53793 0
M  V30 4424 H 410.678 -2.06593 2.4998 0
M  V30 4425 H 410.463 -0.881125 3.82071 0
M  V30 4426 H 411.953 -1.86759 3.73511 0
M  V30 4427 N 412.39 -1.55475 0.257931 0
M  V30 4428 C 413.636 -1.99502 -0.364266 0
M  V30 4429 C 413.969 -1.146 -1.56782 0
M  V30 4430 O 413.244 -0.211968 -1.93342 0
M  V30 4431 C 413.527 -3.51917 -0.763333 0
M  V30 4432 C 413.38 -4.4758 0.446371 0
M  V30 4433 C 414.699 -4.09742 -1.60623 0
M  V30 4434 H 411.818 -0.725277 -0.130929 0
M  V30 4435 H 414.46 -1.8653 0.361446 0
M  V30 4436 H 412.61 -3.63101 -1.38166 0
M  V30 4437 H 414.282 -4.48362 1.08487 0
M  V30 4438 H 412.525 -4.19947 1.08753 0
M  V30 4439 H 413.196 -5.51862 0.123645 0
M  V30 4440 H 415.672 -4.01727 -1.08418 0
M  V30 4441 H 414.548 -5.16631 -1.85429 0
M  V30 4442 H 414.809 -3.58889 -2.58169 0
M  V30 4443 N 413.868 0.0150385 -1.57593 0
M  V30 4444 C 415.098 0.713359 -1.93894 0
M  V30 4445 C 415.506 1.68663 -0.857289 0
M  V30 4446 O 414.849 1.82876 0.173788 0
M  V30 4447 C 414.911 1.51348 -3.26089 0
M  V30 4448 C 414.575 0.703451 -4.51554 0
M  V30 4449 C 415.572 -0.00237924 -5.199 0
M  V30 4450 C 413.257 0.653854 -4.98026 0
M  V30 4451 C 415.251 -0.746955 -6.33008 0
M  V30 4452 C 412.938 -0.0944578 -6.11027 0
M  V30 4453 C 413.936 -0.793609 -6.78374 0
M  V30 4454 O 413.624 -1.52974 -7.89211 0
M  V30 4455 H 413.356 0.204637 -0.644282 0
M  V30 4456 H 415.91 -0.0276411 -2.05381 0
M  V30 4457 H 414.14 2.29862 -3.10967 0
M  V30 4458 H 415.829 2.09572 -3.47612 0
M  V30 4459 H 416.595 0.0268803 -4.84993 0
M  V30 4460 H 412.474 1.18756 -4.45441 0
M  V30 4461 H 416.018 -1.2932 -6.85509 0
M  V30 4462 H 411.915 -0.125591 -6.45378 0
M  V30 4463 H 412.683 -1.44488 -8.05646 0
M  V30 4464 N 415.346 1.54954 0.287554 0
M  V30 4465 C 416.574 1.78881 1.03967 0
M  V30 4466 C 416.989 0.554894 1.80462 0
M  V30 4467 O 416.346 -0.475676 1.76192 0
M  V30 4468 C 416.397 3.00488 2.0097 0
M  V30 4469 O 416.118 4.19113 1.27577 0
M  V30 4470 C 417.619 3.36907 2.88112 0
M  V30 4471 H 414.839 0.596259 0.307761 0
M  V30 4472 H 417.383 2.01937 0.322749 0
M  V30 4473 H 415.538 2.79601 2.68145 0
M  V30 4474 H 415.952 4.87765 1.92835 0
M  V30 4475 H 417.426 4.25205 3.52001 0
M  V30 4476 H 417.903 2.55659 3.57121 0
M  V30 4477 H 418.509 3.60001 2.26449 0
M  V30 4478 N 416.824 -0.551391 1.4764 0
M  V30 4479 C 417.787 -1.64007 1.60107 0
M  V30 4480 C 418.787 -1.53601 0.47576 0
M  V30 4481 O 419.977 -1.57655 0.740988 0
M  V30 4482 C 417.109 -3.03569 1.55108 0
M  V30 4483 H 418.302 -1.543 2.57161 0
M  V30 4484 H 415.855 -0.771776 1.35917 0
M  V30 4485 H 416.59 -3.18804 0.594519 0
M  V30 4486 H 416.375 -3.12532 2.36783 0
M  V30 4487 H 417.865 -3.82762 1.66982 0
M  V30 4488 N 418.302 -1.35869 -0.798587 0
M  V30 4489 C 419.55 -1.29332 -1.55298 0
M  V30 4490 C 419.871 0.129729 -1.94568 0
M  V30 4491 O 419.141 1.06796 -1.6423 0
M  V30 4492 H 417.721 -0.475737 -0.57592 0
M  V30 4493 H 420.383 -1.70062 -0.952093 0
M  V30 4494 H 419.479 -1.91458 -2.46476 0
M  V30 4495 N 419.78 1.02168 -1.19998 0
M  V30 4496 C 421.026 1.75945 -1.00852 0
M  V30 4497 C 421.359 1.88702 0.458828 0
M  V30 4498 O 420.634 1.40911 1.34069 0
M  V30 4499 C 420.917 3.18154 -1.68671 0
M  V30 4500 C 420.77 3.13224 -3.22817 0
M  V30 4501 C 422.089 4.16711 -1.41561 0
M  V30 4502 H 419.208 0.638673 -0.367785 0
M  V30 4503 H 421.85 1.19222 -1.4794 0
M  V30 4504 H 420 3.66586 -1.28636 0
M  V30 4505 H 421.672 2.72635 -3.72112 0
M  V30 4506 H 419.915 2.50751 -3.53986 0
M  V30 4507 H 420.586 4.13728 -3.65422 0
M  V30 4508 H 423.062 3.76913 -1.76284 0
M  V30 4509 H 421.938 5.14391 -1.91553 0
M  V30 4510 H 422.199 4.40774 -0.342193 0
M  V30 4511 N 421.258 1.00505 1.21394 0
M  V30 4512 C 422.504 0.688793 1.90745 0
M  V30 4513 C 422.837 -0.778486 1.77914 0
M  V30 4514 O 422.112 -1.56433 1.15581 0
M  V30 4515 C 422.395 1.11063 3.42545 0
M  V30 4516 C 422.248 2.63737 3.64367 0
M  V30 4517 C 423.567 0.673059 4.34923 0
M  V30 4518 H 420.686 0.251702 0.692687 0
M  V30 4519 H 423.328 1.25074 1.43026 0
M  V30 4520 H 421.478 0.632508 3.83317 0
M  V30 4521 H 423.15 3.19313 3.32922 0
M  V30 4522 H 421.393 3.05248 3.08231 0
M  V30 4523 H 422.064 2.88305 4.70727 0
M  V30 4524 H 424.54 1.08392 4.01734 0
M  V30 4525 H 423.416 0.996383 5.39781 0
M  V30 4526 H 423.677 -0.425808 4.40045 0
M  V30 4527 N 422.737 -1.36956 0.779787 0
M  V30 4528 C 423.667 -2.32761 0.185651 0
M  V30 4529 C 424.648 -1.56177 -0.673989 0
M  V30 4530 O 425.833 -1.84378 -0.609797 0
M  V30 4531 C 422.963 -3.40418 -0.687964 0
M  V30 4532 C 421.917 -4.27941 0.0710102 0
M  V30 4533 C 421.243 -5.26681 -0.922573 0
M  V30 4534 C 422.543 -5.07006 1.25467 0
M  V30 4535 H 424.237 -2.82698 0.986008 0
M  V30 4536 H 421.783 -1.3592 0.475592 0
M  V30 4537 H 423.736 -4.06423 -1.11348 0
M  V30 4538 H 422.46 -2.89025 -1.52093 0
M  V30 4539 H 421.119 -3.63478 0.47739 0
M  V30 4540 H 420.767 -4.71565 -1.7503 0
M  V30 4541 H 420.467 -5.86103 -0.419237 0
M  V30 4542 H 421.991 -5.9556 -1.34686 0
M  V30 4543 H 423.405 -5.66105 0.905401 0
M  V30 4544 H 421.802 -5.75793 1.69063 0
M  V30 4545 H 422.872 -4.3921 2.05481 0
M  V30 4546 N 424.215 -0.530993 -1.48385 0
M  V30 4547 C 425.626 -0.0907905 -1.86479 0
M  V30 4548 C 425.977 1.33213 -1.44044 0
M  V30 4549 O 425.102 1.99783 -0.831615 0
M  V30 4550 C 425.697 -0.157987 -3.38431 0
M  V30 4551 C 424.256 0.227026 -3.75715 0
M  V30 4552 C 423.403 -0.5173 -2.72432 0
M  V30 4553 H 426.354 -0.742186 -1.40276 0
M  V30 4554 H 426.375 0.630053 -3.75247 0
M  V30 4555 H 425.887 -1.19372 -3.69286 0
M  V30 4556 H 423.988 1.26486 -3.50474 0
M  V30 4557 H 424.101 -0.113288 -4.78966 0
M  V30 4558 H 422.465 0.0365527 -2.54674 0
M  V30 4559 H 423.248 -1.55368 -3.0613 0
M  V30 4560 N 425.693 1.55336 -0.266172 0
M  V30 4561 C 426.64 2.22172 0.625165 0
M  V30 4562 C 427.61 1.19211 1.15663 0
M  V30 4563 O 428.795 1.47723 1.20758 0
M  V30 4564 C 425.935 2.93972 1.8076 0
M  V30 4565 C 425.048 4.11632 1.31084 0
M  V30 4566 C 424.183 4.71099 2.45436 0
M  V30 4567 C 423.222 5.8097 1.92718 0
M  V30 4568 N 422.359 6.34538 3.00509 0
M  V30 4569 H 427.199 2.9796 0.0485582 0
M  V30 4570 H 424.736 1.47095 0.0122024 0
M  V30 4571 H 426.694 3.33811 2.50251 0
M  V30 4572 H 425.324 2.20623 2.35638 0
M  V30 4573 H 424.376 3.76975 0.509326 0
M  V30 4574 H 425.688 4.90893 0.884633 0
M  V30 4575 H 424.842 5.13612 3.22936 0
M  V30 4576 H 423.581 3.91096 2.91368 0
M  V30 4577 H 422.586 5.37916 1.13695 0
M  V30 4578 H 423.811 6.62836 1.47733 0
M  V30 4579 H 421.757 5.57433 3.45839 0
M  V30 4580 H 421.674 7.09046 2.62279 0
M  V30 4581 H 422.942 6.81709 3.78011 0
M  V30 4582 N 427.171 -0.0066808 1.57599 0
M  V30 4583 C 428.582 -0.550379 1.78403 0
M  V30 4584 C 428.933 -1.74339 0.900014 0
M  V30 4585 O 428.058 -2.16166 0.100713 0
M  V30 4586 C 428.653 -1.00523 3.23544 0
M  V30 4587 C 427.212 -1.49428 3.45468 0
M  V30 4588 C 426.359 -0.442444 2.73748 0
M  V30 4589 H 429.31 0.219508 1.57175 0
M  V30 4590 H 429.331 -1.87157 3.31289 0
M  V30 4591 H 428.843 -0.136735 3.87859 0
M  V30 4592 H 426.944 -2.3839 2.86358 0
M  V30 4593 H 427.057 -1.52635 4.54136 0
M  V30 4594 H 425.421 -0.902578 2.38171 0
M  V30 4595 H 426.204 0.416973 3.40758 0
M  V30 4596 N 428.649 -1.55105 -0.279332 0
M  V30 4597 C 429.895 -1.75672 -1.01327 0
M  V30 4598 C 430.228 -0.552739 -1.86168 0
M  V30 4599 O 429.503 0.449827 -1.89227 0
M  V30 4600 C 429.786 -3.05825 -1.90114 0
M  V30 4601 C 429.639 -4.36565 -1.08309 0
M  V30 4602 C 430.958 -3.31975 -2.8893 0
M  V30 4603 H 428.077 -0.639149 -0.366957 0
M  V30 4604 H 430.719 -1.87833 -0.286154 0
M  V30 4605 H 428.869 -2.95588 -2.52111 0
M  V30 4606 H 430.541 -4.58751 -0.484314 0
M  V30 4607 H 428.784 -4.32076 -0.386362 0
M  V30 4608 H 429.455 -5.23946 -1.73737 0
M  V30 4609 H 431.931 -3.41963 -2.37067 0
M  V30 4610 H 430.807 -4.2432 -3.48201 0
M  V30 4611 H 431.068 -2.51309 -3.63725 0
M  V30 4612 N 430.127 0.543554 -1.4793 0
M  V30 4613 C 431.375 1.29752 -1.54948 0
M  V30 4614 C 431.696 1.93764 -0.219242 0
M  V30 4615 O 430.966 1.80639 0.75805 0
M  V30 4616 H 429.546 0.481874 -0.570795 0
M  V30 4617 H 432.208 0.633636 -1.84312 0
M  V30 4618 H 431.304 2.08392 -2.32334 0
M  V30 4619 N 431.605 1.3629 0.791371 0
M  V30 4620 C 432.833 1.33562 1.58016 0
M  V30 4621 C 433.248 -0.0835616 1.88615 0
M  V30 4622 O 432.605 -1.0399 1.49974 0
M  V30 4623 C 432.656 2.15517 2.90232 0
M  V30 4624 O 432.377 3.51902 2.60953 0
M  V30 4625 C 433.878 2.20546 3.84544 0
M  V30 4626 H 431.098 0.458226 0.490173 0
M  V30 4627 H 433.642 1.79361 0.982345 0
M  V30 4628 H 431.797 1.73278 3.46487 0
M  V30 4629 H 432.211 3.94644 3.4548 0
M  V30 4630 H 433.685 2.82252 4.74382 0
M  V30 4631 H 434.162 1.20838 4.2225 0
M  V30 4632 H 434.768 2.63013 3.34222 0
M  V30 4633 N 433.083 -1.0153 1.20538 0
M  V30 4634 C 434.323 -1.76689 1.02763 0
M  V30 4635 C 434.687 -1.87065 -0.432513 0
M  V30 4636 O 435.888 -2.58684 -0.730481 0
M  V30 4637 C 434.159 -3.14707 1.69393 0
M  V30 4638 S 435.718 -4.05886 1.66738 0
M  V30 4639 H 432.536 -0.608076 0.368463 0
M  V30 4640 H 435.138 -1.21558 1.53114 0
M  V30 4641 H 433.842 -3.04782 2.74838 0
M  V30 4642 H 433.373 -3.74913 1.19179 0
M  V30 4643 H 435.388 -4.91221 0.70117 0
M  V30 4644 N 434.561 -1.01147 -1.20859 0
M  V30 4645 C 435.977 -0.725422 -1.42161 0
M  V30 4646 C 436.177 0.696919 -1.89064 0
M  V30 4647 O 435.233 1.46539 -2.05627 0
M  V30 4648 C 436.546 -1.74678 -2.44761 0
M  V30 4649 C 438.094 -1.76433 -2.58535 0
M  V30 4650 C 438.569 -2.77481 -3.64374 0
M  V30 4651 N 440.06 -2.76189 -3.71852 0
M  V30 4652 C 440.795 -3.51035 -4.53389 0
M  V30 4653 N 440.291 -4.35541 -5.38773 0
M  V30 4654 N 442.084 -3.39655 -4.47873 0
M  V30 4655 H 434.235 -1.92979 -0.887282 0
M  V30 4656 H 436.498 -0.833327 -0.451962 0
M  V30 4657 H 436.204 -2.76551 -2.17285 0
M  V30 4658 H 436.078 -1.55472 -3.43669 0
M  V30 4659 H 438.465 -0.75248 -2.85345 0
M  V30 4660 H 438.546 -1.99712 -1.5984 0
M  V30 4661 H 438.19 -3.78827 -3.38308 0
M  V30 4662 H 438.12 -2.51466 -4.6268 0
M  V30 4663 H 440.611 -2.14885 -3.10858 0
M  V30 4664 H 440.924 -4.89432 -5.98061 0
M  V30 4665 H 439.269 -4.39621 -5.38292 0
M  V30 4666 H 442.46 -2.73063 -3.80203 0
M  V30 4667 H 442.633 -3.9824 -5.11184 0
M  V30 4668 N 436.039 1.36541 -0.78704 0
M  V30 4669 C 437.269 2.03266 -0.369662 0
M  V30 4670 C 437.677 1.59481 1.01796 0
M  V30 4671 O 437.02 0.778612 1.66383 0
M  V30 4672 C 437.082 3.57779 -0.351371 0
M  V30 4673 C 436.746 4.24756 -1.68617 0
M  V30 4674 C 437.743 4.47811 -2.64124 0
M  V30 4675 C 435.428 4.62277 -1.96481 0
M  V30 4676 C 437.422 5.07464 -3.85693 0
M  V30 4677 C 435.109 5.21649 -3.18317 0
M  V30 4678 C 436.107 5.44182 -4.12741 0
M  V30 4679 O 435.795 6.02307 -5.32429 0
M  V30 4680 H 435.527 0.658977 -0.150751 0
M  V30 4681 H 438.081 1.75548 -1.0664 0
M  V30 4682 H 436.311 3.84606 0.401847 0
M  V30 4683 H 438 4.05879 0.0410147 0
M  V30 4684 H 438.766 4.19221 -2.43883 0
M  V30 4685 H 434.645 4.44065 -1.23805 0
M  V30 4686 H 438.189 5.24968 -4.59407 0
M  V30 4687 H 434.086 5.49664 -3.38437 0
M  V30 4688 H 434.854 6.20775 -5.33461 0
M  V30 4689 N 437.518 0.538854 1.48102 0
M  V30 4690 C 438.764 0.0161732 2.03394 0
M  V30 4691 C 439.119 -1.31154 1.40771 0
M  V30 4692 O 438.412 -1.83613 0.547421 0
M  V30 4693 C 438.606 -0.153808 3.57069 0
M  V30 4694 C 438.435 1.15588 4.34591 0
M  V30 4695 C 437.205 1.71818 4.75191 0
M  V30 4696 C 439.403 2.06867 4.70861 0
M  V30 4697 N 437.385 2.96983 5.37284 0
M  V30 4698 C 438.756 3.16609 5.33066 0
M  V30 4699 C 440.811 2.07085 4.52791 0
M  V30 4700 C 439.514 4.26645 5.79109 0
M  V30 4701 C 441.54 3.16121 4.99821 0
M  V30 4702 C 440.902 4.24582 5.62058 0
M  V30 4703 H 437.001 0.0476346 0.780548 0
M  V30 4704 H 439.585 0.722094 1.80815 0
M  V30 4705 H 437.756 -0.828825 3.79454 0
M  V30 4706 H 439.488 -0.676896 3.98999 0
M  V30 4707 H 436.243 1.25845 4.56574 0
M  V30 4708 H 436.667 3.60732 5.72889 0
M  V30 4709 H 441.309 1.24522 4.04047 0
M  V30 4710 H 439.027 5.0998 6.26854 0
M  V30 4711 H 442.613 3.17355 4.87624 0
M  V30 4712 H 441.493 5.07562 5.97788 0
M  V30 4713 N 438.996 -1.55193 0.274407 0
M  V30 4714 C 439.946 -2.19184 -0.627882 0
M  V30 4715 C 440.93 -1.15625 -1.11892 0
M  V30 4716 O 442.122 -1.41441 -1.06411 0
M  V30 4717 C 439.251 -2.91591 -1.81189 0
M  V30 4718 C 438.337 -4.02438 -1.33807 0
M  V30 4719 N 438.728 -5.0246 -0.580349 0
M  V30 4720 C 437.026 -4.15496 -1.62109 0
M  V30 4721 C 437.727 -5.80756 -0.331344 0
M  V30 4722 N 436.703 -5.36038 -0.903556 0
M  V30 4723 H 440.505 -2.93871 -0.0411216 0
M  V30 4724 H 438.019 -1.62213 0.0779348 0
M  V30 4725 H 440.016 -3.35883 -2.46957 0
M  V30 4726 H 438.676 -2.18414 -2.40261 0
M  V30 4727 H 439.687 -5.17399 -0.227762 0
M  V30 4728 H 436.364 -3.53509 -2.22121 0
M  V30 4729 H 437.754 -6.71335 0.275454 0
M  V30 4730 N 440.474 -0.00167713 -1.576 0
M  V30 4731 C 441.89 0.354422 -1.55615 0
M  V30 4732 C 442.09 1.74679 -1.00447 0
M  V30 4733 O 441.146 2.4428 -0.639022 0
M  V30 4734 C 442.459 0.22812 -2.99833 0
M  V30 4735 C 444.007 0.302934 -3.11531 0
M  V30 4736 C 444.482 0.205737 -4.57538 0
M  V30 4737 N 445.973 0.263584 -4.62449 0
M  V30 4738 C 446.708 0.211742 -5.73009 0
M  V30 4739 N 446.204 0.110399 -6.92712 0
M  V30 4740 N 447.997 0.263729 -5.61481 0
M  V30 4741 H 440.148 -0.912498 -1.918 0
M  V30 4742 H 442.411 -0.349928 -0.881053 0
M  V30 4743 H 442.117 -0.729934 -3.44042 0
M  V30 4744 H 441.991 1.00951 -3.6344 0
M  V30 4745 H 444.378 1.25143 -2.67251 0
M  V30 4746 H 444.459 -0.508357 -2.50698 0
M  V30 4747 H 444.103 -0.739225 -5.02492 0
M  V30 4748 H 444.033 1.03554 -5.16318 0
M  V30 4749 H 446.524 0.343173 -3.76339 0
M  V30 4750 H 446.837 0.0767828 -7.72762 0
M  V30 4751 H 445.182 0.0760025 -6.94958 0
M  V30 4752 H 448.373 0.34111 -4.66855 0
M  V30 4753 H 448.546 0.219862 -6.47627 0
M  V30 4754 N 441.952 1.55251 0.271103 0
M  V30 4755 C 443.177 1.80306 1.02491 0
M  V30 4756 C 443.602 0.575457 1.79081 0
M  V30 4757 O 442.96 -0.474987 1.74967 0
M  V30 4758 C 443.008 3.02832 1.95768 0
M  V30 4759 O 442.112 2.78051 3.04568 0
M  V30 4760 H 441.453 0.595896 0.292923 0
M  V30 4761 H 443.983 2.02397 0.299436 0
M  V30 4762 H 443.993 3.31616 2.37686 0
M  V30 4763 H 442.668 3.9183 1.39434 0
M  V30 4764 H 441.245 2.60369 2.66951 0
M  V30 4765 N 443.43 -0.535701 1.48216 0
M  V30 4766 C 444.36 -1.65014 1.65204 0
M  V30 4767 C 445.341 -1.62554 0.501011 0
M  V30 4768 O 446.526 -1.7984 0.732886 0
M  V30 4769 C 443.656 -3.03616 1.68626 0
M  V30 4770 C 442.61 -3.20932 2.83172 0
M  V30 4771 C 441.936 -4.60537 2.71679 0
M  V30 4772 C 443.236 -3.04249 4.24535 0
M  V30 4773 H 444.93 -1.51053 2.58502 0
M  V30 4774 H 442.476 -0.725262 1.24402 0
M  V30 4775 H 444.429 -3.81446 1.79099 0
M  V30 4776 H 443.153 -3.18587 0.719026 0
M  V30 4777 H 441.812 -2.45517 2.72244 0
M  V30 4778 H 441.46 -4.72336 1.72937 0
M  V30 4779 H 441.16 -4.73069 3.48538 0
M  V30 4780 H 442.684 -5.40475 2.84112 0
M  V30 4781 H 444.098 -3.71877 4.36326 0
M  V30 4782 H 442.495 -3.28278 5.02348 0
M  V30 4783 H 443.565 -2.00739 4.41397 0
M  V30 4784 N 444.908 -1.36708 -0.784132 0
M  V30 4785 C 445.856 -1.31533 -1.91838 0
M  V30 4786 C 446.85 -0.206205 -1.6814 0
M  V30 4787 O 448.056 -0.373519 -1.76082 0
M  V30 4788 H 444.431 -0.409613 -0.630651 0
M  V30 4789 H 446.402 -2.2731 -1.9332 0
M  V30 4790 C 445.151 -1.12679 -3.28936 0
M  V30 4791 H 444.474 -1.97274 -3.4774 0
M  V30 4792 H 445.914 -1.13106 -4.08636 0
M  V30 4793 C 444.373 0.168281 -3.36479 0
M  V30 4794 O 444.903 1.15625 -3.84699 0
M  V30 4795 N 443.109 0.214762 -2.89805 0
M  V30 4796 H 442.656 -0.589852 -2.50756 0
M  V30 4797 H 442.614 1.08094 -2.95234 0
M  V30 4798 N 446.386 1.0089 -1.21074 0
M  V30 4799 C 447.797 1.56056 -1.02486 0
M  V30 4800 C 448.148 1.91728 0.416506 0
M  V30 4801 O 447.273 1.73066 1.29912 0
M  V30 4802 C 447.868 2.83563 -1.85411 0
M  V30 4803 C 446.427 3.3523 -1.71166 0
M  V30 4804 C 445.574 2.0846 -1.82865 0
M  V30 4805 H 448.525 0.831818 -1.35154 0
M  V30 4806 H 448.546 3.55286 -1.36205 0
M  V30 4807 H 448.058 2.57569 -2.9031 0
M  V30 4808 H 446.159 3.66167 -0.689361 0
M  V30 4809 H 446.272 4.06913 -2.52901 0
M  V30 4810 H 444.636 2.21275 -1.26132 0
M  V30 4811 H 445.419 1.84883 -2.89263 0
M  V30 4812 N 447.864 1.01787 1.20321 0
M  V30 4813 C 449.28 0.732951 1.41774 0
M  V30 4814 C 449.48 -0.686883 1.89431 0
M  V30 4815 O 448.536 -1.45446 2.06402 0
M  V30 4816 C 449.849 1.75973 2.43832 0
M  V30 4817 C 451.397 1.77802 2.57596 0
M  V30 4818 C 451.872 2.7941 3.62897 0
M  V30 4819 N 453.363 2.78157 3.70382 0
M  V30 4820 C 454.098 3.53434 4.51521 0
M  V30 4821 N 453.594 4.38392 5.36455 0
M  V30 4822 N 455.387 3.42026 4.46066 0
M  V30 4823 H 447.538 1.93447 0.877035 0
M  V30 4824 H 449.801 0.835712 0.447536 0
M  V30 4825 H 449.507 2.77699 2.15815 0
M  V30 4826 H 449.381 1.57292 3.4284 0
M  V30 4827 H 451.768 0.767602 2.84942 0
M  V30 4828 H 451.849 2.00557 1.58779 0
M  V30 4829 H 451.493 3.80616 3.36295 0
M  V30 4830 H 451.423 2.53916 4.61339 0
M  V30 4831 H 453.914 2.16531 3.09714 0
M  V30 4832 H 454.227 4.92596 5.95457 0
M  V30 4833 H 452.572 4.4247 5.35953 0
M  V30 4834 H 455.763 2.75075 3.78749 0
M  V30 4835 H 455.936 4.00946 5.09064 0
M  V30 4836 N 449.342 -1.36122 0.79427 0
M  V30 4837 C 450.289 -2.29982 0.194101 0
M  V30 4838 C 451.259 -1.52214 -0.664833 0
M  V30 4839 O 452.444 -1.80702 -0.612498 0
M  V30 4840 C 449.584 -3.38706 -0.661244 0
M  V30 4841 C 448.697 -4.31456 0.216766 0
M  V30 4842 C 447.832 -5.27265 -0.645411 0
M  V30 4843 C 446.871 -6.11653 0.233756 0
M  V30 4844 N 446.008 -6.99636 -0.587682 0
M  V30 4845 H 450.848 -2.80722 0.999965 0
M  V30 4846 H 448.385 -1.38172 0.504677 0
M  V30 4847 H 450.343 -4.00394 -1.17219 0
M  V30 4848 H 448.973 -2.89274 -1.43249 0
M  V30 4849 H 448.025 -3.7088 0.845724 0
M  V30 4850 H 449.337 -4.90724 0.893973 0
M  V30 4851 H 448.491 -5.94266 -1.22198 0
M  V30 4852 H 447.23 -4.68463 -1.35623 0
M  V30 4853 H 446.235 -5.4361 0.82269 0
M  V30 4854 H 447.46 -6.72531 0.942247 0
M  V30 4855 H 445.406 -6.43337 -1.2827 0
M  V30 4856 H 445.323 -7.55993 0.0317402 0
M  V30 4857 H 446.591 -7.71001 -1.14792 0
M  V30 4858 N 450.82 -0.546701 -1.47814 0
M  V30 4859 C 451.75 0.195317 -2.32682 0
M  V30 4860 C 452.731 0.918981 -1.43139 0
M  V30 4861 O 453.916 0.901501 -1.72008 0
M  V30 4862 C 451.046 1.23237 -3.247 0
M  V30 4863 C 450 0.625818 -4.234 0
M  V30 4864 C 449.326 1.76674 -5.04669 0
M  V30 4865 C 450.626 -0.413515 -5.2066 0
M  V30 4866 H 452.32 -0.513184 -2.94969 0
M  V30 4867 H 449.866 -0.248241 -1.41844 0
M  V30 4868 H 451.819 1.75955 -3.82907 0
M  V30 4869 H 450.543 1.97067 -2.60446 0
M  V30 4870 H 449.202 0.120023 -3.66403 0
M  V30 4871 H 448.85 2.49383 -4.36826 0
M  V30 4872 H 448.55 1.36673 -5.71484 0
M  V30 4873 H 450.074 2.29738 -5.65732 0
M  V30 4874 H 451.488 0.0272042 -5.73294 0
M  V30 4875 H 449.885 -0.731825 -5.95621 0
M  V30 4876 H 450.955 -1.31325 -4.66778 0
M  V30 4877 N 452.299 1.55045 -0.282633 0
M  V30 4878 C 453.548 1.98938 0.332667 0
M  V30 4879 C 453.861 1.17455 1.56409 0
M  V30 4880 O 455.067 1.51527 2.25282 0
M  V30 4881 C 453.523 3.54105 0.643226 0
M  V30 4882 C 453.131 4.44374 -0.568814 0
M  V30 4883 C 454.875 4.06569 1.22074 0
M  V30 4884 C 452.782 5.90943 -0.232426 0
M  V30 4885 H 451.712 0.743043 0.128075 0
M  V30 4886 H 454.363 1.79341 -0.388464 0
M  V30 4887 H 452.745 3.69532 1.42346 0
M  V30 4888 H 453.919 4.40718 -1.34551 0
M  V30 4889 H 452.234 4.02585 -1.06369 0
M  V30 4890 H 454.831 5.13626 1.48635 0
M  V30 4891 H 455.174 3.56057 2.15707 0
M  V30 4892 H 455.707 3.94612 0.502621 0
M  V30 4893 H 452.446 6.45567 -1.13683 0
M  V30 4894 H 451.966 5.9765 0.507357 0
M  V30 4895 H 453.645 6.4677 0.172657 0
M  V30 4896 N 453.777 0.010035 1.57597 0
M  V30 4897 C 454.687 -0.994226 2.12491 0
M  V30 4898 C 455.703 -1.37013 1.07254 0
M  V30 4899 O 456.879 -1.45542 1.3921 0
M  V30 4900 C 453.944 -2.2642 2.62555 0
M  V30 4901 C 453.005 -1.95049 3.82432 0
M  V30 4902 C 452.238 -3.15991 4.30099 0
M  V30 4903 O 452.461 -4.28015 3.7704 0
M  V30 4904 O 451.395 -2.99403 5.22151 0
M  V30 4905 H 455.221 -0.557549 2.98538 0
M  V30 4906 H 452.806 -0.209413 1.47925 0
M  V30 4907 H 454.688 -3.01009 2.9491 0
M  V30 4908 H 453.363 -2.69306 1.796 0
M  V30 4909 H 452.27 -1.17904 3.55034 0
M  V30 4910 H 453.603 -1.56992 4.66491 0
M  V30 4911 N 455.255 -1.55392 -0.262866 0
M  V30 4912 C 456.501 -1.76737 -0.99458 0
M  V30 4913 C 456.834 -0.572453 -1.85571 0
M  V30 4914 O 456.109 0.429732 -1.89693 0
M  V30 4915 C 456.392 -3.07824 -1.8686 0
M  V30 4916 C 456.245 -4.3769 -1.03672 0
M  V30 4917 C 457.564 -3.35021 -2.85393 0
M  V30 4918 H 454.683 -0.643005 -0.360157 0
M  V30 4919 H 457.325 -1.88126 -0.266216 0
M  V30 4920 H 455.475 -2.98245 -2.48962 0
M  V30 4921 H 457.147 -4.59238 -0.43563 0
M  V30 4922 H 455.39 -4.32461 -0.340513 0
M  V30 4923 H 456.061 -5.25759 -1.6817 0
M  V30 4924 H 458.537 -3.44458 -2.33426 0
M  V30 4925 H 457.413 -4.27989 -3.43681 0
M  V30 4926 H 457.674 -2.55153 -3.61039 0
M  V30 4927 N 456.733 0.527833 -1.48498 0
M  V30 4928 C 457.68 1.6322 -1.6318 0
M  V30 4929 C 458.65 1.59199 -0.473815 0
M  V30 4930 O 459.835 1.77591 -0.697563 0
M  V30 4931 C 456.975 3.01474 -1.67951 0
M  V30 4932 C 456.088 3.15713 -2.94871 0
M  V30 4933 C 455.223 4.44539 -2.90789 0
M  V30 4934 C 454.262 4.52315 -4.12404 0
M  V30 4935 N 453.399 5.72533 -4.06387 0
M  V30 4936 H 458.239 1.50011 -2.57489 0
M  V30 4937 H 455.776 0.730298 -1.27691 0
M  V30 4938 H 457.734 3.81572 -1.68698 0
M  V30 4939 H 456.364 3.1345 -0.771306 0
M  V30 4940 H 455.416 2.28854 -3.03859 0
M  V30 4941 H 456.728 3.1732 -3.8485 0
M  V30 4942 H 455.882 5.3293 -2.89949 0
M  V30 4943 H 454.621 4.45457 -1.98542 0
M  V30 4944 H 453.626 3.62331 -4.13517 0
M  V30 4945 H 454.851 4.53134 -5.05812 0
M  V30 4946 H 452.797 5.74344 -3.16962 0
M  V30 4947 H 452.714 5.75643 -4.90073 0
M  V30 4948 H 453.982 6.63204 -4.0961 0
M  V30 4949 N 458.211 1.37122 0.776871 0
M  V30 4950 C 459.458 1.32047 1.53524 0
M  V30 4951 C 459.786 -0.0965631 1.9426 0
M  V30 4952 O 459.041 -1.06866 1.63945 0
M  V30 4953 C 459.34 2.20068 2.81611 0
M  V30 4954 C 459.006 3.68423 2.59953 0
M  V30 4955 C 457.668 4.08854 2.53755 0
M  V30 4956 C 460.02 4.62431 2.40431 0
M  V30 4957 C 457.348 5.41417 2.26018 0
M  V30 4958 C 459.7 5.95225 2.14219 0
M  V30 4959 C 458.364 6.34767 2.06462 0
M  V30 4960 H 457.634 0.483196 0.561785 0
M  V30 4961 H 460.281 1.69284 0.895268 0
M  V30 4962 H 458.586 1.75809 3.50141 0
M  V30 4963 H 460.283 2.13458 3.39465 0
M  V30 4964 H 456.873 3.36354 2.65638 0
M  V30 4965 H 461.057 4.32057 2.44213 0
M  V30 4966 H 456.313 5.71022 2.18504 0
M  V30 4967 H 460.487 6.67626 1.98112 0
M  V30 4968 H 458.114 7.37413 1.84733 0
M  V30 4969 N 459.689 -1.00246 1.21608 0
M  V30 4970 C 460.914 -1.78167 1.06167 0
M  V30 4971 C 461.339 -1.84138 -0.384035 0
M  V30 4972 O 460.697 -1.28683 -1.27712 0
M  V30 4973 C 460.745 -3.19786 1.66642 0
M  V30 4974 O 459.849 -4.02153 0.913613 0
M  V30 4975 H 459.19 -0.549 0.37349 0
M  V30 4976 H 461.72 -1.25994 1.61204 0
M  V30 4977 H 461.73 -3.70451 1.70969 0
M  V30 4978 H 460.405 -3.14754 2.7185 0
M  V30 4979 H 458.982 -3.60711 0.945635 0
M  V30 4980 N 461.167 -1.02423 -1.1978 0
M  V30 4981 C 462.117 -0.571689 -2.20716 0
M  V30 4982 C 463.101 0.377077 -1.56419 0
M  V30 4983 O 464.293 0.198801 -1.7588 0
M  V30 4984 C 461.422 0.0808555 -3.43205 0
M  V30 4985 C 460.508 -0.890073 -4.14655 0
M  V30 4986 N 460.899 -2.05065 -4.62366 0
M  V30 4987 C 459.197 -0.71252 -4.40272 0
M  V30 4988 C 459.898 -2.66264 -5.17183 0
M  V30 4989 N 458.874 -1.94264 -5.07703 0
M  V30 4990 H 462.676 -1.45636 -2.55279 0
M  V30 4991 H 460.19 -0.890596 -1.35802 0
M  V30 4992 H 462.187 0.422654 -4.14752 0
M  V30 4993 H 460.847 0.961274 -3.10144 0
M  V30 4994 H 461.858 -2.43026 -4.57339 0
M  V30 4995 H 458.535 0.119199 -4.1733 0
M  V30 4996 H 459.925 -3.64526 -5.64421 0
M  V30 4997 N 462.645 1.35699 -0.801477 0
M  V30 4998 C 463.575 2.32436 -0.222658 0
M  V30 4999 C 464.556 1.5723 0.649057 0
M  V30 5000 O 465.741 1.85324 0.580387 0
M  V30 5001 C 462.871 3.41469 0.633719 0
M  V30 5002 C 461.825 4.27774 -0.139083 0
M  V30 5003 C 461.151 5.28082 0.838666 0
M  V30 5004 C 462.451 5.04946 -1.33517 0
M  V30 5005 H 464.145 2.81094 -1.03086 0
M  V30 5006 H 461.691 1.35146 -0.497155 0
M  V30 5007 H 463.644 4.08143 1.04868 0
M  V30 5008 H 462.368 2.91408 1.47475 0
M  V30 5009 H 461.027 3.62673 -0.535156 0
M  V30 5010 H 460.675 4.7429 1.67506 0
M  V30 5011 H 460.375 5.86695 0.32594 0
M  V30 5012 H 461.899 5.97628 1.25194 0
M  V30 5013 H 463.313 5.64593 -0.995349 0
M  V30 5014 H 461.71 5.7303 -1.78202 0
M  V30 5015 H 462.78 4.35886 -2.12442 0
M  V30 5016 N 464.123 0.554532 1.47522 0
M  V30 5017 C 465.348 0.0322661 2.07375 0
M  V30 5018 C 465.773 -1.25079 1.40488 0
M  V30 5019 O 465.131 -1.74859 0.47896 0
M  V30 5020 C 465.179 -0.149397 3.6029 0
M  V30 5021 O 464.283 -1.21259 3.9417 0
M  V30 5022 H 463.624 0.0501228 0.662106 0
M  V30 5023 H 466.154 0.769452 1.8958 0
M  V30 5024 H 466.164 -0.364437 4.06369 0
M  V30 5025 H 464.839 0.787743 4.08372 0
M  V30 5026 H 463.416 -0.97825 3.5984 0
M  V30 5027 N 465.601 -1.54893 0.290851 0
M  V30 5028 C 467.017 -1.59476 -0.0628432 0
M  V30 5029 C 467.217 -1.30795 -1.5328 0
M  V30 5030 O 466.273 -1.07644 -2.28406 0
M  V30 5031 C 467.586 -2.98928 0.325962 0
M  V30 5032 C 469.134 -3.11799 0.273882 0
M  V30 5033 C 469.609 -4.53544 0.637359 0
M  V30 5034 N 471.1 -4.59433 0.589507 0
M  V30 5035 C 471.835 -5.67164 0.84335 0
M  V30 5036 N 471.331 -6.82975 1.16263 0
M  V30 5037 N 473.124 -5.56786 0.771091 0
M  V30 5038 H 465.275 -1.71798 1.24896 0
M  V30 5039 H 467.538 -0.801879 0.505663 0
M  V30 5040 H 467.244 -3.24805 1.34887 0
M  V30 5041 H 467.118 -3.75793 -0.325441 0
M  V30 5042 H 469.505 -2.85677 -0.739765 0
M  V30 5043 H 469.586 -2.37112 0.959766 0
M  V30 5044 H 469.23 -4.80394 1.64877 0
M  V30 5045 H 469.16 -5.26553 -0.0704866 0
M  V30 5046 H 471.651 -3.76245 0.353252 0
M  V30 5047 H 471.964 -7.61048 1.34257 0
M  V30 5048 H 470.309 -6.84552 1.20057 0
M  V30 5049 H 473.5 -4.65187 0.521383 0
M  V30 5050 H 473.673 -6.40664 0.972295 0
M  V30 5051 N 467.08 -0.0183926 -1.57589 0
M  V30 5052 C 468.028 0.985111 -2.10709 0
M  V30 5053 C 469.022 1.34397 -1.0312 0
M  V30 5054 O 470.228 1.32746 -1.21567 0
M  V30 5055 H 466.603 0.335418 -0.673052 0
M  V30 5056 H 468.574 0.511689 -2.9398 0
M  V30 5057 C 467.323 2.26202 -2.64061 0
M  V30 5058 H 466.646 1.9946 -3.4649 0
M  V30 5059 H 468.086 2.94652 -3.04887 0
M  V30 5060 C 466.545 2.98444 -1.5631 0
M  V30 5061 O 467.075 3.90142 -0.956674 0
M  V30 5062 N 465.281 2.6059 -1.28612 0
M  V30 5063 H 464.828 1.86101 -1.78112 0
M  V30 5064 H 464.786 3.09238 -0.567406 0
M  V30 5065 N 468.558 1.5553 0.254621 0
M  V30 5066 C 469.491 1.84624 1.34124 0
M  V30 5067 C 470.469 0.700693 1.46728 0
M  V30 5068 O 471.653 0.94564 1.63064 0
M  V30 5069 C 468.78 2.02412 2.71564 0
M  V30 5070 C 467.826 3.25028 2.7615 0
M  V30 5071 S 468.659 4.81893 2.33538 0
M  V30 5072 C 469.815 5.02677 3.72917 0
M  V30 5073 H 470.048 2.76501 1.09245 0
M  V30 5074 H 467.581 1.47537 0.455211 0
M  V30 5075 H 469.539 2.13345 3.50705 0
M  V30 5076 H 468.2 1.11391 2.93685 0
M  V30 5077 H 467.393 3.34418 3.77069 0
M  V30 5078 H 466.995 3.12781 2.05046 0
M  V30 5079 H 469.287 4.89546 4.68349 0
M  V30 5080 H 470.23 6.0468 3.68467 0
M  V30 5081 H 470.638 4.30561 3.65072 0
M  V30 5082 N 470.036 -0.519951 1.48776 0
M  V30 5083 C 471.264 -1.29971 1.60982 0
M  V30 5084 C 471.679 -1.86803 0.273885 0
M  V30 5085 O 471.036 -1.66904 -0.738193 0
M  V30 5086 C 471.087 -2.44346 2.66415 0
M  V30 5087 O 470.808 -1.89855 3.94825 0
M  V30 5088 C 472.309 -3.36014 2.89153 0
M  V30 5089 H 469.529 -0.394891 0.542496 0
M  V30 5090 H 472.073 -0.626214 1.94676 0
M  V30 5091 H 470.228 -3.07562 2.35552 0
M  V30 5092 H 470.642 -2.64798 4.5275 0
M  V30 5093 H 472.116 -4.12593 3.66703 0
M  V30 5094 H 472.593 -3.91859 1.98351 0
M  V30 5095 H 473.199 -2.78582 3.21359 0
M  V30 5096 N 471.514 -1.37532 -0.769588 0
M  V30 5097 C 472.447 -1.27839 -1.8903 0
M  V30 5098 C 473.425 -0.158504 -1.61826 0
M  V30 5099 O 474.609 -0.333086 -1.85534 0
M  V30 5100 C 471.736 -0.977072 -3.24301 0
M  V30 5101 C 470.782 -2.11414 -3.70414 0
M  V30 5102 S 471.615 -3.73409 -3.83831 0
M  V30 5103 C 472.771 -3.45432 -5.21946 0
M  V30 5104 H 473.004 -2.22694 -1.96963 0
M  V30 5105 H 470.537 -1.2318 -0.930914 0
M  V30 5106 H 472.495 -0.810049 -4.02428 0
M  V30 5107 H 471.156 -0.0459701 -3.14066 0
M  V30 5108 H 470.349 -1.85837 -4.68488 0
M  V30 5109 H 469.951 -2.24141 -2.99394 0
M  V30 5110 H 472.243 -3.00554 -6.07185 0
M  V30 5111 H 473.186 -4.42841 -5.52537 0
M  V30 5112 H 473.594 -2.80311 -4.89986 0
M  V30 5113 N 472.992 0.995999 -1.22138 0
M  V30 5114 C 473.924 2.08745 -0.946485 0
M  V30 5115 C 474.937 1.62633 0.0737356 0
M  V30 5116 O 476.126 1.77782 -0.159886 0
M  V30 5117 C 473.226 3.36516 -0.401305 0
M  V30 5118 C 472.399 4.11672 -1.47801 0
M  V30 5119 C 471.458 5.17728 -0.940461 0
M  V30 5120 O 470.484 5.45482 -1.62596 0
M  V30 5121 N 471.686 5.80005 0.239723 0
M  V30 5122 H 474.451 2.32908 -1.88611 0
M  V30 5123 H 472.012 1.16152 -1.12785 0
M  V30 5124 H 474.004 4.04691 -0.0270837 0
M  V30 5125 H 472.574 3.0944 0.443354 0
M  V30 5126 H 471.794 3.38171 -2.02568 0
M  V30 5127 H 473.082 4.58657 -2.20253 0
M  V30 5128 H 472.48 5.5982 0.813518 0
M  V30 5129 H 471.037 6.4943 0.555361 0
M  V30 5130 N 474.47 1.03057 1.19235 0
M  V30 5131 C 475.886 0.747947 1.40989 0
M  V30 5132 C 476.086 -0.666752 1.90149 0
M  V30 5133 O 475.142 -1.43249 2.07933 0
M  V30 5134 C 476.455 1.7855 2.41951 0
M  V30 5135 C 478.003 1.80524 2.55695 0
M  V30 5136 C 478.478 2.83243 3.59913 0
M  V30 5137 N 479.969 2.8207 3.67411 0
M  V30 5138 C 480.704 3.58204 4.47747 0
M  V30 5139 N 480.2 4.44057 5.31775 0
M  V30 5140 N 481.993 3.46738 4.42413 0
M  V30 5141 H 474.144 1.94367 0.856468 0
M  V30 5142 H 476.407 0.840412 0.438647 0
M  V30 5143 H 476.113 2.79973 2.12857 0
M  V30 5144 H 475.987 1.6092 3.41152 0
M  V30 5145 H 478.374 0.79778 2.84112 0
M  V30 5146 H 478.455 2.02229 1.56643 0
M  V30 5147 H 478.099 3.84161 3.32239 0
M  V30 5148 H 478.029 2.58795 4.5862 0
M  V30 5149 H 480.52 2.19803 3.074 0
M  V30 5150 H 480.833 4.98884 5.90199 0
M  V30 5151 H 479.178 4.48129 5.3123 0
M  V30 5152 H 482.369 2.79077 3.75811 0
M  V30 5153 H 482.542 4.06322 5.04783 0
M  V30 5154 N 475.948 -1.35272 0.808662 0
M  V30 5155 C 477.176 -2.02946 0.402537 0
M  V30 5156 C 477.591 -1.60937 -0.987147 0
M  V30 5157 O 476.948 -0.807917 -1.63643 0
M  V30 5158 C 476.999 -3.58317 0.47868 0
M  V30 5159 O 476.72 -3.98799 1.81358 0
M  V30 5160 C 478.221 -4.43251 0.0656281 0
M  V30 5161 H 475.441 -0.650831 0.163279 0
M  V30 5162 H 477.985 -1.72849 1.09286 0
M  V30 5163 H 476.14 -3.87055 -0.163415 0
M  V30 5164 H 476.554 -4.93451 1.77781 0
M  V30 5165 H 478.028 -5.51738 0.170017 0
M  V30 5166 H 478.505 -4.27913 -0.989278 0
M  V30 5167 H 479.111 -4.19813 0.68096 0
M  V30 5168 N 477.426 -0.562348 -1.47226 0
M  V30 5169 C 478.359 0.230405 -2.27034 0
M  V30 5170 C 479.337 0.915609 -1.3437 0
M  V30 5171 O 480.521 0.933573 -1.63758 0
M  V30 5172 C 477.648 1.32874 -3.11548 0
M  V30 5173 C 476.694 0.751552 -4.19826 0
M  V30 5174 S 477.527 -0.405848 -5.3396 0
M  V30 5175 C 478.683 0.694186 -6.22038 0
M  V30 5176 H 478.916 -0.446811 -2.93923 0
M  V30 5177 H 476.449 -0.348781 -1.50409 0
M  V30 5178 H 478.407 1.95773 -3.60809 0
M  V30 5179 H 477.068 1.97782 -2.44011 0
M  V30 5180 H 476.261 1.57651 -4.78709 0
M  V30 5181 H 475.863 0.198645 -3.73472 0
M  V30 5182 H 478.155 1.58501 -6.58698 0
M  V30 5183 H 479.098 0.142592 -7.07956 0
M  V30 5184 H 479.506 0.989169 -5.55766 0
M  V30 5185 N 478.904 1.54736 -0.299062 0
M  V30 5186 C 479.851 2.23448 0.577899 0
M  V30 5187 C 480.821 1.21637 1.13109 0
M  V30 5188 O 482.006 1.50252 1.17597 0
M  V30 5189 C 479.146 2.9774 1.74484 0
M  V30 5190 C 478.259 4.1432 1.22323 0
M  V30 5191 C 477.394 4.76199 2.35388 0
M  V30 5192 C 476.433 5.84927 1.80351 0
M  V30 5193 N 475.57 6.4077 2.86982 0
M  V30 5194 H 480.41 2.97996 -0.0146545 0
M  V30 5195 H 477.947 1.47088 -0.0190013 0
M  V30 5196 H 479.905 3.39045 2.43114 0
M  V30 5197 H 478.535 2.25572 2.30905 0
M  V30 5198 H 477.587 3.7797 0.429249 0
M  V30 5199 H 478.899 4.92659 0.780309 0
M  V30 5200 H 478.053 5.20346 3.11969 0
M  V30 5201 H 476.792 3.97188 2.83006 0
M  V30 5202 H 475.797 5.40207 1.02259 0
M  V30 5203 H 477.022 6.65821 1.3364 0
M  V30 5204 H 474.968 5.64643 3.33938 0
M  V30 5205 H 474.885 7.1445 2.4718 0
M  V30 5206 H 476.153 6.89574 3.63466 0
M  V30 5207 N 480.382 0.0267497 1.57577 0
M  V30 5208 C 481.312 -0.954308 2.13108 0
M  V30 5209 C 482.293 -1.34088 1.04663 0
M  V30 5210 O 483.478 -1.41992 1.32484 0
M  V30 5211 C 480.608 -2.23744 2.65624 0
M  V30 5212 C 479.562 -1.99168 3.78835 0
M  V30 5213 C 478.888 -3.33726 4.17769 0
M  V30 5214 C 480.188 -1.33277 5.0501 0
M  V30 5215 H 481.882 -0.491848 2.95332 0
M  V30 5216 H 479.428 -0.23514 1.42067 0
M  V30 5217 H 481.381 -2.92754 3.03106 0
M  V30 5218 H 480.105 -2.72151 1.80558 0
M  V30 5219 H 478.764 -1.32577 3.41788 0
M  V30 5220 H 478.412 -3.79888 3.29688 0
M  V30 5221 H 478.112 -3.18089 4.94058 0
M  V30 5222 H 479.636 -4.04008 4.57832 0
M  V30 5223 H 481.05 -1.92283 5.40093 0
M  V30 5224 H 479.447 -1.28045 5.8628 0
M  V30 5225 H 480.517 -0.305411 4.83937 0
M  V30 5226 N 481.861 -1.55662 -0.24637 0
M  V30 5227 C 483.091 -1.81312 -0.990438 0
M  V30 5228 C 483.499 -0.600234 -1.79426 0
M  V30 5229 O 482.842 0.440537 -1.78339 0
M  V30 5230 C 482.904 -3.0032 -1.97607 0
M  V30 5231 C 482.568 -4.36322 -1.35912 0
M  V30 5232 C 483.565 -5.14295 -0.761348 0
M  V30 5233 C 481.25 -4.83019 -1.37833 0
M  V30 5234 C 483.244 -6.37114 -0.190998 0
M  V30 5235 C 480.931 -6.05786 -0.804128 0
M  V30 5236 C 481.929 -6.82672 -0.211489 0
M  V30 5237 O 481.617 -8.03121 0.353845 0
M  V30 5238 H 481.349 -0.607233 -0.297058 0
M  V30 5239 H 483.903 -2.0356 -0.274351 0
M  V30 5240 H 482.133 -2.73829 -2.73047 0
M  V30 5241 H 483.822 -3.13057 -2.58361 0
M  V30 5242 H 484.588 -4.79337 -0.739013 0
M  V30 5243 H 480.467 -4.23165 -1.829 0
M  V30 5244 H 484.011 -6.97069 0.272206 0
M  V30 5245 H 479.908 -6.40222 -0.823792 0
M  V30 5246 H 480.676 -8.18131 0.245761 0
M  V30 5247 N 483.339 0.512053 -1.4905 0
M  V30 5248 C 484.755 0.84224 -1.35567 0
M  V30 5249 C 484.955 1.97878 -0.380319 0
M  V30 5250 O 484.011 2.51769 0.19201 0
M  V30 5251 C 485.324 1.19286 -2.76028 0
M  V30 5252 C 486.872 1.30171 -2.84648 0
M  V30 5253 C 487.347 1.68568 -4.25851 0
M  V30 5254 N 488.838 1.75638 -4.28609 0
M  V30 5255 C 489.573 2.06769 -5.34821 0
M  V30 5256 N 489.069 2.36201 -6.51292 0
M  V30 5257 N 490.862 2.07927 -5.22229 0
M  V30 5258 H 483.013 -0.237574 -2.11067 0
M  V30 5259 H 485.276 -0.0436747 -0.946993 0
M  V30 5260 H 484.982 0.431199 -3.49047 0
M  V30 5261 H 484.856 2.13889 -3.10695 0
M  V30 5262 H 487.243 2.05411 -2.11873 0
M  V30 5263 H 487.324 0.336457 -2.53578 0
M  V30 5264 H 486.968 0.938824 -4.99148 0
M  V30 5265 H 486.898 2.66174 -4.54377 0
M  V30 5266 H 489.389 1.55097 -3.44606 0
M  V30 5267 H 489.702 2.59112 -7.28066 0
M  V30 5268 H 488.047 2.33681 -6.54536 0
M  V30 5269 H 491.238 1.84403 -4.30248 0
M  V30 5270 H 491.411 2.31856 -6.05101 0
M  V30 5271 N 484.817 1.37938 0.762283 0
M  V30 5272 C 485.747 1.37176 1.88958 0
M  V30 5273 C 486.728 0.238945 1.68413 0
M  V30 5274 O 487.913 0.440726 1.89133 0
M  V30 5275 C 485.043 1.18742 3.2637 0
M  V30 5276 C 483.997 2.29136 3.61498 0
M  V30 5277 C 483.323 1.95816 4.97554 0
M  V30 5278 C 484.623 3.71363 3.6727 0
M  V30 5279 H 486.317 2.31509 1.89853 0
M  V30 5280 H 483.863 1.11438 0.912005 0
M  V30 5281 H 485.816 1.16837 4.04879 0
M  V30 5282 H 484.54 0.208683 3.25933 0
M  V30 5283 H 483.199 2.30213 2.85303 0
M  V30 5284 H 482.847 0.964475 4.93667 0
M  V30 5285 H 482.547 2.69745 5.22026 0
M  V30 5286 H 484.071 1.95513 5.78452 0
M  V30 5287 H 485.485 3.72364 4.35911 0
M  V30 5288 H 483.882 4.44425 4.03245 0
M  V30 5289 H 484.952 4.04305 2.67704 0
M  V30 5290 N 486.295 -0.989507 1.22664 0
M  V30 5291 C 487.706 -1.54406 1.04955 0
M  V30 5292 C 488.057 -1.92366 -0.385951 0
M  V30 5293 O 487.182 -1.75111 -1.27142 0
M  V30 5294 C 487.777 -2.80578 1.89899 0
M  V30 5295 C 486.336 -3.32464 1.76478 0
M  V30 5296 C 485.483 -2.05524 1.86159 0
M  V30 5297 H 488.434 -0.810211 1.3646 0
M  V30 5298 H 488.455 -3.53075 1.4184 0
M  V30 5299 H 487.967 -2.52918 2.94371 0
M  V30 5300 H 486.068 -3.65024 0.747528 0
M  V30 5301 H 486.181 -4.02838 2.59342 0
M  V30 5302 H 484.545 -2.19241 1.29636 0
M  V30 5303 H 485.328 -1.80258 2.92168 0
M  V30 5304 N 487.773 -1.03688 -1.18687 0
M  V30 5305 C 488.683 -0.634908 -2.25845 0
M  V30 5306 C 489.699 0.337065 -1.70704 0
M  V30 5307 O 490.875 0.192943 -2.00474 0
M  V30 5308 C 487.94 -0.000180054 -3.467 0
M  V30 5309 C 487.001 -1.02067 -4.1699 0
M  V30 5310 C 486.234 -0.41614 -5.32075 0
M  V30 5311 O 486.457 0.778712 -5.65059 0
M  V30 5312 O 485.391 -1.14296 -5.90948 0
M  V30 5313 H 489.217 -1.52757 -2.62486 0
M  V30 5314 H 486.802 -0.807533 -1.25695 0
M  V30 5315 H 488.684 0.353342 -4.19916 0
M  V30 5316 H 487.359 0.866367 -3.11891 0
M  V30 5317 H 486.266 -1.42592 -3.45859 0
M  V30 5318 H 487.599 -1.85786 -4.5579 0
M  V30 5319 N 489.251 1.34841 -0.815825 0
M  V30 5320 C 490.479 2.0273 -0.413294 0
M  V30 5321 C 490.894 1.61459 0.978599 0
M  V30 5322 O 490.251 0.816584 1.63212 0
M  V30 5323 C 490.302 3.58058 -0.497676 0
M  V30 5324 O 490.023 3.97832 -1.8347 0
M  V30 5325 C 491.524 4.4321 -0.0891339 0
M  V30 5326 H 488.744 0.649956 -0.166728 0
M  V30 5327 H 491.288 1.72267 -1.10201 0
M  V30 5328 H 489.443 3.87136 0.142886 0
M  V30 5329 H 489.857 4.92501 -1.80396 0
M  V30 5330 H 491.331 5.5164 -0.199274 0
M  V30 5331 H 491.808 4.28432 0.966571 0
M  V30 5332 H 492.414 4.19446 -0.703214 0
M  V30 5333 N 490.729 0.570148 1.46925 0
M  V30 5334 C 492.14 0.1402 1.86173 0
M  V30 5335 C 492.491 -1.29347 1.47526 0
M  V30 5336 O 491.616 -1.97508 0.884292 0
M  V30 5337 C 492.211 0.247661 3.37894 0
M  V30 5338 C 490.77 -0.127332 3.76185 0
M  V30 5339 C 489.917 0.589349 2.70965 0
M  V30 5340 H 492.868 0.779117 1.38259 0
M  V30 5341 H 492.889 -0.530341 3.76786 0
M  V30 5342 H 492.401 1.29121 3.65991 0
M  V30 5343 H 490.502 -1.17149 3.53704 0
M  V30 5344 H 490.615 0.240238 4.78497 0
M  V30 5345 H 488.979 0.0309824 2.54681 0
M  V30 5346 H 489.762 1.6343 3.01903 0
M  V30 5347 N 492.207 -1.54576 0.307264 0
M  V30 5348 C 493.154 -2.23751 -0.56604 0
M  V30 5349 C 494.124 -1.22235 -1.12462 0
M  V30 5350 O 495.309 -1.50873 -1.16799 0
M  V30 5351 C 492.449 -2.98661 -1.72903 0
M  V30 5352 C 491.562 -4.14963 -1.20124 0
M  V30 5353 C 490.697 -4.77441 -2.3286 0
M  V30 5354 C 489.736 -5.85875 -1.77247 0
M  V30 5355 N 488.873 -6.42282 -2.8358 0
M  V30 5356 H 493.713 -2.97984 0.0304578 0
M  V30 5357 H 491.25 -1.47076 0.0268015 0
M  V30 5358 H 493.208 -3.40329 -2.41313 0
M  V30 5359 H 491.838 -2.26793 -2.29706 0
M  V30 5360 H 490.89 -3.78193 -0.409198 0
M  V30 5361 H 492.202 -4.93066 -0.754171 0
M  V30 5362 H 491.356 -5.21993 -3.09205 0
M  V30 5363 H 490.095 -3.98684 -2.80896 0
M  V30 5364 H 489.1 -5.40741 -0.993926 0
M  V30 5365 H 490.325 -6.6652 -1.30107 0
M  V30 5366 H 488.271 -5.66406 -3.30939 0
M  V30 5367 H 488.188 -7.1575 -2.43388 0
M  V30 5368 H 489.456 -6.91492 -3.59804 0
M  V30 5369 N 493.685 -0.035106 -1.57561 0
M  V30 5370 C 494.913 0.652258 -1.9635 0
M  V30 5371 C 495.328 1.65317 -0.911897 0
M  V30 5372 O 494.685 1.82194 0.105657 0
M  V30 5373 C 494.736 1.35337 -3.35211 0
M  V30 5374 O 494.457 0.392548 -4.36338 0
M  V30 5375 C 495.958 2.13199 -3.88666 0
M  V30 5376 H 493.178 0.179444 -0.646561 0
M  V30 5377 H 495.722 -0.0966459 -2.04271 0
M  V30 5378 H 493.877 2.05362 -3.28489 0
M  V30 5379 H 494.291 0.891097 -5.16875 0
M  V30 5380 H 495.765 2.577 -4.88154 0
M  V30 5381 H 496.242 2.97353 -3.23231 0
M  V30 5382 H 496.848 1.48118 -3.98674 0
M  V30 5383 N 495.163 1.55791 0.238111 0
M  V30 5384 C 496.126 1.90239 1.27835 0
M  V30 5385 C 497.126 0.779552 1.4064 0
M  V30 5386 O 498.316 1.04747 1.3919 0
M  V30 5387 C 495.448 2.13859 2.65475 0
M  V30 5388 H 496.641 2.83262 0.985034 0
M  V30 5389 H 494.194 1.48818 0.477799 0
M  V30 5390 H 494.929 1.23334 2.99932 0
M  V30 5391 H 494.714 2.95643 2.57561 0
M  V30 5392 H 496.204 2.41664 3.40571 0
M  V30 5393 N 496.642 -0.504142 1.49319 0
M  V30 5394 C 497.89 -1.25598 1.58334 0
M  V30 5395 C 498.211 -1.93114 0.270538 0
M  V30 5396 O 497.481 -1.82585 -0.709891 0
M  V30 5397 H 496.061 -0.466571 0.58337 0
M  V30 5398 H 498.723 -0.584547 1.85928 0
M  V30 5399 H 497.819 -2.02159 2.37778 0
M  V30 5400 N 498.12 -1.38341 -0.754957 0
M  V30 5401 C 499.05 -1.38176 -1.88227 0
M  V30 5402 C 500.031 -0.247873 -1.68284 0
M  V30 5403 O 501.216 -0.45075 -1.88896 0
M  V30 5404 C 498.346 -1.20471 -3.25736 0
M  V30 5405 C 497.3 -2.3105 -3.60278 0
M  V30 5406 C 496.626 -1.98452 -4.96509 0
M  V30 5407 C 497.926 -3.73305 -3.65295 0
M  V30 5408 H 499.62 -2.32512 -1.88622 0
M  V30 5409 H 497.166 -1.1192 -0.906082 0
M  V30 5410 H 499.119 -1.18982 -4.04254 0
M  V30 5411 H 497.843 -0.225965 -3.25817 0
M  V30 5412 H 496.502 -2.31723 -2.84078 0
M  V30 5413 H 496.15 -0.990641 -4.93148 0
M  V30 5414 H 495.85 -2.7251 -5.20588 0
M  V30 5415 H 497.374 -1.98578 -5.77407 0
M  V30 5416 H 498.788 -3.7467 -4.3393 0
M  V30 5417 H 497.185 -4.46557 -4.00883 0
M  V30 5418 H 498.255 -4.05719 -2.65556 0
M  V30 5419 N 499.598 0.982988 -1.23187 0
M  V30 5420 C 501.014 1.2487 -0.993967 0
M  V30 5421 C 501.214 1.99155 0.306498 0
M  V30 5422 O 500.27 2.30688 1.0266 0
M  V30 5423 C 501.583 2.05078 -2.19917 0
M  V30 5424 C 503.131 2.18227 -2.2438 0
M  V30 5425 C 503.606 3.01825 -3.44479 0
M  V30 5426 N 505.097 3.09411 -3.44702 0
M  V30 5427 C 505.832 3.74412 -4.34285 0
M  V30 5428 N 505.328 4.41259 -5.341 0
M  V30 5429 N 507.121 3.71273 -4.22035 0
M  V30 5430 H 499.272 0.485253 -2.06783 0
M  V30 5431 H 501.535 0.276979 -0.906635 0
M  V30 5432 H 501.241 1.57867 -3.14279 0
M  V30 5433 H 501.115 3.05829 -2.2079 0
M  V30 5434 H 503.502 2.64648 -1.30559 0
M  V30 5435 H 503.583 1.16873 -2.2754 0
M  V30 5436 H 503.227 2.56102 -4.38605 0
M  V30 5437 H 503.157 4.03342 -3.38559 0
M  V30 5438 H 505.648 2.61845 -2.7248 0
M  V30 5439 H 505.961 4.88629 -5.98717 0
M  V30 5440 H 504.306 4.39975 -5.38002 0
M  V30 5441 H 507.497 3.18217 -3.43301 0
M  V30 5442 H 507.67 4.21649 -4.92053 0
M  V30 5443 N 501.076 1.04316 1.18135 0
M  V30 5444 C 502.487 0.775505 1.69832 0
M  V30 5445 C 502.838 -0.703348 1.8316 0
M  V30 5446 O 501.963 -1.54729 1.51287 0
M  V30 5447 C 502.558 1.40112 3.0847 0
M  V30 5448 C 501.117 1.18172 3.57368 0
M  V30 5449 C 500.264 1.49022 2.33854 0
M  V30 5450 H 503.215 1.20925 1.02775 0
M  V30 5451 H 503.236 0.805672 3.71873 0
M  V30 5452 H 502.748 2.47744 2.98738 0
M  V30 5453 H 500.849 0.124258 3.72393 0
M  V30 5454 H 500.962 1.8805 4.40652 0
M  V30 5455 H 499.326 0.909995 2.37889 0
M  V30 5456 H 500.109 2.57768 2.26738 0
M  V30 5457 N 502.554 -1.34406 0.822964 0
M  V30 5458 C 503.487 -2.27407 0.190124 0
M  V30 5459 C 504.465 -1.4889 -0.653486 0
M  V30 5460 O 505.649 -1.78109 -0.617216 0
M  V30 5461 C 502.776 -3.3064 -0.734477 0
M  V30 5462 C 501.822 -4.26488 0.0316099 0
M  V30 5463 S 502.655 -5.17445 1.3788 0
M  V30 5464 C 503.811 -6.24214 0.45907 0
M  V30 5465 H 504.044 -2.80733 0.978586 0
M  V30 5466 H 501.577 -1.41455 0.618866 0
M  V30 5467 H 503.535 -3.90607 -1.26238 0
M  V30 5468 H 502.196 -2.76161 -1.49646 0
M  V30 5469 H 501.389 -4.9951 -0.671285 0
M  V30 5470 H 500.991 -3.70775 0.490066 0
M  V30 5471 H 503.283 -6.76599 -0.349357 0
M  V30 5472 H 504.226 -6.98551 1.15896 0
M  V30 5473 H 504.634 -5.6448 0.0474825 0
M  V30 5474 N 504.032 -0.577932 -1.46621 0
M  V30 5475 C 504.942 0.160651 -2.34049 0
M  V30 5476 C 505.958 0.890911 -1.49462 0
M  V30 5477 O 507.134 0.855166 -1.82343 0
M  V30 5478 C 504.199 1.16447 -3.26559 0
M  V30 5479 C 503.26 0.4394 -4.27045 0
M  V30 5480 C 502.493 1.3954 -5.15135 0
M  V30 5481 O 502.716 2.63162 -5.06065 0
M  V30 5482 O 501.65 0.908585 -5.95003 0
M  V30 5483 H 505.476 -0.557057 -2.98547 0
M  V30 5484 H 503.061 -0.338369 -1.45518 0
M  V30 5485 H 504.943 1.7434 -3.83645 0
M  V30 5486 H 503.618 1.86373 -2.64663 0
M  V30 5487 H 502.525 -0.181247 -3.73661 0
M  V30 5488 H 503.858 -0.218799 -4.91713 0
M  V30 5489 N 505.51 1.54411 -0.315457 0
M  V30 5490 C 506.738 2.04833 0.291738 0
M  V30 5491 C 507.153 1.19203 1.46411 0
M  V30 5492 O 506.51 0.220867 1.81159 0
M  V30 5493 C 506.561 3.53969 0.73404 0
M  V30 5494 O 506.282 4.36346 -0.391682 0
M  V30 5495 C 507.783 4.2045 1.40489 0
M  V30 5496 H 505.003 0.668195 0.0612947 0
M  V30 5497 H 507.547 1.99276 -0.45929 0
M  V30 5498 H 505.702 3.5984 1.43506 0
M  V30 5499 H 506.116 5.24481 -0.0447088 0
M  V30 5500 H 507.59 5.26278 1.66539 0
M  V30 5501 H 508.067 3.71067 2.3496 0
M  V30 5502 H 508.673 4.18694 0.746662 0
M  V30 5503 N 506.988 0.0434614 1.5754 0
M  V30 5504 C 507.935 -0.93356 2.11077 0
M  V30 5505 C 508.905 -1.31383 1.01626 0
M  V30 5506 O 510.09 -1.40465 1.29129 0
M  V30 5507 C 507.23 -2.20578 2.65404 0
M  V30 5508 C 506.343 -1.88068 3.88914 0
M  V30 5509 C 505.478 -3.09691 4.31584 0
M  V30 5510 C 504.517 -2.73067 5.47815 0
M  V30 5511 N 503.654 -3.87359 5.85574 0
M  V30 5512 H 508.494 -0.470118 2.94268 0
M  V30 5513 H 506.031 -0.220434 1.45439 0
M  V30 5514 H 507.989 -2.95011 2.94999 0
M  V30 5515 H 506.619 -2.64513 1.85021 0
M  V30 5516 H 505.671 -1.03816 3.6596 0
M  V30 5517 H 506.983 -1.57104 4.73413 0
M  V30 5518 H 506.137 -3.92431 4.62691 0
M  V30 5519 H 504.876 -3.43827 3.45882 0
M  V30 5520 H 503.881 -1.88742 5.16388 0
M  V30 5521 H 505.106 -2.40131 6.35227 0
M  V30 5522 H 503.052 -4.21311 5.02825 0
M  V30 5523 H 502.969 -3.60068 6.64746 0
M  V30 5524 H 504.237 -4.70761 6.21292 0
M  V30 5525 N 508.466 -1.55915 -0.229846 0
M  V30 5526 C 509.743 -1.6932 -0.979295 0
M  V30 5527 C 510.123 -0.588321 -2.02736 0
M  V30 5528 O 509.471 0.40586 -2.24867 0
M  V30 5529 C 509.681 -3.10305 -1.59724 0
M  V30 5530 C 511.029 -3.6945 -2.09264 0
M  V30 5531 O 512.053 -3.13214 -1.69633 0
M  V30 5532 O 510.912 -4.68072 -2.82082 0
M  V30 5533 H 508.006 -0.689314 -0.456919 0
M  V30 5534 H 510.552 -1.68238 -0.222283 0
M  V30 5535 H 509.324 -3.82177 -0.840039 0
M  V30 5536 H 508.947 -3.1547 -2.42001 0
M  V30 5537 N 509.944 0.496216 -1.49584 0
M  V30 5538 C 511.193 1.24668 -1.58558 0
M  V30 5539 C 511.506 1.9359 -0.279703 0
M  V30 5540 O 512.712 2.70365 -0.248048 0
M  V30 5541 C 511.168 2.26388 -2.79779 0
M  V30 5542 C 510.776 1.63384 -4.17145 0
M  V30 5543 C 512.52 3.02233 -2.98086 0
M  V30 5544 C 510.427 2.63243 -5.29582 0
M  V30 5545 H 509.357 0.468995 -0.590389 0
M  V30 5546 H 512.008 0.519985 -1.75978 0
M  V30 5547 H 510.39 3.02241 -2.55863 0
M  V30 5548 H 511.564 0.93491 -4.51216 0
M  V30 5549 H 509.879 0.999121 -4.04236 0
M  V30 5550 H 512.476 3.76919 -3.79257 0
M  V30 5551 H 512.819 3.60132 -2.08831 0
M  V30 5552 H 513.352 2.33495 -3.22063 0
M  V30 5553 H 510.091 2.10119 -6.20911 0
M  V30 5554 H 509.611 3.31363 -4.99959 0
M  V30 5555 H 511.29 3.25575 -5.59115 0
M  V30 5556 N 511.423 1.38739 0.74761 0
M  V30 5557 C 512.834 1.31507 1.32524 0
M  V30 5558 C 513.185 -0.0263963 1.96182 0
M  V30 5559 O 512.31 -0.92849 1.95469 0
M  V30 5560 C 512.905 2.38162 2.40966 0
M  V30 5561 C 511.464 2.34489 2.94434 0
M  V30 5562 C 510.611 2.20712 1.67873 0
M  V30 5563 H 513.562 1.4901 0.546043 0
M  V30 5564 H 513.583 2.04222 3.21051 0
M  V30 5565 H 513.095 3.35783 1.94605 0
M  V30 5566 H 511.196 1.40467 3.45108 0
M  V30 5567 H 511.309 3.28861 3.48407 0
M  V30 5568 H 509.673 1.67667 1.91729 0
M  V30 5569 H 510.456 3.20285 1.23582 0
M  V30 5570 N 512.901 -0.976442 1.23707 0
M  V30 5571 C 514.147 -1.72081 1.07312 0
M  V30 5572 C 514.48 -1.90275 -0.388476 0
M  V30 5573 O 513.755 -1.4579 -1.28746 0
M  V30 5574 C 514.038 -3.11675 1.80363 0
M  V30 5575 C 513.891 -3.01027 3.3422 0
M  V30 5576 C 515.21 -4.1117 1.5693 0
M  V30 5577 H 512.329 -0.624583 0.391236 0
M  V30 5578 H 514.971 -1.13649 1.52263 0
M  V30 5579 H 513.121 -3.61559 1.42153 0
M  V30 5580 H 514.793 -2.58637 3.81975 0
M  V30 5581 H 513.036 -2.3744 3.63049 0
M  V30 5582 H 513.707 -3.9988 3.80525 0
M  V30 5583 H 516.183 -3.7011 1.90151 0
M  V30 5584 H 515.059 -5.06928 2.10513 0
M  V30 5585 H 515.32 -4.392 0.505548 0
M  V30 5586 N 514.379 -1.04941 -1.1758 0
M  V30 5587 C 515.625 -0.759112 -1.88057 0
M  V30 5588 C 515.958 0.711918 -1.8068 0
M  V30 5589 O 515.233 1.52035 -1.21308 0
M  V30 5590 C 515.516 -1.237 -3.38187 0
M  V30 5591 C 515.369 -2.77078 -3.54327 0
M  V30 5592 C 516.688 -0.834014 -4.32125 0
M  V30 5593 H 513.807 -0.277237 -0.682868 0
M  V30 5594 H 516.449 -1.30296 -1.38286 0
M  V30 5595 H 514.599 -0.774337 -3.80705 0
M  V30 5596 H 516.271 -3.31449 -3.20842 0
M  V30 5597 H 514.514 -3.16477 -2.96689 0
M  V30 5598 H 515.185 -3.05577 -4.59703 0
M  V30 5599 H 517.661 -1.23228 -3.97434 0
M  V30 5600 H 516.537 -1.19603 -5.35711 0
M  V30 5601 H 516.798 0.262195 -4.41322 0
M  V30 5602 N 515.857 1.33968 -0.830081 0
M  V30 5603 C 516.807 2.26845 -0.229242 0
M  V30 5604 C 517.791 1.48862 0.610659 0
M  V30 5605 O 518.983 1.70808 0.464067 0
M  V30 5606 C 516.112 3.3798 0.602057 0
M  V30 5607 C 515.198 4.23369 -0.248866 0
M  V30 5608 N 515.589 4.88182 -1.32334 0
M  V30 5609 C 513.887 4.45987 -0.0344077 0
M  V30 5610 C 514.588 5.51671 -1.84482 0
M  V30 5611 N 513.564 5.31348 -1.14762 0
M  V30 5612 H 517.366 2.74464 -1.05104 0
M  V30 5613 H 514.88 1.4777 -0.673623 0
M  V30 5614 H 516.877 4.03494 1.04873 0
M  V30 5615 H 515.537 2.9191 1.42193 0
M  V30 5616 H 516.548 4.88988 -1.70619 0
M  V30 5617 H 513.225 4.10658 0.752727 0
M  V30 5618 H 514.615 6.13308 -2.74413 0
M  V30 5619 N 517.335 0.585699 1.46312 0
M  V30 5620 C 518.267 -0.183687 2.28463 0
M  V30 5621 C 519.28 -0.85264 1.38686 0
M  V30 5622 O 520.469 -0.721701 1.6326 0
M  V30 5623 C 517.569 -1.27977 3.13808 0
M  V30 5624 C 516.742 -0.702164 4.31727 0
M  V30 5625 C 515.801 -1.68633 4.98447 0
M  V30 5626 O 514.827 -1.22121 5.55945 0
M  V30 5627 N 516.029 -3.02047 4.95729 0
M  V30 5628 H 518.794 0.521127 2.95134 0
M  V30 5629 H 516.355 0.423673 1.56258 0
M  V30 5630 H 518.347 -1.9375 3.55307 0
M  V30 5631 H 516.917 -1.8874 2.4919 0
M  V30 5632 H 516.137 0.1331 3.93975 0
M  V30 5633 H 517.425 -0.296101 5.07938 0
M  V30 5634 H 516.823 -3.42457 4.50266 0
M  V30 5635 H 515.38 -3.63301 5.41161 0
M  V30 5636 N 518.813 -1.54241 0.323641 0
M  V30 5637 C 519.743 -2.27289 -0.534993 0
M  V30 5638 C 520.724 -1.28087 -1.11927 0
M  V30 5639 O 521.909 -1.56899 -1.14439 0
M  V30 5640 C 519.039 -3.03075 -1.69596 0
M  V30 5641 C 517.993 -4.09614 -1.24098 0
M  V30 5642 C 517.319 -4.73242 -2.4889 0
M  V30 5643 C 518.619 -5.21087 -0.355789 0
M  V30 5644 H 520.313 -2.99308 0.0743257 0
M  V30 5645 H 517.859 -1.43952 0.0371874 0
M  V30 5646 H 519.812 -3.52907 -2.30293 0
M  V30 5647 H 518.536 -2.28673 -2.33187 0
M  V30 5648 H 517.195 -3.60666 -0.656945 0
M  V30 5649 H 516.843 -3.95455 -3.10845 0
M  V30 5650 H 516.543 -5.45209 -2.19138 0
M  V30 5651 H 518.067 -5.25848 -3.10348 0
M  V30 5652 H 519.481 -5.66675 -0.869042 0
M  V30 5653 H 517.878 -5.9991 -0.151045 0
M  V30 5654 H 518.948 -4.81005 0.613339 0
M  V30 5655 N 520.291 -0.0518155 -1.57515 0
M  V30 5656 C 521.221 0.920283 -2.146 0
M  V30 5657 C 522.202 1.32406 -1.06783 0
M  V30 5658 O 523.387 1.39866 -1.34726 0
M  V30 5659 C 520.517 2.1949 -2.6915 0
M  V30 5660 C 519.471 1.93116 -3.81956 0
M  V30 5661 C 518.797 3.27037 -4.23026 0
M  V30 5662 C 520.097 1.25225 -5.07066 0
M  V30 5663 H 521.791 0.444801 -2.96077 0
M  V30 5664 H 519.337 0.212508 -1.42423 0
M  V30 5665 H 521.29 2.87894 -3.07725 0
M  V30 5666 H 520.014 2.69244 -1.84865 0
M  V30 5667 H 518.673 1.27123 -3.43854 0
M  V30 5668 H 518.321 3.74595 -3.3569 0
M  V30 5669 H 518.021 3.10189 -4.99056 0
M  V30 5670 H 519.545 3.96673 -4.64202 0
M  V30 5671 H 520.959 1.83666 -5.43083 0
M  V30 5672 H 519.356 1.18702 -5.88243 0
M  V30 5673 H 520.426 0.228382 -4.84362 0
M  V30 5674 N 521.769 1.56035 0.221574 0
M  V30 5675 C 522.997 1.8313 0.962864 0
M  V30 5676 C 523.412 0.630934 1.77946 0
M  V30 5677 O 522.769 -0.400519 1.78051 0
M  V30 5678 C 522.82 3.08742 1.88045 0
M  V30 5679 O 522.541 4.24147 1.09686 0
M  V30 5680 C 524.042 3.48824 2.73563 0
M  V30 5681 H 521.262 0.608775 0.282194 0
M  V30 5682 H 523.806 2.03124 0.23681 0
M  V30 5683 H 521.961 2.90723 2.56045 0
M  V30 5684 H 522.375 4.95505 1.71974 0
M  V30 5685 H 523.849 4.39752 3.3365 0
M  V30 5686 H 524.326 2.70575 3.45956 0
M  V30 5687 H 524.932 3.69282 2.10976 0
M  V30 5688 N 523.247 -0.488276 1.49845 0
M  V30 5689 C 524.663 -0.820566 1.3689 0
M  V30 5690 C 524.863 -1.97248 0.411752 0
M  V30 5691 O 523.919 -2.52042 -0.151931 0
M  V30 5692 C 525.232 -1.1488 2.77891 0
M  V30 5693 C 526.78 -1.25626 2.86683 0
M  V30 5694 C 527.255 -1.61772 4.28479 0
M  V30 5695 N 528.746 -1.68797 4.31349 0
M  V30 5696 C 529.481 -1.98235 5.38043 0
M  V30 5697 N 528.977 -2.2581 6.54967 0
M  V30 5698 N 530.77 -1.99593 5.2547 0
M  V30 5699 H 522.921 0.271123 2.10662 0
M  V30 5700 H 525.184 0.058735 0.946179 0
M  V30 5701 H 524.89 -0.375614 3.49688 0
M  V30 5702 H 524.764 -2.08919 3.14058 0
M  V30 5703 H 527.151 -2.02014 2.15114 0
M  V30 5704 H 527.232 -0.296072 2.54081 0
M  V30 5705 H 526.876 -0.859295 5.00578 0
M  V30 5706 H 526.806 -2.58912 4.58554 0
M  V30 5707 H 529.297 -1.49595 3.4703 0
M  V30 5708 H 529.61 -2.47497 7.32096 0
M  V30 5709 H 527.955 -2.23239 6.58171 0
M  V30 5710 H 531.146 -1.77535 4.33127 0
M  V30 5711 H 531.319 -2.222 6.08713 0
M  V30 5712 N 524.725 -1.39134 -0.740242 0
M  V30 5713 C 525.955 -1.39132 -1.52728 0
M  V30 5714 C 526.363 0.0173133 -1.89192 0
M  V30 5715 O 525.706 0.997715 -1.54244 0
M  V30 5716 C 525.768 -2.1952 -2.84695 0
M  V30 5717 C 525.432 -3.68203 -2.70695 0
M  V30 5718 C 526.429 -4.61401 -2.39593 0
M  V30 5719 C 524.114 -4.11724 -2.8773 0
M  V30 5720 C 526.108 -5.96102 -2.25701 0
M  V30 5721 C 523.795 -5.46503 -2.73456 0
M  V30 5722 C 524.793 -6.38506 -2.42486 0
M  V30 5723 O 524.481 -7.70803 -2.28295 0
M  V30 5724 H 524.213 -0.477263 -0.478744 0
M  V30 5725 H 526.767 -1.83504 -0.922799 0
M  V30 5726 H 524.997 -1.69888 -3.47383 0
M  V30 5727 H 526.686 -2.1176 -3.46284 0
M  V30 5728 H 527.452 -4.29079 -2.26088 0
M  V30 5729 H 523.331 -3.4045 -3.10829 0
M  V30 5730 H 526.875 -6.6788 -2.0145 0
M  V30 5731 H 522.772 -5.78417 -2.86538 0
M  V30 5732 H 523.54 -7.8147 -2.43405 0
M  V30 5733 N 526.204 0.969867 -1.24223 0
M  V30 5734 C 527.134 2.08191 -1.05729 0
M  V30 5735 C 528.115 1.70075 0.0290765 0
M  V30 5736 O 529.3 1.93712 -0.137583 0
M  V30 5737 C 526.43 3.40991 -0.658995 0
M  V30 5738 C 525.384 3.93054 -1.69389 0
M  V30 5739 C 524.71 5.22171 -1.15072 0
M  V30 5740 C 526.01 4.21137 -3.08935 0
M  V30 5741 H 527.704 2.23921 -1.98746 0
M  V30 5742 H 525.25 1.07602 -0.956967 0
M  V30 5743 H 527.203 4.18221 -0.51662 0
M  V30 5744 H 525.927 3.25155 0.30686 0
M  V30 5745 H 524.586 3.17977 -1.82444 0
M  V30 5746 H 524.234 5.02694 -0.175539 0
M  V30 5747 H 523.934 5.57973 -1.84229 0
M  V30 5748 H 525.458 6.02013 -1.02042 0
M  V30 5749 H 526.872 4.8908 -2.99121 0
M  V30 5750 H 525.269 4.68163 -3.75425 0
M  V30 5751 H 526.339 3.27996 -3.57137 0
M  V30 5752 N 527.682 1.05563 1.17022 0
M  V30 5753 C 528.629 0.659893 2.21165 0
M  V30 5754 C 529.599 -0.339813 1.62587 0
M  V30 5755 O 530.784 -0.230378 1.89404 0
M  V30 5756 C 527.924 0.0447297 3.45071 0
M  V30 5757 C 527.037 1.09372 4.17926 0
M  V30 5758 C 526.172 0.445481 5.29329 0
M  V30 5759 C 525.211 1.47852 5.93975 0
M  V30 5760 N 524.348 0.854172 6.96885 0
M  V30 5761 H 529.188 1.55243 2.54369 0
M  V30 5762 H 526.725 0.776336 1.24946 0
M  V30 5763 H 528.683 -0.329404 4.15898 0
M  V30 5764 H 527.313 -0.811244 3.1244 0
M  V30 5765 H 526.365 1.58564 3.45777 0
M  V30 5766 H 527.677 1.87773 4.62107 0
M  V30 5767 H 526.831 0.0179688 6.06697 0
M  V30 5768 H 525.57 -0.370481 4.86291 0
M  V30 5769 H 524.575 1.91601 5.15334 0
M  V30 5770 H 525.8 2.29645 6.39093 0
M  V30 5771 H 523.746 0.0587882 6.55974 0
M  V30 5772 H 523.663 1.57567 7.39397 0
M  V30 5773 H 524.931 0.451559 7.78191 0
M  V30 5774 N 529.16 -1.33526 0.837174 0
M  V30 5775 C 530.092 -2.28077 0.226579 0
M  V30 5776 C 531.105 -1.51666 -0.591717 0
M  V30 5777 O 532.294 -1.73511 -0.419064 0
M  V30 5778 C 529.394 -3.31597 -0.69978 0
M  V30 5779 C 528.567 -4.37329 0.0788067 0
M  V30 5780 C 527.626 -5.20526 -0.770637 0
M  V30 5781 O 526.652 -5.68811 -0.210453 0
M  V30 5782 N 527.854 -5.41639 -2.08825 0
M  V30 5783 H 530.619 -2.81115 1.03897 0
M  V30 5784 H 528.18 -1.46201 0.695476 0
M  V30 5785 H 530.172 -3.84158 -1.27298 0
M  V30 5786 H 528.742 -2.78848 -1.41288 0
M  V30 5787 H 527.962 -3.8529 0.833381 0
M  V30 5788 H 529.25 -5.05079 0.614238 0
M  V30 5789 H 528.648 -5.04108 -2.56693 0
M  V30 5790 H 527.205 -5.97263 -2.60998 0
M  V30 5791 N 530.638 -0.59345 -1.46 0
M  V30 5792 C 531.885 -0.0831523 -2.02329 0
M  V30 5793 C 532.213 1.28093 -1.46364 0
M  V30 5794 O 531.468 1.85526 -0.622793 0
M  V30 5795 C 531.767 0.021178 -3.57394 0
M  V30 5796 C 531.433 -1.27671 -4.32448 0
M  V30 5797 C 530.095 -1.63227 -4.5267 0
M  V30 5798 C 532.447 -2.13511 -4.7546 0
M  V30 5799 C 529.775 -2.84401 -5.1316 0
M  V30 5800 C 532.127 -3.33922 -5.37289 0
M  V30 5801 C 530.791 -3.69747 -5.55737 0
M  V30 5802 H 530.061 -0.0304276 -0.740375 0
M  V30 5803 H 532.708 -0.772239 -1.75239 0
M  V30 5804 H 531.013 0.793454 -3.83682 0
M  V30 5805 H 532.71 0.431942 -3.98667 0
M  V30 5806 H 529.3 -0.989937 -4.17011 0
M  V30 5807 H 533.484 -1.87344 -4.59582 0
M  V30 5808 H 528.74 -3.12282 -5.25633 0
M  V30 5809 H 532.914 -4.00698 -5.69574 0
M  V30 5810 H 530.541 -4.6373 -6.02377 0
M  V30 5811 N 532.116 1.54067 -0.331816 0
M  V30 5812 C 533.066 2.21363 0.546101 0
M  V30 5813 C 534.05 1.19698 1.07523 0
M  V30 5814 O 535.242 1.45293 1.01088 0
M  V30 5815 C 532.371 2.98115 1.70242 0
M  V30 5816 C 531.457 4.07127 1.18779 0
M  V30 5817 N 531.848 5.04267 0.393465 0
M  V30 5818 C 530.146 4.21226 1.46576 0
M  V30 5819 C 530.847 5.81585 0.115572 0
M  V30 5820 N 529.823 5.39022 0.703987 0
M  V30 5821 H 533.625 2.93821 -0.0679751 0
M  V30 5822 H 531.139 1.61812 -0.138085 0
M  V30 5823 H 533.136 3.44818 2.34321 0
M  V30 5824 H 531.796 2.27181 2.31989 0
M  V30 5825 H 532.807 5.17888 0.0355757 0
M  V30 5826 H 529.484 3.61509 2.08848 0
M  V30 5827 H 530.874 6.6985 -0.524426 0
M  V30 5828 N 533.594 0.0601682 1.57485 0
M  V30 5829 C 534.524 -0.90889 2.15085 0
M  V30 5830 C 535.505 -1.31838 1.07484 0
M  V30 5831 O 536.69 -1.3915 1.35466 0
M  V30 5832 C 533.82 -2.18059 2.7031 0
M  V30 5833 C 532.774 -1.91088 3.82974 0
M  V30 5834 C 532.1 -3.24789 4.24754 0
M  V30 5835 C 533.4 -1.22535 5.07723 0
M  V30 5836 H 535.094 -0.429093 2.96309 0
M  V30 5837 H 532.64 -0.204952 1.42534 0
M  V30 5838 H 534.593 -2.86258 3.09248 0
M  V30 5839 H 533.317 -2.6826 1.8629 0
M  V30 5840 H 531.976 -1.25297 3.44523 0
M  V30 5841 H 531.624 -3.72809 3.37672 0
M  V30 5842 H 531.324 -3.07538 5.00694 0
M  V30 5843 H 532.848 -3.94205 4.66299 0
M  V30 5844 H 534.262 -1.80783 5.4405 0
M  V30 5845 H 532.659 -1.1558 5.88864 0
M  V30 5846 H 533.729 -0.202692 4.84476 0
M  V30 5847 N 535.072 -1.5615 -0.213296 0
M  V30 5848 C 536.3 -1.83638 -0.953139 0
M  V30 5849 C 536.715 -0.640362 -1.77609 0
M  V30 5850 O 536.072 0.391071 -1.78261 0
M  V30 5851 C 536.123 -3.09735 -1.86405 0
M  V30 5852 O 535.844 -4.24723 -1.07435 0
M  V30 5853 C 537.345 -3.5027 -2.71709 0
M  V30 5854 H 534.565 -0.610263 -0.278962 0
M  V30 5855 H 537.109 -2.03247 -0.226035 0
M  V30 5856 H 535.264 -2.92077 -2.545 0
M  V30 5857 H 535.678 -4.9641 -1.69343 0
M  V30 5858 H 537.152 -4.41515 -3.31313 0
M  V30 5859 H 537.629 -2.72406 -3.44516 0
M  V30 5860 H 538.235 -3.70396 -2.09015 0
M  V30 5861 N 536.55 0.480323 -1.50102 0
M  V30 5862 C 537.961 1.06142 -1.53593 0
M  V30 5863 C 538.312 1.93335 -0.334055 0
M  V30 5864 O 537.437 2.09188 0.55403 0
M  V30 5865 C 538.032 1.9317 -2.78336 0
M  V30 5866 C 536.591 2.46405 -2.84538 0
M  V30 5867 C 535.738 1.24521 -2.4777 0
M  V30 5868 H 538.689 0.26333 -1.565 0
M  V30 5869 H 538.71 2.78123 -2.59669 0
M  V30 5870 H 538.222 1.29683 -3.65792 0
M  V30 5871 H 536.323 3.13472 -2.01411 0
M  V30 5872 H 536.436 2.82143 -3.87211 0
M  V30 5873 H 534.8 1.57706 -2.00003 0
M  V30 5874 H 535.583 0.627102 -3.37524 0
M  V30 5875 N 538.028 1.39524 0.732853 0
M  V30 5876 C 539.274 1.37068 1.49467 0
M  V30 5877 C 539.607 -0.0327166 1.94172 0
M  V30 5878 O 538.882 -0.998071 1.66939 0
M  V30 5879 C 539.165 2.34494 2.73285 0
M  V30 5880 C 539.018 3.83784 2.34585 0
M  V30 5881 C 540.337 2.29717 3.75391 0
M  V30 5882 H 537.456 0.499206 0.542183 0
M  V30 5883 H 540.098 1.70532 0.837783 0
M  V30 5884 H 538.248 2.06087 3.29333 0
M  V30 5885 H 539.92 4.22949 1.84151 0
M  V30 5886 H 538.163 4.00455 1.66787 0
M  V30 5887 H 538.834 4.47444 3.23262 0
M  V30 5888 H 541.31 2.54839 3.28932 0
M  V30 5889 H 540.186 2.99962 4.59689 0
M  V30 5890 H 540.447 1.30291 4.22465 0
M  V30 5891 N 539.506 -0.963266 1.24736 0
M  V30 5892 C 540.439 -2.05758 0.986852 0
M  V30 5893 C 541.417 -1.62398 -0.0809272 0
M  V30 5894 O 542.601 -1.88414 0.0569347 0
M  V30 5895 C 539.728 -3.35135 0.490095 0
M  V30 5896 C 538.774 -3.97451 1.54709 0
M  V30 5897 S 539.607 -4.34519 3.12976 0
M  V30 5898 C 540.763 -5.67026 2.65014 0
M  V30 5899 H 540.996 -2.27539 1.91346 0
M  V30 5900 H 538.529 -1.10176 1.08169 0
M  V30 5901 H 540.487 -4.09962 0.21012 0
M  V30 5902 H 539.148 -3.11335 -0.415873 0
M  V30 5903 H 538.341 -4.90704 1.15003 0
M  V30 5904 H 537.943 -3.29071 1.77731 0
M  V30 5905 H 540.235 -6.44748 2.08102 0
M  V30 5906 H 541.178 -6.11594 3.56873 0
M  V30 5907 H 541.586 -5.25847 2.05294 0
M  V30 5908 N 540.985 -1.06182 -1.16461 0
M  V30 5909 C 542.21 -0.798599 -1.91408 0
M  V30 5910 C 542.635 0.640987 -1.76842 0
M  V30 5911 O 541.993 1.44652 -1.09296 0
M  V30 5912 C 542.041 -1.19665 -3.40165 0
M  V30 5913 O 541.145 -0.334768 -4.11039 0
M  V30 5914 H 540.486 -0.291961 -0.596368 0
M  V30 5915 H 543.016 -1.41732 -1.47557 0
M  V30 5916 H 543.026 -1.16772 -3.90933 0
M  V30 5917 H 541.701 -2.24526 -3.50087 0
M  V30 5918 H 540.278 -0.425168 -3.70468 0
M  V30 5919 N 542.463 1.3308 -0.844243 0
M  V30 5920 C 543.395 2.27954 -0.238671 0
M  V30 5921 C 544.408 1.51978 0.583665 0
M  V30 5922 O 545.597 1.73731 0.409857 0
M  V30 5923 C 542.697 3.31963 0.682185 0
M  V30 5924 C 541.87 4.37281 -0.101998 0
M  V30 5925 C 540.929 5.20928 0.743022 0
M  V30 5926 O 539.955 5.68914 0.180285 0
M  V30 5927 N 541.157 5.42738 2.0595 0
M  V30 5928 H 543.922 2.8056 -1.05386 0
M  V30 5929 H 541.483 1.4583 -0.70322 0
M  V30 5930 H 543.475 3.84828 1.25259 0
M  V30 5931 H 542.045 2.79594 1.39808 0
M  V30 5932 H 541.265 3.84843 -0.853802 0
M  V30 5933 H 542.553 5.04746 -0.641015 0
M  V30 5934 H 541.951 5.05463 2.54016 0
M  V30 5935 H 540.508 5.98639 2.57827 0
M  V30 5936 N 543.941 0.601185 1.45683 0
M  V30 5937 C 544.851 -0.123395 2.34275 0
M  V30 5938 C 545.867 -0.86702 1.5086 0
M  V30 5939 O 547.043 -0.826049 1.8368 0
M  V30 5940 C 544.108 -1.11237 3.2837 0
M  V30 5941 C 543.169 -0.371405 4.2769 0
M  V30 5942 C 542.402 -1.31327 5.1729 0
M  V30 5943 O 542.625 -2.55078 5.10188 0
M  V30 5944 O 541.559 -0.813811 5.96373 0
M  V30 5945 H 545.385 0.604483 2.97623 0
M  V30 5946 H 542.97 0.361477 1.44961 0
M  V30 5947 H 544.852 -1.68214 3.8637 0
M  V30 5948 H 543.527 -1.82139 2.67595 0
M  V30 5949 H 542.434 0.24067 3.73325 0
M  V30 5950 H 543.767 0.296998 4.91303 0
M  V30 5951 N 545.419 -1.53889 0.339982 0
M  V30 5952 C 546.329 -2.28604 -0.526988 0
M  V30 5953 C 547.345 -1.33578 -1.11503 0
M  V30 5954 O 548.521 -1.66612 -1.13148 0
M  V30 5955 C 545.586 -3.04164 -1.66389 0
M  V30 5956 C 544.647 -4.14809 -1.10599 0
M  V30 5957 C 543.88 -4.86756 -2.18871 0
M  V30 5958 O 544.103 -4.58343 -3.39526 0
M  V30 5959 O 543.037 -5.73289 -1.83366 0
M  V30 5960 H 546.863 -3.03594 0.0802707 0
M  V30 5961 H 544.448 -1.4903 0.105141 0
M  V30 5962 H 546.33 -3.51427 -2.32544 0
M  V30 5963 H 545.005 -2.32035 -2.25703 0
M  V30 5964 H 543.912 -3.71857 -0.409067 0
M  V30 5965 H 545.245 -4.89029 -0.557771 0
M  V30 5966 N 546.897 -0.0685191 -1.57451 0
M  V30 5967 C 548.143 0.602239 -1.93652 0
M  V30 5968 C 548.476 1.6946 -0.948526 0
M  V30 5969 O 547.751 1.94487 0.022782 0
M  V30 5970 C 548.034 1.18223 -3.4014 0
M  V30 5971 C 547.887 0.0967431 -4.49696 0
M  V30 5972 C 549.206 2.08872 -3.87377 0
M  V30 5973 H 546.325 0.217453 -0.70419 0
M  V30 5974 H 548.967 -0.133821 -1.89528 0
M  V30 5975 H 547.117 1.80953 -3.43785 0
M  V30 5976 H 548.789 -0.536155 -4.58174 0
M  V30 5977 H 547.032 -0.573063 -4.29998 0
M  V30 5978 H 547.703 0.542894 -5.49324 0
M  V30 5979 H 550.179 1.56081 -3.85717 0
M  V30 5980 H 549.055 2.46389 -4.90493 0
M  V30 5981 H 549.316 2.99572 -3.25129 0
M  V30 5982 N 548.375 1.56261 0.205012 0
M  V30 5983 C 549.285 1.96944 1.27476 0
M  V30 5984 C 550.301 0.875636 1.50362 0
M  V30 5985 O 551.477 1.18058 1.6317 0
M  V30 5986 C 548.542 2.29219 2.60115 0
M  V30 5987 C 547.603 3.52255 2.45387 0
M  V30 5988 C 546.836 3.8298 3.71701 0
M  V30 5989 O 547.059 3.15138 4.75441 0
M  V30 5990 O 545.993 4.76435 3.67823 0
M  V30 5991 H 549.819 2.88144 0.959527 0
M  V30 5992 H 547.404 1.43686 0.409217 0
M  V30 5993 H 549.286 2.51098 3.3842 0
M  V30 5994 H 547.961 1.4119 2.91285 0
M  V30 5995 H 546.868 3.35635 1.65227 0
M  V30 5996 H 548.201 4.40719 2.19152 0
M  V30 5997 N 549.853 -0.472356 1.50355 0
M  V30 5998 C 550.803 -1.56809 1.65514 0
M  V30 5999 C 551.787 -1.5261 0.509801 0
M  V30 6000 O 552.979 -1.59655 0.764145 0
M  V30 6001 C 550.108 -2.9526 1.75146 0
M  V30 6002 C 549.194 -3.04348 2.95353 0
M  V30 6003 N 549.585 -2.83253 4.19048 0
M  V30 6004 C 547.883 -3.35482 2.93884 0
M  V30 6005 C 548.584 -2.97273 5.00003 0
M  V30 6006 N 547.56 -3.27418 4.33934 0
M  V30 6007 H 551.362 -1.39197 2.58846 0
M  V30 6008 H 548.876 -0.67906 1.47521 0
M  V30 6009 H 550.873 -3.74044 1.8411 0
M  V30 6010 H 549.533 -3.1392 0.829717 0
M  V30 6011 H 550.544 -2.5886 4.48567 0
M  V30 6012 H 547.221 -3.60138 2.11204 0
M  V30 6013 H 548.611 -2.85214 6.08361 0
M  V30 6014 N 551.331 -1.39911 -0.725443 0
M  V30 6015 C 552.577 -1.38862 -1.48624 0
M  V30 6016 C 552.932 0.0125913 -1.92396 0
M  V30 6017 O 552.225 0.981046 -1.64578 0
M  V30 6018 C 552.419 -2.30368 -2.7325 0
M  V30 6019 C 552.248 -3.79247 -2.41665 0
M  V30 6020 C 551.018 -4.48119 -2.3349 0
M  V30 6021 C 553.216 -4.70988 -2.06579 0
M  V30 6022 N 551.198 -5.82282 -1.94476 0
M  V30 6023 C 552.569 -5.93873 -1.78087 0
M  V30 6024 C 554.624 -4.58917 -1.9313 0
M  V30 6025 C 553.327 -7.06036 -1.37499 0
M  V30 6026 C 555.353 -5.71012 -1.53946 0
M  V30 6027 C 554.715 -6.92976 -1.26345 0
M  V30 6028 H 550.814 -0.563394 -0.54232 0
M  V30 6029 H 553.398 -1.75542 -0.842213 0
M  V30 6030 H 551.569 -1.95831 -3.35417 0
M  V30 6031 H 553.301 -2.20245 -3.39521 0
M  V30 6032 H 550.056 -4.01677 -2.50904 0
M  V30 6033 H 550.48 -6.53307 -1.77535 0
M  V30 6034 H 555.122 -3.65149 -2.13134 0
M  V30 6035 H 552.84 -7.99697 -1.16237 0
M  V30 6036 H 556.426 -5.63664 -1.44132 0
M  V30 6037 H 555.306 -7.78243 -0.964787 0
M  V30 6038 N 552.809 0.956637 -1.25245 0
M  V30 6039 C 554.056 1.701 -1.09874 0
M  V30 6040 C 554.384 1.91128 0.36062 0
M  V30 6041 O 553.639 1.47837 1.28229 0
M  V30 6042 C 553.938 3.08996 -1.79601 0
M  V30 6043 C 553.604 3.07774 -3.29523 0
M  V30 6044 C 552.266 3.07149 -3.70423 0
M  V30 6045 C 554.618 3.01257 -4.25316 0
M  V30 6046 C 551.946 2.97752 -5.0553 0
M  V30 6047 C 554.298 2.93403 -5.60444 0
M  V30 6048 C 552.962 2.91111 -6.00675 0
M  V30 6049 H 552.232 0.62244 -0.402056 0
M  V30 6050 H 554.879 1.1178 -1.55491 0
M  V30 6051 H 553.184 3.70848 -1.26408 0
M  V30 6052 H 554.881 3.65407 -1.65162 0
M  V30 6053 H 551.471 3.09032 -2.9698 0
M  V30 6054 H 555.655 3.00861 -3.9471 0
M  V30 6055 H 550.911 2.94346 -5.35883 0
M  V30 6056 H 555.085 2.87321 -6.34366 0
M  V30 6057 H 552.712 2.83586 -7.05325 0
M  V30 6058 N 554.287 1.06798 1.15896 0
M  V30 6059 C 555.517 0.807522 1.90165 0
M  V30 6060 C 555.925 -0.642417 1.7796 0
M  V30 6061 O 555.268 -1.45193 1.12537 0
M  V30 6062 C 555.33 1.12939 3.41299 0
M  V30 6063 C 554.994 2.57879 3.7729 0
M  V30 6064 C 555.991 3.56118 3.78782 0
M  V30 6065 C 553.676 2.93311 4.07767 0
M  V30 6066 C 555.67 4.87827 4.10248 0
M  V30 6067 C 553.357 4.25219 4.38899 0
M  V30 6068 C 554.355 5.22287 4.4012 0
M  V30 6069 O 554.043 6.51826 4.70508 0
M  V30 6070 H 553.775 0.291946 0.609708 0
M  V30 6071 H 556.329 1.42627 1.47806 0
M  V30 6072 H 554.559 0.45359 3.84031 0
M  V30 6073 H 556.248 0.852363 3.9685 0
M  V30 6074 H 557.014 3.30086 3.55342 0
M  V30 6075 H 552.893 2.18409 4.05979 0
M  V30 6076 H 556.437 5.63586 4.11116 0
M  V30 6077 H 552.334 4.51006 4.61805 0
M  V30 6078 H 553.102 6.56893 4.88298 0
M  V30 6079 N 555.766 -1.3263 0.851289 0
M  V30 6080 C 557.177 -1.79653 0.5081 0
M  V30 6081 C 557.528 -1.70327 -0.973815 0
M  V30 6082 O 556.653 -1.25986 -1.75944 0
M  V30 6083 C 557.248 -3.26196 0.915515 0
M  V30 6084 C 555.807 -3.71187 0.624277 0
M  V30 6085 C 554.954 -2.53804 1.11709 0
M  V30 6086 H 557.905 -1.19976 1.03882 0
M  V30 6087 H 557.926 -3.79801 0.230535 0
M  V30 6088 H 557.438 -3.32952 1.99411 0
M  V30 6089 H 555.539 -3.69948 -0.443737 0
M  V30 6090 H 555.652 -4.64132 1.18821 0
M  V30 6091 H 554.016 -2.48964 0.537484 0
M  V30 6092 H 554.799 -2.63315 2.20272 0
M  V30 6093 N 557.244 -0.608902 -1.45362 0
M  V30 6094 C 558.176 0.147318 -2.28726 0
M  V30 6095 C 559.189 0.830468 -1.40025 0
M  V30 6096 O 560.378 0.695636 -1.64387 0
M  V30 6097 C 557.478 1.22968 -3.15804 0
M  V30 6098 C 556.651 0.633391 -4.3279 0
M  V30 6099 C 555.71 1.60682 -5.01067 0
M  V30 6100 O 554.736 1.13261 -5.57818 0
M  V30 6101 N 555.938 2.94123 -5.00472 0
M  V30 6102 H 558.703 -0.568014 -2.94268 0
M  V30 6103 H 556.264 -0.448479 -1.55564 0
M  V30 6104 H 558.256 1.88072 -3.58345 0
M  V30 6105 H 556.826 1.84752 -2.52162 0
M  V30 6106 H 556.046 -0.195762 -3.93714 0
M  V30 6107 H 557.334 0.215255 -5.08344 0
M  V30 6108 H 556.732 3.3525 -4.55657 0
M  V30 6109 H 555.289 3.54646 -5.46872 0
M  V30 6110 N 558.722 1.53707 -0.348139 0
M  V30 6111 C 559.632 2.28881 0.514857 0
M  V30 6112 C 560.648 1.34168 1.10793 0
M  V30 6113 O 561.824 1.6721 1.12262 0
M  V30 6114 C 558.889 3.05042 1.64774 0
M  V30 6115 C 557.95 4.15389 1.08398 0
M  V30 6116 C 557.183 4.87909 2.16287 0
M  V30 6117 O 557.406 4.60137 3.3709 0
M  V30 6118 O 556.34 5.74254 1.80323 0
M  V30 6119 H 560.166 3.03547 -0.0963699 0
M  V30 6120 H 557.751 1.48972 -0.113043 0
M  V30 6121 H 559.633 3.52656 2.30677 0
M  V30 6122 H 558.308 2.33228 2.24469 0
M  V30 6123 H 557.215 3.72068 0.389341 0
M  V30 6124 H 558.548 4.89318 0.531829 0
M  V30 6125 N 560.2 0.0768682 1.57412 0
M  V30 6126 C 561.148 -0.906229 2.1422 0
M  V30 6127 C 562.142 -1.30477 1.08037 0
M  V30 6128 O 563.348 -1.28143 1.2641 0
M  V30 6129 H 559.723 -0.310207 0.685037 0
M  V30 6130 H 561.694 -0.402228 2.95677 0
M  V30 6131 C 560.443 -2.16245 2.72274 0
M  V30 6132 H 559.766 -1.86463 3.53655 0
M  V30 6133 H 561.206 -2.83134 3.15613 0
M  V30 6134 C 559.665 -2.92437 1.67279 0
M  V30 6135 O 560.195 -3.86322 1.10081 0
M  V30 6136 N 558.401 -2.55637 1.38195 0
M  V30 6137 H 557.948 -1.79363 1.84897 0
M  V30 6138 H 557.906 -3.06919 0.681787 0
M  V30 6139 N 561.678 -1.56367 -0.196722 0
M  V30 6140 C 562.927 -1.79724 -0.915539 0
M  V30 6141 C 563.24 -0.649804 -1.84491 0
M  V30 6142 O 564.446 -0.767631 -2.60422 0
M  V30 6143 C 562.902 -3.18369 -1.67836 0
M  V30 6144 C 562.51 -4.4091 -0.793897 0
M  V30 6145 C 564.254 -3.51037 -2.38691 0
M  V30 6146 C 562.161 -5.70577 -1.55549 0
M  V30 6147 H 561.091 -0.67013 -0.345604 0
M  V30 6148 H 563.742 -1.82721 -0.168856 0
M  V30 6149 H 562.124 -3.09617 -2.46887 0
M  V30 6150 H 563.298 -4.60781 -0.042163 0
M  V30 6151 H 561.613 -4.15937 -0.19626 0
M  V30 6152 H 564.21 -4.4515 -2.96219 0
M  V30 6153 H 564.553 -2.74704 -3.12799 0
M  V30 6154 H 565.086 -3.61229 -1.66608 0
M  V30 6155 H 561.825 -6.49871 -0.857226 0
M  V30 6156 H 561.345 -5.54726 -2.2812 0
M  V30 6157 H 563.024 -6.11637 -2.10971 0
M  V30 6158 N 563.156 0.464375 -1.50603 0
M  V30 6159 C 564.405 1.21277 -1.61167 0
M  V30 6160 C 564.718 1.92953 -0.320704 0
M  V30 6161 O 565.924 2.69778 -0.30534 0
M  V30 6162 C 564.38 2.20403 -2.84518 0
M  V30 6163 C 563.988 1.54499 -4.20516 0
M  V30 6164 C 565.732 2.95843 -3.0443 0
M  V30 6165 C 563.639 2.51951 -5.35047 0
M  V30 6166 H 562.569 0.456367 -0.600204 0
M  V30 6167 H 565.22 0.48254 -1.77042 0
M  V30 6168 H 563.602 2.96746 -2.62217 0
M  V30 6169 H 564.776 0.83899 -4.53098 0
M  V30 6170 H 563.091 0.913152 -4.06264 0
M  V30 6171 H 565.688 3.6879 -3.87167 0
M  V30 6172 H 566.031 3.55622 -2.16423 0
M  V30 6173 H 566.564 2.26611 -3.26944 0
M  V30 6174 H 563.303 1.96901 -6.25228 0
M  V30 6175 H 562.823 3.20683 -5.06875 0
M  V30 6176 H 564.502 3.13643 -5.65895 0
M  V30 6177 N 564.634 1.40294 0.718013 0
M  V30 6178 C 565.911 1.2894 1.47084 0
M  V30 6179 C 566.291 -0.0933625 2.10893 0
M  V30 6180 O 565.639 -1.10598 1.99951 0
M  V30 6181 C 565.849 2.4264 2.50852 0
M  V30 6182 C 567.197 2.8276 3.16752 0
M  V30 6183 O 568.221 2.42215 2.61171 0
M  V30 6184 O 567.08 3.528 4.17366 0
M  V30 6185 H 564.174 0.506236 0.653952 0
M  V30 6186 H 566.72 1.52208 0.750394 0
M  V30 6187 H 565.492 3.35009 2.022 0
M  V30 6188 H 565.115 2.21129 3.30435 0
M  V30 6189 N 566.112 -0.949982 1.2575 0
M  V30 6190 C 567.34 -1.72972 1.13527 0
M  V30 6191 C 567.755 -1.8623 -0.310453 0
M  V30 6192 O 567.112 -1.36336 -1.2132 0
M  V30 6193 C 567.163 -3.14108 1.78936 0
M  V30 6194 O 566.884 -3.01493 3.17858 0
M  V30 6195 C 568.385 -4.08338 1.72554 0
M  V30 6196 H 565.605 -0.541864 0.395758 0
M  V30 6197 H 568.149 -1.19151 1.66202 0
M  V30 6198 H 566.304 -3.64858 1.30221 0
M  V30 6199 H 566.718 -3.90559 3.50092 0
M  V30 6200 H 568.192 -5.04963 2.22973 0
M  V30 6201 H 568.669 -4.33742 0.690251 0
M  V30 6202 H 569.275 -3.63506 2.2078 0
M  V30 6203 N 567.59 -1.07411 -1.15328 0
M  V30 6204 C 568.837 -0.797649 -1.86128 0
M  V30 6205 C 569.165 0.676298 -1.82364 0
M  V30 6206 O 568.42 1.51223 -1.24218 0
M  V30 6207 C 568.719 -1.25191 -3.34757 0
M  V30 6208 C 568.385 -2.73191 -3.58716 0
M  V30 6209 C 567.047 -3.13616 -3.64964 0
M  V30 6210 C 569.399 -3.68718 -3.6837 0
M  V30 6211 C 566.727 -4.48383 -3.78377 0
M  V30 6212 C 569.079 -5.03248 -3.83306 0
M  V30 6213 C 567.743 -5.43293 -3.878 0
M  V30 6214 H 567.013 -0.29188 -0.681092 0
M  V30 6215 H 569.66 -1.34524 -1.36292 0
M  V30 6216 H 567.965 -0.623712 -3.86804 0
M  V30 6217 H 569.662 -1.01489 -3.87945 0
M  V30 6218 H 566.252 -2.40898 -3.54494 0
M  V30 6219 H 570.436 -3.38614 -3.62842 0
M  V30 6220 H 565.692 -4.78877 -3.80114 0
M  V30 6221 H 569.866 -5.77142 -3.89718 0
M  V30 6222 H 567.493 -6.47721 -3.97946 0
M  V30 6223 N 569.068 1.32177 -0.85831 0
M  V30 6224 C 570.314 1.97417 -0.46417 0
M  V30 6225 C 570.647 1.67746 0.978514 0
M  V30 6226 O 569.922 0.967654 1.68721 0
M  V30 6227 C 570.205 3.53069 -0.708094 0
M  V30 6228 C 570.058 3.92357 -2.19946 0
M  V30 6229 C 571.377 4.39783 -0.166881 0
M  V30 6230 H 568.496 0.717097 -0.17012 0
M  V30 6231 H 571.138 1.56499 -1.07741 0
M  V30 6232 H 569.288 3.88054 -0.186128 0
M  V30 6233 H 570.96 3.67533 -2.78779 0
M  V30 6234 H 569.203 3.41384 -2.67656 0
M  V30 6235 H 569.874 5.00841 -2.32082 0
M  V30 6236 H 572.35 4.11556 -0.613285 0
M  V30 6237 H 571.226 5.47671 -0.367093 0
M  V30 6238 H 571.487 4.32196 0.930559 0
M  V30 6239 N 570.547 0.616602 1.45037 0
M  V30 6240 C 571.793 0.115501 2.02471 0
M  V30 6241 C 572.126 -1.25406 1.4828 0
M  V30 6242 O 571.401 -1.82922 0.661051 0
M  V30 6243 C 571.684 0.0863588 3.59996 0
M  V30 6244 C 571.537 1.48723 4.24501 0
M  V30 6245 C 572.856 -0.596762 4.36035 0
M  V30 6246 H 569.975 0.0434461 0.735718 0
M  V30 6247 H 572.617 0.7903 1.72784 0
M  V30 6248 H 570.767 -0.488277 3.85419 0
M  V30 6249 H 572.439 2.10964 4.10234 0
M  V30 6250 H 570.682 2.04534 3.82555 0
M  V30 6251 H 571.353 1.419 5.3345 0
M  V30 6252 H 573.829 -0.10824 4.15959 0
M  V30 6253 H 572.705 -0.586289 5.4576 0
M  V30 6254 H 572.966 -1.66451 4.09569 0
M  V30 6255 N 572.025 -1.5352 0.356285 0
M  V30 6256 C 572.935 -2.29151 -0.502712 0
M  V30 6257 C 573.951 -1.34753 -1.1008 0
M  V30 6258 O 575.127 -1.67803 -1.11374 0
M  V30 6259 C 572.192 -3.05911 -1.63154 0
M  V30 6260 C 571.253 -4.15958 -1.06194 0
M  V30 6261 C 570.486 -4.8905 -2.13696 0
M  V30 6262 O 570.709 -4.61919 -3.34645 0
M  V30 6263 O 569.643 -5.75202 -1.77275 0
M  V30 6264 H 573.469 -3.03492 0.112466 0
M  V30 6265 H 571.054 -1.4891 0.120942 0
M  V30 6266 H 572.936 -3.53874 -2.28804 0
M  V30 6267 H 571.611 -2.34415 -2.23229 0
M  V30 6268 H 570.518 -3.7227 -0.369603 0
M  V30 6269 H 571.851 -4.89593 -0.505872 0
M  V30 6270 N 573.503 -0.0852151 -1.57369 0
M  V30 6271 C 574.451 0.894856 -2.14698 0
M  V30 6272 C 575.445 1.29903 -1.08727 0
M  V30 6273 O 576.651 1.27471 -1.27088 0
M  V30 6274 H 573.026 0.306569 -0.686673 0
M  V30 6275 H 574.997 0.386542 -2.95886 0
M  V30 6276 C 573.746 2.14798 -2.73417 0
M  V30 6277 H 573.069 1.84585 -3.54638 0
M  V30 6278 H 574.509 2.81456 -3.1711 0
M  V30 6279 C 572.968 2.91546 -1.68828 0
M  V30 6280 O 573.498 3.85733 -1.12129 0
M  V30 6281 N 571.704 2.54901 -1.39549 0
M  V30 6282 H 571.251 1.7838 -1.85845 0
M  V30 6283 H 571.209 3.06553 -0.698054 0
M  V30 6284 N 574.981 1.5647 0.188427 0
M  V30 6285 C 575.944 1.9421 1.21718 0
M  V30 6286 C 576.944 0.823901 1.38089 0
M  V30 6287 O 578.134 1.09122 1.35787 0
M  V30 6288 C 575.266 2.22197 2.58537 0
M  V30 6289 H 576.459 2.86252 0.894418 0
M  V30 6290 H 574.012 1.50263 0.430211 0
M  V30 6291 H 574.747 1.32814 2.95856 0
M  V30 6292 H 574.532 3.03688 2.48025 0
M  V30 6293 H 576.022 2.52376 3.3271 0
M  V30 6294 N 576.459 -0.456382 1.50847 0
M  V30 6295 C 577.407 -1.57318 1.71329 0
M  V30 6296 C 578.401 -1.59187 0.579287 0
M  V30 6297 O 579.607 -1.6316 0.76018 0
M  V30 6298 H 575.982 -0.5223 0.541024 0
M  V30 6299 H 577.953 -1.3721 2.64983 0
M  V30 6300 C 576.702 -2.95142 1.83811 0
M  V30 6301 H 576.025 -2.94428 2.70467 0
M  V30 6302 H 577.465 -3.72702 2.02161 0
M  V30 6303 C 575.924 -3.31636 0.593224 0
M  V30 6304 O 576.454 -4.00852 -0.260898 0
M  V30 6305 N 574.66 -2.87205 0.442902 0
M  V30 6306 H 574.207 -2.31051 1.13901 0
M  V30 6307 H 574.165 -3.11986 -0.38884 0
M  V30 6308 N 577.937 -1.40673 -0.710563 0
M  V30 6309 C 579.185 -1.38947 -1.46759 0
M  V30 6310 C 579.506 0.00572879 -1.94999 0
M  V30 6311 O 578.776 0.961358 -1.70689 0
M  V30 6312 H 577.356 -0.5114 -0.544499 0
M  V30 6313 H 580.018 -1.75773 -0.842012 0
M  V30 6314 H 579.114 -2.06745 -2.33801 0
M  V30 6315 N 579.415 0.9433 -1.26252 0
M  V30 6316 C 580.325 2.07532 -1.09397 0
M  V30 6317 C 581.341 1.73977 -0.0280449 0
M  V30 6318 O 582.517 2.00067 -0.231337 0
M  V30 6319 C 579.582 3.39002 -0.726523 0
M  V30 6320 C 578.643 3.86353 -1.87163 0
M  V30 6321 C 577.876 5.11549 -1.52162 0
M  V30 6322 O 578.099 5.68834 -0.422385 0
M  V30 6323 O 577.033 5.53889 -2.35565 0
M  V30 6324 H 580.859 2.24658 -2.04359 0
M  V30 6325 H 578.444 1.05988 -1.05295 0
M  V30 6326 H 580.326 4.18 -0.534236 0
M  V30 6327 H 579.001 3.2312 0.193721 0
M  V30 6328 H 577.908 3.0831 -2.11886 0
M  V30 6329 H 579.241 4.06752 -2.77152 0
M  V30 6330 N 580.893 1.08022 1.14757 0
M  V30 6331 C 582.139 0.808705 1.85978 0
M  V30 6332 C 582.472 -0.663764 1.82504 0
M  V30 6333 O 581.747 -1.48765 1.25296 0
M  V30 6334 C 582.03 1.32623 3.34788 0
M  V30 6335 C 581.883 2.86375 3.46856 0
M  V30 6336 C 583.202 0.948291 4.29762 0
M  V30 6337 H 580.321 0.295244 0.675278 0
M  V30 6338 H 582.963 1.33917 1.34783 0
M  V30 6339 H 581.113 0.875002 3.78518 0
M  V30 6340 H 582.785 3.39839 3.11941 0
M  V30 6341 H 581.028 3.24232 2.88194 0
M  V30 6342 H 581.699 3.17658 4.51439 0
M  V30 6343 H 584.175 1.33722 3.94028 0
M  V30 6344 H 583.051 1.33765 5.32352 0
M  V30 6345 H 583.312 -0.145094 4.41862 0
M  V30 6346 N 582.371 -1.3172 0.865308 0
M  V30 6347 C 583.599 -2.01057 0.488251 0
M  V30 6348 C 584.014 -1.64979 -0.918 0
M  V30 6349 O 583.371 -0.876597 -1.60069 0
M  V30 6350 C 583.422 -3.55964 0.630224 0
M  V30 6351 O 583.143 -3.90749 1.98109 0
M  V30 6352 C 584.644 -4.42574 0.253567 0
M  V30 6353 H 581.864 -0.64332 0.190736 0
M  V30 6354 H 584.408 -1.68058 1.16519 0
M  V30 6355 H 582.563 -3.874 0.000895422 0
M  V30 6356 H 582.977 -4.85467 1.9855 0
M  V30 6357 H 584.451 -5.50521 0.403875 0
M  V30 6358 H 584.928 -4.31724 -0.806895 0
M  V30 6359 H 585.534 -4.16547 0.858404 0
M  V30 6360 N 583.85 -0.624285 -1.44708 0
M  V30 6361 C 585.127 -0.0572781 -1.95516 0
M  V30 6362 C 585.507 1.41516 -1.56641 0
M  V30 6363 O 584.855 2.12614 -0.837111 0
M  V30 6364 C 585.065 -0.272944 -3.47931 0
M  V30 6365 C 586.413 -0.162529 -4.24289 0
M  V30 6366 O 587.437 -0.203946 -3.55616 0
M  V30 6367 O 586.296 -0.0616847 -5.46465 0
M  V30 6368 H 583.389 0.0262219 -0.826584 0
M  V30 6369 H 585.936 -0.695512 -1.54793 0
M  V30 6370 H 584.707 -1.29492 -3.69253 0
M  V30 6371 H 584.331 0.399756 -3.95585 0
M  V30 6372 N 585.328 1.53329 -0.364422 0
M  V30 6373 C 586.575 2.01239 0.225634 0
M  V30 6374 C 586.903 1.25172 1.48869 0
M  V30 6375 O 586.158 0.333289 1.92841 0
M  V30 6376 C 586.457 3.52911 0.564661 0
M  V30 6377 C 586.123 4.46837 -0.603936 0
M  V30 6378 C 584.785 4.72234 -0.924585 0
M  V30 6379 C 587.137 5.02409 -1.38691 0
M  V30 6380 C 584.465 5.50454 -2.0302 0
M  V30 6381 C 586.817 5.81836 -2.48293 0
M  V30 6382 C 585.481 6.0552 -2.80894 0
M  V30 6383 H 584.751 0.736386 0.0825654 0
M  V30 6384 H 587.398 1.84948 -0.496645 0
M  V30 6385 H 585.703 3.67144 1.36794 0
M  V30 6386 H 587.4 3.87455 1.03344 0
M  V30 6387 H 583.99 4.27217 -0.343983 0
M  V30 6388 H 588.174 4.82735 -1.15243 0
M  V30 6389 H 583.43 5.67024 -2.28678 0
M  V30 6390 H 587.604 6.23905 -3.0938 0
M  V30 6391 H 585.231 6.65916 -3.66688 0
M  V30 6392 N 586.806 0.0935595 1.57322 0
M  V30 6393 C 587.736 -0.863062 2.16964 0
M  V30 6394 C 588.717 -1.29528 1.10256 0
M  V30 6395 O 589.902 -1.36245 1.38387 0
M  V30 6396 C 587.032 -2.12276 2.74875 0
M  V30 6397 C 585.986 -1.82921 3.86942 0
M  V30 6398 C 585.312 -3.15707 4.31548 0
M  V30 6399 C 586.612 -1.11737 5.10208 0
M  V30 6400 H 588.306 -0.366145 2.97153 0
M  V30 6401 H 585.852 -0.174673 1.42937 0
M  V30 6402 H 587.805 -2.79634 3.1525 0
M  V30 6403 H 586.529 -2.64248 1.91938 0
M  V30 6404 H 585.188 -1.17961 3.47103 0
M  V30 6405 H 584.836 -3.65563 3.45504 0
M  V30 6406 H 584.536 -2.96849 5.07104 0
M  V30 6407 H 586.06 -3.84226 4.74555 0
M  V30 6408 H 587.474 -1.69203 5.47762 0
M  V30 6409 H 585.871 -1.03064 5.91183 0
M  V30 6410 H 586.941 -0.0998818 4.84797 0
M  V30 6411 N 588.284 -1.56567 -0.180126 0
M  V30 6412 C 589.509 -1.85975 -0.918041 0
M  V30 6413 C 589.934 -0.678888 -1.75422 0
M  V30 6414 O 589.292 0.372168 -1.77439 0
M  V30 6415 C 589.34 -3.13731 -1.77779 0
M  V30 6416 O 588.444 -2.95335 -2.87838 0
M  V30 6417 H 587.785 -0.61196 -0.257683 0
M  V30 6418 H 590.315 -2.03798 -0.180923 0
M  V30 6419 H 590.325 -3.4491 -2.17948 0
M  V30 6420 H 589 -3.99293 -1.16352 0
M  V30 6421 H 587.577 -2.7549 -2.51316 0
M  V30 6422 N 589.762 0.448376 -1.51087 0
M  V30 6423 C 591.009 1.19872 -1.63209 0
M  V30 6424 C 591.337 1.91451 -0.343062 0
M  V30 6425 O 590.592 1.83789 0.672321 0
M  V30 6426 C 590.891 2.24866 -2.77795 0
M  V30 6427 C 590.557 1.70378 -4.17471 0
M  V30 6428 C 589.219 1.55241 -4.55471 0
M  V30 6429 C 591.571 1.30203 -5.04675 0
M  V30 6430 C 588.899 0.983844 -5.78392 0
M  V30 6431 C 591.251 0.747798 -6.28165 0
M  V30 6432 C 589.915 0.583233 -6.64947 0
M  V30 6433 H 589.185 0.438642 -0.597222 0
M  V30 6434 H 591.832 0.49136 -1.85089 0
M  V30 6435 H 590.137 3.01598 -2.50092 0
M  V30 6436 H 591.834 2.82723 -2.84374 0
M  V30 6437 H 588.424 1.83134 -3.87505 0
M  V30 6438 H 592.608 1.40723 -4.75932 0
M  V30 6439 H 587.864 0.844007 -6.05546 0
M  V30 6440 H 592.038 0.427927 -6.95084 0
M  V30 6441 H 589.665 0.140532 -7.6007 0
M  V30 6442 N 591.24 1.41047 0.703093 0
M  V30 6443 C 592.47 1.43133 1.48985 0
M  V30 6444 C 592.878 0.0328537 1.89171 0
M  V30 6445 O 592.221 -0.956469 1.56835 0
M  V30 6446 C 592.283 2.26991 2.78775 0
M  V30 6447 C 591.947 3.7525 2.60837 0
M  V30 6448 C 592.944 4.67591 2.27276 0
M  V30 6449 C 590.629 4.19208 2.76712 0
M  V30 6450 C 592.623 6.01877 2.09817 0
M  V30 6451 C 590.31 5.53561 2.5887 0
M  V30 6452 C 591.308 6.4471 2.25472 0
M  V30 6453 O 590.996 7.76584 2.07778 0
M  V30 6454 H 590.728 0.489788 0.465922 0
M  V30 6455 H 593.282 1.85886 0.873822 0
M  V30 6456 H 591.512 1.79038 3.42757 0
M  V30 6457 H 593.201 2.20867 3.40547 0
M  V30 6458 H 593.967 4.34923 2.14633 0
M  V30 6459 H 589.846 3.48572 3.01693 0
M  V30 6460 H 593.39 6.72986 1.83671 0
M  V30 6461 H 589.287 5.85811 2.71102 0
M  V30 6462 H 590.055 7.87649 2.22601 0
M  V30 6463 N 592.718 -0.936591 1.26751 0
M  V30 6464 C 593.946 -1.71758 1.15355 0
M  V30 6465 C 594.361 -1.86549 -0.290683 0
M  V30 6466 O 593.718 -1.37616 -1.19868 0
M  V30 6467 C 593.769 -3.12193 1.82258 0
M  V30 6468 O 593.49 -2.98105 3.21038 0
M  V30 6469 C 594.991 -4.06485 1.76875 0
M  V30 6470 H 592.211 -0.537636 0.401483 0
M  V30 6471 H 594.755 -1.17382 1.67457 0
M  V30 6472 H 592.91 -3.63456 1.34083 0
M  V30 6473 H 593.324 -3.86824 3.54214 0
M  V30 6474 H 594.798 -5.02569 2.28316 0
M  V30 6475 H 595.275 -4.32986 0.736216 0
M  V30 6476 H 595.881 -3.61144 2.24623 0
M  V30 6477 N 594.196 -1.08629 -1.14182 0
M  V30 6478 C 595.126 -0.740003 -2.21464 0
M  V30 6479 C 596.107 0.278591 -1.67803 0
M  V30 6480 O 597.292 0.148461 -1.93632 0
M  V30 6481 C 594.422 -0.150952 -3.46972 0
M  V30 6482 C 593.376 -1.09815 -4.13672 0
M  V30 6483 C 592.702 -0.3712 -5.3341 0
M  V30 6484 C 594.002 -2.43722 -4.61949 0
M  V30 6485 H 595.696 -1.63697 -2.50686 0
M  V30 6486 H 593.242 -0.788526 -1.20492 0
M  V30 6487 H 595.195 0.103325 -4.21273 0
M  V30 6488 H 593.919 0.781164 -3.1712 0
M  V30 6489 H 592.578 -1.33756 -3.41328 0
M  V30 6490 H 592.226 0.564792 -4.99819 0
M  V30 6491 H 591.926 -1.00267 -5.78982 0
M  V30 6492 H 593.45 -0.12503 -6.10472 0
M  V30 6493 H 594.864 -2.24034 -5.27714 0
M  V30 6494 H 593.261 -3.02582 -5.18232 0
M  V30 6495 H 594.331 -3.05082 -3.76899 0
M  V30 6496 N 595.674 1.31259 -0.872281 0
M  V30 6497 C 597.085 1.78822 -0.536617 0
M  V30 6498 C 597.436 1.71855 0.946594 0
M  V30 6499 O 596.561 1.28769 1.73918 0
M  V30 6500 C 597.156 3.24698 -0.967294 0
M  V30 6501 C 595.715 3.70147 -0.683251 0
M  V30 6502 C 594.862 2.51994 -1.15733 0
M  V30 6503 H 597.813 1.18308 -1.05777 0
M  V30 6504 H 597.834 3.79386 -0.290929 0
M  V30 6505 H 597.346 3.29737 -2.04683 0
M  V30 6506 H 595.447 3.70607 0.384825 0
M  V30 6507 H 595.56 4.62183 -1.2619 0
M  V30 6508 H 593.924 2.48078 -0.577024 0
M  V30 6509 H 594.707 2.59778 -2.24434 0
M  V30 6510 N 597.152 0.631951 1.44375 0
M  V30 6511 C 598.377 0.142146 2.06912 0
M  V30 6512 C 598.802 -1.17456 1.4692 0
M  V30 6513 O 598.16 -1.72074 0.570975 0
M  V30 6514 C 598.208 0.0417952 3.60576 0
M  V30 6515 O 597.312 -1.00194 4.00044 0
M  V30 6516 H 596.653 0.0851491 0.658518 0
M  V30 6517 H 599.183 0.868863 1.85235 0
M  V30 6518 H 599.193 -0.148517 4.0773 0
M  V30 6519 H 597.868 1.0031 4.03622 0
M  V30 6520 H 596.445 -0.786131 3.64519 0
M  V30 6521 N 598.631 -1.53133 0.372548 0
M  V30 6522 C 599.859 -2.05774 -0.215515 0
M  V30 6523 C 600.274 -1.24555 -1.41886 0
M  V30 6524 O 599.631 -0.287951 -1.80214 0
M  V30 6525 C 599.682 -3.5645 -0.602161 0
M  V30 6526 O 599.403 -4.34591 0.553359 0
M  V30 6527 C 600.904 -4.25374 -1.24787 0
M  V30 6528 H 598.124 -0.670009 -0.0364529 0
M  V30 6529 H 600.668 -1.97434 0.532934 0
M  V30 6530 H 598.823 -3.64918 -1.30052 0
M  V30 6531 H 599.237 -5.23954 0.239336 0
M  V30 6532 H 600.711 -5.32097 -1.46891 0
M  V30 6533 H 601.188 -3.79531 -2.21026 0
M  V30 6534 H 601.794 -4.21177 -0.590752 0
M  V30 6535 N 600.109 -0.101901 -1.5727 0
M  V30 6536 C 601.358 0.559922 -1.93772 0
M  V30 6537 C 601.671 1.68913 -0.98629 0
M  V30 6538 O 602.877 2.41256 -1.24529 0
M  V30 6539 C 601.333 1.04739 -3.44322 0
M  V30 6540 C 600.941 -0.05243 -4.47969 0
M  V30 6541 C 602.685 1.68157 -3.89774 0
M  V30 6542 C 600.592 0.450781 -5.8968 0
M  V30 6543 H 599.522 0.212931 -0.723309 0
M  V30 6544 H 602.173 -0.179001 -1.82625 0
M  V30 6545 H 600.555 1.84021 -3.50645 0
M  V30 6546 H 601.729 -0.828157 -4.53297 0
M  V30 6547 H 600.044 -0.592202 -4.12167 0
M  V30 6548 H 602.641 2.0689 -4.93052 0
M  V30 6549 H 602.984 2.55338 -3.28798 0
M  V30 6550 H 603.517 0.954453 -3.8618 0
M  V30 6551 H 600.256 -0.38458 -6.54371 0
M  V30 6552 H 599.776 1.19336 -5.87809 0
M  V30 6553 H 601.455 0.917555 -6.40461 0
M  V30 6554 N 601.587 1.56661 0.17182 0
M  V30 6555 C 602.52 1.91474 1.24149 0
M  V30 6556 C 603.498 0.777485 1.42807 0
M  V30 6557 O 604.682 1.03075 1.57822 0
M  V30 6558 C 601.809 2.16523 2.60453 0
M  V30 6559 C 600.855 3.39209 2.58533 0
M  V30 6560 S 601.688 4.93594 2.07665 0
M  V30 6561 C 602.844 5.21737 3.45747 0
M  V30 6562 H 603.077 2.81903 0.944346 0
M  V30 6563 H 600.61 1.49743 0.376364 0
M  V30 6564 H 602.568 2.31635 3.38903 0
M  V30 6565 H 601.229 1.26802 2.87368 0
M  V30 6566 H 600.422 3.53935 3.58812 0
M  V30 6567 H 600.024 3.2321 1.88178 0
M  V30 6568 H 602.316 5.13684 4.41741 0
M  V30 6569 H 603.259 6.23361 3.35896 0
M  V30 6570 H 603.667 4.49307 3.41736 0
M  V30 6571 N 603.065 -0.440357 1.51323 0
M  V30 6572 C 604.013 -1.55492 1.72988 0
M  V30 6573 C 605.007 -1.58564 0.596138 0
M  V30 6574 O 606.213 -1.62345 0.777443 0
M  V30 6575 H 602.588 -0.516532 0.546533 0
M  V30 6576 H 604.559 -1.34392 2.66423 0
M  V30 6577 C 603.308 -2.93176 1.86931 0
M  V30 6578 H 602.631 -2.91543 2.73574 0
M  V30 6579 H 604.071 -3.70537 2.06103 0
M  V30 6580 C 602.53 -3.30988 0.628365 0
M  V30 6581 O 603.06 -4.01106 -0.218367 0
M  V30 6582 N 601.266 -2.86719 0.473339 0
M  V30 6583 H 600.813 -2.2983 1.16345 0
M  V30 6584 H 600.771 -3.12381 -0.355727 0
M  V30 6585 N 604.543 -1.41418 -0.695603 0
M  V30 6586 C 605.493 -1.39731 -1.80165 0
M  V30 6587 C 606.477 -0.271689 -1.5859 0
M  V30 6588 O 607.669 -0.512354 -1.69422 0
M  V30 6589 C 604.798 -1.28187 -3.1847 0
M  V30 6590 C 603.884 -2.45612 -3.45739 0
M  V30 6591 N 604.275 -3.71077 -3.43708 0
M  V30 6592 C 602.573 -2.39424 -3.76288 0
M  V30 6593 C 603.274 -4.48957 -3.69882 0
M  V30 6594 N 602.25 -3.7907 -3.89624 0
M  V30 6595 H 606.052 -2.34656 -1.76957 0
M  V30 6596 H 603.566 -1.35473 -0.89559 0
M  V30 6597 H 605.563 -1.2506 -3.977 0
M  V30 6598 H 604.223 -0.342468 -3.22889 0
M  V30 6599 H 605.234 -4.03963 -3.2409 0
M  V30 6600 H 601.911 -1.53955 -3.88077 0
M  V30 6601 H 603.301 -5.57887 -3.74448 0
M  V30 6602 N 606.021 0.929856 -1.27246 0
M  V30 6603 C 607.432 1.49223 -1.12203 0
M  V30 6604 C 607.783 1.93989 0.293731 0
M  V30 6605 O 606.908 1.80978 1.18642 0
M  V30 6606 C 607.503 2.71198 -2.0307 0
M  V30 6607 C 606.062 3.23666 -1.92139 0
M  V30 6608 C 605.209 1.96409 -1.95752 0
M  V30 6609 H 608.16 0.744181 -1.4017 0
M  V30 6610 H 608.181 3.45905 -1.58524 0
M  V30 6611 H 607.693 2.38585 -3.06102 0
M  V30 6612 H 605.794 3.61042 -0.920834 0
M  V30 6613 H 605.907 3.90006 -2.78267 0
M  V30 6614 H 604.271 2.12806 -1.39949 0
M  V30 6615 H 605.054 1.66113 -3.00436 0
M  V30 6616 N 607.499 1.09233 1.13605 0
M  V30 6617 C 608.727 0.848908 1.88683 0
M  V30 6618 C 609.142 -0.599667 1.79024 0
M  V30 6619 O 608.499 -1.41265 1.15544 0
M  V30 6620 C 608.55 1.27273 3.38355 0
M  V30 6621 O 608.271 2.66449 3.47759 0
M  V30 6622 C 609.772 1.0614 4.30406 0
M  V30 6623 H 606.992 0.305549 0.597395 0
M  V30 6624 H 609.536 1.4538 1.43823 0
M  V30 6625 H 607.691 0.711776 3.80805 0
M  V30 6626 H 608.105 2.84264 4.40788 0
M  V30 6627 H 609.579 1.40725 5.33761 0
M  V30 6628 H 610.056 -0.000960332 4.392 0
M  V30 6629 H 610.662 1.60821 3.93722 0
M  V30 6630 N 608.977 -1.30795 0.87923 0
M  V30 6631 C 609.927 -2.25838 0.313276 0
M  V30 6632 C 610.911 -1.51025 -0.55499 0
M  V30 6633 O 612.103 -1.72413 -0.400353 0
M  V30 6634 C 609.232 -3.39981 -0.476204 0
M  V30 6635 C 608.318 -4.22154 0.405826 0
M  V30 6636 N 608.709 -4.82934 1.50362 0
M  V30 6637 C 607.007 -4.45552 0.199909 0
M  V30 6638 C 607.708 -5.44444 2.0483 0
M  V30 6639 N 606.684 -5.26723 1.34403 0
M  V30 6640 H 610.486 -2.70374 1.15218 0
M  V30 6641 H 608 -1.45168 0.728003 0
M  V30 6642 H 609.997 -4.07108 -0.898251 0
M  V30 6643 H 608.657 -2.96986 -1.31261 0
M  V30 6644 H 609.668 -4.82319 1.8865 0
M  V30 6645 H 606.345 -4.13169 -0.599795 0
M  V30 6646 H 607.735 -6.02701 2.96986 0
M  V30 6647 N 610.455 -0.639598 -1.44038 0
M  V30 6648 C 611.402 0.0602458 -2.30721 0
M  V30 6649 C 612.372 0.828352 -1.43971 0
M  V30 6650 O 613.557 0.807693 -1.72861 0
M  V30 6651 C 610.697 1.03008 -3.29368 0
M  V30 6652 C 609.81 0.259502 -4.3122 0
M  V30 6653 C 608.945 1.22191 -5.16955 0
M  V30 6654 C 607.984 0.440978 -6.10509 0
M  V30 6655 N 607.121 1.35428 -6.88915 0
M  V30 6656 H 611.961 -0.684867 -2.90023 0
M  V30 6657 H 609.498 -0.349509 -1.42888 0
M  V30 6658 H 611.456 1.60583 -3.85057 0
M  V30 6659 H 610.086 1.74222 -2.71747 0
M  V30 6660 H 609.138 -0.432317 -3.77935 0
M  V30 6661 H 610.45 -0.348347 -4.97582 0
M  V30 6662 H 609.604 1.86873 -5.77203 0
M  V30 6663 H 608.343 1.86367 -4.50687 0
M  V30 6664 H 607.348 -0.219279 -5.49363 0
M  V30 6665 H 608.573 -0.196192 -6.78817 0
M  V30 6666 H 606.519 1.9831 -6.25307 0
M  V30 6667 H 606.436 0.800657 -7.51748 0
M  V30 6668 H 607.704 1.98967 -7.53679 0
M  V30 6669 N 611.933 1.52934 -0.380664 0
M  V30 6670 C 613.158 2.06363 0.207157 0
M  V30 6671 C 613.583 1.25122 1.4045 0
M  V30 6672 O 612.941 0.274062 1.79217 0
M  V30 6673 C 612.989 3.56162 0.563996 0
M  V30 6674 O 612.093 3.77552 1.65917 0
M  V30 6675 H 611.434 0.663468 0.0265859 0
M  V30 6676 H 613.964 1.9719 -0.545635 0
M  V30 6677 H 613.974 3.99453 0.830752 0
M  V30 6678 H 612.649 4.14732 -0.311427 0
M  V30 6679 H 611.226 3.46154 1.3868 0
M  V30 6680 N 613.412 0.11024 1.57214 0
M  V30 6681 C 614.342 -0.840002 2.17867 0
M  V30 6682 C 615.323 -1.28352 1.11624 0
M  V30 6683 O 616.508 -1.3477 1.39824 0
M  V30 6684 C 613.638 -2.09349 2.77111 0
M  V30 6685 C 612.592 -1.78807 3.8886 0
M  V30 6686 C 611.918 -3.11112 4.34872 0
M  V30 6687 C 613.218 -1.0632 5.11364 0
M  V30 6688 H 614.912 -0.334608 2.97524 0
M  V30 6689 H 612.458 -0.159502 1.43114 0
M  V30 6690 H 614.411 -2.76275 3.18198 0
M  V30 6691 H 613.135 -2.62198 1.9473 0
M  V30 6692 H 611.794 -1.14273 3.48335 0
M  V30 6693 H 611.442 -3.61877 3.49362 0
M  V30 6694 H 611.142 -2.91453 5.10224 0
M  V30 6695 H 612.666 -3.79171 4.78604 0
M  V30 6696 H 614.08 -1.63383 5.49526 0
M  V30 6697 H 612.477 -0.967876 5.92243 0
M  V30 6698 H 613.547 -0.0484569 4.84876 0
M  V30 6699 N 614.89 -1.56749 -0.16351 0
M  V30 6700 C 615.837 -1.97011 -1.2023 0
M  V30 6701 C 616.807 -0.835186 -1.43575 0
M  V30 6702 O 617.992 -1.09594 -1.56185 0
M  V30 6703 C 615.132 -2.34186 -2.53478 0
M  V30 6704 C 614.245 -3.60893 -2.37446 0
M  V30 6705 C 613.38 -3.87245 -3.63614 0
M  V30 6706 C 612.419 -5.07274 -3.42548 0
M  V30 6707 N 611.556 -5.29719 -4.60806 0
M  V30 6708 H 616.396 -2.85562 -0.851958 0
M  V30 6709 H 613.933 -1.41292 -0.409257 0
M  V30 6710 H 615.891 -2.53764 -3.31149 0
M  V30 6711 H 614.521 -1.48736 -2.86492 0
M  V30 6712 H 613.573 -3.49185 -1.50911 0
M  V30 6713 H 614.885 -4.48722 -2.1783 0
M  V30 6714 H 614.039 -4.07232 -4.49719 0
M  V30 6715 H 612.778 -2.97806 -3.86216 0
M  V30 6716 H 611.783 -4.87177 -2.5483 0
M  V30 6717 H 613.008 -5.98251 -3.2136 0
M  V30 6718 H 610.954 -4.43233 -4.83612 0
M  V30 6719 H 610.871 -6.11786 -4.44132 0
M  V30 6720 H 612.139 -5.54192 -5.48171 0
M  V30 6721 N 616.368 0.432326 -1.51554 0
M  V30 6722 C 617.331 1.50765 -1.72634 0
M  V30 6723 C 618.331 1.49334 -0.596314 0
M  V30 6724 O 619.521 1.51268 -0.863925 0
M  V30 6725 C 616.653 2.90284 -1.7874 0
M  V30 6726 H 617.846 1.33377 -2.68609 0
M  V30 6727 H 615.399 0.661329 -1.4162 0
M  V30 6728 H 616.134 3.13071 -0.845977 0
M  V30 6729 H 615.919 2.92727 -2.6087 0
M  V30 6730 H 617.409 3.68282 -1.96871 0
M  V30 6731 N 617.846 1.41785 0.688094 0
M  V30 6732 C 618.809 1.43936 1.78368 0
M  V30 6733 C 619.809 0.328866 1.57401 0
M  V30 6734 O 620.999 0.589093 1.63937 0
M  V30 6735 C 618.131 1.25804 3.16838 0
M  V30 6736 H 619.324 2.41472 1.77852 0
M  V30 6737 H 616.877 1.28037 0.896448 0
M  V30 6738 H 617.612 0.291386 3.22988 0
M  V30 6739 H 617.397 2.06272 3.33458 0
M  V30 6740 H 618.887 1.30162 3.96797 0
M  V30 6741 N 619.324 -0.923095 1.27737 0
M  V30 6742 C 620.554 -1.70277 1.17001 0
M  V30 6743 C 620.962 -1.87188 -0.275199 0
M  V30 6744 O 620.305 -1.39195 -1.19877 0
M  V30 6745 C 620.367 -3.11976 1.78637 0
M  V30 6746 C 620.031 -3.18386 3.27841 0
M  V30 6747 C 621.028 -3.00287 4.2441 0
M  V30 6748 C 618.713 -3.41198 3.68632 0
M  V30 6749 C 620.707 -3.04896 5.59747 0
M  V30 6750 C 618.394 -3.4544 5.04097 0
M  V30 6751 C 619.392 -3.27309 5.99465 0
M  V30 6752 O 619.08 -3.31295 7.32461 0
M  V30 6753 H 618.812 -0.539366 0.407505 0
M  V30 6754 H 621.366 -1.16446 1.69202 0
M  V30 6755 H 619.596 -3.67308 1.20919 0
M  V30 6756 H 621.285 -3.7193 1.6255 0
M  V30 6757 H 622.051 -2.825 3.94232 0
M  V30 6758 H 617.93 -3.54359 2.94873 0
M  V30 6759 H 621.474 -2.90662 6.34162 0
M  V30 6760 H 617.371 -3.62753 5.33929 0
M  V30 6761 H 618.139 -3.47719 7.40968 0
M  V30 6762 N 620.802 -1.09834 -1.13024 0
M  V30 6763 C 622.027 -0.85909 -1.88771 0
M  V30 6764 C 622.452 0.584402 -1.78791 0
M  V30 6765 O 621.81 1.41101 -1.13842 0
M  V30 6766 C 621.858 -1.30427 -3.36186 0
M  V30 6767 O 620.962 -0.465368 -4.09766 0
M  V30 6768 H 620.303 -0.310786 -0.586778 0
M  V30 6769 H 622.833 -1.46355 -1.42973 0
M  V30 6770 H 622.843 -1.2915 -3.8702 0
M  V30 6771 H 621.518 -2.3555 -3.42767 0
M  V30 6772 H 620.095 -0.542814 -3.68928 0
M  V30 6773 N 622.28 1.30327 -0.886154 0
M  V30 6774 C 623.527 1.96097 -0.505192 0
M  V30 6775 C 623.855 1.69952 0.945868 0
M  V30 6776 O 623.11 0.997653 1.68361 0
M  V30 6777 C 623.409 3.49906 -0.728042 0
M  V30 6778 C 623.075 3.96103 -2.15437 0
M  V30 6779 C 621.737 4.08428 -2.5444 0
M  V30 6780 C 624.089 4.20177 -3.08384 0
M  V30 6781 C 621.417 4.42189 -3.85598 0
M  V30 6782 C 623.769 4.55407 -4.39075 0
M  V30 6783 C 622.433 4.65941 -4.7797 0
M  V30 6784 H 621.703 0.71757 -0.184863 0
M  V30 6785 H 624.35 1.55171 -1.12223 0
M  V30 6786 H 622.655 3.9179 -0.027978 0
M  V30 6787 H 624.352 3.98869 -0.412862 0
M  V30 6788 H 620.942 3.87017 -1.84162 0
M  V30 6789 H 625.126 4.10134 -2.7947 0
M  V30 6790 H 620.382 4.48544 -4.15473 0
M  V30 6791 H 624.556 4.72986 -5.11133 0
M  V30 6792 H 622.183 4.91856 -5.79639 0
M  V30 6793 N 623.758 0.647228 1.43697 0
M  V30 6794 C 624.988 0.16551 2.05936 0
M  V30 6795 C 625.396 -1.17164 1.48557 0
M  V30 6796 O 624.739 -1.73307 0.60914 0
M  V30 6797 C 624.801 -0.00648082 3.59499 0
M  V30 6798 C 624.465 1.25503 4.39429 0
M  V30 6799 C 625.462 2.18241 4.71876 0
M  V30 6800 C 623.147 1.49494 4.79538 0
M  V30 6801 C 625.141 3.33268 5.43333 0
M  V30 6802 C 622.828 2.64815 5.50742 0
M  V30 6803 C 623.826 3.56528 5.82561 0
M  V30 6804 O 623.514 4.69836 6.52311 0
M  V30 6805 H 623.246 0.0844124 0.670709 0
M  V30 6806 H 625.8 0.88638 1.8529 0
M  V30 6807 H 624.03 -0.782661 3.78697 0
M  V30 6808 H 625.719 -0.444794 4.03456 0
M  V30 6809 H 626.485 2.00946 4.41413 0
M  V30 6810 H 622.364 0.789912 4.54182 0
M  V30 6811 H 625.908 4.04874 5.68087 0
M  V30 6812 H 621.805 2.82047 5.8062 0
M  V30 6813 H 622.573 4.69024 6.70789 0
M  V30 6814 N 625.236 -1.5273 0.388769 0
M  V30 6815 C 626.184 -2.27975 -0.461527 0
M  V30 6816 C 627.178 -1.31854 -1.06352 0
M  V30 6817 O 628.384 -1.49394 -1.00406 0
M  V30 6818 H 624.759 -0.733088 -0.16759 0
M  V30 6819 H 626.73 -2.97765 0.194579 0
M  V30 6820 C 625.479 -3.09881 -1.577 0
M  V30 6821 H 624.802 -3.83701 -1.12309 0
M  V30 6822 H 626.242 -3.6567 -2.14619 0
M  V30 6823 C 624.701 -2.22159 -2.53272 0
M  V30 6824 O 625.231 -1.84802 -3.56667 0
M  V30 6825 N 623.437 -1.8633 -2.23001 0
M  V30 6826 H 622.984 -2.16909 -1.38954 0
M  V30 6827 H 622.942 -1.27927 -2.87197 0
M  V30 6828 N 626.714 -0.118576 -1.57153 0
M  V30 6829 C 627.96 0.540326 -1.95469 0
M  V30 6830 C 628.293 1.66356 -1.00196 0
M  V30 6831 O 627.568 1.94461 -0.039104 0
M  V30 6832 C 627.851 1.07342 -3.43729 0
M  V30 6833 C 627.704 -0.0463732 -4.49776 0
M  V30 6834 C 629.023 1.96442 -3.93826 0
M  V30 6835 H 626.142 0.19494 -0.710751 0
M  V30 6836 H 628.784 -0.19405 -1.89006 0
M  V30 6837 H 626.934 1.69925 -3.49368 0
M  V30 6838 H 628.606 -0.681648 -4.56236 0
M  V30 6839 H 626.849 -0.709574 -4.27957 0
M  V30 6840 H 627.52 0.367856 -5.50773 0
M  V30 6841 H 629.996 1.43731 -3.90488 0
M  V30 6842 H 628.872 2.3066 -4.98084 0
M  V30 6843 H 629.133 2.89077 -3.34495 0
M  V30 6844 N 628.193 1.56834 0.155195 0
M  V30 6845 C 629.143 1.94061 1.19684 0
M  V30 6846 C 630.127 0.810851 1.38975 0
M  V30 6847 O 631.319 1.07422 1.40675 0
M  V30 6848 C 628.448 2.31778 2.53247 0
M  V30 6849 C 627.534 3.51305 2.37583 0
M  V30 6850 N 627.925 4.68081 1.9166 0
M  V30 6851 C 626.223 3.56228 2.6836 0
M  V30 6852 C 626.924 5.50193 1.88845 0
M  V30 6853 N 625.9 4.91676 2.31852 0
M  V30 6854 H 629.702 2.81826 0.833747 0
M  V30 6855 H 627.216 1.58284 0.363328 0
M  V30 6856 H 629.213 2.56649 3.28538 0
M  V30 6857 H 627.873 1.4536 2.90346 0
M  V30 6858 H 628.884 4.91993 1.6175 0
M  V30 6859 H 625.561 2.8033 3.09389 0
M  V30 6860 H 626.951 6.53801 1.54901 0
M  V30 6861 N 629.671 -0.424282 1.51781 0
M  V30 6862 C 630.899 -1.1947 1.68921 0
M  V30 6863 C 631.314 -1.84683 0.39213 0
M  V30 6864 O 630.671 -1.71261 -0.630554 0
M  V30 6865 C 630.722 -2.26909 2.81416 0
M  V30 6866 O 630.443 -1.64361 4.061 0
M  V30 6867 C 631.944 -3.16945 3.09937 0
M  V30 6868 H 629.164 -0.359591 0.566511 0
M  V30 6869 H 631.708 -0.501139 1.98265 0
M  V30 6870 H 629.863 -2.91959 2.54635 0
M  V30 6871 H 630.277 -2.35468 4.68674 0
M  V30 6872 H 631.751 -3.88437 3.922 0
M  V30 6873 H 632.228 -3.78451 2.22871 0
M  V30 6874 H 632.834 -2.57581 3.38426 0
M  V30 6875 N 631.149 -1.42148 -0.680565 0
M  V30 6876 C 632.081 -1.41119 -1.80605 0
M  V30 6877 C 633.094 -0.311099 -1.598 0
M  V30 6878 O 634.283 -0.573813 -1.69026 0
M  V30 6879 C 631.383 -1.18204 -3.17618 0
M  V30 6880 C 630.556 -2.40537 -3.65322 0
M  V30 6881 C 629.615 -2.13254 -4.8105 0
M  V30 6882 O 628.641 -2.8641 -4.91892 0
M  V30 6883 N 629.843 -1.13208 -5.69354 0
M  V30 6884 H 632.608 -2.38128 -1.81975 0
M  V30 6885 H 630.169 -1.36953 -0.863446 0
M  V30 6886 H 632.161 -0.97878 -3.92686 0
M  V30 6887 H 630.731 -0.29738 -3.11182 0
M  V30 6888 H 629.951 -2.76468 -2.80996 0
M  V30 6889 H 631.239 -3.22012 -3.93936 0
M  V30 6890 H 630.637 -0.526893 -5.63241 0
M  V30 6891 H 629.194 -0.988699 -6.44258 0
M  V30 6892 N 632.627 0.916307 -1.28225 0
M  V30 6893 C 633.855 1.69901 -1.18073 0
M  V30 6894 C 634.27 1.86988 0.260968 0
M  V30 6895 O 633.627 1.39505 1.17663 0
M  V30 6896 C 633.678 3.09254 -1.87201 0
M  V30 6897 O 633.399 2.92959 -3.2574 0
M  V30 6898 C 634.9 4.0362 -1.83319 0
M  V30 6899 H 632.12 0.531181 -0.409985 0
M  V30 6900 H 634.664 1.14703 -1.69303 0
M  V30 6901 H 632.819 3.61277 -1.39848 0
M  V30 6902 H 633.233 3.81139 -3.60324 0
M  V30 6903 H 634.707 4.98873 -2.36282 0
M  V30 6904 H 635.184 4.3176 -0.805007 0
M  V30 6905 H 635.79 3.57524 -2.3034 0
M  V30 6906 N 634.105 1.10431 1.1244 0
M  V30 6907 C 635.516 0.864439 1.65482 0
M  V30 6908 C 635.867 -0.60527 1.8663 0
M  V30 6909 O 634.992 -1.46492 1.59276 0
M  V30 6910 C 635.587 1.56267 3.0061 0
M  V30 6911 C 634.146 1.3695 3.50602 0
M  V30 6912 C 633.293 1.61209 2.25626 0
M  V30 6913 H 636.244 1.26203 0.962209 0
M  V30 6914 H 636.265 1.00166 3.67079 0
M  V30 6915 H 635.777 2.63231 2.85186 0
M  V30 6916 H 633.878 0.321481 3.71211 0
M  V30 6917 H 633.991 2.11143 4.30064 0
M  V30 6918 H 632.355 1.03482 2.32731 0
M  V30 6919 H 633.138 2.69425 2.12756 0
M  V30 6920 N 635.583 -1.29855 0.893053 0
M  V30 6921 C 636.513 -2.3035 0.382249 0
M  V30 6922 C 637.494 -1.61328 -0.539203 0
M  V30 6923 O 638.679 -1.88882 -0.451342 0
M  V30 6924 C 635.809 -3.45024 -0.396983 0
M  V30 6925 C 634.763 -4.258 0.433437 0
M  V30 6926 C 634.089 -5.32605 -0.472889 0
M  V30 6927 C 635.389 -4.94549 1.67984 0
M  V30 6928 H 637.083 -2.73325 1.22205 0
M  V30 6929 H 634.629 -1.314 0.589073 0
M  V30 6930 H 636.582 -4.14398 -0.765024 0
M  V30 6931 H 635.306 -3.00875 -1.2705 0
M  V30 6932 H 633.965 -3.58125 0.783723 0
M  V30 6933 H 633.613 -4.84702 -1.34435 0
M  V30 6934 H 633.313 -5.87547 0.0789958 0
M  V30 6935 H 634.837 -6.04832 -0.837269 0
M  V30 6936 H 636.251 -5.56395 1.38192 0
M  V30 6937 H 634.648 -5.59393 2.17254 0
M  V30 6938 H 635.718 -4.20215 2.41965 0
M  V30 6939 N 637.061 -0.65484 -1.43351 0
M  V30 6940 C 637.991 0.0221809 -2.33489 0
M  V30 6941 C 638.972 0.810272 -1.49561 0
M  V30 6942 O 640.157 0.771426 -1.78221 0
M  V30 6943 C 637.287 0.988117 -3.32947 0
M  V30 6944 C 636.241 0.310026 -4.26876 0
M  V30 6945 C 635.567 1.38752 -5.16384 0
M  V30 6946 C 636.867 -0.798589 -5.16159 0
M  V30 6947 H 638.561 -0.730571 -2.9035 0
M  V30 6948 H 636.107 -0.352773 -1.39612 0
M  V30 6949 H 638.06 1.47067 -3.94904 0
M  V30 6950 H 636.784 1.77205 -2.74346 0
M  V30 6951 H 635.443 -0.152097 -3.66284 0
M  V30 6952 H 635.091 2.16293 -4.54121 0
M  V30 6953 H 634.791 0.939051 -5.80048 0
M  V30 6954 H 636.315 1.87141 -5.81215 0
M  V30 6955 H 637.729 -0.398126 -5.71916 0
M  V30 6956 H 636.126 -1.17163 -5.88552 0
M  V30 6957 H 637.196 -1.65588 -4.55751 0
M  V30 6958 N 638.539 1.52521 -0.396863 0
M  V30 6959 C 639.816 1.94112 0.240842 0
M  V30 6960 C 640.196 1.33288 1.637 0
M  V30 6961 O 639.544 0.503901 2.22875 0
M  V30 6962 C 639.754 3.48033 0.259567 0
M  V30 6963 C 641.102 4.21822 0.484866 0
M  V30 6964 O 642.126 3.54579 0.339453 0
M  V30 6965 O 640.985 5.41042 0.770412 0
M  V30 6966 H 638.079 0.812973 0.151671 0
M  V30 6967 H 640.625 1.63572 -0.451918 0
M  V30 6968 H 639.397 3.84655 -0.718078 0
M  V30 6969 H 639.02 3.84899 0.996937 0
M  V30 6970 N 640.017 0.126909 1.57088 0
M  V30 6971 C 640.947 -0.816847 2.18746 0
M  V30 6972 C 641.928 -1.27161 1.12979 0
M  V30 6973 O 643.113 -1.33279 1.41246 0
M  V30 6974 C 640.243 -2.06398 2.79315 0
M  V30 6975 C 639.197 -1.74673 3.90735 0
M  V30 6976 C 638.523 -3.06482 4.38147 0
M  V30 6977 C 639.823 -1.0089 5.12463 0
M  V30 6978 H 641.517 -0.303032 2.97863 0
M  V30 6979 H 639.063 -0.144314 1.43275 0
M  V30 6980 H 641.016 -2.72885 3.2111 0
M  V30 6981 H 639.74 -2.60118 1.975 0
M  V30 6982 H 638.399 -1.10572 3.49527 0
M  V30 6983 H 638.047 -3.58152 3.5318 0
M  V30 6984 H 637.747 -2.86025 5.13287 0
M  V30 6985 H 639.271 -3.74073 4.82599 0
M  V30 6986 H 640.685 -1.57546 5.51228 0
M  V30 6987 H 639.082 -0.905006 5.93237 0
M  V30 6988 H 640.152 0.00297335 4.849 0
M  V30 6989 N 641.495 -1.56914 -0.146875 0
M  V30 6990 C 642.428 -1.93425 -1.21087 0
M  V30 6991 C 643.406 -0.800106 -1.41552 0
M  V30 6992 O 644.59 -1.05572 -1.56162 0
M  V30 6993 C 641.717 -2.20639 -2.56975 0
M  V30 6994 C 640.763 -3.43279 -2.53104 0
M  V30 6995 S 641.596 -4.96836 -1.99786 0
M  V30 6996 C 642.752 -5.27172 -3.37403 0
M  V30 6997 H 642.985 -2.8337 -0.899378 0
M  V30 6998 H 640.518 -1.50322 -0.352494 0
M  V30 6999 H 642.476 -2.36998 -3.35175 0
M  V30 7000 H 641.137 -1.31357 -2.85314 0
M  V30 7001 H 640.33 -3.59599 -3.53136 0
M  V30 7002 H 639.932 -3.26163 -1.83012 0
M  V30 7003 H 642.224 -5.20647 -4.33513 0
M  V30 7004 H 643.167 -6.28626 -3.25937 0
M  V30 7005 H 643.575 -4.54687 -3.34544 0
M  V30 7006 N 642.974 0.416227 -1.52004 0
M  V30 7007 C 644.199 1.19029 -1.69843 0
M  V30 7008 C 644.624 1.83708 -0.404103 0
M  V30 7009 O 643.982 1.69711 0.637787 0
M  V30 7010 C 644.03 2.23439 -2.83032 0
M  V30 7011 O 643.134 3.29419 -2.48106 0
M  V30 7012 H 642.475 0.347785 -0.565634 0
M  V30 7013 H 645.005 0.488871 -1.98674 0
M  V30 7014 H 645.015 2.67884 -3.07737 0
M  V30 7015 H 643.69 1.75745 -3.76944 0
M  V30 7016 H 642.267 2.90303 -2.34048 0
M  V30 7017 N 644.452 1.42507 0.673017 0
M  V30 7018 C 645.729 1.33554 1.42908 0
M  V30 7019 C 646.109 -0.0262211 2.11084 0
M  V30 7020 O 645.457 -1.04181 2.03368 0
M  V30 7021 C 645.667 2.50498 2.43006 0
M  V30 7022 C 647.015 2.92694 3.07596 0
M  V30 7023 O 648.039 2.50401 2.53333 0
M  V30 7024 O 646.898 3.65899 4.05931 0
M  V30 7025 H 643.992 0.526785 0.637516 0
M  V30 7026 H 646.538 1.54518 0.701591 0
M  V30 7027 H 645.31 3.41272 1.9144 0
M  V30 7028 H 644.933 2.3153 3.23233 0
M  V30 7029 N 645.93 -0.909495 1.28709 0
M  V30 7030 C 646.893 -1.99399 1.13016 0
M  V30 7031 C 647.893 -1.60654 0.068536 0
M  V30 7032 O 649.083 -1.71334 0.314671 0
M  V30 7033 C 646.215 -3.33078 0.726085 0
M  V30 7034 H 647.408 -2.14751 2.09338 0
M  V30 7035 H 644.961 -1.09272 1.11756 0
M  V30 7036 H 645.696 -3.23428 -0.23771 0
M  V30 7037 H 645.481 -3.62562 1.49302 0
M  V30 7038 H 646.971 -4.12681 0.639058 0
M  V30 7039 N 647.408 -1.11026 -1.11852 0
M  V30 7040 C 648.338 -0.786812 -2.19844 0
M  V30 7041 C 649.319 0.242935 -1.68356 0
M  V30 7042 O 650.504 0.107355 -1.93903 0
M  V30 7043 C 647.634 -0.224516 -3.46574 0
M  V30 7044 C 646.588 -1.18564 -4.1125 0
M  V30 7045 C 645.914 -0.484261 -5.32503 0
M  V30 7046 C 647.214 -2.53465 -4.56676 0
M  V30 7047 H 648.908 -1.68978 -2.47158 0
M  V30 7048 H 646.454 -0.813906 -1.18792 0
M  V30 7049 H 648.407 0.0139435 -4.21398 0
M  V30 7050 H 647.131 0.713722 -3.18706 0
M  V30 7051 H 645.79 -1.40966 -3.38414 0
M  V30 7052 H 645.438 0.458646 -5.00905 0
M  V30 7053 H 645.138 -1.12526 -5.76725 0
M  V30 7054 H 646.662 -0.254492 -6.10069 0
M  V30 7055 H 648.076 -2.35177 -5.22843 0
M  V30 7056 H 646.473 -3.13507 -5.11697 0
M  V30 7057 H 647.543 -3.13008 -3.70343 0
M  V30 7058 N 648.886 1.2938 -0.899927 0
M  V30 7059 C 650.132 1.9584 -0.526742 0
M  V30 7060 C 650.465 1.70774 0.924651 0
M  V30 7061 O 649.74 1.02084 1.65557 0
M  V30 7062 C 650.023 3.50638 -0.820062 0
M  V30 7063 C 649.876 3.85161 -2.32317 0
M  V30 7064 C 651.195 4.3903 -0.30671 0
M  V30 7065 H 648.314 0.711322 -0.192848 0
M  V30 7066 H 650.956 1.52992 -1.12665 0
M  V30 7067 H 649.106 3.87265 -0.309491 0
M  V30 7068 H 650.778 3.58477 -2.9033 0
M  V30 7069 H 649.021 3.32696 -2.78381 0
M  V30 7070 H 649.692 4.93204 -2.47898 0
M  V30 7071 H 652.168 4.09396 -0.743908 0
M  V30 7072 H 651.044 5.46226 -0.541144 0
M  V30 7073 H 651.305 4.34937 0.792588 0
M  V30 7074 N 650.364 0.662433 1.43002 0
M  V30 7075 C 651.294 -0.00979809 2.33498 0
M  V30 7076 C 652.275 -0.802329 1.49989 0
M  V30 7077 O 653.46 -0.761964 1.78627 0
M  V30 7078 C 650.59 -0.970446 3.33466 0
M  V30 7079 C 649.544 -0.287383 4.27034 0
M  V30 7080 C 648.87 -1.36012 5.17112 0
M  V30 7081 C 650.17 0.82595 5.15728 0
M  V30 7082 H 651.864 0.745959 2.89958 0
M  V30 7083 H 649.41 0.360172 1.39423 0
M  V30 7084 H 651.363 -1.44971 3.95679 0
M  V30 7085 H 650.087 -1.75748 2.75282 0
M  V30 7086 H 648.746 0.17152 3.66199 0
M  V30 7087 H 648.394 -2.13882 4.55262 0
M  V30 7088 H 648.094 -0.908276 5.80538 0
M  V30 7089 H 649.618 -1.84056 5.82199 0
M  V30 7090 H 651.032 0.42845 5.71697 0
M  V30 7091 H 649.429 1.20282 5.87922 0
M  V30 7092 H 650.499 1.68003 4.54866 0
M  V30 7093 N 651.842 -1.52309 0.404946 0
M  V30 7094 C 652.805 -2.25491 -0.410651 0
M  V30 7095 C 653.805 -1.27704 -0.977154 0
M  V30 7096 O 654.995 -1.51679 -0.856691 0
M  V30 7097 C 652.127 -3.02197 -1.57765 0
M  V30 7098 H 653.32 -2.99015 0.230277 0
M  V30 7099 H 650.873 -1.55506 0.157377 0
M  V30 7100 H 651.608 -2.33013 -2.25556 0
M  V30 7101 H 651.393 -3.73987 -1.17797 0
M  V30 7102 H 652.883 -3.57719 -2.15469 0
M  V30 7103 N 653.32 -0.135238 -1.57019 0
M  V30 7104 C 654.267 0.808908 -2.1616 0
M  V30 7105 C 655.237 1.25234 -1.09113 0
M  V30 7106 O 656.422 1.32697 -1.37099 0
M  V30 7107 C 653.562 2.04729 -2.77813 0
M  V30 7108 C 652.675 1.65074 -3.99218 0
M  V30 7109 C 651.81 2.84002 -4.48906 0
M  V30 7110 C 650.849 2.40663 -5.62803 0
M  V30 7111 N 649.986 3.5256 -6.07162 0
M  V30 7112 H 654.826 0.297751 -2.96509 0
M  V30 7113 H 652.363 0.135264 -1.46477 0
M  V30 7114 H 654.321 2.7731 -3.11697 0
M  V30 7115 H 652.951 2.53275 -2.00128 0
M  V30 7116 H 652.003 0.823029 -3.7139 0
M  V30 7117 H 653.315 1.29236 -4.81767 0
M  V30 7118 H 652.469 3.64788 -4.84783 0
M  V30 7119 H 651.208 3.23076 -3.65339 0
M  V30 7120 H 650.213 1.58314 -5.26514 0
M  V30 7121 H 651.438 2.02687 -6.48147 0
M  V30 7122 H 649.384 3.91278 -5.26534 0
M  V30 7123 H 649.301 3.20699 -6.84608 0
M  V30 7124 H 650.569 4.33738 -6.47682 0
M  V30 7125 N 654.798 1.5699 0.138552 0
M  V30 7126 C 655.731 1.94064 1.2006 0
M  V30 7127 C 656.709 0.807601 1.41126 0
M  V30 7128 O 657.893 1.06399 1.556 0
M  V30 7129 C 655.02 2.21999 2.55801 0
M  V30 7130 C 654.066 3.44617 2.5128 0
M  V30 7131 S 654.899 4.97888 1.97149 0
M  V30 7132 C 656.055 5.28954 3.34602 0
M  V30 7133 H 656.288 2.83843 0.884337 0
M  V30 7134 H 653.821 1.50507 0.344517 0
M  V30 7135 H 655.779 2.38772 3.33914 0
M  V30 7136 H 654.44 1.32869 2.84613 0
M  V30 7137 H 653.633 3.61466 3.51224 0
M  V30 7138 H 653.235 3.27129 1.8128 0
M  V30 7139 H 655.527 5.22938 4.30745 0
M  V30 7140 H 656.47 6.30346 3.22598 0
M  V30 7141 H 656.878 4.56455 3.32128 0
M  V30 7142 N 656.276 -0.40816 1.52223 0
M  V30 7143 C 657.223 -1.49737 1.75635 0
M  V30 7144 C 658.193 -1.5493 0.598824 0
M  V30 7145 O 659.378 -1.71487 0.83648 0
M  V30 7146 C 656.518 -2.87174 1.91376 0
M  V30 7147 C 655.631 -2.91283 3.19027 0
M  V30 7148 C 654.766 -4.20026 3.25195 0
M  V30 7149 C 653.805 -4.18113 4.47044 0
M  V30 7150 N 652.942 -5.38429 4.50598 0
M  V30 7151 H 657.782 -1.29075 2.68596 0
M  V30 7152 H 655.319 -0.626518 1.33091 0
M  V30 7153 H 657.277 -3.66959 1.98486 0
M  V30 7154 H 655.907 -3.06329 1.01795 0
M  V30 7155 H 654.959 -2.03984 3.21084 0
M  V30 7156 H 656.271 -2.85734 4.08849 0
M  V30 7157 H 655.425 -5.08204 3.31382 0
M  V30 7158 H 654.164 -4.28271 2.33313 0
M  V30 7159 H 653.169 -3.28325 4.41002 0
M  V30 7160 H 654.394 -4.11507 5.40221 0
M  V30 7161 H 652.34 -5.4734 3.616 0
M  V30 7162 H 652.257 -5.34879 5.34266 0
M  V30 7163 H 653.525 -6.28557 4.61016 0
M  V30 7164 N 657.755 -1.42862 -0.66545 0
M  V30 7165 C 659.003 -1.43546 -1.42264 0
M  V30 7166 C 659.324 -0.0563116 -1.94919 0
M  V30 7167 O 658.594 0.906568 -1.73661 0
M  V30 7168 H 657.174 -0.528464 -0.527953 0
M  V30 7169 H 659.836 -1.78363 -0.785665 0
M  V30 7170 H 658.932 -2.14079 -2.27105 0
M  V30 7171 N 659.233 0.902656 -1.29189 0
M  V30 7172 C 660.48 1.65287 -1.16989 0
M  V30 7173 C 660.808 1.92485 0.279232 0
M  V30 7174 O 660.063 1.53143 1.21843 0
M  V30 7175 C 660.362 3.011 -1.92545 0
M  V30 7176 C 660.028 2.93521 -3.42281 0
M  V30 7177 C 658.69 2.91161 -3.83117 0
M  V30 7178 C 661.042 2.82947 -4.3771 0
M  V30 7179 C 658.37 2.76043 -5.17704 0
M  V30 7180 C 660.722 2.69368 -5.72384 0
M  V30 7181 C 659.386 2.65373 -6.12482 0
M  V30 7182 H 658.656 0.604828 -0.428094 0
M  V30 7183 H 661.303 1.05084 -1.60092 0
M  V30 7184 H 659.608 3.65153 -1.42024 0
M  V30 7185 H 661.305 3.58073 -1.80512 0
M  V30 7186 H 657.895 2.96158 -3.09819 0
M  V30 7187 H 662.079 2.83849 -4.07116 0
M  V30 7188 H 657.335 2.71352 -5.47885 0
M  V30 7189 H 661.509 2.60156 -6.45981 0
M  V30 7190 H 659.136 2.53415 -7.16718 0
M  V30 7191 N 660.711 1.11618 1.11262 0
M  V30 7192 C 661.988 0.777876 1.79467 0
M  V30 7193 C 662.368 -0.733774 1.97937 0
M  V30 7194 O 661.716 -1.66443 1.56554 0
M  V30 7195 C 661.926 1.5431 3.13032 0
M  V30 7196 C 663.274 1.72357 3.88044 0
M  V30 7197 O 664.298 1.5075 3.22727 0
M  V30 7198 O 663.157 2.08276 5.05256 0
M  V30 7199 H 660.251 0.282018 0.777428 0
M  V30 7200 H 662.797 1.21971 1.17988 0
M  V30 7201 H 661.569 2.57132 2.94956 0
M  V30 7202 H 661.192 1.09495 3.82226 0
M  V30 7203 N 662.189 -1.289 0.906776 0
M  V30 7204 C 663.435 -1.95558 0.53712 0
M  V30 7205 C 663.768 -1.71262 -0.915582 0
M  V30 7206 O 663.043 -1.02961 -1.65013 0
M  V30 7207 C 663.326 -3.50198 0.838645 0
M  V30 7208 C 663.179 -3.83923 2.34357 0
M  V30 7209 C 664.498 -4.38861 0.329988 0
M  V30 7210 H 661.617 -0.710289 0.196617 0
M  V30 7211 H 664.259 -1.52392 1.13475 0
M  V30 7212 H 662.409 -3.87096 0.330024 0
M  V30 7213 H 664.081 -3.56933 2.92227 0
M  V30 7214 H 662.324 -3.31215 2.80141 0
M  V30 7215 H 662.995 -4.91883 2.5051 0
M  V30 7216 H 665.471 -4.08996 0.765609 0
M  V30 7217 H 664.347 -5.45931 0.570105 0
M  V30 7218 H 664.608 -4.35352 -0.769511 0
M  V30 7219 N 663.667 -0.670007 -1.42649 0
M  V30 7220 C 664.914 -0.190286 -2.01604 0
M  V30 7221 C 665.242 1.20155 -1.52948 0
M  V30 7222 O 664.497 1.81964 -0.72026 0
M  V30 7223 C 664.796 -0.168298 -3.57004 0
M  V30 7224 C 664.462 -1.50415 -4.25072 0
M  V30 7225 C 663.124 -1.86992 -4.43382 0
M  V30 7226 C 665.476 -2.38414 -4.63474 0
M  V30 7227 C 662.804 -3.11203 -4.97363 0
M  V30 7228 C 665.156 -3.61933 -5.18833 0
M  V30 7229 C 663.82 -3.98685 -5.35356 0
M  V30 7230 H 663.09 -0.0696305 -0.737721 0
M  V30 7231 H 665.737 -0.864044 -1.70899 0
M  V30 7232 H 664.042 0.588958 -3.87348 0
M  V30 7233 H 665.739 0.22001 -4.00396 0
M  V30 7234 H 662.329 -1.20959 -4.11177 0
M  V30 7235 H 666.513 -2.11442 -4.49006 0
M  V30 7236 H 661.769 -3.39705 -5.08341 0
M  V30 7237 H 665.943 -4.30326 -5.47533 0
M  V30 7238 H 663.57 -4.95009 -5.76949 0
M  V30 7239 N 665.145 1.52092 -0.413018 0
M  V30 7240 C 666.093 2.28681 0.425199 0
M  V30 7241 C 667.087 1.3353 1.04241 0
M  V30 7242 O 668.293 1.50973 0.980166 0
M  V30 7243 H 664.668 0.735661 0.155906 0
M  V30 7244 H 666.639 2.97418 -0.241926 0
M  V30 7245 C 665.388 3.1235 1.5275 0
M  V30 7246 H 664.711 3.85439 1.06191 0
M  V30 7247 H 666.151 3.69038 2.08774 0
M  V30 7248 C 664.61 2.26161 2.49706 0
M  V30 7249 O 665.14 1.90452 3.53682 0
M  V30 7250 N 663.346 1.89854 2.20008 0
M  V30 7251 H 662.893 2.19092 1.35486 0
M  V30 7252 H 662.851 1.3248 2.85125 0
M  V30 7253 N 666.623 0.143563 1.56945 0
M  V30 7254 C 667.586 -0.783295 2.154 0
M  V30 7255 C 668.586 -1.17763 1.09492 0
M  V30 7256 O 669.776 -1.09912 1.35148 0
M  V30 7257 C 666.908 -2.06248 2.7143 0
M  V30 7258 H 668.101 -0.274863 2.98638 0
M  V30 7259 H 665.654 -0.105859 1.55941 0
M  V30 7260 H 666.389 -2.61466 1.91849 0
M  V30 7261 H 666.174 -1.78897 3.4891 0
M  V30 7262 H 667.664 -2.72453 3.16479 0
M  V30 7263 N 668.101 -1.57061 -0.130224 0
M  V30 7264 C 669.031 -2.02552 -1.16168 0
M  V30 7265 C 670.012 -0.907971 -1.4384 0
M  V30 7266 O 671.197 -1.17693 -1.54473 0
M  V30 7267 C 668.327 -2.42035 -2.49071 0
M  V30 7268 C 667.281 -3.5713 -2.35886 0
M  V30 7269 C 666.607 -3.82478 -3.7365 0
M  V30 7270 C 667.907 -4.89236 -1.8288 0
M  V30 7271 H 669.601 -2.8897 -0.783359 0
M  V30 7272 H 667.147 -1.39021 -0.375376 0
M  V30 7273 H 669.1 -2.72462 -3.21469 0
M  V30 7274 H 667.824 -1.52573 -2.88771 0
M  V30 7275 H 666.483 -3.26895 -1.65938 0
M  V30 7276 H 666.131 -2.9024 -4.10816 0
M  V30 7277 H 665.831 -4.59944 -3.65685 0
M  V30 7278 H 667.355 -4.15347 -4.47571 0
M  V30 7279 H 668.769 -5.18272 -2.45085 0
M  V30 7280 H 667.166 -5.70624 -1.85763 0
M  V30 7281 H 668.236 -4.78494 -0.785571 0
M  V30 7282 N 669.579 0.400081 -1.52437 0
M  V30 7283 C 670.856 1.15973 -1.57511 0
M  V30 7284 C 671.236 2.0798 -0.361572 0
M  V30 7285 O 670.584 2.19032 0.650929 0
M  V30 7286 C 670.794 1.92912 -2.90837 0
M  V30 7287 C 672.142 2.48662 -3.44169 0
M  V30 7288 O 673.166 2.03081 -2.92637 0
M  V30 7289 O 672.025 3.31894 -4.34176 0
M  V30 7290 H 669.119 0.530023 -0.634827 0
M  V30 7291 H 671.665 0.40613 -1.64769 0
M  V30 7292 H 670.437 1.25564 -3.70607 0
M  V30 7293 H 670.06 2.75257 -2.86913 0
M  V30 7294 N 671.057 1.43213 0.657864 0
M  V30 7295 C 671.987 1.50815 1.78262 0
M  V30 7296 C 672.968 0.363211 1.66177 0
M  V30 7297 O 674.153 0.579806 1.85343 0
M  V30 7298 C 671.283 1.42625 3.16663 0
M  V30 7299 C 670.237 2.5532 3.43505 0
M  V30 7300 C 669.563 2.32184 4.81658 0
M  V30 7301 C 670.863 3.97583 3.38711 0
M  V30 7302 H 672.557 2.44954 1.72157 0
M  V30 7303 H 670.103 1.17896 0.82683 0
M  V30 7304 H 672.056 1.46548 3.95097 0
M  V30 7305 H 670.78 0.449877 3.23487 0
M  V30 7306 H 669.439 2.50742 2.6744 0
M  V30 7307 H 669.087 1.32801 4.85153 0
M  V30 7308 H 668.787 3.07724 5.00579 0
M  V30 7309 H 670.311 2.37883 5.62356 0
M  V30 7310 H 671.725 4.03673 4.07089 0
M  V30 7311 H 670.122 4.73112 3.69168 0
M  V30 7312 H 671.192 4.23049 2.36976 0
M  V30 7313 N 672.536 -0.895792 1.29666 0
M  V30 7314 C 673.469 -2.00238 1.09453 0
M  V30 7315 C 674.447 -1.62599 0.00527044 0
M  V30 7316 O 675.631 -1.87847 0.156729 0
M  V30 7317 C 672.758 -3.32066 0.667054 0
M  V30 7318 C 671.804 -3.88691 1.7556 0
M  V30 7319 S 672.637 -4.17317 3.35569 0
M  V30 7320 C 673.793 -5.52181 2.94698 0
M  V30 7321 H 674.026 -2.17076 2.03138 0
M  V30 7322 H 671.559 -1.04287 1.13858 0
M  V30 7323 H 673.517 -4.08272 0.427136 0
M  V30 7324 H 672.178 -3.13101 -0.250256 0
M  V30 7325 H 671.371 -4.83918 1.40853 0
M  V30 7326 H 670.973 -3.19187 1.94924 0
M  V30 7327 H 673.265 -6.3281 2.41986 0
M  V30 7328 H 674.208 -5.91817 3.88791 0
M  V30 7329 H 674.616 -5.14225 2.32879 0
M  V30 7330 N 674.014 -1.12206 -1.10668 0
M  V30 7331 C 674.924 -0.800686 -2.20513 0
M  V30 7332 C 675.94 0.209512 -1.72734 0
M  V30 7333 O 677.116 0.043705 -2.01353 0
M  V30 7334 C 674.181 -0.257353 -3.45744 0
M  V30 7335 C 673.242 -1.32718 -4.0827 0
M  V30 7336 C 672.475 -0.809674 -5.27522 0
M  V30 7337 O 672.698 0.35742 -5.69279 0
M  V30 7338 O 671.632 -1.57816 -5.80842 0
M  V30 7339 H 675.458 -1.71807 -2.50432 0
M  V30 7340 H 673.043 -0.898546 -1.19359 0
M  V30 7341 H 674.925 0.0408849 -4.2138 0
M  V30 7342 H 673.6 0.632627 -3.17458 0
M  V30 7343 H 672.507 -1.67855 -3.34329 0
M  V30 7344 H 673.84 -2.19083 -4.40753 0
M  V30 7345 N 675.492 1.28418 -0.913599 0
M  V30 7346 C 676.44 2.29272 -0.392037 0
M  V30 7347 C 677.434 1.61344 0.516198 0
M  V30 7348 O 678.64 1.75557 0.39746 0
M  V30 7349 H 675.015 0.744178 -0.108178 0
M  V30 7350 H 676.986 2.70691 -1.25574 0
M  V30 7351 C 675.735 3.45905 0.352815 0
M  V30 7352 H 675.058 3.98378 -0.336848 0
M  V30 7353 H 676.498 4.18473 0.682398 0
M  V30 7354 C 674.957 2.98572 1.56065 0
M  V30 7355 O 675.487 3.01033 2.65974 0
M  V30 7356 N 673.693 2.54235 1.40759 0
M  V30 7357 H 673.24 2.52432 0.513403 0
M  V30 7358 H 673.198 2.22925 2.21702 0
M  V30 7359 N 676.97 0.677563 1.42291 0
M  V30 7360 C 677.917 0.000947061 2.308 0
M  V30 7361 C 678.887 -0.789889 1.46116 0
M  V30 7362 O 680.072 -0.761578 1.74942 0
M  V30 7363 C 677.212 -0.942387 3.31984 0
M  V30 7364 C 676.325 -0.14508 4.31756 0
M  V30 7365 C 675.46 -1.08442 5.20013 0
M  V30 7366 C 674.499 -0.278958 6.11464 0
M  V30 7367 N 673.636 -1.17115 6.92263 0
M  V30 7368 H 678.476 0.761521 2.88106 0
M  V30 7369 H 676.013 0.38727 1.41911 0
M  V30 7370 H 677.971 -1.50317 3.89179 0
M  V30 7371 H 676.601 -1.66956 2.76271 0
M  V30 7372 H 675.653 0.532368 3.76656 0
M  V30 7373 H 676.965 0.48015 4.96484 0
M  V30 7374 H 676.119 -1.71504 5.81955 0
M  V30 7375 H 674.858 -1.74353 4.55469 0
M  V30 7376 H 673.863 0.364856 5.48588 0
M  V30 7377 H 675.088 0.376099 6.78058 0
M  V30 7378 H 673.034 -1.81661 6.30345 0
M  V30 7379 H 672.951 -0.601063 7.53607 0
M  V30 7380 H 674.219 -1.78915 7.58689 0
M  V30 7381 N 678.448 -1.51871 0.421078 0
M  V30 7382 C 679.676 -2.06356 -0.14994 0
M  V30 7383 C 680.091 -1.29006 -1.37851 0
M  V30 7384 O 679.448 -0.345139 -1.79207 0
M  V30 7385 C 679.499 -3.58185 -0.488454 0
M  V30 7386 O 679.22 -4.32611 0.691341 0
M  V30 7387 C 680.721 -4.29129 -1.11191 0
M  V30 7388 H 677.941 -0.67083 -0.0151186 0
M  V30 7389 H 680.485 -1.95638 0.595476 0
M  V30 7390 H 678.64 -3.68871 -1.18376 0
M  V30 7391 H 679.054 -5.22927 0.405906 0
M  V30 7392 H 680.528 -5.36501 -1.29889 0
M  V30 7393 H 681.005 -3.86371 -2.0884 0
M  V30 7394 H 681.611 -4.22843 -0.456458 0
M  V30 7395 N 679.926 -0.151884 -1.56866 0
M  V30 7396 C 681.173 0.498004 -1.96281 0
M  V30 7397 C 681.501 1.64551 -1.03698 0
M  V30 7398 O 680.756 1.95585 -0.0671497 0
M  V30 7399 C 681.055 1.04074 -3.41911 0
M  V30 7400 C 680.721 0.0111688 -4.50899 0
M  V30 7401 C 679.383 -0.271844 -4.80432 0
M  V30 7402 C 681.735 -0.68869 -5.1663 0
M  V30 7403 C 679.063 -1.26044 -5.73001 0
M  V30 7404 C 681.415 -1.66613 -6.10264 0
M  V30 7405 C 680.079 -1.9568 -6.38174 0
M  V30 7406 H 679.349 0.182233 -0.718242 0
M  V30 7407 H 681.996 -0.239746 -1.89993 0
M  V30 7408 H 680.301 1.85592 -3.45055 0
M  V30 7409 H 681.998 1.55224 -3.69738 0
M  V30 7410 H 678.588 0.241932 -4.27917 0
M  V30 7411 H 682.772 -0.48324 -4.93942 0
M  V30 7412 H 678.028 -1.49202 -5.92915 0
M  V30 7413 H 682.202 -2.21392 -6.60272 0
M  V30 7414 H 679.829 -2.72434 -7.09707 0
M  V30 7415 N 681.404 1.57128 0.121893 0
M  V30 7416 C 682.334 2.03165 1.15092 0
M  V30 7417 C 683.315 0.915587 1.43356 0
M  V30 7418 O 684.5 1.1851 1.53847 0
M  V30 7419 C 681.63 2.43352 2.47784 0
M  V30 7420 C 680.584 3.58376 2.33989 0
M  V30 7421 C 679.91 3.84454 3.71617 0
M  V30 7422 C 681.21 4.90199 1.80283 0
M  V30 7423 H 682.904 2.89382 0.768023 0
M  V30 7424 H 680.45 1.39218 0.367998 0
M  V30 7425 H 682.403 2.74163 3.20019 0
M  V30 7426 H 681.127 1.54103 2.87958 0
M  V30 7427 H 679.786 3.2777 1.64202 0
M  V30 7428 H 679.434 2.92414 4.09271 0
M  V30 7429 H 679.134 4.61877 3.6324 0
M  V30 7430 H 680.658 4.17714 4.45362 0
M  V30 7431 H 682.072 5.19565 2.42333 0
M  V30 7432 H 680.469 5.71601 1.82735 0
M  V30 7433 H 681.539 4.78904 0.760184 0
M  V30 7434 N 682.882 -0.391992 1.52647 0
M  V30 7435 C 683.792 -1.503 1.80131 0
M  V30 7436 C 684.808 -1.59825 0.687882 0
M  V30 7437 O 685.984 -1.76218 0.975149 0
M  V30 7438 C 683.049 -2.85863 1.96171 0
M  V30 7439 C 682.11 -2.86084 3.20085 0
M  V30 7440 C 681.343 -4.15181 3.35351 0
M  V30 7441 O 681.566 -5.09981 2.55491 0
M  V30 7442 O 680.5 -4.22603 4.28591 0
M  V30 7443 H 684.326 -1.30007 2.74466 0
M  V30 7444 H 681.911 -0.579539 1.37701 0
M  V30 7445 H 683.793 -3.66236 2.08445 0
M  V30 7446 H 682.468 -3.06189 1.05025 0
M  V30 7447 H 681.375 -2.04504 3.13256 0
M  V30 7448 H 682.708 -2.7071 4.11068 0
M  V30 7449 N 684.36 -1.4356 -0.65026 0
M  V30 7450 C 685.307 -1.48948 -1.76304 0
M  V30 7451 C 686.277 -0.338919 -1.62605 0
M  V30 7452 O 687.462 -0.54649 -1.82806 0
M  V30 7453 C 684.602 -1.42131 -3.14472 0
M  V30 7454 C 683.715 -2.67415 -3.39284 0
M  V30 7455 C 682.85 -2.52565 -4.67316 0
M  V30 7456 C 681.889 -3.73103 -4.85243 0
M  V30 7457 N 681.026 -3.57046 -6.04535 0
M  V30 7458 H 685.866 -2.44032 -1.71034 0
M  V30 7459 H 683.403 -1.21131 -0.834601 0
M  V30 7460 H 685.361 -1.36172 -3.94351 0
M  V30 7461 H 683.991 -0.506273 -3.18805 0
M  V30 7462 H 683.043 -2.8364 -2.53481 0
M  V30 7463 H 684.355 -3.56943 -3.48415 0
M  V30 7464 H 683.509 -2.44331 -5.55326 0
M  V30 7465 H 682.248 -1.60566 -4.60511 0
M  V30 7466 H 681.253 -3.81743 -3.95667 0
M  V30 7467 H 682.478 -4.66115 -4.93876 0
M  V30 7468 H 680.424 -2.67783 -5.98856 0
M  V30 7469 H 680.341 -4.40178 -6.14638 0
M  V30 7470 H 681.609 -3.52669 -6.95158 0
M  V30 7471 N 685.838 0.888903 -1.30139 0
M  V30 7472 C 686.768 2.01046 -1.18755 0
M  V30 7473 C 687.749 1.69916 -0.0791438 0
M  V30 7474 O 688.934 1.92445 -0.260498 0
M  V30 7475 C 686.064 3.36109 -0.874518 0
M  V30 7476 C 685.018 3.81486 -1.94043 0
M  V30 7477 C 684.344 5.13796 -1.48047 0
M  V30 7478 C 685.644 4.00637 -3.35093 0
M  V30 7479 H 687.338 2.10828 -2.12584 0
M  V30 7480 H 684.884 1.01298 -1.02346 0
M  V30 7481 H 686.837 4.14089 -0.781548 0
M  V30 7482 H 685.561 3.26449 0.0994519 0
M  V30 7483 H 684.22 3.05731 -2.02297 0
M  V30 7484 H 683.868 5.0056 -0.494878 0
M  V30 7485 H 683.568 5.45127 -2.19341 0
M  V30 7486 H 685.092 5.94305 -1.40121 0
M  V30 7487 H 686.506 4.69067 -3.2962 0
M  V30 7488 H 684.903 4.43339 -4.04438 0
M  V30 7489 H 685.973 3.0462 -3.77273 0
M  V30 7490 N 687.317 1.12792 1.10072 0
M  V30 7491 C 688.264 0.79921 2.16521 0
M  V30 7492 C 689.234 -0.235726 1.64419 0
M  V30 7493 O 690.419 -0.109457 1.90486 0
M  V30 7494 C 687.559 0.264091 3.44088 0
M  V30 7495 C 686.672 1.35729 4.10124 0
M  V30 7496 C 685.807 0.781212 5.25424 0
M  V30 7497 C 684.846 1.85327 5.8337 0
M  V30 7498 N 683.983 1.29564 6.90042 0
M  V30 7499 H 688.823 1.71105 2.43981 0
M  V30 7500 H 686.36 0.854225 1.19756 0
M  V30 7501 H 688.318 -0.0642423 4.17151 0
M  V30 7502 H 686.948 -0.610901 3.16967 0
M  V30 7503 H 686 1.80234 3.34993 0
M  V30 7504 H 687.312 2.16782 4.4923 0
M  V30 7505 H 686.466 0.403769 6.05355 0
M  V30 7506 H 685.205 -0.0604686 4.87663 0
M  V30 7507 H 684.21 2.23986 5.02106 0
M  V30 7508 H 685.435 2.69824 6.23195 0
M  V30 7509 H 683.381 0.475844 6.54272 0
M  V30 7510 H 683.298 2.04271 7.2788 0
M  V30 7511 H 684.566 0.945545 7.73744 0
M  V30 7512 N 688.795 -1.27931 0.920396 0
M  V30 7513 C 690.042 -1.94689 0.557007 0
M  V30 7514 C 690.37 -1.724 -0.900476 0
M  V30 7515 O 689.625 -1.04194 -1.65657 0
M  V30 7516 C 689.924 -3.47853 0.820558 0
M  V30 7517 C 689.59 -3.90252 2.25863 0
M  V30 7518 C 688.252 -4.01539 2.65179 0
M  V30 7519 C 690.604 -4.11853 3.19415 0
M  V30 7520 C 687.932 -4.3181 3.97187 0
M  V30 7521 C 690.284 -4.43606 4.50995 0
M  V30 7522 C 688.948 -4.53105 4.90155 0
M  V30 7523 H 688.218 -0.712416 0.203823 0
M  V30 7524 H 690.865 -1.52142 1.16298 0
M  V30 7525 H 689.17 -3.91578 0.131844 0
M  V30 7526 H 690.867 -3.97634 0.51847 0
M  V30 7527 H 687.457 -3.81999 1.94358 0
M  V30 7528 H 691.641 -4.0258 2.90246 0
M  V30 7529 H 686.897 -4.37371 4.2722 0
M  V30 7530 H 691.071 -4.59268 5.23494 0
M  V30 7531 H 688.698 -4.76315 5.92476 0
M  V30 7532 N 690.273 -0.685099 -1.4193 0
M  V30 7533 C 691.521 -0.21124 -2.00993 0
M  V30 7534 C 691.842 1.18985 -1.54491 0
M  V30 7535 O 691.112 1.8009 -0.771 0
M  V30 7536 H 689.692 -0.0751059 -0.743215 0
M  V30 7537 H 692.354 -0.883915 -1.73704 0
M  V30 7538 H 691.45 -0.220513 -3.1132 0
M  V30 7539 N 691.751 1.51645 -0.429126 0
M  V30 7540 C 693 2.01203 0.141538 0
M  V30 7541 C 693.313 1.31828 1.44502 0
M  V30 7542 O 694.519 1.7231 2.09813 0
M  V30 7543 C 692.975 3.58624 0.302786 0
M  V30 7544 C 692.583 4.3693 -0.989775 0
M  V30 7545 C 694.327 4.16353 0.827661 0
M  V30 7546 C 692.234 5.86037 -0.794619 0
M  V30 7547 H 691.164 0.751867 0.05667 0
M  V30 7548 H 693.815 1.74822 -0.557633 0
M  V30 7549 H 692.197 3.81417 1.06476 0
M  V30 7550 H 693.371 4.25887 -1.75945 0
M  V30 7551 H 691.686 3.90614 -1.44256 0
M  V30 7552 H 694.283 5.25455 0.990026 0
M  V30 7553 H 694.626 3.74995 1.80787 0
M  V30 7554 H 695.159 3.97606 0.124213 0
M  V30 7555 H 691.898 6.31792 -1.74697 0
M  V30 7556 H 691.418 5.99765 -0.0645968 0
M  V30 7557 H 693.097 6.45471 -0.444591 0
M  V30 7558 N 693.229 0.160201 1.56784 0
M  V30 7559 C 694.477 -0.486625 1.96154 0
M  V30 7560 C 694.798 -1.64525 1.04673 0
M  V30 7561 O 694.068 -1.95586 0.110864 0
M  V30 7562 H 692.648 -0.182764 0.724297 0
M  V30 7563 H 695.31 0.238787 1.93432 0
M  V30 7564 H 694.406 -0.854025 3.00188 0
M  V30 7565 N 694.707 -1.5719 -0.113559 0
M  V30 7566 C 695.984 -1.76117 -0.850999 0
M  V30 7567 C 696.364 -0.737085 -1.97814 0
M  V30 7568 O 695.712 0.237942 -2.27258 0
M  V30 7569 C 695.922 -3.21298 -1.36266 0
M  V30 7570 C 697.27 -3.83955 -1.81283 0
M  V30 7571 O 698.294 -3.24934 -1.45933 0
M  V30 7572 O 697.153 -4.87707 -2.46585 0
M  V30 7573 H 694.247 -0.721308 -0.404529 0
M  V30 7574 H 696.793 -1.69423 -0.0968756 0
M  V30 7575 H 695.565 -3.87355 -0.554235 0
M  V30 7576 H 695.188 -3.32552 -2.17933 0
M  V30 7577 N 696.185 0.383891 -1.52853 0
M  V30 7578 C 697.433 1.12619 -1.67814 0
M  V30 7579 C 697.754 1.90354 -0.423141 0
M  V30 7580 O 697.024 1.87649 0.562554 0
M  V30 7581 H 695.604 0.418738 -0.618601 0
M  V30 7582 H 698.266 0.43495 -1.89985 0
M  V30 7583 H 697.362 1.82624 -2.5309 0
M  V30 7584 N 697.663 1.43903 0.642637 0
M  V30 7585 C 698.611 1.50164 1.77634 0
M  V30 7586 C 699.605 0.374294 1.65213 0
M  V30 7587 O 700.811 0.548748 1.71431 0
M  V30 7588 H 697.186 0.470974 0.586249 0
M  V30 7589 H 699.157 2.45603 1.69474 0
M  V30 7590 C 697.906 1.45196 3.15933 0
M  V30 7591 H 697.229 2.31253 3.26132 0
M  V30 7592 H 698.669 1.53638 3.95185 0
M  V30 7593 C 697.128 0.171043 3.36466 0
M  V30 7594 O 697.658 -0.763413 3.94379 0
M  V30 7595 N 695.864 0.077847 2.90496 0
M  V30 7596 H 695.411 0.8391 2.43551 0
M  V30 7597 H 695.369 -0.778473 3.0461 0
M  V30 7598 N 699.141 -0.881989 1.30609 0
M  V30 7599 C 700.071 -2.00413 1.1982 0
M  V30 7600 C 701.052 -1.69871 0.0881538 0
M  V30 7601 O 702.237 -1.92304 0.2707 0
M  V30 7602 C 699.367 -3.35641 0.89233 0
M  V30 7603 C 698.321 -3.80451 1.96064 0
M  V30 7604 C 697.647 -5.13003 1.5077 0
M  V30 7605 C 698.947 -3.98855 3.37213 0
M  V30 7606 H 700.641 -2.09698 2.13699 0
M  V30 7607 H 698.187 -1.00754 1.02882 0
M  V30 7608 H 700.14 -4.13669 0.803497 0
M  V30 7609 H 698.864 -3.26497 -0.0821381 0
M  V30 7610 H 697.523 -3.04654 2.03916 0
M  V30 7611 H 697.171 -5.0029 0.521417 0
M  V30 7612 H 696.871 -5.43956 2.22229 0
M  V30 7613 H 698.395 -5.93554 1.43271 0
M  V30 7614 H 699.809 -4.67312 3.32103 0
M  V30 7615 H 698.206 -4.41188 4.06784 0
M  V30 7616 H 699.276 -3.02614 3.78883 0
M  V30 7617 N 700.619 -1.13374 -1.09472 0
M  V30 7618 C 701.551 -0.768466 -2.15933 0
M  V30 7619 C 702.564 0.209585 -1.61445 0
M  V30 7620 O 703.753 -0.010539 -1.78497 0
M  V30 7621 C 700.853 -0.118266 -3.38694 0
M  V30 7622 C 700.026 -1.12829 -4.22597 0
M  V30 7623 C 699.085 -0.503875 -5.23782 0
M  V30 7624 O 698.111 -1.16374 -5.57177 0
M  V30 7625 N 699.313 0.724288 -5.75964 0
M  V30 7626 H 702.078 -1.68457 -2.47876 0
M  V30 7627 H 699.639 -1.02668 -1.25183 0
M  V30 7628 H 701.631 0.311698 -4.03498 0
M  V30 7629 H 700.201 0.700769 -3.04644 0
M  V30 7630 H 699.421 -1.73556 -3.53938 0
M  V30 7631 H 700.709 -1.81095 -4.75481 0
M  V30 7632 H 700.107 1.27918 -5.51048 0
M  V30 7633 H 698.664 1.09692 -6.42504 0
M  V30 7634 N 702.098 1.27442 -0.927168 0
M  V30 7635 C 703.328 1.9821 -0.582775 0
M  V30 7636 C 703.736 1.69361 0.843406 0
M  V30 7637 O 703.079 0.950381 1.57205 0
M  V30 7638 C 703.141 3.52048 -0.728165 0
M  V30 7639 C 702.805 4.04518 -2.12637 0
M  V30 7640 C 703.802 4.17332 -3.10048 0
M  V30 7641 C 701.487 4.38879 -2.44317 0
M  V30 7642 C 703.481 4.6378 -4.37249 0
M  V30 7643 C 701.168 4.85018 -3.71753 0
M  V30 7644 C 702.166 4.97428 -4.68033 0
M  V30 7645 O 701.854 5.42556 -5.93202 0
M  V30 7646 H 701.586 0.639314 -0.219667 0
M  V30 7647 H 704.14 1.63272 -1.24626 0
M  V30 7648 H 702.37 3.86699 -0.00758143 0
M  V30 7649 H 704.059 4.04033 -0.388906 0
M  V30 7650 H 704.825 3.91046 -2.86894 0
M  V30 7651 H 700.704 4.28462 -1.70121 0
M  V30 7652 H 704.248 4.73382 -5.12402 0
M  V30 7653 H 700.145 5.10746 -3.94726 0
M  V30 7654 H 700.913 5.60811 -5.96182 0
M  V30 7655 N 703.576 0.692616 1.41565 0
M  V30 7656 C 704.806 0.230943 2.05305 0
M  V30 7657 C 705.214 -1.12379 1.52209 0
M  V30 7658 O 704.557 -1.71281 0.663968 0
M  V30 7659 C 704.619 0.107894 3.59338 0
M  V30 7660 C 704.283 1.39419 4.35214 0
M  V30 7661 C 705.28 2.33143 4.64694 0
M  V30 7662 C 702.965 1.64674 4.74539 0
M  V30 7663 C 704.959 3.50385 5.32456 0
M  V30 7664 C 702.646 2.82202 5.42038 0
M  V30 7665 C 703.644 3.74881 5.70923 0
M  V30 7666 O 703.332 4.90351 6.37033 0
M  V30 7667 H 703.064 0.105708 0.667684 0
M  V30 7668 H 705.618 0.94488 1.82376 0
M  V30 7669 H 703.848 -0.661785 3.80995 0
M  V30 7670 H 705.537 -0.316213 4.04666 0
M  V30 7671 H 706.303 2.14887 4.34797 0
M  V30 7672 H 702.182 0.934007 4.51439 0
M  V30 7673 H 705.726 4.22743 5.54918 0
M  V30 7674 H 701.623 3.00376 5.71353 0
M  V30 7675 H 702.391 4.90128 6.55528 0
M  V30 7676 N 705.054 -1.51416 0.437162 0
M  V30 7677 C 705.984 -2.30631 -0.364922 0
M  V30 7678 C 706.965 -1.36037 -1.02118 0
M  V30 7679 O 708.15 -1.64956 -1.02485 0
M  V30 7680 C 705.28 -3.1482 -1.46648 0
M  V30 7681 C 704.234 -4.17691 -0.933717 0
M  V30 7682 C 703.56 -4.904 -2.13101 0
M  V30 7683 C 704.86 -5.2229 0.0317201 0
M  V30 7684 H 706.554 -2.97932 0.29614 0
M  V30 7685 H 704.1 -1.4328 0.143865 0
M  V30 7686 H 706.053 -3.69017 -2.03481 0
M  V30 7687 H 704.777 -2.4534 -2.15583 0
M  V30 7688 H 703.436 -3.64545 -0.387602 0
M  V30 7689 H 703.084 -4.17423 -2.80654 0
M  V30 7690 H 702.784 -5.59962 -1.78092 0
M  V30 7691 H 704.308 -5.4742 -2.70487 0
M  V30 7692 H 705.722 -5.7156 -0.446302 0
M  V30 7693 H 704.119 -5.99378 0.29437 0
M  V30 7694 H 705.189 -4.75131 0.968447 0
M  V30 7695 N 706.532 -0.168513 -1.56696 0
M  V30 7696 C 707.762 0.482802 -2.0088 0
M  V30 7697 C 708.17 1.57537 -1.0478 0
M  V30 7698 O 707.513 1.83656 -0.0402746 0
M  V30 7699 C 707.575 1.1236 -3.4149 0
M  V30 7700 C 707.239 0.173027 -4.56672 0
M  V30 7701 C 708.236 -0.607565 -5.16338 0
M  V30 7702 C 705.921 0.0696691 -5.02252 0
M  V30 7703 C 707.915 -1.47874 -6.2001 0
M  V30 7704 C 705.602 -0.805096 -6.05773 0
M  V30 7705 C 706.6 -1.57789 -6.64524 0
M  V30 7706 O 706.288 -2.43804 -7.66038 0
M  V30 7707 H 706.02 0.128246 -0.663723 0
M  V30 7708 H 708.574 -0.266532 -2.03663 0
M  V30 7709 H 706.804 1.921 -3.35611 0
M  V30 7710 H 708.493 1.67683 -3.69645 0
M  V30 7711 H 709.259 -0.53787 -4.82008 0
M  V30 7712 H 705.138 0.660957 -4.56237 0
M  V30 7713 H 708.682 -2.0824 -6.65794 0
M  V30 7714 H 704.579 -0.876005 -6.39528 0
M  V30 7715 H 705.347 -2.37289 -7.83349 0
M  V30 7716 N 708.01 1.57248 0.105221 0
M  V30 7717 C 708.958 2.02337 1.14728 0
M  V30 7718 C 709.952 0.922652 1.42069 0
M  V30 7719 O 711.158 1.10785 1.41869 0
M  V30 7720 H 707.533 0.644682 0.387155 0
M  V30 7721 H 709.504 2.89063 0.740607 0
M  V30 7722 C 708.253 2.45513 2.46209 0
M  V30 7723 H 707.576 3.29785 2.26013 0
M  V30 7724 H 709.016 2.80846 3.1765 0
M  V30 7725 C 707.475 1.3243 3.09781 0
M  V30 7726 O 708.005 0.647841 3.96442 0
M  V30 7727 N 706.211 1.07785 2.69872 0
M  V30 7728 H 705.758 1.62973 1.99493 0
M  V30 7729 H 705.716 0.323204 3.12734 0
M  V30 7730 N 709.488 -0.375779 1.53054 0
M  V30 7731 C 710.734 -1.11767 1.6994 0
M  V30 7732 C 711.089 -1.87288 0.440574 0
M  V30 7733 O 710.382 -1.83045 -0.566146 0
M  V30 7734 C 710.576 -2.11356 2.88207 0
M  V30 7735 C 710.405 -1.45619 4.25471 0
M  V30 7736 C 709.175 -1.21464 4.90484 0
M  V30 7737 C 711.373 -0.899276 5.06377 0
M  V30 7738 N 709.355 -0.519705 6.11696 0
M  V30 7739 C 710.726 -0.333138 6.19104 0
M  V30 7740 C 712.781 -0.79697 4.9148 0
M  V30 7741 C 711.484 0.325316 7.18564 0
M  V30 7742 C 713.51 -0.152315 5.91204 0
M  V30 7743 C 712.872 0.402994 7.03246 0
M  V30 7744 H 708.971 -0.394489 0.675206 0
M  V30 7745 H 711.555 -0.40541 1.90432 0
M  V30 7746 H 709.726 -2.79905 2.69272 0
M  V30 7747 H 711.458 -2.78148 2.93966 0
M  V30 7748 H 708.213 -1.49319 4.49445 0
M  V30 7749 H 708.637 -0.187896 6.76739 0
M  V30 7750 H 713.279 -1.21208 4.05054 0
M  V30 7751 H 710.997 0.752399 8.0459 0
M  V30 7752 H 714.583 -0.074223 5.81753 0
M  V30 7753 H 713.463 0.89394 7.79088 0
M  V30 7754 N 710.966 -1.44241 -0.634997 0
M  V30 7755 C 711.913 -1.5081 -1.74714 0
M  V30 7756 C 712.883 -0.356147 -1.62237 0
M  V30 7757 O 714.068 -0.565848 -1.82216 0
M  V30 7758 C 711.208 -1.45458 -3.12947 0
M  V30 7759 C 710.321 -2.70998 -3.36428 0
M  V30 7760 C 709.456 -2.57507 -4.64611 0
M  V30 7761 C 708.495 -3.78229 -4.81258 0
M  V30 7762 N 707.632 -3.63438 -6.00714 0
M  V30 7763 H 712.472 -2.45832 -1.68436 0
M  V30 7764 H 710.009 -1.2201 -0.821706 0
M  V30 7765 H 711.967 -1.40347 -3.92885 0
M  V30 7766 H 710.597 -0.540058 -3.1825 0
M  V30 7767 H 709.649 -2.86312 -2.50458 0
M  V30 7768 H 710.961 -3.60619 -3.44609 0
M  V30 7769 H 710.115 -2.50207 -5.52703 0
M  V30 7770 H 708.854 -1.65441 -4.58782 0
M  V30 7771 H 707.859 -3.85918 -3.91596 0
M  V30 7772 H 709.084 -4.71327 -4.88904 0
M  V30 7773 H 707.03 -2.7412 -5.95982 0
M  V30 7774 H 706.947 -4.46672 -6.09934 0
M  V30 7775 H 708.215 -3.60022 -6.91378 0
M  V30 7776 N 712.444 0.87505 -1.31075 0
M  V30 7777 C 713.684 1.64174 -1.21763 0
M  V30 7778 C 714.048 1.90713 0.221933 0
M  V30 7779 O 715.249 2.652 0.438458 0
M  V30 7780 C 713.52 2.93932 -2.0332 0
M  V30 7781 S 715.079 3.84841 -2.10815 0
M  V30 7782 H 711.897 0.563358 -0.433761 0
M  V30 7783 H 714.499 1.03788 -1.65675 0
M  V30 7784 H 713.203 2.72349 -3.07009 0
M  V30 7785 H 712.734 3.59345 -1.60108 0
M  V30 7786 H 714.749 4.80385 -1.24276 0
M  V30 7787 N 713.922 1.13953 1.08869 0
M  V30 7788 C 715.333 0.916649 1.62648 0
M  V30 7789 C 715.684 -0.545589 1.88462 0
M  V30 7790 O 714.809 -1.41351 1.63856 0
M  V30 7791 C 715.404 1.65751 2.95486 0
M  V30 7792 C 713.963 1.48034 3.46068 0
M  V30 7793 C 713.11 1.68305 2.20383 0
M  V30 7794 H 716.061 1.292 0.921572 0
M  V30 7795 H 716.082 1.11794 3.63707 0
M  V30 7796 H 715.594 2.72171 2.76667 0
M  V30 7797 H 713.695 0.439416 3.7 0
M  V30 7798 H 713.808 2.24719 4.23129 0
M  V30 7799 H 712.172 1.10833 2.29321 0
M  V30 7800 H 712.955 2.76057 2.04077 0
M  V30 7801 N 715.4 -1.26948 0.933913 0
M  V30 7802 C 716.625 -1.98724 0.593589 0
M  V30 7803 C 717.05 -1.6915 -0.822801 0
M  V30 7804 O 716.408 -0.93533 -1.5531 0
M  V30 7805 C 716.456 -3.50834 0.833542 0
M  V30 7806 O 715.56 -4.12284 -0.0978788 0
M  V30 7807 H 714.901 -0.623683 0.227849 0
M  V30 7808 H 717.431 -1.61599 1.25486 0
M  V30 7809 H 717.441 -4.01018 0.75156 0
M  V30 7810 H 716.116 -3.71691 1.86597 0
M  V30 7811 H 714.693 -3.72884 0.0345443 0
M  V30 7812 N 716.879 -0.700114 -1.41195 0
M  V30 7813 C 717.812 0.0129614 -2.28196 0
M  V30 7814 C 718.79 0.783367 -1.42486 0
M  V30 7815 O 719.974 0.773238 -1.71911 0
M  V30 7816 C 717.101 1.02575 -3.22794 0
M  V30 7817 C 716.147 0.347977 -4.25078 0
M  V30 7818 S 716.98 -0.912938 -5.27661 0
M  V30 7819 C 718.136 0.0981362 -6.25823 0
M  V30 7820 H 718.369 -0.724927 -2.88326 0
M  V30 7821 H 715.902 -0.490554 -1.464 0
M  V30 7822 H 717.86 1.60491 -3.77826 0
M  V30 7823 H 716.521 1.73624 -2.61751 0
M  V30 7824 H 715.714 1.11305 -4.91556 0
M  V30 7825 H 715.316 -0.15823 -3.73665 0
M  V30 7826 H 717.608 0.949965 -6.70807 0
M  V30 7827 H 718.551 -0.532838 -7.06092 0
M  V30 7828 H 718.959 0.454944 -5.62664 0
M  V30 7829 N 718.357 1.51182 -0.445186 0
M  V30 7830 C 719.605 2.01753 0.11841 0
M  V30 7831 C 719.926 1.33087 1.42523 0
M  V30 7832 O 719.196 0.467891 1.9023 0
M  V30 7833 H 717.776 0.745536 0.0467492 0
M  V30 7834 H 720.438 1.85765 -0.589688 0
M  V30 7835 H 719.534 3.10762 0.288665 0
M  V30 7836 N 719.835 0.176821 1.56605 0
M  V30 7837 C 720.798 -0.737429 2.17013 0
M  V30 7838 C 721.798 -1.15414 1.11965 0
M  V30 7839 O 722.988 -1.0702 1.37449 0
M  V30 7840 C 720.12 -2.00445 2.75744 0
M  V30 7841 H 721.313 -0.211455 2.99154 0
M  V30 7842 H 718.866 -0.0727582 1.56131 0
M  V30 7843 H 719.601 -2.57338 1.97352 0
M  V30 7844 H 719.386 -1.71456 3.52626 0
M  V30 7845 H 720.876 -2.65679 3.22187 0
M  V30 7846 N 721.313 -1.57302 -0.09688 0
M  V30 7847 C 722.223 -2.05258 -1.13606 0
M  V30 7848 C 723.239 -0.977137 -1.43972 0
M  V30 7849 O 724.415 -1.29018 -1.54649 0
M  V30 7850 C 721.48 -2.46593 -2.43706 0
M  V30 7851 C 720.541 -3.68322 -2.20538 0
M  V30 7852 C 719.774 -4.07676 -3.44435 0
M  V30 7853 O 719.997 -3.47141 -4.52603 0
M  V30 7854 O 718.931 -5.00641 -3.34129 0
M  V30 7855 H 722.757 -2.94069 -0.758752 0
M  V30 7856 H 720.342 -1.46164 -0.309263 0
M  V30 7857 H 722.224 -2.73814 -3.20318 0
M  V30 7858 H 720.899 -1.6092 -2.80867 0
M  V30 7859 H 719.806 -3.4622 -1.41713 0
M  V30 7860 H 721.139 -4.54769 -1.88271 0
M  V30 7861 N 722.791 0.367657 -1.53252 0
M  V30 7862 C 723.738 1.45028 -1.79543 0
M  V30 7863 C 724.708 1.53288 -0.63969 0
M  V30 7864 O 725.893 1.69209 -0.881653 0
M  V30 7865 C 723.033 2.82 -1.98923 0
M  V30 7866 C 722.146 2.82722 -3.26638 0
M  V30 7867 C 721.281 4.11257 -3.36216 0
M  V30 7868 C 720.32 4.06113 -4.57972 0
M  V30 7869 N 719.457 5.26293 -4.64715 0
M  V30 7870 H 724.297 1.21908 -2.71923 0
M  V30 7871 H 721.834 0.591011 -1.34705 0
M  V30 7872 H 723.792 3.61568 -2.08146 0
M  V30 7873 H 722.422 3.03523 -1.09881 0
M  V30 7874 H 721.474 1.95399 -3.26379 0
M  V30 7875 H 722.786 2.74794 -4.16281 0
M  V30 7876 H 721.94 4.99239 -3.44739 0
M  V30 7877 H 720.679 4.21935 -2.44586 0
M  V30 7878 H 719.684 3.16517 -4.49552 0
M  V30 7879 H 720.909 3.97039 -5.50942 0
M  V30 7880 H 718.855 5.37561 -3.75985 0
M  V30 7881 H 718.772 5.20526 -5.4826 0
M  V30 7882 H 720.04 6.16113 -4.77519 0
M  V30 7883 N 724.269 1.44576 0.627338 0
M  V30 7884 C 725.515 1.47777 1.38888 0
M  V30 7885 C 725.848 0.111406 1.9388 0
M  V30 7886 O 725.123 -0.87149 1.73883 0
M  V30 7887 C 725.406 2.54119 2.55138 0
M  V30 7888 C 725.259 4.00128 2.0547 0
M  V30 7889 C 726.578 2.56929 3.57317 0
M  V30 7890 H 723.697 0.538048 0.50366 0
M  V30 7891 H 726.339 1.76277 0.708978 0
M  V30 7892 H 724.489 2.29948 3.13139 0
M  V30 7893 H 726.161 4.35444 1.5227 0
M  V30 7894 H 724.404 4.11724 1.36623 0
M  V30 7895 H 725.075 4.7019 2.89181 0
M  V30 7896 H 727.551 2.78536 3.09122 0
M  V30 7897 H 726.427 3.33234 4.36173 0
M  V30 7898 H 726.688 1.6127 4.11636 0
M  V30 7899 N 725.747 -0.868086 1.31537 0
M  V30 7900 C 726.995 -1.61807 1.21091 0
M  V30 7901 C 727.316 -1.93631 -0.230623 0
M  V30 7902 O 726.586 -1.5846 -1.15183 0
M  V30 7903 H 725.166 -0.599854 0.445178 0
M  V30 7904 H 727.828 -1.03915 1.64887 0
M  V30 7905 H 726.924 -2.56088 1.78396 0
M  V30 7906 N 727.225 -1.14528 -1.08264 0
M  V30 7907 C 728.155 -0.856356 -2.1723 0
M  V30 7908 C 729.136 0.189251 -1.69044 0
M  V30 7909 O 730.321 0.0456119 -1.94146 0
M  V30 7910 C 727.451 -0.334662 -3.45684 0
M  V30 7911 C 726.405 -1.31588 -4.0727 0
M  V30 7912 C 725.731 -0.653428 -5.30692 0
M  V30 7913 C 727.031 -2.67866 -4.48381 0
M  V30 7914 H 728.725 -1.76755 -2.41657 0
M  V30 7915 H 726.271 -0.851287 -1.16143 0
M  V30 7916 H 728.224 -0.120128 -4.21229 0
M  V30 7917 H 726.948 0.611967 -3.20815 0
M  V30 7918 H 725.607 -1.51661 -3.33758 0
M  V30 7919 H 725.255 0.299054 -5.0211 0
M  V30 7920 H 724.955 -1.30817 -5.72853 0
M  V30 7921 H 726.479 -0.448453 -6.08951 0
M  V30 7922 H 727.893 -2.51692 -5.15096 0
M  V30 7923 H 726.29 -3.29627 -5.01464 0
M  V30 7924 H 727.36 -3.24632 -3.60198 0
M  V30 7925 N 728.703 1.26451 -0.940633 0
M  V30 7926 C 729.949 1.94065 -0.58878 0
M  V30 7927 C 730.282 1.7363 0.869853 0
M  V30 7928 O 729.557 1.073 1.62225 0
M  V30 7929 C 729.84 3.47852 -0.931199 0
M  V30 7930 C 729.693 3.77575 -2.44453 0
M  V30 7931 C 731.012 4.37832 -0.446229 0
M  V30 7932 H 728.131 0.704827 -0.21538 0
M  V30 7933 H 730.773 1.4933 -1.17475 0
M  V30 7934 H 728.923 3.86085 -0.432539 0
M  V30 7935 H 730.595 3.49059 -3.01588 0
M  V30 7936 H 728.838 3.23671 -2.88825 0
M  V30 7937 H 729.509 4.85068 -2.63464 0
M  V30 7938 H 731.985 4.06822 -0.873778 0
M  V30 7939 H 730.861 5.44228 -0.714648 0
M  V30 7940 H 731.122 4.37239 0.653815 0
M  V30 7941 N 730.181 0.707592 1.40822 0
M  V30 7942 C 731.111 0.0644925 2.33411 0
M  V30 7943 C 732.092 -0.754205 1.52466 0
M  V30 7944 O 733.277 -0.704749 1.80961 0
M  V30 7945 C 730.407 -0.863865 3.36385 0
M  V30 7946 C 729.361 -0.15138 4.27732 0
M  V30 7947 C 728.687 -1.19491 5.21177 0
M  V30 7948 C 729.987 0.989607 5.12839 0
M  V30 7949 H 731.681 0.837829 2.87438 0
M  V30 7950 H 729.227 0.404346 1.38207 0
M  V30 7951 H 731.18 -1.32309 4.0009 0
M  V30 7952 H 729.904 -1.66901 2.80734 0
M  V30 7953 H 728.563 0.287937 3.65467 0
M  V30 7954 H 728.211 -1.9929 4.61836 0
M  V30 7955 H 727.911 -0.723123 5.83134 0
M  V30 7956 H 729.435 -1.6544 5.8776 0
M  V30 7957 H 730.849 0.610114 5.70044 0
M  V30 7958 H 729.246 1.38926 5.83798 0
M  V30 7959 H 730.316 1.82389 4.49291 0
M  V30 7960 N 731.66 -1.50943 0.453197 0
M  V30 7961 C 732.592 -2.25922 -0.38623 0
M  V30 7962 C 733.605 -1.3055 -0.972652 0
M  V30 7963 O 734.794 -1.56191 -0.864097 0
M  V30 7964 C 731.894 -3.01176 -1.5539 0
M  V30 7965 C 731.067 -4.23768 -1.0835 0
M  V30 7966 C 730.126 -4.81466 -2.12313 0
M  V30 7967 O 729.152 -5.42875 -1.71101 0
M  V30 7968 N 730.354 -4.66889 -3.44956 0
M  V30 7969 H 733.119 -2.98601 0.256468 0
M  V30 7970 H 730.68 -1.59408 0.282965 0
M  V30 7971 H 732.672 -3.36659 -2.24594 0
M  V30 7972 H 731.242 -2.31409 -2.10163 0
M  V30 7973 H 730.462 -3.93597 -0.217961 0
M  V30 7974 H 731.75 -5.03289 -0.746857 0
M  V30 7975 H 731.148 -4.18011 -3.81161 0
M  V30 7976 H 729.705 -5.06691 -4.1001 0
M  V30 7977 O 733.177 -0.326351 -1.58168 0
M  V30 7978 H 733.868 0.23289 -1.92295 0
M  V30 END ATOM
M  V30 BEGIN BOND
M  V30 END BOND
M  V30 END CTAB
M  END
$$$$
