drugbank_target|P08588 Beta-1 adrenergic receptor (DB00127; DB00187; DB00195; DB00221; DB00243; DB00248; DB00264; DB00335; DB00368; DB00373; DB00397; DB00408; DB00489; DB00521; DB00555; DB00571; DB00598; DB00612; DB00668; DB00841; DB00852; DB00866; DB00871; DB00938; DB00960; DB00983; DB01001; DB01064; DB01102; DB01136; DB01151; DB01182; DB01193; DB01203; DB01210; DB01214; DB01238; DB01288; DB01291; DB01295; DB01297; DB01359; DB01363; DB01364; DB01407; DB01580; DB01917; DB03566; DB04846; DB04855; DB04861; DB06216; DB06262; DB08347; DB08558; DB08807; DB08808; DB09013; DB09068; DB09204; DB09351; DB11124; DB11278; DB13781)
 OpenBabel12092119253D

  0  0  0     0  0            999 V3000
M  V30 BEGIN CTAB
M  V30 COUNTS 7278 7379 0 0 0
M  V30 BEGIN ATOM
M  V30 1 H -0.908 1.98254 -0.117106 0
M  V30 2 N 0 1.576 0 0
M  V30 3 C 0.933 2.03868 1.02534 0
M  V30 4 C 1.911 0.928543 1.3348 0
M  V30 5 O 3.095 1.19667 1.45644 0
M  V30 6 C 0.222 2.43627 2.35294 0
M  V30 7 C -0.732 3.65373 2.2001 0
M  V30 8 S 0.101 5.13292 1.52614 0
M  V30 9 C 1.257 5.56322 2.86805 0
M  V30 10 H 1.49 2.90518 0.631377 0
M  V30 11 H -0.977 1.52953 0.210867 0
M  V30 12 H 0.981 2.67203 3.11629 0
M  V30 13 H -0.358 1.57376 2.7183 0
M  V30 14 H -1.165 3.90944 3.18086 0
M  V30 15 H -1.563 3.418 1.51819 0
M  V30 16 H 0.729 5.58782 3.83104 0
M  V30 17 H 1.672 6.56266 2.65933 0
M  V30 18 H 2.08 4.83886 2.90714 0
M  V30 19 N 1.4781 -0.272755 1.55222 0
M  V30 20 C 2.7261 -1.00234 1.75492 0
M  V30 21 C 3.0471 -1.8681 0.5592 0
M  V30 22 O 2.3171 -1.91215 -0.425882 0
M  V30 23 H 0.8971 -0.373076 0.647166 0
M  V30 24 H 3.5591 -0.296926 1.92625 0
M  V30 25 H 2.6551 -1.63913 2.65592 0
M  V30 26 N 2.9562 -1.48159 -0.537278 0
M  V30 27 C 3.9192 -1.61665 -1.62472 0
M  V30 28 C 4.9192 -0.490395 -1.5314 0
M  V30 29 O 6.1092 -0.755998 -1.5694 0
M  V30 30 C 3.2412 -1.57997 -3.02076 0
M  V30 31 H 4.4342 -2.58621 -1.51839 0
M  V30 32 H 1.9872 -1.36647 -0.758771 0
M  V30 33 H 2.7222 -0.624913 -3.18222 0
M  V30 34 H 2.5072 -2.39755 -3.10258 0
M  V30 35 H 3.9972 -1.70627 -3.81151 0
M  V30 36 N 4.4343 0.785586 -1.36625 0
M  V30 37 C 5.6823 1.54057 -1.30808 0
M  V30 38 C 6.0033 1.94683 0.111157 0
M  V30 39 O 5.2733 1.65241 1.05224 0
M  V30 40 H 3.8533 0.571354 -0.481211 0
M  V30 41 H 6.5153 0.935821 -1.70963 0
M  V30 42 H 5.6113 2.44637 -1.93801 0
M  V30 43 N 5.9124 1.20967 1.01018 0
M  V30 44 C 7.1584 1.02526 1.74975 0
M  V30 45 C 7.4914 -0.4408 1.89131 0
M  V30 46 O 6.7664 -1.32718 1.42184 0
M  V30 47 C 7.0494 1.71699 3.1653 0
M  V30 48 C 6.9024 3.25791 3.10129 0
M  V30 49 C 8.2214 1.45531 4.15342 0
M  V30 50 H 5.3404 0.373863 0.635134 0
M  V30 51 H 7.9824 1.49071 1.17805 0
M  V30 52 H 6.1324 1.32128 3.65341 0
M  V30 53 H 7.8044 3.74697 2.69072 0
M  V30 54 H 6.0474 3.56363 2.47362 0
M  V30 55 H 6.7184 3.69353 4.10222 0
M  V30 56 H 9.1944 1.79872 3.75213 0
M  V30 57 H 8.0704 1.96453 5.1254 0
M  V30 58 H 8.3314 0.384237 4.40427 0
M  V30 59 N 7.3905 -1.2043 1.01659 0
M  V30 60 C 8.3205 -2.25466 0.607226 0
M  V30 61 C 9.3015 -1.65853 -0.377716 0
M  V30 62 O 10.4865 -1.92409 -0.263149 0
M  V30 63 C 7.6165 -3.47256 -0.0552949 0
M  V30 64 C 6.5705 -4.19462 0.850632 0
M  V30 65 C 5.8965 -5.34673 0.0538859 0
M  V30 66 C 7.1965 -4.75603 2.15868 0
M  V30 67 H 8.8905 -2.59962 1.48526 0
M  V30 68 H 6.4365 -1.2496 0.715605 0
M  V30 69 H 8.3895 -4.19917 -0.353233 0
M  V30 70 H 7.1135 -3.11924 -0.968045 0
M  V30 71 H 5.7725 -3.48667 1.13257 0
M  V30 72 H 5.4205 -4.95585 -0.860514 0
M  V30 73 H 5.1205 -5.83913 0.657192 0
M  V30 74 H 6.6445 -6.10138 -0.237598 0
M  V30 75 H 8.0585 -5.40083 1.92311 0
M  V30 76 H 6.4555 -5.3528 2.71284 0
M  V30 77 H 7.5255 -3.94346 2.82169 0
M  V30 78 N 8.8686 -0.792821 -1.36206 0
M  V30 79 C 10.1146 -0.36733 -1.99446 0
M  V30 80 C 10.4476 1.05917 -1.62774 0
M  V30 81 O 9.7226 1.7324 -0.88421 0
M  V30 82 C 10.0056 -0.535044 -3.56103 0
M  V30 83 C 9.8586 -2.00548 -4.02617 0
M  V30 84 C 11.1776 0.0478191 -4.40074 0
M  V30 85 H 8.2966 -0.134941 -0.724541 0
M  V30 86 H 10.9386 -0.999794 -1.61568 0
M  V30 87 H 9.0886 0.00336329 -3.885 0
M  V30 88 H 10.7606 -2.60521 -3.80692 0
M  V30 89 H 9.0036 -2.50686 -3.54032 0
M  V30 90 H 9.6746 -2.07377 -5.11565 0
M  V30 91 H 12.1506 -0.411822 -4.14057 0
M  V30 92 H 11.0266 -0.0995336 -5.4881 0
M  V30 93 H 11.2876 1.14025 -4.27142 0
M  V30 94 N 10.3467 1.47872 -0.545128 0
M  V30 95 C 11.2767 2.32661 0.197793 0
M  V30 96 C 12.2577 1.43041 0.920504 0
M  V30 97 O 13.4427 1.71912 0.90333 0
M  V30 98 C 10.5727 3.24569 1.23582 0
M  V30 99 C 9.5267 4.23333 0.630323 0
M  V30 100 C 8.8527 5.0448 1.77211 0
M  V30 101 C 10.1527 5.20704 -0.407974 0
M  V30 102 H 11.8467 2.95024 -0.510045 0
M  V30 103 H 9.3927 1.4187 -0.246731 0
M  V30 104 H 11.3457 3.8272 1.76362 0
M  V30 105 H 10.0697 2.60236 1.97344 0
M  V30 106 H 8.7287 3.6639 0.123922 0
M  V30 107 H 8.3767 4.36561 2.49847 0
M  V30 108 H 8.0767 5.71339 1.37281 0
M  V30 109 H 9.6007 5.65487 2.3034 0
M  V30 110 H 11.0147 5.7329 0.033305 0
M  V30 111 H 9.4117 5.95699 -0.725486 0
M  V30 112 H 10.4817 4.66917 -1.30828 0
M  V30 113 N 11.8248 0.280983 1.55075 0
M  V30 114 C 13.0728 -0.333455 1.9933 0
M  V30 115 C 13.3938 -1.55937 1.17085 0
M  V30 116 O 12.6638 -1.94143 0.261805 0
M  V30 117 H 11.2438 -0.126197 0.736263 0
M  V30 118 H 13.9058 0.387678 1.91005 0
M  V30 119 H 13.0018 -0.619292 3.05894 0
M  V30 120 N 13.3029 -1.57598 0.00835791 0
M  V30 121 C 14.2659 -2.07884 -0.965242 0
M  V30 122 C 15.2659 -0.989825 -1.26725 0
M  V30 123 O 16.4559 -1.25218 -1.21104 0
M  V30 124 C 13.5879 -2.52731 -2.28779 0
M  V30 125 H 14.7809 -2.95178 -0.530112 0
M  V30 126 H 12.3339 -1.54458 -0.239283 0
M  V30 127 H 13.0689 -1.68705 -2.76964 0
M  V30 128 H 12.8539 -3.32272 -2.08177 0
M  V30 129 H 14.3439 -2.91933 -2.98605 0
M  V30 130 N 14.781 0.264519 -1.55364 0
M  V30 131 C 16.006 1.01726 -1.80739 0
M  V30 132 C 16.431 1.78836 -0.583044 0
M  V30 133 O 15.789 1.75167 0.467566 0
M  V30 134 C 15.837 1.94482 -3.03659 0
M  V30 135 O 14.941 3.03386 -2.7934 0
M  V30 136 H 14.282 0.290395 -0.597132 0
M  V30 137 H 16.812 0.290854 -2.02522 0
M  V30 138 H 16.822 2.36278 -3.32621 0
M  V30 139 H 15.497 1.37772 -3.92418 0
M  V30 140 H 14.074 2.65844 -2.61498 0
M  V30 141 N 16.2591 1.48442 0.529413 0
M  V30 142 C 17.1691 1.6569 1.66084 0
M  V30 143 C 18.1851 0.539432 1.65427 0
M  V30 144 O 19.3611 0.810572 1.84368 0
M  V30 145 C 16.4261 1.69315 3.02545 0
M  V30 146 C 15.4871 2.92694 3.14052 0
M  V30 147 C 14.7201 2.96137 4.44003 0
M  V30 148 O 14.9431 2.07973 5.31134 0
M  V30 149 O 13.8771 3.88312 4.59888 0
M  V30 150 H 17.7031 2.61483 1.54469 0
M  V30 151 H 15.2881 1.3185 0.702567 0
M  V30 152 H 17.1701 1.74217 3.83701 0
M  V30 153 H 15.8451 0.766966 3.14483 0
M  V30 154 H 14.7521 2.93324 2.32189 0
M  V30 155 H 16.0851 3.84699 3.0703 0
M  V30 156 N 17.7372 -0.778329 1.37039 0
M  V30 157 C 19.1482 -1.35421 1.28523 0
M  V30 158 C 19.4992 -1.96075 -0.0700901 0
M  V30 159 O 18.6242 -1.93352 -0.971801 0
M  V30 160 C 19.2192 -2.46211 2.32735 0
M  V30 161 C 17.7782 -2.99585 2.27873 0
M  V30 162 C 16.9252 -1.72748 2.16918 0
M  V30 163 H 19.8762 -0.5791 1.47757 0
M  V30 164 H 19.8972 -3.2552 1.9702 0
M  V30 165 H 19.4092 -2.02036 3.31365 0
M  V30 166 H 17.5102 -3.48152 1.32745 0
M  V30 167 H 17.6232 -3.55646 3.21018 0
M  V30 168 H 15.9872 -1.95416 1.63354 0
M  V30 169 H 16.7702 -1.30686 3.17452 0
M  V30 170 N 19.2153 -1.21501 -1.00376 0
M  V30 171 C 20.4633 -1.03095 -1.73827 0
M  V30 172 C 20.7843 0.436341 -1.90055 0
M  V30 173 O 20.0543 1.31466 -1.45236 0
M  V30 174 H 18.6343 -0.378487 -0.644016 0
M  V30 175 H 21.2963 -1.52831 -1.20949 0
M  V30 176 H 20.3923 -1.49991 -2.73695 0
M  V30 177 N 20.6934 1.19889 -1.02296 0
M  V30 178 C 21.6414 2.24938 -0.592081 0
M  V30 179 C 22.6354 1.65257 0.372357 0
M  V30 180 O 23.8414 1.78371 0.241583 0
M  V30 181 H 20.2164 0.731787 -0.173182 0
M  V30 182 H 22.1874 2.58603 -1.48885 0
M  V30 183 C 20.9364 3.47668 0.047351 0
M  V30 184 H 20.2594 3.93875 -0.685772 0
M  V30 185 H 21.6994 4.22852 0.311862 0
M  V30 186 C 20.1584 3.11136 1.29212 0
M  V30 187 O 20.6884 3.2325 2.38479 0
M  V30 188 N 18.8944 2.65625 1.17863 0
M  V30 189 H 18.4414 2.55968 0.289493 0
M  V30 190 H 18.3994 2.41553 2.01245 0
M  V30 191 N 22.1715 0.800033 1.35784 0
M  V30 192 C 23.1015 0.220184 2.3246 0
M  V30 193 C 24.0825 -0.65073 1.57161 0
M  V30 194 O 25.2675 -0.582359 1.85263 0
M  V30 195 C 22.3975 -0.637353 3.41402 0
M  V30 196 C 21.3515 0.134531 4.27789 0
M  V30 197 C 20.6775 -0.844285 5.27992 0
M  V30 198 C 21.9775 1.32979 5.05088 0
M  V30 199 H 23.6715 1.02787 2.81203 0
M  V30 200 H 21.2175 0.495717 1.35199 0
M  V30 201 H 23.1705 -1.05302 4.08031 0
M  V30 202 H 21.8945 -1.47785 2.91251 0
M  V30 203 H 20.5535 0.531296 3.6273 0
M  V30 204 H 20.2015 -1.68011 4.74111 0
M  V30 205 H 19.9015 -0.332184 5.8666 0
M  V30 206 H 21.4255 -1.2583 5.97494 0
M  V30 207 H 22.8395 0.98934 5.64699 0
M  V30 208 H 21.2365 1.77593 5.7322 0
M  V30 209 H 22.3065 2.11978 4.36111 0
M  V30 210 N 23.6496 -1.47581 0.552962 0
M  V30 211 C 24.8746 -2.07378 0.0300593 0
M  V30 212 C 25.2996 -1.40355 -1.25229 0
M  V30 213 O 24.6576 -0.477099 -1.7491 0
M  V30 214 C 24.7056 -3.60274 -0.153231 0
M  V30 215 O 23.8096 -3.94041 -1.21678 0
M  V30 216 H 23.1506 -0.662158 0.0494182 0
M  V30 217 H 25.6806 -1.89662 0.767434 0
M  V30 218 H 25.6906 -4.0633 -0.368761 0
M  V30 219 H 24.3656 -4.08455 0.783397 0
M  V30 220 H 22.9426 -3.59735 -0.982079 0
M  V30 221 N 25.1277 -0.289203 -1.54924 0
M  V30 222 C 26.3527 0.329299 -2.04769 0
M  V30 223 C 26.7777 1.4763 -1.16564 0
M  V30 224 O 26.1357 1.80527 -0.167186 0
M  V30 225 C 26.1837 0.774438 -3.52186 0
M  V30 226 O 25.2877 1.88038 -3.67036 0
M  V30 227 H 24.6287 0.0659259 -0.660719 0
M  V30 228 H 27.1587 -0.42761 -2.00082 0
M  V30 229 H 27.1687 1.06642 -3.93816 0
M  V30 230 H 25.8437 -0.0646707 -4.1585 0
M  V30 231 H 24.4207 1.58985 -3.3731 0
M  V30 232 N 26.6058 1.57591 -0.0167156 0
M  V30 233 C 27.5688 2.08393 0.954204 0
M  V30 234 C 28.5688 0.996531 1.26198 0
M  V30 235 O 29.7588 1.25858 1.20438 0
M  V30 236 C 26.8908 2.5394 2.27436 0
M  V30 237 H 28.0838 2.95455 0.514451 0
M  V30 238 H 25.6368 1.54582 0.231089 0
M  V30 239 H 26.3718 1.70171 2.76066 0
M  V30 240 H 26.1568 3.33371 2.06412 0
M  V30 241 H 27.6468 2.93512 2.97053 0
M  V30 242 N 28.0839 -0.256276 1.55502 0
M  V30 243 C 29.0469 -1.30047 1.88734 0
M  V30 244 C 30.0469 -1.4154 0.763086 0
M  V30 245 O 31.2369 -1.40403 1.03115 0
M  V30 246 C 28.3689 -2.67953 2.10747 0
M  V30 247 H 29.5619 -1.01802 2.82093 0
M  V30 248 H 27.1149 -0.495134 1.4825 0
M  V30 249 H 27.8499 -3.01351 1.19825 0
M  V30 250 H 27.6349 -2.60993 2.92617 0
M  V30 251 H 29.1249 -3.43368 2.37673 0
M  V30 252 N 29.562 -1.4872 -0.521534 0
M  V30 253 C 30.973 -1.50607 -1.10337 0
M  V30 254 C 31.324 -0.280612 -1.94183 0
M  V30 255 O 30.449 0.611507 -2.0758 0
M  V30 256 C 31.044 -2.72903 -2.00772 0
M  V30 257 C 29.603 -2.77634 -2.54158 0
M  V30 258 C 28.75 -2.44241 -1.31307 0
M  V30 259 H 31.701 -1.55714 -0.306388 0
M  V30 260 H 31.722 -2.519 -2.85178 0
M  V30 261 H 31.234 -3.62077 -1.39721 0
M  V30 262 H 29.335 -1.92689 -3.18907 0
M  V30 263 H 29.448 -3.79283 -2.92714 0
M  V30 264 H 27.812 -1.95577 -1.63161 0
M  V30 265 H 28.595 -3.35666 -0.719943 0
M  V30 266 N 31.0401 0.771051 -1.3745 0
M  V30 267 C 31.9701 1.89827 -1.3597 0
M  V30 268 C 32.9511 1.68562 -0.228216 0
M  V30 269 O 34.1361 1.8941 -0.428675 0
M  V30 270 C 31.2661 3.2712 -1.16662 0
M  V30 271 C 30.2201 3.6295 -2.2683 0
M  V30 272 C 29.5461 4.98791 -1.92644 0
M  V30 273 C 30.8461 3.69627 -3.69017 0
M  V30 274 H 32.5401 1.91323 -2.30295 0
M  V30 275 H 30.0861 0.919082 -1.10855 0
M  V30 276 H 32.0391 4.05615 -1.14256 0
M  V30 277 H 30.7631 3.26059 -0.187926 0
M  V30 278 H 29.4221 2.86763 -2.28392 0
M  V30 279 H 29.0701 4.94271 -0.933021 0
M  V30 280 H 28.7701 5.23733 -2.66416 0
M  V30 281 H 30.2941 5.79685 -1.91826 0
M  V30 282 H 31.7081 4.38273 -3.69581 0
M  V30 283 H 30.1051 4.06067 -4.41848 0
M  V30 284 H 31.1751 2.70273 -4.02592 0
M  V30 285 N 32.5182 1.22032 0.997298 0
M  V30 286 C 33.9292 1.0397 1.55071 0
M  V30 287 C 34.2802 -0.398192 1.92117 0
M  V30 288 O 33.4052 -1.28254 1.74298 0
M  V30 289 C 34.0002 1.88109 2.81781 0
M  V30 290 C 32.5592 1.74357 3.33581 0
M  V30 291 C 31.7062 1.84846 2.06706 0
M  V30 292 H 34.6572 1.35941 0.818883 0
M  V30 293 H 34.6782 1.39589 3.53971 0
M  V30 294 H 34.1902 2.92754 2.54787 0
M  V30 295 H 32.2912 0.72427 3.65493 0
M  V30 296 H 32.4042 2.56772 4.04481 0
M  V30 297 H 30.7682 1.28238 2.20062 0
M  V30 298 H 31.5512 2.91014 1.82114 0
M  V30 299 N 33.9963 -1.19345 1.0293 0
M  V30 300 C 35.2733 -1.84811 0.640642 0
M  V30 301 C 35.6533 -1.91855 -0.88062 0
M  V30 302 O 35.0013 -1.43587 -1.7775 0
M  V30 303 C 35.2113 -3.23755 1.30321 0
M  V30 304 C 36.5593 -3.99912 1.42673 0
M  V30 305 O 37.5833 -3.33155 1.26041 0
M  V30 306 O 36.4423 -5.19494 1.6967 0
M  V30 307 H 33.5363 -0.796443 0.222726 0
M  V30 308 H 36.0823 -1.26831 1.12748 0
M  V30 309 H 34.8543 -3.13466 2.34211 0
M  V30 310 H 34.4773 -3.89381 0.804261 0
M  V30 311 N 35.4744 -0.807222 -1.35358 0
M  V30 312 C 36.7224 -0.387122 -1.98358 0
M  V30 313 C 37.0434 1.04942 -1.64354 0
M  V30 314 O 36.3134 1.72615 -0.926339 0
M  V30 315 H 34.8934 -0.140154 -0.733734 0
M  V30 316 H 37.5554 -1.0332 -1.6526 0
M  V30 317 H 36.6514 -0.493352 -3.08176 0
M  V30 318 N 36.9525 1.47285 -0.560781 0
M  V30 319 C 37.9155 2.28535 0.174488 0
M  V30 320 C 38.9155 1.37153 0.839388 0
M  V30 321 O 40.1055 1.59748 0.694702 0
M  V30 322 C 37.2375 3.16934 1.25561 0
M  V30 323 H 38.4305 2.95012 -0.539262 0
M  V30 324 H 35.9835 1.53034 -0.317865 0
M  V30 325 H 36.7185 2.55157 2.00164 0
M  V30 326 H 36.5035 3.8419 0.783604 0
M  V30 327 H 37.9935 3.78143 1.77193 0
M  V30 328 N 38.4306 0.297415 1.54768 0
M  V30 329 C 39.3936 -0.567375 2.22066 0
M  V30 330 C 40.3936 -1.06409 1.20556 0
M  V30 331 O 41.5836 -0.960691 1.45315 0
M  V30 332 C 38.7156 -1.78517 2.90421 0
M  V30 333 H 39.9086 0.0205534 2.99893 0
M  V30 334 H 37.4616 0.0482163 1.56226 0
M  V30 335 H 38.1966 -2.41303 2.16664 0
M  V30 336 H 37.9816 -1.43669 3.64831 0
M  V30 337 H 39.4716 -2.39964 3.41771 0
M  V30 338 N 39.9087 -1.5758 0.0250728 0
M  V30 339 C 41.1367 -1.9593 -0.664747 0
M  V30 340 C 41.5517 -0.901352 -1.65895 0
M  V30 341 O 40.9087 0.117255 -1.82123 0
M  V30 342 C 40.9597 -3.34342 -1.37468 0
M  V30 343 O 40.6807 -4.36079 -0.420324 0
M  V30 344 C 42.1817 -3.873 -2.1567 0
M  V30 345 H 39.4017 -0.645405 -0.183557 0
M  V30 346 H 41.9457 -2.04329 0.0836372 0
M  V30 347 H 40.1007 -3.27175 -2.0745 0
M  V30 348 H 40.5147 -5.16297 -0.923991 0
M  V30 349 H 41.9887 -4.86504 -2.60803 0
M  V30 350 H 42.4657 -3.21331 -2.99405 0
M  V30 351 H 43.0717 -3.97723 -1.50654 0
M  V30 352 N 41.3868 0.248026 -1.55636 0
M  V30 353 C 42.3498 1.29044 -1.89421 0
M  V30 354 C 43.3498 1.41134 -0.770581 0
M  V30 355 O 44.5398 1.39854 -1.03858 0
M  V30 356 C 41.6718 2.66831 -2.12165 0
M  V30 357 H 42.8648 1.00305 -2.82629 0
M  V30 358 H 40.4178 0.487265 -1.48511 0
M  V30 359 H 41.1528 3.00711 -1.21422 0
M  V30 360 H 40.9378 2.59438 -2.93997 0
M  V30 361 H 42.4278 3.42103 -2.3949 0
M  V30 362 N 42.8649 1.48995 0.513639 0
M  V30 363 C 43.8279 1.64229 1.59879 0
M  V30 364 C 44.8279 0.514696 1.5234 0
M  V30 365 O 46.0179 0.78087 1.55718 0
M  V30 366 C 43.1499 1.62783 2.99524 0
M  V30 367 H 44.3429 2.61004 1.47705 0
M  V30 368 H 41.8959 1.37837 0.736936 0
M  V30 369 H 42.6309 0.675461 3.17188 0
M  V30 370 H 42.4159 2.4466 3.06404 0
M  V30 371 H 43.9059 1.76669 3.78388 0
M  V30 372 N 44.343 -0.763751 1.37857 0
M  V30 373 C 45.759 -1.06542 1.18832 0
M  V30 374 C 45.959 -2.01478 0.0299722 0
M  V30 375 O 45.015 -2.4458 -0.627447 0
M  V30 376 C 46.328 -1.65525 2.51042 0
M  V30 377 C 47.876 -1.77745 2.57635 0
M  V30 378 C 48.351 -2.4014 3.89996 0
M  V30 379 N 49.842 -2.47582 3.91481 0
M  V30 380 C 50.577 -2.96732 4.9065 0
M  V30 381 N 50.073 -3.45993 6.00217 0
M  V30 382 N 51.866 -2.95679 4.78048 0
M  V30 383 H 44.017 -0.133556 2.1198 0
M  V30 384 H 46.28 -0.121879 0.940133 0
M  V30 385 H 45.986 -1.03236 3.36207 0
M  V30 386 H 45.86 -2.64719 2.68707 0
M  V30 387 H 48.247 -2.39164 1.72872 0
M  V30 388 H 48.328 -0.772836 2.43846 0
M  V30 389 H 47.972 -1.79358 4.75177 0
M  V30 390 H 47.902 -3.41223 4.01092 0
M  V30 391 H 50.393 -2.1273 3.12337 0
M  V30 392 H 50.706 -3.81922 6.7183 0
M  V30 393 H 49.051 -3.44077 6.03851 0
M  V30 394 H 52.242 -2.56499 3.91568 0
M  V30 395 H 52.415 -3.33672 5.55488 0
M  V30 396 N 45.8211 -1.22559 -0.990812 0
M  V30 397 C 46.7511 -1.0218 -2.09956 0
M  V30 398 C 47.7321 0.0579394 -1.70001 0
M  V30 399 O 48.9171 -0.104684 -1.93918 0
M  V30 400 C 46.0471 -0.601023 -3.4206 0
M  V30 401 C 45.0011 -1.62694 -3.95872 0
M  V30 402 C 44.3271 -1.06193 -5.24049 0
M  V30 403 C 45.6271 -3.01743 -4.2632 0
M  V30 404 H 47.3211 -1.94916 -2.27262 0
M  V30 405 H 44.8671 -0.938566 -1.09211 0
M  V30 406 H 46.8201 -0.445561 -4.19038 0
M  V30 407 H 45.5441 0.362005 -3.24588 0
M  V30 408 H 44.2031 -1.77021 -3.21028 0
M  V30 409 H 43.8511 -0.0901903 -5.02919 0
M  V30 410 H 43.5511 -1.74732 -5.61019 0
M  V30 411 H 45.0751 -0.918092 -6.03658 0
M  V30 412 H 46.4891 -2.90777 -4.94087 0
M  V30 413 H 44.8861 -3.67425 -4.74467 0
M  V30 414 H 45.9561 -3.51518 -3.34011 0
M  V30 415 N 47.2992 1.18797 -1.03562 0
M  V30 416 C 48.2292 2.24472 -0.643019 0
M  V30 417 C 49.2102 1.66433 0.351283 0
M  V30 418 O 50.3952 1.92803 0.232505 0
M  V30 419 C 47.5252 3.473 4.24935e-05 0
M  V30 420 C 46.4792 4.18055 -0.917257 0
M  V30 421 C 45.8052 5.34519 -0.138941 0
M  V30 422 C 47.1052 4.72109 -2.23407 0
M  V30 423 H 48.7992 2.57566 -1.52643 0
M  V30 424 H 46.3452 1.23806 -0.735394 0
M  V30 425 H 48.2982 4.20426 0.286383 0
M  V30 426 H 47.0222 3.13424 0.918299 0
M  V30 427 H 45.6812 3.46821 -1.1879 0
M  V30 428 H 45.3292 4.96891 0.781562 0
M  V30 429 H 45.0292 5.82794 -0.750005 0
M  V30 430 H 46.5532 6.10438 0.1405 0
M  V30 431 H 47.9672 5.36955 -2.00879 0
M  V30 432 H 46.3642 5.30897 -2.79765 0
M  V30 433 H 47.4342 3.89807 -2.88407 0
M  V30 434 N 48.7773 0.814389 1.34928 0
M  V30 435 C 50.0233 0.399013 1.98836 0
M  V30 436 C 50.3563 -1.03314 1.64438 0
M  V30 437 O 49.6313 -1.71811 0.911659 0
M  V30 438 C 49.9143 0.591629 3.55207 0
M  V30 439 C 49.7673 2.06928 3.99376 0
M  V30 440 C 51.0863 0.022199 4.40094 0
M  V30 441 H 48.2053 0.146451 0.722303 0
M  V30 442 H 50.8473 1.02537 1.59957 0
M  V30 443 H 48.9973 0.0584441 3.88456 0
M  V30 444 H 50.6693 2.66544 3.76499 0
M  V30 445 H 48.9123 2.56287 3.49999 0
M  V30 446 H 49.5833 2.1549 5.08201 0
M  V30 447 H 52.0593 0.477643 4.13349 0
M  V30 448 H 50.9353 0.186832 5.48582 0
M  V30 449 H 51.1963 -1.07215 4.28902 0
M  V30 450 N 50.2554 -1.46986 0.568584 0
M  V30 451 C 51.6664 -1.86188 0.138219 0
M  V30 452 C 52.0174 -1.47388 -1.29504 0
M  V30 453 O 51.1424 -0.88219 -1.97602 0
M  V30 454 C 51.7374 -3.3792 0.244065 0
M  V30 455 C 50.2964 -3.76171 -0.131335 0
M  V30 456 C 49.4434 -2.71027 0.586465 0
M  V30 457 H 52.3944 -1.38342 0.777645 0
M  V30 458 H 52.4154 -3.76729 -0.534351 0
M  V30 459 H 51.9274 -3.66128 1.28731 0
M  V30 460 H 50.0284 -3.5358 -1.17526 0
M  V30 461 H 50.1414 -4.78523 0.235146 0
M  V30 462 H 48.5054 -2.54684 0.0282722 0
M  V30 463 H 49.2884 -3.02077 1.63109 0
M  V30 464 N 51.7335 -0.305618 -1.54608 0
M  V30 465 C 52.6965 0.555591 -2.22364 0
M  V30 466 C 53.6965 1.05768 -1.21119 0
M  V30 467 O 54.8865 0.952972 -1.45822 0
M  V30 468 C 52.0185 1.76974 -2.91364 0
M  V30 469 H 53.2115 -0.0364572 -2.99878 0
M  V30 470 H 50.7645 -0.0565007 -1.56198 0
M  V30 471 H 51.4995 2.40151 -2.17941 0
M  V30 472 H 51.2845 1.41732 -3.65588 0
M  V30 473 H 52.7745 2.38148 -3.43038 0
M  V30 474 N 53.2116 1.57565 -0.0334293 0
M  V30 475 C 54.4366 1.96689 0.657895 0
M  V30 476 C 54.8616 0.910057 1.64619 0
M  V30 477 O 54.2196 -0.128598 1.80843 0
M  V30 478 C 54.2676 3.34905 1.33683 0
M  V30 479 O 53.3716 3.31574 2.45219 0
M  V30 480 H 52.7126 0.641205 0.172489 0
M  V30 481 H 55.2426 2.04372 -0.0965621 0
M  V30 482 H 55.2526 3.71234 1.69262 0
M  V30 483 H 53.9276 4.11366 0.612411 0
M  V30 484 H 52.5046 3.06968 2.11719 0
M  V30 485 N 54.6897 -0.239769 1.55765 0
M  V30 486 C 56.1007 -0.808263 1.68297 0
M  V30 487 C 56.4517 -1.85736 0.632181 0
M  V30 488 O 55.5767 -2.15277 -0.220204 0
M  V30 489 C 56.1717 -1.47284 3.05111 0
M  V30 490 C 54.7307 -1.98895 3.19559 0
M  V30 491 C 53.8777 -0.842575 2.64189 0
M  V30 492 H 56.8287 -0.0154422 1.58692 0
M  V30 493 H 56.8497 -2.34111 2.99954 0
M  V30 494 H 56.3617 -0.709053 3.81568 0
M  V30 495 H 54.4627 -2.78132 2.47938 0
M  V30 496 H 54.5757 -2.18143 4.26556 0
M  V30 497 H 52.9397 -1.24501 2.22197 0
M  V30 498 H 53.7227 -0.0917552 3.43177 0
M  V30 499 N 56.1678 -1.49265 -0.50573 0
M  V30 500 C 57.5788 -1.51769 -1.08734 0
M  V30 501 C 57.9298 -0.301192 -1.93874 0
M  V30 502 O 57.0548 0.589456 -2.08217 0
M  V30 503 C 57.6498 -2.75017 -1.97867 0
M  V30 504 C 56.2088 -2.80314 -2.51199 0
M  V30 505 C 55.3558 -2.4562 -1.28709 0
M  V30 506 H 58.3068 -1.56031 -0.289855 0
M  V30 507 H 58.3278 -2.5491 -2.82491 0
M  V30 508 H 57.8398 -3.63539 -1.35873 0
M  V30 509 H 55.9408 -1.96061 -3.16845 0
M  V30 510 H 56.0538 -3.82366 -2.88675 0
M  V30 511 H 54.4178 -1.97297 -1.61078 0
M  V30 512 H 55.2008 -3.36411 -0.6843 0
M  V30 513 N 57.6459 0.756429 -1.3826 0
M  V30 514 C 58.6089 1.85176 -1.35065 0
M  V30 515 C 59.6089 1.58818 -0.251703 0
M  V30 516 O 60.7989 1.66615 -0.508433 0
M  V30 517 C 57.9309 3.22596 -1.10201 0
M  V30 518 H 59.1239 1.89417 -2.3251 0
M  V30 519 H 56.6769 0.95783 -1.23512 0
M  V30 520 H 57.4119 3.24025 -0.133504 0
M  V30 521 H 57.1969 3.43122 -1.89762 0
M  V30 522 H 58.6869 4.02673 -1.10654 0
M  V30 523 N 59.124 1.23083 0.984299 0
M  V30 524 C 60.349 1.088 1.76571 0
M  V30 525 C 60.774 -0.356657 1.84688 0
M  V30 526 O 60.132 -1.25788 1.30565 0
M  V30 527 C 60.18 1.71371 3.17277 0
M  V30 528 O 59.284 0.973213 4.00752 0
M  V30 529 H 58.625 0.381599 0.543395 0
M  V30 530 H 61.155 1.63057 1.23587 0
M  V30 531 H 61.165 1.76449 3.67872 0
M  V30 532 H 59.84 2.76493 3.10684 0
M  V30 533 H 58.417 0.999078 3.59267 0
M  V30 534 N 60.6021 -1.18246 1.0419 0
M  V30 535 C 61.5321 -2.24127 0.654914 0
M  V30 536 C 62.5131 -1.66617 -0.342451 0
M  V30 537 O 63.6981 -1.92924 -0.222277 0
M  V30 538 C 60.8281 -3.47295 0.0183757 0
M  V30 539 C 59.7821 -4.17563 0.939414 0
M  V30 540 C 59.1081 -5.34438 0.167286 0
M  V30 541 C 60.4081 -4.70917 2.25908 0
M  V30 542 H 62.1021 -2.56753 1.54007 0
M  V30 543 H 59.6481 -1.23414 0.74195 0
M  V30 544 H 61.6011 -4.20572 -0.264082 0
M  V30 545 H 60.3251 -3.13907 -0.901664 0
M  V30 546 H 58.9841 -3.46186 1.20628 0
M  V30 547 H 58.6321 -4.97298 -0.7552 0
M  V30 548 H 58.3321 -5.82388 0.780901 0
M  V30 549 H 59.8561 -6.10504 -0.108125 0
M  V30 550 H 61.2701 -5.35882 2.03724 0
M  V30 551 H 59.6671 -5.29406 2.82577 0
M  V30 552 H 60.7371 -3.88272 2.9047 0
M  V30 553 N 62.0802 -0.821533 -1.34494 0
M  V30 554 C 63.0102 -0.257138 -2.3208 0
M  V30 555 C 63.9912 0.625645 -1.58176 0
M  V30 556 O 65.1762 0.552811 -1.86166 0
M  V30 557 C 62.3062 0.582958 -3.42372 0
M  V30 558 C 61.2602 -0.202571 -4.2752 0
M  V30 559 C 60.5862 0.760179 -5.29269 0
M  V30 560 C 61.8862 -1.40998 -5.02908 0
M  V30 561 H 63.5802 -1.07247 -2.79532 0
M  V30 562 H 61.1262 -0.517163 -1.34393 0
M  V30 563 H 63.0792 0.987972 -4.09655 0
M  V30 564 H 61.8032 1.43133 -2.93565 0
M  V30 565 H 60.4622 -0.588936 -3.61838 0
M  V30 566 H 60.1102 1.60447 -4.76724 0
M  V30 567 H 59.8102 0.238809 -5.87115 0
M  V30 568 H 61.3342 1.16308 -5.9942 0
M  V30 569 H 62.7482 -1.07905 -5.63054 0
M  V30 570 H 61.1452 -1.86689 -5.70322 0
M  V30 571 H 62.2152 -2.1889 -4.32684 0
M  V30 572 N 63.5583 1.46682 -0.576371 0
M  V30 573 C 64.9693 1.86112 -0.148091 0
M  V30 574 C 65.3203 1.48073 1.2872 0
M  V30 575 O 64.4453 0.892656 1.97131 0
M  V30 576 C 65.0403 3.37786 -0.261982 0
M  V30 577 C 63.5993 3.76235 0.111384 0
M  V30 578 C 62.7463 2.70713 -0.60083 0
M  V30 579 H 65.6973 1.37927 -0.78497 0
M  V30 580 H 65.7183 3.77007 0.514364 0
M  V30 581 H 65.2303 3.6544 -1.30671 0
M  V30 582 H 63.3313 3.54198 1.15649 0
M  V30 583 H 63.4443 4.78391 -0.26052 0
M  V30 584 H 61.8083 2.54666 -0.0417783 0
M  V30 585 H 62.5913 3.01208 -1.64708 0
M  V30 586 N 65.0364 0.313813 1.54444 0
M  V30 587 C 66.4474 -0.176243 1.85866 0
M  V30 588 C 66.7984 -1.52405 1.23561 0
M  V30 589 O 65.9234 -2.09605 0.538016 0
M  V30 590 C 66.5184 -0.32657 3.37222 0
M  V30 591 C 65.0774 -0.760846 3.6863 0
M  V30 592 C 64.2244 0.123247 2.77026 0
M  V30 593 H 67.1754 0.534418 1.49431 0
M  V30 594 H 67.1964 -1.15908 3.62416 0
M  V30 595 H 66.7084 0.654531 3.82541 0
M  V30 596 H 64.8094 -1.75204 3.28838 0
M  V30 597 H 64.9224 -0.571353 4.75681 0
M  V30 598 H 63.2864 -0.399597 2.51546 0
M  V30 599 H 64.0694 1.10094 3.25168 0
M  V30 600 N 66.5145 -1.57545 0.0417849 0
M  V30 601 C 67.4775 -2.09885 -0.92093 0
M  V30 602 C 68.4775 -1.01648 -1.24596 0
M  V30 603 O 69.6675 -1.27759 -1.1842 0
M  V30 604 C 66.7995 -2.57527 -2.23367 0
M  V30 605 H 67.9925 -2.96236 -0.467382 0
M  V30 606 H 65.5455 -1.5493 -0.206467 0
M  V30 607 H 66.2805 -1.74542 -2.73323 0
M  V30 608 H 66.0655 -3.36613 -2.01083 0
M  V30 609 H 67.5555 -2.98201 -2.92346 0
M  V30 610 N 67.9926 0.231505 -1.5589 0
M  V30 611 C 69.2176 0.978689 -1.82856 0
M  V30 612 C 69.6426 1.77559 -0.620846 0
M  V30 613 O 69.0006 1.76119 0.430305 0
M  V30 614 C 69.0486 1.87997 -3.07716 0
M  V30 615 O 68.1526 2.97393 -2.85712 0
M  V30 616 H 67.4936 0.277663 -0.603158 0
M  V30 617 H 70.0236 0.24783 -2.03093 0
M  V30 618 H 70.0336 2.2917 -3.37558 0
M  V30 619 H 68.7086 1.29417 -3.95252 0
M  V30 620 H 67.2856 2.60238 -2.67078 0
M  V30 621 N 69.4707 1.49531 0.497807 0
M  V30 622 C 70.3807 1.69176 1.62532 0
M  V30 623 C 71.3967 0.5744 1.64246 0
M  V30 624 O 72.5727 0.849497 1.82608 0
M  V30 625 C 69.6377 1.75695 2.98885 0
M  V30 626 C 68.6987 2.9929 3.07773 0
M  V30 627 C 67.9317 3.05488 4.37622 0
M  V30 628 O 68.1547 2.19192 5.26603 0
M  V30 629 O 67.0887 3.9798 4.51548 0
M  V30 630 H 70.9147 2.647 1.48887 0
M  V30 631 H 68.4997 1.3331 0.674441 0
M  V30 632 H 70.3817 1.82317 3.79919 0
M  V30 633 H 69.0567 0.8335 3.12785 0
M  V30 634 H 67.9637 2.98183 2.25915 0
M  V30 635 H 69.2967 3.91125 2.98801 0
M  V30 636 N 70.9488 -0.749086 1.3866 0
M  V30 637 C 72.1738 -1.54344 1.38538 0
M  V30 638 C 72.5988 -1.88088 -0.0216655 0
M  V30 639 O 71.9568 -1.50899 -1.00494 0
M  V30 640 C 72.0048 -2.8164 2.25192 0
M  V30 641 O 71.1088 -3.7698 1.67212 0
M  V30 642 H 70.4498 -0.466654 0.472367 0
M  V30 643 H 72.9798 -0.925355 1.82478 0
M  V30 644 H 72.9898 -3.30519 2.3921 0
M  V30 645 H 71.6648 -2.56411 3.27454 0
M  V30 646 H 70.2418 -3.35699 1.6236 0
M  V30 647 N 72.4269 -1.23603 -0.977757 0
M  V30 648 C 73.8379 -1.06424 -1.53398 0
M  V30 649 C 74.1889 0.367578 -1.92726 0
M  V30 650 O 73.3139 1.25465 -1.76316 0
M  V30 651 C 73.9089 -1.92568 -2.78753 0
M  V30 652 C 72.4679 -1.79642 -3.30765 0
M  V30 653 C 71.6149 -1.88111 -2.03739 0
M  V30 654 H 74.5659 -1.37227 -0.797152 0
M  V30 655 H 74.5869 -1.45203 -3.51705 0
M  V30 656 H 74.0989 -2.96771 -2.50098 0
M  V30 657 H 72.1999 -0.782325 -3.64294 0
M  V30 658 H 72.3129 -2.63174 -4.00345 0
M  V30 659 H 70.6769 -1.31723 -2.17994 0
M  V30 660 H 71.4599 -2.93875 -1.77461 0
M  V30 661 N 73.905 1.17692 -1.04816 0
M  V30 662 C 74.815 2.25229 -0.65643 0
M  V30 663 C 75.831 1.71018 0.320761 0
M  V30 664 O 77.007 2.00649 0.173805 0
M  V30 665 C 74.072 3.46684 -0.0332629 0
M  V30 666 C 73.133 4.15997 -1.06042 0
M  V30 667 C 72.366 5.31654 -0.466893 0
M  V30 668 O 72.589 5.65777 0.724758 0
M  V30 669 O 71.523 5.89831 -1.1993 0
M  V30 670 H 75.349 2.61016 -1.55255 0
M  V30 671 H 72.934 1.24919 -0.81949 0
M  V30 672 H 74.816 4.20234 0.313256 0
M  V30 673 H 73.491 3.12703 0.836566 0
M  V30 674 H 72.398 3.44482 -1.45886 0
M  V30 675 H 73.731 4.53996 -1.90127 0
M  V30 676 N 75.3831 0.828654 1.34056 0
M  V30 677 C 76.7941 0.477534 1.8049 0
M  V30 678 C 77.1451 -1.00258 1.6865 0
M  V30 679 O 76.2701 -1.78057 1.22982 0
M  V30 680 C 76.8651 0.860018 3.27703 0
M  V30 681 C 75.4241 0.561185 3.72193 0
M  V30 682 C 74.5711 1.07385 2.55663 0
M  V30 683 H 77.5221 1.0183 1.21722 0
M  V30 684 H 77.5431 0.166038 3.80138 0
M  V30 685 H 77.0551 1.93731 3.36288 0
M  V30 686 H 75.1561 -0.506465 3.69142 0
M  V30 687 H 75.2691 1.10926 4.66082 0
M  V30 688 H 73.6331 0.495149 2.49841 0
M  V30 689 H 74.4161 2.15771 2.67016 0
M  V30 690 N 76.8612 -1.46375 0.584142 0
M  V30 691 C 77.7912 -2.33103 -0.136037 0
M  V30 692 C 78.7722 -1.45431 -0.882255 0
M  V30 693 O 79.9572 -1.74246 -0.857434 0
M  V30 694 C 77.0872 -3.27731 -1.14933 0
M  V30 695 C 76.0412 -4.24855 -0.517862 0
M  V30 696 C 75.3672 -5.09001 -1.63773 0
M  V30 697 C 76.6672 -5.19439 0.545886 0
M  V30 698 H 78.3612 -2.93568 0.588086 0
M  V30 699 H 75.9072 -1.41166 0.284259 0
M  V30 700 H 77.8602 -3.87261 -1.66153 0
M  V30 701 H 76.5842 -2.65377 -1.90375 0
M  V30 702 H 75.2432 -3.6659 -0.0267361 0
M  V30 703 H 74.8912 -4.43031 -2.38185 0
M  V30 704 H 74.5912 -5.74777 -1.22085 0
M  V30 705 H 76.1152 -5.71396 -2.15266 0
M  V30 706 H 77.5292 -5.73177 0.118704 0
M  V30 707 H 75.9262 -5.93566 0.88317 0
M  V30 708 H 76.9962 -4.63285 1.43162 0
M  V30 709 N 78.3393 -0.321999 -1.54275 0
M  V30 710 C 79.5643 0.285791 -2.05422 0
M  V30 711 C 79.9893 1.45124 -1.19669 0
M  V30 712 O 79.3473 1.80132 -0.205441 0
M  V30 713 C 79.3953 0.69956 -3.53749 0
M  V30 714 O 78.4993 1.8021 -3.70942 0
M  V30 715 H 77.8403 0.0518962 -0.661969 0
M  V30 716 H 80.3703 -0.469954 -1.9913 0
M  V30 717 H 80.3803 0.982649 -3.9599 0
M  V30 718 H 79.0553 -0.152864 -4.15619 0
M  V30 719 H 77.6323 1.51794 -3.40607 0
M  V30 720 N 79.8174 1.5752 -0.0501392 0
M  V30 721 C 80.7494 2.08413 0.95376 0
M  V30 722 C 81.7624 1.01175 1.27544 0
M  V30 723 O 82.9514 1.28744 1.23641 0
M  V30 724 C 80.0514 2.51138 2.27559 0
M  V30 725 C 79.2244 3.817 2.13598 0
M  V30 726 C 78.2834 4.10749 3.28895 0
M  V30 727 O 77.3094 4.80685 3.04845 0
M  V30 728 N 78.5114 3.62579 4.5334 0
M  V30 729 H 81.2764 2.95165 0.519383 0
M  V30 730 H 78.8374 1.61327 0.136127 0
M  V30 731 H 80.8294 2.67648 3.03557 0
M  V30 732 H 79.3994 1.6964 2.62567 0
M  V30 733 H 78.6194 3.74782 1.22197 0
M  V30 734 H 79.9074 4.67201 2.01496 0
M  V30 735 H 79.3054 3.06039 4.75769 0
M  V30 736 H 77.8624 3.84329 5.26436 0
M  V30 737 N 81.2955 -0.223234 1.56011 0
M  V30 738 C 82.2275 -1.30006 1.88762 0
M  V30 739 C 83.2405 -1.43129 0.775746 0
M  V30 740 O 84.4295 -1.44057 1.05403 0
M  V30 741 C 81.5295 -2.67589 2.07965 0
M  V30 742 C 80.7025 -2.76434 3.38973 0
M  V30 743 C 79.7615 -3.95019 3.47629 0
M  V30 744 O 78.7875 -3.83436 4.20672 0
M  V30 745 N 79.9895 -5.09249 2.78649 0
M  V30 746 H 82.7545 -1.02238 2.81722 0
M  V30 747 H 80.3155 -0.413278 1.56536 0
M  V30 748 H 82.3075 -3.45297 2.11073 0
M  V30 749 H 80.8775 -2.87964 1.21638 0
M  V30 750 H 80.0975 -1.85216 3.47978 0
M  V30 751 H 81.3855 -2.79313 4.25278 0
M  V30 752 H 80.7835 -5.21556 2.19081 0
M  V30 753 H 79.3405 -5.85007 2.8742 0
M  V30 754 N 82.7736 -1.49793 -0.48987 0
M  V30 755 C 84.0196 -1.61049 -1.24236 0
M  V30 756 C 84.3746 -0.298412 -1.90072 0
M  V30 757 O 83.6676 0.702262 -1.78266 0
M  V30 758 C 83.8616 -2.71488 -2.32441 0
M  V30 759 C 83.6906 -4.13308 -1.77218 0
M  V30 760 C 82.4606 -4.79955 -1.58023 0
M  V30 761 C 84.6586 -4.98176 -1.27772 0
M  V30 762 N 82.6406 -6.06052 -0.978465 0
M  V30 763 C 84.0116 -6.14843 -0.798 0
M  V30 764 C 86.0666 -4.84091 -1.16449 0
M  V30 765 C 84.7696 -7.18975 -0.216245 0
M  V30 766 C 86.7956 -5.88382 -0.596698 0
M  V30 767 C 86.1576 -7.04285 -0.127262 0
M  V30 768 H 82.2566 -0.643611 -0.444172 0
M  V30 769 H 84.8406 -1.86842 -0.54754 0
M  V30 770 H 83.0116 -2.47449 -2.99372 0
M  V30 771 H 84.7436 -2.72205 -2.99477 0
M  V30 772 H 81.4986 -4.36936 -1.82712 0
M  V30 773 H 81.9226 -6.73407 -0.696534 0
M  V30 774 H 86.5646 -3.94786 -1.5134 0
M  V30 775 H 84.2826 -8.0797 0.144903 0
M  V30 776 H 87.8686 -5.79545 -0.511716 0
M  V30 777 H 86.7486 -7.83606 0.30523 0
M  V30 778 N 84.2517 0.741722 -1.39055 0
M  V30 779 C 85.4797 1.53098 -1.39171 0
M  V30 780 C 85.8947 1.88794 0.0155099 0
M  V30 781 O 85.2517 1.53626 0.985159 0
M  V30 782 C 85.3027 2.82274 -2.2584 0
M  V30 783 O 85.0237 2.48097 -3.61081 0
M  V30 784 C 86.5247 3.76343 -2.34266 0
M  V30 785 H 83.7447 0.473335 -0.4756 0
M  V30 786 H 86.2887 0.917045 -1.82785 0
M  V30 787 H 84.4437 3.40015 -1.85656 0
M  V30 788 H 84.8577 3.31029 -4.06842 0
M  V30 789 H 86.3317 4.63898 -2.9917 0
M  V30 790 H 86.8087 4.17619 -1.35982 0
M  V30 791 H 87.4147 3.24523 -2.74891 0
M  V30 792 N 85.7298 1.2412 0.971189 0
M  V30 793 C 86.6928 1.03156 2.04674 0
M  V30 794 C 87.6928 -0.00990322 1.60797 0
M  V30 795 O 88.8828 0.230729 1.72665 0
M  V30 796 C 86.0148 0.562765 3.36223 0
M  V30 797 H 87.2078 1.98614 2.24705 0
M  V30 798 H 84.7608 1.06293 1.14593 0
M  V30 799 H 85.4958 -0.395176 3.21883 0
M  V30 800 H 85.2808 1.31441 3.69413 0
M  V30 801 H 86.7708 0.437015 4.15307 0
M  V30 802 N 87.2079 -1.17134 1.05439 0
M  V30 803 C 88.4559 -1.87085 0.764429 0
M  V30 804 C 88.7769 -1.81584 -0.710787 0
M  V30 805 O 88.0469 -1.24349 -1.51374 0
M  V30 806 H 86.6269 -0.692627 0.279779 0
M  V30 807 H 89.2889 -1.42087 1.33406 0
M  V30 808 H 88.3849 -2.92759 1.0816 0
M  V30 809 N 88.686 -0.835752 -1.33615 0
M  V30 810 C 89.619 -0.211815 -2.27215 0
M  V30 811 C 90.597 0.639249 -1.49507 0
M  V30 812 O 91.781 0.600193 -1.78689 0
M  V30 813 C 88.908 0.702893 -3.31326 0
M  V30 814 C 87.954 -0.0723049 -4.26439 0
M  V30 815 S 88.787 -1.42811 -5.16106 0
M  V30 816 C 89.943 -0.518613 -6.23748 0
M  V30 817 H 90.176 -1.00533 -2.79786 0
M  V30 818 H 87.709 -0.632336 -1.40858 0
M  V30 819 H 89.667 1.22505 -3.91794 0
M  V30 820 H 88.328 1.47004 -2.77576 0
M  V30 821 H 87.521 0.62359 -5.00127 0
M  V30 822 H 87.123 -0.525424 -3.70291 0
M  V30 823 H 89.415 0.284778 -6.76901 0
M  V30 824 H 90.358 -1.22556 -6.97413 0
M  V30 825 H 90.766 -0.101344 -5.64409 0
M  V30 826 N 90.1641 1.46063 -0.591896 0
M  V30 827 C 91.4121 2.01938 -0.0808391 0
M  V30 828 C 91.7331 1.46475 1.28725 0
M  V30 829 O 91.0031 0.652944 1.84698 0
M  V30 830 H 89.5831 0.746516 -0.0268938 0
M  V30 831 H 92.2451 1.79055 -0.769752 0
M  V30 832 H 91.3411 3.12094 -0.0187578 0
M  V30 833 N 91.6422 0.330177 1.54103 0
M  V30 834 C 92.5722 -0.525353 2.27513 0
M  V30 835 C 93.5532 -1.11383 1.2856 0
M  V30 836 O 94.7382 -1.13773 1.57383 0
M  V30 837 C 91.8682 -1.6831 3.03791 0
M  V30 838 C 90.8222 -1.2236 4.10137 0
M  V30 839 C 90.1482 -2.46882 4.74293 0
M  V30 840 C 91.4482 -0.333697 5.21233 0
M  V30 841 H 93.1422 0.087013 2.99274 0
M  V30 842 H 90.6882 0.0432893 1.43935 0
M  V30 843 H 92.6412 -2.28795 3.5388 0
M  V30 844 H 91.3652 -2.32216 2.29659 0
M  V30 845 H 90.0242 -0.64165 3.60941 0
M  V30 846 H 89.6722 -3.09165 3.96769 0
M  V30 847 H 89.3722 -2.16825 5.46133 0
M  V30 848 H 90.8962 -3.08117 5.27159 0
M  V30 849 H 92.3102 -0.845013 5.67038 0
M  V30 850 H 90.7072 -0.125612 5.99969 0
M  V30 851 H 91.7772 0.633724 4.80741 0
M  V30 852 N 93.1203 -1.57491 0.0584922 0
M  V30 853 C 94.0503 -2.14988 -0.911178 0
M  V30 854 C 95.0313 -1.07343 -1.31952 0
M  V30 855 O 96.2163 -1.35318 -1.39294 0
M  V30 856 C 93.3463 -2.70078 -2.18347 0
M  V30 857 C 92.3003 -3.82771 -1.91495 0
M  V30 858 C 91.6263 -4.24408 -3.25241 0
M  V30 859 C 92.9263 -5.07592 -1.23075 0
M  V30 860 H 94.6203 -2.96263 -0.432246 0
M  V30 861 H 92.1663 -1.42512 -0.206469 0
M  V30 862 H 94.1193 -3.08943 -2.86587 0
M  V30 863 H 92.8433 -1.86005 -2.68458 0
M  V30 864 H 91.5023 -3.44389 -1.25664 0
M  V30 865 H 91.1503 -3.37275 -3.73168 0
M  V30 866 H 90.8503 -5.00366 -3.08071 0
M  V30 867 H 92.3743 -4.65879 -3.94701 0
M  V30 868 H 93.7883 -5.43857 -1.81362 0
M  V30 869 H 92.1853 -5.88741 -1.16207 0
M  V30 870 H 93.2553 -4.84454 -0.207847 0
M  V30 871 N 94.5984 0.214957 -1.56127 0
M  V30 872 C 95.5314 1.29382 -1.87977 0
M  V30 873 C 96.5094 1.44897 -0.737807 0
M  V30 874 O 97.6934 1.60605 -0.986833 0
M  V30 875 C 94.8204 2.66325 -2.09258 0
M  V30 876 C 93.8664 2.67789 -3.31951 0
M  V30 877 S 94.6994 2.21198 -4.8768 0
M  V30 878 C 95.8554 3.60003 -5.12004 0
M  V30 879 H 96.0884 1.02173 -2.79192 0
M  V30 880 H 93.6214 0.417516 -1.48648 0
M  V30 881 H 95.5794 3.45162 -2.22201 0
M  V30 882 H 94.2404 2.90755 -1.18829 0
M  V30 883 H 93.4334 3.68436 -3.43906 0
M  V30 884 H 93.0354 1.9702 -3.17898 0
M  V30 885 H 95.3274 4.55739 -5.01307 0
M  V30 886 H 96.2704 3.52959 -6.13861 0
M  V30 887 H 96.6784 3.53996 -4.39712 0
M  V30 888 N 96.0765 1.50051 0.48192 0
M  V30 889 C 97.0395 1.67584 1.5636 0
M  V30 890 C 98.0395 0.546894 1.51214 0
M  V30 891 O 99.2295 0.813725 1.54026 0
M  V30 892 C 96.3615 1.691 2.96003 0
M  V30 893 H 97.5545 2.64078 1.42136 0
M  V30 894 H 95.1075 1.39369 0.707533 0
M  V30 895 H 95.8425 0.742589 3.15684 0
M  V30 896 H 95.6275 2.51105 3.01146 0
M  V30 897 H 97.1175 1.84656 3.74556 0
M  V30 898 N 97.5546 -0.734337 1.39446 0
M  V30 899 C 98.4846 -1.86155 1.40955 0
M  V30 900 C 99.4656 -1.67898 0.272827 0
M  V30 901 O 100.651 -1.88207 0.478743 0
M  V30 902 C 97.7806 -3.23912 1.25294 0
M  V30 903 C 96.7346 -3.56808 2.36373 0
M  V30 904 C 96.0606 -4.93508 2.058 0
M  V30 905 C 97.3606 -3.59713 3.78687 0
M  V30 906 H 99.0546 -1.8515 2.35287 0
M  V30 907 H 96.6006 -0.889367 1.13253 0
M  V30 908 H 98.5536 -4.02443 1.2497 0
M  V30 909 H 97.2776 -3.25446 0.274308 0
M  V30 910 H 95.9366 -2.80606 2.35914 0
M  V30 911 H 95.5846 -4.91623 1.06374 0
M  V30 912 H 95.2846 -5.16486 2.80208 0
M  V30 913 H 96.8086 -5.74396 2.07128 0
M  V30 914 H 98.2226 -4.2832 3.81071 0
M  V30 915 H 96.6196 -3.94209 4.52459 0
M  V30 916 H 97.6896 -2.59504 4.09617 0
M  V30 917 N 99.0327 -1.24633 -0.964593 0
M  V30 918 C 100.282 -1.08188 -1.7023 0
M  V30 919 C 100.595 0.37873 -1.91898 0
M  V30 920 O 101.801 0.663427 -2.6327 0
M  V30 921 C 100.257 -1.88773 -3.06419 0
M  V30 922 C 99.8647 -3.39263 -2.92582 0
M  V30 923 C 101.609 -1.80867 -3.84041 0
M  V30 924 C 99.5157 -4.1218 -4.24101 0
M  V30 925 H 98.4457 -0.401245 -0.638372 0
M  V30 926 H 101.097 -1.48742 -1.07462 0
M  V30 927 H 99.4787 -1.41035 -3.70034 0
M  V30 928 H 100.653 -3.94603 -2.37961 0
M  V30 929 H 98.9677 -3.48154 -2.28424 0
M  V30 930 H 101.565 -2.32646 -4.81435 0
M  V30 931 H 101.908 -0.774543 -4.09031 0
M  V30 932 H 102.441 -2.26301 -3.27159 0
M  V30 933 H 99.1797 -5.15965 -4.04303 0
M  V30 934 H 98.6997 -3.61626 -4.78526 0
M  V30 935 H 100.379 -4.19349 -4.92702 0
M  V30 936 N 100.511 1.16574 -1.06058 0
M  V30 937 C 101.757 1.87324 -0.777022 0
M  V30 938 C 102.09 1.81351 0.694645 0
M  V30 939 O 101.365 1.22753 1.50871 0
M  V30 940 C 101.648 3.36991 -1.26922 0
M  V30 941 C 101.501 3.51667 -2.80447 0
M  V30 942 C 102.82 4.3131 -0.87521 0
M  V30 943 H 99.9388 0.680191 -0.28374 0
M  V30 944 H 102.581 1.37036 -1.3161 0
M  V30 945 H 100.731 3.79949 -0.81063 0
M  V30 946 H 102.403 3.17664 -3.34495 0
M  V30 947 H 100.646 2.93656 -3.19294 0
M  V30 948 H 101.317 4.56766 -3.0995 0
M  V30 949 H 103.793 3.9624 -1.27014 0
M  V30 950 H 102.669 5.34545 -1.2471 0
M  V30 951 H 102.93 4.41552 0.220071 0
M  V30 952 N 101.989 0.842826 1.3317 0
M  V30 953 C 102.919 0.294028 2.31641 0
M  V30 954 C 103.9 -0.600401 1.59151 0
M  V30 955 O 105.085 -0.523124 1.87022 0
M  V30 956 C 102.215 -0.528416 3.43257 0
M  V30 957 C 101.169 0.27056 4.27144 0
M  V30 958 C 100.495 -0.675881 5.30411 0
M  V30 959 C 101.795 1.48981 5.00602 0
M  V30 960 H 103.489 1.11681 2.77791 0
M  V30 961 H 101.035 0.538478 1.33553 0
M  V30 962 H 102.988 -0.922674 4.11175 0
M  V30 963 H 101.712 -1.38445 2.95805 0
M  V30 964 H 100.371 0.646427 3.60856 0
M  V30 965 H 100.019 -1.52842 4.79216 0
M  V30 966 H 99.7189 -0.145374 5.8742 0
M  V30 967 H 101.243 -1.06757 6.01195 0
M  V30 968 H 102.657 1.16849 5.61266 0
M  V30 969 H 101.054 1.95739 5.6728 0
M  V30 970 H 102.124 2.25746 4.29147 0
M  V30 971 N 103.467 -1.45747 0.599634 0
M  V30 972 C 104.397 -2.33235 -0.111306 0
M  V30 973 C 105.378 -1.46359 -0.866781 0
M  V30 974 O 106.563 -1.75146 -0.838904 0
M  V30 975 C 103.693 -3.28932 -1.11451 0
M  V30 976 C 102.647 -4.25381 -0.472772 0
M  V30 977 C 101.973 -5.1071 -1.58365 0
M  V30 978 C 103.273 -5.18831 0.600948 0
M  V30 979 H 104.967 -2.92927 0.61919 0
M  V30 980 H 102.513 -1.40857 0.299215 0
M  V30 981 H 104.466 -3.89002 -1.62036 0
M  V30 982 H 103.19 -2.67381 -1.8755 0
M  V30 983 H 101.849 -3.66598 0.0121472 0
M  V30 984 H 101.497 -4.45533 -2.33473 0
M  V30 985 H 101.197 -5.7604 -1.15982 0
M  V30 986 H 102.721 -5.73647 -2.09194 0
M  V30 987 H 104.135 -5.73019 0.179491 0
M  V30 988 H 102.532 -5.92595 0.946076 0
M  V30 989 H 103.602 -4.6174 1.48068 0
M  V30 990 N 104.945 -0.338344 -1.53925 0
M  V30 991 C 106.194 0.260732 -2.00008 0
M  V30 992 C 106.507 1.52073 -1.23017 0
M  V30 993 O 107.713 2.19672 -1.5955 0
M  V30 994 C 106.169 0.51515 -3.56194 0
M  V30 995 C 105.777 -0.728645 -4.42035 0
M  V30 996 C 107.521 1.07337 -4.10706 0
M  V30 997 C 105.428 -0.445315 -5.89721 0
M  V30 998 H 104.358 0.101205 -0.747177 0
M  V30 999 H 107.009 -0.452866 -1.77824 0
M  V30 1000 H 105.391 1.28932 -3.74423 0
M  V30 1001 H 106.565 -1.50352 -4.35581 0
M  V30 1002 H 104.88 -1.20813 -3.98489 0
M  V30 1003 H 107.477 1.30022 -5.18651 0
M  V30 1004 H 107.82 2.0273 -3.63602 0
M  V30 1005 H 108.353 0.360034 -3.96167 0
M  V30 1006 H 105.092 -1.36883 -6.41049 0
M  V30 1007 H 104.612 0.291569 -5.99091 0
M  V30 1008 H 106.291 -0.0606218 -6.46972 0
M  V30 1009 N 106.423 1.57458 -0.0668435 0
M  V30 1010 C 107.669 1.93587 0.6043 0
M  V30 1011 C 108.002 0.946722 1.69561 0
M  V30 1012 O 107.277 -0.0248516 1.94484 0
M  V30 1013 C 107.56 3.40014 1.18585 0
M  V30 1014 C 107.413 4.49685 0.101529 0
M  V30 1015 C 108.732 3.87154 2.09284 0
M  V30 1016 H 105.851 0.703958 0.218202 0
M  V30 1017 H 108.493 1.89542 -0.131804 0
M  V30 1018 H 106.643 3.43592 1.81319 0
M  V30 1019 H 108.315 4.5823 -0.531279 0
M  V30 1020 H 106.558 4.30059 -0.568487 0
M  V30 1021 H 107.229 5.49266 0.54874 0
M  V30 1022 H 109.705 3.85551 1.56491 0
M  V30 1023 H 108.581 4.90231 2.46911 0
M  V30 1024 H 108.842 3.2481 2.99918 0
M  V30 1025 N 107.901 -0.206675 1.56239 0
M  V30 1026 C 108.864 -1.23976 1.92776 0
M  V30 1027 C 109.864 -1.39041 0.807729 0
M  V30 1028 O 111.054 -1.37051 1.0753 0
M  V30 1029 C 108.186 -2.61112 2.19165 0
M  V30 1030 H 109.379 -0.927764 2.85189 0
M  V30 1031 H 106.932 -0.447718 1.4975 0
M  V30 1032 H 107.667 -2.97386 1.29352 0
M  V30 1033 H 107.452 -2.51552 3.00772 0
M  V30 1034 H 108.942 -3.35633 2.48476 0
M  V30 1035 N 109.379 -1.50304 -0.473955 0
M  V30 1036 C 110.627 -1.60832 -1.22382 0
M  V30 1037 C 110.948 -0.30939 -1.9253 0
M  V30 1038 O 110.218 0.67296 -1.83978 0
M  V30 1039 H 108.798 -0.592652 -0.454723 0
M  V30 1040 H 111.46 -1.87068 -0.546968 0
M  V30 1041 H 110.556 -2.41803 -1.97327 0
M  V30 1042 N 110.857 0.726932 -1.39834 0
M  V30 1043 C 111.805 1.86235 -1.39353 0
M  V30 1044 C 112.799 1.67144 -0.275555 0
M  V30 1045 O 114.005 1.74387 -0.44601 0
M  V30 1046 H 110.38 0.613174 -0.43534 0
M  V30 1047 H 112.351 1.83756 -2.35109 0
M  V30 1048 C 111.1 3.23995 -1.26185 0
M  V30 1049 H 110.423 3.39285 -2.11484 0
M  V30 1050 H 111.863 4.03609 -1.29907 0
M  V30 1051 C 110.322 3.36888 0.0290018 0
M  V30 1052 O 110.852 3.89152 0.99619 0
M  V30 1053 N 109.058 2.90446 0.0947437 0
M  V30 1054 H 108.605 2.48102 -0.693035 0
M  V30 1055 H 108.563 2.99451 0.957932 0
M  V30 1056 N 112.336 1.25143 0.95797 0
M  V30 1057 C 113.582 1.09855 1.70469 0
M  V30 1058 C 113.915 -0.360187 1.90831 0
M  V30 1059 O 113.19 -1.26568 1.47685 0
M  V30 1060 C 113.473 1.8497 3.08963 0
M  V30 1061 C 113.326 3.38652 2.96032 0
M  V30 1062 C 114.645 1.63016 4.08795 0
M  V30 1063 H 111.764 0.400465 0.618706 0
M  V30 1064 H 114.406 1.53933 1.11376 0
M  V30 1065 H 112.556 1.47505 3.59409 0
M  V30 1066 H 114.228 3.85772 2.52938 0
M  V30 1067 H 112.471 3.66534 2.32025 0
M  V30 1068 H 113.142 3.8642 3.94187 0
M  V30 1069 H 115.618 1.95625 3.67247 0
M  V30 1070 H 114.494 2.18015 5.03747 0
M  V30 1071 H 114.755 0.570692 4.38401 0
M  V30 1072 N 113.814 -1.1601 1.06675 0
M  V30 1073 C 114.744 -2.22688 0.702307 0
M  V30 1074 C 115.725 -1.67306 -0.307032 0
M  V30 1075 O 116.91 -1.93352 -0.181305 0
M  V30 1076 C 114.04 -3.47178 0.092038 0
M  V30 1077 C 112.994 -4.15477 1.02777 0
M  V30 1078 C 112.32 -5.33963 0.28061 0
M  V30 1079 C 113.62 -4.66019 2.35846 0
M  V30 1080 H 115.314 -2.53429 1.59419 0
M  V30 1081 H 112.86 -1.21813 0.767961 0
M  V30 1082 H 114.813 -4.21037 -0.174814 0
M  V30 1083 H 113.537 -3.15749 -0.834877 0
M  V30 1084 H 112.196 -3.43549 1.27944 0
M  V30 1085 H 111.844 -4.98788 -0.649545 0
M  V30 1086 H 111.544 -5.806 0.904258 0
M  V30 1087 H 113.068 -6.10596 0.021396 0
M  V30 1088 H 114.482 -5.3144 2.15045 0
M  V30 1089 H 112.879 -5.23293 2.93743 0
M  V30 1090 H 113.949 -3.82023 2.98641 0
M  V30 1091 N 115.292 -0.849877 -1.32721 0
M  V30 1092 C 116.538 -0.451591 -1.97708 0
M  V30 1093 C 116.871 0.989175 -1.6712 0
M  V30 1094 O 116.146 1.69334 -0.956891 0
M  V30 1095 C 116.429 -0.685598 -3.53513 0
M  V30 1096 C 116.282 -2.17444 -3.93749 0
M  V30 1097 C 117.601 -0.138874 -4.39881 0
M  V30 1098 H 114.72 -0.16555 -0.718166 0
M  V30 1099 H 117.362 -1.06742 -1.57182 0
M  V30 1100 H 115.512 -0.161416 -3.88165 0
M  V30 1101 H 117.184 -2.76433 -3.693 0
M  V30 1102 H 115.427 -2.65476 -3.43081 0
M  V30 1103 H 116.098 -2.28888 -5.02309 0
M  V30 1104 H 118.574 -0.587068 -4.11938 0
M  V30 1105 H 117.45 -0.332213 -5.47894 0
M  V30 1106 H 117.711 0.95806 -4.31594 0
M  V30 1107 N 116.77 1.45427 -0.607355 0
M  V30 1108 C 118.019 2.01452 -0.100036 0
M  V30 1109 C 118.332 1.48159 1.27704 0
M  V30 1110 O 119.538 1.96159 1.87707 0
M  V30 1111 C 117.994 3.59672 -0.128158 0
M  V30 1112 C 117.602 4.21962 -1.50507 0
M  V30 1113 C 119.346 4.23262 0.323932 0
M  V30 1114 C 117.253 5.72333 -1.48959 0
M  V30 1115 H 116.183 0.75325 -0.0336299 0
M  V30 1116 H 118.834 1.66901 -0.76265 0
M  V30 1117 H 117.216 3.91411 0.601105 0
M  V30 1118 H 118.39 4.01796 -2.25602 0
M  V30 1119 H 116.705 3.70565 -1.89923 0
M  V30 1120 H 119.302 5.33522 0.354691 0
M  V30 1121 H 119.645 3.93921 1.34656 0
M  V30 1122 H 120.178 3.96239 -0.352056 0
M  V30 1123 H 116.917 6.06373 -2.48981 0
M  V30 1124 H 116.437 5.94691 -0.781214 0
M  V30 1125 H 118.116 6.35525 -1.21313 0
M  V30 1126 N 118.248 0.346503 1.53744 0
M  V30 1127 C 119.494 -0.249473 2.0126 0
M  V30 1128 C 119.827 -1.49965 1.23386 0
M  V30 1129 O 119.102 -1.91811 0.32229 0
M  V30 1130 C 119.385 -0.560643 3.55709 0
M  V30 1131 C 119.238 0.701836 4.44291 0
M  V30 1132 C 120.557 -1.36905 4.18264 0
M  V30 1133 H 117.676 -0.0891987 0.731582 0
M  V30 1134 H 120.318 0.467624 1.84156 0
M  V30 1135 H 118.468 -1.17156 3.70414 0
M  V30 1136 H 120.14 1.33974 4.41417 0
M  V30 1137 H 118.383 1.32612 4.13033 0
M  V30 1138 H 119.054 0.43933 5.50249 0
M  V30 1139 H 121.53 -0.852448 4.07275 0
M  V30 1140 H 120.406 -1.55553 5.26398 0
M  V30 1141 H 120.667 -2.37203 3.73078 0
M  V30 1142 N 119.726 -1.57421 0.075193 0
M  V30 1143 C 120.689 -2.11791 -0.876203 0
M  V30 1144 C 121.689 -1.04268 -1.22412 0
M  V30 1145 O 122.879 -1.30242 -1.15684 0
M  V30 1146 C 120.011 -2.62207 -2.17854 0
M  V30 1147 H 121.204 -2.9716 -0.40444 0
M  V30 1148 H 118.757 -1.55333 -0.173557 0
M  V30 1149 H 119.492 -1.803 -2.6956 0
M  V30 1150 H 119.277 -3.40802 -1.93897 0
M  V30 1151 H 120.767 -3.04335 -2.85955 0
M  V30 1152 N 121.204 0.198386 -1.56346 0
M  V30 1153 C 122.453 0.917451 -1.79627 0
M  V30 1154 C 122.766 1.8456 -0.64784 0
M  V30 1155 O 123.972 2.60504 -0.764859 0
M  V30 1156 C 122.428 1.68175 -3.18191 0
M  V30 1157 C 122.036 0.798589 -4.40825 0
M  V30 1158 C 123.78 2.39065 -3.50782 0
M  V30 1159 C 121.687 1.56157 -5.70411 0
M  V30 1160 H 120.617 0.346317 -0.669762 0
M  V30 1161 H 123.268 0.170801 -1.82703 0
M  V30 1162 H 121.65 2.47216 -3.09354 0
M  V30 1163 H 122.824 0.0470665 -4.60776 0
M  V30 1164 H 121.139 0.200686 -4.15916 0
M  V30 1165 H 123.736 2.96692 -4.44835 0
M  V30 1166 H 124.079 3.13091 -2.74371 0
M  V30 1167 H 124.612 1.66993 -3.61052 0
M  V30 1168 H 121.351 0.864142 -6.49779 0
M  V30 1169 H 120.871 2.2871 -5.54483 0
M  V30 1170 H 122.55 2.11622 -6.11412 0
M  V30 1171 N 122.682 1.50554 0.465978 0
M  V30 1172 C 123.645 1.69233 1.54574 0
M  V30 1173 C 124.645 0.562901 1.50626 0
M  V30 1174 O 125.835 0.830016 1.53155 0
M  V30 1175 C 122.967 1.7223 2.94193 0
M  V30 1176 H 124.16 2.65571 1.39327 0
M  V30 1177 H 121.713 1.40111 0.692711 0
M  V30 1178 H 122.448 0.77603 3.14878 0
M  V30 1179 H 122.233 2.54285 2.98466 0
M  V30 1180 H 123.723 1.88618 3.72576 0
M  V30 1181 N 124.16 -0.719506 1.40217 0
M  V30 1182 C 125.107 -1.83359 1.40172 0
M  V30 1183 C 126.077 -1.64065 0.259206 0
M  V30 1184 O 127.262 -1.85254 0.456677 0
M  V30 1185 C 124.402 -3.2103 1.26624 0
M  V30 1186 C 123.515 -3.51923 2.50548 0
M  V30 1187 C 122.65 -4.79079 2.29471 0
M  V30 1188 C 121.689 -5.02863 3.48992 0
M  V30 1189 N 120.826 -6.2123 3.27135 0
M  V30 1190 H 125.666 -1.82733 2.35399 0
M  V30 1191 H 123.203 -0.892688 1.16917 0
M  V30 1192 H 125.161 -4.00524 1.16776 0
M  V30 1193 H 123.791 -3.20895 0.350176 0
M  V30 1194 H 122.843 -2.67014 2.70939 0
M  V30 1195 H 124.155 -3.6541 3.39525 0
M  V30 1196 H 123.309 -5.66582 2.16955 0
M  V30 1197 H 122.048 -4.67794 1.37913 0
M  V30 1198 H 121.053 -4.13816 3.6199 0
M  V30 1199 H 122.278 -5.16023 4.41472 0
M  V30 1200 H 120.224 -6.11204 2.38256 0
M  V30 1201 H 120.141 -6.35375 4.09675 0
M  V30 1202 H 121.409 -7.11532 3.18344 0
M  V30 1203 N 125.638 -1.25649 -0.95132 0
M  V30 1204 C 126.866 -1.13343 -1.73092 0
M  V30 1205 C 127.281 0.312434 -1.86197 0
M  V30 1206 O 126.638 1.21465 -1.36207 0
M  V30 1207 C 126.689 -1.78602 -3.14299 0
M  V30 1208 O 126.41 -3.17537 -3.01831 0
M  V30 1209 C 127.911 -1.72119 -4.08522 0
M  V30 1210 H 125.131 -0.395181 -0.542285 0
M  V30 1211 H 127.675 -1.66076 -1.19328 0
M  V30 1212 H 125.83 -1.29832 -3.64996 0
M  V30 1213 H 126.244 -3.49676 -3.90931 0
M  V30 1214 H 127.718 -2.22435 -5.052 0
M  V30 1215 H 128.195 -0.685635 -4.33815 0
M  V30 1216 H 128.801 -2.20393 -3.63741 0
M  V30 1217 N 127.117 1.15442 -1.07289 0
M  V30 1218 C 128.528 1.67803 -0.818475 0
M  V30 1219 C 128.879 1.8489 0.656507 0
M  V30 1220 O 128.004 1.55176 1.50829 0
M  V30 1221 C 128.599 3.04805 -1.47917 0
M  V30 1222 C 127.158 3.54245 -1.27229 0
M  V30 1223 C 126.305 2.29986 -1.54925 0
M  V30 1224 H 129.256 0.996646 -1.23502 0
M  V30 1225 H 129.277 3.69702 -0.90005 0
M  V30 1226 H 128.789 2.92336 -2.55267 0
M  V30 1227 H 126.89 3.71956 -0.21899 0
M  V30 1228 H 127.003 4.35723 -1.99203 0
M  V30 1229 H 125.367 2.35496 -0.970242 0
M  V30 1230 H 126.15 2.20105 -2.63455 0
M  V30 1231 N 128.595 0.856903 1.32268 0
M  V30 1232 C 130.011 0.547061 1.49931 0
M  V30 1233 C 130.211 -0.921781 1.7918 0
M  V30 1234 O 129.267 -1.70469 1.8627 0
M  V30 1235 C 130.58 1.43599 2.64196 0
M  V30 1236 C 132.128 1.43665 2.78081 0
M  V30 1237 C 132.603 2.31085 3.95428 0
M  V30 1238 N 134.094 2.28893 4.02694 0
M  V30 1239 C 134.829 2.93262 4.92732 0
M  V30 1240 N 134.325 3.66751 5.87763 0
M  V30 1241 N 136.118 2.82638 4.85873 0
M  V30 1242 H 128.269 1.8075 1.11549 0
M  V30 1243 H 130.532 0.772144 0.549997 0
M  V30 1244 H 130.238 2.48058 2.49319 0
M  V30 1245 H 130.112 1.12502 3.60032 0
M  V30 1246 H 132.499 0.399701 2.92381 0
M  V30 1247 H 132.58 1.7878 1.82952 0
M  V30 1248 H 132.224 3.34849 3.81888 0
M  V30 1249 H 132.154 1.93302 4.89839 0
M  V30 1250 H 134.645 1.75466 3.34694 0
M  V30 1251 H 134.958 4.13027 6.53168 0
M  V30 1252 H 133.303 3.70859 5.87783 0
M  V30 1253 H 136.494 2.24774 4.10602 0
M  V30 1254 H 136.667 3.33084 5.55841 0
M  V30 1255 N 130.073 -1.45103 0.615059 0
M  V30 1256 C 131.003 -2.33339 -0.0865619 0
M  V30 1257 C 131.984 -1.4727 -0.851209 0
M  V30 1258 O 133.169 -1.76026 -0.820281 0
M  V30 1259 C 130.299 -3.30095 -1.07956 0
M  V30 1260 C 129.253 -4.25858 -0.427628 0
M  V30 1261 C 128.579 -5.12361 -1.5294 0
M  V30 1262 C 129.879 -5.18165 0.655944 0
M  V30 1263 H 131.573 -2.92254 0.650224 0
M  V30 1264 H 129.119 -1.40532 0.314138 0
M  V30 1265 H 131.072 -3.90698 -1.57901 0
M  V30 1266 H 129.796 -2.69355 -1.84703 0
M  V30 1267 H 128.455 -3.66564 0.0510292 0
M  V30 1268 H 128.103 -4.47984 -2.28734 0
M  V30 1269 H 127.803 -5.77238 -1.09865 0
M  V30 1270 H 129.327 -5.75833 -2.03098 0
M  V30 1271 H 130.741 -5.72796 0.240257 0
M  V30 1272 H 129.138 -5.91559 1.00888 0
M  V30 1273 H 130.208 -4.60144 1.52957 0
M  V30 1274 N 131.551 -0.354651 -1.53558 0
M  V30 1275 C 132.483 0.5315 -2.22952 0
M  V30 1276 C 133.496 1.05503 -1.23988 0
M  V30 1277 O 134.685 0.963279 -1.50277 0
M  V30 1278 C 131.785 1.74538 -2.90499 0
M  V30 1279 C 130.958 1.35524 -4.15875 0
M  V30 1280 C 130.017 2.42999 -4.66731 0
M  V30 1281 O 129.043 2.05844 -5.30676 0
M  V30 1282 N 130.245 3.74423 -4.43608 0
M  V30 1283 H 133.01 -0.0628615 -2.99634 0
M  V30 1284 H 130.571 -0.179302 -1.60904 0
M  V30 1285 H 132.563 2.45892 -3.21433 0
M  V30 1286 H 131.133 2.24686 -2.17336 0
M  V30 1287 H 130.353 0.471998 -3.91364 0
M  V30 1288 H 131.641 1.07071 -4.97406 0
M  V30 1289 H 131.039 4.07391 -3.92491 0
M  V30 1290 H 129.596 4.41913 -4.7912 0
M  V30 1291 N 133.029 1.57378 -0.0835403 0
M  V30 1292 C 134.257 1.98263 0.59157 0
M  V30 1293 C 134.672 0.962302 1.62435 0
M  V30 1294 O 134.029 -0.049581 1.82433 0
M  V30 1295 C 134.08 3.39214 1.24965 0
M  V30 1296 O 133.801 4.37339 0.258186 0
M  V30 1297 C 135.302 3.95038 2.01147 0
M  V30 1298 H 132.522 0.651773 0.159477 0
M  V30 1299 H 135.066 2.03878 -0.159415 0
M  V30 1300 H 133.221 3.34649 1.95164 0
M  V30 1301 H 133.635 5.19371 0.731734 0
M  V30 1302 H 135.109 4.95848 2.42567 0
M  V30 1303 H 135.586 3.32222 2.87272 0
M  V30 1304 H 136.192 4.0304 1.35789 0
M  V30 1305 N 134.507 -0.190092 1.56449 0
M  V30 1306 C 135.437 -1.23816 1.97969 0
M  V30 1307 C 136.418 -1.47201 0.852395 0
M  V30 1308 O 137.603 -1.58854 1.1171 0
M  V30 1309 C 134.733 -2.5813 2.3235 0
M  V30 1310 C 133.687 -2.49348 3.47864 0
M  V30 1311 C 133.013 -3.8798 3.67934 0
M  V30 1312 C 134.313 -2.01424 4.81898 0
M  V30 1313 H 136.007 -0.89311 2.85769 0
M  V30 1314 H 133.553 -0.428177 1.37487 0
M  V30 1315 H 135.506 -3.31637 2.59991 0
M  V30 1316 H 134.23 -2.94386 1.41438 0
M  V30 1317 H 132.889 -1.78297 3.20321 0
M  V30 1318 H 132.537 -4.21597 2.74344 0
M  V30 1319 H 132.237 -3.82978 4.45648 0
M  V30 1320 H 133.761 -4.63101 3.97957 0
M  V30 1321 H 135.175 -2.64693 5.08538 0
M  V30 1322 H 133.572 -2.07413 5.63116 0
M  V30 1323 H 134.642 -0.967677 4.75146 0
M  V30 1324 N 135.985 -1.50799 -0.457987 0
M  V30 1325 C 137.213 -1.66218 -1.23203 0
M  V30 1326 C 137.628 -0.350894 -1.85511 0
M  V30 1327 O 136.985 0.668546 -1.69814 0
M  V30 1328 C 137.036 -2.76291 -2.33121 0
M  V30 1329 O 136.757 -4.02338 -1.73366 0
M  V30 1330 C 138.258 -3.028 -3.2377 0
M  V30 1331 H 135.478 -0.558361 -0.372121 0
M  V30 1332 H 138.022 -1.97099 -0.545179 0
M  V30 1333 H 136.177 -2.48068 -2.97558 0
M  V30 1334 H 136.591 -4.63312 -2.4585 0
M  V30 1335 H 138.065 -3.8345 -3.97077 0
M  V30 1336 H 138.542 -2.14385 -3.83322 0
M  V30 1337 H 139.148 -3.32604 -2.65056 0
M  V30 1338 N 137.463 0.71206 -1.40597 0
M  V30 1339 C 138.411 1.84746 -1.41321 0
M  V30 1340 C 139.405 1.66842 -0.293268 0
M  V30 1341 O 140.611 1.73904 -0.464481 0
M  V30 1342 H 136.986 0.608522 -0.441819 0
M  V30 1343 H 138.957 1.81252 -2.37045 0
M  V30 1344 C 137.706 3.22638 -1.29614 0
M  V30 1345 H 137.029 3.37023 -2.15071 0
M  V30 1346 H 138.469 4.02209 -1.3418 0
M  V30 1347 C 136.928 3.36899 -0.00673121 0
M  V30 1348 O 137.458 3.90186 0.954859 0
M  V30 1349 N 135.664 2.9053 0.0639327 0
M  V30 1350 H 135.211 2.47353 -0.719311 0
M  V30 1351 H 135.169 3.0045 0.926118 0
M  V30 1352 N 138.941 1.26152 0.944643 0
M  V30 1353 C 139.871 1.09902 2.06019 0
M  V30 1354 C 140.852 0.00519538 1.70099 0
M  V30 1355 O 142.037 0.176583 1.93396 0
M  V30 1356 C 139.167 0.727562 3.39594 0
M  V30 1357 C 138.121 1.77274 3.89561 0
M  V30 1358 C 137.447 1.25569 5.19747 0
M  V30 1359 C 138.747 3.17357 4.14827 0
M  V30 1360 H 140.441 2.03217 2.19871 0
M  V30 1361 H 137.987 0.978452 1.05652 0
M  V30 1362 H 139.94 0.600777 4.17095 0
M  V30 1363 H 138.664 -0.241287 3.25707 0
M  V30 1364 H 137.323 1.88814 3.14237 0
M  V30 1365 H 136.971 0.276783 5.02238 0
M  V30 1366 H 136.671 1.95433 5.54148 0
M  V30 1367 H 138.195 1.1415 5.99835 0
M  V30 1368 H 139.609 3.08914 4.82954 0
M  V30 1369 H 138.006 3.84781 4.60504 0
M  V30 1370 H 139.076 3.63673 3.20734 0
M  V30 1371 N 140.419 -1.14872 1.07899 0
M  V30 1372 C 141.666 -1.85789 0.805532 0
M  V30 1373 C 141.994 -1.82649 -0.668561 0
M  V30 1374 O 141.249 -1.24858 -1.50695 0
M  V30 1375 C 141.548 -3.34223 1.26609 0
M  V30 1376 C 141.214 -3.57555 2.74709 0
M  V30 1377 C 139.876 -3.63631 3.1516 0
M  V30 1378 C 142.228 -3.66803 3.70277 0
M  V30 1379 C 139.556 -3.76473 4.49983 0
M  V30 1380 C 141.908 -3.8117 5.04869 0
M  V30 1381 C 140.572 -3.85494 5.44932 0
M  V30 1382 H 139.842 -0.679849 0.294765 0
M  V30 1383 H 142.489 -1.3572 1.35101 0
M  V30 1384 H 140.794 -3.86536 0.640103 0
M  V30 1385 H 142.491 -3.87511 1.03132 0
M  V30 1386 H 139.081 -3.5347 2.42398 0
M  V30 1387 H 143.265 -3.61404 3.40149 0
M  V30 1388 H 138.521 -3.7808 4.80484 0
M  V30 1389 H 142.695 -3.87268 5.78789 0
M  V30 1390 H 140.322 -3.95197 6.49403 0
M  V30 1391 N 141.898 -0.863906 -1.31812 0
M  V30 1392 C 143.147 -0.46801 -1.96195 0
M  V30 1393 C 143.46 0.983474 -1.69077 0
M  V30 1394 O 144.666 1.48523 -2.27273 0
M  V30 1395 C 143.122 -0.785995 -3.51212 0
M  V30 1396 C 142.73 -2.25383 -3.87178 0
M  V30 1397 C 144.474 -0.458274 -4.22019 0
M  V30 1398 C 142.381 -2.51455 -5.3528 0
M  V30 1399 H 141.311 -0.171283 -0.734287 0
M  V30 1400 H 143.962 -1.05597 -1.50072 0
M  V30 1401 H 142.344 -0.127359 -3.95795 0
M  V30 1402 H 143.518 -2.95502 -3.53575 0
M  V30 1403 H 141.833 -2.54698 -3.2942 0
M  V30 1404 H 144.43 -0.630369 -5.30971 0
M  V30 1405 H 144.773 0.600834 -4.11941 0
M  V30 1406 H 145.306 -1.07319 -3.8305 0
M  V30 1407 H 142.045 -3.56025 -5.50387 0
M  V30 1408 H 141.565 -1.85923 -5.70257 0
M  V30 1409 H 143.244 -2.35874 -6.02472 0
M  V30 1410 N 143.376 1.44774 -0.622745 0
M  V30 1411 C 144.309 2.27792 0.136329 0
M  V30 1412 C 145.287 1.38041 0.859264 0
M  V30 1413 O 146.471 1.67478 0.86506 0
M  V30 1414 C 143.598 3.16776 1.19878 0
M  V30 1415 C 142.644 4.22575 0.57731 0
M  V30 1416 S 143.477 5.31825 -0.626294 0
M  V30 1417 C 144.633 6.24377 0.436378 0
M  V30 1418 H 144.866 2.91824 -0.567967 0
M  V30 1419 H 142.399 1.48838 -0.410677 0
M  V30 1420 H 144.357 3.68596 1.80686 0
M  V30 1421 H 143.018 2.5198 1.87523 0
M  V30 1422 H 142.211 4.84818 1.37721 0
M  V30 1423 H 141.813 3.73974 0.0440439 0
M  V30 1424 H 144.105 6.64689 1.31128 0
M  V30 1425 H 145.048 7.07941 -0.150271 0
M  V30 1426 H 145.456 5.59381 0.758513 0
M  V30 1427 N 144.854 0.36279 1.53368 0
M  V30 1428 C 146.079 -0.231226 2.06107 0
M  V30 1429 C 146.504 -1.419 1.23474 0
M  V30 1430 O 145.862 -1.79524 0.253128 0
M  V30 1431 C 145.91 -0.605523 3.5548 0
M  V30 1432 O 145.014 -1.70312 3.7559 0
M  V30 1433 H 144.355 -0.034327 0.663112 0
M  V30 1434 H 146.885 0.522584 1.97814 0
M  V30 1435 H 146.895 -0.877314 3.98456 0
M  V30 1436 H 145.57 0.263004 4.15068 0
M  V30 1437 H 144.147 -1.4271 3.44512 0
M  V30 1438 N 146.332 -1.57332 0.0918853 0
M  V30 1439 C 147.262 -2.16872 -0.865371 0
M  V30 1440 C 148.243 -1.10118 -1.29646 0
M  V30 1441 O 149.428 -1.38242 -1.36392 0
M  V30 1442 C 146.558 -2.74649 -2.12569 0
M  V30 1443 C 145.512 -3.86747 -1.83333 0
M  V30 1444 C 144.838 -4.31212 -3.16166 0
M  V30 1445 C 146.138 -5.10089 -1.1228 0
M  V30 1446 H 147.832 -2.97114 -0.369307 0
M  V30 1447 H 145.378 -1.42918 -0.176194 0
M  V30 1448 H 147.331 -3.14952 -2.7997 0
M  V30 1449 H 146.055 -1.91657 -2.64452 0
M  V30 1450 H 144.714 -3.46978 -1.18331 0
M  V30 1451 H 144.362 -3.45115 -3.6593 0
M  V30 1452 H 144.062 -5.06788 -2.97388 0
M  V30 1453 H 145.586 -4.74146 -3.84731 0
M  V30 1454 H 147 -5.47582 -1.69785 0
M  V30 1455 H 145.397 -5.91073 -1.03693 0
M  V30 1456 H 146.467 -4.84786 -0.105041 0
M  V30 1457 N 147.81 0.181792 -1.56548 0
M  V30 1458 C 148.773 1.20894 -1.94724 0
M  V30 1459 C 149.773 1.37738 -0.829747 0
M  V30 1460 O 150.963 1.35323 -1.09697 0
M  V30 1461 C 148.095 2.57593 -2.23291 0
M  V30 1462 H 149.288 0.882275 -2.86629 0
M  V30 1463 H 146.841 0.423838 -1.50444 0
M  V30 1464 H 147.576 2.95291 -1.34067 0
M  V30 1465 H 147.361 2.46735 -3.04736 0
M  V30 1466 H 148.851 3.31637 -2.53785 0
M  V30 1467 N 149.288 1.51039 0.449983 0
M  V30 1468 C 150.513 1.6715 1.22783 0
M  V30 1469 C 150.938 0.363081 1.84563 0
M  V30 1470 O 150.296 -0.675433 1.68249 0
M  V30 1471 C 150.344 2.77985 2.29689 0
M  V30 1472 O 149.448 2.40707 3.34864 0
M  V30 1473 H 148.789 0.557746 0.360299 0
M  V30 1474 H 151.319 1.97535 0.533005 0
M  V30 1475 H 151.329 3.01693 2.74673 0
M  V30 1476 H 150.004 3.72935 1.84098 0
M  V30 1477 H 148.581 2.27523 2.95445 0
M  V30 1478 N 150.766 -0.704594 1.40972 0
M  V30 1479 C 151.729 -1.80035 1.41845 0
M  V30 1480 C 152.729 -1.57774 0.310474 0
M  V30 1481 O 153.919 -1.64613 0.56992 0
M  V30 1482 C 151.051 -3.18284 1.22098 0
M  V30 1483 H 152.244 -1.80658 2.3938 0
M  V30 1484 H 149.797 -0.911329 1.26982 0
M  V30 1485 H 150.532 -3.23306 0.253672 0
M  V30 1486 H 150.317 -3.35843 2.02366 0
M  V30 1487 H 151.807 -3.98289 1.25522 0
M  V30 1488 N 152.244 -1.26651 -0.937939 0
M  V30 1489 C 153.521 -1.0313 -1.66204 0
M  V30 1490 C 153.901 0.437256 -2.06522 0
M  V30 1491 O 153.249 1.41831 -1.79154 0
M  V30 1492 C 153.459 -1.98314 -2.87181 0
M  V30 1493 C 154.807 -2.27107 -3.58758 0
M  V30 1494 O 155.831 -1.96205 -2.97291 0
M  V30 1495 O 154.69 -2.79736 -4.69479 0
M  V30 1496 H 151.784 -0.392384 -0.727986 0
M  V30 1497 H 154.33 -1.37874 -0.989382 0
M  V30 1498 H 153.102 -2.97399 -2.54302 0
M  V30 1499 H 152.725 -1.64068 -3.6217 0
M  V30 1500 N 153.722 1.14298 -1.08507 0
M  V30 1501 C 154.652 2.21542 -0.737646 0
M  V30 1502 C 155.633 1.67773 0.280377 0
M  V30 1503 O 156.818 1.93616 0.150521 0
M  V30 1504 C 153.948 3.46988 -0.147259 0
M  V30 1505 C 152.902 4.13789 -1.09374 0
M  V30 1506 C 152.228 5.33449 -0.365524 0
M  V30 1507 C 153.528 4.62208 -2.4323 0
M  V30 1508 H 155.222 2.5086 -1.6343 0
M  V30 1509 H 152.768 1.20576 -0.787243 0
M  V30 1510 H 154.721 4.21262 0.107808 0
M  V30 1511 H 153.445 3.17037 0.784538 0
M  V30 1512 H 152.104 3.4147 -1.33393 0
M  V30 1513 H 151.752 4.99759 0.57011 0
M  V30 1514 H 151.452 5.79088 -0.996512 0
M  V30 1515 H 152.976 6.10485 -0.118534 0
M  V30 1516 H 154.39 5.27952 -2.23472 0
M  V30 1517 H 152.787 5.18553 -3.02031 0
M  V30 1518 H 153.857 3.77224 -3.04681 0
M  V30 1519 N 155.201 0.870884 1.31352 0
M  V30 1520 C 156.447 0.482987 1.96965 0
M  V30 1521 C 156.78 -0.962462 1.68672 0
M  V30 1522 O 156.055 -1.6779 0.98371 0
M  V30 1523 C 156.338 0.741752 3.52378 0
M  V30 1524 C 156.191 2.2368 3.9024 0
M  V30 1525 C 157.51 0.208838 4.39604 0
M  V30 1526 H 154.629 0.176955 0.715441 0
M  V30 1527 H 157.271 1.09229 1.55464 0
M  V30 1528 H 155.421 0.223149 3.87859 0
M  V30 1529 H 157.093 2.82273 3.64856 0
M  V30 1530 H 155.336 2.70901 3.38814 0
M  V30 1531 H 156.007 2.3685 4.98604 0
M  V30 1532 H 158.483 0.652529 4.10952 0
M  V30 1533 H 157.359 0.419336 5.47296 0
M  V30 1534 H 157.62 -0.889275 4.33064 0
M  V30 1535 N 156.679 -1.44442 0.630414 0
M  V30 1536 C 157.612 -2.27862 -0.124247 0
M  V30 1537 C 158.59 -1.38495 -0.851931 0
M  V30 1538 O 159.774 -1.67935 -0.856166 0
M  V30 1539 C 156.901 -3.17407 -1.18197 0
M  V30 1540 C 155.947 -4.22875 -0.554892 0
M  V30 1541 S 156.78 -5.31485 0.654489 0
M  V30 1542 C 157.936 -6.246 -0.40326 0
M  V30 1543 H 158.169 -2.91519 0.583435 0
M  V30 1544 H 155.702 -1.48618 0.418565 0
M  V30 1545 H 157.66 -3.69549 -1.78728 0
M  V30 1546 H 156.321 -2.52971 -1.86184 0
M  V30 1547 H 155.514 -4.85542 -1.35148 0
M  V30 1548 H 155.116 -3.73992 -0.0242105 0
M  V30 1549 H 157.408 -6.65375 -1.27602 0
M  V30 1550 H 158.351 -7.07851 0.187813 0
M  V30 1551 H 158.759 -5.59775 -0.728837 0
M  V30 1552 N 158.157 -0.370918 -1.53173 0
M  V30 1553 C 159.405 0.216673 -2.00935 0
M  V30 1554 C 159.726 1.48845 -1.25977 0
M  V30 1555 O 158.996 1.92286 -0.374551 0
M  V30 1556 H 157.576 0.0830565 -0.742368 0
M  V30 1557 H 160.238 -0.49838 -1.8842 0
M  V30 1558 H 159.334 0.439893 -3.08984 0
M  V30 1559 N 159.635 1.57281 -0.100228 0
M  V30 1560 C 160.565 2.17328 0.853857 0
M  V30 1561 C 161.546 1.10804 1.2906 0
M  V30 1562 O 162.731 1.38963 1.35657 0
M  V30 1563 C 159.861 2.75772 2.11109 0
M  V30 1564 C 158.815 3.87713 1.81279 0
M  V30 1565 C 158.141 4.32882 3.13874 0
M  V30 1566 C 159.441 5.10677 1.09574 0
M  V30 1567 H 161.135 2.97305 0.353545 0
M  V30 1568 H 158.681 1.43009 0.168612 0
M  V30 1569 H 160.634 3.16433 2.78296 0
M  V30 1570 H 159.358 1.93057 2.63432 0
M  V30 1571 H 158.017 3.476 1.16489 0
M  V30 1572 H 157.665 3.47051 3.64095 0
M  V30 1573 H 157.365 5.08358 2.94696 0
M  V30 1574 H 158.889 4.7618 3.82211 0
M  V30 1575 H 160.303 5.48474 1.66879 0
M  V30 1576 H 158.7 5.91615 1.00557 0
M  V30 1577 H 159.77 4.84835 0.0793299 0
M  V30 1578 N 161.113 -0.173488 1.56642 0
M  V30 1579 C 162.043 -1.2171 1.99271 0
M  V30 1580 C 163.024 -1.46289 0.867959 0
M  V30 1581 O 164.209 -1.5766 1.13388 0
M  V30 1582 C 161.339 -2.55651 2.35074 0
M  V30 1583 C 160.293 -2.45645 3.50489 0
M  V30 1584 C 159.619 -3.84056 3.72028 0
M  V30 1585 C 160.919 -1.96302 4.84007 0
M  V30 1586 H 162.613 -0.86275 2.867 0
M  V30 1587 H 160.159 -0.413571 1.37933 0
M  V30 1588 H 162.112 -3.2886 2.63494 0
M  V30 1589 H 160.836 -2.92869 1.44552 0
M  V30 1590 H 159.495 -1.7489 3.22194 0
M  V30 1591 H 159.143 -4.18664 2.788 0
M  V30 1592 H 158.843 -3.7823 4.49684 0
M  V30 1593 H 160.367 -4.58854 4.02846 0
M  V30 1594 H 161.781 -2.59284 5.11317 0
M  V30 1595 H 160.178 -2.01429 5.65284 0
M  V30 1596 H 161.248 -0.917226 4.76146 0
M  V30 1597 N 162.591 -1.51276 -0.441967 0
M  V30 1598 C 163.837 -1.63958 -1.19355 0
M  V30 1599 C 164.17 -0.352543 -1.90973 0
M  V30 1600 O 163.445 0.647627 -1.83401 0
M  V30 1601 C 163.728 -2.83979 -2.21422 0
M  V30 1602 C 163.581 -4.22646 -1.53918 0
M  V30 1603 C 164.9 -2.99521 -3.22451 0
M  V30 1604 H 162.019 -0.596709 -0.432559 0
M  V30 1605 H 164.661 -1.83748 -0.483398 0
M  V30 1606 H 162.811 -2.67237 -2.81987 0
M  V30 1607 H 164.483 -4.51045 -0.967256 0
M  V30 1608 H 162.726 -4.25558 -0.841615 0
M  V30 1609 H 163.397 -5.02609 -2.28229 0
M  V30 1610 H 165.873 -3.14944 -2.71937 0
M  V30 1611 H 164.749 -3.85072 -3.91166 0
M  V30 1612 H 165.01 -2.11391 -3.88287 0
M  V30 1613 N 164.069 0.697108 -1.41344 0
M  V30 1614 C 165.315 1.4593 -1.40827 0
M  V30 1615 C 165.648 1.94193 -0.0167098 0
M  V30 1616 O 164.923 1.69425 0.955263 0
M  V30 1617 C 165.206 2.67229 -2.41373 0
M  V30 1618 C 165.059 2.24741 -3.8963 0
M  V30 1619 C 166.378 3.69423 -2.39196 0
M  V30 1620 H 163.497 0.529303 -0.512842 0
M  V30 1621 H 166.139 0.794112 -1.72609 0
M  V30 1622 H 164.289 3.23982 -2.14401 0
M  V30 1623 H 165.961 1.73327 -4.27499 0
M  V30 1624 H 164.204 1.56542 -4.0457 0
M  V30 1625 H 164.875 3.1177 -4.55525 0
M  V30 1626 H 167.351 3.2234 -2.63128 0
M  V30 1627 H 166.227 4.51907 -3.11563 0
M  V30 1628 H 166.488 4.19012 -1.41001 0
M  V30 1629 N 165.547 1.27147 0.931209 0
M  V30 1630 C 166.958 1.12044 1.49342 0
M  V30 1631 C 167.309 -0.295795 1.93957 0
M  V30 1632 O 166.434 -1.18835 1.80852 0
M  V30 1633 C 167.029 2.02781 2.71414 0
M  V30 1634 C 165.588 1.91794 3.2387 0
M  V30 1635 C 164.735 1.95543 1.96617 0
M  V30 1636 H 167.686 1.40091 0.745672 0
M  V30 1637 H 167.707 1.58156 3.46074 0
M  V30 1638 H 167.219 3.05848 2.38911 0
M  V30 1639 H 165.32 0.916992 3.6114 0
M  V30 1640 H 165.433 2.77852 3.90302 0
M  V30 1641 H 163.797 1.39722 2.12955 0
M  V30 1642 H 164.58 3.00259 1.66432 0
M  V30 1643 N 167.025 -1.13721 1.09112 0
M  V30 1644 C 168.272 -1.84924 0.825192 0
M  V30 1645 C 168.6 -1.83347 -0.649151 0
M  V30 1646 O 167.855 -1.26449 -1.49362 0
M  V30 1647 C 168.154 -3.32861 1.30146 0
M  V30 1648 C 167.82 -3.54621 2.78486 0
M  V30 1649 C 166.482 -3.60268 3.18999 0
M  V30 1650 C 168.834 -3.62855 3.74146 0
M  V30 1651 C 166.162 -3.71679 4.53951 0
M  V30 1652 C 168.514 -3.75793 5.08883 0
M  V30 1653 C 167.178 -3.79692 5.4899 0
M  V30 1654 H 166.448 -0.676684 0.301959 0
M  V30 1655 H 169.095 -1.3428 1.36533 0
M  V30 1656 H 167.4 -3.85835 0.681064 0
M  V30 1657 H 169.097 -3.86395 1.07236 0
M  V30 1658 H 165.687 -3.50879 2.46134 0
M  V30 1659 H 169.871 -3.57775 3.43963 0
M  V30 1660 H 165.127 -3.72963 4.84467 0
M  V30 1661 H 169.301 -3.81107 5.82864 0
M  V30 1662 H 166.928 -3.88287 6.53558 0
M  V30 1663 N 168.503 -0.877838 -1.30888 0
M  V30 1664 C 169.751 -0.491723 -1.96027 0
M  V30 1665 C 170.072 0.960827 -1.69685 0
M  V30 1666 O 169.342 1.67462 -1.01654 0
M  V30 1667 H 167.922 -0.17885 -0.725273 0
M  V30 1668 H 170.584 -1.11935 -1.59551 0
M  V30 1669 H 169.68 -0.656016 -3.05128 0
M  V30 1670 N 169.982 1.44106 -0.638065 0
M  V30 1671 C 170.945 2.29138 0.0531013 0
M  V30 1672 C 171.945 1.41409 0.765506 0
M  V30 1673 O 173.135 1.63206 0.609046 0
M  V30 1674 C 170.267 3.23144 1.08584 0
M  V30 1675 H 171.46 2.91739 -0.694883 0
M  V30 1676 H 169.013 1.51134 -0.398538 0
M  V30 1677 H 169.748 2.65408 1.86357 0
M  V30 1678 H 169.533 3.87804 0.578852 0
M  V30 1679 H 171.023 3.87004 1.56899 0
M  V30 1680 N 171.46 0.379036 1.52974 0
M  V30 1681 C 172.688 -0.20679 2.05864 0
M  V30 1682 C 173.103 -1.41356 1.25155 0
M  V30 1683 O 172.46 -1.8009 0.295588 0
M  V30 1684 C 172.511 -0.587045 3.56702 0
M  V30 1685 O 172.232 0.571776 4.34353 0
M  V30 1686 C 173.733 -1.22983 4.25899 0
M  V30 1687 H 170.953 -0.0336123 0.670158 0
M  V30 1688 H 173.497 0.541298 1.97206 0
M  V30 1689 H 171.652 -1.28504 3.65466 0
M  V30 1690 H 172.066 0.261544 5.23847 0
M  V30 1691 H 173.54 -1.44635 5.32715 0
M  V30 1692 H 174.017 -2.19416 3.80465 0
M  V30 1693 H 174.623 -0.572892 4.21424 0
M  V30 1694 N 172.938 -1.57226 0.108567 0
M  V30 1695 C 174.187 -1.94008 -0.551703 0
M  V30 1696 C 174.5 -0.993442 -1.68494 0
M  V30 1697 O 175.706 -1.25551 -2.40726 0
M  V30 1698 C 174.162 -3.44763 -1.03279 0
M  V30 1699 C 173.77 -4.47943 0.0714193 0
M  V30 1700 C 175.514 -3.90483 -1.66503 0
M  V30 1701 C 173.421 -5.89865 -0.425779 0
M  V30 1702 H 172.351 -0.724206 -0.209863 0
M  V30 1703 H 175.002 -1.82547 0.186741 0
M  V30 1704 H 173.384 -3.51422 -1.82533 0
M  V30 1705 H 174.558 -4.52942 0.847365 0
M  V30 1706 H 172.873 -4.11913 0.609669 0
M  V30 1707 H 175.47 -4.93925 -2.04798 0
M  V30 1708 H 175.813 -3.29877 -2.53942 0
M  V30 1709 H 176.346 -3.86581 -0.938074 0
M  V30 1710 H 173.085 -6.54202 0.412316 0
M  V30 1711 H 172.605 -5.88309 -1.16843 0
M  V30 1712 H 174.284 -6.40844 -0.890397 0
M  V30 1713 N 174.416 0.165178 -1.56732 0
M  V30 1714 C 175.662 0.882112 -1.82611 0
M  V30 1715 C 175.995 1.81628 -0.687378 0
M  V30 1716 O 175.27 1.92009 0.310267 0
M  V30 1717 C 175.553 1.67245 -3.18906 0
M  V30 1718 C 175.406 0.760987 -4.43316 0
M  V30 1719 C 176.725 2.63884 -3.52212 0
M  V30 1720 H 173.844 0.319242 -0.664269 0
M  V30 1721 H 176.486 0.148052 -1.89422 0
M  V30 1722 H 174.636 2.29824 -3.1323 0
M  V30 1723 H 176.308 0.147596 -4.61064 0
M  V30 1724 H 174.551 0.0694102 -4.33744 0
M  V30 1725 H 175.222 1.34962 -5.35247 0
M  V30 1726 H 177.698 2.11429 -3.58381 0
M  V30 1727 H 176.574 3.16245 -4.48643 0
M  V30 1728 H 176.835 3.44377 -2.77231 0
M  V30 1729 N 175.894 1.51508 0.433938 0
M  V30 1730 C 177.14 1.64588 1.18484 0
M  V30 1731 C 177.473 0.362666 1.90784 0
M  V30 1732 O 176.748 -0.637892 1.83742 0
M  V30 1733 C 177.031 2.85149 2.19913 0
M  V30 1734 C 176.884 4.23456 1.51674 0
M  V30 1735 C 178.203 3.01227 3.20858 0
M  V30 1736 H 175.322 0.598994 0.429389 0
M  V30 1737 H 177.964 1.84002 0.473647 0
M  V30 1738 H 176.114 2.68729 2.80566 0
M  V30 1739 H 177.786 4.51552 0.943322 0
M  V30 1740 H 176.029 4.25998 0.819035 0
M  V30 1741 H 176.7 5.03812 2.2556 0
M  V30 1742 H 179.176 3.16382 2.70263 0
M  V30 1743 H 178.052 3.87141 3.89118 0
M  V30 1744 H 178.313 2.13447 3.8716 0
M  V30 1745 N 177.372 -0.689602 1.41712 0
M  V30 1746 C 178.618 -1.45041 1.42599 0
M  V30 1747 C 178.973 -1.92366 0.0363764 0
M  V30 1748 O 178.266 -1.67022 -0.938844 0
M  V30 1749 C 178.46 -2.67298 2.37247 0
M  V30 1750 C 178.289 -2.31935 3.85274 0
M  V30 1751 C 177.059 -2.2201 4.53916 0
M  V30 1752 C 179.257 -1.94526 4.76093 0
M  V30 1753 N 177.239 -1.79594 5.87043 0
M  V30 1754 C 178.61 -1.62915 5.98213 0
M  V30 1755 C 180.665 -1.81388 4.63684 0
M  V30 1756 C 179.368 -1.19486 7.09306 0
M  V30 1757 C 181.394 -1.39364 5.74745 0
M  V30 1758 C 180.756 -1.08668 6.95967 0
M  V30 1759 H 176.855 -0.527806 0.577014 0
M  V30 1760 H 179.439 -0.797266 1.77628 0
M  V30 1761 H 177.61 -3.30325 2.04304 0
M  V30 1762 H 179.342 -3.33806 2.28814 0
M  V30 1763 H 176.097 -2.406 4.07932 0
M  V30 1764 H 176.521 -1.60851 6.57614 0
M  V30 1765 H 181.163 -2.03772 3.70455 0
M  V30 1766 H 178.881 -0.958477 8.02396 0
M  V30 1767 H 182.467 -1.2974 5.6715 0
M  V30 1768 H 181.347 -0.766417 7.80446 0
M  V30 1769 N 178.85 -1.27639 -0.924453 0
M  V30 1770 C 180.098 -1.13941 -1.66918 0
M  V30 1771 C 180.419 0.314589 -1.92446 0
M  V30 1772 O 179.689 1.21964 -1.53303 0
M  V30 1773 H 178.269 -0.418678 -0.618642 0
M  V30 1774 H 180.931 -1.60213 -1.10985 0
M  V30 1775 H 180.027 -1.67094 -2.63602 0
M  V30 1776 N 180.328 1.1314 -1.09713 0
M  V30 1777 C 181.744 1.36477 -0.827423 0
M  V30 1778 C 181.944 1.93654 0.556817 0
M  V30 1779 O 181 2.15791 1.31112 0
M  V30 1780 C 182.313 2.31334 -1.92106 0
M  V30 1781 C 183.861 2.44943 -1.94864 0
M  V30 1782 C 184.336 3.4311 -3.0338 0
M  V30 1783 N 185.827 3.50662 -3.02639 0
M  V30 1784 C 186.562 4.2651 -3.83246 0
M  V30 1785 N 186.058 5.05485 -4.73768 0
M  V30 1786 N 187.851 4.2184 -3.71493 0
M  V30 1787 H 180.002 0.743807 -1.9895 0
M  V30 1788 H 182.265 0.389823 -0.864143 0
M  V30 1789 H 181.971 1.96483 -2.91698 0
M  V30 1790 H 181.845 3.31381 -1.80184 0
M  V30 1791 H 184.232 2.79079 -0.959099 0
M  V30 1792 H 184.313 1.4481 -2.10864 0
M  V30 1793 H 183.957 3.09704 -4.02549 0
M  V30 1794 H 183.887 4.43055 -2.84622 0
M  V30 1795 H 186.378 2.94315 -2.37039 0
M  V30 1796 H 186.691 5.60675 -5.3185 0
M  V30 1797 H 185.036 5.04708 -4.77802 0
M  V30 1798 H 188.227 3.5922 -3.00131 0
M  V30 1799 H 188.4 4.80697 -4.3455 0
M  V30 1800 N 181.806 0.884767 1.30421 0
M  V30 1801 C 183.052 0.513218 1.96819 0
M  V30 1802 C 183.407 -0.927347 1.68577 0
M  V30 1803 O 182.7 -1.64644 0.979941 0
M  V30 1804 C 182.894 0.724318 3.49983 0
M  V30 1805 C 182.723 2.18385 3.93113 0
M  V30 1806 C 181.493 2.82839 4.18725 0
M  V30 1807 C 183.691 3.15763 4.05953 0
M  V30 1808 N 181.673 4.1939 4.48314 0
M  V30 1809 C 183.044 4.37387 4.39423 0
M  V30 1810 C 185.099 3.11555 3.88379 0
M  V30 1811 C 183.802 5.55343 4.5715 0
M  V30 1812 C 185.828 4.28782 4.07308 0
M  V30 1813 C 185.19 5.49172 4.41123 0
M  V30 1814 H 181.289 0.237123 0.745182 0
M  V30 1815 H 183.873 1.14246 1.57658 0
M  V30 1816 H 182.044 0.124565 3.882 0
M  V30 1817 H 183.776 0.31969 4.03435 0
M  V30 1818 H 180.531 2.33708 4.11919 0
M  V30 1819 H 180.955 4.89911 4.67243 0
M  V30 1820 H 185.597 2.19576 3.61312 0
M  V30 1821 H 183.315 6.47826 4.8306 0
M  V30 1822 H 186.901 4.26995 3.95179 0
M  V30 1823 H 185.781 6.38371 4.55469 0
M  V30 1824 N 183.284 -1.43765 0.645699 0
M  V30 1825 C 184.194 -2.34544 -0.0512957 0
M  V30 1826 C 185.21 -1.53455 -0.82022 0
M  V30 1827 O 186.386 -1.86133 -0.769176 0
M  V30 1828 C 183.451 -3.31636 -1.01087 0
M  V30 1829 C 182.512 -4.2863 -0.239712 0
M  V30 1830 C 181.745 -5.21084 -1.15358 0
M  V30 1831 O 181.968 -5.1779 -2.39269 0
M  V30 1832 O 180.902 -5.98593 -0.630038 0
M  V30 1833 H 184.728 -2.95624 0.695718 0
M  V30 1834 H 182.313 -1.43781 0.405882 0
M  V30 1835 H 184.195 -3.9136 -1.56254 0
M  V30 1836 H 182.87 -2.73069 -1.73824 0
M  V30 1837 H 181.777 -3.72408 0.355356 0
M  V30 1838 H 183.11 -4.90157 0.447936 0
M  V30 1839 N 184.763 -0.387143 -1.52771 0
M  V30 1840 C 185.993 0.195585 -2.05672 0
M  V30 1841 C 186.401 1.41241 -1.25887 0
M  V30 1842 O 185.744 1.81265 -0.298081 0
M  V30 1843 C 185.806 0.632327 -3.53895 0
M  V30 1844 C 185.47 -0.470739 -4.54569 0
M  V30 1845 C 186.467 -1.32746 -5.02667 0
M  V30 1846 C 184.152 -0.637151 -4.98243 0
M  V30 1847 C 186.146 -2.33574 -5.93061 0
M  V30 1848 C 183.833 -1.64877 -5.88438 0
M  V30 1849 C 184.831 -2.49649 -6.35739 0
M  V30 1850 O 184.519 -3.49082 -7.24153 0
M  V30 1851 H 184.251 0.033658 -0.675162 0
M  V30 1852 H 186.805 -0.550221 -1.97893 0
M  V30 1853 H 185.035 1.43008 -3.59285 0
M  V30 1854 H 186.724 1.14048 -3.89548 0
M  V30 1855 H 187.49 -1.21019 -4.69659 0
M  V30 1856 H 183.369 0.0129567 -4.60998 0
M  V30 1857 H 186.913 -2.99777 -6.29904 0
M  V30 1858 H 182.81 -1.76643 -6.2086 0
M  V30 1859 H 183.578 -3.45065 -7.42208 0
M  V30 1860 N 186.241 1.57166 -0.116904 0
M  V30 1861 C 187.489 1.94737 0.540533 0
M  V30 1862 C 187.81 1.00096 1.67349 0
M  V30 1863 O 187.08 0.0568854 1.95817 0
M  V30 1864 H 185.66 0.718981 0.202669 0
M  V30 1865 H 188.322 1.94017 -0.185353 0
M  V30 1866 H 187.418 2.97719 0.936483 0
M  V30 1867 N 187.719 -0.156864 1.56817 0
M  V30 1868 C 188.944 -0.890331 1.87318 0
M  V30 1869 C 189.369 -1.74394 0.704855 0
M  V30 1870 O 188.727 -1.77972 -0.345786 0
M  V30 1871 C 188.775 -1.73102 3.16336 0
M  V30 1872 O 187.879 -2.83422 2.99576 0
M  V30 1873 H 187.22 -0.24857 0.615718 0
M  V30 1874 H 189.75 -0.150649 2.04045 0
M  V30 1875 H 189.76 -2.12803 3.48107 0
M  V30 1876 H 188.435 -1.10412 4.00976 0
M  V30 1877 H 187.012 -2.47199 2.7919 0
M  V30 1878 N 189.197 -1.51736 -0.425897 0
M  V30 1879 C 190.444 -1.6497 -1.17436 0
M  V30 1880 C 190.772 -0.371445 -1.9092 0
M  V30 1881 O 190.027 0.644963 -1.84767 0
M  V30 1882 C 190.326 -2.81103 -2.20717 0
M  V30 1883 C 189.992 -4.19954 -1.64162 0
M  V30 1884 C 188.654 -4.57725 -1.48462 0
M  V30 1885 C 191.006 -5.06552 -1.22696 0
M  V30 1886 C 188.334 -5.79789 -0.897873 0
M  V30 1887 C 190.686 -6.29205 -0.654464 0
M  V30 1888 C 189.35 -6.6574 -0.484456 0
M  V30 1889 H 188.62 -0.603668 -0.429727 0
M  V30 1890 H 191.267 -1.85798 -0.463829 0
M  V30 1891 H 189.572 -2.54542 -2.97852 0
M  V30 1892 H 191.269 -2.8854 -2.78471 0
M  V30 1893 H 187.859 -3.90181 -1.77361 0
M  V30 1894 H 192.043 -4.77968 -1.33642 0
M  V30 1895 H 187.299 -6.06733 -0.75402 0
M  V30 1896 H 191.473 -6.95643 -0.324694 0
M  V30 1897 H 189.1 -7.60195 -0.0276833 0
M  V30 1898 N 190.675 0.682077 -1.42076 0
M  V30 1899 C 191.922 1.44215 -1.42156 0
M  V30 1900 C 192.25 1.94468 -0.0354186 0
M  V30 1901 O 191.505 1.70816 0.955002 0
M  V30 1902 C 191.804 2.66036 -2.38662 0
M  V30 1903 C 191.47 2.34366 -3.85206 0
M  V30 1904 C 190.132 2.25439 -4.25124 0
M  V30 1905 C 192.484 2.08513 -4.77673 0
M  V30 1906 C 189.812 1.88775 -5.55501 0
M  V30 1907 C 192.164 1.73354 -6.08384 0
M  V30 1908 C 190.828 1.62933 -6.47309 0
M  V30 1909 H 190.098 0.527718 -0.520187 0
M  V30 1910 H 192.745 0.778387 -1.74967 0
M  V30 1911 H 191.05 3.3741 -1.99152 0
M  V30 1912 H 192.747 3.24205 -2.35991 0
M  V30 1913 H 189.337 2.42213 -3.53597 0
M  V30 1914 H 193.521 2.14346 -4.47626 0
M  V30 1915 H 188.777 1.7927 -5.84527 0
M  V30 1916 H 192.951 1.52373 -6.79526 0
M  V30 1917 H 190.578 1.34292 -7.48244 0
M  V30 1918 N 192.153 1.28127 0.917671 0
M  V30 1919 C 193.393 1.163 1.68088 0
M  V30 1920 C 193.757 -0.284515 1.8988 0
M  V30 1921 O 194.958 -0.525413 2.63615 0
M  V30 1922 C 193.229 1.93546 3.00457 0
M  V30 1923 S 194.788 1.98048 3.91564 0
M  V30 1924 H 191.606 0.415005 0.577315 0
M  V30 1925 H 194.208 1.62173 1.09179 0
M  V30 1926 H 192.912 2.97888 2.82295 0
M  V30 1927 H 192.443 1.48207 3.64415 0
M  V30 1928 H 194.458 1.08415 4.84211 0
M  V30 1929 N 193.631 -1.12557 1.10312 0
M  V30 1930 C 194.541 -2.21841 0.763142 0
M  V30 1931 C 195.557 -1.72354 -0.238801 0
M  V30 1932 O 196.733 -2.01249 -0.0778746 0
M  V30 1933 C 193.798 -3.46131 0.198632 0
M  V30 1934 C 192.859 -4.10464 1.25769 0
M  V30 1935 C 192.092 -5.28821 0.72002 0
M  V30 1936 O 192.315 -5.6859 -0.453993 0
M  V30 1937 O 191.249 -5.83437 1.47935 0
M  V30 1938 H 195.075 -2.53312 1.67532 0
M  V30 1939 H 192.66 -1.20867 0.878157 0
M  V30 1940 H 194.542 -4.2125 -0.112401 0
M  V30 1941 H 193.217 -3.16338 -0.686419 0
M  V30 1942 H 192.124 -3.3713 1.62156 0
M  V30 1943 H 193.457 -4.44408 2.11571 0
M  V30 1944 N 195.109 -0.891671 -1.2995 0
M  V30 1945 C 196.039 -0.379797 -2.30391 0
M  V30 1946 C 197.02 0.540919 -1.6127 0
M  V30 1947 O 198.205 0.453352 -1.88834 0
M  V30 1948 C 195.335 0.400654 -3.44981 0
M  V30 1949 C 194.289 -0.428905 -4.25846 0
M  V30 1950 C 193.615 0.478557 -5.32554 0
M  V30 1951 C 194.915 -1.67458 -4.94727 0
M  V30 1952 H 196.609 -1.21914 -2.73454 0
M  V30 1953 H 194.155 -0.587675 -1.31462 0
M  V30 1954 H 196.108 0.769434 -4.14316 0
M  V30 1955 H 194.832 1.27371 -3.0074 0
M  V30 1956 H 193.491 -0.779911 -3.58208 0
M  V30 1957 H 193.139 1.34951 -4.84559 0
M  V30 1958 H 192.839 -0.0727433 -5.87555 0
M  V30 1959 H 194.363 0.843705 -6.04743 0
M  V30 1960 H 195.777 -1.376 -5.56542 0
M  V30 1961 H 194.174 -2.16659 -5.59624 0
M  V30 1962 H 195.244 -2.41518 -4.20473 0
M  V30 1963 N 196.587 1.43421 -0.653314 0
M  V30 1964 C 197.833 2.02641 -0.175593 0
M  V30 1965 C 198.188 1.5062 1.19713 0
M  V30 1966 O 197.481 0.689697 1.78756 0
M  V30 1967 C 197.675 3.57176 -0.126623 0
M  V30 1968 C 197.504 4.24191 -1.49306 0
M  V30 1969 C 196.274 4.60257 -2.08547 0
M  V30 1970 C 198.472 4.53193 -2.43148 0
M  V30 1971 N 196.454 5.12345 -3.38194 0
M  V30 1972 C 197.825 5.06601 -3.57429 0
M  V30 1973 C 199.88 4.35161 -2.41949 0
M  V30 1974 C 198.583 5.43875 -4.70736 0
M  V30 1975 C 200.609 4.73498 -3.54336 0
M  V30 1976 C 199.971 5.27039 -4.67343 0
M  V30 1977 H 196.07 0.77441 -0.108686 0
M  V30 1978 H 198.654 1.74596 -0.861638 0
M  V30 1979 H 196.825 3.84784 0.528766 0
M  V30 1980 H 198.557 4.03078 0.36198 0
M  V30 1981 H 195.312 4.45302 -1.61255 0
M  V30 1982 H 195.736 5.42842 -4.04538 0
M  V30 1983 H 200.378 3.9304 -1.55818 0
M  V30 1984 H 198.096 5.8494 -5.57558 0
M  V30 1985 H 201.682 4.61241 -3.5461 0
M  V30 1986 H 200.562 5.56153 -5.52868 0
M  V30 1987 N 198.065 0.39524 1.52563 0
M  V30 1988 C 199.293 -0.184943 2.06072 0
M  V30 1989 C 199.708 -1.40021 1.26647 0
M  V30 1990 O 199.065 -1.79767 0.314672 0
M  V30 1991 C 199.116 -0.549179 3.57304 0
M  V30 1992 O 198.837 0.617813 4.33722 0
M  V30 1993 C 200.338 -1.18459 4.2718 0
M  V30 1994 H 197.558 -0.0265025 0.670476 0
M  V30 1995 H 200.102 0.562184 1.96621 0
M  V30 1996 H 198.257 -1.2462 3.66809 0
M  V30 1997 H 198.671 0.317091 5.23541 0
M  V30 1998 H 200.145 -1.38976 5.34219 0
M  V30 1999 H 200.622 -2.15368 3.82771 0
M  V30 2000 H 201.228 -0.528163 4.22008 0
M  V30 2001 N 199.544 -1.57102 0.125237 0
M  V30 2002 C 200.769 -2.0019 -0.542101 0
M  V30 2003 C 201.194 -1.00449 -1.59034 0
M  V30 2004 O 200.552 0.0229423 -1.81285 0
M  V30 2005 C 200.6 -3.42129 -1.13929 0
M  V30 2006 O 199.704 -3.45307 -2.2547 0
M  V30 2007 H 199.045 -0.650171 -0.134812 0
M  V30 2008 H 201.575 -2.03461 0.215553 0
M  V30 2009 H 201.585 -3.80471 -1.4733 0
M  V30 2010 H 200.26 -4.14237 -0.371531 0
M  V30 2011 H 198.837 -3.1879 -1.93462 0
M  V30 2012 N 201.022 0.148545 -1.56898 0
M  V30 2013 C 202.268 0.862694 -1.83536 0
M  V30 2014 C 202.601 1.80889 -0.706604 0
M  V30 2015 O 201.876 1.92328 0.289885 0
M  V30 2016 C 202.159 1.63853 -3.20662 0
M  V30 2017 C 202.012 0.713925 -4.44098 0
M  V30 2018 C 203.331 2.60133 -3.54991 0
M  V30 2019 H 200.45 0.312179 -0.667618 0
M  V30 2020 H 203.092 0.127953 -1.89569 0
M  V30 2021 H 201.242 2.26489 -3.1565 0
M  V30 2022 H 202.914 0.098686 -4.61194 0
M  V30 2023 H 201.157 0.0234019 -4.33794 0
M  V30 2024 H 201.828 1.29278 -5.36648 0
M  V30 2025 H 204.304 2.07616 -3.60603 0
M  V30 2026 H 203.18 3.11468 -4.51972 0
M  V30 2027 H 203.441 3.41417 -2.80868 0
M  V30 2028 N 202.5 1.5196 0.417844 0
M  V30 2029 C 203.777 1.56146 1.17803 0
M  V30 2030 C 204.157 0.337275 2.08388 0
M  V30 2031 O 203.505 -0.676447 2.18258 0
M  V30 2032 C 203.715 2.88566 1.96293 0
M  V30 2033 C 205.063 3.41244 2.52662 0
M  V30 2034 O 206.087 2.90247 2.06483 0
M  V30 2035 O 204.946 4.30273 3.36938 0
M  V30 2036 H 202.04 0.628598 0.537395 0
M  V30 2037 H 204.586 1.64283 0.425331 0
M  V30 2038 H 203.358 3.69116 1.2988 0
M  V30 2039 H 202.981 2.83681 2.78587 0
M  V30 2040 N 203.978 -0.674533 1.42435 0
M  V30 2041 C 205.224 -1.43671 1.43131 0
M  V30 2042 C 205.557 -1.94142 0.0476021 0
M  V30 2043 O 204.832 -1.70924 -0.928188 0
M  V30 2044 C 205.115 -2.63355 2.45594 0
M  V30 2045 C 204.968 -2.18514 3.93156 0
M  V30 2046 C 206.287 -3.65571 2.45043 0
M  V30 2047 H 203.406 -0.521077 0.521198 0
M  V30 2048 H 206.048 -0.766551 1.7385 0
M  V30 2049 H 204.198 -3.2053 2.19528 0
M  V30 2050 H 205.87 -1.66504 4.30202 0
M  V30 2051 H 204.113 -1.50086 4.07009 0
M  V30 2052 H 204.784 -3.04484 4.60428 0
M  V30 2053 H 207.26 -3.18113 2.68223 0
M  V30 2054 H 206.136 -4.46893 3.18713 0
M  V30 2055 H 206.397 -4.16716 1.47649 0
M  V30 2056 N 205.456 -1.28612 -0.910864 0
M  V30 2057 C 206.386 -1.15326 -2.03032 0
M  V30 2058 C 207.367 -0.0502924 -1.70026 0
M  V30 2059 O 208.552 -0.227797 -1.92859 0
M  V30 2060 C 205.682 -0.817343 -3.37545 0
M  V30 2061 C 204.636 -1.8754 -3.84724 0
M  V30 2062 C 203.962 -1.39305 -5.16235 0
M  V30 2063 C 205.262 -3.28244 -4.06267 0
M  V30 2064 H 206.956 -2.08975 -2.14406 0
M  V30 2065 H 204.502 -1.00612 -1.03021 0
M  V30 2066 H 206.455 -0.711151 -4.15356 0
M  V30 2067 H 205.179 0.154846 -3.26233 0
M  V30 2068 H 203.838 -1.97079 -3.09121 0
M  V30 2069 H 203.486 -0.409846 -5.01328 0
M  V30 2070 H 203.186 -2.10057 -5.48771 0
M  V30 2071 H 204.71 -1.30014 -5.96598 0
M  V30 2072 H 206.124 -3.21611 -4.74594 0
M  V30 2073 H 204.521 -3.96855 -4.5014 0
M  V30 2074 H 205.591 -3.72048 -3.10979 0
M  V30 2075 N 206.934 1.1197 -1.10907 0
M  V30 2076 C 208.174 1.85224 -0.864378 0
M  V30 2077 C 208.538 1.82411 0.599178 0
M  V30 2078 O 209.739 2.51057 0.960416 0
M  V30 2079 C 208.01 3.2868 -1.40371 0
M  V30 2080 S 209.569 4.1925 -1.29518 0
M  V30 2081 H 206.387 0.63878 -0.312219 0
M  V30 2082 H 208.989 1.3485 -1.41548 0
M  V30 2083 H 207.693 3.28289 -2.46281 0
M  V30 2084 H 207.224 3.84121 -0.849402 0
M  V30 2085 H 209.239 4.95539 -0.256059 0
M  V30 2086 N 208.412 0.89855 1.29475 0
M  V30 2087 C 209.658 0.524658 1.95896 0
M  V30 2088 C 209.991 -0.926468 1.70676 0
M  V30 2089 O 209.266 -1.65665 1.01908 0
M  V30 2090 C 209.549 0.81633 3.50725 0
M  V30 2091 C 209.402 2.31907 3.85408 0
M  V30 2092 C 210.721 0.302038 4.39062 0
M  V30 2093 H 207.84 0.19209 0.711527 0
M  V30 2094 H 210.482 1.12502 1.53112 0
M  V30 2095 H 208.632 0.305369 3.87298 0
M  V30 2096 H 210.304 2.89949 3.58786 0
M  V30 2097 H 208.547 2.78027 3.32992 0
M  V30 2098 H 209.218 2.47373 4.93468 0
M  V30 2099 H 211.694 0.739551 4.09475 0
M  V30 2100 H 210.57 0.535331 5.46283 0
M  V30 2101 H 210.831 -0.797216 4.34853 0
M  V30 2102 N 209.89 -1.43072 0.660911 0
M  V30 2103 C 211.118 -2.06067 0.185422 0
M  V30 2104 C 211.533 -1.49582 -1.15198 0
M  V30 2105 O 210.89 -0.630134 -1.71276 0
M  V30 2106 C 210.941 -3.61371 0.0966523 0
M  V30 2107 O 210.662 -4.15758 1.38119 0
M  V30 2108 C 212.163 -4.41455 -0.403996 0
M  V30 2109 H 209.383 -0.664459 0.0934604 0
M  V30 2110 H 211.927 -1.83447 0.90373 0
M  V30 2111 H 210.082 -3.8315 -0.572259 0
M  V30 2112 H 210.496 -5.09499 1.24542 0
M  V30 2113 H 211.97 -5.50437 -0.415045 0
M  V30 2114 H 212.447 -4.15036 -1.43674 0
M  V30 2115 H 213.053 -4.24663 0.232691 0
M  V30 2116 N 211.368 -0.403325 -1.52352 0
M  V30 2117 C 212.331 0.413051 -2.25447 0
M  V30 2118 C 213.331 0.978513 -1.276 0
M  V30 2119 O 214.521 0.858305 -1.51587 0
M  V30 2120 C 211.653 1.58087 -3.02029 0
M  V30 2121 H 212.846 -0.227094 -2.99039 0
M  V30 2122 H 210.399 -0.155722 -1.55522 0
M  V30 2123 H 211.134 2.25804 -2.32772 0
M  V30 2124 H 210.919 1.18195 -3.73861 0
M  V30 2125 H 212.409 2.1585 -3.57489 0
M  V30 2126 N 212.846 1.57033 -0.133567 0
M  V30 2127 C 214.071 2.00475 0.531477 0
M  V30 2128 C 214.496 1.01291 1.58499 0
M  V30 2129 O 213.854 -0.0133279 1.81295 0
M  V30 2130 C 213.902 3.42729 1.12113 0
M  V30 2131 O 213.006 3.46498 2.23636 0
M  V30 2132 H 212.347 0.650876 0.131362 0
M  V30 2133 H 214.877 2.03344 -0.22634 0
M  V30 2134 H 214.887 3.81246 1.4531 0
M  V30 2135 H 213.562 4.14428 0.349557 0
M  V30 2136 H 212.139 3.19811 1.91769 0
M  V30 2137 N 214.325 -0.140222 1.56975 0
M  V30 2138 C 215.574 -0.850152 1.82908 0
M  V30 2139 C 215.887 -1.82028 0.715892 0
M  V30 2140 O 217.093 -2.57485 0.861016 0
M  V30 2141 C 215.549 -1.5625 3.24213 0
M  V30 2142 C 215.157 -0.63443 4.43485 0
M  V30 2143 C 216.901 -2.25881 3.59413 0
M  V30 2144 C 214.808 -1.34879 5.75814 0
M  V30 2145 H 213.738 -0.321221 0.682153 0
M  V30 2146 H 216.389 -0.102874 1.83211 0
M  V30 2147 H 214.771 -2.35565 3.18316 0
M  V30 2148 H 215.945 0.12398 4.60633 0
M  V30 2149 H 214.26 -0.0461836 4.16374 0
M  V30 2150 H 216.857 -2.79978 4.5554 0
M  V30 2151 H 217.2 -3.02693 2.85802 0
M  V30 2152 H 217.733 -1.53477 3.67001 0
M  V30 2153 H 214.472 -0.622385 6.52539 0
M  V30 2154 H 213.992 -2.07974 5.6259 0
M  V30 2155 H 215.671 -1.88784 6.18845 0
M  V30 2156 N 215.803 -1.52179 -0.40978 0
M  V30 2157 C 216.713 -1.78364 -1.52392 0
M  V30 2158 C 217.729 -0.669183 -1.60617 0
M  V30 2159 O 218.905 -0.954518 -1.77344 0
M  V30 2160 C 215.97 -1.92822 -2.88133 0
M  V30 2161 C 215.031 -3.16725 -2.898 0
M  V30 2162 C 214.264 -3.30483 -4.19067 0
M  V30 2163 O 214.487 -2.49522 -5.12928 0
M  V30 2164 O 213.421 -4.2363 -4.27576 0
M  V30 2165 H 217.247 -2.72931 -1.33201 0
M  V30 2166 H 214.832 -1.37016 -0.59557 0
M  V30 2167 H 216.714 -2.04157 -3.68643 0
M  V30 2168 H 215.389 -1.01444 -3.07393 0
M  V30 2169 H 214.296 -3.10848 -2.08146 0
M  V30 2170 H 215.629 -4.07881 -2.75489 0
M  V30 2171 N 217.281 0.66697 -1.42791 0
M  V30 2172 C 218.509 1.45505 -1.47091 0
M  V30 2173 C 218.924 1.8861 -0.0845873 0
M  V30 2174 O 218.281 1.58632 0.90234 0
M  V30 2175 C 218.332 2.69906 -2.40485 0
M  V30 2176 O 218.053 2.28608 -3.73725 0
M  V30 2177 C 219.554 3.63396 -2.53886 0
M  V30 2178 H 216.774 0.447459 -0.500022 0
M  V30 2179 H 219.318 0.818866 -1.8739 0
M  V30 2180 H 217.473 3.29696 -2.03419 0
M  V30 2181 H 217.887 3.08997 -4.23817 0
M  V30 2182 H 219.361 4.47387 -3.2334 0
M  V30 2183 H 219.838 4.09824 -1.57927 0
M  V30 2184 H 220.444 3.09495 -2.91706 0
M  V30 2185 N 218.759 1.29093 0.90403 0
M  V30 2186 C 219.689 1.16401 2.02418 0
M  V30 2187 C 220.67 0.0593085 1.69997 0
M  V30 2188 O 221.855 0.238021 1.92736 0
M  V30 2189 C 218.985 0.835233 3.37107 0
M  V30 2190 C 217.939 1.89578 3.83724 0
M  V30 2191 C 217.265 1.42041 5.15489 0
M  V30 2192 C 218.565 3.30394 4.04521 0
M  V30 2193 H 220.259 2.10109 2.13295 0
M  V30 2194 H 217.805 1.01157 1.02486 0
M  V30 2195 H 219.758 0.733169 4.14973 0
M  V30 2196 H 218.482 -0.137543 3.2631 0
M  V30 2197 H 217.141 1.98715 3.08071 0
M  V30 2198 H 216.789 0.436426 5.01103 0
M  V30 2199 H 216.489 2.12964 5.4765 0
M  V30 2200 H 218.013 1.33176 5.959 0
M  V30 2201 H 219.427 3.24123 4.72882 0
M  V30 2202 H 217.824 3.99237 4.48029 0
M  V30 2203 H 218.894 3.73692 3.09002 0
M  V30 2204 N 220.237 -1.11381 1.11499 0
M  V30 2205 C 221.477 -1.84763 0.874188 0
M  V30 2206 C 221.841 -1.82726 -0.589496 0
M  V30 2207 O 223.042 -2.51562 -0.947089 0
M  V30 2208 C 221.313 -3.27931 1.42112 0
M  V30 2209 S 222.872 -4.18557 1.31739 0
M  V30 2210 H 219.69 -0.637115 0.315603 0
M  V30 2211 H 222.292 -1.34097 1.42261 0
M  V30 2212 H 220.996 -3.26978 2.48019 0
M  V30 2213 H 220.527 -3.83665 0.869761 0
M  V30 2214 H 222.542 -4.95396 0.282335 0
M  V30 2215 N 221.715 -0.905404 -1.28997 0
M  V30 2216 C 222.961 -0.535039 -1.95615 0
M  V30 2217 C 223.294 0.917404 -1.71165 0
M  V30 2218 O 222.569 1.65123 -1.02785 0
M  V30 2219 C 222.852 -0.834918 -3.50287 0
M  V30 2220 C 222.705 -2.33948 -3.84172 0
M  V30 2221 C 224.024 -0.325318 -4.38896 0
M  V30 2222 H 221.143 -0.195861 -0.710498 0
M  V30 2223 H 223.785 -1.13313 -1.52513 0
M  V30 2224 H 221.935 -0.325904 -3.87131 0
M  V30 2225 H 223.607 -2.91847 -3.57243 0
M  V30 2226 H 221.85 -2.79789 -3.31513 0
M  V30 2227 H 222.521 -2.49987 -4.92149 0
M  V30 2228 H 224.997 -0.761256 -4.09077 0
M  V30 2229 H 223.873 -0.564295 -5.45992 0
M  V30 2230 H 224.134 0.774144 -4.35269 0
M  V30 2231 N 223.193 1.4272 -0.668489 0
M  V30 2232 C 224.442 2.00846 -0.185389 0
M  V30 2233 C 224.755 1.53442 1.21305 0
M  V30 2234 O 225.961 2.03944 1.79218 0
M  V30 2235 C 224.417 3.58805 -0.280591 0
M  V30 2236 C 224.025 4.15198 -1.68268 0
M  V30 2237 C 225.769 4.24255 0.14412 0
M  V30 2238 C 223.676 5.655 -1.73099 0
M  V30 2239 H 222.606 0.751145 -0.0655475 0
M  V30 2240 H 225.257 1.63516 -0.832752 0
M  V30 2241 H 223.639 3.93608 0.434553 0
M  V30 2242 H 224.813 3.91866 -2.42441 0
M  V30 2243 H 223.128 3.62176 -2.05469 0
M  V30 2244 H 225.725 5.34547 0.128086 0
M  V30 2245 H 226.068 3.99277 1.17827 0
M  V30 2246 H 226.601 3.94389 -0.519798 0
M  V30 2247 H 223.34 5.95268 -2.74475 0
M  V30 2248 H 222.86 5.90842 -1.03274 0
M  V30 2249 H 224.539 6.29808 -1.48158 0
M  V30 2250 N 224.671 0.411399 1.52136 0
M  V30 2251 C 225.634 -0.401089 2.25663 0
M  V30 2252 C 226.634 -0.971732 1.28117 0
M  V30 2253 O 227.824 -0.850254 1.52041 0
M  V30 2254 C 224.956 -1.56483 3.02863 0
M  V30 2255 H 226.149 0.24295 2.98914 0
M  V30 2256 H 223.702 0.163968 1.55438 0
M  V30 2257 H 224.437 -2.24567 2.33967 0
M  V30 2258 H 224.222 -1.16211 3.74483 0
M  V30 2259 H 225.712 -2.13951 3.58629 0
M  V30 2260 N 226.149 -1.5696 0.141893 0
M  V30 2261 C 227.079 -2.19516 -0.795936 0
M  V30 2262 C 228.06 -1.14187 -1.26077 0
M  V30 2263 O 229.245 -1.42511 -1.31925 0
M  V30 2264 C 226.375 -2.81272 -2.03723 0
M  V30 2265 C 225.329 -3.92384 -1.70936 0
M  V30 2266 C 224.655 -4.41052 -3.02287 0
M  V30 2267 C 225.955 -5.13403 -0.959954 0
M  V30 2268 H 227.649 -2.98138 -0.274596 0
M  V30 2269 H 225.195 -1.43406 -0.130636 0
M  V30 2270 H 227.148 -3.237 -2.69808 0
M  V30 2271 H 225.872 -1.99973 -2.58221 0
M  V30 2272 H 224.531 -3.50566 -1.07232 0
M  V30 2273 H 224.179 -3.56582 -3.54765 0
M  V30 2274 H 223.879 -5.15993 -2.81114 0
M  V30 2275 H 225.403 -4.86146 -3.69451 0
M  V30 2276 H 226.817 -5.52706 -1.52279 0
M  V30 2277 H 225.214 -5.94073 -0.848357 0
M  V30 2278 H 226.284 -4.84875 0.0492434 0
M  V30 2279 N 227.627 0.131896 -1.57047 0
M  V30 2280 C 228.904 0.871495 -1.75112 0
M  V30 2281 C 229.284 1.9866 -0.713949 0
M  V30 2282 O 228.632 2.26965 0.264447 0
M  V30 2283 C 228.842 1.40007 -3.19686 0
M  V30 2284 C 230.19 1.85752 -3.81813 0
M  V30 2285 O 231.214 1.49715 -3.23209 0
M  V30 2286 O 230.073 2.5226 -4.84796 0
M  V30 2287 H 227.167 0.412919 -0.716538 0
M  V30 2288 H 229.713 0.116641 -1.69299 0
M  V30 2289 H 228.485 0.599404 -3.86682 0
M  V30 2290 H 228.108 2.218 -3.29986 0
M  V30 2291 N 229.106 1.52395 0.401703 0
M  V30 2292 C 230.522 1.41363 0.740864 0
M  V30 2293 C 230.722 0.523982 1.94568 0
M  V30 2294 O 229.778 -0.00741204 2.52499 0
M  V30 2295 C 231.091 2.84011 0.987847 0
M  V30 2296 C 232.639 2.93404 1.09011 0
M  V30 2297 C 233.114 4.37036 1.3698 0
M  V30 2298 N 234.605 4.40304 1.43829 0
M  V30 2299 C 235.34 5.48508 1.67112 0
M  V30 2300 N 234.836 6.66819 1.87949 0
M  V30 2301 N 236.629 5.36034 1.69187 0
M  V30 2302 H 228.78 2.08765 -0.391262 0
M  V30 2303 H 231.043 0.941265 -0.112798 0
M  V30 2304 H 230.749 3.51265 0.174835 0
M  V30 2305 H 230.623 3.25502 1.906 0
M  V30 2306 H 233.01 2.26325 1.8937 0
M  V30 2307 H 233.091 2.55359 0.15015 0
M  V30 2308 H 232.735 5.04676 0.571353 0
M  V30 2309 H 232.665 4.72623 2.3224 0
M  V30 2310 H 235.156 3.55024 1.29486 0
M  V30 2311 H 235.469 7.45063 2.05185 0
M  V30 2312 H 233.814 6.6987 1.85199 0
M  V30 2313 H 237.005 4.42579 1.52451 0
M  V30 2314 H 237.178 6.20434 1.86993 0
M  V30 2315 N 230.584 -0.659388 1.43143 0
M  V30 2316 C 231.814 -1.44513 1.47646 0
M  V30 2317 C 232.222 -1.88981 0.0910095 0
M  V30 2318 O 231.565 -1.59702 -0.907789 0
M  V30 2319 C 231.627 -2.71663 2.35456 0
M  V30 2320 C 231.291 -2.49175 3.83094 0
M  V30 2321 C 232.288 -2.1279 4.74359 0
M  V30 2322 C 229.973 -2.63691 4.27519 0
M  V30 2323 C 231.967 -1.9121 6.08044 0
M  V30 2324 C 229.654 -2.41726 5.61259 0
M  V30 2325 C 230.652 -2.0554 6.51339 0
M  V30 2326 O 230.34 -1.838 7.82606 0
M  V30 2327 H 230.072 -0.45064 0.503884 0
M  V30 2328 H 232.626 -0.816248 1.88485 0
M  V30 2329 H 230.856 -3.37089 1.89493 0
M  V30 2330 H 232.545 -3.33595 2.31235 0
M  V30 2331 H 233.311 -2.01157 4.41317 0
M  V30 2332 H 229.19 -2.90832 3.57684 0
M  V30 2333 H 232.734 -1.62889 6.78316 0
M  V30 2334 H 228.631 -2.52959 5.9387 0
M  V30 2335 H 229.399 -1.98275 7.94122 0
M  V30 2336 N 232.062 -1.29571 -0.897171 0
M  V30 2337 C 232.992 -1.17473 -2.01798 0
M  V30 2338 C 233.973 -0.068323 -1.69963 0
M  V30 2339 O 235.158 -0.248239 -1.92607 0
M  V30 2340 C 232.288 -0.853099 -3.36659 0
M  V30 2341 C 231.242 -1.9161 -3.82713 0
M  V30 2342 C 230.568 -1.44773 -5.14728 0
M  V30 2343 C 231.868 -3.32535 -4.02763 0
M  V30 2344 H 233.562 -2.11237 -2.12177 0
M  V30 2345 H 231.108 -1.01699 -1.01948 0
M  V30 2346 H 233.061 -0.755165 -4.14578 0
M  V30 2347 H 231.785 0.120236 -3.26379 0
M  V30 2348 H 230.444 -2.00346 -3.07013 0
M  V30 2349 H 230.092 -0.462995 -5.00865 0
M  V30 2350 H 229.792 -2.15865 -5.46513 0
M  V30 2351 H 231.316 -1.36334 -5.95185 0
M  V30 2352 H 232.73 -3.26626 -4.71156 0
M  V30 2353 H 231.127 -4.01607 -4.45905 0
M  V30 2354 H 232.197 -3.75326 -3.07016 0
M  V30 2355 N 233.54 1.10788 -1.12088 0
M  V30 2356 C 234.503 2.15207 -0.788577 0
M  V30 2357 C 235.503 1.59609 0.195317 0
M  V30 2358 O 236.693 1.74174 -0.0300193 0
M  V30 2359 C 233.825 3.4047 -0.171174 0
M  V30 2360 H 235.018 2.46116 -1.71368 0
M  V30 2361 H 232.571 1.26089 -0.923652 0
M  V30 2362 H 233.306 3.15176 0.763832 0
M  V30 2363 H 233.091 3.82109 -0.879514 0
M  V30 2364 H 234.581 4.17576 0.04496 0
M  V30 2365 N 235.018 0.912232 1.28515 0
M  V30 2366 C 236.267 0.540504 1.94323 0
M  V30 2367 C 236.58 -0.920044 1.72611 0
M  V30 2368 O 237.786 -1.39986 2.32629 0
M  V30 2369 C 236.242 0.915803 3.48053 0
M  V30 2370 C 235.85 2.39598 3.78546 0
M  V30 2371 C 237.594 0.614588 4.20027 0
M  V30 2372 C 235.501 2.71148 5.25578 0
M  V30 2373 H 234.431 0.198418 0.727424 0
M  V30 2374 H 237.082 1.11094 1.46049 0
M  V30 2375 H 235.464 0.274168 3.9505 0
M  V30 2376 H 236.638 3.08422 3.42364 0
M  V30 2377 H 234.953 2.66749 3.1974 0
M  V30 2378 H 237.55 0.827002 5.28266 0
M  V30 2379 H 237.893 -0.447531 4.13887 0
M  V30 2380 H 238.426 1.21462 3.78803 0
M  V30 2381 H 235.165 3.76207 5.36794 0
M  V30 2382 H 234.685 2.0696 5.62963 0
M  V30 2383 H 236.364 2.58072 5.93302 0
M  V30 2384 N 236.496 -1.42363 0.676048 0
M  V30 2385 C 237.724 -2.05859 0.207268 0
M  V30 2386 C 238.139 -1.50796 -1.13605 0
M  V30 2387 O 237.496 -0.648265 -1.70598 0
M  V30 2388 C 237.547 -3.61248 0.134975 0
M  V30 2389 O 237.268 -4.1427 1.42521 0
M  V30 2390 C 238.769 -4.41859 -0.357151 0
M  V30 2391 H 235.989 -0.663431 0.100503 0
M  V30 2392 H 238.533 -1.82479 0.923136 0
M  V30 2393 H 236.688 -3.83735 -0.531588 0
M  V30 2394 H 237.102 -5.0815 1.29939 0
M  V30 2395 H 238.576 -5.50847 -0.356641 0
M  V30 2396 H 239.053 -4.16536 -1.39264 0
M  V30 2397 H 239.659 -4.24392 0.27772 0
M  V30 2398 N 237.974 -0.419461 -1.51915 0
M  V30 2399 C 239.199 0.154572 -2.06823 0
M  V30 2400 C 239.624 1.3722 -1.28656 0
M  V30 2401 O 238.982 1.78461 -0.319583 0
M  V30 2402 C 239.03 0.473172 -3.57482 0
M  V30 2403 O 238.134 1.56255 -3.81652 0
M  V30 2404 H 237.475 0.0096924 -0.663929 0
M  V30 2405 H 240.005 -0.595642 -1.95738 0
M  V30 2406 H 240.015 0.728825 -4.01438 0
M  V30 2407 H 238.69 -0.416873 -4.13805 0
M  V30 2408 H 237.267 1.29825 -3.49571 0
M  V30 2409 N 239.452 1.56882 -0.150215 0
M  V30 2410 C 240.863 1.82995 0.370076 0
M  V30 2411 C 241.214 1.06907 1.64515 0
M  V30 2412 O 240.339 0.315369 2.1409 0
M  V30 2413 C 240.934 3.31942 0.678208 0
M  V30 2414 C 239.493 3.58625 1.14301 0
M  V30 2415 C 238.64 2.76792 0.167778 0
M  V30 2416 H 241.591 1.54209 -0.374858 0
M  V30 2417 H 241.612 3.48272 1.53254 0
M  V30 2418 H 241.124 3.87294 -0.249991 0
M  V30 2419 H 239.225 3.08664 2.08704 0
M  V30 2420 H 239.338 4.67073 1.06676 0
M  V30 2421 H 237.702 2.45972 0.661037 0
M  V30 2422 H 238.485 3.34916 -0.754069 0
M  V30 2423 N 240.93 -0.123565 1.57115 0
M  V30 2424 C 242.177 -0.832153 1.84612 0
M  V30 2425 C 242.505 -1.80093 0.734627 0
M  V30 2426 O 241.76 -1.93766 -0.27442 0
M  V30 2427 C 242.059 -1.62016 3.18568 0
M  V30 2428 C 241.725 -0.796084 4.43817 0
M  V30 2429 C 240.387 -0.568816 4.77826 0
M  V30 2430 C 242.739 -0.221364 5.2073 0
M  V30 2431 C 240.067 0.243499 5.86194 0
M  V30 2432 C 242.419 0.578117 6.29953 0
M  V30 2433 C 241.083 0.815744 6.62497 0
M  V30 2434 H 240.353 -0.304507 0.675542 0
M  V30 2435 H 243 -0.0947248 1.91266 0
M  V30 2436 H 241.305 -2.42837 3.0747 0
M  V30 2437 H 243.002 -2.17231 3.37064 0
M  V30 2438 H 239.592 -0.983307 4.17168 0
M  V30 2439 H 243.776 -0.384173 4.94811 0
M  V30 2440 H 239.032 0.436871 6.09837 0
M  V30 2441 H 243.206 1.03046 6.88734 0
M  V30 2442 H 240.833 1.44701 7.46301 0
M  V30 2443 N 242.408 -1.52605 -0.393616 0
M  V30 2444 C 243.824 -1.41753 -0.733357 0
M  V30 2445 C 244.024 -0.534293 -1.94287 0
M  V30 2446 O 243.08 -0.0059787 -2.52499 0
M  V30 2447 C 244.393 -2.84531 -0.972772 0
M  V30 2448 C 245.941 -2.93978 -1.07453 0
M  V30 2449 C 246.416 -4.37756 -1.3466 0
M  V30 2450 N 247.907 -4.4106 -1.41492 0
M  V30 2451 C 248.642 -5.49387 -1.642 0
M  V30 2452 N 248.138 -6.67806 -1.8441 0
M  V30 2453 N 249.931 -5.36923 -1.66342 0
M  V30 2454 H 242.082 -2.08555 0.402328 0
M  V30 2455 H 244.345 -0.940654 0.117789 0
M  V30 2456 H 244.051 -3.51353 -0.156204 0
M  V30 2457 H 243.925 -3.26508 -1.88871 0
M  V30 2458 H 246.312 -2.27326 -1.88167 0
M  V30 2459 H 246.393 -2.55435 -0.136605 0
M  V30 2460 H 246.037 -5.04972 -0.544581 0
M  V30 2461 H 245.967 -4.73848 -2.2973 0
M  V30 2462 H 248.458 -3.55705 -1.27601 0
M  V30 2463 H 248.771 -7.46141 -2.01231 0
M  V30 2464 H 247.116 -6.70843 -1.81644 0
M  V30 2465 H 250.307 -4.43381 -1.50102 0
M  V30 2466 H 250.48 -6.21416 -1.837 0
M  V30 2467 N 243.887 0.651787 -1.4349 0
M  V30 2468 C 245.117 1.43728 -1.48411 0
M  V30 2469 C 245.525 1.8893 -0.10103 0
M  V30 2470 O 244.868 1.60182 0.899307 0
M  V30 2471 C 244.93 2.70411 -2.36893 0
M  V30 2472 C 244.594 2.4714 -3.8441 0
M  V30 2473 C 245.591 2.10271 -4.75481 0
M  V30 2474 C 243.276 2.6142 -4.28912 0
M  V30 2475 C 245.27 1.87982 -6.0905 0
M  V30 2476 C 242.957 2.38746 -5.62533 0
M  V30 2477 C 243.955 2.02083 -6.5242 0
M  V30 2478 O 243.643 1.79647 -7.8357 0
M  V30 2479 H 243.375 0.447962 -0.506267 0
M  V30 2480 H 245.929 0.80624 -1.88915 0
M  V30 2481 H 244.159 3.36079 -1.91278 0
M  V30 2482 H 245.848 3.32364 -2.33 0
M  V30 2483 H 246.614 1.98814 -4.42378 0
M  V30 2484 H 242.493 2.88931 -3.59222 0
M  V30 2485 H 246.037 1.5929 -6.7917 0
M  V30 2486 H 241.934 2.49806 -5.95203 0
M  V30 2487 H 242.702 1.9406 -7.95162 0
M  V30 2488 N 245.365 1.30045 0.890287 0
M  V30 2489 C 246.297 1.11786 2.00091 0
M  V30 2490 C 247.31 0.0626307 1.62679 0
M  V30 2491 O 248.499 0.308112 1.75821 0
M  V30 2492 C 245.599 0.681527 3.31977 0
M  V30 2493 C 244.772 1.81735 3.97858 0
M  V30 2494 C 243.831 1.37045 5.08041 0
M  V30 2495 O 242.857 2.07677 5.29961 0
M  V30 2496 N 244.059 0.246525 5.79976 0
M  V30 2497 H 246.824 2.07441 2.16306 0
M  V30 2498 H 244.385 1.2211 1.06305 0
M  V30 2499 H 246.377 0.365675 4.03045 0
M  V30 2500 H 244.947 -0.182828 3.12065 0
M  V30 2501 H 244.167 2.30159 3.20032 0
M  V30 2502 H 245.455 2.57865 4.38615 0
M  V30 2503 H 244.853 -0.34215 5.64664 0
M  V30 2504 H 243.41 -0.00990438 6.51799 0
M  V30 2505 N 246.843 -1.10192 1.12674 0
M  V30 2506 C 248.068 -1.86523 0.906853 0
M  V30 2507 C 248.493 -1.80221 -0.538711 0
M  V30 2508 O 247.851 -1.17396 -1.38158 0
M  V30 2509 C 247.899 -3.32758 1.3894 0
M  V30 2510 O 247.003 -4.08449 0.5695 0
M  V30 2511 H 246.344 -0.578678 0.325619 0
M  V30 2512 H 248.874 -1.39203 1.49946 0
M  V30 2513 H 248.884 -3.83608 1.38958 0
M  V30 2514 H 247.559 -3.36661 2.44197 0
M  V30 2515 H 246.136 -3.67427 0.636528 0
M  V30 2516 N 248.321 -0.919034 -1.28029 0
M  V30 2517 C 249.251 -0.428581 -2.29533 0
M  V30 2518 C 250.232 0.50659 -1.62381 0
M  V30 2519 O 251.417 0.413195 -1.89753 0
M  V30 2520 C 248.547 0.327388 -3.45753 0
M  V30 2521 C 247.501 -0.519137 -4.2484 0
M  V30 2522 C 246.827 0.365486 -5.33449 0
M  V30 2523 C 248.127 -1.77914 -4.91064 0
M  V30 2524 H 249.821 -1.27687 -2.70807 0
M  V30 2525 H 247.367 -0.615428 -1.30186 0
M  V30 2526 H 249.32 0.681378 -4.15855 0
M  V30 2527 H 248.044 1.20963 -3.03374 0
M  V30 2528 H 246.703 -0.855717 -3.56473 0
M  V30 2529 H 246.351 1.24642 -4.87312 0
M  V30 2530 H 246.051 -0.197356 -5.87268 0
M  V30 2531 H 247.575 0.715241 -6.06396 0
M  V30 2532 H 248.989 -1.49374 -5.53498 0
M  V30 2533 H 247.386 -2.2848 -5.54903 0
M  V30 2534 H 248.456 -2.50382 -4.15255 0
M  V30 2535 N 249.799 1.42003 -0.683588 0
M  V30 2536 C 250.729 2.33487 -0.024866 0
M  V30 2537 C 251.71 1.51163 0.779975 0
M  V30 2538 O 252.895 1.79739 0.735362 0
M  V30 2539 C 250.025 3.3487 0.920836 0
M  V30 2540 C 248.979 4.27414 0.223958 0
M  V30 2541 C 248.305 5.19074 1.2832 0
M  V30 2542 C 249.605 5.14445 -0.90242 0
M  V30 2543 H 251.299 2.88819 -0.788921 0
M  V30 2544 H 248.845 1.38873 -0.38083 0
M  V30 2545 H 250.798 3.97787 1.39081 0
M  V30 2546 H 249.522 2.77861 1.71642 0
M  V30 2547 H 248.181 3.65904 -0.225864 0
M  V30 2548 H 247.829 4.58387 2.071 0
M  V30 2549 H 247.529 5.81822 0.821995 0
M  V30 2550 H 249.053 5.84867 1.75392 0
M  V30 2551 H 250.467 5.70998 -0.513272 0
M  V30 2552 H 248.864 5.86072 -1.28997 0
M  V30 2553 H 249.934 4.52322 -1.74737 0
M  V30 2554 N 251.277 0.427512 1.51691 0
M  V30 2555 C 252.505 -0.141191 2.06418 0
M  V30 2556 C 252.92 -1.37303 1.29589 0
M  V30 2557 O 252.277 -1.79059 0.352732 0
M  V30 2558 C 252.328 -0.473266 3.58389 0
M  V30 2559 O 252.049 0.709673 4.32314 0
M  V30 2560 C 253.55 -1.09371 4.29596 0
M  V30 2561 H 250.77 -0.0122747 0.670888 0
M  V30 2562 H 253.314 0.603764 1.95384 0
M  V30 2563 H 251.469 -1.16812 3.69369 0
M  V30 2564 H 251.883 0.42807 5.2275 0
M  V30 2565 H 253.357 -1.27613 5.37046 0
M  V30 2566 H 253.834 -2.072 3.87253 0
M  V30 2567 H 254.44 -0.43853 4.23033 0
M  V30 2568 N 252.755 -1.56801 0.158532 0
M  V30 2569 C 254.171 -1.5837 -0.197774 0
M  V30 2570 C 254.371 -1.17334 -1.63814 0
M  V30 2571 O 253.427 -0.878988 -2.36707 0
M  V30 2572 C 254.74 -3.00615 0.0714459 0
M  V30 2573 C 256.288 -3.12999 0.00864533 0
M  V30 2574 C 256.763 -4.57313 0.250685 0
M  V30 2575 N 258.254 -4.62777 0.198014 0
M  V30 2576 C 258.989 -5.72271 0.359642 0
M  V30 2577 N 258.485 -6.90371 0.579625 0
M  V30 2578 N 260.278 -5.61318 0.296438 0
M  V30 2579 H 252.429 -1.81765 1.09887 0
M  V30 2580 H 254.692 -0.841849 0.435884 0
M  V30 2581 H 254.398 -3.35068 1.06874 0
M  V30 2582 H 254.272 -3.71683 -0.642757 0
M  V30 2583 H 256.659 -2.7838 -0.979217 0
M  V30 2584 H 256.74 -2.44393 0.755359 0
M  V30 2585 H 256.384 -4.92639 1.2357 0
M  V30 2586 H 256.314 -5.24061 -0.516489 0
M  V30 2587 H 258.805 -3.77885 0.0331115 0
M  V30 2588 H 259.118 -7.69689 0.69275 0
M  V30 2589 H 257.463 -6.92264 0.616087 0
M  V30 2590 H 260.654 -4.67932 0.125258 0
M  V30 2591 H 260.827 -6.46599 0.425831 0
M  V30 2592 N 254.233 0.115231 -1.57178 0
M  V30 2593 C 255.196 1.12526 -1.99676 0
M  V30 2594 C 256.196 1.34095 -0.88742 0
M  V30 2595 O 257.386 1.30548 -1.15337 0
M  V30 2596 C 254.518 2.4789 -2.34015 0
M  V30 2597 H 255.711 0.759912 -2.90113 0
M  V30 2598 H 253.264 0.359648 -1.52106 0
M  V30 2599 H 253.999 2.89339 -1.4647 0
M  V30 2600 H 253.784 2.33588 -3.14927 0
M  V30 2601 H 255.274 3.20575 -2.67622 0
M  V30 2602 N 255.711 1.52812 0.385517 0
M  V30 2603 C 257.127 1.4214 0.725829 0
M  V30 2604 C 257.327 0.544589 1.94001 0
M  V30 2605 O 256.383 0.0193693 2.52493 0
M  V30 2606 C 257.696 2.85042 0.957668 0
M  V30 2607 C 259.244 2.94543 1.05892 0
M  V30 2608 C 259.719 4.38464 1.32337 0
M  V30 2609 N 261.21 4.41804 1.39151 0
M  V30 2610 C 261.945 5.5025 1.61285 0
M  V30 2611 N 261.441 6.68775 1.80866 0
M  V30 2612 N 263.234 5.37798 1.63492 0
M  V30 2613 H 255.385 2.08338 -0.413383 0
M  V30 2614 H 257.648 0.940016 -0.122775 0
M  V30 2615 H 257.354 3.51431 0.137568 0
M  V30 2616 H 257.228 3.27505 1.87137 0
M  V30 2617 H 259.615 2.28321 1.86959 0
M  V30 2618 H 259.696 2.55504 0.123057 0
M  V30 2619 H 259.34 5.05254 0.517793 0
M  V30 2620 H 259.27 4.75059 2.27214 0
M  V30 2621 H 261.761 3.56377 1.25713 0
M  V30 2622 H 262.074 7.47197 1.97271 0
M  V30 2623 H 260.419 6.71797 1.78083 0
M  V30 2624 H 263.61 4.44171 1.47749 0
M  V30 2625 H 263.783 6.22382 1.80402 0
M  V30 2626 N 257.189 -0.644168 1.43834 0
M  V30 2627 C 258.152 -1.73857 1.49353 0
M  V30 2628 C 259.152 -1.56315 0.377112 0
M  V30 2629 O 260.342 -1.62048 0.639226 0
M  V30 2630 C 257.474 -3.12819 1.35488 0
M  V30 2631 H 258.667 -1.70342 2.46827 0
M  V30 2632 H 256.22 -0.856652 1.30733 0
M  V30 2633 H 256.955 -3.2194 0.390569 0
M  V30 2634 H 256.74 -3.26958 2.16428 0
M  V30 2635 H 258.23 -3.92606 1.42302 0
M  V30 2636 N 258.668 -1.30515 -0.883378 0
M  V30 2637 C 260.084 -1.08881 -1.16692 0
M  V30 2638 C 260.284 0.149409 -2.00945 0
M  V30 2639 O 259.34 0.84257 -2.38027 0
M  V30 2640 C 260.653 -2.35319 -1.87204 0
M  V30 2641 C 262.201 -2.40799 -1.99962 0
M  V30 2642 C 262.676 -3.67083 -2.73887 0
M  V30 2643 N 264.167 -3.679 -2.81432 0
M  V30 2644 C 264.902 -4.62303 -3.3921 0
M  V30 2645 N 264.398 -5.67052 -3.98025 0
M  V30 2646 N 266.191 -4.49845 -3.3704 0
M  V30 2647 H 258.342 -2.09951 -0.321633 0
M  V30 2648 H 260.605 -0.92556 -0.205043 0
M  V30 2649 H 260.311 -3.25689 -1.3274 0
M  V30 2650 H 260.185 -2.44089 -2.87577 0
M  V30 2651 H 262.572 -1.50907 -2.53597 0
M  V30 2652 H 262.653 -2.36003 -0.98673 0
M  V30 2653 H 262.297 -4.57334 -2.20925 0
M  V30 2654 H 262.227 -3.69141 -3.75556 0
M  V30 2655 H 264.718 -2.92171 -2.39676 0
M  V30 2656 H 265.031 -6.35184 -4.40183 0
M  V30 2657 H 263.376 -5.70842 -3.96439 0
M  V30 2658 H 266.567 -3.67194 -2.90321 0
M  V30 2659 H 266.74 -5.23597 -3.81772 0
M  V30 2660 N 260.146 1.09593 -1.13257 0
M  V30 2661 C 261.394 1.81375 -0.891492 0
M  V30 2662 C 261.715 1.86049 0.584009 0
M  V30 2663 O 260.985 1.34481 1.42449 0
M  V30 2664 H 259.565 0.671708 -0.326828 0
M  V30 2665 H 262.227 1.3256 -1.42877 0
M  V30 2666 H 261.323 2.84612 -1.28071 0
M  V30 2667 N 261.624 0.925811 1.2754 0
M  V30 2668 C 262.554 0.440748 2.29303 0
M  V30 2669 C 263.535 -0.497971 1.62648 0
M  V30 2670 O 264.72 -0.403126 1.8997 0
M  V30 2671 C 261.85 -0.309048 3.45922 0
M  V30 2672 C 260.804 0.54166 4.24559 0
M  V30 2673 C 260.13 -0.337191 5.33636 0
M  V30 2674 C 261.43 1.80516 4.90114 0
M  V30 2675 H 263.124 1.29121 2.70126 0
M  V30 2676 H 260.67 0.622323 1.29858 0
M  V30 2677 H 262.623 -0.659315 4.1621 0
M  V30 2678 H 261.347 -1.19352 3.04011 0
M  V30 2679 H 260.006 0.874609 3.56014 0
M  V30 2680 H 259.654 -1.22056 4.87966 0
M  V30 2681 H 259.354 0.228497 5.87156 0
M  V30 2682 H 260.878 -0.683072 6.06767 0
M  V30 2683 H 262.292 1.52307 5.52698 0
M  V30 2684 H 260.689 2.3142 5.53683 0
M  V30 2685 H 261.759 2.52581 4.13921 0
M  V30 2686 N 263.102 -1.41638 0.69111 0
M  V30 2687 C 264.348 -2.01598 0.220519 0
M  V30 2688 C 264.681 -1.54594 -1.17535 0
M  V30 2689 O 263.956 -0.755177 -1.79241 0
M  V30 2690 C 264.239 -3.59062 0.273243 0
M  V30 2691 C 264.092 -4.16203 1.70573 0
M  V30 2692 C 265.411 -4.38546 -0.369457 0
M  V30 2693 H 262.53 -0.732468 0.0816045 0
M  V30 2694 H 265.172 -1.68445 0.878986 0
M  V30 2695 H 263.322 -3.87435 -0.287411 0
M  V30 2696 H 264.994 -3.98722 2.31989 0
M  V30 2697 H 263.237 -3.71414 2.2413 0
M  V30 2698 H 263.908 -5.25358 1.69419 0
M  V30 2699 H 266.384 -4.1596 0.107977 0
M  V30 2700 H 265.26 -5.48069 -0.302002 0
M  V30 2701 H 265.521 -4.17662 -1.44951 0
M  V30 2702 N 264.58 -0.43555 -1.51462 0
M  V30 2703 C 265.82 0.130708 -2.03982 0
M  V30 2704 C 266.184 1.40117 -1.31268 0
M  V30 2705 O 267.385 2.04755 -1.74152 0
M  V30 2706 C 265.656 0.346102 -3.5572 0
M  V30 2707 S 267.215 0.876022 -4.29967 0
M  V30 2708 H 264.033 0.0326881 -0.710248 0
M  V30 2709 H 266.635 -0.594544 -1.8624 0
M  V30 2710 H 265.339 -0.584911 -4.0621 0
M  V30 2711 H 264.87 1.09849 -3.77752 0
M  V30 2712 H 266.885 2.15379 -4.47019 0
M  V30 2713 N 266.058 1.56714 -0.166846 0
M  V30 2714 C 267.286 2.0112 0.485644 0
M  V30 2715 C 267.701 1.04705 1.57106 0
M  V30 2716 O 267.058 0.0471923 1.82439 0
M  V30 2717 C 267.109 3.45361 1.06808 0
M  V30 2718 O 266.83 4.38092 0.0259995 0
M  V30 2719 C 268.331 4.05145 1.79924 0
M  V30 2720 H 265.551 0.65931 0.124704 0
M  V30 2721 H 268.095 2.02746 -0.267262 0
M  V30 2722 H 266.25 3.44524 1.7715 0
M  V30 2723 H 266.664 5.22519 0.455398 0
M  V30 2724 H 268.138 5.08009 2.15942 0
M  V30 2725 H 268.615 3.46982 2.69258 0
M  V30 2726 H 269.221 4.09672 1.14234 0
M  V30 2727 N 267.536 -0.106894 1.57237 0
M  V30 2728 C 268.782 -0.81373 1.85759 0
M  V30 2729 C 269.115 -1.78952 0.754315 0
M  V30 2730 O 268.39 -1.93029 -0.23879 0
M  V30 2731 C 268.673 -1.55293 3.24894 0
M  V30 2732 C 268.526 -0.595929 4.45835 0
M  V30 2733 C 269.845 -2.5063 3.61763 0
M  V30 2734 H 266.964 -0.294369 0.67566 0
M  V30 2735 H 269.606 -0.0776472 1.89841 0
M  V30 2736 H 267.756 -2.1804 3.21544 0
M  V30 2737 H 269.428 0.0236262 4.61294 0
M  V30 2738 H 267.671 0.0916191 4.33703 0
M  V30 2739 H 268.342 -1.15004 5.39887 0
M  V30 2740 H 270.818 -1.97982 3.65981 0
M  V30 2741 H 269.694 -2.99376 4.60071 0
M  V30 2742 H 269.955 -3.3385 2.89821 0
M  V30 2743 N 269.014 -1.53014 -0.377408 0
M  V30 2744 C 270.26 -1.69821 -1.11948 0
M  V30 2745 C 270.615 -0.438581 -1.87335 0
M  V30 2746 O 269.908 0.568094 -1.82984 0
M  V30 2747 C 270.102 -2.87982 -2.11663 0
M  V30 2748 C 269.931 -4.25315 -1.46072 0
M  V30 2749 C 268.701 -4.90354 -1.21986 0
M  V30 2750 C 270.899 -5.06281 -0.904664 0
M  V30 2751 N 268.881 -6.11641 -0.526215 0
M  V30 2752 C 270.252 -6.19069 -0.339726 0
M  V30 2753 C 272.307 -4.91395 -0.8022 0
M  V30 2754 C 271.01 -7.18598 0.317669 0
M  V30 2755 C 273.036 -5.91187 -0.158606 0
M  V30 2756 C 272.398 -7.03289 0.39551 0
M  V30 2757 H 268.497 -0.674785 -0.395207 0
M  V30 2758 H 271.081 -1.90389 -0.407437 0
M  V30 2759 H 269.252 -2.68974 -2.80192 0
M  V30 2760 H 270.984 -2.93669 -2.78461 0
M  V30 2761 H 267.739 -4.49286 -1.49798 0
M  V30 2762 H 268.163 -6.76719 -0.195098 0
M  V30 2763 H 272.805 -4.04925 -1.21639 0
M  V30 2764 H 270.523 -8.04669 0.743836 0
M  V30 2765 H 274.109 -5.81744 -0.0804138 0
M  V30 2766 H 272.989 -7.79183 0.885648 0
M  V30 2767 N 270.492 0.636531 -1.44174 0
M  V30 2768 C 271.455 1.73063 -1.50273 0
M  V30 2769 C 272.455 1.56113 -0.385397 0
M  V30 2770 O 273.645 1.61707 -0.64781 0
M  V30 2771 C 270.777 3.12096 -1.37145 0
M  V30 2772 H 271.97 1.69031 -2.47727 0
M  V30 2773 H 269.523 0.849706 -1.31186 0
M  V30 2774 H 270.258 3.21728 -0.407636 0
M  V30 2775 H 270.043 3.25805 -2.18159 0
M  V30 2776 H 271.533 3.91846 -1.44382 0
M  V30 2777 N 271.97 1.30982 0.876444 0
M  V30 2778 C 273.219 1.19658 1.62373 0
M  V30 2779 C 273.532 -0.245636 1.94052 0
M  V30 2780 O 274.738 -0.48049 2.67214 0
M  V30 2781 C 273.194 2.09433 2.92687 0
M  V30 2782 C 272.802 3.58613 2.68516 0
M  V30 2783 C 274.546 2.06893 3.70669 0
M  V30 2784 C 272.453 4.40416 3.94699 0
M  V30 2785 H 271.383 0.444268 0.609214 0
M  V30 2786 H 274.034 1.55791 0.969605 0
M  V30 2787 H 272.416 1.66191 3.59439 0
M  V30 2788 H 273.59 4.10058 2.10212 0
M  V30 2789 H 271.905 3.63063 2.03898 0
M  V30 2790 H 274.502 2.65258 4.64265 0
M  V30 2791 H 274.845 1.05448 4.02724 0
M  V30 2792 H 275.378 2.48301 3.10792 0
M  V30 2793 H 272.117 5.42591 3.67798 0
M  V30 2794 H 271.637 3.93731 4.52477 0
M  V30 2795 H 273.316 4.52294 4.62644 0
M  V30 2796 N 273.449 -1.08991 1.13837 0
M  V30 2797 C 274.674 -1.85551 0.926585 0
M  V30 2798 C 275.099 -1.80782 -0.519566 0
M  V30 2799 O 274.457 -1.18855 -1.36906 0
M  V30 2800 C 274.505 -3.31266 1.42462 0
M  V30 2801 O 273.609 -4.07822 0.612789 0
M  V30 2802 H 272.95 -0.575192 0.331738 0
M  V30 2803 H 275.48 -1.37604 1.51414 0
M  V30 2804 H 275.49 -3.82112 1.43019 0
M  V30 2805 H 274.165 -3.34052 2.47754 0
M  V30 2806 H 272.742 -3.66731 0.675463 0
M  V30 2807 N 274.927 -0.932562 -1.27047 0
M  V30 2808 C 275.89 -0.440064 -2.24936 0
M  V30 2809 C 276.89 0.444071 -1.54547 0
M  V30 2810 O 278.08 0.244465 -1.72476 0
M  V30 2811 C 275.212 0.36678 -3.38921 0
M  V30 2812 H 276.405 -1.305 -2.70018 0
M  V30 2813 H 273.958 -0.713707 -1.39054 0
M  V30 2814 H 274.693 1.25033 -2.99228 0
M  V30 2815 H 274.478 -0.267204 -3.91188 0
M  V30 2816 H 275.968 0.701567 -4.11665 0
M  V30 2817 N 276.405 1.4127 -0.698611 0
M  V30 2818 C 277.335 2.33447 -0.049629 0
M  V30 2819 C 278.316 1.51982 0.763898 0
M  V30 2820 O 279.501 1.80509 0.716257 0
M  V30 2821 C 276.631 3.35828 0.885267 0
M  V30 2822 C 275.585 4.27627 0.178613 0
M  V30 2823 C 274.911 5.20406 1.22807 0
M  V30 2824 C 276.211 5.13459 -0.956933 0
M  V30 2825 H 277.905 2.87966 -0.81951 0
M  V30 2826 H 275.451 1.38461 -0.395538 0
M  V30 2827 H 277.404 3.9924 1.34854 0
M  V30 2828 H 276.128 2.79666 1.68685 0
M  V30 2829 H 274.787 3.65643 -0.26466 0
M  V30 2830 H 274.435 4.60558 2.02226 0
M  V30 2831 H 274.135 5.82661 0.760239 0
M  V30 2832 H 275.659 5.86695 1.69179 0
M  V30 2833 H 277.073 5.70421 -0.573805 0
M  V30 2834 H 275.47 5.8467 -1.35205 0
M  V30 2835 H 276.54 4.50443 -1.79524 0
M  V30 2836 N 277.883 0.443576 1.51229 0
M  V30 2837 C 279.129 -0.120975 2.02439 0
M  V30 2838 C 279.462 -1.41815 1.32674 0
M  V30 2839 O 278.737 -1.89373 0.443622 0
M  V30 2840 C 279.02 -0.333291 3.58554 0
M  V30 2841 C 278.873 0.982968 4.38928 0
M  V30 2842 C 280.192 -1.10028 4.26124 0
M  V30 2843 H 277.311 -0.0424923 0.735774 0
M  V30 2844 H 279.953 0.583794 1.80809 0
M  V30 2845 H 278.103 -0.933614 3.77115 0
M  V30 2846 H 279.775 1.61775 4.32003 0
M  V30 2847 H 278.018 1.58611 4.03763 0
M  V30 2848 H 278.689 0.788379 5.46341 0
M  V30 2849 H 281.165 -0.591711 4.11871 0
M  V30 2850 H 280.041 -1.21761 5.35225 0
M  V30 2851 H 280.302 -2.12996 3.87408 0
M  V30 2852 N 279.361 -1.56624 0.175154 0
M  V30 2853 C 280.586 -2.01813 -0.478137 0
M  V30 2854 C 281.011 -1.05457 -1.55757 0
M  V30 2855 O 280.369 -0.0347439 -1.81267 0
M  V30 2856 C 280.417 -3.45581 -1.02987 0
M  V30 2857 O 279.521 -3.52305 -2.14371 0
M  V30 2858 H 278.862 -0.65413 -0.114059 0
M  V30 2859 H 281.392 -2.02673 0.280173 0
M  V30 2860 H 281.402 -3.84965 -1.35151 0
M  V30 2861 H 280.077 -4.1521 -0.239556 0
M  V30 2862 H 278.654 -3.24783 -1.83222 0
M  V30 2863 N 280.839 0.0985539 -1.57292 0
M  V30 2864 C 282.086 0.802678 -1.85912 0
M  V30 2865 C 282.414 1.78901 -0.763186 0
M  V30 2866 O 281.669 1.94178 0.243559 0
M  V30 2867 C 281.968 1.56927 -3.21105 0
M  V30 2868 C 281.634 0.725376 -4.45027 0
M  V30 2869 C 280.296 0.492726 -4.78671 0
M  V30 2870 C 282.648 0.138493 -5.21016 0
M  V30 2871 C 279.976 -0.336727 -5.85733 0
M  V30 2872 C 282.328 -0.678264 -6.28953 0
M  V30 2873 C 280.992 -0.921039 -6.61115 0
M  V30 2874 H 280.262 0.293721 -0.680301 0
M  V30 2875 H 282.909 0.0642841 -1.91392 0
M  V30 2876 H 281.214 2.37914 -3.11294 0
M  V30 2877 H 282.911 2.11841 -3.40477 0
M  V30 2878 H 279.501 0.916815 -4.18679 0
M  V30 2879 H 283.685 0.305404 -4.95359 0
M  V30 2880 H 278.941 -0.533836 -6.09065 0
M  V30 2881 H 283.115 -1.1399 -6.87007 0
M  V30 2882 H 280.742 -1.56556 -7.43905 0
M  V30 2883 N 282.317 1.53212 0.369288 0
M  V30 2884 C 283.247 1.82365 1.45826 0
M  V30 2885 C 284.228 0.676907 1.56051 0
M  V30 2886 O 285.413 0.926401 1.70679 0
M  V30 2887 C 282.543 2.01023 2.83208 0
M  V30 2888 C 281.497 3.1678 2.8781 0
M  V30 2889 C 280.823 3.20724 4.27832 0
M  V30 2890 C 282.123 4.55447 2.55667 0
M  V30 2891 H 283.817 2.73559 1.21678 0
M  V30 2892 H 281.363 1.3163 0.583911 0
M  V30 2893 H 283.316 2.20001 3.59413 0
M  V30 2894 H 282.04 1.06536 3.08736 0
M  V30 2895 H 280.699 2.97616 2.14056 0
M  V30 2896 H 280.347 2.23882 4.50429 0
M  V30 2897 H 280.047 3.98496 4.31827 0
M  V30 2898 H 281.571 3.41881 5.05915 0
M  V30 2899 H 282.985 4.74611 3.21586 0
M  V30 2900 H 281.382 5.35432 2.70984 0
M  V30 2901 H 282.452 4.60812 1.5093 0
M  V30 2902 N 283.795 -0.628877 1.44509 0
M  V30 2903 C 285.206 -1.21054 1.42137 0
M  V30 2904 C 285.557 -1.95715 0.137881 0
M  V30 2905 O 284.682 -2.02554 -0.761645 0
M  V30 2906 C 285.277 -2.20189 2.57493 0
M  V30 2907 C 283.836 -2.73777 2.58308 0
M  V30 2908 C 282.983 -1.48813 2.33987 0
M  V30 2909 H 285.934 -0.41942 1.53057 0
M  V30 2910 H 285.955 -3.02833 2.30375 0
M  V30 2911 H 285.467 -1.6582 3.50892 0
M  V30 2912 H 283.568 -3.32142 1.68856 0
M  V30 2913 H 283.681 -3.19662 3.56865 0
M  V30 2914 H 282.045 -1.77024 1.83124 0
M  V30 2915 H 282.828 -0.963442 3.29504 0
M  V30 2916 N 285.273 -1.31445 -0.869486 0
M  V30 2917 C 286.522 -1.20517 -1.61736 0
M  V30 2918 C 286.835 0.235341 -1.94179 0
M  V30 2919 O 288.041 0.466312 -2.67465 0
M  V30 2920 C 286.497 -2.10982 -2.91573 0
M  V30 2921 C 286.105 -3.60032 -2.66611 0
M  V30 2922 C 287.849 -2.08856 -3.69567 0
M  V30 2923 C 285.756 -4.42503 -3.92358 0
M  V30 2924 H 284.686 -0.447493 -0.606849 0
M  V30 2925 H 287.337 -1.56303 -0.96133 0
M  V30 2926 H 285.719 -1.68095 -3.58553 0
M  V30 2927 H 286.893 -4.11167 -2.08035 0
M  V30 2928 H 285.208 -3.64139 -2.0197 0
M  V30 2929 H 287.805 -2.67716 -4.62852 0
M  V30 2930 H 288.148 -1.07582 -4.02159 0
M  V30 2931 H 288.681 -2.49945 -3.09471 0
M  V30 2932 H 285.42 -5.44533 -3.64916 0
M  V30 2933 H 284.94 -3.96125 -4.50383 0
M  V30 2934 H 286.619 -4.54741 -4.60238 0
M  V30 2935 N 286.751 1.08385 -1.14413 0
M  V30 2936 C 287.681 2.17321 -0.854044 0
M  V30 2937 C 288.662 1.69024 0.191049 0
M  V30 2938 O 289.847 1.94141 0.0476779 0
M  V30 2939 C 286.977 3.45719 -0.330983 0
M  V30 2940 C 285.931 4.07409 -1.31155 0
M  V30 2941 C 285.257 5.30762 -0.64778 0
M  V30 2942 C 286.557 4.48665 -2.67388 0
M  V30 2943 H 288.251 2.41845 -1.76498 0
M  V30 2944 H 285.797 1.16233 -0.850051 0
M  V30 2945 H 287.75 4.21241 -0.115645 0
M  V30 2946 H 286.474 3.2075 0.615381 0
M  V30 2947 H 285.133 3.33919 -1.51306 0
M  V30 2948 H 284.781 5.02078 0.304398 0
M  V30 2949 H 284.481 5.72992 -1.30207 0
M  V30 2950 H 286.005 6.08998 -0.441972 0
M  V30 2951 H 287.419 5.15364 -2.51143 0
M  V30 2952 H 285.816 5.01814 -3.29093 0
M  V30 2953 H 286.886 3.60543 -3.24248 0
M  V30 2954 N 288.23 0.939286 1.26551 0
M  V30 2955 C 289.163 0.391702 2.24813 0
M  V30 2956 C 290.141 -0.518421 1.54114 0
M  V30 2957 O 291.325 -0.456299 1.82894 0
M  V30 2958 C 288.452 -0.437382 3.35864 0
M  V30 2959 C 287.498 0.410946 4.24516 0
M  V30 2960 S 288.331 1.83372 5.03125 0
M  V30 2961 C 289.487 1.01264 6.17654 0
M  V30 2962 H 289.72 1.22448 2.70913 0
M  V30 2963 H 287.253 0.742269 1.35387 0
M  V30 2964 H 289.211 -0.909837 4.0029 0
M  V30 2965 H 287.872 -1.24482 2.8838 0
M  V30 2966 H 287.065 -0.224191 5.03501 0
M  V30 2967 H 286.667 0.818014 3.64945 0
M  V30 2968 H 288.959 0.254023 6.77024 0
M  V30 2969 H 289.902 1.77589 6.85469 0
M  V30 2970 H 290.31 0.549532 5.61819 0
M  V30 2971 N 289.708 -1.40897 0.706093 0
M  V30 2972 C 290.658 -2.27987 0.0240746 0
M  V30 2973 C 291.642 -1.42759 -0.742204 0
M  V30 2974 O 292.834 -1.65936 -0.615966 0
M  V30 2975 C 289.963 -3.31186 -0.903907 0
M  V30 2976 C 289.049 -4.2389 -0.133318 0
M  V30 2977 N 289.44 -4.98113 0.878444 0
M  V30 2978 C 287.738 -4.44485 -0.367269 0
M  V30 2979 C 288.439 -5.6604 1.34064 0
M  V30 2980 N 287.415 -5.39522 0.664565 0
M  V30 2981 H 291.217 -2.82812 0.799658 0
M  V30 2982 H 288.731 -1.53235 0.537845 0
M  V30 2983 H 290.728 -3.92413 -1.40775 0
M  V30 2984 H 289.388 -2.77922 -1.67897 0
M  V30 2985 H 290.399 -5.02364 1.25901 0
M  V30 2986 H 287.076 -4.02213 -1.1194 0
M  V30 2987 H 288.466 -6.35524 2.1808 0
M  V30 2988 N 291.186 -0.45159 -1.50991 0
M  V30 2989 C 292.432 0.102439 -2.03142 0
M  V30 2990 C 292.787 1.39138 -1.32884 0
M  V30 2991 O 292.08 1.86493 -0.439438 0
M  V30 2992 C 292.274 0.361728 -3.55565 0
M  V30 2993 C 292.103 -0.900535 -4.40591 0
M  V30 2994 C 290.873 -1.43821 -4.844 0
M  V30 2995 C 293.071 -1.79063 -4.82121 0
M  V30 2996 N 291.053 -2.65153 -5.53685 0
M  V30 2997 C 292.424 -2.84991 -5.50618 0
M  V30 2998 C 294.479 -1.80334 -4.64095 0
M  V30 2999 C 293.182 -3.92155 -6.02998 0
M  V30 3000 C 295.208 -2.86442 -5.17402 0
M  V30 3001 C 294.57 -3.9109 -5.85857 0
M  V30 3002 H 290.669 -0.00204537 -0.781997 0
M  V30 3003 H 293.253 -0.615446 -1.84717 0
M  V30 3004 H 291.424 1.04865 -3.73976 0
M  V30 3005 H 293.156 0.908372 -3.94374 0
M  V30 3006 H 289.911 -0.990117 -4.63135 0
M  V30 3007 H 290.335 -3.26717 -5.92946 0
M  V30 3008 H 294.977 -1.00753 -4.1062 0
M  V30 3009 H 292.695 -4.72565 -6.55521 0
M  V30 3010 H 296.281 -2.88386 -5.05297 0
M  V30 3011 H 295.161 -4.71845 -6.26364 0
M  V30 3012 N 292.664 1.56529 -0.183458 0
M  V30 3013 C 293.91 1.98304 0.452466 0
M  V30 3014 C 294.265 1.06799 1.60037 0
M  V30 3015 O 293.558 0.110049 1.91284 0
M  V30 3016 C 293.752 3.43939 0.971637 0
M  V30 3017 C 293.581 4.49528 -0.124425 0
M  V30 3018 C 292.351 5.01981 -0.578168 0
M  V30 3019 C 294.549 5.05836 -0.929207 0
M  V30 3020 N 292.531 5.91219 -1.65327 0
M  V30 3021 C 293.902 5.91632 -1.85396 0
M  V30 3022 C 295.957 4.88302 -0.972929 0
M  V30 3023 C 294.66 6.61768 -2.81878 0
M  V30 3024 C 296.686 5.59168 -1.92574 0
M  V30 3025 C 296.048 6.44701 -2.83795 0
M  V30 3026 H 292.147 0.770551 0.133324 0
M  V30 3027 H 294.731 1.92581 -0.286473 0
M  V30 3028 H 292.902 3.50184 1.68006 0
M  V30 3029 H 294.634 3.72702 1.5772 0
M  V30 3030 H 291.389 4.73282 -0.173639 0
M  V30 3031 H 291.813 6.40543 -2.19167 0
M  V30 3032 H 296.455 4.21861 -0.28168 0
M  V30 3033 H 294.173 7.27415 -3.51984 0
M  V30 3034 H 297.759 5.47582 -1.96583 0
M  V30 3035 H 296.639 6.98573 -3.56322 0
M  V30 3036 N 294.142 -0.090211 1.57342 0
M  V30 3037 C 295.558 -0.444547 1.53284 0
M  V30 3038 C 295.758 -1.80238 0.900914 0
M  V30 3039 O 294.814 -2.4759 0.495513 0
M  V30 3040 C 296.127 -0.402543 2.97993 0
M  V30 3041 C 297.675 -0.48405 3.09234 0
M  V30 3042 C 298.15 -0.472144 4.5556 0
M  V30 3043 N 299.641 -0.532757 4.60126 0
M  V30 3044 C 300.376 -0.545462 5.708 0
M  V30 3045 N 299.872 -0.514082 6.9089 0
M  V30 3046 N 301.665 -0.59064 5.58988 0
M  V30 3047 H 293.816 0.799121 1.96794 0
M  V30 3048 H 296.079 0.297965 0.899956 0
M  V30 3049 H 295.785 0.528106 3.47712 0
M  V30 3050 H 295.659 -1.21969 3.56936 0
M  V30 3051 H 298.046 -1.40512 2.595 0
M  V30 3052 H 298.127 0.361328 2.53235 0
M  V30 3053 H 297.771 0.445 5.05947 0
M  V30 3054 H 297.701 -1.3348 5.09402 0
M  V30 3055 H 300.192 -0.562006 3.73698 0
M  V30 3056 H 300.505 -0.527195 7.71 0
M  V30 3057 H 298.85 -0.481054 6.93333 0
M  V30 3058 H 302.041 -0.61272 4.64073 0
M  V30 3059 H 302.214 -0.597073 6.45243 0
M  V30 3060 N 295.62 -1.53406 -0.361157 0
M  V30 3061 C 296.583 -1.79479 -1.42548 0
M  V30 3062 C 297.583 -0.665327 -1.4639 0
M  V30 3063 O 298.773 -0.933549 -1.47073 0
M  V30 3064 C 295.905 -1.92087 -2.8163 0
M  V30 3065 H 297.098 -2.74538 -1.20701 0
M  V30 3066 H 294.651 -1.4455 -0.594546 0
M  V30 3067 H 295.386 -0.991099 -3.08784 0
M  V30 3068 H 295.171 -2.74241 -2.80239 0
M  V30 3069 H 296.661 -2.13836 -3.58697 0
M  V30 3070 N 297.098 0.621204 -1.44841 0
M  V30 3071 C 298.008 1.7612 -1.5498 0
M  V30 3072 C 299.024 1.68477 -0.434927 0
M  V30 3073 O 300.2 1.89076 -0.693693 0
M  V30 3074 C 297.265 3.1254 -1.50065 0
M  V30 3075 C 296.326 3.31741 -2.72482 0
M  V30 3076 C 295.559 4.61653 -2.67792 0
M  V30 3077 O 295.782 5.431 -1.74352 0
M  V30 3078 O 294.716 4.83271 -3.58794 0
M  V30 3079 H 298.542 1.70518 -2.51311 0
M  V30 3080 H 296.127 0.783643 -1.27198 0
M  V30 3081 H 298.009 3.93844 -1.49882 0
M  V30 3082 H 296.684 3.18663 -0.568806 0
M  V30 3083 H 295.591 2.50077 -2.7823 0
M  V30 3084 H 296.924 3.30486 -3.64746 0
M  V30 3085 N 298.576 1.31904 0.862503 0
M  V30 3086 C 299.801 1.25135 1.65397 0
M  V30 3087 C 300.226 -0.179 1.87246 0
M  V30 3088 O 299.584 -1.1277 1.4196 0
M  V30 3089 C 299.632 2.00832 2.99498 0
M  V30 3090 O 298.736 1.35075 3.89652 0
M  V30 3091 H 298.077 0.431655 0.504549 0
M  V30 3092 H 300.607 1.74094 1.07483 0
M  V30 3093 H 300.617 2.10709 3.49379 0
M  V30 3094 H 299.292 3.04847 2.82916 0
M  V30 3095 H 297.869 1.33696 3.48109 0
M  V30 3096 N 300.054 -1.07777 1.14986 0
M  V30 3097 C 301.331 -1.7699 0.832695 0
M  V30 3098 C 301.711 -2.001 -0.672561 0
M  V30 3099 O 301.059 -1.61598 -1.6155 0
M  V30 3100 C 301.269 -3.08139 1.63863 0
M  V30 3101 C 302.617 -3.8256 1.84208 0
M  V30 3102 O 303.641 -3.17939 1.60603 0
M  V30 3103 O 302.5 -4.98612 2.23714 0
M  V30 3104 H 299.594 -0.768389 0.305791 0
M  V30 3105 H 302.14 -1.14182 1.25541 0
M  V30 3106 H 300.912 -2.86909 2.6608 0
M  V30 3107 H 300.535 -3.78678 1.21197 0
M  V30 3108 N 301.532 -0.945985 -1.26051 0
M  V30 3109 C 302.442 -0.465633 -2.29933 0
M  V30 3110 C 303.458 0.462761 -1.67733 0
M  V30 3111 O 304.634 0.341118 -1.9849 0
M  V30 3112 C 301.699 0.256994 -3.45746 0
M  V30 3113 C 300.76 -0.708549 -4.23412 0
M  V30 3114 C 299.993 -0.0203135 -5.33696 0
M  V30 3115 O 300.216 1.19571 -5.57726 0
M  V30 3116 O 299.15 -0.701459 -5.97799 0
M  V30 3117 H 302.976 -1.32866 -2.73094 0
M  V30 3118 H 300.561 -0.712071 -1.31339 0
M  V30 3119 H 302.443 0.663852 -4.16138 0
M  V30 3120 H 301.118 1.09533 -3.04605 0
M  V30 3121 H 300.025 -1.16545 -3.55483 0
M  V30 3122 H 301.358 -1.51465 -4.68315 0
M  V30 3123 N 303.011 1.40521 -0.713556 0
M  V30 3124 C 303.974 2.29098 -0.0684347 0
M  V30 3125 C 304.974 1.45268 0.689472 0
M  V30 3126 O 306.164 1.66205 0.521677 0
M  V30 3127 C 303.296 3.28446 0.913024 0
M  V30 3128 H 304.489 2.87645 -0.84855 0
M  V30 3129 H 302.042 1.48809 -0.47809 0
M  V30 3130 H 302.777 2.74913 1.72027 0
M  V30 3131 H 302.562 3.90327 0.372472 0
M  V30 3132 H 304.052 3.94777 1.36165 0
M  V30 3133 N 304.489 0.459591 1.5075 0
M  V30 3134 C 305.905 0.113092 1.59199 0
M  V30 3135 C 306.105 -1.37951 1.46874 0
M  V30 3136 O 305.161 -2.15168 1.32132 0
M  V30 3137 C 306.474 0.653043 2.93523 0
M  V30 3138 C 308.022 0.615449 3.0689 0
M  V30 3139 C 308.497 1.13275 4.43771 0
M  V30 3140 N 309.988 1.09167 4.50152 0
M  V30 3141 C 310.723 1.46256 5.54434 0
M  V30 3142 N 310.219 1.90739 6.66026 0
M  V30 3143 N 312.012 1.37932 5.44914 0
M  V30 3144 H 304.163 1.43049 1.57005 0
M  V30 3145 H 306.426 0.590861 0.741341 0
M  V30 3146 H 306.132 1.69822 3.07983 0
M  V30 3147 H 306.006 0.0902132 3.77092 0
M  V30 3148 H 308.393 -0.420793 2.92084 0
M  V30 3149 H 308.474 1.21495 2.25106 0
M  V30 3150 H 308.118 2.16757 4.59324 0
M  V30 3151 H 308.048 0.509576 5.24129 0
M  V30 3152 H 310.539 0.76528 3.7007 0
M  V30 3153 H 310.852 2.17218 7.41644 0
M  V30 3154 H 309.197 1.94683 6.67176 0
M  V30 3155 H 312.388 1.0303 4.56621 0
M  V30 3156 H 312.561 1.67164 6.26067 0
M  V30 3157 N 305.967 -1.56429 0.191757 0
M  V30 3158 C 307.383 -1.58754 -0.164137 0
M  V30 3159 C 307.583 -1.20782 -1.61288 0
M  V30 3160 O 306.639 -0.928999 -2.34789 0
M  V30 3161 C 307.952 -3.00396 0.135195 0
M  V30 3162 C 309.5 -3.1291 0.0750351 0
M  V30 3163 C 309.975 -4.56679 0.347632 0
M  V30 3164 N 311.466 -4.62252 0.296131 0
M  V30 3165 C 312.201 -5.71379 0.480948 0
M  V30 3166 N 311.697 -6.88986 0.725933 0
M  V30 3167 N 313.49 -5.60563 0.415435 0
M  V30 3168 H 305.641 -1.79393 1.13718 0
M  V30 3169 H 307.904 -0.832414 0.453643 0
M  V30 3170 H 307.61 -3.32726 1.13958 0
M  V30 3171 H 307.484 -3.72963 -0.563773 0
M  V30 3172 H 309.871 -2.80394 -0.919948 0
M  V30 3173 H 309.952 -2.42736 0.807029 0
M  V30 3174 H 309.596 -4.89907 1.33992 0
M  V30 3175 H 309.526 -5.25039 -0.405212 0
M  V30 3176 H 312.017 -3.7773 0.113259 0
M  V30 3177 H 312.33 -7.68046 0.855857 0
M  V30 3178 H 310.675 -6.90801 0.762788 0
M  V30 3179 H 313.866 -4.67561 0.224486 0
M  V30 3180 H 314.039 -6.45551 0.562889 0
M  V30 3181 N 307.445 0.0818655 -1.57387 0
M  V30 3182 C 308.685 0.788375 -1.88584 0
M  V30 3183 C 309.049 1.75248 -0.784351 0
M  V30 3184 O 310.25 2.50334 -0.979105 0
M  V30 3185 C 308.521 1.48654 -3.25018 0
M  V30 3186 S 310.08 2.22951 -3.7794 0
M  V30 3187 H 306.898 0.262383 -0.660815 0
M  V30 3188 H 309.5 0.0448995 -1.95448 0
M  V30 3189 H 308.204 0.770919 -4.03094 0
M  V30 3190 H 307.735 2.26965 -3.21326 0
M  V30 3191 H 309.75 3.49309 -3.52417 0
M  V30 3192 N 308.923 1.53595 0.353017 0
M  V30 3193 C 310.153 1.74058 1.11299 0
M  V30 3194 C 310.561 0.475205 1.83135 0
M  V30 3195 O 309.904 -0.562344 1.74881 0
M  V30 3196 C 309.966 2.85994 2.17825 0
M  V30 3197 C 309.63 4.25923 1.65647 0
M  V30 3198 C 310.627 5.07829 1.11383 0
M  V30 3199 C 308.312 4.72377 1.7078 0
M  V30 3200 C 310.306 6.34285 0.629439 0
M  V30 3201 C 307.993 5.98808 1.21953 0
M  V30 3202 C 308.991 6.79594 0.681265 0
M  V30 3203 O 308.679 8.03651 0.200248 0
M  V30 3204 H 308.411 0.585327 0.338183 0
M  V30 3205 H 310.965 2.01186 0.413927 0
M  V30 3206 H 309.195 2.54368 2.91262 0
M  V30 3207 H 310.884 2.94515 2.79313 0
M  V30 3208 H 311.65 4.73107 1.06746 0
M  V30 3209 H 307.529 4.0956 2.11617 0
M  V30 3210 H 311.073 6.97288 0.208636 0
M  V30 3211 H 306.97 6.33026 1.26287 0
M  V30 3212 H 307.738 8.1788 0.318416 0
M  V30 3213 N 310.401 -0.613514 1.45168 0
M  V30 3214 C 311.349 -1.74572 1.53712 0
M  V30 3215 C 312.343 -1.64426 0.407505 0
M  V30 3216 O 313.549 -1.70291 0.583176 0
M  V30 3217 H 309.924 -0.576641 0.48269 0
M  V30 3218 H 311.895 -1.64492 2.48968 0
M  V30 3219 C 310.644 -3.12943 1.51532 0
M  V30 3220 H 309.967 -3.21407 2.37776 0
M  V30 3221 H 311.407 -3.9201 1.61569 0
M  V30 3222 C 309.866 -3.36053 0.238798 0
M  V30 3223 O 310.396 -3.95837 -0.6838 0
M  V30 3224 N 308.602 -2.9028 0.136359 0
M  V30 3225 H 308.149 -2.41811 0.887999 0
M  V30 3226 H 308.107 -3.06116 -0.716944 0
M  V30 3227 N 311.879 -1.3236 -0.855495 0
M  V30 3228 C 313.156 -1.13491 -1.59309 0
M  V30 3229 C 313.536 0.30503 -2.08885 0
M  V30 3230 O 312.884 1.30151 -1.87811 0
M  V30 3231 C 313.094 -2.16176 -2.73987 0
M  V30 3232 C 314.442 -2.49463 -3.43589 0
M  V30 3233 O 315.466 -2.14715 -2.84211 0
M  V30 3234 O 314.325 -3.09027 -4.50738 0
M  V30 3235 H 311.419 -0.437887 -0.701559 0
M  V30 3236 H 313.965 -1.43887 -0.899696 0
M  V30 3237 H 312.737 -3.1297 -2.34873 0
M  V30 3238 H 312.36 -1.86769 -3.51003 0
M  V30 3239 N 313.357 1.07166 -1.15556 0
M  V30 3240 C 314.768 1.6127 -0.940693 0
M  V30 3241 C 315.119 1.89251 0.517551 0
M  V30 3242 O 314.244 1.65937 1.38903 0
M  V30 3243 C 314.839 2.92993 -1.7012 0
M  V30 3244 C 313.398 3.43832 -1.53156 0
M  V30 3245 C 312.545 2.1786 -1.71558 0
M  V30 3246 H 315.496 0.90229 -1.30554 0
M  V30 3247 H 315.517 3.62007 -1.17181 0
M  V30 3248 H 315.029 2.72596 -2.76248 0
M  V30 3249 H 313.13 3.69307 -0.494294 0
M  V30 3250 H 313.243 4.19747 -2.30975 0
M  V30 3251 H 311.607 2.2765 -1.14225 0
M  V30 3252 H 312.39 1.99956 -2.79056 0
M  V30 3253 N 314.835 0.952656 1.25548 0
M  V30 3254 C 315.782 0.47008 2.25962 0
M  V30 3255 C 316.752 -0.476384 1.59122 0
M  V30 3256 O 317.937 -0.39007 1.8677 0
M  V30 3257 C 315.077 -0.247881 3.44209 0
M  V30 3258 C 314.19 0.735591 4.25691 0
M  V30 3259 C 313.325 -0.0047306 5.312 0
M  V30 3260 C 312.364 0.969805 6.04368 0
M  V30 3261 N 311.501 0.260486 7.01617 0
M  V30 3262 H 316.341 1.33126 2.66611 0
M  V30 3263 H 313.878 0.66765 1.31076 0
M  V30 3264 H 315.836 -0.680695 4.1161 0
M  V30 3265 H 314.466 -1.07312 3.0444 0
M  V30 3266 H 313.518 1.28689 3.57971 0
M  V30 3267 H 314.83 1.47934 4.76358 0
M  V30 3268 H 313.984 -0.496275 6.04667 0
M  V30 3269 H 312.723 -0.781282 4.81401 0
M  V30 3270 H 311.728 1.47237 5.29718 0
M  V30 3271 H 312.953 1.74655 6.56256 0
M  V30 3272 H 310.899 -0.497364 6.54112 0
M  V30 3273 H 310.816 0.943362 7.50091 0
M  V30 3274 H 312.084 -0.209587 7.79218 0
M  V30 3275 N 316.313 -1.40141 0.720998 0
M  V30 3276 C 317.553 -2.02644 0.267335 0
M  V30 3277 C 317.917 -1.55948 -1.12001 0
M  V30 3278 O 319.118 -2.10552 -1.67097 0
M  V30 3279 C 317.389 -3.55679 0.350281 0
M  V30 3280 S 318.948 -4.38793 -0.0256004 0
M  V30 3281 H 315.766 -0.703105 0.105664 0
M  V30 3282 H 318.368 -1.71175 0.944416 0
M  V30 3283 H 317.072 -3.87157 1.36153 0
M  V30 3284 H 316.603 -3.91883 -0.345096 0
M  V30 3285 H 318.618 -4.803 -1.24604 0
M  V30 3286 N 317.792 -0.46758 -1.50504 0
M  V30 3287 C 319.032 0.0874114 -2.04213 0
M  V30 3288 C 319.396 1.37301 -1.34211 0
M  V30 3289 O 320.597 2.01015 -1.78456 0
M  V30 3290 C 318.868 0.270571 -3.56374 0
M  V30 3291 S 320.427 0.784623 -4.31728 0
M  V30 3292 H 317.245 0.0176153 -0.710782 0
M  V30 3293 H 319.847 -0.633915 -1.84937 0
M  V30 3294 H 318.551 -0.670942 -4.04878 0
M  V30 3295 H 318.082 1.01811 -3.79997 0
M  V30 3296 H 320.097 2.05849 -4.51487 0
M  V30 3297 N 319.27 1.56325 -0.20005 0
M  V30 3298 C 320.547 1.89484 0.48529 0
M  V30 3299 C 320.927 1.1143 1.79294 0
M  V30 3300 O 320.275 0.216919 2.27468 0
M  V30 3301 C 320.485 3.41923 0.699243 0
M  V30 3302 C 321.833 4.12256 1.01638 0
M  V30 3303 O 322.857 3.47402 0.786792 0
M  V30 3304 O 321.716 5.26887 1.45095 0
M  V30 3305 H 318.81 0.787144 0.253639 0
M  V30 3306 H 321.356 1.67985 -0.240633 0
M  V30 3307 H 320.128 3.90658 -0.224008 0
M  V30 3308 H 319.751 3.69131 1.47744 0
M  V30 3309 N 320.748 -0.0735177 1.57428 0
M  V30 3310 C 321.995 -0.772999 1.87166 0
M  V30 3311 C 322.323 -1.77665 0.791551 0
M  V30 3312 O 321.578 -1.94541 -0.212636 0
M  V30 3313 C 321.877 -1.51799 3.23561 0
M  V30 3314 C 321.543 -0.654484 4.46125 0
M  V30 3315 C 320.205 -0.416511 4.79394 0
M  V30 3316 C 322.557 -0.0555862 5.2117 0
M  V30 3317 C 319.885 0.429869 5.85123 0
M  V30 3318 C 322.237 0.778239 6.27795 0
M  V30 3319 C 320.901 1.0261 6.59566 0
M  V30 3320 H 320.171 -0.282861 0.684888 0
M  V30 3321 H 322.818 -0.0338272 1.9147 0
M  V30 3322 H 321.123 -2.32932 3.1504 0
M  V30 3323 H 322.82 -2.06397 3.43804 0
M  V30 3324 H 319.41 -0.850091 4.20085 0
M  V30 3325 H 323.594 -0.226558 4.95783 0
M  V30 3326 H 318.85 0.630665 6.08139 0
M  V30 3327 H 323.024 1.24906 6.85107 0
M  V30 3328 H 320.651 1.68371 7.4132 0
M  V30 3329 N 322.226 -1.5378 -0.344866 0
M  V30 3330 C 323.472 -1.71216 -1.08687 0
M  V30 3331 C 323.805 -0.473281 -1.88345 0
M  V30 3332 O 323.08 0.52968 -1.87149 0
M  V30 3333 C 323.363 -2.97486 -2.02914 0
M  V30 3334 C 323.216 -4.31579 -1.26727 0
M  V30 3335 C 324.535 -3.19422 -3.0275 0
M  V30 3336 H 321.654 -0.62301 -0.393735 0
M  V30 3337 H 324.296 -1.8645 -0.365563 0
M  V30 3338 H 322.446 -2.84629 -2.64421 0
M  V30 3339 H 324.118 -4.56284 -0.67845 0
M  V30 3340 H 322.361 -4.30049 -0.569273 0
M  V30 3341 H 323.032 -5.16106 -1.95803 0
M  V30 3342 H 325.508 -3.316 -2.51357 0
M  V30 3343 H 324.384 -4.09169 -3.65885 0
M  V30 3344 H 324.645 -2.35656 -3.74057 0
M  V30 3345 N 323.704 0.605807 -1.45491 0
M  V30 3346 C 324.932 1.39136 -1.5313 0
M  V30 3347 C 325.347 1.88082 -0.164507 0
M  V30 3348 O 324.704 1.62316 0.834247 0
M  V30 3349 C 324.755 2.59463 -2.51716 0
M  V30 3350 O 324.476 2.12551 -3.83084 0
M  V30 3351 C 325.977 3.52301 -2.6907 0
M  V30 3352 H 323.197 0.425849 -0.51855 0
M  V30 3353 H 325.741 0.73865 -1.90694 0
M  V30 3354 H 323.896 3.20772 -2.17219 0
M  V30 3355 H 324.31 2.90744 -4.36541 0
M  V30 3356 H 325.784 4.33271 -3.42024 0
M  V30 3357 H 326.261 4.02757 -1.75167 0
M  V30 3358 H 326.867 2.96845 -3.04571 0
M  V30 3359 N 325.182 1.32811 0.848464 0
M  V30 3360 C 326.13 1.22231 1.97895 0
M  V30 3361 C 327.124 0.125749 1.68933 0
M  V30 3362 O 328.33 0.289083 1.77663 0
M  V30 3363 H 324.705 0.379058 0.649476 0
M  V30 3364 H 326.676 2.17828 2.03945 0
M  V30 3365 C 325.425 0.968572 3.33937 0
M  V30 3366 H 324.748 1.80458 3.56756 0
M  V30 3367 H 326.188 0.934808 4.13567 0
M  V30 3368 C 324.647 -0.328628 3.35293 0
M  V30 3369 O 325.177 -1.33848 3.78745 0
M  V30 3370 N 323.383 -0.352788 2.88451 0
M  V30 3371 H 322.93 0.469541 2.53285 0
M  V30 3372 H 322.888 -1.22057 2.89741 0
M  V30 3373 N 326.66 -1.06551 1.16123 0
M  V30 3374 C 328.076 -1.3142 0.905585 0
M  V30 3375 C 328.276 -1.96571 -0.442964 0
M  V30 3376 O 327.332 -2.23068 -1.18308 0
M  V30 3377 C 328.645 -2.19741 2.05267 0
M  V30 3378 C 330.193 -2.33165 2.08813 0
M  V30 3379 C 330.668 -3.24838 3.22868 0
M  V30 3380 N 332.159 -3.32421 3.22568 0
M  V30 3381 C 332.894 -4.0344 4.0746 0
M  V30 3382 N 332.39 -4.77003 5.02434 0
M  V30 3383 N 334.183 -3.99464 3.95456 0
M  V30 3384 H 326.334 -0.626548 2.02949 0
M  V30 3385 H 328.597 -0.338777 0.8854 0
M  V30 3386 H 328.303 -1.79142 3.02657 0
M  V30 3387 H 328.177 -3.20313 1.99198 0
M  V30 3388 H 330.564 -2.73013 1.12018 0
M  V30 3389 H 330.645 -1.3227 2.18948 0
M  V30 3390 H 330.289 -2.85708 4.19921 0
M  V30 3391 H 330.219 -4.25707 3.0997 0
M  V30 3392 H 332.71 -2.79994 2.53795 0
M  V30 3393 H 333.023 -5.28712 5.63634 0
M  V30 3394 H 331.368 -4.75992 5.06415 0
M  V30 3395 H 334.559 -3.4111 3.20564 0
M  V30 3396 H 334.732 -4.54544 4.61837 0
M  V30 3397 N 328.138 -0.959301 -1.25041 0
M  V30 3398 C 329.101 -0.487677 -2.23952 0
M  V30 3399 C 330.101 0.41119 -1.55454 0
M  V30 3400 O 331.291 0.207825 -1.72956 0
M  V30 3401 C 328.423 0.294807 -3.39623 0
M  V30 3402 H 329.616 -1.36198 -2.67189 0
M  V30 3403 H 327.169 -0.743042 -1.37508 0
M  V30 3404 H 327.904 1.18658 -3.01813 0
M  V30 3405 H 327.689 -0.35012 -3.90534 0
M  V30 3406 H 329.179 0.614089 -4.1306 0
M  V30 3407 N 329.616 1.39756 -0.72842 0
M  V30 3408 C 330.846 2.04651 -0.283117 0
M  V30 3409 C 331.254 1.5502 1.08469 0
M  V30 3410 O 330.597 0.707343 1.69536 0
M  V30 3411 C 330.659 3.58947 -0.199309 0
M  V30 3412 C 330.323 4.31525 -1.5045 0
M  V30 3413 C 331.32 4.5861 -2.44894 0
M  V30 3414 C 329.005 4.70195 -1.76698 0
M  V30 3415 C 330.999 5.23366 -3.63822 0
M  V30 3416 C 328.686 5.3468 -2.95906 0
M  V30 3417 C 329.684 5.61198 -3.89289 0
M  V30 3418 O 329.372 6.24347 -5.06404 0
M  V30 3419 H 329.104 0.664777 -0.122666 0
M  V30 3420 H 331.658 1.79913 -0.990987 0
M  V30 3421 H 329.888 3.82556 0.56461 0
M  V30 3422 H 331.577 4.0534 0.213125 0
M  V30 3423 H 332.343 4.29187 -2.25883 0
M  V30 3424 H 328.222 4.48916 -1.04859 0
M  V30 3425 H 331.766 5.4398 -4.36728 0
M  V30 3426 H 327.663 5.63524 -3.14819 0
M  V30 3427 H 328.431 6.42842 -5.06652 0
M  V30 3428 N 331.094 0.475555 1.50254 0
M  V30 3429 C 332.057 -0.305016 2.27161 0
M  V30 3430 C 333.057 -0.916519 1.32123 0
M  V30 3431 O 334.247 -0.785003 1.5551 0
M  V30 3432 C 331.379 -1.43496 3.09227 0
M  V30 3433 H 332.572 0.369511 2.97615 0
M  V30 3434 H 330.125 0.229747 1.54602 0
M  V30 3435 H 330.86 -2.14441 2.43281 0
M  V30 3436 H 330.645 -1.00223 3.79075 0
M  V30 3437 H 332.135 -1.98548 3.67381 0
M  V30 3438 N 332.573 -1.56217 0.208337 0
M  V30 3439 C 333.822 -1.97124 -0.427204 0
M  V30 3440 C 334.135 -1.09859 -1.61835 0
M  V30 3441 O 335.341 -1.40606 -2.32255 0
M  V30 3442 C 333.797 -3.50633 -0.811442 0
M  V30 3443 C 333.405 -4.46582 0.35615 0
M  V30 3444 C 335.149 -4.00282 -1.41332 0
M  V30 3445 C 333.056 -5.91379 -0.0497852 0
M  V30 3446 H 331.986 -0.736086 -0.163381 0
M  V30 3447 H 334.637 -1.8099 0.302456 0
M  V30 3448 H 333.019 -3.62319 -1.59815 0
M  V30 3449 H 334.193 -4.46636 1.1337 0
M  V30 3450 H 332.508 -4.07202 0.870396 0
M  V30 3451 H 335.105 -5.0595 -1.72972 0
M  V30 3452 H 335.448 -3.45359 -2.32449 0
M  V30 3453 H 335.981 -3.91764 -0.690323 0
M  V30 3454 H 332.72 -6.50255 0.827529 0
M  V30 3455 H 332.24 -5.94549 -0.791926 0
M  V30 3456 H 333.919 -6.45209 -0.481042 0
M  V30 3457 N 334.051 0.0651679 -1.57465 0
M  V30 3458 C 335.014 1.06117 -2.03155 0
M  V30 3459 C 336.014 1.31204 -0.929632 0
M  V30 3460 O 337.204 1.26813 -1.19432 0
M  V30 3461 C 334.336 2.4032 -2.41783 0
M  V30 3462 H 335.529 0.667231 -2.92383 0
M  V30 3463 H 333.082 0.311075 -1.53173 0
M  V30 3464 H 333.817 2.84532 -1.55601 0
M  V30 3465 H 333.602 2.23451 -3.22199 0
M  V30 3466 H 335.092 3.11898 -2.77685 0
M  V30 3467 N 335.529 1.53961 0.336706 0
M  V30 3468 C 336.754 1.75797 1.10046 0
M  V30 3469 C 337.179 0.498985 1.81361 0
M  V30 3470 O 336.537 -0.548769 1.72795 0
M  V30 3471 C 336.585 2.94257 2.08436 0
M  V30 3472 O 335.689 2.64883 3.16087 0
M  V30 3473 H 335.03 0.582936 0.317934 0
M  V30 3474 H 337.56 2.00945 0.38501 0
M  V30 3475 H 337.57 3.21237 2.51537 0
M  V30 3476 H 336.245 3.85564 1.55927 0
M  V30 3477 H 334.822 2.48812 2.77753 0
M  V30 3478 N 337.007 -0.598083 1.45811 0
M  V30 3479 C 338.232 -1.3881 1.54099 0
M  V30 3480 C 338.657 -1.8726 0.177578 0
M  V30 3481 O 338.015 -1.6069 -0.839541 0
M  V30 3482 C 338.063 -2.56217 2.53743 0
M  V30 3483 O 337.167 -3.5716 2.06182 0
M  V30 3484 H 336.508 -0.414024 0.519115 0
M  V30 3485 H 339.038 -0.726971 1.91249 0
M  V30 3486 H 339.048 -3.03337 2.72856 0
M  V30 3487 H 337.723 -2.20303 3.5276 0
M  V30 3488 H 336.3 -3.16624 1.96987 0
M  V30 3489 N 338.485 -1.33259 -0.841409 0
M  V30 3490 C 339.731 -1.24757 -1.59886 0
M  V30 3491 C 340.064 0.186913 -1.93298 0
M  V30 3492 O 339.339 1.12757 -1.5848 0
M  V30 3493 C 339.622 -2.12036 -2.91055 0
M  V30 3494 C 339.475 -3.63929 -2.6434 0
M  V30 3495 C 340.794 -1.9916 -3.92458 0
M  V30 3496 H 337.913 -0.454542 -0.580138 0
M  V30 3497 H 340.555 -1.63335 -0.970647 0
M  V30 3498 H 338.705 -1.79265 -3.44669 0
M  V30 3499 H 340.377 -4.06978 -2.17178 0
M  V30 3500 H 338.62 -3.85935 -1.98082 0
M  V30 3501 H 339.291 -4.20341 -3.57796 0
M  V30 3502 H 341.767 -2.27895 -3.48143 0
M  V30 3503 H 340.643 -2.62484 -4.82072 0
M  V30 3504 H 340.904 -0.963082 -4.31482 0
M  V30 3505 N 339.963 1.05934 -1.16686 0
M  V30 3506 C 341.209 1.79065 -0.95203 0
M  V30 3507 C 341.542 1.87147 0.518629 0
M  V30 3508 O 340.817 1.36574 1.38484 0
M  V30 3509 C 341.1 3.23359 -1.58464 0
M  V30 3510 C 340.953 3.23336 -3.12689 0
M  V30 3511 C 342.272 4.21004 -1.28232 0
M  V30 3512 H 339.391 0.65005 -0.34728 0
M  V30 3513 H 342.033 1.23868 -1.44072 0
M  V30 3514 H 340.183 3.70493 -1.16908 0
M  V30 3515 H 341.855 2.84336 -3.6325 0
M  V30 3516 H 340.098 2.61886 -3.4583 0
M  V30 3517 H 340.769 4.25144 -3.52075 0
M  V30 3518 H 343.245 3.8233 -1.64203 0
M  V30 3519 H 342.121 5.20225 -1.75092 0
M  V30 3520 H 342.382 4.41639 -0.201791 0
M  V30 3521 N 341.441 0.965919 1.2453 0
M  V30 3522 C 342.666 0.643971 1.97149 0
M  V30 3523 C 343.091 -0.779487 1.71189 0
M  V30 3524 O 342.449 -1.5288 0.974553 0
M  V30 3525 C 342.497 0.922557 3.48599 0
M  V30 3526 O 341.601 0.00707672 4.12399 0
M  V30 3527 H 340.942 0.243647 0.617683 0
M  V30 3528 H 343.472 1.29558 1.58353 0
M  V30 3529 H 343.482 0.853373 3.98976 0
M  V30 3530 H 342.157 1.95996 3.66822 0
M  V30 3531 H 340.734 0.12943 3.72675 0
M  V30 3532 N 342.919 -1.39368 0.735821 0
M  V30 3533 C 344.166 -2.00497 0.284123 0
M  V30 3534 C 344.494 -1.58387 -1.12889 0
M  V30 3535 O 343.749 -0.804359 -1.78406 0
M  V30 3536 C 344.048 -3.5583 0.334651 0
M  V30 3537 C 343.714 -4.17593 1.7008 0
M  V30 3538 C 342.376 -4.34176 2.07472 0
M  V30 3539 C 344.728 -4.51848 2.59775 0
M  V30 3540 C 342.056 -4.82304 3.34065 0
M  V30 3541 C 344.408 -5.01384 3.85741 0
M  V30 3542 C 343.072 -5.16175 4.23225 0
M  V30 3543 H 342.342 -0.73367 0.103968 0
M  V30 3544 H 344.989 -1.66683 0.942825 0
M  V30 3545 H 343.294 -3.89674 -0.407625 0
M  V30 3546 H 344.991 -4.00986 -0.0329927 0
M  V30 3547 H 341.581 -4.05087 1.40008 0
M  V30 3548 H 345.765 -4.38653 2.32157 0
M  V30 3549 H 341.021 -4.91941 3.63049 0
M  V30 3550 H 345.195 -5.26863 4.55399 0
M  V30 3551 H 342.822 -5.5323 5.21384 0
M  V30 3552 N 344.397 -0.483516 -1.5 0
M  V30 3553 C 345.627 0.0643896 -2.065 0
M  V30 3554 C 346.035 1.32949 -1.34615 0
M  V30 3555 O 345.378 1.79003 -0.412756 0
M  V30 3556 C 345.44 0.405983 -3.572 0
M  V30 3557 C 345.104 -0.758875 -4.50655 0
M  V30 3558 C 346.101 -1.64445 -4.93208 0
M  V30 3559 C 343.786 -0.952725 -4.93182 0
M  V30 3560 C 345.78 -2.70818 -5.77006 0
M  V30 3561 C 343.467 -2.01966 -5.76761 0
M  V30 3562 C 344.465 -2.89574 -6.18576 0
M  V30 3563 O 344.153 -3.94429 -7.00486 0
M  V30 3564 H 343.885 -0.00934786 -0.675935 0
M  V30 3565 H 346.439 -0.674959 -1.93993 0
M  V30 3566 H 344.669 1.19869 -3.67652 0
M  V30 3567 H 346.358 0.890433 -3.96013 0
M  V30 3568 H 347.124 -1.50643 -4.61012 0
M  V30 3569 H 343.003 -0.280247 -4.60147 0
M  V30 3570 H 346.547 -3.3923 -6.09565 0
M  V30 3571 H 342.444 -2.1577 -6.0837 0
M  V30 3572 H 343.212 -3.91568 -7.1876 0
M  V30 3573 N 345.875 1.56104 -0.216619 0
M  V30 3574 C 347.121 1.98466 0.417033 0
M  V30 3575 C 347.454 1.10403 1.59765 0
M  V30 3576 O 346.729 0.160632 1.93836 0
M  V30 3577 C 347.012 3.49769 0.85637 0
M  V30 3578 C 346.865 4.48606 -0.327546 0
M  V30 3579 C 348.184 4.05339 1.7143 0
M  V30 3580 H 345.303 0.721551 0.150112 0
M  V30 3581 H 347.945 1.87423 -0.311864 0
M  V30 3582 H 346.095 3.5931 1.47745 0
M  V30 3583 H 347.767 4.5108 -0.965618 0
M  V30 3584 H 346.01 4.22682 -0.975805 0
M  V30 3585 H 346.681 5.51995 0.0227149 0
M  V30 3586 H 349.157 3.98712 1.19031 0
M  V30 3587 H 348.033 5.11533 1.99061 0
M  V30 3588 H 348.294 3.51918 2.67593 0
M  V30 3589 N 347.353 -0.0568162 1.57498 0
M  V30 3590 C 348.764 -0.606858 1.76562 0
M  V30 3591 C 349.115 -1.77114 0.844094 0
M  V30 3592 O 348.24 -2.16376 0.0318911 0
M  V30 3593 C 348.835 -1.10766 3.20182 0
M  V30 3594 C 347.394 -1.60344 3.40539 0
M  V30 3595 C 346.541 -0.529311 2.72201 0
M  V30 3596 H 349.492 0.169393 1.57793 0
M  V30 3597 H 349.513 -1.97602 3.25167 0
M  V30 3598 H 349.025 -0.26006 3.87228 0
M  V30 3599 H 347.126 -2.47379 2.78629 0
M  V30 3600 H 347.239 -1.67006 4.4905 0
M  V30 3601 H 345.603 -0.977893 2.35179 0
M  V30 3602 H 346.386 0.308352 3.41912 0
M  V30 3603 N 348.832 -1.54138 -0.328536 0
M  V30 3604 C 349.762 -1.86167 -1.40939 0
M  V30 3605 C 350.743 -0.718044 -1.54202 0
M  V30 3606 O 351.928 -0.971328 -1.68163 0
M  V30 3607 C 349.058 -2.08461 -2.77779 0
M  V30 3608 C 348.012 -3.24299 -2.7931 0
M  V30 3609 C 347.338 -3.31955 -4.19178 0
M  V30 3610 C 348.638 -4.62065 -2.43502 0
M  V30 3611 H 350.332 -2.76689 -1.14383 0
M  V30 3612 H 347.878 -1.33132 -0.548806 0
M  V30 3613 H 349.831 -2.29453 -3.53454 0
M  V30 3614 H 348.555 -1.14684 -3.05802 0
M  V30 3615 H 347.214 -3.03187 -2.0609 0
M  V30 3616 H 346.862 -2.35745 -4.44335 0
M  V30 3617 H 346.562 -4.09805 -4.2111 0
M  V30 3618 H 348.086 -3.55175 -4.96672 0
M  V30 3619 H 349.5 -4.8297 -3.08889 0
M  V30 3620 H 347.897 -5.42429 -2.56693 0
M  V30 3621 H 348.967 -4.64652 -1.38659 0
M  V30 3622 N 350.31 0.590341 -1.46126 0
M  V30 3623 C 351.55 1.35995 -1.52593 0
M  V30 3624 C 351.914 1.91243 -0.170368 0
M  V30 3625 O 353.115 2.68576 -0.109775 0
M  V30 3626 C 351.386 2.46465 -2.58823 0
M  V30 3627 S 352.945 3.33953 -2.84641 0
M  V30 3628 H 349.763 0.463425 -0.53922 0
M  V30 3629 H 352.365 0.67944 -1.83314 0
M  V30 3630 H 351.069 2.04256 -3.5596 0
M  V30 3631 H 350.6 3.19297 -2.2981 0
M  V30 3632 H 352.615 4.45094 -2.19331 0
M  V30 3633 N 351.788 1.33704 0.83433 0
M  V30 3634 C 353.037 1.24763 1.58484 0
M  V30 3635 C 353.35 -0.183775 1.94735 0
M  V30 3636 O 354.556 -0.395234 2.68608 0
M  V30 3637 C 353.012 2.18638 2.85876 0
M  V30 3638 C 352.62 3.66974 2.56971 0
M  V30 3639 C 354.364 2.18581 3.63899 0
M  V30 3640 C 352.271 4.5275 3.80488 0
M  V30 3641 H 351.201 0.463425 0.594772 0
M  V30 3642 H 353.852 1.58797 0.919551 0
M  V30 3643 H 352.234 1.77542 3.5397 0
M  V30 3644 H 353.408 4.16538 1.9706 0
M  V30 3645 H 351.723 3.69366 1.92244 0
M  V30 3646 H 354.32 2.79894 4.55591 0
M  V30 3647 H 354.663 1.18207 3.99165 0
M  V30 3648 H 355.196 2.58062 3.02735 0
M  V30 3649 H 351.935 5.54017 3.5035 0
M  V30 3650 H 351.455 4.07927 4.39722 0
M  V30 3651 H 353.134 4.66784 4.4802 0
M  V30 3652 N 353.266 -1.05314 1.17247 0
M  V30 3653 C 354.199 -2.12512 0.831507 0
M  V30 3654 C 355.177 -1.61351 -0.201168 0
M  V30 3655 O 356.361 -1.88317 -0.0829831 0
M  V30 3656 C 353.488 -3.37848 0.24015 0
M  V30 3657 C 352.534 -4.07832 1.24801 0
M  V30 3658 S 353.367 -4.56537 2.79882 0
M  V30 3659 C 354.523 -5.85122 2.22223 0
M  V30 3660 H 354.756 -2.41106 1.7394 0
M  V30 3661 H 352.289 -1.17896 0.996988 0
M  V30 3662 H 354.247 -4.10391 -0.0945588 0
M  V30 3663 H 352.908 -3.07392 -0.645668 0
M  V30 3664 H 352.101 -4.97883 0.78287 0
M  V30 3665 H 351.703 -3.41348 1.52831 0
M  V30 3666 H 353.995 -6.58408 1.59703 0
M  V30 3667 H 354.938 -6.36381 3.10523 0
M  V30 3668 H 355.346 -5.39626 1.65722 0
M  V30 3669 N 354.744 -0.972509 -1.24016 0
M  V30 3670 C 355.707 -0.511403 -2.23422 0
M  V30 3671 C 356.707 0.394679 -1.55881 0
M  V30 3672 O 357.897 0.189469 -1.73167 0
M  V30 3673 C 355.029 0.258769 -3.39916 0
M  V30 3674 H 356.222 -1.39024 -2.6573 0
M  V30 3675 H 353.775 -0.757585 -1.36713 0
M  V30 3676 H 354.51 1.1545 -3.03054 0
M  V30 3677 H 354.295 -0.391522 -3.9014 0
M  V30 3678 H 355.785 0.570244 -4.13688 0
M  V30 3679 N 356.222 1.38976 -0.743202 0
M  V30 3680 C 357.469 2.00343 -0.294752 0
M  V30 3681 C 357.797 1.58983 1.12047 0
M  V30 3682 O 357.052 0.813809 1.77977 0
M  V30 3683 C 357.351 3.55647 -0.353517 0
M  V30 3684 C 357.017 4.16685 -1.72292 0
M  V30 3685 C 355.679 4.3307 -2.09771 0
M  V30 3686 C 358.031 4.50464 -2.62168 0
M  V30 3687 C 355.359 4.80526 -3.36618 0
M  V30 3688 C 357.711 4.99332 -3.88395 0
M  V30 3689 C 356.375 5.13924 -4.25956 0
M  V30 3690 H 355.645 0.733108 -0.107857 0
M  V30 3691 H 358.292 1.6618 -0.951651 0
M  V30 3692 H 356.597 3.89884 0.386954 0
M  V30 3693 H 358.294 4.00998 0.0117269 0
M  V30 3694 H 354.884 4.04339 -1.42155 0
M  V30 3695 H 359.068 4.37416 -2.3448 0
M  V30 3696 H 354.324 4.90008 -3.65653 0
M  V30 3697 H 358.498 5.2444 -4.58187 0
M  V30 3698 H 356.125 5.50457 -5.2431 0
M  V30 3699 N 357.7 0.491464 1.49741 0
M  V30 3700 C 358.946 -0.0565092 2.02721 0
M  V30 3701 C 359.279 -1.37522 1.37118 0
M  V30 3702 O 358.554 -1.87866 0.503645 0
M  V30 3703 C 358.837 -0.219051 3.59433 0
M  V30 3704 C 358.69 1.12211 4.35579 0
M  V30 3705 C 360.009 -0.964157 4.29409 0
M  V30 3706 H 357.128 -0.0190627 0.736753 0
M  V30 3707 H 359.77 0.641021 1.7886 0
M  V30 3708 H 357.92 -0.813165 3.79895 0
M  V30 3709 H 359.592 1.75437 4.26637 0
M  V30 3710 H 357.835 1.71377 3.98513 0
M  V30 3711 H 358.506 0.961794 5.43556 0
M  V30 3712 H 360.982 -0.460378 4.13545 0
M  V30 3713 H 359.858 -1.04671 5.38828 0
M  V30 3714 H 360.119 -2.00563 3.93988 0
M  V30 3715 N 359.178 -1.55987 0.224894 0
M  V30 3716 C 360.408 -2.02489 -0.41007 0
M  V30 3717 C 360.816 -1.10391 -1.53657 0
M  V30 3718 O 360.159 -0.106458 -1.83391 0
M  V30 3719 C 360.221 -3.45319 -0.999757 0
M  V30 3720 C 359.885 -4.56999 -0.00827976 0
M  V30 3721 C 360.882 -5.13812 0.793314 0
M  V30 3722 C 358.567 -5.02176 0.111442 0
M  V30 3723 C 360.561 -6.14276 1.7013 0
M  V30 3724 C 358.248 -6.02477 1.02296 0
M  V30 3725 C 359.246 -6.58403 1.81643 0
M  V30 3726 O 358.934 -7.56751 2.71262 0
M  V30 3727 H 358.666 -0.667915 -0.104235 0
M  V30 3728 H 361.22 -2.0257 0.339782 0
M  V30 3729 H 359.45 -3.42318 -1.79876 0
M  V30 3730 H 361.139 -3.7545 -1.54248 0
M  V30 3731 H 361.905 -4.79756 0.711288 0
M  V30 3732 H 357.784 -4.58323 -0.49605 0
M  V30 3733 H 361.328 -6.57854 2.32107 0
M  V30 3734 H 357.225 -6.35954 1.10599 0
M  V30 3735 H 357.993 -7.74286 2.65375 0
M  V30 3736 N 360.656 0.0484629 -1.57525 0
M  V30 3737 C 361.586 1.0549 -2.08313 0
M  V30 3738 C 362.567 1.38929 -0.981463 0
M  V30 3739 O 363.752 1.48151 -1.25558 0
M  V30 3740 C 360.882 2.36162 -2.54646 0
M  V30 3741 C 359.836 2.17016 -3.68901 0
M  V30 3742 C 359.162 3.53278 -4.01371 0
M  V30 3743 C 360.462 1.57219 -4.98076 0
M  V30 3744 H 362.156 0.632195 -2.92649 0
M  V30 3745 H 359.702 0.302654 -1.40784 0
M  V30 3746 H 361.655 3.06882 -2.88793 0
M  V30 3747 H 360.379 2.80456 -1.67368 0
M  V30 3748 H 359.038 1.48733 -3.35073 0
M  V30 3749 H 358.686 3.95185 -3.11188 0
M  V30 3750 H 358.386 3.41299 -4.78318 0
M  V30 3751 H 359.91 4.25391 -4.38035 0
M  V30 3752 H 361.324 2.17832 -5.30304 0
M  V30 3753 H 359.721 1.55871 -5.79503 0
M  V30 3754 H 360.791 0.535956 -4.81929 0
M  V30 3755 N 362.134 1.5431 0.320358 0
M  V30 3756 C 363.55 1.45091 0.664889 0
M  V30 3757 C 363.75 0.626382 1.91517 0
M  V30 3758 O 362.806 0.126443 2.52183 0
M  V30 3759 C 364.119 2.88848 0.83591 0
M  V30 3760 C 365.667 2.9877 0.933046 0
M  V30 3761 C 366.142 4.43683 1.13621 0
M  V30 3762 N 367.633 4.47309 1.20287 0
M  V30 3763 C 368.368 5.56595 1.37801 0
M  V30 3764 N 367.864 6.75844 1.52338 0
M  V30 3765 N 369.657 5.44248 1.40535 0
M  V30 3766 H 361.808 2.06398 -0.501374 0
M  V30 3767 H 364.071 0.933963 -0.162534 0
M  V30 3768 H 363.777 3.51698 -0.0116092 0
M  V30 3769 H 363.651 3.35148 1.73078 0
M  V30 3770 H 366.038 2.36045 1.77107 0
M  V30 3771 H 366.119 2.55796 0.0145782 0
M  V30 3772 H 365.763 5.06995 0.303032 0
M  V30 3773 H 365.693 4.84269 2.0686 0
M  V30 3774 H 368.184 3.61388 1.10485 0
M  V30 3775 H 368.497 7.54892 1.65403 0
M  V30 3776 H 366.842 6.78746 1.4943 0
M  V30 3777 H 370.033 4.50038 1.28777 0
M  V30 3778 H 370.206 6.29473 1.53842 0
M  V30 3779 N 363.613 -0.582584 1.46437 0
M  V30 3780 C 364.859 -1.34278 1.51978 0
M  V30 3781 C 365.192 -1.93446 0.170973 0
M  V30 3782 O 364.467 -1.76481 -0.817608 0
M  V30 3783 C 364.75 -2.47203 2.61845 0
M  V30 3784 C 364.603 -1.93069 4.06257 0
M  V30 3785 C 365.922 -3.49247 2.67795 0
M  V30 3786 H 363.041 -0.486876 0.553282 0
M  V30 3787 H 365.683 -0.654437 1.78374 0
M  V30 3788 H 363.833 -3.0592 2.39469 0
M  V30 3789 H 365.505 -1.38808 4.3992 0
M  V30 3790 H 363.748 -1.23898 4.1573 0
M  V30 3791 H 364.419 -2.74586 4.7886 0
M  V30 3792 H 366.895 -3.00411 2.8791 0
M  V30 3793 H 365.771 -4.25719 3.46489 0
M  V30 3794 H 366.032 -4.06482 1.73852 0
M  V30 3795 N 365.091 -1.34144 -0.827227 0
M  V30 3796 C 366.338 -1.26258 -1.58319 0
M  V30 3797 C 366.666 0.168595 -1.93768 0
M  V30 3798 O 365.921 1.12877 -1.59866 0
M  V30 3799 C 366.22 -2.09464 -2.89585 0
M  V30 3800 C 365.886 -3.58521 -2.73448 0
M  V30 3801 C 364.548 -3.99155 -2.68754 0
M  V30 3802 C 366.9 -4.53189 -2.57428 0
M  V30 3803 C 364.228 -5.32656 -2.45957 0
M  V30 3804 C 366.58 -5.86864 -2.36163 0
M  V30 3805 C 365.244 -6.26667 -2.29879 0
M  V30 3806 H 364.514 -0.462013 -0.579332 0
M  V30 3807 H 367.161 -1.65845 -0.95748 0
M  V30 3808 H 365.466 -1.62692 -3.56425 0
M  V30 3809 H 367.163 -2.00712 -3.47154 0
M  V30 3810 H 363.753 -3.26264 -2.77939 0
M  V30 3811 H 367.937 -4.22696 -2.60081 0
M  V30 3812 H 363.193 -5.62519 -2.39546 0
M  V30 3813 H 367.367 -6.59813 -2.22754 0
M  V30 3814 H 364.994 -7.30049 -2.11975 0
M  V30 3815 N 366.569 1.04691 -1.17803 0
M  V30 3816 C 367.985 1.29963 -0.926379 0
M  V30 3817 C 368.185 1.97251 0.411635 0
M  V30 3818 O 367.241 2.24922 1.14744 0
M  V30 3819 C 368.554 2.16447 -2.08737 0
M  V30 3820 C 370.102 2.29814 -2.12496 0
M  V30 3821 C 370.577 3.19661 -3.27995 0
M  V30 3822 N 372.068 3.27247 -3.27816 0
M  V30 3823 C 372.803 3.96906 -4.13827 0
M  V30 3824 N 372.299 4.6895 -5.09959 0
M  V30 3825 N 374.092 3.93122 -4.01761 0
M  V30 3826 H 366.243 0.594182 -2.0392 0
M  V30 3827 H 368.506 0.324649 -0.890678 0
M  V30 3828 H 368.212 1.74304 -3.05469 0
M  V30 3829 H 368.086 3.17103 -2.04268 0
M  V30 3830 H 370.473 2.71196 -1.16347 0
M  V30 3831 H 370.554 1.2877 -2.21025 0
M  V30 3832 H 370.198 2.78991 -4.24413 0
M  V30 3833 H 370.128 4.20722 -3.16703 0
M  V30 3834 H 372.619 2.75921 -2.58217 0
M  V30 3835 H 372.932 5.19679 -5.71974 0
M  V30 3836 H 371.277 4.67875 -5.13924 0
M  V30 3837 H 374.468 3.35967 -3.2595 0
M  V30 3838 H 374.641 4.47139 -4.6901 0
M  V30 3839 N 368.047 0.979072 1.23499 0
M  V30 3840 C 368.957 0.526431 2.28617 0
M  V30 3841 C 369.973 -0.418126 1.68901 0
M  V30 3842 O 371.149 -0.288372 1.99325 0
M  V30 3843 C 368.214 -0.165235 3.46306 0
M  V30 3844 C 367.275 0.82056 4.21385 0
M  V30 3845 C 366.508 0.161807 5.33455 0
M  V30 3846 O 366.731 -1.04742 5.60701 0
M  V30 3847 O 365.665 0.859708 5.95729 0
M  V30 3848 H 369.491 1.4006 2.69475 0
M  V30 3849 H 367.076 0.746643 1.29405 0
M  V30 3850 H 368.958 -0.553287 4.17752 0
M  V30 3851 H 367.633 -1.01419 3.07402 0
M  V30 3852 H 366.54 1.25929 3.52268 0
M  V30 3853 H 367.873 1.63828 4.64135 0
M  V30 3854 N 369.525 -1.3858 0.750561 0
M  V30 3855 C 370.488 -2.28836 0.129152 0
M  V30 3856 C 371.488 -1.47045 -0.650714 0
M  V30 3857 O 372.678 -1.6753 -0.477428 0
M  V30 3858 C 369.81 -3.30751 -0.825622 0
M  V30 3859 H 371.003 -2.85294 0.924516 0
M  V30 3860 H 368.556 -1.47489 0.517376 0
M  V30 3861 H 369.291 -2.79378 -1.64677 0
M  V30 3862 H 369.076 -3.91177 -0.268852 0
M  V30 3863 H 370.566 -3.98249 -1.2565 0
M  V30 3864 N 371.003 -0.499398 -1.49478 0
M  V30 3865 C 371.935 0.316575 -2.27003 0
M  V30 3866 C 372.948 0.932047 -1.33479 0
M  V30 3867 O 374.137 0.815658 -1.58774 0
M  V30 3868 C 371.237 1.46055 -3.05812 0
M  V30 3869 C 370.41 0.952679 -4.26899 0
M  V30 3870 C 369.469 1.97407 -4.87767 0
M  V30 3871 O 368.495 1.54326 -5.4788 0
M  V30 3872 N 369.697 3.30436 -4.77276 0
M  V30 3873 H 372.462 -0.348168 -2.97671 0
M  V30 3874 H 370.023 -0.33185 -1.58463 0
M  V30 3875 H 372.015 2.14135 -3.43407 0
M  V30 3876 H 370.585 2.02948 -2.37762 0
M  V30 3877 H 369.805 0.0968248 -3.94081 0
M  V30 3878 H 371.093 0.59174 -5.05347 0
M  V30 3879 H 370.491 3.68126 -4.29534 0
M  V30 3880 H 369.048 3.94235 -5.19059 0
M  V30 3881 N 372.481 1.55866 -0.233164 0
M  V30 3882 C 373.428 2.20796 0.67215 0
M  V30 3883 C 374.398 1.16731 1.18166 0
M  V30 3884 O 375.583 1.45129 1.23864 0
M  V30 3885 C 372.723 2.90072 1.86955 0
M  V30 3886 C 371.836 4.08759 1.39786 0
M  V30 3887 C 370.971 4.65787 2.55374 0
M  V30 3888 C 370.01 5.76752 2.04998 0
M  V30 3889 N 369.147 6.28021 3.13901 0
M  V30 3890 H 373.987 2.9779 0.111749 0
M  V30 3891 H 371.524 1.47036 0.0434007 0
M  V30 3892 H 373.482 3.28428 2.57276 0
M  V30 3893 H 372.112 2.15575 2.40265 0
M  V30 3894 H 371.164 3.7581 0.589173 0
M  V30 3895 H 372.476 4.88906 0.98856 0
M  V30 3896 H 371.63 5.06646 3.33758 0
M  V30 3897 H 370.369 3.84828 2.99598 0
M  V30 3898 H 369.374 5.35383 1.25079 0
M  V30 3899 H 370.599 6.59553 1.61759 0
M  V30 3900 H 368.545 5.49971 3.57586 0
M  V30 3901 H 368.462 7.03323 2.7726 0
M  V30 3902 H 369.73 6.73538 3.92386 0
M  V30 3903 N 373.959 -0.0401083 1.57549 0
M  V30 3904 C 374.891 -1.07149 2.02612 0
M  V30 3905 C 375.904 -1.33126 0.937085 0
M  V30 3906 O 377.093 -1.30808 1.21456 0
M  V30 3907 C 374.193 -2.41561 2.37701 0
M  V30 3908 C 373.366 -2.35096 3.68848 0
M  V30 3909 C 372.425 -3.51867 3.91249 0
M  V30 3910 O 371.451 -3.3186 4.62447 0
M  V30 3911 N 372.653 -4.73351 3.36035 0
M  V30 3912 H 375.418 -0.687485 2.91708 0
M  V30 3913 H 372.979 -0.228248 1.60283 0
M  V30 3914 H 374.971 -3.18379 2.49833 0
M  V30 3915 H 373.541 -2.71846 1.54332 0
M  V30 3916 H 372.761 -1.4345 3.67173 0
M  V30 3917 H 374.049 -2.27908 4.54901 0
M  V30 3918 H 373.447 -4.92507 2.78304 0
M  V30 3919 H 372.004 -5.47572 3.53565 0
M  V30 3920 N 375.437 -1.54477 -0.31217 0
M  V30 3921 C 376.683 -1.73483 -1.0503 0
M  V30 3922 C 377.016 -0.513125 -1.87298 0
M  V30 3923 O 376.291 0.489864 -1.8823 0
M  V30 3924 C 376.574 -3.01723 -1.96558 0
M  V30 3925 C 376.427 -4.3417 -1.17545 0
M  V30 3926 C 377.746 -3.25772 -2.95907 0
M  V30 3927 H 374.865 -0.631222 -0.380432 0
M  V30 3928 H 377.507 -1.87184 -0.325932 0
M  V30 3929 H 375.657 -2.90174 -2.58324 0
M  V30 3930 H 377.329 -4.5762 -0.581513 0
M  V30 3931 H 375.572 -4.31159 -0.477925 0
M  V30 3932 H 376.243 -5.20143 -1.84811 0
M  V30 3933 H 378.719 -3.36857 -2.44267 0
M  V30 3934 H 377.595 -4.16838 -3.57123 0
M  V30 3935 H 377.856 -2.43537 -3.68974 0
M  V30 3936 N 376.915 0.57481 -1.46744 0
M  V30 3937 C 377.862 1.68329 -1.57905 0
M  V30 3938 C 378.832 1.60625 -0.422927 0
M  V30 3939 O 380.017 1.79721 -0.640711 0
M  V30 3940 C 377.157 3.06665 -1.58274 0
M  V30 3941 C 376.27 3.24935 -2.84678 0
M  V30 3942 C 375.405 4.53566 -2.76499 0
M  V30 3943 C 374.444 4.65207 -3.97806 0
M  V30 3944 N 373.581 5.85172 -3.87967 0
M  V30 3945 H 378.421 1.58127 -2.52587 0
M  V30 3946 H 375.958 0.770552 -1.25303 0
M  V30 3947 H 377.916 3.86745 -1.56473 0
M  V30 3948 H 376.546 3.15745 -0.671194 0
M  V30 3949 H 375.598 2.38405 -2.96424 0
M  V30 3950 H 376.91 3.29403 -3.7456 0
M  V30 3951 H 376.064 5.41885 -2.72848 0
M  V30 3952 H 374.803 4.51548 -1.8427 0
M  V30 3953 H 373.808 3.75304 -4.0178 0
M  V30 3954 H 375.033 4.68997 -4.9114 0
M  V30 3955 H 372.979 5.84137 -2.98529 0
M  V30 3956 H 372.896 5.90943 -4.71511 0
M  V30 3957 H 374.164 6.759 -3.88303 0
M  V30 3958 N 378.394 1.34581 0.820102 0
M  V30 3959 C 379.341 1.2639 1.93117 0
M  V30 3960 C 380.311 0.138554 1.65521 0
M  V30 3961 O 381.496 0.320004 1.88097 0
M  V30 3962 C 378.636 1.02812 3.29429 0
M  V30 3963 C 377.749 2.24146 3.693 0
M  V30 3964 C 376.884 1.93829 4.94574 0
M  V30 3965 C 375.923 3.1129 5.27034 0
M  V30 3966 N 375.06 2.80838 6.43486 0
M  V30 3967 H 379.9 2.21408 1.99455 0
M  V30 3968 H 377.437 1.10077 0.975784 0
M  V30 3969 H 379.395 0.871788 4.0799 0
M  V30 3970 H 378.025 0.114612 3.22596 0
M  V30 3971 H 377.077 2.50691 2.86109 0
M  V30 3972 H 378.389 3.11899 3.89257 0
M  V30 3973 H 377.543 1.74948 5.80929 0
M  V30 3974 H 376.282 1.03341 4.76626 0
M  V30 3975 H 375.287 3.30764 4.39175 0
M  V30 3976 H 376.512 4.02561 5.4692 0
M  V30 3977 H 374.458 1.92929 6.26988 0
M  V30 3978 H 374.375 3.62123 6.63629 0
M  V30 3979 H 375.643 2.65467 7.32903 0
M  V30 3980 N 379.872 -1.04064 1.18357 0
M  V30 3981 C 381.121 -1.76662 0.973313 0
M  V30 3982 C 381.434 -1.89154 -0.497991 0
M  V30 3983 O 382.64 -2.58606 -0.826762 0
M  V30 3984 C 381.096 -3.17624 1.69242 0
M  V30 3985 C 380.704 -3.13225 3.20303 0
M  V30 3986 C 382.448 -3.946 1.56497 0
M  V30 3987 C 380.355 -4.49046 3.84853 0
M  V30 3988 H 379.285 -0.662214 0.36054 0
M  V30 3989 H 381.936 -1.16553 1.41731 0
M  V30 3990 H 380.318 -3.78129 1.1762 0
M  V30 3991 H 381.492 -2.62172 3.78949 0
M  V30 3992 H 379.807 -2.49749 3.33189 0
M  V30 3993 H 382.404 -4.95042 2.02084 0
M  V30 3994 H 382.747 -4.13074 0.517243 0
M  V30 3995 H 383.28 -3.4067 2.05399 0
M  V30 3996 H 380.019 -4.35777 4.89672 0
M  V30 3997 H 379.539 -5.00203 3.30994 0
M  V30 3998 H 381.218 -5.17961 3.87718 0
M  V30 3999 N 381.35 -0.985608 -1.22978 0
M  V30 4000 C 382.627 -0.573599 -1.87001 0
M  V30 4001 C 383.007 0.949213 -1.88555 0
M  V30 4002 O 382.355 1.82811 -1.37086 0
M  V30 4003 C 382.565 -1.18564 -3.28243 0
M  V30 4004 C 383.913 -1.28163 -4.04796 0
M  V30 4005 O 384.937 -1.13949 -3.37482 0
M  V30 4006 O 383.796 -1.50832 -5.25273 0
M  V30 4007 H 380.89 -0.193868 -0.803955 0
M  V30 4008 H 383.436 -1.08102 -1.30813 0
M  V30 4009 H 382.208 -2.22758 -3.21706 0
M  V30 4010 H 381.831 -0.663363 -3.92027 0
M  V30 4011 N 382.828 1.3818 -0.7579 0
M  V30 4012 C 384.053 2.04827 -0.325679 0
M  V30 4013 C 384.478 1.56788 1.03919 0
M  V30 4014 O 383.836 0.721811 1.66312 0
M  V30 4015 C 383.884 3.58774 -0.362447 0
M  V30 4016 O 382.988 4.07372 0.642033 0
M  V30 4017 H 382.329 0.64833 -0.143402 0
M  V30 4018 H 384.859 1.7677 -1.03023 0
M  V30 4019 H 384.869 4.07434 -0.214844 0
M  V30 4020 H 383.544 3.93096 -1.35824 0
M  V30 4021 H 382.121 3.70068 0.458688 0
M  V30 4022 N 384.306 0.507319 1.49211 0
M  V30 4023 C 385.546 -0.0332372 2.04373 0
M  V30 4024 C 385.91 -1.33694 1.37804 0
M  V30 4025 O 387.111 -1.96213 1.83722 0
M  V30 4026 C 385.382 -0.17599 3.56966 0
M  V30 4027 S 386.941 -0.669882 4.33657 0
M  V30 4028 H 383.759 0.00123603 0.710999 0
M  V30 4029 H 386.361 0.682725 1.83191 0
M  V30 4030 H 385.065 0.778053 4.02957 0
M  V30 4031 H 384.596 -0.917005 3.82563 0
M  V30 4032 H 386.611 -1.93806 4.56786 0
M  V30 4033 N 385.784 -1.5574 0.241426 0
M  V30 4034 C 386.694 -2.2479 -0.671305 0
M  V30 4035 C 387.71 -1.26217 -1.19772 0
M  V30 4036 O 388.886 -1.59079 -1.23514 0
M  V30 4037 C 385.951 -2.92966 -1.85396 0
M  V30 4038 C 385.012 -4.06935 -1.36756 0
M  V30 4039 C 384.245 -4.71851 -2.49384 0
M  V30 4040 O 384.468 -4.35823 -3.67987 0
M  V30 4041 O 383.402 -5.60467 -2.19454 0
M  V30 4042 H 387.228 -3.0349 -0.112966 0
M  V30 4043 H 384.813 -1.49397 0.0101513 0
M  V30 4044 H 386.695 -3.35927 -2.54423 0
M  V30 4045 H 385.37 -2.17211 -2.40002 0
M  V30 4046 H 384.277 -3.68503 -0.644726 0
M  V30 4047 H 385.61 -4.84492 -0.867647 0
M  V30 4048 N 387.262 0.0317525 -1.57568 0
M  V30 4049 C 388.678 0.38735 -1.54828 0
M  V30 4050 C 388.878 1.7677 -0.967187 0
M  V30 4051 O 387.934 2.45581 -0.587063 0
M  V30 4052 C 389.247 0.291667 -2.99282 0
M  V30 4053 C 390.795 0.368946 -3.10818 0
M  V30 4054 C 391.27 0.302741 -4.56998 0
M  V30 4055 N 392.761 0.361617 -4.61786 0
M  V30 4056 C 393.496 0.333238 -5.72431 0
M  V30 4057 N 392.992 0.257308 -6.92322 0
M  V30 4058 N 394.785 0.382769 -5.60795 0
M  V30 4059 H 386.936 -0.871609 -1.93692 0
M  V30 4060 H 389.199 -0.331161 -0.888277 0
M  V30 4061 H 388.905 -0.656794 -3.45513 0
M  V30 4062 H 388.779 1.08638 -3.61217 0
M  V30 4063 H 391.166 1.30784 -2.64536 0
M  V30 4064 H 391.247 -0.455066 -2.5172 0
M  V30 4065 H 390.891 -0.632473 -5.03947 0
M  V30 4066 H 390.821 1.14482 -5.14005 0
M  V30 4067 H 393.312 0.422923 -3.75526 0
M  V30 4068 H 393.625 0.24068 -7.72425 0
M  V30 4069 H 391.97 0.223396 -6.94641 0
M  V30 4070 H 395.161 0.44006 -4.66027 0
M  V30 4071 H 395.334 0.357184 -6.47015 0
M  V30 4072 N 388.74 1.54641 0.303973 0
M  V30 4073 C 390.156 1.45788 0.649463 0
M  V30 4074 C 390.356 0.64666 1.90842 0
M  V30 4075 O 389.412 0.153183 2.52035 0
M  V30 4076 C 390.725 2.89718 0.805227 0
M  V30 4077 C 392.273 2.99742 0.901305 0
M  V30 4078 C 392.748 4.44863 1.08909 0
M  V30 4079 N 394.239 4.48559 1.15536 0
M  V30 4080 C 394.974 5.58026 1.3189 0
M  V30 4081 N 394.47 6.77422 1.45161 0
M  V30 4082 N 396.263 5.45708 1.34755 0
M  V30 4083 H 388.414 2.05854 -0.523237 0
M  V30 4084 H 390.677 0.932186 -0.172431 0
M  V30 4085 H 390.383 3.51666 -0.0489108 0
M  V30 4086 H 390.257 3.36964 1.69513 0
M  V30 4087 H 392.644 2.3791 1.74593 0
M  V30 4088 H 392.725 2.55797 -0.0125531 0
M  V30 4089 H 392.369 5.07288 0.249241 0
M  V30 4090 H 392.299 4.86436 2.01713 0
M  V30 4091 H 394.79 3.6254 1.06646 0
M  V30 4092 H 395.103 7.56604 1.57387 0
M  V30 4093 H 393.448 6.80292 1.42223 0
M  V30 4094 H 396.639 4.51378 1.23996 0
M  V30 4095 H 396.812 6.3107 1.47157 0
M  V30 4096 N 390.218 -0.567019 1.47046 0
M  V30 4097 C 391.465 -1.32462 1.53167 0
M  V30 4098 C 391.793 -1.93571 0.189841 0
M  V30 4099 O 391.048 -1.77865 -0.816243 0
M  V30 4100 C 391.347 -2.4623 2.59047 0
M  V30 4101 C 391.013 -2.03014 4.02612 0
M  V30 4102 C 389.675 -1.90944 4.41694 0
M  V30 4103 C 392.027 -1.69895 4.92732 0
M  V30 4104 C 389.355 -1.44035 5.68745 0
M  V30 4105 C 391.707 -1.2446 6.20236 0
M  V30 4106 C 390.371 -1.10979 6.5821 0
M  V30 4107 H 389.641 -0.484713 0.560477 0
M  V30 4108 H 392.288 -0.636888 1.80599 0
M  V30 4109 H 390.593 -3.20517 2.25335 0
M  V30 4110 H 392.29 -3.04427 2.61008 0
M  V30 4111 H 388.88 -2.13348 3.71726 0
M  V30 4112 H 393.064 -1.78098 4.63244 0
M  V30 4113 H 388.32 -1.32254 5.96925 0
M  V30 4114 H 392.494 -0.978924 6.89485 0
M  V30 4115 H 390.121 -0.744078 7.5655 0
M  V30 4116 N 391.696 -1.35014 -0.812953 0
M  V30 4117 C 392.626 -1.30069 -1.93919 0
M  V30 4118 C 393.607 -0.176275 -1.69184 0
M  V30 4119 O 394.792 -0.370227 -1.90638 0
M  V30 4120 C 391.922 -1.06547 -3.30552 0
M  V30 4121 C 390.876 -2.15561 -3.69753 0
M  V30 4122 C 390.202 -1.77214 -5.04479 0
M  V30 4123 C 391.502 -3.57476 -3.808 0
M  V30 4124 H 393.196 -2.24303 -1.98314 0
M  V30 4125 H 390.742 -1.07977 -0.952736 0
M  V30 4126 H 392.695 -1.01729 -4.08937 0
M  V30 4127 H 391.419 -0.0875719 -3.26483 0
M  V30 4128 H 390.078 -2.19466 -2.9365 0
M  V30 4129 H 389.726 -0.780589 -4.96906 0
M  V30 4130 H 389.426 -2.50184 -5.31678 0
M  V30 4131 H 390.95 -1.7391 -5.8531 0
M  V30 4132 H 392.364 -3.55929 -4.4943 0
M  V30 4133 H 390.761 -4.29152 -4.19462 0
M  V30 4134 H 391.831 -3.94091 -2.82525 0
M  V30 4135 N 393.175 1.03435 -1.18907 0
M  V30 4136 C 394.423 1.76394 -0.986382 0
M  V30 4137 C 394.744 1.88883 0.484567 0
M  V30 4138 O 394.014 1.41843 1.3512 0
M  V30 4139 H 392.594 0.65344 -0.361975 0
M  V30 4140 H 395.256 1.248 -1.49703 0
M  V30 4141 H 394.352 2.77424 -1.42978 0
M  V30 4142 N 394.653 0.992116 1.22453 0
M  V30 4143 C 395.901 0.666215 1.90804 0
M  V30 4144 C 396.222 -0.804152 1.77647 0
M  V30 4145 O 395.492 -1.57629 1.16318 0
M  V30 4146 H 394.072 0.243423 0.706225 0
M  V30 4147 H 396.734 1.25845 1.48825 0
M  V30 4148 H 395.83 0.928069 2.97982 0
M  V30 4149 N 396.131 -1.37776 0.765217 0
M  V30 4150 C 397.542 -1.82521 0.392819 0
M  V30 4151 C 397.893 -1.63789 -1.08017 0
M  V30 4152 O 397.018 -1.14542 -1.83601 0
M  V30 4153 C 397.613 -3.31358 0.706214 0
M  V30 4154 C 396.172 -3.74406 0.386952 0
M  V30 4155 C 395.319 -2.60394 0.953422 0
M  V30 4156 H 398.27 -1.2634 0.960412 0
M  V30 4157 H 398.291 -3.80498 -0.0114706 0
M  V30 4158 H 397.803 -3.44959 1.77833 0
M  V30 4159 H 395.904 -3.66377 -0.678112 0
M  V30 4160 H 396.017 -4.70749 0.890636 0
M  V30 4161 H 394.381 -2.51878 0.378064 0
M  V30 4162 H 395.164 -2.76791 2.03081 0
M  V30 4163 N 397.609 -0.515225 -1.4894 0
M  V30 4164 C 398.572 0.244681 -2.2789 0
M  V30 4165 C 399.572 0.881166 -1.34507 0
M  V30 4166 O 400.762 0.743497 -1.57537 0
M  V30 4167 C 397.894 1.35247 -3.12923 0
M  V30 4168 H 399.087 -0.448289 -2.96531 0
M  V30 4169 H 396.64 -0.270656 -1.53939 0
M  V30 4170 H 397.375 2.07916 -2.48881 0
M  V30 4171 H 397.16 0.901374 -3.81599 0
M  V30 4172 H 398.65 1.88737 -3.72516 0
M  V30 4173 N 399.087 1.5561 -0.249682 0
M  V30 4174 C 400.503 1.59254 0.105103 0
M  V30 4175 C 400.703 1.26685 1.56694 0
M  V30 4176 O 399.759 1.0155 2.31179 0
M  V30 4177 C 401.072 2.99687 -0.246592 0
M  V30 4178 C 402.62 3.12416 -0.191118 0
M  V30 4179 C 403.095 4.55074 -0.516885 0
M  V30 4180 N 404.586 4.60835 -0.467489 0
M  V30 4181 C 405.321 5.69201 -0.69268 0
M  V30 4182 N 404.817 6.85817 -0.981146 0
M  V30 4183 N 406.61 5.58635 -0.623198 0
M  V30 4184 H 398.761 1.75049 -1.20298 0
M  V30 4185 H 401.024 0.815003 -0.484225 0
M  V30 4186 H 400.73 3.28267 -1.26228 0
M  V30 4187 H 400.604 3.74798 0.424962 0
M  V30 4188 H 402.991 2.83615 0.815247 0
M  V30 4189 H 403.072 2.39573 -0.896563 0
M  V30 4190 H 402.716 4.84596 -1.52082 0
M  V30 4191 H 402.646 5.26181 0.210068 0
M  V30 4192 H 405.137 3.7705 -0.253373 0
M  V30 4193 H 405.45 7.64341 -1.14032 0
M  V30 4194 H 403.795 6.87494 -1.01865 0
M  V30 4195 H 406.986 4.66406 -0.397863 0
M  V30 4196 H 407.159 6.43017 -0.802093 0
M  V30 4197 N 400.565 -0.0233959 1.57583 0
M  V30 4198 C 401.976 -0.56927 1.77809 0
M  V30 4199 C 402.327 -1.75284 0.881472 0
M  V30 4200 O 401.452 -2.1626 0.0777805 0
M  V30 4201 C 402.047 -1.03949 3.22459 0
M  V30 4202 C 400.606 -1.53084 3.43864 0
M  V30 4203 C 399.753 -0.471454 2.73263 0
M  V30 4204 H 402.704 0.202825 1.57399 0
M  V30 4205 H 402.725 -1.90661 3.29285 0
M  V30 4206 H 402.237 -0.177865 3.87692 0
M  V30 4207 H 400.338 -2.41414 2.83814 0
M  V30 4208 H 400.451 -1.57443 4.52491 0
M  V30 4209 H 398.815 -0.927788 2.37201 0
M  V30 4210 H 399.598 0.380808 3.41181 0
M  V30 4211 N 402.043 -1.548 -0.295768 0
M  V30 4212 C 403.454 -1.65274 -0.868411 0
M  V30 4213 C 403.805 -0.56481 -1.87894 0
M  V30 4214 O 402.93 0.29767 -2.14343 0
M  V30 4215 C 403.525 -2.99603 -1.58188 0
M  V30 4216 C 402.084 -3.12181 -2.10286 0
M  V30 4217 C 401.231 -2.6098 -0.93727 0
M  V30 4218 H 404.182 -1.58534 -0.0726422 0
M  V30 4219 H 404.203 -2.91319 -2.44772 0
M  V30 4220 H 403.715 -3.78764 -0.846151 0
M  V30 4221 H 401.816 -2.3775 -2.8689 0
M  V30 4222 H 401.929 -4.18415 -2.33379 0
M  V30 4223 H 400.293 -2.17564 -1.32431 0
M  V30 4224 H 401.076 -3.42623 -0.215414 0
M  V30 4225 N 403.521 0.559213 -1.47345 0
M  V30 4226 C 404.746 1.34676 -1.57725 0
M  V30 4227 C 405.171 1.86723 -0.227164 0
M  V30 4228 O 404.529 1.6286 0.796642 0
M  V30 4229 C 404.577 2.49399 -2.60447 0
M  V30 4230 O 403.681 3.51567 -2.15578 0
M  V30 4231 H 403.022 0.400115 -0.52991 0
M  V30 4232 H 405.552 0.676009 -1.93109 0
M  V30 4233 H 405.562 2.95996 -2.80803 0
M  V30 4234 H 404.237 2.10873 -3.58477 0
M  V30 4235 H 402.814 3.11289 -2.05313 0
M  V30 4236 N 404.999 1.35443 0.805782 0
M  V30 4237 C 406.41 1.25768 1.37983 0
M  V30 4238 C 406.761 -0.10958 1.95894 0
M  V30 4239 O 405.886 -1.01056 1.91355 0
M  V30 4240 C 406.481 2.27727 2.5085 0
M  V30 4241 C 405.04 2.2179 3.04115 0
M  V30 4242 C 404.187 2.13393 1.77084 0
M  V30 4243 H 407.138 1.4656 0.608752 0
M  V30 4244 H 407.159 1.90422 3.29424 0
M  V30 4245 H 406.671 3.27227 2.08671 0
M  V30 4246 H 404.772 1.25703 3.50756 0
M  V30 4247 H 404.885 3.13788 3.62042 0
M  V30 4248 H 403.249 1.59384 1.98668 0
M  V30 4249 H 404.032 3.14755 1.37056 0
M  V30 4250 N 406.477 -1.02803 1.19454 0
M  V30 4251 C 407.702 -1.80378 1.02364 0
M  V30 4252 C 408.127 -1.83282 -0.423007 0
M  V30 4253 O 407.485 -1.25945 -1.30413 0
M  V30 4254 C 407.533 -3.23248 1.59821 0
M  V30 4255 O 406.637 -4.04 0.828105 0
M  V30 4256 H 405.978 -0.556799 0.361761 0
M  V30 4257 H 408.508 -1.29385 1.58495 0
M  V30 4258 H 408.518 -3.73994 1.63073 0
M  V30 4259 H 407.193 -3.2045 2.65113 0
M  V30 4260 H 405.77 -3.62635 0.86891 0
M  V30 4261 N 407.956 -0.998596 -1.21925 0
M  V30 4262 C 409.367 -0.711939 -1.72593 0
M  V30 4263 C 409.718 0.770842 -1.80423 0
M  V30 4264 O 408.843 1.60237 -1.4544 0
M  V30 4265 C 409.438 -1.28567 -3.13458 0
M  V30 4266 C 407.997 -1.04828 -3.61508 0
M  V30 4267 C 407.144 -1.4024 -2.39224 0
M  V30 4268 H 410.095 -1.17027 -1.07193 0
M  V30 4269 H 410.116 -0.667098 -3.74607 0
M  V30 4270 H 409.628 -2.36486 -3.07727 0
M  V30 4271 H 407.729 0.0140383 -3.72597 0
M  V30 4272 H 407.842 -1.71566 -4.47328 0
M  V30 4273 H 406.206 -0.821077 -2.41103 0
M  V30 4274 H 406.989 -2.49176 -2.36149 0
M  V30 4275 N 409.434 1.37368 -0.772513 0
M  V30 4276 C 410.659 2.0447 -0.347386 0
M  V30 4277 C 411.084 1.57882 1.0225 0
M  V30 4278 O 410.442 0.73941 1.65537 0
M  V30 4279 C 410.49 3.58369 -0.400479 0
M  V30 4280 O 409.594 4.0803 0.598789 0
M  V30 4281 H 408.935 0.646773 -0.15027 0
M  V30 4282 H 411.465 1.75667 -1.04892 0
M  V30 4283 H 411.475 4.07183 -0.258045 0
M  V30 4284 H 410.15 3.91633 -1.39986 0
M  V30 4285 H 408.727 3.70534 0.419411 0
M  V30 4286 N 410.912 0.523116 1.48665 0
M  V30 4287 C 412.323 0.0808997 1.86525 0
M  V30 4288 C 412.674 -1.33975 1.43336 0
M  V30 4289 O 411.799 -2.00221 0.821009 0
M  V30 4290 C 412.394 0.140037 3.3851 0
M  V30 4291 C 410.953 -0.246948 3.75589 0
M  V30 4292 C 410.1 0.502845 2.72703 0
M  V30 4293 H 413.051 0.734736 1.40667 0
M  V30 4294 H 413.072 -0.649945 3.74908 0
M  V30 4295 H 412.584 1.17412 3.69914 0
M  V30 4296 H 410.685 -1.28343 3.49798 0
M  V30 4297 H 410.798 0.0878859 4.79019 0
M  V30 4298 H 409.162 -0.0500581 2.54651 0
M  V30 4299 H 409.945 1.53743 3.0695 0
M  V30 4300 N 412.39 -1.55475 0.257931 0
M  V30 4301 C 413.636 -1.99502 -0.364266 0
M  V30 4302 C 413.969 -1.146 -1.56782 0
M  V30 4303 O 413.244 -0.211968 -1.93342 0
M  V30 4304 C 413.527 -3.51917 -0.763333 0
M  V30 4305 C 413.38 -4.4758 0.446371 0
M  V30 4306 C 414.699 -4.09742 -1.60623 0
M  V30 4307 H 411.818 -0.725277 -0.130929 0
M  V30 4308 H 414.46 -1.8653 0.361446 0
M  V30 4309 H 412.61 -3.63101 -1.38166 0
M  V30 4310 H 414.282 -4.48362 1.08487 0
M  V30 4311 H 412.525 -4.19947 1.08753 0
M  V30 4312 H 413.196 -5.51862 0.123645 0
M  V30 4313 H 415.672 -4.01727 -1.08418 0
M  V30 4314 H 414.548 -5.16631 -1.85429 0
M  V30 4315 H 414.809 -3.58889 -2.58169 0
M  V30 4316 N 413.868 0.0150385 -1.57593 0
M  V30 4317 C 415.279 0.559832 -1.78109 0
M  V30 4318 C 415.63 1.74814 -0.890756 0
M  V30 4319 O 414.755 2.16216 -0.0892482 0
M  V30 4320 C 415.35 1.02238 -3.23006 0
M  V30 4321 C 413.909 1.51258 -3.44671 0
M  V30 4322 C 413.056 0.456955 -2.73509 0
M  V30 4323 H 416.007 -0.211169 -1.57289 0
M  V30 4324 H 416.028 1.88912 -3.30292 0
M  V30 4325 H 415.54 0.157302 -3.87781 0
M  V30 4326 H 413.641 2.39905 -2.8509 0
M  V30 4327 H 413.754 1.55042 -4.5332 0
M  V30 4328 H 412.118 0.915196 -2.37689 0
M  V30 4329 H 412.901 -0.398896 -3.40975 0
M  V30 4330 N 415.346 1.54954 0.287554 0
M  V30 4331 C 416.309 1.86076 1.33823 0
M  V30 4332 C 417.309 0.734414 1.43049 0
M  V30 4333 O 418.499 1.00266 1.42452 0
M  V30 4334 C 415.631 2.05305 2.72144 0
M  V30 4335 H 416.824 2.79984 1.07465 0
M  V30 4336 H 414.377 1.47223 0.524902 0
M  V30 4337 H 415.112 1.1373 3.03704 0
M  V30 4338 H 414.897 2.873 2.66836 0
M  V30 4339 H 416.387 2.30706 3.48087 0
M  V30 4340 N 416.824 -0.551391 1.4764 0
M  V30 4341 C 418.235 -1.13349 1.48354 0
M  V30 4342 C 418.586 -1.94709 0.241432 0
M  V30 4343 O 417.711 -2.06306 -0.653205 0
M  V30 4344 C 418.306 -2.0623 2.68802 0
M  V30 4345 C 416.865 -2.597 2.72457 0
M  V30 4346 C 416.012 -1.36201 2.41546 0
M  V30 4347 H 418.963 -0.337698 1.55065 0
M  V30 4348 H 418.984 -2.90196 2.46103 0
M  V30 4349 H 418.496 -1.46987 3.59188 0
M  V30 4350 H 416.597 -3.22724 1.86225 0
M  V30 4351 H 416.71 -3.00296 3.73308 0
M  V30 4352 H 415.074 -1.67068 1.9225 0
M  V30 4353 H 415.857 -0.787425 3.34147 0
M  V30 4354 N 418.302 -1.35869 -0.798587 0
M  V30 4355 C 419.265 -1.29307 -1.89242 0
M  V30 4356 C 420.265 -0.202747 -1.59517 0
M  V30 4357 O 421.455 -0.456957 -1.681 0
M  V30 4358 C 418.587 -1.00229 -3.25833 0
M  V30 4359 H 419.78 -2.26576 -1.96478 0
M  V30 4360 H 417.333 -1.20509 -0.995358 0
M  V30 4361 H 418.068 -0.033801 -3.24282 0
M  V30 4362 H 417.853 -1.79121 -3.48795 0
M  V30 4363 H 419.343 -0.98219 -4.05885 0
M  V30 4364 N 419.78 1.02168 -1.19998 0
M  V30 4365 C 421.191 1.57135 -1.00825 0
M  V30 4366 C 421.542 1.91276 0.436818 0
M  V30 4367 O 420.667 1.71679 1.3174 0
M  V30 4368 C 421.262 2.85514 -1.82393 0
M  V30 4369 C 419.821 3.37027 -1.67601 0
M  V30 4370 C 418.968 2.10388 -1.80644 0
M  V30 4371 H 421.919 0.846106 -1.34264 0
M  V30 4372 H 421.94 3.56711 -1.32429 0
M  V30 4373 H 421.452 2.60634 -2.87561 0
M  V30 4374 H 419.553 3.66878 -0.650485 0
M  V30 4375 H 419.666 4.09572 -2.4857 0
M  V30 4376 H 418.03 2.22601 -1.23778 0
M  V30 4377 H 418.813 1.8794 -2.87286 0
M  V30 4378 N 421.258 1.00505 1.21394 0
M  V30 4379 C 422.669 0.721082 1.72213 0
M  V30 4380 C 423.02 -0.761263 1.80829 0
M  V30 4381 O 422.145 -1.59464 1.46288 0
M  V30 4382 C 422.74 1.30228 3.12772 0
M  V30 4383 C 421.299 1.06743 3.60947 0
M  V30 4384 C 420.446 1.41507 2.38477 0
M  V30 4385 H 423.397 1.17594 1.06571 0
M  V30 4386 H 423.418 0.686955 3.74247 0
M  V30 4387 H 422.93 2.38115 3.06468 0
M  V30 4388 H 421.031 0.00572162 3.726 0
M  V30 4389 H 421.144 1.73936 4.46411 0
M  V30 4390 H 419.508 0.833852 2.40664 0
M  V30 4391 H 420.291 2.50424 2.34824 0
M  V30 4392 N 422.737 -1.36956 0.779787 0
M  V30 4393 C 424.148 -1.82094 0.412156 0
M  V30 4394 C 424.499 -1.64926 -1.06273 0
M  V30 4395 O 423.624 -1.16483 -1.82375 0
M  V30 4396 C 424.219 -3.3059 0.741319 0
M  V30 4397 C 422.778 -3.73974 0.426641 0
M  V30 4398 C 421.925 -2.59368 0.980987 0
M  V30 4399 H 424.876 -1.25314 0.973758 0
M  V30 4400 H 424.897 -3.80489 0.028887 0
M  V30 4401 H 424.409 -3.43054 1.81482 0
M  V30 4402 H 422.51 -3.67076 -0.639215 0
M  V30 4403 H 422.623 -4.69778 0.940515 0
M  V30 4404 H 420.987 -2.51463 0.404757 0
M  V30 4405 H 421.77 -2.74621 2.06005 0
M  V30 4406 N 424.215 -0.530993 -1.48385 0
M  V30 4407 C 425.463 0.00273189 -2.021 0
M  V30 4408 C 425.784 1.34672 -1.41027 0
M  V30 4409 O 425.054 1.8724 -0.576012 0
M  V30 4410 H 423.634 0.00399774 -0.746989 0
M  V30 4411 H 426.296 -0.695054 -1.82085 0
M  V30 4412 H 425.392 0.11031 -3.11905 0
M  V30 4413 N 425.693 1.55336 -0.266172 0
M  V30 4414 C 427.104 1.85236 0.233315 0
M  V30 4415 C 427.455 1.18816 1.56132 0
M  V30 4416 O 426.58 0.473307 2.11161 0
M  V30 4417 C 427.175 3.36059 0.430113 0
M  V30 4418 C 425.734 3.66116 0.873842 0
M  V30 4419 C 424.881 2.77274 -0.0380016 0
M  V30 4420 H 427.832 1.51004 -0.488214 0
M  V30 4421 H 427.853 3.58681 1.26998 0
M  V30 4422 H 427.365 3.84373 -0.536588 0
M  V30 4423 H 425.466 3.23295 1.85233 0
M  V30 4424 H 425.579 4.73699 0.717358 0
M  V30 4425 H 423.943 2.50198 0.476759 0
M  V30 4426 H 424.726 3.284 -1.00042 0
M  V30 4427 N 427.171 -0.0066808 1.57599 0
M  V30 4428 C 428.582 -0.550379 1.78403 0
M  V30 4429 C 428.933 -1.74339 0.900014 0
M  V30 4430 O 428.058 -2.16166 0.100713 0
M  V30 4431 C 428.653 -1.00523 3.23544 0
M  V30 4432 C 427.212 -1.49428 3.45468 0
M  V30 4433 C 426.359 -0.442444 2.73748 0
M  V30 4434 H 429.31 0.219508 1.57175 0
M  V30 4435 H 429.331 -1.87157 3.31289 0
M  V30 4436 H 428.843 -0.136735 3.87859 0
M  V30 4437 H 426.944 -2.3839 2.86358 0
M  V30 4438 H 427.057 -1.52635 4.54136 0
M  V30 4439 H 425.421 -0.902578 2.38171 0
M  V30 4440 H 426.204 0.416973 3.40758 0
M  V30 4441 N 428.649 -1.55105 -0.279332 0
M  V30 4442 C 430.065 -1.46803 -0.626187 0
M  V30 4443 C 430.265 -0.676939 -1.89789 0
M  V30 4444 O 429.321 -0.19326 -2.51759 0
M  V30 4445 C 430.634 -2.90962 -0.759034 0
M  V30 4446 C 432.182 -3.01138 -0.853504 0
M  V30 4447 C 432.657 -4.46539 -1.01818 0
M  V30 4448 N 434.148 -4.50341 -1.08386 0
M  V30 4449 C 434.883 -5.60053 -1.22996 0
M  V30 4450 N 434.379 -6.79645 -1.34366 0
M  V30 4451 N 436.172 -5.47783 -1.26056 0
M  V30 4452 H 428.323 -2.04996 0.555921 0
M  V30 4453 H 430.586 -0.929325 0.187239 0
M  V30 4454 H 430.292 -3.51544 0.104852 0
M  V30 4455 H 430.166 -3.39619 -1.64131 0
M  V30 4456 H 432.553 -2.40658 -1.70786 0
M  V30 4457 H 432.634 -2.55745 0.0532466 0
M  V30 4458 H 432.278 -5.0762 -0.168504 0
M  V30 4459 H 432.208 -4.89583 -1.93948 0
M  V30 4460 H 434.699 -3.64191 -1.00864 0
M  V30 4461 H 435.012 -7.59012 -1.4533 0
M  V30 4462 H 433.357 -6.82469 -1.31382 0
M  V30 4463 H 436.548 -4.53294 -1.168 0
M  V30 4464 H 436.721 -6.33331 -1.37098 0
M  V30 4465 N 430.127 0.543554 -1.4793 0
M  V30 4466 C 431.538 1.12561 -1.48953 0
M  V30 4467 C 431.889 1.94578 -0.251754 0
M  V30 4468 O 431.014 2.0665 0.642255 0
M  V30 4469 C 431.609 2.04801 -2.69892 0
M  V30 4470 C 430.168 2.58251 -2.73831 0
M  V30 4471 C 429.315 1.34918 -2.42265 0
M  V30 4472 H 432.266 0.32947 -1.55242 0
M  V30 4473 H 432.287 2.88886 -2.47639 0
M  V30 4474 H 431.799 1.4508 -3.59963 0
M  V30 4475 H 429.9 3.21732 -1.87934 0
M  V30 4476 H 430.013 2.98312 -3.74895 0
M  V30 4477 H 428.377 1.66046 -1.93134 0
M  V30 4478 H 429.16 0.769693 -3.3456 0
M  V30 4479 N 431.605 1.3629 0.791371 0
M  V30 4480 C 432.568 1.30309 1.88553 0
M  V30 4481 C 433.568 0.211204 1.59407 0
M  V30 4482 O 434.758 0.465865 1.67855 0
M  V30 4483 C 431.89 1.01956 3.25297 0
M  V30 4484 H 433.083 2.27614 1.95273 0
M  V30 4485 H 430.636 1.21035 0.988953 0
M  V30 4486 H 431.371 0.050998 3.2426 0
M  V30 4487 H 431.156 1.80968 3.4784 0
M  V30 4488 H 432.646 1.0037 4.05359 0
M  V30 4489 N 433.083 -1.0153 1.20538 0
M  V30 4490 C 434.046 -2.0826 0.957098 0
M  V30 4491 C 435.046 -1.60657 -0.0678655 0
M  V30 4492 O 436.236 -1.73385 0.168332 0
M  V30 4493 C 433.368 -3.38033 0.441188 0
M  V30 4494 H 434.561 -2.31719 1.90384 0
M  V30 4495 H 432.114 -1.1835 1.02093 0
M  V30 4496 H 432.849 -3.20249 -0.510961 0
M  V30 4497 H 432.634 -3.73911 1.18038 0
M  V30 4498 H 434.124 -4.16613 0.287009 0
M  V30 4499 N 434.561 -1.01147 -1.20859 0
M  V30 4500 C 435.524 -0.582224 -2.21682 0
M  V30 4501 C 436.524 0.344887 -1.57058 0
M  V30 4502 O 437.714 0.134281 -1.73682 0
M  V30 4503 C 434.846 0.150496 -3.40568 0
M  V30 4504 H 436.039 -1.47408 -2.61172 0
M  V30 4505 H 433.592 -0.800695 -1.34233 0
M  V30 4506 H 434.327 1.0575 -3.06574 0
M  V30 4507 H 434.112 -0.515444 -3.88697 0
M  V30 4508 H 435.602 0.438344 -4.15293 0
M  V30 4509 N 436.039 1.36541 -0.78704 0
M  V30 4510 C 437.002 2.28413 -0.189778 0
M  V30 4511 C 438.002 1.48719 0.611499 0
M  V30 4512 O 439.192 1.68737 0.432842 0
M  V30 4513 C 436.324 3.32824 0.737638 0
M  V30 4514 H 437.517 2.82743 -0.999831 0
M  V30 4515 H 435.07 1.46065 -0.556298 0
M  V30 4516 H 435.805 2.83646 1.57212 0
M  V30 4517 H 435.59 3.91752 0.165044 0
M  V30 4518 H 437.08 4.0144 1.15047 0
M  V30 4519 N 437.518 0.538854 1.48102 0
M  V30 4520 C 438.481 -0.208395 2.28251 0
M  V30 4521 C 439.481 -0.859656 1.35892 0
M  V30 4522 O 440.671 -0.71834 1.58699 0
M  V30 4523 C 437.803 -1.30252 3.15035 0
M  V30 4524 H 438.996 0.495407 2.9578 0
M  V30 4525 H 436.549 0.295112 1.53489 0
M  V30 4526 H 437.284 -2.0393 2.52157 0
M  V30 4527 H 437.069 -0.840551 3.82985 0
M  V30 4528 H 438.559 -1.82787 3.75471 0
M  V30 4529 N 438.996 -1.55193 0.274407 0
M  V30 4530 C 440.224 -2.03987 -0.345943 0
M  V30 4531 C 440.639 -1.15279 -1.4952 0
M  V30 4532 O 439.996 -0.172759 -1.8168 0
M  V30 4533 C 440.047 -3.51898 -0.827631 0
M  V30 4534 O 439.768 -4.37231 0.275855 0
M  V30 4535 C 441.269 -4.16577 -1.51587 0
M  V30 4536 H 438.489 -0.666335 -0.0789892 0
M  V30 4537 H 441.033 -2.00423 0.406294 0
M  V30 4538 H 439.188 -3.55909 -1.52996 0
M  V30 4539 H 439.602 -5.24415 -0.0943638 0
M  V30 4540 H 441.076 -5.21678 -1.80433 0
M  V30 4541 H 441.553 -3.64707 -2.44716 0
M  V30 4542 H 442.159 -4.16568 -0.857409 0
M  V30 4543 N 440.474 -0.00167713 -1.576 0
M  V30 4544 C 441.437 0.974046 -2.07473 0
M  V30 4545 C 442.437 1.27143 -0.984444 0
M  V30 4546 O 443.627 1.21633 -1.24703 0
M  V30 4547 C 440.759 2.29849 -2.51759 0
M  V30 4548 H 441.952 0.54262 -2.9495 0
M  V30 4549 H 439.505 0.245829 -1.54355 0
M  V30 4550 H 440.24 2.77677 -1.67529 0
M  V30 4551 H 440.025 2.09584 -3.31386 0
M  V30 4552 H 441.515 2.9984 -2.90664 0
M  V30 4553 N 441.952 1.55251 0.271103 0
M  V30 4554 C 443.363 1.66635 0.842007 0
M  V30 4555 C 443.714 0.594631 1.86972 0
M  V30 4556 O 442.839 -0.263532 2.14789 0
M  V30 4557 C 443.434 3.02082 1.53401 0
M  V30 4558 C 441.993 3.15487 2.05293 0
M  V30 4559 C 441.14 2.62438 0.895631 0
M  V30 4560 H 444.091 1.58629 0.0474117 0
M  V30 4561 H 444.112 2.95176 2.40107 0
M  V30 4562 H 443.624 3.80062 0.785786 0
M  V30 4563 H 441.725 2.42284 2.83071 0
M  V30 4564 H 441.838 4.22075 2.26693 0
M  V30 4565 H 440.202 2.19644 1.28953 0
M  V30 4566 H 440.985 3.42923 0.160878 0
M  V30 4567 N 443.43 -0.535701 1.48216 0
M  V30 4568 C 444.36 -1.65014 1.65204 0
M  V30 4569 C 445.341 -1.62554 0.501011 0
M  V30 4570 O 446.526 -1.7984 0.732886 0
M  V30 4571 C 443.656 -3.03616 1.68626 0
M  V30 4572 C 442.61 -3.20932 2.83172 0
M  V30 4573 C 441.936 -4.60537 2.71679 0
M  V30 4574 C 443.236 -3.04249 4.24535 0
M  V30 4575 H 444.93 -1.51053 2.58502 0
M  V30 4576 H 442.476 -0.725262 1.24402 0
M  V30 4577 H 444.429 -3.81446 1.79099 0
M  V30 4578 H 443.153 -3.18587 0.719026 0
M  V30 4579 H 441.812 -2.45517 2.72244 0
M  V30 4580 H 441.46 -4.72336 1.72937 0
M  V30 4581 H 441.16 -4.73069 3.48538 0
M  V30 4582 H 442.684 -5.40475 2.84112 0
M  V30 4583 H 444.098 -3.71877 4.36326 0
M  V30 4584 H 442.495 -3.28278 5.02348 0
M  V30 4585 H 443.565 -2.00739 4.41397 0
M  V30 4586 N 444.908 -1.36708 -0.784132 0
M  V30 4587 C 445.871 -1.31307 -1.87859 0
M  V30 4588 C 446.871 -0.219654 -1.59293 0
M  V30 4589 O 448.061 -0.47476 -1.67606 0
M  V30 4590 C 445.193 -1.03679 -3.24751 0
M  V30 4591 H 446.386 -2.28647 -1.94064 0
M  V30 4592 H 443.939 -1.21558 -0.98252 0
M  V30 4593 H 444.674 -0.0681936 -3.24228 0
M  V30 4594 H 444.459 -1.82811 -3.46876 0
M  V30 4595 H 445.949 -1.02518 -4.04821 0
M  V30 4596 N 446.386 1.0089 -1.21074 0
M  V30 4597 C 447.334 2.11707 -0.963476 0
M  V30 4598 C 448.328 1.69172 0.0879032 0
M  V30 4599 O 449.534 1.79889 -0.0631415 0
M  V30 4600 H 445.909 0.692026 -0.294287 0
M  V30 4601 H 447.88 2.29743 -1.90422 0
M  V30 4602 C 446.629 3.43473 -0.540509 0
M  V30 4603 H 445.952 3.76634 -1.34114 0
M  V30 4604 H 447.392 4.22044 -0.406777 0
M  V30 4605 C 445.851 3.2849 0.748079 0
M  V30 4606 O 446.381 3.58883 1.8046 0
M  V30 4607 N 444.587 2.81715 0.713081 0
M  V30 4608 H 444.134 2.5718 -0.146973 0
M  V30 4609 H 444.092 2.72071 1.57558 0
M  V30 4610 N 447.864 1.01787 1.20321 0
M  V30 4611 C 449.112 0.706538 1.89347 0
M  V30 4612 C 449.433 -0.766289 1.79313 0
M  V30 4613 O 448.703 -1.55126 1.19635 0
M  V30 4614 H 447.283 0.258348 0.700903 0
M  V30 4615 H 449.945 1.28974 1.46122 0
M  V30 4616 H 449.041 0.991066 2.95946 0
M  V30 4617 N 449.342 -1.36122 0.79427 0
M  V30 4618 C 450.758 -1.5232 0.476525 0
M  V30 4619 C 450.958 -1.74685 -1.00436 0
M  V30 4620 O 450.014 -1.78115 -1.78973 0
M  V30 4621 C 451.327 -2.70607 1.31119 0
M  V30 4622 C 452.875 -2.8448 1.30537 0
M  V30 4623 C 453.35 -4.05778 2.12387 0
M  V30 4624 N 454.841 -4.12933 2.09859 0
M  V30 4625 C 455.576 -5.05876 2.69957 0
M  V30 4626 N 455.072 -6.04232 3.38934 0
M  V30 4627 N 456.865 -4.98528 2.59665 0
M  V30 4628 H 449.016 -1.1986 1.75349 0
M  V30 4629 H 451.279 -0.585418 0.745647 0
M  V30 4630 H 450.985 -2.60619 2.36158 0
M  V30 4631 H 450.859 -3.64888 0.955843 0
M  V30 4632 H 453.246 -2.93927 0.262876 0
M  V30 4633 H 453.327 -1.91093 1.70051 0
M  V30 4634 H 452.971 -3.97092 3.1667 0
M  V30 4635 H 452.901 -4.98323 1.70242 0
M  V30 4636 H 455.392 -3.42515 1.59662 0
M  V30 4637 H 455.705 -6.71724 3.82109 0
M  V30 4638 H 454.05 -6.04443 3.43036 0
M  V30 4639 H 457.241 -4.20641 2.05375 0
M  V30 4640 H 457.414 -5.70773 3.06793 0
M  V30 4641 N 450.82 -0.546701 -1.47814 0
M  V30 4642 C 451.783 0.196287 -2.28358 0
M  V30 4643 C 452.783 0.852437 -1.36346 0
M  V30 4644 O 453.973 0.709913 -1.59078 0
M  V30 4645 C 451.105 1.28579 -3.15722 0
M  V30 4646 H 452.298 -0.511086 -2.95513 0
M  V30 4647 H 449.851 -0.303248 -1.5333 0
M  V30 4648 H 450.586 2.0259 -2.53235 0
M  V30 4649 H 450.371 0.820229 -3.83425 0
M  V30 4650 H 451.861 1.80793 -3.76435 0
M  V30 4651 N 452.299 1.55045 -0.282633 0
M  V30 4652 C 453.547 1.99365 0.331334 0
M  V30 4653 C 453.868 1.1725 1.55812 0
M  V30 4654 O 453.138 0.263871 1.94115 0
M  V30 4655 H 451.718 0.736397 0.125414 0
M  V30 4656 H 454.38 1.90964 -0.389711 0
M  V30 4657 H 453.476 3.0596 0.616036 0
M  V30 4658 N 453.777 0.010035 1.57597 0
M  V30 4659 C 454.724 -0.978122 2.09049 0
M  V30 4660 C 455.694 -1.33509 0.988159 0
M  V30 4661 O 456.879 -1.43172 1.26121 0
M  V30 4662 C 454.019 -2.26158 2.60666 0
M  V30 4663 C 453.132 -1.96275 3.84838 0
M  V30 4664 C 452.267 -3.18776 4.24918 0
M  V30 4665 C 451.306 -2.84625 5.41899 0
M  V30 4666 N 450.443 -3.99693 5.77226 0
M  V30 4667 H 455.283 -0.532431 2.93205 0
M  V30 4668 H 452.82 -0.251234 1.44939 0
M  V30 4669 H 454.778 -3.01202 2.88675 0
M  V30 4670 H 453.408 -2.68378 1.79369 0
M  V30 4671 H 452.46 -1.11555 3.63675 0
M  V30 4672 H 453.772 -1.67111 4.69974 0
M  V30 4673 H 452.926 -4.02157 4.54262 0
M  V30 4674 H 451.665 -3.51087 3.38511 0
M  V30 4675 H 450.67 -1.99653 5.12268 0
M  V30 4676 H 451.895 -2.53551 6.29991 0
M  V30 4677 H 449.841 -4.31882 4.93776 0
M  V30 4678 H 449.758 -3.74087 6.56959 0
M  V30 4679 H 451.026 -4.83834 6.11167 0
M  V30 4680 N 455.255 -1.55392 -0.262866 0
M  V30 4681 C 456.671 -1.47459 -0.610582 0
M  V30 4682 C 456.871 -0.697031 -1.8906 0
M  V30 4683 O 455.927 -0.219952 -2.5154 0
M  V30 4684 C 457.24 -2.91751 -0.728131 0
M  V30 4685 C 458.788 -3.02027 -0.821517 0
M  V30 4686 C 459.263 -4.47594 -0.97076 0
M  V30 4687 N 460.754 -4.51465 -1.03603 0
M  V30 4688 C 461.489 -5.61326 -1.17049 0
M  V30 4689 N 460.985 -6.81032 -1.2715 0
M  V30 4690 N 462.778 -5.49089 -1.20239 0
M  V30 4691 H 454.929 -2.04395 0.577632 0
M  V30 4692 H 457.192 -0.927287 0.197086 0
M  V30 4693 H 456.898 -3.51413 0.142132 0
M  V30 4694 H 456.772 -3.4134 -1.6052 0
M  V30 4695 H 459.159 -2.42456 -1.68224 0
M  V30 4696 H 459.24 -2.55674 0.0803688 0
M  V30 4697 H 458.884 -5.07771 -0.114655 0
M  V30 4698 H 458.814 -4.91613 -1.88745 0
M  V30 4699 H 461.305 -3.6524 -0.96996 0
M  V30 4700 H 461.618 -7.60511 -1.37271 0
M  V30 4701 H 459.963 -6.83824 -1.24136 0
M  V30 4702 H 463.154 -4.54507 -1.11985 0
M  V30 4703 H 463.327 -6.34749 -1.30373 0
M  V30 4704 N 456.733 0.527833 -1.48498 0
M  V30 4705 C 458.149 0.856571 -1.34666 0
M  V30 4706 C 458.349 1.98271 -0.35931 0
M  V30 4707 O 457.405 2.51551 0.218703 0
M  V30 4708 C 458.718 1.22207 -2.74747 0
M  V30 4709 C 460.266 1.33183 -2.83251 0
M  V30 4710 C 460.741 1.73075 -4.24039 0
M  V30 4711 N 462.232 1.80174 -4.26722 0
M  V30 4712 C 462.967 2.1243 -5.32598 0
M  V30 4713 N 462.463 2.43096 -6.4875 0
M  V30 4714 N 464.256 2.13454 -5.19994 0
M  V30 4715 H 456.407 -0.215174 -2.11307 0
M  V30 4716 H 458.67 -0.0336281 -0.947403 0
M  V30 4717 H 458.376 0.468195 -3.4857 0
M  V30 4718 H 458.25 2.17173 -3.08409 0
M  V30 4719 H 460.637 2.07647 -2.09683 0
M  V30 4720 H 460.718 0.363333 -2.53206 0
M  V30 4721 H 460.362 0.991712 -4.98124 0
M  V30 4722 H 460.292 2.70979 -4.51529 0
M  V30 4723 H 462.783 1.58744 -3.42942 0
M  V30 4724 H 463.096 2.6682 -7.25277 0
M  V30 4725 H 461.441 2.40611 -6.52021 0
M  V30 4726 H 464.632 1.88956 -4.28268 0
M  V30 4727 H 464.805 2.38261 -6.02608 0
M  V30 4728 N 458.211 1.37122 0.776871 0
M  V30 4729 C 459.622 1.28667 1.35284 0
M  V30 4730 C 459.973 -0.0680035 1.96082 0
M  V30 4731 O 459.098 -0.969743 1.93455 0
M  V30 4732 C 459.693 2.32997 2.45963 0
M  V30 4733 C 458.252 2.28191 2.99342 0
M  V30 4734 C 457.399 2.17101 1.72517 0
M  V30 4735 H 460.35 1.47819 0.577527 0
M  V30 4736 H 460.371 1.97366 3.2531 0
M  V30 4737 H 459.883 3.3158 2.01684 0
M  V30 4738 H 457.984 1.33115 3.4801 0
M  V30 4739 H 458.097 3.21397 3.55304 0
M  V30 4740 H 456.461 1.63562 1.95242 0
M  V30 4741 H 457.244 3.17591 1.30348 0
M  V30 4742 N 459.689 -1.00246 1.21608 0
M  V30 4743 C 460.914 -1.78167 1.06167 0
M  V30 4744 C 461.339 -1.84138 -0.384035 0
M  V30 4745 O 460.697 -1.28683 -1.27712 0
M  V30 4746 C 460.745 -3.19786 1.66642 0
M  V30 4747 O 459.849 -4.02153 0.913613 0
M  V30 4748 H 459.19 -0.549 0.37349 0
M  V30 4749 H 461.72 -1.25994 1.61204 0
M  V30 4750 H 461.73 -3.70451 1.70969 0
M  V30 4751 H 460.405 -3.14754 2.7185 0
M  V30 4752 H 458.982 -3.60711 0.945635 0
M  V30 4753 N 461.167 -1.02423 -1.1978 0
M  V30 4754 C 462.583 -0.740459 -1.41384 0
M  V30 4755 C 462.783 0.676827 -1.89793 0
M  V30 4756 O 461.839 1.4435 -2.0717 0
M  V30 4757 C 463.152 -1.77264 -2.42895 0
M  V30 4758 C 464.7 -1.79165 -2.56649 0
M  V30 4759 C 465.175 -2.8133 -3.6141 0
M  V30 4760 N 466.666 -2.80118 -3.68901 0
M  V30 4761 C 467.401 -3.55824 -4.49641 0
M  V30 4762 N 466.897 -4.41231 -5.34123 0
M  V30 4763 N 468.69 -3.44387 -4.44246 0
M  V30 4764 H 460.841 -1.9391 -0.866764 0
M  V30 4765 H 463.104 -0.838074 -0.443098 0
M  V30 4766 H 462.81 -2.7884 -2.14339 0
M  V30 4767 H 462.684 -1.59108 -3.42001 0
M  V30 4768 H 465.071 -0.782702 -2.84531 0
M  V30 4769 H 465.152 -2.01396 -1.57713 0
M  V30 4770 H 464.796 -3.82394 -3.34271 0
M  V30 4771 H 464.726 -2.56359 -4.59986 0
M  V30 4772 H 467.217 -2.1817 -3.08562 0
M  V30 4773 H 467.53 -4.95747 -5.92836 0
M  V30 4774 H 465.875 -4.45306 -5.33599 0
M  V30 4775 H 469.066 -2.7708 -3.77285 0
M  V30 4776 H 469.239 -4.0364 -5.06931 0
M  V30 4777 N 462.645 1.35699 -0.801477 0
M  V30 4778 C 463.575 2.32436 -0.222658 0
M  V30 4779 C 464.556 1.5723 0.649057 0
M  V30 4780 O 465.741 1.85324 0.580387 0
M  V30 4781 C 462.871 3.41469 0.633719 0
M  V30 4782 C 461.825 4.27774 -0.139083 0
M  V30 4783 C 461.151 5.28082 0.838666 0
M  V30 4784 C 462.451 5.04946 -1.33517 0
M  V30 4785 H 464.145 2.81094 -1.03086 0
M  V30 4786 H 461.691 1.35146 -0.497155 0
M  V30 4787 H 463.644 4.08143 1.04868 0
M  V30 4788 H 462.368 2.91408 1.47475 0
M  V30 4789 H 461.027 3.62673 -0.535156 0
M  V30 4790 H 460.675 4.7429 1.67506 0
M  V30 4791 H 460.375 5.86695 0.32594 0
M  V30 4792 H 461.899 5.97628 1.25194 0
M  V30 4793 H 463.313 5.64593 -0.995349 0
M  V30 4794 H 461.71 5.7303 -1.78202 0
M  V30 4795 H 462.78 4.35886 -2.12442 0
M  V30 4796 N 464.123 0.554532 1.47522 0
M  V30 4797 C 465.369 0.0295227 2.02779 0
M  V30 4798 C 465.702 -1.31582 1.42828 0
M  V30 4799 O 464.977 -1.85561 0.582872 0
M  V30 4800 C 465.26 -0.0664057 3.60039 0
M  V30 4801 C 465.113 1.30585 4.30427 0
M  V30 4802 C 466.432 -0.781162 4.33112 0
M  V30 4803 H 463.551 0.0122027 0.736899 0
M  V30 4804 H 466.193 0.716305 1.7598 0
M  V30 4805 H 464.343 -0.651307 3.83002 0
M  V30 4806 H 466.015 1.93374 4.18813 0
M  V30 4807 H 464.258 1.88125 3.90886 0
M  V30 4808 H 464.929 1.19147 5.38988 0
M  V30 4809 H 467.405 -0.284565 4.15126 0
M  V30 4810 H 466.281 -0.817237 5.42782 0
M  V30 4811 H 466.542 -1.83672 4.0214 0
M  V30 4812 N 465.601 -1.54893 0.290851 0
M  V30 4813 C 466.564 -2.21824 -0.576784 0
M  V30 4814 C 467.564 -1.20104 -1.06919 0
M  V30 4815 O 468.754 -1.44906 -0.966843 0
M  V30 4816 C 465.886 -2.89662 -1.79747 0
M  V30 4817 H 467.079 -2.99899 0.00784051 0
M  V30 4818 H 464.632 -1.56245 0.0415934 0
M  V30 4819 H 465.367 -2.15639 -2.42219 0
M  V30 4820 H 465.152 -3.64219 -1.45214 0
M  V30 4821 H 466.642 -3.4075 -2.4141 0
M  V30 4822 N 467.08 -0.0183926 -1.57589 0
M  V30 4823 C 468.01 0.965596 -2.12599 0
M  V30 4824 C 468.991 1.34641 -1.0395 0
M  V30 4825 O 470.176 1.42693 -1.31729 0
M  V30 4826 C 467.306 2.25149 -2.64434 0
M  V30 4827 C 466.26 2.01175 -3.77773 0
M  V30 4828 C 465.586 3.35937 -4.15994 0
M  V30 4829 C 466.886 1.35953 -5.04296 0
M  V30 4830 H 468.58 0.507504 -2.95067 0
M  V30 4831 H 466.126 0.242671 -1.41941 0
M  V30 4832 H 468.079 2.94357 -3.01549 0
M  V30 4833 H 466.803 2.73105 -1.79112 0
M  V30 4834 H 465.462 1.34388 -3.4108 0
M  V30 4835 H 465.11 3.81631 -3.27669 0
M  V30 4836 H 464.81 3.20705 -4.92364 0
M  V30 4837 H 466.334 4.0643 -4.55683 0
M  V30 4838 H 467.748 1.95144 -5.39065 0
M  V30 4839 H 466.145 1.31152 -5.85593 0
M  V30 4840 H 467.215 0.331071 -4.83768 0
M  V30 4841 N 468.558 1.5553 0.254621 0
M  V30 4842 C 469.974 1.4778 0.602753 0
M  V30 4843 C 470.174 0.707047 1.88688 0
M  V30 4844 O 469.23 0.233288 2.5142 0
M  V30 4845 C 470.543 2.92133 0.712648 0
M  V30 4846 C 472.091 3.02458 0.805488 0
M  V30 4847 C 472.566 4.48102 0.947009 0
M  V30 4848 N 474.057 4.52008 1.01207 0
M  V30 4849 C 474.792 5.61939 1.1407 0
M  V30 4850 N 474.288 6.81697 1.23536 0
M  V30 4851 N 476.081 5.49719 1.17325 0
M  V30 4852 H 468.232 2.04085 -0.588463 0
M  V30 4853 H 470.495 0.926229 -0.202001 0
M  V30 4854 H 470.201 3.51332 -0.160766 0
M  V30 4855 H 470.075 3.42187 1.58707 0
M  V30 4856 H 472.462 2.43344 1.66936 0
M  V30 4857 H 472.543 2.55627 -0.0939266 0
M  V30 4858 H 472.187 5.07824 0.087725 0
M  V30 4859 H 472.117 4.92607 1.86135 0
M  V30 4860 H 474.608 3.65749 0.950577 0
M  V30 4861 H 474.921 7.61228 1.33236 0
M  V30 4862 H 473.266 6.84473 1.20508 0
M  V30 4863 H 476.457 4.55095 1.09573 0
M  V30 4864 H 476.63 6.35432 1.27005 0
M  V30 4865 N 470.036 -0.519951 1.48776 0
M  V30 4866 C 470.946 -1.65025 1.66745 0
M  V30 4867 C 471.962 -1.6508 0.549954 0
M  V30 4868 O 473.138 -1.83848 0.822295 0
M  V30 4869 C 470.203 -3.0146 1.71238 0
M  V30 4870 C 469.264 -3.12182 2.94688 0
M  V30 4871 C 468.497 -4.42109 2.98958 0
M  V30 4872 O 468.72 -5.29799 2.1135 0
M  V30 4873 O 467.654 -4.57406 3.91233 0
M  V30 4874 H 471.48 -1.52801 2.62461 0
M  V30 4875 H 469.065 -0.694157 1.32294 0
M  V30 4876 H 470.947 -3.82584 1.76657 0
M  V30 4877 H 469.622 -3.13988 0.786975 0
M  V30 4878 H 468.529 -2.30316 2.94797 0
M  V30 4879 H 469.862 -3.04574 3.86646 0
M  V30 4880 N 471.514 -1.37532 -0.769588 0
M  V30 4881 C 472.446 -1.29347 -1.89214 0
M  V30 4882 C 473.459 -0.208842 -1.61455 0
M  V30 4883 O 474.648 -0.465158 -1.72333 0
M  V30 4884 C 471.748 -0.977649 -3.24492 0
M  V30 4885 C 470.921 -2.16817 -3.7988 0
M  V30 4886 C 469.98 -1.82229 -4.93639 0
M  V30 4887 O 469.006 -2.54548 -5.09111 0
M  V30 4888 N 470.208 -0.767696 -5.75401 0
M  V30 4889 H 472.973 -2.26073 -1.96751 0
M  V30 4890 H 470.534 -1.31185 -0.948795 0
M  V30 4891 H 472.526 -0.727065 -3.98115 0
M  V30 4892 H 471.096 -0.0988777 -3.12444 0
M  V30 4893 H 470.316 -2.58038 -2.9801 0
M  V30 4894 H 471.604 -2.96308 -4.13617 0
M  V30 4895 H 471.002 -0.167626 -5.65452 0
M  V30 4896 H 469.559 -0.576973 -6.49241 0
M  V30 4897 N 472.992 0.995999 -1.22138 0
M  V30 4898 C 473.939 2.08551 -0.988687 0
M  V30 4899 C 474.909 1.65864 0.0885021 0
M  V30 4900 O 476.094 1.90704 -0.0604589 0
M  V30 4901 C 473.234 3.40374 -0.569191 0
M  V30 4902 C 472.347 3.96421 -1.71681 0
M  V30 4903 C 471.482 5.1639 -1.2456 0
M  V30 4904 C 470.521 5.64567 -2.36497 0
M  V30 4905 N 469.658 6.75777 -1.90445 0
M  V30 4906 H 474.498 2.2779 -1.92135 0
M  V30 4907 H 472.035 1.1168 -0.957388 0
M  V30 4908 H 473.993 4.16068 -0.307166 0
M  V30 4909 H 472.623 3.21145 0.326462 0
M  V30 4910 H 471.675 3.17628 -2.09324 0
M  V30 4911 H 472.987 4.2816 -2.55891 0
M  V30 4912 H 472.141 5.99362 -0.940774 0
M  V30 4913 H 470.88 4.86266 -0.373662 0
M  V30 4914 H 469.885 4.80185 -2.67772 0
M  V30 4915 H 471.11 5.96716 -3.24202 0
M  V30 4916 H 469.056 6.47443 -1.05609 0
M  V30 4917 H 468.973 7.06818 -2.68223 0
M  V30 4918 H 470.241 7.62262 -1.63022 0
M  V30 4919 N 474.47 1.03057 1.19235 0
M  V30 4920 C 475.433 0.617418 2.20727 0
M  V30 4921 C 476.433 -0.319856 1.57587 0
M  V30 4922 O 477.623 -0.106633 1.73873 0
M  V30 4923 C 474.755 -0.096296 3.40764 0
M  V30 4924 H 475.948 1.51544 2.58794 0
M  V30 4925 H 473.501 0.821949 1.32942 0
M  V30 4926 H 474.236 -1.00859 3.08217 0
M  V30 4927 H 474.021 0.577217 3.87828 0
M  V30 4928 H 475.511 -0.372219 4.15938 0
M  V30 4929 N 475.948 -1.35272 0.808662 0
M  V30 4930 C 476.878 -2.32315 0.234981 0
M  V30 4931 C 477.859 -1.57572 -0.64071 0
M  V30 4932 O 479.044 -1.8563 -0.570551 0
M  V30 4933 C 476.174 -3.41801 -0.615601 0
M  V30 4934 C 475.128 -4.27694 0.161767 0
M  V30 4935 C 474.454 -5.28519 -0.810649 0
M  V30 4936 C 475.754 -5.04231 1.36193 0
M  V30 4937 H 477.448 -2.80543 1.04575 0
M  V30 4938 H 474.994 -1.3488 0.504315 0
M  V30 4939 H 476.947 -4.08693 -1.02702 0
M  V30 4940 H 475.671 -2.92186 -1.45928 0
M  V30 4941 H 474.33 -3.62384 0.554382 0
M  V30 4942 H 473.978 -4.75171 -1.64988 0
M  V30 4943 H 473.678 -5.8686 -0.294822 0
M  V30 4944 H 475.202 -5.98283 -1.22023 0
M  V30 4945 H 476.616 -5.64058 1.02528 0
M  V30 4946 H 475.013 -5.72077 1.81239 0
M  V30 4947 H 476.083 -4.34753 2.14751 0
M  V30 4948 N 477.426 -0.562348 -1.47226 0
M  V30 4949 C 478.373 0.182461 -2.30078 0
M  V30 4950 C 479.343 0.903503 -1.39377 0
M  V30 4951 O 480.528 0.898188 -1.68337 0
M  V30 4952 C 477.668 1.20322 -3.23445 0
M  V30 4953 C 476.781 0.487717 -4.29238 0
M  V30 4954 C 475.916 1.49422 -5.09752 0
M  V30 4955 C 474.955 0.763976 -6.07314 0
M  V30 4956 N 474.092 1.71755 -6.80768 0
M  V30 4957 H 478.932 -0.530169 -2.93246 0
M  V30 4958 H 476.469 -0.273276 -1.44539 0
M  V30 4959 H 478.427 1.80768 -3.76004 0
M  V30 4960 H 477.057 1.88382 -2.6213 0
M  V30 4961 H 476.109 -0.231374 -3.79696 0
M  V30 4962 H 477.421 -0.0841003 -4.98729 0
M  V30 4963 H 476.575 2.17206 -5.66486 0
M  V30 4964 H 475.314 2.09995 -4.40174 0
M  V30 4965 H 474.319 0.0722344 -5.49753 0
M  V30 4966 H 475.544 0.16391 -6.78902 0
M  V30 4967 H 473.49 2.31177 -6.13916 0
M  V30 4968 H 473.407 1.19802 -7.46447 0
M  V30 4969 H 474.675 2.38638 -7.42073 0
M  V30 4970 N 478.904 1.54736 -0.299062 0
M  V30 4971 C 480.132 2.04512 0.313447 0
M  V30 4972 C 480.547 1.17643 1.47667 0
M  V30 4973 O 479.904 0.20164 1.81383 0
M  V30 4974 C 479.955 3.53171 0.771542 0
M  V30 4975 O 479.676 4.36736 -0.345379 0
M  V30 4976 C 481.177 4.18936 1.4494 0
M  V30 4977 H 478.397 0.667507 0.0683784 0
M  V30 4978 H 480.941 1.99752 -0.438129 0
M  V30 4979 H 479.096 3.58298 1.47314 0
M  V30 4980 H 479.51 5.24499 0.0109219 0
M  V30 4981 H 480.984 5.24482 1.72111 0
M  V30 4982 H 481.461 3.68554 2.38883 0
M  V30 4983 H 482.067 4.17879 0.791028 0
M  V30 4984 N 480.382 0.0267497 1.57577 0
M  V30 4985 C 481.312 -0.954308 2.13108 0
M  V30 4986 C 482.293 -1.34088 1.04663 0
M  V30 4987 O 483.478 -1.41992 1.32484 0
M  V30 4988 C 480.608 -2.23744 2.65624 0
M  V30 4989 C 479.562 -1.99168 3.78835 0
M  V30 4990 C 478.888 -3.33726 4.17769 0
M  V30 4991 C 480.188 -1.33277 5.0501 0
M  V30 4992 H 481.882 -0.491848 2.95332 0
M  V30 4993 H 479.428 -0.23514 1.42067 0
M  V30 4994 H 481.381 -2.92754 3.03106 0
M  V30 4995 H 480.105 -2.72151 1.80558 0
M  V30 4996 H 478.764 -1.32577 3.41788 0
M  V30 4997 H 478.412 -3.79888 3.29688 0
M  V30 4998 H 478.112 -3.18089 4.94058 0
M  V30 4999 H 479.636 -4.04008 4.57832 0
M  V30 5000 H 481.05 -1.92283 5.40093 0
M  V30 5001 H 479.447 -1.28045 5.8628 0
M  V30 5002 H 480.517 -0.305411 4.83937 0
M  V30 5003 N 481.861 -1.55662 -0.24637 0
M  V30 5004 C 483.109 -1.77168 -0.972411 0
M  V30 5005 C 483.43 -0.590827 -1.85834 0
M  V30 5006 O 482.7 0.393365 -1.9191 0
M  V30 5007 H 481.28 -0.653405 -0.362038 0
M  V30 5008 H 483.942 -1.93101 -0.264189 0
M  V30 5009 H 483.038 -2.68335 -1.59382 0
M  V30 5010 N 483.339 0.512053 -1.4905 0
M  V30 5011 C 484.588 1.26343 -1.57227 0
M  V30 5012 C 484.901 1.93876 -0.259155 0
M  V30 5013 O 486.107 2.70612 -0.219358 0
M  V30 5014 C 484.563 2.29343 -2.77362 0
M  V30 5015 C 484.171 1.67799 -4.15388 0
M  V30 5016 C 485.915 3.05378 -2.94864 0
M  V30 5017 C 483.822 2.68845 -5.2676 0
M  V30 5018 H 482.752 0.475231 -0.585382 0
M  V30 5019 H 485.403 0.53862 -1.75417 0
M  V30 5020 H 483.785 3.04938 -2.52643 0
M  V30 5021 H 484.959 0.982715 -4.50199 0
M  V30 5022 H 483.274 1.04194 -4.03153 0
M  V30 5023 H 485.871 3.80921 -3.75238 0
M  V30 5024 H 486.214 3.62327 -2.05 0
M  V30 5025 H 486.747 2.36898 -3.19569 0
M  V30 5026 H 483.486 2.16692 -6.18647 0
M  V30 5027 H 483.006 3.36647 -4.96416 0
M  V30 5028 H 484.685 3.31487 -5.5563 0
M  V30 5029 N 484.817 1.37938 0.762283 0
M  V30 5030 C 486.066 1.32989 1.51647 0
M  V30 5031 C 486.379 -0.0802922 1.95435 0
M  V30 5032 O 487.585 -0.252295 2.70325 0
M  V30 5033 C 486.041 2.33485 2.73885 0
M  V30 5034 C 485.649 3.80079 2.37157 0
M  V30 5035 C 487.393 2.37563 3.51801 0
M  V30 5036 C 485.3 4.72283 3.55954 0
M  V30 5037 H 484.23 0.494301 0.56937 0
M  V30 5038 H 486.881 1.63448 0.834083 0
M  V30 5039 H 485.263 1.96056 3.44061 0
M  V30 5040 H 486.437 4.26398 1.74704 0
M  V30 5041 H 484.752 3.79037 1.72395 0
M  V30 5042 H 487.349 3.0365 4.40114 0
M  V30 5043 H 487.692 1.39199 3.92338 0
M  V30 5044 H 488.225 2.73747 2.8863 0
M  V30 5045 H 484.964 5.7181 3.2049 0
M  V30 5046 H 484.484 4.30663 4.1748 0
M  V30 5047 H 486.163 4.89876 4.22647 0
M  V30 5048 N 486.295 -0.989507 1.22664 0
M  V30 5049 C 487.228 -2.07805 0.942985 0
M  V30 5050 C 488.206 -1.6219 -0.115356 0
M  V30 5051 O 489.39 -1.88492 0.0169565 0
M  V30 5052 C 486.517 -3.361 0.418898 0
M  V30 5053 C 485.563 -4.00643 1.46244 0
M  V30 5054 S 486.396 -4.41059 3.03689 0
M  V30 5055 C 487.552 -5.7252 2.52927 0
M  V30 5056 H 487.785 -2.31547 1.86476 0
M  V30 5057 H 485.318 -1.12446 1.05808 0
M  V30 5058 H 487.276 -4.10315 0.123114 0
M  V30 5059 H 485.937 -3.10383 -0.481818 0
M  V30 5060 H 485.13 -4.93033 1.04569 0
M  V30 5061 H 484.732 -3.32767 1.7071 0
M  V30 5062 H 487.024 -6.49017 1.94379 0
M  V30 5063 H 487.967 -6.19026 3.4382 0
M  V30 5064 H 488.375 -5.30083 1.94094 0
M  V30 5065 N 487.773 -1.03688 -1.18687 0
M  V30 5066 C 489.021 -0.736572 -1.88199 0
M  V30 5067 C 489.342 0.737665 -1.80509 0
M  V30 5068 O 488.612 1.53204 -1.22088 0
M  V30 5069 H 487.192 -0.269466 -0.696704 0
M  V30 5070 H 489.854 -1.31282 -1.44052 0
M  V30 5071 H 488.95 -1.03802 -2.94332 0
M  V30 5072 N 489.251 1.34841 -0.815825 0
M  V30 5073 C 490.497 1.98793 -0.401129 0
M  V30 5074 C 490.83 1.64548 1.03139 0
M  V30 5075 O 490.105 0.913487 1.71714 0
M  V30 5076 C 490.388 3.55143 -0.595409 0
M  V30 5077 C 490.241 3.99155 -2.07352 0
M  V30 5078 C 491.56 4.40092 -0.0268823 0
M  V30 5079 H 488.679 0.722146 -0.14722 0
M  V30 5080 H 491.321 1.59847 -1.02707 0
M  V30 5081 H 489.471 3.8845 -0.0625779 0
M  V30 5082 H 491.143 3.76216 -2.66945 0
M  V30 5083 H 489.386 3.49726 -2.56659 0
M  V30 5084 H 490.057 5.07971 -2.1603 0
M  V30 5085 H 492.533 4.13298 -0.482042 0
M  V30 5086 H 491.409 5.48562 -0.19267 0
M  V30 5087 H 491.67 4.29016 1.06759 0
M  V30 5088 N 490.729 0.570148 1.46925 0
M  V30 5089 C 491.976 0.0509529 2.02436 0
M  V30 5090 C 492.304 -1.30405 1.44308 0
M  V30 5091 O 491.559 -1.86493 0.593198 0
M  V30 5092 C 491.858 -0.0780336 3.57315 0
M  V30 5093 C 491.524 1.20775 4.34424 0
M  V30 5094 C 490.186 1.56004 4.5521 0
M  V30 5095 C 492.538 2.0592 4.78797 0
M  V30 5096 C 489.866 2.76201 5.17619 0
M  V30 5097 C 492.218 3.25332 5.42533 0
M  V30 5098 C 490.882 3.60859 5.61549 0
M  V30 5099 H 490.152 0.018645 0.740765 0
M  V30 5100 H 492.799 0.744262 1.76445 0
M  V30 5101 H 491.104 -0.854394 3.82371 0
M  V30 5102 H 492.801 -0.495312 3.97929 0
M  V30 5103 H 489.391 0.923469 4.18533 0
M  V30 5104 H 493.575 1.80008 4.62505 0
M  V30 5105 H 488.831 3.0388 5.30535 0
M  V30 5106 H 493.005 3.91586 5.75876 0
M  V30 5107 H 490.632 4.54088 6.09678 0
M  V30 5108 N 492.207 -1.54576 0.307264 0
M  V30 5109 C 493.435 -2.04675 -0.302597 0
M  V30 5110 C 493.85 -1.18425 -1.47041 0
M  V30 5111 O 493.207 -0.211257 -1.81273 0
M  V30 5112 C 493.258 -3.53575 -0.752801 0
M  V30 5113 O 492.979 -4.36547 0.368536 0
M  V30 5114 C 494.48 -4.19699 -1.42717 0
M  V30 5115 H 491.7 -0.66786 -0.0648374 0
M  V30 5116 H 494.244 -1.99516 0.448716 0
M  V30 5117 H 492.399 -3.59074 -1.45412 0
M  V30 5118 H 492.813 -5.24497 0.0168937 0
M  V30 5119 H 494.287 -5.25388 -1.69327 0
M  V30 5120 H 494.764 -3.69815 -2.36925 0
M  V30 5121 H 495.37 -4.18293 -0.768856 0
M  V30 5122 N 493.685 -0.035106 -1.57561 0
M  V30 5123 C 494.615 0.942993 -2.13612 0
M  V30 5124 C 495.596 1.33531 -1.05373 0
M  V30 5125 O 496.781 1.41287 -1.33235 0
M  V30 5126 C 493.911 2.22332 -2.66807 0
M  V30 5127 C 492.865 1.97156 -3.79886 0
M  V30 5128 C 492.191 3.31506 -4.19533 0
M  V30 5129 C 493.491 1.30596 -5.05709 0
M  V30 5130 H 495.185 0.476179 -2.95589 0
M  V30 5131 H 492.731 0.227602 -1.4219 0
M  V30 5132 H 494.684 2.91142 -3.04654 0
M  V30 5133 H 493.408 2.7119 -1.81999 0
M  V30 5134 H 492.067 1.30763 -3.42486 0
M  V30 5135 H 491.715 3.78134 -3.31698 0
M  V30 5136 H 491.415 3.15465 -4.95738 0
M  V30 5137 H 492.939 4.01574 -4.59968 0
M  V30 5138 H 494.353 1.89416 -5.41105 0
M  V30 5139 H 492.75 1.24934 -5.86951 0
M  V30 5140 H 493.82 0.279742 -4.84092 0
M  V30 5141 N 495.163 1.55791 0.238111 0
M  V30 5142 C 496.403 1.79801 0.972163 0
M  V30 5143 C 496.767 0.606027 1.82185 0
M  V30 5144 O 497.968 0.725079 2.58836 0
M  V30 5145 C 496.239 3.08608 1.80266 0
M  V30 5146 S 497.798 3.53872 2.59461 0
M  V30 5147 H 494.616 0.631418 0.326852 0
M  V30 5148 H 497.218 1.94031 0.239212 0
M  V30 5149 H 495.922 3.93419 1.1683 0
M  V30 5150 H 495.453 2.9714 2.57821 0
M  V30 5151 H 497.468 3.15899 3.82651 0
M  V30 5152 N 496.642 -0.504142 1.49319 0
M  V30 5153 C 497.888 -1.25767 1.59857 0
M  V30 5154 C 498.243 -1.90348 0.280262 0
M  V30 5155 O 497.536 -1.77588 -0.719241 0
M  V30 5156 C 497.73 -2.35021 2.69258 0
M  V30 5157 C 497.559 -1.81154 4.11598 0
M  V30 5158 C 496.329 -1.62596 4.78425 0
M  V30 5159 C 498.527 -1.3252 4.96934 0
M  V30 5160 N 496.509 -1.03625 6.05091 0
M  V30 5161 C 497.88 -0.856633 6.14054 0
M  V30 5162 C 499.935 -1.21063 4.82958 0
M  V30 5163 C 498.638 -0.284841 7.18736 0
M  V30 5164 C 500.664 -0.652815 5.87786 0
M  V30 5165 C 500.026 -0.194461 7.04132 0
M  V30 5166 H 496.125 -0.450293 0.639343 0
M  V30 5167 H 498.709 -0.565344 1.86311 0
M  V30 5168 H 496.88 -3.01719 2.44581 0
M  V30 5169 H 498.612 -3.02061 2.69335 0
M  V30 5170 H 495.367 -1.86873 4.35173 0
M  V30 5171 H 495.791 -0.76076 6.72712 0
M  V30 5172 H 500.433 -1.551 3.93324 0
M  V30 5173 H 498.151 0.0677979 8.08072 0
M  V30 5174 H 501.737 -0.566994 5.79031 0
M  V30 5175 H 500.617 0.230442 7.83861 0
M  V30 5176 N 498.12 -1.38341 -0.754957 0
M  V30 5177 C 499.05 -1.38176 -1.88227 0
M  V30 5178 C 500.031 -0.247873 -1.68284 0
M  V30 5179 O 501.216 -0.45075 -1.88896 0
M  V30 5180 C 498.346 -1.20471 -3.25736 0
M  V30 5181 C 497.3 -2.3105 -3.60278 0
M  V30 5182 C 496.626 -1.98452 -4.96509 0
M  V30 5183 C 497.926 -3.73305 -3.65295 0
M  V30 5184 H 499.62 -2.32512 -1.88622 0
M  V30 5185 H 497.166 -1.1192 -0.906082 0
M  V30 5186 H 499.119 -1.18982 -4.04254 0
M  V30 5187 H 497.843 -0.225965 -3.25817 0
M  V30 5188 H 496.502 -2.31723 -2.84078 0
M  V30 5189 H 496.15 -0.990641 -4.93148 0
M  V30 5190 H 495.85 -2.7251 -5.20588 0
M  V30 5191 H 497.374 -1.98578 -5.77407 0
M  V30 5192 H 498.788 -3.7467 -4.3393 0
M  V30 5193 H 497.185 -4.46557 -4.00883 0
M  V30 5194 H 498.255 -4.05719 -2.65556 0
M  V30 5195 N 499.598 0.982988 -1.23187 0
M  V30 5196 C 501.009 1.53847 -1.05773 0
M  V30 5197 C 501.36 1.92568 0.375744 0
M  V30 5198 O 500.485 1.75783 1.26211 0
M  V30 5199 C 501.08 2.79567 -1.91384 0
M  V30 5200 C 499.639 3.31524 -1.78238 0
M  V30 5201 C 498.786 2.04534 -1.87246 0
M  V30 5202 H 501.737 0.802962 -1.36888 0
M  V30 5203 H 501.758 3.52317 -1.43711 0
M  V30 5204 H 501.27 2.51353 -2.95708 0
M  V30 5205 H 499.371 3.64623 -0.766875 0
M  V30 5206 H 499.484 4.01457 -2.61475 0
M  V30 5207 H 497.848 2.1855 -1.30797 0
M  V30 5208 H 498.631 1.78706 -2.9312 0
M  V30 5209 N 501.076 1.04316 1.18135 0
M  V30 5210 C 502.323 0.74802 1.88178 0
M  V30 5211 C 502.651 -0.72441 1.80506 0
M  V30 5212 O 501.906 -1.54463 1.20165 0
M  V30 5213 C 502.205 1.16271 3.37958 0
M  V30 5214 C 501.871 2.63585 3.65833 0
M  V30 5215 C 500.533 3.03829 3.73151 0
M  V30 5216 C 502.885 3.58822 3.78016 0
M  V30 5217 C 500.213 4.38194 3.90132 0
M  V30 5218 C 502.565 4.92909 3.96514 0
M  V30 5219 C 501.229 5.3282 4.02068 0
M  V30 5220 H 500.499 0.27372 0.688592 0
M  V30 5221 H 503.146 1.30863 1.39811 0
M  V30 5222 H 501.451 0.520938 3.88321 0
M  V30 5223 H 503.148 0.911672 3.90499 0
M  V30 5224 H 499.738 2.31414 3.60757 0
M  V30 5225 H 503.922 3.28875 3.71692 0
M  V30 5226 H 499.178 4.68631 3.92677 0
M  V30 5227 H 503.352 5.66606 4.04883 0
M  V30 5228 H 500.979 6.36943 4.14979 0
M  V30 5229 N 502.554 -1.34406 0.822964 0
M  V30 5230 C 503.801 -1.98284 0.411057 0
M  V30 5231 C 504.129 -1.65245 -1.02588 0
M  V30 5232 O 503.384 -0.91619 -1.72929 0
M  V30 5233 C 503.683 -3.52981 0.560268 0
M  V30 5234 C 503.349 -4.05931 1.96293 0
M  V30 5235 C 502.011 -4.20103 2.34664 0
M  V30 5236 C 504.363 -4.34412 2.87985 0
M  V30 5237 C 501.691 -4.60082 3.64062 0
M  V30 5238 C 504.043 -4.75838 4.16847 0
M  V30 5239 C 502.707 -4.88215 4.55195 0
M  V30 5240 H 501.977 -0.725573 0.150416 0
M  V30 5241 H 504.624 -1.60349 1.04692 0
M  V30 5242 H 502.929 -3.91477 -0.158982 0
M  V30 5243 H 504.626 -4.00385 0.222087 0
M  V30 5244 H 501.216 -3.95363 1.65487 0
M  V30 5245 H 505.4 -4.23001 2.59584 0
M  V30 5246 H 500.656 -4.67856 3.93599 0
M  V30 5247 H 504.83 -4.96834 4.87984 0
M  V30 5248 H 502.457 -5.18952 5.55512 0
M  V30 5249 N 504.032 -0.577932 -1.46621 0
M  V30 5250 C 504.962 0.145917 -2.33044 0
M  V30 5251 C 505.943 0.888412 -1.45056 0
M  V30 5252 O 507.128 0.864812 -1.73881 0
M  V30 5253 C 504.258 1.16322 -3.27241 0
M  V30 5254 C 503.212 0.535868 -4.24632 0
M  V30 5255 C 502.538 1.65929 -5.08303 0
M  V30 5256 C 503.838 -0.523861 -5.19666 0
M  V30 5257 H 505.532 -0.575636 -2.93814 0
M  V30 5258 H 503.078 -0.278272 -1.41286 0
M  V30 5259 H 505.031 1.67793 -3.86553 0
M  V30 5260 H 503.755 1.91498 -2.64567 0
M  V30 5261 H 502.414 0.0422759 -3.66576 0
M  V30 5262 H 502.062 2.40061 -4.42018 0
M  V30 5263 H 501.762 1.2452 -5.74255 0
M  V30 5264 H 503.286 2.17686 -5.70478 0
M  V30 5265 H 504.7 -0.0944059 -5.73222 0
M  V30 5266 H 503.097 -0.858 -5.93935 0
M  V30 5267 H 504.167 -1.41197 -4.63887 0
M  V30 5268 N 505.51 1.54411 -0.315457 0
M  V30 5269 C 506.473 2.22713 0.54142 0
M  V30 5270 C 507.473 1.2179 1.04995 0
M  V30 5271 O 508.663 1.46426 0.943667 0
M  V30 5272 C 505.795 2.92485 1.75116 0
M  V30 5273 H 506.988 2.99849 -0.0555508 0
M  V30 5274 H 504.541 1.56159 -0.0664453 0
M  V30 5275 H 505.276 2.19466 2.38758 0
M  V30 5276 H 505.061 3.66483 1.39401 0
M  V30 5277 H 506.551 3.44548 2.35959 0
M  V30 5278 N 506.988 0.0434614 1.5754 0
M  V30 5279 C 507.936 -0.951465 2.1225 0
M  V30 5280 C 508.93 -1.3274 1.05245 0
M  V30 5281 O 510.136 -1.30795 1.23663 0
M  V30 5282 H 506.511 -0.324667 0.678303 0
M  V30 5283 H 508.482 -0.464855 2.94757 0
M  V30 5284 C 507.231 -2.21972 2.67626 0
M  V30 5285 H 506.554 -1.93923 3.4962 0
M  V30 5286 H 507.994 -2.89765 3.09536 0
M  V30 5287 C 506.453 -2.95919 1.61038 0
M  V30 5288 O 506.983 -3.8857 1.01862 0
M  V30 5289 N 505.189 -2.58511 1.32741 0
M  V30 5290 H 504.736 -1.83244 1.81051 0
M  V30 5291 H 504.694 -3.08296 0.616531 0
M  V30 5292 N 508.466 -1.55915 -0.229846 0
M  V30 5293 C 509.712 -1.78807 -0.956868 0
M  V30 5294 C 510.045 -0.611687 -1.84315 0
M  V30 5295 O 509.32 0.389398 -1.90562 0
M  V30 5296 C 509.603 -3.11718 -1.80288 0
M  V30 5297 C 509.456 -4.3979 -0.943649 0
M  V30 5298 C 510.775 -3.40999 -2.78222 0
M  V30 5299 H 507.894 -0.6505 -0.346437 0
M  V30 5300 H 510.536 -1.88648 -0.226252 0
M  V30 5301 H 508.686 -3.03459 -2.42579 0
M  V30 5302 H 510.358 -4.60059 -0.338121 0
M  V30 5303 H 508.601 -4.33086 -0.248705 0
M  V30 5304 H 509.272 -5.29208 -1.5698 0
M  V30 5305 H 511.748 -3.49332 -2.26067 0
M  V30 5306 H 510.624 -4.35183 -3.34526 0
M  V30 5307 H 510.885 -2.62754 -3.55546 0
M  V30 5308 N 509.944 0.496216 -1.49584 0
M  V30 5309 C 511.19 1.25189 -1.59548 0
M  V30 5310 C 511.523 1.9212 -0.283466 0
M  V30 5311 O 510.798 1.80947 0.713324 0
M  V30 5312 C 511.081 2.31516 -2.75812 0
M  V30 5313 C 510.934 1.69054 -4.16822 0
M  V30 5314 C 512.253 3.3304 -2.87702 0
M  V30 5315 H 509.372 0.45379 -0.580727 0
M  V30 5316 H 512.014 0.549327 -1.81886 0
M  V30 5317 H 510.164 2.91438 -2.56897 0
M  V30 5318 H 511.836 1.12923 -4.47265 0
M  V30 5319 H 510.079 0.994485 -4.22247 0
M  V30 5320 H 510.75 2.462 -4.94054 0
M  V30 5321 H 513.226 2.83114 -3.04936 0
M  V30 5322 H 512.102 4.04794 -3.7072 0
M  V30 5323 H 512.363 3.95655 -1.97255 0
M  V30 5324 N 511.423 1.38739 0.74761 0
M  V30 5325 C 512.37 1.36449 1.86146 0
M  V30 5326 C 513.34 0.226098 1.64554 0
M  V30 5327 O 514.525 0.41926 1.86137 0
M  V30 5328 C 511.665 1.2013 3.23516 0
M  V30 5329 C 510.778 2.43407 3.56899 0
M  V30 5330 C 509.913 2.19773 4.83605 0
M  V30 5331 C 508.952 3.3879 5.09792 0
M  V30 5332 N 508.089 3.14553 6.27695 0
M  V30 5333 H 512.929 2.3167 1.87438 0
M  V30 5334 H 510.466 1.15094 0.916063 0
M  V30 5335 H 512.424 1.08683 4.02795 0
M  V30 5336 H 511.054 0.285453 3.21535 0
M  V30 5337 H 510.106 2.65504 2.72418 0
M  V30 5338 H 511.418 3.32094 3.72176 0
M  V30 5339 H 510.572 2.05496 5.70838 0
M  V30 5340 H 509.311 1.28461 4.70478 0
M  V30 5341 H 508.316 3.53579 4.21025 0
M  V30 5342 H 509.541 4.30986 5.24812 0
M  V30 5343 H 507.487 2.25893 6.1588 0
M  V30 5344 H 507.404 3.96791 6.435 0
M  V30 5345 H 508.672 3.03943 7.17801 0
M  V30 5346 N 512.901 -0.976442 1.23707 0
M  V30 5347 C 513.864 -2.0511 1.02287 0
M  V30 5348 C 514.864 -1.60791 -0.0167195 0
M  V30 5349 O 516.054 -1.72761 0.223408 0
M  V30 5350 C 513.186 -3.36458 0.548507 0
M  V30 5351 H 514.379 -2.25545 1.9766 0
M  V30 5352 H 511.932 -1.15042 1.05806 0
M  V30 5353 H 512.667 -3.21713 -0.408818 0
M  V30 5354 H 512.452 -3.69967 1.29874 0
M  V30 5355 H 513.942 -4.15489 0.419406 0
M  V30 5356 N 514.379 -1.04941 -1.1758 0
M  V30 5357 C 515.626 -0.757989 -1.87779 0
M  V30 5358 C 515.954 0.714827 -1.80888 0
M  V30 5359 O 515.209 1.53824 -1.20982 0
M  V30 5360 C 515.508 -1.18062 -3.37337 0
M  V30 5361 C 515.174 -2.65521 -3.6443 0
M  V30 5362 C 513.836 -3.05804 -3.71534 0
M  V30 5363 C 516.188 -3.60822 -3.76108 0
M  V30 5364 C 513.516 -4.40256 -3.87803 0
M  V30 5365 C 515.868 -4.95005 -3.93895 0
M  V30 5366 C 514.532 -5.34945 -3.99237 0
M  V30 5367 H 513.802 -0.277368 -0.68713 0
M  V30 5368 H 516.449 -1.31603 -1.39115 0
M  V30 5369 H 514.754 -0.541525 -3.8804 0
M  V30 5370 H 516.451 -0.932368 -3.9001 0
M  V30 5371 H 513.041 -2.33324 -3.59524 0
M  V30 5372 H 517.225 -3.30841 -3.69943 0
M  V30 5373 H 512.481 -4.70707 -3.90186 0
M  V30 5374 H 516.655 -5.68746 -4.01872 0
M  V30 5375 H 514.282 -6.39135 -4.11596 0
M  V30 5376 N 515.857 1.33968 -0.830081 0
M  V30 5377 C 516.807 2.26845 -0.229242 0
M  V30 5378 C 517.791 1.48862 0.610659 0
M  V30 5379 O 518.983 1.70808 0.464067 0
M  V30 5380 C 516.112 3.3798 0.602057 0
M  V30 5381 C 515.198 4.23369 -0.248866 0
M  V30 5382 N 515.589 4.88182 -1.32334 0
M  V30 5383 C 513.887 4.45987 -0.0344077 0
M  V30 5384 C 514.588 5.51671 -1.84482 0
M  V30 5385 N 513.564 5.31348 -1.14762 0
M  V30 5386 H 517.366 2.74464 -1.05104 0
M  V30 5387 H 514.88 1.4777 -0.673623 0
M  V30 5388 H 516.877 4.03494 1.04873 0
M  V30 5389 H 515.537 2.9191 1.42193 0
M  V30 5390 H 516.548 4.88988 -1.70619 0
M  V30 5391 H 513.225 4.10658 0.752727 0
M  V30 5392 H 514.615 6.13308 -2.74413 0
M  V30 5393 N 517.335 0.585699 1.46312 0
M  V30 5394 C 518.751 0.247607 1.57668 0
M  V30 5395 C 518.951 -1.25007 1.58037 0
M  V30 5396 O 518.007 -2.03196 1.49893 0
M  V30 5397 C 519.32 0.899456 2.86933 0
M  V30 5398 C 520.868 0.873326 3.00569 0
M  V30 5399 C 521.343 1.50477 4.32574 0
M  V30 5400 N 522.834 1.46925 4.3928 0
M  V30 5401 C 523.569 1.92719 5.40044 0
M  V30 5402 N 523.065 2.46499 6.47464 0
M  V30 5403 N 524.858 1.83617 5.31264 0
M  V30 5404 H 517.009 1.55841 1.44317 0
M  V30 5405 H 519.272 0.651564 0.688599 0
M  V30 5406 H 518.978 1.95313 2.92482 0
M  V30 5407 H 518.852 0.409476 3.74971 0
M  V30 5408 H 521.239 -0.171736 2.946 0
M  V30 5409 H 521.32 1.40136 2.13999 0
M  V30 5410 H 520.964 2.54905 4.39302 0
M  V30 5411 H 520.894 0.951944 5.17924 0
M  V30 5412 H 523.385 1.07616 3.62253 0
M  V30 5413 H 523.698 2.79291 7.20567 0
M  V30 5414 H 522.043 2.50526 6.48276 0
M  V30 5415 H 525.234 1.41358 4.46246 0
M  V30 5416 H 525.407 2.19622 6.09648 0
M  V30 5417 N 518.813 -1.54241 0.323641 0
M  V30 5418 C 519.723 -2.28033 -0.551205 0
M  V30 5419 C 520.739 -1.32388 -1.12913 0
M  V30 5420 O 521.915 -1.65403 -1.14908 0
M  V30 5421 C 518.98 -3.02382 -1.69606 0
M  V30 5422 C 518.041 -4.13612 -1.14993 0
M  V30 5423 C 517.274 -4.84407 -2.24022 0
M  V30 5424 O 517.497 -4.54716 -3.44368 0
M  V30 5425 O 516.431 -5.71312 -1.89436 0
M  V30 5426 H 520.257 -3.03662 0.048066 0
M  V30 5427 H 517.842 -1.49133 0.0893289 0
M  V30 5428 H 519.724 -3.48941 -2.36259 0
M  V30 5429 H 518.399 -2.29628 -2.28151 0
M  V30 5430 H 517.306 -3.71402 -0.448484 0
M  V30 5431 H 518.639 -4.8841 -0.609608 0
M  V30 5432 N 520.291 -0.0518155 -1.57515 0
M  V30 5433 C 521.221 0.920283 -2.146 0
M  V30 5434 C 522.202 1.32406 -1.06783 0
M  V30 5435 O 523.387 1.39866 -1.34726 0
M  V30 5436 C 520.517 2.1949 -2.6915 0
M  V30 5437 C 519.471 1.93116 -3.81956 0
M  V30 5438 C 518.797 3.27037 -4.23026 0
M  V30 5439 C 520.097 1.25225 -5.07066 0
M  V30 5440 H 521.791 0.444801 -2.96077 0
M  V30 5441 H 519.337 0.212508 -1.42423 0
M  V30 5442 H 521.29 2.87894 -3.07725 0
M  V30 5443 H 520.014 2.69244 -1.84865 0
M  V30 5444 H 518.673 1.27123 -3.43854 0
M  V30 5445 H 518.321 3.74595 -3.3569 0
M  V30 5446 H 518.021 3.10189 -4.99056 0
M  V30 5447 H 519.545 3.96673 -4.64202 0
M  V30 5448 H 520.959 1.83666 -5.43083 0
M  V30 5449 H 519.356 1.18702 -5.88243 0
M  V30 5450 H 520.426 0.228382 -4.84362 0
M  V30 5451 N 521.769 1.56035 0.221574 0
M  V30 5452 C 523.015 1.79312 0.947372 0
M  V30 5453 C 523.348 0.621453 1.83988 0
M  V30 5454 O 522.623 -0.379287 1.90766 0
M  V30 5455 C 522.906 3.1267 1.78633 0
M  V30 5456 C 522.759 4.40284 0.920312 0
M  V30 5457 C 524.078 3.4247 2.7641 0
M  V30 5458 H 521.197 0.652328 0.342982 0
M  V30 5459 H 523.839 1.88765 0.216244 0
M  V30 5460 H 521.989 3.04741 2.40967 0
M  V30 5461 H 523.661 4.60232 0.313718 0
M  V30 5462 H 521.904 4.33212 0.225734 0
M  V30 5463 H 522.575 5.30033 1.54171 0
M  V30 5464 H 525.051 3.50526 2.24211 0
M  V30 5465 H 523.927 4.3695 3.32213 0
M  V30 5466 H 524.188 2.64635 3.54148 0
M  V30 5467 N 523.247 -0.488276 1.49845 0
M  V30 5468 C 524.658 -1.06955 1.53028 0
M  V30 5469 C 525.009 -1.9351 0.323797 0
M  V30 5470 O 524.134 -2.08891 -0.565116 0
M  V30 5471 C 524.729 -1.94643 2.77307 0
M  V30 5472 C 523.288 -2.4791 2.83227 0
M  V30 5473 C 522.435 -1.25833 2.47106 0
M  V30 5474 H 525.386 -0.271626 1.56358 0
M  V30 5475 H 525.407 -2.79496 2.5819 0
M  V30 5476 H 524.919 -1.31621 3.65099 0
M  V30 5477 H 523.02 -3.14535 1.99745 0
M  V30 5478 H 523.133 -2.84193 3.85709 0
M  V30 5479 H 521.497 -1.58764 1.99163 0
M  V30 5480 H 522.28 -0.644993 3.37186 0
M  V30 5481 N 524.725 -1.39134 -0.740242 0
M  V30 5482 C 526.002 -1.26584 -1.49117 0
M  V30 5483 C 526.382 0.126902 -2.10718 0
M  V30 5484 O 525.73 1.13765 -1.98166 0
M  V30 5485 C 525.94 -2.38619 -2.54681 0
M  V30 5486 C 527.288 -2.77685 -3.21211 0
M  V30 5487 O 528.312 -2.38029 -2.64991 0
M  V30 5488 O 527.171 -3.46115 -4.22926 0
M  V30 5489 H 524.265 -0.495769 -0.661923 0
M  V30 5490 H 526.811 -1.50995 -0.774514 0
M  V30 5491 H 525.583 -3.3175 -2.07504 0
M  V30 5492 H 525.206 -2.15845 -3.33911 0
M  V30 5493 N 526.204 0.969867 -1.24223 0
M  V30 5494 C 527.62 1.23809 -1.00716 0
M  V30 5495 C 527.82 1.99469 0.285358 0
M  V30 5496 O 526.876 2.31764 1.00207 0
M  V30 5497 C 528.189 2.02734 -2.2208 0
M  V30 5498 C 529.737 2.15834 -2.26681 0
M  V30 5499 C 530.212 2.98154 -3.47661 0
M  V30 5500 N 531.703 3.05737 -3.47964 0
M  V30 5501 C 532.438 3.69785 -4.38231 0
M  V30 5502 N 531.934 4.35569 -5.3875 0
M  V30 5503 N 533.727 3.66775 -4.25949 0
M  V30 5504 H 525.878 0.463294 -2.07286 0
M  V30 5505 H 528.141 0.267348 -0.909521 0
M  V30 5506 H 527.847 1.54524 -3.15935 0
M  V30 5507 H 527.721 3.0347 -2.24021 0
M  V30 5508 H 530.108 2.63248 -1.33359 0
M  V30 5509 H 530.189 1.14453 -2.28767 0
M  V30 5510 H 529.833 2.51435 -4.41297 0
M  V30 5511 H 529.763 3.99729 -3.42818 0
M  V30 5512 H 532.254 2.58941 -2.75242 0
M  V30 5513 H 532.567 4.82251 -6.03866 0
M  V30 5514 H 530.912 4.34244 -5.42639 0
M  V30 5515 H 534.103 3.14558 -3.46657 0
M  V30 5516 H 534.276 4.16407 -4.96497 0
M  V30 5517 N 527.682 1.05563 1.17022 0
M  V30 5518 C 528.612 0.681026 2.23348 0
M  V30 5519 C 529.593 -0.322983 1.67005 0
M  V30 5520 O 530.778 -0.199746 1.9317 0
M  V30 5521 C 527.908 0.0589053 3.4725 0
M  V30 5522 C 526.862 0.988082 4.16438 0
M  V30 5523 C 526.188 0.229646 5.34207 0
M  V30 5524 C 527.488 2.31388 4.68249 0
M  V30 5525 H 529.182 1.56993 2.54938 0
M  V30 5526 H 526.728 0.756302 1.2254 0
M  V30 5527 H 528.681 -0.214982 4.20851 0
M  V30 5528 H 527.405 -0.864968 3.14938 0
M  V30 5529 H 526.064 1.24659 3.44754 0
M  V30 5530 H 525.712 -0.697111 4.98146 0
M  V30 5531 H 525.412 0.848815 5.81437 0
M  V30 5532 H 526.936 -0.0368694 6.10589 0
M  V30 5533 H 528.35 2.09964 5.33468 0
M  V30 5534 H 526.747 2.88736 5.26072 0
M  V30 5535 H 527.817 2.94982 3.84855 0
M  V30 5536 N 529.16 -1.33526 0.837174 0
M  V30 5537 C 530.407 -1.97837 0.432064 0
M  V30 5538 C 530.735 -1.66324 -1.00829 0
M  V30 5539 O 529.99 -0.93448 -1.71948 0
M  V30 5540 C 530.289 -3.52367 0.597675 0
M  V30 5541 C 529.955 -4.03826 2.00587 0
M  V30 5542 C 528.617 -4.1759 2.39106 0
M  V30 5543 C 530.969 -4.31333 2.92576 0
M  V30 5544 C 528.297 -4.56195 3.68921 0
M  V30 5545 C 530.649 -4.7139 4.2187 0
M  V30 5546 C 529.313 -4.8336 4.60347 0
M  V30 5547 H 528.583 -0.723937 0.158104 0
M  V30 5548 H 531.23 -1.5923 1.06387 0
M  V30 5549 H 529.535 -3.91624 -0.117452 0
M  V30 5550 H 531.232 -4.00126 0.26454 0
M  V30 5551 H 527.822 -3.93586 1.69671 0
M  V30 5552 H 532.006 -4.20224 2.64056 0
M  V30 5553 H 527.262 -4.63655 3.9854 0
M  V30 5554 H 531.436 -4.91631 4.93226 0
M  V30 5555 H 529.063 -5.1303 5.60985 0
M  V30 5556 N 530.638 -0.59345 -1.46 0
M  V30 5557 C 531.884 -0.0832754 -2.02629 0
M  V30 5558 C 532.217 1.27749 -1.46266 0
M  V30 5559 O 531.492 1.8395 -0.631866 0
M  V30 5560 C 531.775 -0.0290756 -3.60088 0
M  V30 5561 C 531.628 -1.41951 -4.26814 0
M  V30 5562 C 532.947 0.666055 -4.35031 0
M  V30 5563 H 530.066 -0.031736 -0.736316 0
M  V30 5564 H 532.708 -0.762711 -1.74019 0
M  V30 5565 H 530.858 0.549532 -3.84594 0
M  V30 5566 H 532.53 -2.04411 -4.13538 0
M  V30 5567 H 530.773 -1.98422 -3.8576 0
M  V30 5568 H 531.444 -1.33395 -5.3564 0
M  V30 5569 H 533.92 0.174401 -4.15734 0
M  V30 5570 H 532.796 0.673041 -5.44758 0
M  V30 5571 H 533.057 1.72946 -4.06869 0
M  V30 5572 N 532.116 1.54067 -0.331816 0
M  V30 5573 C 533.363 2.00715 0.268269 0
M  V30 5574 C 533.691 1.21986 1.51491 0
M  V30 5575 O 532.946 0.292309 1.93505 0
M  V30 5576 C 533.245 3.51634 0.639392 0
M  V30 5577 C 532.911 4.48018 -0.509019 0
M  V30 5578 C 531.573 4.74089 -0.824209 0
M  V30 5579 C 533.925 5.05237 -1.28003 0
M  V30 5580 C 531.253 5.54637 -1.91298 0
M  V30 5581 C 533.605 5.86972 -2.35895 0
M  V30 5582 C 532.269 6.11342 -2.67987 0
M  V30 5583 H 531.539 0.734469 0.0981667 0
M  V30 5584 H 534.186 1.8596 -0.457304 0
M  V30 5585 H 532.491 3.6416 1.44551 0
M  V30 5586 H 534.188 3.85175 1.11539 0
M  V30 5587 H 530.778 4.27851 -0.253287 0
M  V30 5588 H 534.962 4.8507 -1.04978 0
M  V30 5589 H 530.218 5.71747 -2.16599 0
M  V30 5590 H 534.392 6.30327 -2.96076 0
M  V30 5591 H 532.019 6.73544 -3.5248 0
M  V30 5592 N 533.594 0.0601682 1.57485 0
M  V30 5593 C 534.841 -0.611594 1.93043 0
M  V30 5594 C 535.169 -1.70317 0.939274 0
M  V30 5595 O 534.424 -1.95644 -0.046996 0
M  V30 5596 C 534.723 -1.23831 3.35262 0
M  V30 5597 C 534.389 -0.274037 4.50066 0
M  V30 5598 C 533.051 -0.00872394 4.81199 0
M  V30 5599 C 535.403 0.386308 5.19766 0
M  V30 5600 C 532.731 0.924218 5.79375 0
M  V30 5601 C 535.083 1.3075 6.1894 0
M  V30 5602 C 533.747 1.58139 6.48497 0
M  V30 5603 H 533.017 -0.223798 0.706396 0
M  V30 5604 H 535.664 0.128566 1.91068 0
M  V30 5605 H 533.969 -2.05394 3.33647 0
M  V30 5606 H 535.666 -1.76517 3.60059 0
M  V30 5607 H 532.256 -0.491008 4.25778 0
M  V30 5608 H 536.44 0.194436 4.95919 0
M  V30 5609 H 531.696 1.1438 6.00606 0
M  V30 5610 H 535.87 1.82519 6.72056 0
M  V30 5611 H 533.497 2.30593 7.24383 0
M  V30 5612 N 535.072 -1.5615 -0.213296 0
M  V30 5613 C 536.02 -1.93953 -1.28394 0
M  V30 5614 C 537.014 -0.822592 -1.48087 0
M  V30 5615 O 538.22 -1.00748 -1.49164 0
M  V30 5616 H 534.595 -0.61648 -0.430646 0
M  V30 5617 H 536.566 -2.83275 -0.937977 0
M  V30 5618 C 535.315 -2.27969 -2.62537 0
M  V30 5619 H 534.638 -3.13432 -2.48194 0
M  V30 5620 H 536.078 -2.58297 -3.36242 0
M  V30 5621 C 534.537 -1.10775 -3.18167 0
M  V30 5622 O 535.067 -0.373201 -3.99963 0
M  V30 5623 N 533.273 -0.889377 -2.76656 0
M  V30 5624 H 532.82 -1.48843 -2.10246 0
M  V30 5625 H 532.778 -0.107 -3.14218 0
M  V30 5626 N 536.55 0.480323 -1.50102 0
M  V30 5627 C 537.796 1.23208 -1.61837 0
M  V30 5628 C 538.151 1.89878 -0.310509 0
M  V30 5629 O 537.444 1.7871 0.690897 0
M  V30 5630 C 537.638 2.30708 -2.72963 0
M  V30 5631 C 537.467 1.74583 -4.14428 0
M  V30 5632 C 536.237 1.54964 -4.80951 0
M  V30 5633 C 538.435 1.24597 -4.98979 0
M  V30 5634 N 536.417 0.939855 -6.06663 0
M  V30 5635 C 537.788 0.758834 -6.15339 0
M  V30 5636 C 539.843 1.13365 -4.84822 0
M  V30 5637 C 538.546 0.17046 -7.19098 0
M  V30 5638 C 540.572 0.559221 -5.8875 0
M  V30 5639 C 539.934 0.082415 -7.04352 0
M  V30 5640 H 536.033 0.440065 -0.646426 0
M  V30 5641 H 538.617 0.535632 -1.87187 0
M  V30 5642 H 536.788 2.9779 -2.4935 0
M  V30 5643 H 538.52 2.97738 -2.74106 0
M  V30 5644 H 535.275 1.79926 -4.38091 0
M  V30 5645 H 535.699 0.653641 -6.73837 0
M  V30 5646 H 540.341 1.48823 -3.95742 0
M  V30 5647 H 538.059 -0.196347 -8.07861 0
M  V30 5648 H 541.645 0.474804 -5.79859 0
M  V30 5649 H 540.525 -0.355119 -7.83396 0
M  V30 5650 N 538.028 1.39524 0.732853 0
M  V30 5651 C 538.958 1.41153 1.86005 0
M  V30 5652 C 539.939 0.274614 1.67869 0
M  V30 5653 O 541.124 0.480745 1.88155 0
M  V30 5654 C 538.254 1.25638 3.23778 0
M  V30 5655 C 537.208 2.36752 3.56556 0
M  V30 5656 C 536.534 2.06326 4.93289 0
M  V30 5657 C 537.834 3.79069 3.5931 0
M  V30 5658 H 539.528 2.35484 1.84899 0
M  V30 5659 H 537.074 1.13348 0.888162 0
M  V30 5660 H 539.027 1.25398 4.0231 0
M  V30 5661 H 537.751 0.277772 3.25417 0
M  V30 5662 H 536.41 2.36213 2.80355 0
M  V30 5663 H 536.058 1.06897 4.9151 0
M  V30 5664 H 535.758 2.80757 5.16187 0
M  V30 5665 H 537.282 2.07739 5.74175 0
M  V30 5666 H 538.696 3.81526 4.27914 0
M  V30 5667 H 537.093 4.52878 3.93728 0
M  V30 5668 H 538.163 4.09893 2.59068 0
M  V30 5669 N 539.506 -0.963266 1.24736 0
M  V30 5670 C 540.754 -1.70343 1.08755 0
M  V30 5671 C 541.075 -1.91387 -0.373619 0
M  V30 5672 O 540.345 -1.4948 -1.2662 0
M  V30 5673 H 538.925 -0.631224 0.399456 0
M  V30 5674 H 541.587 -1.15859 1.56725 0
M  V30 5675 H 540.683 -2.68616 1.58909 0
M  V30 5676 N 540.985 -1.06182 -1.16461 0
M  V30 5677 C 542.215 -0.797425 -1.9059 0
M  V30 5678 C 542.623 0.651845 -1.77616 0
M  V30 5679 O 541.966 1.45788 -1.11766 0
M  V30 5680 C 542.028 -1.11128 -3.41893 0
M  V30 5681 C 541.692 -2.55874 -3.78652 0
M  V30 5682 C 542.689 -3.54104 -3.80665 0
M  V30 5683 C 540.374 -2.91144 -4.09317 0
M  V30 5684 C 542.368 -4.85645 -4.12829 0
M  V30 5685 C 540.055 -4.22885 -4.41148 0
M  V30 5686 C 541.053 -5.19945 -4.42883 0
M  V30 5687 O 540.741 -6.49322 -4.73959 0
M  V30 5688 H 540.473 -0.288709 -0.611247 0
M  V30 5689 H 543.027 -1.41841 -1.4856 0
M  V30 5690 H 541.257 -0.433217 -3.84266 0
M  V30 5691 H 542.946 -0.831306 -3.97296 0
M  V30 5692 H 543.712 -3.28197 -3.57088 0
M  V30 5693 H 539.591 -2.16252 -4.07131 0
M  V30 5694 H 543.135 -5.61398 -4.14099 0
M  V30 5695 H 539.032 -4.48551 -4.6419 0
M  V30 5696 H 539.8 -6.54294 -4.91774 0
M  V30 5697 N 542.463 1.3308 -0.844243 0
M  V30 5698 C 543.426 2.27403 -0.286485 0
M  V30 5699 C 544.426 1.51179 0.547872 0
M  V30 5700 O 545.616 1.70421 0.360886 0
M  V30 5701 C 542.748 3.35653 0.595813 0
M  V30 5702 H 543.941 2.78248 -1.11885 0
M  V30 5703 H 541.494 1.43574 -0.617749 0
M  V30 5704 H 542.229 2.90058 1.4504 0
M  V30 5705 H 542.014 3.921 -0.00125994 0
M  V30 5706 H 543.504 4.05958 0.979168 0
M  V30 5707 N 543.941 0.601185 1.45683 0
M  V30 5708 C 544.889 -0.133955 2.32214 0
M  V30 5709 C 545.883 -0.866034 1.45589 0
M  V30 5710 O 547.089 -0.782326 1.6211 0
M  V30 5711 H 543.464 -0.0620613 0.749435 0
M  V30 5712 H 545.435 0.614389 2.92007 0
M  V30 5713 C 544.184 -1.12216 3.29094 0
M  V30 5714 H 543.507 -0.568273 3.95741 0
M  V30 5715 H 544.947 -1.60659 3.92383 0
M  V30 5716 C 543.406 -2.19251 2.55794 0
M  V30 5717 O 543.936 -3.26894 2.33459 0
M  V30 5718 N 542.142 -1.9436 2.16039 0
M  V30 5719 H 541.689 -1.06829 2.34404 0
M  V30 5720 H 541.647 -2.66181 1.67318 0
M  V30 5721 N 545.419 -1.53889 0.339982 0
M  V30 5722 C 546.644 -2.05741 -0.261798 0
M  V30 5723 C 547.069 -1.21354 -1.43718 0
M  V30 5724 O 546.427 -0.22645 -1.7988 0
M  V30 5725 C 546.475 -3.54542 -0.658228 0
M  V30 5726 O 545.579 -3.7302 -1.75869 0
M  V30 5727 H 544.92 -0.662529 -0.0441672 0
M  V30 5728 H 547.45 -1.98568 0.493161 0
M  V30 5729 H 547.46 -3.9711 -0.936368 0
M  V30 5730 H 546.135 -4.15412 0.201358 0
M  V30 5731 H 544.712 -3.42355 -1.47809 0
M  V30 5732 N 546.897 -0.0685191 -1.57451 0
M  V30 5733 C 547.86 0.885173 -2.11417 0
M  V30 5734 C 548.86 1.22853 -1.03748 0
M  V30 5735 O 550.05 1.16235 -1.2975 0
M  V30 5736 C 547.182 2.18964 -2.61281 0
M  V30 5737 H 548.375 0.417034 -2.96986 0
M  V30 5738 H 545.928 0.18014 -1.55258 0
M  V30 5739 H 546.663 2.70321 -1.79156 0
M  V30 5740 H 546.448 1.9534 -3.39977 0
M  V30 5741 H 547.938 2.87242 -3.0312 0
M  V30 5742 N 548.375 1.56261 0.205012 0
M  V30 5743 C 549.622 1.8004 0.926927 0
M  V30 5744 C 549.95 0.640086 1.83666 0
M  V30 5745 O 549.205 -0.374702 1.92079 0
M  V30 5746 C 549.504 3.09722 1.78345 0
M  V30 5747 C 549.17 4.39082 1.02555 0
M  V30 5748 C 547.832 4.74226 0.816256 0
M  V30 5749 C 550.184 5.18877 0.491559 0
M  V30 5750 C 547.512 5.86668 0.0613287 0
M  V30 5751 C 549.864 6.32105 -0.250107 0
M  V30 5752 C 548.528 6.6584 -0.470508 0
M  V30 5753 H 547.798 0.658812 0.339187 0
M  V30 5754 H 550.445 1.90515 0.19395 0
M  V30 5755 H 548.75 2.9444 2.5848 0
M  V30 5756 H 550.447 3.25324 2.34446 0
M  V30 5757 H 547.037 4.11497 1.19868 0
M  V30 5758 H 551.221 4.92147 0.640684 0
M  V30 5759 H 546.477 6.11283 -0.119501 0
M  V30 5760 H 550.651 6.93157 -0.671307 0
M  V30 5761 H 548.278 7.5281 -1.05739 0
M  V30 5762 N 549.853 -0.472356 1.50355 0
M  V30 5763 C 550.801 -1.59126 1.69651 0
M  V30 5764 C 551.795 -1.59793 0.56237 0
M  V30 5765 O 553.001 -1.63957 0.742832 0
M  V30 5766 H 549.376 -0.528008 0.535454 0
M  V30 5767 H 551.347 -1.40013 2.63513 0
M  V30 5768 C 550.096 -2.97075 1.8067 0
M  V30 5769 H 549.419 -2.9728 2.67329 0
M  V30 5770 H 550.859 -3.74825 1.98197 0
M  V30 5771 C 549.318 -3.32247 0.558016 0
M  V30 5772 O 549.848 -4.00553 -0.303399 0
M  V30 5773 N 548.054 -2.87659 0.412415 0
M  V30 5774 H 547.601 -2.32246 1.11443 0
M  V30 5775 H 547.559 -3.11556 -0.421908 0
M  V30 5776 N 551.331 -1.39911 -0.725443 0
M  V30 5777 C 552.742 -1.33599 -1.30415 0
M  V30 5778 C 553.093 -0.00481792 -1.96199 0
M  V30 5779 O 552.218 0.897275 -1.96921 0
M  V30 5780 C 552.813 -2.41965 -2.37146 0
M  V30 5781 C 551.372 -2.39144 -2.90667 0
M  V30 5782 C 550.519 -2.23355 -1.64341 0
M  V30 5783 H 553.47 -1.4986 -0.522267 0
M  V30 5784 H 553.491 -2.09304 -3.17761 0
M  V30 5785 H 553.003 -3.38837 -1.89238 0
M  V30 5786 H 551.104 -1.4594 -3.4283 0
M  V30 5787 H 551.217 -3.34362 -3.43131 0
M  V30 5788 H 549.581 -1.70696 -1.89037 0
M  V30 5789 H 550.364 -3.2221 -1.18471 0
M  V30 5790 N 552.809 0.956637 -1.25245 0
M  V30 5791 C 554.058 1.69537 -1.0927 0
M  V30 5792 C 554.371 1.92136 0.366503 0
M  V30 5793 O 555.577 2.63687 0.64665 0
M  V30 5794 C 554.033 3.05211 -1.9072 0
M  V30 5795 C 553.641 2.90416 -3.41119 0
M  V30 5796 C 555.385 3.82882 -1.83308 0
M  V30 5797 C 553.292 4.21468 -4.14872 0
M  V30 5798 H 552.222 0.635804 -0.405302 0
M  V30 5799 H 554.873 1.06513 -1.49423 0
M  V30 5800 H 553.255 3.69128 -1.43389 0
M  V30 5801 H 554.429 2.35444 -3.9611 0
M  V30 5802 H 552.744 2.26203 -3.49602 0
M  V30 5803 H 555.341 4.79944 -2.35706 0
M  V30 5804 H 555.684 4.0853 -0.800572 0
M  V30 5805 H 556.217 3.25711 -2.28379 0
M  V30 5806 H 552.956 4.01009 -5.18529 0
M  V30 5807 H 552.476 4.76213 -3.64665 0
M  V30 5808 H 554.155 4.90022 -4.22478 0
M  V30 5809 N 554.287 1.06798 1.15896 0
M  V30 5810 C 555.536 0.782796 1.8589 0
M  V30 5811 C 555.849 -0.693498 1.82893 0
M  V30 5812 O 557.055 -1.09325 2.48516 0
M  V30 5813 C 555.511 1.3502 3.33613 0
M  V30 5814 C 555.119 2.8571 3.45071 0
M  V30 5815 C 556.863 1.14278 4.08829 0
M  V30 5816 C 554.77 3.35669 4.86909 0
M  V30 5817 H 553.7 0.289149 0.696354 0
M  V30 5818 H 556.351 1.28734 1.30766 0
M  V30 5819 H 554.733 0.773407 3.88374 0
M  V30 5820 H 555.907 3.49385 3.00445 0
M  V30 5821 H 554.222 3.05178 2.83294 0
M  V30 5822 H 556.819 1.49087 5.13495 0
M  V30 5823 H 557.162 0.0814575 4.1622 0
M  V30 5824 H 557.695 1.68563 3.60321 0
M  V30 5825 H 554.434 4.41302 4.84698 0
M  V30 5826 H 553.954 2.76745 5.32139 0
M  V30 5827 H 555.633 3.31296 5.55745 0
M  V30 5828 N 555.766 -1.3263 0.851289 0
M  V30 5829 C 556.996 -2.01271 0.466222 0
M  V30 5830 C 557.404 -1.64156 -0.940714 0
M  V30 5831 O 556.747 -0.857109 -1.62479 0
M  V30 5832 C 556.809 -3.55695 0.521672 0
M  V30 5833 C 556.473 -4.16227 1.88691 0
M  V30 5834 C 557.47 -4.34699 2.85189 0
M  V30 5835 C 555.155 -4.52377 2.18313 0
M  V30 5836 C 557.149 -4.88484 4.09465 0
M  V30 5837 C 554.836 -5.05868 3.42843 0
M  V30 5838 C 555.834 -5.23869 4.38235 0
M  V30 5839 O 555.522 -5.76218 5.6056 0
M  V30 5840 H 555.254 -0.651034 0.18202 0
M  V30 5841 H 557.808 -1.7026 1.14894 0
M  V30 5842 H 556.038 -3.86086 -0.217888 0
M  V30 5843 H 557.727 -4.05613 0.152682 0
M  V30 5844 H 558.493 -4.07107 2.63607 0
M  V30 5845 H 554.372 -4.37652 1.44851 0
M  V30 5846 H 557.916 -5.02451 4.83931 0
M  V30 5847 H 553.813 -5.32891 3.64277 0
M  V30 5848 H 554.581 -5.94616 5.62471 0
M  V30 5849 N 557.244 -0.608902 -1.45362 0
M  V30 5850 C 558.484 -0.10763 -2.04116 0
M  V30 5851 C 558.848 1.23883 -1.46686 0
M  V30 5852 O 560.049 1.83091 -1.96803 0
M  V30 5853 C 558.32 -0.0703351 -3.57331 0
M  V30 5854 S 559.879 0.369554 -4.37241 0
M  V30 5855 H 556.697 -0.0502123 -0.709225 0
M  V30 5856 H 559.299 -0.8073 -1.78053 0
M  V30 5857 H 558.003 -1.05379 -3.9664 0
M  V30 5858 H 557.534 0.651287 -3.87971 0
M  V30 5859 H 559.549 1.61878 -4.69052 0
M  V30 5860 N 558.722 1.53707 -0.348139 0
M  V30 5861 C 560.138 1.596 0.00361134 0
M  V30 5862 C 560.338 1.36394 1.4832 0
M  V30 5863 O 559.394 1.16046 2.24253 0
M  V30 5864 C 560.707 2.97512 -0.436682 0
M  V30 5865 C 562.255 3.10568 -0.389416 0
M  V30 5866 C 562.73 4.50866 -0.805249 0
M  V30 5867 N 564.221 4.56929 -0.759616 0
M  V30 5868 C 564.956 5.63643 -1.05327 0
M  V30 5869 N 564.452 6.78189 -1.41531 0
M  V30 5870 N 566.245 5.5354 -0.977207 0
M  V30 5871 H 558.396 1.67044 -1.31187 0
M  V30 5872 H 560.659 0.782559 -0.535075 0
M  V30 5873 H 560.365 3.19575 -1.46849 0
M  V30 5874 H 560.239 3.76742 0.185744 0
M  V30 5875 H 562.626 2.88226 0.633228 0
M  V30 5876 H 562.707 2.33387 -1.04711 0
M  V30 5877 H 562.351 4.73943 -1.82593 0
M  V30 5878 H 562.281 5.26452 -0.124989 0
M  V30 5879 H 564.772 3.74675 -0.49265 0
M  V30 5880 H 565.085 7.55541 -1.62411 0
M  V30 5881 H 563.43 6.79624 -1.45381 0
M  V30 5882 H 566.621 4.62932 -0.693675 0
M  V30 5883 H 566.794 6.36614 -1.2094 0
M  V30 5884 N 560.2 0.0768682 1.57412 0
M  V30 5885 C 561.425 -0.603404 1.98428 0
M  V30 5886 C 561.85 -1.62047 0.955108 0
M  V30 5887 O 561.208 -1.81129 -0.0786778 0
M  V30 5888 C 561.256 -1.24396 3.38464 0
M  V30 5889 O 560.36 -2.35982 3.3821 0
M  V30 5890 H 559.701 -0.154741 0.645718 0
M  V30 5891 H 562.231 0.152885 2.04028 0
M  V30 5892 H 562.241 -1.5896 3.7576 0
M  V30 5893 H 560.916 -0.498735 4.12899 0
M  V30 5894 H 559.493 -2.03173 3.1269 0
M  V30 5895 N 561.678 -1.56367 -0.196722 0
M  V30 5896 C 563.089 -1.70462 -0.761545 0
M  V30 5897 C 563.44 -0.683161 -1.83922 0
M  V30 5898 O 562.565 0.160753 -2.15802 0
M  V30 5899 C 563.16 -3.09057 -1.38814 0
M  V30 5900 C 561.719 -3.24922 -1.90007 0
M  V30 5901 C 560.866 -2.66412 -0.769399 0
M  V30 5902 H 563.817 -1.58675 0.0283263 0
M  V30 5903 H 563.838 -3.06296 -2.2575 0
M  V30 5904 H 563.35 -3.83378 -0.603559 0
M  V30 5905 H 561.451 -2.55514 -2.71189 0
M  V30 5906 H 561.564 -4.3241 -2.06297 0
M  V30 5907 H 559.928 -2.25546 -1.18326 0
M  V30 5908 H 560.711 -3.433 0.00291773 0
M  V30 5909 N 563.156 0.464375 -1.50603 0
M  V30 5910 C 564.433 1.22549 -1.5245 0
M  V30 5911 C 564.813 2.09327 -0.273035 0
M  V30 5912 O 564.161 2.16074 0.743242 0
M  V30 5913 C 564.371 2.05074 -2.82393 0
M  V30 5914 C 565.719 2.63036 -3.33313 0
M  V30 5915 O 566.743 2.1531 -2.8376 0
M  V30 5916 O 565.602 3.5001 -4.19709 0
M  V30 5917 H 562.696 0.556471 -0.611775 0
M  V30 5918 H 565.242 0.475648 -1.62898 0
M  V30 5919 H 564.014 1.41169 -3.64948 0
M  V30 5920 H 563.637 2.87179 -2.7498 0
M  V30 5921 N 564.634 1.40294 0.718013 0
M  V30 5922 C 565.881 1.3844 1.47786 0
M  V30 5923 C 566.209 -0.0140838 1.94495 0
M  V30 5924 O 565.464 -0.998165 1.68331 0
M  V30 5925 C 565.763 2.31814 2.72024 0
M  V30 5926 C 565.429 3.79117 2.44093 0
M  V30 5927 C 564.091 4.19249 2.36185 0
M  V30 5928 C 566.443 4.72212 2.20602 0
M  V30 5929 C 563.771 5.50516 2.02851 0
M  V30 5930 C 566.123 6.03775 1.88781 0
M  V30 5931 C 564.787 6.42953 1.79354 0
M  V30 5932 H 564.057 0.506588 0.540786 0
M  V30 5933 H 566.704 1.72929 0.822663 0
M  V30 5934 H 565.009 1.90501 3.42369 0
M  V30 5935 H 566.706 2.27664 3.30106 0
M  V30 5936 H 563.296 3.47318 2.51133 0
M  V30 5937 H 567.48 4.42026 2.25669 0
M  V30 5938 H 562.736 5.79776 1.94088 0
M  V30 5939 H 566.91 6.75428 1.69617 0
M  V30 5940 H 564.537 7.44584 1.53291 0
M  V30 5941 N 566.112 -0.949982 1.2575 0
M  V30 5942 C 567.528 -1.22191 1.02672 0
M  V30 5943 C 567.728 -1.99898 -0.253588 0
M  V30 5944 O 566.784 -2.33329 -0.965076 0
M  V30 5945 C 568.097 -1.99175 2.25277 0
M  V30 5946 C 569.645 -2.12201 2.30087 0
M  V30 5947 C 570.12 -2.92586 3.5236 0
M  V30 5948 N 571.611 -3.00163 3.52784 0
M  V30 5949 C 572.346 -3.62766 4.44059 0
M  V30 5950 N 571.842 -4.26943 5.45611 0
M  V30 5951 N 573.635 -3.59953 4.3173 0
M  V30 5952 H 565.786 -0.430258 2.07996 0
M  V30 5953 H 568.049 -0.252844 0.91366 0
M  V30 5954 H 567.755 -1.49479 3.18354 0
M  V30 5955 H 567.629 -2.99868 2.28821 0
M  V30 5956 H 570.016 -2.61093 1.3753 0
M  V30 5957 H 570.097 -1.10799 2.30559 0
M  V30 5958 H 569.741 -2.44383 4.45241 0
M  V30 5959 H 569.671 -3.94224 3.49134 0
M  V30 5960 H 572.162 -2.54529 2.79327 0
M  V30 5961 H 572.475 -4.72583 6.11461 0
M  V30 5962 H 570.82 -4.25557 5.49478 0
M  V30 5963 H 574.011 -3.09003 3.51617 0
M  V30 5964 H 574.184 -4.08455 5.03059 0
M  V30 5965 N 567.59 -1.07411 -1.15328 0
M  V30 5966 C 568.537 -0.694995 -2.20087 0
M  V30 5967 C 569.507 0.313904 -1.63107 0
M  V30 5968 O 570.692 0.200216 -1.89747 0
M  V30 5969 C 567.832 -0.0996218 -3.44956 0
M  V30 5970 C 566.945 -1.16007 -4.16133 0
M  V30 5971 C 566.08 -0.529636 -5.28553 0
M  V30 5972 C 565.119 -1.57283 -5.91548 0
M  V30 5973 N 564.256 -0.964932 -6.95438 0
M  V30 5974 H 569.096 -1.5927 -2.51867 0
M  V30 5975 H 566.633 -0.796115 -1.23695 0
M  V30 5976 H 568.591 0.263197 -4.16369 0
M  V30 5977 H 567.221 0.761435 -3.13691 0
M  V30 5978 H 566.273 -1.64045 -3.4321 0
M  V30 5979 H 567.585 -1.95101 -4.59061 0
M  V30 5980 H 566.739 -0.114487 -6.06592 0
M  V30 5981 H 565.478 0.29307 -4.86819 0
M  V30 5982 H 564.483 -1.99775 -5.12221 0
M  V30 5983 H 565.708 -2.39783 -6.35359 0
M  V30 5984 H 563.654 -0.16314 -6.55797 0
M  V30 5985 H 563.571 -1.69311 -7.36797 0
M  V30 5986 H 564.839 -0.575305 -7.77374 0
M  V30 5987 N 569.068 1.32177 -0.85831 0
M  V30 5988 C 570.031 2.27086 -0.310588 0
M  V30 5989 C 571.031 1.51751 0.531806 0
M  V30 5990 O 572.221 1.70794 0.34279 0
M  V30 5991 C 569.353 3.36266 0.560179 0
M  V30 5992 H 570.546 2.77045 -1.1483 0
M  V30 5993 H 568.099 1.42911 -0.632942 0
M  V30 5994 H 568.834 2.9158 1.41956 0
M  V30 5995 H 568.619 3.92077 -0.0428473 0
M  V30 5996 H 570.109 4.06974 0.936056 0
M  V30 5997 N 570.547 0.616602 1.45037 0
M  V30 5998 C 571.794 0.115331 2.02171 0
M  V30 5999 C 572.122 -1.25748 1.48383 0
M  V30 6000 O 571.377 -1.84511 0.652229 0
M  V30 6001 C 571.676 0.0356829 3.57382 0
M  V30 6002 C 571.342 1.34535 4.30362 0
M  V30 6003 C 570.004 1.70408 4.50016 0
M  V30 6004 C 572.356 2.21049 4.72003 0
M  V30 6005 C 569.684 2.92529 5.0857 0
M  V30 6006 C 572.036 3.42427 5.31908 0
M  V30 6007 C 570.7 3.78541 5.49784 0
M  V30 6008 H 569.97 0.0422024 0.739797 0
M  V30 6009 H 572.617 0.80002 1.73988 0
M  V30 6010 H 570.922 -0.732314 3.84895 0
M  V30 6011 H 572.619 -0.368463 3.99304 0
M  V30 6012 H 569.209 1.05615 4.15383 0
M  V30 6013 H 573.393 1.94632 4.56544 0
M  V30 6014 H 568.649 3.20605 5.20598 0
M  V30 6015 H 572.823 4.09709 5.63127 0
M  V30 6016 H 570.45 4.73255 5.94923 0
M  V30 6017 N 572.025 -1.5352 0.356285 0
M  V30 6018 C 572.957 -2.23009 -0.529127 0
M  V30 6019 C 573.97 -1.241 -1.05371 0
M  V30 6020 O 575.159 -1.50379 -0.961679 0
M  V30 6021 C 572.259 -2.90685 -1.74229 0
M  V30 6022 C 571.432 -4.16019 -1.35081 0
M  V30 6023 C 570.491 -4.66989 -2.42502 0
M  V30 6024 O 569.517 -5.30895 -2.05279 0
M  V30 6025 N 570.719 -4.44006 -3.7395 0
M  V30 6026 H 573.484 -2.99627 0.0660501 0
M  V30 6027 H 571.045 -1.60885 0.181014 0
M  V30 6028 H 573.037 -3.21695 -2.4555 0
M  V30 6029 H 571.607 -2.17575 -2.24454 0
M  V30 6030 H 570.827 -3.91414 -0.467833 0
M  V30 6031 H 572.115 -4.9752 -1.06542 0
M  V30 6032 H 571.513 -3.92924 -4.06973 0
M  V30 6033 H 570.07 -4.7959 -4.41403 0
M  V30 6034 N 573.503 -0.0852151 -1.57369 0
M  V30 6035 C 574.919 0.271436 -1.57275 0
M  V30 6036 C 575.119 1.69109 -1.09565 0
M  V30 6037 O 574.175 2.40549 -0.767611 0
M  V30 6038 C 575.488 0.0688638 -3.00621 0
M  V30 6039 C 577.036 0.137373 -3.12698 0
M  V30 6040 C 577.511 -0.0370832 -4.57985 0
M  V30 6041 N 579.002 0.0180794 -4.63196 0
M  V30 6042 C 579.737 -0.0922953 -5.73326 0
M  V30 6043 N 579.233 -0.256948 -6.92323 0
M  V30 6044 N 581.026 -0.0342702 -5.6209 0
M  V30 6045 H 573.177 -1.01288 -1.86693 0
M  V30 6046 H 575.44 -0.396138 -0.861266 0
M  V30 6047 H 575.146 -0.911277 -3.39689 0
M  V30 6048 H 575.02 0.815442 -3.6828 0
M  V30 6049 H 577.407 1.10801 -2.73509 0
M  V30 6050 H 577.488 -0.640532 -2.47651 0
M  V30 6051 H 577.132 -1.00455 -4.97867 0
M  V30 6052 H 577.062 0.760392 -5.21081 0
M  V30 6053 H 579.553 0.143202 -3.77629 0
M  V30 6054 H 579.866 -0.332949 -7.72082 0
M  V30 6055 H 578.211 -0.292487 -6.94384 0
M  V30 6056 H 581.402 0.0931605 -4.68007 0
M  V30 6057 H 581.575 -0.12374 -6.47882 0
M  V30 6058 N 574.981 1.5647 0.188427 0
M  V30 6059 C 575.911 1.98101 1.23606 0
M  V30 6060 C 576.892 0.853961 1.47111 0
M  V30 6061 O 578.077 1.11879 1.58735 0
M  V30 6062 C 575.207 2.32624 2.57882 0
M  V30 6063 C 574.161 3.48129 2.48978 0
M  V30 6064 C 573.487 3.68347 3.87588 0
M  V30 6065 C 574.787 4.82112 2.00911 0
M  V30 6066 H 576.481 2.85864 0.890068 0
M  V30 6067 H 574.027 1.37532 0.426714 0
M  V30 6068 H 575.98 2.60343 3.3136 0
M  V30 6069 H 574.704 1.41751 2.94235 0
M  V30 6070 H 573.363 3.20511 1.77956 0
M  V30 6071 H 573.011 2.74793 4.21305 0
M  V30 6072 H 572.711 4.46055 3.82503 0
M  V30 6073 H 574.235 3.98449 4.62678 0
M  V30 6074 H 575.649 5.08819 2.64151 0
M  V30 6075 H 574.046 5.63337 2.06814 0
M  V30 6076 H 575.116 4.75249 0.96262 0
M  V30 6077 N 576.459 -0.456382 1.50847 0
M  V30 6078 C 577.389 -1.56025 1.73719 0
M  V30 6079 C 578.37 -1.5967 0.586473 0
M  V30 6080 O 579.555 -1.75702 0.827185 0
M  V30 6081 C 576.685 -2.94251 1.84483 0
M  V30 6082 C 575.639 -3.05471 2.99786 0
M  V30 6083 C 574.965 -4.45489 2.95709 0
M  V30 6084 C 576.265 -2.81318 4.40065 0
M  V30 6085 H 577.959 -1.37138 2.66146 0
M  V30 6086 H 575.505 -0.658299 1.28072 0
M  V30 6087 H 577.458 -3.71417 1.99067 0
M  V30 6088 H 576.182 -3.14328 0.886891 0
M  V30 6089 H 574.841 -2.30741 2.84876 0
M  V30 6090 H 574.489 -4.62505 1.97732 0
M  V30 6091 H 574.189 -4.53929 3.73125 0
M  V30 6092 H 575.713 -5.24655 3.12362 0
M  V30 6093 H 577.127 -3.48226 4.55425 0
M  V30 6094 H 575.524 -3.01188 5.19043 0
M  V30 6095 H 576.594 -1.7706 4.51418 0
M  V30 6096 N 577.937 -1.40673 -0.710563 0
M  V30 6097 C 579.177 -1.40677 -1.48288 0
M  V30 6098 C 579.541 -0.0097193 -1.91998 0
M  V30 6099 O 580.742 0.115381 -2.68552 0
M  V30 6100 C 579.013 -2.37289 -2.67262 0
M  V30 6101 S 580.572 -2.55694 -3.56603 0
M  V30 6102 H 577.39 -0.498545 -0.506926 0
M  V30 6103 H 579.992 -1.76984 -0.830472 0
M  V30 6104 H 578.696 -3.37617 -2.3333 0
M  V30 6105 H 578.227 -2.02282 -3.3741 0
M  V30 6106 H 580.242 -1.81311 -4.61888 0
M  V30 6107 N 579.415 0.9433 -1.26252 0
M  V30 6108 C 580.655 1.70397 -1.1289 0
M  V30 6109 C 581.019 1.89268 0.322713 0
M  V30 6110 O 582.22 2.62503 0.578418 0
M  V30 6111 C 580.491 3.04296 -1.87453 0
M  V30 6112 S 582.05 3.95475 -1.90119 0
M  V30 6113 H 578.868 0.585559 -0.403289 0
M  V30 6114 H 581.47 1.12424 -1.59941 0
M  V30 6115 H 580.174 2.8824 -2.9214 0
M  V30 6116 H 579.705 3.67327 -1.40835 0
M  V30 6117 H 581.72 4.86297 -0.986373 0
M  V30 6118 N 580.893 1.08022 1.14757 0
M  V30 6119 C 581.856 0.71048 2.1791 0
M  V30 6120 C 582.856 -0.252731 1.58801 0
M  V30 6121 O 584.046 -0.0327915 1.74169 0
M  V30 6122 C 581.178 0.0483203 3.40866 0
M  V30 6123 H 582.371 1.62384 2.52134 0
M  V30 6124 H 579.924 0.877595 1.29337 0
M  V30 6125 H 580.659 -0.876959 3.12218 0
M  V30 6126 H 580.444 0.741189 3.85031 0
M  V30 6127 H 581.934 -0.195471 4.17142 0
M  V30 6128 N 582.371 -1.3172 0.865308 0
M  V30 6129 C 583.787 -1.4958 0.556596 0
M  V30 6130 C 583.987 -1.79763 -0.910353 0
M  V30 6131 O 583.043 -1.87351 -1.6928 0
M  V30 6132 C 584.356 -2.63277 1.45279 0
M  V30 6133 C 585.904 -2.77161 1.45433 0
M  V30 6134 C 586.379 -3.93949 2.33598 0
M  V30 6135 N 587.87 -4.01228 2.31453 0
M  V30 6136 C 588.605 -4.90855 2.96393 0
M  V30 6137 N 588.101 -5.85416 3.70486 0
M  V30 6138 N 589.894 -4.84063 2.85726 0
M  V30 6139 H 582.045 -1.10396 1.81456 0
M  V30 6140 H 584.308 -0.54507 0.775631 0
M  V30 6141 H 584.014 -2.47734 2.49641 0
M  V30 6142 H 583.888 -3.59309 1.14792 0
M  V30 6143 H 586.275 -2.9212 0.41831 0
M  V30 6144 H 586.356 -1.8181 1.79941 0
M  V30 6145 H 586 -3.79748 3.37274 0
M  V30 6146 H 585.93 -4.88598 1.96417 0
M  V30 6147 H 588.421 -3.3357 1.77593 0
M  V30 6148 H 588.734 -6.50525 4.17178 0
M  V30 6149 H 587.079 -5.85409 3.74594 0
M  V30 6150 H 590.27 -4.09163 2.27384 0
M  V30 6151 H 590.443 -5.53708 3.36617 0
M  V30 6152 N 583.85 -0.624285 -1.44708 0
M  V30 6153 C 585.266 -0.289322 -1.56956 0
M  V30 6154 C 585.466 1.20773 -1.61295 0
M  V30 6155 O 584.522 1.9915 -1.55227 0
M  V30 6156 C 585.835 -0.975215 -2.84447 0
M  V30 6157 C 587.383 -0.952709 -2.98148 0
M  V30 6158 C 587.858 -1.61893 -4.28433 0
M  V30 6159 N 589.349 -1.5852 -4.35231 0
M  V30 6160 C 590.084 -2.06969 -5.34744 0
M  V30 6161 N 589.58 -2.63579 -6.40701 0
M  V30 6162 N 591.373 -1.97638 -5.26209 0
M  V30 6163 H 583.524 -1.59612 -1.40135 0
M  V30 6164 H 585.787 -0.669592 -0.671081 0
M  V30 6165 H 585.493 -2.02999 -2.87201 0
M  V30 6166 H 585.367 -0.508749 -3.73753 0
M  V30 6167 H 587.754 0.093568 -2.94952 0
M  V30 6168 H 587.835 -1.4576 -2.10209 0
M  V30 6169 H 587.479 -2.66463 -4.32389 0
M  V30 6170 H 587.409 -1.08893 -5.15218 0
M  V30 6171 H 589.899 -1.17183 -3.59272 0
M  V30 6172 H 590.213 -2.98298 -7.12908 0
M  V30 6173 H 588.558 -2.67626 -6.41406 0
M  V30 6174 H 591.749 -1.5314 -4.42341 0
M  V30 6175 H 591.922 -2.35708 -6.03611 0
M  V30 6176 N 585.328 1.53329 -0.364422 0
M  V30 6177 C 586.291 2.24323 0.470292 0
M  V30 6178 C 587.291 1.25068 1.01067 0
M  V30 6179 O 588.481 1.49354 0.896605 0
M  V30 6180 C 585.613 2.97908 1.65722 0
M  V30 6181 H 586.806 2.9952 -0.150917 0
M  V30 6182 H 584.359 1.55868 -0.116092 0
M  V30 6183 H 585.094 2.2695 2.31655 0
M  V30 6184 H 584.879 3.70732 1.27671 0
M  V30 6185 H 586.369 3.5188 2.24878 0
M  V30 6186 N 586.806 0.0935595 1.57322 0
M  V30 6187 C 587.769 -0.851426 2.12799 0
M  V30 6188 C 588.769 -1.21187 1.0569 0
M  V30 6189 O 589.959 -1.14156 1.31583 0
M  V30 6190 C 587.091 -2.14779 2.64731 0
M  V30 6191 H 588.284 -0.369733 2.97612 0
M  V30 6192 H 585.837 -0.155417 1.55525 0
M  V30 6193 H 586.572 -2.67437 1.83434 0
M  V30 6194 H 586.357 -1.89907 3.43042 0
M  V30 6195 H 587.847 -2.82383 3.07651 0
M  V30 6196 N 588.284 -1.56567 -0.180126 0
M  V30 6197 C 589.7 -1.50488 -0.531559 0
M  V30 6198 C 589.9 -0.796267 -1.851 0
M  V30 6199 O 588.956 -0.352978 -2.50021 0
M  V30 6200 C 590.269 -2.95201 -0.572456 0
M  V30 6201 C 591.817 -3.05957 -0.660264 0
M  V30 6202 C 592.292 -4.5211 -0.732135 0
M  V30 6203 N 593.783 -4.56322 -0.795262 0
M  V30 6204 C 594.518 -5.66742 -0.871296 0
M  V30 6205 N 594.014 -6.86815 -0.908708 0
M  V30 6206 N 595.807 -5.54691 -0.909639 0
M  V30 6207 H 587.958 -2.01045 0.685165 0
M  V30 6208 H 590.221 -0.915536 0.245962 0
M  V30 6209 H 589.927 -3.50165 0.328208 0
M  V30 6210 H 589.801 -3.49369 -1.422 0
M  V30 6211 H 592.188 -2.51032 -1.55136 0
M  V30 6212 H 592.269 -2.54888 0.215783 0
M  V30 6213 H 591.913 -5.07664 0.154664 0
M  V30 6214 H 591.843 -5.00926 -1.6242 0
M  V30 6215 H 594.334 -3.69868 -0.77499 0
M  V30 6216 H 594.647 -7.66718 -0.967654 0
M  V30 6217 H 592.992 -6.89443 -0.877132 0
M  V30 6218 H 596.183 -4.59804 -0.877353 0
M  V30 6219 H 596.356 -6.40768 -0.965434 0
M  V30 6220 N 589.762 0.448376 -1.51087 0
M  V30 6221 C 591.178 0.783984 -1.39017 0
M  V30 6222 C 591.378 1.96087 -0.463904 0
M  V30 6223 O 590.434 2.52357 0.0850534 0
M  V30 6224 C 591.747 1.07471 -2.80839 0
M  V30 6225 C 593.295 1.17981 -2.89913 0
M  V30 6226 C 593.77 1.50354 -4.32617 0
M  V30 6227 N 595.261 1.57301 -4.35673 0
M  V30 6228 C 595.996 1.839 -5.4311 0
M  V30 6229 N 595.492 2.08365 -6.60724 0
M  V30 6230 N 597.285 1.8559 -5.30578 0
M  V30 6231 H 589.436 -0.326881 -2.0987 0
M  V30 6232 H 591.699 -0.0838006 -0.944289 0
M  V30 6233 H 591.405 0.282768 -3.50561 0
M  V30 6234 H 591.279 2.00519 -3.19487 0
M  V30 6235 H 593.666 1.9624 -2.20395 0
M  V30 6236 H 593.747 0.228603 -2.54776 0
M  V30 6237 H 593.391 0.726273 -5.0268 0
M  V30 6238 H 593.321 2.46663 -4.65258 0
M  V30 6239 H 595.812 1.40342 -3.50874 0
M  V30 6240 H 596.125 2.27999 -7.38401 0
M  V30 6241 H 594.47 2.0571 -6.63859 0
M  V30 6242 H 597.661 1.65989 -4.37682 0
M  V30 6243 H 597.834 2.05983 -6.1439 0
M  V30 6244 N 591.24 1.41047 0.703093 0
M  V30 6245 C 592.656 1.23351 1.01275 0
M  V30 6246 C 592.856 0.11754 2.01157 0
M  V30 6247 O 591.912 -0.520518 2.47077 0
M  V30 6248 C 593.225 2.58001 1.54454 0
M  V30 6249 C 594.773 2.65119 1.66376 0
M  V30 6250 C 595.248 4.00067 2.22958 0
M  V30 6251 N 596.739 4.01875 2.30328 0
M  V30 6252 C 597.474 5.03087 2.75119 0
M  V30 6253 N 596.97 6.14692 3.19571 0
M  V30 6254 N 598.763 4.90451 2.74616 0
M  V30 6255 H 590.914 2.1236 0.0412686 0
M  V30 6256 H 593.177 0.944543 0.08089 0
M  V30 6257 H 592.883 3.40378 0.88521 0
M  V30 6258 H 592.757 2.79962 2.52786 0
M  V30 6259 H 595.144 1.83106 2.31422 0
M  V30 6260 H 595.225 2.46975 0.666089 0
M  V30 6261 H 594.869 4.82526 1.58529 0
M  V30 6262 H 594.799 4.15547 3.23462 0
M  V30 6263 H 597.29 3.21291 1.98949 0
M  V30 6264 H 597.603 6.87799 3.52352 0
M  V30 6265 H 595.948 6.18239 3.17498 0
M  V30 6266 H 599.139 4.0235 2.39233 0
M  V30 6267 H 599.312 5.6947 3.09206 0
M  V30 6268 N 592.718 -0.936591 1.26751 0
M  V30 6269 C 593.668 -2.0219 1.05371 0
M  V30 6270 C 594.652 -1.60893 -0.0154112 0
M  V30 6271 O 595.844 -1.75843 0.202085 0
M  V30 6272 C 592.973 -3.36222 0.693541 0
M  V30 6273 C 592.059 -3.8399 1.80035 0
M  V30 6274 N 592.45 -4.0436 3.03852 0
M  V30 6275 C 590.748 -4.12945 1.685 0
M  V30 6276 C 591.449 -4.44 3.75818 0
M  V30 6277 N 590.425 -4.50966 3.03531 0
M  V30 6278 H 594.227 -2.15958 1.99347 0
M  V30 6279 H 591.741 -1.12277 1.17335 0
M  V30 6280 H 593.738 -4.13625 0.521513 0
M  V30 6281 H 592.398 -3.23821 -0.238693 0
M  V30 6282 H 593.409 -3.9092 3.39709 0
M  V30 6283 H 590.086 -4.09308 0.822986 0
M  V30 6284 H 591.476 -4.67914 4.82189 0
M  V30 6285 N 594.196 -1.08629 -1.14182 0
M  V30 6286 C 595.159 -0.722027 -2.1753 0
M  V30 6287 C 596.159 0.244305 -1.58933 0
M  V30 6288 O 597.349 0.0235545 -1.74184 0
M  V30 6289 C 594.481 -0.0663966 -3.40835 0
M  V30 6290 H 595.674 -1.63719 -2.51269 0
M  V30 6291 H 593.227 -0.884442 -1.28869 0
M  V30 6292 H 593.962 0.860389 -3.12678 0
M  V30 6293 H 593.747 -0.761598 -3.84632 0
M  V30 6294 H 595.237 0.173346 -4.1724 0
M  V30 6295 N 595.674 1.31259 -0.872281 0
M  V30 6296 C 596.902 2.00795 -0.498907 0
M  V30 6297 C 597.317 1.65464 0.909238 0
M  V30 6298 O 596.674 0.885073 1.59602 0
M  V30 6299 C 596.725 3.55625 -0.649092 0
M  V30 6300 O 596.446 3.89692 -2.00179 0
M  V30 6301 C 597.947 4.42434 -0.277034 0
M  V30 6302 H 595.167 0.642299 -0.194145 0
M  V30 6303 H 597.711 1.67438 -1.17408 0
M  V30 6304 H 595.866 3.87394 -0.0214402 0
M  V30 6305 H 596.28 4.84407 -2.01122 0
M  V30 6306 H 597.754 5.50299 -0.433064 0
M  V30 6307 H 598.231 4.32146 0.783989 0
M  V30 6308 H 598.837 4.16086 -0.880483 0
M  V30 6309 N 597.152 0.631951 1.44375 0
M  V30 6310 C 598.102 -0.0943862 2.27805 0
M  V30 6311 C 599.086 -0.815359 1.38711 0
M  V30 6312 O 600.278 -0.701331 1.62513 0
M  V30 6313 C 597.407 -1.07472 3.26044 0
M  V30 6314 C 596.493 -0.353329 4.22626 0
M  V30 6315 N 596.884 0.618512 5.02004 0
M  V30 6316 C 595.182 -0.597662 4.41977 0
M  V30 6317 C 595.883 1.0448 5.7224 0
M  V30 6318 N 594.859 0.383413 5.42246 0
M  V30 6319 H 598.661 0.651672 2.86584 0
M  V30 6320 H 596.175 0.45752 1.55822 0
M  V30 6321 H 598.172 -1.60969 3.84571 0
M  V30 6322 H 596.832 -1.82107 2.68825 0
M  V30 6323 H 597.843 0.996356 5.08226 0
M  V30 6324 H 594.52 -1.32682 3.95856 0
M  V30 6325 H 595.91 1.84773 6.45994 0
M  V30 6326 N 598.631 -1.53133 0.372548 0
M  V30 6327 C 599.879 -2.00958 -0.214534 0
M  V30 6328 C 600.2 -1.26135 -1.48711 0
M  V30 6329 O 599.47 -0.376597 -1.92246 0
M  V30 6330 H 598.05 -0.742456 -0.0822664 0
M  V30 6331 H 600.712 -1.88367 0.500385 0
M  V30 6332 H 599.808 -3.09031 -0.436605 0
M  V30 6333 N 600.109 -0.101901 -1.5727 0
M  V30 6334 C 601.386 0.602832 -1.86079 0
M  V30 6335 C 601.766 1.85912 -1 0
M  V30 6336 O 601.114 2.28379 -0.0742488 0
M  V30 6337 C 601.324 0.911694 -3.36881 0
M  V30 6338 C 602.672 1.2722 -4.05093 0
M  V30 6339 O 603.696 1.0025 -3.41802 0
M  V30 6340 O 602.555 1.7776 -5.16782 0
M  V30 6341 H 599.649 0.302366 -0.769743 0
M  V30 6342 H 602.195 -0.135113 -1.69161 0
M  V30 6343 H 600.967 0.0207256 -3.91295 0
M  V30 6344 H 600.59 1.70538 -3.59169 0
M  V30 6345 N 601.587 1.56661 0.17182 0
M  V30 6346 C 603.003 1.50768 0.52357 0
M  V30 6347 C 603.203 0.806072 1.84675 0
M  V30 6348 O 602.259 0.366233 2.4983 0
M  V30 6349 C 603.572 2.955 0.556793 0
M  V30 6350 C 605.12 3.06303 0.644029 0
M  V30 6351 C 605.595 4.52492 0.708148 0
M  V30 6352 N 607.086 4.56737 0.771051 0
M  V30 6353 C 607.821 5.67196 0.841229 0
M  V30 6354 N 607.317 6.87287 0.872272 0
M  V30 6355 N 609.11 5.55165 0.88021 0
M  V30 6356 H 601.261 2.00679 -0.695817 0
M  V30 6357 H 603.524 0.914219 -0.250814 0
M  V30 6358 H 603.23 3.49986 -0.346774 0
M  V30 6359 H 603.104 3.50119 1.40346 0
M  V30 6360 H 605.491 2.51851 1.53802 0
M  V30 6361 H 605.572 2.5477 -0.229297 0
M  V30 6362 H 605.216 5.07575 -0.181585 0
M  V30 6363 H 605.146 5.01781 1.59761 0
M  V30 6364 H 607.637 3.70274 0.755364 0
M  V30 6365 H 607.95 7.6722 0.92698 0
M  V30 6366 H 606.295 6.89898 0.840557 0
M  V30 6367 H 609.486 4.60263 0.852956 0
M  V30 6368 H 609.659 6.41271 0.931439 0
M  V30 6369 N 603.065 -0.440357 1.51323 0
M  V30 6370 C 604.476 -1.02032 1.56353 0
M  V30 6371 C 604.827 -1.92382 0.385197 0
M  V30 6372 O 603.952 -2.10583 -0.498373 0
M  V30 6373 C 604.547 -1.85723 2.83359 0
M  V30 6374 C 603.106 -2.38774 2.90971 0
M  V30 6375 C 602.253 -1.17908 2.50984 0
M  V30 6376 H 605.204 -0.221744 1.57143 0
M  V30 6377 H 605.225 -2.71141 2.66951 0
M  V30 6378 H 604.737 -1.19939 3.69102 0
M  V30 6379 H 602.838 -3.08021 2.09651 0
M  V30 6380 H 602.951 -2.71778 3.94555 0
M  V30 6381 H 601.315 -1.52347 2.04114 0
M  V30 6382 H 602.098 -0.537393 3.39068 0
M  V30 6383 N 604.543 -1.41418 -0.695603 0
M  V30 6384 C 605.959 -1.23887 -1.00619 0
M  V30 6385 C 606.159 -0.128206 -2.01092 0
M  V30 6386 O 605.215 0.507408 -2.47349 0
M  V30 6387 C 606.528 -2.58816 -1.53083 0
M  V30 6388 C 608.076 -2.65998 -1.64967 0
M  V30 6389 C 608.551 -4.01244 -2.20833 0
M  V30 6390 N 610.042 -4.0309 -2.28194 0
M  V30 6391 C 610.777 -5.04539 -2.72448 0
M  V30 6392 N 610.273 -6.16378 -3.16306 0
M  V30 6393 N 612.066 -4.91901 -2.72011 0
M  V30 6394 H 604.217 -2.12379 -0.0300061 0
M  V30 6395 H 606.48 -0.944958 -0.0758797 0
M  V30 6396 H 606.186 -3.40842 -0.867147 0
M  V30 6397 H 606.06 -2.81299 -2.51298 0
M  V30 6398 H 608.447 -1.84331 -2.30448 0
M  V30 6399 H 608.528 -2.47325 -0.652982 0
M  V30 6400 H 608.172 -4.83359 -1.55968 0
M  V30 6401 H 608.102 -4.17257 -3.21254 0
M  V30 6402 H 610.593 -3.22341 -1.97242 0
M  V30 6403 H 610.906 -6.89658 -3.487 0
M  V30 6404 H 609.251 -6.19914 -3.14215 0
M  V30 6405 H 612.442 -4.03613 -2.37095 0
M  V30 6406 H 612.615 -5.71102 -3.06181 0
M  V30 6407 N 606.021 0.929856 -1.27246 0
M  V30 6408 C 606.984 2.01172 -1.09829 0
M  V30 6409 C 607.984 1.60743 -0.0429687 0
M  V30 6410 O 609.174 1.71813 -0.287373 0
M  V30 6411 C 606.306 3.34191 -0.673003 0
M  V30 6412 H 607.499 2.18054 -2.05895 0
M  V30 6413 H 605.052 1.11036 -1.10003 0
M  V30 6414 H 605.787 3.23009 0.289134 0
M  V30 6415 H 605.572 3.64892 -1.43515 0
M  V30 6416 H 607.062 4.13646 -0.573323 0
M  V30 6417 N 607.499 1.09233 1.13605 0
M  V30 6418 C 608.724 0.849067 1.89224 0
M  V30 6419 C 609.149 -0.593875 1.78479 0
M  V30 6420 O 608.507 -1.41703 1.13092 0
M  V30 6421 C 608.555 1.28642 3.36873 0
M  V30 6422 O 607.659 0.44363 4.10007 0
M  V30 6423 H 607 0.30767 0.588417 0
M  V30 6424 H 609.53 1.45595 1.43748 0
M  V30 6425 H 609.54 1.27096 3.87699 0
M  V30 6426 H 608.215 2.33729 3.44011 0
M  V30 6427 H 606.792 0.523241 3.69211 0
M  V30 6428 N 608.977 -1.30795 0.87923 0
M  V30 6429 C 610.225 -1.95974 0.493809 0
M  V30 6430 C 610.546 -1.69787 -0.959021 0
M  V30 6431 O 609.816 -1.01832 -1.67353 0
M  V30 6432 H 608.396 -0.725083 0.179622 0
M  V30 6433 H 611.058 -1.59432 1.12105 0
M  V30 6434 H 610.154 -3.05058 0.659263 0
M  V30 6435 N 610.455 -0.639598 -1.44038 0
M  V30 6436 C 611.695 -0.150902 -2.03842 0
M  V30 6437 C 612.059 1.20744 -1.49281 0
M  V30 6438 O 613.26 1.78875 -2.00642 0
M  V30 6439 C 611.531 -0.146114 -3.57101 0
M  V30 6440 S 613.09 0.276725 -4.37927 0
M  V30 6441 H 609.908 -0.0652447 -0.708 0
M  V30 6442 H 612.51 -0.844886 -1.76301 0
M  V30 6443 H 611.214 -1.13769 -3.94316 0
M  V30 6444 H 610.745 0.568846 -3.89266 0
M  V30 6445 H 612.76 1.51893 -4.7238 0
M  V30 6446 N 611.933 1.52934 -0.380664 0
M  V30 6447 C 612.863 2.29118 0.450268 0
M  V30 6448 C 613.844 1.32153 1.07096 0
M  V30 6449 O 615.029 1.61038 1.08537 0
M  V30 6450 C 612.159 3.09161 1.58231 0
M  V30 6451 C 611.113 4.13938 1.0881 0
M  V30 6452 C 610.439 4.82153 2.31155 0
M  V30 6453 C 611.739 5.22048 0.162146 0
M  V30 6454 H 613.433 2.98826 -0.185361 0
M  V30 6455 H 610.979 1.43715 -0.0905886 0
M  V30 6456 H 612.932 3.61211 2.17036 0
M  V30 6457 H 611.656 2.3717 2.2454 0
M  V30 6458 H 610.315 3.62855 0.522633 0
M  V30 6459 H 609.963 4.06719 2.95953 0
M  V30 6460 H 609.663 5.52966 1.98752 0
M  V30 6461 H 611.187 5.37004 2.90618 0
M  V30 6462 H 612.601 5.6951 0.658126 0
M  V30 6463 H 610.998 6.00057 -0.0717122 0
M  V30 6464 H 612.068 4.78398 -0.791438 0
M  V30 6465 N 613.412 0.11024 1.57214 0
M  V30 6466 C 614.375 -0.828808 2.1369 0
M  V30 6467 C 615.375 -1.20059 1.06969 0
M  V30 6468 O 616.565 -1.12754 1.32786 0
M  V30 6469 C 613.697 -2.11959 2.66994 0
M  V30 6470 H 614.89 -0.338146 2.97988 0
M  V30 6471 H 612.443 -0.138913 1.55681 0
M  V30 6472 H 613.178 -2.65476 1.8626 0
M  V30 6473 H 612.963 -1.86258 3.45037 0
M  V30 6474 H 614.453 -2.79105 3.10629 0
M  V30 6475 N 614.89 -1.56749 -0.16351 0
M  V30 6476 C 616.306 -1.51043 -0.515567 0
M  V30 6477 C 616.506 -0.815855 -1.84245 0
M  V30 6478 O 615.562 -0.379477 -2.49632 0
M  V30 6479 C 616.875 -2.95791 -0.541114 0
M  V30 6480 C 618.423 -3.0664 -0.627776 0
M  V30 6481 C 618.898 -4.52861 -0.684141 0
M  V30 6482 N 620.389 -4.5714 -0.746818 0
M  V30 6483 C 621.124 -5.67634 -0.811137 0
M  V30 6484 N 620.62 -6.8774 -0.835811 0
M  V30 6485 N 622.413 -5.55624 -0.850756 0
M  V30 6486 H 614.564 -2.00307 0.70645 0
M  V30 6487 H 616.827 -0.912876 0.255659 0
M  V30 6488 H 616.533 -3.49797 0.365329 0
M  V30 6489 H 616.407 -3.50858 -1.38487 0
M  V30 6490 H 618.794 -2.52663 -1.52464 0
M  V30 6491 H 618.875 -2.54645 0.242805 0
M  V30 6492 H 618.519 -5.07472 0.2085 0
M  V30 6493 H 618.449 -5.02621 -1.57098 0
M  V30 6494 H 620.94 -3.70669 -0.735717 0
M  V30 6495 H 621.253 -7.67701 -0.886279 0
M  V30 6496 H 619.598 -6.90334 -0.803958 0
M  V30 6497 H 622.789 -4.60709 -0.828535 0
M  V30 6498 H 622.962 -6.41756 -0.897418 0
M  V30 6499 N 616.368 0.432326 -1.51554 0
M  V30 6500 C 617.779 1.01202 -1.56892 0
M  V30 6501 C 618.13 1.92175 -0.395394 0
M  V30 6502 O 617.255 2.10844 0.487198 0
M  V30 6503 C 617.85 1.84217 -2.8434 0
M  V30 6504 C 616.409 2.37228 -2.92233 0
M  V30 6505 C 615.556 1.16576 -2.51606 0
M  V30 6506 H 618.507 0.213407 -1.57259 0
M  V30 6507 H 618.528 2.69721 -2.68385 0
M  V30 6508 H 618.04 1.17979 -3.69733 0
M  V30 6509 H 616.141 3.06905 -2.11282 0
M  V30 6510 H 616.254 2.69682 -3.95991 0
M  V30 6511 H 614.618 1.51263 -2.04919 0
M  V30 6512 H 615.401 0.519404 -3.39348 0
M  V30 6513 N 617.846 1.41785 0.688094 0
M  V30 6514 C 619.094 1.41264 1.4453 0
M  V30 6515 C 619.415 0.0252946 1.94984 0
M  V30 6516 O 618.685 -0.934081 1.72197 0
M  V30 6517 H 617.265 0.519998 0.536294 0
M  V30 6518 H 619.927 1.7709 0.813941 0
M  V30 6519 H 619.023 2.10439 2.30482 0
M  V30 6520 N 619.324 -0.923095 1.27737 0
M  V30 6521 C 620.735 -1.48626 1.12993 0
M  V30 6522 C 621.086 -1.94142 -0.283439 0
M  V30 6523 O 620.211 -1.81605 -1.17681 0
M  V30 6524 C 620.806 -2.70117 2.04505 0
M  V30 6525 C 619.365 -3.22642 1.93853 0
M  V30 6526 C 618.512 -1.95368 1.96791 0
M  V30 6527 H 621.463 -0.736737 1.40563 0
M  V30 6528 H 621.484 -3.4506 1.60356 0
M  V30 6529 H 620.996 -2.36959 3.07363 0
M  V30 6530 H 619.097 -3.60549 0.939968 0
M  V30 6531 H 619.21 -3.88525 2.80331 0
M  V30 6532 H 617.574 -2.12061 1.41076 0
M  V30 6533 H 618.357 -1.64517 3.01312 0
M  V30 6534 N 620.802 -1.09834 -1.13024 0
M  V30 6535 C 622.213 -0.855651 -1.65938 0
M  V30 6536 C 622.564 0.615159 -1.86307 0
M  V30 6537 O 621.689 1.47335 -1.58497 0
M  V30 6538 C 622.284 -1.5467 -3.01434 0
M  V30 6539 C 620.843 -1.35088 -3.51323 0
M  V30 6540 C 619.99 -1.6001 -2.26478 0
M  V30 6541 H 622.941 -1.25691 -0.968889 0
M  V30 6542 H 622.962 -0.982179 -3.67605 0
M  V30 6543 H 622.474 -2.61715 -2.86578 0
M  V30 6544 H 620.575 -0.30179 -3.71376 0
M  V30 6545 H 620.688 -2.0886 -4.31178 0
M  V30 6546 H 619.052 -1.02246 -2.33276 0
M  V30 6547 H 619.835 -2.68293 -2.14182 0
M  V30 6548 N 622.28 1.30327 -0.886154 0
M  V30 6549 C 623.691 1.78243 -0.555554 0
M  V30 6550 C 624.042 1.72849 0.928314 0
M  V30 6551 O 623.167 1.30607 1.72542 0
M  V30 6552 C 623.762 3.23654 -1.00168 0
M  V30 6553 C 622.321 3.69401 -0.722471 0
M  V30 6554 C 621.468 2.50753 -1.18399 0
M  V30 6555 H 624.419 1.1718 -1.07026 0
M  V30 6556 H 624.44 3.79056 -0.331152 0
M  V30 6557 H 623.952 3.27548 -2.08169 0
M  V30 6558 H 622.053 3.70995 0.345496 0
M  V30 6559 H 622.166 4.60818 -1.31085 0
M  V30 6560 H 620.53 2.47452 -0.603303 0
M  V30 6561 H 621.313 2.57383 -2.27176 0
M  V30 6562 N 623.758 0.647228 1.43697 0
M  V30 6563 C 624.983 0.164083 2.0675 0
M  V30 6564 C 625.408 -1.15892 1.48158 0
M  V30 6565 O 624.766 -1.71459 0.589194 0
M  V30 6566 C 624.814 0.0800368 3.60511 0
M  V30 6567 O 623.918 -0.959453 4.01084 0
M  V30 6568 H 623.259 0.0921288 0.657578 0
M  V30 6569 H 625.789 0.88846 1.84303 0
M  V30 6570 H 625.799 -0.105263 4.07864 0
M  V30 6571 H 624.474 1.04586 4.02535 0
M  V30 6572 H 623.051 -0.747425 3.65333 0
M  V30 6573 N 625.236 -1.5273 0.388769 0
M  V30 6574 C 626.647 -1.86505 -0.0853788 0
M  V30 6575 C 626.998 -1.30847 -1.46197 0
M  V30 6576 O 626.123 -0.639609 -2.06732 0
M  V30 6577 C 626.718 -3.38414 -0.161703 0
M  V30 6578 C 625.277 -3.71902 -0.580144 0
M  V30 6579 C 624.424 -2.76095 0.258218 0
M  V30 6580 H 627.375 -1.46647 0.606665 0
M  V30 6581 H 627.396 -3.67638 -0.980936 0
M  V30 6582 H 626.908 -3.78893 0.840333 0
M  V30 6583 H 625.009 -3.36992 -1.58957 0
M  V30 6584 H 625.122 -4.77902 -0.338663 0
M  V30 6585 H 623.486 -2.53195 -0.276432 0
M  V30 6586 H 624.269 -3.19411 1.25822 0
M  V30 6587 N 626.714 -0.118576 -1.57153 0
M  V30 6588 C 627.962 0.538461 -1.94795 0
M  V30 6589 C 628.283 1.67243 -1.00274 0
M  V30 6590 O 627.553 1.95811 -0.0589692 0
M  V30 6591 H 626.133 0.201904 -0.719197 0
M  V30 6592 H 628.795 -0.187418 -1.93997 0
M  V30 6593 H 627.891 0.933315 -2.97818 0
M  V30 6594 N 628.193 1.56834 0.155195 0
M  V30 6595 C 629.156 1.96748 1.17571 0
M  V30 6596 C 630.156 0.853006 1.3631 0
M  V30 6597 O 631.346 1.11978 1.33441 0
M  V30 6598 C 628.478 2.27631 2.53765 0
M  V30 6599 H 629.671 2.88085 0.833498 0
M  V30 6600 H 627.224 1.51141 0.398242 0
M  V30 6601 H 627.959 1.39059 2.92973 0
M  V30 6602 H 627.744 3.0888 2.41527 0
M  V30 6603 H 629.234 2.59377 3.27282 0
M  V30 6604 N 629.671 -0.424282 1.51781 0
M  V30 6605 C 630.634 -1.49848 1.73431 0
M  V30 6606 C 631.634 -1.49016 0.604225 0
M  V30 6607 O 632.824 -1.50808 0.871935 0
M  V30 6608 C 629.956 -2.89332 1.80277 0
M  V30 6609 H 631.149 -1.3195 2.69312 0
M  V30 6610 H 628.702 -0.653809 1.41968 0
M  V30 6611 H 629.437 -3.12618 0.862568 0
M  V30 6612 H 629.222 -2.9134 2.62419 0
M  V30 6613 H 630.712 -3.67233 1.98821 0
M  V30 6614 N 631.149 -1.42148 -0.680565 0
M  V30 6615 C 632.374 -1.45901 -1.47403 0
M  V30 6616 C 632.799 -0.0700985 -1.87969 0
M  V30 6617 O 632.157 0.930145 -1.55621 0
M  V30 6618 C 632.205 -2.38661 -2.70321 0
M  V30 6619 O 631.309 -1.85399 -3.68376 0
M  V30 6620 H 630.65 -0.494565 -0.443059 0
M  V30 6621 H 633.18 -1.86774 -0.835251 0
M  V30 6622 H 633.19 -2.55046 -3.18458 0
M  V30 6623 H 631.865 -3.39571 -2.40134 0
M  V30 6624 H 630.442 -1.78541 -3.2738 0
M  V30 6625 N 632.627 0.916307 -1.28225 0
M  V30 6626 C 633.904 1.64429 -1.05936 0
M  V30 6627 C 634.284 2.07234 0.402139 0
M  V30 6628 O 633.632 1.81535 1.3877 0
M  V30 6629 C 633.842 2.83773 -2.03159 0
M  V30 6630 C 635.19 3.54852 -2.33164 0
M  V30 6631 O 636.214 2.93918 -2.01223 0
M  V30 6632 O 635.073 4.64663 -2.87664 0
M  V30 6633 H 632.167 0.721221 -0.404683 0
M  V30 6634 H 634.713 0.965838 -1.39534 0
M  V30 6635 H 633.485 2.49217 -3.01673 0
M  V30 6636 H 633.108 3.59333 -1.70192 0
M  V30 6637 N 634.105 1.10431 1.1244 0
M  V30 6638 C 635.382 0.758797 1.80282 0
M  V30 6639 C 635.762 -0.754727 1.97147 0
M  V30 6640 O 635.11 -1.68094 1.54779 0
M  V30 6641 C 635.32 1.50982 3.14651 0
M  V30 6642 C 636.668 1.68232 3.8985 0
M  V30 6643 O 637.692 1.47319 3.24308 0
M  V30 6644 O 636.551 2.02905 5.07437 0
M  V30 6645 H 633.645 0.273756 0.780376 0
M  V30 6646 H 636.191 1.20713 1.19275 0
M  V30 6647 H 634.963 2.53989 2.97666 0
M  V30 6648 H 634.586 1.05435 3.83366 0
M  V30 6649 N 635.583 -1.29855 0.893053 0
M  V30 6650 C 636.86 -1.90694 0.435336 0
M  V30 6651 C 637.24 -1.8111 -1.08454 0
M  V30 6652 O 636.588 -1.23352 -1.92345 0
M  V30 6653 C 636.798 -3.36033 0.942472 0
M  V30 6654 C 638.146 -4.13083 0.982226 0
M  V30 6655 O 639.17 -3.4491 0.889686 0
M  V30 6656 O 638.029 -5.34896 1.12022 0
M  V30 6657 H 635.123 -0.815978 0.134567 0
M  V30 6658 H 637.669 -1.38367 0.982484 0
M  V30 6659 H 636.441 -3.37132 1.9864 0
M  V30 6660 H 636.064 -3.95828 0.374952 0
M  V30 6661 N 637.061 -0.65484 -1.43351 0
M  V30 6662 C 638.338 -0.0987371 -1.95351 0
M  V30 6663 C 638.718 1.38161 -1.59608 0
M  V30 6664 O 638.066 2.10791 -0.882021 0
M  V30 6665 C 638.276 -0.346684 -3.47274 0
M  V30 6666 C 639.624 -0.25249 -4.23849 0
M  V30 6667 O 640.648 -0.279332 -3.55103 0
M  V30 6668 O 639.507 -0.177584 -5.46211 0
M  V30 6669 H 636.601 0.0086829 -0.826954 0
M  V30 6670 H 639.147 -0.728189 -1.53282 0
M  V30 6671 H 637.919 -1.37296 -3.66423 0
M  V30 6672 H 637.542 0.315757 -3.96344 0
M  V30 6673 N 638.539 1.52521 -0.396863 0
M  V30 6674 C 639.816 1.94112 0.240842 0
M  V30 6675 C 640.196 1.33288 1.637 0
M  V30 6676 O 639.544 0.503901 2.22875 0
M  V30 6677 C 639.754 3.48033 0.259567 0
M  V30 6678 C 641.102 4.21822 0.484866 0
M  V30 6679 O 642.126 3.54579 0.339453 0
M  V30 6680 O 640.985 5.41042 0.770412 0
M  V30 6681 H 638.079 0.812973 0.151671 0
M  V30 6682 H 640.625 1.63572 -0.451918 0
M  V30 6683 H 639.397 3.84655 -0.718078 0
M  V30 6684 H 639.02 3.84899 0.996937 0
M  V30 6685 N 640.017 0.126909 1.57088 0
M  V30 6686 C 641.294 -0.573152 1.87014 0
M  V30 6687 C 641.674 -1.84297 1.02945 0
M  V30 6688 O 641.022 -2.28232 0.110573 0
M  V30 6689 C 641.232 -0.857984 3.38289 0
M  V30 6690 C 642.58 -1.20759 4.07066 0
M  V30 6691 O 643.604 -0.947992 3.43353 0
M  V30 6692 O 642.463 -1.69516 5.19545 0
M  V30 6693 H 639.557 -0.290082 0.774456 0
M  V30 6694 H 642.103 0.162008 1.68925 0
M  V30 6695 H 640.875 0.0415286 3.91278 0
M  V30 6696 H 640.498 -1.64803 3.61837 0
M  V30 6697 N 641.495 -1.56914 -0.146875 0
M  V30 6698 C 642.741 -1.83628 -0.860741 0
M  V30 6699 C 643.074 -0.708528 -1.80813 0
M  V30 6700 O 642.349 0.287838 -1.92358 0
M  V30 6701 C 642.632 -3.20836 -1.63511 0
M  V30 6702 C 642.485 -4.44174 -0.709199 0
M  V30 6703 C 643.804 -3.55268 -2.59756 0
M  V30 6704 H 640.923 -0.667949 -0.311468 0
M  V30 6705 H 643.565 -1.89582 -0.125936 0
M  V30 6706 H 641.715 -3.15891 -2.26153 0
M  V30 6707 H 643.387 -4.61205 -0.0937781 0
M  V30 6708 H 641.63 -4.33796 -0.0187856 0
M  V30 6709 H 642.301 -5.36785 -1.28707 0
M  V30 6710 H 644.777 -3.60824 -2.07232 0
M  V30 6711 H 643.653 -4.52303 -3.10987 0
M  V30 6712 H 643.914 -2.81231 -3.41118 0
M  V30 6713 N 642.974 0.416227 -1.52004 0
M  V30 6714 C 644.22 1.16555 -1.6596 0
M  V30 6715 C 644.553 1.90347 -0.384906 0
M  V30 6716 O 643.828 1.84474 0.616405 0
M  V30 6717 C 644.111 2.1657 -2.87696 0
M  V30 6718 C 643.964 1.46722 -4.25197 0
M  V30 6719 C 645.283 3.17321 -3.04951 0
M  V30 6720 H 642.402 0.422369 -0.603965 0
M  V30 6721 H 645.044 0.452141 -1.84542 0
M  V30 6722 H 643.194 2.77411 -2.71985 0
M  V30 6723 H 644.866 0.89056 -4.52622 0
M  V30 6724 H 643.109 0.769263 -4.26925 0
M  V30 6725 H 643.78 2.19665 -5.0641 0
M  V30 6726 H 646.256 2.66552 -3.19514 0
M  V30 6727 H 645.132 3.84573 -3.91656 0
M  V30 6728 H 645.393 3.84643 -2.17951 0
M  V30 6729 N 644.452 1.42507 0.673017 0
M  V30 6730 C 645.7 1.42789 1.43023 0
M  V30 6731 C 646.021 0.0459738 1.94946 0
M  V30 6732 O 645.291 -0.915765 1.73178 0
M  V30 6733 H 643.871 0.525657 0.530748 0
M  V30 6734 H 646.533 1.77944 0.795113 0
M  V30 6735 H 645.629 2.12872 2.28237 0
M  V30 6736 N 645.93 -0.909495 1.28709 0
M  V30 6737 C 646.893 -1.99399 1.13016 0
M  V30 6738 C 647.893 -1.60654 0.068536 0
M  V30 6739 O 649.083 -1.71334 0.314671 0
M  V30 6740 C 646.215 -3.33078 0.726085 0
M  V30 6741 H 647.408 -2.14751 2.09338 0
M  V30 6742 H 644.961 -1.09272 1.11756 0
M  V30 6743 H 645.696 -3.23428 -0.23771 0
M  V30 6744 H 645.481 -3.62562 1.49302 0
M  V30 6745 H 646.971 -4.12681 0.639058 0
M  V30 6746 N 647.408 -1.11026 -1.11852 0
M  V30 6747 C 648.636 -0.878818 -1.87308 0
M  V30 6748 C 649.051 0.57111 -1.79955 0
M  V30 6749 O 648.408 1.39409 -1.17777 0
M  V30 6750 C 648.459 -1.3264 -3.36287 0
M  V30 6751 O 648.18 -2.71948 -3.43476 0
M  V30 6752 C 649.681 -1.12974 -4.28663 0
M  V30 6753 H 646.901 -0.315015 -0.592458 0
M  V30 6754 H 649.445 -1.47649 -1.41492 0
M  V30 6755 H 647.6 -0.772269 -3.79625 0
M  V30 6756 H 648.014 -2.91241 -4.3621 0
M  V30 6757 H 649.488 -1.49198 -5.31454 0
M  V30 6758 H 649.965 -0.0689127 -4.39146 0
M  V30 6759 H 650.571 -1.67064 -3.91113 0
M  V30 6760 N 648.886 1.2938 -0.899927 0
M  V30 6761 C 650.297 1.77644 -0.574427 0
M  V30 6762 C 650.648 1.73824 0.909928 0
M  V30 6763 O 649.773 1.32429 1.71147 0
M  V30 6764 C 650.368 3.22573 -1.03595 0
M  V30 6765 C 648.927 3.68614 -0.76161 0
M  V30 6766 C 648.074 2.49483 -1.21052 0
M  V30 6767 H 651.025 1.16038 -1.08263 0
M  V30 6768 H 651.046 3.78684 -0.371337 0
M  V30 6769 H 650.558 3.25321 -2.11631 0
M  V30 6770 H 648.659 3.7134 0.306127 0
M  V30 6771 H 648.772 4.59402 -1.35965 0
M  V30 6772 H 647.136 2.46798 -0.629515 0
M  V30 6773 H 647.919 2.54959 -2.29893 0
M  V30 6774 N 650.364 0.662433 1.43002 0
M  V30 6775 C 651.775 0.258315 1.84904 0
M  V30 6776 C 652.126 -1.19703 1.55453 0
M  V30 6777 O 651.251 -1.91484 1.00811 0
M  V30 6778 C 651.846 0.462047 3.35635 0
M  V30 6779 C 650.405 0.112165 3.76233 0
M  V30 6780 C 649.552 0.760479 2.66668 0
M  V30 6781 H 652.503 0.865467 1.33024 0
M  V30 6782 H 652.524 -0.289646 3.79396 0
M  V30 6783 H 652.036 1.52135 3.57039 0
M  V30 6784 H 650.137 -0.944179 3.60439 0
M  V30 6785 H 650.25 0.544058 4.76001 0
M  V30 6786 H 648.614 0.192887 2.53969 0
M  V30 6787 H 649.397 1.82299 2.90898 0
M  V30 6788 N 651.842 -1.52309 0.404946 0
M  V30 6789 C 652.805 -2.25491 -0.410651 0
M  V30 6790 C 653.805 -1.27704 -0.977154 0
M  V30 6791 O 654.995 -1.51679 -0.856691 0
M  V30 6792 C 652.127 -3.02197 -1.57765 0
M  V30 6793 H 653.32 -2.99015 0.230277 0
M  V30 6794 H 650.873 -1.55506 0.157377 0
M  V30 6795 H 651.608 -2.33013 -2.25556 0
M  V30 6796 H 651.393 -3.73987 -1.17797 0
M  V30 6797 H 652.883 -3.57719 -2.15469 0
M  V30 6798 N 653.32 -0.135238 -1.57019 0
M  V30 6799 C 654.736 0.221262 -1.58059 0
M  V30 6800 C 654.936 1.65538 -1.14889 0
M  V30 6801 O 653.992 2.37985 -0.843751 0
M  V30 6802 C 655.305 -0.0268114 -3.00688 0
M  V30 6803 C 656.853 0.0378206 -3.12977 0
M  V30 6804 C 657.328 -0.182769 -4.57635 0
M  V30 6805 N 658.819 -0.129292 -4.6302 0
M  V30 6806 C 659.554 -0.274648 -5.72742 0
M  V30 6807 N 659.05 -0.477075 -6.91155 0
M  V30 6808 N 660.843 -0.213077 -5.61696 0
M  V30 6809 H 652.994 -1.07177 -1.83376 0
M  V30 6810 H 655.257 -0.423338 -0.848227 0
M  V30 6811 H 654.963 -1.01889 -3.36618 0
M  V30 6812 H 654.837 0.697863 -3.70688 0
M  V30 6813 H 657.224 1.02043 -2.76896 0
M  V30 6814 H 657.305 -0.718996 -2.45487 0
M  V30 6815 H 656.949 -1.16243 -4.94419 0
M  V30 6816 H 656.879 0.59423 -5.23237 0
M  V30 6817 H 659.37 0.0229896 -3.77893 0
M  V30 6818 H 659.683 -0.578413 -7.70632 0
M  V30 6819 H 658.028 -0.513252 -6.93102 0
M  V30 6820 H 661.219 -0.0557796 -4.68067 0
M  V30 6821 H 661.392 -0.329796 -6.4716 0
M  V30 6822 N 654.798 1.5699 0.138552 0
M  V30 6823 C 655.728 2.01933 1.17241 0
M  V30 6824 C 656.709 0.90033 1.44319 0
M  V30 6825 O 657.894 1.16872 1.55095 0
M  V30 6826 C 655.024 2.40711 2.50351 0
M  V30 6827 C 653.978 3.55874 2.37776 0
M  V30 6828 C 653.304 3.80491 3.75674 0
M  V30 6829 C 654.604 4.8826 1.85472 0
M  V30 6830 H 656.298 2.88551 0.798672 0
M  V30 6831 H 653.844 1.3882 0.382743 0
M  V30 6832 H 655.797 2.70754 3.22909 0
M  V30 6833 H 654.521 1.5104 2.89576 0
M  V30 6834 H 653.18 3.2601 1.67669 0
M  V30 6835 H 652.828 2.88057 4.12349 0
M  V30 6836 H 652.528 4.57998 3.68119 0
M  V30 6837 H 654.052 4.12967 4.49767 0
M  V30 6838 H 655.466 5.16965 2.4783 0
M  V30 6839 H 653.863 5.69631 1.88787 0
M  V30 6840 H 654.933 4.78071 0.810935 0
M  V30 6841 N 656.276 -0.40816 1.52223 0
M  V30 6842 C 657.206 -1.5042 1.78595 0
M  V30 6843 C 658.187 -1.57723 0.636974 0
M  V30 6844 O 659.372 -1.72982 0.882664 0
M  V30 6845 C 656.502 -2.88232 1.93751 0
M  V30 6846 C 655.456 -2.95779 3.09352 0
M  V30 6847 C 654.782 -4.35855 3.09732 0
M  V30 6848 C 656.082 -2.67175 4.48793 0
M  V30 6849 H 657.776 -1.28601 2.70374 0
M  V30 6850 H 655.322 -0.617221 1.30101 0
M  V30 6851 H 657.275 -3.64895 2.10783 0
M  V30 6852 H 655.999 -3.11347 0.986443 0
M  V30 6853 H 654.658 -2.21561 2.92072 0
M  V30 6854 H 654.306 -4.55981 2.12346 0
M  V30 6855 H 654.006 -4.41829 3.87377 0
M  V30 6856 H 655.53 -5.14451 3.28895 0
M  V30 6857 H 656.944 -3.3356 4.66273 0
M  V30 6858 H 655.341 -2.84523 5.28362 0
M  V30 6859 H 656.411 -1.62609 4.56822 0
M  V30 6860 N 657.755 -1.42862 -0.66545 0
M  V30 6861 C 658.665 -1.49491 -1.80803 0
M  V30 6862 C 659.681 -0.382914 -1.69734 0
M  V30 6863 O 660.857 -0.635223 -1.9112 0
M  V30 6864 C 657.922 -1.40383 -3.17007 0
M  V30 6865 C 656.983 -2.62152 -3.39963 0
M  V30 6866 C 656.216 -2.53469 -4.69669 0
M  V30 6867 O 656.439 -1.57568 -5.48205 0
M  V30 6868 O 655.373 -3.43763 -4.94075 0
M  V30 6869 H 659.199 -2.45949 -1.78165 0
M  V30 6870 H 656.784 -1.24728 -0.822387 0
M  V30 6871 H 658.666 -1.377 -3.98267 0
M  V30 6872 H 657.341 -0.470546 -3.20262 0
M  V30 6873 H 656.248 -2.70409 -2.58515 0
M  V30 6874 H 657.581 -3.54411 -3.41546 0
M  V30 6875 N 659.233 0.902656 -1.29189 0
M  V30 6876 C 660.644 1.46809 -1.15343 0
M  V30 6877 C 660.995 1.94568 0.252517 0
M  V30 6878 O 660.12 1.83454 1.14777 0
M  V30 6879 C 660.715 2.66829 -2.08776 0
M  V30 6880 C 659.274 3.19518 -1.98961 0
M  V30 6881 C 658.421 1.92212 -1.99874 0
M  V30 6882 H 661.372 0.714282 -1.41717 0
M  V30 6883 H 661.393 3.42465 -1.65826 0
M  V30 6884 H 660.905 2.32039 -3.11094 0
M  V30 6885 H 659.006 3.59008 -0.99721 0
M  V30 6886 H 659.119 3.84016 -2.86477 0
M  V30 6887 H 657.483 2.0979 -1.44431 0
M  V30 6888 H 658.266 1.59702 -3.03891 0
M  V30 6889 N 660.711 1.11618 1.11262 0
M  V30 6890 C 661.957 0.877377 1.83504 0
M  V30 6891 C 662.312 -0.590606 1.83111 0
M  V30 6892 O 661.605 -1.43057 1.27456 0
M  V30 6893 C 661.799 1.37529 3.2988 0
M  V30 6894 C 661.628 2.89014 3.4453 0
M  V30 6895 C 660.398 3.57157 3.57445 0
M  V30 6896 C 662.596 3.8706 3.38658 0
M  V30 6897 N 660.578 4.96842 3.60585 0
M  V30 6898 C 661.949 5.12825 3.4844 0
M  V30 6899 C 664.004 3.79593 3.22201 0
M  V30 6900 C 662.707 6.32002 3.43462 0
M  V30 6901 C 664.733 4.98282 3.18542 0
M  V30 6902 C 664.095 6.22901 3.28897 0
M  V30 6903 H 660.194 0.37422 0.686646 0
M  V30 6904 H 662.778 1.42087 1.33114 0
M  V30 6905 H 660.949 0.85895 3.78783 0
M  V30 6906 H 662.681 1.07944 3.90039 0
M  V30 6907 H 659.436 3.07628 3.60086 0
M  V30 6908 H 659.86 5.69674 3.65788 0
M  V30 6909 H 664.502 2.84149 3.1308 0
M  V30 6910 H 662.22 7.27721 3.51352 0
M  V30 6911 H 665.806 4.94226 3.06972 0
M  V30 6912 H 664.686 7.13202 3.26056 0
M  V30 6913 N 662.189 -1.289 0.906776 0
M  V30 6914 C 663.152 -2.25777 0.394656 0
M  V30 6915 C 664.152 -1.53621 -0.475119 0
M  V30 6916 O 665.342 -1.71949 -0.279165 0
M  V30 6917 C 662.474 -3.38113 -0.43499 0
M  V30 6918 H 663.667 -2.72592 1.25033 0
M  V30 6919 H 661.22 -1.40463 0.685547 0
M  V30 6920 H 661.955 -2.96648 -1.31036 0
M  V30 6921 H 661.74 -3.91647 0.188334 0
M  V30 6922 H 663.23 -4.10168 -0.784365 0
M  V30 6923 N 663.667 -0.670007 -1.42649 0
M  V30 6924 C 664.915 -0.18991 -2.01206 0
M  V30 6925 C 665.236 1.20617 -1.53221 0
M  V30 6926 O 664.506 1.80898 -0.751856 0
M  V30 6927 H 663.086 -0.0672189 -0.743969 0
M  V30 6928 H 665.748 -0.865442 -1.74631 0
M  V30 6929 H 664.844 -0.187481 -3.11536 0
M  V30 6930 N 665.145 1.52092 -0.413018 0
M  V30 6931 C 666.385 2.03765 0.160975 0
M  V30 6932 C 666.749 1.29174 1.4205 0
M  V30 6933 O 667.95 1.71093 2.07318 0
M  V30 6934 C 666.221 3.55167 0.398871 0
M  V30 6935 S 667.78 4.28619 0.939755 0
M  V30 6936 H 664.598 0.709685 0.0432281 0
M  V30 6937 H 667.2 1.87102 -0.566831 0
M  V30 6938 H 665.904 4.07034 -0.524544 0
M  V30 6939 H 665.435 3.7608 1.15444 0
M  V30 6940 H 667.45 4.43773 2.21991 0
M  V30 6941 N 666.623 0.143563 1.56945 0
M  V30 6942 C 667.571 -0.814556 2.17871 0
M  V30 6943 C 668.565 -1.25778 1.13474 0
M  V30 6944 O 669.771 -1.22666 1.31731 0
M  V30 6945 H 666.146 -0.280873 0.697578 0
M  V30 6946 H 668.117 -0.276459 2.97117 0
M  V30 6947 C 666.866 -2.04503 2.81201 0
M  V30 6948 H 666.189 -1.71296 3.61245 0
M  V30 6949 H 667.629 -2.69493 3.27337 0
M  V30 6950 C 666.088 -2.85079 1.79532 0
M  V30 6951 O 666.618 -3.81306 1.26368 0
M  V30 6952 N 664.824 -2.49546 1.48913 0
M  V30 6953 H 664.371 -1.71359 1.92338 0
M  V30 6954 H 664.329 -3.03751 0.811348 0
M  V30 6955 N 668.101 -1.57061 -0.130224 0
M  V30 6956 C 669.349 -1.83893 -0.838313 0
M  V30 6957 C 669.67 -0.727046 -1.80939 0
M  V30 6958 O 668.94 0.249927 -1.94299 0
M  V30 6959 H 667.52 -0.67846 -0.312573 0
M  V30 6960 H 670.182 -1.94529 -0.120224 0
M  V30 6961 H 669.278 -2.79419 -1.39038 0
M  V30 6962 N 669.579 0.400081 -1.52437 0
M  V30 6963 C 670.827 1.14392 -1.6661 0
M  V30 6964 C 671.148 1.90792 -0.402927 0
M  V30 6965 O 670.418 1.87042 0.582425 0
M  V30 6966 H 668.998 0.425275 -0.614125 0
M  V30 6967 H 671.66 0.455076 -1.89513 0
M  V30 6968 H 670.756 1.85298 -2.51139 0
M  V30 6969 N 671.057 1.43213 0.657864 0
M  V30 6970 C 672.02 1.47687 1.75275 0
M  V30 6971 C 673.02 0.362179 1.56668 0
M  V30 6972 O 674.21 0.623734 1.62651 0
M  V30 6973 C 671.342 1.32497 3.14098 0
M  V30 6974 H 672.535 2.4519 1.7269 0
M  V30 6975 H 670.088 1.2991 0.869087 0
M  V30 6976 H 670.823 0.359831 3.22298 0
M  V30 6977 H 670.608 2.13299 3.29008 0
M  V30 6978 H 672.098 1.38549 3.93946 0
M  V30 6979 N 672.536 -0.895792 1.29666 0
M  V30 6980 C 673.499 -1.98189 1.15124 0
M  V30 6981 C 674.499 -1.60572 0.0855717 0
M  V30 6982 O 675.689 -1.70991 0.332826 0
M  V30 6983 C 672.821 -3.32289 0.761372 0
M  V30 6984 H 674.014 -2.12518 2.11603 0
M  V30 6985 H 671.567 -1.0808 1.12908 0
M  V30 6986 H 672.302 -3.23662 -0.203393 0
M  V30 6987 H 672.087 -3.60958 1.53139 0
M  V30 6988 H 673.577 -4.1198 0.682792 0
M  V30 6989 N 674.014 -1.12206 -1.10668 0
M  V30 6990 C 674.977 -0.790867 -2.15123 0
M  V30 6991 C 675.977 0.193618 -1.5963 0
M  V30 6992 O 677.167 -0.0318728 -1.74171 0
M  V30 6993 C 674.299 -0.174797 -3.40452 0
M  V30 6994 H 675.492 -1.7163 -2.45933 0
M  V30 6995 H 673.045 -0.924993 -1.2599 0
M  V30 6996 H 673.78 0.760478 -3.15257 0
M  V30 6997 H 673.565 -0.88358 -3.82015 0
M  V30 6998 H 675.055 0.0405162 -4.1758 0
M  V30 6999 N 675.492 1.28418 -0.913599 0
M  V30 7000 C 676.769 1.89977 -0.465619 0
M  V30 7001 C 677.149 1.82813 1.05559 0
M  V30 7002 O 676.497 1.26397 1.90358 0
M  V30 7003 C 676.707 3.34492 -0.995813 0
M  V30 7004 C 678.055 4.11468 -1.04782 0
M  V30 7005 O 679.079 3.43451 -0.944445 0
M  V30 7006 O 677.938 5.33046 -1.20518 0
M  V30 7007 H 675.032 0.813734 -0.147532 0
M  V30 7008 H 677.578 1.36786 -1.00437 0
M  V30 7009 H 676.35 3.33929 -2.03978 0
M  V30 7010 H 675.973 3.95181 -0.437878 0
M  V30 7011 N 676.97 0.677563 1.42291 0
M  V30 7012 C 678.195 0.207901 2.06355 0
M  V30 7013 C 678.62 -1.12723 1.50583 0
M  V30 7014 O 677.978 -1.70171 0.62543 0
M  V30 7015 C 678.026 0.156489 3.6026 0
M  V30 7016 O 677.13 -0.874162 4.03029 0
M  V30 7017 H 676.471 0.106056 0.655475 0
M  V30 7018 H 679.001 0.927354 1.82377 0
M  V30 7019 H 679.011 -0.0187258 4.07996 0
M  V30 7020 H 677.686 1.13101 4.00226 0
M  V30 7021 H 676.263 -0.669764 3.66836 0
M  V30 7022 N 678.448 -1.51871 0.421078 0
M  V30 7023 C 679.725 -1.9447 -0.20993 0
M  V30 7024 C 680.105 -1.35875 -1.61558 0
M  V30 7025 O 679.453 -0.539294 -2.22045 0
M  V30 7026 C 679.663 -3.48402 -0.204165 0
M  V30 7027 C 681.011 -4.2254 -0.417696 0
M  V30 7028 O 682.035 -3.55074 -0.282999 0
M  V30 7029 O 680.894 -5.422 -0.684239 0
M  V30 7030 H 677.988 -0.815283 -0.138718 0
M  V30 7031 H 680.534 -1.62832 0.477884 0
M  V30 7032 H 679.306 -3.83464 0.779183 0
M  V30 7033 H 678.929 -3.86436 -0.935576 0
M  V30 7034 N 679.926 -0.151884 -1.56866 0
M  V30 7035 C 681.151 0.508044 -2.01081 0
M  V30 7036 C 681.576 1.57306 -1.03134 0
M  V30 7037 O 680.934 1.81298 -0.0078309 0
M  V30 7038 C 680.982 1.08106 -3.44014 0
M  V30 7039 O 680.086 2.19577 -3.49084 0
M  V30 7040 H 679.427 0.123757 -0.652365 0
M  V30 7041 H 681.957 -0.250055 -2.03066 0
M  V30 7042 H 681.967 1.40851 -3.82916 0
M  V30 7043 H 680.642 0.301168 -4.14808 0
M  V30 7044 H 679.219 1.88023 -3.22027 0
M  V30 7045 N 681.404 1.57128 0.121893 0
M  V30 7046 C 682.629 1.89254 0.848385 0
M  V30 7047 C 683.054 0.743527 1.72781 0
M  V30 7048 O 682.412 -0.306056 1.78698 0
M  V30 7049 C 682.46 3.20113 1.66012 0
M  V30 7050 O 681.564 3.05815 2.76679 0
M  V30 7051 H 680.905 0.621103 0.234793 0
M  V30 7052 H 683.435 2.0433 0.10516 0
M  V30 7053 H 683.445 3.52761 2.04996 0
M  V30 7054 H 682.12 4.03336 1.01452 0
M  V30 7055 H 680.697 2.84627 2.40918 0
M  V30 7056 N 682.882 -0.391992 1.52647 0
M  V30 7057 C 683.812 -1.48517 1.8018 0
M  V30 7058 C 684.793 -1.57039 0.653667 0
M  V30 7059 O 685.978 -1.72036 0.900962 0
M  V30 7060 C 683.108 -2.86161 1.96797 0
M  V30 7061 C 682.062 -2.92481 3.12472 0
M  V30 7062 C 681.388 -4.32546 3.14338 0
M  V30 7063 C 682.688 -2.624 4.51601 0
M  V30 7064 H 684.382 -1.25726 2.71723 0
M  V30 7065 H 681.928 -0.603387 1.30749 0
M  V30 7066 H 683.881 -3.62639 2.14641 0
M  V30 7067 H 682.605 -3.10283 1.01941 0
M  V30 7068 H 681.264 -2.18451 2.94406 0
M  V30 7069 H 680.912 -4.53703 2.1717 0
M  V30 7070 H 680.612 -4.37695 3.92042 0
M  V30 7071 H 682.136 -5.10934 3.34333 0
M  V30 7072 H 683.55 -3.28596 4.69785 0
M  V30 7073 H 681.947 -2.78903 5.3135 0
M  V30 7074 H 683.017 -1.57754 4.58521 0
M  V30 7075 N 684.36 -1.4356 -0.65026 0
M  V30 7076 C 685.637 -1.35811 -1.40765 0
M  V30 7077 C 686.017 -0.00736379 -2.11099 0
M  V30 7078 O 685.365 1.00932 -2.05 0
M  V30 7079 C 685.575 -2.54332 -2.3899 0
M  V30 7080 C 686.923 -2.97551 -3.02901 0
M  V30 7081 O 687.947 -2.544 -2.49317 0
M  V30 7082 O 686.806 -3.72311 -4.00059 0
M  V30 7083 H 683.9 -0.536861 -0.629054 0
M  V30 7084 H 686.446 -1.55615 -0.676919 0
M  V30 7085 H 685.218 -3.44274 -1.85986 0
M  V30 7086 H 684.841 -2.36643 -3.19509 0
M  V30 7087 N 685.838 0.888903 -1.30139 0
M  V30 7088 C 686.748 2.02705 -1.18101 0
M  V30 7089 C 687.764 1.73702 -0.101809 0
M  V30 7090 O 688.94 1.98906 -0.315984 0
M  V30 7091 C 686.005 3.35616 -0.869651 0
M  V30 7092 C 685.066 3.78067 -2.03381 0
M  V30 7093 C 684.299 5.04635 -1.73721 0
M  V30 7094 O 684.522 5.66531 -0.663267 0
M  V30 7095 O 683.456 5.43399 -2.58845 0
M  V30 7096 H 687.282 2.15788 -2.13704 0
M  V30 7097 H 684.867 1.01426 -1.09695 0
M  V30 7098 H 686.749 4.15358 -0.711043 0
M  V30 7099 H 685.424 3.23651 0.0565002 0
M  V30 7100 H 684.331 2.99046 -2.24772 0
M  V30 7101 H 685.664 3.94631 -2.94155 0
M  V30 7102 N 687.317 1.12792 1.10072 0
M  V30 7103 C 688.728 0.899346 1.63611 0
M  V30 7104 C 689.079 -0.565547 1.87872 0
M  V30 7105 O 688.204 -1.43081 1.62348 0
M  V30 7106 C 688.799 1.62608 2.97227 0
M  V30 7107 C 687.358 1.44356 3.47618 0
M  V30 7108 C 686.505 1.65958 2.22156 0
M  V30 7109 H 689.456 1.28216 0.935223 0
M  V30 7110 H 689.477 1.0793 3.64872 0
M  V30 7111 H 688.989 2.69221 2.79538 0
M  V30 7112 H 687.09 0.400148 3.70445 0
M  V30 7113 H 687.203 2.20218 4.25489 0
M  V30 7114 H 685.567 1.08395 2.30484 0
M  V30 7115 H 686.35 2.73877 2.06993 0
M  V30 7116 N 688.795 -1.27931 0.920396 0
M  V30 7117 C 690.035 -1.96459 0.564198 0
M  V30 7118 C 690.399 -1.70802 -0.876967 0
M  V30 7119 O 691.6 -2.32956 -1.34107 0
M  V30 7120 C 689.871 -3.46583 0.872641 0
M  V30 7121 S 691.43 -4.34343 0.623859 0
M  V30 7122 H 688.248 -0.679735 0.208523 0
M  V30 7123 H 690.85 -1.55319 1.18727 0
M  V30 7124 H 689.554 -3.62753 1.91933 0
M  V30 7125 H 689.085 -3.92677 0.238479 0
M  V30 7126 H 691.1 -4.93449 -0.521744 0
M  V30 7127 N 690.273 -0.685099 -1.4193 0
M  V30 7128 C 691.689 -0.355632 -1.55587 0
M  V30 7129 C 691.889 1.13823 -1.66273 0
M  V30 7130 O 690.945 1.92387 -1.63534 0
M  V30 7131 C 692.258 -1.09498 -2.80055 0
M  V30 7132 C 693.806 -1.07831 -2.93839 0
M  V30 7133 C 694.281 -1.79919 -4.21181 0
M  V30 7134 N 695.772 -1.76837 -4.28115 0
M  V30 7135 C 696.507 -2.29463 -5.25485 0
M  V30 7136 N 696.003 -2.90516 -6.28945 0
M  V30 7137 N 697.796 -2.19779 -5.17353 0
M  V30 7138 H 689.947 -1.65412 -1.33239 0
M  V30 7139 H 692.21 -0.697453 -0.642078 0
M  V30 7140 H 691.916 -2.14997 -2.78333 0
M  V30 7141 H 691.79 -0.666813 -3.71259 0
M  V30 7142 H 694.177 -0.0316152 -2.95083 0
M  V30 7143 H 694.258 -1.54545 -2.03837 0
M  V30 7144 H 693.902 -2.84562 -4.20698 0
M  V30 7145 H 693.832 -1.30647 -5.10136 0
M  V30 7146 H 696.323 -1.32315 -3.53979 0
M  V30 7147 H 696.636 -3.28266 -6.99615 0
M  V30 7148 H 694.981 -2.94589 -6.29478 0
M  V30 7149 H 698.172 -1.71763 -4.35448 0
M  V30 7150 H 698.345 -2.61097 -5.9307 0
M  V30 7151 N 691.751 1.51645 -0.429126 0
M  V30 7152 C 693.162 1.86665 0.0359003 0
M  V30 7153 C 693.513 1.34677 1.42676 0
M  V30 7154 O 692.638 0.694195 2.04963 0
M  V30 7155 C 693.233 3.38724 0.0719221 0
M  V30 7156 C 691.792 3.7331 0.481336 0
M  V30 7157 C 690.939 2.75313 -0.331329 0
M  V30 7158 H 693.89 1.44987 -0.645333 0
M  V30 7159 H 693.911 3.7011 0.883118 0
M  V30 7160 H 693.423 3.76532 -0.940495 0
M  V30 7161 H 691.524 3.41088 1.49966 0
M  V30 7162 H 691.637 4.78631 0.211837 0
M  V30 7163 H 690.001 2.53839 0.209204 0
M  V30 7164 H 690.784 3.15963 -1.34247 0
M  V30 7165 N 693.229 0.160201 1.56784 0
M  V30 7166 C 694.477 -0.486625 1.96154 0
M  V30 7167 C 694.798 -1.64525 1.04673 0
M  V30 7168 O 694.068 -1.95586 0.110864 0
M  V30 7169 H 692.648 -0.182764 0.724297 0
M  V30 7170 H 695.31 0.238787 1.93432 0
M  V30 7171 H 694.406 -0.854025 3.00188 0
M  V30 7172 N 694.707 -1.5719 -0.113559 0
M  V30 7173 C 695.954 -1.85138 -0.820382 0
M  V30 7174 C 696.282 -0.74608 -1.79622 0
M  V30 7175 O 695.537 0.262077 -1.93937 0
M  V30 7176 C 695.836 -3.19593 -1.59984 0
M  V30 7177 C 695.502 -4.44315 -0.767809 0
M  V30 7178 C 694.164 -4.78179 -0.538379 0
M  V30 7179 C 696.516 -5.2086 -0.188203 0
M  V30 7180 C 693.844 -5.86028 0.28082 0
M  V30 7181 C 696.196 -6.29572 0.618217 0
M  V30 7182 C 694.86 -6.61964 0.857912 0
M  V30 7183 H 694.13 -0.677467 -0.300199 0
M  V30 7184 H 696.777 -1.91322 -0.0825443 0
M  V30 7185 H 695.082 -3.0901 -2.40874 0
M  V30 7186 H 696.779 -3.3844 -2.1508 0
M  V30 7187 H 693.369 -4.17786 -0.956724 0
M  V30 7188 H 697.553 -4.95045 -0.352658 0
M  V30 7189 H 692.809 -6.09547 0.475693 0
M  V30 7190 H 696.983 -6.88064 1.0743 0
M  V30 7191 H 694.61 -7.45365 1.49451 0
M  V30 7192 N 696.185 0.383891 -1.52853 0
M  V30 7193 C 697.148 1.45197 -1.77343 0
M  V30 7194 C 698.148 1.47362 -0.643522 0
M  V30 7195 O 699.338 1.48443 -0.911613 0
M  V30 7196 C 696.47 2.8445 -1.87885 0
M  V30 7197 H 697.663 1.24764 -2.72716 0
M  V30 7198 H 695.216 0.615939 -1.43652 0
M  V30 7199 H 695.951 3.10222 -0.94515 0
M  V30 7200 H 695.736 2.8428 -2.70051 0
M  V30 7201 H 697.226 3.61832 -2.08488 0
M  V30 7202 N 697.663 1.43903 0.642637 0
M  V30 7203 C 698.888 1.49758 1.43483 0
M  V30 7204 C 699.313 0.119911 1.87717 0
M  V30 7205 O 698.671 -0.888558 1.58033 0
M  V30 7206 C 698.719 2.45744 2.63898 0
M  V30 7207 O 697.823 1.95101 3.63331 0
M  V30 7208 H 697.164 0.506138 0.429791 0
M  V30 7209 H 699.694 1.88923 0.785438 0
M  V30 7210 H 699.704 2.63399 3.11584 0
M  V30 7211 H 698.379 3.45818 2.31046 0
M  V30 7212 H 696.956 1.87158 3.22531 0
M  V30 7213 N 699.141 -0.881989 1.30609 0
M  V30 7214 C 700.051 -2.02076 1.19174 0
M  V30 7215 C 701.067 -1.73645 0.11102 0
M  V30 7216 O 702.243 -1.98735 0.326528 0
M  V30 7217 C 699.308 -3.3515 0.887438 0
M  V30 7218 C 698.369 -3.76983 2.05383 0
M  V30 7219 C 697.602 -5.03707 1.76395 0
M  V30 7220 O 697.825 -5.66171 0.693302 0
M  V30 7221 O 696.759 -5.42019 2.61723 0
M  V30 7222 H 700.585 -2.14652 2.14845 0
M  V30 7223 H 698.17 -1.00843 1.10232 0
M  V30 7224 H 700.052 -4.14975 0.73306 0
M  V30 7225 H 698.727 -3.23676 -0.0393354 0
M  V30 7226 H 697.634 -2.97849 2.26355 0
M  V30 7227 H 698.967 -3.93066 2.96243 0
M  V30 7228 N 700.619 -1.13374 -1.09472 0
M  V30 7229 C 701.844 -0.918711 -1.85942 0
M  V30 7230 C 702.269 0.527225 -1.8056 0
M  V30 7231 O 701.627 1.37408 -1.18274 0
M  V30 7232 C 701.675 -1.41056 -3.31867 0
M  V30 7233 O 700.779 -0.595496 -4.08078 0
M  V30 7234 H 700.12 -0.329297 -0.576593 0
M  V30 7235 H 702.65 -1.50829 -1.38245 0
M  V30 7236 H 702.66 -1.41398 -3.82715 0
M  V30 7237 H 701.335 -2.46335 -3.35099 0
M  V30 7238 H 699.912 -0.659911 -3.67014 0
M  V30 7239 N 702.098 1.27442 -0.927168 0
M  V30 7240 C 703.045 2.26863 -0.424459 0
M  V30 7241 C 704.015 1.5813 0.508346 0
M  V30 7242 O 705.2 1.85946 0.42762 0
M  V30 7243 C 702.34 3.43639 0.31718 0
M  V30 7244 C 701.453 4.27087 -0.649675 0
M  V30 7245 C 700.588 5.31082 0.111753 0
M  V30 7246 C 699.627 6.062 -0.847843 0
M  V30 7247 N 698.764 7.01999 -0.119074 0
M  V30 7248 H 703.604 2.69239 -1.27728 0
M  V30 7249 H 701.141 1.32394 -0.641106 0
M  V30 7250 H 703.099 4.10155 0.763486 0
M  V30 7251 H 701.729 3.02217 1.13424 0
M  V30 7252 H 700.781 3.60491 -1.21451 0
M  V30 7253 H 702.093 4.79242 -1.38307 0
M  V30 7254 H 701.247 6.03544 0.618 0
M  V30 7255 H 699.986 4.7973 0.878114 0
M  V30 7256 H 698.991 5.32577 -1.36534 0
M  V30 7257 H 700.216 6.59642 -1.61398 0
M  V30 7258 H 698.162 6.52977 0.629051 0
M  V30 7259 H 698.079 7.5184 -0.792046 0
M  V30 7260 H 699.347 7.78638 0.366537 0
M  V30 7261 N 703.576 0.692616 1.41565 0
M  V30 7262 C 704.822 0.222664 2.01574 0
M  V30 7263 C 705.155 -1.1737 1.54719 0
M  V30 7264 O 704.43 -1.79161 0.757084 0
M  V30 7265 C 704.713 0.277064 3.59033 0
M  V30 7266 C 704.566 1.71016 4.16021 0
M  V30 7267 C 705.885 -0.36479 4.38586 0
M  V30 7268 H 703.004 0.0823839 0.732381 0
M  V30 7269 H 705.646 0.880778 1.68352 0
M  V30 7270 H 703.796 -0.283288 3.87466 0
M  V30 7271 H 705.468 2.32413 3.98475 0
M  V30 7272 H 703.711 2.24525 3.71175 0
M  V30 7273 H 704.382 1.69978 5.25178 0
M  V30 7274 H 706.858 0.112404 4.15948 0
M  V30 7275 H 705.734 -0.296169 5.481 0
M  V30 7276 H 705.995 -1.44506 4.17816 0
M  V30 7277 O 705.093 -1.50756 0.579208 0
M  V30 7278 H 705.784 -1.93523 0.0829038 0
M  V30 END ATOM
M  V30 BEGIN BOND
M  V30 END BOND
M  V30 END CTAB
M  END
$$$$
