drugbank_target|C0H419 Biotin/lipoyl attachment protein (DB07497)
 OpenBabel12092120443D

  0  0  0     0  0            999 V3000
M  V30 BEGIN CTAB
M  V30 COUNTS 1142 1146 0 0 0
M  V30 BEGIN ATOM
M  V30 1 H -0.908 1.98254 -0.117106 0
M  V30 2 N 0 1.576 0 0
M  V30 3 C 0.933 2.03868 1.02534 0
M  V30 4 C 1.911 0.928543 1.3348 0
M  V30 5 O 3.095 1.19667 1.45644 0
M  V30 6 C 0.222 2.43627 2.35294 0
M  V30 7 C -0.732 3.65373 2.2001 0
M  V30 8 S 0.101 5.13292 1.52614 0
M  V30 9 C 1.257 5.56322 2.86805 0
M  V30 10 H 1.49 2.90518 0.631377 0
M  V30 11 H -0.977 1.52953 0.210867 0
M  V30 12 H 0.981 2.67203 3.11629 0
M  V30 13 H -0.358 1.57376 2.7183 0
M  V30 14 H -1.165 3.90944 3.18086 0
M  V30 15 H -1.563 3.418 1.51819 0
M  V30 16 H 0.729 5.58782 3.83104 0
M  V30 17 H 1.672 6.56266 2.65933 0
M  V30 18 H 2.08 4.83886 2.90714 0
M  V30 19 N 1.4781 -0.272755 1.55222 0
M  V30 20 C 2.7061 -1.02255 1.79865 0
M  V30 21 C 3.1211 -1.79924 0.572088 0
M  V30 22 O 2.4781 -1.76638 -0.458842 0
M  V30 23 C 2.5291 -1.98094 3.02392 0
M  V30 24 O 2.2501 -1.23572 4.20311 0
M  V30 25 C 3.7511 -2.84884 3.39641 0
M  V30 26 H 0.9711 -0.302057 0.599168 0
M  V30 27 H 3.5151 -0.303465 2.02236 0
M  V30 28 H 1.6701 -2.65465 2.82147 0
M  V30 29 H 2.0841 -1.88172 4.89583 0
M  V30 30 H 3.5581 -3.47927 4.28545 0
M  V30 31 H 4.0351 -3.54665 2.59055 0
M  V30 32 H 4.6411 -2.23003 3.62146 0
M  V30 33 N 2.9562 -1.48159 -0.537278 0
M  V30 34 C 4.2022 -1.56035 -1.29541 0
M  V30 35 C 4.5352 -0.230377 -1.92829 0
M  V30 36 O 3.8102 0.762952 -1.78911 0
M  V30 37 C 4.0932 -2.69323 -2.39034 0
M  V30 38 C 3.9462 -4.12002 -1.80485 0
M  V30 39 C 5.2652 -2.78408 -3.40847 0
M  V30 40 H 2.3842 -0.567992 -0.469632 0
M  V30 41 H 5.0262 -1.80302 -0.599277 0
M  V30 42 H 3.1762 -2.48763 -2.98412 0
M  V30 43 H 4.8482 -4.43981 -1.25215 0
M  V30 44 H 3.0912 -4.19344 -1.11055 0
M  V30 45 H 3.7622 -4.87077 -2.59731 0
M  V30 46 H 6.2382 -2.97012 -2.91416 0
M  V30 47 H 5.1142 -3.59416 -4.14863 0
M  V30 48 H 5.3752 -1.86269 -4.00944 0
M  V30 49 N 4.4343 0.785586 -1.36625 0
M  V30 50 C 5.6593 1.57963 -1.34397 0
M  V30 51 C 6.0843 1.87964 0.071526 0
M  V30 52 O 5.4423 1.48182 1.0446 0
M  V30 53 C 5.4903 2.87511 -2.17646 0
M  V30 54 O 4.5943 3.81281 -1.57158 0
M  V30 55 H 3.9353 0.479014 -0.459828 0
M  V30 56 H 6.4653 0.973411 -1.79961 0
M  V30 57 H 6.4753 3.36745 -2.30362 0
M  V30 58 H 5.1503 2.65002 -3.20541 0
M  V30 59 H 3.7273 3.39885 -1.53403 0
M  V30 60 N 5.9124 1.20967 1.01018 0
M  V30 61 C 7.1614 1.01796 1.74128 0
M  V30 62 C 7.4744 -0.449691 1.90361 0
M  V30 63 O 8.6804 -0.76068 2.60626 0
M  V30 64 C 7.1364 1.7727 3.13215 0
M  V30 65 C 6.7444 3.28171 3.04972 0
M  V30 66 C 8.4884 1.66489 3.90489 0
M  V30 67 C 6.3954 3.96156 4.39107 0
M  V30 68 H 5.3254 0.377276 0.652824 0
M  V30 69 H 7.9764 1.44651 1.12909 0
M  V30 70 H 6.3584 1.27205 3.75013 0
M  V30 71 H 7.5324 3.85499 2.52443 0
M  V30 72 H 5.8474 3.39437 2.41188 0
M  V30 73 H 8.4444 2.14617 4.89738 0
M  V30 74 H 8.7874 0.6222 4.11624 0
M  V30 75 H 9.3204 2.14003 3.35332 0
M  V30 76 H 6.0594 5.00604 4.23174 0
M  V30 77 H 5.5794 3.43617 4.91617 0
M  V30 78 H 7.2584 4.00774 5.07926 0
M  V30 79 N 7.3905 -1.2043 1.01659 0
M  V30 80 C 8.3225 -2.22626 0.544988 0
M  V30 81 C 9.3355 -1.58479 -0.372609 0
M  V30 82 O 10.5245 -1.77679 -0.170958 0
M  V30 83 C 7.6245 -3.38141 -0.22663 0
M  V30 84 C 6.7975 -4.31877 0.692876 0
M  V30 85 C 5.8565 -5.26191 -0.0311616 0
M  V30 86 O 4.8825 -5.6612 0.591343 0
M  V30 87 N 6.0845 -5.65618 -1.30601 0
M  V30 88 H 8.8495 -2.63716 1.42388 0
M  V30 89 H 6.4105 -1.34971 0.894116 0
M  V30 90 H 8.4025 -3.98239 -0.72024 0
M  V30 91 H 6.9725 -2.95943 -1.00681 0
M  V30 92 H 6.1925 -3.69746 1.36679 0
M  V30 93 H 7.4805 -4.91426 1.31824 0
M  V30 94 H 6.8785 -5.3519 -1.83269 0
M  V30 95 H 5.4355 -6.28025 -1.74435 0
M  V30 96 N 8.8686 -0.792821 -1.36206 0
M  V30 97 C 9.8016 -0.139422 -2.27774 0
M  V30 98 C 10.7796 0.68649 -1.47398 0
M  V30 99 O 11.9636 0.656738 -1.7669 0
M  V30 100 C 9.0906 0.807947 -3.28922 0
M  V30 101 C 8.1366 0.0633999 -4.26453 0
M  V30 102 S 8.9696 -1.26319 -5.20388 0
M  V30 103 C 10.1256 -0.31991 -6.25082 0
M  V30 104 H 10.3586 -0.915809 -2.82843 0
M  V30 105 H 7.8916 -0.587203 -1.42798 0
M  V30 106 H 9.8496 1.34908 -3.87699 0
M  V30 107 H 8.5106 1.55761 -2.72759 0
M  V30 108 H 7.7036 0.782386 -4.9789 0
M  V30 109 H 7.3056 -0.407352 -3.71775 0
M  V30 110 H 9.5976 0.499985 -6.75653 0
M  V30 111 H 10.5406 -1.00307 -7.00959 0
M  V30 112 H 10.9486 0.0782694 -5.64446 0
M  V30 113 N 10.3467 1.47872 -0.545128 0
M  V30 114 C 11.3097 2.28337 0.198717 0
M  V30 115 C 12.3097 1.36255 0.853888 0
M  V30 116 O 13.4997 1.59003 0.711606 0
M  V30 117 C 10.6317 3.15585 1.28915 0
M  V30 118 H 11.8247 2.95567 -0.507941 0
M  V30 119 H 9.3777 1.53362 -0.301616 0
M  V30 120 H 10.1127 2.53019 2.02859 0
M  V30 121 H 9.8977 3.83337 0.824309 0
M  V30 122 H 11.3877 3.76243 1.81194 0
M  V30 123 N 11.8248 0.280983 1.55075 0
M  V30 124 C 13.0728 -0.333455 1.9933 0
M  V30 125 C 13.3938 -1.55937 1.17085 0
M  V30 126 O 12.6638 -1.94143 0.261805 0
M  V30 127 H 11.2438 -0.126197 0.736263 0
M  V30 128 H 13.9058 0.387678 1.91005 0
M  V30 129 H 13.0018 -0.619292 3.05894 0
M  V30 130 N 13.3029 -1.57598 0.00835791 0
M  V30 131 C 14.2509 -2.10078 -0.998508 0
M  V30 132 C 15.2449 -1.02262 -1.35051 0
M  V30 133 O 16.4509 -1.20719 -1.33518 0
M  V30 134 H 12.8259 -0.670903 -0.339696 0
M  V30 135 H 14.7969 -2.93648 -0.530398 0
M  V30 136 C 13.5459 -2.62615 -2.27879 0
M  V30 137 H 12.8689 -3.45213 -2.01662 0
M  V30 138 H 14.3089 -3.03004 -2.96588 0
M  V30 139 C 12.7679 -1.54407 -2.99433 0
M  V30 140 O 13.2979 -0.931812 -3.90743 0
M  V30 141 N 11.5039 -1.2695 -2.61404 0
M  V30 142 H 11.0509 -1.76924 -1.87232 0
M  V30 143 H 11.0089 -0.547704 -3.09593 0
M  V30 144 N 14.781 0.264519 -1.55364 0
M  V30 145 C 15.711 1.33121 -1.91836 0
M  V30 146 C 16.692 1.51101 -0.781192 0
M  V30 147 O 17.877 1.64003 -1.04003 0
M  V30 148 C 15.007 2.68921 -2.19769 0
M  V30 149 C 13.961 2.65661 -3.35571 0
M  V30 150 C 13.287 4.05093 -3.49004 0
M  V30 151 C 14.587 2.24187 -4.71739 0
M  V30 152 H 16.281 1.02844 -2.81182 0
M  V30 153 H 13.827 0.493286 -1.35287 0
M  V30 154 H 15.78 3.43663 -2.43872 0
M  V30 155 H 14.504 3.00799 -1.27231 0
M  V30 156 H 13.163 1.93377 -3.1145 0
M  V30 157 H 12.811 4.34206 -2.53917 0
M  V30 158 H 12.511 4.03804 -4.26868 0
M  V30 159 H 14.035 4.81561 -3.75408 0
M  V30 160 H 15.449 2.88654 -4.9533 0
M  V30 161 H 13.846 2.34044 -5.52579 0
M  V30 162 H 14.916 1.19327 -4.69988 0
M  V30 163 N 16.2591 1.48442 0.529413 0
M  V30 164 C 17.5051 1.57699 1.28463 0
M  V30 165 C 17.8601 0.247913 1.90796 0
M  V30 166 O 17.1531 -0.749279 1.76342 0
M  V30 167 C 17.3471 2.6523 2.39558 0
M  V30 168 C 17.1761 4.08464 1.88114 0
M  V30 169 C 15.9461 4.75596 1.70693 0
M  V30 170 C 18.1441 4.94613 1.40935 0
M  V30 171 N 16.1261 6.03245 1.13881 0
M  V30 172 C 17.4971 6.12511 0.960734 0
M  V30 173 C 19.5521 4.80833 1.29243 0
M  V30 174 C 18.2551 7.18149 0.406792 0
M  V30 175 C 20.2811 5.86593 0.752487 0
M  V30 176 C 19.6431 7.037 0.313946 0
M  V30 177 H 15.7421 0.631608 0.46108 0
M  V30 178 H 18.3261 1.85325 0.596886 0
M  V30 179 H 16.4971 2.39425 3.05827 0
M  V30 180 H 18.2291 2.64169 3.06589 0
M  V30 181 H 14.9841 4.31938 1.94232 0
M  V30 182 H 15.4081 6.71324 0.874831 0
M  V30 183 H 20.0501 3.90635 1.61754 0
M  V30 184 H 17.7681 8.0807 0.0693671 0
M  V30 185 H 21.3541 5.77985 0.665192 0
M  V30 186 H 20.2341 7.8414 -0.0973632 0
M  V30 187 N 17.7372 -0.778329 1.37039 0
M  V30 188 C 18.6842 -1.89139 1.32269 0
M  V30 189 C 19.6542 -1.65017 0.189387 0
M  V30 190 O 20.8392 -1.87024 0.377693 0
M  V30 191 C 17.9792 -3.26112 1.12894 0
M  V30 192 C 17.0922 -3.62233 2.35396 0
M  V30 193 C 16.2272 -4.8838 2.08946 0
M  V30 194 C 15.2662 -5.17212 3.2735 0
M  V30 195 N 14.4032 -6.34546 3.00492 0
M  V30 196 H 19.2432 -1.92552 2.27437 0
M  V30 197 H 16.7802 -0.941473 1.13025 0
M  V30 198 H 18.7382 -4.05116 0.996835 0
M  V30 199 H 17.3682 -3.22091 0.213758 0
M  V30 200 H 16.4202 -2.78265 2.5937 0
M  V30 201 H 17.7322 -3.79481 3.23721 0
M  V30 202 H 16.8862 -5.75274 1.92729 0
M  V30 203 H 15.6252 -4.73222 1.17949 0
M  V30 204 H 14.6302 -4.28796 3.44113 0
M  V30 205 H 15.8552 -5.34283 4.19188 0
M  V30 206 H 13.8012 -6.20759 2.12118 0
M  V30 207 H 13.7182 -6.52179 3.82358 0
M  V30 208 H 14.9862 -7.24394 2.87879 0
M  V30 209 N 19.2153 -1.21501 -1.00376 0
M  V30 210 C 20.4613 -1.03452 -1.74429 0
M  V30 211 C 20.7943 0.430764 -1.89362 0
M  V30 212 O 20.0693 1.31962 -1.42886 0
M  V30 213 C 20.3523 -1.73375 -3.15615 0
M  V30 214 C 20.2053 -3.27431 -3.08397 0
M  V30 215 C 21.5243 -1.47732 -4.14564 0
M  V30 216 H 18.6433 -0.377226 -0.633143 0
M  V30 217 H 21.2853 -1.49693 -1.17013 0
M  V30 218 H 19.4353 -1.34064 -3.64636 0
M  V30 219 H 21.1073 -3.76119 -2.67081 0
M  V30 220 H 19.3503 -3.5767 -2.45468 0
M  V30 221 H 20.0213 -3.71524 -4.08258 0
M  V30 222 H 22.4973 -1.8186 -3.74254 0
M  V30 223 H 21.3733 -1.99169 -5.11491 0
M  V30 224 H 21.6343 -0.407589 -4.40217 0
M  V30 225 N 20.6934 1.19889 -1.02296 0
M  V30 226 C 21.6434 2.20777 -0.56934 0
M  V30 227 C 22.6274 1.56379 0.378741 0
M  V30 228 O 23.8194 1.75859 0.200673 0
M  V30 229 C 20.9484 3.43196 0.0845077 0
M  V30 230 C 20.0344 4.14749 -0.88566 0
M  V30 231 N 20.4254 4.62584 -2.04573 0
M  V30 232 C 18.7234 4.40347 -0.707835 0
M  V30 233 C 19.4244 5.17466 -2.65714 0
M  V30 234 N 18.4004 5.0791 -1.93723 0
M  V30 235 H 22.2024 2.55434 -1.45365 0
M  V30 236 H 19.7164 1.35897 -0.88915 0
M  V30 237 H 21.7134 4.14707 0.427067 0
M  V30 238 H 20.3734 3.10042 0.964574 0
M  V30 239 H 21.3844 4.57597 -2.4254 0
M  V30 240 H 18.0614 4.17317 0.12364 0
M  V30 241 H 19.4514 5.64808 -3.63925 0
M  V30 242 N 22.1715 0.800033 1.35784 0
M  V30 243 C 23.4175 0.377901 1.99248 0
M  V30 244 C 23.7505 -1.05052 1.63333 0
M  V30 245 O 23.0255 -1.72768 0.893385 0
M  V30 246 C 23.3085 0.553922 3.55814 0
M  V30 247 C 23.1615 2.0268 4.01548 0
M  V30 248 C 24.4805 -0.0244802 4.40093 0
M  V30 249 H 21.5995 0.138782 0.723815 0
M  V30 250 H 24.2415 1.00835 1.61035 0
M  V30 251 H 22.3915 0.0172398 3.88496 0
M  V30 252 H 24.0635 2.62536 3.79305 0
M  V30 253 H 22.3065 2.5256 3.52698 0
M  V30 254 H 22.9775 2.10087 5.10458 0
M  V30 255 H 25.4535 0.433775 4.13833 0
M  V30 256 H 24.3295 0.128637 5.48749 0
M  V30 257 H 24.5905 -1.11758 4.27741 0
M  V30 258 N 23.6496 -1.47581 0.552962 0
M  V30 259 C 24.5966 -2.29957 -0.197108 0
M  V30 260 C 25.5666 -1.38799 -0.912359 0
M  V30 261 O 26.7516 -1.67761 -0.908888 0
M  V30 262 C 23.8916 -3.22672 -1.22379 0
M  V30 263 C 23.0046 -4.28919 -0.515038 0
M  V30 264 C 22.1396 -5.0879 -1.52664 0
M  V30 265 C 21.1786 -6.06815 -0.802631 0
M  V30 266 N 20.3156 -6.7966 -1.76086 0
M  V30 267 H 25.1556 -2.93578 0.511486 0
M  V30 268 H 22.6926 -1.4471 0.264067 0
M  V30 269 H 24.6506 -3.74845 -1.83159 0
M  V30 270 H 23.2806 -2.60925 -1.90047 0
M  V30 271 H 22.3326 -3.79835 0.207192 0
M  V30 272 H 23.6446 -4.98773 0.0523425 0
M  V30 273 H 22.7986 -5.65091 -2.20809 0
M  V30 274 H 21.5376 -4.38828 -2.12794 0
M  V30 275 H 20.5426 -5.49695 -0.107238 0
M  V30 276 H 21.7676 -6.78784 -0.207135 0
M  V30 277 H 19.7136 -6.12432 -2.35081 0
M  V30 278 H 19.6306 -7.45669 -1.24552 0
M  V30 279 H 20.8986 -7.40538 -2.43359 0
M  V30 280 N 25.1277 -0.289203 -1.54924 0
M  V30 281 C 26.0907 0.579144 -2.21762 0
M  V30 282 C 27.0907 1.07047 -1.1999 0
M  V30 283 O 28.2807 0.968384 -1.44803 0
M  V30 284 C 25.4127 1.80055 -2.8947 0
M  V30 285 H 26.6057 -0.00464908 -2.999 0
M  V30 286 H 24.1587 -0.0399306 -1.56249 0
M  V30 287 H 24.8937 2.42449 -2.15381 0
M  V30 288 H 24.6787 1.45602 -3.64064 0
M  V30 289 H 26.1687 2.41773 -3.40493 0
M  V30 290 N 26.6058 1.57591 -0.0167156 0
M  V30 291 C 27.8538 1.90906 0.663285 0
M  V30 292 C 28.1748 0.892509 1.73376 0
M  V30 293 O 27.4448 -0.0677623 1.95783 0
M  V30 294 H 26.0248 0.704637 0.247983 0
M  V30 295 H 28.6868 1.94803 -0.0615909 0
M  V30 296 H 27.7828 2.9116 1.12393 0
M  V30 297 N 28.0839 -0.256276 1.55502 0
M  V30 298 C 29.3609 -1.00789 1.67633 0
M  V30 299 C 29.7409 -2.03706 0.553826 0
M  V30 300 O 29.0889 -2.24145 -0.443969 0
M  V30 301 C 29.2989 -1.64968 3.07549 0
M  V30 302 C 30.6469 -2.15505 3.65845 0
M  V30 303 O 31.6709 -1.74925 3.1029 0
M  V30 304 O 30.5299 -2.89986 4.63217 0
M  V30 305 H 27.6239 -0.468553 0.681459 0
M  V30 306 H 30.1699 -0.250806 1.67836 0
M  V30 307 H 28.9419 -0.904785 3.80696 0
M  V30 308 H 28.5649 -2.47321 3.11317 0
M  V30 309 N 29.562 -1.4872 -0.521534 0
M  V30 310 C 30.494 -1.59968 -1.64143 0
M  V30 311 C 31.507 -0.483463 -1.55456 0
M  V30 312 O 32.696 -0.75467 -1.61762 0
M  V30 313 C 29.796 -1.52127 -3.02838 0
M  V30 314 C 28.969 -2.78932 -3.36921 0
M  V30 315 C 28.028 -2.64428 -4.54933 0
M  V30 316 O 27.054 -3.38331 -4.57735 0
M  V30 317 N 28.256 -1.74606 -5.53618 0
M  V30 318 H 31.021 -2.56548 -1.54929 0
M  V30 319 H 28.582 -1.45551 -0.708988 0
M  V30 320 H 30.574 -1.40106 -3.79674 0
M  V30 321 H 29.144 -0.634868 -3.06085 0
M  V30 322 H 28.364 -3.05455 -2.4918 0
M  V30 323 H 29.652 -3.63041 -3.56481 0
M  V30 324 H 29.05 -1.13782 -5.54139 0
M  V30 325 H 27.607 -1.6852 -6.29638 0
M  V30 326 N 31.0401 0.771051 -1.3745 0
M  V30 327 C 32.2891 1.52491 -1.3202 0
M  V30 328 C 32.6021 1.9538 0.0927347 0
M  V30 329 O 33.8081 2.70159 0.269503 0
M  V30 330 C 32.2641 2.75366 -2.31736 0
M  V30 331 C 31.8721 2.39573 -3.78562 0
M  V30 332 C 33.6161 3.53307 -2.35318 0
M  V30 333 C 31.5231 3.58954 -4.70007 0
M  V30 334 H 30.4531 0.572506 -0.490666 0
M  V30 335 H 33.1041 0.844474 -1.62914 0
M  V30 336 H 31.4861 3.45303 -1.93861 0
M  V30 337 H 32.6601 1.77415 -4.25277 0
M  V30 338 H 30.9751 1.74805 -3.77932 0
M  V30 339 H 33.5721 4.42039 -3.00842 0
M  V30 340 H 33.9151 3.93217 -1.36698 0
M  V30 341 H 34.4481 2.90367 -2.71904 0
M  V30 342 H 31.1871 3.24125 -5.69757 0
M  V30 343 H 30.7071 4.20214 -4.27996 0
M  V30 344 H 32.3861 4.25758 -4.87175 0
M  V30 345 N 32.5182 1.22032 0.997298 0
M  V30 346 C 33.4282 1.00271 2.12092 0
M  V30 347 C 34.4442 -0.047621 1.73935 0
M  V30 348 O 35.6202 0.144136 2.00884 0
M  V30 349 C 32.6852 0.578449 3.4184 0
M  V30 350 C 31.7462 1.70189 3.94125 0
M  V30 351 C 30.9792 1.29778 5.17681 0
M  V30 352 O 31.2022 0.174676 5.70132 0
M  V30 353 O 30.1362 2.11261 5.63607 0
M  V30 354 H 33.9622 1.94398 2.3333 0
M  V30 355 H 31.5472 1.00587 1.10465 0
M  V30 356 H 33.4292 0.351998 4.19927 0
M  V30 357 H 32.1042 -0.334019 3.21972 0
M  V30 358 H 31.0112 1.98282 3.1723 0
M  V30 359 H 32.3442 2.59206 4.18417 0
M  V30 360 N 33.9963 -1.19345 1.0293 0
M  V30 361 C 34.9433 -2.2258 0.610464 0
M  V30 362 C 35.9133 -1.6179 -0.375946 0
M  V30 363 O 37.0983 -1.88844 -0.272511 0
M  V30 364 C 34.2383 -3.45085 -0.0321473 0
M  V30 365 C 33.3513 -4.20258 1.00035 0
M  V30 366 C 32.4863 -5.3019 0.32746 0
M  V30 367 C 31.5253 -5.97121 1.34584 0
M  V30 368 N 30.6623 -6.98615 0.698726 0
M  V30 369 H 35.5023 -2.57764 1.49538 0
M  V30 370 H 33.0393 -1.26644 0.748311 0
M  V30 371 H 34.9973 -4.15061 -0.421966 0
M  V30 372 H 33.6273 -3.10555 -0.88064 0
M  V30 373 H 32.6793 -3.49223 1.50823 0
M  V30 374 H 33.9913 -4.66175 1.77433 0
M  V30 375 H 33.1453 -6.06587 -0.11718 0
M  V30 376 H 31.8843 -4.85345 -0.478713 0
M  V30 377 H 30.8893 -5.19474 1.80074 0
M  V30 378 H 32.1143 -6.4405 2.15352 0
M  V30 379 H 30.0603 -6.55942 -0.0873471 0
M  V30 380 H 29.9773 -7.42724 1.41058 0
M  V30 381 H 31.2453 -7.79004 0.278102 0
M  V30 382 N 35.4744 -0.807222 -1.35358 0
M  V30 383 C 36.7224 -0.387122 -1.98358 0
M  V30 384 C 37.0434 1.04942 -1.64354 0
M  V30 385 O 36.3134 1.72615 -0.926339 0
M  V30 386 H 34.8934 -0.140154 -0.733734 0
M  V30 387 H 37.5554 -1.0332 -1.6526 0
M  V30 388 H 36.6514 -0.493352 -3.08176 0
M  V30 389 N 36.9525 1.47285 -0.560781 0
M  V30 390 C 37.8845 2.28118 0.222438 0
M  V30 391 C 38.8975 1.37219 0.876056 0
M  V30 392 O 40.0865 1.62011 0.749307 0
M  V30 393 C 37.1865 3.1159 1.33285 0
M  V30 394 C 36.3595 4.30473 0.77534 0
M  V30 395 C 35.4185 4.95513 1.77069 0
M  V30 396 O 34.4445 5.53792 1.31539 0
M  V30 397 N 35.6465 4.90531 3.10418 0
M  V30 398 H 38.4115 2.95976 -0.470958 0
M  V30 399 H 35.9725 1.56955 -0.39709 0
M  V30 400 H 37.9645 3.51967 1.99752 0
M  V30 401 H 36.5345 2.45951 1.92943 0
M  V30 402 H 35.7545 3.94144 -0.0662113 0
M  V30 403 H 37.0425 5.07362 0.382272 0
M  V30 404 H 36.4405 4.44389 3.5005 0
M  V30 405 H 34.9975 5.34917 3.72434 0
M  V30 406 N 38.4306 0.297415 1.54768 0
M  V30 407 C 39.3406 -0.58983 2.27064 0
M  V30 408 C 40.3566 -1.15144 1.30453 0
M  V30 409 O 41.5326 -1.17699 1.63428 0
M  V30 410 C 38.5976 -1.74714 2.9946 0
M  V30 411 C 37.6586 -1.21997 4.11601 0
M  V30 412 C 36.8916 -2.32212 4.80535 0
M  V30 413 O 37.1146 -3.52036 4.48806 0
M  V30 414 O 36.0486 -1.99106 5.68014 0
M  V30 415 H 39.8746 -0.00348199 3.037 0
M  V30 416 H 37.4596 0.0640035 1.49263 0
M  V30 417 H 39.3416 -2.42147 3.44881 0
M  V30 418 H 38.0166 -2.32016 2.25722 0
M  V30 419 H 36.9236 -0.511458 3.70587 0
M  V30 420 H 38.2566 -0.692419 4.87305 0
M  V30 421 N 39.9087 -1.5758 0.0250728 0
M  V30 422 C 41.1547 -1.91917 -0.655413 0
M  V30 423 C 41.4877 -0.901433 -1.72011 0
M  V30 424 O 40.7627 0.0764069 -1.9435 0
M  V30 425 C 41.0457 -3.36751 -1.27558 0
M  V30 426 C 40.8987 -4.49258 -0.220719 0
M  V30 427 C 42.2177 -3.81469 -2.19475 0
M  V30 428 H 39.3367 -0.697925 -0.23679 0
M  V30 429 H 41.9787 -1.89825 0.0815036 0
M  V30 430 H 40.1287 -3.38664 -1.90365 0
M  V30 431 H 41.8007 -4.59478 0.409601 0
M  V30 432 H 40.0437 -4.31415 0.454264 0
M  V30 433 H 40.7147 -5.47618 -0.694175 0
M  V30 434 H 43.1907 -3.81266 -1.66659 0
M  V30 435 H 42.0667 -4.83512 -2.59822 0
M  V30 436 H 42.3277 -3.16744 -3.08424 0
M  V30 437 N 41.3868 0.248026 -1.55636 0
M  V30 438 C 42.3498 1.29044 -1.89421 0
M  V30 439 C 43.3498 1.41134 -0.770581 0
M  V30 440 O 44.5398 1.39854 -1.03858 0
M  V30 441 C 41.6718 2.66831 -2.12165 0
M  V30 442 H 42.8648 1.00305 -2.82629 0
M  V30 443 H 40.4178 0.487265 -1.48511 0
M  V30 444 H 41.1528 3.00711 -1.21422 0
M  V30 445 H 40.9378 2.59438 -2.93997 0
M  V30 446 H 42.4278 3.42103 -2.3949 0
M  V30 447 N 42.8649 1.48995 0.513639 0
M  V30 448 C 44.1139 1.57093 1.2651 0
M  V30 449 C 44.4269 0.257091 1.93903 0
M  V30 450 O 45.6329 0.216478 2.70636 0
M  V30 451 C 44.0889 2.77118 2.29638 0
M  V30 452 C 43.6969 4.15209 1.68241 0
M  V30 453 C 45.4409 2.94538 3.05692 0
M  V30 454 C 43.3479 5.26474 2.69406 0
M  V30 455 H 42.2779 0.584876 0.475854 0
M  V30 456 H 44.9289 1.7536 0.540487 0
M  V30 457 H 43.3109 2.52319 3.05207 0
M  V30 458 H 44.4849 4.50094 0.987505 0
M  V30 459 H 42.7999 4.03042 1.04623 0
M  V30 460 H 45.3969 3.74832 3.8132 0
M  V30 461 H 45.7399 2.04614 3.62545 0
M  V30 462 H 46.2729 3.19316 2.37238 0
M  V30 463 H 43.0119 6.18417 2.17351 0
M  V30 464 H 42.5319 4.96058 3.37175 0
M  V30 465 H 44.2109 5.55277 3.32078 0
M  V30 466 N 44.343 -0.763751 1.37857 0
M  V30 467 C 45.273 -1.89103 1.36975 0
M  V30 468 C 46.254 -1.68439 0.237152 0
M  V30 469 O 47.439 -1.8918 0.438713 0
M  V30 470 C 44.569 -3.26496 1.18395 0
M  V30 471 C 43.523 -3.61741 2.28751 0
M  V30 472 C 42.849 -4.97762 1.95286 0
M  V30 473 C 44.149 -3.67665 3.70972 0
M  V30 474 H 45.843 -1.90099 2.31307 0
M  V30 475 H 43.389 -0.91319 1.11341 0
M  V30 476 H 45.342 -4.05003 1.16406 0
M  V30 477 H 44.066 -3.25955 0.205215 0
M  V30 478 H 42.725 -2.85547 2.29909 0
M  V30 479 H 42.373 -4.93769 0.959221 0
M  V30 480 H 42.073 -5.22313 2.69189 0
M  V30 481 H 43.597 -5.7866 1.94898 0
M  V30 482 H 45.011 -4.36307 3.719 0
M  V30 483 H 43.408 -4.03718 4.43995 0
M  V30 484 H 44.478 -2.68134 4.0402 0
M  V30 485 N 45.8211 -1.22559 -0.990812 0
M  V30 486 C 46.7311 -1.01394 -2.11557 0
M  V30 487 C 47.7471 0.0383962 -1.73958 0
M  V30 488 O 48.9231 -0.154787 -2.00804 0
M  V30 489 C 45.9881 -0.596569 -3.41529 0
M  V30 490 C 45.0491 -1.72276 -3.93217 0
M  V30 491 C 44.2821 -1.32521 -5.16985 0
M  V30 492 O 44.5051 -0.204909 -5.70032 0
M  V30 493 O 43.4391 -2.14247 -5.62478 0
M  V30 494 H 47.2651 -1.95633 -2.32296 0
M  V30 495 H 44.8501 -1.01172 -1.0993 0
M  V30 496 H 46.7321 -0.374263 -4.19735 0
M  V30 497 H 45.4071 0.316939 -3.22145 0
M  V30 498 H 44.3141 -1.99961 -3.16174 0
M  V30 499 H 45.6471 -2.61421 -4.17037 0
M  V30 500 N 47.2992 1.18797 -1.03562 0
M  V30 501 C 48.5242 1.9314 -0.755764 0
M  V30 502 C 48.9492 1.7537 0.68022 0
M  V30 503 O 48.3072 1.06046 1.47051 0
M  V30 504 C 48.3552 3.42747 -1.12058 0
M  V30 505 O 47.4592 4.11683 -0.243124 0
M  V30 506 H 46.8002 0.602724 -0.278604 0
M  V30 507 H 49.3302 1.50678 -1.3841 0
M  V30 508 H 49.3402 3.93437 -1.08035 0
M  V30 509 H 48.0152 3.55002 -2.16672 0
M  V30 510 H 46.5922 3.71323 -0.342539 0
M  V30 511 N 48.7773 0.814389 1.34928 0
M  V30 512 C 49.7103 0.175641 2.27523 0
M  V30 513 C 50.6883 -0.662953 1.48471 0
M  V30 514 O 51.8723 -0.628545 1.77712 0
M  V30 515 C 48.9993 -0.755516 3.30166 0
M  V30 516 C 48.0453 0.00445305 4.265 0
M  V30 517 S 48.8783 1.34582 5.18313 0
M  V30 518 C 50.0343 0.419315 6.24494 0
M  V30 519 H 50.2673 0.960691 2.8135 0
M  V30 520 H 47.8003 0.609846 1.41846 0
M  V30 521 H 49.7583 -1.28723 3.89796 0
M  V30 522 H 48.4193 -1.51402 2.75202 0
M  V30 523 H 47.6123 -0.703077 4.99072 0
M  V30 524 H 47.2143 0.466447 3.7108 0
M  V30 525 H 49.5063 -0.392432 6.76362 0
M  V30 526 H 50.4493 1.11446 6.99275 0
M  V30 527 H 50.8573 0.0115389 5.64499 0
M  V30 528 N 50.2554 -1.46986 0.568584 0
M  V30 529 C 51.2024 -2.30153 -0.172707 0
M  V30 530 C 52.1724 -1.39759 -0.897586 0
M  V30 531 O 53.3574 -1.68716 -0.891044 0
M  V30 532 C 50.4974 -3.23952 -1.1895 0
M  V30 533 C 49.6104 -4.29441 -0.469517 0
M  V30 534 C 48.7454 -5.1038 -1.47259 0
M  V30 535 C 47.7844 -6.07632 -0.738225 0
M  V30 536 N 46.9214 -6.8149 -1.68868 0
M  V30 537 H 51.7614 -2.93019 0.542596 0
M  V30 538 H 49.2984 -1.44422 0.279401 0
M  V30 539 H 51.2564 -3.76767 -1.79173 0
M  V30 540 H 49.8864 -2.62926 -1.87269 0
M  V30 541 H 48.9384 -3.79594 0.247467 0
M  V30 542 H 50.2504 -4.98689 0.105241 0
M  V30 543 H 49.4044 -5.67402 -2.14803 0
M  V30 544 H 48.1434 -4.4106 -2.08128 0
M  V30 545 H 47.1484 -5.49778 -0.0489293 0
M  V30 546 H 48.3734 -6.78966 -0.135129 0
M  V30 547 H 46.3194 -6.14891 -2.28573 0
M  V30 548 H 46.2364 -7.46948 -1.16636 0
M  V30 549 H 47.5044 -7.43078 -2.3549 0
M  V30 550 N 51.7335 -0.305618 -1.54608 0
M  V30 551 C 52.6665 0.610536 -2.19881 0
M  V30 552 C 53.6445 1.1294 -1.16976 0
M  V30 553 O 54.8285 1.19673 -1.45638 0
M  V30 554 C 51.9555 1.83583 -2.84631 0
M  V30 555 C 51.0015 1.4498 -4.01102 0
M  V30 556 S 51.8345 0.501793 -5.33144 0
M  V30 557 C 52.9905 1.73478 -6.01379 0
M  V30 558 H 53.2235 0.0560177 -2.97247 0
M  V30 559 H 50.7565 -0.0897434 -1.54139 0
M  V30 560 H 52.7145 2.53898 -3.22562 0
M  V30 561 H 51.3755 2.36152 -2.07102 0
M  V30 562 H 50.5685 2.36236 -4.45206 0
M  V30 563 H 50.1705 0.826553 -3.64752 0
M  V30 564 H 52.4625 2.67473 -6.22467 0
M  V30 565 H 53.4055 1.33622 -6.95378 0
M  V30 566 H 53.8135 1.9136 -5.31076 0
M  V30 567 N 53.2116 1.57565 -0.0334293 0
M  V30 568 C 54.1216 2.13943 0.962572 0
M  V30 569 C 55.1376 1.09276 1.35406 0
M  V30 570 O 56.3136 1.41355 1.4346 0
M  V30 571 C 53.3786 2.65887 2.22497 0
M  V30 572 C 52.4396 3.85286 1.8935 0
M  V30 573 C 51.6726 4.34743 3.09571 0
M  V30 574 O 51.8956 3.83352 4.22371 0
M  V30 575 O 50.8296 5.26538 2.91618 0
M  V30 576 H 54.6556 2.99333 0.513169 0
M  V30 577 H 52.2406 1.4822 0.18743 0
M  V30 578 H 54.1226 2.99346 2.96598 0
M  V30 579 H 52.7976 1.83578 2.6661 0
M  V30 580 H 51.7046 3.56746 1.1262 0
M  V30 581 H 53.0376 4.68771 1.5005 0
M  V30 582 N 54.6897 -0.239769 1.55765 0
M  V30 583 C 55.9387 -0.964754 1.77131 0
M  V30 584 C 56.2517 -1.86213 0.59868 0
M  V30 585 O 57.4577 -2.6244 0.695522 0
M  V30 586 C 55.9137 -1.76552 3.1362 0
M  V30 587 C 55.5217 -0.915185 4.38553 0
M  V30 588 C 57.2657 -2.48281 3.44321 0
M  V30 589 C 55.1727 -1.71225 5.66071 0
M  V30 590 H 54.1027 -0.363953 0.660344 0
M  V30 591 H 56.7537 -0.219181 1.82186 0
M  V30 592 H 55.1357 -2.55331 3.02691 0
M  V30 593 H 56.3097 -0.169217 4.60489 0
M  V30 594 H 54.6247 -0.310889 4.15238 0
M  V30 595 H 57.2217 -3.08382 4.36812 0
M  V30 596 H 57.5647 -3.20256 2.65973 0
M  V30 597 H 58.0977 -1.76507 3.56497 0
M  V30 598 H 54.8367 -1.03612 6.4726 0
M  V30 599 H 54.3567 -2.43331 5.48224 0
M  V30 600 H 56.0357 -2.27758 6.05587 0
M  V30 601 N 56.1678 -1.49265 -0.50573 0
M  V30 602 C 57.5788 -1.51769 -1.08734 0
M  V30 603 C 57.9298 -0.301192 -1.93874 0
M  V30 604 O 57.0548 0.589456 -2.08217 0
M  V30 605 C 57.6498 -2.75017 -1.97867 0
M  V30 606 C 56.2088 -2.80314 -2.51199 0
M  V30 607 C 55.3558 -2.4562 -1.28709 0
M  V30 608 H 58.3068 -1.56031 -0.289855 0
M  V30 609 H 58.3278 -2.5491 -2.82491 0
M  V30 610 H 57.8398 -3.63539 -1.35873 0
M  V30 611 H 55.9408 -1.96061 -3.16845 0
M  V30 612 H 56.0538 -3.82366 -2.88675 0
M  V30 613 H 54.4178 -1.97297 -1.61078 0
M  V30 614 H 55.2008 -3.36411 -0.6843 0
M  V30 615 N 57.6459 0.756429 -1.3826 0
M  V30 616 C 58.8949 1.51082 -1.3363 0
M  V30 617 C 59.2079 1.95467 0.0720068 0
M  V30 618 O 60.4139 2.7043 0.240834 0
M  V30 619 C 58.8699 2.72893 -2.34644 0
M  V30 620 C 58.4779 2.35544 -3.81081 0
M  V30 621 C 60.2219 3.50791 -2.39052 0
M  V30 622 C 58.1289 3.53948 -4.73787 0
M  V30 623 H 57.0589 0.56727 -0.49671 0
M  V30 624 H 59.7099 0.827147 -1.638 0
M  V30 625 H 58.0919 3.43227 -1.97513 0
M  V30 626 H 59.2659 1.72894 -4.27135 0
M  V30 627 H 57.5809 1.70786 -3.79764 0
M  V30 628 H 60.1779 4.38823 -3.05513 0
M  V30 629 H 60.5209 3.91745 -1.40861 0
M  V30 630 H 61.0539 2.87467 -2.74968 0
M  V30 631 H 57.7929 3.18064 -5.73163 0
M  V30 632 H 57.3129 4.15651 -4.32428 0
M  V30 633 H 58.9919 4.20566 -4.91663 0
M  V30 634 N 59.124 1.23083 0.984299 0
M  V30 635 C 60.37 1.06214 1.72761 0
M  V30 636 C 60.703 -0.400584 1.90024 0
M  V30 637 O 59.978 -1.29672 1.44967 0
M  V30 638 C 60.261 1.78375 3.12817 0
M  V30 639 C 60.114 3.32296 3.03149 0
M  V30 640 C 61.433 1.54309 4.12161 0
M  V30 641 H 58.552 0.387251 0.627061 0
M  V30 642 H 61.194 1.51536 1.14616 0
M  V30 643 H 59.344 1.39848 3.62457 0
M  V30 644 H 61.016 3.8032 2.61064 0
M  V30 645 H 59.259 3.6153 2.39747 0
M  V30 646 H 59.93 3.77972 4.02295 0
M  V30 647 H 62.406 1.87791 3.71314 0
M  V30 648 H 61.282 2.07281 5.08258 0
M  V30 649 H 61.543 0.477572 4.39513 0
M  V30 650 N 60.6021 -1.18246 1.0419 0
M  V30 651 C 61.5651 -2.20128 0.638452 0
M  V30 652 C 62.5651 -1.57885 -0.304805 0
M  V30 653 O 63.7551 -1.73967 -0.0900369 0
M  V30 654 C 60.8871 -3.4084 -0.0637751 0
M  V30 655 H 62.0801 -2.57336 1.54007 0
M  V30 656 H 59.6331 -1.32152 0.834598 0
M  V30 657 H 60.3681 -3.09166 -0.979136 0
M  V30 658 H 60.1531 -3.8726 0.614198 0
M  V30 659 H 61.6431 -4.16274 -0.332512 0
M  V30 660 N 62.0802 -0.821533 -1.34494 0
M  V30 661 C 63.3572 -0.33159 -1.92769 0
M  V30 662 C 63.7372 1.18088 -1.74981 0
M  V30 663 O 63.0852 1.98733 -1.12772 0
M  V30 664 C 63.2952 -0.759398 -3.40638 0
M  V30 665 C 64.6432 -0.757433 -4.1779 0
M  V30 666 O 65.6672 -0.70189 -3.49216 0
M  V30 667 O 64.5262 -0.829361 -5.4017 0
M  V30 668 H 61.6202 -0.0902502 -0.822061 0
M  V30 669 H 64.1662 -0.906231 -1.43477 0
M  V30 670 H 62.9382 -1.8012 -3.47379 0
M  V30 671 H 62.5612 -0.160378 -3.97276 0
M  V30 672 N 63.5583 1.46682 -0.576371 0
M  V30 673 C 64.9743 1.57822 -0.237562 0
M  V30 674 C 65.1743 1.57237 1.26011 0
M  V30 675 O 64.2303 1.48596 2.04146 0
M  V30 676 C 65.5433 2.87499 -0.881168 0
M  V30 677 C 67.0913 3.01119 -0.85417 0
M  V30 678 C 67.5663 4.33524 -1.4772 0
M  V30 679 N 69.0573 4.40207 -1.44125 0
M  V30 680 C 69.7923 5.4126 -1.89276 0
M  V30 681 N 69.2883 6.49021 -2.42371 0
M  V30 682 N 71.0813 5.32422 -1.80231 0
M  V30 683 H 63.2323 1.45306 -1.54919 0
M  V30 684 H 65.4953 0.692733 -0.647167 0
M  V30 685 H 65.2013 2.9372 -1.93447 0
M  V30 686 H 65.0753 3.75224 -0.385592 0
M  V30 687 H 67.4623 2.94485 0.190491 0
M  V30 688 H 67.5433 2.14887 -1.3877 0
M  V30 689 H 67.1873 4.40916 -2.52103 0
M  V30 690 H 67.1173 5.1852 -0.918947 0
M  V30 691 H 69.6083 3.62931 -1.05307 0
M  V30 692 H 69.9213 7.2233 -2.74698 0
M  V30 693 H 68.2663 6.49858 -2.46393 0
M  V30 694 H 71.4573 4.47137 -1.38514 0
M  V30 695 H 71.6303 6.11034 -2.15735 0
M  V30 696 N 65.0364 0.313813 1.54444 0
M  V30 697 C 66.2614 -0.296681 2.05267 0
M  V30 698 C 66.6864 -1.45757 1.18897 0
M  V30 699 O 66.0444 -1.80239 0.195886 0
M  V30 700 C 66.0924 -0.71831 3.53373 0
M  V30 701 O 65.1964 -1.82175 3.69981 0
M  V30 702 H 64.5374 -0.0554061 0.661684 0
M  V30 703 H 67.0674 0.459387 1.99376 0
M  V30 704 H 67.0774 -1.00364 3.95463 0
M  V30 705 H 65.7524 0.130821 4.15694 0
M  V30 706 H 64.3294 -1.53598 3.39797 0
M  V30 707 N 66.5145 -1.57545 0.0417849 0
M  V30 708 C 67.7625 -1.91937 -0.632829 0
M  V30 709 C 68.0835 -0.919978 -1.71934 0
M  V30 710 O 67.3535 0.0366064 -1.95866 0
M  V30 711 H 65.9335 -0.708493 -0.236742 0
M  V30 712 H 68.5955 -1.9468 0.0925745 0
M  V30 713 H 67.6915 -2.92912 -1.07746 0
M  V30 714 N 67.9926 0.231505 -1.5589 0
M  V30 715 C 69.2416 0.955346 -1.7764 0
M  V30 716 C 69.5546 1.85893 -0.608546 0
M  V30 717 O 70.7606 2.62067 -0.70943 0
M  V30 718 C 69.2166 1.74886 -3.14552 0
M  V30 719 C 68.8246 0.891915 -4.39032 0
M  V30 720 C 70.5686 2.46452 -3.45633 0
M  V30 721 C 68.4756 1.68221 -5.66971 0
M  V30 722 H 67.4056 0.360446 -0.662265 0
M  V30 723 H 70.0566 0.209516 -1.823 0
M  V30 724 H 68.4386 2.53723 -3.04041 0
M  V30 725 H 69.6126 0.144793 -4.60572 0
M  V30 726 H 67.9276 0.288863 -4.15397 0
M  V30 727 H 70.5246 3.06061 -4.38441 0
M  V30 728 H 70.8676 3.18841 -2.67668 0
M  V30 729 H 71.4006 1.74613 -3.57428 0
M  V30 730 H 68.1396 1.00178 -6.478 0
M  V30 731 H 67.6596 2.4042 -5.49507 0
M  V30 732 H 69.3386 2.24544 -6.06786 0
M  V30 733 N 69.4707 1.49531 0.497807 0
M  V30 734 C 70.7167 1.59415 1.25358 0
M  V30 735 C 71.0497 0.281422 1.9215 0
M  V30 736 O 70.3247 -0.715249 1.80871 0
M  V30 737 C 70.6077 2.75566 2.3181 0
M  V30 738 C 70.4607 4.16642 1.69498 0
M  V30 739 C 71.7797 2.87347 3.33346 0
M  V30 740 H 68.8987 0.580244 0.454408 0
M  V30 741 H 71.5407 1.81827 0.551262 0
M  V30 742 H 69.6907 2.56587 2.91711 0
M  V30 743 H 71.3627 4.47145 1.13399 0
M  V30 744 H 69.6057 4.22141 0.998978 0
M  V30 745 H 70.2767 4.93792 2.46725 0
M  V30 746 H 72.7527 3.04634 2.83438 0
M  V30 747 H 71.6287 3.70289 4.05188 0
M  V30 748 H 71.8897 1.96834 3.95865 0
M  V30 749 N 70.9488 -0.749086 1.3866 0
M  V30 750 C 71.8958 -1.86291 1.36251 0
M  V30 751 C 72.8658 -1.64578 0.224347 0
M  V30 752 O 74.0508 -1.86181 0.417279 0
M  V30 753 C 71.1908 -3.23644 1.19786 0
M  V30 754 C 70.3038 -3.57158 2.43027 0
M  V30 755 C 69.4388 -4.83838 2.19258 0
M  V30 756 C 68.4778 -5.10152 3.38247 0
M  V30 757 N 67.6148 -6.28029 3.13884 0
M  V30 758 H 72.4548 -1.87685 2.3147 0
M  V30 759 H 69.9918 -0.917287 1.14997 0
M  V30 760 H 71.9498 -4.0291 1.08254 0
M  V30 761 H 70.5798 -3.21566 0.282031 0
M  V30 762 H 69.6318 -2.72701 2.65214 0
M  V30 763 H 70.9438 -3.7253 3.31697 0
M  V30 764 H 70.0978 -5.71057 2.04888 0
M  V30 765 H 68.8368 -4.70614 1.2796 0
M  V30 766 H 67.8418 -4.21401 3.53131 0
M  V30 767 H 69.0668 -5.25271 4.30427 0
M  V30 768 H 67.0128 -6.1612 2.25238 0
M  V30 769 H 66.9298 -6.43922 3.96106 0
M  V30 770 H 68.1978 -7.18124 3.03179 0
M  V30 771 N 72.4269 -1.23603 -0.977757 0
M  V30 772 C 73.3369 -1.03632 -2.1047 0
M  V30 773 C 74.3529 0.0199435 -1.73989 0
M  V30 774 O 75.5289 -0.176076 -2.00629 0
M  V30 775 C 72.5939 -0.63276 -3.40877 0
M  V30 776 C 71.6549 -1.76437 -3.91367 0
M  V30 777 C 70.8879 -1.37997 -5.15551 0
M  V30 778 O 71.1109 -0.265357 -5.69782 0
M  V30 779 O 70.0449 -2.20201 -5.60174 0
M  V30 780 H 73.8709 -1.98086 -2.30208 0
M  V30 781 H 71.4559 -1.02332 -1.08851 0
M  V30 782 H 73.3379 -0.418761 -4.19314 0
M  V30 783 H 72.0129 0.282754 -3.22463 0
M  V30 784 H 70.9199 -2.03304 -3.14036 0
M  V30 785 H 72.2529 -2.6583 -4.14241 0
M  V30 786 N 73.905 1.17692 -1.04816 0
M  V30 787 C 75.151 1.88137 -0.75711 0
M  V30 788 C 75.484 1.80604 0.713841 0
M  V30 789 O 74.759 1.21146 1.52164 0
M  V30 790 C 75.042 3.38318 -1.2334 0
M  V30 791 C 74.895 3.54622 -2.76701 0
M  V30 792 C 76.214 4.32214 -0.829415 0
M  V30 793 H 73.333 0.683163 -0.27651 0
M  V30 794 H 75.975 1.38424 -1.30149 0
M  V30 795 H 74.125 3.80787 -0.770286 0
M  V30 796 H 75.797 3.21194 -3.31107 0
M  V30 797 H 74.04 2.97026 -3.16161 0
M  V30 798 H 74.711 4.60028 -3.05088 0
M  V30 799 H 77.187 3.97565 -1.22805 0
M  V30 800 H 76.063 5.35838 -1.19033 0
M  V30 801 H 76.324 4.41294 0.266891 0
M  V30 802 N 75.3831 0.828654 1.34056 0
M  V30 803 C 76.3301 0.252567 2.29414 0
M  V30 804 C 77.3001 -0.62588 1.53857 0
M  V30 805 O 78.4851 -0.566312 1.82202 0
M  V30 806 C 75.6251 -0.574831 3.40279 0
M  V30 807 C 74.7381 0.326499 4.30764 0
M  V30 808 C 73.8731 -0.511016 5.28736 0
M  V30 809 C 72.9121 0.389342 6.1086 0
M  V30 810 N 72.0491 -0.409439 7.00905 0
M  V30 811 H 76.8891 1.07108 2.78086 0
M  V30 812 H 74.4261 0.539677 1.36843 0
M  V30 813 H 76.3841 -1.06992 4.03248 0
M  V30 814 H 75.0141 -1.35841 2.92826 0
M  V30 815 H 74.0661 0.939837 3.68607 0
M  V30 816 H 75.3781 1.01857 4.88289 0
M  V30 817 H 74.5321 -1.07035 5.97184 0
M  V30 818 H 73.2711 -1.23657 4.71763 0
M  V30 819 H 72.2761 0.960769 5.4134 0
M  V30 820 H 73.5011 1.1131 6.69916 0
M  V30 821 H 71.4471 -1.11856 6.46393 0
M  V30 822 H 71.3641 0.224126 7.55668 0
M  V30 823 H 72.6321 -0.951336 7.73673 0
M  V30 824 N 76.8612 -1.46375 0.584142 0
M  V30 825 C 77.8082 -2.30323 -0.148286 0
M  V30 826 C 78.7782 -1.40703 -0.882713 0
M  V30 827 O 79.9632 -1.69651 -0.873099 0
M  V30 828 C 77.1032 -3.25196 -1.15507 0
M  V30 829 C 76.2162 -4.29915 -0.423943 0
M  V30 830 C 75.3512 -5.11914 -1.41838 0
M  V30 831 C 74.3902 -6.08381 -0.673736 0
M  V30 832 N 73.5272 -6.83242 -1.6163 0
M  V30 833 H 78.3672 -2.92427 0.573644 0
M  V30 834 H 75.9042 -1.44118 0.294703 0
M  V30 835 H 77.8622 -3.78646 -1.75166 0
M  V30 836 H 76.4922 -2.64898 -1.8447 0
M  V30 837 H 75.5442 -3.7931 0.287714 0
M  V30 838 H 76.8562 -4.98549 0.158128 0
M  V30 839 H 76.0102 -5.69648 -2.08773 0
M  V30 840 H 74.7492 -4.43243 -2.03438 0
M  V30 841 H 73.7542 -5.49799 0.00938483 0
M  V30 842 H 74.9792 -6.79071 -0.0631082 0
M  V30 843 H 72.9252 -6.1728 -2.22038 0
M  V30 844 H 72.8422 -7.48144 -1.08707 0
M  V30 845 H 74.1102 -7.45534 -2.27596 0
M  V30 846 N 78.3393 -0.321999 -1.54275 0
M  V30 847 C 79.2863 0.544664 -2.24281 0
M  V30 848 C 80.2563 1.1129 -1.23303 0
M  V30 849 O 81.4413 1.15354 -1.51981 0
M  V30 850 C 78.5813 1.70045 -3.00298 0
M  V30 851 C 77.6943 1.16159 -4.1609 0
M  V30 852 C 76.8293 2.28293 -4.79641 0
M  V30 853 C 75.8683 1.71648 -5.8754 0
M  V30 854 N 75.0053 2.77438 -6.44959 0
M  V30 855 H 79.8453 -0.0588907 -2.97942 0
M  V30 856 H 77.3823 -0.0408345 -1.47043 0
M  V30 857 H 79.3403 2.38054 -3.42616 0
M  V30 858 H 77.9703 2.27531 -2.28975 0
M  V30 859 H 77.0223 0.373092 -3.78566 0
M  V30 860 H 78.3343 0.707087 -4.93763 0
M  V30 861 H 77.4883 3.0421 -5.2492 0
M  V30 862 H 76.2273 2.77079 -4.01346 0
M  V30 863 H 75.2323 0.942282 -5.41665 0
M  V30 864 H 76.4573 1.23741 -6.67731 0
M  V30 865 H 74.4033 3.25519 -5.69538 0
M  V30 866 H 74.3203 2.36547 -7.1804 0
M  V30 867 H 75.5883 3.53189 -6.94894 0
M  V30 868 N 79.8174 1.5752 -0.0501392 0
M  V30 869 C 80.7274 2.14952 0.939827 0
M  V30 870 C 81.7434 1.10706 1.34239 0
M  V30 871 O 82.9194 1.42869 1.41952 0
M  V30 872 C 79.9844 2.68232 2.19665 0
M  V30 873 C 79.0454 3.87272 1.85253 0
M  V30 874 C 78.2784 4.38002 3.04943 0
M  V30 875 O 78.5014 3.87811 4.18281 0
M  V30 876 O 77.4354 5.29602 2.86017 0
M  V30 877 H 81.2614 2.9986 0.481392 0
M  V30 878 H 78.8464 1.4841 0.171699 0
M  V30 879 H 80.7284 3.02475 2.93406 0
M  V30 880 H 79.4034 1.86395 2.64648 0
M  V30 881 H 78.3104 3.5792 1.0883 0
M  V30 882 H 79.6434 4.70336 1.4507 0
M  V30 883 N 81.2955 -0.223234 1.56011 0
M  V30 884 C 82.5435 -0.946003 1.78592 0
M  V30 885 C 82.8645 -1.84936 0.618349 0
M  V30 886 O 82.1345 -1.92473 -0.364833 0
M  V30 887 H 80.7145 -0.352298 0.658707 0
M  V30 888 H 83.3765 -0.235494 1.93472 0
M  V30 889 H 82.4725 -1.55381 2.70672 0
M  V30 890 N 82.7736 -1.49793 -0.48987 0
M  V30 891 C 84.0506 -1.50348 -1.25119 0
M  V30 892 C 84.4306 -0.237466 -2.0976 0
M  V30 893 O 83.7786 0.77981 -2.14782 0
M  V30 894 C 83.9886 -2.78872 -2.09837 0
M  V30 895 C 85.3366 -3.288 -2.68655 0
M  V30 896 O 86.3606 -2.80065 -2.20096 0
M  V30 897 O 85.2196 -4.13707 -3.57083 0
M  V30 898 H 82.3136 -0.602242 -0.566775 0
M  V30 899 H 84.8596 -1.62067 -0.503229 0
M  V30 900 H 83.6316 -3.62499 -1.47343 0
M  V30 901 H 83.2546 -2.70066 -2.91805 0
M  V30 902 N 84.2517 0.741722 -1.39055 0
M  V30 903 C 85.4987 1.50114 -1.35912 0
M  V30 904 C 85.8267 1.94443 0.0470937 0
M  V30 905 O 85.0817 1.66612 1.02659 0
M  V30 906 C 85.3807 2.7592 -2.27163 0
M  V30 907 C 85.0467 2.50493 -3.74919 0
M  V30 908 C 83.7087 2.43267 -4.1518 0
M  V30 909 C 86.0607 2.28585 -4.684 0
M  V30 910 C 83.3887 2.12166 -5.46994 0
M  V30 911 C 85.7407 1.99002 -6.00484 0
M  V30 912 C 84.4047 1.90241 -6.39816 0
M  V30 913 H 83.6747 0.549306 -0.497336 0
M  V30 914 H 86.3217 0.851896 -1.71508 0
M  V30 915 H 84.6267 3.45553 -1.84663 0
M  V30 916 H 86.3237 3.33923 -2.22028 0
M  V30 917 H 82.9137 2.56992 -3.43006 0
M  V30 918 H 87.0977 2.33139 -4.38132 0
M  V30 919 H 82.3537 2.03901 -5.76398 0
M  V30 920 H 86.5277 1.81057 -6.72452 0
M  V30 921 H 84.1547 1.65907 -7.41875 0
M  V30 922 N 85.7298 1.2412 0.971189 0
M  V30 923 C 86.9758 1.08041 1.71625 0
M  V30 924 C 87.3088 -0.380407 1.90438 0
M  V30 925 O 86.5838 -1.28127 1.46334 0
M  V30 926 C 86.8668 1.81682 3.10908 0
M  V30 927 C 86.7198 3.35493 2.99608 0
M  V30 928 C 88.0388 1.58671 4.10501 0
M  V30 929 H 85.1578 0.39388 0.622919 0
M  V30 930 H 87.7998 1.52743 1.13003 0
M  V30 931 H 85.9498 1.43684 3.60953 0
M  V30 932 H 87.6218 3.83068 2.57015 0
M  V30 933 H 85.8648 3.64052 2.35899 0
M  V30 934 H 86.5358 3.82217 3.98264 0
M  V30 935 H 89.0118 1.91719 3.69301 0
M  V30 936 H 87.8878 2.1266 5.06031 0
M  V30 937 H 88.1488 0.524161 4.38982 0
M  V30 938 N 87.2079 -1.17134 1.05439 0
M  V30 939 C 88.1559 -2.23289 0.651511 0
M  V30 940 C 89.1499 -1.66186 -0.328411 0
M  V30 941 O 90.3559 -1.78949 -0.194206 0
M  V30 942 H 86.7309 -0.726938 0.192523 0
M  V30 943 H 88.7019 -2.54565 1.55689 0
M  V30 944 C 87.4509 -3.47671 0.0448436 0
M  V30 945 H 86.7739 -3.91918 0.78996 0
M  V30 946 H 88.2139 -4.2353 -0.19964 0
M  V30 947 C 86.6729 -3.14453 -1.20918 0
M  V30 948 O 87.2029 -3.29459 -2.29825 0
M  V30 949 N 85.4089 -2.68657 -1.10779 0
M  V30 950 H 84.9559 -2.56646 -0.221526 0
M  V30 951 H 84.9139 -2.46804 -1.9477 0
M  V30 952 N 88.686 -0.835752 -1.33615 0
M  V30 953 C 89.596 -0.269088 -2.33052 0
M  V30 954 C 90.612 0.603251 -1.63208 0
M  V30 955 O 91.788 0.508112 -1.94885 0
M  V30 956 C 88.853 0.549091 -3.42324 0
M  V30 957 C 87.914 -0.347156 -4.27894 0
M  V30 958 C 87.147 0.43207 -5.31948 0
M  V30 959 O 87.37 1.66409 -5.45586 0
M  V30 960 O 86.304 -0.192298 -6.01593 0
M  V30 961 H 90.13 -1.09243 -2.83372 0
M  V30 962 H 87.715 -0.598198 -1.36901 0
M  V30 963 H 89.597 1.01414 -4.09015 0
M  V30 964 H 88.272 1.34955 -2.94226 0
M  V30 965 H 87.179 -0.859979 -3.64081 0
M  V30 966 H 88.512 -1.1123 -4.79467 0
M  V30 967 N 90.1641 1.46063 -0.591896 0
M  V30 968 C 91.4121 2.01938 -0.0808391 0
M  V30 969 C 91.7331 1.46475 1.28725 0
M  V30 970 O 91.0031 0.652944 1.84698 0
M  V30 971 H 89.5831 0.746516 -0.0268938 0
M  V30 972 H 92.2451 1.79055 -0.769752 0
M  V30 973 H 91.3411 3.12094 -0.0187578 0
M  V30 974 N 91.6422 0.330177 1.54103 0
M  V30 975 C 92.9192 -0.325007 1.92881 0
M  V30 976 C 93.2992 -1.6934 1.26045 0
M  V30 977 O 92.6472 -2.24855 0.406526 0
M  V30 978 C 92.8572 -0.410634 3.46576 0
M  V30 979 C 94.2052 -0.667801 4.19316 0
M  V30 980 O 95.2292 -0.49329 3.52768 0
M  V30 981 O 94.0882 -1.00491 5.37181 0
M  V30 982 H 91.1822 -0.186873 0.80561 0
M  V30 983 H 93.7282 0.380376 1.65382 0
M  V30 984 H 92.5002 0.550164 3.87413 0
M  V30 985 H 92.1232 -1.16333 3.802 0
M  V30 986 N 93.1203 -1.57491 0.0584922 0
M  V30 987 C 94.3663 -1.93264 -0.614558 0
M  V30 988 C 94.6993 -0.937717 -1.7006 0
M  V30 989 O 93.9743 0.0351652 -1.94468 0
M  V30 990 C 94.2573 -3.3938 -1.20386 0
M  V30 991 C 94.1103 -4.49625 -0.125375 0
M  V30 992 C 95.4293 -3.86039 -2.11334 0
M  V30 993 H 92.5483 -0.702791 -0.221933 0
M  V30 994 H 95.1903 -1.8961 0.12175 0
M  V30 995 H 93.3403 -3.42626 -1.83139 0
M  V30 996 H 95.0123 -4.58506 0.506971 0
M  V30 997 H 93.2553 -4.30354 0.545672 0
M  V30 998 H 93.9263 -5.48967 -0.577861 0
M  V30 999 H 96.4023 -3.84716 -1.58534 0
M  V30 1000 H 95.2783 -4.88914 -2.49507 0
M  V30 1001 H 95.5393 -3.23215 -3.01636 0
M  V30 1002 N 94.5984 0.214957 -1.56127 0
M  V30 1003 C 95.5284 1.2695 -1.95974 0
M  V30 1004 C 96.5094 1.48539 -0.828868 0
M  V30 1005 O 97.6944 1.60611 -1.09168 0
M  V30 1006 C 94.8244 2.61794 -2.28214 0
M  V30 1007 C 93.7784 2.54851 -3.43853 0
M  V30 1008 C 93.1044 3.93785 -3.61715 0
M  V30 1009 C 94.4044 2.09065 -4.78632 0
M  V30 1010 H 96.0984 0.93846 -2.84312 0
M  V30 1011 H 93.6444 0.449996 -1.36788 0
M  V30 1012 H 95.5974 3.35731 -2.54682 0
M  V30 1013 H 94.3214 2.96599 -1.36736 0
M  V30 1014 H 92.9804 1.8337 -3.17444 0
M  V30 1015 H 92.6284 4.25908 -2.67602 0
M  V30 1016 H 92.3284 3.90019 -4.39498 0
M  V30 1017 H 93.8524 4.69374 -3.90539 0
M  V30 1018 H 95.2664 2.7275 -5.04262 0
M  V30 1019 H 93.6634 2.16346 -5.59745 0
M  V30 1020 H 94.7334 1.04315 -4.73547 0
M  V30 1021 N 96.0765 1.50051 0.48192 0
M  V30 1022 C 97.0065 1.71046 1.58951 0
M  V30 1023 C 97.9875 0.559288 1.60642 0
M  V30 1024 O 99.1725 0.797243 1.77081 0
M  V30 1025 C 96.3025 1.79462 2.97339 0
M  V30 1026 C 95.2565 2.94558 3.10515 0
M  V30 1027 C 94.5825 2.88105 4.50444 0
M  V30 1028 C 95.8825 4.35227 2.88747 0
M  V30 1029 H 97.5765 2.6378 1.41635 0
M  V30 1030 H 95.1225 1.26936 0.679942 0
M  V30 1031 H 97.0755 1.92734 3.74742 0
M  V30 1032 H 95.7995 0.833412 3.15788 0
M  V30 1033 H 94.4585 2.80918 2.35543 0
M  V30 1034 H 94.1065 1.89853 4.65795 0
M  V30 1035 H 93.8065 3.65366 4.60197 0
M  V30 1036 H 95.3305 3.03412 5.29881 0
M  V30 1037 H 96.7445 4.49449 3.55905 0
M  V30 1038 H 95.1415 5.13856 3.09955 0
M  V30 1039 H 96.2115 4.48347 1.84696 0
M  V30 1040 N 97.5546 -0.734337 1.39446 0
M  V30 1041 C 98.4646 -1.87879 1.40495 0
M  V30 1042 C 99.4806 -1.714 0.299672 0
M  V30 1043 O 100.657 -1.93991 0.541249 0
M  V30 1044 C 97.7216 -3.23477 1.24754 0
M  V30 1045 C 96.7826 -3.52344 2.45259 0
M  V30 1046 C 96.0156 -4.81473 2.30259 0
M  V30 1047 O 96.2386 -5.55237 1.30643 0
M  V30 1048 O 95.1726 -5.10254 3.19256 0
M  V30 1049 H 98.9986 -1.89949 2.36966 0
M  V30 1050 H 96.5836 -0.882243 1.20569 0
M  V30 1051 H 98.4656 -4.04509 1.18111 0
M  V30 1052 H 97.1406 -3.22176 0.313781 0
M  V30 1053 H 96.0476 -2.71396 2.57478 0
M  V30 1054 H 97.3806 -3.58426 3.37331 0
M  V30 1055 N 99.0327 -1.24633 -0.964593 0
M  V30 1056 C 99.9627 -1.06611 -2.07741 0
M  V30 1057 C 100.944 0.0218666 -1.70086 0
M  V30 1058 O 102.129 -0.145793 -1.93652 0
M  V30 1059 C 99.2587 -0.673444 -3.40708 0
M  V30 1060 C 98.2127 -1.71054 -3.92332 0
M  V30 1061 C 97.5387 -1.17285 -5.21678 0
M  V30 1062 C 98.8387 -3.10718 -4.19824 0
M  V30 1063 H 100.533 -1.99693 -2.23076 0
M  V30 1064 H 98.0787 -0.96152 -1.07195 0
M  V30 1065 H 100.032 -0.534345 -4.17998 0
M  V30 1066 H 98.7557 0.293073 -3.25282 0
M  V30 1067 H 97.4147 -1.83791 -3.17201 0
M  V30 1068 H 97.0627 -0.196847 -5.02615 0
M  V30 1069 H 96.7627 -1.86592 -5.57187 0
M  V30 1070 H 98.2867 -1.04593 -6.01575 0
M  V30 1071 H 99.7007 -3.01192 -4.87808 0
M  V30 1072 H 98.0977 -3.77406 -4.66567 0
M  V30 1073 H 99.1677 -3.58524 -3.26479 0
M  V30 1074 N 100.511 1.16574 -1.06058 0
M  V30 1075 C 101.736 1.91493 -0.796562 0
M  V30 1076 C 102.161 1.76773 0.642868 0
M  V30 1077 O 101.519 1.09142 1.44768 0
M  V30 1078 C 101.567 3.40293 -1.19303 0
M  V30 1079 O 100.671 4.11074 -0.330394 0
M  V30 1080 H 100.012 0.596678 -0.291326 0
M  V30 1081 H 102.542 1.47708 -1.41575 0
M  V30 1082 H 102.552 3.91057 -1.16356 0
M  V30 1083 H 101.227 3.50326 -2.24153 0
M  V30 1084 H 99.8038 3.70513 -0.421225 0
M  V30 1085 N 101.989 0.842826 1.3317 0
M  V30 1086 C 102.937 0.267495 2.31057 0
M  V30 1087 C 103.931 -0.602682 1.58316 0
M  V30 1088 O 105.137 -0.491803 1.73151 0
M  V30 1089 H 101.512 0.0677813 0.748939 0
M  V30 1090 H 103.483 1.10754 2.77085 0
M  V30 1091 C 102.232 -0.539331 3.43492 0
M  V30 1092 H 101.555 0.12095 3.99617 0
M  V30 1093 H 102.995 -0.90767 4.14171 0
M  V30 1094 C 101.454 -1.71981 2.89697 0
M  V30 1095 O 101.984 -2.81862 2.86211 0
M  V30 1096 N 100.19 -1.54299 2.46252 0
M  V30 1097 H 99.7369 -0.649143 2.49287 0
M  V30 1098 H 99.6949 -2.33431 2.10612 0
M  V30 1099 N 103.467 -1.45747 0.599634 0
M  V30 1100 C 104.692 -2.07178 0.0960198 0
M  V30 1101 C 105.117 -1.44268 -1.207 0
M  V30 1102 O 104.475 -0.532503 -1.73303 0
M  V30 1103 C 104.523 -3.60579 -0.0385348 0
M  V30 1104 O 103.627 -3.97713 -1.0908 0
M  V30 1105 H 102.968 -0.660251 0.0704593 0
M  V30 1106 H 105.498 -1.87124 0.827385 0
M  V30 1107 H 105.508 -4.07298 -0.239304 0
M  V30 1108 H 104.183 -4.05756 0.912947 0
M  V30 1109 H 102.76 -3.62678 -0.867135 0
M  V30 1110 N 104.945 -0.338344 -1.53925 0
M  V30 1111 C 106.173 0.261298 -2.05243 0
M  V30 1112 C 106.588 1.44625 -1.21363 0
M  V30 1113 O 105.945 1.80811 -0.247736 0
M  V30 1114 C 105.996 0.681412 -3.5502 0
M  V30 1115 O 105.717 -0.456414 -4.35716 0
M  V30 1116 C 107.218 1.34232 -4.22489 0
M  V30 1117 H 104.438 0.0513685 -0.669031 0
M  V30 1118 H 106.982 -0.488822 -1.98572 0
M  V30 1119 H 105.137 1.38148 -3.61931 0
M  V30 1120 H 105.551 -0.122564 -5.24357 0
M  V30 1121 H 107.025 1.58708 -5.28693 0
M  V30 1122 H 107.502 2.29426 -3.74514 0
M  V30 1123 H 108.108 0.684424 -4.19757 0
M  V30 1124 N 106.423 1.57458 -0.0668435 0
M  V30 1125 C 107.355 2.09413 0.931601 0
M  V30 1126 C 108.368 1.02522 1.26464 0
M  V30 1127 O 109.557 1.30049 1.22269 0
M  V30 1128 C 106.657 2.53537 2.24882 0
M  V30 1129 C 105.83 3.83944 2.09537 0
M  V30 1130 C 104.889 4.14214 3.2452 0
M  V30 1131 O 103.915 4.83891 2.9973 0
M  V30 1132 N 105.117 3.67367 4.49469 0
M  V30 1133 H 107.882 2.95699 0.488048 0
M  V30 1134 H 105.443 1.61462 0.119009 0
M  V30 1135 H 107.435 2.70853 3.00701 0
M  V30 1136 H 106.005 1.72415 2.60753 0
M  V30 1137 H 105.225 3.76057 1.18215 0
M  V30 1138 H 106.513 4.69312 1.96529 0
M  V30 1139 H 105.911 3.11068 4.72497 0
M  V30 1140 H 104.468 3.89891 5.2233 0
M  V30 1141 O 107.94 -0.0739049 1.61331 0
M  V30 1142 H 108.631 -0.700047 1.80607 0
M  V30 END ATOM
M  V30 BEGIN BOND
M  V30 END BOND
M  V30 END CTAB
M  END
$$$$
