drugbank_target|Q06609 DNA repair protein RAD51 homolog 1 (DB04395; DB12742)
 OpenBabel12092120143D

  0  0  0     0  0            999 V3000
M  V30 BEGIN CTAB
M  V30 COUNTS 14351 15411 0 0 0
M  V30 BEGIN ATOM
M  V30 1 H -1.547 9.37743 -1.21644 0
M  V30 2 O -1.44 8.89599 -0.40059 0
M  V30 3 P 0 8.91 0 0
M  V30 4 O 0.22 10.1746 0.733838 0
M  V30 5 O 0.79 8.73346 -1.23964 0
M  V30 6 O 0.25 7.66872 0.971405 0
M  V30 7 C -0.69 7.42405 2.04668 0
M  V30 8 C 0.04 6.86059 3.24661 0
M  V30 9 O 0.25 5.42934 3.03695 0
M  V30 10 C 1.44 7.41287 3.50796 0
M  V30 11 O 1.83 7.27073 4.86816 0
M  V30 12 C 2.32 6.5273 2.63741 0
M  V30 13 C 1.61 5.1842 2.73198 0
M  V30 14 N 1.66 4.38762 1.4784 0
M  V30 15 H -1.178 8.36899 2.3252 0
M  V30 16 H -1.45 6.70391 1.71179 0
M  V30 17 H -0.582 7.03638 4.13219 0
M  V30 18 H 2.073 4.59931 3.54016 0
M  V30 19 H 2.353 6.88995 1.59871 0
M  V30 20 H 3.344 6.4684 3.0373 0
M  V30 21 H 1.51 8.47002 3.20749 0
M  V30 22 P 3.37998 7.20834 5.23717 0
M  V30 23 O 3.59998 7.80006 6.57415 0
M  V30 24 O 4.16998 7.79416 4.13051 0
M  V30 25 O 3.62998 5.63315 5.29344 0
M  V30 26 C 2.68998 4.80318 6.01954 0
M  V30 27 C 3.41998 3.64202 6.65911 0
M  V30 28 O 3.62998 2.60736 5.64823 0
M  V30 29 C 4.81998 3.93521 7.19518 0
M  V30 30 O 5.20998 3.02071 8.21205 0
M  V30 31 C 5.69998 3.73047 5.97036 0
M  V30 32 C 4.98998 2.58828 5.25741 0
M  V30 33 N 5.03998 2.68068 3.77503 0
M  V30 34 C 4.95998 3.80474 2.99159 0
M  V30 35 N 5.02998 3.55622 1.71925 0
M  V30 36 C 5.17998 2.1832 1.65733 0
M  V30 37 C 5.30998 1.28842 0.572777 0
M  V30 38 N 5.31998 1.66875 -0.70098 0
M  V30 39 N 5.42998 -0.016788 0.859836 0
M  V30 40 C 5.41998 -0.398145 2.13316 0
M  V30 41 N 5.29998 0.328224 3.22333 0
M  V30 42 C 5.17998 1.62992 2.90383 0
M  V30 43 H 2.20198 5.40394 6.8003 0
M  V30 44 H 1.92998 4.41741 5.32532 0
M  V30 45 H 2.79798 3.26371 7.47889 0
M  V30 46 H 5.45298 1.64007 5.56746 0
M  V30 47 H 5.73298 4.63439 5.3432 0
M  V30 48 H 6.72398 3.44776 6.25925 0
M  V30 49 H 4.88998 4.96707 7.57347 0
M  V30 50 H 4.84898 4.8089 3.39924 0
M  V30 51 H 5.22998 2.66547 -0.941919 0
M  V30 52 H 5.41898 0.965341 -1.44766 0
M  V30 53 H 5.52698 -1.46427 2.29697 0
M  V30 54 P 6.75996 2.75334 8.47391 0
M  V30 55 O 6.97996 2.44619 9.90336 0
M  V30 56 O 7.54996 3.87776 7.92294 0
M  V30 57 O 7.00996 1.4459 7.59357 0
M  V30 58 C 6.06996 0.347653 7.69315 0
M  V30 59 C 6.79996 -0.96767 7.52806 0
M  V30 60 O 7.00996 -1.21055 6.10208 0
M  V30 61 C 8.19996 -1.04557 8.13408 0
M  V30 62 O 8.58996 -2.38311 8.41922 0
M  V30 63 C 9.07996 -0.491279 7.02284 0
M  V30 64 C 8.36996 -0.996264 5.77469 0
M  V30 65 N 8.41996 -0.0501916 4.62973 0
M  V30 66 H 5.58196 0.374765 8.67791 0
M  V30 67 H 5.30996 0.443613 6.90476 0
M  V30 68 H 6.17796 -1.75559 7.96891 0
M  V30 69 H 8.83296 -1.94563 5.46818 0
M  V30 70 H 9.11296 0.608651 7.04676 0
M  V30 71 H 10.104 -0.889796 7.09039 0
M  V30 72 H 8.26996 -0.433128 9.04664 0
M  V30 73 P 10.1399 -2.75334 8.47391 0
M  V30 74 O 10.3599 -3.84128 9.44797 0
M  V30 75 O 10.9299 -1.51947 8.68712 0
M  V30 76 O 10.3899 -3.29363 6.99321 0
M  V30 77 C 9.44994 -4.24011 6.4274 0
M  V30 78 C 10.1799 -5.20775 5.52155 0
M  V30 79 O 10.3899 -4.56534 4.22446 0
M  V30 80 C 11.5799 -5.62629 5.96531 0
M  V30 81 O 11.9699 -6.87667 5.41053 0
M  V30 82 C 12.4599 -4.52537 5.39283 0
M  V30 83 C 11.7499 -4.20027 4.08623 0
M  V30 84 N 11.7999 -2.76189 3.71603 0
M  V30 85 H 8.96094 -4.797 7.24003 0
M  V30 86 H 8.69094 -3.69856 5.84513 0
M  V30 87 H 9.55794 -6.10356 5.41441 0
M  V30 88 P 13.5199 -7.20834 5.23717 0
M  V30 89 O 13.7399 -8.66274 5.38678 0
M  V30 90 O 14.3099 -6.33687 6.13629 0
M  V30 91 O 13.7699 -6.7751 3.72168 0
M  V30 92 C 12.8299 -7.20919 2.70795 0
M  V30 93 C 13.5599 -7.45864 1.40599 0
M  V30 94 O 13.7699 -6.17751 0.734343 0
M  V30 95 C 14.9599 -8.05906 1.51917 0
M  V30 96 O 15.3499 -8.74358 0.335205 0
M  V30 97 C 15.8399 -6.83093 1.70294 0
M  V30 98 C 15.1299 -5.79992 0.836974 0
M  V30 99 N 15.1799 -4.41864 1.38293 0
M  V30 100 H 12.3419 -8.13738 3.03804 0
M  V30 101 H 12.0699 -6.42974 2.55559 0
M  V30 102 H 12.9379 -8.12139 0.792866 0
M  V30 103 H 15.5929 -5.80178 -0.160643 0
M  V30 104 H 15.8729 -6.51379 2.75643 0
M  V30 105 H 16.8639 -7.01832 1.3448 0
M  V30 106 H 15.0299 -8.73771 2.38364 0
M  V30 107 P 16.8999 -8.91 1.09116e-15 0
M  V30 108 O 17.1199 -10.1726 -0.733694 0
M  V30 109 O 17.6899 -8.73148 1.23936 0
M  V30 110 O 17.1499 -7.66872 -0.971405 0
M  V30 111 C 16.2099 -7.42309 -2.04641 0
M  V30 112 C 16.9399 -6.86059 -3.24661 0
M  V30 113 O 17.1499 -5.42847 -3.03646 0
M  V30 114 C 18.3399 -7.41196 -3.50753 0
M  V30 115 O 18.7299 -7.27073 -4.86816 0
M  V30 116 C 19.2199 -6.5273 -2.63741 0
M  V30 117 C 18.5099 -5.1842 -2.73198 0
M  V30 118 N 18.5599 -4.38762 -1.4784 0
M  V30 119 H 15.7209 -8.36803 -2.32493 0
M  V30 120 H 15.4509 -6.70197 -1.71129 0
M  V30 121 H 16.3179 -7.03551 -4.13168 0
M  V30 122 P 20.2799 -7.20834 -5.23717 0
M  V30 123 O 20.4999 -7.79853 -6.57286 0
M  V30 124 O 21.0699 -7.79239 -4.12957 0
M  V30 125 O 20.5299 -5.63315 -5.29344 0
M  V30 126 C 19.5899 -4.80255 -6.01876 0
M  V30 127 C 20.3199 -3.64202 -6.65911 0
M  V30 128 O 20.5299 -2.60694 -5.64732 0
M  V30 129 C 21.7199 -3.93473 -7.1943 0
M  V30 130 O 22.1099 -3.02071 -8.21205 0
M  V30 131 C 22.5999 -3.73047 -5.97036 0
M  V30 132 C 21.8899 -2.58828 -5.25741 0
M  V30 133 N 21.9399 -2.68068 -3.77503 0
M  V30 134 H 19.1009 -5.40332 -6.79951 0
M  V30 135 H 18.8309 -4.41613 -5.32378 0
M  V30 136 H 19.6979 -3.26331 -7.47797 0
M  V30 137 P 23.6599 -2.75334 -8.47391 0
M  V30 138 O 23.8799 -2.44571 -9.90142 0
M  V30 139 O 24.4499 -3.87688 -7.92115 0
M  V30 140 O 23.9099 -1.4459 -7.59357 0
M  V30 141 C 22.9699 -0.347608 -7.69215 0
M  V30 142 C 23.6999 0.96767 -7.52806 0
M  V30 143 O 23.9099 1.21036 -6.1011 0
M  V30 144 C 25.0999 1.04544 -8.13308 0
M  V30 145 O 25.4899 2.38311 -8.41922 0
M  V30 146 C 25.9799 0.491279 -7.02284 0
M  V30 147 C 25.2699 0.996264 -5.77469 0
M  V30 148 N 25.3199 0.0501916 -4.62973 0
M  V30 149 H 22.4809 -0.374722 -8.67691 0
M  V30 150 H 22.2109 -0.443485 -6.90277 0
M  V30 151 H 23.0779 1.75537 -7.96793 0
M  V30 152 P 27.0398 2.75334 -8.47391 0
M  V30 153 O 27.2598 3.84204 -9.44982 0
M  V30 154 O 27.8298 1.51982 -8.68909 0
M  V30 155 O 27.2898 3.29363 -6.99321 0
M  V30 156 C 26.3498 4.24066 -6.42823 0
M  V30 157 C 27.0798 5.20775 -5.52155 0
M  V30 158 O 27.2898 4.56607 -4.22514 0
M  V30 159 C 28.4798 5.62697 -5.96604 0
M  V30 160 O 28.8698 6.87667 -5.41053 0
M  V30 161 C 29.3598 4.52537 -5.39283 0
M  V30 162 C 28.6498 4.20027 -4.08623 0
M  V30 163 N 28.6998 2.76189 -3.71603 0
M  V30 164 C 28.6198 1.66944 -4.54297 0
M  V30 165 N 28.6898 0.536169 -3.91344 0
M  V30 166 C 28.8398 0.901569 -2.58849 0
M  V30 167 C 28.9698 0.146599 -1.40236 0
M  V30 168 N 28.9798 -1.18234 -1.37046 0
M  V30 169 N 29.0898 0.822941 -0.249738 0
M  V30 170 C 29.0798 2.15179 -0.280525 0
M  V30 171 N 28.9598 2.96414 -1.30822 0
M  V30 172 C 28.8398 2.25804 -2.44748 0
M  V30 173 H 25.8618 4.79756 -7.24086 0
M  V30 174 H 25.5898 3.69963 -5.84682 0
M  V30 175 H 26.4578 6.10431 -5.41508 0
M  V30 176 H 29.1128 4.78816 -3.28024 0
M  V30 177 H 29.3928 3.64957 -6.05871 0
M  V30 178 H 30.3838 4.88748 -5.21323 0
M  V30 179 H 28.5498 5.66789 -7.0643 0
M  V30 180 H 28.5088 1.74684 -5.62396 0
M  V30 181 H 28.8898 -1.71949 -2.24394 0
M  V30 182 H 29.0788 -1.67511 -0.470742 0
M  V30 183 H 29.1868 2.63704 0.6828 0
M  V30 184 P 30.4198 7.20834 -5.23717 0
M  V30 185 O 30.6398 8.66104 -5.38572 0
M  V30 186 O 31.2098 6.33544 -6.1349 0
M  V30 187 O 30.6698 6.7751 -3.72168 0
M  V30 188 C 29.7298 7.20825 -2.7076 0
M  V30 189 C 30.4598 7.45864 -1.40599 0
M  V30 190 O 30.6698 6.17651 -0.734225 0
M  V30 191 C 31.8598 8.05808 -1.51899 0
M  V30 192 O 32.2498 8.74358 -0.335205 0
M  V30 193 C 32.7398 6.83093 -1.70294 0
M  V30 194 C 32.0298 5.79992 -0.836974 0
M  V30 195 N 32.0798 4.41864 -1.38293 0
M  V30 196 H 29.2408 8.13644 -3.0377 0
M  V30 197 H 28.9708 6.42788 -2.55485 0
M  V30 198 H 29.8378 8.12039 -0.792769 0
M  V30 199 P 33.7998 8.91 -2.18232e-15 0
M  V30 200 O 34.0198 10.1746 0.733838 0
M  V30 201 O 34.5898 8.73346 -1.23964 0
M  V30 202 O 34.0498 7.66872 0.971405 0
M  V30 203 C 33.1098 7.42405 2.04668 0
M  V30 204 C 33.8398 6.86059 3.24661 0
M  V30 205 O 34.0498 5.42934 3.03695 0
M  V30 206 C 35.2398 7.41287 3.50796 0
M  V30 207 O 35.6298 7.27073 4.86816 0
M  V30 208 C 36.1198 6.5273 2.63741 0
M  V30 209 C 35.4098 5.1842 2.73198 0
M  V30 210 N 35.4598 4.38762 1.4784 0
M  V30 211 C 35.3798 4.83651 0.183876 0
M  V30 212 N 35.4498 3.88759 -0.699393 0
M  V30 213 C 35.5998 2.7404 0.0575568 0
M  V30 214 C 35.7298 1.37902 -0.293928 0
M  V30 215 N 35.7398 0.938021 -1.54797 0
M  V30 216 N 35.8498 0.491817 0.70549 0
M  V30 217 C 35.8398 0.931735 1.95979 0
M  V30 218 N 35.7198 2.16017 2.41481 0
M  V30 219 C 35.5998 3.02547 1.39121 0
M  V30 220 H 32.6218 8.36899 2.3252 0
M  V30 221 H 32.3498 6.70391 1.71179 0
M  V30 222 H 33.2178 7.03638 4.13219 0
M  V30 223 H 35.8728 4.59931 3.54016 0
M  V30 224 H 36.1528 6.88995 1.59871 0
M  V30 225 H 37.1438 6.4684 3.0373 0
M  V30 226 H 35.3098 8.47002 3.20749 0
M  V30 227 H 35.2688 5.8885 -0.0765548 0
M  V30 228 H 35.6498 1.60276 -2.32875 0
M  V30 229 H 35.8388 -0.0699355 -1.73859 0
M  V30 230 H 35.9468 0.165507 2.71897 0
M  V30 231 P 37.1798 7.20834 5.23717 0
M  V30 232 O 37.3998 7.79853 6.57286 0
M  V30 233 O 37.9698 7.79239 4.12957 0
M  V30 234 O 37.4298 5.63315 5.29344 0
M  V30 235 C 36.4898 4.80255 6.01876 0
M  V30 236 C 37.2198 3.64202 6.65911 0
M  V30 237 O 37.4298 2.60694 5.64732 0
M  V30 238 C 38.6198 3.93473 7.1943 0
M  V30 239 O 39.0098 3.02071 8.21205 0
M  V30 240 C 39.4998 3.73047 5.97036 0
M  V30 241 C 38.7898 2.58828 5.25741 0
M  V30 242 N 38.8398 2.68068 3.77503 0
M  V30 243 H 36.0008 5.40332 6.79951 0
M  V30 244 H 35.7308 4.41613 5.32378 0
M  V30 245 H 36.5978 3.26331 7.47797 0
M  V30 246 P 40.5598 2.75334 8.47391 0
M  V30 247 O 40.7798 2.44595 9.90239 0
M  V30 248 O 41.3498 3.87732 7.92204 0
M  V30 249 O 40.8098 1.4459 7.59357 0
M  V30 250 C 39.8698 0.347563 7.69115 0
M  V30 251 C 40.5998 -0.96767 7.52806 0
M  V30 252 O 40.8098 -1.21036 6.1011 0
M  V30 253 C 41.9998 -1.04544 8.13308 0
M  V30 254 O 42.3898 -2.38311 8.41922 0
M  V30 255 C 42.8798 -0.491279 7.02284 0
M  V30 256 C 42.1698 -0.996264 5.77469 0
M  V30 257 N 42.2198 -0.0501808 4.62873 0
M  V30 258 C 42.3698 -0.588177 3.36904 0
M  V30 259 O 42.4598 -1.78598 3.17173 0
M  V30 260 N 42.4098 0.329694 2.33686 0
M  V30 261 C 42.3198 1.6953 2.45079 0
M  V30 262 O 42.3698 2.41926 1.44899 0
M  V30 263 C 42.1698 2.16933 3.80505 0
M  V30 264 C 42.0598 3.65373 3.97621 0
M  V30 265 C 42.1198 1.30326 4.83752 0
M  V30 266 H 39.3798 0.374722 8.67691 0
M  V30 267 H 39.1108 0.443421 6.90177 0
M  V30 268 H 39.9778 -1.75537 7.96793 0
M  V30 269 H 42.6328 -1.94496 5.46629 0
M  V30 270 H 42.9118 0.608651 7.04676 0
M  V30 271 H 43.9038 -0.889672 7.08939 0
M  V30 272 H 42.0698 -0.43308 9.04564 0
M  V30 273 H 41.9988 1.68366 5.8516 0
M  V30 274 H 43.0288 4.05985 4.30448 0
M  V30 275 H 41.2918 3.88028 4.72875 0
M  V30 276 H 41.7798 4.11381 3.01609 0
M  V30 277 H 42.5158 -0.0393617 1.41345 0
M  V30 278 P 43.9397 -2.75334 8.47391 0
M  V30 279 O 44.1597 -3.84128 9.44797 0
M  V30 280 O 44.7297 -1.51947 8.68712 0
M  V30 281 O 44.1897 -3.29363 6.99321 0
M  V30 282 C 43.2497 -4.24011 6.4274 0
M  V30 283 C 43.9797 -5.20775 5.52155 0
M  V30 284 O 44.1897 -4.56534 4.22446 0
M  V30 285 C 45.3797 -5.62629 5.96531 0
M  V30 286 O 45.7697 -6.87667 5.41053 0
M  V30 287 C 46.2597 -4.52537 5.39283 0
M  V30 288 C 45.5497 -4.20027 4.08623 0
M  V30 289 N 45.5997 -2.76189 3.71603 0
M  V30 290 H 42.7607 -4.797 7.24003 0
M  V30 291 H 42.4907 -3.69856 5.84513 0
M  V30 292 H 43.3577 -6.10356 5.41441 0
M  V30 293 P 47.3197 -7.20834 5.23717 0
M  V30 294 O 47.5397 -8.66104 5.38572 0
M  V30 295 O 48.1097 -6.33544 6.1349 0
M  V30 296 O 47.5697 -6.7751 3.72168 0
M  V30 297 C 46.6297 -7.20825 2.7076 0
M  V30 298 C 47.3597 -7.45864 1.40599 0
M  V30 299 O 47.5697 -6.17651 0.734225 0
M  V30 300 C 48.7597 -8.05808 1.51899 0
M  V30 301 O 49.1497 -8.74358 0.335205 0
M  V30 302 C 49.6397 -6.83093 1.70294 0
M  V30 303 C 48.9297 -5.79992 0.836974 0
M  V30 304 N 48.9797 -4.41864 1.38293 0
M  V30 305 H 46.1407 -8.13644 3.0377 0
M  V30 306 H 45.8707 -6.42788 2.55485 0
M  V30 307 H 46.7377 -8.12039 0.792769 0
M  V30 308 P 50.6997 -8.91 3.27348e-15 0
M  V30 309 O 50.9197 -10.1726 -0.733694 0
M  V30 310 O 51.4897 -8.73148 1.23936 0
M  V30 311 O 50.9497 -7.66872 -0.971405 0
M  V30 312 C 50.0097 -7.42309 -2.04641 0
M  V30 313 C 50.7397 -6.86059 -3.24661 0
M  V30 314 O 50.9497 -5.42847 -3.03646 0
M  V30 315 C 52.1397 -7.41196 -3.50753 0
M  V30 316 O 52.5297 -7.27073 -4.86816 0
M  V30 317 C 53.0197 -6.5273 -2.63741 0
M  V30 318 C 52.3097 -5.1842 -2.73198 0
M  V30 319 N 52.3597 -4.38762 -1.4784 0
M  V30 320 H 49.5207 -8.36803 -2.32493 0
M  V30 321 H 49.2507 -6.70197 -1.71129 0
M  V30 322 H 50.1177 -7.03551 -4.13168 0
M  V30 323 P 54.0797 -7.20834 -5.23717 0
M  V30 324 O 54.2997 -7.79853 -6.57286 0
M  V30 325 O 54.8697 -7.79239 -4.12957 0
M  V30 326 O 54.3297 -5.63315 -5.29344 0
M  V30 327 C 53.3897 -4.80255 -6.01876 0
M  V30 328 C 54.1197 -3.64202 -6.65911 0
M  V30 329 O 54.3297 -2.60694 -5.64732 0
M  V30 330 C 55.5197 -3.93473 -7.1943 0
M  V30 331 O 55.9097 -3.02071 -8.21205 0
M  V30 332 C 56.3997 -3.73047 -5.97036 0
M  V30 333 C 55.6897 -2.58828 -5.25741 0
M  V30 334 N 55.7397 -2.68068 -3.77503 0
M  V30 335 H 52.9007 -5.40332 -6.79951 0
M  V30 336 H 52.6307 -4.41613 -5.32378 0
M  V30 337 H 53.4977 -3.26331 -7.47797 0
M  V30 338 P 57.4597 -2.75334 -8.47391 0
M  V30 339 O 57.6797 -2.44571 -9.90142 0
M  V30 340 O 58.2497 -3.87688 -7.92115 0
M  V30 341 O 57.7097 -1.4459 -7.59357 0
M  V30 342 C 56.7697 -0.347608 -7.69215 0
M  V30 343 C 57.4997 0.96767 -7.52806 0
M  V30 344 O 57.7097 1.21036 -6.1011 0
M  V30 345 C 58.8997 1.04544 -8.13308 0
M  V30 346 O 59.2897 2.38311 -8.41922 0
M  V30 347 C 59.7797 0.491279 -7.02284 0
M  V30 348 C 59.0697 0.996264 -5.77469 0
M  V30 349 N 59.1197 0.0501916 -4.62973 0
M  V30 350 H 56.2807 -0.374722 -8.67691 0
M  V30 351 H 56.0107 -0.443485 -6.90277 0
M  V30 352 H 56.8777 1.75537 -7.96793 0
M  V30 353 P 60.8396 2.75334 -8.47391 0
M  V30 354 O 61.0596 3.84128 -9.44797 0
M  V30 355 O 61.6296 1.51947 -8.68712 0
M  V30 356 O 61.0896 3.29363 -6.99321 0
M  V30 357 C 60.1496 4.24011 -6.4274 0
M  V30 358 C 60.8796 5.20775 -5.52155 0
M  V30 359 O 61.0896 4.56534 -4.22446 0
M  V30 360 C 62.2796 5.62629 -5.96531 0
M  V30 361 O 62.6696 6.87667 -5.41053 0
M  V30 362 C 63.1596 4.52537 -5.39283 0
M  V30 363 C 62.4496 4.20027 -4.08623 0
M  V30 364 N 62.4996 2.76189 -3.71603 0
M  V30 365 H 59.6606 4.797 -7.24003 0
M  V30 366 H 59.3906 3.69856 -5.84513 0
M  V30 367 H 60.2576 6.10356 -5.41441 0
M  V30 368 P 64.2196 7.20834 -5.23717 0
M  V30 369 O 64.4396 8.66104 -5.38572 0
M  V30 370 O 65.0096 6.33544 -6.1349 0
M  V30 371 O 64.4696 6.7751 -3.72168 0
M  V30 372 C 63.5296 7.20825 -2.7076 0
M  V30 373 C 64.2596 7.45864 -1.40599 0
M  V30 374 O 64.4696 6.17651 -0.734225 0
M  V30 375 C 65.6596 8.05808 -1.51899 0
M  V30 376 O 66.0496 8.74358 -0.335205 0
M  V30 377 C 66.5396 6.83093 -1.70294 0
M  V30 378 C 65.8296 5.79992 -0.836974 0
M  V30 379 N 65.8796 4.41864 -1.38293 0
M  V30 380 H 63.0406 8.13644 -3.0377 0
M  V30 381 H 62.7706 6.42788 -2.55485 0
M  V30 382 H 63.6376 8.12039 -0.792769 0
M  V30 383 P 67.5996 8.91 -4.36464e-15 0
M  V30 384 O 67.8196 10.1726 0.733694 0
M  V30 385 O 68.3896 8.73148 -1.23936 0
M  V30 386 O 67.8496 7.66872 0.971405 0
M  V30 387 C 66.9096 7.42309 2.04641 0
M  V30 388 C 67.6396 6.86059 3.24661 0
M  V30 389 O 67.8496 5.42847 3.03646 0
M  V30 390 C 69.0396 7.41196 3.50753 0
M  V30 391 O 69.4296 7.27073 4.86816 0
M  V30 392 C 69.9196 6.5273 2.63741 0
M  V30 393 C 69.2096 5.1842 2.73198 0
M  V30 394 N 69.2596 4.38762 1.4784 0
M  V30 395 C 69.1796 4.81605 0.168631 0
M  V30 396 N 69.2596 3.85454 -0.713363 0
M  V30 397 C 69.3996 2.6994 0.0566958 0
M  V30 398 C 69.5296 1.34815 -0.338502 0
M  V30 399 O 69.5496 0.869548 -1.47125 0
M  V30 400 N 69.6496 0.496304 0.77465 0
M  V30 401 C 69.6496 0.908403 2.09122 0
M  V30 402 N 69.7796 -0.0517805 3.00955 0
M  V30 403 N 69.5196 2.17875 2.46519 0
M  V30 404 C 69.3996 3.01988 1.4033 0
M  V30 405 H 66.4206 8.36803 2.32493 0
M  V30 406 H 66.1506 6.70197 1.71129 0
M  V30 407 H 67.0176 7.03551 4.13168 0
M  V30 408 H 69.6726 4.59498 3.54415 0
M  V30 409 H 69.9516 6.88898 1.59848 0
M  V30 410 H 70.9436 6.46749 3.03687 0
M  V30 411 H 69.1096 8.46908 3.20714 0
M  V30 412 H 69.0606 5.86405 -0.105564 0
M  V30 413 H 69.7426 -0.483664 0.597855 0
M  V30 414 H 69.7796 0.187865 4.0116 0
M  V30 415 H 69.8806 -1.03585 2.71726 0
M  V30 416 P 70.9796 7.20834 5.23717 0
M  V30 417 O 71.1996 7.79853 6.57286 0
M  V30 418 O 71.7696 7.79239 4.12957 0
M  V30 419 O 71.2296 5.63315 5.29344 0
M  V30 420 C 70.2896 4.80255 6.01876 0
M  V30 421 C 71.0196 3.64202 6.65911 0
M  V30 422 O 71.2296 2.60694 5.64732 0
M  V30 423 C 72.4196 3.93473 7.1943 0
M  V30 424 O 72.8096 3.02071 8.21205 0
M  V30 425 C 73.2996 3.73047 5.97036 0
M  V30 426 C 72.5896 2.58828 5.25741 0
M  V30 427 N 72.6396 2.68068 3.77503 0
M  V30 428 H 69.8006 5.40332 6.79951 0
M  V30 429 H 69.5306 4.41613 5.32378 0
M  V30 430 H 70.3976 3.26331 7.47797 0
M  V30 431 P 74.3596 2.75334 8.47391 0
M  V30 432 O 74.5796 2.44571 9.90142 0
M  V30 433 O 75.1496 3.87688 7.92115 0
M  V30 434 O 74.6096 1.4459 7.59357 0
M  V30 435 C 73.6696 0.347608 7.69215 0
M  V30 436 C 74.3996 -0.96767 7.52806 0
M  V30 437 O 74.6096 -1.21036 6.1011 0
M  V30 438 C 75.7996 -1.04544 8.13308 0
M  V30 439 O 76.1896 -2.38311 8.41922 0
M  V30 440 C 76.6796 -0.491279 7.02284 0
M  V30 441 C 75.9696 -0.996264 5.77469 0
M  V30 442 N 76.0196 -0.0501916 4.62973 0
M  V30 443 H 73.1806 0.374722 8.67691 0
M  V30 444 H 72.9106 0.443485 6.90277 0
M  V30 445 H 73.7776 -1.75537 7.96793 0
M  V30 446 P 77.7395 -2.75334 8.47391 0
M  V30 447 O 77.9595 -3.84128 9.44797 0
M  V30 448 O 78.5295 -1.51947 8.68712 0
M  V30 449 O 77.9895 -3.29363 6.99321 0
M  V30 450 C 77.0495 -4.24011 6.4274 0
M  V30 451 C 77.7795 -5.20775 5.52155 0
M  V30 452 O 77.9895 -4.56534 4.22446 0
M  V30 453 C 79.1795 -5.62629 5.96531 0
M  V30 454 O 79.5695 -6.87667 5.41053 0
M  V30 455 C 80.0595 -4.52537 5.39283 0
M  V30 456 C 79.3495 -4.20027 4.08623 0
M  V30 457 N 79.3995 -2.76189 3.71603 0
M  V30 458 H 76.5605 -4.797 7.24003 0
M  V30 459 H 76.2905 -3.69856 5.84513 0
M  V30 460 H 77.1575 -6.10356 5.41441 0
M  V30 461 P 81.1195 -7.20834 5.23717 0
M  V30 462 O 81.3395 -8.66104 5.38572 0
M  V30 463 O 81.9095 -6.33544 6.1349 0
M  V30 464 O 81.3695 -6.7751 3.72168 0
M  V30 465 C 80.4295 -7.20825 2.7076 0
M  V30 466 C 81.1595 -7.45864 1.40599 0
M  V30 467 O 81.3695 -6.17651 0.734225 0
M  V30 468 C 82.5595 -8.05808 1.51899 0
M  V30 469 O 82.9495 -8.74358 0.335205 0
M  V30 470 C 83.4395 -6.83093 1.70294 0
M  V30 471 C 82.7295 -5.79992 0.836974 0
M  V30 472 N 82.7795 -4.41864 1.38293 0
M  V30 473 H 79.9405 -8.13644 3.0377 0
M  V30 474 H 79.6705 -6.42788 2.55485 0
M  V30 475 H 80.5375 -8.12039 0.792769 0
M  V30 476 P 84.4995 -8.91 5.4558e-15 0
M  V30 477 O 84.7195 -10.1726 -0.733694 0
M  V30 478 O 85.2895 -8.73148 1.23936 0
M  V30 479 O 84.7495 -7.66872 -0.971405 0
M  V30 480 C 83.8095 -7.42309 -2.04641 0
M  V30 481 C 84.5395 -6.86059 -3.24661 0
M  V30 482 O 84.7495 -5.42847 -3.03646 0
M  V30 483 C 85.9395 -7.41196 -3.50753 0
M  V30 484 O 86.3295 -7.27073 -4.86816 0
M  V30 485 C 86.8195 -6.5273 -2.63741 0
M  V30 486 C 86.1095 -5.1842 -2.73198 0
M  V30 487 N 86.1595 -4.38762 -1.4784 0
M  V30 488 H 83.3205 -8.36803 -2.32493 0
M  V30 489 H 83.0505 -6.70197 -1.71129 0
M  V30 490 H 83.9175 -7.03551 -4.13168 0
M  V30 491 P 87.8795 -7.20834 -5.23717 0
M  V30 492 O 88.0995 -7.79853 -6.57286 0
M  V30 493 O 88.6695 -7.79239 -4.12957 0
M  V30 494 O 88.1295 -5.63315 -5.29344 0
M  V30 495 C 87.1895 -4.80255 -6.01876 0
M  V30 496 C 87.9195 -3.64202 -6.65911 0
M  V30 497 O 88.1295 -2.60694 -5.64732 0
M  V30 498 C 89.3195 -3.93473 -7.1943 0
M  V30 499 O 89.7095 -3.02071 -8.21205 0
M  V30 500 C 90.1995 -3.73047 -5.97036 0
M  V30 501 C 89.4895 -2.58828 -5.25741 0
M  V30 502 N 89.5395 -2.68068 -3.77503 0
M  V30 503 C 89.4595 -3.79715 -2.96723 0
M  V30 504 N 89.5395 -3.5377 -1.68852 0
M  V30 505 C 89.6795 -2.15054 -1.63254 0
M  V30 506 C 89.8095 -1.28964 -0.518571 0
M  V30 507 N 89.9295 0.0538097 -0.918425 0
M  V30 508 C 89.9295 0.494275 -2.22578 0
M  V30 509 N 90.0595 1.81086 -2.40434 0
M  V30 510 N 89.7995 -0.313645 -3.27502 0
M  V30 511 C 89.6795 -1.61829 -2.91033 0
M  V30 512 H 86.7005 -5.40332 -6.79951 0
M  V30 513 H 86.4305 -4.41613 -5.32378 0
M  V30 514 H 87.2975 -3.26331 -7.47797 0
M  V30 515 P 91.2595 -2.75334 -8.47391 0
M  V30 516 O 91.4795 -2.44571 -9.90142 0
M  V30 517 O 92.0495 -3.87688 -7.92115 0
M  V30 518 O 91.5095 -1.4459 -7.59357 0
M  V30 519 C 90.5695 -0.347608 -7.69215 0
M  V30 520 C 91.2995 0.96767 -7.52806 0
M  V30 521 O 91.5095 1.21036 -6.1011 0
M  V30 522 C 92.6995 1.04544 -8.13308 0
M  V30 523 O 93.0895 2.38311 -8.41922 0
M  V30 524 C 93.5795 0.491279 -7.02284 0
M  V30 525 C 92.8695 0.996264 -5.77469 0
M  V30 526 N 92.9195 0.0501916 -4.62973 0
M  V30 527 H 90.0805 -0.374722 -8.67691 0
M  V30 528 H 89.8105 -0.443485 -6.90277 0
M  V30 529 H 90.6775 1.75537 -7.96793 0
M  V30 530 P 94.6394 2.75334 -8.47391 0
M  V30 531 O 94.8594 3.84128 -9.44797 0
M  V30 532 O 95.4294 1.51947 -8.68712 0
M  V30 533 O 94.8894 3.29363 -6.99321 0
M  V30 534 C 93.9494 4.24011 -6.4274 0
M  V30 535 C 94.6794 5.20775 -5.52155 0
M  V30 536 O 94.8894 4.56534 -4.22446 0
M  V30 537 C 96.0794 5.62629 -5.96531 0
M  V30 538 O 96.4694 6.87667 -5.41053 0
M  V30 539 C 96.9594 4.52537 -5.39283 0
M  V30 540 C 96.2494 4.20027 -4.08623 0
M  V30 541 N 96.2994 2.76189 -3.71603 0
M  V30 542 H 93.4604 4.797 -7.24003 0
M  V30 543 H 93.1904 3.69856 -5.84513 0
M  V30 544 H 94.0574 6.10356 -5.41441 0
M  V30 545 P 98.0194 7.20834 -5.23717 0
M  V30 546 O 98.2394 8.66104 -5.38572 0
M  V30 547 O 98.8094 6.33544 -6.1349 0
M  V30 548 O 98.2694 6.7751 -3.72168 0
M  V30 549 C 97.3294 7.20825 -2.7076 0
M  V30 550 C 98.0594 7.45864 -1.40599 0
M  V30 551 O 98.2694 6.17651 -0.734225 0
M  V30 552 C 99.4594 8.05808 -1.51899 0
M  V30 553 O 99.8494 8.74358 -0.335205 0
M  V30 554 C 100.339 6.83093 -1.70294 0
M  V30 555 C 99.6294 5.79992 -0.836974 0
M  V30 556 N 99.6794 4.41864 -1.38293 0
M  V30 557 H 96.8404 8.13644 -3.0377 0
M  V30 558 H 96.5704 6.42788 -2.55485 0
M  V30 559 H 97.4374 8.12039 -0.792769 0
M  V30 560 P 101.399 8.91 -6.54696e-15 0
M  V30 561 O 101.619 10.1736 0.733766 0
M  V30 562 O 102.189 8.73247 -1.2395 0
M  V30 563 O 101.649 7.66872 0.971405 0
M  V30 564 C 100.709 7.42309 2.04641 0
M  V30 565 C 101.439 6.86059 3.24661 0
M  V30 566 O 101.649 5.42847 3.03646 0
M  V30 567 C 102.839 7.41196 3.50753 0
M  V30 568 O 103.229 7.27073 4.86816 0
M  V30 569 C 103.719 6.5273 2.63741 0
M  V30 570 C 103.009 5.1842 2.73198 0
M  V30 571 N 103.059 4.38668 1.47808 0
M  V30 572 C 103.209 3.00789 1.58511 0
M  V30 573 O 103.299 2.50116 2.71298 0
M  V30 574 N 103.259 2.29703 0.253698 0
M  V30 575 C 103.159 2.84269 -0.750133 0
M  V30 576 N 103.209 2.06951 -1.82612 0
M  V30 577 C 103.009 4.25803 -0.889776 0
M  V30 578 C 102.959 4.98326 0.259363 0
M  V30 579 H 100.219 8.36707 2.32466 0
M  V30 580 H 99.9504 6.701 1.71105 0
M  V30 581 H 100.817 7.03638 4.13219 0
M  V30 582 H 103.472 4.59852 3.53955 0
M  V30 583 H 103.751 6.88995 1.59871 0
M  V30 584 H 104.743 6.46749 3.03687 0
M  V30 585 H 102.909 8.46908 3.20714 0
M  V30 586 H 102.837 6.06349 0.206238 0
M  V30 587 H 102.939 4.73163 -1.86796 0
M  V30 588 H 103.327 1.05099 -1.72271 0
M  V30 589 H 103.13 2.48716 -2.76361 0
M  V30 590 P 104.779 7.20834 5.23717 0
M  V30 591 O 104.999 7.79853 6.57286 0
M  V30 592 O 105.569 7.79239 4.12957 0
M  V30 593 O 105.029 5.63315 5.29344 0
M  V30 594 C 104.089 4.80255 6.01876 0
M  V30 595 C 104.819 3.64202 6.65911 0
M  V30 596 O 105.029 2.60694 5.64732 0
M  V30 597 C 106.219 3.93473 7.1943 0
M  V30 598 O 106.609 3.02071 8.21205 0
M  V30 599 C 107.099 3.73047 5.97036 0
M  V30 600 C 106.389 2.58828 5.25741 0
M  V30 601 N 106.439 2.68068 3.77503 0
M  V30 602 C 106.359 3.79715 2.96723 0
M  V30 603 N 106.439 3.5377 1.68852 0
M  V30 604 C 106.579 2.15054 1.63254 0
M  V30 605 C 106.709 1.28964 0.518571 0
M  V30 606 O 106.729 1.56826 -0.679156 0
M  V30 607 N 106.829 -0.0538097 0.918425 0
M  V30 608 C 106.829 -0.494275 2.22578 0
M  V30 609 N 106.959 -1.81086 2.40434 0
M  V30 610 N 106.699 0.313645 3.27502 0
M  V30 611 C 106.579 1.61829 2.91033 0
M  V30 612 H 103.6 5.40332 6.79951 0
M  V30 613 H 103.33 4.41613 5.32378 0
M  V30 614 H 104.197 3.26331 7.47797 0
M  V30 615 H 106.852 1.63422 5.56814 0
M  V30 616 H 107.131 4.63374 5.34244 0
M  V30 617 H 108.123 3.44728 6.25838 0
M  V30 618 H 106.289 4.96652 7.57263 0
M  V30 619 H 106.24 4.80617 3.3614 0
M  V30 620 H 106.922 -0.742702 0.199384 0
M  V30 621 H 106.959 -2.20598 3.35588 0
M  V30 622 H 107.06 -2.43518 1.58945 0
M  V30 623 P 108.159 2.75334 8.47391 0
M  V30 624 O 108.379 2.44571 9.90142 0
M  V30 625 O 108.949 3.87688 7.92115 0
M  V30 626 O 108.409 1.4459 7.59357 0
M  V30 627 C 107.469 0.347608 7.69215 0
M  V30 628 C 108.199 -0.96767 7.52806 0
M  V30 629 O 108.409 -1.21036 6.1011 0
M  V30 630 C 109.599 -1.04544 8.13308 0
M  V30 631 O 109.989 -2.38311 8.41922 0
M  V30 632 C 110.479 -0.491279 7.02284 0
M  V30 633 C 109.769 -0.996264 5.77469 0
M  V30 634 N 109.819 -0.0501916 4.62973 0
M  V30 635 H 106.98 0.374722 8.67691 0
M  V30 636 H 106.71 0.443485 6.90277 0
M  V30 637 H 107.577 -1.75537 7.96793 0
M  V30 638 P 111.539 -2.75334 8.47391 0
M  V30 639 O 111.759 -3.84128 9.44797 0
M  V30 640 O 112.329 -1.51947 8.68712 0
M  V30 641 O 111.789 -3.29363 6.99321 0
M  V30 642 C 110.849 -4.24011 6.4274 0
M  V30 643 C 111.579 -5.20775 5.52155 0
M  V30 644 O 111.789 -4.56534 4.22446 0
M  V30 645 C 112.979 -5.62629 5.96531 0
M  V30 646 O 113.369 -6.87667 5.41053 0
M  V30 647 C 113.859 -4.52537 5.39283 0
M  V30 648 C 113.149 -4.20027 4.08623 0
M  V30 649 N 113.199 -2.76189 3.71603 0
M  V30 650 H 110.36 -4.797 7.24003 0
M  V30 651 H 110.09 -3.69856 5.84513 0
M  V30 652 H 110.957 -6.10356 5.41441 0
M  V30 653 P 114.919 -7.20834 5.23717 0
M  V30 654 O 115.139 -8.66274 5.38678 0
M  V30 655 O 115.709 -6.33687 6.13629 0
M  V30 656 O 115.169 -6.7751 3.72168 0
M  V30 657 C 114.229 -7.20919 2.70795 0
M  V30 658 C 114.959 -7.45864 1.40599 0
M  V30 659 O 115.169 -6.17751 0.734343 0
M  V30 660 C 116.359 -8.05906 1.51917 0
M  V30 661 O 116.749 -8.74358 0.335205 0
M  V30 662 C 117.239 -6.83093 1.70294 0
M  V30 663 C 116.529 -5.79992 0.836974 0
M  V30 664 N 116.579 -4.41864 1.38293 0
M  V30 665 C 116.499 -4.02089 2.69407 0
M  V30 666 N 116.569 -2.73403 2.85089 0
M  V30 667 C 116.719 -2.25086 1.5642 0
M  V30 668 C 116.849 -0.942887 1.04836 0
M  V30 669 N 116.859 0.150999 1.80369 0
M  V30 670 N 116.969 -0.812565 -0.28167 0
M  V30 671 C 116.959 -1.90572 -1.03784 0
M  V30 672 N 116.839 -3.167 -0.683905 0
M  V30 673 C 116.719 -3.26538 0.652815 0
M  V30 674 H 113.741 -8.13738 3.03804 0
M  V30 675 H 113.469 -6.42974 2.55559 0
M  V30 676 H 114.337 -8.12139 0.792866 0
M  V30 677 H 116.992 -5.80178 -0.160643 0
M  V30 678 H 117.272 -6.51379 2.75643 0
M  V30 679 H 118.263 -7.01832 1.3448 0
M  V30 680 H 116.429 -8.73771 2.38364 0
M  V30 681 H 116.388 -4.7189 3.52311 0
M  V30 682 H 116.769 0.0721434 2.82608 0
M  V30 683 H 116.958 1.0785 1.36544 0
M  V30 684 H 117.066 -1.73207 -2.10241 0
M  V30 685 P 118.299 -8.91 7.63812e-15 0
M  V30 686 O 118.519 -10.1726 -0.733694 0
M  V30 687 O 119.089 -8.73148 1.23936 0
M  V30 688 O 118.549 -7.66872 -0.971405 0
M  V30 689 C 117.609 -7.42309 -2.04641 0
M  V30 690 C 118.339 -6.86059 -3.24661 0
M  V30 691 O 118.549 -5.42847 -3.03646 0
M  V30 692 C 119.739 -7.41196 -3.50753 0
M  V30 693 O 120.129 -7.27073 -4.86816 0
M  V30 694 C 120.619 -6.5273 -2.63741 0
M  V30 695 C 119.909 -5.1842 -2.73198 0
M  V30 696 N 119.959 -4.38762 -1.4784 0
M  V30 697 H 117.12 -8.36803 -2.32493 0
M  V30 698 H 116.85 -6.70197 -1.71129 0
M  V30 699 H 117.717 -7.03551 -4.13168 0
M  V30 700 P 121.679 -7.20834 -5.23717 0
M  V30 701 O 121.899 -7.79853 -6.57286 0
M  V30 702 O 122.469 -7.79239 -4.12957 0
M  V30 703 O 121.929 -5.63315 -5.29344 0
M  V30 704 C 120.989 -4.80255 -6.01876 0
M  V30 705 C 121.719 -3.64202 -6.65911 0
M  V30 706 O 121.929 -2.60694 -5.64732 0
M  V30 707 C 123.119 -3.93473 -7.1943 0
M  V30 708 O 123.509 -3.02071 -8.21205 0
M  V30 709 C 123.999 -3.73047 -5.97036 0
M  V30 710 C 123.289 -2.58828 -5.25741 0
M  V30 711 N 123.339 -2.68068 -3.77503 0
M  V30 712 H 120.5 -5.40332 -6.79951 0
M  V30 713 H 120.23 -4.41613 -5.32378 0
M  V30 714 H 121.097 -3.26331 -7.47797 0
M  V30 715 P 125.059 -2.75334 -8.47391 0
M  V30 716 O 125.279 -2.44571 -9.90142 0
M  V30 717 O 125.849 -3.87688 -7.92115 0
M  V30 718 O 125.309 -1.4459 -7.59357 0
M  V30 719 C 124.369 -0.347608 -7.69215 0
M  V30 720 C 125.099 0.96767 -7.52806 0
M  V30 721 O 125.309 1.21036 -6.1011 0
M  V30 722 C 126.499 1.04544 -8.13308 0
M  V30 723 O 126.889 2.38311 -8.41922 0
M  V30 724 C 127.379 0.491279 -7.02284 0
M  V30 725 C 126.669 0.996264 -5.77469 0
M  V30 726 N 126.719 0.0501916 -4.62973 0
M  V30 727 H 123.88 -0.374722 -8.67691 0
M  V30 728 H 123.61 -0.443485 -6.90277 0
M  V30 729 H 124.477 1.75537 -7.96793 0
M  V30 730 P 128.439 2.75334 -8.47391 0
M  V30 731 O 128.659 3.84128 -9.44797 0
M  V30 732 O 129.229 1.51947 -8.68712 0
M  V30 733 O 128.689 3.29363 -6.99321 0
M  V30 734 C 127.749 4.24011 -6.4274 0
M  V30 735 C 128.479 5.20775 -5.52155 0
M  V30 736 O 128.689 4.56534 -4.22446 0
M  V30 737 C 129.879 5.62629 -5.96531 0
M  V30 738 O 130.269 6.87667 -5.41053 0
M  V30 739 C 130.759 4.52537 -5.39283 0
M  V30 740 C 130.049 4.20027 -4.08623 0
M  V30 741 N 130.099 2.76189 -3.71603 0
M  V30 742 H 127.26 4.797 -7.24003 0
M  V30 743 H 126.99 3.69856 -5.84513 0
M  V30 744 H 127.857 6.10356 -5.41441 0
M  V30 745 P 131.819 7.20834 -5.23717 0
M  V30 746 O 132.039 8.66104 -5.38572 0
M  V30 747 O 132.609 6.33544 -6.1349 0
M  V30 748 O 132.069 6.7751 -3.72168 0
M  V30 749 C 131.129 7.20825 -2.7076 0
M  V30 750 C 131.859 7.45864 -1.40599 0
M  V30 751 O 132.069 6.17651 -0.734225 0
M  V30 752 C 133.259 8.05808 -1.51899 0
M  V30 753 O 133.649 8.74358 -0.335205 0
M  V30 754 C 134.139 6.83093 -1.70294 0
M  V30 755 C 133.429 5.79992 -0.836974 0
M  V30 756 N 133.479 4.41864 -1.38293 0
M  V30 757 H 130.64 8.13644 -3.0377 0
M  V30 758 H 130.37 6.42788 -2.55485 0
M  V30 759 H 131.237 8.12039 -0.792769 0
M  V30 760 P 135.199 8.91 -8.72928e-15 0
M  V30 761 O 135.419 10.1726 0.733694 0
M  V30 762 O 135.989 8.73148 -1.23936 0
M  V30 763 O 135.449 7.66872 0.971405 0
M  V30 764 C 134.509 7.42309 2.04641 0
M  V30 765 C 135.239 6.86059 3.24661 0
M  V30 766 O 135.449 5.42847 3.03646 0
M  V30 767 C 136.639 7.41196 3.50753 0
M  V30 768 O 137.029 7.27073 4.86816 0
M  V30 769 C 137.519 6.5273 2.63741 0
M  V30 770 C 136.809 5.1842 2.73198 0
M  V30 771 N 136.859 4.38762 1.4784 0
M  V30 772 H 134.02 8.36803 2.32493 0
M  V30 773 H 133.75 6.70197 1.71129 0
M  V30 774 H 134.617 7.03551 4.13168 0
M  V30 775 P 138.579 7.20834 5.23717 0
M  V30 776 O 138.799 7.79853 6.57286 0
M  V30 777 O 139.369 7.79239 4.12957 0
M  V30 778 O 138.829 5.63315 5.29344 0
M  V30 779 C 137.889 4.80255 6.01876 0
M  V30 780 C 138.619 3.64202 6.65911 0
M  V30 781 O 138.829 2.60694 5.64732 0
M  V30 782 C 140.019 3.93473 7.1943 0
M  V30 783 O 140.409 3.02071 8.21205 0
M  V30 784 C 140.899 3.73047 5.97036 0
M  V30 785 C 140.189 2.58828 5.25741 0
M  V30 786 N 140.239 2.68068 3.77503 0
M  V30 787 H 137.4 5.40332 6.79951 0
M  V30 788 H 137.13 4.41613 5.32378 0
M  V30 789 H 137.997 3.26331 7.47797 0
M  V30 790 P 141.959 2.75334 8.47391 0
M  V30 791 O 142.179 2.44571 9.90142 0
M  V30 792 O 142.749 3.87688 7.92115 0
M  V30 793 O 142.209 1.4459 7.59357 0
M  V30 794 C 141.269 0.347608 7.69215 0
M  V30 795 C 141.999 -0.96767 7.52806 0
M  V30 796 O 142.209 -1.21036 6.1011 0
M  V30 797 C 143.399 -1.04544 8.13308 0
M  V30 798 O 143.789 -2.38311 8.41922 0
M  V30 799 C 144.279 -0.491279 7.02284 0
M  V30 800 C 143.569 -0.996264 5.77469 0
M  V30 801 N 143.619 -0.0501916 4.62973 0
M  V30 802 H 140.78 0.374722 8.67691 0
M  V30 803 H 140.51 0.443485 6.90277 0
M  V30 804 H 141.377 -1.75537 7.96793 0
M  V30 805 P 145.339 -2.75334 8.47391 0
M  V30 806 O 145.559 -3.84204 9.44982 0
M  V30 807 O 146.129 -1.51982 8.68909 0
M  V30 808 O 145.589 -3.29363 6.99321 0
M  V30 809 C 144.649 -4.24066 6.42823 0
M  V30 810 C 145.379 -5.20775 5.52155 0
M  V30 811 O 145.589 -4.56607 4.22514 0
M  V30 812 C 146.779 -5.62697 5.96604 0
M  V30 813 O 147.169 -6.87667 5.41053 0
M  V30 814 C 147.659 -4.52537 5.39283 0
M  V30 815 C 146.949 -4.20027 4.08623 0
M  V30 816 N 146.999 -2.76189 3.71603 0
M  V30 817 C 146.919 -1.66944 4.54297 0
M  V30 818 N 146.989 -0.536169 3.91344 0
M  V30 819 C 147.139 -0.901569 2.58849 0
M  V30 820 C 147.269 -0.146599 1.40236 0
M  V30 821 N 147.279 1.18234 1.37046 0
M  V30 822 N 147.389 -0.822941 0.249738 0
M  V30 823 C 147.379 -2.15179 0.280525 0
M  V30 824 N 147.259 -2.96414 1.30822 0
M  V30 825 C 147.139 -2.25804 2.44748 0
M  V30 826 H 144.161 -4.79756 7.24086 0
M  V30 827 H 143.889 -3.69963 5.84682 0
M  V30 828 H 144.757 -6.10431 5.41508 0
M  V30 829 H 147.412 -4.78816 3.28024 0
M  V30 830 H 147.692 -3.64957 6.05871 0
M  V30 831 H 148.683 -4.88748 5.21323 0
M  V30 832 H 146.849 -5.66789 7.0643 0
M  V30 833 H 146.808 -1.74684 5.62396 0
M  V30 834 H 147.189 1.71949 2.24394 0
M  V30 835 H 147.378 1.67511 0.470742 0
M  V30 836 H 147.486 -2.63704 -0.6828 0
M  V30 837 P 148.719 -7.20834 5.23717 0
M  V30 838 O 148.939 -8.66104 5.38572 0
M  V30 839 O 149.509 -6.33544 6.1349 0
M  V30 840 O 148.969 -6.7751 3.72168 0
M  V30 841 C 148.029 -7.20825 2.7076 0
M  V30 842 C 148.759 -7.45864 1.40599 0
M  V30 843 O 148.969 -6.17651 0.734225 0
M  V30 844 C 150.159 -8.05808 1.51899 0
M  V30 845 O 150.549 -8.74358 0.335205 0
M  V30 846 C 151.039 -6.83093 1.70294 0
M  V30 847 C 150.329 -5.79992 0.836974 0
M  V30 848 N 150.379 -4.41864 1.38293 0
M  V30 849 C 150.299 -3.99538 2.69438 0
M  V30 850 N 150.379 -2.69909 2.84277 0
M  V30 851 C 150.519 -2.21719 1.5408 0
M  V30 852 C 150.649 -0.891712 1.06628 0
M  V30 853 O 150.669 0.161298 1.70137 0
M  V30 854 N 150.769 -0.856846 -0.334985 0
M  V30 855 C 150.769 -1.9641 -1.15789 0
M  V30 856 N 150.899 -1.72708 -2.46522 0
M  V30 857 N 150.639 -3.21165 -0.713741 0
M  V30 858 C 150.519 -3.26797 0.639748 0
M  V30 859 H 147.54 -8.13644 3.0377 0
M  V30 860 H 147.27 -6.42788 2.55485 0
M  V30 861 H 148.137 -8.12039 0.792769 0
M  V30 862 H 150.792 -5.80061 -0.166416 0
M  V30 863 H 151.071 -6.51287 2.75604 0
M  V30 864 H 152.063 -7.01734 1.34462 0
M  V30 865 H 150.229 -8.73674 2.38337 0
M  V30 866 H 150.18 -4.68207 3.53221 0
M  V30 867 H 150.862 0.0398818 -0.767965 0
M  V30 868 H 150.899 -2.50995 -3.13503 0
M  V30 869 H 151 -0.759148 -2.80716 0
M  V30 870 P 152.099 -8.91 9.82044e-15 0
M  V30 871 O 152.319 -10.1726 -0.733694 0
M  V30 872 O 152.889 -8.73148 1.23936 0
M  V30 873 O 152.349 -7.66872 -0.971405 0
M  V30 874 C 151.409 -7.42309 -2.04641 0
M  V30 875 C 152.139 -6.86059 -3.24661 0
M  V30 876 O 152.349 -5.42847 -3.03646 0
M  V30 877 C 153.539 -7.41196 -3.50753 0
M  V30 878 O 153.929 -7.27073 -4.86816 0
M  V30 879 C 154.419 -6.5273 -2.63741 0
M  V30 880 C 153.709 -5.1842 -2.73198 0
M  V30 881 N 153.759 -4.38762 -1.4784 0
M  V30 882 H 150.92 -8.36803 -2.32493 0
M  V30 883 H 150.65 -6.70197 -1.71129 0
M  V30 884 H 151.517 -7.03551 -4.13168 0
M  V30 885 P 155.479 -7.20834 -5.23717 0
M  V30 886 O 155.699 -7.80006 -6.57415 0
M  V30 887 O 156.269 -7.79416 -4.13051 0
M  V30 888 O 155.729 -5.63315 -5.29344 0
M  V30 889 C 154.789 -4.80318 -6.01954 0
M  V30 890 C 155.519 -3.64202 -6.65911 0
M  V30 891 O 155.729 -2.60736 -5.64823 0
M  V30 892 C 156.919 -3.93521 -7.19518 0
M  V30 893 O 157.309 -3.02071 -8.21205 0
M  V30 894 C 157.799 -3.73047 -5.97036 0
M  V30 895 C 157.089 -2.58828 -5.25741 0
M  V30 896 N 157.139 -2.68068 -3.77503 0
M  V30 897 H 154.301 -5.40394 -6.8003 0
M  V30 898 H 154.029 -4.41741 -5.32532 0
M  V30 899 H 154.897 -3.26371 -7.47889 0
M  V30 900 H 157.552 -1.64007 -5.56746 0
M  V30 901 H 157.832 -4.63439 -5.3432 0
M  V30 902 H 158.823 -3.44776 -6.25925 0
M  V30 903 H 156.989 -4.96707 -7.57347 0
M  V30 904 P 158.859 -2.75334 -8.47391 0
M  V30 905 O 159.079 -2.44595 -9.90239 0
M  V30 906 O 159.649 -3.87732 -7.92204 0
M  V30 907 O 159.109 -1.4459 -7.59357 0
M  V30 908 C 158.169 -0.347563 -7.69115 0
M  V30 909 C 158.899 0.96767 -7.52806 0
M  V30 910 O 159.109 1.21036 -6.1011 0
M  V30 911 C 160.299 1.04544 -8.13308 0
M  V30 912 O 160.689 2.38311 -8.41922 0
M  V30 913 C 161.179 0.491279 -7.02284 0
M  V30 914 C 160.469 0.996264 -5.77469 0
M  V30 915 N 160.519 0.0501808 -4.62873 0
M  V30 916 C 160.669 0.588177 -3.36904 0
M  V30 917 O 160.759 1.78598 -3.17173 0
M  V30 918 N 160.709 -0.329694 -2.33686 0
M  V30 919 C 160.619 -1.6953 -2.45079 0
M  V30 920 O 160.669 -2.41926 -1.44899 0
M  V30 921 C 160.469 -2.16933 -3.80505 0
M  V30 922 C 160.359 -3.65373 -3.97621 0
M  V30 923 C 160.419 -1.30326 -4.83752 0
M  V30 924 H 157.679 -0.374722 -8.67691 0
M  V30 925 H 157.41 -0.443421 -6.90177 0
M  V30 926 H 158.277 1.75537 -7.96793 0
M  V30 927 H 160.932 1.94496 -5.46629 0
M  V30 928 H 161.211 -0.608651 -7.04676 0
M  V30 929 H 162.203 0.889672 -7.08939 0
M  V30 930 H 160.369 0.43308 -9.04564 0
M  V30 931 H 160.298 -1.68366 -5.8516 0
M  V30 932 H 161.328 -4.05985 -4.30448 0
M  V30 933 H 159.591 -3.88028 -4.72875 0
M  V30 934 H 160.079 -4.11381 -3.01609 0
M  V30 935 H 160.815 0.0393617 -1.41345 0
M  V30 936 P 162.239 2.75334 -8.47391 0
M  V30 937 O 162.459 3.84128 -9.44797 0
M  V30 938 O 163.029 1.51947 -8.68712 0
M  V30 939 O 162.489 3.29363 -6.99321 0
M  V30 940 C 161.549 4.24011 -6.4274 0
M  V30 941 C 162.279 5.20775 -5.52155 0
M  V30 942 O 162.489 4.56534 -4.22446 0
M  V30 943 C 163.679 5.62629 -5.96531 0
M  V30 944 O 164.069 6.87667 -5.41053 0
M  V30 945 C 164.559 4.52537 -5.39283 0
M  V30 946 C 163.849 4.20027 -4.08623 0
M  V30 947 N 163.899 2.76189 -3.71603 0
M  V30 948 H 161.06 4.797 -7.24003 0
M  V30 949 H 160.79 3.69856 -5.84513 0
M  V30 950 H 161.657 6.10356 -5.41441 0
M  V30 951 P 165.619 7.20834 -5.23717 0
M  V30 952 O 165.839 8.66104 -5.38572 0
M  V30 953 O 166.409 6.33544 -6.1349 0
M  V30 954 O 165.869 6.7751 -3.72168 0
M  V30 955 C 164.929 7.20825 -2.7076 0
M  V30 956 C 165.659 7.45864 -1.40599 0
M  V30 957 O 165.869 6.17651 -0.734225 0
M  V30 958 C 167.059 8.05808 -1.51899 0
M  V30 959 O 167.449 8.74358 -0.335205 0
M  V30 960 C 167.939 6.83093 -1.70294 0
M  V30 961 C 167.229 5.79992 -0.836974 0
M  V30 962 N 167.279 4.41864 -1.38293 0
M  V30 963 H 164.44 8.13644 -3.0377 0
M  V30 964 H 164.17 6.42788 -2.55485 0
M  V30 965 H 165.037 8.12039 -0.792769 0
M  V30 966 P 168.999 8.91 -1.09116e-14 0
M  V30 967 O 169.219 10.1746 0.733838 0
M  V30 968 O 169.789 8.73346 -1.23964 0
M  V30 969 O 169.249 7.66872 0.971405 0
M  V30 970 C 168.309 7.42405 2.04668 0
M  V30 971 C 169.039 6.86059 3.24661 0
M  V30 972 O 169.249 5.42934 3.03695 0
M  V30 973 C 170.439 7.41287 3.50796 0
M  V30 974 O 170.829 7.27073 4.86816 0
M  V30 975 C 171.319 6.5273 2.63741 0
M  V30 976 C 170.609 5.1842 2.73198 0
M  V30 977 N 170.659 4.38762 1.4784 0
M  V30 978 C 170.579 4.83651 0.183876 0
M  V30 979 N 170.649 3.88759 -0.699393 0
M  V30 980 C 170.799 2.7404 0.0575568 0
M  V30 981 C 170.929 1.37902 -0.293928 0
M  V30 982 N 170.939 0.938021 -1.54797 0
M  V30 983 N 171.049 0.491817 0.70549 0
M  V30 984 C 171.039 0.931735 1.95979 0
M  V30 985 N 170.919 2.16017 2.41481 0
M  V30 986 C 170.799 3.02547 1.39121 0
M  V30 987 H 167.821 8.36899 2.3252 0
M  V30 988 H 167.549 6.70391 1.71179 0
M  V30 989 H 168.417 7.03638 4.13219 0
M  V30 990 H 171.072 4.59931 3.54016 0
M  V30 991 H 171.352 6.88995 1.59871 0
M  V30 992 H 172.343 6.4684 3.0373 0
M  V30 993 H 170.509 8.47002 3.20749 0
M  V30 994 H 170.468 5.8885 -0.0765548 0
M  V30 995 H 170.849 1.60276 -2.32875 0
M  V30 996 H 171.038 -0.0699355 -1.73859 0
M  V30 997 H 171.146 0.165507 2.71897 0
M  V30 998 P 172.379 7.20834 5.23717 0
M  V30 999 O 172.599 7.79853 6.57286 0
M  V30 1000 O 173.169 7.79239 4.12957 0
M  V30 1001 O 172.629 5.63315 5.29344 0
M  V30 1002 C 171.689 4.80255 6.01876 0
M  V30 1003 C 172.419 3.64202 6.65911 0
M  V30 1004 O 172.629 2.60694 5.64732 0
M  V30 1005 C 173.819 3.93473 7.1943 0
M  V30 1006 O 174.209 3.02071 8.21205 0
M  V30 1007 C 174.699 3.73047 5.97036 0
M  V30 1008 C 173.989 2.58828 5.25741 0
M  V30 1009 N 174.039 2.68068 3.77503 0
M  V30 1010 H 171.2 5.40332 6.79951 0
M  V30 1011 H 170.93 4.41613 5.32378 0
M  V30 1012 H 171.797 3.26331 7.47797 0
M  V30 1013 P 175.759 2.75334 8.47391 0
M  V30 1014 O 175.979 2.44619 9.90336 0
M  V30 1015 O 176.549 3.87776 7.92294 0
M  V30 1016 O 176.009 1.4459 7.59357 0
M  V30 1017 C 175.069 0.347653 7.69315 0
M  V30 1018 C 175.799 -0.96767 7.52806 0
M  V30 1019 O 176.009 -1.21055 6.10208 0
M  V30 1020 C 177.199 -1.04557 8.13408 0
M  V30 1021 O 177.589 -2.38311 8.41922 0
M  V30 1022 C 178.079 -0.491279 7.02284 0
M  V30 1023 C 177.369 -0.996264 5.77469 0
M  V30 1024 N 177.419 -0.0501916 4.62973 0
M  V30 1025 C 177.339 1.31969 4.65661 0
M  V30 1026 N 177.409 1.86649 3.48119 0
M  V30 1027 C 177.559 0.792089 2.62406 0
M  V30 1028 C 177.689 0.705684 1.2207 0
M  V30 1029 N 177.699 1.76207 0.413762 0
M  V30 1030 N 177.809 -0.518981 0.685754 0
M  V30 1031 C 177.799 -1.57595 1.49174 0
M  V30 1032 N 177.679 -1.62909 2.80066 0
M  V30 1033 C 177.559 -0.388195 3.3073 0
M  V30 1034 H 174.581 0.374765 8.67791 0
M  V30 1035 H 174.309 0.443613 6.90476 0
M  V30 1036 H 175.177 -1.75559 7.96891 0
M  V30 1037 H 177.832 -1.94563 5.46818 0
M  V30 1038 H 178.112 0.608651 7.04676 0
M  V30 1039 H 179.103 -0.889796 7.09039 0
M  V30 1040 H 177.269 -0.433128 9.04664 0
M  V30 1041 H 177.228 1.89246 5.57664 0
M  V30 1042 H 177.609 2.71005 0.804694 0
M  V30 1043 H 177.798 1.63189 -0.603768 0
M  V30 1044 H 177.906 -2.53475 0.997614 0
M  V30 1045 P 179.139 -2.75334 8.47391 0
M  V30 1046 O 179.359 -3.84166 9.4489 0
M  V30 1047 O 179.929 -1.51964 8.6881 0
M  V30 1048 O 179.389 -3.29363 6.99321 0
M  V30 1049 C 178.449 -4.23956 6.42656 0
M  V30 1050 C 179.179 -5.20775 5.52155 0
M  V30 1051 O 179.389 -4.56534 4.22446 0
M  V30 1052 C 180.579 -5.62629 5.96531 0
M  V30 1053 O 180.969 -6.87667 5.41053 0
M  V30 1054 C 181.459 -4.52537 5.39283 0
M  V30 1055 C 180.749 -4.20027 4.08623 0
M  V30 1056 N 180.799 -2.7613 3.71522 0
M  V30 1057 C 180.949 -2.45612 2.37989 0
M  V30 1058 O 181.039 -3.30919 1.51621 0
M  V30 1059 N 180.989 -1.10684 2.08435 0
M  V30 1060 C 180.899 -0.0690084 2.9792 0
M  V30 1061 C 180.749 -0.481522 4.35345 0
M  V30 1062 C 180.699 -1.78906 4.67968 0
M  V30 1063 H 177.959 -4.797 7.24003 0
M  V30 1064 H 177.69 -3.69802 5.84429 0
M  V30 1065 H 178.557 -6.10356 5.41441 0
M  V30 1066 H 181.212 -4.78651 3.27911 0
M  V30 1067 H 181.491 -3.64957 6.05871 0
M  V30 1068 H 182.483 -4.8868 5.2125 0
M  V30 1069 H 180.649 -5.66726 7.06352 0
M  V30 1070 H 180.578 -2.07737 5.72367 0
M  V30 1071 P 182.519 -7.20834 5.23717 0
M  V30 1072 O 182.739 -8.66274 5.38678 0
M  V30 1073 O 183.309 -6.33687 6.13629 0
M  V30 1074 O 182.769 -6.7751 3.72168 0
M  V30 1075 C 181.829 -7.20919 2.70795 0
M  V30 1076 C 182.559 -7.45864 1.40599 0
M  V30 1077 O 182.769 -6.17751 0.734343 0
M  V30 1078 C 183.959 -8.05906 1.51917 0
M  V30 1079 O 184.349 -8.74358 0.335205 0
M  V30 1080 C 184.839 -6.83093 1.70294 0
M  V30 1081 C 184.129 -5.79992 0.836974 0
M  V30 1082 N 184.179 -4.41864 1.38293 0
M  V30 1083 C 184.099 -4.02089 2.69407 0
M  V30 1084 N 184.169 -2.73403 2.85089 0
M  V30 1085 C 184.319 -2.25086 1.5642 0
M  V30 1086 C 184.449 -0.942887 1.04836 0
M  V30 1087 N 184.459 0.150999 1.80369 0
M  V30 1088 N 184.569 -0.812565 -0.28167 0
M  V30 1089 C 184.559 -1.90572 -1.03784 0
M  V30 1090 N 184.439 -3.167 -0.683905 0
M  V30 1091 C 184.319 -3.26538 0.652815 0
M  V30 1092 H 181.341 -8.13738 3.03804 0
M  V30 1093 H 181.069 -6.42974 2.55559 0
M  V30 1094 H 181.937 -8.12139 0.792866 0
M  V30 1095 H 184.592 -5.80178 -0.160643 0
M  V30 1096 H 184.872 -6.51379 2.75643 0
M  V30 1097 H 185.863 -7.01832 1.3448 0
M  V30 1098 H 184.029 -8.73771 2.38364 0
M  V30 1099 H 183.988 -4.7189 3.52311 0
M  V30 1100 H 184.369 0.0721434 2.82608 0
M  V30 1101 H 184.558 1.0785 1.36544 0
M  V30 1102 H 184.666 -1.73207 -2.10241 0
M  V30 1103 P 185.899 -8.91 -8.29613e-14 0
M  V30 1104 O 186.119 -10.1726 -0.733694 0
M  V30 1105 O 186.689 -8.73148 1.23936 0
M  V30 1106 O 186.149 -7.66872 -0.971405 0
M  V30 1107 C 185.209 -7.42309 -2.04641 0
M  V30 1108 C 185.939 -6.86059 -3.24661 0
M  V30 1109 O 186.149 -5.42847 -3.03646 0
M  V30 1110 C 187.339 -7.41196 -3.50753 0
M  V30 1111 O 187.729 -7.27073 -4.86816 0
M  V30 1112 C 188.219 -6.5273 -2.63741 0
M  V30 1113 C 187.509 -5.1842 -2.73198 0
M  V30 1114 N 187.559 -4.38762 -1.4784 0
M  V30 1115 H 184.72 -8.36803 -2.32493 0
M  V30 1116 H 184.45 -6.70197 -1.71129 0
M  V30 1117 H 185.317 -7.03551 -4.13168 0
M  V30 1118 P 189.279 -7.20834 -5.23717 0
M  V30 1119 O 189.499 -7.79853 -6.57286 0
M  V30 1120 O 190.069 -7.79239 -4.12957 0
M  V30 1121 O 189.529 -5.63315 -5.29344 0
M  V30 1122 C 188.589 -4.80255 -6.01876 0
M  V30 1123 C 189.319 -3.64202 -6.65911 0
M  V30 1124 O 189.529 -2.60694 -5.64732 0
M  V30 1125 C 190.719 -3.93473 -7.1943 0
M  V30 1126 O 191.109 -3.02071 -8.21205 0
M  V30 1127 C 191.599 -3.73047 -5.97036 0
M  V30 1128 C 190.889 -2.58828 -5.25741 0
M  V30 1129 N 190.939 -2.68068 -3.77503 0
M  V30 1130 H 188.1 -5.40332 -6.79951 0
M  V30 1131 H 187.83 -4.41613 -5.32378 0
M  V30 1132 H 188.697 -3.26331 -7.47797 0
M  V30 1133 P 192.659 -2.75334 -8.47391 0
M  V30 1134 O 192.879 -2.44571 -9.90142 0
M  V30 1135 O 193.449 -3.87688 -7.92115 0
M  V30 1136 O 192.909 -1.4459 -7.59357 0
M  V30 1137 C 191.969 -0.347608 -7.69215 0
M  V30 1138 C 192.699 0.96767 -7.52806 0
M  V30 1139 O 192.909 1.21036 -6.1011 0
M  V30 1140 C 194.099 1.04544 -8.13308 0
M  V30 1141 O 194.489 2.38311 -8.41922 0
M  V30 1142 C 194.979 0.491279 -7.02284 0
M  V30 1143 C 194.269 0.996264 -5.77469 0
M  V30 1144 N 194.319 0.0501916 -4.62973 0
M  V30 1145 H 191.48 -0.374722 -8.67691 0
M  V30 1146 H 191.21 -0.443485 -6.90277 0
M  V30 1147 H 192.077 1.75537 -7.96793 0
M  V30 1148 P 196.039 2.75334 -8.47391 0
M  V30 1149 O 196.259 3.84128 -9.44797 0
M  V30 1150 O 196.829 1.51947 -8.68712 0
M  V30 1151 O 196.289 3.29363 -6.99321 0
M  V30 1152 C 195.349 4.24011 -6.4274 0
M  V30 1153 C 196.079 5.20775 -5.52155 0
M  V30 1154 O 196.289 4.56534 -4.22446 0
M  V30 1155 C 197.479 5.62629 -5.96531 0
M  V30 1156 O 197.869 6.87667 -5.41053 0
M  V30 1157 C 198.359 4.52537 -5.39283 0
M  V30 1158 C 197.649 4.20027 -4.08623 0
M  V30 1159 N 197.699 2.76189 -3.71603 0
M  V30 1160 H 194.86 4.797 -7.24003 0
M  V30 1161 H 194.59 3.69856 -5.84513 0
M  V30 1162 H 195.457 6.10356 -5.41441 0
M  V30 1163 P 199.419 7.20834 -5.23717 0
M  V30 1164 O 199.639 8.66104 -5.38572 0
M  V30 1165 O 200.209 6.33544 -6.1349 0
M  V30 1166 O 199.669 6.7751 -3.72168 0
M  V30 1167 C 198.729 7.20825 -2.7076 0
M  V30 1168 C 199.459 7.45864 -1.40599 0
M  V30 1169 O 199.669 6.17651 -0.734225 0
M  V30 1170 C 200.859 8.05808 -1.51899 0
M  V30 1171 O 201.249 8.74358 -0.335205 0
M  V30 1172 C 201.739 6.83093 -1.70294 0
M  V30 1173 C 201.029 5.79992 -0.836974 0
M  V30 1174 N 201.079 4.41864 -1.38293 0
M  V30 1175 H 198.24 8.13644 -3.0377 0
M  V30 1176 H 197.97 6.42788 -2.55485 0
M  V30 1177 H 198.837 8.12039 -0.792769 0
M  V30 1178 P 202.799 8.91 2.40144e-13 0
M  V30 1179 O 203.019 10.1726 0.733694 0
M  V30 1180 O 203.589 8.73148 -1.23936 0
M  V30 1181 O 203.049 7.66872 0.971405 0
M  V30 1182 C 202.109 7.42309 2.04641 0
M  V30 1183 C 202.839 6.86059 3.24661 0
M  V30 1184 O 203.049 5.42847 3.03646 0
M  V30 1185 C 204.239 7.41196 3.50753 0
M  V30 1186 O 204.629 7.27073 4.86816 0
M  V30 1187 C 205.119 6.5273 2.63741 0
M  V30 1188 C 204.409 5.1842 2.73198 0
M  V30 1189 N 204.459 4.38762 1.4784 0
M  V30 1190 H 201.62 8.36803 2.32493 0
M  V30 1191 H 201.35 6.70197 1.71129 0
M  V30 1192 H 202.217 7.03551 4.13168 0
M  V30 1193 P 206.179 7.20834 5.23717 0
M  V30 1194 O 206.399 7.79853 6.57286 0
M  V30 1195 O 206.969 7.79239 4.12957 0
M  V30 1196 O 206.429 5.63315 5.29344 0
M  V30 1197 C 205.489 4.80255 6.01876 0
M  V30 1198 C 206.219 3.64202 6.65911 0
M  V30 1199 O 206.429 2.60694 5.64732 0
M  V30 1200 C 207.619 3.93473 7.1943 0
M  V30 1201 O 208.009 3.02071 8.21205 0
M  V30 1202 C 208.499 3.73047 5.97036 0
M  V30 1203 C 207.789 2.58828 5.25741 0
M  V30 1204 N 207.839 2.68068 3.77503 0
M  V30 1205 H 205 5.40332 6.79951 0
M  V30 1206 H 204.73 4.41613 5.32378 0
M  V30 1207 H 205.597 3.26331 7.47797 0
M  V30 1208 P 209.559 2.75334 8.47391 0
M  V30 1209 O 209.779 2.44571 9.90142 0
M  V30 1210 O 210.349 3.87688 7.92115 0
M  V30 1211 O 209.809 1.4459 7.59357 0
M  V30 1212 C 208.869 0.347608 7.69215 0
M  V30 1213 C 209.599 -0.96767 7.52806 0
M  V30 1214 O 209.809 -1.21036 6.1011 0
M  V30 1215 C 210.999 -1.04544 8.13308 0
M  V30 1216 O 211.389 -2.38311 8.41922 0
M  V30 1217 C 211.879 -0.491279 7.02284 0
M  V30 1218 C 211.169 -0.996264 5.77469 0
M  V30 1219 N 211.219 -0.0501916 4.62973 0
M  V30 1220 H 208.38 0.374722 8.67691 0
M  V30 1221 H 208.11 0.443485 6.90277 0
M  V30 1222 H 208.977 -1.75537 7.96793 0
M  V30 1223 P 212.939 -2.75334 8.47391 0
M  V30 1224 O 213.159 -3.84128 9.44797 0
M  V30 1225 O 213.729 -1.51947 8.68712 0
M  V30 1226 O 213.189 -3.29363 6.99321 0
M  V30 1227 C 212.249 -4.24011 6.4274 0
M  V30 1228 C 212.979 -5.20775 5.52155 0
M  V30 1229 O 213.189 -4.56534 4.22446 0
M  V30 1230 C 214.379 -5.62629 5.96531 0
M  V30 1231 O 214.769 -6.87667 5.41053 0
M  V30 1232 C 215.259 -4.52537 5.39283 0
M  V30 1233 C 214.549 -4.20027 4.08623 0
M  V30 1234 N 214.599 -2.76189 3.71603 0
M  V30 1235 H 211.76 -4.797 7.24003 0
M  V30 1236 H 211.49 -3.69856 5.84513 0
M  V30 1237 H 212.357 -6.10356 5.41441 0
M  V30 1238 P 216.319 -7.20834 5.23717 0
M  V30 1239 O 216.539 -8.66104 5.38572 0
M  V30 1240 O 217.109 -6.33544 6.1349 0
M  V30 1241 O 216.569 -6.7751 3.72168 0
M  V30 1242 C 215.629 -7.20825 2.7076 0
M  V30 1243 C 216.359 -7.45864 1.40599 0
M  V30 1244 O 216.569 -6.17651 0.734225 0
M  V30 1245 C 217.759 -8.05808 1.51899 0
M  V30 1246 O 218.149 -8.74358 0.335205 0
M  V30 1247 C 218.639 -6.83093 1.70294 0
M  V30 1248 C 217.929 -5.79992 0.836974 0
M  V30 1249 N 217.979 -4.41864 1.38293 0
M  V30 1250 C 217.899 -3.99538 2.69438 0
M  V30 1251 N 217.979 -2.69909 2.84277 0
M  V30 1252 C 218.119 -2.21719 1.5408 0
M  V30 1253 C 218.249 -0.891712 1.06628 0
M  V30 1254 O 218.269 0.161298 1.70137 0
M  V30 1255 N 218.369 -0.856846 -0.334985 0
M  V30 1256 C 218.369 -1.9641 -1.15789 0
M  V30 1257 N 218.499 -1.72708 -2.46522 0
M  V30 1258 N 218.239 -3.21165 -0.713741 0
M  V30 1259 C 218.119 -3.26797 0.639748 0
M  V30 1260 H 215.14 -8.13644 3.0377 0
M  V30 1261 H 214.87 -6.42788 2.55485 0
M  V30 1262 H 215.737 -8.12039 0.792769 0
M  V30 1263 H 218.392 -5.80061 -0.166416 0
M  V30 1264 H 218.671 -6.51287 2.75604 0
M  V30 1265 H 219.663 -7.01734 1.34462 0
M  V30 1266 H 217.829 -8.73674 2.38337 0
M  V30 1267 H 217.78 -4.68207 3.53221 0
M  V30 1268 H 218.462 0.0398818 -0.767965 0
M  V30 1269 H 218.499 -2.50995 -3.13503 0
M  V30 1270 H 218.6 -0.759148 -2.80716 0
M  V30 1271 P 219.699 -8.91 -3.97326e-13 0
M  V30 1272 O 219.919 -10.1726 -0.733694 0
M  V30 1273 O 220.489 -8.73148 1.23936 0
M  V30 1274 O 219.949 -7.66872 -0.971405 0
M  V30 1275 C 219.009 -7.42309 -2.04641 0
M  V30 1276 C 219.739 -6.86059 -3.24661 0
M  V30 1277 O 219.949 -5.42847 -3.03646 0
M  V30 1278 C 221.139 -7.41196 -3.50753 0
M  V30 1279 O 221.529 -7.27073 -4.86816 0
M  V30 1280 C 222.019 -6.5273 -2.63741 0
M  V30 1281 C 221.309 -5.1842 -2.73198 0
M  V30 1282 N 221.359 -4.38762 -1.4784 0
M  V30 1283 H 218.52 -8.36803 -2.32493 0
M  V30 1284 H 218.25 -6.70197 -1.71129 0
M  V30 1285 H 219.117 -7.03551 -4.13168 0
M  V30 1286 P 223.079 -7.20834 -5.23717 0
M  V30 1287 O 223.299 -7.79853 -6.57286 0
M  V30 1288 O 223.869 -7.79239 -4.12957 0
M  V30 1289 O 223.329 -5.63315 -5.29344 0
M  V30 1290 C 222.389 -4.80255 -6.01876 0
M  V30 1291 C 223.119 -3.64202 -6.65911 0
M  V30 1292 O 223.329 -2.60694 -5.64732 0
M  V30 1293 C 224.519 -3.93473 -7.1943 0
M  V30 1294 O 224.909 -3.02071 -8.21205 0
M  V30 1295 C 225.399 -3.73047 -5.97036 0
M  V30 1296 C 224.689 -2.58828 -5.25741 0
M  V30 1297 N 224.739 -2.68068 -3.77503 0
M  V30 1298 H 221.9 -5.40332 -6.79951 0
M  V30 1299 H 221.63 -4.41613 -5.32378 0
M  V30 1300 H 222.497 -3.26331 -7.47797 0
M  V30 1301 P 226.459 -2.75334 -8.47391 0
M  V30 1302 O 226.679 -2.44571 -9.90142 0
M  V30 1303 O 227.249 -3.87688 -7.92115 0
M  V30 1304 O 226.709 -1.4459 -7.59357 0
M  V30 1305 C 225.769 -0.347608 -7.69215 0
M  V30 1306 C 226.499 0.96767 -7.52806 0
M  V30 1307 O 226.709 1.21036 -6.1011 0
M  V30 1308 C 227.899 1.04544 -8.13308 0
M  V30 1309 O 228.289 2.38311 -8.41922 0
M  V30 1310 C 228.779 0.491279 -7.02284 0
M  V30 1311 C 228.069 0.996264 -5.77469 0
M  V30 1312 N 228.119 0.0501916 -4.62973 0
M  V30 1313 H 225.28 -0.374722 -8.67691 0
M  V30 1314 H 225.01 -0.443485 -6.90277 0
M  V30 1315 H 225.877 1.75537 -7.96793 0
M  V30 1316 P 229.839 2.75334 -8.47391 0
M  V30 1317 O 230.059 3.84204 -9.44982 0
M  V30 1318 O 230.629 1.51982 -8.68909 0
M  V30 1319 O 230.089 3.29363 -6.99321 0
M  V30 1320 C 229.149 4.24066 -6.42823 0
M  V30 1321 C 229.879 5.20775 -5.52155 0
M  V30 1322 O 230.089 4.56607 -4.22514 0
M  V30 1323 C 231.279 5.62697 -5.96604 0
M  V30 1324 O 231.669 6.87667 -5.41053 0
M  V30 1325 C 232.159 4.52537 -5.39283 0
M  V30 1326 C 231.449 4.20027 -4.08623 0
M  V30 1327 N 231.499 2.76189 -3.71603 0
M  V30 1328 C 231.419 1.66944 -4.54297 0
M  V30 1329 N 231.489 0.536169 -3.91344 0
M  V30 1330 C 231.639 0.901569 -2.58849 0
M  V30 1331 C 231.769 0.146599 -1.40236 0
M  V30 1332 N 231.779 -1.18234 -1.37046 0
M  V30 1333 N 231.889 0.822941 -0.249738 0
M  V30 1334 C 231.879 2.15179 -0.280525 0
M  V30 1335 N 231.759 2.96414 -1.30822 0
M  V30 1336 C 231.639 2.25804 -2.44748 0
M  V30 1337 H 228.661 4.79756 -7.24086 0
M  V30 1338 H 228.389 3.69963 -5.84682 0
M  V30 1339 H 229.257 6.10431 -5.41508 0
M  V30 1340 H 231.912 4.78816 -3.28024 0
M  V30 1341 H 232.192 3.64957 -6.05871 0
M  V30 1342 H 233.183 4.88748 -5.21323 0
M  V30 1343 H 231.349 5.66789 -7.0643 0
M  V30 1344 H 231.308 1.74684 -5.62396 0
M  V30 1345 H 231.689 -1.71949 -2.24394 0
M  V30 1346 H 231.878 -1.67511 -0.470742 0
M  V30 1347 H 231.986 2.63704 0.6828 0
M  V30 1348 P 233.219 7.20834 -5.23717 0
M  V30 1349 O 233.439 8.66104 -5.38572 0
M  V30 1350 O 234.009 6.33544 -6.1349 0
M  V30 1351 O 233.469 6.7751 -3.72168 0
M  V30 1352 C 232.529 7.20825 -2.7076 0
M  V30 1353 C 233.259 7.45864 -1.40599 0
M  V30 1354 O 233.469 6.17651 -0.734225 0
M  V30 1355 C 234.659 8.05808 -1.51899 0
M  V30 1356 O 235.049 8.74358 -0.335205 0
M  V30 1357 C 235.539 6.83093 -1.70294 0
M  V30 1358 C 234.829 5.79992 -0.836974 0
M  V30 1359 N 234.879 4.41864 -1.38293 0
M  V30 1360 H 232.04 8.13644 -3.0377 0
M  V30 1361 H 231.77 6.42788 -2.55485 0
M  V30 1362 H 232.637 8.12039 -0.792769 0
M  V30 1363 P 236.599 8.91 5.54508e-13 0
M  V30 1364 O 236.819 10.1746 0.733838 0
M  V30 1365 O 237.389 8.73346 -1.23964 0
M  V30 1366 O 236.849 7.66872 0.971405 0
M  V30 1367 C 235.909 7.42405 2.04668 0
M  V30 1368 C 236.639 6.86059 3.24661 0
M  V30 1369 O 236.849 5.42934 3.03695 0
M  V30 1370 C 238.039 7.41287 3.50796 0
M  V30 1371 O 238.429 7.27073 4.86816 0
M  V30 1372 C 238.919 6.5273 2.63741 0
M  V30 1373 C 238.209 5.1842 2.73198 0
M  V30 1374 N 238.259 4.38762 1.4784 0
M  V30 1375 C 238.179 4.83651 0.183876 0
M  V30 1376 N 238.249 3.88759 -0.699393 0
M  V30 1377 C 238.399 2.7404 0.0575568 0
M  V30 1378 C 238.529 1.37902 -0.293928 0
M  V30 1379 N 238.539 0.938021 -1.54797 0
M  V30 1380 N 238.649 0.491817 0.70549 0
M  V30 1381 C 238.639 0.931735 1.95979 0
M  V30 1382 N 238.519 2.16017 2.41481 0
M  V30 1383 C 238.399 3.02547 1.39121 0
M  V30 1384 H 235.421 8.36899 2.3252 0
M  V30 1385 H 235.149 6.70391 1.71179 0
M  V30 1386 H 236.017 7.03638 4.13219 0
M  V30 1387 H 238.672 4.59931 3.54016 0
M  V30 1388 H 238.952 6.88995 1.59871 0
M  V30 1389 H 239.943 6.4684 3.0373 0
M  V30 1390 H 238.109 8.47002 3.20749 0
M  V30 1391 H 238.068 5.8885 -0.0765548 0
M  V30 1392 H 238.449 1.60276 -2.32875 0
M  V30 1393 H 238.638 -0.0699355 -1.73859 0
M  V30 1394 H 238.746 0.165507 2.71897 0
M  V30 1395 P 239.979 7.20834 5.23717 0
M  V30 1396 O 240.199 7.79853 6.57286 0
M  V30 1397 O 240.769 7.79239 4.12957 0
M  V30 1398 O 240.229 5.63315 5.29344 0
M  V30 1399 C 239.289 4.80255 6.01876 0
M  V30 1400 C 240.019 3.64202 6.65911 0
M  V30 1401 O 240.229 2.60694 5.64732 0
M  V30 1402 C 241.419 3.93473 7.1943 0
M  V30 1403 O 241.809 3.02071 8.21205 0
M  V30 1404 C 242.299 3.73047 5.97036 0
M  V30 1405 C 241.589 2.58828 5.25741 0
M  V30 1406 N 241.639 2.68068 3.77503 0
M  V30 1407 H 238.8 5.40332 6.79951 0
M  V30 1408 H 238.53 4.41613 5.32378 0
M  V30 1409 H 239.397 3.26331 7.47797 0
M  V30 1410 P 243.359 2.75334 8.47391 0
M  V30 1411 O 243.579 2.44571 9.90142 0
M  V30 1412 O 244.149 3.87688 7.92115 0
M  V30 1413 O 243.609 1.4459 7.59357 0
M  V30 1414 C 242.669 0.347608 7.69215 0
M  V30 1415 C 243.399 -0.96767 7.52806 0
M  V30 1416 O 243.609 -1.21036 6.1011 0
M  V30 1417 C 244.799 -1.04544 8.13308 0
M  V30 1418 O 245.189 -2.38311 8.41922 0
M  V30 1419 C 245.679 -0.491279 7.02284 0
M  V30 1420 C 244.969 -0.996264 5.77469 0
M  V30 1421 N 245.019 -0.0501916 4.62973 0
M  V30 1422 H 242.18 0.374722 8.67691 0
M  V30 1423 H 241.91 0.443485 6.90277 0
M  V30 1424 H 242.777 -1.75537 7.96793 0
M  V30 1425 P 246.739 -2.75334 8.47391 0
M  V30 1426 O 246.959 -3.84128 9.44797 0
M  V30 1427 O 247.529 -1.51947 8.68712 0
M  V30 1428 O 246.989 -3.29363 6.99321 0
M  V30 1429 C 246.049 -4.24011 6.4274 0
M  V30 1430 C 246.779 -5.20775 5.52155 0
M  V30 1431 O 246.989 -4.56534 4.22446 0
M  V30 1432 C 248.179 -5.62629 5.96531 0
M  V30 1433 O 248.569 -6.87667 5.41053 0
M  V30 1434 C 249.059 -4.52537 5.39283 0
M  V30 1435 C 248.349 -4.20027 4.08623 0
M  V30 1436 N 248.399 -2.76189 3.71603 0
M  V30 1437 H 245.56 -4.797 7.24003 0
M  V30 1438 H 245.29 -3.69856 5.84513 0
M  V30 1439 H 246.157 -6.10356 5.41441 0
M  V30 1440 P 250.119 -7.20834 5.23717 0
M  V30 1441 O 250.339 -8.66104 5.38572 0
M  V30 1442 O 250.909 -6.33544 6.1349 0
M  V30 1443 O 250.369 -6.7751 3.72168 0
M  V30 1444 C 249.429 -7.20825 2.7076 0
M  V30 1445 C 250.159 -7.45864 1.40599 0
M  V30 1446 O 250.369 -6.17651 0.734225 0
M  V30 1447 C 251.559 -8.05808 1.51899 0
M  V30 1448 O 251.949 -8.74358 0.335205 0
M  V30 1449 C 252.439 -6.83093 1.70294 0
M  V30 1450 C 251.729 -5.79992 0.836974 0
M  V30 1451 N 251.779 -4.41864 1.38293 0
M  V30 1452 H 248.94 -8.13644 3.0377 0
M  V30 1453 H 248.67 -6.42788 2.55485 0
M  V30 1454 H 249.537 -8.12039 0.792769 0
M  V30 1455 P 253.498 -8.91 -7.1169e-13 0
M  V30 1456 O 253.718 -10.1746 -0.733838 0
M  V30 1457 O 254.288 -8.73346 1.23964 0
M  V30 1458 O 253.748 -7.66872 -0.971405 0
M  V30 1459 C 252.808 -7.42405 -2.04668 0
M  V30 1460 C 253.538 -6.86059 -3.24661 0
M  V30 1461 O 253.748 -5.42934 -3.03695 0
M  V30 1462 C 254.938 -7.41287 -3.50796 0
M  V30 1463 O 255.328 -7.27073 -4.86816 0
M  V30 1464 C 255.818 -6.5273 -2.63741 0
M  V30 1465 C 255.108 -5.1842 -2.73198 0
M  V30 1466 N 255.158 -4.38762 -1.4784 0
M  V30 1467 C 255.078 -4.83651 -0.183876 0
M  V30 1468 N 255.148 -3.88759 0.699393 0
M  V30 1469 C 255.298 -2.7404 -0.0575568 0
M  V30 1470 C 255.428 -1.37902 0.293928 0
M  V30 1471 N 255.438 -0.938021 1.54797 0
M  V30 1472 N 255.548 -0.491817 -0.70549 0
M  V30 1473 C 255.538 -0.931735 -1.95979 0
M  V30 1474 N 255.418 -2.16017 -2.41481 0
M  V30 1475 C 255.298 -3.02547 -1.39121 0
M  V30 1476 H 252.32 -8.36899 -2.3252 0
M  V30 1477 H 252.048 -6.70391 -1.71179 0
M  V30 1478 H 252.916 -7.03638 -4.13219 0
M  V30 1479 H 255.571 -4.59931 -3.54016 0
M  V30 1480 H 255.851 -6.88995 -1.59871 0
M  V30 1481 H 256.842 -6.4684 -3.0373 0
M  V30 1482 H 255.008 -8.47002 -3.20749 0
M  V30 1483 H 254.967 -5.8885 0.0765548 0
M  V30 1484 H 255.348 -1.60276 2.32875 0
M  V30 1485 H 255.537 0.0699355 1.73859 0
M  V30 1486 H 255.645 -0.165507 -2.71897 0
M  V30 1487 P 256.878 -7.20834 -5.23717 0
M  V30 1488 O 257.098 -7.79853 -6.57286 0
M  V30 1489 O 257.668 -7.79239 -4.12957 0
M  V30 1490 O 257.128 -5.63315 -5.29344 0
M  V30 1491 C 256.188 -4.80255 -6.01876 0
M  V30 1492 C 256.918 -3.64202 -6.65911 0
M  V30 1493 O 257.128 -2.60694 -5.64732 0
M  V30 1494 C 258.318 -3.93473 -7.1943 0
M  V30 1495 O 258.708 -3.02071 -8.21205 0
M  V30 1496 C 259.198 -3.73047 -5.97036 0
M  V30 1497 C 258.488 -2.58828 -5.25741 0
M  V30 1498 N 258.538 -2.68068 -3.77503 0
M  V30 1499 H 255.699 -5.40332 -6.79951 0
M  V30 1500 H 255.429 -4.41613 -5.32378 0
M  V30 1501 H 256.296 -3.26331 -7.47797 0
M  V30 1502 P 260.258 -2.75334 -8.47391 0
M  V30 1503 O 260.478 -2.44619 -9.90336 0
M  V30 1504 O 261.048 -3.87776 -7.92294 0
M  V30 1505 O 260.508 -1.4459 -7.59357 0
M  V30 1506 C 259.568 -0.347653 -7.69315 0
M  V30 1507 C 260.298 0.96767 -7.52806 0
M  V30 1508 O 260.508 1.21055 -6.10208 0
M  V30 1509 C 261.698 1.04557 -8.13408 0
M  V30 1510 O 262.088 2.38311 -8.41922 0
M  V30 1511 C 262.578 0.491279 -7.02284 0
M  V30 1512 C 261.868 0.996264 -5.77469 0
M  V30 1513 N 261.918 0.0501916 -4.62973 0
M  V30 1514 C 261.838 -1.31969 -4.65661 0
M  V30 1515 N 261.908 -1.86649 -3.48119 0
M  V30 1516 C 262.058 -0.792089 -2.62406 0
M  V30 1517 C 262.188 -0.705684 -1.2207 0
M  V30 1518 N 262.198 -1.76207 -0.413762 0
M  V30 1519 N 262.308 0.518981 -0.685754 0
M  V30 1520 C 262.298 1.57595 -1.49174 0
M  V30 1521 N 262.178 1.62909 -2.80066 0
M  V30 1522 C 262.058 0.388195 -3.3073 0
M  V30 1523 H 259.08 -0.374765 -8.67791 0
M  V30 1524 H 258.808 -0.443613 -6.90476 0
M  V30 1525 H 259.676 1.75559 -7.96891 0
M  V30 1526 H 262.331 1.94563 -5.46818 0
M  V30 1527 H 262.611 -0.608651 -7.04676 0
M  V30 1528 H 263.602 0.889796 -7.09039 0
M  V30 1529 H 261.768 0.433128 -9.04664 0
M  V30 1530 H 261.727 -1.89246 -5.57664 0
M  V30 1531 H 262.108 -2.71005 -0.804694 0
M  V30 1532 H 262.297 -1.63189 0.603768 0
M  V30 1533 H 262.405 2.53475 -0.997614 0
M  V30 1534 P 263.638 2.75334 -8.47391 0
M  V30 1535 O 263.858 3.84204 -9.44982 0
M  V30 1536 O 264.428 1.51982 -8.68909 0
M  V30 1537 O 263.888 3.29363 -6.99321 0
M  V30 1538 C 262.948 4.24066 -6.42823 0
M  V30 1539 C 263.678 5.20775 -5.52155 0
M  V30 1540 O 263.888 4.56607 -4.22514 0
M  V30 1541 C 265.078 5.62697 -5.96604 0
M  V30 1542 O 265.468 6.87667 -5.41053 0
M  V30 1543 C 265.958 4.52537 -5.39283 0
M  V30 1544 C 265.248 4.20027 -4.08623 0
M  V30 1545 N 265.298 2.76189 -3.71603 0
M  V30 1546 C 265.218 1.66944 -4.54297 0
M  V30 1547 N 265.288 0.536169 -3.91344 0
M  V30 1548 C 265.438 0.901569 -2.58849 0
M  V30 1549 C 265.568 0.146599 -1.40236 0
M  V30 1550 N 265.578 -1.18234 -1.37046 0
M  V30 1551 N 265.688 0.822941 -0.249738 0
M  V30 1552 C 265.678 2.15179 -0.280525 0
M  V30 1553 N 265.558 2.96414 -1.30822 0
M  V30 1554 C 265.438 2.25804 -2.44748 0
M  V30 1555 H 262.46 4.79756 -7.24086 0
M  V30 1556 H 262.188 3.69963 -5.84682 0
M  V30 1557 H 263.056 6.10431 -5.41508 0
M  V30 1558 H 265.711 4.78816 -3.28024 0
M  V30 1559 H 265.991 3.64957 -6.05871 0
M  V30 1560 H 266.982 4.88748 -5.21323 0
M  V30 1561 H 265.148 5.66789 -7.0643 0
M  V30 1562 H 265.107 1.74684 -5.62396 0
M  V30 1563 H 265.488 -1.71949 -2.24394 0
M  V30 1564 H 265.677 -1.67511 -0.470742 0
M  V30 1565 H 265.785 2.63704 0.6828 0
M  V30 1566 P 267.018 7.20834 -5.23717 0
M  V30 1567 O 267.238 8.66104 -5.38572 0
M  V30 1568 O 267.808 6.33544 -6.1349 0
M  V30 1569 O 267.268 6.7751 -3.72168 0
M  V30 1570 C 266.328 7.20825 -2.7076 0
M  V30 1571 C 267.058 7.45864 -1.40599 0
M  V30 1572 O 267.268 6.17651 -0.734225 0
M  V30 1573 C 268.458 8.05808 -1.51899 0
M  V30 1574 O 268.848 8.74358 -0.335205 0
M  V30 1575 C 269.338 6.83093 -1.70294 0
M  V30 1576 C 268.628 5.79992 -0.836974 0
M  V30 1577 N 268.678 4.41864 -1.38293 0
M  V30 1578 H 265.839 8.13644 -3.0377 0
M  V30 1579 H 265.569 6.42788 -2.55485 0
M  V30 1580 H 266.436 8.12039 -0.792769 0
M  V30 1581 P 270.398 8.91 8.68872e-13 0
M  V30 1582 O 270.618 10.1726 0.733694 0
M  V30 1583 O 271.188 8.73148 -1.23936 0
M  V30 1584 O 270.648 7.66872 0.971405 0
M  V30 1585 C 269.708 7.42309 2.04641 0
M  V30 1586 C 270.438 6.86059 3.24661 0
M  V30 1587 O 270.648 5.42847 3.03646 0
M  V30 1588 C 271.838 7.41196 3.50753 0
M  V30 1589 O 272.228 7.27073 4.86816 0
M  V30 1590 C 272.718 6.5273 2.63741 0
M  V30 1591 C 272.008 5.1842 2.73198 0
M  V30 1592 N 272.058 4.38762 1.4784 0
M  V30 1593 H 269.219 8.36803 2.32493 0
M  V30 1594 H 268.949 6.70197 1.71129 0
M  V30 1595 H 269.816 7.03551 4.13168 0
M  V30 1596 P 273.778 7.20834 5.23717 0
M  V30 1597 O 273.998 7.79853 6.57286 0
M  V30 1598 O 274.568 7.79239 4.12957 0
M  V30 1599 O 274.028 5.63315 5.29344 0
M  V30 1600 C 273.088 4.80255 6.01876 0
M  V30 1601 C 273.818 3.64202 6.65911 0
M  V30 1602 O 274.028 2.60694 5.64732 0
M  V30 1603 C 275.218 3.93473 7.1943 0
M  V30 1604 O 275.608 3.02071 8.21205 0
M  V30 1605 C 276.098 3.73047 5.97036 0
M  V30 1606 C 275.388 2.58828 5.25741 0
M  V30 1607 N 275.438 2.68068 3.77503 0
M  V30 1608 H 272.599 5.40332 6.79951 0
M  V30 1609 H 272.329 4.41613 5.32378 0
M  V30 1610 H 273.196 3.26331 7.47797 0
M  V30 1611 P 277.158 2.75334 8.47391 0
M  V30 1612 O 277.378 2.44571 9.90142 0
M  V30 1613 O 277.948 3.87688 7.92115 0
M  V30 1614 O 277.408 1.4459 7.59357 0
M  V30 1615 C 276.468 0.347608 7.69215 0
M  V30 1616 C 277.198 -0.96767 7.52806 0
M  V30 1617 O 277.408 -1.21036 6.1011 0
M  V30 1618 C 278.598 -1.04544 8.13308 0
M  V30 1619 O 278.988 -2.38311 8.41922 0
M  V30 1620 C 279.478 -0.491279 7.02284 0
M  V30 1621 C 278.768 -0.996264 5.77469 0
M  V30 1622 N 278.818 -0.0501916 4.62973 0
M  V30 1623 H 275.979 0.374722 8.67691 0
M  V30 1624 H 275.709 0.443485 6.90277 0
M  V30 1625 H 276.576 -1.75537 7.96793 0
M  V30 1626 P 280.538 -2.75334 8.47391 0
M  V30 1627 O 280.758 -3.84204 9.44982 0
M  V30 1628 O 281.328 -1.51982 8.68909 0
M  V30 1629 O 280.788 -3.29363 6.99321 0
M  V30 1630 C 279.848 -4.24066 6.42823 0
M  V30 1631 C 280.578 -5.20775 5.52155 0
M  V30 1632 O 280.788 -4.56607 4.22514 0
M  V30 1633 C 281.978 -5.62697 5.96604 0
M  V30 1634 O 282.368 -6.87667 5.41053 0
M  V30 1635 C 282.858 -4.52537 5.39283 0
M  V30 1636 C 282.148 -4.20027 4.08623 0
M  V30 1637 N 282.198 -2.76189 3.71603 0
M  V30 1638 H 279.36 -4.79756 7.24086 0
M  V30 1639 H 279.088 -3.69963 5.84682 0
M  V30 1640 H 279.956 -6.10431 5.41508 0
M  V30 1641 H 282.611 -4.78816 3.28024 0
M  V30 1642 H 282.891 -3.64957 6.05871 0
M  V30 1643 H 283.882 -4.88748 5.21323 0
M  V30 1644 H 282.048 -5.66789 7.0643 0
M  V30 1645 P 283.918 -7.20834 5.23717 0
M  V30 1646 O 284.138 -8.66104 5.38572 0
M  V30 1647 O 284.708 -6.33544 6.1349 0
M  V30 1648 O 284.168 -6.7751 3.72168 0
M  V30 1649 C 283.228 -7.20825 2.7076 0
M  V30 1650 C 283.958 -7.45864 1.40599 0
M  V30 1651 O 284.168 -6.17651 0.734225 0
M  V30 1652 C 285.358 -8.05808 1.51899 0
M  V30 1653 O 285.748 -8.74358 0.335205 0
M  V30 1654 C 286.238 -6.83093 1.70294 0
M  V30 1655 C 285.528 -5.79992 0.836974 0
M  V30 1656 N 285.578 -4.41864 1.38293 0
M  V30 1657 C 285.498 -3.99538 2.69438 0
M  V30 1658 N 285.578 -2.69909 2.84277 0
M  V30 1659 C 285.718 -2.21719 1.5408 0
M  V30 1660 C 285.848 -0.891712 1.06628 0
M  V30 1661 O 285.868 0.161298 1.70137 0
M  V30 1662 N 285.968 -0.856846 -0.334985 0
M  V30 1663 C 285.968 -1.9641 -1.15789 0
M  V30 1664 N 286.098 -1.72708 -2.46522 0
M  V30 1665 N 285.838 -3.21165 -0.713741 0
M  V30 1666 C 285.718 -3.26797 0.639748 0
M  V30 1667 H 282.739 -8.13644 3.0377 0
M  V30 1668 H 282.469 -6.42788 2.55485 0
M  V30 1669 H 283.336 -8.12039 0.792769 0
M  V30 1670 H 285.991 -5.80061 -0.166416 0
M  V30 1671 H 286.27 -6.51287 2.75604 0
M  V30 1672 H 287.262 -7.01734 1.34462 0
M  V30 1673 H 285.428 -8.73674 2.38337 0
M  V30 1674 H 285.379 -4.68207 3.53221 0
M  V30 1675 H 286.061 0.0398818 -0.767965 0
M  V30 1676 H 286.098 -2.50995 -3.13503 0
M  V30 1677 H 286.199 -0.759148 -2.80716 0
M  V30 1678 P 287.298 -8.91 -1.02605e-12 0
M  V30 1679 O 287.518 -10.1726 -0.733694 0
M  V30 1680 O 288.088 -8.73148 1.23936 0
M  V30 1681 O 287.548 -7.66872 -0.971405 0
M  V30 1682 C 286.608 -7.42309 -2.04641 0
M  V30 1683 C 287.338 -6.86059 -3.24661 0
M  V30 1684 O 287.548 -5.42847 -3.03646 0
M  V30 1685 C 288.738 -7.41196 -3.50753 0
M  V30 1686 O 289.128 -7.27073 -4.86816 0
M  V30 1687 C 289.618 -6.5273 -2.63741 0
M  V30 1688 C 288.908 -5.1842 -2.73198 0
M  V30 1689 N 288.958 -4.38762 -1.4784 0
M  V30 1690 H 286.119 -8.36803 -2.32493 0
M  V30 1691 H 285.849 -6.70197 -1.71129 0
M  V30 1692 H 286.716 -7.03551 -4.13168 0
M  V30 1693 P 290.678 -7.20834 -5.23717 0
M  V30 1694 O 290.898 -7.7993 -6.57351 0
M  V30 1695 O 291.468 -7.79328 -4.13004 0
M  V30 1696 O 290.928 -5.63315 -5.29344 0
M  V30 1697 C 289.988 -4.80193 -6.01798 0
M  V30 1698 C 290.718 -3.64202 -6.65911 0
M  V30 1699 O 290.928 -2.60694 -5.64732 0
M  V30 1700 C 292.118 -3.93473 -7.1943 0
M  V30 1701 O 292.508 -3.02071 -8.21205 0
M  V30 1702 C 292.998 -3.73047 -5.97036 0
M  V30 1703 C 292.288 -2.58828 -5.25741 0
M  V30 1704 N 292.338 -2.6801 -3.77422 0
M  V30 1705 C 292.488 -1.50443 -3.07133 0
M  V30 1706 O 292.578 -0.419406 -3.61576 0
M  V30 1707 N 292.528 -1.6403 -1.69677 0
M  V30 1708 C 292.438 -2.81206 -0.986255 0
M  V30 1709 O 292.488 -2.80892 0.249754 0
M  V30 1710 C 292.288 -3.99158 -1.80325 0
M  V30 1711 C 292.178 -5.29309 -1.06921 0
M  V30 1712 C 292.238 -3.89779 -3.1476 0
M  V30 1713 H 289.498 -5.40332 -6.79951 0
M  V30 1714 H 289.229 -4.41549 -5.32301 0
M  V30 1715 H 290.096 -3.26331 -7.47797 0
M  V30 1716 H 292.751 -1.6395 -5.56554 0
M  V30 1717 H 293.03 -4.63439 -5.3432 0
M  V30 1718 H 294.022 -3.44728 -6.25838 0
M  V30 1719 H 292.188 -4.96652 -7.57263 0
M  V30 1720 H 292.117 -4.80159 -3.74441 0
M  V30 1721 H 293.147 -5.81459 -1.09608 0
M  V30 1722 H 291.41 -5.9187 -1.54487 0
M  V30 1723 H 291.898 -5.10095 -0.0220288 0
M  V30 1724 H 292.634 -0.798962 -1.16664 0
M  V30 1725 P 294.058 -2.75334 -8.47391 0
M  V30 1726 O 294.278 -2.44595 -9.90239 0
M  V30 1727 O 294.848 -3.87732 -7.92204 0
M  V30 1728 O 294.308 -1.4459 -7.59357 0
M  V30 1729 C 293.368 -0.347563 -7.69115 0
M  V30 1730 C 294.098 0.96767 -7.52806 0
M  V30 1731 O 294.308 1.21036 -6.1011 0
M  V30 1732 C 295.498 1.04544 -8.13308 0
M  V30 1733 O 295.888 2.38311 -8.41922 0
M  V30 1734 C 296.378 0.491279 -7.02284 0
M  V30 1735 C 295.668 0.996264 -5.77469 0
M  V30 1736 N 295.718 0.0501808 -4.62873 0
M  V30 1737 C 295.868 0.588177 -3.36904 0
M  V30 1738 O 295.958 1.78598 -3.17173 0
M  V30 1739 N 295.908 -0.329694 -2.33686 0
M  V30 1740 C 295.818 -1.6953 -2.45079 0
M  V30 1741 O 295.868 -2.41926 -1.44899 0
M  V30 1742 C 295.668 -2.16933 -3.80505 0
M  V30 1743 C 295.558 -3.65373 -3.97621 0
M  V30 1744 C 295.618 -1.30326 -4.83752 0
M  V30 1745 H 292.878 -0.374722 -8.67691 0
M  V30 1746 H 292.609 -0.443421 -6.90177 0
M  V30 1747 H 293.476 1.75537 -7.96793 0
M  V30 1748 H 296.131 1.94496 -5.46629 0
M  V30 1749 H 296.41 -0.608651 -7.04676 0
M  V30 1750 H 297.402 0.889672 -7.08939 0
M  V30 1751 H 295.568 0.43308 -9.04564 0
M  V30 1752 H 295.497 -1.68366 -5.8516 0
M  V30 1753 H 296.527 -4.05985 -4.30448 0
M  V30 1754 H 294.79 -3.88028 -4.72875 0
M  V30 1755 H 295.278 -4.11381 -3.01609 0
M  V30 1756 H 296.014 0.0393617 -1.41345 0
M  V30 1757 P 297.438 2.75334 -8.47391 0
M  V30 1758 O 297.658 3.84204 -9.44982 0
M  V30 1759 O 298.228 1.51982 -8.68909 0
M  V30 1760 O 297.688 3.29363 -6.99321 0
M  V30 1761 C 296.748 4.24066 -6.42823 0
M  V30 1762 C 297.478 5.20775 -5.52155 0
M  V30 1763 O 297.688 4.56607 -4.22514 0
M  V30 1764 C 298.878 5.62697 -5.96604 0
M  V30 1765 O 299.268 6.87667 -5.41053 0
M  V30 1766 C 299.758 4.52537 -5.39283 0
M  V30 1767 C 299.048 4.20027 -4.08623 0
M  V30 1768 N 299.098 2.76189 -3.71603 0
M  V30 1769 C 299.018 1.66944 -4.54297 0
M  V30 1770 N 299.088 0.536169 -3.91344 0
M  V30 1771 C 299.238 0.901569 -2.58849 0
M  V30 1772 C 299.368 0.146599 -1.40236 0
M  V30 1773 N 299.378 -1.18234 -1.37046 0
M  V30 1774 N 299.488 0.822941 -0.249738 0
M  V30 1775 C 299.478 2.15179 -0.280525 0
M  V30 1776 N 299.358 2.96414 -1.30822 0
M  V30 1777 C 299.238 2.25804 -2.44748 0
M  V30 1778 H 296.26 4.79756 -7.24086 0
M  V30 1779 H 295.988 3.69963 -5.84682 0
M  V30 1780 H 296.856 6.10431 -5.41508 0
M  V30 1781 H 299.511 4.78816 -3.28024 0
M  V30 1782 H 299.791 3.64957 -6.05871 0
M  V30 1783 H 300.782 4.88748 -5.21323 0
M  V30 1784 H 298.948 5.66789 -7.0643 0
M  V30 1785 H 298.907 1.74684 -5.62396 0
M  V30 1786 H 299.288 -1.71949 -2.24394 0
M  V30 1787 H 299.477 -1.67511 -0.470742 0
M  V30 1788 H 299.585 2.63704 0.6828 0
M  V30 1789 P 300.818 7.20834 -5.23717 0
M  V30 1790 O 301.038 8.66189 -5.38625 0
M  V30 1791 O 301.608 6.33615 -6.1356 0
M  V30 1792 O 301.068 6.7751 -3.72168 0
M  V30 1793 C 300.128 7.20732 -2.70725 0
M  V30 1794 C 300.858 7.45864 -1.40599 0
M  V30 1795 O 301.068 6.17651 -0.734225 0
M  V30 1796 C 302.258 8.05808 -1.51899 0
M  V30 1797 O 302.648 8.74358 -0.335205 0
M  V30 1798 C 303.138 6.83093 -1.70294 0
M  V30 1799 C 302.428 5.79992 -0.836974 0
M  V30 1800 N 302.478 4.41769 -1.38263 0
M  V30 1801 C 302.628 3.38591 -0.481702 0
M  V30 1802 O 302.718 3.56839 0.718452 0
M  V30 1803 N 302.668 2.1206 -1.03569 0
M  V30 1804 C 302.578 1.80696 -2.36966 0
M  V30 1805 O 302.628 0.630473 -2.74862 0
M  V30 1806 C 302.428 2.94845 -3.23898 0
M  V30 1807 C 302.318 2.65253 -4.70362 0
M  V30 1808 C 302.378 4.19803 -2.73435 0
M  V30 1809 H 299.638 8.13644 -3.0377 0
M  V30 1810 H 299.369 6.42695 -2.55448 0
M  V30 1811 H 300.236 8.12039 -0.792769 0
M  V30 1812 H 302.891 5.79978 0.160587 0
M  V30 1813 H 303.17 6.51379 -2.75643 0
M  V30 1814 H 304.162 7.01734 -1.34462 0
M  V30 1815 H 302.328 8.73674 -2.38337 0
M  V30 1816 H 302.257 5.04492 -3.4095 0
M  V30 1817 H 303.287 2.83924 -5.1913 0
M  V30 1818 H 301.55 3.29824 -5.15163 0
M  V30 1819 H 302.038 1.59723 -4.84449 0
M  V30 1820 H 302.774 1.35644 -0.399345 0
M  V30 1821 P 304.198 8.91 1.18324e-12 0
M  V30 1822 O 304.418 10.1726 0.733694 0
M  V30 1823 O 304.988 8.73148 -1.23936 0
M  V30 1824 O 304.448 7.66872 0.971405 0
M  V30 1825 C 303.508 7.42309 2.04641 0
M  V30 1826 C 304.238 6.86059 3.24661 0
M  V30 1827 O 304.448 5.42847 3.03646 0
M  V30 1828 C 305.638 7.41196 3.50753 0
M  V30 1829 O 306.028 7.27073 4.86816 0
M  V30 1830 C 306.518 6.5273 2.63741 0
M  V30 1831 C 305.808 5.1842 2.73198 0
M  V30 1832 N 305.858 4.38762 1.4784 0
M  V30 1833 H 303.019 8.36803 2.32493 0
M  V30 1834 H 302.749 6.70197 1.71129 0
M  V30 1835 H 303.616 7.03551 4.13168 0
M  V30 1836 P 307.578 7.20834 5.23717 0
M  V30 1837 O 307.798 7.79853 6.57286 0
M  V30 1838 O 308.368 7.79239 4.12957 0
M  V30 1839 O 307.828 5.63315 5.29344 0
M  V30 1840 C 306.888 4.80255 6.01876 0
M  V30 1841 C 307.618 3.64202 6.65911 0
M  V30 1842 O 307.828 2.60694 5.64732 0
M  V30 1843 C 309.018 3.93473 7.1943 0
M  V30 1844 O 309.408 3.02071 8.21205 0
M  V30 1845 C 309.898 3.73047 5.97036 0
M  V30 1846 C 309.188 2.58828 5.25741 0
M  V30 1847 N 309.238 2.68068 3.77503 0
M  V30 1848 H 306.399 5.40332 6.79951 0
M  V30 1849 H 306.129 4.41613 5.32378 0
M  V30 1850 H 306.996 3.26331 7.47797 0
M  V30 1851 P 310.958 2.75334 8.47391 0
M  V30 1852 O 311.178 2.44619 9.90336 0
M  V30 1853 O 311.748 3.87776 7.92294 0
M  V30 1854 O 311.208 1.4459 7.59357 0
M  V30 1855 C 310.268 0.347653 7.69315 0
M  V30 1856 C 310.998 -0.96767 7.52806 0
M  V30 1857 O 311.208 -1.21055 6.10208 0
M  V30 1858 C 312.398 -1.04557 8.13408 0
M  V30 1859 O 312.788 -2.38311 8.41922 0
M  V30 1860 C 313.278 -0.491279 7.02284 0
M  V30 1861 C 312.568 -0.996264 5.77469 0
M  V30 1862 N 312.618 -0.0501916 4.62973 0
M  V30 1863 H 309.78 0.374765 8.67791 0
M  V30 1864 H 309.508 0.443613 6.90476 0
M  V30 1865 H 310.376 -1.75559 7.96891 0
M  V30 1866 H 313.031 -1.94563 5.46818 0
M  V30 1867 H 313.311 0.608651 7.04676 0
M  V30 1868 H 314.302 -0.889796 7.09039 0
M  V30 1869 H 312.468 -0.433128 9.04664 0
M  V30 1870 P 314.338 -2.75334 8.47391 0
M  V30 1871 O 314.558 -3.84128 9.44797 0
M  V30 1872 O 315.128 -1.51947 8.68712 0
M  V30 1873 O 314.588 -3.29363 6.99321 0
M  V30 1874 C 313.648 -4.24011 6.4274 0
M  V30 1875 C 314.378 -5.20775 5.52155 0
M  V30 1876 O 314.588 -4.56534 4.22446 0
M  V30 1877 C 315.778 -5.62629 5.96531 0
M  V30 1878 O 316.168 -6.87667 5.41053 0
M  V30 1879 C 316.658 -4.52537 5.39283 0
M  V30 1880 C 315.948 -4.20027 4.08623 0
M  V30 1881 N 315.998 -2.76189 3.71603 0
M  V30 1882 H 313.159 -4.797 7.24003 0
M  V30 1883 H 312.889 -3.69856 5.84513 0
M  V30 1884 H 313.756 -6.10356 5.41441 0
M  V30 1885 P 317.718 -7.20834 5.23717 0
M  V30 1886 O 317.938 -8.66104 5.38572 0
M  V30 1887 O 318.508 -6.33544 6.1349 0
M  V30 1888 O 317.968 -6.7751 3.72168 0
M  V30 1889 C 317.028 -7.20825 2.7076 0
M  V30 1890 C 317.758 -7.45864 1.40599 0
M  V30 1891 O 317.968 -6.17651 0.734225 0
M  V30 1892 C 319.158 -8.05808 1.51899 0
M  V30 1893 O 319.548 -8.74358 0.335205 0
M  V30 1894 C 320.038 -6.83093 1.70294 0
M  V30 1895 C 319.328 -5.79992 0.836974 0
M  V30 1896 N 319.378 -4.41864 1.38293 0
M  V30 1897 C 319.298 -3.99538 2.69438 0
M  V30 1898 N 319.378 -2.69909 2.84277 0
M  V30 1899 C 319.518 -2.21719 1.5408 0
M  V30 1900 C 319.648 -0.891712 1.06628 0
M  V30 1901 N 319.768 -0.856846 -0.334985 0
M  V30 1902 C 319.768 -1.9641 -1.15789 0
M  V30 1903 N 319.898 -1.72708 -2.46522 0
M  V30 1904 N 319.638 -3.21165 -0.713741 0
M  V30 1905 C 319.518 -3.26797 0.639748 0
M  V30 1906 H 316.539 -8.13644 3.0377 0
M  V30 1907 H 316.269 -6.42788 2.55485 0
M  V30 1908 H 317.136 -8.12039 0.792769 0
M  V30 1909 P 321.098 -8.91 -1.34042e-12 0
M  V30 1910 O 321.318 -10.1726 -0.733694 0
M  V30 1911 O 321.888 -8.73148 1.23936 0
M  V30 1912 O 321.348 -7.66872 -0.971405 0
M  V30 1913 C 320.408 -7.42309 -2.04641 0
M  V30 1914 C 321.138 -6.86059 -3.24661 0
M  V30 1915 O 321.348 -5.42847 -3.03646 0
M  V30 1916 C 322.538 -7.41196 -3.50753 0
M  V30 1917 O 322.928 -7.27073 -4.86816 0
M  V30 1918 C 323.418 -6.5273 -2.63741 0
M  V30 1919 C 322.708 -5.1842 -2.73198 0
M  V30 1920 N 322.758 -4.38762 -1.4784 0
M  V30 1921 C 322.678 -4.81605 -0.168631 0
M  V30 1922 N 322.758 -3.85454 0.713363 0
M  V30 1923 C 322.898 -2.6994 -0.0566958 0
M  V30 1924 C 323.028 -1.34815 0.338502 0
M  V30 1925 N 323.148 -0.496304 -0.77465 0
M  V30 1926 C 323.148 -0.908403 -2.09122 0
M  V30 1927 N 323.278 0.0517805 -3.00955 0
M  V30 1928 N 323.018 -2.17875 -2.46519 0
M  V30 1929 C 322.898 -3.01988 -1.4033 0
M  V30 1930 H 319.919 -8.36803 -2.32493 0
M  V30 1931 H 319.649 -6.70197 -1.71129 0
M  V30 1932 H 320.516 -7.03551 -4.13168 0
M  V30 1933 P 324.478 -7.20834 -5.23717 0
M  V30 1934 O 324.698 -7.79853 -6.57286 0
M  V30 1935 O 325.268 -7.79239 -4.12957 0
M  V30 1936 O 324.728 -5.63315 -5.29344 0
M  V30 1937 C 323.788 -4.80255 -6.01876 0
M  V30 1938 C 324.518 -3.64202 -6.65911 0
M  V30 1939 O 324.728 -2.60694 -5.64732 0
M  V30 1940 C 325.918 -3.93473 -7.1943 0
M  V30 1941 O 326.308 -3.02071 -8.21205 0
M  V30 1942 C 326.798 -3.73047 -5.97036 0
M  V30 1943 C 326.088 -2.58828 -5.25741 0
M  V30 1944 N 326.138 -2.68068 -3.77503 0
M  V30 1945 H 323.299 -5.40332 -6.79951 0
M  V30 1946 H 323.029 -4.41613 -5.32378 0
M  V30 1947 H 323.896 -3.26331 -7.47797 0
M  V30 1948 P 327.858 -2.75334 -8.47391 0
M  V30 1949 O 328.078 -2.44571 -9.90142 0
M  V30 1950 O 328.648 -3.87688 -7.92115 0
M  V30 1951 O 328.108 -1.4459 -7.59357 0
M  V30 1952 C 327.168 -0.347608 -7.69215 0
M  V30 1953 C 327.898 0.96767 -7.52806 0
M  V30 1954 O 328.108 1.21036 -6.1011 0
M  V30 1955 C 329.298 1.04544 -8.13308 0
M  V30 1956 O 329.688 2.38311 -8.41922 0
M  V30 1957 C 330.178 0.491279 -7.02284 0
M  V30 1958 C 329.468 0.996264 -5.77469 0
M  V30 1959 N 329.518 0.0501916 -4.62973 0
M  V30 1960 H 326.679 -0.374722 -8.67691 0
M  V30 1961 H 326.409 -0.443485 -6.90277 0
M  V30 1962 H 327.276 1.75537 -7.96793 0
M  V30 1963 P 331.238 2.75334 -8.47391 0
M  V30 1964 O 331.458 3.84128 -9.44797 0
M  V30 1965 O 332.028 1.51947 -8.68712 0
M  V30 1966 O 331.488 3.29363 -6.99321 0
M  V30 1967 C 330.548 4.24011 -6.4274 0
M  V30 1968 C 331.278 5.20775 -5.52155 0
M  V30 1969 O 331.488 4.56534 -4.22446 0
M  V30 1970 C 332.678 5.62629 -5.96531 0
M  V30 1971 O 333.068 6.87667 -5.41053 0
M  V30 1972 C 333.558 4.52537 -5.39283 0
M  V30 1973 C 332.848 4.20027 -4.08623 0
M  V30 1974 N 332.898 2.76189 -3.71603 0
M  V30 1975 H 330.059 4.797 -7.24003 0
M  V30 1976 H 329.789 3.69856 -5.84513 0
M  V30 1977 H 330.656 6.10356 -5.41441 0
M  V30 1978 P 334.618 7.20834 -5.23717 0
M  V30 1979 O 334.838 8.66104 -5.38572 0
M  V30 1980 O 335.408 6.33544 -6.1349 0
M  V30 1981 O 334.868 6.7751 -3.72168 0
M  V30 1982 C 333.928 7.20825 -2.7076 0
M  V30 1983 C 334.658 7.45864 -1.40599 0
M  V30 1984 O 334.868 6.17651 -0.734225 0
M  V30 1985 C 336.058 8.05808 -1.51899 0
M  V30 1986 O 336.448 8.74358 -0.335205 0
M  V30 1987 C 336.938 6.83093 -1.70294 0
M  V30 1988 C 336.228 5.79992 -0.836974 0
M  V30 1989 N 336.278 4.41864 -1.38293 0
M  V30 1990 H 333.439 8.13644 -3.0377 0
M  V30 1991 H 333.169 6.42788 -2.55485 0
M  V30 1992 H 334.036 8.12039 -0.792769 0
M  V30 1993 P 337.998 8.91 1.4976e-12 0
M  V30 1994 O 338.218 10.1726 0.733694 0
M  V30 1995 O 338.788 8.73148 -1.23936 0
M  V30 1996 O 338.248 7.66872 0.971405 0
M  V30 1997 C 337.308 7.42309 2.04641 0
M  V30 1998 C 338.038 6.86059 3.24661 0
M  V30 1999 O 338.248 5.42847 3.03646 0
M  V30 2000 C 339.438 7.41196 3.50753 0
M  V30 2001 O 339.828 7.27073 4.86816 0
M  V30 2002 C 340.318 6.5273 2.63741 0
M  V30 2003 C 339.608 5.1842 2.73198 0
M  V30 2004 N 339.658 4.38762 1.4784 0
M  V30 2005 H 336.819 8.36803 2.32493 0
M  V30 2006 H 336.549 6.70197 1.71129 0
M  V30 2007 H 337.416 7.03551 4.13168 0
M  V30 2008 P 341.378 7.20834 5.23717 0
M  V30 2009 O 341.598 7.79853 6.57286 0
M  V30 2010 O 342.168 7.79239 4.12957 0
M  V30 2011 O 341.628 5.63315 5.29344 0
M  V30 2012 C 340.688 4.80255 6.01876 0
M  V30 2013 C 341.418 3.64202 6.65911 0
M  V30 2014 O 341.628 2.60694 5.64732 0
M  V30 2015 C 342.818 3.93473 7.1943 0
M  V30 2016 O 343.208 3.02071 8.21205 0
M  V30 2017 C 343.698 3.73047 5.97036 0
M  V30 2018 C 342.988 2.58828 5.25741 0
M  V30 2019 N 343.038 2.68068 3.77503 0
M  V30 2020 H 340.199 5.40332 6.79951 0
M  V30 2021 H 339.929 4.41613 5.32378 0
M  V30 2022 H 340.796 3.26331 7.47797 0
M  V30 2023 P 344.758 2.75334 8.47391 0
M  V30 2024 O 344.978 2.44595 9.90239 0
M  V30 2025 O 345.548 3.87732 7.92204 0
M  V30 2026 O 345.008 1.4459 7.59357 0
M  V30 2027 C 344.068 0.347563 7.69115 0
M  V30 2028 C 344.798 -0.96767 7.52806 0
M  V30 2029 O 345.008 -1.21036 6.1011 0
M  V30 2030 C 346.198 -1.04544 8.13308 0
M  V30 2031 O 346.588 -2.38311 8.41922 0
M  V30 2032 C 347.078 -0.491279 7.02284 0
M  V30 2033 C 346.368 -0.996264 5.77469 0
M  V30 2034 N 346.418 -0.0501808 4.62873 0
M  V30 2035 C 346.568 -0.588177 3.36904 0
M  V30 2036 O 346.658 -1.78598 3.17173 0
M  V30 2037 N 346.608 0.329694 2.33686 0
M  V30 2038 C 346.518 1.6953 2.45079 0
M  V30 2039 O 346.568 2.41926 1.44899 0
M  V30 2040 C 346.368 2.16933 3.80505 0
M  V30 2041 C 346.258 3.65373 3.97621 0
M  V30 2042 C 346.318 1.30326 4.83752 0
M  V30 2043 H 343.578 0.374722 8.67691 0
M  V30 2044 H 343.309 0.443421 6.90177 0
M  V30 2045 H 344.176 -1.75537 7.96793 0
M  V30 2046 H 346.831 -1.94496 5.46629 0
M  V30 2047 H 347.11 0.608651 7.04676 0
M  V30 2048 H 348.102 -0.889672 7.08939 0
M  V30 2049 H 346.268 -0.43308 9.04564 0
M  V30 2050 H 346.197 1.68366 5.8516 0
M  V30 2051 H 347.227 4.05985 4.30448 0
M  V30 2052 H 345.49 3.88028 4.72875 0
M  V30 2053 H 345.978 4.11381 3.01609 0
M  V30 2054 H 346.714 -0.0393617 1.41345 0
M  V30 2055 P 348.138 -2.75334 8.47391 0
M  V30 2056 O 348.358 -3.84166 9.4489 0
M  V30 2057 O 348.928 -1.51964 8.6881 0
M  V30 2058 O 348.388 -3.29363 6.99321 0
M  V30 2059 C 347.448 -4.23956 6.42656 0
M  V30 2060 C 348.178 -5.20775 5.52155 0
M  V30 2061 O 348.388 -4.56534 4.22446 0
M  V30 2062 C 349.578 -5.62629 5.96531 0
M  V30 2063 O 349.968 -6.87667 5.41053 0
M  V30 2064 C 350.458 -4.52537 5.39283 0
M  V30 2065 C 349.748 -4.20027 4.08623 0
M  V30 2066 N 349.798 -2.7613 3.71522 0
M  V30 2067 C 349.948 -2.45612 2.37989 0
M  V30 2068 O 350.038 -3.30919 1.51621 0
M  V30 2069 N 349.988 -1.10684 2.08435 0
M  V30 2070 C 349.898 -0.0690084 2.9792 0
M  V30 2071 O 349.948 1.10553 2.59426 0
M  V30 2072 C 349.748 -0.481522 4.35345 0
M  V30 2073 C 349.638 0.618778 5.36443 0
M  V30 2074 C 349.698 -1.78906 4.67968 0
M  V30 2075 H 346.958 -4.797 7.24003 0
M  V30 2076 H 346.689 -3.69802 5.84429 0
M  V30 2077 H 347.556 -6.10356 5.41441 0
M  V30 2078 H 350.211 -4.78651 3.27911 0
M  V30 2079 H 350.49 -3.64957 6.05871 0
M  V30 2080 H 351.482 -4.8868 5.2125 0
M  V30 2081 H 349.648 -5.66726 7.06352 0
M  V30 2082 H 349.577 -2.07737 5.72367 0
M  V30 2083 H 350.607 0.754375 5.86871 0
M  V30 2084 H 348.87 0.359721 6.10641 0
M  V30 2085 H 349.358 1.55533 4.8581 0
M  V30 2086 H 350.094 -0.862651 1.12037 0
M  V30 2087 P 351.518 -7.20834 5.23717 0
M  V30 2088 O 351.738 -8.66104 5.38572 0
M  V30 2089 O 352.308 -6.33544 6.1349 0
M  V30 2090 O 351.768 -6.7751 3.72168 0
M  V30 2091 C 350.828 -7.20825 2.7076 0
M  V30 2092 C 351.558 -7.45864 1.40599 0
M  V30 2093 O 351.768 -6.17651 0.734225 0
M  V30 2094 C 352.958 -8.05808 1.51899 0
M  V30 2095 O 353.348 -8.74358 0.335205 0
M  V30 2096 C 353.838 -6.83093 1.70294 0
M  V30 2097 C 353.128 -5.79992 0.836974 0
M  V30 2098 N 353.178 -4.41864 1.38293 0
M  V30 2099 C 353.098 -3.99538 2.69438 0
M  V30 2100 N 353.178 -2.69909 2.84277 0
M  V30 2101 C 353.318 -2.21719 1.5408 0
M  V30 2102 C 353.448 -0.891712 1.06628 0
M  V30 2103 O 353.468 0.161298 1.70137 0
M  V30 2104 N 353.568 -0.856846 -0.334985 0
M  V30 2105 C 353.568 -1.9641 -1.15789 0
M  V30 2106 N 353.698 -1.72708 -2.46522 0
M  V30 2107 N 353.438 -3.21165 -0.713741 0
M  V30 2108 C 353.318 -3.26797 0.639748 0
M  V30 2109 H 350.339 -8.13644 3.0377 0
M  V30 2110 H 350.069 -6.42788 2.55485 0
M  V30 2111 H 350.936 -8.12039 0.792769 0
M  V30 2112 H 353.591 -5.80061 -0.166416 0
M  V30 2113 H 353.87 -6.51287 2.75604 0
M  V30 2114 H 354.862 -7.01734 1.34462 0
M  V30 2115 H 353.028 -8.73674 2.38337 0
M  V30 2116 H 352.979 -4.68207 3.53221 0
M  V30 2117 H 353.661 0.0398818 -0.767965 0
M  V30 2118 H 353.698 -2.50995 -3.13503 0
M  V30 2119 H 353.799 -0.759148 -2.80716 0
M  V30 2120 P 354.898 -8.91 -1.65478e-12 0
M  V30 2121 O 355.118 -10.1726 -0.733694 0
M  V30 2122 O 355.688 -8.73148 1.23936 0
M  V30 2123 O 355.148 -7.66872 -0.971405 0
M  V30 2124 C 354.208 -7.42309 -2.04641 0
M  V30 2125 C 354.938 -6.86059 -3.24661 0
M  V30 2126 O 355.148 -5.42847 -3.03646 0
M  V30 2127 C 356.338 -7.41196 -3.50753 0
M  V30 2128 O 356.728 -7.27073 -4.86816 0
M  V30 2129 C 357.218 -6.5273 -2.63741 0
M  V30 2130 C 356.508 -5.1842 -2.73198 0
M  V30 2131 N 356.558 -4.38762 -1.4784 0
M  V30 2132 H 353.719 -8.36803 -2.32493 0
M  V30 2133 H 353.449 -6.70197 -1.71129 0
M  V30 2134 H 354.316 -7.03551 -4.13168 0
M  V30 2135 P 358.278 -7.20834 -5.23717 0
M  V30 2136 O 358.498 -7.79853 -6.57286 0
M  V30 2137 O 359.068 -7.79239 -4.12957 0
M  V30 2138 O 358.528 -5.63315 -5.29344 0
M  V30 2139 C 357.588 -4.80255 -6.01876 0
M  V30 2140 C 358.318 -3.64202 -6.65911 0
M  V30 2141 O 358.528 -2.60694 -5.64732 0
M  V30 2142 C 359.718 -3.93473 -7.1943 0
M  V30 2143 O 360.108 -3.02071 -8.21205 0
M  V30 2144 C 360.598 -3.73047 -5.97036 0
M  V30 2145 C 359.888 -2.58828 -5.25741 0
M  V30 2146 N 359.938 -2.68068 -3.77503 0
M  V30 2147 H 357.099 -5.40332 -6.79951 0
M  V30 2148 H 356.829 -4.41613 -5.32378 0
M  V30 2149 H 357.696 -3.26331 -7.47797 0
M  V30 2150 P 361.658 -2.75334 -8.47391 0
M  V30 2151 O 361.878 -2.44571 -9.90142 0
M  V30 2152 O 362.448 -3.87688 -7.92115 0
M  V30 2153 O 361.908 -1.4459 -7.59357 0
M  V30 2154 C 360.968 -0.347608 -7.69215 0
M  V30 2155 C 361.698 0.96767 -7.52806 0
M  V30 2156 O 361.908 1.21036 -6.1011 0
M  V30 2157 C 363.098 1.04544 -8.13308 0
M  V30 2158 O 363.488 2.38311 -8.41922 0
M  V30 2159 C 363.978 0.491279 -7.02284 0
M  V30 2160 C 363.268 0.996264 -5.77469 0
M  V30 2161 N 363.318 0.0501916 -4.62973 0
M  V30 2162 H 360.479 -0.374722 -8.67691 0
M  V30 2163 H 360.209 -0.443485 -6.90277 0
M  V30 2164 H 361.076 1.75537 -7.96793 0
M  V30 2165 P 365.038 2.75334 -8.47391 0
M  V30 2166 O 365.258 3.84128 -9.44797 0
M  V30 2167 O 365.828 1.51947 -8.68712 0
M  V30 2168 O 365.288 3.29363 -6.99321 0
M  V30 2169 C 364.348 4.24011 -6.4274 0
M  V30 2170 C 365.078 5.20775 -5.52155 0
M  V30 2171 O 365.288 4.56534 -4.22446 0
M  V30 2172 C 366.478 5.62629 -5.96531 0
M  V30 2173 O 366.868 6.87667 -5.41053 0
M  V30 2174 C 367.358 4.52537 -5.39283 0
M  V30 2175 C 366.648 4.20027 -4.08623 0
M  V30 2176 N 366.698 2.76189 -3.71603 0
M  V30 2177 H 363.859 4.797 -7.24003 0
M  V30 2178 H 363.589 3.69856 -5.84513 0
M  V30 2179 H 364.456 6.10356 -5.41441 0
M  V30 2180 P 368.418 7.20834 -5.23717 0
M  V30 2181 O 368.638 8.66104 -5.38572 0
M  V30 2182 O 369.208 6.33544 -6.1349 0
M  V30 2183 O 368.668 6.7751 -3.72168 0
M  V30 2184 C 367.728 7.20825 -2.7076 0
M  V30 2185 C 368.458 7.45864 -1.40599 0
M  V30 2186 O 368.668 6.17651 -0.734225 0
M  V30 2187 C 369.858 8.05808 -1.51899 0
M  V30 2188 O 370.248 8.74358 -0.335205 0
M  V30 2189 C 370.738 6.83093 -1.70294 0
M  V30 2190 C 370.028 5.79992 -0.836974 0
M  V30 2191 N 370.078 4.41864 -1.38293 0
M  V30 2192 H 367.239 8.13644 -3.0377 0
M  V30 2193 H 366.969 6.42788 -2.55485 0
M  V30 2194 H 367.836 8.12039 -0.792769 0
M  V30 2195 P 371.798 8.91 1.81197e-12 0
M  V30 2196 O 372.018 10.1726 0.733694 0
M  V30 2197 O 372.588 8.73148 -1.23936 0
M  V30 2198 O 372.048 7.66872 0.971405 0
M  V30 2199 C 371.108 7.42309 2.04641 0
M  V30 2200 C 371.838 6.86059 3.24661 0
M  V30 2201 O 372.048 5.42847 3.03646 0
M  V30 2202 C 373.238 7.41196 3.50753 0
M  V30 2203 O 373.628 7.27073 4.86816 0
M  V30 2204 C 374.118 6.5273 2.63741 0
M  V30 2205 C 373.408 5.1842 2.73198 0
M  V30 2206 N 373.458 4.38762 1.4784 0
M  V30 2207 H 370.619 8.36803 2.32493 0
M  V30 2208 H 370.349 6.70197 1.71129 0
M  V30 2209 H 371.216 7.03551 4.13168 0
M  V30 2210 P 375.178 7.20834 5.23717 0
M  V30 2211 O 375.398 7.79853 6.57286 0
M  V30 2212 O 375.968 7.79239 4.12957 0
M  V30 2213 O 375.428 5.63315 5.29344 0
M  V30 2214 C 374.488 4.80255 6.01876 0
M  V30 2215 C 375.218 3.64202 6.65911 0
M  V30 2216 O 375.428 2.60694 5.64732 0
M  V30 2217 C 376.618 3.93473 7.1943 0
M  V30 2218 O 377.008 3.02071 8.21205 0
M  V30 2219 C 377.498 3.73047 5.97036 0
M  V30 2220 C 376.788 2.58828 5.25741 0
M  V30 2221 N 376.838 2.68068 3.77503 0
M  V30 2222 H 373.999 5.40332 6.79951 0
M  V30 2223 H 373.729 4.41613 5.32378 0
M  V30 2224 H 374.596 3.26331 7.47797 0
M  V30 2225 P 378.558 2.75334 8.47391 0
M  V30 2226 O 378.778 2.44571 9.90142 0
M  V30 2227 O 379.348 3.87688 7.92115 0
M  V30 2228 O 378.808 1.4459 7.59357 0
M  V30 2229 C 377.868 0.347608 7.69215 0
M  V30 2230 C 378.598 -0.96767 7.52806 0
M  V30 2231 O 378.808 -1.21036 6.1011 0
M  V30 2232 C 379.998 -1.04544 8.13308 0
M  V30 2233 O 380.388 -2.38311 8.41922 0
M  V30 2234 C 380.878 -0.491279 7.02284 0
M  V30 2235 C 380.168 -0.996264 5.77469 0
M  V30 2236 N 380.218 -0.0501916 4.62973 0
M  V30 2237 H 377.379 0.374722 8.67691 0
M  V30 2238 H 377.109 0.443485 6.90277 0
M  V30 2239 H 377.976 -1.75537 7.96793 0
M  V30 2240 P 381.938 -2.75334 8.47391 0
M  V30 2241 O 382.158 -3.84128 9.44797 0
M  V30 2242 O 382.728 -1.51947 8.68712 0
M  V30 2243 O 382.188 -3.29363 6.99321 0
M  V30 2244 C 381.248 -4.24011 6.4274 0
M  V30 2245 C 381.978 -5.20775 5.52155 0
M  V30 2246 O 382.188 -4.56534 4.22446 0
M  V30 2247 C 383.378 -5.62629 5.96531 0
M  V30 2248 O 383.768 -6.87667 5.41053 0
M  V30 2249 C 384.258 -4.52537 5.39283 0
M  V30 2250 C 383.548 -4.20027 4.08623 0
M  V30 2251 N 383.598 -2.76189 3.71603 0
M  V30 2252 H 380.759 -4.797 7.24003 0
M  V30 2253 H 380.489 -3.69856 5.84513 0
M  V30 2254 H 381.356 -6.10356 5.41441 0
M  V30 2255 P 385.318 -7.20834 5.23717 0
M  V30 2256 O 385.538 -8.66104 5.38572 0
M  V30 2257 O 386.108 -6.33544 6.1349 0
M  V30 2258 O 385.568 -6.7751 3.72168 0
M  V30 2259 C 384.628 -7.20825 2.7076 0
M  V30 2260 C 385.358 -7.45864 1.40599 0
M  V30 2261 O 385.568 -6.17651 0.734225 0
M  V30 2262 C 386.758 -8.05808 1.51899 0
M  V30 2263 O 387.148 -8.74358 0.335205 0
M  V30 2264 C 387.638 -6.83093 1.70294 0
M  V30 2265 C 386.928 -5.79992 0.836974 0
M  V30 2266 N 386.978 -4.41864 1.38293 0
M  V30 2267 C 386.898 -3.99538 2.69438 0
M  V30 2268 N 386.978 -2.69909 2.84277 0
M  V30 2269 C 387.118 -2.21719 1.5408 0
M  V30 2270 C 387.248 -0.891712 1.06628 0
M  V30 2271 O 387.268 0.161298 1.70137 0
M  V30 2272 N 387.368 -0.856846 -0.334985 0
M  V30 2273 C 387.368 -1.9641 -1.15789 0
M  V30 2274 N 387.498 -1.72708 -2.46522 0
M  V30 2275 N 387.238 -3.21165 -0.713741 0
M  V30 2276 C 387.118 -3.26797 0.639748 0
M  V30 2277 H 384.139 -8.13644 3.0377 0
M  V30 2278 H 383.869 -6.42788 2.55485 0
M  V30 2279 H 384.736 -8.12039 0.792769 0
M  V30 2280 H 387.391 -5.80061 -0.166416 0
M  V30 2281 H 387.67 -6.51287 2.75604 0
M  V30 2282 H 388.662 -7.01734 1.34462 0
M  V30 2283 H 386.828 -8.73674 2.38337 0
M  V30 2284 H 386.779 -4.68207 3.53221 0
M  V30 2285 H 387.461 0.0398818 -0.767965 0
M  V30 2286 H 387.498 -2.50995 -3.13503 0
M  V30 2287 H 387.599 -0.759148 -2.80716 0
M  V30 2288 P 388.698 -8.91 -1.96915e-12 0
M  V30 2289 O 388.918 -10.1726 -0.733694 0
M  V30 2290 O 389.488 -8.73148 1.23936 0
M  V30 2291 O 388.948 -7.66872 -0.971405 0
M  V30 2292 C 388.008 -7.42309 -2.04641 0
M  V30 2293 C 388.738 -6.86059 -3.24661 0
M  V30 2294 O 388.948 -5.42847 -3.03646 0
M  V30 2295 C 390.138 -7.41196 -3.50753 0
M  V30 2296 O 390.528 -7.27073 -4.86816 0
M  V30 2297 C 391.018 -6.5273 -2.63741 0
M  V30 2298 C 390.308 -5.1842 -2.73198 0
M  V30 2299 N 390.358 -4.38762 -1.4784 0
M  V30 2300 C 390.278 -4.81605 -0.168631 0
M  V30 2301 N 390.358 -3.85454 0.713363 0
M  V30 2302 C 390.498 -2.6994 -0.0566958 0
M  V30 2303 C 390.628 -1.34815 0.338502 0
M  V30 2304 O 390.648 -0.869548 1.47125 0
M  V30 2305 N 390.748 -0.496304 -0.77465 0
M  V30 2306 C 390.748 -0.908403 -2.09122 0
M  V30 2307 N 390.878 0.0517805 -3.00955 0
M  V30 2308 N 390.618 -2.17875 -2.46519 0
M  V30 2309 C 390.498 -3.01988 -1.4033 0
M  V30 2310 H 387.519 -8.36803 -2.32493 0
M  V30 2311 H 387.249 -6.70197 -1.71129 0
M  V30 2312 H 388.116 -7.03551 -4.13168 0
M  V30 2313 H 390.771 -4.59498 -3.54415 0
M  V30 2314 H 391.05 -6.88898 -1.59848 0
M  V30 2315 H 392.042 -6.46749 -3.03687 0
M  V30 2316 H 390.208 -8.46908 -3.20714 0
M  V30 2317 H 390.159 -5.86405 0.105564 0
M  V30 2318 H 390.841 0.483664 -0.597855 0
M  V30 2319 H 390.878 -0.187865 -4.0116 0
M  V30 2320 H 390.979 1.03585 -2.71726 0
M  V30 2321 P 392.078 -7.20834 -5.23717 0
M  V30 2322 O 392.298 -7.79853 -6.57286 0
M  V30 2323 O 392.868 -7.79239 -4.12957 0
M  V30 2324 O 392.328 -5.63315 -5.29344 0
M  V30 2325 C 391.388 -4.80255 -6.01876 0
M  V30 2326 C 392.118 -3.64202 -6.65911 0
M  V30 2327 O 392.328 -2.60694 -5.64732 0
M  V30 2328 C 393.518 -3.93473 -7.1943 0
M  V30 2329 O 393.908 -3.02071 -8.21205 0
M  V30 2330 C 394.398 -3.73047 -5.97036 0
M  V30 2331 C 393.688 -2.58828 -5.25741 0
M  V30 2332 N 393.738 -2.68068 -3.77503 0
M  V30 2333 H 390.899 -5.40332 -6.79951 0
M  V30 2334 H 390.629 -4.41613 -5.32378 0
M  V30 2335 H 391.496 -3.26331 -7.47797 0
M  V30 2336 P 395.458 -2.75334 -8.47391 0
M  V30 2337 O 395.678 -2.44571 -9.90142 0
M  V30 2338 O 396.248 -3.87688 -7.92115 0
M  V30 2339 O 395.708 -1.4459 -7.59357 0
M  V30 2340 C 394.768 -0.347608 -7.69215 0
M  V30 2341 C 395.498 0.96767 -7.52806 0
M  V30 2342 O 395.708 1.21036 -6.1011 0
M  V30 2343 C 396.898 1.04544 -8.13308 0
M  V30 2344 O 397.288 2.38311 -8.41922 0
M  V30 2345 C 397.778 0.491279 -7.02284 0
M  V30 2346 C 397.068 0.996264 -5.77469 0
M  V30 2347 N 397.118 0.0501916 -4.62973 0
M  V30 2348 H 394.279 -0.374722 -8.67691 0
M  V30 2349 H 394.009 -0.443485 -6.90277 0
M  V30 2350 H 394.876 1.75537 -7.96793 0
M  V30 2351 P 398.838 2.75334 -8.47391 0
M  V30 2352 O 399.058 3.84166 -9.4489 0
M  V30 2353 O 399.628 1.51964 -8.6881 0
M  V30 2354 O 399.088 3.29363 -6.99321 0
M  V30 2355 C 398.148 4.23956 -6.42656 0
M  V30 2356 C 398.878 5.20775 -5.52155 0
M  V30 2357 O 399.088 4.56534 -4.22446 0
M  V30 2358 C 400.278 5.62629 -5.96531 0
M  V30 2359 O 400.668 6.87667 -5.41053 0
M  V30 2360 C 401.158 4.52537 -5.39283 0
M  V30 2361 C 400.448 4.20027 -4.08623 0
M  V30 2362 N 400.498 2.7613 -3.71522 0
M  V30 2363 C 400.648 2.45612 -2.37989 0
M  V30 2364 O 400.738 3.30919 -1.51621 0
M  V30 2365 N 400.688 1.10684 -2.08435 0
M  V30 2366 C 400.598 0.0690084 -2.9792 0
M  V30 2367 O 400.648 -1.10553 -2.59426 0
M  V30 2368 C 400.448 0.481522 -4.35345 0
M  V30 2369 C 400.338 -0.618778 -5.36443 0
M  V30 2370 C 400.398 1.78906 -4.67968 0
M  V30 2371 H 397.658 4.797 -7.24003 0
M  V30 2372 H 397.389 3.69802 -5.84429 0
M  V30 2373 H 398.256 6.10356 -5.41441 0
M  V30 2374 H 400.911 4.78651 -3.27911 0
M  V30 2375 H 401.19 3.64957 -6.05871 0
M  V30 2376 H 402.182 4.8868 -5.2125 0
M  V30 2377 H 400.348 5.66726 -7.06352 0
M  V30 2378 H 400.277 2.07737 -5.72367 0
M  V30 2379 H 401.307 -0.754375 -5.86871 0
M  V30 2380 H 399.57 -0.359721 -6.10641 0
M  V30 2381 H 400.058 -1.55533 -4.8581 0
M  V30 2382 H 400.794 0.862651 -1.12037 0
M  V30 2383 P 402.218 7.20834 -5.23717 0
M  V30 2384 O 402.438 8.66104 -5.38572 0
M  V30 2385 O 403.008 6.33544 -6.1349 0
M  V30 2386 O 402.468 6.7751 -3.72168 0
M  V30 2387 C 401.528 7.20825 -2.7076 0
M  V30 2388 C 402.258 7.45864 -1.40599 0
M  V30 2389 O 402.468 6.17651 -0.734225 0
M  V30 2390 C 403.658 8.05808 -1.51899 0
M  V30 2391 O 404.048 8.74358 -0.335205 0
M  V30 2392 C 404.538 6.83093 -1.70294 0
M  V30 2393 C 403.828 5.79992 -0.836974 0
M  V30 2394 N 403.878 4.41864 -1.38293 0
M  V30 2395 C 403.798 3.99538 -2.69438 0
M  V30 2396 N 403.878 2.69909 -2.84277 0
M  V30 2397 C 404.018 2.21719 -1.5408 0
M  V30 2398 C 404.148 0.891712 -1.06628 0
M  V30 2399 O 404.168 -0.161298 -1.70137 0
M  V30 2400 N 404.268 0.856846 0.334985 0
M  V30 2401 C 404.268 1.9641 1.15789 0
M  V30 2402 N 404.398 1.72708 2.46522 0
M  V30 2403 N 404.138 3.21165 0.713741 0
M  V30 2404 C 404.018 3.26797 -0.639748 0
M  V30 2405 H 401.039 8.13644 -3.0377 0
M  V30 2406 H 400.769 6.42788 -2.55485 0
M  V30 2407 H 401.636 8.12039 -0.792769 0
M  V30 2408 H 404.291 5.80061 0.166416 0
M  V30 2409 H 404.57 6.51287 -2.75604 0
M  V30 2410 H 405.562 7.01734 -1.34462 0
M  V30 2411 H 403.728 8.73674 -2.38337 0
M  V30 2412 H 403.679 4.68207 -3.53221 0
M  V30 2413 H 404.361 -0.0398818 0.767965 0
M  V30 2414 H 404.398 2.50995 3.13503 0
M  V30 2415 H 404.499 0.759148 2.80716 0
M  V30 2416 P 405.598 8.91 2.12633e-12 0
M  V30 2417 O 405.818 10.1726 0.733694 0
M  V30 2418 O 406.388 8.73148 -1.23936 0
M  V30 2419 O 405.848 7.66872 0.971405 0
M  V30 2420 C 404.908 7.42309 2.04641 0
M  V30 2421 C 405.638 6.86059 3.24661 0
M  V30 2422 O 405.848 5.42847 3.03646 0
M  V30 2423 C 407.038 7.41196 3.50753 0
M  V30 2424 O 407.428 7.27073 4.86816 0
M  V30 2425 C 407.918 6.5273 2.63741 0
M  V30 2426 C 407.208 5.1842 2.73198 0
M  V30 2427 N 407.258 4.38762 1.4784 0
M  V30 2428 H 404.419 8.36803 2.32493 0
M  V30 2429 H 404.149 6.70197 1.71129 0
M  V30 2430 H 405.016 7.03551 4.13168 0
M  V30 2431 P 408.978 7.20834 5.23717 0
M  V30 2432 O 409.198 7.79853 6.57286 0
M  V30 2433 O 409.768 7.79239 4.12957 0
M  V30 2434 O 409.228 5.63315 5.29344 0
M  V30 2435 C 408.288 4.80255 6.01876 0
M  V30 2436 C 409.018 3.64202 6.65911 0
M  V30 2437 O 409.228 2.60694 5.64732 0
M  V30 2438 C 410.418 3.93473 7.1943 0
M  V30 2439 O 410.808 3.02071 8.21205 0
M  V30 2440 C 411.298 3.73047 5.97036 0
M  V30 2441 C 410.588 2.58828 5.25741 0
M  V30 2442 N 410.638 2.68068 3.77503 0
M  V30 2443 H 407.799 5.40332 6.79951 0
M  V30 2444 H 407.529 4.41613 5.32378 0
M  V30 2445 H 408.396 3.26331 7.47797 0
M  V30 2446 P 412.358 2.75334 8.47391 0
M  V30 2447 O 412.578 2.44595 9.90239 0
M  V30 2448 O 413.148 3.87732 7.92204 0
M  V30 2449 O 412.608 1.4459 7.59357 0
M  V30 2450 C 411.668 0.347563 7.69115 0
M  V30 2451 C 412.398 -0.96767 7.52806 0
M  V30 2452 O 412.608 -1.21036 6.1011 0
M  V30 2453 C 413.798 -1.04544 8.13308 0
M  V30 2454 O 414.188 -2.38311 8.41922 0
M  V30 2455 C 414.678 -0.491279 7.02284 0
M  V30 2456 C 413.968 -0.996264 5.77469 0
M  V30 2457 N 414.018 -0.0501808 4.62873 0
M  V30 2458 C 414.168 -0.588177 3.36904 0
M  V30 2459 O 414.258 -1.78598 3.17173 0
M  V30 2460 N 414.208 0.329694 2.33686 0
M  V30 2461 C 414.118 1.6953 2.45079 0
M  V30 2462 O 414.168 2.41926 1.44899 0
M  V30 2463 C 413.968 2.16933 3.80505 0
M  V30 2464 C 413.858 3.65373 3.97621 0
M  V30 2465 C 413.918 1.30326 4.83752 0
M  V30 2466 H 411.178 0.374722 8.67691 0
M  V30 2467 H 410.909 0.443421 6.90177 0
M  V30 2468 H 411.776 -1.75537 7.96793 0
M  V30 2469 H 414.431 -1.94496 5.46629 0
M  V30 2470 H 414.71 0.608651 7.04676 0
M  V30 2471 H 415.702 -0.889672 7.08939 0
M  V30 2472 H 413.868 -0.43308 9.04564 0
M  V30 2473 H 413.797 1.68366 5.8516 0
M  V30 2474 H 414.827 4.05985 4.30448 0
M  V30 2475 H 413.09 3.88028 4.72875 0
M  V30 2476 H 413.578 4.11381 3.01609 0
M  V30 2477 H 414.314 -0.0393617 1.41345 0
M  V30 2478 P 415.738 -2.75334 8.47391 0
M  V30 2479 O 415.958 -3.84128 9.44797 0
M  V30 2480 O 416.528 -1.51947 8.68712 0
M  V30 2481 O 415.988 -3.29363 6.99321 0
M  V30 2482 C 415.048 -4.24011 6.4274 0
M  V30 2483 C 415.778 -5.20775 5.52155 0
M  V30 2484 O 415.988 -4.56534 4.22446 0
M  V30 2485 C 417.178 -5.62629 5.96531 0
M  V30 2486 O 417.568 -6.87667 5.41053 0
M  V30 2487 C 418.058 -4.52537 5.39283 0
M  V30 2488 C 417.348 -4.20027 4.08623 0
M  V30 2489 N 417.398 -2.76189 3.71603 0
M  V30 2490 H 414.559 -4.797 7.24003 0
M  V30 2491 H 414.289 -3.69856 5.84513 0
M  V30 2492 H 415.156 -6.10356 5.41441 0
M  V30 2493 P 419.118 -7.20834 5.23717 0
M  V30 2494 O 419.338 -8.66274 5.38678 0
M  V30 2495 O 419.908 -6.33687 6.13629 0
M  V30 2496 O 419.368 -6.7751 3.72168 0
M  V30 2497 C 418.428 -7.20919 2.70795 0
M  V30 2498 C 419.158 -7.45864 1.40599 0
M  V30 2499 O 419.368 -6.17751 0.734343 0
M  V30 2500 C 420.558 -8.05906 1.51917 0
M  V30 2501 O 420.948 -8.74358 0.335205 0
M  V30 2502 C 421.438 -6.83093 1.70294 0
M  V30 2503 C 420.728 -5.79992 0.836974 0
M  V30 2504 N 420.778 -4.41864 1.38293 0
M  V30 2505 H 417.94 -8.13738 3.03804 0
M  V30 2506 H 417.668 -6.42974 2.55559 0
M  V30 2507 H 418.536 -8.12139 0.792866 0
M  V30 2508 H 421.191 -5.80178 -0.160643 0
M  V30 2509 H 421.471 -6.51379 2.75643 0
M  V30 2510 H 422.462 -7.01832 1.3448 0
M  V30 2511 H 420.628 -8.73771 2.38364 0
M  V30 2512 P 422.497 -8.91 -2.28351e-12 0
M  V30 2513 O 422.717 -10.1726 -0.733694 0
M  V30 2514 O 423.287 -8.73148 1.23936 0
M  V30 2515 O 422.747 -7.66872 -0.971405 0
M  V30 2516 C 421.807 -7.42309 -2.04641 0
M  V30 2517 C 422.537 -6.86059 -3.24661 0
M  V30 2518 O 422.747 -5.42847 -3.03646 0
M  V30 2519 C 423.937 -7.41196 -3.50753 0
M  V30 2520 O 424.327 -7.27073 -4.86816 0
M  V30 2521 C 424.817 -6.5273 -2.63741 0
M  V30 2522 C 424.107 -5.1842 -2.73198 0
M  V30 2523 N 424.157 -4.38762 -1.4784 0
M  V30 2524 H 421.318 -8.36803 -2.32493 0
M  V30 2525 H 421.048 -6.70197 -1.71129 0
M  V30 2526 H 421.915 -7.03551 -4.13168 0
M  V30 2527 P 425.877 -7.20834 -5.23717 0
M  V30 2528 O 426.097 -7.79853 -6.57286 0
M  V30 2529 O 426.667 -7.79239 -4.12957 0
M  V30 2530 O 426.127 -5.63315 -5.29344 0
M  V30 2531 C 425.187 -4.80255 -6.01876 0
M  V30 2532 C 425.917 -3.64202 -6.65911 0
M  V30 2533 O 426.127 -2.60694 -5.64732 0
M  V30 2534 C 427.317 -3.93473 -7.1943 0
M  V30 2535 O 427.707 -3.02071 -8.21205 0
M  V30 2536 C 428.197 -3.73047 -5.97036 0
M  V30 2537 C 427.487 -2.58828 -5.25741 0
M  V30 2538 N 427.537 -2.68068 -3.77503 0
M  V30 2539 C 427.457 -3.79715 -2.96723 0
M  V30 2540 N 427.537 -3.5377 -1.68852 0
M  V30 2541 C 427.677 -2.15054 -1.63254 0
M  V30 2542 C 427.807 -1.28964 -0.518571 0
M  V30 2543 O 427.827 -1.56826 0.679156 0
M  V30 2544 N 427.927 0.0538097 -0.918425 0
M  V30 2545 C 427.927 0.494275 -2.22578 0
M  V30 2546 N 428.057 1.81086 -2.40434 0
M  V30 2547 N 427.797 -0.313645 -3.27502 0
M  V30 2548 C 427.677 -1.61829 -2.91033 0
M  V30 2549 H 424.698 -5.40332 -6.79951 0
M  V30 2550 H 424.428 -4.41613 -5.32378 0
M  V30 2551 H 425.295 -3.26331 -7.47797 0
M  V30 2552 H 427.95 -1.63422 -5.56814 0
M  V30 2553 H 428.229 -4.63374 -5.34244 0
M  V30 2554 H 429.221 -3.44728 -6.25838 0
M  V30 2555 H 427.387 -4.96652 -7.57263 0
M  V30 2556 H 427.338 -4.80617 -3.3614 0
M  V30 2557 H 428.02 0.742702 -0.199384 0
M  V30 2558 H 428.057 2.20598 -3.35588 0
M  V30 2559 H 428.158 2.43518 -1.58945 0
M  V30 2560 P 429.257 -2.75334 -8.47391 0
M  V30 2561 O 429.477 -2.44571 -9.90142 0
M  V30 2562 O 430.047 -3.87688 -7.92115 0
M  V30 2563 O 429.507 -1.4459 -7.59357 0
M  V30 2564 C 428.567 -0.347608 -7.69215 0
M  V30 2565 C 429.297 0.96767 -7.52806 0
M  V30 2566 O 429.507 1.21036 -6.1011 0
M  V30 2567 C 430.697 1.04544 -8.13308 0
M  V30 2568 O 431.087 2.38311 -8.41922 0
M  V30 2569 C 431.577 0.491279 -7.02284 0
M  V30 2570 C 430.867 0.996264 -5.77469 0
M  V30 2571 N 430.917 0.0501916 -4.62973 0
M  V30 2572 H 428.078 -0.374722 -8.67691 0
M  V30 2573 H 427.808 -0.443485 -6.90277 0
M  V30 2574 H 428.675 1.75537 -7.96793 0
M  V30 2575 P 432.637 2.75334 -8.47391 0
M  V30 2576 O 432.857 3.84128 -9.44797 0
M  V30 2577 O 433.427 1.51947 -8.68712 0
M  V30 2578 O 432.887 3.29363 -6.99321 0
M  V30 2579 C 431.947 4.24011 -6.4274 0
M  V30 2580 C 432.677 5.20775 -5.52155 0
M  V30 2581 O 432.887 4.56534 -4.22446 0
M  V30 2582 C 434.077 5.62629 -5.96531 0
M  V30 2583 O 434.467 6.87667 -5.41053 0
M  V30 2584 C 434.957 4.52537 -5.39283 0
M  V30 2585 C 434.247 4.20027 -4.08623 0
M  V30 2586 N 434.297 2.76189 -3.71603 0
M  V30 2587 H 431.458 4.797 -7.24003 0
M  V30 2588 H 431.188 3.69856 -5.84513 0
M  V30 2589 H 432.055 6.10356 -5.41441 0
M  V30 2590 P 436.017 7.20834 -5.23717 0
M  V30 2591 O 436.237 8.66104 -5.38572 0
M  V30 2592 O 436.807 6.33544 -6.1349 0
M  V30 2593 O 436.267 6.7751 -3.72168 0
M  V30 2594 C 435.327 7.20825 -2.7076 0
M  V30 2595 C 436.057 7.45864 -1.40599 0
M  V30 2596 O 436.267 6.17651 -0.734225 0
M  V30 2597 C 437.457 8.05808 -1.51899 0
M  V30 2598 O 437.847 8.74358 -0.335205 0
M  V30 2599 C 438.337 6.83093 -1.70294 0
M  V30 2600 C 437.627 5.79992 -0.836974 0
M  V30 2601 N 437.677 4.41864 -1.38293 0
M  V30 2602 C 437.597 3.99538 -2.69438 0
M  V30 2603 N 437.677 2.69909 -2.84277 0
M  V30 2604 C 437.817 2.21719 -1.5408 0
M  V30 2605 C 437.947 0.891712 -1.06628 0
M  V30 2606 N 438.067 0.856846 0.334985 0
M  V30 2607 C 438.067 1.9641 1.15789 0
M  V30 2608 N 438.197 1.72708 2.46522 0
M  V30 2609 N 437.937 3.21165 0.713741 0
M  V30 2610 C 437.817 3.26797 -0.639748 0
M  V30 2611 H 434.838 8.13644 -3.0377 0
M  V30 2612 H 434.568 6.42788 -2.55485 0
M  V30 2613 H 435.435 8.12039 -0.792769 0
M  V30 2614 P 439.397 8.91 2.44069e-12 0
M  V30 2615 O 439.617 10.1736 0.733766 0
M  V30 2616 O 440.187 8.73247 -1.2395 0
M  V30 2617 O 439.647 7.66872 0.971405 0
M  V30 2618 C 438.707 7.42212 2.04614 0
M  V30 2619 C 439.437 6.86059 3.24661 0
M  V30 2620 O 439.647 5.42847 3.03646 0
M  V30 2621 C 440.837 7.41196 3.50753 0
M  V30 2622 O 441.227 7.27073 4.86816 0
M  V30 2623 C 441.717 6.5273 2.63741 0
M  V30 2624 C 441.007 5.1842 2.73198 0
M  V30 2625 N 441.057 4.38668 1.47808 0
M  V30 2626 C 441.207 3.02239 1.60048 0
M  V30 2627 O 441.297 2.46459 2.67869 0
M  V30 2628 N 441.247 2.32436 0.408571 0
M  V30 2629 C 441.157 2.85471 -0.854993 0
M  V30 2630 O 441.207 2.12566 -1.8531 0
M  V30 2631 C 441.007 4.28918 -0.887335 0
M  V30 2632 C 440.897 4.91066 -2.24619 0
M  V30 2633 C 440.957 5.00349 0.255399 0
M  V30 2634 H 438.217 8.36803 2.32493 0
M  V30 2635 H 437.948 6.701 1.71105 0
M  V30 2636 H 438.815 7.03551 4.13168 0
M  V30 2637 H 441.47 4.59773 3.53894 0
M  V30 2638 H 441.749 6.88995 1.59871 0
M  V30 2639 H 442.741 6.46749 3.03687 0
M  V30 2640 H 440.907 8.46908 3.20714 0
M  V30 2641 H 440.836 6.08548 0.206986 0
M  V30 2642 H 441.866 5.34836 -2.53099 0
M  V30 2643 H 440.129 5.69638 -2.2291 0
M  V30 2644 H 440.617 4.13971 -2.98044 0
M  V30 2645 H 441.353 1.33211 0.474216 0
M  V30 2646 P 442.777 7.20834 5.23717 0
M  V30 2647 O 442.997 7.79853 6.57286 0
M  V30 2648 O 443.567 7.79239 4.12957 0
M  V30 2649 O 443.027 5.63315 5.29344 0
M  V30 2650 C 442.087 4.80255 6.01876 0
M  V30 2651 C 442.817 3.64202 6.65911 0
M  V30 2652 O 443.027 2.60694 5.64732 0
M  V30 2653 C 444.217 3.93473 7.1943 0
M  V30 2654 O 444.607 3.02071 8.21205 0
M  V30 2655 C 445.097 3.73047 5.97036 0
M  V30 2656 C 444.387 2.58828 5.25741 0
M  V30 2657 N 444.437 2.68068 3.77503 0
M  V30 2658 C 444.357 3.79715 2.96723 0
M  V30 2659 N 444.437 3.5377 1.68852 0
M  V30 2660 C 444.577 2.15054 1.63254 0
M  V30 2661 C 444.707 1.28964 0.518571 0
M  V30 2662 O 444.727 1.56826 -0.679156 0
M  V30 2663 N 444.827 -0.0538097 0.918425 0
M  V30 2664 C 444.827 -0.494275 2.22578 0
M  V30 2665 N 444.957 -1.81086 2.40434 0
M  V30 2666 N 444.697 0.313645 3.27502 0
M  V30 2667 C 444.577 1.61829 2.91033 0
M  V30 2668 H 441.598 5.40332 6.79951 0
M  V30 2669 H 441.328 4.41613 5.32378 0
M  V30 2670 H 442.195 3.26331 7.47797 0
M  V30 2671 H 444.85 1.63422 5.56814 0
M  V30 2672 H 445.129 4.63374 5.34244 0
M  V30 2673 H 446.121 3.44728 6.25838 0
M  V30 2674 H 444.287 4.96652 7.57263 0
M  V30 2675 H 444.238 4.80617 3.3614 0
M  V30 2676 H 444.92 -0.742702 0.199384 0
M  V30 2677 H 444.957 -2.20598 3.35588 0
M  V30 2678 H 445.058 -2.43518 1.58945 0
M  V30 2679 P 446.157 2.75334 8.47391 0
M  V30 2680 O 446.377 2.44571 9.90142 0
M  V30 2681 O 446.947 3.87688 7.92115 0
M  V30 2682 O 446.407 1.4459 7.59357 0
M  V30 2683 C 445.467 0.347608 7.69215 0
M  V30 2684 C 446.197 -0.96767 7.52806 0
M  V30 2685 O 446.407 -1.21036 6.1011 0
M  V30 2686 C 447.597 -1.04544 8.13308 0
M  V30 2687 O 447.987 -2.38311 8.41922 0
M  V30 2688 C 448.477 -0.491279 7.02284 0
M  V30 2689 C 447.767 -0.996264 5.77469 0
M  V30 2690 N 447.817 -0.0501916 4.62973 0
M  V30 2691 H 444.978 0.374722 8.67691 0
M  V30 2692 H 444.708 0.443485 6.90277 0
M  V30 2693 H 445.575 -1.75537 7.96793 0
M  V30 2694 P 449.537 -2.75334 8.47391 0
M  V30 2695 O 449.757 -3.84166 9.4489 0
M  V30 2696 O 450.327 -1.51964 8.6881 0
M  V30 2697 O 449.787 -3.29363 6.99321 0
M  V30 2698 C 448.847 -4.23956 6.42656 0
M  V30 2699 C 449.577 -5.20775 5.52155 0
M  V30 2700 O 449.787 -4.56534 4.22446 0
M  V30 2701 C 450.977 -5.62629 5.96531 0
M  V30 2702 O 451.367 -6.87667 5.41053 0
M  V30 2703 C 451.857 -4.52537 5.39283 0
M  V30 2704 C 451.147 -4.20027 4.08623 0
M  V30 2705 N 451.197 -2.7613 3.71522 0
M  V30 2706 C 451.347 -2.45612 2.37989 0
M  V30 2707 O 451.437 -3.30919 1.51621 0
M  V30 2708 N 451.387 -1.10684 2.08435 0
M  V30 2709 C 451.297 -0.0690084 2.9792 0
M  V30 2710 O 451.347 1.10553 2.59426 0
M  V30 2711 C 451.147 -0.481522 4.35345 0
M  V30 2712 C 451.037 0.618778 5.36443 0
M  V30 2713 C 451.097 -1.78906 4.67968 0
M  V30 2714 H 448.357 -4.797 7.24003 0
M  V30 2715 H 448.088 -3.69802 5.84429 0
M  V30 2716 H 448.955 -6.10356 5.41441 0
M  V30 2717 H 451.61 -4.78651 3.27911 0
M  V30 2718 H 451.889 -3.64957 6.05871 0
M  V30 2719 H 452.881 -4.8868 5.2125 0
M  V30 2720 H 451.047 -5.66726 7.06352 0
M  V30 2721 H 450.976 -2.07737 5.72367 0
M  V30 2722 H 452.006 0.754375 5.86871 0
M  V30 2723 H 450.269 0.359721 6.10641 0
M  V30 2724 H 450.757 1.55533 4.8581 0
M  V30 2725 H 451.493 -0.862651 1.12037 0
M  V30 2726 P 452.917 -7.20834 5.23717 0
M  V30 2727 O 453.137 -8.66104 5.38572 0
M  V30 2728 O 453.707 -6.33544 6.1349 0
M  V30 2729 O 453.167 -6.7751 3.72168 0
M  V30 2730 C 452.227 -7.20825 2.7076 0
M  V30 2731 C 452.957 -7.45864 1.40599 0
M  V30 2732 O 453.167 -6.17651 0.734225 0
M  V30 2733 C 454.357 -8.05808 1.51899 0
M  V30 2734 O 454.747 -8.74358 0.335205 0
M  V30 2735 C 455.237 -6.83093 1.70294 0
M  V30 2736 C 454.527 -5.79992 0.836974 0
M  V30 2737 N 454.577 -4.41864 1.38293 0
M  V30 2738 H 451.738 -8.13644 3.0377 0
M  V30 2739 H 451.468 -6.42788 2.55485 0
M  V30 2740 H 452.335 -8.12039 0.792769 0
M  V30 2741 P 456.297 -8.91 -2.59788e-12 0
M  V30 2742 O 456.517 -10.1726 -0.733694 0
M  V30 2743 O 457.087 -8.73148 1.23936 0
M  V30 2744 O 456.547 -7.66872 -0.971405 0
M  V30 2745 C 455.607 -7.42309 -2.04641 0
M  V30 2746 C 456.337 -6.86059 -3.24661 0
M  V30 2747 O 456.547 -5.42847 -3.03646 0
M  V30 2748 C 457.737 -7.41196 -3.50753 0
M  V30 2749 O 458.127 -7.27073 -4.86816 0
M  V30 2750 C 458.617 -6.5273 -2.63741 0
M  V30 2751 C 457.907 -5.1842 -2.73198 0
M  V30 2752 N 457.957 -4.38762 -1.4784 0
M  V30 2753 H 455.118 -8.36803 -2.32493 0
M  V30 2754 H 454.848 -6.70197 -1.71129 0
M  V30 2755 H 455.715 -7.03551 -4.13168 0
M  V30 2756 P 459.677 -7.20834 -5.23717 0
M  V30 2757 O 459.897 -7.7993 -6.57351 0
M  V30 2758 O 460.467 -7.79328 -4.13004 0
M  V30 2759 O 459.927 -5.63315 -5.29344 0
M  V30 2760 C 458.987 -4.80255 -6.01876 0
M  V30 2761 C 459.717 -3.64202 -6.65911 0
M  V30 2762 O 459.927 -2.60694 -5.64732 0
M  V30 2763 C 461.117 -3.93473 -7.1943 0
M  V30 2764 O 461.507 -3.02071 -8.21205 0
M  V30 2765 C 461.997 -3.73047 -5.97036 0
M  V30 2766 C 461.287 -2.58828 -5.25741 0
M  V30 2767 N 461.337 -2.6801 -3.77422 0
M  V30 2768 C 461.487 -1.50173 -3.05038 0
M  V30 2769 O 461.577 -0.428832 -3.665 0
M  V30 2770 N 461.537 -1.70922 -1.55541 0
M  V30 2771 C 461.437 -2.7407 -1.06402 0
M  V30 2772 N 461.487 -2.74764 0.260931 0
M  V30 2773 C 461.287 -3.96781 -1.78296 0
M  V30 2774 C 461.237 -3.87909 -3.13891 0
M  V30 2775 H 458.497 -5.4027 -6.79873 0
M  V30 2776 H 458.228 -4.41549 -5.32301 0
M  V30 2777 H 459.095 -3.26371 -7.47889 0
M  V30 2778 H 461.75 -1.63978 -5.5665 0
M  V30 2779 H 462.029 -4.63439 -5.3432 0
M  V30 2780 H 463.021 -3.44728 -6.25838 0
M  V30 2781 H 461.187 -4.96652 -7.57263 0
M  V30 2782 H 461.115 -4.78425 -3.73088 0
M  V30 2783 H 461.217 -4.92593 -1.26997 0
M  V30 2784 H 461.605 -1.86285 0.77595 0
M  V30 2785 H 461.408 -3.63657 0.773896 0
M  V30 2786 P 463.057 -2.75334 -8.47391 0
M  V30 2787 O 463.277 -2.44619 -9.90336 0
M  V30 2788 O 463.847 -3.87776 -7.92294 0
M  V30 2789 O 463.307 -1.4459 -7.59357 0
M  V30 2790 C 462.367 -0.347653 -7.69315 0
M  V30 2791 C 463.097 0.96767 -7.52806 0
M  V30 2792 O 463.307 1.21055 -6.10208 0
M  V30 2793 C 464.497 1.04557 -8.13408 0
M  V30 2794 O 464.887 2.38311 -8.41922 0
M  V30 2795 C 465.377 0.491279 -7.02284 0
M  V30 2796 C 464.667 0.996264 -5.77469 0
M  V30 2797 N 464.717 0.0501916 -4.62973 0
M  V30 2798 H 461.879 -0.374765 -8.67791 0
M  V30 2799 H 461.607 -0.443613 -6.90476 0
M  V30 2800 H 462.475 1.75559 -7.96891 0
M  V30 2801 H 465.13 1.94563 -5.46818 0
M  V30 2802 H 465.41 -0.608651 -7.04676 0
M  V30 2803 H 466.401 0.889796 -7.09039 0
M  V30 2804 H 464.567 0.433128 -9.04664 0
M  V30 2805 P 466.437 2.75334 -8.47391 0
M  V30 2806 O 466.657 3.84166 -9.4489 0
M  V30 2807 O 467.227 1.51964 -8.6881 0
M  V30 2808 O 466.687 3.29363 -6.99321 0
M  V30 2809 C 465.747 4.23956 -6.42656 0
M  V30 2810 C 466.477 5.20775 -5.52155 0
M  V30 2811 O 466.687 4.56534 -4.22446 0
M  V30 2812 C 467.877 5.62629 -5.96531 0
M  V30 2813 O 468.267 6.87667 -5.41053 0
M  V30 2814 C 468.757 4.52537 -5.39283 0
M  V30 2815 C 468.047 4.20027 -4.08623 0
M  V30 2816 N 468.097 2.7613 -3.71522 0
M  V30 2817 C 468.247 2.45612 -2.37989 0
M  V30 2818 O 468.337 3.30919 -1.51621 0
M  V30 2819 N 468.287 1.10684 -2.08435 0
M  V30 2820 C 468.197 0.0690084 -2.9792 0
M  V30 2821 O 468.247 -1.10553 -2.59426 0
M  V30 2822 C 468.047 0.481522 -4.35345 0
M  V30 2823 C 467.937 -0.618778 -5.36443 0
M  V30 2824 C 467.997 1.78906 -4.67968 0
M  V30 2825 H 465.257 4.797 -7.24003 0
M  V30 2826 H 464.988 3.69802 -5.84429 0
M  V30 2827 H 465.855 6.10356 -5.41441 0
M  V30 2828 H 468.51 4.78651 -3.27911 0
M  V30 2829 H 468.789 3.64957 -6.05871 0
M  V30 2830 H 469.781 4.8868 -5.2125 0
M  V30 2831 H 467.947 5.66726 -7.06352 0
M  V30 2832 H 467.876 2.07737 -5.72367 0
M  V30 2833 H 468.906 -0.754375 -5.86871 0
M  V30 2834 H 467.169 -0.359721 -6.10641 0
M  V30 2835 H 467.657 -1.55533 -4.8581 0
M  V30 2836 H 468.393 0.862651 -1.12037 0
M  V30 2837 P 469.817 7.20834 -5.23717 0
M  V30 2838 O 470.037 8.66104 -5.38572 0
M  V30 2839 O 470.607 6.33544 -6.1349 0
M  V30 2840 O 470.067 6.7751 -3.72168 0
M  V30 2841 C 469.127 7.20825 -2.7076 0
M  V30 2842 C 469.857 7.45864 -1.40599 0
M  V30 2843 O 470.067 6.17651 -0.734225 0
M  V30 2844 C 471.257 8.05808 -1.51899 0
M  V30 2845 O 471.647 8.74358 -0.335205 0
M  V30 2846 C 472.137 6.83093 -1.70294 0
M  V30 2847 C 471.427 5.79992 -0.836974 0
M  V30 2848 N 471.477 4.41864 -1.38293 0
M  V30 2849 H 468.638 8.13644 -3.0377 0
M  V30 2850 H 468.368 6.42788 -2.55485 0
M  V30 2851 H 469.235 8.12039 -0.792769 0
M  V30 2852 P 473.197 8.91 2.75506e-12 0
M  V30 2853 O 473.417 10.1746 0.733838 0
M  V30 2854 O 473.987 8.73346 -1.23964 0
M  V30 2855 O 473.447 7.66872 0.971405 0
M  V30 2856 C 472.507 7.42405 2.04668 0
M  V30 2857 C 473.237 6.86059 3.24661 0
M  V30 2858 O 473.447 5.42934 3.03695 0
M  V30 2859 C 474.637 7.41287 3.50796 0
M  V30 2860 O 475.027 7.27073 4.86816 0
M  V30 2861 C 475.517 6.5273 2.63741 0
M  V30 2862 C 474.807 5.1842 2.73198 0
M  V30 2863 N 474.857 4.38762 1.4784 0
M  V30 2864 C 474.777 4.83651 0.183876 0
M  V30 2865 N 474.847 3.88759 -0.699393 0
M  V30 2866 C 474.997 2.7404 0.0575568 0
M  V30 2867 C 475.127 1.37902 -0.293928 0
M  V30 2868 N 475.137 0.938021 -1.54797 0
M  V30 2869 N 475.247 0.491817 0.70549 0
M  V30 2870 C 475.237 0.931735 1.95979 0
M  V30 2871 N 475.117 2.16017 2.41481 0
M  V30 2872 C 474.997 3.02547 1.39121 0
M  V30 2873 H 472.019 8.36899 2.3252 0
M  V30 2874 H 471.747 6.70391 1.71179 0
M  V30 2875 H 472.615 7.03638 4.13219 0
M  V30 2876 H 475.27 4.59931 3.54016 0
M  V30 2877 H 475.55 6.88995 1.59871 0
M  V30 2878 H 476.541 6.4684 3.0373 0
M  V30 2879 H 474.707 8.47002 3.20749 0
M  V30 2880 H 474.666 5.8885 -0.0765548 0
M  V30 2881 H 475.047 1.60276 -2.32875 0
M  V30 2882 H 475.236 -0.0699355 -1.73859 0
M  V30 2883 H 475.344 0.165507 2.71897 0
M  V30 2884 P 476.577 7.20834 5.23717 0
M  V30 2885 O 476.797 7.79853 6.57286 0
M  V30 2886 O 477.367 7.79239 4.12957 0
M  V30 2887 O 476.827 5.63315 5.29344 0
M  V30 2888 C 475.887 4.80255 6.01876 0
M  V30 2889 C 476.617 3.64202 6.65911 0
M  V30 2890 O 476.827 2.60694 5.64732 0
M  V30 2891 C 478.017 3.93473 7.1943 0
M  V30 2892 O 478.407 3.02071 8.21205 0
M  V30 2893 C 478.897 3.73047 5.97036 0
M  V30 2894 C 478.187 2.58828 5.25741 0
M  V30 2895 N 478.237 2.68068 3.77503 0
M  V30 2896 H 475.398 5.40332 6.79951 0
M  V30 2897 H 475.128 4.41613 5.32378 0
M  V30 2898 H 475.995 3.26331 7.47797 0
M  V30 2899 P 479.957 2.75334 8.47391 0
M  V30 2900 O 480.177 2.44595 9.90239 0
M  V30 2901 O 480.747 3.87732 7.92204 0
M  V30 2902 O 480.207 1.4459 7.59357 0
M  V30 2903 C 479.267 0.347563 7.69115 0
M  V30 2904 C 479.997 -0.96767 7.52806 0
M  V30 2905 O 480.207 -1.21036 6.1011 0
M  V30 2906 C 481.397 -1.04544 8.13308 0
M  V30 2907 O 481.787 -2.38311 8.41922 0
M  V30 2908 C 482.277 -0.491279 7.02284 0
M  V30 2909 C 481.567 -0.996264 5.77469 0
M  V30 2910 N 481.617 -0.0501808 4.62873 0
M  V30 2911 C 481.767 -0.588177 3.36904 0
M  V30 2912 O 481.857 -1.78598 3.17173 0
M  V30 2913 N 481.807 0.329694 2.33686 0
M  V30 2914 C 481.717 1.6953 2.45079 0
M  V30 2915 O 481.767 2.41926 1.44899 0
M  V30 2916 C 481.567 2.16933 3.80505 0
M  V30 2917 C 481.457 3.65373 3.97621 0
M  V30 2918 C 481.517 1.30326 4.83752 0
M  V30 2919 H 478.777 0.374722 8.67691 0
M  V30 2920 H 478.508 0.443421 6.90177 0
M  V30 2921 H 479.375 -1.75537 7.96793 0
M  V30 2922 H 482.03 -1.94496 5.46629 0
M  V30 2923 H 482.309 0.608651 7.04676 0
M  V30 2924 H 483.301 -0.889672 7.08939 0
M  V30 2925 H 481.467 -0.43308 9.04564 0
M  V30 2926 H 481.396 1.68366 5.8516 0
M  V30 2927 H 482.426 4.05985 4.30448 0
M  V30 2928 H 480.689 3.88028 4.72875 0
M  V30 2929 H 481.177 4.11381 3.01609 0
M  V30 2930 H 481.913 -0.0393617 1.41345 0
M  V30 2931 P 483.337 -2.75334 8.47391 0
M  V30 2932 O 483.557 -3.84166 9.4489 0
M  V30 2933 O 484.127 -1.51964 8.6881 0
M  V30 2934 O 483.587 -3.29363 6.99321 0
M  V30 2935 C 482.647 -4.24011 6.4274 0
M  V30 2936 C 483.377 -5.20775 5.52155 0
M  V30 2937 O 483.587 -4.56534 4.22446 0
M  V30 2938 C 484.777 -5.62629 5.96531 0
M  V30 2939 O 485.167 -6.87667 5.41053 0
M  V30 2940 C 485.657 -4.52537 5.39283 0
M  V30 2941 C 484.947 -4.20027 4.08623 0
M  V30 2942 N 484.997 -2.7613 3.71522 0
M  V30 2943 C 485.147 -2.43702 2.37085 0
M  V30 2944 O 485.237 -3.3531 1.54039 0
M  V30 2945 N 485.197 -0.951103 2.10621 0
M  V30 2946 C 485.097 -0.165021 2.93537 0
M  V30 2947 N 485.147 1.09723 2.53253 0
M  V30 2948 C 484.947 -0.469576 4.32458 0
M  V30 2949 C 484.897 -1.78658 4.65921 0
M  V30 2950 H 482.157 -4.79645 7.23919 0
M  V30 2951 H 481.888 -3.69802 5.84429 0
M  V30 2952 H 482.755 -6.10431 5.41508 0
M  V30 2953 H 485.41 -4.78733 3.27967 0
M  V30 2954 H 485.689 -3.64957 6.05871 0
M  V30 2955 H 486.681 -4.8868 5.2125 0
M  V30 2956 H 484.847 -5.66726 7.06352 0
M  V30 2957 H 484.775 -2.06987 5.70299 0
M  V30 2958 H 484.877 0.314383 5.07728 0
M  V30 2959 H 485.265 1.31363 1.5319 0
M  V30 2960 H 485.068 1.85978 3.21943 0
M  V30 2961 P 486.717 -7.20834 5.23717 0
M  V30 2962 O 486.937 -8.66104 5.38572 0
M  V30 2963 O 487.507 -6.33544 6.1349 0
M  V30 2964 O 486.967 -6.7751 3.72168 0
M  V30 2965 C 486.027 -7.20825 2.7076 0
M  V30 2966 C 486.757 -7.45864 1.40599 0
M  V30 2967 O 486.967 -6.17651 0.734225 0
M  V30 2968 C 488.157 -8.05808 1.51899 0
M  V30 2969 O 488.547 -8.74358 0.335205 0
M  V30 2970 C 489.037 -6.83093 1.70294 0
M  V30 2971 C 488.327 -5.79992 0.836974 0
M  V30 2972 N 488.377 -4.41864 1.38293 0
M  V30 2973 H 485.538 -8.13644 3.0377 0
M  V30 2974 H 485.268 -6.42788 2.55485 0
M  V30 2975 H 486.135 -8.12039 0.792769 0
M  V30 2976 P 490.097 -8.91 -2.91224e-12 0
M  V30 2977 O 490.317 -10.1726 -0.733694 0
M  V30 2978 O 490.887 -8.73148 1.23936 0
M  V30 2979 O 490.347 -7.66872 -0.971405 0
M  V30 2980 C 489.407 -7.42309 -2.04641 0
M  V30 2981 C 490.137 -6.86059 -3.24661 0
M  V30 2982 O 490.347 -5.42847 -3.03646 0
M  V30 2983 C 491.537 -7.41196 -3.50753 0
M  V30 2984 O 491.927 -7.27073 -4.86816 0
M  V30 2985 C 492.417 -6.5273 -2.63741 0
M  V30 2986 C 491.707 -5.1842 -2.73198 0
M  V30 2987 N 491.757 -4.38762 -1.4784 0
M  V30 2988 H 488.918 -8.36803 -2.32493 0
M  V30 2989 H 488.648 -6.70197 -1.71129 0
M  V30 2990 H 489.515 -7.03551 -4.13168 0
M  V30 2991 P 493.477 -7.20834 -5.23717 0
M  V30 2992 O 493.697 -7.79853 -6.57286 0
M  V30 2993 O 494.267 -7.79239 -4.12957 0
M  V30 2994 O 493.727 -5.63315 -5.29344 0
M  V30 2995 C 492.787 -4.80255 -6.01876 0
M  V30 2996 C 493.517 -3.64202 -6.65911 0
M  V30 2997 O 493.727 -2.60694 -5.64732 0
M  V30 2998 C 494.917 -3.93473 -7.1943 0
M  V30 2999 O 495.307 -3.02071 -8.21205 0
M  V30 3000 C 495.797 -3.73047 -5.97036 0
M  V30 3001 C 495.087 -2.58828 -5.25741 0
M  V30 3002 N 495.137 -2.68068 -3.77503 0
M  V30 3003 H 492.298 -5.40332 -6.79951 0
M  V30 3004 H 492.028 -4.41613 -5.32378 0
M  V30 3005 H 492.895 -3.26331 -7.47797 0
M  V30 3006 P 496.857 -2.75334 -8.47391 0
M  V30 3007 O 497.077 -2.44571 -9.90142 0
M  V30 3008 O 497.647 -3.87688 -7.92115 0
M  V30 3009 O 497.107 -1.4459 -7.59357 0
M  V30 3010 C 496.167 -0.347608 -7.69215 0
M  V30 3011 C 496.897 0.96767 -7.52806 0
M  V30 3012 O 497.107 1.21036 -6.1011 0
M  V30 3013 C 498.297 1.04544 -8.13308 0
M  V30 3014 O 498.687 2.38311 -8.41922 0
M  V30 3015 C 499.177 0.491279 -7.02284 0
M  V30 3016 C 498.467 0.996264 -5.77469 0
M  V30 3017 N 498.517 0.0501916 -4.62973 0
M  V30 3018 H 495.678 -0.374722 -8.67691 0
M  V30 3019 H 495.408 -0.443485 -6.90277 0
M  V30 3020 H 496.275 1.75537 -7.96793 0
M  V30 3021 P 500.237 2.75334 -8.47391 0
M  V30 3022 O 500.457 3.84128 -9.44797 0
M  V30 3023 O 501.027 1.51947 -8.68712 0
M  V30 3024 O 500.487 3.29363 -6.99321 0
M  V30 3025 C 499.547 4.24011 -6.4274 0
M  V30 3026 C 500.277 5.20775 -5.52155 0
M  V30 3027 O 500.487 4.56534 -4.22446 0
M  V30 3028 C 501.677 5.62629 -5.96531 0
M  V30 3029 O 502.067 6.87667 -5.41053 0
M  V30 3030 C 502.557 4.52537 -5.39283 0
M  V30 3031 C 501.847 4.20027 -4.08623 0
M  V30 3032 N 501.897 2.76189 -3.71603 0
M  V30 3033 H 499.058 4.797 -7.24003 0
M  V30 3034 H 498.788 3.69856 -5.84513 0
M  V30 3035 H 499.655 6.10356 -5.41441 0
M  V30 3036 P 503.617 7.20834 -5.23717 0
M  V30 3037 O 503.837 8.66104 -5.38572 0
M  V30 3038 O 504.407 6.33544 -6.1349 0
M  V30 3039 O 503.867 6.7751 -3.72168 0
M  V30 3040 C 502.927 7.20825 -2.7076 0
M  V30 3041 C 503.657 7.45864 -1.40599 0
M  V30 3042 O 503.867 6.17651 -0.734225 0
M  V30 3043 C 505.057 8.05808 -1.51899 0
M  V30 3044 O 505.447 8.74358 -0.335205 0
M  V30 3045 C 505.937 6.83093 -1.70294 0
M  V30 3046 C 505.227 5.79992 -0.836974 0
M  V30 3047 N 505.277 4.41864 -1.38293 0
M  V30 3048 C 505.197 3.99538 -2.69438 0
M  V30 3049 N 505.277 2.69909 -2.84277 0
M  V30 3050 C 505.417 2.21719 -1.5408 0
M  V30 3051 C 505.547 0.891712 -1.06628 0
M  V30 3052 N 505.667 0.856846 0.334985 0
M  V30 3053 C 505.667 1.9641 1.15789 0
M  V30 3054 N 505.797 1.72708 2.46522 0
M  V30 3055 N 505.537 3.21165 0.713741 0
M  V30 3056 C 505.417 3.26797 -0.639748 0
M  V30 3057 H 502.438 8.13644 -3.0377 0
M  V30 3058 H 502.168 6.42788 -2.55485 0
M  V30 3059 H 503.035 8.12039 -0.792769 0
M  V30 3060 P 506.997 8.91 3.06942e-12 0
M  V30 3061 O 507.217 10.1726 0.733694 0
M  V30 3062 O 507.787 8.73148 -1.23936 0
M  V30 3063 O 507.247 7.66872 0.971405 0
M  V30 3064 C 506.307 7.42309 2.04641 0
M  V30 3065 C 507.037 6.86059 3.24661 0
M  V30 3066 O 507.247 5.42847 3.03646 0
M  V30 3067 C 508.437 7.41196 3.50753 0
M  V30 3068 O 508.827 7.27073 4.86816 0
M  V30 3069 C 509.317 6.5273 2.63741 0
M  V30 3070 C 508.607 5.1842 2.73198 0
M  V30 3071 N 508.657 4.38762 1.4784 0
M  V30 3072 C 508.577 4.81605 0.168631 0
M  V30 3073 N 508.657 3.85454 -0.713363 0
M  V30 3074 C 508.797 2.6994 0.0566958 0
M  V30 3075 C 508.927 1.34815 -0.338502 0
M  V30 3076 O 508.947 0.869548 -1.47125 0
M  V30 3077 N 509.047 0.496304 0.77465 0
M  V30 3078 C 509.047 0.908403 2.09122 0
M  V30 3079 N 509.177 -0.0517805 3.00955 0
M  V30 3080 N 508.917 2.17875 2.46519 0
M  V30 3081 C 508.797 3.01988 1.4033 0
M  V30 3082 H 505.818 8.36803 2.32493 0
M  V30 3083 H 505.548 6.70197 1.71129 0
M  V30 3084 H 506.415 7.03551 4.13168 0
M  V30 3085 H 509.07 4.59498 3.54415 0
M  V30 3086 H 509.349 6.88898 1.59848 0
M  V30 3087 H 510.341 6.46749 3.03687 0
M  V30 3088 H 508.507 8.46908 3.20714 0
M  V30 3089 H 508.458 5.86405 -0.105564 0
M  V30 3090 H 509.14 -0.483664 0.597855 0
M  V30 3091 H 509.177 0.187865 4.0116 0
M  V30 3092 H 509.278 -1.03585 2.71726 0
M  V30 3093 P 510.377 7.20834 5.23717 0
M  V30 3094 O 510.597 7.79853 6.57286 0
M  V30 3095 O 511.167 7.79239 4.12957 0
M  V30 3096 O 510.627 5.63315 5.29344 0
M  V30 3097 C 509.687 4.80255 6.01876 0
M  V30 3098 C 510.417 3.64202 6.65911 0
M  V30 3099 O 510.627 2.60694 5.64732 0
M  V30 3100 C 511.817 3.93473 7.1943 0
M  V30 3101 O 512.207 3.02071 8.21205 0
M  V30 3102 C 512.697 3.73047 5.97036 0
M  V30 3103 C 511.987 2.58828 5.25741 0
M  V30 3104 N 512.037 2.68068 3.77503 0
M  V30 3105 C 511.957 3.79715 2.96723 0
M  V30 3106 N 512.037 3.5377 1.68852 0
M  V30 3107 C 512.177 2.15054 1.63254 0
M  V30 3108 C 512.307 1.28964 0.518571 0
M  V30 3109 O 512.327 1.56826 -0.679156 0
M  V30 3110 N 512.427 -0.0538097 0.918425 0
M  V30 3111 C 512.427 -0.494275 2.22578 0
M  V30 3112 N 512.557 -1.81086 2.40434 0
M  V30 3113 N 512.297 0.313645 3.27502 0
M  V30 3114 C 512.177 1.61829 2.91033 0
M  V30 3115 H 509.198 5.40332 6.79951 0
M  V30 3116 H 508.928 4.41613 5.32378 0
M  V30 3117 H 509.795 3.26331 7.47797 0
M  V30 3118 H 512.45 1.63422 5.56814 0
M  V30 3119 H 512.729 4.63374 5.34244 0
M  V30 3120 H 513.721 3.44728 6.25838 0
M  V30 3121 H 511.887 4.96652 7.57263 0
M  V30 3122 H 511.838 4.80617 3.3614 0
M  V30 3123 H 512.52 -0.742702 0.199384 0
M  V30 3124 H 512.557 -2.20598 3.35588 0
M  V30 3125 H 512.658 -2.43518 1.58945 0
M  V30 3126 P 513.757 2.75334 8.47391 0
M  V30 3127 O 513.977 2.44571 9.90142 0
M  V30 3128 O 514.547 3.87688 7.92115 0
M  V30 3129 O 514.007 1.4459 7.59357 0
M  V30 3130 C 513.067 0.347608 7.69215 0
M  V30 3131 C 513.797 -0.96767 7.52806 0
M  V30 3132 O 514.007 -1.21036 6.1011 0
M  V30 3133 C 515.197 -1.04544 8.13308 0
M  V30 3134 O 515.587 -2.38311 8.41922 0
M  V30 3135 C 516.077 -0.491279 7.02284 0
M  V30 3136 C 515.367 -0.996264 5.77469 0
M  V30 3137 N 515.417 -0.0501916 4.62973 0
M  V30 3138 C 515.337 1.32786 4.63244 0
M  V30 3139 N 515.417 1.86957 3.44545 0
M  V30 3140 C 515.557 0.780241 2.58481 0
M  V30 3141 C 515.687 0.738536 1.17757 0
M  V30 3142 O 515.707 1.66794 0.372349 0
M  V30 3143 N 515.807 -0.58337 0.711393 0
M  V30 3144 C 515.807 -1.70816 1.51017 0
M  V30 3145 N 515.937 -2.87826 0.880757 0
M  V30 3146 N 515.677 -1.67126 2.8339 0
M  V30 3147 C 515.557 -0.401421 3.30572 0
M  V30 3148 H 512.578 0.374722 8.67691 0
M  V30 3149 H 512.308 0.443485 6.90277 0
M  V30 3150 H 513.175 -1.75537 7.96793 0
M  V30 3151 H 515.83 -1.95076 5.46529 0
M  V30 3152 H 516.109 0.608565 7.04577 0
M  V30 3153 H 517.101 -0.889672 7.08939 0
M  V30 3154 H 515.267 -0.43308 9.04564 0
M  V30 3155 H 515.218 1.91249 5.54442 0
M  V30 3156 H 515.9 -0.718054 -0.275244 0
M  V30 3157 H 515.937 -3.75721 1.41832 0
M  V30 3158 H 516.038 -2.90436 -0.145468 0
M  V30 3159 P 517.137 -2.75334 8.47391 0
M  V30 3160 O 517.357 -3.84128 9.44797 0
M  V30 3161 O 517.927 -1.51947 8.68712 0
M  V30 3162 O 517.387 -3.29363 6.99321 0
M  V30 3163 C 516.447 -4.24011 6.4274 0
M  V30 3164 C 517.177 -5.20775 5.52155 0
M  V30 3165 O 517.387 -4.56534 4.22446 0
M  V30 3166 C 518.577 -5.62629 5.96531 0
M  V30 3167 O 518.967 -6.87667 5.41053 0
M  V30 3168 C 519.457 -4.52537 5.39283 0
M  V30 3169 C 518.747 -4.20027 4.08623 0
M  V30 3170 N 518.797 -2.76189 3.71603 0
M  V30 3171 H 515.958 -4.797 7.24003 0
M  V30 3172 H 515.688 -3.69856 5.84513 0
M  V30 3173 H 516.555 -6.10356 5.41441 0
M  V30 3174 P 520.517 -7.20834 5.23717 0
M  V30 3175 O 520.737 -8.66104 5.38572 0
M  V30 3176 O 521.307 -6.33544 6.1349 0
M  V30 3177 O 520.767 -6.7751 3.72168 0
M  V30 3178 C 519.827 -7.20825 2.7076 0
M  V30 3179 C 520.557 -7.45864 1.40599 0
M  V30 3180 O 520.767 -6.17651 0.734225 0
M  V30 3181 C 521.957 -8.05808 1.51899 0
M  V30 3182 O 522.347 -8.74358 0.335205 0
M  V30 3183 C 522.837 -6.83093 1.70294 0
M  V30 3184 C 522.127 -5.79992 0.836974 0
M  V30 3185 N 522.177 -4.41864 1.38293 0
M  V30 3186 C 522.097 -3.99538 2.69438 0
M  V30 3187 N 522.177 -2.69909 2.84277 0
M  V30 3188 C 522.317 -2.21719 1.5408 0
M  V30 3189 C 522.447 -0.891712 1.06628 0
M  V30 3190 O 522.467 0.161298 1.70137 0
M  V30 3191 N 522.567 -0.856846 -0.334985 0
M  V30 3192 C 522.567 -1.9641 -1.15789 0
M  V30 3193 N 522.697 -1.72708 -2.46522 0
M  V30 3194 N 522.437 -3.21165 -0.713741 0
M  V30 3195 C 522.317 -3.26797 0.639748 0
M  V30 3196 H 519.338 -8.13644 3.0377 0
M  V30 3197 H 519.068 -6.42788 2.55485 0
M  V30 3198 H 519.935 -8.12039 0.792769 0
M  V30 3199 H 522.59 -5.80061 -0.166416 0
M  V30 3200 H 522.869 -6.51287 2.75604 0
M  V30 3201 H 523.861 -7.01734 1.34462 0
M  V30 3202 H 522.027 -8.73674 2.38337 0
M  V30 3203 H 521.978 -4.68207 3.53221 0
M  V30 3204 H 522.66 0.0398818 -0.767965 0
M  V30 3205 H 522.697 -2.50995 -3.13503 0
M  V30 3206 H 522.798 -0.759148 -2.80716 0
M  V30 3207 P 523.897 -8.91 -3.22661e-12 0
M  V30 3208 O 524.117 -10.1726 -0.733694 0
M  V30 3209 O 524.687 -8.73148 1.23936 0
M  V30 3210 O 524.147 -7.66872 -0.971405 0
M  V30 3211 C 523.207 -7.42309 -2.04641 0
M  V30 3212 C 523.937 -6.86059 -3.24661 0
M  V30 3213 O 524.147 -5.42847 -3.03646 0
M  V30 3214 C 525.337 -7.41196 -3.50753 0
M  V30 3215 O 525.727 -7.27073 -4.86816 0
M  V30 3216 C 526.217 -6.5273 -2.63741 0
M  V30 3217 C 525.507 -5.1842 -2.73198 0
M  V30 3218 N 525.557 -4.38762 -1.4784 0
M  V30 3219 H 522.718 -8.36803 -2.32493 0
M  V30 3220 H 522.448 -6.70197 -1.71129 0
M  V30 3221 H 523.315 -7.03551 -4.13168 0
M  V30 3222 P 527.277 -7.20834 -5.23717 0
M  V30 3223 O 527.497 -7.80006 -6.57415 0
M  V30 3224 O 528.067 -7.79416 -4.13051 0
M  V30 3225 O 527.527 -5.63315 -5.29344 0
M  V30 3226 C 526.587 -4.80318 -6.01954 0
M  V30 3227 C 527.317 -3.64202 -6.65911 0
M  V30 3228 O 527.527 -2.60736 -5.64823 0
M  V30 3229 C 528.717 -3.93521 -7.19518 0
M  V30 3230 O 529.107 -3.02071 -8.21205 0
M  V30 3231 C 529.597 -3.73047 -5.97036 0
M  V30 3232 C 528.887 -2.58828 -5.25741 0
M  V30 3233 N 528.937 -2.68068 -3.77503 0
M  V30 3234 C 528.857 -3.80474 -2.99159 0
M  V30 3235 N 528.927 -3.55622 -1.71925 0
M  V30 3236 C 529.077 -2.1832 -1.65733 0
M  V30 3237 C 529.207 -1.28842 -0.572777 0
M  V30 3238 N 529.217 -1.66875 0.70098 0
M  V30 3239 N 529.327 0.016788 -0.859836 0
M  V30 3240 C 529.317 0.398145 -2.13316 0
M  V30 3241 N 529.197 -0.328224 -3.22333 0
M  V30 3242 C 529.077 -1.62992 -2.90383 0
M  V30 3243 H 526.099 -5.40394 -6.8003 0
M  V30 3244 H 525.827 -4.41741 -5.32532 0
M  V30 3245 H 526.695 -3.26371 -7.47889 0
M  V30 3246 H 529.35 -1.64007 -5.56746 0
M  V30 3247 H 529.63 -4.63439 -5.3432 0
M  V30 3248 H 530.621 -3.44776 -6.25925 0
M  V30 3249 H 528.787 -4.96707 -7.57347 0
M  V30 3250 H 528.746 -4.8089 -3.39924 0
M  V30 3251 H 529.127 -2.66547 0.941919 0
M  V30 3252 H 529.316 -0.965341 1.44766 0
M  V30 3253 H 529.424 1.46427 -2.29697 0
M  V30 3254 P 530.657 -2.75334 -8.47391 0
M  V30 3255 O 530.877 -2.44619 -9.90336 0
M  V30 3256 O 531.447 -3.87776 -7.92294 0
M  V30 3257 O 530.907 -1.4459 -7.59357 0
M  V30 3258 C 529.967 -0.347653 -7.69315 0
M  V30 3259 C 530.697 0.96767 -7.52806 0
M  V30 3260 O 530.907 1.21055 -6.10208 0
M  V30 3261 C 532.097 1.04557 -8.13408 0
M  V30 3262 O 532.487 2.38311 -8.41922 0
M  V30 3263 C 532.977 0.491279 -7.02284 0
M  V30 3264 C 532.267 0.996264 -5.77469 0
M  V30 3265 N 532.317 0.0501916 -4.62973 0
M  V30 3266 H 529.479 -0.374765 -8.67791 0
M  V30 3267 H 529.207 -0.443613 -6.90476 0
M  V30 3268 H 530.075 1.75559 -7.96891 0
M  V30 3269 H 532.73 1.94563 -5.46818 0
M  V30 3270 H 533.01 -0.608651 -7.04676 0
M  V30 3271 H 534.001 0.889796 -7.09039 0
M  V30 3272 H 532.167 0.433128 -9.04664 0
M  V30 3273 P 534.037 2.75334 -8.47391 0
M  V30 3274 O 534.257 3.84166 -9.4489 0
M  V30 3275 O 534.827 1.51964 -8.6881 0
M  V30 3276 O 534.287 3.29363 -6.99321 0
M  V30 3277 C 533.347 4.23956 -6.42656 0
M  V30 3278 C 534.077 5.20775 -5.52155 0
M  V30 3279 O 534.287 4.56534 -4.22446 0
M  V30 3280 C 535.477 5.62629 -5.96531 0
M  V30 3281 O 535.867 6.87667 -5.41053 0
M  V30 3282 C 536.357 4.52537 -5.39283 0
M  V30 3283 C 535.647 4.20027 -4.08623 0
M  V30 3284 N 535.697 2.7613 -3.71522 0
M  V30 3285 C 535.847 2.45612 -2.37989 0
M  V30 3286 O 535.937 3.30919 -1.51621 0
M  V30 3287 N 535.887 1.10684 -2.08435 0
M  V30 3288 C 535.797 0.0690084 -2.9792 0
M  V30 3289 C 535.647 0.481522 -4.35345 0
M  V30 3290 C 535.597 1.78906 -4.67968 0
M  V30 3291 H 532.857 4.797 -7.24003 0
M  V30 3292 H 532.588 3.69802 -5.84429 0
M  V30 3293 H 533.455 6.10356 -5.41441 0
M  V30 3294 H 536.11 4.78651 -3.27911 0
M  V30 3295 H 536.389 3.64957 -6.05871 0
M  V30 3296 H 537.381 4.8868 -5.2125 0
M  V30 3297 H 535.547 5.66726 -7.06352 0
M  V30 3298 H 535.476 2.07737 -5.72367 0
M  V30 3299 P 537.417 7.20834 -5.23717 0
M  V30 3300 O 537.637 8.66104 -5.38572 0
M  V30 3301 O 538.207 6.33544 -6.1349 0
M  V30 3302 O 537.667 6.7751 -3.72168 0
M  V30 3303 C 536.727 7.20825 -2.7076 0
M  V30 3304 C 537.457 7.45864 -1.40599 0
M  V30 3305 O 537.667 6.17651 -0.734225 0
M  V30 3306 C 538.857 8.05808 -1.51899 0
M  V30 3307 O 539.247 8.74358 -0.335205 0
M  V30 3308 C 539.737 6.83093 -1.70294 0
M  V30 3309 C 539.027 5.79992 -0.836974 0
M  V30 3310 N 539.077 4.41864 -1.38293 0
M  V30 3311 H 536.238 8.13644 -3.0377 0
M  V30 3312 H 535.968 6.42788 -2.55485 0
M  V30 3313 H 536.835 8.12039 -0.792769 0
M  V30 3314 P 540.797 8.91 3.38379e-12 0
M  V30 3315 O 541.017 10.1726 0.733694 0
M  V30 3316 O 541.587 8.73148 -1.23936 0
M  V30 3317 O 541.047 7.66872 0.971405 0
M  V30 3318 C 540.107 7.42309 2.04641 0
M  V30 3319 C 540.837 6.86059 3.24661 0
M  V30 3320 O 541.047 5.42847 3.03646 0
M  V30 3321 C 542.237 7.41196 3.50753 0
M  V30 3322 O 542.627 7.27073 4.86816 0
M  V30 3323 C 543.117 6.5273 2.63741 0
M  V30 3324 C 542.407 5.1842 2.73198 0
M  V30 3325 N 542.457 4.38762 1.4784 0
M  V30 3326 H 539.618 8.36803 2.32493 0
M  V30 3327 H 539.348 6.70197 1.71129 0
M  V30 3328 H 540.215 7.03551 4.13168 0
M  V30 3329 P 544.177 7.20834 5.23717 0
M  V30 3330 O 544.397 7.7993 6.57351 0
M  V30 3331 O 544.967 7.79328 4.13004 0
M  V30 3332 O 544.427 5.63315 5.29344 0
M  V30 3333 C 543.487 4.80193 6.01798 0
M  V30 3334 C 544.217 3.64202 6.65911 0
M  V30 3335 O 544.427 2.60694 5.64732 0
M  V30 3336 C 545.617 3.93473 7.1943 0
M  V30 3337 O 546.007 3.02071 8.21205 0
M  V30 3338 C 546.497 3.73047 5.97036 0
M  V30 3339 C 545.787 2.58828 5.25741 0
M  V30 3340 N 545.837 2.6801 3.77422 0
M  V30 3341 C 545.987 1.50443 3.07133 0
M  V30 3342 O 546.077 0.419406 3.61576 0
M  V30 3343 N 546.027 1.6403 1.69677 0
M  V30 3344 C 545.937 2.81206 0.986255 0
M  V30 3345 O 545.987 2.80892 -0.249754 0
M  V30 3346 C 545.787 3.99158 1.80325 0
M  V30 3347 C 545.677 5.29309 1.06921 0
M  V30 3348 C 545.737 3.89779 3.1476 0
M  V30 3349 H 542.997 5.40332 6.79951 0
M  V30 3350 H 542.728 4.41549 5.32301 0
M  V30 3351 H 543.595 3.26331 7.47797 0
M  V30 3352 H 546.25 1.6395 5.56554 0
M  V30 3353 H 546.529 4.63439 5.3432 0
M  V30 3354 H 547.521 3.44728 6.25838 0
M  V30 3355 H 545.687 4.96652 7.57263 0
M  V30 3356 H 545.616 4.80159 3.74441 0
M  V30 3357 H 546.646 5.81459 1.09608 0
M  V30 3358 H 544.909 5.9187 1.54487 0
M  V30 3359 H 545.397 5.10095 0.0220288 0
M  V30 3360 H 546.133 0.798962 1.16664 0
M  V30 3361 P 547.557 2.75334 8.47391 0
M  V30 3362 O 547.777 2.44571 9.90142 0
M  V30 3363 O 548.347 3.87688 7.92115 0
M  V30 3364 O 547.807 1.4459 7.59357 0
M  V30 3365 C 546.867 0.347608 7.69215 0
M  V30 3366 C 547.597 -0.96767 7.52806 0
M  V30 3367 O 547.807 -1.21036 6.1011 0
M  V30 3368 C 548.997 -1.04544 8.13308 0
M  V30 3369 O 549.387 -2.38311 8.41922 0
M  V30 3370 C 549.877 -0.491279 7.02284 0
M  V30 3371 C 549.167 -0.996264 5.77469 0
M  V30 3372 N 549.217 -0.0501916 4.62973 0
M  V30 3373 H 546.378 0.374722 8.67691 0
M  V30 3374 H 546.108 0.443485 6.90277 0
M  V30 3375 H 546.975 -1.75537 7.96793 0
M  V30 3376 P 550.937 -2.75334 8.47391 0
M  V30 3377 O 551.157 -3.84128 9.44797 0
M  V30 3378 O 551.727 -1.51947 8.68712 0
M  V30 3379 O 551.187 -3.29363 6.99321 0
M  V30 3380 C 550.247 -4.24011 6.4274 0
M  V30 3381 C 550.977 -5.20775 5.52155 0
M  V30 3382 O 551.187 -4.56534 4.22446 0
M  V30 3383 C 552.377 -5.62629 5.96531 0
M  V30 3384 O 552.767 -6.87667 5.41053 0
M  V30 3385 C 553.257 -4.52537 5.39283 0
M  V30 3386 C 552.547 -4.20027 4.08623 0
M  V30 3387 N 552.597 -2.76189 3.71603 0
M  V30 3388 C 552.517 -1.64862 4.52822 0
M  V30 3389 N 552.597 -0.512671 3.88633 0
M  V30 3390 C 552.737 -0.888083 2.54977 0
M  V30 3391 C 552.867 -0.094668 1.38677 0
M  V30 3392 O 552.887 1.13053 1.28163 0
M  V30 3393 N 552.987 -0.890102 0.232633 0
M  V30 3394 C 552.987 -2.26958 0.21772 0
M  V30 3395 N 553.117 -2.84626 -0.97925 0
M  V30 3396 N 552.857 -3.0178 1.31033 0
M  V30 3397 C 552.737 -2.26781 2.43843 0
M  V30 3398 H 549.758 -4.797 7.24003 0
M  V30 3399 H 549.488 -3.69856 5.84513 0
M  V30 3400 H 550.355 -6.10356 5.41441 0
M  V30 3401 H 553.01 -4.79061 3.27488 0
M  V30 3402 H 553.289 -3.64906 6.05785 0
M  V30 3403 H 554.281 -4.8868 5.2125 0
M  V30 3404 H 552.447 -5.66726 7.06352 0
M  V30 3405 H 552.398 -1.71169 5.60966 0
M  V30 3406 H 553.08 -0.419134 -0.644739 0
M  V30 3407 H 553.117 -3.87332 -1.06098 0
M  V30 3408 H 553.218 -2.26417 -1.82483 0
M  V30 3409 P 554.317 -7.20834 5.23717 0
M  V30 3410 O 554.537 -8.66189 5.38625 0
M  V30 3411 O 555.107 -6.33615 6.1356 0
M  V30 3412 O 554.567 -6.7751 3.72168 0
M  V30 3413 C 553.627 -7.20732 2.70725 0
M  V30 3414 C 554.357 -7.45864 1.40599 0
M  V30 3415 O 554.567 -6.17651 0.734225 0
M  V30 3416 C 555.757 -8.05808 1.51899 0
M  V30 3417 O 556.147 -8.74358 0.335205 0
M  V30 3418 C 556.637 -6.83093 1.70294 0
M  V30 3419 C 555.927 -5.79992 0.836974 0
M  V30 3420 N 555.977 -4.41769 1.38263 0
M  V30 3421 C 556.127 -3.38591 0.481702 0
M  V30 3422 O 556.217 -3.56839 -0.718452 0
M  V30 3423 N 556.167 -2.1206 1.03569 0
M  V30 3424 C 556.077 -1.80696 2.36966 0
M  V30 3425 O 556.127 -0.630473 2.74862 0
M  V30 3426 C 555.927 -2.94845 3.23898 0
M  V30 3427 C 555.817 -2.65253 4.70362 0
M  V30 3428 C 555.877 -4.19803 2.73435 0
M  V30 3429 H 553.137 -8.13644 3.0377 0
M  V30 3430 H 552.868 -6.42695 2.55448 0
M  V30 3431 H 553.735 -8.12039 0.792769 0
M  V30 3432 H 556.39 -5.79978 -0.160587 0
M  V30 3433 H 556.669 -6.51379 2.75643 0
M  V30 3434 H 557.661 -7.01734 1.34462 0
M  V30 3435 H 555.827 -8.73674 2.38337 0
M  V30 3436 H 555.756 -5.04492 3.4095 0
M  V30 3437 H 556.786 -2.83924 5.1913 0
M  V30 3438 H 555.049 -3.29824 5.15163 0
M  V30 3439 H 555.537 -1.59723 4.84449 0
M  V30 3440 H 556.273 -1.35644 0.399345 0
M  V30 3441 P 557.697 -8.91 -3.54097e-12 0
M  V30 3442 O 557.917 -10.1726 -0.733694 0
M  V30 3443 O 558.487 -8.73148 1.23936 0
M  V30 3444 O 557.947 -7.66872 -0.971405 0
M  V30 3445 C 557.007 -7.42309 -2.04641 0
M  V30 3446 C 557.737 -6.86059 -3.24661 0
M  V30 3447 O 557.947 -5.42847 -3.03646 0
M  V30 3448 C 559.137 -7.41196 -3.50753 0
M  V30 3449 O 559.527 -7.27073 -4.86816 0
M  V30 3450 C 560.017 -6.5273 -2.63741 0
M  V30 3451 C 559.307 -5.1842 -2.73198 0
M  V30 3452 N 559.357 -4.38762 -1.4784 0
M  V30 3453 H 556.518 -8.36803 -2.32493 0
M  V30 3454 H 556.248 -6.70197 -1.71129 0
M  V30 3455 H 557.115 -7.03551 -4.13168 0
M  V30 3456 P 561.077 -7.20834 -5.23717 0
M  V30 3457 O 561.297 -7.79853 -6.57286 0
M  V30 3458 O 561.867 -7.79239 -4.12957 0
M  V30 3459 O 561.327 -5.63315 -5.29344 0
M  V30 3460 C 560.387 -4.80255 -6.01876 0
M  V30 3461 C 561.117 -3.64202 -6.65911 0
M  V30 3462 O 561.327 -2.60694 -5.64732 0
M  V30 3463 C 562.517 -3.93473 -7.1943 0
M  V30 3464 O 562.907 -3.02071 -8.21205 0
M  V30 3465 C 563.397 -3.73047 -5.97036 0
M  V30 3466 C 562.687 -2.58828 -5.25741 0
M  V30 3467 N 562.737 -2.68068 -3.77503 0
M  V30 3468 C 562.657 -3.79715 -2.96723 0
M  V30 3469 N 562.737 -3.5377 -1.68852 0
M  V30 3470 C 562.877 -2.15054 -1.63254 0
M  V30 3471 C 563.007 -1.28964 -0.518571 0
M  V30 3472 N 563.127 0.0538097 -0.918425 0
M  V30 3473 C 563.127 0.494275 -2.22578 0
M  V30 3474 N 563.257 1.81086 -2.40434 0
M  V30 3475 N 562.997 -0.313645 -3.27502 0
M  V30 3476 C 562.877 -1.61829 -2.91033 0
M  V30 3477 H 559.898 -5.40332 -6.79951 0
M  V30 3478 H 559.628 -4.41613 -5.32378 0
M  V30 3479 H 560.495 -3.26331 -7.47797 0
M  V30 3480 P 564.457 -2.75334 -8.47391 0
M  V30 3481 O 564.677 -2.44571 -9.90142 0
M  V30 3482 O 565.247 -3.87688 -7.92115 0
M  V30 3483 O 564.707 -1.4459 -7.59357 0
M  V30 3484 C 563.767 -0.347608 -7.69215 0
M  V30 3485 C 564.497 0.96767 -7.52806 0
M  V30 3486 O 564.707 1.21036 -6.1011 0
M  V30 3487 C 565.897 1.04544 -8.13308 0
M  V30 3488 O 566.287 2.38311 -8.41922 0
M  V30 3489 C 566.777 0.491279 -7.02284 0
M  V30 3490 C 566.067 0.996264 -5.77469 0
M  V30 3491 N 566.117 0.0501916 -4.62973 0
M  V30 3492 H 563.278 -0.374722 -8.67691 0
M  V30 3493 H 563.008 -0.443485 -6.90277 0
M  V30 3494 H 563.875 1.75537 -7.96793 0
M  V30 3495 P 567.837 2.75334 -8.47391 0
M  V30 3496 O 568.057 3.84128 -9.44797 0
M  V30 3497 O 568.627 1.51947 -8.68712 0
M  V30 3498 O 568.087 3.29363 -6.99321 0
M  V30 3499 C 567.147 4.24011 -6.4274 0
M  V30 3500 C 567.877 5.20775 -5.52155 0
M  V30 3501 O 568.087 4.56534 -4.22446 0
M  V30 3502 C 569.277 5.62629 -5.96531 0
M  V30 3503 O 569.667 6.87667 -5.41053 0
M  V30 3504 C 570.157 4.52537 -5.39283 0
M  V30 3505 C 569.447 4.20027 -4.08623 0
M  V30 3506 N 569.497 2.76189 -3.71603 0
M  V30 3507 H 566.658 4.797 -7.24003 0
M  V30 3508 H 566.388 3.69856 -5.84513 0
M  V30 3509 H 567.255 6.10356 -5.41441 0
M  V30 3510 P 571.217 7.20834 -5.23717 0
M  V30 3511 O 571.437 8.66104 -5.38572 0
M  V30 3512 O 572.007 6.33544 -6.1349 0
M  V30 3513 O 571.467 6.7751 -3.72168 0
M  V30 3514 C 570.527 7.20825 -2.7076 0
M  V30 3515 C 571.257 7.45864 -1.40599 0
M  V30 3516 O 571.467 6.17651 -0.734225 0
M  V30 3517 C 572.657 8.05808 -1.51899 0
M  V30 3518 O 573.047 8.74358 -0.335205 0
M  V30 3519 C 573.537 6.83093 -1.70294 0
M  V30 3520 C 572.827 5.79992 -0.836974 0
M  V30 3521 N 572.877 4.41864 -1.38293 0
M  V30 3522 C 572.797 3.99538 -2.69438 0
M  V30 3523 N 572.877 2.69909 -2.84277 0
M  V30 3524 C 573.017 2.21719 -1.5408 0
M  V30 3525 C 573.147 0.891712 -1.06628 0
M  V30 3526 N 573.267 0.856846 0.334985 0
M  V30 3527 C 573.267 1.9641 1.15789 0
M  V30 3528 N 573.397 1.72708 2.46522 0
M  V30 3529 N 573.137 3.21165 0.713741 0
M  V30 3530 C 573.017 3.26797 -0.639748 0
M  V30 3531 H 570.038 8.13644 -3.0377 0
M  V30 3532 H 569.768 6.42788 -2.55485 0
M  V30 3533 H 570.635 8.12039 -0.792769 0
M  V30 3534 P 574.597 8.91 3.69815e-12 0
M  V30 3535 O 574.817 10.1726 0.733694 0
M  V30 3536 O 575.387 8.73148 -1.23936 0
M  V30 3537 O 574.847 7.66872 0.971405 0
M  V30 3538 C 573.907 7.42309 2.04641 0
M  V30 3539 C 574.637 6.86059 3.24661 0
M  V30 3540 O 574.847 5.42847 3.03646 0
M  V30 3541 C 576.037 7.41196 3.50753 0
M  V30 3542 O 576.427 7.27073 4.86816 0
M  V30 3543 C 576.917 6.5273 2.63741 0
M  V30 3544 C 576.207 5.1842 2.73198 0
M  V30 3545 N 576.257 4.38762 1.4784 0
M  V30 3546 H 573.418 8.36803 2.32493 0
M  V30 3547 H 573.148 6.70197 1.71129 0
M  V30 3548 H 574.015 7.03551 4.13168 0
M  V30 3549 P 577.977 7.20834 5.23717 0
M  V30 3550 O 578.197 7.79853 6.57286 0
M  V30 3551 O 578.767 7.79239 4.12957 0
M  V30 3552 O 578.227 5.63315 5.29344 0
M  V30 3553 C 577.287 4.80255 6.01876 0
M  V30 3554 C 578.017 3.64202 6.65911 0
M  V30 3555 O 578.227 2.60694 5.64732 0
M  V30 3556 C 579.417 3.93473 7.1943 0
M  V30 3557 O 579.807 3.02071 8.21205 0
M  V30 3558 C 580.297 3.73047 5.97036 0
M  V30 3559 C 579.587 2.58828 5.25741 0
M  V30 3560 N 579.637 2.68068 3.77503 0
M  V30 3561 H 576.798 5.40332 6.79951 0
M  V30 3562 H 576.528 4.41613 5.32378 0
M  V30 3563 H 577.395 3.26331 7.47797 0
M  V30 3564 P 581.357 2.75334 8.47391 0
M  V30 3565 O 581.577 2.44619 9.90336 0
M  V30 3566 O 582.147 3.87776 7.92294 0
M  V30 3567 O 581.607 1.4459 7.59357 0
M  V30 3568 C 580.667 0.347653 7.69315 0
M  V30 3569 C 581.397 -0.96767 7.52806 0
M  V30 3570 O 581.607 -1.21055 6.10208 0
M  V30 3571 C 582.797 -1.04557 8.13408 0
M  V30 3572 O 583.187 -2.38311 8.41922 0
M  V30 3573 C 583.677 -0.491279 7.02284 0
M  V30 3574 C 582.967 -0.996264 5.77469 0
M  V30 3575 N 583.017 -0.0501916 4.62973 0
M  V30 3576 C 582.937 1.31969 4.65661 0
M  V30 3577 N 583.007 1.86649 3.48119 0
M  V30 3578 C 583.157 0.792089 2.62406 0
M  V30 3579 C 583.287 0.705684 1.2207 0
M  V30 3580 N 583.297 1.76207 0.413762 0
M  V30 3581 N 583.407 -0.518981 0.685754 0
M  V30 3582 C 583.397 -1.57595 1.49174 0
M  V30 3583 N 583.277 -1.62909 2.80066 0
M  V30 3584 C 583.157 -0.388195 3.3073 0
M  V30 3585 H 580.179 0.374765 8.67791 0
M  V30 3586 H 579.907 0.443613 6.90476 0
M  V30 3587 H 580.775 -1.75559 7.96891 0
M  V30 3588 H 583.43 -1.94563 5.46818 0
M  V30 3589 H 583.71 0.608651 7.04676 0
M  V30 3590 H 584.701 -0.889796 7.09039 0
M  V30 3591 H 582.867 -0.433128 9.04664 0
M  V30 3592 H 582.826 1.89246 5.57664 0
M  V30 3593 H 583.207 2.71005 0.804694 0
M  V30 3594 H 583.396 1.63189 -0.603768 0
M  V30 3595 H 583.504 -2.53475 0.997614 0
M  V30 3596 P 584.737 -2.75334 8.47391 0
M  V30 3597 O 584.957 -3.84128 9.44797 0
M  V30 3598 O 585.527 -1.51947 8.68712 0
M  V30 3599 O 584.987 -3.29363 6.99321 0
M  V30 3600 C 584.047 -4.24011 6.4274 0
M  V30 3601 C 584.777 -5.20775 5.52155 0
M  V30 3602 O 584.987 -4.56534 4.22446 0
M  V30 3603 C 586.177 -5.62629 5.96531 0
M  V30 3604 O 586.567 -6.87667 5.41053 0
M  V30 3605 C 587.057 -4.52537 5.39283 0
M  V30 3606 C 586.347 -4.20027 4.08623 0
M  V30 3607 N 586.397 -2.76189 3.71603 0
M  V30 3608 H 583.558 -4.797 7.24003 0
M  V30 3609 H 583.288 -3.69856 5.84513 0
M  V30 3610 H 584.155 -6.10356 5.41441 0
M  V30 3611 P 588.117 -7.20834 5.23717 0
M  V30 3612 O 588.337 -8.66274 5.38678 0
M  V30 3613 O 588.907 -6.33687 6.13629 0
M  V30 3614 O 588.367 -6.7751 3.72168 0
M  V30 3615 C 587.427 -7.20919 2.70795 0
M  V30 3616 C 588.157 -7.45864 1.40599 0
M  V30 3617 O 588.367 -6.17751 0.734343 0
M  V30 3618 C 589.557 -8.05906 1.51917 0
M  V30 3619 O 589.947 -8.74358 0.335205 0
M  V30 3620 C 590.437 -6.83093 1.70294 0
M  V30 3621 C 589.727 -5.79992 0.836974 0
M  V30 3622 N 589.777 -4.41864 1.38293 0
M  V30 3623 C 589.697 -4.02089 2.69407 0
M  V30 3624 N 589.767 -2.73403 2.85089 0
M  V30 3625 C 589.917 -2.25086 1.5642 0
M  V30 3626 C 590.047 -0.942887 1.04836 0
M  V30 3627 N 590.057 0.150999 1.80369 0
M  V30 3628 N 590.167 -0.812565 -0.28167 0
M  V30 3629 C 590.157 -1.90572 -1.03784 0
M  V30 3630 N 590.037 -3.167 -0.683905 0
M  V30 3631 C 589.917 -3.26538 0.652815 0
M  V30 3632 H 586.939 -8.13738 3.03804 0
M  V30 3633 H 586.667 -6.42974 2.55559 0
M  V30 3634 H 587.535 -8.12139 0.792866 0
M  V30 3635 H 590.19 -5.80178 -0.160643 0
M  V30 3636 H 590.47 -6.51379 2.75643 0
M  V30 3637 H 591.461 -7.01832 1.3448 0
M  V30 3638 H 589.627 -8.73771 2.38364 0
M  V30 3639 H 589.586 -4.7189 3.52311 0
M  V30 3640 H 589.967 0.0721434 2.82608 0
M  V30 3641 H 590.156 1.0785 1.36544 0
M  V30 3642 H 590.264 -1.73207 -2.10241 0
M  V30 3643 P 591.496 -8.91 -3.85533e-12 0
M  V30 3644 O 591.716 -10.1726 -0.733694 0
M  V30 3645 O 592.286 -8.73148 1.23936 0
M  V30 3646 O 591.746 -7.66872 -0.971405 0
M  V30 3647 C 590.806 -7.42309 -2.04641 0
M  V30 3648 C 591.536 -6.86059 -3.24661 0
M  V30 3649 O 591.746 -5.42847 -3.03646 0
M  V30 3650 C 592.937 -7.41196 -3.50753 0
M  V30 3651 O 593.327 -7.27073 -4.86816 0
M  V30 3652 C 593.817 -6.5273 -2.63741 0
M  V30 3653 C 593.106 -5.1842 -2.73198 0
M  V30 3654 N 593.156 -4.38762 -1.4784 0
M  V30 3655 H 590.317 -8.36803 -2.32493 0
M  V30 3656 H 590.048 -6.70197 -1.71129 0
M  V30 3657 H 590.914 -7.03551 -4.13168 0
M  V30 3658 P 594.876 -7.20834 -5.23717 0
M  V30 3659 O 595.096 -7.79853 -6.57286 0
M  V30 3660 O 595.666 -7.79239 -4.12957 0
M  V30 3661 O 595.126 -5.63315 -5.29344 0
M  V30 3662 C 594.186 -4.80255 -6.01876 0
M  V30 3663 C 594.916 -3.64202 -6.65911 0
M  V30 3664 O 595.126 -2.60694 -5.64732 0
M  V30 3665 C 596.316 -3.93473 -7.1943 0
M  V30 3666 O 596.706 -3.02071 -8.21205 0
M  V30 3667 C 597.196 -3.73047 -5.97036 0
M  V30 3668 C 596.486 -2.58828 -5.25741 0
M  V30 3669 N 596.536 -2.68068 -3.77503 0
M  V30 3670 C 596.456 -3.79715 -2.96723 0
M  V30 3671 N 596.536 -3.5377 -1.68852 0
M  V30 3672 C 596.676 -2.15054 -1.63254 0
M  V30 3673 C 596.806 -1.28964 -0.518571 0
M  V30 3674 N 596.926 0.0538097 -0.918425 0
M  V30 3675 C 596.926 0.494275 -2.22578 0
M  V30 3676 N 597.056 1.81086 -2.40434 0
M  V30 3677 N 596.796 -0.313645 -3.27502 0
M  V30 3678 C 596.676 -1.61829 -2.91033 0
M  V30 3679 H 593.697 -5.40332 -6.79951 0
M  V30 3680 H 593.427 -4.41613 -5.32378 0
M  V30 3681 H 594.294 -3.26331 -7.47797 0
M  V30 3682 P 598.256 -2.75334 -8.47391 0
M  V30 3683 O 598.476 -2.44595 -9.90239 0
M  V30 3684 O 599.046 -3.87732 -7.92204 0
M  V30 3685 O 598.506 -1.4459 -7.59357 0
M  V30 3686 C 597.566 -0.347563 -7.69115 0
M  V30 3687 C 598.296 0.96767 -7.52806 0
M  V30 3688 O 598.506 1.21036 -6.1011 0
M  V30 3689 C 599.696 1.04544 -8.13308 0
M  V30 3690 O 600.086 2.38311 -8.41922 0
M  V30 3691 C 600.576 0.491279 -7.02284 0
M  V30 3692 C 599.866 0.996264 -5.77469 0
M  V30 3693 N 599.916 0.0501808 -4.62873 0
M  V30 3694 C 600.066 0.588177 -3.36904 0
M  V30 3695 O 600.156 1.78598 -3.17173 0
M  V30 3696 N 600.106 -0.329694 -2.33686 0
M  V30 3697 C 600.016 -1.6953 -2.45079 0
M  V30 3698 C 599.866 -2.16933 -3.80505 0
M  V30 3699 C 599.816 -1.30326 -4.83752 0
M  V30 3700 H 597.076 -0.374722 -8.67691 0
M  V30 3701 H 596.807 -0.443421 -6.90177 0
M  V30 3702 H 597.674 1.75537 -7.96793 0
M  V30 3703 H 600.329 1.94496 -5.46629 0
M  V30 3704 H 600.608 -0.608651 -7.04676 0
M  V30 3705 H 601.6 0.889672 -7.08939 0
M  V30 3706 H 599.766 0.43308 -9.04564 0
M  V30 3707 H 599.695 -1.68366 -5.8516 0
M  V30 3708 P 601.636 2.75334 -8.47391 0
M  V30 3709 O 601.856 3.84128 -9.44797 0
M  V30 3710 O 602.426 1.51947 -8.68712 0
M  V30 3711 O 601.886 3.29363 -6.99321 0
M  V30 3712 C 600.946 4.24011 -6.4274 0
M  V30 3713 C 601.676 5.20775 -5.52155 0
M  V30 3714 O 601.886 4.56534 -4.22446 0
M  V30 3715 C 603.076 5.62629 -5.96531 0
M  V30 3716 O 603.466 6.87667 -5.41053 0
M  V30 3717 C 603.956 4.52537 -5.39283 0
M  V30 3718 C 603.246 4.20027 -4.08623 0
M  V30 3719 N 603.296 2.76189 -3.71603 0
M  V30 3720 C 603.216 1.64862 -4.52822 0
M  V30 3721 N 603.296 0.512671 -3.88633 0
M  V30 3722 C 603.436 0.888083 -2.54977 0
M  V30 3723 C 603.566 0.094668 -1.38677 0
M  V30 3724 O 603.586 -1.13053 -1.28163 0
M  V30 3725 N 603.686 0.890102 -0.232633 0
M  V30 3726 C 603.686 2.26958 -0.21772 0
M  V30 3727 N 603.816 2.84626 0.97925 0
M  V30 3728 N 603.556 3.0178 -1.31033 0
M  V30 3729 C 603.436 2.26781 -2.43843 0
M  V30 3730 H 600.457 4.797 -7.24003 0
M  V30 3731 H 600.187 3.69856 -5.84513 0
M  V30 3732 H 601.054 6.10356 -5.41441 0
M  V30 3733 H 603.709 4.79061 -3.27488 0
M  V30 3734 H 603.988 3.64906 -6.05785 0
M  V30 3735 H 604.98 4.8868 -5.2125 0
M  V30 3736 H 603.146 5.66726 -7.06352 0
M  V30 3737 H 603.097 1.71169 -5.60966 0
M  V30 3738 H 603.779 0.419134 0.644739 0
M  V30 3739 H 603.816 3.87332 1.06098 0
M  V30 3740 H 603.917 2.26417 1.82483 0
M  V30 3741 P 605.016 7.20834 -5.23717 0
M  V30 3742 O 605.236 8.66104 -5.38572 0
M  V30 3743 O 605.806 6.33544 -6.1349 0
M  V30 3744 O 605.266 6.7751 -3.72168 0
M  V30 3745 C 604.326 7.20825 -2.7076 0
M  V30 3746 C 605.056 7.45864 -1.40599 0
M  V30 3747 O 605.266 6.17651 -0.734225 0
M  V30 3748 C 606.456 8.05808 -1.51899 0
M  V30 3749 O 606.846 8.74358 -0.335205 0
M  V30 3750 C 607.336 6.83093 -1.70294 0
M  V30 3751 C 606.626 5.79992 -0.836974 0
M  V30 3752 N 606.676 4.41864 -1.38293 0
M  V30 3753 H 603.837 8.13644 -3.0377 0
M  V30 3754 H 603.567 6.42788 -2.55485 0
M  V30 3755 H 604.434 8.12039 -0.792769 0
M  V30 3756 P 608.396 8.91 4.01252e-12 0
M  V30 3757 O 608.616 10.1726 0.733694 0
M  V30 3758 O 609.186 8.73148 -1.23936 0
M  V30 3759 O 608.646 7.66872 0.971405 0
M  V30 3760 C 607.706 7.42309 2.04641 0
M  V30 3761 C 608.436 6.86059 3.24661 0
M  V30 3762 O 608.646 5.42847 3.03646 0
M  V30 3763 C 609.836 7.41196 3.50753 0
M  V30 3764 O 610.226 7.27073 4.86816 0
M  V30 3765 C 610.716 6.5273 2.63741 0
M  V30 3766 C 610.006 5.1842 2.73198 0
M  V30 3767 N 610.056 4.38762 1.4784 0
M  V30 3768 H 607.217 8.36803 2.32493 0
M  V30 3769 H 606.947 6.70197 1.71129 0
M  V30 3770 H 607.814 7.03551 4.13168 0
M  V30 3771 P 611.776 7.20834 5.23717 0
M  V30 3772 O 611.996 7.79853 6.57286 0
M  V30 3773 O 612.566 7.79239 4.12957 0
M  V30 3774 O 612.026 5.63315 5.29344 0
M  V30 3775 C 611.086 4.80255 6.01876 0
M  V30 3776 C 611.816 3.64202 6.65911 0
M  V30 3777 O 612.026 2.60694 5.64732 0
M  V30 3778 C 613.216 3.93473 7.1943 0
M  V30 3779 O 613.606 3.02071 8.21205 0
M  V30 3780 C 614.096 3.73047 5.97036 0
M  V30 3781 C 613.386 2.58828 5.25741 0
M  V30 3782 N 613.436 2.68068 3.77503 0
M  V30 3783 C 613.356 3.79715 2.96723 0
M  V30 3784 N 613.436 3.5377 1.68852 0
M  V30 3785 C 613.576 2.15054 1.63254 0
M  V30 3786 C 613.706 1.28964 0.518571 0
M  V30 3787 O 613.726 1.56826 -0.679156 0
M  V30 3788 N 613.826 -0.0538097 0.918425 0
M  V30 3789 C 613.826 -0.494275 2.22578 0
M  V30 3790 N 613.956 -1.81086 2.40434 0
M  V30 3791 N 613.696 0.313645 3.27502 0
M  V30 3792 C 613.576 1.61829 2.91033 0
M  V30 3793 H 610.597 5.40332 6.79951 0
M  V30 3794 H 610.327 4.41613 5.32378 0
M  V30 3795 H 611.194 3.26331 7.47797 0
M  V30 3796 H 613.849 1.63422 5.56814 0
M  V30 3797 H 614.128 4.63374 5.34244 0
M  V30 3798 H 615.12 3.44728 6.25838 0
M  V30 3799 H 613.286 4.96652 7.57263 0
M  V30 3800 H 613.237 4.80617 3.3614 0
M  V30 3801 H 613.919 -0.742702 0.199384 0
M  V30 3802 H 613.956 -2.20598 3.35588 0
M  V30 3803 H 614.057 -2.43518 1.58945 0
M  V30 3804 P 615.156 2.75334 8.47391 0
M  V30 3805 O 615.376 2.44571 9.90142 0
M  V30 3806 O 615.946 3.87688 7.92115 0
M  V30 3807 O 615.406 1.4459 7.59357 0
M  V30 3808 C 614.466 0.347608 7.69215 0
M  V30 3809 C 615.196 -0.96767 7.52806 0
M  V30 3810 O 615.406 -1.21036 6.1011 0
M  V30 3811 C 616.596 -1.04544 8.13308 0
M  V30 3812 O 616.986 -2.38311 8.41922 0
M  V30 3813 C 617.476 -0.491279 7.02284 0
M  V30 3814 C 616.766 -0.996264 5.77469 0
M  V30 3815 N 616.816 -0.0501916 4.62973 0
M  V30 3816 H 613.977 0.374722 8.67691 0
M  V30 3817 H 613.707 0.443485 6.90277 0
M  V30 3818 H 614.574 -1.75537 7.96793 0
M  V30 3819 P 618.536 -2.75334 8.47391 0
M  V30 3820 O 618.756 -3.84128 9.44797 0
M  V30 3821 O 619.326 -1.51947 8.68712 0
M  V30 3822 O 618.786 -3.29363 6.99321 0
M  V30 3823 C 617.846 -4.24011 6.4274 0
M  V30 3824 C 618.576 -5.20775 5.52155 0
M  V30 3825 O 618.786 -4.56534 4.22446 0
M  V30 3826 C 619.976 -5.62629 5.96531 0
M  V30 3827 O 620.366 -6.87667 5.41053 0
M  V30 3828 C 620.856 -4.52537 5.39283 0
M  V30 3829 C 620.146 -4.20027 4.08623 0
M  V30 3830 N 620.196 -2.76189 3.71603 0
M  V30 3831 H 617.357 -4.797 7.24003 0
M  V30 3832 H 617.087 -3.69856 5.84513 0
M  V30 3833 H 617.954 -6.10356 5.41441 0
M  V30 3834 P 621.916 -7.20834 5.23717 0
M  V30 3835 O 622.136 -8.66104 5.38572 0
M  V30 3836 O 622.706 -6.33544 6.1349 0
M  V30 3837 O 622.166 -6.7751 3.72168 0
M  V30 3838 C 621.226 -7.20825 2.7076 0
M  V30 3839 C 621.956 -7.45864 1.40599 0
M  V30 3840 O 622.166 -6.17651 0.734225 0
M  V30 3841 C 623.356 -8.05808 1.51899 0
M  V30 3842 O 623.746 -8.74358 0.335205 0
M  V30 3843 C 624.236 -6.83093 1.70294 0
M  V30 3844 C 623.526 -5.79992 0.836974 0
M  V30 3845 N 623.576 -4.41864 1.38293 0
M  V30 3846 H 620.737 -8.13644 3.0377 0
M  V30 3847 H 620.467 -6.42788 2.55485 0
M  V30 3848 H 621.334 -8.12039 0.792769 0
M  V30 3849 P 625.296 -8.91 -4.1697e-12 0
M  V30 3850 O 625.516 -10.1726 -0.733694 0
M  V30 3851 O 626.086 -8.73148 1.23936 0
M  V30 3852 O 625.546 -7.66872 -0.971405 0
M  V30 3853 C 624.606 -7.42309 -2.04641 0
M  V30 3854 C 625.336 -6.86059 -3.24661 0
M  V30 3855 O 625.546 -5.42847 -3.03646 0
M  V30 3856 C 626.736 -7.41196 -3.50753 0
M  V30 3857 O 627.126 -7.27073 -4.86816 0
M  V30 3858 C 627.616 -6.5273 -2.63741 0
M  V30 3859 C 626.906 -5.1842 -2.73198 0
M  V30 3860 N 626.956 -4.38762 -1.4784 0
M  V30 3861 H 624.117 -8.36803 -2.32493 0
M  V30 3862 H 623.847 -6.70197 -1.71129 0
M  V30 3863 H 624.714 -7.03551 -4.13168 0
M  V30 3864 P 628.676 -7.20834 -5.23717 0
M  V30 3865 O 628.896 -7.79853 -6.57286 0
M  V30 3866 O 629.466 -7.79239 -4.12957 0
M  V30 3867 O 628.926 -5.63315 -5.29344 0
M  V30 3868 C 627.986 -4.80255 -6.01876 0
M  V30 3869 C 628.716 -3.64202 -6.65911 0
M  V30 3870 O 628.926 -2.60694 -5.64732 0
M  V30 3871 C 630.116 -3.93473 -7.1943 0
M  V30 3872 O 630.506 -3.02071 -8.21205 0
M  V30 3873 C 630.996 -3.73047 -5.97036 0
M  V30 3874 C 630.286 -2.58828 -5.25741 0
M  V30 3875 N 630.336 -2.68068 -3.77503 0
M  V30 3876 H 627.497 -5.40332 -6.79951 0
M  V30 3877 H 627.227 -4.41613 -5.32378 0
M  V30 3878 H 628.094 -3.26331 -7.47797 0
M  V30 3879 P 632.056 -2.75334 -8.47391 0
M  V30 3880 O 632.276 -2.44571 -9.90142 0
M  V30 3881 O 632.846 -3.87688 -7.92115 0
M  V30 3882 O 632.306 -1.4459 -7.59357 0
M  V30 3883 C 631.366 -0.347608 -7.69215 0
M  V30 3884 C 632.096 0.96767 -7.52806 0
M  V30 3885 O 632.306 1.21036 -6.1011 0
M  V30 3886 C 633.496 1.04544 -8.13308 0
M  V30 3887 O 633.886 2.38311 -8.41922 0
M  V30 3888 C 634.376 0.491279 -7.02284 0
M  V30 3889 C 633.666 0.996264 -5.77469 0
M  V30 3890 N 633.716 0.0501916 -4.62973 0
M  V30 3891 H 630.877 -0.374722 -8.67691 0
M  V30 3892 H 630.607 -0.443485 -6.90277 0
M  V30 3893 H 631.474 1.75537 -7.96793 0
M  V30 3894 P 635.436 2.75334 -8.47391 0
M  V30 3895 O 635.656 3.84128 -9.44797 0
M  V30 3896 O 636.226 1.51947 -8.68712 0
M  V30 3897 O 635.686 3.29363 -6.99321 0
M  V30 3898 C 634.746 4.24011 -6.4274 0
M  V30 3899 C 635.476 5.20775 -5.52155 0
M  V30 3900 O 635.686 4.56534 -4.22446 0
M  V30 3901 C 636.876 5.62629 -5.96531 0
M  V30 3902 O 637.266 6.87667 -5.41053 0
M  V30 3903 C 637.756 4.52537 -5.39283 0
M  V30 3904 C 637.046 4.20027 -4.08623 0
M  V30 3905 N 637.096 2.76189 -3.71603 0
M  V30 3906 H 634.257 4.797 -7.24003 0
M  V30 3907 H 633.987 3.69856 -5.84513 0
M  V30 3908 H 634.854 6.10356 -5.41441 0
M  V30 3909 P 638.816 7.20834 -5.23717 0
M  V30 3910 O 639.036 8.66274 -5.38678 0
M  V30 3911 O 639.606 6.33687 -6.13629 0
M  V30 3912 O 639.066 6.7751 -3.72168 0
M  V30 3913 C 638.126 7.20919 -2.70795 0
M  V30 3914 C 638.856 7.45864 -1.40599 0
M  V30 3915 O 639.066 6.17751 -0.734343 0
M  V30 3916 C 640.256 8.05906 -1.51917 0
M  V30 3917 O 640.646 8.74358 -0.335205 0
M  V30 3918 C 641.136 6.83093 -1.70294 0
M  V30 3919 C 640.426 5.79992 -0.836974 0
M  V30 3920 N 640.476 4.41864 -1.38293 0
M  V30 3921 C 640.396 4.02089 -2.69407 0
M  V30 3922 N 640.466 2.73403 -2.85089 0
M  V30 3923 C 640.616 2.25086 -1.5642 0
M  V30 3924 C 640.746 0.942887 -1.04836 0
M  V30 3925 N 640.756 -0.150999 -1.80369 0
M  V30 3926 N 640.866 0.812565 0.28167 0
M  V30 3927 C 640.856 1.90572 1.03784 0
M  V30 3928 N 640.736 3.167 0.683905 0
M  V30 3929 C 640.616 3.26538 -0.652815 0
M  V30 3930 H 637.638 8.13738 -3.03804 0
M  V30 3931 H 637.366 6.42974 -2.55559 0
M  V30 3932 H 638.234 8.12139 -0.792866 0
M  V30 3933 H 640.889 5.80178 0.160643 0
M  V30 3934 H 641.169 6.51379 -2.75643 0
M  V30 3935 H 642.16 7.01832 -1.3448 0
M  V30 3936 H 640.326 8.73771 -2.38364 0
M  V30 3937 H 640.285 4.7189 -3.52311 0
M  V30 3938 H 640.666 -0.0721434 -2.82608 0
M  V30 3939 H 640.855 -1.0785 -1.36544 0
M  V30 3940 H 640.963 1.73207 2.10241 0
M  V30 3941 P 642.196 8.91 4.32688e-12 0
M  V30 3942 O 642.416 10.1736 0.733766 0
M  V30 3943 O 642.986 8.73247 -1.2395 0
M  V30 3944 O 642.446 7.66872 0.971405 0
M  V30 3945 C 641.506 7.42212 2.04614 0
M  V30 3946 C 642.236 6.86059 3.24661 0
M  V30 3947 O 642.446 5.42847 3.03646 0
M  V30 3948 C 643.636 7.41196 3.50753 0
M  V30 3949 O 644.026 7.27073 4.86816 0
M  V30 3950 C 644.516 6.5273 2.63741 0
M  V30 3951 C 643.806 5.1842 2.73198 0
M  V30 3952 N 643.856 4.38668 1.47808 0
M  V30 3953 C 644.006 3.02239 1.60048 0
M  V30 3954 O 644.096 2.46459 2.67869 0
M  V30 3955 N 644.046 2.32436 0.408571 0
M  V30 3956 C 643.956 2.85471 -0.854993 0
M  V30 3957 C 643.806 4.28918 -0.887335 0
M  V30 3958 C 643.756 5.00349 0.255399 0
M  V30 3959 H 641.016 8.36803 2.32493 0
M  V30 3960 H 640.747 6.701 1.71105 0
M  V30 3961 H 641.614 7.03551 4.13168 0
M  V30 3962 H 644.269 4.59773 3.53894 0
M  V30 3963 H 644.548 6.88995 1.59871 0
M  V30 3964 H 645.54 6.46749 3.03687 0
M  V30 3965 H 643.706 8.46908 3.20714 0
M  V30 3966 H 643.635 6.08548 0.206986 0
M  V30 3967 P 645.576 7.20834 5.23717 0
M  V30 3968 O 645.796 7.80006 6.57415 0
M  V30 3969 O 646.366 7.79416 4.13051 0
M  V30 3970 O 645.826 5.63315 5.29344 0
M  V30 3971 C 644.886 4.80318 6.01954 0
M  V30 3972 C 645.616 3.64202 6.65911 0
M  V30 3973 O 645.826 2.60736 5.64823 0
M  V30 3974 C 647.016 3.93521 7.19518 0
M  V30 3975 O 647.406 3.02071 8.21205 0
M  V30 3976 C 647.896 3.73047 5.97036 0
M  V30 3977 C 647.186 2.58828 5.25741 0
M  V30 3978 N 647.236 2.68068 3.77503 0
M  V30 3979 C 647.156 3.80474 2.99159 0
M  V30 3980 N 647.226 3.55622 1.71925 0
M  V30 3981 C 647.376 2.1832 1.65733 0
M  V30 3982 C 647.506 1.28842 0.572777 0
M  V30 3983 N 647.516 1.66875 -0.70098 0
M  V30 3984 N 647.626 -0.016788 0.859836 0
M  V30 3985 C 647.616 -0.398145 2.13316 0
M  V30 3986 N 647.496 0.328224 3.22333 0
M  V30 3987 C 647.376 1.62992 2.90383 0
M  V30 3988 H 644.398 5.40394 6.8003 0
M  V30 3989 H 644.126 4.41741 5.32532 0
M  V30 3990 H 644.994 3.26371 7.47889 0
M  V30 3991 H 647.649 1.64007 5.56746 0
M  V30 3992 H 647.929 4.63439 5.3432 0
M  V30 3993 H 648.92 3.44776 6.25925 0
M  V30 3994 H 647.086 4.96707 7.57347 0
M  V30 3995 H 647.045 4.8089 3.39924 0
M  V30 3996 H 647.426 2.66547 -0.941919 0
M  V30 3997 H 647.615 0.965341 -1.44766 0
M  V30 3998 H 647.723 -1.46427 2.29697 0
M  V30 3999 P 648.956 2.75334 8.47391 0
M  V30 4000 O 649.176 2.44571 9.90142 0
M  V30 4001 O 649.746 3.87688 7.92115 0
M  V30 4002 O 649.206 1.4459 7.59357 0
M  V30 4003 C 648.266 0.347608 7.69215 0
M  V30 4004 C 648.996 -0.96767 7.52806 0
M  V30 4005 O 649.206 -1.21036 6.1011 0
M  V30 4006 C 650.396 -1.04544 8.13308 0
M  V30 4007 O 650.786 -2.38311 8.41922 0
M  V30 4008 C 651.276 -0.491279 7.02284 0
M  V30 4009 C 650.566 -0.996264 5.77469 0
M  V30 4010 N 650.616 -0.0501916 4.62973 0
M  V30 4011 C 650.536 1.32786 4.63244 0
M  V30 4012 N 650.616 1.86957 3.44545 0
M  V30 4013 C 650.756 0.780241 2.58481 0
M  V30 4014 C 650.886 0.738536 1.17757 0
M  V30 4015 N 651.006 -0.58337 0.711393 0
M  V30 4016 C 651.006 -1.70816 1.51017 0
M  V30 4017 N 651.136 -2.87826 0.880757 0
M  V30 4018 N 650.876 -1.67126 2.8339 0
M  V30 4019 C 650.756 -0.401421 3.30572 0
M  V30 4020 H 647.777 0.374722 8.67691 0
M  V30 4021 H 647.507 0.443485 6.90277 0
M  V30 4022 H 648.374 -1.75537 7.96793 0
M  V30 4023 P 652.336 -2.75334 8.47391 0
M  V30 4024 O 652.556 -3.84204 9.44982 0
M  V30 4025 O 653.126 -1.51982 8.68909 0
M  V30 4026 O 652.586 -3.29363 6.99321 0
M  V30 4027 C 651.646 -4.24066 6.42823 0
M  V30 4028 C 652.376 -5.20775 5.52155 0
M  V30 4029 O 652.586 -4.56607 4.22514 0
M  V30 4030 C 653.776 -5.62697 5.96604 0
M  V30 4031 O 654.166 -6.87667 5.41053 0
M  V30 4032 C 654.656 -4.52537 5.39283 0
M  V30 4033 C 653.946 -4.20027 4.08623 0
M  V30 4034 N 653.996 -2.76189 3.71603 0
M  V30 4035 C 653.916 -1.66944 4.54297 0
M  V30 4036 N 653.986 -0.536169 3.91344 0
M  V30 4037 C 654.136 -0.901569 2.58849 0
M  V30 4038 C 654.266 -0.146599 1.40236 0
M  V30 4039 N 654.276 1.18234 1.37046 0
M  V30 4040 N 654.386 -0.822941 0.249738 0
M  V30 4041 C 654.376 -2.15179 0.280525 0
M  V30 4042 N 654.256 -2.96414 1.30822 0
M  V30 4043 C 654.136 -2.25804 2.44748 0
M  V30 4044 H 651.158 -4.79756 7.24086 0
M  V30 4045 H 650.886 -3.69963 5.84682 0
M  V30 4046 H 651.754 -6.10431 5.41508 0
M  V30 4047 H 654.409 -4.78816 3.28024 0
M  V30 4048 H 654.689 -3.64957 6.05871 0
M  V30 4049 H 655.68 -4.88748 5.21323 0
M  V30 4050 H 653.846 -5.66789 7.0643 0
M  V30 4051 H 653.805 -1.74684 5.62396 0
M  V30 4052 H 654.186 1.71949 2.24394 0
M  V30 4053 H 654.375 1.67511 0.470742 0
M  V30 4054 H 654.483 -2.63704 -0.6828 0
M  V30 4055 P 655.716 -7.20834 5.23717 0
M  V30 4056 O 655.936 -8.66104 5.38572 0
M  V30 4057 O 656.506 -6.33544 6.1349 0
M  V30 4058 O 655.966 -6.7751 3.72168 0
M  V30 4059 C 655.026 -7.20825 2.7076 0
M  V30 4060 C 655.756 -7.45864 1.40599 0
M  V30 4061 O 655.966 -6.17651 0.734225 0
M  V30 4062 C 657.156 -8.05808 1.51899 0
M  V30 4063 O 657.546 -8.74358 0.335205 0
M  V30 4064 C 658.036 -6.83093 1.70294 0
M  V30 4065 C 657.326 -5.79992 0.836974 0
M  V30 4066 N 657.376 -4.41864 1.38293 0
M  V30 4067 H 654.537 -8.13644 3.0377 0
M  V30 4068 H 654.267 -6.42788 2.55485 0
M  V30 4069 H 655.134 -8.12039 0.792769 0
M  V30 4070 P 659.096 -8.91 -4.48406e-12 0
M  V30 4071 O 659.316 -10.1726 -0.733694 0
M  V30 4072 O 659.886 -8.73148 1.23936 0
M  V30 4073 O 659.346 -7.66872 -0.971405 0
M  V30 4074 C 658.406 -7.42309 -2.04641 0
M  V30 4075 C 659.136 -6.86059 -3.24661 0
M  V30 4076 O 659.346 -5.42847 -3.03646 0
M  V30 4077 C 660.536 -7.41196 -3.50753 0
M  V30 4078 O 660.926 -7.27073 -4.86816 0
M  V30 4079 C 661.416 -6.5273 -2.63741 0
M  V30 4080 C 660.706 -5.1842 -2.73198 0
M  V30 4081 N 660.756 -4.38762 -1.4784 0
M  V30 4082 H 657.917 -8.36803 -2.32493 0
M  V30 4083 H 657.647 -6.70197 -1.71129 0
M  V30 4084 H 658.514 -7.03551 -4.13168 0
M  V30 4085 P 662.476 -7.20834 -5.23717 0
M  V30 4086 O 662.696 -7.7993 -6.57351 0
M  V30 4087 O 663.266 -7.79328 -4.13004 0
M  V30 4088 O 662.726 -5.63315 -5.29344 0
M  V30 4089 C 661.786 -4.80193 -6.01798 0
M  V30 4090 C 662.516 -3.64202 -6.65911 0
M  V30 4091 O 662.726 -2.60694 -5.64732 0
M  V30 4092 C 663.916 -3.93473 -7.1943 0
M  V30 4093 O 664.306 -3.02071 -8.21205 0
M  V30 4094 C 664.796 -3.73047 -5.97036 0
M  V30 4095 C 664.086 -2.58828 -5.25741 0
M  V30 4096 N 664.136 -2.6801 -3.77422 0
M  V30 4097 C 664.286 -1.50443 -3.07133 0
M  V30 4098 O 664.376 -0.419406 -3.61576 0
M  V30 4099 N 664.326 -1.6403 -1.69677 0
M  V30 4100 C 664.236 -2.81206 -0.986255 0
M  V30 4101 O 664.286 -2.80892 0.249754 0
M  V30 4102 C 664.086 -3.99158 -1.80325 0
M  V30 4103 C 663.976 -5.29309 -1.06921 0
M  V30 4104 C 664.036 -3.89779 -3.1476 0
M  V30 4105 H 661.296 -5.40332 -6.79951 0
M  V30 4106 H 661.027 -4.41549 -5.32301 0
M  V30 4107 H 661.894 -3.26331 -7.47797 0
M  V30 4108 H 664.549 -1.6395 -5.56554 0
M  V30 4109 H 664.828 -4.63439 -5.3432 0
M  V30 4110 H 665.82 -3.44728 -6.25838 0
M  V30 4111 H 663.986 -4.96652 -7.57263 0
M  V30 4112 H 663.915 -4.80159 -3.74441 0
M  V30 4113 H 664.945 -5.81459 -1.09608 0
M  V30 4114 H 663.208 -5.9187 -1.54487 0
M  V30 4115 H 663.696 -5.10095 -0.0220288 0
M  V30 4116 H 664.432 -0.798962 -1.16664 0
M  V30 4117 P 665.856 -2.75334 -8.47391 0
M  V30 4118 O 666.076 -2.44571 -9.90142 0
M  V30 4119 O 666.646 -3.87688 -7.92115 0
M  V30 4120 O 666.106 -1.4459 -7.59357 0
M  V30 4121 C 665.166 -0.347608 -7.69215 0
M  V30 4122 C 665.896 0.96767 -7.52806 0
M  V30 4123 O 666.106 1.21036 -6.1011 0
M  V30 4124 C 667.296 1.04544 -8.13308 0
M  V30 4125 O 667.686 2.38311 -8.41922 0
M  V30 4126 C 668.176 0.491279 -7.02284 0
M  V30 4127 C 667.466 0.996264 -5.77469 0
M  V30 4128 N 667.516 0.0501916 -4.62973 0
M  V30 4129 H 664.677 -0.374722 -8.67691 0
M  V30 4130 H 664.407 -0.443485 -6.90277 0
M  V30 4131 H 665.274 1.75537 -7.96793 0
M  V30 4132 P 669.236 2.75334 -8.47391 0
M  V30 4133 O 669.456 3.84204 -9.44982 0
M  V30 4134 O 670.026 1.51982 -8.68909 0
M  V30 4135 O 669.486 3.29363 -6.99321 0
M  V30 4136 C 668.546 4.24066 -6.42823 0
M  V30 4137 C 669.276 5.20775 -5.52155 0
M  V30 4138 O 669.486 4.56607 -4.22514 0
M  V30 4139 C 670.676 5.62697 -5.96604 0
M  V30 4140 O 671.066 6.87667 -5.41053 0
M  V30 4141 C 671.556 4.52537 -5.39283 0
M  V30 4142 C 670.846 4.20027 -4.08623 0
M  V30 4143 N 670.896 2.76189 -3.71603 0
M  V30 4144 H 668.058 4.79756 -7.24086 0
M  V30 4145 H 667.786 3.69963 -5.84682 0
M  V30 4146 H 668.654 6.10431 -5.41508 0
M  V30 4147 H 671.309 4.78816 -3.28024 0
M  V30 4148 H 671.589 3.64957 -6.05871 0
M  V30 4149 H 672.58 4.88748 -5.21323 0
M  V30 4150 H 670.746 5.66789 -7.0643 0
M  V30 4151 P 672.616 7.20834 -5.23717 0
M  V30 4152 O 672.836 8.66104 -5.38572 0
M  V30 4153 O 673.406 6.33544 -6.1349 0
M  V30 4154 O 672.866 6.7751 -3.72168 0
M  V30 4155 C 671.926 7.20825 -2.7076 0
M  V30 4156 C 672.656 7.45864 -1.40599 0
M  V30 4157 O 672.866 6.17651 -0.734225 0
M  V30 4158 C 674.056 8.05808 -1.51899 0
M  V30 4159 O 674.446 8.74358 -0.335205 0
M  V30 4160 C 674.936 6.83093 -1.70294 0
M  V30 4161 C 674.226 5.79992 -0.836974 0
M  V30 4162 N 674.276 4.41864 -1.38293 0
M  V30 4163 H 671.437 8.13644 -3.0377 0
M  V30 4164 H 671.167 6.42788 -2.55485 0
M  V30 4165 H 672.034 8.12039 -0.792769 0
M  V30 4166 P 675.996 8.91 4.64125e-12 0
M  V30 4167 O 676.216 10.1736 0.733766 0
M  V30 4168 O 676.786 8.73247 -1.2395 0
M  V30 4169 O 676.246 7.66872 0.971405 0
M  V30 4170 C 675.306 7.42212 2.04614 0
M  V30 4171 C 676.036 6.86059 3.24661 0
M  V30 4172 O 676.246 5.42847 3.03646 0
M  V30 4173 C 677.436 7.41196 3.50753 0
M  V30 4174 O 677.826 7.27073 4.86816 0
M  V30 4175 C 678.316 6.5273 2.63741 0
M  V30 4176 C 677.606 5.1842 2.73198 0
M  V30 4177 N 677.656 4.38668 1.47808 0
M  V30 4178 C 677.806 3.02239 1.60048 0
M  V30 4179 O 677.896 2.46459 2.67869 0
M  V30 4180 N 677.846 2.32436 0.408571 0
M  V30 4181 C 677.756 2.85471 -0.854993 0
M  V30 4182 O 677.806 2.12566 -1.8531 0
M  V30 4183 C 677.606 4.28918 -0.887335 0
M  V30 4184 C 677.496 4.91066 -2.24619 0
M  V30 4185 C 677.556 5.00349 0.255399 0
M  V30 4186 H 674.816 8.36803 2.32493 0
M  V30 4187 H 674.547 6.701 1.71105 0
M  V30 4188 H 675.414 7.03551 4.13168 0
M  V30 4189 H 678.069 4.59773 3.53894 0
M  V30 4190 H 678.348 6.88995 1.59871 0
M  V30 4191 H 679.34 6.46749 3.03687 0
M  V30 4192 H 677.506 8.46908 3.20714 0
M  V30 4193 H 677.435 6.08548 0.206986 0
M  V30 4194 H 678.465 5.34836 -2.53099 0
M  V30 4195 H 676.728 5.69638 -2.2291 0
M  V30 4196 H 677.216 4.13971 -2.98044 0
M  V30 4197 H 677.952 1.33211 0.474216 0
M  V30 4198 P 679.376 7.20834 5.23717 0
M  V30 4199 O 679.596 7.79853 6.57286 0
M  V30 4200 O 680.166 7.79239 4.12957 0
M  V30 4201 O 679.626 5.63315 5.29344 0
M  V30 4202 C 678.686 4.80255 6.01876 0
M  V30 4203 C 679.416 3.64202 6.65911 0
M  V30 4204 O 679.626 2.60694 5.64732 0
M  V30 4205 C 680.816 3.93473 7.1943 0
M  V30 4206 O 681.206 3.02071 8.21205 0
M  V30 4207 C 681.696 3.73047 5.97036 0
M  V30 4208 C 680.986 2.58828 5.25741 0
M  V30 4209 N 681.036 2.68068 3.77503 0
M  V30 4210 H 678.197 5.40332 6.79951 0
M  V30 4211 H 677.927 4.41613 5.32378 0
M  V30 4212 H 678.794 3.26331 7.47797 0
M  V30 4213 P 682.756 2.75334 8.47391 0
M  V30 4214 O 682.976 2.44571 9.90142 0
M  V30 4215 O 683.546 3.87688 7.92115 0
M  V30 4216 O 683.006 1.4459 7.59357 0
M  V30 4217 C 682.066 0.347608 7.69215 0
M  V30 4218 C 682.796 -0.96767 7.52806 0
M  V30 4219 O 683.006 -1.21036 6.1011 0
M  V30 4220 C 684.196 -1.04544 8.13308 0
M  V30 4221 O 684.586 -2.38311 8.41922 0
M  V30 4222 C 685.076 -0.491279 7.02284 0
M  V30 4223 C 684.366 -0.996264 5.77469 0
M  V30 4224 N 684.416 -0.0501916 4.62973 0
M  V30 4225 H 681.577 0.374722 8.67691 0
M  V30 4226 H 681.307 0.443485 6.90277 0
M  V30 4227 H 682.174 -1.75537 7.96793 0
M  V30 4228 P 686.136 -2.75334 8.47391 0
M  V30 4229 O 686.356 -3.84128 9.44797 0
M  V30 4230 O 686.926 -1.51947 8.68712 0
M  V30 4231 O 686.386 -3.29363 6.99321 0
M  V30 4232 C 685.446 -4.24011 6.4274 0
M  V30 4233 C 686.176 -5.20775 5.52155 0
M  V30 4234 O 686.386 -4.56534 4.22446 0
M  V30 4235 C 687.576 -5.62629 5.96531 0
M  V30 4236 O 687.966 -6.87667 5.41053 0
M  V30 4237 C 688.456 -4.52537 5.39283 0
M  V30 4238 C 687.746 -4.20027 4.08623 0
M  V30 4239 N 687.796 -2.76189 3.71603 0
M  V30 4240 H 684.957 -4.797 7.24003 0
M  V30 4241 H 684.687 -3.69856 5.84513 0
M  V30 4242 H 685.554 -6.10356 5.41441 0
M  V30 4243 P 689.516 -7.20834 5.23717 0
M  V30 4244 O 689.736 -8.66189 5.38625 0
M  V30 4245 O 690.306 -6.33615 6.1356 0
M  V30 4246 O 689.766 -6.7751 3.72168 0
M  V30 4247 C 688.826 -7.20732 2.70725 0
M  V30 4248 C 689.556 -7.45864 1.40599 0
M  V30 4249 O 689.766 -6.17651 0.734225 0
M  V30 4250 C 690.956 -8.05808 1.51899 0
M  V30 4251 O 691.346 -8.74358 0.335205 0
M  V30 4252 C 691.836 -6.83093 1.70294 0
M  V30 4253 C 691.126 -5.79992 0.836974 0
M  V30 4254 N 691.176 -4.41769 1.38263 0
M  V30 4255 C 691.326 -3.38591 0.481702 0
M  V30 4256 O 691.416 -3.56839 -0.718452 0
M  V30 4257 N 691.366 -2.1206 1.03569 0
M  V30 4258 C 691.276 -1.80696 2.36966 0
M  V30 4259 C 691.126 -2.94845 3.23898 0
M  V30 4260 C 691.076 -4.19803 2.73435 0
M  V30 4261 H 688.336 -8.13644 3.0377 0
M  V30 4262 H 688.067 -6.42695 2.55448 0
M  V30 4263 H 688.934 -8.12039 0.792769 0
M  V30 4264 H 691.589 -5.79978 -0.160587 0
M  V30 4265 H 691.868 -6.51379 2.75643 0
M  V30 4266 H 692.86 -7.01734 1.34462 0
M  V30 4267 H 691.026 -8.73674 2.38337 0
M  V30 4268 H 690.955 -5.04492 3.4095 0
M  V30 4269 P 692.896 -8.91 -4.67181e-12 0
M  V30 4270 O 693.116 -10.1726 -0.733694 0
M  V30 4271 O 693.686 -8.73148 1.23936 0
M  V30 4272 O 693.146 -7.66872 -0.971405 0
M  V30 4273 C 692.206 -7.42309 -2.04641 0
M  V30 4274 C 692.936 -6.86059 -3.24661 0
M  V30 4275 O 693.146 -5.42847 -3.03646 0
M  V30 4276 C 694.336 -7.41196 -3.50753 0
M  V30 4277 O 694.726 -7.27073 -4.86816 0
M  V30 4278 C 695.216 -6.5273 -2.63741 0
M  V30 4279 C 694.506 -5.1842 -2.73198 0
M  V30 4280 N 694.556 -4.38762 -1.4784 0
M  V30 4281 H 691.717 -8.36803 -2.32493 0
M  V30 4282 H 691.447 -6.70197 -1.71129 0
M  V30 4283 H 692.314 -7.03551 -4.13168 0
M  V30 4284 P 696.276 -7.20834 -5.23717 0
M  V30 4285 O 696.496 -7.80006 -6.57415 0
M  V30 4286 O 697.066 -7.79416 -4.13051 0
M  V30 4287 O 696.526 -5.63315 -5.29344 0
M  V30 4288 C 695.586 -4.80318 -6.01954 0
M  V30 4289 C 696.316 -3.64202 -6.65911 0
M  V30 4290 O 696.526 -2.60736 -5.64823 0
M  V30 4291 C 697.716 -3.93521 -7.19518 0
M  V30 4292 O 698.106 -3.02071 -8.21205 0
M  V30 4293 C 698.596 -3.73047 -5.97036 0
M  V30 4294 C 697.886 -2.58828 -5.25741 0
M  V30 4295 N 697.936 -2.68068 -3.77503 0
M  V30 4296 C 697.856 -3.80474 -2.99159 0
M  V30 4297 N 697.926 -3.55622 -1.71925 0
M  V30 4298 C 698.076 -2.1832 -1.65733 0
M  V30 4299 C 698.206 -1.28842 -0.572777 0
M  V30 4300 N 698.216 -1.66875 0.70098 0
M  V30 4301 N 698.326 0.016788 -0.859836 0
M  V30 4302 C 698.316 0.398145 -2.13316 0
M  V30 4303 N 698.196 -0.328224 -3.22333 0
M  V30 4304 C 698.076 -1.62992 -2.90383 0
M  V30 4305 H 695.098 -5.40394 -6.8003 0
M  V30 4306 H 694.826 -4.41741 -5.32532 0
M  V30 4307 H 695.694 -3.26371 -7.47889 0
M  V30 4308 H 698.349 -1.64007 -5.56746 0
M  V30 4309 H 698.629 -4.63439 -5.3432 0
M  V30 4310 H 699.62 -3.44776 -6.25925 0
M  V30 4311 H 697.786 -4.96707 -7.57347 0
M  V30 4312 H 697.745 -4.8089 -3.39924 0
M  V30 4313 H 698.126 -2.66547 0.941919 0
M  V30 4314 H 698.315 -0.965341 1.44766 0
M  V30 4315 H 698.423 1.46427 -2.29697 0
M  V30 4316 P 699.656 -2.75334 -8.47391 0
M  V30 4317 O 699.876 -2.44571 -9.90142 0
M  V30 4318 O 700.446 -3.87688 -7.92115 0
M  V30 4319 O 699.906 -1.4459 -7.59357 0
M  V30 4320 C 698.966 -0.347608 -7.69215 0
M  V30 4321 C 699.696 0.96767 -7.52806 0
M  V30 4322 O 699.906 1.21036 -6.1011 0
M  V30 4323 C 701.096 1.04544 -8.13308 0
M  V30 4324 O 701.486 2.38311 -8.41922 0
M  V30 4325 C 701.976 0.491279 -7.02284 0
M  V30 4326 C 701.266 0.996264 -5.77469 0
M  V30 4327 N 701.316 0.0501916 -4.62973 0
M  V30 4328 H 698.477 -0.374722 -8.67691 0
M  V30 4329 H 698.207 -0.443485 -6.90277 0
M  V30 4330 H 699.074 1.75537 -7.96793 0
M  V30 4331 P 703.036 2.75334 -8.47391 0
M  V30 4332 O 703.256 3.84204 -9.44982 0
M  V30 4333 O 703.826 1.51982 -8.68909 0
M  V30 4334 O 703.286 3.29363 -6.99321 0
M  V30 4335 C 702.346 4.24066 -6.42823 0
M  V30 4336 C 703.076 5.20775 -5.52155 0
M  V30 4337 O 703.286 4.56607 -4.22514 0
M  V30 4338 C 704.476 5.62697 -5.96604 0
M  V30 4339 O 704.866 6.87667 -5.41053 0
M  V30 4340 C 705.356 4.52537 -5.39283 0
M  V30 4341 C 704.646 4.20027 -4.08623 0
M  V30 4342 N 704.696 2.76189 -3.71603 0
M  V30 4343 C 704.616 1.66944 -4.54297 0
M  V30 4344 N 704.686 0.536169 -3.91344 0
M  V30 4345 C 704.836 0.901569 -2.58849 0
M  V30 4346 C 704.966 0.146599 -1.40236 0
M  V30 4347 N 704.976 -1.18234 -1.37046 0
M  V30 4348 N 705.086 0.822941 -0.249738 0
M  V30 4349 C 705.076 2.15179 -0.280525 0
M  V30 4350 N 704.956 2.96414 -1.30822 0
M  V30 4351 C 704.836 2.25804 -2.44748 0
M  V30 4352 H 701.858 4.79756 -7.24086 0
M  V30 4353 H 701.586 3.69963 -5.84682 0
M  V30 4354 H 702.454 6.10431 -5.41508 0
M  V30 4355 H 705.109 4.78816 -3.28024 0
M  V30 4356 H 705.389 3.64957 -6.05871 0
M  V30 4357 H 706.38 4.88748 -5.21323 0
M  V30 4358 H 704.546 5.66789 -7.0643 0
M  V30 4359 H 704.505 1.74684 -5.62396 0
M  V30 4360 H 704.886 -1.71949 -2.24394 0
M  V30 4361 H 705.075 -1.67511 -0.470742 0
M  V30 4362 H 705.183 2.63704 0.6828 0
M  V30 4363 P 706.416 7.20834 -5.23717 0
M  V30 4364 O 706.636 8.66274 -5.38678 0
M  V30 4365 O 707.206 6.33687 -6.13629 0
M  V30 4366 O 706.666 6.7751 -3.72168 0
M  V30 4367 C 705.726 7.20919 -2.70795 0
M  V30 4368 C 706.456 7.45864 -1.40599 0
M  V30 4369 O 706.666 6.17751 -0.734343 0
M  V30 4370 C 707.856 8.05906 -1.51917 0
M  V30 4371 O 708.246 8.74358 -0.335205 0
M  V30 4372 C 708.736 6.83093 -1.70294 0
M  V30 4373 C 708.026 5.79992 -0.836974 0
M  V30 4374 N 708.076 4.41864 -1.38293 0
M  V30 4375 H 705.238 8.13738 -3.03804 0
M  V30 4376 H 704.966 6.42974 -2.55559 0
M  V30 4377 H 705.834 8.12139 -0.792866 0
M  V30 4378 H 708.489 5.80178 0.160643 0
M  V30 4379 H 708.769 6.51379 -2.75643 0
M  V30 4380 H 709.76 7.01832 -1.3448 0
M  V30 4381 H 707.926 8.73771 -2.38364 0
M  V30 4382 P 709.796 8.91 4.82899e-12 0
M  V30 4383 O 710.016 10.1746 0.733838 0
M  V30 4384 O 710.586 8.73346 -1.23964 0
M  V30 4385 O 710.046 7.66872 0.971405 0
M  V30 4386 C 709.106 7.42405 2.04668 0
M  V30 4387 C 709.836 6.86059 3.24661 0
M  V30 4388 O 710.046 5.42934 3.03695 0
M  V30 4389 C 711.236 7.41287 3.50796 0
M  V30 4390 O 711.626 7.27073 4.86816 0
M  V30 4391 C 712.116 6.5273 2.63741 0
M  V30 4392 C 711.406 5.1842 2.73198 0
M  V30 4393 N 711.456 4.38762 1.4784 0
M  V30 4394 H 708.618 8.36899 2.3252 0
M  V30 4395 H 708.346 6.70391 1.71179 0
M  V30 4396 H 709.214 7.03638 4.13219 0
M  V30 4397 H 711.869 4.59931 3.54016 0
M  V30 4398 H 712.149 6.88995 1.59871 0
M  V30 4399 H 713.14 6.4684 3.0373 0
M  V30 4400 H 711.306 8.47002 3.20749 0
M  V30 4401 P 713.176 7.20834 5.23717 0
M  V30 4402 O 713.396 7.79853 6.57286 0
M  V30 4403 O 713.966 7.79239 4.12957 0
M  V30 4404 O 713.426 5.63315 5.29344 0
M  V30 4405 C 712.486 4.80255 6.01876 0
M  V30 4406 C 713.216 3.64202 6.65911 0
M  V30 4407 O 713.426 2.60694 5.64732 0
M  V30 4408 C 714.616 3.93473 7.1943 0
M  V30 4409 O 715.006 3.02071 8.21205 0
M  V30 4410 C 715.496 3.73047 5.97036 0
M  V30 4411 C 714.786 2.58828 5.25741 0
M  V30 4412 N 714.836 2.68068 3.77503 0
M  V30 4413 H 711.997 5.40332 6.79951 0
M  V30 4414 H 711.727 4.41613 5.32378 0
M  V30 4415 H 712.594 3.26331 7.47797 0
M  V30 4416 P 716.556 2.75334 8.47391 0
M  V30 4417 O 716.776 2.44571 9.90142 0
M  V30 4418 O 717.346 3.87688 7.92115 0
M  V30 4419 O 716.806 1.4459 7.59357 0
M  V30 4420 C 715.866 0.347608 7.69215 0
M  V30 4421 C 716.596 -0.96767 7.52806 0
M  V30 4422 O 716.806 -1.21036 6.1011 0
M  V30 4423 C 717.996 -1.04544 8.13308 0
M  V30 4424 O 718.386 -2.38311 8.41922 0
M  V30 4425 C 718.876 -0.491279 7.02284 0
M  V30 4426 C 718.166 -0.996264 5.77469 0
M  V30 4427 N 718.216 -0.0501916 4.62973 0
M  V30 4428 H 715.377 0.374722 8.67691 0
M  V30 4429 H 715.107 0.443485 6.90277 0
M  V30 4430 H 715.974 -1.75537 7.96793 0
M  V30 4431 P 719.936 -2.75334 8.47391 0
M  V30 4432 O 720.156 -3.84128 9.44797 0
M  V30 4433 O 720.726 -1.51947 8.68712 0
M  V30 4434 O 720.186 -3.29363 6.99321 0
M  V30 4435 C 719.246 -4.24011 6.4274 0
M  V30 4436 C 719.976 -5.20775 5.52155 0
M  V30 4437 O 720.186 -4.56534 4.22446 0
M  V30 4438 C 721.376 -5.62629 5.96531 0
M  V30 4439 O 721.766 -6.87667 5.41053 0
M  V30 4440 C 722.256 -4.52537 5.39283 0
M  V30 4441 C 721.546 -4.20027 4.08623 0
M  V30 4442 N 721.596 -2.76189 3.71603 0
M  V30 4443 H 718.757 -4.797 7.24003 0
M  V30 4444 H 718.487 -3.69856 5.84513 0
M  V30 4445 H 719.354 -6.10356 5.41441 0
M  V30 4446 P 723.316 -7.20834 5.23717 0
M  V30 4447 O 723.536 -8.66104 5.38572 0
M  V30 4448 O 724.106 -6.33544 6.1349 0
M  V30 4449 O 723.566 -6.7751 3.72168 0
M  V30 4450 C 722.626 -7.20825 2.7076 0
M  V30 4451 C 723.356 -7.45864 1.40599 0
M  V30 4452 O 723.566 -6.17651 0.734225 0
M  V30 4453 C 724.756 -8.05808 1.51899 0
M  V30 4454 O 725.146 -8.74358 0.335205 0
M  V30 4455 C 725.636 -6.83093 1.70294 0
M  V30 4456 C 724.926 -5.79992 0.836974 0
M  V30 4457 N 724.976 -4.41864 1.38293 0
M  V30 4458 C 724.896 -3.99538 2.69438 0
M  V30 4459 N 724.976 -2.69909 2.84277 0
M  V30 4460 C 725.116 -2.21719 1.5408 0
M  V30 4461 C 725.246 -0.891712 1.06628 0
M  V30 4462 N 725.366 -0.856846 -0.334985 0
M  V30 4463 C 725.366 -1.9641 -1.15789 0
M  V30 4464 N 725.496 -1.72708 -2.46522 0
M  V30 4465 N 725.236 -3.21165 -0.713741 0
M  V30 4466 C 725.116 -3.26797 0.639748 0
M  V30 4467 H 722.137 -8.13644 3.0377 0
M  V30 4468 H 721.867 -6.42788 2.55485 0
M  V30 4469 H 722.734 -8.12039 0.792769 0
M  V30 4470 P 726.696 -8.91 -4.98617e-12 0
M  V30 4471 O 726.916 -10.1736 -0.733766 0
M  V30 4472 O 727.486 -8.73247 1.2395 0
M  V30 4473 O 726.946 -7.66872 -0.971405 0
M  V30 4474 C 726.006 -7.42212 -2.04614 0
M  V30 4475 C 726.736 -6.86059 -3.24661 0
M  V30 4476 O 726.946 -5.42847 -3.03646 0
M  V30 4477 C 728.136 -7.41196 -3.50753 0
M  V30 4478 O 728.526 -7.27073 -4.86816 0
M  V30 4479 C 729.016 -6.5273 -2.63741 0
M  V30 4480 C 728.306 -5.1842 -2.73198 0
M  V30 4481 N 728.356 -4.38668 -1.47808 0
M  V30 4482 C 728.506 -3.02239 -1.60048 0
M  V30 4483 O 728.596 -2.46459 -2.67869 0
M  V30 4484 N 728.546 -2.32436 -0.408571 0
M  V30 4485 C 728.456 -2.85471 0.854993 0
M  V30 4486 C 728.306 -4.28918 0.887335 0
M  V30 4487 C 728.256 -5.00349 -0.255399 0
M  V30 4488 H 725.516 -8.36803 -2.32493 0
M  V30 4489 H 725.247 -6.701 -1.71105 0
M  V30 4490 H 726.114 -7.03551 -4.13168 0
M  V30 4491 H 728.769 -4.59773 -3.53894 0
M  V30 4492 H 729.048 -6.88995 -1.59871 0
M  V30 4493 H 730.04 -6.46749 -3.03687 0
M  V30 4494 H 728.206 -8.46908 -3.20714 0
M  V30 4495 H 728.135 -6.08548 -0.206986 0
M  V30 4496 P 730.076 -7.20834 -5.23717 0
M  V30 4497 O 730.296 -7.80006 -6.57415 0
M  V30 4498 O 730.866 -7.79416 -4.13051 0
M  V30 4499 O 730.326 -5.63315 -5.29344 0
M  V30 4500 C 729.386 -4.80318 -6.01954 0
M  V30 4501 C 730.116 -3.64202 -6.65911 0
M  V30 4502 O 730.326 -2.60736 -5.64823 0
M  V30 4503 C 731.516 -3.93521 -7.19518 0
M  V30 4504 O 731.906 -3.02071 -8.21205 0
M  V30 4505 C 732.396 -3.73047 -5.97036 0
M  V30 4506 C 731.686 -2.58828 -5.25741 0
M  V30 4507 N 731.736 -2.68068 -3.77503 0
M  V30 4508 C 731.656 -3.80474 -2.99159 0
M  V30 4509 N 731.726 -3.55622 -1.71925 0
M  V30 4510 C 731.876 -2.1832 -1.65733 0
M  V30 4511 C 732.006 -1.28842 -0.572777 0
M  V30 4512 N 732.016 -1.66875 0.70098 0
M  V30 4513 N 732.126 0.016788 -0.859836 0
M  V30 4514 C 732.116 0.398145 -2.13316 0
M  V30 4515 N 731.996 -0.328224 -3.22333 0
M  V30 4516 C 731.876 -1.62992 -2.90383 0
M  V30 4517 H 728.898 -5.40394 -6.8003 0
M  V30 4518 H 728.626 -4.41741 -5.32532 0
M  V30 4519 H 729.494 -3.26371 -7.47889 0
M  V30 4520 H 732.149 -1.64007 -5.56746 0
M  V30 4521 H 732.429 -4.63439 -5.3432 0
M  V30 4522 H 733.42 -3.44776 -6.25925 0
M  V30 4523 H 731.586 -4.96707 -7.57347 0
M  V30 4524 H 731.545 -4.8089 -3.39924 0
M  V30 4525 H 731.926 -2.66547 0.941919 0
M  V30 4526 H 732.115 -0.965341 1.44766 0
M  V30 4527 H 732.223 1.46427 -2.29697 0
M  V30 4528 P 733.456 -2.75334 -8.47391 0
M  V30 4529 O 733.676 -2.44571 -9.90142 0
M  V30 4530 O 734.246 -3.87688 -7.92115 0
M  V30 4531 O 733.706 -1.4459 -7.59357 0
M  V30 4532 C 732.766 -0.347608 -7.69215 0
M  V30 4533 C 733.496 0.96767 -7.52806 0
M  V30 4534 O 733.706 1.21036 -6.1011 0
M  V30 4535 C 734.896 1.04544 -8.13308 0
M  V30 4536 O 735.286 2.38311 -8.41922 0
M  V30 4537 C 735.776 0.491279 -7.02284 0
M  V30 4538 C 735.066 0.996264 -5.77469 0
M  V30 4539 N 735.116 0.0501916 -4.62973 0
M  V30 4540 H 732.277 -0.374722 -8.67691 0
M  V30 4541 H 732.007 -0.443485 -6.90277 0
M  V30 4542 H 732.874 1.75537 -7.96793 0
M  V30 4543 P 736.836 2.75334 -8.47391 0
M  V30 4544 O 737.056 3.84128 -9.44797 0
M  V30 4545 O 737.626 1.51947 -8.68712 0
M  V30 4546 O 737.086 3.29363 -6.99321 0
M  V30 4547 C 736.146 4.24011 -6.4274 0
M  V30 4548 C 736.876 5.20775 -5.52155 0
M  V30 4549 O 737.086 4.56534 -4.22446 0
M  V30 4550 C 738.276 5.62629 -5.96531 0
M  V30 4551 O 738.666 6.87667 -5.41053 0
M  V30 4552 C 739.156 4.52537 -5.39283 0
M  V30 4553 C 738.446 4.20027 -4.08623 0
M  V30 4554 N 738.496 2.76189 -3.71603 0
M  V30 4555 H 735.657 4.797 -7.24003 0
M  V30 4556 H 735.387 3.69856 -5.84513 0
M  V30 4557 H 736.254 6.10356 -5.41441 0
M  V30 4558 P 740.216 7.20834 -5.23717 0
M  V30 4559 O 740.436 8.66104 -5.38572 0
M  V30 4560 O 741.006 6.33544 -6.1349 0
M  V30 4561 O 740.466 6.7751 -3.72168 0
M  V30 4562 C 739.526 7.20825 -2.7076 0
M  V30 4563 C 740.256 7.45864 -1.40599 0
M  V30 4564 O 740.466 6.17651 -0.734225 0
M  V30 4565 C 741.656 8.05808 -1.51899 0
M  V30 4566 O 742.046 8.74358 -0.335205 0
M  V30 4567 C 742.536 6.83093 -1.70294 0
M  V30 4568 C 741.826 5.79992 -0.836974 0
M  V30 4569 N 741.876 4.41864 -1.38293 0
M  V30 4570 H 739.037 8.13644 -3.0377 0
M  V30 4571 H 738.767 6.42788 -2.55485 0
M  V30 4572 H 739.634 8.12039 -0.792769 0
M  V30 4573 P 743.596 8.91 5.14336e-12 0
M  V30 4574 O 743.816 10.1726 0.733694 0
M  V30 4575 O 744.386 8.73148 -1.23936 0
M  V30 4576 O 743.846 7.66872 0.971405 0
M  V30 4577 C 742.906 7.42309 2.04641 0
M  V30 4578 C 743.636 6.86059 3.24661 0
M  V30 4579 O 743.846 5.42847 3.03646 0
M  V30 4580 C 745.036 7.41196 3.50753 0
M  V30 4581 O 745.426 7.27073 4.86816 0
M  V30 4582 C 745.916 6.5273 2.63741 0
M  V30 4583 C 745.206 5.1842 2.73198 0
M  V30 4584 N 745.256 4.38762 1.4784 0
M  V30 4585 H 742.417 8.36803 2.32493 0
M  V30 4586 H 742.147 6.70197 1.71129 0
M  V30 4587 H 743.014 7.03551 4.13168 0
M  V30 4588 P 746.976 7.20834 5.23717 0
M  V30 4589 O 747.196 7.79853 6.57286 0
M  V30 4590 O 747.766 7.79239 4.12957 0
M  V30 4591 O 747.226 5.63315 5.29344 0
M  V30 4592 C 746.286 4.80255 6.01876 0
M  V30 4593 C 747.016 3.64202 6.65911 0
M  V30 4594 O 747.226 2.60694 5.64732 0
M  V30 4595 C 748.416 3.93473 7.1943 0
M  V30 4596 O 748.806 3.02071 8.21205 0
M  V30 4597 C 749.296 3.73047 5.97036 0
M  V30 4598 C 748.586 2.58828 5.25741 0
M  V30 4599 N 748.636 2.68068 3.77503 0
M  V30 4600 H 745.797 5.40332 6.79951 0
M  V30 4601 H 745.527 4.41613 5.32378 0
M  V30 4602 H 746.394 3.26331 7.47797 0
M  V30 4603 P 750.356 2.75334 8.47391 0
M  V30 4604 O 750.576 2.44571 9.90142 0
M  V30 4605 O 751.146 3.87688 7.92115 0
M  V30 4606 O 750.606 1.4459 7.59357 0
M  V30 4607 C 749.666 0.347608 7.69215 0
M  V30 4608 C 750.396 -0.96767 7.52806 0
M  V30 4609 O 750.606 -1.21036 6.1011 0
M  V30 4610 C 751.796 -1.04544 8.13308 0
M  V30 4611 O 752.186 -2.38311 8.41922 0
M  V30 4612 C 752.676 -0.491279 7.02284 0
M  V30 4613 C 751.966 -0.996264 5.77469 0
M  V30 4614 N 752.016 -0.0501916 4.62973 0
M  V30 4615 H 749.177 0.374722 8.67691 0
M  V30 4616 H 748.907 0.443485 6.90277 0
M  V30 4617 H 749.774 -1.75537 7.96793 0
M  V30 4618 P 753.736 -2.75334 8.47391 0
M  V30 4619 O 753.956 -3.84204 9.44982 0
M  V30 4620 O 754.526 -1.51982 8.68909 0
M  V30 4621 O 753.986 -3.29363 6.99321 0
M  V30 4622 C 753.046 -4.24066 6.42823 0
M  V30 4623 C 753.776 -5.20775 5.52155 0
M  V30 4624 O 753.986 -4.56607 4.22514 0
M  V30 4625 C 755.176 -5.62697 5.96604 0
M  V30 4626 O 755.566 -6.87667 5.41053 0
M  V30 4627 C 756.056 -4.52537 5.39283 0
M  V30 4628 C 755.346 -4.20027 4.08623 0
M  V30 4629 N 755.396 -2.76189 3.71603 0
M  V30 4630 C 755.316 -1.66944 4.54297 0
M  V30 4631 N 755.386 -0.536169 3.91344 0
M  V30 4632 C 755.536 -0.901569 2.58849 0
M  V30 4633 C 755.666 -0.146599 1.40236 0
M  V30 4634 N 755.676 1.18234 1.37046 0
M  V30 4635 N 755.786 -0.822941 0.249738 0
M  V30 4636 C 755.776 -2.15179 0.280525 0
M  V30 4637 N 755.656 -2.96414 1.30822 0
M  V30 4638 C 755.536 -2.25804 2.44748 0
M  V30 4639 H 752.558 -4.79756 7.24086 0
M  V30 4640 H 752.286 -3.69963 5.84682 0
M  V30 4641 H 753.154 -6.10431 5.41508 0
M  V30 4642 H 755.809 -4.78816 3.28024 0
M  V30 4643 H 756.089 -3.64957 6.05871 0
M  V30 4644 H 757.08 -4.88748 5.21323 0
M  V30 4645 H 755.246 -5.66789 7.0643 0
M  V30 4646 H 755.205 -1.74684 5.62396 0
M  V30 4647 H 755.586 1.71949 2.24394 0
M  V30 4648 H 755.775 1.67511 0.470742 0
M  V30 4649 H 755.883 -2.63704 -0.6828 0
M  V30 4650 P 757.116 -7.20834 5.23717 0
M  V30 4651 O 757.336 -8.66189 5.38625 0
M  V30 4652 O 757.906 -6.33615 6.1356 0
M  V30 4653 O 757.366 -6.7751 3.72168 0
M  V30 4654 C 756.426 -7.20732 2.70725 0
M  V30 4655 C 757.156 -7.45864 1.40599 0
M  V30 4656 O 757.366 -6.17651 0.734225 0
M  V30 4657 C 758.556 -8.05808 1.51899 0
M  V30 4658 O 758.946 -8.74358 0.335205 0
M  V30 4659 C 759.436 -6.83093 1.70294 0
M  V30 4660 C 758.726 -5.79992 0.836974 0
M  V30 4661 N 758.776 -4.41769 1.38263 0
M  V30 4662 C 758.926 -3.38591 0.481702 0
M  V30 4663 O 759.016 -3.56839 -0.718452 0
M  V30 4664 N 758.966 -2.1206 1.03569 0
M  V30 4665 C 758.876 -1.80696 2.36966 0
M  V30 4666 O 758.926 -0.630473 2.74862 0
M  V30 4667 C 758.726 -2.94845 3.23898 0
M  V30 4668 C 758.616 -2.65253 4.70362 0
M  V30 4669 C 758.676 -4.19803 2.73435 0
M  V30 4670 H 755.936 -8.13644 3.0377 0
M  V30 4671 H 755.667 -6.42695 2.55448 0
M  V30 4672 H 756.534 -8.12039 0.792769 0
M  V30 4673 H 759.189 -5.79978 -0.160587 0
M  V30 4674 H 759.468 -6.51379 2.75643 0
M  V30 4675 H 760.46 -7.01734 1.34462 0
M  V30 4676 H 758.626 -8.73674 2.38337 0
M  V30 4677 H 758.555 -5.04492 3.4095 0
M  V30 4678 H 759.585 -2.83924 5.1913 0
M  V30 4679 H 757.848 -3.29824 5.15163 0
M  V30 4680 H 758.336 -1.59723 4.84449 0
M  V30 4681 H 759.072 -1.35644 0.399345 0
M  V30 4682 P 760.496 -8.91 -5.30054e-12 0
M  V30 4683 O 760.716 -10.1746 -0.733838 0
M  V30 4684 O 761.286 -8.73346 1.23964 0
M  V30 4685 O 760.746 -7.66872 -0.971405 0
M  V30 4686 C 759.806 -7.42405 -2.04668 0
M  V30 4687 C 760.536 -6.86059 -3.24661 0
M  V30 4688 O 760.746 -5.42934 -3.03695 0
M  V30 4689 C 761.936 -7.41287 -3.50796 0
M  V30 4690 O 762.326 -7.27073 -4.86816 0
M  V30 4691 C 762.816 -6.5273 -2.63741 0
M  V30 4692 C 762.106 -5.1842 -2.73198 0
M  V30 4693 N 762.156 -4.38762 -1.4784 0
M  V30 4694 C 762.076 -4.83651 -0.183876 0
M  V30 4695 N 762.146 -3.88759 0.699393 0
M  V30 4696 C 762.296 -2.7404 -0.0575568 0
M  V30 4697 C 762.426 -1.37902 0.293928 0
M  V30 4698 N 762.436 -0.938021 1.54797 0
M  V30 4699 N 762.546 -0.491817 -0.70549 0
M  V30 4700 C 762.536 -0.931735 -1.95979 0
M  V30 4701 N 762.416 -2.16017 -2.41481 0
M  V30 4702 C 762.296 -3.02547 -1.39121 0
M  V30 4703 H 759.318 -8.36899 -2.3252 0
M  V30 4704 H 759.046 -6.70391 -1.71179 0
M  V30 4705 H 759.914 -7.03638 -4.13219 0
M  V30 4706 H 762.569 -4.59931 -3.54016 0
M  V30 4707 H 762.849 -6.88995 -1.59871 0
M  V30 4708 H 763.84 -6.4684 -3.0373 0
M  V30 4709 H 762.006 -8.47002 -3.20749 0
M  V30 4710 H 761.965 -5.8885 0.0765548 0
M  V30 4711 H 762.346 -1.60276 2.32875 0
M  V30 4712 H 762.535 0.0699355 1.73859 0
M  V30 4713 H 762.643 -0.165507 -2.71897 0
M  V30 4714 P 763.875 -7.20834 -5.23717 0
M  V30 4715 O 764.095 -7.79853 -6.57286 0
M  V30 4716 O 764.665 -7.79239 -4.12957 0
M  V30 4717 O 764.125 -5.63315 -5.29344 0
M  V30 4718 C 763.185 -4.80255 -6.01876 0
M  V30 4719 C 763.915 -3.64202 -6.65911 0
M  V30 4720 O 764.125 -2.60694 -5.64732 0
M  V30 4721 C 765.315 -3.93473 -7.1943 0
M  V30 4722 O 765.705 -3.02071 -8.21205 0
M  V30 4723 C 766.195 -3.73047 -5.97036 0
M  V30 4724 C 765.485 -2.58828 -5.25741 0
M  V30 4725 N 765.535 -2.68068 -3.77503 0
M  V30 4726 H 762.696 -5.40332 -6.79951 0
M  V30 4727 H 762.426 -4.41613 -5.32378 0
M  V30 4728 H 763.293 -3.26331 -7.47797 0
M  V30 4729 P 767.255 -2.75334 -8.47391 0
M  V30 4730 O 767.475 -2.44595 -9.90239 0
M  V30 4731 O 768.045 -3.87732 -7.92204 0
M  V30 4732 O 767.505 -1.4459 -7.59357 0
M  V30 4733 C 766.565 -0.347563 -7.69115 0
M  V30 4734 C 767.295 0.96767 -7.52806 0
M  V30 4735 O 767.505 1.21036 -6.1011 0
M  V30 4736 C 768.695 1.04544 -8.13308 0
M  V30 4737 O 769.085 2.38311 -8.41922 0
M  V30 4738 C 769.575 0.491279 -7.02284 0
M  V30 4739 C 768.865 0.996264 -5.77469 0
M  V30 4740 N 768.915 0.0501808 -4.62873 0
M  V30 4741 C 769.065 0.588177 -3.36904 0
M  V30 4742 O 769.155 1.78598 -3.17173 0
M  V30 4743 N 769.105 -0.329694 -2.33686 0
M  V30 4744 C 769.015 -1.6953 -2.45079 0
M  V30 4745 C 768.865 -2.16933 -3.80505 0
M  V30 4746 C 768.815 -1.30326 -4.83752 0
M  V30 4747 H 766.075 -0.374722 -8.67691 0
M  V30 4748 H 765.806 -0.443421 -6.90177 0
M  V30 4749 H 766.673 1.75537 -7.96793 0
M  V30 4750 H 769.328 1.94496 -5.46629 0
M  V30 4751 H 769.607 -0.608651 -7.04676 0
M  V30 4752 H 770.599 0.889672 -7.08939 0
M  V30 4753 H 768.765 0.43308 -9.04564 0
M  V30 4754 H 768.694 -1.68366 -5.8516 0
M  V30 4755 P 770.635 2.75334 -8.47391 0
M  V30 4756 O 770.855 3.84128 -9.44797 0
M  V30 4757 O 771.425 1.51947 -8.68712 0
M  V30 4758 O 770.885 3.29363 -6.99321 0
M  V30 4759 C 769.945 4.24011 -6.4274 0
M  V30 4760 C 770.675 5.20775 -5.52155 0
M  V30 4761 O 770.885 4.56534 -4.22446 0
M  V30 4762 C 772.075 5.62629 -5.96531 0
M  V30 4763 O 772.465 6.87667 -5.41053 0
M  V30 4764 C 772.955 4.52537 -5.39283 0
M  V30 4765 C 772.245 4.20027 -4.08623 0
M  V30 4766 N 772.295 2.76189 -3.71603 0
M  V30 4767 C 772.215 1.64862 -4.52822 0
M  V30 4768 N 772.295 0.512671 -3.88633 0
M  V30 4769 C 772.435 0.888083 -2.54977 0
M  V30 4770 C 772.565 0.094668 -1.38677 0
M  V30 4771 N 772.685 0.890102 -0.232633 0
M  V30 4772 C 772.685 2.26958 -0.21772 0
M  V30 4773 N 772.815 2.84626 0.97925 0
M  V30 4774 N 772.555 3.0178 -1.31033 0
M  V30 4775 C 772.435 2.26781 -2.43843 0
M  V30 4776 H 769.456 4.797 -7.24003 0
M  V30 4777 H 769.186 3.69856 -5.84513 0
M  V30 4778 H 770.053 6.10356 -5.41441 0
M  V30 4779 P 774.015 7.20834 -5.23717 0
M  V30 4780 O 774.235 8.66189 -5.38625 0
M  V30 4781 O 774.805 6.33615 -6.1356 0
M  V30 4782 O 774.265 6.7751 -3.72168 0
M  V30 4783 C 773.325 7.20732 -2.70725 0
M  V30 4784 C 774.055 7.45864 -1.40599 0
M  V30 4785 O 774.265 6.17651 -0.734225 0
M  V30 4786 C 775.455 8.05808 -1.51899 0
M  V30 4787 O 775.845 8.74358 -0.335205 0
M  V30 4788 C 776.335 6.83093 -1.70294 0
M  V30 4789 C 775.625 5.79992 -0.836974 0
M  V30 4790 N 775.675 4.41769 -1.38263 0
M  V30 4791 C 775.825 3.38591 -0.481702 0
M  V30 4792 O 775.915 3.56839 0.718452 0
M  V30 4793 N 775.865 2.1206 -1.03569 0
M  V30 4794 C 775.775 1.80696 -2.36966 0
M  V30 4795 O 775.825 0.630473 -2.74862 0
M  V30 4796 C 775.625 2.94845 -3.23898 0
M  V30 4797 C 775.515 2.65253 -4.70362 0
M  V30 4798 C 775.575 4.19803 -2.73435 0
M  V30 4799 H 772.835 8.13644 -3.0377 0
M  V30 4800 H 772.566 6.42695 -2.55448 0
M  V30 4801 H 773.433 8.12039 -0.792769 0
M  V30 4802 H 776.088 5.79978 0.160587 0
M  V30 4803 H 776.367 6.51379 -2.75643 0
M  V30 4804 H 777.359 7.01734 -1.34462 0
M  V30 4805 H 775.525 8.73674 -2.38337 0
M  V30 4806 H 775.454 5.04492 -3.4095 0
M  V30 4807 H 776.484 2.83924 -5.1913 0
M  V30 4808 H 774.747 3.29824 -5.15163 0
M  V30 4809 H 775.235 1.59723 -4.84449 0
M  V30 4810 H 775.971 1.35644 -0.399345 0
M  V30 4811 P 777.395 8.91 5.45772e-12 0
M  V30 4812 O 777.615 10.1726 0.733694 0
M  V30 4813 O 778.185 8.73148 -1.23936 0
M  V30 4814 O 777.645 7.66872 0.971405 0
M  V30 4815 C 776.705 7.42309 2.04641 0
M  V30 4816 C 777.435 6.86059 3.24661 0
M  V30 4817 O 777.645 5.42847 3.03646 0
M  V30 4818 C 778.835 7.41196 3.50753 0
M  V30 4819 O 779.225 7.27073 4.86816 0
M  V30 4820 C 779.715 6.5273 2.63741 0
M  V30 4821 C 779.005 5.1842 2.73198 0
M  V30 4822 N 779.055 4.38762 1.4784 0
M  V30 4823 H 776.216 8.36803 2.32493 0
M  V30 4824 H 775.946 6.70197 1.71129 0
M  V30 4825 H 776.813 7.03551 4.13168 0
M  V30 4826 P 780.775 7.20834 5.23717 0
M  V30 4827 O 780.995 7.7993 6.57351 0
M  V30 4828 O 781.565 7.79328 4.13004 0
M  V30 4829 O 781.025 5.63315 5.29344 0
M  V30 4830 C 780.085 4.80193 6.01798 0
M  V30 4831 C 780.815 3.64202 6.65911 0
M  V30 4832 O 781.025 2.60694 5.64732 0
M  V30 4833 C 782.215 3.93473 7.1943 0
M  V30 4834 O 782.605 3.02071 8.21205 0
M  V30 4835 C 783.095 3.73047 5.97036 0
M  V30 4836 C 782.385 2.58828 5.25741 0
M  V30 4837 N 782.435 2.6801 3.77422 0
M  V30 4838 C 782.585 1.50443 3.07133 0
M  V30 4839 O 782.675 0.419406 3.61576 0
M  V30 4840 N 782.625 1.6403 1.69677 0
M  V30 4841 C 782.535 2.81206 0.986255 0
M  V30 4842 C 782.385 3.99158 1.80325 0
M  V30 4843 C 782.335 3.89779 3.1476 0
M  V30 4844 H 779.595 5.40332 6.79951 0
M  V30 4845 H 779.326 4.41549 5.32301 0
M  V30 4846 H 780.193 3.26331 7.47797 0
M  V30 4847 H 782.848 1.6395 5.56554 0
M  V30 4848 H 783.127 4.63439 5.3432 0
M  V30 4849 H 784.119 3.44728 6.25838 0
M  V30 4850 H 782.285 4.96652 7.57263 0
M  V30 4851 H 782.214 4.80159 3.74441 0
M  V30 4852 P 784.155 2.75334 8.47391 0
M  V30 4853 O 784.375 2.44571 9.90142 0
M  V30 4854 O 784.945 3.87688 7.92115 0
M  V30 4855 O 784.405 1.4459 7.59357 0
M  V30 4856 C 783.465 0.347608 7.69215 0
M  V30 4857 C 784.195 -0.96767 7.52806 0
M  V30 4858 O 784.405 -1.21036 6.1011 0
M  V30 4859 C 785.595 -1.04544 8.13308 0
M  V30 4860 O 785.985 -2.38311 8.41922 0
M  V30 4861 C 786.475 -0.491279 7.02284 0
M  V30 4862 C 785.765 -0.996264 5.77469 0
M  V30 4863 N 785.815 -0.0501916 4.62973 0
M  V30 4864 H 782.976 0.374722 8.67691 0
M  V30 4865 H 782.706 0.443485 6.90277 0
M  V30 4866 H 783.573 -1.75537 7.96793 0
M  V30 4867 P 787.535 -2.75334 8.47391 0
M  V30 4868 O 787.755 -3.84128 9.44797 0
M  V30 4869 O 788.325 -1.51947 8.68712 0
M  V30 4870 O 787.785 -3.29363 6.99321 0
M  V30 4871 C 786.845 -4.24011 6.4274 0
M  V30 4872 C 787.575 -5.20775 5.52155 0
M  V30 4873 O 787.785 -4.56534 4.22446 0
M  V30 4874 C 788.975 -5.62629 5.96531 0
M  V30 4875 O 789.365 -6.87667 5.41053 0
M  V30 4876 C 789.855 -4.52537 5.39283 0
M  V30 4877 C 789.145 -4.20027 4.08623 0
M  V30 4878 N 789.195 -2.76189 3.71603 0
M  V30 4879 C 789.115 -1.64862 4.52822 0
M  V30 4880 N 789.195 -0.512671 3.88633 0
M  V30 4881 C 789.335 -0.888083 2.54977 0
M  V30 4882 C 789.465 -0.094668 1.38677 0
M  V30 4883 O 789.485 1.13053 1.28163 0
M  V30 4884 N 789.585 -0.890102 0.232633 0
M  V30 4885 C 789.585 -2.26958 0.21772 0
M  V30 4886 N 789.715 -2.84626 -0.97925 0
M  V30 4887 N 789.455 -3.0178 1.31033 0
M  V30 4888 C 789.335 -2.26781 2.43843 0
M  V30 4889 H 786.356 -4.797 7.24003 0
M  V30 4890 H 786.086 -3.69856 5.84513 0
M  V30 4891 H 786.953 -6.10356 5.41441 0
M  V30 4892 H 789.608 -4.79061 3.27488 0
M  V30 4893 H 789.887 -3.64906 6.05785 0
M  V30 4894 H 790.879 -4.8868 5.2125 0
M  V30 4895 H 789.045 -5.66726 7.06352 0
M  V30 4896 H 788.996 -1.71169 5.60966 0
M  V30 4897 H 789.678 -0.419134 -0.644739 0
M  V30 4898 H 789.715 -3.87332 -1.06098 0
M  V30 4899 H 789.816 -2.26417 -1.82483 0
M  V30 4900 P 790.915 -7.20834 5.23717 0
M  V30 4901 O 791.135 -8.66104 5.38572 0
M  V30 4902 O 791.705 -6.33544 6.1349 0
M  V30 4903 O 791.165 -6.7751 3.72168 0
M  V30 4904 C 790.225 -7.20825 2.7076 0
M  V30 4905 C 790.955 -7.45864 1.40599 0
M  V30 4906 O 791.165 -6.17651 0.734225 0
M  V30 4907 C 792.355 -8.05808 1.51899 0
M  V30 4908 O 792.745 -8.74358 0.335205 0
M  V30 4909 C 793.235 -6.83093 1.70294 0
M  V30 4910 C 792.525 -5.79992 0.836974 0
M  V30 4911 N 792.575 -4.41864 1.38293 0
M  V30 4912 C 792.495 -3.99538 2.69438 0
M  V30 4913 N 792.575 -2.69909 2.84277 0
M  V30 4914 C 792.715 -2.21719 1.5408 0
M  V30 4915 C 792.845 -0.891712 1.06628 0
M  V30 4916 N 792.965 -0.856846 -0.334985 0
M  V30 4917 C 792.965 -1.9641 -1.15789 0
M  V30 4918 N 793.095 -1.72708 -2.46522 0
M  V30 4919 N 792.835 -3.21165 -0.713741 0
M  V30 4920 C 792.715 -3.26797 0.639748 0
M  V30 4921 H 789.736 -8.13644 3.0377 0
M  V30 4922 H 789.466 -6.42788 2.55485 0
M  V30 4923 H 790.333 -8.12039 0.792769 0
M  V30 4924 P 794.295 -8.91 -5.6149e-12 0
M  V30 4925 O 794.515 -10.1726 -0.733694 0
M  V30 4926 O 795.085 -8.73148 1.23936 0
M  V30 4927 O 794.545 -7.66872 -0.971405 0
M  V30 4928 C 793.605 -7.42309 -2.04641 0
M  V30 4929 C 794.335 -6.86059 -3.24661 0
M  V30 4930 O 794.545 -5.42847 -3.03646 0
M  V30 4931 C 795.735 -7.41196 -3.50753 0
M  V30 4932 O 796.125 -7.27073 -4.86816 0
M  V30 4933 C 796.615 -6.5273 -2.63741 0
M  V30 4934 C 795.905 -5.1842 -2.73198 0
M  V30 4935 N 795.955 -4.38762 -1.4784 0
M  V30 4936 C 795.875 -4.81605 -0.168631 0
M  V30 4937 N 795.955 -3.85454 0.713363 0
M  V30 4938 C 796.095 -2.6994 -0.0566958 0
M  V30 4939 C 796.225 -1.34815 0.338502 0
M  V30 4940 O 796.245 -0.869548 1.47125 0
M  V30 4941 N 796.345 -0.496304 -0.77465 0
M  V30 4942 C 796.345 -0.908403 -2.09122 0
M  V30 4943 N 796.475 0.0517805 -3.00955 0
M  V30 4944 N 796.215 -2.17875 -2.46519 0
M  V30 4945 C 796.095 -3.01988 -1.4033 0
M  V30 4946 H 793.116 -8.36803 -2.32493 0
M  V30 4947 H 792.846 -6.70197 -1.71129 0
M  V30 4948 H 793.713 -7.03551 -4.13168 0
M  V30 4949 H 796.368 -4.59498 -3.54415 0
M  V30 4950 H 796.647 -6.88898 -1.59848 0
M  V30 4951 H 797.639 -6.46749 -3.03687 0
M  V30 4952 H 795.805 -8.46908 -3.20714 0
M  V30 4953 H 795.756 -5.86405 0.105564 0
M  V30 4954 H 796.438 0.483664 -0.597855 0
M  V30 4955 H 796.475 -0.187865 -4.0116 0
M  V30 4956 H 796.576 1.03585 -2.71726 0
M  V30 4957 P 797.675 -7.20834 -5.23717 0
M  V30 4958 O 797.895 -7.79853 -6.57286 0
M  V30 4959 O 798.465 -7.79239 -4.12957 0
M  V30 4960 O 797.925 -5.63315 -5.29344 0
M  V30 4961 C 796.985 -4.80255 -6.01876 0
M  V30 4962 C 797.715 -3.64202 -6.65911 0
M  V30 4963 O 797.925 -2.60694 -5.64732 0
M  V30 4964 C 799.115 -3.93473 -7.1943 0
M  V30 4965 O 799.505 -3.02071 -8.21205 0
M  V30 4966 C 799.995 -3.73047 -5.97036 0
M  V30 4967 C 799.285 -2.58828 -5.25741 0
M  V30 4968 N 799.335 -2.68068 -3.77503 0
M  V30 4969 H 796.496 -5.40332 -6.79951 0
M  V30 4970 H 796.226 -4.41613 -5.32378 0
M  V30 4971 H 797.093 -3.26331 -7.47797 0
M  V30 4972 P 801.055 -2.75334 -8.47391 0
M  V30 4973 O 801.275 -2.44571 -9.90142 0
M  V30 4974 O 801.845 -3.87688 -7.92115 0
M  V30 4975 O 801.305 -1.4459 -7.59357 0
M  V30 4976 C 800.365 -0.347608 -7.69215 0
M  V30 4977 C 801.095 0.96767 -7.52806 0
M  V30 4978 O 801.305 1.21036 -6.1011 0
M  V30 4979 C 802.495 1.04544 -8.13308 0
M  V30 4980 O 802.885 2.38311 -8.41922 0
M  V30 4981 C 803.375 0.491279 -7.02284 0
M  V30 4982 C 802.665 0.996264 -5.77469 0
M  V30 4983 N 802.715 0.0501916 -4.62973 0
M  V30 4984 H 799.876 -0.374722 -8.67691 0
M  V30 4985 H 799.606 -0.443485 -6.90277 0
M  V30 4986 H 800.473 1.75537 -7.96793 0
M  V30 4987 P 804.435 2.75334 -8.47391 0
M  V30 4988 O 804.655 3.84128 -9.44797 0
M  V30 4989 O 805.225 1.51947 -8.68712 0
M  V30 4990 O 804.685 3.29363 -6.99321 0
M  V30 4991 C 803.745 4.24011 -6.4274 0
M  V30 4992 C 804.475 5.20775 -5.52155 0
M  V30 4993 O 804.685 4.56534 -4.22446 0
M  V30 4994 C 805.875 5.62629 -5.96531 0
M  V30 4995 O 806.265 6.87667 -5.41053 0
M  V30 4996 C 806.755 4.52537 -5.39283 0
M  V30 4997 C 806.045 4.20027 -4.08623 0
M  V30 4998 N 806.095 2.76189 -3.71603 0
M  V30 4999 H 803.256 4.797 -7.24003 0
M  V30 5000 H 802.986 3.69856 -5.84513 0
M  V30 5001 H 803.853 6.10356 -5.41441 0
M  V30 5002 P 807.815 7.20834 -5.23717 0
M  V30 5003 O 808.035 8.66274 -5.38678 0
M  V30 5004 O 808.605 6.33687 -6.13629 0
M  V30 5005 O 808.065 6.7751 -3.72168 0
M  V30 5006 C 807.125 7.20919 -2.70795 0
M  V30 5007 C 807.855 7.45864 -1.40599 0
M  V30 5008 O 808.065 6.17751 -0.734343 0
M  V30 5009 C 809.255 8.05906 -1.51917 0
M  V30 5010 O 809.645 8.74358 -0.335205 0
M  V30 5011 C 810.135 6.83093 -1.70294 0
M  V30 5012 C 809.425 5.79992 -0.836974 0
M  V30 5013 N 809.475 4.41864 -1.38293 0
M  V30 5014 C 809.395 4.02089 -2.69407 0
M  V30 5015 N 809.465 2.73403 -2.85089 0
M  V30 5016 C 809.615 2.25086 -1.5642 0
M  V30 5017 C 809.745 0.942887 -1.04836 0
M  V30 5018 N 809.755 -0.150999 -1.80369 0
M  V30 5019 N 809.865 0.812565 0.28167 0
M  V30 5020 C 809.855 1.90572 1.03784 0
M  V30 5021 N 809.735 3.167 0.683905 0
M  V30 5022 C 809.615 3.26538 -0.652815 0
M  V30 5023 H 806.637 8.13738 -3.03804 0
M  V30 5024 H 806.365 6.42974 -2.55559 0
M  V30 5025 H 807.233 8.12139 -0.792866 0
M  V30 5026 H 809.888 5.80178 0.160643 0
M  V30 5027 H 810.168 6.51379 -2.75643 0
M  V30 5028 H 811.159 7.01832 -1.3448 0
M  V30 5029 H 809.325 8.73771 -2.38364 0
M  V30 5030 H 809.284 4.7189 -3.52311 0
M  V30 5031 H 809.665 -0.0721434 -2.82608 0
M  V30 5032 H 809.854 -1.0785 -1.36544 0
M  V30 5033 H 809.962 1.73207 2.10241 0
M  V30 5034 P 811.195 8.91 5.77209e-12 0
M  V30 5035 O 811.415 10.1726 0.733694 0
M  V30 5036 O 811.985 8.73148 -1.23936 0
M  V30 5037 O 811.445 7.66872 0.971405 0
M  V30 5038 C 810.505 7.42309 2.04641 0
M  V30 5039 C 811.235 6.86059 3.24661 0
M  V30 5040 O 811.445 5.42847 3.03646 0
M  V30 5041 C 812.635 7.41196 3.50753 0
M  V30 5042 O 813.025 7.27073 4.86816 0
M  V30 5043 C 813.515 6.5273 2.63741 0
M  V30 5044 C 812.805 5.1842 2.73198 0
M  V30 5045 N 812.855 4.38762 1.4784 0
M  V30 5046 C 812.775 4.81605 0.168631 0
M  V30 5047 N 812.855 3.85454 -0.713363 0
M  V30 5048 C 812.995 2.6994 0.0566958 0
M  V30 5049 C 813.125 1.34815 -0.338502 0
M  V30 5050 N 813.245 0.496304 0.77465 0
M  V30 5051 C 813.245 0.908403 2.09122 0
M  V30 5052 N 813.375 -0.0517805 3.00955 0
M  V30 5053 N 813.115 2.17875 2.46519 0
M  V30 5054 C 812.995 3.01988 1.4033 0
M  V30 5055 H 810.016 8.36803 2.32493 0
M  V30 5056 H 809.746 6.70197 1.71129 0
M  V30 5057 H 810.613 7.03551 4.13168 0
M  V30 5058 P 814.575 7.20834 5.23717 0
M  V30 5059 O 814.795 7.79853 6.57286 0
M  V30 5060 O 815.365 7.79239 4.12957 0
M  V30 5061 O 814.825 5.63315 5.29344 0
M  V30 5062 C 813.885 4.80255 6.01876 0
M  V30 5063 C 814.615 3.64202 6.65911 0
M  V30 5064 O 814.825 2.60694 5.64732 0
M  V30 5065 C 816.015 3.93473 7.1943 0
M  V30 5066 O 816.405 3.02071 8.21205 0
M  V30 5067 C 816.895 3.73047 5.97036 0
M  V30 5068 C 816.185 2.58828 5.25741 0
M  V30 5069 N 816.235 2.68068 3.77503 0
M  V30 5070 H 813.396 5.40332 6.79951 0
M  V30 5071 H 813.126 4.41613 5.32378 0
M  V30 5072 H 813.993 3.26331 7.47797 0
M  V30 5073 P 817.955 2.75334 8.47391 0
M  V30 5074 O 818.175 2.44619 9.90336 0
M  V30 5075 O 818.745 3.87776 7.92294 0
M  V30 5076 O 818.205 1.4459 7.59357 0
M  V30 5077 C 817.265 0.347653 7.69315 0
M  V30 5078 C 817.995 -0.96767 7.52806 0
M  V30 5079 O 818.205 -1.21055 6.10208 0
M  V30 5080 C 819.395 -1.04557 8.13408 0
M  V30 5081 O 819.785 -2.38311 8.41922 0
M  V30 5082 C 820.275 -0.491279 7.02284 0
M  V30 5083 C 819.565 -0.996264 5.77469 0
M  V30 5084 N 819.615 -0.0501916 4.62973 0
M  V30 5085 H 816.777 0.374765 8.67791 0
M  V30 5086 H 816.505 0.443613 6.90476 0
M  V30 5087 H 817.373 -1.75559 7.96891 0
M  V30 5088 H 820.028 -1.94563 5.46818 0
M  V30 5089 H 820.308 0.608651 7.04676 0
M  V30 5090 H 821.299 -0.889796 7.09039 0
M  V30 5091 H 819.465 -0.433128 9.04664 0
M  V30 5092 P 821.335 -2.75334 8.47391 0
M  V30 5093 O 821.555 -3.84204 9.44982 0
M  V30 5094 O 822.125 -1.51982 8.68909 0
M  V30 5095 O 821.585 -3.29363 6.99321 0
M  V30 5096 C 820.645 -4.24066 6.42823 0
M  V30 5097 C 821.375 -5.20775 5.52155 0
M  V30 5098 O 821.585 -4.56607 4.22514 0
M  V30 5099 C 822.775 -5.62697 5.96604 0
M  V30 5100 O 823.165 -6.87667 5.41053 0
M  V30 5101 C 823.655 -4.52537 5.39283 0
M  V30 5102 C 822.945 -4.20027 4.08623 0
M  V30 5103 N 822.995 -2.76189 3.71603 0
M  V30 5104 H 820.157 -4.79756 7.24086 0
M  V30 5105 H 819.885 -3.69963 5.84682 0
M  V30 5106 H 820.753 -6.10431 5.41508 0
M  V30 5107 H 823.408 -4.78816 3.28024 0
M  V30 5108 H 823.688 -3.64957 6.05871 0
M  V30 5109 H 824.679 -4.88748 5.21323 0
M  V30 5110 H 822.845 -5.66789 7.0643 0
M  V30 5111 P 824.715 -7.20834 5.23717 0
M  V30 5112 O 824.935 -8.66104 5.38572 0
M  V30 5113 O 825.505 -6.33544 6.1349 0
M  V30 5114 O 824.965 -6.7751 3.72168 0
M  V30 5115 C 824.025 -7.20825 2.7076 0
M  V30 5116 C 824.755 -7.45864 1.40599 0
M  V30 5117 O 824.965 -6.17651 0.734225 0
M  V30 5118 C 826.155 -8.05808 1.51899 0
M  V30 5119 O 826.545 -8.74358 0.335205 0
M  V30 5120 C 827.035 -6.83093 1.70294 0
M  V30 5121 C 826.325 -5.79992 0.836974 0
M  V30 5122 N 826.375 -4.41864 1.38293 0
M  V30 5123 H 823.536 -8.13644 3.0377 0
M  V30 5124 H 823.266 -6.42788 2.55485 0
M  V30 5125 H 824.133 -8.12039 0.792769 0
M  V30 5126 P 828.095 -8.91 -5.92927e-12 0
M  V30 5127 O 828.315 -10.1746 -0.733838 0
M  V30 5128 O 828.885 -8.73346 1.23964 0
M  V30 5129 O 828.345 -7.66872 -0.971405 0
M  V30 5130 C 827.405 -7.42405 -2.04668 0
M  V30 5131 C 828.135 -6.86059 -3.24661 0
M  V30 5132 O 828.345 -5.42934 -3.03695 0
M  V30 5133 C 829.535 -7.41287 -3.50796 0
M  V30 5134 O 829.925 -7.27073 -4.86816 0
M  V30 5135 C 830.415 -6.5273 -2.63741 0
M  V30 5136 C 829.705 -5.1842 -2.73198 0
M  V30 5137 N 829.755 -4.38762 -1.4784 0
M  V30 5138 C 829.675 -4.83651 -0.183876 0
M  V30 5139 N 829.745 -3.88759 0.699393 0
M  V30 5140 C 829.895 -2.7404 -0.0575568 0
M  V30 5141 C 830.025 -1.37902 0.293928 0
M  V30 5142 N 830.035 -0.938021 1.54797 0
M  V30 5143 N 830.145 -0.491817 -0.70549 0
M  V30 5144 C 830.135 -0.931735 -1.95979 0
M  V30 5145 N 830.015 -2.16017 -2.41481 0
M  V30 5146 C 829.895 -3.02547 -1.39121 0
M  V30 5147 H 826.917 -8.36899 -2.3252 0
M  V30 5148 H 826.645 -6.70391 -1.71179 0
M  V30 5149 H 827.513 -7.03638 -4.13219 0
M  V30 5150 H 830.168 -4.59931 -3.54016 0
M  V30 5151 H 830.448 -6.88995 -1.59871 0
M  V30 5152 H 831.439 -6.4684 -3.0373 0
M  V30 5153 H 829.605 -8.47002 -3.20749 0
M  V30 5154 H 829.564 -5.8885 0.0765548 0
M  V30 5155 H 829.945 -1.60276 2.32875 0
M  V30 5156 H 830.134 0.0699355 1.73859 0
M  V30 5157 H 830.242 -0.165507 -2.71897 0
M  V30 5158 P 831.475 -7.20834 -5.23717 0
M  V30 5159 O 831.695 -7.79853 -6.57286 0
M  V30 5160 O 832.265 -7.79239 -4.12957 0
M  V30 5161 O 831.725 -5.63315 -5.29344 0
M  V30 5162 C 830.785 -4.80255 -6.01876 0
M  V30 5163 C 831.515 -3.64202 -6.65911 0
M  V30 5164 O 831.725 -2.60694 -5.64732 0
M  V30 5165 C 832.915 -3.93473 -7.1943 0
M  V30 5166 O 833.305 -3.02071 -8.21205 0
M  V30 5167 C 833.795 -3.73047 -5.97036 0
M  V30 5168 C 833.085 -2.58828 -5.25741 0
M  V30 5169 N 833.135 -2.68068 -3.77503 0
M  V30 5170 C 833.055 -3.79715 -2.96723 0
M  V30 5171 N 833.135 -3.5377 -1.68852 0
M  V30 5172 C 833.275 -2.15054 -1.63254 0
M  V30 5173 C 833.405 -1.28964 -0.518571 0
M  V30 5174 N 833.525 0.0538097 -0.918425 0
M  V30 5175 C 833.525 0.494275 -2.22578 0
M  V30 5176 N 833.655 1.81086 -2.40434 0
M  V30 5177 N 833.395 -0.313645 -3.27502 0
M  V30 5178 C 833.275 -1.61829 -2.91033 0
M  V30 5179 H 830.296 -5.40332 -6.79951 0
M  V30 5180 H 830.026 -4.41613 -5.32378 0
M  V30 5181 H 830.893 -3.26331 -7.47797 0
M  V30 5182 P 834.855 -2.75334 -8.47391 0
M  V30 5183 O 835.075 -2.44571 -9.90142 0
M  V30 5184 O 835.645 -3.87688 -7.92115 0
M  V30 5185 O 835.105 -1.4459 -7.59357 0
M  V30 5186 C 834.165 -0.347608 -7.69215 0
M  V30 5187 C 834.895 0.96767 -7.52806 0
M  V30 5188 O 835.105 1.21036 -6.1011 0
M  V30 5189 C 836.295 1.04544 -8.13308 0
M  V30 5190 O 836.685 2.38311 -8.41922 0
M  V30 5191 C 837.175 0.491279 -7.02284 0
M  V30 5192 C 836.465 0.996264 -5.77469 0
M  V30 5193 N 836.515 0.0501916 -4.62973 0
M  V30 5194 H 833.676 -0.374722 -8.67691 0
M  V30 5195 H 833.406 -0.443485 -6.90277 0
M  V30 5196 H 834.273 1.75537 -7.96793 0
M  V30 5197 P 838.235 2.75334 -8.47391 0
M  V30 5198 O 838.455 3.84128 -9.44797 0
M  V30 5199 O 839.025 1.51947 -8.68712 0
M  V30 5200 O 838.485 3.29363 -6.99321 0
M  V30 5201 C 837.545 4.24011 -6.4274 0
M  V30 5202 C 838.275 5.20775 -5.52155 0
M  V30 5203 O 838.485 4.56534 -4.22446 0
M  V30 5204 C 839.675 5.62629 -5.96531 0
M  V30 5205 O 840.065 6.87667 -5.41053 0
M  V30 5206 C 840.555 4.52537 -5.39283 0
M  V30 5207 C 839.845 4.20027 -4.08623 0
M  V30 5208 N 839.895 2.76189 -3.71603 0
M  V30 5209 H 837.056 4.797 -7.24003 0
M  V30 5210 H 836.786 3.69856 -5.84513 0
M  V30 5211 H 837.653 6.10356 -5.41441 0
M  V30 5212 P 841.615 7.20834 -5.23717 0
M  V30 5213 O 841.835 8.66104 -5.38572 0
M  V30 5214 O 842.405 6.33544 -6.1349 0
M  V30 5215 O 841.865 6.7751 -3.72168 0
M  V30 5216 C 840.925 7.20825 -2.7076 0
M  V30 5217 C 841.655 7.45864 -1.40599 0
M  V30 5218 O 841.865 6.17651 -0.734225 0
M  V30 5219 C 843.055 8.05808 -1.51899 0
M  V30 5220 O 843.445 8.74358 -0.335205 0
M  V30 5221 C 843.935 6.83093 -1.70294 0
M  V30 5222 C 843.225 5.79992 -0.836974 0
M  V30 5223 N 843.275 4.41864 -1.38293 0
M  V30 5224 C 843.195 3.99538 -2.69438 0
M  V30 5225 N 843.275 2.69909 -2.84277 0
M  V30 5226 C 843.415 2.21719 -1.5408 0
M  V30 5227 C 843.545 0.891712 -1.06628 0
M  V30 5228 N 843.665 0.856846 0.334985 0
M  V30 5229 C 843.665 1.9641 1.15789 0
M  V30 5230 N 843.795 1.72708 2.46522 0
M  V30 5231 N 843.535 3.21165 0.713741 0
M  V30 5232 C 843.415 3.26797 -0.639748 0
M  V30 5233 H 840.436 8.13644 -3.0377 0
M  V30 5234 H 840.166 6.42788 -2.55485 0
M  V30 5235 H 841.033 8.12039 -0.792769 0
M  V30 5236 P 844.995 8.91 6.08645e-12 0
M  V30 5237 O 845.215 10.1746 0.733838 0
M  V30 5238 O 845.785 8.73346 -1.23964 0
M  V30 5239 O 845.245 7.66872 0.971405 0
M  V30 5240 C 844.305 7.42405 2.04668 0
M  V30 5241 C 845.035 6.86059 3.24661 0
M  V30 5242 O 845.245 5.42934 3.03695 0
M  V30 5243 C 846.435 7.41287 3.50796 0
M  V30 5244 O 846.825 7.27073 4.86816 0
M  V30 5245 C 847.315 6.5273 2.63741 0
M  V30 5246 C 846.605 5.1842 2.73198 0
M  V30 5247 N 846.655 4.38762 1.4784 0
M  V30 5248 H 843.817 8.36899 2.3252 0
M  V30 5249 H 843.545 6.70391 1.71179 0
M  V30 5250 H 844.413 7.03638 4.13219 0
M  V30 5251 H 847.068 4.59931 3.54016 0
M  V30 5252 H 847.348 6.88995 1.59871 0
M  V30 5253 H 848.339 6.4684 3.0373 0
M  V30 5254 H 846.505 8.47002 3.20749 0
M  V30 5255 P 848.375 7.20834 5.23717 0
M  V30 5256 O 848.595 7.79853 6.57286 0
M  V30 5257 O 849.165 7.79239 4.12957 0
M  V30 5258 O 848.625 5.63315 5.29344 0
M  V30 5259 C 847.685 4.80255 6.01876 0
M  V30 5260 C 848.415 3.64202 6.65911 0
M  V30 5261 O 848.625 2.60694 5.64732 0
M  V30 5262 C 849.815 3.93473 7.1943 0
M  V30 5263 O 850.205 3.02071 8.21205 0
M  V30 5264 C 850.695 3.73047 5.97036 0
M  V30 5265 C 849.985 2.58828 5.25741 0
M  V30 5266 N 850.035 2.68068 3.77503 0
M  V30 5267 H 847.196 5.40332 6.79951 0
M  V30 5268 H 846.926 4.41613 5.32378 0
M  V30 5269 H 847.793 3.26331 7.47797 0
M  V30 5270 P 851.755 2.75334 8.47391 0
M  V30 5271 O 851.975 2.44571 9.90142 0
M  V30 5272 O 852.545 3.87688 7.92115 0
M  V30 5273 O 852.005 1.4459 7.59357 0
M  V30 5274 C 851.065 0.347608 7.69215 0
M  V30 5275 C 851.795 -0.96767 7.52806 0
M  V30 5276 O 852.005 -1.21036 6.1011 0
M  V30 5277 C 853.195 -1.04544 8.13308 0
M  V30 5278 O 853.585 -2.38311 8.41922 0
M  V30 5279 C 854.075 -0.491279 7.02284 0
M  V30 5280 C 853.365 -0.996264 5.77469 0
M  V30 5281 N 853.415 -0.0501916 4.62973 0
M  V30 5282 H 850.576 0.374722 8.67691 0
M  V30 5283 H 850.306 0.443485 6.90277 0
M  V30 5284 H 851.173 -1.75537 7.96793 0
M  V30 5285 P 855.135 -2.75334 8.47391 0
M  V30 5286 O 855.355 -3.84128 9.44797 0
M  V30 5287 O 855.925 -1.51947 8.68712 0
M  V30 5288 O 855.385 -3.29363 6.99321 0
M  V30 5289 C 854.445 -4.24011 6.4274 0
M  V30 5290 C 855.175 -5.20775 5.52155 0
M  V30 5291 O 855.385 -4.56534 4.22446 0
M  V30 5292 C 856.575 -5.62629 5.96531 0
M  V30 5293 O 856.965 -6.87667 5.41053 0
M  V30 5294 C 857.455 -4.52537 5.39283 0
M  V30 5295 C 856.745 -4.20027 4.08623 0
M  V30 5296 N 856.795 -2.76189 3.71603 0
M  V30 5297 C 856.715 -1.64862 4.52822 0
M  V30 5298 N 856.795 -0.512671 3.88633 0
M  V30 5299 C 856.935 -0.888083 2.54977 0
M  V30 5300 C 857.065 -0.094668 1.38677 0
M  V30 5301 N 857.185 -0.890102 0.232633 0
M  V30 5302 C 857.185 -2.26958 0.21772 0
M  V30 5303 N 857.315 -2.84626 -0.97925 0
M  V30 5304 N 857.055 -3.0178 1.31033 0
M  V30 5305 C 856.935 -2.26781 2.43843 0
M  V30 5306 H 853.956 -4.797 7.24003 0
M  V30 5307 H 853.686 -3.69856 5.84513 0
M  V30 5308 H 854.553 -6.10356 5.41441 0
M  V30 5309 P 858.515 -7.20834 5.23717 0
M  V30 5310 O 858.735 -8.66104 5.38572 0
M  V30 5311 O 859.305 -6.33544 6.1349 0
M  V30 5312 O 858.765 -6.7751 3.72168 0
M  V30 5313 C 857.825 -7.20825 2.7076 0
M  V30 5314 C 858.555 -7.45864 1.40599 0
M  V30 5315 O 858.765 -6.17651 0.734225 0
M  V30 5316 C 859.955 -8.05808 1.51899 0
M  V30 5317 O 860.345 -8.74358 0.335205 0
M  V30 5318 C 860.835 -6.83093 1.70294 0
M  V30 5319 C 860.125 -5.79992 0.836974 0
M  V30 5320 N 860.175 -4.41864 1.38293 0
M  V30 5321 H 857.336 -8.13644 3.0377 0
M  V30 5322 H 857.066 -6.42788 2.55485 0
M  V30 5323 H 857.933 -8.12039 0.792769 0
M  V30 5324 P 861.895 -8.91 -6.24363e-12 0
M  V30 5325 O 862.115 -10.1746 -0.733838 0
M  V30 5326 O 862.685 -8.73346 1.23964 0
M  V30 5327 O 862.145 -7.66872 -0.971405 0
M  V30 5328 C 861.205 -7.42405 -2.04668 0
M  V30 5329 C 861.935 -6.86059 -3.24661 0
M  V30 5330 O 862.145 -5.42934 -3.03695 0
M  V30 5331 C 863.335 -7.41287 -3.50796 0
M  V30 5332 O 863.725 -7.27073 -4.86816 0
M  V30 5333 C 864.215 -6.5273 -2.63741 0
M  V30 5334 C 863.505 -5.1842 -2.73198 0
M  V30 5335 N 863.555 -4.38762 -1.4784 0
M  V30 5336 C 863.475 -4.83651 -0.183876 0
M  V30 5337 N 863.545 -3.88759 0.699393 0
M  V30 5338 C 863.695 -2.7404 -0.0575568 0
M  V30 5339 C 863.825 -1.37902 0.293928 0
M  V30 5340 N 863.835 -0.938021 1.54797 0
M  V30 5341 N 863.945 -0.491817 -0.70549 0
M  V30 5342 C 863.935 -0.931735 -1.95979 0
M  V30 5343 N 863.815 -2.16017 -2.41481 0
M  V30 5344 C 863.695 -3.02547 -1.39121 0
M  V30 5345 H 860.717 -8.36899 -2.3252 0
M  V30 5346 H 860.445 -6.70391 -1.71179 0
M  V30 5347 H 861.313 -7.03638 -4.13219 0
M  V30 5348 H 863.968 -4.59931 -3.54016 0
M  V30 5349 H 864.248 -6.88995 -1.59871 0
M  V30 5350 H 865.239 -6.4684 -3.0373 0
M  V30 5351 H 863.405 -8.47002 -3.20749 0
M  V30 5352 H 863.364 -5.8885 0.0765548 0
M  V30 5353 H 863.745 -1.60276 2.32875 0
M  V30 5354 H 863.934 0.0699355 1.73859 0
M  V30 5355 H 864.042 -0.165507 -2.71897 0
M  V30 5356 P 865.275 -7.20834 -5.23717 0
M  V30 5357 O 865.495 -7.79853 -6.57286 0
M  V30 5358 O 866.065 -7.79239 -4.12957 0
M  V30 5359 O 865.525 -5.63315 -5.29344 0
M  V30 5360 C 864.585 -4.80255 -6.01876 0
M  V30 5361 C 865.315 -3.64202 -6.65911 0
M  V30 5362 O 865.525 -2.60694 -5.64732 0
M  V30 5363 C 866.715 -3.93473 -7.1943 0
M  V30 5364 O 867.105 -3.02071 -8.21205 0
M  V30 5365 C 867.595 -3.73047 -5.97036 0
M  V30 5366 C 866.885 -2.58828 -5.25741 0
M  V30 5367 N 866.935 -2.68068 -3.77503 0
M  V30 5368 H 864.096 -5.40332 -6.79951 0
M  V30 5369 H 863.826 -4.41613 -5.32378 0
M  V30 5370 H 864.693 -3.26331 -7.47797 0
M  V30 5371 P 868.655 -2.75334 -8.47391 0
M  V30 5372 O 868.875 -2.44571 -9.90142 0
M  V30 5373 O 869.445 -3.87688 -7.92115 0
M  V30 5374 O 868.905 -1.4459 -7.59357 0
M  V30 5375 C 867.965 -0.347608 -7.69215 0
M  V30 5376 C 868.695 0.96767 -7.52806 0
M  V30 5377 O 868.905 1.21036 -6.1011 0
M  V30 5378 C 870.095 1.04544 -8.13308 0
M  V30 5379 O 870.485 2.38311 -8.41922 0
M  V30 5380 C 870.975 0.491279 -7.02284 0
M  V30 5381 C 870.265 0.996264 -5.77469 0
M  V30 5382 N 870.315 0.0501916 -4.62973 0
M  V30 5383 H 867.476 -0.374722 -8.67691 0
M  V30 5384 H 867.206 -0.443485 -6.90277 0
M  V30 5385 H 868.073 1.75537 -7.96793 0
M  V30 5386 P 872.035 2.75334 -8.47391 0
M  V30 5387 O 872.255 3.84128 -9.44797 0
M  V30 5388 O 872.825 1.51947 -8.68712 0
M  V30 5389 O 872.285 3.29363 -6.99321 0
M  V30 5390 C 871.345 4.24011 -6.4274 0
M  V30 5391 C 872.075 5.20775 -5.52155 0
M  V30 5392 O 872.285 4.56534 -4.22446 0
M  V30 5393 C 873.475 5.62629 -5.96531 0
M  V30 5394 O 873.865 6.87667 -5.41053 0
M  V30 5395 C 874.355 4.52537 -5.39283 0
M  V30 5396 C 873.645 4.20027 -4.08623 0
M  V30 5397 N 873.695 2.76189 -3.71603 0
M  V30 5398 H 870.856 4.797 -7.24003 0
M  V30 5399 H 870.586 3.69856 -5.84513 0
M  V30 5400 H 871.453 6.10356 -5.41441 0
M  V30 5401 P 875.415 7.20834 -5.23717 0
M  V30 5402 O 875.635 8.66104 -5.38572 0
M  V30 5403 O 876.205 6.33544 -6.1349 0
M  V30 5404 O 875.665 6.7751 -3.72168 0
M  V30 5405 C 874.725 7.20825 -2.7076 0
M  V30 5406 C 875.455 7.45864 -1.40599 0
M  V30 5407 O 875.665 6.17651 -0.734225 0
M  V30 5408 C 876.855 8.05808 -1.51899 0
M  V30 5409 O 877.245 8.74358 -0.335205 0
M  V30 5410 C 877.735 6.83093 -1.70294 0
M  V30 5411 C 877.025 5.79992 -0.836974 0
M  V30 5412 N 877.075 4.41864 -1.38293 0
M  V30 5413 C 876.995 3.99538 -2.69438 0
M  V30 5414 N 877.075 2.69909 -2.84277 0
M  V30 5415 C 877.215 2.21719 -1.5408 0
M  V30 5416 C 877.345 0.891712 -1.06628 0
M  V30 5417 O 877.365 -0.161298 -1.70137 0
M  V30 5418 N 877.465 0.856846 0.334985 0
M  V30 5419 C 877.465 1.9641 1.15789 0
M  V30 5420 N 877.595 1.72708 2.46522 0
M  V30 5421 N 877.335 3.21165 0.713741 0
M  V30 5422 C 877.215 3.26797 -0.639748 0
M  V30 5423 H 874.236 8.13644 -3.0377 0
M  V30 5424 H 873.966 6.42788 -2.55485 0
M  V30 5425 H 874.833 8.12039 -0.792769 0
M  V30 5426 H 877.488 5.80061 0.166416 0
M  V30 5427 H 877.767 6.51287 -2.75604 0
M  V30 5428 H 878.759 7.01734 -1.34462 0
M  V30 5429 H 876.925 8.73674 -2.38337 0
M  V30 5430 H 876.876 4.68207 -3.53221 0
M  V30 5431 H 877.558 -0.0398818 0.767965 0
M  V30 5432 H 877.595 2.50995 3.13503 0
M  V30 5433 H 877.696 0.759148 2.80716 0
M  V30 5434 P 878.795 8.91 6.40081e-12 0
M  V30 5435 O 879.015 10.1726 0.733694 0
M  V30 5436 O 879.585 8.73148 -1.23936 0
M  V30 5437 O 879.045 7.66872 0.971405 0
M  V30 5438 C 878.105 7.42309 2.04641 0
M  V30 5439 C 878.835 6.86059 3.24661 0
M  V30 5440 O 879.045 5.42847 3.03646 0
M  V30 5441 C 880.235 7.41196 3.50753 0
M  V30 5442 O 880.625 7.27073 4.86816 0
M  V30 5443 C 881.115 6.5273 2.63741 0
M  V30 5444 C 880.405 5.1842 2.73198 0
M  V30 5445 N 880.455 4.38762 1.4784 0
M  V30 5446 H 877.616 8.36803 2.32493 0
M  V30 5447 H 877.346 6.70197 1.71129 0
M  V30 5448 H 878.213 7.03551 4.13168 0
M  V30 5449 P 882.175 7.20834 5.23717 0
M  V30 5450 O 882.395 7.80006 6.57415 0
M  V30 5451 O 882.965 7.79416 4.13051 0
M  V30 5452 O 882.425 5.63315 5.29344 0
M  V30 5453 C 881.485 4.80318 6.01954 0
M  V30 5454 C 882.215 3.64202 6.65911 0
M  V30 5455 O 882.425 2.60736 5.64823 0
M  V30 5456 C 883.615 3.93521 7.19518 0
M  V30 5457 O 884.005 3.02071 8.21205 0
M  V30 5458 C 884.495 3.73047 5.97036 0
M  V30 5459 C 883.785 2.58828 5.25741 0
M  V30 5460 N 883.835 2.68068 3.77503 0
M  V30 5461 C 883.755 3.80474 2.99159 0
M  V30 5462 N 883.825 3.55622 1.71925 0
M  V30 5463 C 883.975 2.1832 1.65733 0
M  V30 5464 C 884.105 1.28842 0.572777 0
M  V30 5465 N 884.115 1.66875 -0.70098 0
M  V30 5466 N 884.225 -0.016788 0.859836 0
M  V30 5467 C 884.215 -0.398145 2.13316 0
M  V30 5468 N 884.095 0.328224 3.22333 0
M  V30 5469 C 883.975 1.62992 2.90383 0
M  V30 5470 H 880.997 5.40394 6.8003 0
M  V30 5471 H 880.725 4.41741 5.32532 0
M  V30 5472 H 881.593 3.26371 7.47889 0
M  V30 5473 H 884.248 1.64007 5.56746 0
M  V30 5474 H 884.528 4.63439 5.3432 0
M  V30 5475 H 885.519 3.44776 6.25925 0
M  V30 5476 H 883.685 4.96707 7.57347 0
M  V30 5477 H 883.644 4.8089 3.39924 0
M  V30 5478 H 884.025 2.66547 -0.941919 0
M  V30 5479 H 884.214 0.965341 -1.44766 0
M  V30 5480 H 884.322 -1.46427 2.29697 0
M  V30 5481 P 885.555 2.75334 8.47391 0
M  V30 5482 O 885.775 2.44571 9.90142 0
M  V30 5483 O 886.345 3.87688 7.92115 0
M  V30 5484 O 885.805 1.4459 7.59357 0
M  V30 5485 C 884.865 0.347608 7.69215 0
M  V30 5486 C 885.595 -0.96767 7.52806 0
M  V30 5487 O 885.805 -1.21036 6.1011 0
M  V30 5488 C 886.995 -1.04544 8.13308 0
M  V30 5489 O 887.385 -2.38311 8.41922 0
M  V30 5490 C 887.875 -0.491279 7.02284 0
M  V30 5491 C 887.165 -0.996264 5.77469 0
M  V30 5492 N 887.215 -0.0501916 4.62973 0
M  V30 5493 H 884.376 0.374722 8.67691 0
M  V30 5494 H 884.106 0.443485 6.90277 0
M  V30 5495 H 884.973 -1.75537 7.96793 0
M  V30 5496 P 888.935 -2.75334 8.47391 0
M  V30 5497 O 889.155 -3.84128 9.44797 0
M  V30 5498 O 889.725 -1.51947 8.68712 0
M  V30 5499 O 889.185 -3.29363 6.99321 0
M  V30 5500 C 888.245 -4.24011 6.4274 0
M  V30 5501 C 888.975 -5.20775 5.52155 0
M  V30 5502 O 889.185 -4.56534 4.22446 0
M  V30 5503 C 890.375 -5.62629 5.96531 0
M  V30 5504 O 890.765 -6.87667 5.41053 0
M  V30 5505 C 891.255 -4.52537 5.39283 0
M  V30 5506 C 890.545 -4.20027 4.08623 0
M  V30 5507 N 890.595 -2.76189 3.71603 0
M  V30 5508 H 887.756 -4.797 7.24003 0
M  V30 5509 H 887.486 -3.69856 5.84513 0
M  V30 5510 H 888.353 -6.10356 5.41441 0
M  V30 5511 P 892.315 -7.20834 5.23717 0
M  V30 5512 O 892.535 -8.66104 5.38572 0
M  V30 5513 O 893.105 -6.33544 6.1349 0
M  V30 5514 O 892.565 -6.7751 3.72168 0
M  V30 5515 C 891.625 -7.20825 2.7076 0
M  V30 5516 C 892.355 -7.45864 1.40599 0
M  V30 5517 O 892.565 -6.17651 0.734225 0
M  V30 5518 C 893.755 -8.05808 1.51899 0
M  V30 5519 O 894.145 -8.74358 0.335205 0
M  V30 5520 C 894.635 -6.83093 1.70294 0
M  V30 5521 C 893.925 -5.79992 0.836974 0
M  V30 5522 N 893.975 -4.41864 1.38293 0
M  V30 5523 H 891.136 -8.13644 3.0377 0
M  V30 5524 H 890.866 -6.42788 2.55485 0
M  V30 5525 H 891.733 -8.12039 0.792769 0
M  V30 5526 P 895.695 -8.91 -6.558e-12 0
M  V30 5527 O 895.915 -10.1736 -0.733766 0
M  V30 5528 O 896.485 -8.73247 1.2395 0
M  V30 5529 O 895.945 -7.66872 -0.971405 0
M  V30 5530 C 895.005 -7.42212 -2.04614 0
M  V30 5531 C 895.735 -6.86059 -3.24661 0
M  V30 5532 O 895.945 -5.42847 -3.03646 0
M  V30 5533 C 897.135 -7.41196 -3.50753 0
M  V30 5534 O 897.525 -7.27073 -4.86816 0
M  V30 5535 C 898.015 -6.5273 -2.63741 0
M  V30 5536 C 897.305 -5.1842 -2.73198 0
M  V30 5537 N 897.355 -4.38668 -1.47808 0
M  V30 5538 C 897.505 -3.02239 -1.60048 0
M  V30 5539 O 897.595 -2.46459 -2.67869 0
M  V30 5540 N 897.545 -2.32436 -0.408571 0
M  V30 5541 C 897.455 -2.85471 0.854993 0
M  V30 5542 O 897.505 -2.12566 1.8531 0
M  V30 5543 C 897.305 -4.28918 0.887335 0
M  V30 5544 C 897.195 -4.91066 2.24619 0
M  V30 5545 C 897.255 -5.00349 -0.255399 0
M  V30 5546 H 894.515 -8.36803 -2.32493 0
M  V30 5547 H 894.246 -6.701 -1.71105 0
M  V30 5548 H 895.113 -7.03551 -4.13168 0
M  V30 5549 H 897.768 -4.59773 -3.53894 0
M  V30 5550 H 898.047 -6.88995 -1.59871 0
M  V30 5551 H 899.039 -6.46749 -3.03687 0
M  V30 5552 H 897.205 -8.46908 -3.20714 0
M  V30 5553 H 897.134 -6.08548 -0.206986 0
M  V30 5554 H 898.164 -5.34836 2.53099 0
M  V30 5555 H 896.427 -5.69638 2.2291 0
M  V30 5556 H 896.915 -4.13971 2.98044 0
M  V30 5557 H 897.651 -1.33211 -0.474216 0
M  V30 5558 P 899.075 -7.20834 -5.23717 0
M  V30 5559 O 899.295 -7.79853 -6.57286 0
M  V30 5560 O 899.865 -7.79239 -4.12957 0
M  V30 5561 O 899.325 -5.63315 -5.29344 0
M  V30 5562 C 898.385 -4.80255 -6.01876 0
M  V30 5563 C 899.115 -3.64202 -6.65911 0
M  V30 5564 O 899.325 -2.60694 -5.64732 0
M  V30 5565 C 900.515 -3.93473 -7.1943 0
M  V30 5566 O 900.905 -3.02071 -8.21205 0
M  V30 5567 C 901.395 -3.73047 -5.97036 0
M  V30 5568 C 900.685 -2.58828 -5.25741 0
M  V30 5569 N 900.735 -2.68068 -3.77503 0
M  V30 5570 H 897.896 -5.40332 -6.79951 0
M  V30 5571 H 897.626 -4.41613 -5.32378 0
M  V30 5572 H 898.493 -3.26331 -7.47797 0
M  V30 5573 P 902.455 -2.75334 -8.47391 0
M  V30 5574 O 902.675 -2.44571 -9.90142 0
M  V30 5575 O 903.245 -3.87688 -7.92115 0
M  V30 5576 O 902.705 -1.4459 -7.59357 0
M  V30 5577 C 901.765 -0.347608 -7.69215 0
M  V30 5578 C 902.495 0.96767 -7.52806 0
M  V30 5579 O 902.705 1.21036 -6.1011 0
M  V30 5580 C 903.895 1.04544 -8.13308 0
M  V30 5581 O 904.285 2.38311 -8.41922 0
M  V30 5582 C 904.775 0.491279 -7.02284 0
M  V30 5583 C 904.065 0.996264 -5.77469 0
M  V30 5584 N 904.115 0.0501916 -4.62973 0
M  V30 5585 H 901.276 -0.374722 -8.67691 0
M  V30 5586 H 901.006 -0.443485 -6.90277 0
M  V30 5587 H 901.873 1.75537 -7.96793 0
M  V30 5588 P 905.835 2.75334 -8.47391 0
M  V30 5589 O 906.055 3.84128 -9.44797 0
M  V30 5590 O 906.625 1.51947 -8.68712 0
M  V30 5591 O 906.085 3.29363 -6.99321 0
M  V30 5592 C 905.145 4.24011 -6.4274 0
M  V30 5593 C 905.875 5.20775 -5.52155 0
M  V30 5594 O 906.085 4.56534 -4.22446 0
M  V30 5595 C 907.275 5.62629 -5.96531 0
M  V30 5596 O 907.665 6.87667 -5.41053 0
M  V30 5597 C 908.155 4.52537 -5.39283 0
M  V30 5598 C 907.445 4.20027 -4.08623 0
M  V30 5599 N 907.495 2.76189 -3.71603 0
M  V30 5600 H 904.656 4.797 -7.24003 0
M  V30 5601 H 904.386 3.69856 -5.84513 0
M  V30 5602 H 905.253 6.10356 -5.41441 0
M  V30 5603 P 909.215 7.20834 -5.23717 0
M  V30 5604 O 909.435 8.66104 -5.38572 0
M  V30 5605 O 910.005 6.33544 -6.1349 0
M  V30 5606 O 909.465 6.7751 -3.72168 0
M  V30 5607 C 908.525 7.20825 -2.7076 0
M  V30 5608 C 909.255 7.45864 -1.40599 0
M  V30 5609 O 909.465 6.17651 -0.734225 0
M  V30 5610 C 910.655 8.05808 -1.51899 0
M  V30 5611 O 911.045 8.74358 -0.335205 0
M  V30 5612 C 911.535 6.83093 -1.70294 0
M  V30 5613 C 910.825 5.79992 -0.836974 0
M  V30 5614 N 910.875 4.41864 -1.38293 0
M  V30 5615 H 908.036 8.13644 -3.0377 0
M  V30 5616 H 907.766 6.42788 -2.55485 0
M  V30 5617 H 908.633 8.12039 -0.792769 0
M  V30 5618 P 912.595 8.91 6.71518e-12 0
M  V30 5619 O 912.815 10.1746 0.733838 0
M  V30 5620 O 913.385 8.73346 -1.23964 0
M  V30 5621 O 912.845 7.66872 0.971405 0
M  V30 5622 C 911.905 7.42405 2.04668 0
M  V30 5623 C 912.635 6.86059 3.24661 0
M  V30 5624 O 912.845 5.42934 3.03695 0
M  V30 5625 C 914.035 7.41287 3.50796 0
M  V30 5626 O 914.425 7.27073 4.86816 0
M  V30 5627 C 914.915 6.5273 2.63741 0
M  V30 5628 C 914.205 5.1842 2.73198 0
M  V30 5629 N 914.255 4.38762 1.4784 0
M  V30 5630 C 914.175 4.83651 0.183876 0
M  V30 5631 N 914.245 3.88759 -0.699393 0
M  V30 5632 C 914.395 2.7404 0.0575568 0
M  V30 5633 C 914.525 1.37902 -0.293928 0
M  V30 5634 N 914.535 0.938021 -1.54797 0
M  V30 5635 N 914.645 0.491817 0.70549 0
M  V30 5636 C 914.635 0.931735 1.95979 0
M  V30 5637 N 914.515 2.16017 2.41481 0
M  V30 5638 C 914.395 3.02547 1.39121 0
M  V30 5639 H 911.417 8.36899 2.3252 0
M  V30 5640 H 911.145 6.70391 1.71179 0
M  V30 5641 H 912.013 7.03638 4.13219 0
M  V30 5642 H 914.668 4.59931 3.54016 0
M  V30 5643 H 914.948 6.88995 1.59871 0
M  V30 5644 H 915.939 6.4684 3.0373 0
M  V30 5645 H 914.105 8.47002 3.20749 0
M  V30 5646 H 914.064 5.8885 -0.0765548 0
M  V30 5647 H 914.445 1.60276 -2.32875 0
M  V30 5648 H 914.634 -0.0699355 -1.73859 0
M  V30 5649 H 914.742 0.165507 2.71897 0
M  V30 5650 P 915.975 7.20834 5.23717 0
M  V30 5651 O 916.195 7.79853 6.57286 0
M  V30 5652 O 916.765 7.79239 4.12957 0
M  V30 5653 O 916.225 5.63315 5.29344 0
M  V30 5654 C 915.285 4.80255 6.01876 0
M  V30 5655 C 916.015 3.64202 6.65911 0
M  V30 5656 O 916.225 2.60694 5.64732 0
M  V30 5657 C 917.415 3.93473 7.1943 0
M  V30 5658 O 917.805 3.02071 8.21205 0
M  V30 5659 C 918.295 3.73047 5.97036 0
M  V30 5660 C 917.585 2.58828 5.25741 0
M  V30 5661 N 917.635 2.68068 3.77503 0
M  V30 5662 H 914.796 5.40332 6.79951 0
M  V30 5663 H 914.526 4.41613 5.32378 0
M  V30 5664 H 915.393 3.26331 7.47797 0
M  V30 5665 P 919.355 2.75334 8.47391 0
M  V30 5666 O 919.575 2.44571 9.90142 0
M  V30 5667 O 920.145 3.87688 7.92115 0
M  V30 5668 O 919.605 1.4459 7.59357 0
M  V30 5669 C 918.665 0.347608 7.69215 0
M  V30 5670 C 919.395 -0.96767 7.52806 0
M  V30 5671 O 919.605 -1.21036 6.1011 0
M  V30 5672 C 920.795 -1.04544 8.13308 0
M  V30 5673 O 921.185 -2.38311 8.41922 0
M  V30 5674 C 921.675 -0.491279 7.02284 0
M  V30 5675 C 920.965 -0.996264 5.77469 0
M  V30 5676 N 921.015 -0.0501916 4.62973 0
M  V30 5677 H 918.176 0.374722 8.67691 0
M  V30 5678 H 917.906 0.443485 6.90277 0
M  V30 5679 H 918.773 -1.75537 7.96793 0
M  V30 5680 P 922.735 -2.75334 8.47391 0
M  V30 5681 O 922.955 -3.84128 9.44797 0
M  V30 5682 O 923.525 -1.51947 8.68712 0
M  V30 5683 O 922.985 -3.29363 6.99321 0
M  V30 5684 C 922.045 -4.24011 6.4274 0
M  V30 5685 C 922.775 -5.20775 5.52155 0
M  V30 5686 O 922.985 -4.56534 4.22446 0
M  V30 5687 C 924.175 -5.62629 5.96531 0
M  V30 5688 O 924.565 -6.87667 5.41053 0
M  V30 5689 C 925.055 -4.52537 5.39283 0
M  V30 5690 C 924.345 -4.20027 4.08623 0
M  V30 5691 N 924.395 -2.76189 3.71603 0
M  V30 5692 H 921.556 -4.797 7.24003 0
M  V30 5693 H 921.286 -3.69856 5.84513 0
M  V30 5694 H 922.153 -6.10356 5.41441 0
M  V30 5695 P 926.115 -7.20834 5.23717 0
M  V30 5696 O 926.335 -8.66104 5.38572 0
M  V30 5697 O 926.905 -6.33544 6.1349 0
M  V30 5698 O 926.365 -6.7751 3.72168 0
M  V30 5699 C 925.425 -7.20825 2.7076 0
M  V30 5700 C 926.155 -7.45864 1.40599 0
M  V30 5701 O 926.365 -6.17651 0.734225 0
M  V30 5702 C 927.555 -8.05808 1.51899 0
M  V30 5703 O 927.945 -8.74358 0.335205 0
M  V30 5704 C 928.435 -6.83093 1.70294 0
M  V30 5705 C 927.725 -5.79992 0.836974 0
M  V30 5706 N 927.775 -4.41864 1.38293 0
M  V30 5707 C 927.695 -3.99538 2.69438 0
M  V30 5708 N 927.775 -2.69909 2.84277 0
M  V30 5709 C 927.915 -2.21719 1.5408 0
M  V30 5710 C 928.045 -0.891712 1.06628 0
M  V30 5711 O 928.065 0.161298 1.70137 0
M  V30 5712 N 928.165 -0.856846 -0.334985 0
M  V30 5713 C 928.165 -1.9641 -1.15789 0
M  V30 5714 N 928.295 -1.72708 -2.46522 0
M  V30 5715 N 928.035 -3.21165 -0.713741 0
M  V30 5716 C 927.915 -3.26797 0.639748 0
M  V30 5717 H 924.936 -8.13644 3.0377 0
M  V30 5718 H 924.666 -6.42788 2.55485 0
M  V30 5719 H 925.533 -8.12039 0.792769 0
M  V30 5720 H 928.188 -5.80061 -0.166416 0
M  V30 5721 H 928.467 -6.51287 2.75604 0
M  V30 5722 H 929.459 -7.01734 1.34462 0
M  V30 5723 H 927.625 -8.73674 2.38337 0
M  V30 5724 H 927.576 -4.68207 3.53221 0
M  V30 5725 H 928.258 0.0398818 -0.767965 0
M  V30 5726 H 928.295 -2.50995 -3.13503 0
M  V30 5727 H 928.396 -0.759148 -2.80716 0
M  V30 5728 P 929.495 -8.91 -6.87236e-12 0
M  V30 5729 O 929.715 -10.1746 -0.733838 0
M  V30 5730 O 930.285 -8.73346 1.23964 0
M  V30 5731 O 929.745 -7.66872 -0.971405 0
M  V30 5732 C 928.805 -7.42405 -2.04668 0
M  V30 5733 C 929.535 -6.86059 -3.24661 0
M  V30 5734 O 929.745 -5.42934 -3.03695 0
M  V30 5735 C 930.935 -7.41287 -3.50796 0
M  V30 5736 O 931.325 -7.27073 -4.86816 0
M  V30 5737 C 931.815 -6.5273 -2.63741 0
M  V30 5738 C 931.105 -5.1842 -2.73198 0
M  V30 5739 N 931.155 -4.38762 -1.4784 0
M  V30 5740 C 931.075 -4.83651 -0.183876 0
M  V30 5741 N 931.145 -3.88759 0.699393 0
M  V30 5742 C 931.295 -2.7404 -0.0575568 0
M  V30 5743 C 931.425 -1.37902 0.293928 0
M  V30 5744 N 931.435 -0.938021 1.54797 0
M  V30 5745 N 931.545 -0.491817 -0.70549 0
M  V30 5746 C 931.535 -0.931735 -1.95979 0
M  V30 5747 N 931.415 -2.16017 -2.41481 0
M  V30 5748 C 931.295 -3.02547 -1.39121 0
M  V30 5749 H 928.317 -8.36899 -2.3252 0
M  V30 5750 H 928.045 -6.70391 -1.71179 0
M  V30 5751 H 928.913 -7.03638 -4.13219 0
M  V30 5752 H 931.568 -4.59931 -3.54016 0
M  V30 5753 H 931.848 -6.88995 -1.59871 0
M  V30 5754 H 932.839 -6.4684 -3.0373 0
M  V30 5755 H 931.005 -8.47002 -3.20749 0
M  V30 5756 H 930.964 -5.8885 0.0765548 0
M  V30 5757 H 931.345 -1.60276 2.32875 0
M  V30 5758 H 931.534 0.0699355 1.73859 0
M  V30 5759 H 931.642 -0.165507 -2.71897 0
M  V30 5760 P 932.874 -7.20834 -5.23717 0
M  V30 5761 O 933.094 -7.80006 -6.57415 0
M  V30 5762 O 933.664 -7.79416 -4.13051 0
M  V30 5763 O 933.124 -5.63315 -5.29344 0
M  V30 5764 C 932.184 -4.80318 -6.01954 0
M  V30 5765 C 932.914 -3.64202 -6.65911 0
M  V30 5766 O 933.124 -2.60736 -5.64823 0
M  V30 5767 C 934.314 -3.93521 -7.19518 0
M  V30 5768 O 934.704 -3.02071 -8.21205 0
M  V30 5769 C 935.194 -3.73047 -5.97036 0
M  V30 5770 C 934.484 -2.58828 -5.25741 0
M  V30 5771 N 934.534 -2.68068 -3.77503 0
M  V30 5772 C 934.454 -3.80474 -2.99159 0
M  V30 5773 N 934.524 -3.55622 -1.71925 0
M  V30 5774 C 934.674 -2.1832 -1.65733 0
M  V30 5775 C 934.804 -1.28842 -0.572777 0
M  V30 5776 N 934.814 -1.66875 0.70098 0
M  V30 5777 N 934.924 0.016788 -0.859836 0
M  V30 5778 C 934.914 0.398145 -2.13316 0
M  V30 5779 N 934.794 -0.328224 -3.22333 0
M  V30 5780 C 934.674 -1.62992 -2.90383 0
M  V30 5781 H 931.696 -5.40394 -6.8003 0
M  V30 5782 H 931.424 -4.41741 -5.32532 0
M  V30 5783 H 932.292 -3.26371 -7.47889 0
M  V30 5784 H 934.947 -1.64007 -5.56746 0
M  V30 5785 H 935.227 -4.63439 -5.3432 0
M  V30 5786 H 936.218 -3.44776 -6.25925 0
M  V30 5787 H 934.384 -4.96707 -7.57347 0
M  V30 5788 H 934.343 -4.8089 -3.39924 0
M  V30 5789 H 934.724 -2.66547 0.941919 0
M  V30 5790 H 934.913 -0.965341 1.44766 0
M  V30 5791 H 935.021 1.46427 -2.29697 0
M  V30 5792 P 936.254 -2.75334 -8.47391 0
M  V30 5793 O 936.474 -2.44619 -9.90336 0
M  V30 5794 O 937.044 -3.87776 -7.92294 0
M  V30 5795 O 936.504 -1.4459 -7.59357 0
M  V30 5796 C 935.564 -0.347653 -7.69315 0
M  V30 5797 C 936.294 0.96767 -7.52806 0
M  V30 5798 O 936.504 1.21055 -6.10208 0
M  V30 5799 C 937.694 1.04557 -8.13408 0
M  V30 5800 O 938.084 2.38311 -8.41922 0
M  V30 5801 C 938.574 0.491279 -7.02284 0
M  V30 5802 C 937.864 0.996264 -5.77469 0
M  V30 5803 N 937.914 0.0501916 -4.62973 0
M  V30 5804 H 935.076 -0.374765 -8.67791 0
M  V30 5805 H 934.804 -0.443613 -6.90476 0
M  V30 5806 H 935.672 1.75559 -7.96891 0
M  V30 5807 H 938.327 1.94563 -5.46818 0
M  V30 5808 H 938.607 -0.608651 -7.04676 0
M  V30 5809 H 939.598 0.889796 -7.09039 0
M  V30 5810 H 937.764 0.433128 -9.04664 0
M  V30 5811 P 939.634 2.75334 -8.47391 0
M  V30 5812 O 939.854 3.84128 -9.44797 0
M  V30 5813 O 940.424 1.51947 -8.68712 0
M  V30 5814 O 939.884 3.29363 -6.99321 0
M  V30 5815 C 938.944 4.24011 -6.4274 0
M  V30 5816 C 939.674 5.20775 -5.52155 0
M  V30 5817 O 939.884 4.56534 -4.22446 0
M  V30 5818 C 941.074 5.62629 -5.96531 0
M  V30 5819 O 941.464 6.87667 -5.41053 0
M  V30 5820 C 941.954 4.52537 -5.39283 0
M  V30 5821 C 941.244 4.20027 -4.08623 0
M  V30 5822 N 941.294 2.76189 -3.71603 0
M  V30 5823 H 938.455 4.797 -7.24003 0
M  V30 5824 H 938.185 3.69856 -5.84513 0
M  V30 5825 H 939.052 6.10356 -5.41441 0
M  V30 5826 P 943.014 7.20834 -5.23717 0
M  V30 5827 O 943.234 8.66274 -5.38678 0
M  V30 5828 O 943.804 6.33687 -6.13629 0
M  V30 5829 O 943.264 6.7751 -3.72168 0
M  V30 5830 C 942.324 7.20919 -2.70795 0
M  V30 5831 C 943.054 7.45864 -1.40599 0
M  V30 5832 O 943.264 6.17751 -0.734343 0
M  V30 5833 C 944.454 8.05906 -1.51917 0
M  V30 5834 O 944.844 8.74358 -0.335205 0
M  V30 5835 C 945.334 6.83093 -1.70294 0
M  V30 5836 C 944.624 5.79992 -0.836974 0
M  V30 5837 N 944.674 4.41864 -1.38293 0
M  V30 5838 C 944.594 4.02089 -2.69407 0
M  V30 5839 N 944.664 2.73403 -2.85089 0
M  V30 5840 C 944.814 2.25086 -1.5642 0
M  V30 5841 C 944.944 0.942887 -1.04836 0
M  V30 5842 N 944.954 -0.150999 -1.80369 0
M  V30 5843 N 945.064 0.812565 0.28167 0
M  V30 5844 C 945.054 1.90572 1.03784 0
M  V30 5845 N 944.934 3.167 0.683905 0
M  V30 5846 C 944.814 3.26538 -0.652815 0
M  V30 5847 H 941.836 8.13738 -3.03804 0
M  V30 5848 H 941.564 6.42974 -2.55559 0
M  V30 5849 H 942.432 8.12139 -0.792866 0
M  V30 5850 H 945.087 5.80178 0.160643 0
M  V30 5851 H 945.367 6.51379 -2.75643 0
M  V30 5852 H 946.358 7.01832 -1.3448 0
M  V30 5853 H 944.524 8.73771 -2.38364 0
M  V30 5854 H 944.483 4.7189 -3.52311 0
M  V30 5855 H 944.864 -0.0721434 -2.82608 0
M  V30 5856 H 945.053 -1.0785 -1.36544 0
M  V30 5857 H 945.161 1.73207 2.10241 0
M  V30 5858 P 946.394 8.91 7.02954e-12 0
M  V30 5859 O 946.614 10.1746 0.733838 0
M  V30 5860 O 947.184 8.73346 -1.23964 0
M  V30 5861 O 946.644 7.66872 0.971405 0
M  V30 5862 C 945.704 7.42405 2.04668 0
M  V30 5863 C 946.434 6.86059 3.24661 0
M  V30 5864 O 946.644 5.42934 3.03695 0
M  V30 5865 C 947.834 7.41287 3.50796 0
M  V30 5866 O 948.224 7.27073 4.86816 0
M  V30 5867 C 948.714 6.5273 2.63741 0
M  V30 5868 C 948.004 5.1842 2.73198 0
M  V30 5869 N 948.054 4.38762 1.4784 0
M  V30 5870 C 947.974 4.83651 0.183876 0
M  V30 5871 N 948.044 3.88759 -0.699393 0
M  V30 5872 C 948.194 2.7404 0.0575568 0
M  V30 5873 C 948.324 1.37902 -0.293928 0
M  V30 5874 N 948.334 0.938021 -1.54797 0
M  V30 5875 N 948.444 0.491817 0.70549 0
M  V30 5876 C 948.434 0.931735 1.95979 0
M  V30 5877 N 948.314 2.16017 2.41481 0
M  V30 5878 C 948.194 3.02547 1.39121 0
M  V30 5879 H 945.216 8.36899 2.3252 0
M  V30 5880 H 944.944 6.70391 1.71179 0
M  V30 5881 H 945.812 7.03638 4.13219 0
M  V30 5882 H 948.467 4.59931 3.54016 0
M  V30 5883 H 948.747 6.88995 1.59871 0
M  V30 5884 H 949.738 6.4684 3.0373 0
M  V30 5885 H 947.904 8.47002 3.20749 0
M  V30 5886 H 947.863 5.8885 -0.0765548 0
M  V30 5887 H 948.244 1.60276 -2.32875 0
M  V30 5888 H 948.433 -0.0699355 -1.73859 0
M  V30 5889 H 948.541 0.165507 2.71897 0
M  V30 5890 P 949.774 7.20834 5.23717 0
M  V30 5891 O 949.994 7.79853 6.57286 0
M  V30 5892 O 950.564 7.79239 4.12957 0
M  V30 5893 O 950.024 5.63315 5.29344 0
M  V30 5894 C 949.084 4.80255 6.01876 0
M  V30 5895 C 949.814 3.64202 6.65911 0
M  V30 5896 O 950.024 2.60694 5.64732 0
M  V30 5897 C 951.214 3.93473 7.1943 0
M  V30 5898 O 951.604 3.02071 8.21205 0
M  V30 5899 C 952.094 3.73047 5.97036 0
M  V30 5900 C 951.384 2.58828 5.25741 0
M  V30 5901 N 951.434 2.68068 3.77503 0
M  V30 5902 H 948.595 5.40332 6.79951 0
M  V30 5903 H 948.325 4.41613 5.32378 0
M  V30 5904 H 949.192 3.26331 7.47797 0
M  V30 5905 P 953.154 2.75334 8.47391 0
M  V30 5906 O 953.374 2.44571 9.90142 0
M  V30 5907 O 953.944 3.87688 7.92115 0
M  V30 5908 O 953.404 1.4459 7.59357 0
M  V30 5909 C 952.464 0.347608 7.69215 0
M  V30 5910 C 953.194 -0.96767 7.52806 0
M  V30 5911 O 953.404 -1.21036 6.1011 0
M  V30 5912 C 954.594 -1.04544 8.13308 0
M  V30 5913 O 954.984 -2.38311 8.41922 0
M  V30 5914 C 955.474 -0.491279 7.02284 0
M  V30 5915 C 954.764 -0.996264 5.77469 0
M  V30 5916 N 954.814 -0.0501916 4.62973 0
M  V30 5917 H 951.975 0.374722 8.67691 0
M  V30 5918 H 951.705 0.443485 6.90277 0
M  V30 5919 H 952.572 -1.75537 7.96793 0
M  V30 5920 P 956.534 -2.75334 8.47391 0
M  V30 5921 O 956.754 -3.84128 9.44797 0
M  V30 5922 O 957.324 -1.51947 8.68712 0
M  V30 5923 O 956.784 -3.29363 6.99321 0
M  V30 5924 C 955.844 -4.24011 6.4274 0
M  V30 5925 C 956.574 -5.20775 5.52155 0
M  V30 5926 O 956.784 -4.56534 4.22446 0
M  V30 5927 C 957.974 -5.62629 5.96531 0
M  V30 5928 O 958.364 -6.87667 5.41053 0
M  V30 5929 C 958.854 -4.52537 5.39283 0
M  V30 5930 C 958.144 -4.20027 4.08623 0
M  V30 5931 N 958.194 -2.76189 3.71603 0
M  V30 5932 H 955.355 -4.797 7.24003 0
M  V30 5933 H 955.085 -3.69856 5.84513 0
M  V30 5934 H 955.952 -6.10356 5.41441 0
M  V30 5935 P 959.914 -7.20834 5.23717 0
M  V30 5936 O 960.134 -8.66104 5.38572 0
M  V30 5937 O 960.704 -6.33544 6.1349 0
M  V30 5938 O 960.164 -6.7751 3.72168 0
M  V30 5939 C 959.224 -7.20825 2.7076 0
M  V30 5940 C 959.954 -7.45864 1.40599 0
M  V30 5941 O 960.164 -6.17651 0.734225 0
M  V30 5942 C 961.354 -8.05808 1.51899 0
M  V30 5943 O 961.744 -8.74358 0.335205 0
M  V30 5944 C 962.234 -6.83093 1.70294 0
M  V30 5945 C 961.524 -5.79992 0.836974 0
M  V30 5946 N 961.574 -4.41864 1.38293 0
M  V30 5947 H 958.735 -8.13644 3.0377 0
M  V30 5948 H 958.465 -6.42788 2.55485 0
M  V30 5949 H 959.332 -8.12039 0.792769 0
M  V30 5950 P 963.294 -8.91 -7.18673e-12 0
M  V30 5951 O 963.514 -10.1726 -0.733694 0
M  V30 5952 O 964.084 -8.73148 1.23936 0
M  V30 5953 O 963.544 -7.66872 -0.971405 0
M  V30 5954 C 962.604 -7.42309 -2.04641 0
M  V30 5955 C 963.334 -6.86059 -3.24661 0
M  V30 5956 O 963.544 -5.42847 -3.03646 0
M  V30 5957 C 964.734 -7.41196 -3.50753 0
M  V30 5958 O 965.124 -7.27073 -4.86816 0
M  V30 5959 C 965.614 -6.5273 -2.63741 0
M  V30 5960 C 964.904 -5.1842 -2.73198 0
M  V30 5961 N 964.954 -4.38762 -1.4784 0
M  V30 5962 H 962.115 -8.36803 -2.32493 0
M  V30 5963 H 961.845 -6.70197 -1.71129 0
M  V30 5964 H 962.712 -7.03551 -4.13168 0
M  V30 5965 P 966.674 -7.20834 -5.23717 0
M  V30 5966 O 966.894 -7.79853 -6.57286 0
M  V30 5967 O 967.464 -7.79239 -4.12957 0
M  V30 5968 O 966.924 -5.63315 -5.29344 0
M  V30 5969 C 965.984 -4.80255 -6.01876 0
M  V30 5970 C 966.714 -3.64202 -6.65911 0
M  V30 5971 O 966.924 -2.60694 -5.64732 0
M  V30 5972 C 968.114 -3.93473 -7.1943 0
M  V30 5973 O 968.504 -3.02071 -8.21205 0
M  V30 5974 C 968.994 -3.73047 -5.97036 0
M  V30 5975 C 968.284 -2.58828 -5.25741 0
M  V30 5976 N 968.334 -2.68068 -3.77503 0
M  V30 5977 H 965.495 -5.40332 -6.79951 0
M  V30 5978 H 965.225 -4.41613 -5.32378 0
M  V30 5979 H 966.092 -3.26331 -7.47797 0
M  V30 5980 P 970.054 -2.75334 -8.47391 0
M  V30 5981 O 970.274 -2.44571 -9.90142 0
M  V30 5982 O 970.844 -3.87688 -7.92115 0
M  V30 5983 O 970.304 -1.4459 -7.59357 0
M  V30 5984 C 969.364 -0.347608 -7.69215 0
M  V30 5985 C 970.094 0.96767 -7.52806 0
M  V30 5986 O 970.304 1.21036 -6.1011 0
M  V30 5987 C 971.494 1.04544 -8.13308 0
M  V30 5988 O 971.884 2.38311 -8.41922 0
M  V30 5989 C 972.374 0.491279 -7.02284 0
M  V30 5990 C 971.664 0.996264 -5.77469 0
M  V30 5991 N 971.714 0.0501916 -4.62973 0
M  V30 5992 C 971.634 -1.32786 -4.63244 0
M  V30 5993 N 971.714 -1.86957 -3.44545 0
M  V30 5994 C 971.854 -0.780241 -2.58481 0
M  V30 5995 C 971.984 -0.738536 -1.17757 0
M  V30 5996 O 972.004 -1.66794 -0.372349 0
M  V30 5997 N 972.104 0.58337 -0.711393 0
M  V30 5998 C 972.104 1.70816 -1.51017 0
M  V30 5999 N 972.234 2.87826 -0.880757 0
M  V30 6000 N 971.974 1.67126 -2.8339 0
M  V30 6001 C 971.854 0.401421 -3.30572 0
M  V30 6002 H 968.875 -0.374722 -8.67691 0
M  V30 6003 H 968.605 -0.443485 -6.90277 0
M  V30 6004 H 969.472 1.75537 -7.96793 0
M  V30 6005 H 972.127 1.95076 -5.46529 0
M  V30 6006 H 972.406 -0.608565 -7.04577 0
M  V30 6007 H 973.398 0.889672 -7.08939 0
M  V30 6008 H 971.564 0.43308 -9.04564 0
M  V30 6009 H 971.515 -1.91249 -5.54442 0
M  V30 6010 H 972.197 0.718054 0.275244 0
M  V30 6011 H 972.234 3.75721 -1.41832 0
M  V30 6012 H 972.335 2.90436 0.145468 0
M  V30 6013 P 973.434 2.75334 -8.47391 0
M  V30 6014 O 973.654 3.84128 -9.44797 0
M  V30 6015 O 974.224 1.51947 -8.68712 0
M  V30 6016 O 973.684 3.29363 -6.99321 0
M  V30 6017 C 972.744 4.24011 -6.4274 0
M  V30 6018 C 973.474 5.20775 -5.52155 0
M  V30 6019 O 973.684 4.56534 -4.22446 0
M  V30 6020 C 974.874 5.62629 -5.96531 0
M  V30 6021 O 975.264 6.87667 -5.41053 0
M  V30 6022 C 975.754 4.52537 -5.39283 0
M  V30 6023 C 975.044 4.20027 -4.08623 0
M  V30 6024 N 975.094 2.76189 -3.71603 0
M  V30 6025 C 975.014 1.64862 -4.52822 0
M  V30 6026 N 975.094 0.512671 -3.88633 0
M  V30 6027 C 975.234 0.888083 -2.54977 0
M  V30 6028 C 975.364 0.094668 -1.38677 0
M  V30 6029 O 975.384 -1.13053 -1.28163 0
M  V30 6030 N 975.484 0.890102 -0.232633 0
M  V30 6031 C 975.484 2.26958 -0.21772 0
M  V30 6032 N 975.614 2.84626 0.97925 0
M  V30 6033 N 975.354 3.0178 -1.31033 0
M  V30 6034 C 975.234 2.26781 -2.43843 0
M  V30 6035 H 972.255 4.797 -7.24003 0
M  V30 6036 H 971.985 3.69856 -5.84513 0
M  V30 6037 H 972.852 6.10356 -5.41441 0
M  V30 6038 H 975.507 4.79061 -3.27488 0
M  V30 6039 H 975.786 3.64906 -6.05785 0
M  V30 6040 H 976.778 4.8868 -5.2125 0
M  V30 6041 H 974.944 5.66726 -7.06352 0
M  V30 6042 H 974.895 1.71169 -5.60966 0
M  V30 6043 H 975.577 0.419134 0.644739 0
M  V30 6044 H 975.614 3.87332 1.06098 0
M  V30 6045 H 975.715 2.26417 1.82483 0
M  V30 6046 P 976.814 7.20834 -5.23717 0
M  V30 6047 O 977.034 8.66104 -5.38572 0
M  V30 6048 O 977.604 6.33544 -6.1349 0
M  V30 6049 O 977.064 6.7751 -3.72168 0
M  V30 6050 C 976.124 7.20825 -2.7076 0
M  V30 6051 C 976.854 7.45864 -1.40599 0
M  V30 6052 O 977.064 6.17651 -0.734225 0
M  V30 6053 C 978.254 8.05808 -1.51899 0
M  V30 6054 O 978.644 8.74358 -0.335205 0
M  V30 6055 C 979.134 6.83093 -1.70294 0
M  V30 6056 C 978.424 5.79992 -0.836974 0
M  V30 6057 N 978.474 4.41864 -1.38293 0
M  V30 6058 H 975.635 8.13644 -3.0377 0
M  V30 6059 H 975.365 6.42788 -2.55485 0
M  V30 6060 H 976.232 8.12039 -0.792769 0
M  V30 6061 P 980.194 8.91 7.34391e-12 0
M  V30 6062 O 980.414 10.1726 0.733694 0
M  V30 6063 O 980.984 8.73148 -1.23936 0
M  V30 6064 O 980.444 7.66872 0.971405 0
M  V30 6065 C 979.504 7.42309 2.04641 0
M  V30 6066 C 980.234 6.86059 3.24661 0
M  V30 6067 O 980.444 5.42847 3.03646 0
M  V30 6068 C 981.634 7.41196 3.50753 0
M  V30 6069 O 982.024 7.27073 4.86816 0
M  V30 6070 C 982.514 6.5273 2.63741 0
M  V30 6071 C 981.804 5.1842 2.73198 0
M  V30 6072 N 981.854 4.38762 1.4784 0
M  V30 6073 H 979.015 8.36803 2.32493 0
M  V30 6074 H 978.745 6.70197 1.71129 0
M  V30 6075 H 979.612 7.03551 4.13168 0
M  V30 6076 P 983.574 7.20834 5.23717 0
M  V30 6077 O 983.794 7.79853 6.57286 0
M  V30 6078 O 984.364 7.79239 4.12957 0
M  V30 6079 O 983.824 5.63315 5.29344 0
M  V30 6080 C 982.884 4.80255 6.01876 0
M  V30 6081 C 983.614 3.64202 6.65911 0
M  V30 6082 O 983.824 2.60694 5.64732 0
M  V30 6083 C 985.014 3.93473 7.1943 0
M  V30 6084 O 985.404 3.02071 8.21205 0
M  V30 6085 C 985.894 3.73047 5.97036 0
M  V30 6086 C 985.184 2.58828 5.25741 0
M  V30 6087 N 985.234 2.68068 3.77503 0
M  V30 6088 H 982.395 5.40332 6.79951 0
M  V30 6089 H 982.125 4.41613 5.32378 0
M  V30 6090 H 982.992 3.26331 7.47797 0
M  V30 6091 P 986.954 2.75334 8.47391 0
M  V30 6092 O 987.174 2.44619 9.90336 0
M  V30 6093 O 987.744 3.87776 7.92294 0
M  V30 6094 O 987.204 1.4459 7.59357 0
M  V30 6095 C 986.264 0.347653 7.69315 0
M  V30 6096 C 986.994 -0.96767 7.52806 0
M  V30 6097 O 987.204 -1.21055 6.10208 0
M  V30 6098 C 988.394 -1.04557 8.13408 0
M  V30 6099 O 988.784 -2.38311 8.41922 0
M  V30 6100 C 989.274 -0.491279 7.02284 0
M  V30 6101 C 988.564 -0.996264 5.77469 0
M  V30 6102 N 988.614 -0.0501916 4.62973 0
M  V30 6103 C 988.534 1.31969 4.65661 0
M  V30 6104 N 988.604 1.86649 3.48119 0
M  V30 6105 C 988.754 0.792089 2.62406 0
M  V30 6106 C 988.884 0.705684 1.2207 0
M  V30 6107 N 988.894 1.76207 0.413762 0
M  V30 6108 N 989.004 -0.518981 0.685754 0
M  V30 6109 C 988.994 -1.57595 1.49174 0
M  V30 6110 N 988.874 -1.62909 2.80066 0
M  V30 6111 C 988.754 -0.388195 3.3073 0
M  V30 6112 H 985.776 0.374765 8.67791 0
M  V30 6113 H 985.504 0.443613 6.90476 0
M  V30 6114 H 986.372 -1.75559 7.96891 0
M  V30 6115 H 989.027 -1.94563 5.46818 0
M  V30 6116 H 989.307 0.608651 7.04676 0
M  V30 6117 H 990.298 -0.889796 7.09039 0
M  V30 6118 H 988.464 -0.433128 9.04664 0
M  V30 6119 H 988.423 1.89246 5.57664 0
M  V30 6120 H 988.804 2.71005 0.804694 0
M  V30 6121 H 988.993 1.63189 -0.603768 0
M  V30 6122 H 989.101 -2.53475 0.997614 0
M  V30 6123 P 990.334 -2.75334 8.47391 0
M  V30 6124 O 990.554 -3.84204 9.44982 0
M  V30 6125 O 991.124 -1.51982 8.68909 0
M  V30 6126 O 990.584 -3.29363 6.99321 0
M  V30 6127 C 989.644 -4.24066 6.42823 0
M  V30 6128 C 990.374 -5.20775 5.52155 0
M  V30 6129 O 990.584 -4.56607 4.22514 0
M  V30 6130 C 991.774 -5.62697 5.96604 0
M  V30 6131 O 992.164 -6.87667 5.41053 0
M  V30 6132 C 992.654 -4.52537 5.39283 0
M  V30 6133 C 991.944 -4.20027 4.08623 0
M  V30 6134 N 991.994 -2.76189 3.71603 0
M  V30 6135 H 989.156 -4.79756 7.24086 0
M  V30 6136 H 988.884 -3.69963 5.84682 0
M  V30 6137 H 989.752 -6.10431 5.41508 0
M  V30 6138 H 992.407 -4.78816 3.28024 0
M  V30 6139 H 992.687 -3.64957 6.05871 0
M  V30 6140 H 993.678 -4.88748 5.21323 0
M  V30 6141 H 991.844 -5.66789 7.0643 0
M  V30 6142 P 993.714 -7.20834 5.23717 0
M  V30 6143 O 993.934 -8.66274 5.38678 0
M  V30 6144 O 994.504 -6.33687 6.13629 0
M  V30 6145 O 993.964 -6.7751 3.72168 0
M  V30 6146 C 993.024 -7.20919 2.70795 0
M  V30 6147 C 993.754 -7.45864 1.40599 0
M  V30 6148 O 993.964 -6.17751 0.734343 0
M  V30 6149 C 995.154 -8.05906 1.51917 0
M  V30 6150 O 995.544 -8.74358 0.335205 0
M  V30 6151 C 996.034 -6.83093 1.70294 0
M  V30 6152 C 995.324 -5.79992 0.836974 0
M  V30 6153 N 995.374 -4.41864 1.38293 0
M  V30 6154 C 995.294 -4.02089 2.69407 0
M  V30 6155 N 995.364 -2.73403 2.85089 0
M  V30 6156 C 995.514 -2.25086 1.5642 0
M  V30 6157 C 995.644 -0.942887 1.04836 0
M  V30 6158 N 995.654 0.150999 1.80369 0
M  V30 6159 N 995.764 -0.812565 -0.28167 0
M  V30 6160 C 995.754 -1.90572 -1.03784 0
M  V30 6161 N 995.634 -3.167 -0.683905 0
M  V30 6162 C 995.514 -3.26538 0.652815 0
M  V30 6163 H 992.536 -8.13738 3.03804 0
M  V30 6164 H 992.264 -6.42974 2.55559 0
M  V30 6165 H 993.132 -8.12139 0.792866 0
M  V30 6166 H 995.787 -5.80178 -0.160643 0
M  V30 6167 H 996.067 -6.51379 2.75643 0
M  V30 6168 H 997.058 -7.01832 1.3448 0
M  V30 6169 H 995.224 -8.73771 2.38364 0
M  V30 6170 H 995.183 -4.7189 3.52311 0
M  V30 6171 H 995.564 0.0721434 2.82608 0
M  V30 6172 H 995.753 1.0785 1.36544 0
M  V30 6173 H 995.861 -1.73207 -2.10241 0
M  V30 6174 P 997.094 -8.91 -7.50109e-12 0
M  V30 6175 O 997.314 -10.1726 -0.733694 0
M  V30 6176 O 997.884 -8.73148 1.23936 0
M  V30 6177 O 997.344 -7.66872 -0.971405 0
M  V30 6178 C 996.404 -7.42309 -2.04641 0
M  V30 6179 C 997.134 -6.86059 -3.24661 0
M  V30 6180 O 997.344 -5.42847 -3.03646 0
M  V30 6181 C 998.534 -7.41196 -3.50753 0
M  V30 6182 O 998.924 -7.27073 -4.86816 0
M  V30 6183 C 999.414 -6.5273 -2.63741 0
M  V30 6184 C 998.704 -5.1842 -2.73198 0
M  V30 6185 N 998.754 -4.38762 -1.4784 0
M  V30 6186 H 995.915 -8.36803 -2.32493 0
M  V30 6187 H 995.645 -6.70197 -1.71129 0
M  V30 6188 H 996.512 -7.03551 -4.13168 0
M  V30 6189 P 1000.47 -7.20834 -5.23717 0
M  V30 6190 O 1000.69 -7.7993 -6.57351 0
M  V30 6191 O 1001.26 -7.79328 -4.13004 0
M  V30 6192 O 1000.72 -5.63315 -5.29344 0
M  V30 6193 C 999.784 -4.80193 -6.01798 0
M  V30 6194 C 1000.51 -3.64202 -6.65911 0
M  V30 6195 O 1000.72 -2.60694 -5.64732 0
M  V30 6196 C 1001.91 -3.93473 -7.1943 0
M  V30 6197 O 1002.3 -3.02071 -8.21205 0
M  V30 6198 C 1002.79 -3.73047 -5.97036 0
M  V30 6199 C 1002.08 -2.58828 -5.25741 0
M  V30 6200 N 1002.13 -2.6801 -3.77422 0
M  V30 6201 C 1002.28 -1.50443 -3.07133 0
M  V30 6202 O 1002.37 -0.419406 -3.61576 0
M  V30 6203 N 1002.32 -1.6403 -1.69677 0
M  V30 6204 C 1002.23 -2.81206 -0.986255 0
M  V30 6205 O 1002.28 -2.80892 0.249754 0
M  V30 6206 C 1002.08 -3.99158 -1.80325 0
M  V30 6207 C 1001.97 -5.29309 -1.06921 0
M  V30 6208 C 1002.03 -3.89779 -3.1476 0
M  V30 6209 H 999.294 -5.40332 -6.79951 0
M  V30 6210 H 999.025 -4.41549 -5.32301 0
M  V30 6211 H 999.892 -3.26331 -7.47797 0
M  V30 6212 H 1002.55 -1.6395 -5.56554 0
M  V30 6213 H 1002.83 -4.63439 -5.3432 0
M  V30 6214 H 1003.82 -3.44728 -6.25838 0
M  V30 6215 H 1001.98 -4.96652 -7.57263 0
M  V30 6216 H 1001.91 -4.80159 -3.74441 0
M  V30 6217 H 1002.94 -5.81459 -1.09608 0
M  V30 6218 H 1001.21 -5.9187 -1.54487 0
M  V30 6219 H 1001.69 -5.10095 -0.0220288 0
M  V30 6220 H 1002.43 -0.798962 -1.16664 0
M  V30 6221 P 1003.85 -2.75334 -8.47391 0
M  V30 6222 O 1004.07 -2.44595 -9.90239 0
M  V30 6223 O 1004.64 -3.87732 -7.92204 0
M  V30 6224 O 1004.1 -1.4459 -7.59357 0
M  V30 6225 C 1003.16 -0.347563 -7.69115 0
M  V30 6226 C 1003.89 0.96767 -7.52806 0
M  V30 6227 O 1004.1 1.21036 -6.1011 0
M  V30 6228 C 1005.29 1.04544 -8.13308 0
M  V30 6229 O 1005.68 2.38311 -8.41922 0
M  V30 6230 C 1006.17 0.491279 -7.02284 0
M  V30 6231 C 1005.46 0.996264 -5.77469 0
M  V30 6232 N 1005.51 0.0501808 -4.62873 0
M  V30 6233 C 1005.66 0.588177 -3.36904 0
M  V30 6234 O 1005.75 1.78598 -3.17173 0
M  V30 6235 N 1005.7 -0.329694 -2.33686 0
M  V30 6236 C 1005.61 -1.6953 -2.45079 0
M  V30 6237 O 1005.66 -2.41926 -1.44899 0
M  V30 6238 C 1005.46 -2.16933 -3.80505 0
M  V30 6239 C 1005.35 -3.65373 -3.97621 0
M  V30 6240 C 1005.41 -1.30326 -4.83752 0
M  V30 6241 H 1002.67 -0.374722 -8.67691 0
M  V30 6242 H 1002.41 -0.443421 -6.90177 0
M  V30 6243 H 1003.27 1.75537 -7.96793 0
M  V30 6244 H 1005.93 1.94496 -5.46629 0
M  V30 6245 H 1006.21 -0.608651 -7.04676 0
M  V30 6246 H 1007.2 0.889672 -7.08939 0
M  V30 6247 H 1005.36 0.43308 -9.04564 0
M  V30 6248 H 1005.29 -1.68366 -5.8516 0
M  V30 6249 H 1006.32 -4.05985 -4.30448 0
M  V30 6250 H 1004.59 -3.88028 -4.72875 0
M  V30 6251 H 1005.07 -4.11381 -3.01609 0
M  V30 6252 H 1005.81 0.0393617 -1.41345 0
M  V30 6253 P 1007.23 2.75334 -8.47391 0
M  V30 6254 O 1007.45 3.84128 -9.44797 0
M  V30 6255 O 1008.02 1.51947 -8.68712 0
M  V30 6256 O 1007.48 3.29363 -6.99321 0
M  V30 6257 C 1006.54 4.24011 -6.4274 0
M  V30 6258 C 1007.27 5.20775 -5.52155 0
M  V30 6259 O 1007.48 4.56534 -4.22446 0
M  V30 6260 C 1008.67 5.62629 -5.96531 0
M  V30 6261 O 1009.06 6.87667 -5.41053 0
M  V30 6262 C 1009.55 4.52537 -5.39283 0
M  V30 6263 C 1008.84 4.20027 -4.08623 0
M  V30 6264 N 1008.89 2.76189 -3.71603 0
M  V30 6265 C 1008.81 1.64862 -4.52822 0
M  V30 6266 N 1008.89 0.512671 -3.88633 0
M  V30 6267 C 1009.03 0.888083 -2.54977 0
M  V30 6268 C 1009.16 0.094668 -1.38677 0
M  V30 6269 N 1009.28 0.890102 -0.232633 0
M  V30 6270 C 1009.28 2.26958 -0.21772 0
M  V30 6271 N 1009.41 2.84626 0.97925 0
M  V30 6272 N 1009.15 3.0178 -1.31033 0
M  V30 6273 C 1009.03 2.26781 -2.43843 0
M  V30 6274 H 1006.06 4.797 -7.24003 0
M  V30 6275 H 1005.79 3.69856 -5.84513 0
M  V30 6276 H 1006.65 6.10356 -5.41441 0
M  V30 6277 P 1010.61 7.20834 -5.23717 0
M  V30 6278 O 1010.83 8.66104 -5.38572 0
M  V30 6279 O 1011.4 6.33544 -6.1349 0
M  V30 6280 O 1010.86 6.7751 -3.72168 0
M  V30 6281 C 1009.92 7.20825 -2.7076 0
M  V30 6282 C 1010.65 7.45864 -1.40599 0
M  V30 6283 O 1010.86 6.17651 -0.734225 0
M  V30 6284 C 1012.05 8.05808 -1.51899 0
M  V30 6285 O 1012.44 8.74358 -0.335205 0
M  V30 6286 C 1012.93 6.83093 -1.70294 0
M  V30 6287 C 1012.22 5.79992 -0.836974 0
M  V30 6288 N 1012.27 4.41864 -1.38293 0
M  V30 6289 H 1009.44 8.13644 -3.0377 0
M  V30 6290 H 1009.17 6.42788 -2.55485 0
M  V30 6291 H 1010.03 8.12039 -0.792769 0
M  V30 6292 P 1013.99 8.91 7.65827e-12 0
M  V30 6293 O 1014.21 10.1736 0.733766 0
M  V30 6294 O 1014.78 8.73247 -1.2395 0
M  V30 6295 O 1014.24 7.66872 0.971405 0
M  V30 6296 C 1013.3 7.42212 2.04614 0
M  V30 6297 C 1014.03 6.86059 3.24661 0
M  V30 6298 O 1014.24 5.42847 3.03646 0
M  V30 6299 C 1015.43 7.41196 3.50753 0
M  V30 6300 O 1015.82 7.27073 4.86816 0
M  V30 6301 C 1016.31 6.5273 2.63741 0
M  V30 6302 C 1015.6 5.1842 2.73198 0
M  V30 6303 N 1015.65 4.38668 1.47808 0
M  V30 6304 C 1015.8 3.02239 1.60048 0
M  V30 6305 O 1015.89 2.46459 2.67869 0
M  V30 6306 N 1015.84 2.32436 0.408571 0
M  V30 6307 C 1015.75 2.85471 -0.854993 0
M  V30 6308 C 1015.6 4.28918 -0.887335 0
M  V30 6309 C 1015.55 5.00349 0.255399 0
M  V30 6310 H 1012.81 8.36803 2.32493 0
M  V30 6311 H 1012.55 6.701 1.71105 0
M  V30 6312 H 1013.41 7.03551 4.13168 0
M  V30 6313 H 1016.07 4.59773 3.53894 0
M  V30 6314 H 1016.35 6.88995 1.59871 0
M  V30 6315 H 1017.34 6.46749 3.03687 0
M  V30 6316 H 1015.5 8.46908 3.20714 0
M  V30 6317 H 1015.43 6.08548 0.206986 0
M  V30 6318 P 1017.37 7.20834 5.23717 0
M  V30 6319 O 1017.59 7.79853 6.57286 0
M  V30 6320 O 1018.16 7.79239 4.12957 0
M  V30 6321 O 1017.62 5.63315 5.29344 0
M  V30 6322 C 1016.68 4.80255 6.01876 0
M  V30 6323 C 1017.41 3.64202 6.65911 0
M  V30 6324 O 1017.62 2.60694 5.64732 0
M  V30 6325 C 1018.81 3.93473 7.1943 0
M  V30 6326 O 1019.2 3.02071 8.21205 0
M  V30 6327 C 1019.69 3.73047 5.97036 0
M  V30 6328 C 1018.98 2.58828 5.25741 0
M  V30 6329 N 1019.03 2.68068 3.77503 0
M  V30 6330 H 1016.19 5.40332 6.79951 0
M  V30 6331 H 1015.92 4.41613 5.32378 0
M  V30 6332 H 1016.79 3.26331 7.47797 0
M  V30 6333 P 1020.75 2.75334 8.47391 0
M  V30 6334 O 1020.97 2.44571 9.90142 0
M  V30 6335 O 1021.54 3.87688 7.92115 0
M  V30 6336 O 1021 1.4459 7.59357 0
M  V30 6337 C 1020.06 0.347608 7.69215 0
M  V30 6338 C 1020.79 -0.96767 7.52806 0
M  V30 6339 O 1021 -1.21036 6.1011 0
M  V30 6340 C 1022.19 -1.04544 8.13308 0
M  V30 6341 O 1022.58 -2.38311 8.41922 0
M  V30 6342 C 1023.07 -0.491279 7.02284 0
M  V30 6343 C 1022.36 -0.996264 5.77469 0
M  V30 6344 N 1022.41 -0.0501916 4.62973 0
M  V30 6345 C 1022.33 1.32786 4.63244 0
M  V30 6346 N 1022.41 1.86957 3.44545 0
M  V30 6347 C 1022.55 0.780241 2.58481 0
M  V30 6348 C 1022.68 0.738536 1.17757 0
M  V30 6349 N 1022.8 -0.58337 0.711393 0
M  V30 6350 C 1022.8 -1.70816 1.51017 0
M  V30 6351 N 1022.93 -2.87826 0.880757 0
M  V30 6352 N 1022.67 -1.67126 2.8339 0
M  V30 6353 C 1022.55 -0.401421 3.30572 0
M  V30 6354 H 1019.57 0.374722 8.67691 0
M  V30 6355 H 1019.3 0.443485 6.90277 0
M  V30 6356 H 1020.17 -1.75537 7.96793 0
M  V30 6357 P 1024.13 -2.75334 8.47391 0
M  V30 6358 O 1024.35 -3.84128 9.44797 0
M  V30 6359 O 1024.92 -1.51947 8.68712 0
M  V30 6360 O 1024.38 -3.29363 6.99321 0
M  V30 6361 C 1023.44 -4.24011 6.4274 0
M  V30 6362 C 1024.17 -5.20775 5.52155 0
M  V30 6363 O 1024.38 -4.56534 4.22446 0
M  V30 6364 C 1025.57 -5.62629 5.96531 0
M  V30 6365 O 1025.96 -6.87667 5.41053 0
M  V30 6366 C 1026.45 -4.52537 5.39283 0
M  V30 6367 C 1025.74 -4.20027 4.08623 0
M  V30 6368 N 1025.79 -2.76189 3.71603 0
M  V30 6369 H 1022.95 -4.797 7.24003 0
M  V30 6370 H 1022.68 -3.69856 5.84513 0
M  V30 6371 H 1023.55 -6.10356 5.41441 0
M  V30 6372 P 1027.51 -7.20834 5.23717 0
M  V30 6373 O 1027.73 -8.66104 5.38572 0
M  V30 6374 O 1028.3 -6.33544 6.1349 0
M  V30 6375 O 1027.76 -6.7751 3.72168 0
M  V30 6376 C 1026.82 -7.20825 2.7076 0
M  V30 6377 C 1027.55 -7.45864 1.40599 0
M  V30 6378 O 1027.76 -6.17651 0.734225 0
M  V30 6379 C 1028.95 -8.05808 1.51899 0
M  V30 6380 O 1029.34 -8.74358 0.335205 0
M  V30 6381 C 1029.83 -6.83093 1.70294 0
M  V30 6382 C 1029.12 -5.79992 0.836974 0
M  V30 6383 N 1029.17 -4.41864 1.38293 0
M  V30 6384 C 1029.09 -3.99538 2.69438 0
M  V30 6385 N 1029.17 -2.69909 2.84277 0
M  V30 6386 C 1029.31 -2.21719 1.5408 0
M  V30 6387 C 1029.44 -0.891712 1.06628 0
M  V30 6388 O 1029.46 0.161298 1.70137 0
M  V30 6389 N 1029.56 -0.856846 -0.334985 0
M  V30 6390 C 1029.56 -1.9641 -1.15789 0
M  V30 6391 N 1029.69 -1.72708 -2.46522 0
M  V30 6392 N 1029.43 -3.21165 -0.713741 0
M  V30 6393 C 1029.31 -3.26797 0.639748 0
M  V30 6394 H 1026.33 -8.13644 3.0377 0
M  V30 6395 H 1026.06 -6.42788 2.55485 0
M  V30 6396 H 1026.93 -8.12039 0.792769 0
M  V30 6397 H 1029.59 -5.80061 -0.166416 0
M  V30 6398 H 1029.87 -6.51287 2.75604 0
M  V30 6399 H 1030.86 -7.01734 1.34462 0
M  V30 6400 H 1029.02 -8.73674 2.38337 0
M  V30 6401 H 1028.97 -4.68207 3.53221 0
M  V30 6402 H 1029.66 0.0398818 -0.767965 0
M  V30 6403 H 1029.69 -2.50995 -3.13503 0
M  V30 6404 H 1029.79 -0.759148 -2.80716 0
M  V30 6405 P 1030.89 -8.91 -7.81545e-12 0
M  V30 6406 O 1031.11 -10.1726 -0.733694 0
M  V30 6407 O 1031.68 -8.73148 1.23936 0
M  V30 6408 O 1031.14 -7.66872 -0.971405 0
M  V30 6409 C 1030.2 -7.42309 -2.04641 0
M  V30 6410 C 1030.93 -6.86059 -3.24661 0
M  V30 6411 O 1031.14 -5.42847 -3.03646 0
M  V30 6412 C 1032.33 -7.41196 -3.50753 0
M  V30 6413 O 1032.72 -7.27073 -4.86816 0
M  V30 6414 C 1033.21 -6.5273 -2.63741 0
M  V30 6415 C 1032.5 -5.1842 -2.73198 0
M  V30 6416 N 1032.55 -4.38762 -1.4784 0
M  V30 6417 C 1032.47 -4.81605 -0.168631 0
M  V30 6418 N 1032.55 -3.85454 0.713363 0
M  V30 6419 C 1032.69 -2.6994 -0.0566958 0
M  V30 6420 C 1032.82 -1.34815 0.338502 0
M  V30 6421 N 1032.94 -0.496304 -0.77465 0
M  V30 6422 C 1032.94 -0.908403 -2.09122 0
M  V30 6423 N 1033.07 0.0517805 -3.00955 0
M  V30 6424 N 1032.81 -2.17875 -2.46519 0
M  V30 6425 C 1032.69 -3.01988 -1.4033 0
M  V30 6426 H 1029.71 -8.36803 -2.32493 0
M  V30 6427 H 1029.44 -6.70197 -1.71129 0
M  V30 6428 H 1030.31 -7.03551 -4.13168 0
M  V30 6429 P 1034.27 -7.20834 -5.23717 0
M  V30 6430 O 1034.49 -7.79853 -6.57286 0
M  V30 6431 O 1035.06 -7.79239 -4.12957 0
M  V30 6432 O 1034.52 -5.63315 -5.29344 0
M  V30 6433 C 1033.58 -4.80255 -6.01876 0
M  V30 6434 C 1034.31 -3.64202 -6.65911 0
M  V30 6435 O 1034.52 -2.60694 -5.64732 0
M  V30 6436 C 1035.71 -3.93473 -7.1943 0
M  V30 6437 O 1036.1 -3.02071 -8.21205 0
M  V30 6438 C 1036.59 -3.73047 -5.97036 0
M  V30 6439 C 1035.88 -2.58828 -5.25741 0
M  V30 6440 N 1035.93 -2.68068 -3.77503 0
M  V30 6441 C 1035.85 -3.79715 -2.96723 0
M  V30 6442 N 1035.93 -3.5377 -1.68852 0
M  V30 6443 C 1036.07 -2.15054 -1.63254 0
M  V30 6444 C 1036.2 -1.28964 -0.518571 0
M  V30 6445 O 1036.22 -1.56826 0.679156 0
M  V30 6446 N 1036.32 0.0538097 -0.918425 0
M  V30 6447 C 1036.32 0.494275 -2.22578 0
M  V30 6448 N 1036.45 1.81086 -2.40434 0
M  V30 6449 N 1036.19 -0.313645 -3.27502 0
M  V30 6450 C 1036.07 -1.61829 -2.91033 0
M  V30 6451 H 1033.09 -5.40332 -6.79951 0
M  V30 6452 H 1032.82 -4.41613 -5.32378 0
M  V30 6453 H 1033.69 -3.26331 -7.47797 0
M  V30 6454 H 1036.35 -1.63422 -5.56814 0
M  V30 6455 H 1036.63 -4.63374 -5.34244 0
M  V30 6456 H 1037.62 -3.44728 -6.25838 0
M  V30 6457 H 1035.78 -4.96652 -7.57263 0
M  V30 6458 H 1035.73 -4.80617 -3.3614 0
M  V30 6459 H 1036.42 0.742702 -0.199384 0
M  V30 6460 H 1036.45 2.20598 -3.35588 0
M  V30 6461 H 1036.55 2.43518 -1.58945 0
M  V30 6462 P 1037.65 -2.75334 -8.47391 0
M  V30 6463 O 1037.87 -2.44571 -9.90142 0
M  V30 6464 O 1038.44 -3.87688 -7.92115 0
M  V30 6465 O 1037.9 -1.4459 -7.59357 0
M  V30 6466 C 1036.96 -0.347608 -7.69215 0
M  V30 6467 C 1037.69 0.96767 -7.52806 0
M  V30 6468 O 1037.9 1.21036 -6.1011 0
M  V30 6469 C 1039.09 1.04544 -8.13308 0
M  V30 6470 O 1039.48 2.38311 -8.41922 0
M  V30 6471 C 1039.97 0.491279 -7.02284 0
M  V30 6472 C 1039.26 0.996264 -5.77469 0
M  V30 6473 N 1039.31 0.0501916 -4.62973 0
M  V30 6474 H 1036.47 -0.374722 -8.67691 0
M  V30 6475 H 1036.2 -0.443485 -6.90277 0
M  V30 6476 H 1037.07 1.75537 -7.96793 0
M  V30 6477 P 1041.03 2.75334 -8.47391 0
M  V30 6478 O 1041.25 3.84166 -9.4489 0
M  V30 6479 O 1041.82 1.51964 -8.6881 0
M  V30 6480 O 1041.28 3.29363 -6.99321 0
M  V30 6481 C 1040.34 4.23956 -6.42656 0
M  V30 6482 C 1041.07 5.20775 -5.52155 0
M  V30 6483 O 1041.28 4.56534 -4.22446 0
M  V30 6484 C 1042.47 5.62629 -5.96531 0
M  V30 6485 O 1042.86 6.87667 -5.41053 0
M  V30 6486 C 1043.35 4.52537 -5.39283 0
M  V30 6487 C 1042.64 4.20027 -4.08623 0
M  V30 6488 N 1042.69 2.7613 -3.71522 0
M  V30 6489 C 1042.84 2.45612 -2.37989 0
M  V30 6490 O 1042.93 3.30919 -1.51621 0
M  V30 6491 N 1042.88 1.10684 -2.08435 0
M  V30 6492 C 1042.79 0.0690084 -2.9792 0
M  V30 6493 O 1042.84 -1.10553 -2.59426 0
M  V30 6494 C 1042.64 0.481522 -4.35345 0
M  V30 6495 C 1042.53 -0.618778 -5.36443 0
M  V30 6496 C 1042.59 1.78906 -4.67968 0
M  V30 6497 H 1039.85 4.797 -7.24003 0
M  V30 6498 H 1039.58 3.69802 -5.84429 0
M  V30 6499 H 1040.45 6.10356 -5.41441 0
M  V30 6500 H 1043.11 4.78651 -3.27911 0
M  V30 6501 H 1043.39 3.64957 -6.05871 0
M  V30 6502 H 1044.38 4.8868 -5.2125 0
M  V30 6503 H 1042.54 5.66726 -7.06352 0
M  V30 6504 H 1042.47 2.07737 -5.72367 0
M  V30 6505 H 1043.5 -0.754375 -5.86871 0
M  V30 6506 H 1041.77 -0.359721 -6.10641 0
M  V30 6507 H 1042.25 -1.55533 -4.8581 0
M  V30 6508 H 1042.99 0.862651 -1.12037 0
M  V30 6509 P 1044.41 7.20834 -5.23717 0
M  V30 6510 O 1044.63 8.66104 -5.38572 0
M  V30 6511 O 1045.2 6.33544 -6.1349 0
M  V30 6512 O 1044.66 6.7751 -3.72168 0
M  V30 6513 C 1043.72 7.20825 -2.7076 0
M  V30 6514 C 1044.45 7.45864 -1.40599 0
M  V30 6515 O 1044.66 6.17651 -0.734225 0
M  V30 6516 C 1045.85 8.05808 -1.51899 0
M  V30 6517 O 1046.24 8.74358 -0.335205 0
M  V30 6518 C 1046.73 6.83093 -1.70294 0
M  V30 6519 C 1046.02 5.79992 -0.836974 0
M  V30 6520 N 1046.07 4.41864 -1.38293 0
M  V30 6521 C 1045.99 3.99538 -2.69438 0
M  V30 6522 N 1046.07 2.69909 -2.84277 0
M  V30 6523 C 1046.21 2.21719 -1.5408 0
M  V30 6524 C 1046.34 0.891712 -1.06628 0
M  V30 6525 N 1046.46 0.856846 0.334985 0
M  V30 6526 C 1046.46 1.9641 1.15789 0
M  V30 6527 N 1046.59 1.72708 2.46522 0
M  V30 6528 N 1046.33 3.21165 0.713741 0
M  V30 6529 C 1046.21 3.26797 -0.639748 0
M  V30 6530 H 1043.23 8.13644 -3.0377 0
M  V30 6531 H 1042.96 6.42788 -2.55485 0
M  V30 6532 H 1043.83 8.12039 -0.792769 0
M  V30 6533 P 1047.79 8.91 7.97264e-12 0
M  V30 6534 O 1048.01 10.1726 0.733694 0
M  V30 6535 O 1048.58 8.73148 -1.23936 0
M  V30 6536 O 1048.04 7.66872 0.971405 0
M  V30 6537 C 1047.1 7.42309 2.04641 0
M  V30 6538 C 1047.83 6.86059 3.24661 0
M  V30 6539 O 1048.04 5.42847 3.03646 0
M  V30 6540 C 1049.23 7.41196 3.50753 0
M  V30 6541 O 1049.62 7.27073 4.86816 0
M  V30 6542 C 1050.11 6.5273 2.63741 0
M  V30 6543 C 1049.4 5.1842 2.73198 0
M  V30 6544 N 1049.45 4.38762 1.4784 0
M  V30 6545 H 1046.61 8.36803 2.32493 0
M  V30 6546 H 1046.34 6.70197 1.71129 0
M  V30 6547 H 1047.21 7.03551 4.13168 0
M  V30 6548 P 1051.17 7.20834 5.23717 0
M  V30 6549 O 1051.39 7.7993 6.57351 0
M  V30 6550 O 1051.96 7.79328 4.13004 0
M  V30 6551 O 1051.42 5.63315 5.29344 0
M  V30 6552 C 1050.48 4.80255 6.01876 0
M  V30 6553 C 1051.21 3.64202 6.65911 0
M  V30 6554 O 1051.42 2.60694 5.64732 0
M  V30 6555 C 1052.61 3.93473 7.1943 0
M  V30 6556 O 1053 3.02071 8.21205 0
M  V30 6557 C 1053.49 3.73047 5.97036 0
M  V30 6558 C 1052.78 2.58828 5.25741 0
M  V30 6559 N 1052.83 2.6801 3.77422 0
M  V30 6560 C 1052.98 1.50173 3.05038 0
M  V30 6561 O 1053.07 0.428832 3.665 0
M  V30 6562 N 1053.03 1.70922 1.55541 0
M  V30 6563 C 1052.93 2.7407 1.06402 0
M  V30 6564 N 1052.98 2.74764 -0.260931 0
M  V30 6565 C 1052.78 3.96781 1.78296 0
M  V30 6566 C 1052.73 3.87909 3.13891 0
M  V30 6567 H 1049.99 5.4027 6.79873 0
M  V30 6568 H 1049.72 4.41549 5.32301 0
M  V30 6569 H 1050.59 3.26371 7.47889 0
M  V30 6570 H 1053.25 1.63978 5.5665 0
M  V30 6571 H 1053.53 4.63439 5.3432 0
M  V30 6572 H 1054.52 3.44728 6.25838 0
M  V30 6573 H 1052.68 4.96652 7.57263 0
M  V30 6574 H 1052.61 4.78425 3.73088 0
M  V30 6575 H 1052.71 4.92593 1.26997 0
M  V30 6576 H 1053.1 1.86285 -0.77595 0
M  V30 6577 H 1052.9 3.63657 -0.773896 0
M  V30 6578 P 1054.55 2.75334 8.47391 0
M  V30 6579 O 1054.77 2.44571 9.90142 0
M  V30 6580 O 1055.34 3.87688 7.92115 0
M  V30 6581 O 1054.8 1.4459 7.59357 0
M  V30 6582 C 1053.86 0.347608 7.69215 0
M  V30 6583 C 1054.59 -0.96767 7.52806 0
M  V30 6584 O 1054.8 -1.21036 6.1011 0
M  V30 6585 C 1055.99 -1.04544 8.13308 0
M  V30 6586 O 1056.38 -2.38311 8.41922 0
M  V30 6587 C 1056.87 -0.491279 7.02284 0
M  V30 6588 C 1056.16 -0.996264 5.77469 0
M  V30 6589 N 1056.21 -0.0501916 4.62973 0
M  V30 6590 H 1053.37 0.374722 8.67691 0
M  V30 6591 H 1053.1 0.443485 6.90277 0
M  V30 6592 H 1053.97 -1.75537 7.96793 0
M  V30 6593 P 1057.93 -2.75334 8.47391 0
M  V30 6594 O 1058.15 -3.84128 9.44797 0
M  V30 6595 O 1058.72 -1.51947 8.68712 0
M  V30 6596 O 1058.18 -3.29363 6.99321 0
M  V30 6597 C 1057.24 -4.24011 6.4274 0
M  V30 6598 C 1057.97 -5.20775 5.52155 0
M  V30 6599 O 1058.18 -4.56534 4.22446 0
M  V30 6600 C 1059.37 -5.62629 5.96531 0
M  V30 6601 O 1059.76 -6.87667 5.41053 0
M  V30 6602 C 1060.25 -4.52537 5.39283 0
M  V30 6603 C 1059.54 -4.20027 4.08623 0
M  V30 6604 N 1059.59 -2.76189 3.71603 0
M  V30 6605 H 1056.75 -4.797 7.24003 0
M  V30 6606 H 1056.48 -3.69856 5.84513 0
M  V30 6607 H 1057.35 -6.10356 5.41441 0
M  V30 6608 P 1061.31 -7.20834 5.23717 0
M  V30 6609 O 1061.53 -8.66189 5.38625 0
M  V30 6610 O 1062.1 -6.33615 6.1356 0
M  V30 6611 O 1061.56 -6.7751 3.72168 0
M  V30 6612 C 1060.62 -7.20732 2.70725 0
M  V30 6613 C 1061.35 -7.45864 1.40599 0
M  V30 6614 O 1061.56 -6.17651 0.734225 0
M  V30 6615 C 1062.75 -8.05808 1.51899 0
M  V30 6616 O 1063.14 -8.74358 0.335205 0
M  V30 6617 C 1063.63 -6.83093 1.70294 0
M  V30 6618 C 1062.92 -5.79992 0.836974 0
M  V30 6619 N 1062.97 -4.41769 1.38263 0
M  V30 6620 C 1063.12 -3.38591 0.481702 0
M  V30 6621 O 1063.21 -3.56839 -0.718452 0
M  V30 6622 N 1063.16 -2.1206 1.03569 0
M  V30 6623 C 1063.07 -1.80696 2.36966 0
M  V30 6624 C 1062.92 -2.94845 3.23898 0
M  V30 6625 C 1062.87 -4.19803 2.73435 0
M  V30 6626 H 1060.13 -8.13644 3.0377 0
M  V30 6627 H 1059.86 -6.42695 2.55448 0
M  V30 6628 H 1060.73 -8.12039 0.792769 0
M  V30 6629 H 1063.39 -5.79978 -0.160587 0
M  V30 6630 H 1063.67 -6.51379 2.75643 0
M  V30 6631 H 1064.66 -7.01734 1.34462 0
M  V30 6632 H 1062.82 -8.73674 2.38337 0
M  V30 6633 H 1062.75 -5.04492 3.4095 0
M  V30 6634 P 1064.69 -8.91 -8.12982e-12 0
M  V30 6635 O 1064.91 -10.1726 -0.733694 0
M  V30 6636 O 1065.48 -8.73148 1.23936 0
M  V30 6637 O 1064.94 -7.66872 -0.971405 0
M  V30 6638 C 1064 -7.42309 -2.04641 0
M  V30 6639 C 1064.73 -6.86059 -3.24661 0
M  V30 6640 O 1064.94 -5.42847 -3.03646 0
M  V30 6641 C 1066.13 -7.41196 -3.50753 0
M  V30 6642 O 1066.52 -7.27073 -4.86816 0
M  V30 6643 C 1067.01 -6.5273 -2.63741 0
M  V30 6644 C 1066.3 -5.1842 -2.73198 0
M  V30 6645 N 1066.35 -4.38762 -1.4784 0
M  V30 6646 H 1063.51 -8.36803 -2.32493 0
M  V30 6647 H 1063.24 -6.70197 -1.71129 0
M  V30 6648 H 1064.11 -7.03551 -4.13168 0
M  V30 6649 P 1068.07 -7.20834 -5.23717 0
M  V30 6650 O 1068.29 -7.79853 -6.57286 0
M  V30 6651 O 1068.86 -7.79239 -4.12957 0
M  V30 6652 O 1068.32 -5.63315 -5.29344 0
M  V30 6653 C 1067.38 -4.80255 -6.01876 0
M  V30 6654 C 1068.11 -3.64202 -6.65911 0
M  V30 6655 O 1068.32 -2.60694 -5.64732 0
M  V30 6656 C 1069.51 -3.93473 -7.1943 0
M  V30 6657 O 1069.9 -3.02071 -8.21205 0
M  V30 6658 C 1070.39 -3.73047 -5.97036 0
M  V30 6659 C 1069.68 -2.58828 -5.25741 0
M  V30 6660 N 1069.73 -2.68068 -3.77503 0
M  V30 6661 H 1066.89 -5.40332 -6.79951 0
M  V30 6662 H 1066.62 -4.41613 -5.32378 0
M  V30 6663 H 1067.49 -3.26331 -7.47797 0
M  V30 6664 P 1071.45 -2.75334 -8.47391 0
M  V30 6665 O 1071.67 -2.44571 -9.90142 0
M  V30 6666 O 1072.24 -3.87688 -7.92115 0
M  V30 6667 O 1071.7 -1.4459 -7.59357 0
M  V30 6668 C 1070.76 -0.347608 -7.69215 0
M  V30 6669 C 1071.49 0.96767 -7.52806 0
M  V30 6670 O 1071.7 1.21036 -6.1011 0
M  V30 6671 C 1072.89 1.04544 -8.13308 0
M  V30 6672 O 1073.28 2.38311 -8.41922 0
M  V30 6673 C 1073.77 0.491279 -7.02284 0
M  V30 6674 C 1073.06 0.996264 -5.77469 0
M  V30 6675 N 1073.11 0.0501916 -4.62973 0
M  V30 6676 H 1070.27 -0.374722 -8.67691 0
M  V30 6677 H 1070 -0.443485 -6.90277 0
M  V30 6678 H 1070.87 1.75537 -7.96793 0
M  V30 6679 P 1074.83 2.75334 -8.47391 0
M  V30 6680 O 1075.05 3.84166 -9.4489 0
M  V30 6681 O 1075.62 1.51964 -8.6881 0
M  V30 6682 O 1075.08 3.29363 -6.99321 0
M  V30 6683 C 1074.14 4.24011 -6.4274 0
M  V30 6684 C 1074.87 5.20775 -5.52155 0
M  V30 6685 O 1075.08 4.56534 -4.22446 0
M  V30 6686 C 1076.27 5.62629 -5.96531 0
M  V30 6687 O 1076.66 6.87667 -5.41053 0
M  V30 6688 C 1077.15 4.52537 -5.39283 0
M  V30 6689 C 1076.44 4.20027 -4.08623 0
M  V30 6690 N 1076.49 2.7613 -3.71522 0
M  V30 6691 C 1076.64 2.43702 -2.37085 0
M  V30 6692 O 1076.73 3.3531 -1.54039 0
M  V30 6693 N 1076.69 0.951103 -2.10621 0
M  V30 6694 C 1076.59 0.165021 -2.93537 0
M  V30 6695 N 1076.64 -1.09723 -2.53253 0
M  V30 6696 C 1076.44 0.469576 -4.32458 0
M  V30 6697 C 1076.39 1.78658 -4.65921 0
M  V30 6698 H 1073.65 4.79645 -7.23919 0
M  V30 6699 H 1073.38 3.69802 -5.84429 0
M  V30 6700 H 1074.25 6.10431 -5.41508 0
M  V30 6701 H 1076.91 4.78733 -3.27967 0
M  V30 6702 H 1077.19 3.64957 -6.05871 0
M  V30 6703 H 1078.18 4.8868 -5.2125 0
M  V30 6704 H 1076.34 5.66726 -7.06352 0
M  V30 6705 H 1076.27 2.06987 -5.70299 0
M  V30 6706 H 1076.37 -0.314383 -5.07728 0
M  V30 6707 H 1076.76 -1.31363 -1.5319 0
M  V30 6708 H 1076.56 -1.85978 -3.21943 0
M  V30 6709 P 1078.21 7.20834 -5.23717 0
M  V30 6710 O 1078.43 8.66104 -5.38572 0
M  V30 6711 O 1079 6.33544 -6.1349 0
M  V30 6712 O 1078.46 6.7751 -3.72168 0
M  V30 6713 C 1077.52 7.20825 -2.7076 0
M  V30 6714 C 1078.25 7.45864 -1.40599 0
M  V30 6715 O 1078.46 6.17651 -0.734225 0
M  V30 6716 C 1079.65 8.05808 -1.51899 0
M  V30 6717 O 1080.04 8.74358 -0.335205 0
M  V30 6718 C 1080.53 6.83093 -1.70294 0
M  V30 6719 C 1079.82 5.79992 -0.836974 0
M  V30 6720 N 1079.87 4.41864 -1.38293 0
M  V30 6721 H 1077.03 8.13644 -3.0377 0
M  V30 6722 H 1076.76 6.42788 -2.55485 0
M  V30 6723 H 1077.63 8.12039 -0.792769 0
M  V30 6724 P 1081.59 8.91 8.287e-12 0
M  V30 6725 O 1081.81 10.1726 0.733694 0
M  V30 6726 O 1082.38 8.73148 -1.23936 0
M  V30 6727 O 1081.84 7.66872 0.971405 0
M  V30 6728 C 1080.9 7.42309 2.04641 0
M  V30 6729 C 1081.63 6.86059 3.24661 0
M  V30 6730 O 1081.84 5.42847 3.03646 0
M  V30 6731 C 1083.03 7.41196 3.50753 0
M  V30 6732 O 1083.42 7.27073 4.86816 0
M  V30 6733 C 1083.91 6.5273 2.63741 0
M  V30 6734 C 1083.2 5.1842 2.73198 0
M  V30 6735 N 1083.25 4.38762 1.4784 0
M  V30 6736 H 1080.41 8.36803 2.32493 0
M  V30 6737 H 1080.14 6.70197 1.71129 0
M  V30 6738 H 1081.01 7.03551 4.13168 0
M  V30 6739 P 1084.97 7.20834 5.23717 0
M  V30 6740 O 1085.19 7.79853 6.57286 0
M  V30 6741 O 1085.76 7.79239 4.12957 0
M  V30 6742 O 1085.22 5.63315 5.29344 0
M  V30 6743 C 1084.28 4.80255 6.01876 0
M  V30 6744 C 1085.01 3.64202 6.65911 0
M  V30 6745 O 1085.22 2.60694 5.64732 0
M  V30 6746 C 1086.41 3.93473 7.1943 0
M  V30 6747 O 1086.8 3.02071 8.21205 0
M  V30 6748 C 1087.29 3.73047 5.97036 0
M  V30 6749 C 1086.58 2.58828 5.25741 0
M  V30 6750 N 1086.63 2.68068 3.77503 0
M  V30 6751 H 1083.79 5.40332 6.79951 0
M  V30 6752 H 1083.52 4.41613 5.32378 0
M  V30 6753 H 1084.39 3.26331 7.47797 0
M  V30 6754 P 1088.35 2.75334 8.47391 0
M  V30 6755 O 1088.57 2.44619 9.90336 0
M  V30 6756 O 1089.14 3.87776 7.92294 0
M  V30 6757 O 1088.6 1.4459 7.59357 0
M  V30 6758 C 1087.66 0.347653 7.69315 0
M  V30 6759 C 1088.39 -0.96767 7.52806 0
M  V30 6760 O 1088.6 -1.21055 6.10208 0
M  V30 6761 C 1089.79 -1.04557 8.13408 0
M  V30 6762 O 1090.18 -2.38311 8.41922 0
M  V30 6763 C 1090.67 -0.491279 7.02284 0
M  V30 6764 C 1089.96 -0.996264 5.77469 0
M  V30 6765 N 1090.01 -0.0501916 4.62973 0
M  V30 6766 C 1089.93 1.31969 4.65661 0
M  V30 6767 N 1090 1.86649 3.48119 0
M  V30 6768 C 1090.15 0.792089 2.62406 0
M  V30 6769 C 1090.28 0.705684 1.2207 0
M  V30 6770 N 1090.29 1.76207 0.413762 0
M  V30 6771 N 1090.4 -0.518981 0.685754 0
M  V30 6772 C 1090.39 -1.57595 1.49174 0
M  V30 6773 N 1090.27 -1.62909 2.80066 0
M  V30 6774 C 1090.15 -0.388195 3.3073 0
M  V30 6775 H 1087.18 0.374765 8.67791 0
M  V30 6776 H 1086.9 0.443613 6.90476 0
M  V30 6777 H 1087.77 -1.75559 7.96891 0
M  V30 6778 H 1090.43 -1.94563 5.46818 0
M  V30 6779 H 1090.71 0.608651 7.04676 0
M  V30 6780 H 1091.7 -0.889796 7.09039 0
M  V30 6781 H 1089.86 -0.433128 9.04664 0
M  V30 6782 H 1089.82 1.89246 5.57664 0
M  V30 6783 H 1090.2 2.71005 0.804694 0
M  V30 6784 H 1090.39 1.63189 -0.603768 0
M  V30 6785 H 1090.5 -2.53475 0.997614 0
M  V30 6786 P 1091.73 -2.75334 8.47391 0
M  V30 6787 O 1091.95 -3.84128 9.44797 0
M  V30 6788 O 1092.52 -1.51947 8.68712 0
M  V30 6789 O 1091.98 -3.29363 6.99321 0
M  V30 6790 C 1091.04 -4.24011 6.4274 0
M  V30 6791 C 1091.77 -5.20775 5.52155 0
M  V30 6792 O 1091.98 -4.56534 4.22446 0
M  V30 6793 C 1093.17 -5.62629 5.96531 0
M  V30 6794 O 1093.56 -6.87667 5.41053 0
M  V30 6795 C 1094.05 -4.52537 5.39283 0
M  V30 6796 C 1093.34 -4.20027 4.08623 0
M  V30 6797 N 1093.39 -2.76189 3.71603 0
M  V30 6798 H 1090.55 -4.797 7.24003 0
M  V30 6799 H 1090.28 -3.69856 5.84513 0
M  V30 6800 H 1091.15 -6.10356 5.41441 0
M  V30 6801 P 1095.11 -7.20834 5.23717 0
M  V30 6802 O 1095.33 -8.66274 5.38678 0
M  V30 6803 O 1095.9 -6.33687 6.13629 0
M  V30 6804 O 1095.36 -6.7751 3.72168 0
M  V30 6805 C 1094.42 -7.20919 2.70795 0
M  V30 6806 C 1095.15 -7.45864 1.40599 0
M  V30 6807 O 1095.36 -6.17751 0.734343 0
M  V30 6808 C 1096.55 -8.05906 1.51917 0
M  V30 6809 O 1096.94 -8.74358 0.335205 0
M  V30 6810 C 1097.43 -6.83093 1.70294 0
M  V30 6811 C 1096.72 -5.79992 0.836974 0
M  V30 6812 N 1096.77 -4.41864 1.38293 0
M  V30 6813 C 1096.69 -4.02089 2.69407 0
M  V30 6814 N 1096.76 -2.73403 2.85089 0
M  V30 6815 C 1096.91 -2.25086 1.5642 0
M  V30 6816 C 1097.04 -0.942887 1.04836 0
M  V30 6817 N 1097.05 0.150999 1.80369 0
M  V30 6818 N 1097.16 -0.812565 -0.28167 0
M  V30 6819 C 1097.15 -1.90572 -1.03784 0
M  V30 6820 N 1097.03 -3.167 -0.683905 0
M  V30 6821 C 1096.91 -3.26538 0.652815 0
M  V30 6822 H 1093.94 -8.13738 3.03804 0
M  V30 6823 H 1093.66 -6.42974 2.55559 0
M  V30 6824 H 1094.53 -8.12139 0.792866 0
M  V30 6825 H 1097.19 -5.80178 -0.160643 0
M  V30 6826 H 1097.47 -6.51379 2.75643 0
M  V30 6827 H 1098.46 -7.01832 1.3448 0
M  V30 6828 H 1096.62 -8.73771 2.38364 0
M  V30 6829 H 1096.58 -4.7189 3.52311 0
M  V30 6830 H 1096.96 0.0721434 2.82608 0
M  V30 6831 H 1097.15 1.0785 1.36544 0
M  V30 6832 H 1097.26 -1.73207 -2.10241 0
M  V30 6833 P 1098.49 -8.91 -8.44418e-12 0
M  V30 6834 O 1098.71 -10.1746 -0.733838 0
M  V30 6835 O 1099.28 -8.73346 1.23964 0
M  V30 6836 O 1098.74 -7.66872 -0.971405 0
M  V30 6837 C 1097.8 -7.42405 -2.04668 0
M  V30 6838 C 1098.53 -6.86059 -3.24661 0
M  V30 6839 O 1098.74 -5.42934 -3.03695 0
M  V30 6840 C 1099.93 -7.41287 -3.50796 0
M  V30 6841 O 1100.32 -7.27073 -4.86816 0
M  V30 6842 C 1100.81 -6.5273 -2.63741 0
M  V30 6843 C 1100.1 -5.1842 -2.73198 0
M  V30 6844 N 1100.15 -4.38762 -1.4784 0
M  V30 6845 H 1097.32 -8.36899 -2.3252 0
M  V30 6846 H 1097.04 -6.70391 -1.71179 0
M  V30 6847 H 1097.91 -7.03638 -4.13219 0
M  V30 6848 H 1100.57 -4.59931 -3.54016 0
M  V30 6849 H 1100.85 -6.88995 -1.59871 0
M  V30 6850 H 1101.84 -6.4684 -3.0373 0
M  V30 6851 H 1100 -8.47002 -3.20749 0
M  V30 6852 P 1101.87 -7.20834 -5.23717 0
M  V30 6853 O 1102.09 -7.79853 -6.57286 0
M  V30 6854 O 1102.66 -7.79239 -4.12957 0
M  V30 6855 O 1102.12 -5.63315 -5.29344 0
M  V30 6856 C 1101.18 -4.80255 -6.01876 0
M  V30 6857 C 1101.91 -3.64202 -6.65911 0
M  V30 6858 O 1102.12 -2.60694 -5.64732 0
M  V30 6859 C 1103.31 -3.93473 -7.1943 0
M  V30 6860 O 1103.7 -3.02071 -8.21205 0
M  V30 6861 C 1104.19 -3.73047 -5.97036 0
M  V30 6862 C 1103.48 -2.58828 -5.25741 0
M  V30 6863 N 1103.53 -2.68068 -3.77503 0
M  V30 6864 H 1100.69 -5.40332 -6.79951 0
M  V30 6865 H 1100.42 -4.41613 -5.32378 0
M  V30 6866 H 1101.29 -3.26331 -7.47797 0
M  V30 6867 P 1105.25 -2.75334 -8.47391 0
M  V30 6868 O 1105.47 -2.44619 -9.90336 0
M  V30 6869 O 1106.04 -3.87776 -7.92294 0
M  V30 6870 O 1105.5 -1.4459 -7.59357 0
M  V30 6871 C 1104.56 -0.347653 -7.69315 0
M  V30 6872 C 1105.29 0.96767 -7.52806 0
M  V30 6873 O 1105.5 1.21055 -6.10208 0
M  V30 6874 C 1106.69 1.04557 -8.13408 0
M  V30 6875 O 1107.08 2.38311 -8.41922 0
M  V30 6876 C 1107.57 0.491279 -7.02284 0
M  V30 6877 C 1106.86 0.996264 -5.77469 0
M  V30 6878 N 1106.91 0.0501916 -4.62973 0
M  V30 6879 C 1106.83 -1.31969 -4.65661 0
M  V30 6880 N 1106.9 -1.86649 -3.48119 0
M  V30 6881 C 1107.05 -0.792089 -2.62406 0
M  V30 6882 C 1107.18 -0.705684 -1.2207 0
M  V30 6883 N 1107.19 -1.76207 -0.413762 0
M  V30 6884 N 1107.3 0.518981 -0.685754 0
M  V30 6885 C 1107.29 1.57595 -1.49174 0
M  V30 6886 N 1107.17 1.62909 -2.80066 0
M  V30 6887 C 1107.05 0.388195 -3.3073 0
M  V30 6888 H 1104.08 -0.374765 -8.67791 0
M  V30 6889 H 1103.8 -0.443613 -6.90476 0
M  V30 6890 H 1104.67 1.75559 -7.96891 0
M  V30 6891 H 1107.33 1.94563 -5.46818 0
M  V30 6892 H 1107.61 -0.608651 -7.04676 0
M  V30 6893 H 1108.6 0.889796 -7.09039 0
M  V30 6894 H 1106.76 0.433128 -9.04664 0
M  V30 6895 H 1106.72 -1.89246 -5.57664 0
M  V30 6896 H 1107.1 -2.71005 -0.804694 0
M  V30 6897 H 1107.29 -1.63189 0.603768 0
M  V30 6898 H 1107.4 2.53475 -0.997614 0
M  V30 6899 P 1108.63 2.75334 -8.47391 0
M  V30 6900 O 1108.85 3.84128 -9.44797 0
M  V30 6901 O 1109.42 1.51947 -8.68712 0
M  V30 6902 O 1108.88 3.29363 -6.99321 0
M  V30 6903 C 1107.94 4.24011 -6.4274 0
M  V30 6904 C 1108.67 5.20775 -5.52155 0
M  V30 6905 O 1108.88 4.56534 -4.22446 0
M  V30 6906 C 1110.07 5.62629 -5.96531 0
M  V30 6907 O 1110.46 6.87667 -5.41053 0
M  V30 6908 C 1110.95 4.52537 -5.39283 0
M  V30 6909 C 1110.24 4.20027 -4.08623 0
M  V30 6910 N 1110.29 2.76189 -3.71603 0
M  V30 6911 H 1107.45 4.797 -7.24003 0
M  V30 6912 H 1107.18 3.69856 -5.84513 0
M  V30 6913 H 1108.05 6.10356 -5.41441 0
M  V30 6914 P 1112.01 7.20834 -5.23717 0
M  V30 6915 O 1112.23 8.66104 -5.38572 0
M  V30 6916 O 1112.8 6.33544 -6.1349 0
M  V30 6917 O 1112.26 6.7751 -3.72168 0
M  V30 6918 C 1111.32 7.20825 -2.7076 0
M  V30 6919 C 1112.05 7.45864 -1.40599 0
M  V30 6920 O 1112.26 6.17651 -0.734225 0
M  V30 6921 C 1113.45 8.05808 -1.51899 0
M  V30 6922 O 1113.84 8.74358 -0.335205 0
M  V30 6923 C 1114.33 6.83093 -1.70294 0
M  V30 6924 C 1113.62 5.79992 -0.836974 0
M  V30 6925 N 1113.67 4.41864 -1.38293 0
M  V30 6926 H 1110.83 8.13644 -3.0377 0
M  V30 6927 H 1110.56 6.42788 -2.55485 0
M  V30 6928 H 1111.43 8.12039 -0.792769 0
M  V30 6929 P 1115.39 8.91 8.60137e-12 0
M  V30 6930 O 1115.61 10.1746 0.733838 0
M  V30 6931 O 1116.18 8.73346 -1.23964 0
M  V30 6932 O 1115.64 7.66872 0.971405 0
M  V30 6933 C 1114.7 7.42405 2.04668 0
M  V30 6934 C 1115.43 6.86059 3.24661 0
M  V30 6935 O 1115.64 5.42934 3.03695 0
M  V30 6936 C 1116.83 7.41287 3.50796 0
M  V30 6937 O 1117.22 7.27073 4.86816 0
M  V30 6938 C 1117.71 6.5273 2.63741 0
M  V30 6939 C 1117 5.1842 2.73198 0
M  V30 6940 N 1117.05 4.38762 1.4784 0
M  V30 6941 C 1116.97 4.83651 0.183876 0
M  V30 6942 N 1117.04 3.88759 -0.699393 0
M  V30 6943 C 1117.19 2.7404 0.0575568 0
M  V30 6944 C 1117.32 1.37902 -0.293928 0
M  V30 6945 N 1117.33 0.938021 -1.54797 0
M  V30 6946 N 1117.44 0.491817 0.70549 0
M  V30 6947 C 1117.43 0.931735 1.95979 0
M  V30 6948 N 1117.31 2.16017 2.41481 0
M  V30 6949 C 1117.19 3.02547 1.39121 0
M  V30 6950 H 1114.22 8.36899 2.3252 0
M  V30 6951 H 1113.94 6.70391 1.71179 0
M  V30 6952 H 1114.81 7.03638 4.13219 0
M  V30 6953 H 1117.47 4.59931 3.54016 0
M  V30 6954 H 1117.75 6.88995 1.59871 0
M  V30 6955 H 1118.74 6.4684 3.0373 0
M  V30 6956 H 1116.9 8.47002 3.20749 0
M  V30 6957 H 1116.86 5.8885 -0.0765548 0
M  V30 6958 H 1117.24 1.60276 -2.32875 0
M  V30 6959 H 1117.43 -0.0699355 -1.73859 0
M  V30 6960 H 1117.54 0.165507 2.71897 0
M  V30 6961 P 1118.77 7.20834 5.23717 0
M  V30 6962 O 1118.99 7.79853 6.57286 0
M  V30 6963 O 1119.56 7.79239 4.12957 0
M  V30 6964 O 1119.02 5.63315 5.29344 0
M  V30 6965 C 1118.08 4.80255 6.01876 0
M  V30 6966 C 1118.81 3.64202 6.65911 0
M  V30 6967 O 1119.02 2.60694 5.64732 0
M  V30 6968 C 1120.21 3.93473 7.1943 0
M  V30 6969 O 1120.6 3.02071 8.21205 0
M  V30 6970 C 1121.09 3.73047 5.97036 0
M  V30 6971 C 1120.38 2.58828 5.25741 0
M  V30 6972 N 1120.43 2.68068 3.77503 0
M  V30 6973 H 1117.59 5.40332 6.79951 0
M  V30 6974 H 1117.32 4.41613 5.32378 0
M  V30 6975 H 1118.19 3.26331 7.47797 0
M  V30 6976 P 1122.15 2.75334 8.47391 0
M  V30 6977 O 1122.37 2.44571 9.90142 0
M  V30 6978 O 1122.94 3.87688 7.92115 0
M  V30 6979 O 1122.4 1.4459 7.59357 0
M  V30 6980 C 1121.46 0.347608 7.69215 0
M  V30 6981 C 1122.19 -0.96767 7.52806 0
M  V30 6982 O 1122.4 -1.21036 6.1011 0
M  V30 6983 C 1123.59 -1.04544 8.13308 0
M  V30 6984 O 1123.98 -2.38311 8.41922 0
M  V30 6985 C 1124.47 -0.491279 7.02284 0
M  V30 6986 C 1123.76 -0.996264 5.77469 0
M  V30 6987 N 1123.81 -0.0501916 4.62973 0
M  V30 6988 C 1123.73 1.32786 4.63244 0
M  V30 6989 N 1123.81 1.86957 3.44545 0
M  V30 6990 C 1123.95 0.780241 2.58481 0
M  V30 6991 C 1124.08 0.738536 1.17757 0
M  V30 6992 O 1124.1 1.66794 0.372349 0
M  V30 6993 N 1124.2 -0.58337 0.711393 0
M  V30 6994 C 1124.2 -1.70816 1.51017 0
M  V30 6995 N 1124.33 -2.87826 0.880757 0
M  V30 6996 N 1124.07 -1.67126 2.8339 0
M  V30 6997 C 1123.95 -0.401421 3.30572 0
M  V30 6998 H 1120.97 0.374722 8.67691 0
M  V30 6999 H 1120.7 0.443485 6.90277 0
M  V30 7000 H 1121.57 -1.75537 7.96793 0
M  V30 7001 H 1124.23 -1.95076 5.46529 0
M  V30 7002 H 1124.51 0.608565 7.04577 0
M  V30 7003 H 1125.5 -0.889672 7.08939 0
M  V30 7004 H 1123.66 -0.43308 9.04564 0
M  V30 7005 H 1123.61 1.91249 5.54442 0
M  V30 7006 H 1124.3 -0.718054 -0.275244 0
M  V30 7007 H 1124.33 -3.75721 1.41832 0
M  V30 7008 H 1124.43 -2.90436 -0.145468 0
M  V30 7009 P 1125.53 -2.75334 8.47391 0
M  V30 7010 O 1125.75 -3.84128 9.44797 0
M  V30 7011 O 1126.32 -1.51947 8.68712 0
M  V30 7012 O 1125.78 -3.29363 6.99321 0
M  V30 7013 C 1124.84 -4.24011 6.4274 0
M  V30 7014 C 1125.57 -5.20775 5.52155 0
M  V30 7015 O 1125.78 -4.56534 4.22446 0
M  V30 7016 C 1126.97 -5.62629 5.96531 0
M  V30 7017 O 1127.36 -6.87667 5.41053 0
M  V30 7018 C 1127.85 -4.52537 5.39283 0
M  V30 7019 C 1127.14 -4.20027 4.08623 0
M  V30 7020 N 1127.19 -2.76189 3.71603 0
M  V30 7021 H 1124.35 -4.797 7.24003 0
M  V30 7022 H 1124.08 -3.69856 5.84513 0
M  V30 7023 H 1124.95 -6.10356 5.41441 0
M  V30 7024 P 1128.91 -7.20834 5.23717 0
M  V30 7025 O 1129.13 -8.66104 5.38572 0
M  V30 7026 O 1129.7 -6.33544 6.1349 0
M  V30 7027 O 1129.16 -6.7751 3.72168 0
M  V30 7028 C 1128.22 -7.20825 2.7076 0
M  V30 7029 C 1128.95 -7.45864 1.40599 0
M  V30 7030 O 1129.16 -6.17651 0.734225 0
M  V30 7031 C 1130.35 -8.05808 1.51899 0
M  V30 7032 O 1130.74 -8.74358 0.335205 0
M  V30 7033 C 1131.23 -6.83093 1.70294 0
M  V30 7034 C 1130.52 -5.79992 0.836974 0
M  V30 7035 N 1130.57 -4.41864 1.38293 0
M  V30 7036 C 1130.49 -3.99538 2.69438 0
M  V30 7037 N 1130.57 -2.69909 2.84277 0
M  V30 7038 C 1130.71 -2.21719 1.5408 0
M  V30 7039 C 1130.84 -0.891712 1.06628 0
M  V30 7040 O 1130.86 0.161298 1.70137 0
M  V30 7041 N 1130.96 -0.856846 -0.334985 0
M  V30 7042 C 1130.96 -1.9641 -1.15789 0
M  V30 7043 N 1131.09 -1.72708 -2.46522 0
M  V30 7044 N 1130.83 -3.21165 -0.713741 0
M  V30 7045 C 1130.71 -3.26797 0.639748 0
M  V30 7046 H 1127.73 -8.13644 3.0377 0
M  V30 7047 H 1127.46 -6.42788 2.55485 0
M  V30 7048 H 1128.33 -8.12039 0.792769 0
M  V30 7049 H 1130.99 -5.80061 -0.166416 0
M  V30 7050 H 1131.27 -6.51287 2.75604 0
M  V30 7051 H 1132.26 -7.01734 1.34462 0
M  V30 7052 H 1130.42 -8.73674 2.38337 0
M  V30 7053 H 1130.37 -4.68207 3.53221 0
M  V30 7054 H 1131.06 0.0398818 -0.767965 0
M  V30 7055 H 1131.09 -2.50995 -3.13503 0
M  V30 7056 H 1131.19 -0.759148 -2.80716 0
M  V30 7057 P 1132.29 -8.91 -8.75855e-12 0
M  V30 7058 O 1132.51 -10.1726 -0.733694 0
M  V30 7059 O 1133.08 -8.73148 1.23936 0
M  V30 7060 O 1132.54 -7.66872 -0.971405 0
M  V30 7061 C 1131.6 -7.42309 -2.04641 0
M  V30 7062 C 1132.33 -6.86059 -3.24661 0
M  V30 7063 O 1132.54 -5.42847 -3.03646 0
M  V30 7064 C 1133.73 -7.41196 -3.50753 0
M  V30 7065 O 1134.12 -7.27073 -4.86816 0
M  V30 7066 C 1134.61 -6.5273 -2.63741 0
M  V30 7067 C 1133.9 -5.1842 -2.73198 0
M  V30 7068 N 1133.95 -4.38762 -1.4784 0
M  V30 7069 H 1131.11 -8.36803 -2.32493 0
M  V30 7070 H 1130.84 -6.70197 -1.71129 0
M  V30 7071 H 1131.71 -7.03551 -4.13168 0
M  V30 7072 P 1135.67 -7.20834 -5.23717 0
M  V30 7073 O 1135.89 -7.80006 -6.57415 0
M  V30 7074 O 1136.46 -7.79416 -4.13051 0
M  V30 7075 O 1135.92 -5.63315 -5.29344 0
M  V30 7076 C 1134.98 -4.80318 -6.01954 0
M  V30 7077 C 1135.71 -3.64202 -6.65911 0
M  V30 7078 O 1135.92 -2.60736 -5.64823 0
M  V30 7079 C 1137.11 -3.93521 -7.19518 0
M  V30 7080 O 1137.5 -3.02071 -8.21205 0
M  V30 7081 C 1137.99 -3.73047 -5.97036 0
M  V30 7082 C 1137.28 -2.58828 -5.25741 0
M  V30 7083 N 1137.33 -2.68068 -3.77503 0
M  V30 7084 C 1137.25 -3.80474 -2.99159 0
M  V30 7085 N 1137.32 -3.55622 -1.71925 0
M  V30 7086 C 1137.47 -2.1832 -1.65733 0
M  V30 7087 C 1137.6 -1.28842 -0.572777 0
M  V30 7088 N 1137.61 -1.66875 0.70098 0
M  V30 7089 N 1137.72 0.016788 -0.859836 0
M  V30 7090 C 1137.71 0.398145 -2.13316 0
M  V30 7091 N 1137.59 -0.328224 -3.22333 0
M  V30 7092 C 1137.47 -1.62992 -2.90383 0
M  V30 7093 H 1134.5 -5.40394 -6.8003 0
M  V30 7094 H 1134.22 -4.41741 -5.32532 0
M  V30 7095 H 1135.09 -3.26371 -7.47889 0
M  V30 7096 H 1137.75 -1.64007 -5.56746 0
M  V30 7097 H 1138.03 -4.63439 -5.3432 0
M  V30 7098 H 1139.02 -3.44776 -6.25925 0
M  V30 7099 H 1137.18 -4.96707 -7.57347 0
M  V30 7100 H 1137.14 -4.8089 -3.39924 0
M  V30 7101 H 1137.52 -2.66547 0.941919 0
M  V30 7102 H 1137.71 -0.965341 1.44766 0
M  V30 7103 H 1137.82 1.46427 -2.29697 0
M  V30 7104 P 1139.05 -2.75334 -8.47391 0
M  V30 7105 O 1139.27 -2.44571 -9.90142 0
M  V30 7106 O 1139.84 -3.87688 -7.92115 0
M  V30 7107 O 1139.3 -1.4459 -7.59357 0
M  V30 7108 C 1138.36 -0.347608 -7.69215 0
M  V30 7109 C 1139.09 0.96767 -7.52806 0
M  V30 7110 O 1139.3 1.21036 -6.1011 0
M  V30 7111 C 1140.49 1.04544 -8.13308 0
M  V30 7112 O 1140.88 2.38311 -8.41922 0
M  V30 7113 C 1141.37 0.491279 -7.02284 0
M  V30 7114 C 1140.66 0.996264 -5.77469 0
M  V30 7115 N 1140.71 0.0501916 -4.62973 0
M  V30 7116 H 1137.87 -0.374722 -8.67691 0
M  V30 7117 H 1137.6 -0.443485 -6.90277 0
M  V30 7118 H 1138.47 1.75537 -7.96793 0
M  V30 7119 P 1142.43 2.75334 -8.47391 0
M  V30 7120 O 1142.65 3.84128 -9.44797 0
M  V30 7121 O 1143.22 1.51947 -8.68712 0
M  V30 7122 O 1142.68 3.29363 -6.99321 0
M  V30 7123 C 1141.74 4.24011 -6.4274 0
M  V30 7124 C 1142.47 5.20775 -5.52155 0
M  V30 7125 O 1142.68 4.56534 -4.22446 0
M  V30 7126 C 1143.87 5.62629 -5.96531 0
M  V30 7127 O 1144.26 6.87667 -5.41053 0
M  V30 7128 C 1144.75 4.52537 -5.39283 0
M  V30 7129 C 1144.04 4.20027 -4.08623 0
M  V30 7130 N 1144.09 2.76189 -3.71603 0
M  V30 7131 H 1141.25 4.797 -7.24003 0
M  V30 7132 H 1140.98 3.69856 -5.84513 0
M  V30 7133 H 1141.85 6.10356 -5.41441 0
M  V30 7134 H 1144.13 6.85814 -4.46035 0
M  V30 7135 H 1148.15 -5.51656 7.74769 0
M  V30 7136 O 1148.03 -4.58361 7.63359 0
M  V30 7137 P 1146.59 -4.23843 7.83734 0
M  V30 7138 O 1146.37 -4.19407 9.29784 0
M  V30 7139 O 1145.8 -5.24426 7.09156 0
M  V30 7140 O 1146.34 -2.7935 7.20758 0
M  V30 7141 C 1147.28 -1.7299 7.50419 0
M  V30 7142 C 1146.55 -0.406376 7.57911 0
M  V30 7143 O 1146.34 0.0897726 6.21935 0
M  V30 7144 C 1145.15 -0.447224 8.1878 0
M  V30 7145 O 1144.76 0.825065 8.71101 0
M  V30 7146 C 1144.27 -0.783801 6.99623 0
M  V30 7147 C 1144.98 -0.0619192 5.85967 0
M  V30 7148 N 1144.93 -0.790462 4.56202 0
M  V30 7149 H 1147.77 -1.93423 8.4679 0
M  V30 7150 H 1148.04 -1.68852 6.70877 0
M  V30 7151 H 1147.18 0.289041 8.15388 0
M  V30 7152 H 1144.52 0.927006 5.72848 0
M  V30 7153 H 1144.24 -1.86973 6.82036 0
M  V30 7154 H 1143.25 -0.403953 7.13357 0
M  V30 7155 H 1145.08 -1.20599 8.97534 0
M  V30 7156 P 1143.21 1.17771 8.83182 0
M  V30 7157 O 1142.99 2.07206 9.98732 0
M  V30 7158 O 1142.42 -0.0743816 8.81969 0
M  V30 7159 O 1142.96 1.97652 7.47304 0
M  V30 7160 C 1143.9 3.01133 7.08783 0
M  V30 7161 C 1143.17 4.12613 6.37049 0
M  V30 7162 O 1142.96 3.72827 4.97879 0
M  V30 7163 C 1141.77 4.45085 6.88694 0
M  V30 7164 O 1141.38 5.7877 6.5624 0
M  V30 7165 C 1140.89 3.47817 6.12078 0
M  V30 7166 C 1141.6 3.39414 4.77697 0
M  V30 7167 N 1141.55 2.04199 4.15538 0
M  V30 7168 H 1144.39 3.41248 7.98759 0
M  V30 7169 H 1144.66 2.57728 6.42 0
M  V30 7170 H 1143.8 5.02657 6.42673 0
M  V30 7171 H 1141.14 4.11708 4.08956 0
M  V30 7172 H 1140.86 2.49626 6.61679 0
M  V30 7173 H 1139.87 3.8662 6.00862 0
M  V30 7174 H 1141.7 4.29991 7.97006 0
M  V30 7175 P 1139.83 6.144 6.45285 0
M  V30 7176 O 1139.61 7.54673 6.86199 0
M  V30 7177 O 1139.04 5.12391 7.179 0
M  V30 7178 O 1139.58 5.99158 4.88404 0
M  V30 7179 C 1140.52 6.60062 3.96313 0
M  V30 7180 C 1139.79 7.08259 2.72856 0
M  V30 7181 O 1139.58 5.9427 1.83651 0
M  V30 7182 C 1138.39 7.65087 2.94749 0
M  V30 7183 O 1138 8.53963 1.90717 0
M  V30 7184 C 1137.51 6.41069 2.90698 0
M  V30 7185 C 1138.22 5.5528 1.86931 0
M  V30 7186 N 1138.17 4.09575 2.15696 0
M  V30 7187 C 1138.02 3.24249 1.08435 0
M  V30 7188 O 1137.93 3.63946 -0.0628747 0
M  V30 7189 N 1137.98 1.90009 1.39973 0
M  V30 7190 C 1138.07 1.34884 2.65614 0
M  V30 7191 O 1138.02 0.123716 2.81728 0
M  V30 7192 C 1138.22 2.3145 3.71736 0
M  V30 7193 C 1138.33 1.75913 5.10438 0
M  V30 7194 C 1138.27 3.63518 3.44754 0
M  V30 7195 H 1141.01 7.45402 4.45526 0
M  V30 7196 H 1141.28 5.86062 3.67208 0
M  V30 7197 H 1140.42 7.84412 2.24479 0
M  V30 7198 H 1137.76 5.73358 0.888409 0
M  V30 7199 H 1137.48 5.90877 3.88583 0
M  V30 7200 H 1136.49 6.65867 2.58821 0
M  V30 7201 H 1138.32 8.16248 3.92006 0
M  V30 7202 H 1138.4 4.34551 4.26383 0
M  V30 7203 H 1137.37 1.85471 5.61775 0
M  V30 7204 H 1139.1 2.31364 5.66257 0
M  V30 7205 H 1138.61 0.695936 5.05229 0
M  V30 7206 H 1137.88 1.26277 0.63625 0
M  V30 7207 P 1136.45 8.7635 1.60911 0
M  V30 7208 O 1136.23 10.1388 1.11561 0
M  V30 7209 O 1135.66 8.36503 2.79617 0
M  V30 7210 O 1136.2 7.71806 0.42951 0
M  V30 7211 C 1137.14 7.67148 -0.673689 0
M  V30 7212 C 1136.41 7.33374 -1.95559 0
M  V30 7213 O 1136.2 5.88721 -2.00726 0
M  V30 7214 C 1135.01 7.92526 -2.10483 0
M  V30 7215 O 1134.62 8.02971 -3.47653 0
M  V30 7216 C 1134.13 6.89602 -1.41652 0
M  V30 7217 C 1134.84 5.59201 -1.75185 0
M  V30 7218 N 1134.79 4.58301 -0.657969 0
M  V30 7219 H 1137.63 8.65116 -0.777161 0
M  V30 7220 H 1137.9 6.9022 -0.46725 0
M  V30 7221 H 1137.04 7.66548 -2.79458 0
M  V30 7222 H 1134.38 5.16165 -2.65183 0
M  V30 7223 H 1134.1 7.06433 -0.329384 0
M  V30 7224 H 1133.11 6.90926 -1.82021 0
M  V30 7225 H 1134.94 8.90873 -1.62657 0
M  V30 7226 P 1133.07 8.03563 -3.84925 0
M  V30 7227 O 1132.85 8.85821 -5.0569 0
M  V30 7228 O 1132.28 8.41101 -2.65469 0
M  V30 7229 O 1132.82 6.49734 -4.18962 0
M  V30 7230 C 1133.76 5.81037 -5.05421 0
M  V30 7231 C 1133.03 4.79018 -5.88876 0
M  V30 7232 O 1132.82 3.58359 -5.08515 0
M  V30 7233 C 1131.63 5.17448 -6.36119 0
M  V30 7234 O 1131.24 4.45322 -7.53318 0
M  V30 7235 C 1130.75 4.74639 -5.19936 0
M  V30 7236 C 1131.46 3.49432 -4.70418 0
M  V30 7237 N 1131.41 3.31776 -3.22945 0
M  V30 7238 C 1131.26 2.02742 -2.72939 0
M  V30 7239 O 1131.17 1.08301 -3.52749 0
M  V30 7240 N 1131.21 1.96117 -1.22063 0
M  V30 7241 C 1131.31 2.8878 -0.551566 0
M  V30 7242 N 1131.26 2.65609 0.750198 0
M  V30 7243 C 1131.46 4.22457 -1.03707 0
M  V30 7244 C 1131.51 4.37979 -2.39113 0
M  V30 7245 H 1134.25 6.54138 -5.7131 0
M  V30 7246 H 1134.52 5.30492 -4.44033 0
M  V30 7247 H 1133.66 4.55945 -6.76735 0
M  V30 7248 H 1131 2.6176 -5.18021 0
M  V30 7249 H 1130.72 5.52233 -4.41941 0
M  V30 7250 H 1129.73 4.52045 -5.53452 0
M  V30 7251 H 1131.56 6.25124 -6.55234 0
M  V30 7252 H 1131.64 5.37936 -2.80552 0
M  V30 7253 H 1131.53 5.07528 -0.359553 0
M  V30 7254 H 1131.15 1.69403 1.09847 0
M  V30 7255 H 1131.34 3.43701 1.41792 0
M  V30 7256 P 1129.69 4.23843 -7.83734 0
M  V30 7257 O 1129.47 4.19407 -9.29784 0
M  V30 7258 O 1128.9 5.24426 -7.09156 0
M  V30 7259 O 1129.44 2.7935 -7.20758 0
M  V30 7260 C 1130.38 1.7299 -7.50419 0
M  V30 7261 C 1129.65 0.406376 -7.57911 0
M  V30 7262 O 1129.44 -0.0897726 -6.21935 0
M  V30 7263 C 1128.25 0.447224 -8.1878 0
M  V30 7264 O 1127.86 -0.825065 -8.71101 0
M  V30 7265 C 1127.37 0.783801 -6.99623 0
M  V30 7266 C 1128.08 0.0619192 -5.85967 0
M  V30 7267 N 1128.03 0.7859 -4.56281 0
M  V30 7268 H 1130.87 1.93423 -8.4679 0
M  V30 7269 H 1131.14 1.68181 -6.71046 0
M  V30 7270 H 1130.28 -0.289041 -8.15388 0
M  V30 7271 P 1126.31 -1.17771 -8.83182 0
M  V30 7272 O 1126.09 -2.07206 -9.98732 0
M  V30 7273 O 1125.52 0.0743816 -8.81969 0
M  V30 7274 O 1126.06 -1.97678 -7.474 0
M  V30 7275 C 1127 -3.01133 -7.08783 0
M  V30 7276 C 1126.27 -4.1203 -6.37546 0
M  V30 7277 O 1126.06 -3.72887 -4.9796 0
M  V30 7278 C 1124.87 -4.45085 -6.88694 0
M  V30 7279 O 1124.48 -5.78836 -6.56315 0
M  V30 7280 C 1123.99 -3.47817 -6.12078 0
M  V30 7281 C 1124.7 -3.39414 -4.77697 0
M  V30 7282 N 1124.65 -2.04615 -4.15333 0
M  V30 7283 C 1124.5 -1.96929 -2.77162 0
M  V30 7284 O 1124.41 -3.02017 -2.12006 0
M  V30 7285 N 1124.45 -0.55485 -2.24237 0
M  V30 7286 C 1124.55 0.367808 -2.9169 0
M  V30 7287 N 1124.5 1.53426 -2.29427 0
M  V30 7288 C 1124.7 0.319148 -4.33828 0
M  V30 7289 C 1124.75 -0.920672 -4.90433 0
M  V30 7290 H 1127.49 -3.41209 -7.98667 0
M  V30 7291 H 1127.76 -2.5837 -6.41742 0
M  V30 7292 H 1126.9 -5.02718 -6.42752 0
M  V30 7293 H 1124.24 -4.11779 -4.09026 0
M  V30 7294 H 1123.96 -2.49661 -6.61772 0
M  V30 7295 H 1122.97 -3.86674 -6.00946 0
M  V30 7296 H 1124.8 -4.29991 -7.97006 0
M  V30 7297 H 1124.88 -1.00589 -5.98303 0
M  V30 7298 H 1124.77 1.22639 -4.93799 0
M  V30 7299 H 1124.39 1.56819 -1.27167 0
M  V30 7300 H 1124.58 2.41062 -2.83063 0
M  V30 7301 P 1122.93 -6.144 -6.45285 0
M  V30 7302 O 1122.71 -7.54673 -6.86199 0
M  V30 7303 O 1122.14 -5.12391 -7.179 0
M  V30 7304 O 1122.68 -5.99158 -4.88404 0
M  V30 7305 C 1123.62 -6.60234 -3.96415 0
M  V30 7306 C 1122.89 -7.08259 -2.72856 0
M  V30 7307 O 1122.68 -5.9427 -1.83651 0
M  V30 7308 C 1121.49 -7.64886 -2.9555 0
M  V30 7309 O 1121.1 -8.53963 -1.90717 0
M  V30 7310 C 1120.61 -6.4116 -2.90739 0
M  V30 7311 C 1121.32 -5.55375 -1.86963 0
M  V30 7312 N 1121.27 -4.09448 -2.16152 0
M  V30 7313 H 1124.11 -7.45574 -4.45629 0
M  V30 7314 H 1124.38 -5.85864 -3.679 0
M  V30 7315 H 1123.52 -7.84412 -2.24479 0
M  V30 7316 H 1120.86 -5.73457 -0.888562 0
M  V30 7317 H 1120.58 -5.90877 -3.88583 0
M  V30 7318 H 1119.59 -6.6596 -2.58858 0
M  V30 7319 H 1121.42 -8.16339 -3.92049 0
M  V30 7320 P 1119.55 -8.7635 -1.60911 0
M  V30 7321 O 1119.33 -10.1388 -1.11561 0
M  V30 7322 O 1118.76 -8.36503 -2.79617 0
M  V30 7323 O 1119.3 -7.71806 -0.42951 0
M  V30 7324 C 1120.24 -7.66948 0.673514 0
M  V30 7325 C 1119.51 -7.33374 1.95559 0
M  V30 7326 O 1119.3 -5.88721 2.00726 0
M  V30 7327 C 1118.11 -7.92218 2.1125 0
M  V30 7328 O 1117.72 -8.02971 3.47653 0
M  V30 7329 C 1117.23 -6.89504 1.41631 0
M  V30 7330 C 1117.94 -5.59106 1.75155 0
M  V30 7331 N 1117.89 -4.58136 0.662409 0
M  V30 7332 C 1117.74 -3.26059 1.02863 0
M  V30 7333 O 1117.65 -2.90743 2.19009 0
M  V30 7334 N 1117.7 -2.35995 -0.0155585 0
M  V30 7335 C 1117.79 -2.65248 -1.35603 0
M  V30 7336 O 1117.74 -1.75605 -2.20651 0
M  V30 7337 C 1117.94 -4.05747 -1.64698 0
M  V30 7338 C 1118.05 -4.42345 -3.09553 0
M  V30 7339 C 1117.99 -4.96734 -0.652411 0
M  V30 7340 H 1120.73 -8.64917 0.776982 0
M  V30 7341 H 1121 -6.89974 0.474015 0
M  V30 7342 H 1120.14 -7.66548 2.79458 0
M  V30 7343 H 1117.48 -5.16076 2.65138 0
M  V30 7344 H 1117.2 -7.06433 0.329384 0
M  V30 7345 H 1116.21 -6.90829 1.81996 0
M  V30 7346 H 1118.04 -8.90774 1.62639 0
M  V30 7347 H 1118.12 -6.02181 -0.895285 0
M  V30 7348 H 1117.09 -4.80252 -3.45468 0
M  V30 7349 H 1118.82 -5.20015 -3.22119 0
M  V30 7350 H 1118.33 -3.53269 -3.67833 0
M  V30 7351 H 1117.6 -1.39558 0.227499 0
M  V30 7352 P 1116.17 -8.03563 3.84925 0
M  V30 7353 O 1115.95 -8.85821 5.0569 0
M  V30 7354 O 1115.38 -8.41101 2.65469 0
M  V30 7355 O 1115.92 -6.4965 4.18908 0
M  V30 7356 C 1116.86 -5.81037 5.05421 0
M  V30 7357 C 1116.13 -4.78366 5.89277 0
M  V30 7358 O 1115.92 -3.58302 5.08433 0
M  V30 7359 C 1114.73 -5.17448 6.36119 0
M  V30 7360 O 1114.34 -4.45271 7.53232 0
M  V30 7361 C 1113.85 -4.74639 5.19936 0
M  V30 7362 C 1114.56 -3.49432 4.70418 0
M  V30 7363 N 1114.51 -3.31776 3.22945 0
M  V30 7364 H 1117.35 -6.54213 5.71376 0
M  V30 7365 H 1117.62 -5.30492 4.44033 0
M  V30 7366 H 1116.76 -4.55889 6.76652 0
M  V30 7367 P 1112.79 -4.23843 7.83734 0
M  V30 7368 O 1112.57 -4.19407 9.29784 0
M  V30 7369 O 1112 -5.24426 7.09156 0
M  V30 7370 O 1112.54 -2.7935 7.20758 0
M  V30 7371 C 1113.48 -1.7299 7.50419 0
M  V30 7372 C 1112.75 -0.406376 7.57911 0
M  V30 7373 O 1112.54 0.0897726 6.21935 0
M  V30 7374 C 1111.35 -0.447224 8.1878 0
M  V30 7375 O 1110.96 0.825065 8.71101 0
M  V30 7376 C 1110.47 -0.783801 6.99623 0
M  V30 7377 C 1111.18 -0.0619192 5.85967 0
M  V30 7378 N 1111.13 -0.7859 4.56281 0
M  V30 7379 H 1113.97 -1.93423 8.4679 0
M  V30 7380 H 1114.24 -1.68181 6.71046 0
M  V30 7381 H 1113.38 0.289041 8.15388 0
M  V30 7382 P 1109.41 1.17771 8.83182 0
M  V30 7383 O 1109.19 2.07206 9.98732 0
M  V30 7384 O 1108.62 -0.0743816 8.81969 0
M  V30 7385 O 1109.16 1.97652 7.47304 0
M  V30 7386 C 1110.1 3.01055 7.08599 0
M  V30 7387 C 1109.37 4.12613 6.37049 0
M  V30 7388 O 1109.16 3.72827 4.97879 0
M  V30 7389 C 1107.97 4.45719 6.88164 0
M  V30 7390 O 1107.58 5.7877 6.5624 0
M  V30 7391 C 1107.09 3.47768 6.11991 0
M  V30 7392 C 1107.8 3.39356 4.77615 0
M  V30 7393 N 1107.75 2.04571 4.15244 0
M  V30 7394 C 1107.6 1.98587 2.78314 0
M  V30 7395 O 1107.51 2.98134 2.08835 0
M  V30 7396 N 1107.56 0.714467 2.24925 0
M  V30 7397 C 1107.65 -0.470001 2.94169 0
M  V30 7398 O 1107.6 -1.55587 2.35195 0
M  V30 7399 C 1107.8 -0.312541 4.36783 0
M  V30 7400 C 1107.91 -1.57711 5.16352 0
M  V30 7401 C 1107.85 0.914512 4.92583 0
M  V30 7402 H 1110.59 3.41169 7.98575 0
M  V30 7403 H 1110.86 2.58295 6.41556 0
M  V30 7404 H 1110 5.02657 6.42673 0
M  V30 7405 H 1107.34 4.11637 4.08885 0
M  V30 7406 H 1107.06 2.49626 6.61679 0
M  V30 7407 H 1106.07 3.86566 6.00778 0
M  V30 7408 H 1107.9 4.29943 7.96918 0
M  V30 7409 H 1107.98 1.00937 6.00374 0
M  V30 7410 H 1106.95 -1.80153 5.63503 0
M  V30 7411 H 1108.68 -1.4566 5.94104 0
M  V30 7412 H 1108.19 -2.40664 4.49645 0
M  V30 7413 H 1107.46 0.647622 1.25697 0
M  V30 7414 P 1106.03 6.144 6.45285 0
M  V30 7415 O 1105.81 7.54673 6.86199 0
M  V30 7416 O 1105.24 5.12391 7.179 0
M  V30 7417 O 1105.78 5.99158 4.88404 0
M  V30 7418 C 1106.72 6.60234 3.96415 0
M  V30 7419 C 1105.99 7.08259 2.72856 0
M  V30 7420 O 1105.78 5.9427 1.83651 0
M  V30 7421 C 1104.59 7.64886 2.9555 0
M  V30 7422 O 1104.2 8.53963 1.90717 0
M  V30 7423 C 1103.71 6.4116 2.90739 0
M  V30 7424 C 1104.42 5.55375 1.86963 0
M  V30 7425 N 1104.37 4.09664 2.15742 0
M  V30 7426 H 1107.21 7.45574 4.45629 0
M  V30 7427 H 1107.48 5.86232 3.67314 0
M  V30 7428 H 1106.62 7.84412 2.24479 0
M  V30 7429 P 1102.65 8.7635 1.60911 0
M  V30 7430 O 1102.43 10.1388 1.11561 0
M  V30 7431 O 1101.86 8.36503 2.79617 0
M  V30 7432 O 1102.4 7.71806 0.42951 0
M  V30 7433 C 1103.34 7.67148 -0.673689 0
M  V30 7434 C 1102.61 7.33374 -1.95559 0
M  V30 7435 O 1102.4 5.88721 -2.00726 0
M  V30 7436 C 1101.21 7.92526 -2.10483 0
M  V30 7437 O 1100.82 8.02971 -3.47653 0
M  V30 7438 C 1100.33 6.89602 -1.41652 0
M  V30 7439 C 1101.04 5.59201 -1.75185 0
M  V30 7440 N 1100.99 4.58235 -0.662552 0
M  V30 7441 H 1103.83 8.65116 -0.777161 0
M  V30 7442 H 1104.1 6.90173 -0.474152 0
M  V30 7443 H 1103.24 7.66548 -2.79458 0
M  V30 7444 P 1099.27 8.03563 -3.84925 0
M  V30 7445 O 1099.05 8.85821 -5.0569 0
M  V30 7446 O 1098.48 8.41101 -2.65469 0
M  V30 7447 O 1099.02 6.4965 -4.18908 0
M  V30 7448 C 1099.96 5.80886 -5.05289 0
M  V30 7449 C 1099.23 4.78366 -5.89277 0
M  V30 7450 O 1099.02 3.58302 -5.08433 0
M  V30 7451 C 1097.83 5.16748 -6.36559 0
M  V30 7452 O 1097.44 4.45271 -7.53232 0
M  V30 7453 C 1096.95 4.74572 -5.19863 0
M  V30 7454 C 1097.66 3.49373 -4.70338 0
M  V30 7455 N 1097.61 3.31704 -3.22876 0
M  V30 7456 C 1097.46 2.03326 -2.74871 0
M  V30 7457 O 1097.37 1.06486 -3.48076 0
M  V30 7458 N 1097.42 1.91838 -1.37456 0
M  V30 7459 C 1097.51 2.94295 -0.462035 0
M  V30 7460 O 1097.46 2.71763 0.752928 0
M  V30 7461 C 1097.66 4.25064 -1.05249 0
M  V30 7462 C 1097.77 5.39815 -0.095697 0
M  V30 7463 C 1097.71 4.40214 -2.39192 0
M  V30 7464 H 1100.45 6.54063 -5.71245 0
M  V30 7465 H 1100.72 5.30339 -4.43905 0
M  V30 7466 H 1099.86 4.55889 -6.76652 0
M  V30 7467 H 1097.2 2.6167 -5.17842 0
M  V30 7468 H 1096.92 5.52155 -4.41878 0
M  V30 7469 H 1095.93 4.51918 -5.53297 0
M  V30 7470 H 1097.76 6.25055 -6.55162 0
M  V30 7471 H 1097.84 5.39798 -2.81523 0
M  V30 7472 H 1096.81 5.91593 -0.0279582 0
M  V30 7473 H 1098.54 6.10038 -0.450573 0
M  V30 7474 H 1098.05 5.02007 0.89937 0
M  V30 7475 H 1097.32 0.995326 -1.00435 0
M  V30 7476 P 1095.89 4.23843 -7.83734 0
M  V30 7477 O 1095.67 4.19407 -9.29784 0
M  V30 7478 O 1095.1 5.24426 -7.09156 0
M  V30 7479 O 1095.64 2.7935 -7.20758 0
M  V30 7480 C 1096.58 1.7299 -7.50419 0
M  V30 7481 C 1095.85 0.406376 -7.57911 0
M  V30 7482 O 1095.64 -0.0897726 -6.21935 0
M  V30 7483 C 1094.45 0.447224 -8.1878 0
M  V30 7484 O 1094.06 -0.825065 -8.71101 0
M  V30 7485 C 1093.57 0.783801 -6.99623 0
M  V30 7486 C 1094.28 0.0619192 -5.85967 0
M  V30 7487 N 1094.23 0.7859 -4.56281 0
M  V30 7488 H 1097.07 1.93423 -8.4679 0
M  V30 7489 H 1097.34 1.68181 -6.71046 0
M  V30 7490 H 1096.48 -0.289041 -8.15388 0
M  V30 7491 P 1092.51 -1.17771 -8.83182 0
M  V30 7492 O 1092.29 -2.07206 -9.98732 0
M  V30 7493 O 1091.72 0.0743816 -8.81969 0
M  V30 7494 O 1092.26 -1.97652 -7.47304 0
M  V30 7495 C 1093.2 -3.01055 -7.08599 0
M  V30 7496 C 1092.47 -4.12613 -6.37049 0
M  V30 7497 O 1092.26 -3.72827 -4.97879 0
M  V30 7498 C 1091.07 -4.45719 -6.88164 0
M  V30 7499 O 1090.68 -5.7877 -6.5624 0
M  V30 7500 C 1090.19 -3.47768 -6.11991 0
M  V30 7501 C 1090.9 -3.39356 -4.77615 0
M  V30 7502 N 1090.85 -2.04571 -4.15244 0
M  V30 7503 C 1090.7 -1.98587 -2.78314 0
M  V30 7504 O 1090.61 -2.98134 -2.08835 0
M  V30 7505 N 1090.66 -0.714467 -2.24925 0
M  V30 7506 C 1090.75 0.470001 -2.94169 0
M  V30 7507 O 1090.7 1.55587 -2.35195 0
M  V30 7508 C 1090.9 0.312541 -4.36783 0
M  V30 7509 C 1091.01 1.57711 -5.16352 0
M  V30 7510 C 1090.95 -0.914512 -4.92583 0
M  V30 7511 H 1093.69 -3.41169 -7.98575 0
M  V30 7512 H 1093.96 -2.58295 -6.41556 0
M  V30 7513 H 1093.1 -5.02657 -6.42673 0
M  V30 7514 H 1090.44 -4.11637 -4.08885 0
M  V30 7515 H 1090.16 -2.49626 -6.61679 0
M  V30 7516 H 1089.17 -3.86566 -6.00778 0
M  V30 7517 H 1091 -4.29943 -7.96918 0
M  V30 7518 H 1091.08 -1.00937 -6.00374 0
M  V30 7519 H 1090.05 1.80153 -5.63503 0
M  V30 7520 H 1091.78 1.4566 -5.94104 0
M  V30 7521 H 1091.29 2.40664 -4.49645 0
M  V30 7522 H 1090.56 -0.647622 -1.25697 0
M  V30 7523 P 1089.13 -6.144 -6.45285 0
M  V30 7524 O 1088.91 -7.54673 -6.86199 0
M  V30 7525 O 1088.34 -5.12391 -7.179 0
M  V30 7526 O 1088.88 -5.99158 -4.88404 0
M  V30 7527 C 1089.82 -6.60234 -3.96415 0
M  V30 7528 C 1089.09 -7.08259 -2.72856 0
M  V30 7529 O 1088.88 -5.9427 -1.83651 0
M  V30 7530 C 1087.69 -7.64886 -2.9555 0
M  V30 7531 O 1087.3 -8.53963 -1.90717 0
M  V30 7532 C 1086.81 -6.4116 -2.90739 0
M  V30 7533 C 1087.52 -5.55375 -1.86963 0
M  V30 7534 N 1087.47 -4.09664 -2.15742 0
M  V30 7535 H 1090.31 -7.45574 -4.45629 0
M  V30 7536 H 1090.58 -5.86232 -3.67314 0
M  V30 7537 H 1089.72 -7.84412 -2.24479 0
M  V30 7538 P 1085.75 -8.7635 -1.60911 0
M  V30 7539 O 1085.53 -10.1388 -1.11561 0
M  V30 7540 O 1084.96 -8.36503 -2.79617 0
M  V30 7541 O 1085.5 -7.71806 -0.42951 0
M  V30 7542 C 1086.44 -7.67148 0.673689 0
M  V30 7543 C 1085.71 -7.33374 1.95559 0
M  V30 7544 O 1085.5 -5.88721 2.00726 0
M  V30 7545 C 1084.31 -7.92526 2.10483 0
M  V30 7546 O 1083.92 -8.02971 3.47653 0
M  V30 7547 C 1083.43 -6.89602 1.41652 0
M  V30 7548 C 1084.14 -5.59201 1.75185 0
M  V30 7549 N 1084.09 -4.58235 0.662552 0
M  V30 7550 H 1086.93 -8.65116 0.777161 0
M  V30 7551 H 1087.2 -6.90173 0.474152 0
M  V30 7552 H 1086.34 -7.66548 2.79458 0
M  V30 7553 P 1082.37 -8.03563 3.84925 0
M  V30 7554 O 1082.15 -8.85821 5.0569 0
M  V30 7555 O 1081.58 -8.41101 2.65469 0
M  V30 7556 O 1082.12 -6.4965 4.18908 0
M  V30 7557 C 1083.06 -5.81037 5.05421 0
M  V30 7558 C 1082.33 -4.78366 5.89277 0
M  V30 7559 O 1082.12 -3.58302 5.08433 0
M  V30 7560 C 1080.93 -5.17448 6.36119 0
M  V30 7561 O 1080.54 -4.45271 7.53232 0
M  V30 7562 C 1080.05 -4.74639 5.19936 0
M  V30 7563 C 1080.76 -3.49432 4.70418 0
M  V30 7564 N 1080.71 -3.31776 3.22945 0
M  V30 7565 H 1083.55 -6.54213 5.71376 0
M  V30 7566 H 1083.82 -5.30492 4.44033 0
M  V30 7567 H 1082.96 -4.55889 6.76652 0
M  V30 7568 P 1078.99 -4.23843 7.83734 0
M  V30 7569 O 1078.77 -4.19407 9.29784 0
M  V30 7570 O 1078.2 -5.24426 7.09156 0
M  V30 7571 O 1078.74 -2.7935 7.20758 0
M  V30 7572 C 1079.68 -1.7299 7.50419 0
M  V30 7573 C 1078.95 -0.406376 7.57911 0
M  V30 7574 O 1078.74 0.0897726 6.21935 0
M  V30 7575 C 1077.55 -0.447224 8.1878 0
M  V30 7576 O 1077.16 0.825065 8.71101 0
M  V30 7577 C 1076.67 -0.783801 6.99623 0
M  V30 7578 C 1077.38 -0.0619192 5.85967 0
M  V30 7579 N 1077.33 -0.7859 4.56281 0
M  V30 7580 C 1077.41 -2.14308 4.31736 0
M  V30 7581 N 1077.33 -2.46106 3.05116 0
M  V30 7582 C 1077.19 -1.23422 2.4014 0
M  V30 7583 C 1077.06 -0.938381 1.02409 0
M  V30 7584 O 1077.04 -1.70876 0.0650402 0
M  V30 7585 N 1076.94 0.444647 0.805413 0
M  V30 7586 C 1076.94 1.40829 1.79435 0
M  V30 7587 N 1076.81 2.67213 1.38558 0
M  V30 7588 N 1077.07 1.12947 3.09005 0
M  V30 7589 C 1077.19 -0.204887 3.32369 0
M  V30 7590 H 1080.17 -1.93423 8.4679 0
M  V30 7591 H 1080.44 -1.68181 6.71046 0
M  V30 7592 H 1079.58 0.289041 8.15388 0
M  V30 7593 H 1076.92 0.927166 5.72947 0
M  V30 7594 H 1076.64 -1.87 6.82132 0
M  V30 7595 H 1075.65 -0.404009 7.13457 0
M  V30 7596 H 1077.48 -1.20612 8.97633 0
M  V30 7597 H 1077.53 -2.88284 5.10874 0
M  V30 7598 H 1076.85 0.755087 -0.140242 0
M  V30 7599 H 1076.81 3.43967 2.0729 0
M  V30 7600 H 1076.71 2.88096 0.380644 0
M  V30 7601 P 1075.61 1.17771 8.83182 0
M  V30 7602 O 1075.39 2.07206 9.98732 0
M  V30 7603 O 1074.82 -0.0743816 8.81969 0
M  V30 7604 O 1075.36 1.97652 7.47304 0
M  V30 7605 C 1076.3 3.01133 7.08783 0
M  V30 7606 C 1075.57 4.12613 6.37049 0
M  V30 7607 O 1075.36 3.72827 4.97879 0
M  V30 7608 C 1074.17 4.45085 6.88694 0
M  V30 7609 O 1073.78 5.7877 6.5624 0
M  V30 7610 C 1073.29 3.47817 6.12078 0
M  V30 7611 C 1074 3.39414 4.77697 0
M  V30 7612 N 1073.95 2.04615 4.15333 0
M  V30 7613 H 1076.79 3.41248 7.98759 0
M  V30 7614 H 1077.06 2.5837 6.41742 0
M  V30 7615 H 1076.2 5.02657 6.42673 0
M  V30 7616 P 1072.23 6.144 6.45285 0
M  V30 7617 O 1072.01 7.54673 6.86199 0
M  V30 7618 O 1071.44 5.12391 7.179 0
M  V30 7619 O 1071.98 5.99158 4.88404 0
M  V30 7620 C 1072.92 6.60234 3.96415 0
M  V30 7621 C 1072.19 7.08259 2.72856 0
M  V30 7622 O 1071.98 5.9427 1.83651 0
M  V30 7623 C 1070.79 7.64886 2.9555 0
M  V30 7624 O 1070.4 8.53963 1.90717 0
M  V30 7625 C 1069.91 6.4116 2.90739 0
M  V30 7626 C 1070.62 5.55375 1.86963 0
M  V30 7627 N 1070.57 4.09448 2.16152 0
M  V30 7628 H 1073.41 7.45574 4.45629 0
M  V30 7629 H 1073.68 5.85864 3.679 0
M  V30 7630 H 1072.82 7.84412 2.24479 0
M  V30 7631 H 1070.16 5.73457 0.888562 0
M  V30 7632 H 1069.88 5.90877 3.88583 0
M  V30 7633 H 1068.89 6.6596 2.58858 0
M  V30 7634 H 1070.72 8.16339 3.92049 0
M  V30 7635 P 1068.85 8.7635 1.60911 0
M  V30 7636 O 1068.63 10.1388 1.11561 0
M  V30 7637 O 1068.06 8.36503 2.79617 0
M  V30 7638 O 1068.6 7.71806 0.42951 0
M  V30 7639 C 1069.54 7.67148 -0.673689 0
M  V30 7640 C 1068.81 7.33374 -1.95559 0
M  V30 7641 O 1068.6 5.88721 -2.00726 0
M  V30 7642 C 1067.41 7.92526 -2.10483 0
M  V30 7643 O 1067.02 8.02971 -3.47653 0
M  V30 7644 C 1066.53 6.89602 -1.41652 0
M  V30 7645 C 1067.24 5.59201 -1.75185 0
M  V30 7646 N 1067.19 4.58301 -0.657969 0
M  V30 7647 H 1070.03 8.65116 -0.777161 0
M  V30 7648 H 1070.3 6.9022 -0.46725 0
M  V30 7649 H 1069.44 7.66548 -2.79458 0
M  V30 7650 H 1066.78 5.16165 -2.65183 0
M  V30 7651 H 1066.5 7.06433 -0.329384 0
M  V30 7652 H 1065.51 6.90926 -1.82021 0
M  V30 7653 H 1067.34 8.90873 -1.62657 0
M  V30 7654 P 1065.47 8.03563 -3.84925 0
M  V30 7655 O 1065.25 8.85821 -5.0569 0
M  V30 7656 O 1064.68 8.41101 -2.65469 0
M  V30 7657 O 1065.22 6.4965 -4.18908 0
M  V30 7658 C 1066.16 5.81037 -5.05421 0
M  V30 7659 C 1065.43 4.78366 -5.89277 0
M  V30 7660 O 1065.22 3.58302 -5.08433 0
M  V30 7661 C 1064.03 5.17448 -6.36119 0
M  V30 7662 O 1063.64 4.45271 -7.53232 0
M  V30 7663 C 1063.15 4.74639 -5.19936 0
M  V30 7664 C 1063.86 3.49432 -4.70418 0
M  V30 7665 N 1063.81 3.31776 -3.22945 0
M  V30 7666 C 1063.89 4.27147 -2.23315 0
M  V30 7667 N 1063.81 3.78447 -1.02186 0
M  V30 7668 C 1063.67 2.41001 -1.21732 0
M  V30 7669 C 1063.54 1.36111 -0.27694 0
M  V30 7670 N 1063.42 0.113683 -0.912949 0
M  V30 7671 C 1063.42 -0.0846396 -2.27943 0
M  V30 7672 N 1063.29 -1.34737 -2.6916 0
M  V30 7673 N 1063.55 0.902521 -3.16379 0
M  V30 7674 C 1063.67 2.11937 -2.56849 0
M  V30 7675 H 1066.65 6.54213 -5.71376 0
M  V30 7676 H 1066.92 5.30492 -4.44033 0
M  V30 7677 H 1066.06 4.55889 -6.76652 0
M  V30 7678 P 1062.09 4.23843 -7.83734 0
M  V30 7679 O 1061.87 4.19407 -9.29784 0
M  V30 7680 O 1061.3 5.24426 -7.09156 0
M  V30 7681 O 1061.84 2.7935 -7.20758 0
M  V30 7682 C 1062.78 1.7299 -7.50419 0
M  V30 7683 C 1062.05 0.406376 -7.57911 0
M  V30 7684 O 1061.84 -0.0897726 -6.21935 0
M  V30 7685 C 1060.65 0.447224 -8.1878 0
M  V30 7686 O 1060.26 -0.825065 -8.71101 0
M  V30 7687 C 1059.77 0.783801 -6.99623 0
M  V30 7688 C 1060.48 0.0619192 -5.85967 0
M  V30 7689 N 1060.43 0.7859 -4.56281 0
M  V30 7690 H 1063.27 1.93423 -8.4679 0
M  V30 7691 H 1063.54 1.68181 -6.71046 0
M  V30 7692 H 1062.68 -0.289041 -8.15388 0
M  V30 7693 P 1058.71 -1.17771 -8.83182 0
M  V30 7694 O 1058.49 -2.07206 -9.98732 0
M  V30 7695 O 1057.92 0.0743816 -8.81969 0
M  V30 7696 O 1058.46 -1.97652 -7.47304 0
M  V30 7697 C 1059.4 -3.01133 -7.08783 0
M  V30 7698 C 1058.67 -4.12613 -6.37049 0
M  V30 7699 O 1058.46 -3.72827 -4.97879 0
M  V30 7700 C 1057.27 -4.45085 -6.88694 0
M  V30 7701 O 1056.88 -5.7877 -6.5624 0
M  V30 7702 C 1056.39 -3.47817 -6.12078 0
M  V30 7703 C 1057.1 -3.39414 -4.77697 0
M  V30 7704 N 1057.05 -2.04199 -4.15538 0
M  V30 7705 H 1059.89 -3.41248 -7.98759 0
M  V30 7706 H 1060.16 -2.57728 -6.42 0
M  V30 7707 H 1059.3 -5.02657 -6.42673 0
M  V30 7708 H 1056.64 -4.11708 -4.08956 0
M  V30 7709 H 1056.36 -2.49626 -6.61679 0
M  V30 7710 H 1055.37 -3.8662 -6.00862 0
M  V30 7711 H 1057.2 -4.29991 -7.97006 0
M  V30 7712 P 1055.33 -6.144 -6.45285 0
M  V30 7713 O 1055.11 -7.54673 -6.86199 0
M  V30 7714 O 1054.54 -5.12391 -7.179 0
M  V30 7715 O 1055.08 -5.99158 -4.88404 0
M  V30 7716 C 1056.02 -6.60234 -3.96415 0
M  V30 7717 C 1055.29 -7.08259 -2.72856 0
M  V30 7718 O 1055.08 -5.9427 -1.83651 0
M  V30 7719 C 1053.89 -7.64886 -2.9555 0
M  V30 7720 O 1053.5 -8.53963 -1.90717 0
M  V30 7721 C 1053.01 -6.4116 -2.90739 0
M  V30 7722 C 1053.72 -5.55375 -1.86963 0
M  V30 7723 N 1053.67 -4.09664 -2.15742 0
M  V30 7724 C 1053.75 -3.44381 -3.37233 0
M  V30 7725 N 1053.67 -2.14131 -3.28347 0
M  V30 7726 C 1053.53 -1.90247 -1.91588 0
M  V30 7727 C 1053.4 -0.683992 -1.20892 0
M  V30 7728 O 1053.38 0.46618 -1.64523 0
M  V30 7729 N 1053.28 -0.903396 0.173998 0
M  V30 7730 C 1053.28 -2.14171 0.784879 0
M  V30 7731 N 1053.15 -2.1435 2.11317 0
M  V30 7732 N 1053.41 -3.28784 0.119316 0
M  V30 7733 C 1053.53 -3.0977 -1.22194 0
M  V30 7734 H 1056.51 -7.45574 -4.45629 0
M  V30 7735 H 1056.78 -5.86232 -3.67314 0
M  V30 7736 H 1055.92 -7.84412 -2.24479 0
M  V30 7737 H 1053.26 -5.73556 -0.888715 0
M  V30 7738 H 1052.98 -5.9096 -3.88638 0
M  V30 7739 H 1051.99 -6.66053 -2.58894 0
M  V30 7740 H 1053.82 -8.16429 -3.92093 0
M  V30 7741 H 1053.87 -3.96785 -4.32043 0
M  V30 7742 H 1053.19 -0.0999567 0.761467 0
M  V30 7743 H 1053.15 -3.03436 2.63076 0
M  V30 7744 H 1053.05 -1.25228 2.62233 0
M  V30 7745 P 1051.95 -8.7635 -1.60911 0
M  V30 7746 O 1051.73 -10.1388 -1.11561 0
M  V30 7747 O 1051.16 -8.36503 -2.79617 0
M  V30 7748 O 1051.7 -7.71806 -0.42951 0
M  V30 7749 C 1052.64 -7.67148 0.673689 0
M  V30 7750 C 1051.91 -7.33374 1.95559 0
M  V30 7751 O 1051.7 -5.88721 2.00726 0
M  V30 7752 C 1050.51 -7.92526 2.10483 0
M  V30 7753 O 1050.12 -8.02971 3.47653 0
M  V30 7754 C 1049.63 -6.89602 1.41652 0
M  V30 7755 C 1050.34 -5.59201 1.75185 0
M  V30 7756 N 1050.29 -4.58235 0.662552 0
M  V30 7757 H 1053.13 -8.65116 0.777161 0
M  V30 7758 H 1053.4 -6.90173 0.474152 0
M  V30 7759 H 1052.54 -7.66548 2.79458 0
M  V30 7760 P 1048.57 -8.03563 3.84925 0
M  V30 7761 O 1048.35 -8.85821 5.0569 0
M  V30 7762 O 1047.78 -8.41101 2.65469 0
M  V30 7763 O 1048.32 -6.4965 4.18908 0
M  V30 7764 C 1049.26 -5.80886 5.05289 0
M  V30 7765 C 1048.53 -4.78366 5.89277 0
M  V30 7766 O 1048.32 -3.58302 5.08433 0
M  V30 7767 C 1047.13 -5.16748 6.36559 0
M  V30 7768 O 1046.74 -4.45271 7.53232 0
M  V30 7769 C 1046.25 -4.74572 5.19863 0
M  V30 7770 C 1046.96 -3.49373 4.70338 0
M  V30 7771 N 1046.91 -3.31704 3.22876 0
M  V30 7772 C 1046.76 -2.03326 2.74871 0
M  V30 7773 O 1046.67 -1.06486 3.48076 0
M  V30 7774 N 1046.72 -1.91838 1.37456 0
M  V30 7775 C 1046.81 -2.94295 0.462035 0
M  V30 7776 C 1046.96 -4.25064 1.05249 0
M  V30 7777 C 1047.01 -4.40214 2.39192 0
M  V30 7778 H 1049.75 -6.54063 5.71245 0
M  V30 7779 H 1050.02 -5.30339 4.43905 0
M  V30 7780 H 1049.16 -4.55889 6.76652 0
M  V30 7781 H 1046.5 -2.6167 5.17842 0
M  V30 7782 H 1046.22 -5.52155 4.41878 0
M  V30 7783 H 1045.23 -4.51918 5.53297 0
M  V30 7784 H 1047.06 -6.25055 6.55162 0
M  V30 7785 H 1047.14 -5.39798 2.81523 0
M  V30 7786 P 1045.19 -4.23843 7.83734 0
M  V30 7787 O 1044.97 -4.19407 9.29784 0
M  V30 7788 O 1044.4 -5.24426 7.09156 0
M  V30 7789 O 1044.94 -2.7935 7.20758 0
M  V30 7790 C 1045.88 -1.7299 7.50419 0
M  V30 7791 C 1045.15 -0.406376 7.57911 0
M  V30 7792 O 1044.94 0.0897726 6.21935 0
M  V30 7793 C 1043.75 -0.447224 8.1878 0
M  V30 7794 O 1043.36 0.825065 8.71101 0
M  V30 7795 C 1042.87 -0.783801 6.99623 0
M  V30 7796 C 1043.58 -0.0619192 5.85967 0
M  V30 7797 N 1043.53 -0.790462 4.56202 0
M  V30 7798 C 1043.61 -2.13895 4.34171 0
M  V30 7799 N 1043.54 -2.46449 3.08687 0
M  V30 7800 C 1043.39 -1.2525 2.43697 0
M  V30 7801 C 1043.26 -0.914535 1.07318 0
M  V30 7802 N 1043.25 -1.80782 0.0887348 0
M  V30 7803 N 1043.14 0.386745 0.768133 0
M  V30 7804 C 1043.15 1.28096 1.75159 0
M  V30 7805 N 1043.27 1.09708 3.04861 0
M  V30 7806 C 1043.39 -0.214857 3.32306 0
M  V30 7807 H 1046.37 -1.93423 8.4679 0
M  V30 7808 H 1046.64 -1.68852 6.70877 0
M  V30 7809 H 1045.78 0.289041 8.15388 0
M  V30 7810 H 1043.12 0.927006 5.72848 0
M  V30 7811 H 1042.84 -1.86973 6.82036 0
M  V30 7812 H 1041.85 -0.403953 7.13357 0
M  V30 7813 H 1043.68 -1.20599 8.97534 0
M  V30 7814 H 1043.73 -2.86846 5.14318 0
M  V30 7815 H 1043.34 -2.81082 0.302037 0
M  V30 7816 H 1043.16 -1.49688 -0.889064 0
M  V30 7817 H 1043.05 2.31317 1.43855 0
M  V30 7818 P 1041.81 1.17771 8.83182 0
M  V30 7819 O 1041.59 2.07206 9.98732 0
M  V30 7820 O 1041.02 -0.0743816 8.81969 0
M  V30 7821 O 1041.56 1.97652 7.47304 0
M  V30 7822 C 1042.5 3.01133 7.08783 0
M  V30 7823 C 1041.77 4.12613 6.37049 0
M  V30 7824 O 1041.56 3.72827 4.97879 0
M  V30 7825 C 1040.37 4.45085 6.88694 0
M  V30 7826 O 1039.98 5.7877 6.5624 0
M  V30 7827 C 1039.49 3.47817 6.12078 0
M  V30 7828 C 1040.2 3.39414 4.77697 0
M  V30 7829 N 1040.15 2.04615 4.15333 0
M  V30 7830 H 1042.99 3.41248 7.98759 0
M  V30 7831 H 1043.26 2.5837 6.41742 0
M  V30 7832 H 1042.4 5.02657 6.42673 0
M  V30 7833 P 1038.43 6.144 6.45285 0
M  V30 7834 O 1038.21 7.54673 6.86199 0
M  V30 7835 O 1037.64 5.12391 7.179 0
M  V30 7836 O 1038.18 5.99236 4.88467 0
M  V30 7837 C 1039.12 6.60234 3.96415 0
M  V30 7838 C 1038.39 7.08079 2.736 0
M  V30 7839 O 1038.18 5.94365 1.8368 0
M  V30 7840 C 1036.99 7.64886 2.9555 0
M  V30 7841 O 1036.6 8.5406 1.90739 0
M  V30 7842 C 1036.11 6.4116 2.90739 0
M  V30 7843 C 1036.82 5.55375 1.86963 0
M  V30 7844 N 1036.77 4.09664 2.15742 0
M  V30 7845 C 1036.62 3.22231 1.08477 0
M  V30 7846 O 1036.53 3.68951 -0.0600489 0
M  V30 7847 N 1036.57 1.76692 1.48799 0
M  V30 7848 C 1036.67 1.41695 2.57602 0
M  V30 7849 N 1036.62 0.107296 2.75791 0
M  V30 7850 C 1036.82 2.29178 3.69733 0
M  V30 7851 C 1036.87 3.62753 3.42653 0
M  V30 7852 H 1039.61 7.45488 4.45578 0
M  V30 7853 H 1039.88 5.86232 3.67314 0
M  V30 7854 H 1039.02 7.84508 2.24507 0
M  V30 7855 H 1036.36 5.73556 0.888715 0
M  V30 7856 H 1036.08 5.9096 3.88638 0
M  V30 7857 H 1035.09 6.66053 2.58894 0
M  V30 7858 H 1036.92 8.16339 3.92049 0
M  V30 7859 H 1037 4.33052 4.24913 0
M  V30 7860 H 1036.89 1.9103 4.71577 0
M  V30 7861 H 1036.51 -0.521221 1.95056 0
M  V30 7862 H 1036.7 -0.286429 3.70695 0
M  V30 7863 P 1035.05 8.7635 1.60911 0
M  V30 7864 O 1034.83 10.1388 1.11561 0
M  V30 7865 O 1034.26 8.36503 2.79617 0
M  V30 7866 O 1034.8 7.71806 0.42951 0
M  V30 7867 C 1035.74 7.66948 -0.673514 0
M  V30 7868 C 1035.01 7.33374 -1.95559 0
M  V30 7869 O 1034.8 5.88721 -2.00726 0
M  V30 7870 C 1033.61 7.92218 -2.1125 0
M  V30 7871 O 1033.22 8.02971 -3.47653 0
M  V30 7872 C 1032.73 6.89504 -1.41631 0
M  V30 7873 C 1033.44 5.59106 -1.75155 0
M  V30 7874 N 1033.39 4.58136 -0.662409 0
M  V30 7875 C 1033.24 3.26059 -1.02863 0
M  V30 7876 O 1033.15 2.90743 -2.19009 0
M  V30 7877 N 1033.2 2.35995 0.0155585 0
M  V30 7878 C 1033.29 2.65248 1.35603 0
M  V30 7879 C 1033.44 4.05747 1.64698 0
M  V30 7880 C 1033.49 4.96734 0.652411 0
M  V30 7881 H 1036.23 8.64917 -0.776982 0
M  V30 7882 H 1036.5 6.89974 -0.474015 0
M  V30 7883 H 1035.64 7.66548 -2.79458 0
M  V30 7884 H 1032.98 5.16076 -2.65138 0
M  V30 7885 H 1032.7 7.06433 -0.329384 0
M  V30 7886 H 1031.71 6.90829 -1.81996 0
M  V30 7887 H 1033.54 8.90774 -1.62639 0
M  V30 7888 H 1033.62 6.02181 0.895285 0
M  V30 7889 P 1031.67 8.03563 -3.84925 0
M  V30 7890 O 1031.45 8.85821 -5.0569 0
M  V30 7891 O 1030.88 8.41101 -2.65469 0
M  V30 7892 O 1031.42 6.49734 -4.18962 0
M  V30 7893 C 1032.36 5.81037 -5.05421 0
M  V30 7894 C 1031.63 4.79018 -5.88876 0
M  V30 7895 O 1031.42 3.58359 -5.08515 0
M  V30 7896 C 1030.23 5.17448 -6.36119 0
M  V30 7897 O 1029.84 4.45322 -7.53318 0
M  V30 7898 C 1029.35 4.74639 -5.19936 0
M  V30 7899 C 1030.06 3.49432 -4.70418 0
M  V30 7900 N 1030.01 3.31776 -3.22945 0
M  V30 7901 C 1029.86 2.02742 -2.72939 0
M  V30 7902 O 1029.77 1.08301 -3.52749 0
M  V30 7903 N 1029.81 1.96117 -1.22063 0
M  V30 7904 C 1029.91 2.8878 -0.551566 0
M  V30 7905 N 1029.86 2.65609 0.750198 0
M  V30 7906 C 1030.06 4.22457 -1.03707 0
M  V30 7907 C 1030.11 4.37979 -2.39113 0
M  V30 7908 H 1032.85 6.54138 -5.7131 0
M  V30 7909 H 1033.12 5.30492 -4.44033 0
M  V30 7910 H 1032.26 4.55945 -6.76735 0
M  V30 7911 H 1029.6 2.6176 -5.18021 0
M  V30 7912 H 1029.32 5.52233 -4.41941 0
M  V30 7913 H 1028.33 4.52045 -5.53452 0
M  V30 7914 H 1030.16 6.25124 -6.55234 0
M  V30 7915 H 1030.24 5.37936 -2.80552 0
M  V30 7916 H 1030.13 5.07528 -0.359553 0
M  V30 7917 H 1029.75 1.69403 1.09847 0
M  V30 7918 H 1029.94 3.43701 1.41792 0
M  V30 7919 P 1028.29 4.23843 -7.83734 0
M  V30 7920 O 1028.07 4.19407 -9.29784 0
M  V30 7921 O 1027.5 5.24426 -7.09156 0
M  V30 7922 O 1028.04 2.7935 -7.20758 0
M  V30 7923 C 1028.98 1.7299 -7.50419 0
M  V30 7924 C 1028.25 0.406376 -7.57911 0
M  V30 7925 O 1028.04 -0.0897726 -6.21935 0
M  V30 7926 C 1026.85 0.447224 -8.1878 0
M  V30 7927 O 1026.46 -0.825065 -8.71101 0
M  V30 7928 C 1025.97 0.783801 -6.99623 0
M  V30 7929 C 1026.68 0.0619192 -5.85967 0
M  V30 7930 N 1026.63 0.790462 -4.56202 0
M  V30 7931 H 1029.47 1.93423 -8.4679 0
M  V30 7932 H 1029.74 1.68852 -6.70877 0
M  V30 7933 H 1028.88 -0.289041 -8.15388 0
M  V30 7934 H 1026.22 -0.927006 -5.72848 0
M  V30 7935 H 1025.94 1.86973 -6.82036 0
M  V30 7936 H 1024.95 0.403953 -7.13357 0
M  V30 7937 H 1026.78 1.20599 -8.97534 0
M  V30 7938 P 1024.91 -1.17771 -8.83182 0
M  V30 7939 O 1024.69 -2.07206 -9.98732 0
M  V30 7940 O 1024.12 0.0743816 -8.81969 0
M  V30 7941 O 1024.66 -1.97652 -7.47304 0
M  V30 7942 C 1025.6 -3.01055 -7.08599 0
M  V30 7943 C 1024.87 -4.12613 -6.37049 0
M  V30 7944 O 1024.66 -3.72827 -4.97879 0
M  V30 7945 C 1023.47 -4.45719 -6.88164 0
M  V30 7946 O 1023.08 -5.7877 -6.5624 0
M  V30 7947 C 1022.59 -3.47768 -6.11991 0
M  V30 7948 C 1023.3 -3.39356 -4.77615 0
M  V30 7949 N 1023.25 -2.04571 -4.15244 0
M  V30 7950 C 1023.1 -1.98587 -2.78314 0
M  V30 7951 O 1023.01 -2.98134 -2.08835 0
M  V30 7952 N 1023.06 -0.714467 -2.24925 0
M  V30 7953 C 1023.15 0.470001 -2.94169 0
M  V30 7954 C 1023.3 0.312541 -4.36783 0
M  V30 7955 C 1023.35 -0.914512 -4.92583 0
M  V30 7956 H 1026.09 -3.41169 -7.98575 0
M  V30 7957 H 1026.36 -2.58295 -6.41556 0
M  V30 7958 H 1025.5 -5.02657 -6.42673 0
M  V30 7959 H 1022.84 -4.11637 -4.08885 0
M  V30 7960 H 1022.56 -2.49626 -6.61679 0
M  V30 7961 H 1021.57 -3.86566 -6.00778 0
M  V30 7962 H 1023.4 -4.29943 -7.96918 0
M  V30 7963 H 1023.48 -1.00937 -6.00374 0
M  V30 7964 P 1021.53 -6.144 -6.45285 0
M  V30 7965 O 1021.31 -7.54673 -6.86199 0
M  V30 7966 O 1020.74 -5.12391 -7.179 0
M  V30 7967 O 1021.28 -5.99158 -4.88404 0
M  V30 7968 C 1022.22 -6.60234 -3.96415 0
M  V30 7969 C 1021.49 -7.08259 -2.72856 0
M  V30 7970 O 1021.28 -5.9427 -1.83651 0
M  V30 7971 C 1020.09 -7.64886 -2.9555 0
M  V30 7972 O 1019.7 -8.53963 -1.90717 0
M  V30 7973 C 1019.21 -6.4116 -2.90739 0
M  V30 7974 C 1019.92 -5.55375 -1.86963 0
M  V30 7975 N 1019.87 -4.09664 -2.15742 0
M  V30 7976 H 1022.71 -7.45574 -4.45629 0
M  V30 7977 H 1022.98 -5.86232 -3.67314 0
M  V30 7978 H 1022.12 -7.84412 -2.24479 0
M  V30 7979 P 1018.15 -8.7635 -1.60911 0
M  V30 7980 O 1017.93 -10.1388 -1.11561 0
M  V30 7981 O 1017.36 -8.36503 -2.79617 0
M  V30 7982 O 1017.9 -7.71806 -0.42951 0
M  V30 7983 C 1018.84 -7.67148 0.673689 0
M  V30 7984 C 1018.11 -7.33374 1.95559 0
M  V30 7985 O 1017.9 -5.88721 2.00726 0
M  V30 7986 C 1016.71 -7.92526 2.10483 0
M  V30 7987 O 1016.32 -8.02971 3.47653 0
M  V30 7988 C 1015.83 -6.89602 1.41652 0
M  V30 7989 C 1016.54 -5.59201 1.75185 0
M  V30 7990 N 1016.49 -4.58235 0.662552 0
M  V30 7991 C 1016.57 -4.7683 -0.704049 0
M  V30 7992 N 1016.49 -3.66233 -1.39775 0
M  V30 7993 C 1016.35 -2.66526 -0.431739 0
M  V30 7994 C 1016.22 -1.26394 -0.575992 0
M  V30 7995 N 1016.1 -0.62859 0.67177 0
M  V30 7996 C 1016.1 -1.27134 1.89385 0
M  V30 7997 N 1015.97 -0.492035 2.96951 0
M  V30 7998 N 1016.23 -2.58978 2.02907 0
M  V30 7999 C 1016.35 -3.22433 0.832218 0
M  V30 8000 H 1019.33 -8.65116 0.777161 0
M  V30 8001 H 1019.61 -6.90173 0.474152 0
M  V30 8002 H 1018.74 -7.66548 2.79458 0
M  V30 8003 P 1014.77 -8.03563 3.84925 0
M  V30 8004 O 1014.55 -8.85821 5.0569 0
M  V30 8005 O 1013.98 -8.41101 2.65469 0
M  V30 8006 O 1014.52 -6.4965 4.18908 0
M  V30 8007 C 1015.46 -5.81037 5.05421 0
M  V30 8008 C 1014.73 -4.78366 5.89277 0
M  V30 8009 O 1014.52 -3.58302 5.08433 0
M  V30 8010 C 1013.33 -5.17448 6.36119 0
M  V30 8011 O 1012.94 -4.45271 7.53232 0
M  V30 8012 C 1012.45 -4.74639 5.19936 0
M  V30 8013 C 1013.16 -3.49432 4.70418 0
M  V30 8014 N 1013.11 -3.31776 3.22945 0
M  V30 8015 H 1015.95 -6.54213 5.71376 0
M  V30 8016 H 1016.23 -5.30492 4.44033 0
M  V30 8017 H 1015.36 -4.55889 6.76652 0
M  V30 8018 P 1011.39 -4.23843 7.83734 0
M  V30 8019 O 1011.17 -4.19407 9.29784 0
M  V30 8020 O 1010.6 -5.24426 7.09156 0
M  V30 8021 O 1011.14 -2.7935 7.20758 0
M  V30 8022 C 1012.08 -1.72945 7.50224 0
M  V30 8023 C 1011.35 -0.406376 7.57911 0
M  V30 8024 O 1011.14 0.0897726 6.21935 0
M  V30 8025 C 1009.95 -0.438983 8.18724 0
M  V30 8026 O 1009.56 0.825065 8.71101 0
M  V30 8027 C 1009.07 -0.783689 6.99524 0
M  V30 8028 C 1009.78 -0.0619086 5.85867 0
M  V30 8029 N 1009.73 -0.78573 4.56183 0
M  V30 8030 C 1009.58 -0.0292889 3.41887 0
M  V30 8031 O 1009.49 1.18445 3.4419 0
M  V30 8032 N 1009.54 -0.744061 2.23964 0
M  V30 8033 C 1009.63 -2.10932 2.10362 0
M  V30 8034 C 1009.78 -2.8202 3.34994 0
M  V30 8035 C 1009.83 -2.15547 4.52261 0
M  V30 8036 H 1012.58 -1.93379 8.46595 0
M  V30 8037 H 1012.84 -1.68132 6.70852 0
M  V30 8038 H 1011.98 0.289041 8.15388 0
M  V30 8039 H 1009.32 0.926847 5.72749 0
M  V30 8040 H 1009.04 -1.86973 6.82036 0
M  V30 8041 H 1008.05 -0.403896 7.13257 0
M  V30 8042 H 1009.89 -1.20585 8.97435 0
M  V30 8043 H 1009.96 -2.71231 5.45042 0
M  V30 8044 P 1008.01 1.17771 8.83182 0
M  V30 8045 O 1007.79 2.07206 9.98732 0
M  V30 8046 O 1007.22 -0.0743816 8.81969 0
M  V30 8047 O 1007.76 1.97652 7.47304 0
M  V30 8048 C 1008.7 3.01133 7.08783 0
M  V30 8049 C 1007.97 4.12613 6.37049 0
M  V30 8050 O 1007.76 3.72827 4.97879 0
M  V30 8051 C 1006.57 4.45085 6.88694 0
M  V30 8052 O 1006.18 5.7877 6.5624 0
M  V30 8053 C 1005.69 3.47817 6.12078 0
M  V30 8054 C 1006.4 3.39414 4.77697 0
M  V30 8055 N 1006.35 2.04199 4.15538 0
M  V30 8056 C 1006.43 0.821545 4.76977 0
M  V30 8057 N 1006.36 -0.1794 3.94592 0
M  V30 8058 C 1006.21 0.419121 2.70776 0
M  V30 8059 C 1006.08 -0.109072 1.40577 0
M  V30 8060 N 1006.07 -1.4104 1.1344 0
M  V30 8061 N 1005.96 0.764381 0.39411 0
M  V30 8062 C 1005.97 2.06587 0.664135 0
M  V30 8063 N 1006.09 2.67948 1.82153 0
M  V30 8064 C 1006.21 1.77942 2.8147 0
M  V30 8065 H 1009.19 3.41248 7.98759 0
M  V30 8066 H 1009.47 2.57728 6.42 0
M  V30 8067 H 1008.6 5.02657 6.42673 0
M  V30 8068 H 1005.94 4.11708 4.08956 0
M  V30 8069 H 1005.66 2.49626 6.61679 0
M  V30 8070 H 1004.67 3.8662 6.00862 0
M  V30 8071 H 1006.51 4.29991 7.97006 0
M  V30 8072 H 1006.55 0.702451 5.84696 0
M  V30 8073 H 1006.17 -2.09647 1.89651 0
M  V30 8074 H 1005.98 -1.73358 0.160575 0
M  V30 8075 H 1005.87 2.71695 -0.195838 0
M  V30 8076 P 1004.63 6.144 6.45285 0
M  V30 8077 O 1004.41 7.54673 6.86199 0
M  V30 8078 O 1003.84 5.12391 7.179 0
M  V30 8079 O 1004.38 5.99158 4.88404 0
M  V30 8080 C 1005.32 6.60234 3.96415 0
M  V30 8081 C 1004.59 7.08259 2.72856 0
M  V30 8082 O 1004.38 5.9427 1.83651 0
M  V30 8083 C 1003.19 7.64886 2.9555 0
M  V30 8084 O 1002.8 8.53963 1.90717 0
M  V30 8085 C 1002.31 6.4116 2.90739 0
M  V30 8086 C 1003.02 5.55375 1.86963 0
M  V30 8087 N 1002.97 4.09448 2.16152 0
M  V30 8088 C 1003.05 3.46824 3.37593 0
M  V30 8089 N 1002.98 2.17422 3.29777 0
M  V30 8090 C 1002.83 1.93065 1.94427 0
M  V30 8091 C 1002.7 0.738053 1.20141 0
M  V30 8092 N 1002.69 -0.474256 1.74676 0
M  V30 8093 N 1002.58 0.850049 -0.13045 0
M  V30 8094 C 1002.59 2.06169 -0.676992 0
M  V30 8095 N 1002.71 3.23842 -0.101312 0
M  V30 8096 C 1002.83 3.09402 1.23122 0
M  V30 8097 H 1005.81 7.45574 4.45629 0
M  V30 8098 H 1006.09 5.85864 3.679 0
M  V30 8099 H 1005.22 7.84412 2.24479 0
M  V30 8100 H 1002.56 5.73457 0.888562 0
M  V30 8101 H 1002.28 5.90877 3.88583 0
M  V30 8102 H 1001.29 6.6596 2.58858 0
M  V30 8103 H 1003.13 8.16339 3.92049 0
M  V30 8104 H 1003.17 4.00505 4.3174 0
M  V30 8105 H 1002.79 -0.581337 2.76658 0
M  V30 8106 H 1002.6 -1.30811 1.14888 0
M  V30 8107 H 1002.49 2.08295 -1.75542 0
M  V30 8108 P 1001.25 8.7635 1.60911 0
M  V30 8109 O 1001.03 10.1388 1.11561 0
M  V30 8110 O 1000.46 8.36503 2.79617 0
M  V30 8111 O 1001 7.71806 0.42951 0
M  V30 8112 C 1001.94 7.67148 -0.673689 0
M  V30 8113 C 1001.21 7.33374 -1.95559 0
M  V30 8114 O 1001 5.88721 -2.00726 0
M  V30 8115 C 999.814 7.92526 -2.10483 0
M  V30 8116 O 999.424 8.02971 -3.47653 0
M  V30 8117 C 998.934 6.89602 -1.41652 0
M  V30 8118 C 999.644 5.59201 -1.75185 0
M  V30 8119 N 999.594 4.58301 -0.657969 0
M  V30 8120 H 1002.43 8.65116 -0.777161 0
M  V30 8121 H 1002.71 6.9022 -0.46725 0
M  V30 8122 H 1001.84 7.66548 -2.79458 0
M  V30 8123 H 999.182 5.16165 -2.65183 0
M  V30 8124 H 998.902 7.06433 -0.329384 0
M  V30 8125 H 997.911 6.90926 -1.82021 0
M  V30 8126 H 999.745 8.90873 -1.62657 0
M  V30 8127 P 997.874 8.03563 -3.84925 0
M  V30 8128 O 997.654 8.85821 -5.0569 0
M  V30 8129 O 997.084 8.41101 -2.65469 0
M  V30 8130 O 997.624 6.4965 -4.18908 0
M  V30 8131 C 998.564 5.80886 -5.05289 0
M  V30 8132 C 997.834 4.78366 -5.89277 0
M  V30 8133 O 997.624 3.58302 -5.08433 0
M  V30 8134 C 996.434 5.16748 -6.36559 0
M  V30 8135 O 996.044 4.45271 -7.53232 0
M  V30 8136 C 995.554 4.74572 -5.19863 0
M  V30 8137 C 996.264 3.49373 -4.70338 0
M  V30 8138 N 996.214 3.31704 -3.22876 0
M  V30 8139 C 996.064 2.03326 -2.74871 0
M  V30 8140 O 995.974 1.06486 -3.48076 0
M  V30 8141 N 996.024 1.91838 -1.37456 0
M  V30 8142 C 996.114 2.94295 -0.462035 0
M  V30 8143 O 996.064 2.71763 0.752928 0
M  V30 8144 C 996.264 4.25064 -1.05249 0
M  V30 8145 C 996.374 5.39815 -0.095697 0
M  V30 8146 C 996.314 4.40214 -2.39192 0
M  V30 8147 H 999.055 6.54063 -5.71245 0
M  V30 8148 H 999.324 5.30339 -4.43905 0
M  V30 8149 H 998.457 4.55889 -6.76652 0
M  V30 8150 H 995.802 2.6167 -5.17842 0
M  V30 8151 H 995.523 5.52155 -4.41878 0
M  V30 8152 H 994.531 4.51918 -5.53297 0
M  V30 8153 H 996.365 6.25055 -6.55162 0
M  V30 8154 H 996.436 5.39798 -2.81523 0
M  V30 8155 H 995.406 5.91593 -0.0279582 0
M  V30 8156 H 997.143 6.10038 -0.450573 0
M  V30 8157 H 996.655 5.02007 0.89937 0
M  V30 8158 H 995.919 0.995326 -1.00435 0
M  V30 8159 P 994.494 4.23843 -7.83734 0
M  V30 8160 O 994.274 4.19407 -9.29784 0
M  V30 8161 O 993.704 5.24426 -7.09156 0
M  V30 8162 O 994.244 2.7935 -7.20758 0
M  V30 8163 C 995.184 1.7299 -7.50419 0
M  V30 8164 C 994.454 0.406376 -7.57911 0
M  V30 8165 O 994.244 -0.0897726 -6.21935 0
M  V30 8166 C 993.054 0.447224 -8.1878 0
M  V30 8167 O 992.664 -0.825065 -8.71101 0
M  V30 8168 C 992.174 0.783801 -6.99623 0
M  V30 8169 C 992.884 0.0619192 -5.85967 0
M  V30 8170 N 992.834 0.7859 -4.56281 0
M  V30 8171 H 995.673 1.93423 -8.4679 0
M  V30 8172 H 995.945 1.68181 -6.71046 0
M  V30 8173 H 995.077 -0.289041 -8.15388 0
M  V30 8174 P 991.114 -1.17771 -8.83182 0
M  V30 8175 O 990.894 -2.07206 -9.98732 0
M  V30 8176 O 990.324 0.0743816 -8.81969 0
M  V30 8177 O 990.864 -1.97652 -7.47304 0
M  V30 8178 C 991.804 -3.01055 -7.08599 0
M  V30 8179 C 991.074 -4.12613 -6.37049 0
M  V30 8180 O 990.864 -3.72827 -4.97879 0
M  V30 8181 C 989.674 -4.45719 -6.88164 0
M  V30 8182 O 989.284 -5.7877 -6.5624 0
M  V30 8183 C 988.794 -3.47768 -6.11991 0
M  V30 8184 C 989.504 -3.39356 -4.77615 0
M  V30 8185 N 989.454 -2.04571 -4.15244 0
M  V30 8186 C 989.304 -1.98587 -2.78314 0
M  V30 8187 O 989.214 -2.98134 -2.08835 0
M  V30 8188 N 989.264 -0.714467 -2.24925 0
M  V30 8189 C 989.354 0.470001 -2.94169 0
M  V30 8190 O 989.304 1.55587 -2.35195 0
M  V30 8191 C 989.504 0.312541 -4.36783 0
M  V30 8192 C 989.614 1.57711 -5.16352 0
M  V30 8193 C 989.554 -0.914512 -4.92583 0
M  V30 8194 H 992.295 -3.41169 -7.98575 0
M  V30 8195 H 992.564 -2.58295 -6.41556 0
M  V30 8196 H 991.697 -5.02657 -6.42673 0
M  V30 8197 H 989.042 -4.11637 -4.08885 0
M  V30 8198 H 988.763 -2.49626 -6.61679 0
M  V30 8199 H 987.771 -3.86566 -6.00778 0
M  V30 8200 H 989.605 -4.29943 -7.96918 0
M  V30 8201 H 989.676 -1.00937 -6.00374 0
M  V30 8202 H 988.646 1.80153 -5.63503 0
M  V30 8203 H 990.383 1.4566 -5.94104 0
M  V30 8204 H 989.895 2.40664 -4.49645 0
M  V30 8205 H 989.159 -0.647622 -1.25697 0
M  V30 8206 P 987.734 -6.144 -6.45285 0
M  V30 8207 O 987.514 -7.54673 -6.86199 0
M  V30 8208 O 986.944 -5.12391 -7.179 0
M  V30 8209 O 987.484 -5.99158 -4.88404 0
M  V30 8210 C 988.424 -6.60234 -3.96415 0
M  V30 8211 C 987.694 -7.08259 -2.72856 0
M  V30 8212 O 987.484 -5.9427 -1.83651 0
M  V30 8213 C 986.294 -7.64886 -2.9555 0
M  V30 8214 O 985.904 -8.53963 -1.90717 0
M  V30 8215 C 985.414 -6.4116 -2.90739 0
M  V30 8216 C 986.124 -5.55375 -1.86963 0
M  V30 8217 N 986.074 -4.09664 -2.15742 0
M  V30 8218 H 988.913 -7.45574 -4.45629 0
M  V30 8219 H 989.185 -5.86232 -3.67314 0
M  V30 8220 H 988.317 -7.84412 -2.24479 0
M  V30 8221 P 984.354 -8.7635 -1.60911 0
M  V30 8222 O 984.134 -10.1388 -1.11561 0
M  V30 8223 O 983.564 -8.36503 -2.79617 0
M  V30 8224 O 984.104 -7.71806 -0.42951 0
M  V30 8225 C 985.044 -7.67148 0.673689 0
M  V30 8226 C 984.314 -7.33374 1.95559 0
M  V30 8227 O 984.104 -5.88721 2.00726 0
M  V30 8228 C 982.914 -7.92526 2.10483 0
M  V30 8229 O 982.524 -8.02971 3.47653 0
M  V30 8230 C 982.034 -6.89602 1.41652 0
M  V30 8231 C 982.744 -5.59201 1.75185 0
M  V30 8232 N 982.694 -4.58235 0.662552 0
M  V30 8233 H 985.533 -8.65116 0.777161 0
M  V30 8234 H 985.805 -6.90173 0.474152 0
M  V30 8235 H 984.937 -7.66548 2.79458 0
M  V30 8236 P 980.974 -8.03563 3.84925 0
M  V30 8237 O 980.754 -8.85821 5.0569 0
M  V30 8238 O 980.184 -8.41101 2.65469 0
M  V30 8239 O 980.724 -6.4965 4.18908 0
M  V30 8240 C 981.664 -5.81037 5.05421 0
M  V30 8241 C 980.934 -4.78366 5.89277 0
M  V30 8242 O 980.724 -3.58302 5.08433 0
M  V30 8243 C 979.534 -5.17448 6.36119 0
M  V30 8244 O 979.144 -4.45271 7.53232 0
M  V30 8245 C 978.654 -4.74639 5.19936 0
M  V30 8246 C 979.364 -3.49432 4.70418 0
M  V30 8247 N 979.314 -3.31776 3.22945 0
M  V30 8248 H 982.153 -6.54213 5.71376 0
M  V30 8249 H 982.425 -5.30492 4.44033 0
M  V30 8250 H 981.557 -4.55889 6.76652 0
M  V30 8251 P 977.594 -4.23843 7.83734 0
M  V30 8252 O 977.374 -4.19407 9.29784 0
M  V30 8253 O 976.804 -5.24426 7.09156 0
M  V30 8254 O 977.344 -2.79386 7.20852 0
M  V30 8255 C 978.284 -1.7299 7.50419 0
M  V30 8256 C 977.554 -0.41401 7.5797 0
M  V30 8257 O 977.344 0.089787 6.22035 0
M  V30 8258 C 976.154 -0.447224 8.1878 0
M  V30 8259 O 975.764 0.825159 8.71201 0
M  V30 8260 C 975.274 -0.783801 6.99623 0
M  V30 8261 C 975.984 -0.0619192 5.85967 0
M  V30 8262 N 975.934 -0.7859 4.56281 0
M  V30 8263 C 975.784 -0.0359258 3.39981 0
M  V30 8264 O 975.694 1.19723 3.49038 0
M  V30 8265 N 975.734 -0.869151 2.14025 0
M  V30 8266 C 975.834 -2.01207 2.14363 0
M  V30 8267 N 975.784 -2.58978 0.954287 0
M  V30 8268 C 975.984 -2.80817 3.32215 0
M  V30 8269 C 976.034 -2.13785 4.50884 0
M  V30 8270 H 978.774 -1.93401 8.46693 0
M  V30 8271 H 979.044 -1.68181 6.71046 0
M  V30 8272 H 978.177 0.289076 8.15488 0
M  V30 8273 H 975.522 0.927166 5.72947 0
M  V30 8274 H 975.242 -1.87 6.82132 0
M  V30 8275 H 974.251 -0.404009 7.13457 0
M  V30 8276 H 976.085 -1.20599 8.97534 0
M  V30 8277 H 976.157 -2.70295 5.43162 0
M  V30 8278 H 976.055 -3.89465 3.27406 0
M  V30 8279 H 975.667 -2.01616 0.107046 0
M  V30 8280 H 975.863 -3.61403 0.873101 0
M  V30 8281 P 974.214 1.17771 8.83182 0
M  V30 8282 O 973.994 2.07206 9.98732 0
M  V30 8283 O 973.424 -0.0743816 8.81969 0
M  V30 8284 O 973.964 1.97678 7.474 0
M  V30 8285 C 974.904 3.01133 7.08783 0
M  V30 8286 C 974.174 4.1203 6.37546 0
M  V30 8287 O 973.964 3.72887 4.9796 0
M  V30 8288 C 972.774 4.45085 6.88694 0
M  V30 8289 O 972.384 5.78836 6.56315 0
M  V30 8290 C 971.894 3.47817 6.12078 0
M  V30 8291 C 972.604 3.39414 4.77697 0
M  V30 8292 N 972.554 2.04615 4.15333 0
M  V30 8293 C 972.404 1.96929 2.77162 0
M  V30 8294 O 972.314 3.02017 2.12006 0
M  V30 8295 N 972.354 0.55485 2.24237 0
M  V30 8296 C 972.454 -0.367808 2.9169 0
M  V30 8297 N 972.404 -1.53426 2.29427 0
M  V30 8298 C 972.604 -0.319148 4.33828 0
M  V30 8299 C 972.654 0.920672 4.90433 0
M  V30 8300 H 975.394 3.41209 7.98667 0
M  V30 8301 H 975.664 2.5837 6.41742 0
M  V30 8302 H 974.797 5.02718 6.42752 0
M  V30 8303 H 972.142 4.11779 4.09026 0
M  V30 8304 H 971.862 2.49661 6.61772 0
M  V30 8305 H 970.871 3.86674 6.00946 0
M  V30 8306 H 972.705 4.29991 7.97006 0
M  V30 8307 H 972.777 1.00589 5.98303 0
M  V30 8308 H 972.675 -1.22639 4.93799 0
M  V30 8309 H 972.287 -1.56819 1.27167 0
M  V30 8310 H 972.483 -2.41062 2.83063 0
M  V30 8311 P 970.834 6.144 6.45285 0
M  V30 8312 O 970.614 7.54673 6.86199 0
M  V30 8313 O 970.044 5.12391 7.179 0
M  V30 8314 O 970.584 5.99158 4.88404 0
M  V30 8315 C 971.524 6.60234 3.96415 0
M  V30 8316 C 970.794 7.08259 2.72856 0
M  V30 8317 O 970.584 5.9427 1.83651 0
M  V30 8318 C 969.394 7.64886 2.9555 0
M  V30 8319 O 969.004 8.53963 1.90717 0
M  V30 8320 C 968.514 6.4116 2.90739 0
M  V30 8321 C 969.224 5.55375 1.86963 0
M  V30 8322 N 969.174 4.09664 2.15742 0
M  V30 8323 H 972.013 7.45574 4.45629 0
M  V30 8324 H 972.285 5.86232 3.67314 0
M  V30 8325 H 971.417 7.84412 2.24479 0
M  V30 8326 P 967.454 8.7635 1.60911 0
M  V30 8327 O 967.234 10.1388 1.11561 0
M  V30 8328 O 966.664 8.36503 2.79617 0
M  V30 8329 O 967.204 7.71806 0.42951 0
M  V30 8330 C 968.144 7.67148 -0.673689 0
M  V30 8331 C 967.414 7.33374 -1.95559 0
M  V30 8332 O 967.204 5.88721 -2.00726 0
M  V30 8333 C 966.014 7.92526 -2.10483 0
M  V30 8334 O 965.624 8.02971 -3.47653 0
M  V30 8335 C 965.134 6.89602 -1.41652 0
M  V30 8336 C 965.844 5.59201 -1.75185 0
M  V30 8337 N 965.794 4.58235 -0.662552 0
M  V30 8338 H 968.633 8.65116 -0.777161 0
M  V30 8339 H 968.905 6.90173 -0.474152 0
M  V30 8340 H 968.037 7.66548 -2.79458 0
M  V30 8341 P 964.074 8.03563 -3.84925 0
M  V30 8342 O 963.854 8.85821 -5.0569 0
M  V30 8343 O 963.284 8.41101 -2.65469 0
M  V30 8344 O 963.824 6.4965 -4.18908 0
M  V30 8345 C 964.764 5.81037 -5.05421 0
M  V30 8346 C 964.034 4.78366 -5.89277 0
M  V30 8347 O 963.824 3.58302 -5.08433 0
M  V30 8348 C 962.634 5.17448 -6.36119 0
M  V30 8349 O 962.244 4.45271 -7.53232 0
M  V30 8350 C 961.754 4.74639 -5.19936 0
M  V30 8351 C 962.464 3.49432 -4.70418 0
M  V30 8352 N 962.414 3.32099 -3.22613 0
M  V30 8353 H 965.253 6.54213 -5.71376 0
M  V30 8354 H 965.525 5.30936 -4.43503 0
M  V30 8355 H 964.657 4.55889 -6.76652 0
M  V30 8356 H 962.002 2.61715 -5.17932 0
M  V30 8357 H 961.722 5.52155 -4.41878 0
M  V30 8358 H 960.731 4.51981 -5.53374 0
M  V30 8359 H 962.565 6.25124 -6.55234 0
M  V30 8360 P 960.694 4.23843 -7.83734 0
M  V30 8361 O 960.474 4.19407 -9.29784 0
M  V30 8362 O 959.904 5.24426 -7.09156 0
M  V30 8363 O 960.444 2.7935 -7.20758 0
M  V30 8364 C 961.384 1.7299 -7.50419 0
M  V30 8365 C 960.654 0.406376 -7.57911 0
M  V30 8366 O 960.444 -0.0897726 -6.21935 0
M  V30 8367 C 959.254 0.447224 -8.1878 0
M  V30 8368 O 958.864 -0.825065 -8.71101 0
M  V30 8369 C 958.374 0.783801 -6.99623 0
M  V30 8370 C 959.084 0.0619192 -5.85967 0
M  V30 8371 N 959.034 0.790462 -4.56202 0
M  V30 8372 H 961.873 1.93423 -8.4679 0
M  V30 8373 H 962.145 1.68852 -6.70877 0
M  V30 8374 H 961.277 -0.289041 -8.15388 0
M  V30 8375 H 958.622 -0.927006 -5.72848 0
M  V30 8376 H 958.342 1.86973 -6.82036 0
M  V30 8377 H 957.351 0.403953 -7.13357 0
M  V30 8378 H 959.185 1.20599 -8.97534 0
M  V30 8379 P 957.314 -1.17771 -8.83182 0
M  V30 8380 O 957.094 -2.07206 -9.98732 0
M  V30 8381 O 956.524 0.0743816 -8.81969 0
M  V30 8382 O 957.064 -1.97652 -7.47304 0
M  V30 8383 C 958.004 -3.01133 -7.08783 0
M  V30 8384 C 957.274 -4.12613 -6.37049 0
M  V30 8385 O 957.064 -3.72827 -4.97879 0
M  V30 8386 C 955.874 -4.45085 -6.88694 0
M  V30 8387 O 955.484 -5.7877 -6.5624 0
M  V30 8388 C 954.994 -3.47817 -6.12078 0
M  V30 8389 C 955.704 -3.39414 -4.77697 0
M  V30 8390 N 955.654 -2.04615 -4.15333 0
M  V30 8391 H 958.493 -3.41248 -7.98759 0
M  V30 8392 H 958.765 -2.5837 -6.41742 0
M  V30 8393 H 957.897 -5.02657 -6.42673 0
M  V30 8394 P 953.934 -6.144 -6.45285 0
M  V30 8395 O 953.714 -7.54673 -6.86199 0
M  V30 8396 O 953.144 -5.12391 -7.179 0
M  V30 8397 O 953.684 -5.99158 -4.88404 0
M  V30 8398 C 954.624 -6.60234 -3.96415 0
M  V30 8399 C 953.894 -7.08259 -2.72856 0
M  V30 8400 O 953.684 -5.9427 -1.83651 0
M  V30 8401 C 952.494 -7.64886 -2.9555 0
M  V30 8402 O 952.104 -8.53963 -1.90717 0
M  V30 8403 C 951.614 -6.4116 -2.90739 0
M  V30 8404 C 952.324 -5.55375 -1.86963 0
M  V30 8405 N 952.274 -4.09448 -2.16152 0
M  V30 8406 H 955.113 -7.45574 -4.45629 0
M  V30 8407 H 955.385 -5.85864 -3.679 0
M  V30 8408 H 954.517 -7.84412 -2.24479 0
M  V30 8409 H 951.862 -5.73457 -0.888562 0
M  V30 8410 H 951.582 -5.90877 -3.88583 0
M  V30 8411 H 950.591 -6.6596 -2.58858 0
M  V30 8412 H 952.425 -8.16339 -3.92049 0
M  V30 8413 P 950.554 -8.7635 -1.60911 0
M  V30 8414 O 950.334 -10.1388 -1.11561 0
M  V30 8415 O 949.764 -8.36503 -2.79617 0
M  V30 8416 O 950.304 -7.71806 -0.42951 0
M  V30 8417 C 951.244 -7.66948 0.673514 0
M  V30 8418 C 950.514 -7.33374 1.95559 0
M  V30 8419 O 950.304 -5.88721 2.00726 0
M  V30 8420 C 949.114 -7.92218 2.1125 0
M  V30 8421 O 948.724 -8.02971 3.47653 0
M  V30 8422 C 948.234 -6.89504 1.41631 0
M  V30 8423 C 948.944 -5.59106 1.75155 0
M  V30 8424 N 948.894 -4.58136 0.662409 0
M  V30 8425 C 948.744 -3.26059 1.02863 0
M  V30 8426 O 948.654 -2.90743 2.19009 0
M  V30 8427 N 948.704 -2.35995 -0.0155585 0
M  V30 8428 C 948.794 -2.65248 -1.35603 0
M  V30 8429 O 948.744 -1.75605 -2.20651 0
M  V30 8430 C 948.944 -4.05747 -1.64698 0
M  V30 8431 C 949.054 -4.42345 -3.09553 0
M  V30 8432 C 948.994 -4.96734 -0.652411 0
M  V30 8433 H 951.735 -8.64917 0.776982 0
M  V30 8434 H 952.004 -6.89974 0.474015 0
M  V30 8435 H 951.137 -7.66548 2.79458 0
M  V30 8436 H 948.482 -5.16076 2.65138 0
M  V30 8437 H 948.203 -7.06433 0.329384 0
M  V30 8438 H 947.211 -6.90829 1.81996 0
M  V30 8439 H 949.045 -8.90774 1.62639 0
M  V30 8440 H 949.116 -6.02181 -0.895285 0
M  V30 8441 H 948.086 -4.80252 -3.45468 0
M  V30 8442 H 949.823 -5.20015 -3.22119 0
M  V30 8443 H 949.335 -3.53269 -3.67833 0
M  V30 8444 H 948.599 -1.39558 0.227499 0
M  V30 8445 P 947.174 -8.03563 3.84925 0
M  V30 8446 O 946.954 -8.85821 5.0569 0
M  V30 8447 O 946.384 -8.41101 2.65469 0
M  V30 8448 O 946.924 -6.4965 4.18908 0
M  V30 8449 C 947.864 -5.80886 5.05289 0
M  V30 8450 C 947.134 -4.78366 5.89277 0
M  V30 8451 O 946.924 -3.58302 5.08433 0
M  V30 8452 C 945.734 -5.16748 6.36559 0
M  V30 8453 O 945.344 -4.45271 7.53232 0
M  V30 8454 C 944.854 -4.74572 5.19863 0
M  V30 8455 C 945.564 -3.49373 4.70338 0
M  V30 8456 N 945.514 -3.31704 3.22876 0
M  V30 8457 C 945.364 -2.03326 2.74871 0
M  V30 8458 O 945.274 -1.06486 3.48076 0
M  V30 8459 N 945.324 -1.91838 1.37456 0
M  V30 8460 C 945.414 -2.94295 0.462035 0
M  V30 8461 O 945.364 -2.71763 -0.752928 0
M  V30 8462 C 945.564 -4.25064 1.05249 0
M  V30 8463 C 945.674 -5.39815 0.095697 0
M  V30 8464 C 945.614 -4.40214 2.39192 0
M  V30 8465 H 948.355 -6.54063 5.71245 0
M  V30 8466 H 948.624 -5.30339 4.43905 0
M  V30 8467 H 947.757 -4.55889 6.76652 0
M  V30 8468 H 945.102 -2.6167 5.17842 0
M  V30 8469 H 944.823 -5.52155 4.41878 0
M  V30 8470 H 943.831 -4.51918 5.53297 0
M  V30 8471 H 945.665 -6.25055 6.55162 0
M  V30 8472 H 945.736 -5.39798 2.81523 0
M  V30 8473 H 944.706 -5.91593 0.0279582 0
M  V30 8474 H 946.443 -6.10038 0.450573 0
M  V30 8475 H 945.955 -5.02007 -0.89937 0
M  V30 8476 H 945.219 -0.995326 1.00435 0
M  V30 8477 P 943.794 -4.23843 7.83734 0
M  V30 8478 O 943.574 -4.19407 9.29784 0
M  V30 8479 O 943.004 -5.24426 7.09156 0
M  V30 8480 O 943.544 -2.7935 7.20758 0
M  V30 8481 C 944.484 -1.7299 7.50419 0
M  V30 8482 C 943.754 -0.406376 7.57911 0
M  V30 8483 O 943.544 0.0897726 6.21935 0
M  V30 8484 C 942.354 -0.447224 8.1878 0
M  V30 8485 O 941.964 0.825065 8.71101 0
M  V30 8486 C 941.474 -0.783801 6.99623 0
M  V30 8487 C 942.184 -0.0619192 5.85967 0
M  V30 8488 N 942.134 -0.7859 4.56281 0
M  V30 8489 H 944.973 -1.93423 8.4679 0
M  V30 8490 H 945.245 -1.68181 6.71046 0
M  V30 8491 H 944.377 0.289041 8.15388 0
M  V30 8492 P 940.414 1.17771 8.83182 0
M  V30 8493 O 940.194 2.07206 9.98732 0
M  V30 8494 O 939.624 -0.0743816 8.81969 0
M  V30 8495 O 940.164 1.97652 7.47304 0
M  V30 8496 C 941.104 3.01133 7.08783 0
M  V30 8497 C 940.374 4.12613 6.37049 0
M  V30 8498 O 940.164 3.72827 4.97879 0
M  V30 8499 C 938.974 4.45085 6.88694 0
M  V30 8500 O 938.584 5.7877 6.5624 0
M  V30 8501 C 938.094 3.47817 6.12078 0
M  V30 8502 C 938.804 3.39414 4.77697 0
M  V30 8503 N 938.754 2.04615 4.15333 0
M  V30 8504 H 941.593 3.41248 7.98759 0
M  V30 8505 H 941.865 2.5837 6.41742 0
M  V30 8506 H 940.997 5.02657 6.42673 0
M  V30 8507 P 937.034 6.144 6.45285 0
M  V30 8508 O 936.814 7.54673 6.86199 0
M  V30 8509 O 936.244 5.12391 7.179 0
M  V30 8510 O 936.784 5.99158 4.88404 0
M  V30 8511 C 937.724 6.60062 3.96313 0
M  V30 8512 C 936.994 7.08259 2.72856 0
M  V30 8513 O 936.784 5.9427 1.83651 0
M  V30 8514 C 935.594 7.65087 2.94749 0
M  V30 8515 O 935.204 8.53963 1.90717 0
M  V30 8516 C 934.714 6.41069 2.90698 0
M  V30 8517 C 935.424 5.5528 1.86931 0
M  V30 8518 N 935.374 4.09575 2.15696 0
M  V30 8519 C 935.224 3.24249 1.08435 0
M  V30 8520 O 935.134 3.63946 -0.0628747 0
M  V30 8521 N 935.184 1.90009 1.39973 0
M  V30 8522 C 935.274 1.34884 2.65614 0
M  V30 8523 O 935.224 0.123716 2.81728 0
M  V30 8524 C 935.424 2.3145 3.71736 0
M  V30 8525 C 935.534 1.75913 5.10438 0
M  V30 8526 C 935.474 3.63518 3.44754 0
M  V30 8527 H 938.215 7.45402 4.45526 0
M  V30 8528 H 938.484 5.86062 3.67208 0
M  V30 8529 H 937.617 7.84412 2.24479 0
M  V30 8530 H 934.962 5.73358 0.888409 0
M  V30 8531 H 934.683 5.90877 3.88583 0
M  V30 8532 H 933.691 6.65867 2.58821 0
M  V30 8533 H 935.525 8.16248 3.92006 0
M  V30 8534 H 935.596 4.34551 4.26383 0
M  V30 8535 H 934.566 1.85471 5.61775 0
M  V30 8536 H 936.303 2.31364 5.66257 0
M  V30 8537 H 935.815 0.695936 5.05229 0
M  V30 8538 H 935.079 1.26277 0.63625 0
M  V30 8539 P 933.655 8.7635 1.60911 0
M  V30 8540 O 933.435 10.1388 1.11561 0
M  V30 8541 O 932.865 8.36503 2.79617 0
M  V30 8542 O 933.405 7.71806 0.42951 0
M  V30 8543 C 934.345 7.66948 -0.673514 0
M  V30 8544 C 933.615 7.33374 -1.95559 0
M  V30 8545 O 933.405 5.88721 -2.00726 0
M  V30 8546 C 932.215 7.92218 -2.1125 0
M  V30 8547 O 931.825 8.02971 -3.47653 0
M  V30 8548 C 931.335 6.89504 -1.41631 0
M  V30 8549 C 932.045 5.59106 -1.75155 0
M  V30 8550 N 931.995 4.58136 -0.662409 0
M  V30 8551 C 931.845 3.26059 -1.02863 0
M  V30 8552 O 931.755 2.90743 -2.19009 0
M  V30 8553 N 931.805 2.35995 0.0155585 0
M  V30 8554 C 931.895 2.65248 1.35603 0
M  V30 8555 O 931.845 1.75605 2.20651 0
M  V30 8556 C 932.045 4.05747 1.64698 0
M  V30 8557 C 932.155 4.42345 3.09553 0
M  V30 8558 C 932.095 4.96734 0.652411 0
M  V30 8559 H 934.836 8.64917 -0.776982 0
M  V30 8560 H 935.105 6.89974 -0.474015 0
M  V30 8561 H 934.238 7.66548 -2.79458 0
M  V30 8562 H 931.583 5.16076 -2.65138 0
M  V30 8563 H 931.304 7.06433 -0.329384 0
M  V30 8564 H 930.312 6.90829 -1.81996 0
M  V30 8565 H 932.146 8.90774 -1.62639 0
M  V30 8566 H 932.217 6.02181 0.895285 0
M  V30 8567 H 931.187 4.80252 3.45468 0
M  V30 8568 H 932.924 5.20015 3.22119 0
M  V30 8569 H 932.436 3.53269 3.67833 0
M  V30 8570 H 931.7 1.39558 -0.227499 0
M  V30 8571 P 930.275 8.03563 -3.84925 0
M  V30 8572 O 930.055 8.85821 -5.0569 0
M  V30 8573 O 929.485 8.41101 -2.65469 0
M  V30 8574 O 930.025 6.49734 -4.18962 0
M  V30 8575 C 930.965 5.81037 -5.05421 0
M  V30 8576 C 930.235 4.79018 -5.88876 0
M  V30 8577 O 930.025 3.58359 -5.08515 0
M  V30 8578 C 928.835 5.17448 -6.36119 0
M  V30 8579 O 928.445 4.45322 -7.53318 0
M  V30 8580 C 927.955 4.74639 -5.19936 0
M  V30 8581 C 928.665 3.49432 -4.70418 0
M  V30 8582 N 928.615 3.31776 -3.22945 0
M  V30 8583 C 928.465 2.02742 -2.72939 0
M  V30 8584 O 928.375 1.08301 -3.52749 0
M  V30 8585 N 928.415 1.96117 -1.22063 0
M  V30 8586 C 928.515 2.8878 -0.551566 0
M  V30 8587 N 928.465 2.65609 0.750198 0
M  V30 8588 C 928.665 4.22457 -1.03707 0
M  V30 8589 C 928.715 4.37979 -2.39113 0
M  V30 8590 H 931.455 6.54138 -5.7131 0
M  V30 8591 H 931.725 5.30492 -4.44033 0
M  V30 8592 H 930.858 4.55945 -6.76735 0
M  V30 8593 H 928.203 2.6176 -5.18021 0
M  V30 8594 H 927.923 5.52233 -4.41941 0
M  V30 8595 H 926.932 4.52045 -5.53452 0
M  V30 8596 H 928.766 6.25124 -6.55234 0
M  V30 8597 H 928.838 5.37936 -2.80552 0
M  V30 8598 H 928.736 5.07528 -0.359553 0
M  V30 8599 H 928.348 1.69403 1.09847 0
M  V30 8600 H 928.544 3.43701 1.41792 0
M  V30 8601 P 926.895 4.23843 -7.83734 0
M  V30 8602 O 926.675 4.19407 -9.29784 0
M  V30 8603 O 926.105 5.24426 -7.09156 0
M  V30 8604 O 926.645 2.7935 -7.20758 0
M  V30 8605 C 927.585 1.7299 -7.50419 0
M  V30 8606 C 926.855 0.406376 -7.57911 0
M  V30 8607 O 926.645 -0.0897726 -6.21935 0
M  V30 8608 C 925.455 0.447224 -8.1878 0
M  V30 8609 O 925.065 -0.825065 -8.71101 0
M  V30 8610 C 924.575 0.783801 -6.99623 0
M  V30 8611 C 925.285 0.0619192 -5.85967 0
M  V30 8612 N 925.235 0.790462 -4.56202 0
M  V30 8613 H 928.074 1.93423 -8.4679 0
M  V30 8614 H 928.346 1.68852 -6.70877 0
M  V30 8615 H 927.478 -0.289041 -8.15388 0
M  V30 8616 H 924.823 -0.927006 -5.72848 0
M  V30 8617 H 924.543 1.86973 -6.82036 0
M  V30 8618 H 923.552 0.403953 -7.13357 0
M  V30 8619 H 925.386 1.20599 -8.97534 0
M  V30 8620 P 923.515 -1.17771 -8.83182 0
M  V30 8621 O 923.295 -2.07206 -9.98732 0
M  V30 8622 O 922.725 0.0743816 -8.81969 0
M  V30 8623 O 923.265 -1.97652 -7.47304 0
M  V30 8624 C 924.205 -3.01133 -7.08783 0
M  V30 8625 C 923.475 -4.12613 -6.37049 0
M  V30 8626 O 923.265 -3.72827 -4.97879 0
M  V30 8627 C 922.075 -4.45085 -6.88694 0
M  V30 8628 O 921.685 -5.7877 -6.5624 0
M  V30 8629 C 921.195 -3.47817 -6.12078 0
M  V30 8630 C 921.905 -3.39414 -4.77697 0
M  V30 8631 N 921.855 -2.04615 -4.15333 0
M  V30 8632 H 924.694 -3.41248 -7.98759 0
M  V30 8633 H 924.966 -2.5837 -6.41742 0
M  V30 8634 H 924.098 -5.02657 -6.42673 0
M  V30 8635 P 920.135 -6.144 -6.45285 0
M  V30 8636 O 919.915 -7.54673 -6.86199 0
M  V30 8637 O 919.345 -5.12391 -7.179 0
M  V30 8638 O 919.885 -5.99158 -4.88404 0
M  V30 8639 C 920.825 -6.60234 -3.96415 0
M  V30 8640 C 920.095 -7.08259 -2.72856 0
M  V30 8641 O 919.885 -5.9427 -1.83651 0
M  V30 8642 C 918.695 -7.64886 -2.9555 0
M  V30 8643 O 918.305 -8.53963 -1.90717 0
M  V30 8644 C 917.815 -6.4116 -2.90739 0
M  V30 8645 C 918.525 -5.55375 -1.86963 0
M  V30 8646 N 918.475 -4.09664 -2.15742 0
M  V30 8647 H 921.314 -7.45574 -4.45629 0
M  V30 8648 H 921.586 -5.86232 -3.67314 0
M  V30 8649 H 920.718 -7.84412 -2.24479 0
M  V30 8650 P 916.755 -8.7635 -1.60911 0
M  V30 8651 O 916.535 -10.1388 -1.11561 0
M  V30 8652 O 915.965 -8.36503 -2.79617 0
M  V30 8653 O 916.505 -7.71806 -0.42951 0
M  V30 8654 C 917.445 -7.66948 0.673514 0
M  V30 8655 C 916.715 -7.33374 1.95559 0
M  V30 8656 O 916.505 -5.88721 2.00726 0
M  V30 8657 C 915.315 -7.92218 2.1125 0
M  V30 8658 O 914.925 -8.02971 3.47653 0
M  V30 8659 C 914.435 -6.89504 1.41631 0
M  V30 8660 C 915.145 -5.59106 1.75155 0
M  V30 8661 N 915.095 -4.58136 0.662409 0
M  V30 8662 C 914.945 -3.26059 1.02863 0
M  V30 8663 O 914.855 -2.90743 2.19009 0
M  V30 8664 N 914.905 -2.35995 -0.0155585 0
M  V30 8665 C 914.995 -2.65248 -1.35603 0
M  V30 8666 O 914.945 -1.75605 -2.20651 0
M  V30 8667 C 915.145 -4.05747 -1.64698 0
M  V30 8668 C 915.255 -4.42345 -3.09553 0
M  V30 8669 C 915.195 -4.96734 -0.652411 0
M  V30 8670 H 917.936 -8.64917 0.776982 0
M  V30 8671 H 918.205 -6.89974 0.474015 0
M  V30 8672 H 917.338 -7.66548 2.79458 0
M  V30 8673 H 914.683 -5.16076 2.65138 0
M  V30 8674 H 914.404 -7.06433 0.329384 0
M  V30 8675 H 913.412 -6.90829 1.81996 0
M  V30 8676 H 915.246 -8.90774 1.62639 0
M  V30 8677 H 915.317 -6.02181 -0.895285 0
M  V30 8678 H 914.287 -4.80252 -3.45468 0
M  V30 8679 H 916.024 -5.20015 -3.22119 0
M  V30 8680 H 915.536 -3.53269 -3.67833 0
M  V30 8681 H 914.8 -1.39558 0.227499 0
M  V30 8682 P 913.375 -8.03563 3.84925 0
M  V30 8683 O 913.155 -8.85821 5.0569 0
M  V30 8684 O 912.585 -8.41101 2.65469 0
M  V30 8685 O 913.125 -6.4965 4.18908 0
M  V30 8686 C 914.065 -5.81037 5.05421 0
M  V30 8687 C 913.335 -4.78366 5.89277 0
M  V30 8688 O 913.125 -3.58302 5.08433 0
M  V30 8689 C 911.935 -5.17448 6.36119 0
M  V30 8690 O 911.545 -4.45271 7.53232 0
M  V30 8691 C 911.055 -4.74639 5.19936 0
M  V30 8692 C 911.765 -3.49432 4.70418 0
M  V30 8693 N 911.715 -3.31776 3.22945 0
M  V30 8694 H 914.554 -6.54213 5.71376 0
M  V30 8695 H 914.826 -5.30492 4.44033 0
M  V30 8696 H 913.958 -4.55889 6.76652 0
M  V30 8697 P 909.995 -4.23843 7.83734 0
M  V30 8698 O 909.775 -4.19407 9.29784 0
M  V30 8699 O 909.205 -5.24426 7.09156 0
M  V30 8700 O 909.745 -2.7935 7.20758 0
M  V30 8701 C 910.685 -1.7299 7.50419 0
M  V30 8702 C 909.955 -0.406376 7.57911 0
M  V30 8703 O 909.745 0.0897726 6.21935 0
M  V30 8704 C 908.555 -0.447224 8.1878 0
M  V30 8705 O 908.165 0.825065 8.71101 0
M  V30 8706 C 907.675 -0.783801 6.99623 0
M  V30 8707 C 908.385 -0.0619192 5.85967 0
M  V30 8708 N 908.335 -0.7859 4.56281 0
M  V30 8709 H 911.174 -1.93423 8.4679 0
M  V30 8710 H 911.446 -1.68181 6.71046 0
M  V30 8711 H 910.578 0.289041 8.15388 0
M  V30 8712 P 906.615 1.17771 8.83182 0
M  V30 8713 O 906.395 2.07206 9.98732 0
M  V30 8714 O 905.825 -0.0743816 8.81969 0
M  V30 8715 O 906.365 1.97652 7.47304 0
M  V30 8716 C 907.305 3.01133 7.08783 0
M  V30 8717 C 906.575 4.12613 6.37049 0
M  V30 8718 O 906.365 3.72827 4.97879 0
M  V30 8719 C 905.175 4.45085 6.88694 0
M  V30 8720 O 904.785 5.7877 6.5624 0
M  V30 8721 C 904.295 3.47817 6.12078 0
M  V30 8722 C 905.005 3.39414 4.77697 0
M  V30 8723 N 904.955 2.04615 4.15333 0
M  V30 8724 H 907.794 3.41248 7.98759 0
M  V30 8725 H 908.066 2.5837 6.41742 0
M  V30 8726 H 907.198 5.02657 6.42673 0
M  V30 8727 P 903.235 6.144 6.45285 0
M  V30 8728 O 903.015 7.54673 6.86199 0
M  V30 8729 O 902.445 5.12391 7.179 0
M  V30 8730 O 902.985 5.99158 4.88404 0
M  V30 8731 C 903.925 6.60234 3.96415 0
M  V30 8732 C 903.195 7.08259 2.72856 0
M  V30 8733 O 902.985 5.9427 1.83651 0
M  V30 8734 C 901.795 7.64886 2.9555 0
M  V30 8735 O 901.405 8.53963 1.90717 0
M  V30 8736 C 900.915 6.4116 2.90739 0
M  V30 8737 C 901.625 5.55375 1.86963 0
M  V30 8738 N 901.575 4.09664 2.15742 0
M  V30 8739 H 904.414 7.45574 4.45629 0
M  V30 8740 H 904.686 5.86232 3.67314 0
M  V30 8741 H 903.818 7.84412 2.24479 0
M  V30 8742 P 899.855 8.7635 1.60911 0
M  V30 8743 O 899.635 10.1388 1.11561 0
M  V30 8744 O 899.065 8.36503 2.79617 0
M  V30 8745 O 899.605 7.71806 0.42951 0
M  V30 8746 C 900.545 7.67148 -0.673689 0
M  V30 8747 C 899.815 7.33374 -1.95559 0
M  V30 8748 O 899.605 5.88721 -2.00726 0
M  V30 8749 C 898.415 7.92526 -2.10483 0
M  V30 8750 O 898.025 8.02971 -3.47653 0
M  V30 8751 C 897.535 6.89602 -1.41652 0
M  V30 8752 C 898.245 5.59201 -1.75185 0
M  V30 8753 N 898.195 4.58301 -0.657969 0
M  V30 8754 C 898.275 4.79019 0.692603 0
M  V30 8755 N 898.205 3.69736 1.38998 0
M  V30 8756 C 898.055 2.70474 0.438135 0
M  V30 8757 C 897.925 1.30327 0.538142 0
M  V30 8758 N 897.915 0.64304 1.69192 0
M  V30 8759 N 897.805 0.611027 -0.605183 0
M  V30 8760 C 897.815 1.27002 -1.75953 0
M  V30 8761 N 897.935 2.56038 -1.98546 0
M  V30 8762 C 898.055 3.22681 -0.822541 0
M  V30 8763 H 901.034 8.65116 -0.777161 0
M  V30 8764 H 901.306 6.9022 -0.46725 0
M  V30 8765 H 900.438 7.66548 -2.79458 0
M  V30 8766 H 897.783 5.16165 -2.65183 0
M  V30 8767 H 897.503 7.06433 -0.329384 0
M  V30 8768 H 896.512 6.90926 -1.82021 0
M  V30 8769 H 898.346 8.90873 -1.62657 0
M  V30 8770 H 898.387 5.77785 1.13874 0
M  V30 8771 H 898.006 1.15585 2.57991 0
M  V30 8772 H 897.817 -0.382989 1.69835 0
M  V30 8773 H 897.709 0.653331 -2.64449 0
M  V30 8774 P 896.475 8.03563 -3.84925 0
M  V30 8775 O 896.255 8.85821 -5.0569 0
M  V30 8776 O 895.685 8.41101 -2.65469 0
M  V30 8777 O 896.225 6.4965 -4.18908 0
M  V30 8778 C 897.165 5.81037 -5.05421 0
M  V30 8779 C 896.435 4.78366 -5.89277 0
M  V30 8780 O 896.225 3.58302 -5.08433 0
M  V30 8781 C 895.035 5.17448 -6.36119 0
M  V30 8782 O 894.645 4.45271 -7.53232 0
M  V30 8783 C 894.155 4.74639 -5.19936 0
M  V30 8784 C 894.865 3.49432 -4.70418 0
M  V30 8785 N 894.815 3.31776 -3.22945 0
M  V30 8786 H 897.654 6.54213 -5.71376 0
M  V30 8787 H 897.926 5.30492 -4.44033 0
M  V30 8788 H 897.058 4.55889 -6.76652 0
M  V30 8789 P 893.095 4.23843 -7.83734 0
M  V30 8790 O 892.875 4.19407 -9.29784 0
M  V30 8791 O 892.305 5.24426 -7.09156 0
M  V30 8792 O 892.845 2.7935 -7.20758 0
M  V30 8793 C 893.785 1.7299 -7.50419 0
M  V30 8794 C 893.055 0.406376 -7.57911 0
M  V30 8795 O 892.845 -0.0897726 -6.21935 0
M  V30 8796 C 891.655 0.447224 -8.1878 0
M  V30 8797 O 891.265 -0.825065 -8.71101 0
M  V30 8798 C 890.775 0.783801 -6.99623 0
M  V30 8799 C 891.485 0.0619192 -5.85967 0
M  V30 8800 N 891.435 0.7859 -4.56281 0
M  V30 8801 H 894.274 1.93423 -8.4679 0
M  V30 8802 H 894.546 1.68181 -6.71046 0
M  V30 8803 H 893.678 -0.289041 -8.15388 0
M  V30 8804 P 889.715 -1.17771 -8.83182 0
M  V30 8805 O 889.495 -2.07206 -9.98732 0
M  V30 8806 O 888.925 0.0743816 -8.81969 0
M  V30 8807 O 889.465 -1.97652 -7.47304 0
M  V30 8808 C 890.405 -3.01133 -7.08783 0
M  V30 8809 C 889.675 -4.12613 -6.37049 0
M  V30 8810 O 889.465 -3.72827 -4.97879 0
M  V30 8811 C 888.275 -4.45085 -6.88694 0
M  V30 8812 O 887.885 -5.7877 -6.5624 0
M  V30 8813 C 887.395 -3.47817 -6.12078 0
M  V30 8814 C 888.105 -3.39414 -4.77697 0
M  V30 8815 N 888.055 -2.04615 -4.15333 0
M  V30 8816 H 890.894 -3.41248 -7.98759 0
M  V30 8817 H 891.166 -2.5837 -6.41742 0
M  V30 8818 H 890.298 -5.02657 -6.42673 0
M  V30 8819 P 886.335 -6.144 -6.45285 0
M  V30 8820 O 886.115 -7.54673 -6.86199 0
M  V30 8821 O 885.545 -5.12391 -7.179 0
M  V30 8822 O 886.085 -5.99158 -4.88404 0
M  V30 8823 C 887.025 -6.60062 -3.96313 0
M  V30 8824 C 886.295 -7.08259 -2.72856 0
M  V30 8825 O 886.085 -5.9427 -1.83651 0
M  V30 8826 C 884.895 -7.65087 -2.94749 0
M  V30 8827 O 884.505 -8.53963 -1.90717 0
M  V30 8828 C 884.015 -6.41069 -2.90698 0
M  V30 8829 C 884.725 -5.5528 -1.86931 0
M  V30 8830 N 884.675 -4.09575 -2.15696 0
M  V30 8831 C 884.525 -3.24249 -1.08435 0
M  V30 8832 O 884.435 -3.63946 0.0628747 0
M  V30 8833 N 884.485 -1.90009 -1.39973 0
M  V30 8834 C 884.575 -1.34884 -2.65614 0
M  V30 8835 O 884.525 -0.123716 -2.81728 0
M  V30 8836 C 884.725 -2.3145 -3.71736 0
M  V30 8837 C 884.835 -1.75913 -5.10438 0
M  V30 8838 C 884.775 -3.63518 -3.44754 0
M  V30 8839 H 887.516 -7.45402 -4.45526 0
M  V30 8840 H 887.785 -5.86062 -3.67208 0
M  V30 8841 H 886.918 -7.84412 -2.24479 0
M  V30 8842 H 884.263 -5.73358 -0.888409 0
M  V30 8843 H 883.984 -5.90877 -3.88583 0
M  V30 8844 H 882.992 -6.65867 -2.58821 0
M  V30 8845 H 884.826 -8.16248 -3.92006 0
M  V30 8846 H 884.897 -4.34551 -4.26383 0
M  V30 8847 H 883.867 -1.85471 -5.61775 0
M  V30 8848 H 885.604 -2.31364 -5.66257 0
M  V30 8849 H 885.116 -0.695936 -5.05229 0
M  V30 8850 H 884.38 -1.26277 -0.63625 0
M  V30 8851 P 882.955 -8.7635 -1.60911 0
M  V30 8852 O 882.735 -10.1388 -1.11561 0
M  V30 8853 O 882.165 -8.36503 -2.79617 0
M  V30 8854 O 882.705 -7.71806 -0.42951 0
M  V30 8855 C 883.645 -7.67148 0.673689 0
M  V30 8856 C 882.915 -7.33374 1.95559 0
M  V30 8857 O 882.705 -5.88721 2.00726 0
M  V30 8858 C 881.515 -7.92526 2.10483 0
M  V30 8859 O 881.125 -8.02971 3.47653 0
M  V30 8860 C 880.635 -6.89602 1.41652 0
M  V30 8861 C 881.345 -5.59201 1.75185 0
M  V30 8862 N 881.295 -4.58235 0.662552 0
M  V30 8863 H 884.134 -8.65116 0.777161 0
M  V30 8864 H 884.406 -6.90173 0.474152 0
M  V30 8865 H 883.538 -7.66548 2.79458 0
M  V30 8866 P 879.575 -8.03563 3.84925 0
M  V30 8867 O 879.355 -8.85821 5.0569 0
M  V30 8868 O 878.785 -8.41101 2.65469 0
M  V30 8869 O 879.325 -6.49734 4.18962 0
M  V30 8870 C 880.265 -5.81037 5.05421 0
M  V30 8871 C 879.535 -4.79018 5.88876 0
M  V30 8872 O 879.325 -3.58359 5.08515 0
M  V30 8873 C 878.135 -5.17448 6.36119 0
M  V30 8874 O 877.745 -4.45322 7.53318 0
M  V30 8875 C 877.255 -4.74639 5.19936 0
M  V30 8876 C 877.965 -3.49432 4.70418 0
M  V30 8877 N 877.915 -3.31776 3.22945 0
M  V30 8878 C 877.765 -2.02742 2.72939 0
M  V30 8879 O 877.675 -1.08301 3.52749 0
M  V30 8880 N 877.715 -1.96117 1.22063 0
M  V30 8881 C 877.815 -2.8878 0.551566 0
M  V30 8882 N 877.765 -2.65609 -0.750198 0
M  V30 8883 C 877.965 -4.22457 1.03707 0
M  V30 8884 C 878.015 -4.37979 2.39113 0
M  V30 8885 H 880.755 -6.54138 5.7131 0
M  V30 8886 H 881.025 -5.30492 4.44033 0
M  V30 8887 H 880.158 -4.55945 6.76735 0
M  V30 8888 H 877.503 -2.6176 5.18021 0
M  V30 8889 H 877.223 -5.52233 4.41941 0
M  V30 8890 H 876.232 -4.52045 5.53452 0
M  V30 8891 H 878.066 -6.25124 6.55234 0
M  V30 8892 H 878.138 -5.37936 2.80552 0
M  V30 8893 H 878.036 -5.07528 0.359553 0
M  V30 8894 H 877.648 -1.69403 -1.09847 0
M  V30 8895 H 877.844 -3.43701 -1.41792 0
M  V30 8896 P 876.195 -4.23843 7.83734 0
M  V30 8897 O 875.975 -4.19407 9.29784 0
M  V30 8898 O 875.405 -5.24426 7.09156 0
M  V30 8899 O 875.945 -2.7935 7.20758 0
M  V30 8900 C 876.885 -1.7299 7.50419 0
M  V30 8901 C 876.155 -0.406376 7.57911 0
M  V30 8902 O 875.945 0.0897726 6.21935 0
M  V30 8903 C 874.755 -0.447224 8.1878 0
M  V30 8904 O 874.365 0.825065 8.71101 0
M  V30 8905 C 873.875 -0.783801 6.99623 0
M  V30 8906 C 874.585 -0.0619192 5.85967 0
M  V30 8907 N 874.535 -0.7859 4.56281 0
M  V30 8908 H 877.374 -1.93423 8.4679 0
M  V30 8909 H 877.646 -1.68181 6.71046 0
M  V30 8910 H 876.778 0.289041 8.15388 0
M  V30 8911 P 872.815 1.17771 8.83182 0
M  V30 8912 O 872.595 2.07206 9.98732 0
M  V30 8913 O 872.025 -0.0743816 8.81969 0
M  V30 8914 O 872.565 1.97652 7.47304 0
M  V30 8915 C 873.505 3.01133 7.08783 0
M  V30 8916 C 872.775 4.12613 6.37049 0
M  V30 8917 O 872.565 3.72827 4.97879 0
M  V30 8918 C 871.375 4.45085 6.88694 0
M  V30 8919 O 870.985 5.7877 6.5624 0
M  V30 8920 C 870.495 3.47817 6.12078 0
M  V30 8921 C 871.205 3.39414 4.77697 0
M  V30 8922 N 871.155 2.04615 4.15333 0
M  V30 8923 H 873.994 3.41248 7.98759 0
M  V30 8924 H 874.266 2.5837 6.41742 0
M  V30 8925 H 873.398 5.02657 6.42673 0
M  V30 8926 P 869.435 6.144 6.45285 0
M  V30 8927 O 869.215 7.54673 6.86199 0
M  V30 8928 O 868.645 5.12391 7.179 0
M  V30 8929 O 869.185 5.99158 4.88404 0
M  V30 8930 C 870.125 6.60234 3.96415 0
M  V30 8931 C 869.395 7.08259 2.72856 0
M  V30 8932 O 869.185 5.9427 1.83651 0
M  V30 8933 C 867.995 7.64886 2.9555 0
M  V30 8934 O 867.605 8.53963 1.90717 0
M  V30 8935 C 867.115 6.4116 2.90739 0
M  V30 8936 C 867.825 5.55375 1.86963 0
M  V30 8937 N 867.775 4.09448 2.16152 0
M  V30 8938 H 870.614 7.45574 4.45629 0
M  V30 8939 H 870.886 5.85864 3.679 0
M  V30 8940 H 870.018 7.84412 2.24479 0
M  V30 8941 H 867.363 5.73457 0.888562 0
M  V30 8942 H 867.083 5.90877 3.88583 0
M  V30 8943 H 866.092 6.6596 2.58858 0
M  V30 8944 H 867.926 8.16339 3.92049 0
M  V30 8945 P 866.055 8.7635 1.60911 0
M  V30 8946 O 865.835 10.1388 1.11561 0
M  V30 8947 O 865.265 8.36503 2.79617 0
M  V30 8948 O 865.805 7.71806 0.42951 0
M  V30 8949 C 866.745 7.66948 -0.673514 0
M  V30 8950 C 866.015 7.33374 -1.95559 0
M  V30 8951 O 865.805 5.88721 -2.00726 0
M  V30 8952 C 864.615 7.92218 -2.1125 0
M  V30 8953 O 864.225 8.02971 -3.47653 0
M  V30 8954 C 863.735 6.89504 -1.41631 0
M  V30 8955 C 864.445 5.59106 -1.75155 0
M  V30 8956 N 864.395 4.58136 -0.662409 0
M  V30 8957 C 864.245 3.26059 -1.02863 0
M  V30 8958 O 864.155 2.90743 -2.19009 0
M  V30 8959 N 864.205 2.35995 0.0155585 0
M  V30 8960 C 864.295 2.65248 1.35603 0
M  V30 8961 O 864.245 1.75605 2.20651 0
M  V30 8962 C 864.445 4.05747 1.64698 0
M  V30 8963 C 864.555 4.42345 3.09553 0
M  V30 8964 C 864.495 4.96734 0.652411 0
M  V30 8965 H 867.236 8.64917 -0.776982 0
M  V30 8966 H 867.505 6.89974 -0.474015 0
M  V30 8967 H 866.638 7.66548 -2.79458 0
M  V30 8968 H 863.983 5.16076 -2.65138 0
M  V30 8969 H 863.704 7.06433 -0.329384 0
M  V30 8970 H 862.712 6.90829 -1.81996 0
M  V30 8971 H 864.546 8.90774 -1.62639 0
M  V30 8972 H 864.617 6.02181 0.895285 0
M  V30 8973 H 863.587 4.80252 3.45468 0
M  V30 8974 H 865.324 5.20015 3.22119 0
M  V30 8975 H 864.836 3.53269 3.67833 0
M  V30 8976 H 864.1 1.39558 -0.227499 0
M  V30 8977 P 862.675 8.03563 -3.84925 0
M  V30 8978 O 862.455 8.85821 -5.0569 0
M  V30 8979 O 861.885 8.41101 -2.65469 0
M  V30 8980 O 862.425 6.4965 -4.18908 0
M  V30 8981 C 863.365 5.81037 -5.05421 0
M  V30 8982 C 862.635 4.78366 -5.89277 0
M  V30 8983 O 862.425 3.58302 -5.08433 0
M  V30 8984 C 861.235 5.17448 -6.36119 0
M  V30 8985 O 860.845 4.45271 -7.53232 0
M  V30 8986 C 860.355 4.74639 -5.19936 0
M  V30 8987 C 861.065 3.49432 -4.70418 0
M  V30 8988 N 861.015 3.31776 -3.22945 0
M  V30 8989 H 863.854 6.54213 -5.71376 0
M  V30 8990 H 864.126 5.30492 -4.44033 0
M  V30 8991 H 863.258 4.55889 -6.76652 0
M  V30 8992 P 859.295 4.23843 -7.83734 0
M  V30 8993 O 859.075 4.19407 -9.29784 0
M  V30 8994 O 858.505 5.24426 -7.09156 0
M  V30 8995 O 859.045 2.7935 -7.20758 0
M  V30 8996 C 859.985 1.72945 -7.50224 0
M  V30 8997 C 859.255 0.406376 -7.57911 0
M  V30 8998 O 859.045 -0.0897726 -6.21935 0
M  V30 8999 C 857.855 0.438983 -8.18724 0
M  V30 9000 O 857.465 -0.825065 -8.71101 0
M  V30 9001 C 856.975 0.783689 -6.99524 0
M  V30 9002 C 857.685 0.0619086 -5.85867 0
M  V30 9003 N 857.635 0.78573 -4.56183 0
M  V30 9004 C 857.485 0.0292889 -3.41887 0
M  V30 9005 O 857.395 -1.18445 -3.4419 0
M  V30 9006 N 857.445 0.744061 -2.23964 0
M  V30 9007 C 857.535 2.10932 -2.10362 0
M  V30 9008 C 857.685 2.8202 -3.34994 0
M  V30 9009 C 857.735 2.15547 -4.52261 0
M  V30 9010 H 860.476 1.93379 -8.46595 0
M  V30 9011 H 860.745 1.68132 -6.70852 0
M  V30 9012 H 859.878 -0.289041 -8.15388 0
M  V30 9013 H 857.223 -0.926847 -5.72749 0
M  V30 9014 H 856.944 1.86973 -6.82036 0
M  V30 9015 H 855.952 0.403896 -7.13257 0
M  V30 9016 H 857.786 1.20585 -8.97435 0
M  V30 9017 H 857.857 2.71231 -5.45042 0
M  V30 9018 P 855.915 -1.17771 -8.83182 0
M  V30 9019 O 855.695 -2.07206 -9.98732 0
M  V30 9020 O 855.125 0.0743816 -8.81969 0
M  V30 9021 O 855.665 -1.97652 -7.47304 0
M  V30 9022 C 856.605 -3.01133 -7.08783 0
M  V30 9023 C 855.875 -4.12613 -6.37049 0
M  V30 9024 O 855.665 -3.72827 -4.97879 0
M  V30 9025 C 854.475 -4.45085 -6.88694 0
M  V30 9026 O 854.085 -5.7877 -6.5624 0
M  V30 9027 C 853.595 -3.47817 -6.12078 0
M  V30 9028 C 854.305 -3.39414 -4.77697 0
M  V30 9029 N 854.255 -2.04615 -4.15333 0
M  V30 9030 H 857.094 -3.41248 -7.98759 0
M  V30 9031 H 857.366 -2.5837 -6.41742 0
M  V30 9032 H 856.498 -5.02657 -6.42673 0
M  V30 9033 P 852.535 -6.144 -6.45285 0
M  V30 9034 O 852.315 -7.54673 -6.86199 0
M  V30 9035 O 851.745 -5.12391 -7.179 0
M  V30 9036 O 852.285 -5.99158 -4.88404 0
M  V30 9037 C 853.225 -6.60234 -3.96415 0
M  V30 9038 C 852.495 -7.08259 -2.72856 0
M  V30 9039 O 852.285 -5.9427 -1.83651 0
M  V30 9040 C 851.095 -7.64886 -2.9555 0
M  V30 9041 O 850.705 -8.53963 -1.90717 0
M  V30 9042 C 850.215 -6.4116 -2.90739 0
M  V30 9043 C 850.925 -5.55375 -1.86963 0
M  V30 9044 N 850.875 -4.09664 -2.15742 0
M  V30 9045 H 853.714 -7.45574 -4.45629 0
M  V30 9046 H 853.986 -5.86232 -3.67314 0
M  V30 9047 H 853.118 -7.84412 -2.24479 0
M  V30 9048 P 849.155 -8.7635 -1.60911 0
M  V30 9049 O 848.935 -10.1388 -1.11561 0
M  V30 9050 O 848.365 -8.36503 -2.79617 0
M  V30 9051 O 848.905 -7.71806 -0.42951 0
M  V30 9052 C 849.845 -7.67148 0.673689 0
M  V30 9053 C 849.115 -7.33374 1.95559 0
M  V30 9054 O 848.905 -5.88721 2.00726 0
M  V30 9055 C 847.715 -7.92526 2.10483 0
M  V30 9056 O 847.325 -8.02971 3.47653 0
M  V30 9057 C 846.835 -6.89602 1.41652 0
M  V30 9058 C 847.545 -5.59201 1.75185 0
M  V30 9059 N 847.495 -4.58235 0.662552 0
M  V30 9060 H 850.334 -8.65116 0.777161 0
M  V30 9061 H 850.606 -6.90173 0.474152 0
M  V30 9062 H 849.738 -7.66548 2.79458 0
M  V30 9063 P 845.775 -8.03563 3.84925 0
M  V30 9064 O 845.555 -8.85821 5.0569 0
M  V30 9065 O 844.985 -8.41101 2.65469 0
M  V30 9066 O 845.525 -6.4965 4.18908 0
M  V30 9067 C 846.465 -5.80886 5.05289 0
M  V30 9068 C 845.735 -4.78366 5.89277 0
M  V30 9069 O 845.525 -3.58302 5.08433 0
M  V30 9070 C 844.335 -5.16748 6.36559 0
M  V30 9071 O 843.945 -4.45271 7.53232 0
M  V30 9072 C 843.455 -4.74572 5.19863 0
M  V30 9073 C 844.165 -3.49373 4.70338 0
M  V30 9074 N 844.115 -3.31704 3.22876 0
M  V30 9075 C 843.965 -2.03326 2.74871 0
M  V30 9076 O 843.875 -1.06486 3.48076 0
M  V30 9077 N 843.925 -1.91838 1.37456 0
M  V30 9078 C 844.015 -2.94295 0.462035 0
M  V30 9079 C 844.165 -4.25064 1.05249 0
M  V30 9080 C 844.215 -4.40214 2.39192 0
M  V30 9081 H 846.956 -6.54063 5.71245 0
M  V30 9082 H 847.225 -5.30339 4.43905 0
M  V30 9083 H 846.358 -4.55889 6.76652 0
M  V30 9084 H 843.703 -2.6167 5.17842 0
M  V30 9085 H 843.424 -5.52155 4.41878 0
M  V30 9086 H 842.432 -4.51918 5.53297 0
M  V30 9087 H 844.266 -6.25055 6.55162 0
M  V30 9088 H 844.337 -5.39798 2.81523 0
M  V30 9089 P 842.395 -4.23843 7.83734 0
M  V30 9090 O 842.175 -4.19407 9.29784 0
M  V30 9091 O 841.605 -5.24426 7.09156 0
M  V30 9092 O 842.145 -2.7935 7.20758 0
M  V30 9093 C 843.085 -1.7299 7.50419 0
M  V30 9094 C 842.355 -0.406376 7.57911 0
M  V30 9095 O 842.145 0.0897726 6.21935 0
M  V30 9096 C 840.955 -0.447224 8.1878 0
M  V30 9097 O 840.565 0.825065 8.71101 0
M  V30 9098 C 840.075 -0.783801 6.99623 0
M  V30 9099 C 840.785 -0.0619192 5.85967 0
M  V30 9100 N 840.735 -0.7859 4.56281 0
M  V30 9101 H 843.574 -1.93423 8.4679 0
M  V30 9102 H 843.846 -1.68181 6.71046 0
M  V30 9103 H 842.978 0.289041 8.15388 0
M  V30 9104 P 839.015 1.17771 8.83182 0
M  V30 9105 O 838.795 2.07206 9.98732 0
M  V30 9106 O 838.225 -0.0743816 8.81969 0
M  V30 9107 O 838.765 1.97652 7.47304 0
M  V30 9108 C 839.705 3.01133 7.08783 0
M  V30 9109 C 838.975 4.12613 6.37049 0
M  V30 9110 O 838.765 3.72827 4.97879 0
M  V30 9111 C 837.575 4.45085 6.88694 0
M  V30 9112 O 837.185 5.7877 6.5624 0
M  V30 9113 C 836.695 3.47817 6.12078 0
M  V30 9114 C 837.405 3.39414 4.77697 0
M  V30 9115 N 837.355 2.04615 4.15333 0
M  V30 9116 H 840.194 3.41248 7.98759 0
M  V30 9117 H 840.466 2.5837 6.41742 0
M  V30 9118 H 839.598 5.02657 6.42673 0
M  V30 9119 P 835.635 6.144 6.45285 0
M  V30 9120 O 835.415 7.54673 6.86199 0
M  V30 9121 O 834.845 5.12391 7.179 0
M  V30 9122 O 835.385 5.99158 4.88404 0
M  V30 9123 C 836.325 6.60062 3.96313 0
M  V30 9124 C 835.595 7.08259 2.72856 0
M  V30 9125 O 835.385 5.9427 1.83651 0
M  V30 9126 C 834.195 7.65087 2.94749 0
M  V30 9127 O 833.805 8.53963 1.90717 0
M  V30 9128 C 833.315 6.41069 2.90698 0
M  V30 9129 C 834.025 5.5528 1.86931 0
M  V30 9130 N 833.975 4.09575 2.15696 0
M  V30 9131 C 833.825 3.24249 1.08435 0
M  V30 9132 O 833.735 3.63946 -0.0628747 0
M  V30 9133 N 833.785 1.90009 1.39973 0
M  V30 9134 C 833.875 1.34884 2.65614 0
M  V30 9135 C 834.025 2.3145 3.71736 0
M  V30 9136 C 834.075 3.63518 3.44754 0
M  V30 9137 H 836.816 7.45402 4.45526 0
M  V30 9138 H 837.085 5.86062 3.67208 0
M  V30 9139 H 836.218 7.84412 2.24479 0
M  V30 9140 H 833.563 5.73358 0.888409 0
M  V30 9141 H 833.284 5.90877 3.88583 0
M  V30 9142 H 832.292 6.65867 2.58821 0
M  V30 9143 H 834.126 8.16248 3.92006 0
M  V30 9144 H 834.197 4.34551 4.26383 0
M  V30 9145 P 832.255 8.7635 1.60911 0
M  V30 9146 O 832.035 10.1388 1.11561 0
M  V30 9147 O 831.465 8.36503 2.79617 0
M  V30 9148 O 832.005 7.71806 0.42951 0
M  V30 9149 C 832.945 7.66948 -0.673514 0
M  V30 9150 C 832.215 7.33374 -1.95559 0
M  V30 9151 O 832.005 5.88721 -2.00726 0
M  V30 9152 C 830.815 7.92218 -2.1125 0
M  V30 9153 O 830.425 8.02971 -3.47653 0
M  V30 9154 C 829.935 6.89504 -1.41631 0
M  V30 9155 C 830.645 5.59106 -1.75155 0
M  V30 9156 N 830.595 4.58136 -0.662409 0
M  V30 9157 C 830.445 3.26059 -1.02863 0
M  V30 9158 O 830.355 2.90743 -2.19009 0
M  V30 9159 N 830.405 2.35995 0.0155585 0
M  V30 9160 C 830.495 2.65248 1.35603 0
M  V30 9161 O 830.445 1.75605 2.20651 0
M  V30 9162 C 830.645 4.05747 1.64698 0
M  V30 9163 C 830.755 4.42345 3.09553 0
M  V30 9164 C 830.695 4.96734 0.652411 0
M  V30 9165 H 833.436 8.64917 -0.776982 0
M  V30 9166 H 833.705 6.89974 -0.474015 0
M  V30 9167 H 832.838 7.66548 -2.79458 0
M  V30 9168 H 830.183 5.16076 -2.65138 0
M  V30 9169 H 829.904 7.06433 -0.329384 0
M  V30 9170 H 828.912 6.90829 -1.81996 0
M  V30 9171 H 830.746 8.90774 -1.62639 0
M  V30 9172 H 830.817 6.02181 0.895285 0
M  V30 9173 H 829.787 4.80252 3.45468 0
M  V30 9174 H 831.524 5.20015 3.22119 0
M  V30 9175 H 831.036 3.53269 3.67833 0
M  V30 9176 H 830.3 1.39558 -0.227499 0
M  V30 9177 P 828.875 8.03563 -3.84925 0
M  V30 9178 O 828.655 8.85821 -5.0569 0
M  V30 9179 O 828.085 8.41101 -2.65469 0
M  V30 9180 O 828.625 6.4965 -4.18908 0
M  V30 9181 C 829.565 5.81037 -5.05421 0
M  V30 9182 C 828.835 4.78366 -5.89277 0
M  V30 9183 O 828.625 3.58302 -5.08433 0
M  V30 9184 C 827.435 5.17448 -6.36119 0
M  V30 9185 O 827.045 4.45271 -7.53232 0
M  V30 9186 C 826.555 4.74639 -5.19936 0
M  V30 9187 C 827.265 3.49432 -4.70418 0
M  V30 9188 N 827.215 3.31776 -3.22945 0
M  V30 9189 H 830.054 6.54213 -5.71376 0
M  V30 9190 H 830.326 5.30492 -4.44033 0
M  V30 9191 H 829.458 4.55889 -6.76652 0
M  V30 9192 P 825.495 4.23843 -7.83734 0
M  V30 9193 O 825.275 4.19407 -9.29784 0
M  V30 9194 O 824.705 5.24426 -7.09156 0
M  V30 9195 O 825.245 2.7935 -7.20758 0
M  V30 9196 C 826.185 1.7299 -7.50419 0
M  V30 9197 C 825.455 0.406376 -7.57911 0
M  V30 9198 O 825.245 -0.0897726 -6.21935 0
M  V30 9199 C 824.055 0.447224 -8.1878 0
M  V30 9200 O 823.665 -0.825065 -8.71101 0
M  V30 9201 C 823.175 0.783801 -6.99623 0
M  V30 9202 C 823.885 0.0619192 -5.85967 0
M  V30 9203 N 823.835 0.7859 -4.56281 0
M  V30 9204 H 826.674 1.93423 -8.4679 0
M  V30 9205 H 826.946 1.68181 -6.71046 0
M  V30 9206 H 826.078 -0.289041 -8.15388 0
M  V30 9207 P 822.115 -1.17771 -8.83182 0
M  V30 9208 O 821.895 -2.07206 -9.98732 0
M  V30 9209 O 821.325 0.0743816 -8.81969 0
M  V30 9210 O 821.865 -1.97652 -7.47304 0
M  V30 9211 C 822.805 -3.01133 -7.08783 0
M  V30 9212 C 822.075 -4.12613 -6.37049 0
M  V30 9213 O 821.865 -3.72827 -4.97879 0
M  V30 9214 C 820.675 -4.45085 -6.88694 0
M  V30 9215 O 820.285 -5.7877 -6.5624 0
M  V30 9216 C 819.795 -3.47817 -6.12078 0
M  V30 9217 C 820.505 -3.39414 -4.77697 0
M  V30 9218 N 820.455 -2.04615 -4.15333 0
M  V30 9219 H 823.294 -3.41248 -7.98759 0
M  V30 9220 H 823.566 -2.5837 -6.41742 0
M  V30 9221 H 822.698 -5.02657 -6.42673 0
M  V30 9222 P 818.735 -6.144 -6.45285 0
M  V30 9223 O 818.515 -7.54673 -6.86199 0
M  V30 9224 O 817.945 -5.12391 -7.179 0
M  V30 9225 O 818.485 -5.99158 -4.88404 0
M  V30 9226 C 819.425 -6.60234 -3.96415 0
M  V30 9227 C 818.695 -7.08259 -2.72856 0
M  V30 9228 O 818.485 -5.9427 -1.83651 0
M  V30 9229 C 817.295 -7.64886 -2.9555 0
M  V30 9230 O 816.905 -8.53963 -1.90717 0
M  V30 9231 C 816.415 -6.4116 -2.90739 0
M  V30 9232 C 817.125 -5.55375 -1.86963 0
M  V30 9233 N 817.075 -4.09664 -2.15742 0
M  V30 9234 H 819.914 -7.45574 -4.45629 0
M  V30 9235 H 820.186 -5.86232 -3.67314 0
M  V30 9236 H 819.318 -7.84412 -2.24479 0
M  V30 9237 P 815.355 -8.7635 -1.60911 0
M  V30 9238 O 815.135 -10.1388 -1.11561 0
M  V30 9239 O 814.565 -8.36503 -2.79617 0
M  V30 9240 O 815.105 -7.71806 -0.42951 0
M  V30 9241 C 816.045 -7.66948 0.673514 0
M  V30 9242 C 815.315 -7.33374 1.95559 0
M  V30 9243 O 815.105 -5.88721 2.00726 0
M  V30 9244 C 813.915 -7.92218 2.1125 0
M  V30 9245 O 813.525 -8.02971 3.47653 0
M  V30 9246 C 813.035 -6.89504 1.41631 0
M  V30 9247 C 813.745 -5.59106 1.75155 0
M  V30 9248 N 813.695 -4.58136 0.662409 0
M  V30 9249 C 813.545 -3.26059 1.02863 0
M  V30 9250 O 813.455 -2.90743 2.19009 0
M  V30 9251 N 813.505 -2.35995 -0.0155585 0
M  V30 9252 C 813.595 -2.65248 -1.35603 0
M  V30 9253 C 813.745 -4.05747 -1.64698 0
M  V30 9254 C 813.795 -4.96734 -0.652411 0
M  V30 9255 H 816.536 -8.64917 0.776982 0
M  V30 9256 H 816.805 -6.89974 0.474015 0
M  V30 9257 H 815.938 -7.66548 2.79458 0
M  V30 9258 H 813.283 -5.16076 2.65138 0
M  V30 9259 H 813.004 -7.06433 0.329384 0
M  V30 9260 H 812.012 -6.90829 1.81996 0
M  V30 9261 H 813.846 -8.90774 1.62639 0
M  V30 9262 H 813.917 -6.02181 -0.895285 0
M  V30 9263 P 811.975 -8.03563 3.84925 0
M  V30 9264 O 811.755 -8.85821 5.0569 0
M  V30 9265 O 811.185 -8.41101 2.65469 0
M  V30 9266 O 811.725 -6.4965 4.18908 0
M  V30 9267 C 812.665 -5.80886 5.05289 0
M  V30 9268 C 811.935 -4.78366 5.89277 0
M  V30 9269 O 811.725 -3.58302 5.08433 0
M  V30 9270 C 810.535 -5.16748 6.36559 0
M  V30 9271 O 810.145 -4.45271 7.53232 0
M  V30 9272 C 809.655 -4.74572 5.19863 0
M  V30 9273 C 810.365 -3.49373 4.70338 0
M  V30 9274 N 810.315 -3.31704 3.22876 0
M  V30 9275 C 810.165 -2.03326 2.74871 0
M  V30 9276 O 810.075 -1.06486 3.48076 0
M  V30 9277 N 810.125 -1.91838 1.37456 0
M  V30 9278 C 810.215 -2.94295 0.462035 0
M  V30 9279 O 810.165 -2.71763 -0.752928 0
M  V30 9280 C 810.365 -4.25064 1.05249 0
M  V30 9281 C 810.475 -5.39815 0.095697 0
M  V30 9282 C 810.415 -4.40214 2.39192 0
M  V30 9283 H 813.156 -6.54063 5.71245 0
M  V30 9284 H 813.425 -5.30339 4.43905 0
M  V30 9285 H 812.558 -4.55889 6.76652 0
M  V30 9286 H 809.903 -2.6167 5.17842 0
M  V30 9287 H 809.624 -5.52155 4.41878 0
M  V30 9288 H 808.632 -4.51918 5.53297 0
M  V30 9289 H 810.466 -6.25055 6.55162 0
M  V30 9290 H 810.537 -5.39798 2.81523 0
M  V30 9291 H 809.507 -5.91593 0.0279582 0
M  V30 9292 H 811.244 -6.10038 0.450573 0
M  V30 9293 H 810.756 -5.02007 -0.89937 0
M  V30 9294 H 810.02 -0.995326 1.00435 0
M  V30 9295 P 808.595 -4.23843 7.83734 0
M  V30 9296 O 808.375 -4.19407 9.29784 0
M  V30 9297 O 807.805 -5.24426 7.09156 0
M  V30 9298 O 808.345 -2.7935 7.20758 0
M  V30 9299 C 809.285 -1.7299 7.50419 0
M  V30 9300 C 808.555 -0.406376 7.57911 0
M  V30 9301 O 808.345 0.0897726 6.21935 0
M  V30 9302 C 807.155 -0.447224 8.1878 0
M  V30 9303 O 806.765 0.825065 8.71101 0
M  V30 9304 C 806.275 -0.783801 6.99623 0
M  V30 9305 C 806.985 -0.0619192 5.85967 0
M  V30 9306 N 806.935 -0.790462 4.56202 0
M  V30 9307 H 809.774 -1.93423 8.4679 0
M  V30 9308 H 810.046 -1.68852 6.70877 0
M  V30 9309 H 809.178 0.289041 8.15388 0
M  V30 9310 H 806.523 0.927006 5.72848 0
M  V30 9311 H 806.243 -1.86973 6.82036 0
M  V30 9312 H 805.252 -0.403953 7.13357 0
M  V30 9313 H 807.086 -1.20599 8.97534 0
M  V30 9314 P 805.215 1.17771 8.83182 0
M  V30 9315 O 804.995 2.07206 9.98732 0
M  V30 9316 O 804.425 -0.0743816 8.81969 0
M  V30 9317 O 804.965 1.97652 7.47304 0
M  V30 9318 C 805.905 3.01133 7.08783 0
M  V30 9319 C 805.175 4.12613 6.37049 0
M  V30 9320 O 804.965 3.72827 4.97879 0
M  V30 9321 C 803.775 4.45085 6.88694 0
M  V30 9322 O 803.385 5.7877 6.5624 0
M  V30 9323 C 802.895 3.47817 6.12078 0
M  V30 9324 C 803.605 3.39414 4.77697 0
M  V30 9325 N 803.555 2.04615 4.15333 0
M  V30 9326 H 806.394 3.41248 7.98759 0
M  V30 9327 H 806.666 2.5837 6.41742 0
M  V30 9328 H 805.798 5.02657 6.42673 0
M  V30 9329 P 801.835 6.144 6.45285 0
M  V30 9330 O 801.615 7.54673 6.86199 0
M  V30 9331 O 801.045 5.12391 7.179 0
M  V30 9332 O 801.585 5.99158 4.88404 0
M  V30 9333 C 802.525 6.60234 3.96415 0
M  V30 9334 C 801.795 7.08259 2.72856 0
M  V30 9335 O 801.585 5.9427 1.83651 0
M  V30 9336 C 800.395 7.64886 2.9555 0
M  V30 9337 O 800.005 8.53963 1.90717 0
M  V30 9338 C 799.515 6.4116 2.90739 0
M  V30 9339 C 800.225 5.55375 1.86963 0
M  V30 9340 N 800.175 4.09664 2.15742 0
M  V30 9341 H 803.014 7.45574 4.45629 0
M  V30 9342 H 803.286 5.86232 3.67314 0
M  V30 9343 H 802.418 7.84412 2.24479 0
M  V30 9344 P 798.455 8.7635 1.60911 0
M  V30 9345 O 798.235 10.1388 1.11561 0
M  V30 9346 O 797.665 8.36503 2.79617 0
M  V30 9347 O 798.205 7.71906 0.429565 0
M  V30 9348 C 799.145 7.67148 -0.673689 0
M  V30 9349 C 798.415 7.33666 -1.94851 0
M  V30 9350 O 798.205 5.88816 -2.00759 0
M  V30 9351 C 797.015 7.92526 -2.10483 0
M  V30 9352 O 796.625 8.03063 -3.47693 0
M  V30 9353 C 796.135 6.89602 -1.41652 0
M  V30 9354 C 796.845 5.59201 -1.75185 0
M  V30 9355 N 796.795 4.58235 -0.662552 0
M  V30 9356 C 796.645 3.24451 -1.01643 0
M  V30 9357 O 796.555 2.94958 -2.21722 0
M  V30 9358 N 796.595 2.30408 0.165238 0
M  V30 9359 C 796.695 2.66048 1.25118 0
M  V30 9360 N 796.645 1.70787 2.16813 0
M  V30 9361 C 796.845 4.02732 1.64413 0
M  V30 9362 C 796.895 4.9488 0.63991 0
M  V30 9363 H 799.635 8.65017 -0.777072 0
M  V30 9364 H 799.905 6.90173 -0.474152 0
M  V30 9365 H 799.038 7.66642 -2.79492 0
M  V30 9366 H 796.383 5.16254 -2.65229 0
M  V30 9367 H 796.103 7.06532 -0.329431 0
M  V30 9368 H 795.112 6.91023 -1.82047 0
M  V30 9369 H 796.946 8.90873 -1.62657 0
M  V30 9370 H 797.018 6.00104 0.892197 0
M  V30 9371 H 796.916 4.31733 2.69229 0
M  V30 9372 H 796.528 0.724835 1.8844 0
M  V30 9373 H 796.724 1.94716 3.16734 0
M  V30 9374 P 795.075 8.03563 -3.84925 0
M  V30 9375 O 794.855 8.85821 -5.0569 0
M  V30 9376 O 794.285 8.41101 -2.65469 0
M  V30 9377 O 794.825 6.4965 -4.18908 0
M  V30 9378 C 795.765 5.80886 -5.05289 0
M  V30 9379 C 795.035 4.78366 -5.89277 0
M  V30 9380 O 794.825 3.58302 -5.08433 0
M  V30 9381 C 793.635 5.16748 -6.36559 0
M  V30 9382 O 793.245 4.45271 -7.53232 0
M  V30 9383 C 792.755 4.74572 -5.19863 0
M  V30 9384 C 793.465 3.49373 -4.70338 0
M  V30 9385 N 793.415 3.31704 -3.22876 0
M  V30 9386 C 793.265 2.03326 -2.74871 0
M  V30 9387 O 793.175 1.06486 -3.48076 0
M  V30 9388 N 793.225 1.91838 -1.37456 0
M  V30 9389 C 793.315 2.94295 -0.462035 0
M  V30 9390 C 793.465 4.25064 -1.05249 0
M  V30 9391 C 793.515 4.40214 -2.39192 0
M  V30 9392 H 796.256 6.54063 -5.71245 0
M  V30 9393 H 796.525 5.30339 -4.43905 0
M  V30 9394 H 795.658 4.55889 -6.76652 0
M  V30 9395 H 793.003 2.6167 -5.17842 0
M  V30 9396 H 792.724 5.52155 -4.41878 0
M  V30 9397 H 791.732 4.51918 -5.53297 0
M  V30 9398 H 793.566 6.25055 -6.55162 0
M  V30 9399 H 793.637 5.39798 -2.81523 0
M  V30 9400 P 791.695 4.23843 -7.83734 0
M  V30 9401 O 791.475 4.19407 -9.29784 0
M  V30 9402 O 790.905 5.24426 -7.09156 0
M  V30 9403 O 791.445 2.79386 -7.20852 0
M  V30 9404 C 792.385 1.7299 -7.50419 0
M  V30 9405 C 791.655 0.41401 -7.5797 0
M  V30 9406 O 791.445 -0.089787 -6.22035 0
M  V30 9407 C 790.255 0.447224 -8.1878 0
M  V30 9408 O 789.865 -0.825159 -8.71201 0
M  V30 9409 C 789.375 0.783801 -6.99623 0
M  V30 9410 C 790.085 0.0619192 -5.85967 0
M  V30 9411 N 790.035 0.7859 -4.56281 0
M  V30 9412 C 789.885 0.0359258 -3.39981 0
M  V30 9413 O 789.795 -1.19723 -3.49038 0
M  V30 9414 N 789.835 0.869151 -2.14025 0
M  V30 9415 C 789.935 2.01207 -2.14363 0
M  V30 9416 N 789.885 2.58978 -0.954287 0
M  V30 9417 C 790.085 2.80817 -3.32215 0
M  V30 9418 C 790.135 2.13785 -4.50884 0
M  V30 9419 H 792.875 1.93401 -8.46693 0
M  V30 9420 H 793.145 1.68181 -6.71046 0
M  V30 9421 H 792.278 -0.289076 -8.15488 0
M  V30 9422 H 789.623 -0.927166 -5.72947 0
M  V30 9423 H 789.343 1.87 -6.82132 0
M  V30 9424 H 788.352 0.404009 -7.13457 0
M  V30 9425 H 790.186 1.20599 -8.97534 0
M  V30 9426 H 790.258 2.70295 -5.43162 0
M  V30 9427 H 790.156 3.89465 -3.27406 0
M  V30 9428 H 789.768 2.01616 -0.107046 0
M  V30 9429 H 789.964 3.61403 -0.873101 0
M  V30 9430 P 788.315 -1.17771 -8.83182 0
M  V30 9431 O 788.095 -2.07206 -9.98732 0
M  V30 9432 O 787.525 0.0743816 -8.81969 0
M  V30 9433 O 788.065 -1.97652 -7.47304 0
M  V30 9434 C 789.005 -3.01133 -7.08783 0
M  V30 9435 C 788.275 -4.12613 -6.37049 0
M  V30 9436 O 788.065 -3.72827 -4.97879 0
M  V30 9437 C 786.875 -4.45085 -6.88694 0
M  V30 9438 O 786.485 -5.7877 -6.5624 0
M  V30 9439 C 785.995 -3.47817 -6.12078 0
M  V30 9440 C 786.705 -3.39414 -4.77697 0
M  V30 9441 N 786.655 -2.04199 -4.15538 0
M  V30 9442 H 789.494 -3.41248 -7.98759 0
M  V30 9443 H 789.766 -2.57728 -6.42 0
M  V30 9444 H 788.898 -5.02657 -6.42673 0
M  V30 9445 H 786.243 -4.11708 -4.08956 0
M  V30 9446 H 785.963 -2.49626 -6.61679 0
M  V30 9447 H 784.972 -3.8662 -6.00862 0
M  V30 9448 H 786.806 -4.29991 -7.97006 0
M  V30 9449 P 784.935 -6.144 -6.45285 0
M  V30 9450 O 784.715 -7.54673 -6.86199 0
M  V30 9451 O 784.145 -5.12391 -7.179 0
M  V30 9452 O 784.685 -5.99158 -4.88404 0
M  V30 9453 C 785.625 -6.60234 -3.96415 0
M  V30 9454 C 784.895 -7.08259 -2.72856 0
M  V30 9455 O 784.685 -5.9427 -1.83651 0
M  V30 9456 C 783.495 -7.64886 -2.9555 0
M  V30 9457 O 783.105 -8.53963 -1.90717 0
M  V30 9458 C 782.615 -6.4116 -2.90739 0
M  V30 9459 C 783.325 -5.55375 -1.86963 0
M  V30 9460 N 783.275 -4.09664 -2.15742 0
M  V30 9461 C 783.355 -3.44381 -3.37233 0
M  V30 9462 N 783.275 -2.14131 -3.28347 0
M  V30 9463 C 783.135 -1.90247 -1.91588 0
M  V30 9464 C 783.005 -0.683992 -1.20892 0
M  V30 9465 N 782.885 -0.903396 0.173998 0
M  V30 9466 C 782.885 -2.14171 0.784879 0
M  V30 9467 N 782.755 -2.1435 2.11317 0
M  V30 9468 N 783.015 -3.28784 0.119316 0
M  V30 9469 C 783.135 -3.0977 -1.22194 0
M  V30 9470 H 786.114 -7.45574 -4.45629 0
M  V30 9471 H 786.386 -5.86232 -3.67314 0
M  V30 9472 H 785.518 -7.84412 -2.24479 0
M  V30 9473 P 781.555 -8.7635 -1.60911 0
M  V30 9474 O 781.335 -10.1388 -1.11561 0
M  V30 9475 O 780.765 -8.36503 -2.79617 0
M  V30 9476 O 781.305 -7.71806 -0.42951 0
M  V30 9477 C 782.245 -7.67148 0.673689 0
M  V30 9478 C 781.515 -7.33374 1.95559 0
M  V30 9479 O 781.305 -5.88721 2.00726 0
M  V30 9480 C 780.115 -7.92526 2.10483 0
M  V30 9481 O 779.725 -8.02971 3.47653 0
M  V30 9482 C 779.235 -6.89602 1.41652 0
M  V30 9483 C 779.945 -5.59201 1.75185 0
M  V30 9484 N 779.895 -4.58301 0.657969 0
M  V30 9485 H 782.734 -8.65116 0.777161 0
M  V30 9486 H 783.006 -6.9022 0.46725 0
M  V30 9487 H 782.138 -7.66548 2.79458 0
M  V30 9488 H 779.483 -5.16165 2.65183 0
M  V30 9489 H 779.203 -7.06433 0.329384 0
M  V30 9490 H 778.212 -6.90926 1.82021 0
M  V30 9491 H 780.046 -8.90873 1.62657 0
M  V30 9492 P 778.175 -8.03563 3.84925 0
M  V30 9493 O 777.955 -8.85821 5.0569 0
M  V30 9494 O 777.385 -8.41101 2.65469 0
M  V30 9495 O 777.925 -6.4965 4.18908 0
M  V30 9496 C 778.865 -5.81037 5.05421 0
M  V30 9497 C 778.135 -4.78366 5.89277 0
M  V30 9498 O 777.925 -3.58302 5.08433 0
M  V30 9499 C 776.735 -5.17448 6.36119 0
M  V30 9500 O 776.345 -4.45271 7.53232 0
M  V30 9501 C 775.855 -4.74639 5.19936 0
M  V30 9502 C 776.565 -3.49432 4.70418 0
M  V30 9503 N 776.515 -3.32099 3.22613 0
M  V30 9504 C 776.595 -4.28245 2.25527 0
M  V30 9505 N 776.525 -3.80823 1.04874 0
M  V30 9506 C 776.375 -2.44571 1.23535 0
M  V30 9507 C 776.245 -1.37068 0.330675 0
M  V30 9508 N 776.235 -1.51472 -0.990824 0
M  V30 9509 N 776.125 -0.138614 0.848756 0
M  V30 9510 C 776.135 0.00675923 2.16999 0
M  V30 9511 N 776.255 -0.904372 3.11122 0
M  V30 9512 C 776.375 -2.12707 2.56212 0
M  V30 9513 H 779.354 -6.54213 5.71376 0
M  V30 9514 H 779.626 -5.30936 4.43503 0
M  V30 9515 H 778.758 -4.55889 6.76652 0
M  V30 9516 H 776.103 -2.61715 5.17932 0
M  V30 9517 H 775.823 -5.52155 4.41878 0
M  V30 9518 H 774.832 -4.51981 5.53374 0
M  V30 9519 H 776.666 -6.25124 6.55234 0
M  V30 9520 H 776.707 -5.34372 2.47488 0
M  V30 9521 H 776.326 -2.45153 -1.4078 0
M  V30 9522 H 776.137 -0.688422 -1.59911 0
M  V30 9523 H 776.029 1.02584 2.52346 0
M  V30 9524 P 774.795 -4.23843 7.83734 0
M  V30 9525 O 774.575 -4.19407 9.29784 0
M  V30 9526 O 774.005 -5.24426 7.09156 0
M  V30 9527 O 774.545 -2.7935 7.20758 0
M  V30 9528 C 775.485 -1.72945 7.50224 0
M  V30 9529 C 774.755 -0.406376 7.57911 0
M  V30 9530 O 774.545 0.0897726 6.21935 0
M  V30 9531 C 773.355 -0.438983 8.18724 0
M  V30 9532 O 772.965 0.825065 8.71101 0
M  V30 9533 C 772.475 -0.783689 6.99524 0
M  V30 9534 C 773.185 -0.0619086 5.85867 0
M  V30 9535 N 773.135 -0.78573 4.56183 0
M  V30 9536 C 772.985 -0.0292889 3.41887 0
M  V30 9537 O 772.895 1.18445 3.4419 0
M  V30 9538 N 772.945 -0.744061 2.23964 0
M  V30 9539 C 773.035 -2.10932 2.10362 0
M  V30 9540 C 773.185 -2.8202 3.34994 0
M  V30 9541 C 773.235 -2.15547 4.52261 0
M  V30 9542 H 775.976 -1.93379 8.46595 0
M  V30 9543 H 776.245 -1.68132 6.70852 0
M  V30 9544 H 775.378 0.289041 8.15388 0
M  V30 9545 H 772.723 0.926847 5.72749 0
M  V30 9546 H 772.444 -1.86973 6.82036 0
M  V30 9547 H 771.452 -0.403896 7.13257 0
M  V30 9548 H 773.286 -1.20585 8.97435 0
M  V30 9549 H 773.357 -2.71231 5.45042 0
M  V30 9550 P 771.415 1.17771 8.83182 0
M  V30 9551 O 771.195 2.07206 9.98732 0
M  V30 9552 O 770.625 -0.0743816 8.81969 0
M  V30 9553 O 771.165 1.97652 7.47304 0
M  V30 9554 C 772.105 3.01133 7.08783 0
M  V30 9555 C 771.375 4.12613 6.37049 0
M  V30 9556 O 771.165 3.72827 4.97879 0
M  V30 9557 C 769.975 4.45085 6.88694 0
M  V30 9558 O 769.585 5.7877 6.5624 0
M  V30 9559 C 769.095 3.47817 6.12078 0
M  V30 9560 C 769.805 3.39414 4.77697 0
M  V30 9561 N 769.755 2.04615 4.15333 0
M  V30 9562 C 769.835 0.803897 4.75249 0
M  V30 9563 N 769.755 -0.197615 3.91502 0
M  V30 9564 C 769.615 0.413002 2.66823 0
M  V30 9565 C 769.485 -0.157221 1.38007 0
M  V30 9566 N 769.365 0.833136 0.390236 0
M  V30 9567 C 769.365 2.19402 0.623885 0
M  V30 9568 N 769.235 2.97622 -0.449677 0
M  V30 9569 N 769.495 2.73005 1.83601 0
M  V30 9570 C 769.615 1.78786 2.80935 0
M  V30 9571 H 772.594 3.41248 7.98759 0
M  V30 9572 H 772.866 2.5837 6.41742 0
M  V30 9573 H 771.998 5.02657 6.42673 0
M  V30 9574 P 768.035 6.144 6.45285 0
M  V30 9575 O 767.815 7.54673 6.86199 0
M  V30 9576 O 767.245 5.12391 7.179 0
M  V30 9577 O 767.785 5.99158 4.88404 0
M  V30 9578 C 768.725 6.60234 3.96415 0
M  V30 9579 C 767.995 7.08259 2.72856 0
M  V30 9580 O 767.785 5.9427 1.83651 0
M  V30 9581 C 766.595 7.64886 2.9555 0
M  V30 9582 O 766.205 8.53963 1.90717 0
M  V30 9583 C 765.715 6.4116 2.90739 0
M  V30 9584 C 766.425 5.55375 1.86963 0
M  V30 9585 N 766.375 4.09664 2.15742 0
M  V30 9586 H 769.214 7.45574 4.45629 0
M  V30 9587 H 769.486 5.86232 3.67314 0
M  V30 9588 H 768.618 7.84412 2.24479 0
M  V30 9589 P 764.656 8.7635 1.60911 0
M  V30 9590 O 764.436 10.1388 1.11561 0
M  V30 9591 O 763.866 8.36503 2.79617 0
M  V30 9592 O 764.406 7.71806 0.42951 0
M  V30 9593 C 765.346 7.66948 -0.673514 0
M  V30 9594 C 764.616 7.33374 -1.95559 0
M  V30 9595 O 764.406 5.88721 -2.00726 0
M  V30 9596 C 763.216 7.92218 -2.1125 0
M  V30 9597 O 762.826 8.02971 -3.47653 0
M  V30 9598 C 762.336 6.89504 -1.41631 0
M  V30 9599 C 763.046 5.59106 -1.75155 0
M  V30 9600 N 762.996 4.58136 -0.662409 0
M  V30 9601 C 762.846 3.26059 -1.02863 0
M  V30 9602 O 762.756 2.90743 -2.19009 0
M  V30 9603 N 762.806 2.35995 0.0155585 0
M  V30 9604 C 762.896 2.65248 1.35603 0
M  V30 9605 O 762.846 1.75605 2.20651 0
M  V30 9606 C 763.046 4.05747 1.64698 0
M  V30 9607 C 763.156 4.42345 3.09553 0
M  V30 9608 C 763.096 4.96734 0.652411 0
M  V30 9609 H 765.837 8.64917 -0.776982 0
M  V30 9610 H 766.106 6.89974 -0.474015 0
M  V30 9611 H 765.239 7.66548 -2.79458 0
M  V30 9612 H 762.584 5.16076 -2.65138 0
M  V30 9613 H 762.305 7.06433 -0.329384 0
M  V30 9614 H 761.313 6.90829 -1.81996 0
M  V30 9615 H 763.147 8.90774 -1.62639 0
M  V30 9616 H 763.218 6.02181 0.895285 0
M  V30 9617 H 762.188 4.80252 3.45468 0
M  V30 9618 H 763.925 5.20015 3.22119 0
M  V30 9619 H 763.437 3.53269 3.67833 0
M  V30 9620 H 762.701 1.39558 -0.227499 0
M  V30 9621 P 761.276 8.03563 -3.84925 0
M  V30 9622 O 761.056 8.85821 -5.0569 0
M  V30 9623 O 760.486 8.41101 -2.65469 0
M  V30 9624 O 761.026 6.4965 -4.18908 0
M  V30 9625 C 761.966 5.81037 -5.05421 0
M  V30 9626 C 761.236 4.78366 -5.89277 0
M  V30 9627 O 761.026 3.58302 -5.08433 0
M  V30 9628 C 759.836 5.17448 -6.36119 0
M  V30 9629 O 759.446 4.45271 -7.53232 0
M  V30 9630 C 758.956 4.74639 -5.19936 0
M  V30 9631 C 759.666 3.49432 -4.70418 0
M  V30 9632 N 759.616 3.32099 -3.22613 0
M  V30 9633 C 759.696 4.28245 -2.25527 0
M  V30 9634 N 759.626 3.80823 -1.04874 0
M  V30 9635 C 759.476 2.44571 -1.23535 0
M  V30 9636 C 759.346 1.37068 -0.330675 0
M  V30 9637 N 759.336 1.51472 0.990824 0
M  V30 9638 N 759.226 0.138614 -0.848756 0
M  V30 9639 C 759.236 -0.00675923 -2.16999 0
M  V30 9640 N 759.356 0.904372 -3.11122 0
M  V30 9641 C 759.476 2.12707 -2.56212 0
M  V30 9642 H 762.455 6.54213 -5.71376 0
M  V30 9643 H 762.727 5.30936 -4.43503 0
M  V30 9644 H 761.859 4.55889 -6.76652 0
M  V30 9645 H 759.204 2.61715 -5.17932 0
M  V30 9646 H 758.924 5.52155 -4.41878 0
M  V30 9647 H 757.933 4.51981 -5.53374 0
M  V30 9648 H 759.767 6.25124 -6.55234 0
M  V30 9649 H 759.808 5.34372 -2.47488 0
M  V30 9650 H 759.427 2.45153 1.4078 0
M  V30 9651 H 759.238 0.688422 1.59911 0
M  V30 9652 H 759.13 -1.02584 -2.52346 0
M  V30 9653 P 757.896 4.23843 -7.83734 0
M  V30 9654 O 757.676 4.19407 -9.29784 0
M  V30 9655 O 757.106 5.24426 -7.09156 0
M  V30 9656 O 757.646 2.7935 -7.20758 0
M  V30 9657 C 758.586 1.72945 -7.50224 0
M  V30 9658 C 757.856 0.406376 -7.57911 0
M  V30 9659 O 757.646 -0.0897726 -6.21935 0
M  V30 9660 C 756.456 0.438983 -8.18724 0
M  V30 9661 O 756.066 -0.825065 -8.71101 0
M  V30 9662 C 755.576 0.783689 -6.99524 0
M  V30 9663 C 756.286 0.0619086 -5.85867 0
M  V30 9664 N 756.236 0.78573 -4.56183 0
M  V30 9665 C 756.086 0.0292889 -3.41887 0
M  V30 9666 O 755.996 -1.18445 -3.4419 0
M  V30 9667 N 756.046 0.744061 -2.23964 0
M  V30 9668 C 756.136 2.10932 -2.10362 0
M  V30 9669 O 756.086 2.64117 -0.98825 0
M  V30 9670 C 756.286 2.8202 -3.34994 0
M  V30 9671 C 756.396 4.31095 -3.25037 0
M  V30 9672 C 756.336 2.15547 -4.52261 0
M  V30 9673 H 759.077 1.93379 -8.46595 0
M  V30 9674 H 759.346 1.68132 -6.70852 0
M  V30 9675 H 758.479 -0.289041 -8.15388 0
M  V30 9676 H 755.824 -0.926847 -5.72749 0
M  V30 9677 H 755.545 1.86973 -6.82036 0
M  V30 9678 H 754.553 0.403896 -7.13257 0
M  V30 9679 H 756.387 1.20585 -8.97435 0
M  V30 9680 H 756.458 2.71231 -5.45042 0
M  V30 9681 H 755.428 4.76966 -3.49992 0
M  V30 9682 H 757.165 4.67047 -3.95024 0
M  V30 9683 H 756.677 4.58996 -2.22312 0
M  V30 9684 H 755.941 0.214893 -1.39758 0
M  V30 9685 P 754.516 -1.17771 -8.83182 0
M  V30 9686 O 754.296 -2.07206 -9.98732 0
M  V30 9687 O 753.726 0.0743816 -8.81969 0
M  V30 9688 O 754.266 -1.97652 -7.47304 0
M  V30 9689 C 755.206 -3.01133 -7.08783 0
M  V30 9690 C 754.476 -4.12613 -6.37049 0
M  V30 9691 O 754.266 -3.72827 -4.97879 0
M  V30 9692 C 753.076 -4.45085 -6.88694 0
M  V30 9693 O 752.686 -5.7877 -6.5624 0
M  V30 9694 C 752.196 -3.47817 -6.12078 0
M  V30 9695 C 752.906 -3.39414 -4.77697 0
M  V30 9696 N 752.856 -2.04199 -4.15538 0
M  V30 9697 H 755.695 -3.41248 -7.98759 0
M  V30 9698 H 755.967 -2.57728 -6.42 0
M  V30 9699 H 755.099 -5.02657 -6.42673 0
M  V30 9700 H 752.444 -4.11708 -4.08956 0
M  V30 9701 H 752.164 -2.49626 -6.61679 0
M  V30 9702 H 751.173 -3.8662 -6.00862 0
M  V30 9703 H 753.007 -4.29991 -7.97006 0
M  V30 9704 P 751.136 -6.144 -6.45285 0
M  V30 9705 O 750.916 -7.54673 -6.86199 0
M  V30 9706 O 750.346 -5.12391 -7.179 0
M  V30 9707 O 750.886 -5.99158 -4.88404 0
M  V30 9708 C 751.826 -6.60234 -3.96415 0
M  V30 9709 C 751.096 -7.08259 -2.72856 0
M  V30 9710 O 750.886 -5.9427 -1.83651 0
M  V30 9711 C 749.696 -7.64886 -2.9555 0
M  V30 9712 O 749.306 -8.53963 -1.90717 0
M  V30 9713 C 748.816 -6.4116 -2.90739 0
M  V30 9714 C 749.526 -5.55375 -1.86963 0
M  V30 9715 N 749.476 -4.09448 -2.16152 0
M  V30 9716 H 752.315 -7.45574 -4.45629 0
M  V30 9717 H 752.587 -5.85864 -3.679 0
M  V30 9718 H 751.719 -7.84412 -2.24479 0
M  V30 9719 H 749.064 -5.73457 -0.888562 0
M  V30 9720 H 748.784 -5.90877 -3.88583 0
M  V30 9721 H 747.793 -6.6596 -2.58858 0
M  V30 9722 H 749.627 -8.16339 -3.92049 0
M  V30 9723 P 747.756 -8.7635 -1.60911 0
M  V30 9724 O 747.536 -10.1388 -1.11561 0
M  V30 9725 O 746.966 -8.36503 -2.79617 0
M  V30 9726 O 747.506 -7.71806 -0.42951 0
M  V30 9727 C 748.446 -7.67148 0.673689 0
M  V30 9728 C 747.716 -7.33374 1.95559 0
M  V30 9729 O 747.506 -5.88721 2.00726 0
M  V30 9730 C 746.316 -7.92526 2.10483 0
M  V30 9731 O 745.926 -8.02971 3.47653 0
M  V30 9732 C 745.436 -6.89602 1.41652 0
M  V30 9733 C 746.146 -5.59201 1.75185 0
M  V30 9734 N 746.096 -4.58235 0.662552 0
M  V30 9735 H 748.935 -8.65116 0.777161 0
M  V30 9736 H 749.207 -6.90173 0.474152 0
M  V30 9737 H 748.339 -7.66548 2.79458 0
M  V30 9738 P 744.376 -8.03563 3.84925 0
M  V30 9739 O 744.156 -8.85821 5.0569 0
M  V30 9740 O 743.586 -8.41101 2.65469 0
M  V30 9741 O 744.126 -6.4965 4.18908 0
M  V30 9742 C 745.066 -5.81037 5.05421 0
M  V30 9743 C 744.336 -4.78366 5.89277 0
M  V30 9744 O 744.126 -3.58302 5.08433 0
M  V30 9745 C 742.936 -5.17448 6.36119 0
M  V30 9746 O 742.546 -4.45271 7.53232 0
M  V30 9747 C 742.056 -4.74639 5.19936 0
M  V30 9748 C 742.766 -3.49432 4.70418 0
M  V30 9749 N 742.716 -3.31776 3.22945 0
M  V30 9750 H 745.555 -6.54213 5.71376 0
M  V30 9751 H 745.827 -5.30492 4.44033 0
M  V30 9752 H 744.959 -4.55889 6.76652 0
M  V30 9753 P 740.996 -4.23843 7.83734 0
M  V30 9754 O 740.776 -4.19407 9.29784 0
M  V30 9755 O 740.206 -5.24426 7.09156 0
M  V30 9756 O 740.746 -2.7935 7.20758 0
M  V30 9757 C 741.686 -1.7299 7.50419 0
M  V30 9758 C 740.956 -0.406376 7.57911 0
M  V30 9759 O 740.746 0.0897726 6.21935 0
M  V30 9760 C 739.556 -0.447224 8.1878 0
M  V30 9761 O 739.166 0.825065 8.71101 0
M  V30 9762 C 738.676 -0.783801 6.99623 0
M  V30 9763 C 739.386 -0.0619192 5.85967 0
M  V30 9764 N 739.336 -0.7859 4.56281 0
M  V30 9765 H 742.175 -1.93423 8.4679 0
M  V30 9766 H 742.447 -1.68181 6.71046 0
M  V30 9767 H 741.579 0.289041 8.15388 0
M  V30 9768 P 737.616 1.17771 8.83182 0
M  V30 9769 O 737.396 2.07206 9.98732 0
M  V30 9770 O 736.826 -0.0743816 8.81969 0
M  V30 9771 O 737.366 1.97652 7.47304 0
M  V30 9772 C 738.306 3.01133 7.08783 0
M  V30 9773 C 737.576 4.12613 6.37049 0
M  V30 9774 O 737.366 3.72827 4.97879 0
M  V30 9775 C 736.176 4.45085 6.88694 0
M  V30 9776 O 735.786 5.7877 6.5624 0
M  V30 9777 C 735.296 3.47817 6.12078 0
M  V30 9778 C 736.006 3.39414 4.77697 0
M  V30 9779 N 735.956 2.04615 4.15333 0
M  V30 9780 H 738.795 3.41248 7.98759 0
M  V30 9781 H 739.067 2.5837 6.41742 0
M  V30 9782 H 738.199 5.02657 6.42673 0
M  V30 9783 P 734.236 6.144 6.45285 0
M  V30 9784 O 734.016 7.54673 6.86199 0
M  V30 9785 O 733.446 5.12391 7.179 0
M  V30 9786 O 733.986 5.99158 4.88404 0
M  V30 9787 C 734.926 6.60062 3.96313 0
M  V30 9788 C 734.196 7.08259 2.72856 0
M  V30 9789 O 733.986 5.9427 1.83651 0
M  V30 9790 C 732.796 7.65087 2.94749 0
M  V30 9791 O 732.406 8.53963 1.90717 0
M  V30 9792 C 731.916 6.41069 2.90698 0
M  V30 9793 C 732.626 5.5528 1.86931 0
M  V30 9794 N 732.576 4.09575 2.15696 0
M  V30 9795 C 732.426 3.24249 1.08435 0
M  V30 9796 O 732.336 3.63946 -0.0628747 0
M  V30 9797 N 732.386 1.90009 1.39973 0
M  V30 9798 C 732.476 1.34884 2.65614 0
M  V30 9799 O 732.426 0.123716 2.81728 0
M  V30 9800 C 732.626 2.3145 3.71736 0
M  V30 9801 C 732.736 1.75913 5.10438 0
M  V30 9802 C 732.676 3.63518 3.44754 0
M  V30 9803 H 735.417 7.45402 4.45526 0
M  V30 9804 H 735.686 5.86062 3.67208 0
M  V30 9805 H 734.819 7.84412 2.24479 0
M  V30 9806 H 732.164 5.73358 0.888409 0
M  V30 9807 H 731.885 5.90877 3.88583 0
M  V30 9808 H 730.893 6.65867 2.58821 0
M  V30 9809 H 732.727 8.16248 3.92006 0
M  V30 9810 H 732.798 4.34551 4.26383 0
M  V30 9811 H 731.768 1.85471 5.61775 0
M  V30 9812 H 733.505 2.31364 5.66257 0
M  V30 9813 H 733.017 0.695936 5.05229 0
M  V30 9814 H 732.281 1.26277 0.63625 0
M  V30 9815 P 730.856 8.7635 1.60911 0
M  V30 9816 O 730.636 10.1388 1.11561 0
M  V30 9817 O 730.066 8.36503 2.79617 0
M  V30 9818 O 730.606 7.71806 0.42951 0
M  V30 9819 C 731.546 7.67148 -0.673689 0
M  V30 9820 C 730.816 7.33374 -1.95559 0
M  V30 9821 O 730.606 5.88721 -2.00726 0
M  V30 9822 C 729.416 7.92526 -2.10483 0
M  V30 9823 O 729.026 8.02971 -3.47653 0
M  V30 9824 C 728.536 6.89602 -1.41652 0
M  V30 9825 C 729.246 5.59201 -1.75185 0
M  V30 9826 N 729.196 4.58235 -0.662552 0
M  V30 9827 C 729.276 4.7683 0.704049 0
M  V30 9828 N 729.196 3.66233 1.39775 0
M  V30 9829 C 729.056 2.66526 0.431739 0
M  V30 9830 C 728.926 1.26394 0.575992 0
M  V30 9831 N 728.806 0.62859 -0.67177 0
M  V30 9832 C 728.806 1.27134 -1.89385 0
M  V30 9833 N 728.676 0.492035 -2.96951 0
M  V30 9834 N 728.936 2.58978 -2.02907 0
M  V30 9835 C 729.056 3.22433 -0.832218 0
M  V30 9836 H 732.035 8.65116 -0.777161 0
M  V30 9837 H 732.307 6.90173 -0.474152 0
M  V30 9838 H 731.439 7.66548 -2.79458 0
M  V30 9839 P 727.476 8.03563 -3.84925 0
M  V30 9840 O 727.256 8.85821 -5.0569 0
M  V30 9841 O 726.686 8.41101 -2.65469 0
M  V30 9842 O 727.226 6.4965 -4.18908 0
M  V30 9843 C 728.166 5.80886 -5.05289 0
M  V30 9844 C 727.436 4.78366 -5.89277 0
M  V30 9845 O 727.226 3.58302 -5.08433 0
M  V30 9846 C 726.036 5.16748 -6.36559 0
M  V30 9847 O 725.646 4.45271 -7.53232 0
M  V30 9848 C 725.156 4.74572 -5.19863 0
M  V30 9849 C 725.866 3.49373 -4.70338 0
M  V30 9850 N 725.816 3.31704 -3.22876 0
M  V30 9851 C 725.666 2.03326 -2.74871 0
M  V30 9852 O 725.576 1.06486 -3.48076 0
M  V30 9853 N 725.626 1.91838 -1.37456 0
M  V30 9854 C 725.716 2.94295 -0.462035 0
M  V30 9855 C 725.866 4.25064 -1.05249 0
M  V30 9856 C 725.916 4.40214 -2.39192 0
M  V30 9857 H 728.657 6.54063 -5.71245 0
M  V30 9858 H 728.926 5.30339 -4.43905 0
M  V30 9859 H 728.059 4.55889 -6.76652 0
M  V30 9860 H 725.404 2.6167 -5.17842 0
M  V30 9861 H 725.125 5.52155 -4.41878 0
M  V30 9862 H 724.133 4.51918 -5.53297 0
M  V30 9863 H 725.967 6.25055 -6.55162 0
M  V30 9864 H 726.038 5.39798 -2.81523 0
M  V30 9865 P 724.096 4.23843 -7.83734 0
M  V30 9866 O 723.876 4.19407 -9.29784 0
M  V30 9867 O 723.306 5.24426 -7.09156 0
M  V30 9868 O 723.846 2.7935 -7.20758 0
M  V30 9869 C 724.786 1.7299 -7.50419 0
M  V30 9870 C 724.056 0.406376 -7.57911 0
M  V30 9871 O 723.846 -0.0897726 -6.21935 0
M  V30 9872 C 722.656 0.447224 -8.1878 0
M  V30 9873 O 722.266 -0.825065 -8.71101 0
M  V30 9874 C 721.776 0.783801 -6.99623 0
M  V30 9875 C 722.486 0.0619192 -5.85967 0
M  V30 9876 N 722.436 0.790462 -4.56202 0
M  V30 9877 H 725.275 1.93423 -8.4679 0
M  V30 9878 H 725.547 1.68852 -6.70877 0
M  V30 9879 H 724.679 -0.289041 -8.15388 0
M  V30 9880 H 722.024 -0.927006 -5.72848 0
M  V30 9881 H 721.744 1.86973 -6.82036 0
M  V30 9882 H 720.753 0.403953 -7.13357 0
M  V30 9883 H 722.587 1.20599 -8.97534 0
M  V30 9884 P 720.716 -1.17771 -8.83182 0
M  V30 9885 O 720.496 -2.07206 -9.98732 0
M  V30 9886 O 719.926 0.0743816 -8.81969 0
M  V30 9887 O 720.466 -1.97652 -7.47304 0
M  V30 9888 C 721.406 -3.01133 -7.08783 0
M  V30 9889 C 720.676 -4.12613 -6.37049 0
M  V30 9890 O 720.466 -3.72827 -4.97879 0
M  V30 9891 C 719.276 -4.45085 -6.88694 0
M  V30 9892 O 718.886 -5.7877 -6.5624 0
M  V30 9893 C 718.396 -3.47817 -6.12078 0
M  V30 9894 C 719.106 -3.39414 -4.77697 0
M  V30 9895 N 719.056 -2.04615 -4.15333 0
M  V30 9896 H 721.895 -3.41248 -7.98759 0
M  V30 9897 H 722.167 -2.5837 -6.41742 0
M  V30 9898 H 721.299 -5.02657 -6.42673 0
M  V30 9899 P 717.336 -6.144 -6.45285 0
M  V30 9900 O 717.116 -7.54673 -6.86199 0
M  V30 9901 O 716.546 -5.12391 -7.179 0
M  V30 9902 O 717.086 -5.99158 -4.88404 0
M  V30 9903 C 718.026 -6.60234 -3.96415 0
M  V30 9904 C 717.296 -7.08259 -2.72856 0
M  V30 9905 O 717.086 -5.9427 -1.83651 0
M  V30 9906 C 715.896 -7.64886 -2.9555 0
M  V30 9907 O 715.506 -8.53963 -1.90717 0
M  V30 9908 C 715.016 -6.4116 -2.90739 0
M  V30 9909 C 715.726 -5.55375 -1.86963 0
M  V30 9910 N 715.676 -4.09664 -2.15742 0
M  V30 9911 H 718.515 -7.45574 -4.45629 0
M  V30 9912 H 718.787 -5.86232 -3.67314 0
M  V30 9913 H 717.919 -7.84412 -2.24479 0
M  V30 9914 P 713.956 -8.7635 -1.60911 0
M  V30 9915 O 713.736 -10.1388 -1.11561 0
M  V30 9916 O 713.166 -8.36503 -2.79617 0
M  V30 9917 O 713.706 -7.71806 -0.42951 0
M  V30 9918 C 714.646 -7.67148 0.673689 0
M  V30 9919 C 713.916 -7.33374 1.95559 0
M  V30 9920 O 713.706 -5.88721 2.00726 0
M  V30 9921 C 712.516 -7.92526 2.10483 0
M  V30 9922 O 712.126 -8.02971 3.47653 0
M  V30 9923 C 711.636 -6.89602 1.41652 0
M  V30 9924 C 712.346 -5.59201 1.75185 0
M  V30 9925 N 712.296 -4.58235 0.662552 0
M  V30 9926 H 715.135 -8.65116 0.777161 0
M  V30 9927 H 715.407 -6.90173 0.474152 0
M  V30 9928 H 714.539 -7.66548 2.79458 0
M  V30 9929 P 710.576 -8.03563 3.84925 0
M  V30 9930 O 710.356 -8.85821 5.0569 0
M  V30 9931 O 709.786 -8.41101 2.65469 0
M  V30 9932 O 710.326 -6.4965 4.18908 0
M  V30 9933 C 711.266 -5.81037 5.05421 0
M  V30 9934 C 710.536 -4.78366 5.89277 0
M  V30 9935 O 710.326 -3.58302 5.08433 0
M  V30 9936 C 709.136 -5.17448 6.36119 0
M  V30 9937 O 708.746 -4.45271 7.53232 0
M  V30 9938 C 708.256 -4.74639 5.19936 0
M  V30 9939 C 708.966 -3.49432 4.70418 0
M  V30 9940 N 708.916 -3.31776 3.22945 0
M  V30 9941 H 711.755 -6.54213 5.71376 0
M  V30 9942 H 712.027 -5.30492 4.44033 0
M  V30 9943 H 711.159 -4.55889 6.76652 0
M  V30 9944 P 707.196 -4.23843 7.83734 0
M  V30 9945 O 706.976 -4.19407 9.29784 0
M  V30 9946 O 706.406 -5.24426 7.09156 0
M  V30 9947 O 706.946 -2.7935 7.20758 0
M  V30 9948 C 707.886 -1.72945 7.50224 0
M  V30 9949 C 707.156 -0.406376 7.57911 0
M  V30 9950 O 706.946 0.0897726 6.21935 0
M  V30 9951 C 705.756 -0.438983 8.18724 0
M  V30 9952 O 705.366 0.825065 8.71101 0
M  V30 9953 C 704.876 -0.783689 6.99524 0
M  V30 9954 C 705.586 -0.0619086 5.85867 0
M  V30 9955 N 705.536 -0.78573 4.56183 0
M  V30 9956 C 705.386 -0.0292889 3.41887 0
M  V30 9957 O 705.296 1.18445 3.4419 0
M  V30 9958 N 705.346 -0.744061 2.23964 0
M  V30 9959 C 705.436 -2.10932 2.10362 0
M  V30 9960 O 705.386 -2.64117 0.98825 0
M  V30 9961 C 705.586 -2.8202 3.34994 0
M  V30 9962 C 705.696 -4.31095 3.25037 0
M  V30 9963 C 705.636 -2.15547 4.52261 0
M  V30 9964 H 708.377 -1.93379 8.46595 0
M  V30 9965 H 708.646 -1.68132 6.70852 0
M  V30 9966 H 707.779 0.289041 8.15388 0
M  V30 9967 H 705.124 0.926847 5.72749 0
M  V30 9968 H 704.845 -1.86973 6.82036 0
M  V30 9969 H 703.853 -0.403896 7.13257 0
M  V30 9970 H 705.687 -1.20585 8.97435 0
M  V30 9971 H 705.758 -2.71231 5.45042 0
M  V30 9972 H 704.728 -4.76966 3.49992 0
M  V30 9973 H 706.465 -4.67047 3.95024 0
M  V30 9974 H 705.977 -4.58996 2.22312 0
M  V30 9975 H 705.241 -0.214893 1.39758 0
M  V30 9976 P 703.816 1.17771 8.83182 0
M  V30 9977 O 703.596 2.07206 9.98732 0
M  V30 9978 O 703.026 -0.0743816 8.81969 0
M  V30 9979 O 703.566 1.97652 7.47304 0
M  V30 9980 C 704.506 3.01133 7.08783 0
M  V30 9981 C 703.776 4.12613 6.37049 0
M  V30 9982 O 703.566 3.72827 4.97879 0
M  V30 9983 C 702.376 4.45085 6.88694 0
M  V30 9984 O 701.986 5.7877 6.5624 0
M  V30 9985 C 701.496 3.47817 6.12078 0
M  V30 9986 C 702.206 3.39414 4.77697 0
M  V30 9987 N 702.156 2.04199 4.15538 0
M  V30 9988 H 704.995 3.41248 7.98759 0
M  V30 9989 H 705.267 2.57728 6.42 0
M  V30 9990 H 704.399 5.02657 6.42673 0
M  V30 9991 H 701.744 4.11708 4.08956 0
M  V30 9992 H 701.464 2.49626 6.61679 0
M  V30 9993 H 700.473 3.8662 6.00862 0
M  V30 9994 H 702.307 4.29991 7.97006 0
M  V30 9995 P 700.436 6.144 6.45285 0
M  V30 9996 O 700.216 7.54673 6.86199 0
M  V30 9997 O 699.646 5.12391 7.179 0
M  V30 9998 O 700.186 5.99158 4.88404 0
M  V30 9999 C 701.126 6.60062 3.96313 0
M  V30 10000 C 700.396 7.08259 2.72856 0
M  V30 10001 O 700.186 5.9427 1.83651 0
M  V30 10002 C 698.996 7.65087 2.94749 0
M  V30 10003 O 698.606 8.53963 1.90717 0
M  V30 10004 C 698.116 6.41069 2.90698 0
M  V30 10005 C 698.826 5.5528 1.86931 0
M  V30 10006 N 698.776 4.09575 2.15696 0
M  V30 10007 C 698.626 3.24249 1.08435 0
M  V30 10008 O 698.536 3.63946 -0.0628747 0
M  V30 10009 N 698.586 1.90009 1.39973 0
M  V30 10010 C 698.676 1.34884 2.65614 0
M  V30 10011 O 698.626 0.123716 2.81728 0
M  V30 10012 C 698.826 2.3145 3.71736 0
M  V30 10013 C 698.936 1.75913 5.10438 0
M  V30 10014 C 698.876 3.63518 3.44754 0
M  V30 10015 H 701.617 7.45402 4.45526 0
M  V30 10016 H 701.886 5.86062 3.67208 0
M  V30 10017 H 701.019 7.84412 2.24479 0
M  V30 10018 H 698.364 5.73358 0.888409 0
M  V30 10019 H 698.085 5.90877 3.88583 0
M  V30 10020 H 697.093 6.65867 2.58821 0
M  V30 10021 H 698.927 8.16248 3.92006 0
M  V30 10022 H 698.998 4.34551 4.26383 0
M  V30 10023 H 697.968 1.85471 5.61775 0
M  V30 10024 H 699.705 2.31364 5.66257 0
M  V30 10025 H 699.217 0.695936 5.05229 0
M  V30 10026 H 698.481 1.26277 0.63625 0
M  V30 10027 P 697.056 8.7635 1.60911 0
M  V30 10028 O 696.836 10.1388 1.11561 0
M  V30 10029 O 696.266 8.36503 2.79617 0
M  V30 10030 O 696.806 7.71806 0.42951 0
M  V30 10031 C 697.746 7.67148 -0.673689 0
M  V30 10032 C 697.016 7.33374 -1.95559 0
M  V30 10033 O 696.806 5.88721 -2.00726 0
M  V30 10034 C 695.616 7.92526 -2.10483 0
M  V30 10035 O 695.226 8.02971 -3.47653 0
M  V30 10036 C 694.736 6.89602 -1.41652 0
M  V30 10037 C 695.446 5.59201 -1.75185 0
M  V30 10038 N 695.396 4.58235 -0.662552 0
M  V30 10039 H 698.235 8.65116 -0.777161 0
M  V30 10040 H 698.507 6.90173 -0.474152 0
M  V30 10041 H 697.639 7.66548 -2.79458 0
M  V30 10042 P 693.676 8.03563 -3.84925 0
M  V30 10043 O 693.456 8.85821 -5.0569 0
M  V30 10044 O 692.886 8.41101 -2.65469 0
M  V30 10045 O 693.426 6.4965 -4.18908 0
M  V30 10046 C 694.366 5.81037 -5.05421 0
M  V30 10047 C 693.636 4.78366 -5.89277 0
M  V30 10048 O 693.426 3.58302 -5.08433 0
M  V30 10049 C 692.236 5.17448 -6.36119 0
M  V30 10050 O 691.846 4.45271 -7.53232 0
M  V30 10051 C 691.356 4.74639 -5.19936 0
M  V30 10052 C 692.066 3.49432 -4.70418 0
M  V30 10053 N 692.016 3.31776 -3.22945 0
M  V30 10054 C 692.096 4.27147 -2.23315 0
M  V30 10055 N 692.016 3.78447 -1.02186 0
M  V30 10056 C 691.876 2.41001 -1.21732 0
M  V30 10057 C 691.746 1.36111 -0.27694 0
M  V30 10058 N 691.626 0.113683 -0.912949 0
M  V30 10059 C 691.626 -0.0846396 -2.27943 0
M  V30 10060 N 691.496 -1.34737 -2.6916 0
M  V30 10061 N 691.756 0.902521 -3.16379 0
M  V30 10062 C 691.876 2.11937 -2.56849 0
M  V30 10063 H 694.855 6.54213 -5.71376 0
M  V30 10064 H 695.127 5.30492 -4.44033 0
M  V30 10065 H 694.259 4.55889 -6.76652 0
M  V30 10066 P 690.296 4.23843 -7.83734 0
M  V30 10067 O 690.076 4.19407 -9.29784 0
M  V30 10068 O 689.506 5.24426 -7.09156 0
M  V30 10069 O 690.046 2.7935 -7.20758 0
M  V30 10070 C 690.986 1.7299 -7.50419 0
M  V30 10071 C 690.256 0.406376 -7.57911 0
M  V30 10072 O 690.046 -0.0897726 -6.21935 0
M  V30 10073 C 688.856 0.447224 -8.1878 0
M  V30 10074 O 688.466 -0.825065 -8.71101 0
M  V30 10075 C 687.976 0.783801 -6.99623 0
M  V30 10076 C 688.686 0.0619192 -5.85967 0
M  V30 10077 N 688.636 0.7859 -4.56281 0
M  V30 10078 H 691.475 1.93423 -8.4679 0
M  V30 10079 H 691.747 1.68181 -6.71046 0
M  V30 10080 H 690.879 -0.289041 -8.15388 0
M  V30 10081 P 686.916 -1.17771 -8.83182 0
M  V30 10082 O 686.696 -2.07206 -9.98732 0
M  V30 10083 O 686.126 0.0743816 -8.81969 0
M  V30 10084 O 686.666 -1.97652 -7.47304 0
M  V30 10085 C 687.606 -3.01133 -7.08783 0
M  V30 10086 C 686.876 -4.12613 -6.37049 0
M  V30 10087 O 686.666 -3.72827 -4.97879 0
M  V30 10088 C 685.476 -4.45085 -6.88694 0
M  V30 10089 O 685.086 -5.7877 -6.5624 0
M  V30 10090 C 684.596 -3.47817 -6.12078 0
M  V30 10091 C 685.306 -3.39414 -4.77697 0
M  V30 10092 N 685.256 -2.04615 -4.15333 0
M  V30 10093 H 688.095 -3.41248 -7.98759 0
M  V30 10094 H 688.367 -2.5837 -6.41742 0
M  V30 10095 H 687.499 -5.02657 -6.42673 0
M  V30 10096 P 683.536 -6.144 -6.45285 0
M  V30 10097 O 683.316 -7.54673 -6.86199 0
M  V30 10098 O 682.746 -5.12391 -7.179 0
M  V30 10099 O 683.286 -5.99158 -4.88404 0
M  V30 10100 C 684.226 -6.60234 -3.96415 0
M  V30 10101 C 683.496 -7.08259 -2.72856 0
M  V30 10102 O 683.286 -5.9427 -1.83651 0
M  V30 10103 C 682.096 -7.64886 -2.9555 0
M  V30 10104 O 681.706 -8.53963 -1.90717 0
M  V30 10105 C 681.216 -6.4116 -2.90739 0
M  V30 10106 C 681.926 -5.55375 -1.86963 0
M  V30 10107 N 681.876 -4.09664 -2.15742 0
M  V30 10108 H 684.715 -7.45574 -4.45629 0
M  V30 10109 H 684.987 -5.86232 -3.67314 0
M  V30 10110 H 684.119 -7.84412 -2.24479 0
M  V30 10111 P 680.156 -8.7635 -1.60911 0
M  V30 10112 O 679.936 -10.1388 -1.11561 0
M  V30 10113 O 679.366 -8.36503 -2.79617 0
M  V30 10114 O 679.906 -7.71806 -0.42951 0
M  V30 10115 C 680.846 -7.67148 0.673689 0
M  V30 10116 C 680.116 -7.33374 1.95559 0
M  V30 10117 O 679.906 -5.88721 2.00726 0
M  V30 10118 C 678.716 -7.92526 2.10483 0
M  V30 10119 O 678.326 -8.02971 3.47653 0
M  V30 10120 C 677.836 -6.89602 1.41652 0
M  V30 10121 C 678.546 -5.59201 1.75185 0
M  V30 10122 N 678.496 -4.58301 0.657969 0
M  V30 10123 C 678.576 -4.79019 -0.692603 0
M  V30 10124 N 678.506 -3.69736 -1.38998 0
M  V30 10125 C 678.356 -2.70474 -0.438135 0
M  V30 10126 C 678.226 -1.30327 -0.538142 0
M  V30 10127 N 678.216 -0.64304 -1.69192 0
M  V30 10128 N 678.106 -0.611027 0.605183 0
M  V30 10129 C 678.116 -1.27002 1.75953 0
M  V30 10130 N 678.236 -2.56038 1.98546 0
M  V30 10131 C 678.356 -3.22681 0.822541 0
M  V30 10132 H 681.335 -8.65116 0.777161 0
M  V30 10133 H 681.607 -6.9022 0.46725 0
M  V30 10134 H 680.739 -7.66548 2.79458 0
M  V30 10135 H 678.084 -5.16165 2.65183 0
M  V30 10136 H 677.804 -7.06433 0.329384 0
M  V30 10137 H 676.813 -6.90926 1.82021 0
M  V30 10138 H 678.647 -8.90873 1.62657 0
M  V30 10139 H 678.688 -5.77785 -1.13874 0
M  V30 10140 H 678.307 -1.15585 -2.57991 0
M  V30 10141 H 678.118 0.382989 -1.69835 0
M  V30 10142 H 678.01 -0.653331 2.64449 0
M  V30 10143 P 676.776 -8.03563 3.84925 0
M  V30 10144 O 676.556 -8.85821 5.0569 0
M  V30 10145 O 675.986 -8.41101 2.65469 0
M  V30 10146 O 676.526 -6.4965 4.18908 0
M  V30 10147 C 677.466 -5.81037 5.05421 0
M  V30 10148 C 676.736 -4.78366 5.89277 0
M  V30 10149 O 676.526 -3.58302 5.08433 0
M  V30 10150 C 675.336 -5.17448 6.36119 0
M  V30 10151 O 674.946 -4.45271 7.53232 0
M  V30 10152 C 674.456 -4.74639 5.19936 0
M  V30 10153 C 675.166 -3.49432 4.70418 0
M  V30 10154 N 675.116 -3.31776 3.22945 0
M  V30 10155 H 677.955 -6.54213 5.71376 0
M  V30 10156 H 678.227 -5.30492 4.44033 0
M  V30 10157 H 677.359 -4.55889 6.76652 0
M  V30 10158 P 673.396 -4.23843 7.83734 0
M  V30 10159 O 673.176 -4.19407 9.29784 0
M  V30 10160 O 672.606 -5.24426 7.09156 0
M  V30 10161 O 673.146 -2.7935 7.20758 0
M  V30 10162 C 674.086 -1.7299 7.50419 0
M  V30 10163 C 673.356 -0.406376 7.57911 0
M  V30 10164 O 673.146 0.0897726 6.21935 0
M  V30 10165 C 671.956 -0.447224 8.1878 0
M  V30 10166 O 671.566 0.825065 8.71101 0
M  V30 10167 C 671.076 -0.783801 6.99623 0
M  V30 10168 C 671.786 -0.0619192 5.85967 0
M  V30 10169 N 671.736 -0.7859 4.56281 0
M  V30 10170 H 674.575 -1.93423 8.4679 0
M  V30 10171 H 674.847 -1.68181 6.71046 0
M  V30 10172 H 673.979 0.289041 8.15388 0
M  V30 10173 P 670.016 1.17771 8.83182 0
M  V30 10174 O 669.796 2.07206 9.98732 0
M  V30 10175 O 669.226 -0.0743816 8.81969 0
M  V30 10176 O 669.766 1.97652 7.47304 0
M  V30 10177 C 670.706 3.01133 7.08783 0
M  V30 10178 C 669.976 4.12613 6.37049 0
M  V30 10179 O 669.766 3.72827 4.97879 0
M  V30 10180 C 668.576 4.45085 6.88694 0
M  V30 10181 O 668.186 5.7877 6.5624 0
M  V30 10182 C 667.696 3.47817 6.12078 0
M  V30 10183 C 668.406 3.39414 4.77697 0
M  V30 10184 N 668.356 2.04199 4.15538 0
M  V30 10185 H 671.195 3.41248 7.98759 0
M  V30 10186 H 671.467 2.57728 6.42 0
M  V30 10187 H 670.599 5.02657 6.42673 0
M  V30 10188 H 667.944 4.11708 4.08956 0
M  V30 10189 H 667.664 2.49626 6.61679 0
M  V30 10190 H 666.673 3.8662 6.00862 0
M  V30 10191 H 668.507 4.29991 7.97006 0
M  V30 10192 P 666.636 6.144 6.45285 0
M  V30 10193 O 666.416 7.54673 6.86199 0
M  V30 10194 O 665.846 5.12391 7.179 0
M  V30 10195 O 666.386 5.99158 4.88404 0
M  V30 10196 C 667.326 6.60234 3.96415 0
M  V30 10197 C 666.596 7.08259 2.72856 0
M  V30 10198 O 666.386 5.9427 1.83651 0
M  V30 10199 C 665.196 7.64886 2.9555 0
M  V30 10200 O 664.806 8.53963 1.90717 0
M  V30 10201 C 664.316 6.4116 2.90739 0
M  V30 10202 C 665.026 5.55375 1.86963 0
M  V30 10203 N 664.976 4.09448 2.16152 0
M  V30 10204 C 665.056 3.46824 3.37593 0
M  V30 10205 N 664.986 2.17422 3.29777 0
M  V30 10206 C 664.836 1.93065 1.94427 0
M  V30 10207 C 664.706 0.738053 1.20141 0
M  V30 10208 N 664.696 -0.474256 1.74676 0
M  V30 10209 N 664.586 0.850049 -0.13045 0
M  V30 10210 C 664.596 2.06169 -0.676992 0
M  V30 10211 N 664.716 3.23842 -0.101312 0
M  V30 10212 C 664.836 3.09402 1.23122 0
M  V30 10213 H 667.815 7.45574 4.45629 0
M  V30 10214 H 668.087 5.85864 3.679 0
M  V30 10215 H 667.219 7.84412 2.24479 0
M  V30 10216 H 664.564 5.73457 0.888562 0
M  V30 10217 H 664.284 5.90877 3.88583 0
M  V30 10218 H 663.293 6.6596 2.58858 0
M  V30 10219 H 665.127 8.16339 3.92049 0
M  V30 10220 H 665.168 4.00505 4.3174 0
M  V30 10221 H 664.787 -0.581337 2.76658 0
M  V30 10222 H 664.598 -1.30811 1.14888 0
M  V30 10223 H 664.49 2.08295 -1.75542 0
M  V30 10224 P 663.256 8.7635 1.60911 0
M  V30 10225 O 663.036 10.1388 1.11561 0
M  V30 10226 O 662.466 8.36503 2.79617 0
M  V30 10227 O 663.006 7.71806 0.42951 0
M  V30 10228 C 663.946 7.67148 -0.673689 0
M  V30 10229 C 663.216 7.33374 -1.95559 0
M  V30 10230 O 663.006 5.88721 -2.00726 0
M  V30 10231 C 661.816 7.92526 -2.10483 0
M  V30 10232 O 661.426 8.02971 -3.47653 0
M  V30 10233 C 660.936 6.89602 -1.41652 0
M  V30 10234 C 661.646 5.59201 -1.75185 0
M  V30 10235 N 661.596 4.58235 -0.662552 0
M  V30 10236 H 664.435 8.65116 -0.777161 0
M  V30 10237 H 664.707 6.90173 -0.474152 0
M  V30 10238 H 663.839 7.66548 -2.79458 0
M  V30 10239 P 659.876 8.03563 -3.84925 0
M  V30 10240 O 659.656 8.85821 -5.0569 0
M  V30 10241 O 659.086 8.41101 -2.65469 0
M  V30 10242 O 659.626 6.4965 -4.18908 0
M  V30 10243 C 660.566 5.81037 -5.05421 0
M  V30 10244 C 659.836 4.78366 -5.89277 0
M  V30 10245 O 659.626 3.58302 -5.08433 0
M  V30 10246 C 658.436 5.17448 -6.36119 0
M  V30 10247 O 658.046 4.45271 -7.53232 0
M  V30 10248 C 657.556 4.74639 -5.19936 0
M  V30 10249 C 658.266 3.49432 -4.70418 0
M  V30 10250 N 658.216 3.31776 -3.22945 0
M  V30 10251 H 661.055 6.54213 -5.71376 0
M  V30 10252 H 661.327 5.30492 -4.44033 0
M  V30 10253 H 660.459 4.55889 -6.76652 0
M  V30 10254 P 656.496 4.23843 -7.83734 0
M  V30 10255 O 656.276 4.19407 -9.29784 0
M  V30 10256 O 655.706 5.24426 -7.09156 0
M  V30 10257 O 656.246 2.7935 -7.20758 0
M  V30 10258 C 657.186 1.72945 -7.50224 0
M  V30 10259 C 656.456 0.406376 -7.57911 0
M  V30 10260 O 656.246 -0.0897726 -6.21935 0
M  V30 10261 C 655.056 0.438983 -8.18724 0
M  V30 10262 O 654.666 -0.825065 -8.71101 0
M  V30 10263 C 654.176 0.783689 -6.99524 0
M  V30 10264 C 654.886 0.0619086 -5.85867 0
M  V30 10265 N 654.836 0.78573 -4.56183 0
M  V30 10266 C 654.686 0.0292889 -3.41887 0
M  V30 10267 O 654.596 -1.18445 -3.4419 0
M  V30 10268 N 654.646 0.744061 -2.23964 0
M  V30 10269 C 654.736 2.10932 -2.10362 0
M  V30 10270 O 654.686 2.64117 -0.98825 0
M  V30 10271 C 654.886 2.8202 -3.34994 0
M  V30 10272 C 654.996 4.31095 -3.25037 0
M  V30 10273 C 654.936 2.15547 -4.52261 0
M  V30 10274 H 657.677 1.93379 -8.46595 0
M  V30 10275 H 657.946 1.68132 -6.70852 0
M  V30 10276 H 657.079 -0.289041 -8.15388 0
M  V30 10277 H 654.424 -0.926847 -5.72749 0
M  V30 10278 H 654.145 1.86973 -6.82036 0
M  V30 10279 H 653.153 0.403896 -7.13257 0
M  V30 10280 H 654.987 1.20585 -8.97435 0
M  V30 10281 H 655.058 2.71231 -5.45042 0
M  V30 10282 H 654.028 4.76966 -3.49992 0
M  V30 10283 H 655.765 4.67047 -3.95024 0
M  V30 10284 H 655.277 4.58996 -2.22312 0
M  V30 10285 H 654.541 0.214893 -1.39758 0
M  V30 10286 P 653.116 -1.17771 -8.83182 0
M  V30 10287 O 652.896 -2.07206 -9.98732 0
M  V30 10288 O 652.326 0.0743816 -8.81969 0
M  V30 10289 O 652.866 -1.97652 -7.47304 0
M  V30 10290 C 653.806 -3.01055 -7.08599 0
M  V30 10291 C 653.076 -4.12613 -6.37049 0
M  V30 10292 O 652.866 -3.72827 -4.97879 0
M  V30 10293 C 651.676 -4.45719 -6.88164 0
M  V30 10294 O 651.286 -5.7877 -6.5624 0
M  V30 10295 C 650.796 -3.47768 -6.11991 0
M  V30 10296 C 651.506 -3.39356 -4.77615 0
M  V30 10297 N 651.456 -2.04571 -4.15244 0
M  V30 10298 C 651.306 -1.98587 -2.78314 0
M  V30 10299 O 651.216 -2.98134 -2.08835 0
M  V30 10300 N 651.266 -0.714467 -2.24925 0
M  V30 10301 C 651.356 0.470001 -2.94169 0
M  V30 10302 C 651.506 0.312541 -4.36783 0
M  V30 10303 C 651.556 -0.914512 -4.92583 0
M  V30 10304 H 654.297 -3.41169 -7.98575 0
M  V30 10305 H 654.566 -2.58295 -6.41556 0
M  V30 10306 H 653.699 -5.02657 -6.42673 0
M  V30 10307 H 651.044 -4.11637 -4.08885 0
M  V30 10308 H 650.765 -2.49626 -6.61679 0
M  V30 10309 H 649.773 -3.86566 -6.00778 0
M  V30 10310 H 651.607 -4.29943 -7.96918 0
M  V30 10311 H 651.678 -1.00937 -6.00374 0
M  V30 10312 P 649.736 -6.144 -6.45285 0
M  V30 10313 O 649.516 -7.54673 -6.86199 0
M  V30 10314 O 648.946 -5.12391 -7.179 0
M  V30 10315 O 649.486 -5.99158 -4.88404 0
M  V30 10316 C 650.426 -6.60062 -3.96313 0
M  V30 10317 C 649.696 -7.08259 -2.72856 0
M  V30 10318 O 649.486 -5.9427 -1.83651 0
M  V30 10319 C 648.296 -7.65087 -2.94749 0
M  V30 10320 O 647.906 -8.53963 -1.90717 0
M  V30 10321 C 647.416 -6.41069 -2.90698 0
M  V30 10322 C 648.126 -5.5528 -1.86931 0
M  V30 10323 N 648.076 -4.09575 -2.15696 0
M  V30 10324 C 647.926 -3.24249 -1.08435 0
M  V30 10325 O 647.836 -3.63946 0.0628747 0
M  V30 10326 N 647.886 -1.90009 -1.39973 0
M  V30 10327 C 647.976 -1.34884 -2.65614 0
M  V30 10328 O 647.926 -0.123716 -2.81728 0
M  V30 10329 C 648.126 -2.3145 -3.71736 0
M  V30 10330 C 648.236 -1.75913 -5.10438 0
M  V30 10331 C 648.176 -3.63518 -3.44754 0
M  V30 10332 H 650.917 -7.45402 -4.45526 0
M  V30 10333 H 651.186 -5.86062 -3.67208 0
M  V30 10334 H 650.319 -7.84412 -2.24479 0
M  V30 10335 H 647.664 -5.73358 -0.888409 0
M  V30 10336 H 647.385 -5.90877 -3.88583 0
M  V30 10337 H 646.393 -6.65867 -2.58821 0
M  V30 10338 H 648.227 -8.16248 -3.92006 0
M  V30 10339 H 648.298 -4.34551 -4.26383 0
M  V30 10340 H 647.268 -1.85471 -5.61775 0
M  V30 10341 H 649.005 -2.31364 -5.66257 0
M  V30 10342 H 648.517 -0.695936 -5.05229 0
M  V30 10343 H 647.781 -1.26277 -0.63625 0
M  V30 10344 P 646.356 -8.7635 -1.60911 0
M  V30 10345 O 646.136 -10.1388 -1.11561 0
M  V30 10346 O 645.566 -8.36503 -2.79617 0
M  V30 10347 O 646.106 -7.71806 -0.42951 0
M  V30 10348 C 647.046 -7.67148 0.673689 0
M  V30 10349 C 646.316 -7.33374 1.95559 0
M  V30 10350 O 646.106 -5.88721 2.00726 0
M  V30 10351 C 644.916 -7.92526 2.10483 0
M  V30 10352 O 644.526 -8.02971 3.47653 0
M  V30 10353 C 644.036 -6.89602 1.41652 0
M  V30 10354 C 644.746 -5.59201 1.75185 0
M  V30 10355 N 644.696 -4.58235 0.662552 0
M  V30 10356 C 644.776 -4.7683 -0.704049 0
M  V30 10357 N 644.696 -3.66233 -1.39775 0
M  V30 10358 C 644.556 -2.66526 -0.431739 0
M  V30 10359 C 644.426 -1.26394 -0.575992 0
M  V30 10360 N 644.306 -0.62859 0.67177 0
M  V30 10361 C 644.306 -1.27134 1.89385 0
M  V30 10362 N 644.176 -0.492035 2.96951 0
M  V30 10363 N 644.436 -2.58978 2.02907 0
M  V30 10364 C 644.556 -3.22433 0.832218 0
M  V30 10365 H 647.535 -8.65116 0.777161 0
M  V30 10366 H 647.807 -6.90173 0.474152 0
M  V30 10367 H 646.939 -7.66548 2.79458 0
M  V30 10368 P 642.976 -8.03563 3.84925 0
M  V30 10369 O 642.756 -8.85821 5.0569 0
M  V30 10370 O 642.186 -8.41101 2.65469 0
M  V30 10371 O 642.726 -6.4965 4.18908 0
M  V30 10372 C 643.666 -5.80886 5.05289 0
M  V30 10373 C 642.936 -4.78366 5.89277 0
M  V30 10374 O 642.726 -3.58302 5.08433 0
M  V30 10375 C 641.536 -5.16748 6.36559 0
M  V30 10376 O 641.146 -4.45271 7.53232 0
M  V30 10377 C 640.656 -4.74572 5.19863 0
M  V30 10378 C 641.366 -3.49373 4.70338 0
M  V30 10379 N 641.316 -3.31704 3.22876 0
M  V30 10380 C 641.166 -2.03326 2.74871 0
M  V30 10381 O 641.076 -1.06486 3.48076 0
M  V30 10382 N 641.126 -1.91838 1.37456 0
M  V30 10383 C 641.216 -2.94295 0.462035 0
M  V30 10384 O 641.166 -2.71763 -0.752928 0
M  V30 10385 C 641.366 -4.25064 1.05249 0
M  V30 10386 C 641.476 -5.39815 0.095697 0
M  V30 10387 C 641.416 -4.40214 2.39192 0
M  V30 10388 H 644.157 -6.54063 5.71245 0
M  V30 10389 H 644.426 -5.30339 4.43905 0
M  V30 10390 H 643.559 -4.55889 6.76652 0
M  V30 10391 H 640.904 -2.6167 5.17842 0
M  V30 10392 H 640.625 -5.52155 4.41878 0
M  V30 10393 H 639.633 -4.51918 5.53297 0
M  V30 10394 H 641.467 -6.25055 6.55162 0
M  V30 10395 H 641.538 -5.39798 2.81523 0
M  V30 10396 H 640.508 -5.91593 0.0279582 0
M  V30 10397 H 642.245 -6.10038 0.450573 0
M  V30 10398 H 641.757 -5.02007 -0.89937 0
M  V30 10399 H 641.021 -0.995326 1.00435 0
M  V30 10400 P 639.596 -4.23843 7.83734 0
M  V30 10401 O 639.376 -4.19407 9.29784 0
M  V30 10402 O 638.806 -5.24426 7.09156 0
M  V30 10403 O 639.346 -2.7935 7.20758 0
M  V30 10404 C 640.286 -1.7299 7.50419 0
M  V30 10405 C 639.556 -0.406376 7.57911 0
M  V30 10406 O 639.346 0.0897726 6.21935 0
M  V30 10407 C 638.156 -0.447224 8.1878 0
M  V30 10408 O 637.766 0.825065 8.71101 0
M  V30 10409 C 637.276 -0.783801 6.99623 0
M  V30 10410 C 637.986 -0.0619192 5.85967 0
M  V30 10411 N 637.936 -0.7859 4.56281 0
M  V30 10412 H 640.775 -1.93423 8.4679 0
M  V30 10413 H 641.047 -1.68181 6.71046 0
M  V30 10414 H 640.179 0.289041 8.15388 0
M  V30 10415 P 636.216 1.17771 8.83182 0
M  V30 10416 O 635.996 2.07206 9.98732 0
M  V30 10417 O 635.426 -0.0743816 8.81969 0
M  V30 10418 O 635.966 1.97652 7.47304 0
M  V30 10419 C 636.906 3.01133 7.08783 0
M  V30 10420 C 636.176 4.12613 6.37049 0
M  V30 10421 O 635.966 3.72827 4.97879 0
M  V30 10422 C 634.776 4.45085 6.88694 0
M  V30 10423 O 634.386 5.7877 6.5624 0
M  V30 10424 C 633.896 3.47817 6.12078 0
M  V30 10425 C 634.606 3.39414 4.77697 0
M  V30 10426 N 634.556 2.04615 4.15333 0
M  V30 10427 H 637.395 3.41248 7.98759 0
M  V30 10428 H 637.667 2.5837 6.41742 0
M  V30 10429 H 636.799 5.02657 6.42673 0
M  V30 10430 P 632.836 6.144 6.45285 0
M  V30 10431 O 632.616 7.54673 6.86199 0
M  V30 10432 O 632.046 5.12391 7.179 0
M  V30 10433 O 632.586 5.99158 4.88404 0
M  V30 10434 C 633.526 6.60234 3.96415 0
M  V30 10435 C 632.796 7.08259 2.72856 0
M  V30 10436 O 632.586 5.9427 1.83651 0
M  V30 10437 C 631.396 7.64886 2.9555 0
M  V30 10438 O 631.006 8.53963 1.90717 0
M  V30 10439 C 630.516 6.4116 2.90739 0
M  V30 10440 C 631.226 5.55375 1.86963 0
M  V30 10441 N 631.176 4.09448 2.16152 0
M  V30 10442 H 634.015 7.45574 4.45629 0
M  V30 10443 H 634.287 5.85864 3.679 0
M  V30 10444 H 633.419 7.84412 2.24479 0
M  V30 10445 H 630.764 5.73457 0.888562 0
M  V30 10446 H 630.484 5.90877 3.88583 0
M  V30 10447 H 629.493 6.6596 2.58858 0
M  V30 10448 H 631.327 8.16339 3.92049 0
M  V30 10449 P 629.456 8.7635 1.60911 0
M  V30 10450 O 629.236 10.1388 1.11561 0
M  V30 10451 O 628.666 8.36503 2.79617 0
M  V30 10452 O 629.206 7.71806 0.42951 0
M  V30 10453 C 630.146 7.67148 -0.673689 0
M  V30 10454 C 629.416 7.33374 -1.95559 0
M  V30 10455 O 629.206 5.88721 -2.00726 0
M  V30 10456 C 628.016 7.92526 -2.10483 0
M  V30 10457 O 627.626 8.02971 -3.47653 0
M  V30 10458 C 627.136 6.89602 -1.41652 0
M  V30 10459 C 627.846 5.59201 -1.75185 0
M  V30 10460 N 627.796 4.58235 -0.662552 0
M  V30 10461 H 630.635 8.65116 -0.777161 0
M  V30 10462 H 630.907 6.90173 -0.474152 0
M  V30 10463 H 630.039 7.66548 -2.79458 0
M  V30 10464 P 626.076 8.03563 -3.84925 0
M  V30 10465 O 625.856 8.85821 -5.0569 0
M  V30 10466 O 625.286 8.41101 -2.65469 0
M  V30 10467 O 625.826 6.4965 -4.18908 0
M  V30 10468 C 626.766 5.81037 -5.05421 0
M  V30 10469 C 626.036 4.78366 -5.89277 0
M  V30 10470 O 625.826 3.58302 -5.08433 0
M  V30 10471 C 624.636 5.17448 -6.36119 0
M  V30 10472 O 624.246 4.45271 -7.53232 0
M  V30 10473 C 623.756 4.74639 -5.19936 0
M  V30 10474 C 624.466 3.49432 -4.70418 0
M  V30 10475 N 624.416 3.31776 -3.22945 0
M  V30 10476 H 627.255 6.54213 -5.71376 0
M  V30 10477 H 627.527 5.30492 -4.44033 0
M  V30 10478 H 626.659 4.55889 -6.76652 0
M  V30 10479 P 622.696 4.23843 -7.83734 0
M  V30 10480 O 622.476 4.19407 -9.29784 0
M  V30 10481 O 621.906 5.24426 -7.09156 0
M  V30 10482 O 622.446 2.7935 -7.20758 0
M  V30 10483 C 623.386 1.7299 -7.50419 0
M  V30 10484 C 622.656 0.406376 -7.57911 0
M  V30 10485 O 622.446 -0.0897726 -6.21935 0
M  V30 10486 C 621.256 0.447224 -8.1878 0
M  V30 10487 O 620.866 -0.825065 -8.71101 0
M  V30 10488 C 620.376 0.783801 -6.99623 0
M  V30 10489 C 621.086 0.0619192 -5.85967 0
M  V30 10490 N 621.036 0.790462 -4.56202 0
M  V30 10491 H 623.875 1.93423 -8.4679 0
M  V30 10492 H 624.147 1.68852 -6.70877 0
M  V30 10493 H 623.279 -0.289041 -8.15388 0
M  V30 10494 H 620.624 -0.927006 -5.72848 0
M  V30 10495 H 620.344 1.86973 -6.82036 0
M  V30 10496 H 619.353 0.403953 -7.13357 0
M  V30 10497 H 621.187 1.20599 -8.97534 0
M  V30 10498 P 619.316 -1.17771 -8.83182 0
M  V30 10499 O 619.096 -2.07206 -9.98732 0
M  V30 10500 O 618.526 0.0743816 -8.81969 0
M  V30 10501 O 619.066 -1.97652 -7.47304 0
M  V30 10502 C 620.006 -3.01133 -7.08783 0
M  V30 10503 C 619.276 -4.12613 -6.37049 0
M  V30 10504 O 619.066 -3.72827 -4.97879 0
M  V30 10505 C 617.876 -4.45085 -6.88694 0
M  V30 10506 O 617.486 -5.7877 -6.5624 0
M  V30 10507 C 616.996 -3.47817 -6.12078 0
M  V30 10508 C 617.706 -3.39414 -4.77697 0
M  V30 10509 N 617.656 -2.04199 -4.15538 0
M  V30 10510 H 620.495 -3.41248 -7.98759 0
M  V30 10511 H 620.767 -2.57728 -6.42 0
M  V30 10512 H 619.899 -5.02657 -6.42673 0
M  V30 10513 H 617.244 -4.11708 -4.08956 0
M  V30 10514 H 616.964 -2.49626 -6.61679 0
M  V30 10515 H 615.973 -3.8662 -6.00862 0
M  V30 10516 H 617.807 -4.29991 -7.97006 0
M  V30 10517 P 615.936 -6.144 -6.45285 0
M  V30 10518 O 615.716 -7.54673 -6.86199 0
M  V30 10519 O 615.146 -5.12391 -7.179 0
M  V30 10520 O 615.686 -5.99236 -4.88467 0
M  V30 10521 C 616.626 -6.60234 -3.96415 0
M  V30 10522 C 615.896 -7.08079 -2.736 0
M  V30 10523 O 615.686 -5.94365 -1.8368 0
M  V30 10524 C 614.496 -7.64886 -2.9555 0
M  V30 10525 O 614.106 -8.5406 -1.90739 0
M  V30 10526 C 613.616 -6.4116 -2.90739 0
M  V30 10527 C 614.326 -5.55375 -1.86963 0
M  V30 10528 N 614.276 -4.09664 -2.15742 0
M  V30 10529 C 614.126 -3.22231 -1.08477 0
M  V30 10530 O 614.036 -3.68951 0.0600489 0
M  V30 10531 N 614.076 -1.76692 -1.48799 0
M  V30 10532 C 614.176 -1.41695 -2.57602 0
M  V30 10533 N 614.126 -0.107296 -2.75791 0
M  V30 10534 C 614.326 -2.29178 -3.69733 0
M  V30 10535 C 614.376 -3.62753 -3.42653 0
M  V30 10536 H 617.116 -7.45488 -4.45578 0
M  V30 10537 H 617.386 -5.86232 -3.67314 0
M  V30 10538 H 616.519 -7.84508 -2.24507 0
M  V30 10539 H 613.864 -5.73556 -0.888715 0
M  V30 10540 H 613.584 -5.9096 -3.88638 0
M  V30 10541 H 612.593 -6.66053 -2.58894 0
M  V30 10542 H 614.427 -8.16339 -3.92049 0
M  V30 10543 H 614.499 -4.33052 -4.24913 0
M  V30 10544 H 614.397 -1.9103 -4.71577 0
M  V30 10545 H 614.009 0.521221 -1.95056 0
M  V30 10546 H 614.205 0.286429 -3.70695 0
M  V30 10547 P 612.556 -8.7635 -1.60911 0
M  V30 10548 O 612.336 -10.1388 -1.11561 0
M  V30 10549 O 611.766 -8.36503 -2.79617 0
M  V30 10550 O 612.306 -7.71806 -0.42951 0
M  V30 10551 C 613.246 -7.67148 0.673689 0
M  V30 10552 C 612.516 -7.33374 1.95559 0
M  V30 10553 O 612.306 -5.88721 2.00726 0
M  V30 10554 C 611.116 -7.92526 2.10483 0
M  V30 10555 O 610.726 -8.02971 3.47653 0
M  V30 10556 C 610.236 -6.89602 1.41652 0
M  V30 10557 C 610.946 -5.59201 1.75185 0
M  V30 10558 N 610.896 -4.58301 0.657969 0
M  V30 10559 H 613.735 -8.65116 0.777161 0
M  V30 10560 H 614.007 -6.9022 0.46725 0
M  V30 10561 H 613.139 -7.66548 2.79458 0
M  V30 10562 H 610.484 -5.16165 2.65183 0
M  V30 10563 H 610.204 -7.06433 0.329384 0
M  V30 10564 H 609.213 -6.90926 1.82021 0
M  V30 10565 H 611.047 -8.90873 1.62657 0
M  V30 10566 P 609.176 -8.03563 3.84925 0
M  V30 10567 O 608.956 -8.85821 5.0569 0
M  V30 10568 O 608.386 -8.41101 2.65469 0
M  V30 10569 O 608.926 -6.4965 4.18908 0
M  V30 10570 C 609.866 -5.81037 5.05421 0
M  V30 10571 C 609.136 -4.78366 5.89277 0
M  V30 10572 O 608.926 -3.58302 5.08433 0
M  V30 10573 C 607.736 -5.17448 6.36119 0
M  V30 10574 O 607.346 -4.45271 7.53232 0
M  V30 10575 C 606.856 -4.74639 5.19936 0
M  V30 10576 C 607.566 -3.49432 4.70418 0
M  V30 10577 N 607.516 -3.31776 3.22945 0
M  V30 10578 H 610.355 -6.54213 5.71376 0
M  V30 10579 H 610.627 -5.30492 4.44033 0
M  V30 10580 H 609.759 -4.55889 6.76652 0
M  V30 10581 P 605.796 -4.23843 7.83734 0
M  V30 10582 O 605.576 -4.19407 9.29784 0
M  V30 10583 O 605.006 -5.24426 7.09156 0
M  V30 10584 O 605.546 -2.79386 7.20852 0
M  V30 10585 C 606.486 -1.7299 7.50419 0
M  V30 10586 C 605.756 -0.41401 7.5797 0
M  V30 10587 O 605.546 0.089787 6.22035 0
M  V30 10588 C 604.356 -0.447224 8.1878 0
M  V30 10589 O 603.966 0.825159 8.71201 0
M  V30 10590 C 603.476 -0.783801 6.99623 0
M  V30 10591 C 604.186 -0.0619192 5.85967 0
M  V30 10592 N 604.136 -0.7859 4.56281 0
M  V30 10593 C 603.986 -0.0359258 3.39981 0
M  V30 10594 O 603.896 1.19723 3.49038 0
M  V30 10595 N 603.936 -0.869151 2.14025 0
M  V30 10596 C 604.036 -2.01207 2.14363 0
M  V30 10597 N 603.986 -2.58978 0.954287 0
M  V30 10598 C 604.186 -2.80817 3.32215 0
M  V30 10599 C 604.236 -2.13785 4.50884 0
M  V30 10600 H 606.976 -1.93401 8.46693 0
M  V30 10601 H 607.246 -1.68181 6.71046 0
M  V30 10602 H 606.379 0.289076 8.15488 0
M  V30 10603 H 603.724 0.927166 5.72947 0
M  V30 10604 H 603.444 -1.87 6.82132 0
M  V30 10605 H 602.453 -0.404009 7.13457 0
M  V30 10606 H 604.287 -1.20599 8.97534 0
M  V30 10607 H 604.359 -2.70295 5.43162 0
M  V30 10608 H 604.257 -3.89465 3.27406 0
M  V30 10609 H 603.869 -2.01616 0.107046 0
M  V30 10610 H 604.065 -3.61403 0.873101 0
M  V30 10611 P 602.416 1.17771 8.83182 0
M  V30 10612 O 602.196 2.07206 9.98732 0
M  V30 10613 O 601.626 -0.0743816 8.81969 0
M  V30 10614 O 602.166 1.97652 7.47304 0
M  V30 10615 C 603.106 3.01133 7.08783 0
M  V30 10616 C 602.376 4.12613 6.37049 0
M  V30 10617 O 602.166 3.72827 4.97879 0
M  V30 10618 C 600.976 4.45085 6.88694 0
M  V30 10619 O 600.586 5.7877 6.5624 0
M  V30 10620 C 600.096 3.47817 6.12078 0
M  V30 10621 C 600.806 3.39414 4.77697 0
M  V30 10622 N 600.756 2.04615 4.15333 0
M  V30 10623 C 600.836 0.803897 4.75249 0
M  V30 10624 N 600.756 -0.197615 3.91502 0
M  V30 10625 C 600.616 0.413002 2.66823 0
M  V30 10626 C 600.486 -0.157221 1.38007 0
M  V30 10627 N 600.366 0.833136 0.390236 0
M  V30 10628 C 600.366 2.19402 0.623885 0
M  V30 10629 N 600.236 2.97622 -0.449677 0
M  V30 10630 N 600.496 2.73005 1.83601 0
M  V30 10631 C 600.616 1.78786 2.80935 0
M  V30 10632 H 603.595 3.41248 7.98759 0
M  V30 10633 H 603.867 2.5837 6.41742 0
M  V30 10634 H 602.999 5.02657 6.42673 0
M  V30 10635 P 599.036 6.144 6.45285 0
M  V30 10636 O 598.816 7.54673 6.86199 0
M  V30 10637 O 598.246 5.12391 7.179 0
M  V30 10638 O 598.786 5.99158 4.88404 0
M  V30 10639 C 599.726 6.60062 3.96313 0
M  V30 10640 C 598.996 7.08259 2.72856 0
M  V30 10641 O 598.786 5.9427 1.83651 0
M  V30 10642 C 597.596 7.65087 2.94749 0
M  V30 10643 O 597.206 8.53963 1.90717 0
M  V30 10644 C 596.716 6.41069 2.90698 0
M  V30 10645 C 597.426 5.5528 1.86931 0
M  V30 10646 N 597.376 4.09575 2.15696 0
M  V30 10647 C 597.226 3.24249 1.08435 0
M  V30 10648 O 597.136 3.63946 -0.0628747 0
M  V30 10649 N 597.186 1.90009 1.39973 0
M  V30 10650 C 597.276 1.34884 2.65614 0
M  V30 10651 C 597.426 2.3145 3.71736 0
M  V30 10652 C 597.476 3.63518 3.44754 0
M  V30 10653 H 600.217 7.45402 4.45526 0
M  V30 10654 H 600.486 5.86062 3.67208 0
M  V30 10655 H 599.619 7.84412 2.24479 0
M  V30 10656 H 596.964 5.73358 0.888409 0
M  V30 10657 H 596.685 5.90877 3.88583 0
M  V30 10658 H 595.693 6.65867 2.58821 0
M  V30 10659 H 597.527 8.16248 3.92006 0
M  V30 10660 H 597.598 4.34551 4.26383 0
M  V30 10661 P 595.656 8.7635 1.60911 0
M  V30 10662 O 595.437 10.1388 1.11561 0
M  V30 10663 O 594.866 8.36503 2.79617 0
M  V30 10664 O 595.406 7.71806 0.42951 0
M  V30 10665 C 596.346 7.67148 -0.673689 0
M  V30 10666 C 595.616 7.33374 -1.95559 0
M  V30 10667 O 595.406 5.88721 -2.00726 0
M  V30 10668 C 594.216 7.92526 -2.10483 0
M  V30 10669 O 593.827 8.02971 -3.47653 0
M  V30 10670 C 593.337 6.89602 -1.41652 0
M  V30 10671 C 594.046 5.59201 -1.75185 0
M  V30 10672 N 593.996 4.58235 -0.662552 0
M  V30 10673 H 596.836 8.65116 -0.777161 0
M  V30 10674 H 597.107 6.90173 -0.474152 0
M  V30 10675 H 596.24 7.66548 -2.79458 0
M  V30 10676 P 592.277 8.03563 -3.84925 0
M  V30 10677 O 592.057 8.85821 -5.0569 0
M  V30 10678 O 591.487 8.41101 -2.65469 0
M  V30 10679 O 592.027 6.4965 -4.18908 0
M  V30 10680 C 592.967 5.80886 -5.05289 0
M  V30 10681 C 592.237 4.78366 -5.89277 0
M  V30 10682 O 592.027 3.58302 -5.08433 0
M  V30 10683 C 590.837 5.16748 -6.36559 0
M  V30 10684 O 590.447 4.45271 -7.53232 0
M  V30 10685 C 589.957 4.74572 -5.19863 0
M  V30 10686 C 590.667 3.49373 -4.70338 0
M  V30 10687 N 590.617 3.31704 -3.22876 0
M  V30 10688 C 590.467 2.03326 -2.74871 0
M  V30 10689 O 590.377 1.06486 -3.48076 0
M  V30 10690 N 590.427 1.91838 -1.37456 0
M  V30 10691 C 590.517 2.94295 -0.462035 0
M  V30 10692 O 590.467 2.71763 0.752928 0
M  V30 10693 C 590.667 4.25064 -1.05249 0
M  V30 10694 C 590.777 5.39815 -0.095697 0
M  V30 10695 C 590.717 4.40214 -2.39192 0
M  V30 10696 H 593.458 6.54063 -5.71245 0
M  V30 10697 H 593.727 5.30339 -4.43905 0
M  V30 10698 H 592.86 4.55889 -6.76652 0
M  V30 10699 H 590.205 2.6167 -5.17842 0
M  V30 10700 H 589.926 5.52155 -4.41878 0
M  V30 10701 H 588.934 4.51918 -5.53297 0
M  V30 10702 H 590.768 6.25055 -6.55162 0
M  V30 10703 H 590.839 5.39798 -2.81523 0
M  V30 10704 H 589.809 5.91593 -0.0279582 0
M  V30 10705 H 591.546 6.10038 -0.450573 0
M  V30 10706 H 591.058 5.02007 0.89937 0
M  V30 10707 H 590.322 0.995326 -1.00435 0
M  V30 10708 P 588.897 4.23843 -7.83734 0
M  V30 10709 O 588.677 4.19407 -9.29784 0
M  V30 10710 O 588.107 5.24426 -7.09156 0
M  V30 10711 O 588.647 2.7935 -7.20758 0
M  V30 10712 C 589.587 1.7299 -7.50419 0
M  V30 10713 C 588.857 0.406376 -7.57911 0
M  V30 10714 O 588.647 -0.0897726 -6.21935 0
M  V30 10715 C 587.457 0.447224 -8.1878 0
M  V30 10716 O 587.067 -0.825065 -8.71101 0
M  V30 10717 C 586.577 0.783801 -6.99623 0
M  V30 10718 C 587.287 0.0619192 -5.85967 0
M  V30 10719 N 587.237 0.7859 -4.56281 0
M  V30 10720 H 590.076 1.93423 -8.4679 0
M  V30 10721 H 590.348 1.68181 -6.71046 0
M  V30 10722 H 589.48 -0.289041 -8.15388 0
M  V30 10723 P 585.517 -1.17771 -8.83182 0
M  V30 10724 O 585.297 -2.07206 -9.98732 0
M  V30 10725 O 584.727 0.0743816 -8.81969 0
M  V30 10726 O 585.267 -1.97652 -7.47304 0
M  V30 10727 C 586.207 -3.01055 -7.08599 0
M  V30 10728 C 585.477 -4.12613 -6.37049 0
M  V30 10729 O 585.267 -3.72827 -4.97879 0
M  V30 10730 C 584.077 -4.45719 -6.88164 0
M  V30 10731 O 583.687 -5.7877 -6.5624 0
M  V30 10732 C 583.197 -3.47768 -6.11991 0
M  V30 10733 C 583.907 -3.39356 -4.77615 0
M  V30 10734 N 583.857 -2.04571 -4.15244 0
M  V30 10735 C 583.707 -1.98587 -2.78314 0
M  V30 10736 O 583.617 -2.98134 -2.08835 0
M  V30 10737 N 583.667 -0.714467 -2.24925 0
M  V30 10738 C 583.757 0.470001 -2.94169 0
M  V30 10739 O 583.707 1.55587 -2.35195 0
M  V30 10740 C 583.907 0.312541 -4.36783 0
M  V30 10741 C 584.017 1.57711 -5.16352 0
M  V30 10742 C 583.957 -0.914512 -4.92583 0
M  V30 10743 H 586.698 -3.41169 -7.98575 0
M  V30 10744 H 586.967 -2.58295 -6.41556 0
M  V30 10745 H 586.1 -5.02657 -6.42673 0
M  V30 10746 H 583.445 -4.11637 -4.08885 0
M  V30 10747 H 583.166 -2.49626 -6.61679 0
M  V30 10748 H 582.174 -3.86566 -6.00778 0
M  V30 10749 H 584.008 -4.29943 -7.96918 0
M  V30 10750 H 584.079 -1.00937 -6.00374 0
M  V30 10751 H 583.049 1.80153 -5.63503 0
M  V30 10752 H 584.786 1.4566 -5.94104 0
M  V30 10753 H 584.298 2.40664 -4.49645 0
M  V30 10754 H 583.562 -0.647622 -1.25697 0
M  V30 10755 P 582.137 -6.144 -6.45285 0
M  V30 10756 O 581.917 -7.54673 -6.86199 0
M  V30 10757 O 581.347 -5.12391 -7.179 0
M  V30 10758 O 581.887 -5.99158 -4.88404 0
M  V30 10759 C 582.827 -6.60234 -3.96415 0
M  V30 10760 C 582.097 -7.08259 -2.72856 0
M  V30 10761 O 581.887 -5.9427 -1.83651 0
M  V30 10762 C 580.697 -7.64886 -2.9555 0
M  V30 10763 O 580.307 -8.53963 -1.90717 0
M  V30 10764 C 579.817 -6.4116 -2.90739 0
M  V30 10765 C 580.527 -5.55375 -1.86963 0
M  V30 10766 N 580.477 -4.09664 -2.15742 0
M  V30 10767 H 583.316 -7.45574 -4.45629 0
M  V30 10768 H 583.588 -5.86232 -3.67314 0
M  V30 10769 H 582.72 -7.84412 -2.24479 0
M  V30 10770 P 578.757 -8.7635 -1.60911 0
M  V30 10771 O 578.537 -10.1388 -1.11561 0
M  V30 10772 O 577.967 -8.36503 -2.79617 0
M  V30 10773 O 578.507 -7.71806 -0.42951 0
M  V30 10774 C 579.447 -7.67148 0.673689 0
M  V30 10775 C 578.717 -7.33374 1.95559 0
M  V30 10776 O 578.507 -5.88721 2.00726 0
M  V30 10777 C 577.317 -7.92526 2.10483 0
M  V30 10778 O 576.927 -8.02971 3.47653 0
M  V30 10779 C 576.437 -6.89602 1.41652 0
M  V30 10780 C 577.147 -5.59201 1.75185 0
M  V30 10781 N 577.097 -4.58235 0.662552 0
M  V30 10782 H 579.936 -8.65116 0.777161 0
M  V30 10783 H 580.208 -6.90173 0.474152 0
M  V30 10784 H 579.34 -7.66548 2.79458 0
M  V30 10785 P 575.377 -8.03563 3.84925 0
M  V30 10786 O 575.157 -8.85821 5.0569 0
M  V30 10787 O 574.587 -8.41101 2.65469 0
M  V30 10788 O 575.127 -6.4965 4.18908 0
M  V30 10789 C 576.067 -5.80886 5.05289 0
M  V30 10790 C 575.337 -4.78366 5.89277 0
M  V30 10791 O 575.127 -3.58302 5.08433 0
M  V30 10792 C 573.937 -5.16748 6.36559 0
M  V30 10793 O 573.547 -4.45271 7.53232 0
M  V30 10794 C 573.057 -4.74572 5.19863 0
M  V30 10795 C 573.767 -3.49373 4.70338 0
M  V30 10796 N 573.717 -3.31704 3.22876 0
M  V30 10797 C 573.567 -2.03326 2.74871 0
M  V30 10798 O 573.477 -1.06486 3.48076 0
M  V30 10799 N 573.527 -1.91838 1.37456 0
M  V30 10800 C 573.617 -2.94295 0.462035 0
M  V30 10801 C 573.767 -4.25064 1.05249 0
M  V30 10802 C 573.817 -4.40214 2.39192 0
M  V30 10803 H 576.558 -6.54063 5.71245 0
M  V30 10804 H 576.827 -5.30339 4.43905 0
M  V30 10805 H 575.96 -4.55889 6.76652 0
M  V30 10806 H 573.305 -2.6167 5.17842 0
M  V30 10807 H 573.026 -5.52155 4.41878 0
M  V30 10808 H 572.034 -4.51918 5.53297 0
M  V30 10809 H 573.868 -6.25055 6.55162 0
M  V30 10810 H 573.939 -5.39798 2.81523 0
M  V30 10811 P 571.997 -4.23843 7.83734 0
M  V30 10812 O 571.777 -4.19407 9.29784 0
M  V30 10813 O 571.207 -5.24426 7.09156 0
M  V30 10814 O 571.747 -2.7935 7.20758 0
M  V30 10815 C 572.687 -1.7299 7.50419 0
M  V30 10816 C 571.957 -0.406376 7.57911 0
M  V30 10817 O 571.747 0.0897726 6.21935 0
M  V30 10818 C 570.557 -0.447224 8.1878 0
M  V30 10819 O 570.167 0.825065 8.71101 0
M  V30 10820 C 569.677 -0.783801 6.99623 0
M  V30 10821 C 570.387 -0.0619192 5.85967 0
M  V30 10822 N 570.337 -0.7859 4.56281 0
M  V30 10823 H 573.176 -1.93423 8.4679 0
M  V30 10824 H 573.448 -1.68181 6.71046 0
M  V30 10825 H 572.58 0.289041 8.15388 0
M  V30 10826 P 568.617 1.17771 8.83182 0
M  V30 10827 O 568.397 2.07206 9.98732 0
M  V30 10828 O 567.827 -0.0743816 8.81969 0
M  V30 10829 O 568.367 1.97652 7.47304 0
M  V30 10830 C 569.307 3.01133 7.08783 0
M  V30 10831 C 568.577 4.12613 6.37049 0
M  V30 10832 O 568.367 3.72827 4.97879 0
M  V30 10833 C 567.177 4.45085 6.88694 0
M  V30 10834 O 566.787 5.7877 6.5624 0
M  V30 10835 C 566.297 3.47817 6.12078 0
M  V30 10836 C 567.007 3.39414 4.77697 0
M  V30 10837 N 566.957 2.04615 4.15333 0
M  V30 10838 H 569.796 3.41248 7.98759 0
M  V30 10839 H 570.068 2.5837 6.41742 0
M  V30 10840 H 569.2 5.02657 6.42673 0
M  V30 10841 P 565.237 6.144 6.45285 0
M  V30 10842 O 565.017 7.54673 6.86199 0
M  V30 10843 O 564.447 5.12391 7.179 0
M  V30 10844 O 564.987 5.99158 4.88404 0
M  V30 10845 C 565.927 6.60062 3.96313 0
M  V30 10846 C 565.197 7.08259 2.72856 0
M  V30 10847 O 564.987 5.9427 1.83651 0
M  V30 10848 C 563.797 7.65087 2.94749 0
M  V30 10849 O 563.407 8.53963 1.90717 0
M  V30 10850 C 562.917 6.41069 2.90698 0
M  V30 10851 C 563.627 5.5528 1.86931 0
M  V30 10852 N 563.577 4.09575 2.15696 0
M  V30 10853 C 563.427 3.24249 1.08435 0
M  V30 10854 O 563.337 3.63946 -0.0628747 0
M  V30 10855 N 563.387 1.90009 1.39973 0
M  V30 10856 C 563.477 1.34884 2.65614 0
M  V30 10857 C 563.627 2.3145 3.71736 0
M  V30 10858 C 563.677 3.63518 3.44754 0
M  V30 10859 H 566.418 7.45402 4.45526 0
M  V30 10860 H 566.687 5.86062 3.67208 0
M  V30 10861 H 565.82 7.84412 2.24479 0
M  V30 10862 H 563.165 5.73358 0.888409 0
M  V30 10863 H 562.886 5.90877 3.88583 0
M  V30 10864 H 561.894 6.65867 2.58821 0
M  V30 10865 H 563.728 8.16248 3.92006 0
M  V30 10866 H 563.799 4.34551 4.26383 0
M  V30 10867 P 561.857 8.7635 1.60911 0
M  V30 10868 O 561.637 10.1388 1.11561 0
M  V30 10869 O 561.067 8.36503 2.79617 0
M  V30 10870 O 561.607 7.71806 0.42951 0
M  V30 10871 C 562.547 7.67148 -0.673689 0
M  V30 10872 C 561.817 7.33374 -1.95559 0
M  V30 10873 O 561.607 5.88721 -2.00726 0
M  V30 10874 C 560.417 7.92526 -2.10483 0
M  V30 10875 O 560.027 8.02971 -3.47653 0
M  V30 10876 C 559.537 6.89602 -1.41652 0
M  V30 10877 C 560.247 5.59201 -1.75185 0
M  V30 10878 N 560.197 4.58235 -0.662552 0
M  V30 10879 H 563.036 8.65116 -0.777161 0
M  V30 10880 H 563.308 6.90173 -0.474152 0
M  V30 10881 H 562.44 7.66548 -2.79458 0
M  V30 10882 P 558.477 8.03563 -3.84925 0
M  V30 10883 O 558.257 8.85821 -5.0569 0
M  V30 10884 O 557.687 8.41101 -2.65469 0
M  V30 10885 O 558.227 6.4965 -4.18908 0
M  V30 10886 C 559.167 5.81037 -5.05421 0
M  V30 10887 C 558.437 4.78366 -5.89277 0
M  V30 10888 O 558.227 3.58302 -5.08433 0
M  V30 10889 C 557.037 5.17448 -6.36119 0
M  V30 10890 O 556.647 4.45271 -7.53232 0
M  V30 10891 C 556.157 4.74639 -5.19936 0
M  V30 10892 C 556.867 3.49432 -4.70418 0
M  V30 10893 N 556.817 3.32099 -3.22613 0
M  V30 10894 C 556.897 4.28245 -2.25527 0
M  V30 10895 N 556.827 3.80823 -1.04874 0
M  V30 10896 C 556.677 2.44571 -1.23535 0
M  V30 10897 C 556.547 1.37068 -0.330675 0
M  V30 10898 N 556.537 1.51472 0.990824 0
M  V30 10899 N 556.427 0.138614 -0.848756 0
M  V30 10900 C 556.437 -0.00675923 -2.16999 0
M  V30 10901 N 556.557 0.904372 -3.11122 0
M  V30 10902 C 556.677 2.12707 -2.56212 0
M  V30 10903 H 559.656 6.54213 -5.71376 0
M  V30 10904 H 559.928 5.30936 -4.43503 0
M  V30 10905 H 559.06 4.55889 -6.76652 0
M  V30 10906 H 556.405 2.61715 -5.17932 0
M  V30 10907 H 556.125 5.52155 -4.41878 0
M  V30 10908 H 555.134 4.51981 -5.53374 0
M  V30 10909 H 556.968 6.25124 -6.55234 0
M  V30 10910 H 557.009 5.34372 -2.47488 0
M  V30 10911 H 556.628 2.45153 1.4078 0
M  V30 10912 H 556.439 0.688422 1.59911 0
M  V30 10913 H 556.331 -1.02584 -2.52346 0
M  V30 10914 P 555.097 4.23843 -7.83734 0
M  V30 10915 O 554.877 4.19407 -9.29784 0
M  V30 10916 O 554.307 5.24426 -7.09156 0
M  V30 10917 O 554.847 2.79386 -7.20852 0
M  V30 10918 C 555.787 1.7299 -7.50419 0
M  V30 10919 C 555.057 0.41401 -7.5797 0
M  V30 10920 O 554.847 -0.089787 -6.22035 0
M  V30 10921 C 553.657 0.447224 -8.1878 0
M  V30 10922 O 553.267 -0.825159 -8.71201 0
M  V30 10923 C 552.777 0.783801 -6.99623 0
M  V30 10924 C 553.487 0.0619192 -5.85967 0
M  V30 10925 N 553.437 0.7859 -4.56281 0
M  V30 10926 C 553.287 0.0359258 -3.39981 0
M  V30 10927 O 553.197 -1.19723 -3.49038 0
M  V30 10928 N 553.237 0.869151 -2.14025 0
M  V30 10929 C 553.337 2.01207 -2.14363 0
M  V30 10930 N 553.287 2.58978 -0.954287 0
M  V30 10931 C 553.487 2.80817 -3.32215 0
M  V30 10932 C 553.537 2.13785 -4.50884 0
M  V30 10933 H 556.277 1.93401 -8.46693 0
M  V30 10934 H 556.547 1.68181 -6.71046 0
M  V30 10935 H 555.68 -0.289076 -8.15488 0
M  V30 10936 H 553.025 -0.927166 -5.72947 0
M  V30 10937 H 552.745 1.87 -6.82132 0
M  V30 10938 H 551.754 0.404009 -7.13457 0
M  V30 10939 H 553.588 1.20599 -8.97534 0
M  V30 10940 H 553.66 2.70295 -5.43162 0
M  V30 10941 H 553.558 3.89465 -3.27406 0
M  V30 10942 H 553.17 2.01616 -0.107046 0
M  V30 10943 H 553.366 3.61403 -0.873101 0
M  V30 10944 P 551.717 -1.17771 -8.83182 0
M  V30 10945 O 551.497 -2.07206 -9.98732 0
M  V30 10946 O 550.927 0.0743816 -8.81969 0
M  V30 10947 O 551.467 -1.97652 -7.47304 0
M  V30 10948 C 552.407 -3.01133 -7.08783 0
M  V30 10949 C 551.677 -4.12613 -6.37049 0
M  V30 10950 O 551.467 -3.72827 -4.97879 0
M  V30 10951 C 550.277 -4.45085 -6.88694 0
M  V30 10952 O 549.887 -5.7877 -6.5624 0
M  V30 10953 C 549.397 -3.47817 -6.12078 0
M  V30 10954 C 550.107 -3.39414 -4.77697 0
M  V30 10955 N 550.057 -2.04615 -4.15333 0
M  V30 10956 H 552.896 -3.41248 -7.98759 0
M  V30 10957 H 553.168 -2.5837 -6.41742 0
M  V30 10958 H 552.3 -5.02657 -6.42673 0
M  V30 10959 P 548.337 -6.144 -6.45285 0
M  V30 10960 O 548.117 -7.54673 -6.86199 0
M  V30 10961 O 547.547 -5.12391 -7.179 0
M  V30 10962 O 548.087 -5.99158 -4.88404 0
M  V30 10963 C 549.027 -6.60234 -3.96415 0
M  V30 10964 C 548.297 -7.08259 -2.72856 0
M  V30 10965 O 548.087 -5.9427 -1.83651 0
M  V30 10966 C 546.897 -7.64886 -2.9555 0
M  V30 10967 O 546.507 -8.53963 -1.90717 0
M  V30 10968 C 546.017 -6.4116 -2.90739 0
M  V30 10969 C 546.727 -5.55375 -1.86963 0
M  V30 10970 N 546.677 -4.09448 -2.16152 0
M  V30 10971 C 546.757 -3.46824 -3.37593 0
M  V30 10972 N 546.687 -2.17422 -3.29777 0
M  V30 10973 C 546.537 -1.93065 -1.94427 0
M  V30 10974 C 546.407 -0.738053 -1.20141 0
M  V30 10975 N 546.397 0.474256 -1.74676 0
M  V30 10976 N 546.287 -0.850049 0.13045 0
M  V30 10977 C 546.297 -2.06169 0.676992 0
M  V30 10978 N 546.417 -3.23842 0.101312 0
M  V30 10979 C 546.537 -3.09402 -1.23122 0
M  V30 10980 H 549.516 -7.45574 -4.45629 0
M  V30 10981 H 549.788 -5.85864 -3.679 0
M  V30 10982 H 548.92 -7.84412 -2.24479 0
M  V30 10983 H 546.265 -5.73457 -0.888562 0
M  V30 10984 H 545.985 -5.90877 -3.88583 0
M  V30 10985 H 544.994 -6.6596 -2.58858 0
M  V30 10986 H 546.828 -8.16339 -3.92049 0
M  V30 10987 H 546.869 -4.00505 -4.3174 0
M  V30 10988 H 546.488 0.581337 -2.76658 0
M  V30 10989 H 546.299 1.30811 -1.14888 0
M  V30 10990 H 546.191 -2.08295 1.75542 0
M  V30 10991 P 544.957 -8.7635 -1.60911 0
M  V30 10992 O 544.737 -10.1388 -1.11561 0
M  V30 10993 O 544.167 -8.36503 -2.79617 0
M  V30 10994 O 544.707 -7.71806 -0.42951 0
M  V30 10995 C 545.647 -7.67148 0.673689 0
M  V30 10996 C 544.917 -7.33374 1.95559 0
M  V30 10997 O 544.707 -5.88721 2.00726 0
M  V30 10998 C 543.517 -7.92526 2.10483 0
M  V30 10999 O 543.127 -8.02971 3.47653 0
M  V30 11000 C 542.637 -6.89602 1.41652 0
M  V30 11001 C 543.347 -5.59201 1.75185 0
M  V30 11002 N 543.297 -4.58301 0.657969 0
M  V30 11003 H 546.136 -8.65116 0.777161 0
M  V30 11004 H 546.408 -6.9022 0.46725 0
M  V30 11005 H 545.54 -7.66548 2.79458 0
M  V30 11006 H 542.885 -5.16165 2.65183 0
M  V30 11007 H 542.605 -7.06433 0.329384 0
M  V30 11008 H 541.614 -6.90926 1.82021 0
M  V30 11009 H 543.448 -8.90873 1.62657 0
M  V30 11010 P 541.577 -8.03563 3.84925 0
M  V30 11011 O 541.357 -8.85821 5.0569 0
M  V30 11012 O 540.787 -8.41101 2.65469 0
M  V30 11013 O 541.327 -6.4965 4.18908 0
M  V30 11014 C 542.267 -5.81037 5.05421 0
M  V30 11015 C 541.537 -4.78366 5.89277 0
M  V30 11016 O 541.327 -3.58302 5.08433 0
M  V30 11017 C 540.137 -5.17448 6.36119 0
M  V30 11018 O 539.747 -4.45271 7.53232 0
M  V30 11019 C 539.257 -4.74639 5.19936 0
M  V30 11020 C 539.967 -3.49432 4.70418 0
M  V30 11021 N 539.917 -3.31776 3.22945 0
M  V30 11022 H 542.756 -6.54213 5.71376 0
M  V30 11023 H 543.028 -5.30492 4.44033 0
M  V30 11024 H 542.16 -4.55889 6.76652 0
M  V30 11025 P 538.197 -4.23843 7.83734 0
M  V30 11026 O 537.977 -4.19407 9.29784 0
M  V30 11027 O 537.407 -5.24426 7.09156 0
M  V30 11028 O 537.947 -2.7935 7.20758 0
M  V30 11029 C 538.887 -1.7299 7.50419 0
M  V30 11030 C 538.157 -0.406376 7.57911 0
M  V30 11031 O 537.947 0.0897726 6.21935 0
M  V30 11032 C 536.757 -0.447224 8.1878 0
M  V30 11033 O 536.367 0.825065 8.71101 0
M  V30 11034 C 535.877 -0.783801 6.99623 0
M  V30 11035 C 536.587 -0.0619192 5.85967 0
M  V30 11036 N 536.537 -0.7859 4.56281 0
M  V30 11037 C 536.617 -2.14308 4.31736 0
M  V30 11038 N 536.537 -2.46106 3.05116 0
M  V30 11039 C 536.397 -1.23422 2.4014 0
M  V30 11040 C 536.267 -0.938381 1.02409 0
M  V30 11041 N 536.147 0.444647 0.805413 0
M  V30 11042 C 536.147 1.40829 1.79435 0
M  V30 11043 N 536.017 2.67213 1.38558 0
M  V30 11044 N 536.277 1.12947 3.09005 0
M  V30 11045 C 536.397 -0.204887 3.32369 0
M  V30 11046 H 539.376 -1.93423 8.4679 0
M  V30 11047 H 539.648 -1.68181 6.71046 0
M  V30 11048 H 538.78 0.289041 8.15388 0
M  V30 11049 P 534.817 1.17771 8.83182 0
M  V30 11050 O 534.597 2.07206 9.98732 0
M  V30 11051 O 534.027 -0.0743816 8.81969 0
M  V30 11052 O 534.567 1.97652 7.47304 0
M  V30 11053 C 535.507 3.01133 7.08783 0
M  V30 11054 C 534.777 4.12613 6.37049 0
M  V30 11055 O 534.567 3.72827 4.97879 0
M  V30 11056 C 533.377 4.45085 6.88694 0
M  V30 11057 O 532.987 5.7877 6.5624 0
M  V30 11058 C 532.497 3.47817 6.12078 0
M  V30 11059 C 533.207 3.39414 4.77697 0
M  V30 11060 N 533.157 2.04615 4.15333 0
M  V30 11061 H 535.996 3.41248 7.98759 0
M  V30 11062 H 536.268 2.5837 6.41742 0
M  V30 11063 H 535.4 5.02657 6.42673 0
M  V30 11064 P 531.437 6.144 6.45285 0
M  V30 11065 O 531.217 7.54673 6.86199 0
M  V30 11066 O 530.647 5.12391 7.179 0
M  V30 11067 O 531.187 5.99158 4.88404 0
M  V30 11068 C 532.127 6.60062 3.96313 0
M  V30 11069 C 531.397 7.08259 2.72856 0
M  V30 11070 O 531.187 5.9427 1.83651 0
M  V30 11071 C 529.997 7.65087 2.94749 0
M  V30 11072 O 529.607 8.53963 1.90717 0
M  V30 11073 C 529.117 6.41069 2.90698 0
M  V30 11074 C 529.827 5.5528 1.86931 0
M  V30 11075 N 529.777 4.09575 2.15696 0
M  V30 11076 C 529.627 3.24249 1.08435 0
M  V30 11077 O 529.537 3.63946 -0.0628747 0
M  V30 11078 N 529.587 1.90009 1.39973 0
M  V30 11079 C 529.677 1.34884 2.65614 0
M  V30 11080 O 529.627 0.123716 2.81728 0
M  V30 11081 C 529.827 2.3145 3.71736 0
M  V30 11082 C 529.937 1.75913 5.10438 0
M  V30 11083 C 529.877 3.63518 3.44754 0
M  V30 11084 H 532.618 7.45402 4.45526 0
M  V30 11085 H 532.887 5.86062 3.67208 0
M  V30 11086 H 532.02 7.84412 2.24479 0
M  V30 11087 H 529.365 5.73358 0.888409 0
M  V30 11088 H 529.086 5.90877 3.88583 0
M  V30 11089 H 528.094 6.65867 2.58821 0
M  V30 11090 H 529.928 8.16248 3.92006 0
M  V30 11091 H 529.999 4.34551 4.26383 0
M  V30 11092 H 528.969 1.85471 5.61775 0
M  V30 11093 H 530.706 2.31364 5.66257 0
M  V30 11094 H 530.218 0.695936 5.05229 0
M  V30 11095 H 529.482 1.26277 0.63625 0
M  V30 11096 P 528.057 8.7635 1.60911 0
M  V30 11097 O 527.837 10.1388 1.11561 0
M  V30 11098 O 527.267 8.36503 2.79617 0
M  V30 11099 O 527.807 7.71806 0.42951 0
M  V30 11100 C 528.747 7.67148 -0.673689 0
M  V30 11101 C 528.017 7.33374 -1.95559 0
M  V30 11102 O 527.807 5.88721 -2.00726 0
M  V30 11103 C 526.617 7.92526 -2.10483 0
M  V30 11104 O 526.227 8.02971 -3.47653 0
M  V30 11105 C 525.737 6.89602 -1.41652 0
M  V30 11106 C 526.447 5.59201 -1.75185 0
M  V30 11107 N 526.397 4.58301 -0.657969 0
M  V30 11108 H 529.236 8.65116 -0.777161 0
M  V30 11109 H 529.508 6.9022 -0.46725 0
M  V30 11110 H 528.64 7.66548 -2.79458 0
M  V30 11111 H 525.985 5.16165 -2.65183 0
M  V30 11112 H 525.705 7.06433 -0.329384 0
M  V30 11113 H 524.714 6.90926 -1.82021 0
M  V30 11114 H 526.548 8.90873 -1.62657 0
M  V30 11115 P 524.677 8.03563 -3.84925 0
M  V30 11116 O 524.457 8.85821 -5.0569 0
M  V30 11117 O 523.887 8.41101 -2.65469 0
M  V30 11118 O 524.427 6.49734 -4.18962 0
M  V30 11119 C 525.367 5.81037 -5.05421 0
M  V30 11120 C 524.637 4.79018 -5.88876 0
M  V30 11121 O 524.427 3.58359 -5.08515 0
M  V30 11122 C 523.237 5.17448 -6.36119 0
M  V30 11123 O 522.847 4.45322 -7.53318 0
M  V30 11124 C 522.357 4.74639 -5.19936 0
M  V30 11125 C 523.067 3.49432 -4.70418 0
M  V30 11126 N 523.017 3.31776 -3.22945 0
M  V30 11127 C 522.867 2.02742 -2.72939 0
M  V30 11128 O 522.777 1.08301 -3.52749 0
M  V30 11129 N 522.817 1.96117 -1.22063 0
M  V30 11130 C 522.917 2.8878 -0.551566 0
M  V30 11131 N 522.867 2.65609 0.750198 0
M  V30 11132 C 523.067 4.22457 -1.03707 0
M  V30 11133 C 523.117 4.37979 -2.39113 0
M  V30 11134 H 525.857 6.54138 -5.7131 0
M  V30 11135 H 526.127 5.30492 -4.44033 0
M  V30 11136 H 525.26 4.55945 -6.76735 0
M  V30 11137 H 522.605 2.6176 -5.18021 0
M  V30 11138 H 522.325 5.52233 -4.41941 0
M  V30 11139 H 521.334 4.52045 -5.53452 0
M  V30 11140 H 523.168 6.25124 -6.55234 0
M  V30 11141 H 523.24 5.37936 -2.80552 0
M  V30 11142 H 523.138 5.07528 -0.359553 0
M  V30 11143 H 522.75 1.69403 1.09847 0
M  V30 11144 H 522.946 3.43701 1.41792 0
M  V30 11145 P 521.297 4.23843 -7.83734 0
M  V30 11146 O 521.077 4.19407 -9.29784 0
M  V30 11147 O 520.507 5.24426 -7.09156 0
M  V30 11148 O 521.047 2.7935 -7.20758 0
M  V30 11149 C 521.987 1.7299 -7.50419 0
M  V30 11150 C 521.257 0.406376 -7.57911 0
M  V30 11151 O 521.047 -0.0897726 -6.21935 0
M  V30 11152 C 519.857 0.447224 -8.1878 0
M  V30 11153 O 519.467 -0.825065 -8.71101 0
M  V30 11154 C 518.977 0.783801 -6.99623 0
M  V30 11155 C 519.687 0.0619192 -5.85967 0
M  V30 11156 N 519.637 0.7859 -4.56281 0
M  V30 11157 H 522.476 1.93423 -8.4679 0
M  V30 11158 H 522.748 1.68181 -6.71046 0
M  V30 11159 H 521.88 -0.289041 -8.15388 0
M  V30 11160 P 517.917 -1.17771 -8.83182 0
M  V30 11161 O 517.697 -2.07206 -9.98732 0
M  V30 11162 O 517.127 0.0743816 -8.81969 0
M  V30 11163 O 517.667 -1.97678 -7.474 0
M  V30 11164 C 518.607 -3.01133 -7.08783 0
M  V30 11165 C 517.877 -4.1203 -6.37546 0
M  V30 11166 O 517.667 -3.72887 -4.9796 0
M  V30 11167 C 516.477 -4.45085 -6.88694 0
M  V30 11168 O 516.087 -5.78836 -6.56315 0
M  V30 11169 C 515.597 -3.47817 -6.12078 0
M  V30 11170 C 516.307 -3.39414 -4.77697 0
M  V30 11171 N 516.257 -2.04615 -4.15333 0
M  V30 11172 C 516.107 -1.96929 -2.77162 0
M  V30 11173 O 516.017 -3.02017 -2.12006 0
M  V30 11174 N 516.057 -0.55485 -2.24237 0
M  V30 11175 C 516.157 0.367808 -2.9169 0
M  V30 11176 N 516.107 1.53426 -2.29427 0
M  V30 11177 C 516.307 0.319148 -4.33828 0
M  V30 11178 C 516.357 -0.920672 -4.90433 0
M  V30 11179 H 519.097 -3.41209 -7.98667 0
M  V30 11180 H 519.367 -2.5837 -6.41742 0
M  V30 11181 H 518.5 -5.02718 -6.42752 0
M  V30 11182 H 515.845 -4.11779 -4.09026 0
M  V30 11183 H 515.565 -2.49661 -6.61772 0
M  V30 11184 H 514.574 -3.86674 -6.00946 0
M  V30 11185 H 516.408 -4.29991 -7.97006 0
M  V30 11186 H 516.48 -1.00589 -5.98303 0
M  V30 11187 H 516.378 1.22639 -4.93799 0
M  V30 11188 H 515.99 1.56819 -1.27167 0
M  V30 11189 H 516.186 2.41062 -2.83063 0
M  V30 11190 P 514.537 -6.144 -6.45285 0
M  V30 11191 O 514.317 -7.54673 -6.86199 0
M  V30 11192 O 513.747 -5.12391 -7.179 0
M  V30 11193 O 514.287 -5.99236 -4.88467 0
M  V30 11194 C 515.227 -6.60234 -3.96415 0
M  V30 11195 C 514.497 -7.08079 -2.736 0
M  V30 11196 O 514.287 -5.94365 -1.8368 0
M  V30 11197 C 513.097 -7.64886 -2.9555 0
M  V30 11198 O 512.707 -8.5406 -1.90739 0
M  V30 11199 C 512.217 -6.4116 -2.90739 0
M  V30 11200 C 512.927 -5.55375 -1.86963 0
M  V30 11201 N 512.877 -4.09664 -2.15742 0
M  V30 11202 C 512.727 -3.22231 -1.08477 0
M  V30 11203 O 512.637 -3.68951 0.0600489 0
M  V30 11204 N 512.677 -1.76692 -1.48799 0
M  V30 11205 C 512.777 -1.41695 -2.57602 0
M  V30 11206 N 512.727 -0.107296 -2.75791 0
M  V30 11207 C 512.927 -2.29178 -3.69733 0
M  V30 11208 C 512.977 -3.62753 -3.42653 0
M  V30 11209 H 515.717 -7.45488 -4.45578 0
M  V30 11210 H 515.987 -5.86232 -3.67314 0
M  V30 11211 H 515.12 -7.84508 -2.24507 0
M  V30 11212 H 512.465 -5.73556 -0.888715 0
M  V30 11213 H 512.185 -5.9096 -3.88638 0
M  V30 11214 H 511.194 -6.66053 -2.58894 0
M  V30 11215 H 513.028 -8.16339 -3.92049 0
M  V30 11216 H 513.1 -4.33052 -4.24913 0
M  V30 11217 H 512.998 -1.9103 -4.71577 0
M  V30 11218 H 512.61 0.521221 -1.95056 0
M  V30 11219 H 512.806 0.286429 -3.70695 0
M  V30 11220 P 511.157 -8.7635 -1.60911 0
M  V30 11221 O 510.937 -10.1388 -1.11561 0
M  V30 11222 O 510.367 -8.36503 -2.79617 0
M  V30 11223 O 510.907 -7.71906 -0.429565 0
M  V30 11224 C 511.847 -7.67148 0.673689 0
M  V30 11225 C 511.117 -7.33666 1.94851 0
M  V30 11226 O 510.907 -5.88816 2.00759 0
M  V30 11227 C 509.717 -7.92526 2.10483 0
M  V30 11228 O 509.327 -8.03063 3.47693 0
M  V30 11229 C 508.837 -6.89602 1.41652 0
M  V30 11230 C 509.547 -5.59201 1.75185 0
M  V30 11231 N 509.497 -4.58235 0.662552 0
M  V30 11232 C 509.347 -3.24451 1.01643 0
M  V30 11233 O 509.257 -2.94958 2.21722 0
M  V30 11234 N 509.297 -2.30408 -0.165238 0
M  V30 11235 C 509.397 -2.66048 -1.25118 0
M  V30 11236 N 509.347 -1.70787 -2.16813 0
M  V30 11237 C 509.547 -4.02732 -1.64413 0
M  V30 11238 C 509.597 -4.9488 -0.63991 0
M  V30 11239 H 512.337 -8.65017 0.777072 0
M  V30 11240 H 512.607 -6.90173 0.474152 0
M  V30 11241 H 511.74 -7.66642 2.79492 0
M  V30 11242 H 509.085 -5.16254 2.65229 0
M  V30 11243 H 508.805 -7.06532 0.329431 0
M  V30 11244 H 507.814 -6.91023 1.82047 0
M  V30 11245 H 509.648 -8.90873 1.62657 0
M  V30 11246 H 509.72 -6.00104 -0.892197 0
M  V30 11247 H 509.618 -4.31733 -2.69229 0
M  V30 11248 H 509.23 -0.724835 -1.8844 0
M  V30 11249 H 509.426 -1.94716 -3.16734 0
M  V30 11250 P 507.777 -8.03563 3.84925 0
M  V30 11251 O 507.557 -8.85821 5.0569 0
M  V30 11252 O 506.987 -8.41101 2.65469 0
M  V30 11253 O 507.527 -6.4965 4.18908 0
M  V30 11254 C 508.467 -5.80886 5.05289 0
M  V30 11255 C 507.737 -4.78366 5.89277 0
M  V30 11256 O 507.527 -3.58302 5.08433 0
M  V30 11257 C 506.337 -5.16748 6.36559 0
M  V30 11258 O 505.947 -4.45271 7.53232 0
M  V30 11259 C 505.457 -4.74572 5.19863 0
M  V30 11260 C 506.167 -3.49373 4.70338 0
M  V30 11261 N 506.117 -3.31704 3.22876 0
M  V30 11262 C 505.967 -2.03326 2.74871 0
M  V30 11263 O 505.877 -1.06486 3.48076 0
M  V30 11264 N 505.927 -1.91838 1.37456 0
M  V30 11265 C 506.017 -2.94295 0.462035 0
M  V30 11266 C 506.167 -4.25064 1.05249 0
M  V30 11267 C 506.217 -4.40214 2.39192 0
M  V30 11268 H 508.958 -6.54063 5.71245 0
M  V30 11269 H 509.227 -5.30339 4.43905 0
M  V30 11270 H 508.36 -4.55889 6.76652 0
M  V30 11271 H 505.705 -2.6167 5.17842 0
M  V30 11272 H 505.426 -5.52155 4.41878 0
M  V30 11273 H 504.434 -4.51918 5.53297 0
M  V30 11274 H 506.268 -6.25055 6.55162 0
M  V30 11275 H 506.339 -5.39798 2.81523 0
M  V30 11276 P 504.397 -4.23843 7.83734 0
M  V30 11277 O 504.177 -4.19407 9.29784 0
M  V30 11278 O 503.607 -5.24426 7.09156 0
M  V30 11279 O 504.147 -2.7935 7.20758 0
M  V30 11280 C 505.087 -1.7299 7.50419 0
M  V30 11281 C 504.357 -0.406376 7.57911 0
M  V30 11282 O 504.147 0.0897726 6.21935 0
M  V30 11283 C 502.957 -0.447224 8.1878 0
M  V30 11284 O 502.567 0.825065 8.71101 0
M  V30 11285 C 502.077 -0.783801 6.99623 0
M  V30 11286 C 502.787 -0.0619192 5.85967 0
M  V30 11287 N 502.737 -0.790462 4.56202 0
M  V30 11288 H 505.576 -1.93423 8.4679 0
M  V30 11289 H 505.848 -1.68852 6.70877 0
M  V30 11290 H 504.98 0.289041 8.15388 0
M  V30 11291 H 502.325 0.927006 5.72848 0
M  V30 11292 H 502.045 -1.86973 6.82036 0
M  V30 11293 H 501.054 -0.403953 7.13357 0
M  V30 11294 H 502.888 -1.20599 8.97534 0
M  V30 11295 P 501.017 1.17771 8.83182 0
M  V30 11296 O 500.797 2.07206 9.98732 0
M  V30 11297 O 500.227 -0.0743816 8.81969 0
M  V30 11298 O 500.767 1.97652 7.47304 0
M  V30 11299 C 501.707 3.01133 7.08783 0
M  V30 11300 C 500.977 4.12613 6.37049 0
M  V30 11301 O 500.767 3.72827 4.97879 0
M  V30 11302 C 499.577 4.45085 6.88694 0
M  V30 11303 O 499.187 5.7877 6.5624 0
M  V30 11304 C 498.697 3.47817 6.12078 0
M  V30 11305 C 499.407 3.39414 4.77697 0
M  V30 11306 N 499.357 2.04615 4.15333 0
M  V30 11307 H 502.196 3.41248 7.98759 0
M  V30 11308 H 502.468 2.5837 6.41742 0
M  V30 11309 H 501.6 5.02657 6.42673 0
M  V30 11310 P 497.637 6.144 6.45285 0
M  V30 11311 O 497.417 7.54673 6.86199 0
M  V30 11312 O 496.847 5.12391 7.179 0
M  V30 11313 O 497.387 5.99158 4.88404 0
M  V30 11314 C 498.327 6.60234 3.96415 0
M  V30 11315 C 497.597 7.08259 2.72856 0
M  V30 11316 O 497.387 5.9427 1.83651 0
M  V30 11317 C 496.197 7.64886 2.9555 0
M  V30 11318 O 495.807 8.53963 1.90717 0
M  V30 11319 C 495.317 6.4116 2.90739 0
M  V30 11320 C 496.027 5.55375 1.86963 0
M  V30 11321 N 495.977 4.09664 2.15742 0
M  V30 11322 H 498.816 7.45574 4.45629 0
M  V30 11323 H 499.088 5.86232 3.67314 0
M  V30 11324 H 498.22 7.84412 2.24479 0
M  V30 11325 P 494.257 8.7635 1.60911 0
M  V30 11326 O 494.037 10.1388 1.11561 0
M  V30 11327 O 493.467 8.36503 2.79617 0
M  V30 11328 O 494.007 7.71806 0.42951 0
M  V30 11329 C 494.947 7.67148 -0.673689 0
M  V30 11330 C 494.217 7.33374 -1.95559 0
M  V30 11331 O 494.007 5.88721 -2.00726 0
M  V30 11332 C 492.817 7.92526 -2.10483 0
M  V30 11333 O 492.427 8.02971 -3.47653 0
M  V30 11334 C 491.937 6.89602 -1.41652 0
M  V30 11335 C 492.647 5.59201 -1.75185 0
M  V30 11336 N 492.597 4.58235 -0.662552 0
M  V30 11337 H 495.436 8.65116 -0.777161 0
M  V30 11338 H 495.708 6.90173 -0.474152 0
M  V30 11339 H 494.84 7.66548 -2.79458 0
M  V30 11340 P 490.877 8.03563 -3.84925 0
M  V30 11341 O 490.657 8.85821 -5.0569 0
M  V30 11342 O 490.087 8.41101 -2.65469 0
M  V30 11343 O 490.627 6.4965 -4.18908 0
M  V30 11344 C 491.567 5.81037 -5.05421 0
M  V30 11345 C 490.837 4.78366 -5.89277 0
M  V30 11346 O 490.627 3.58302 -5.08433 0
M  V30 11347 C 489.437 5.17448 -6.36119 0
M  V30 11348 O 489.047 4.45271 -7.53232 0
M  V30 11349 C 488.557 4.74639 -5.19936 0
M  V30 11350 C 489.267 3.49432 -4.70418 0
M  V30 11351 N 489.217 3.31776 -3.22945 0
M  V30 11352 H 492.056 6.54213 -5.71376 0
M  V30 11353 H 492.328 5.30492 -4.44033 0
M  V30 11354 H 491.46 4.55889 -6.76652 0
M  V30 11355 P 487.497 4.23843 -7.83734 0
M  V30 11356 O 487.277 4.19407 -9.29784 0
M  V30 11357 O 486.707 5.24426 -7.09156 0
M  V30 11358 O 487.247 2.7935 -7.20758 0
M  V30 11359 C 488.187 1.7299 -7.50419 0
M  V30 11360 C 487.457 0.406376 -7.57911 0
M  V30 11361 O 487.247 -0.0897726 -6.21935 0
M  V30 11362 C 486.057 0.447224 -8.1878 0
M  V30 11363 O 485.667 -0.825065 -8.71101 0
M  V30 11364 C 485.177 0.783801 -6.99623 0
M  V30 11365 C 485.887 0.0619192 -5.85967 0
M  V30 11366 N 485.837 0.7859 -4.56281 0
M  V30 11367 C 485.917 2.14308 -4.31736 0
M  V30 11368 N 485.837 2.46106 -3.05116 0
M  V30 11369 C 485.697 1.23422 -2.4014 0
M  V30 11370 C 485.567 0.938381 -1.02409 0
M  V30 11371 O 485.547 1.70876 -0.0650402 0
M  V30 11372 N 485.447 -0.444647 -0.805413 0
M  V30 11373 C 485.447 -1.40829 -1.79435 0
M  V30 11374 N 485.317 -2.67213 -1.38558 0
M  V30 11375 N 485.577 -1.12947 -3.09005 0
M  V30 11376 C 485.697 0.204887 -3.32369 0
M  V30 11377 H 488.676 1.93423 -8.4679 0
M  V30 11378 H 488.948 1.68181 -6.71046 0
M  V30 11379 H 488.08 -0.289041 -8.15388 0
M  V30 11380 H 485.425 -0.927166 -5.72947 0
M  V30 11381 H 485.145 1.87 -6.82132 0
M  V30 11382 H 484.154 0.404009 -7.13457 0
M  V30 11383 H 485.988 1.20612 -8.97633 0
M  V30 11384 H 486.037 2.88284 -5.10874 0
M  V30 11385 H 485.355 -0.755087 0.140242 0
M  V30 11386 H 485.318 -3.43967 -2.0729 0
M  V30 11387 H 485.217 -2.88096 -0.380644 0
M  V30 11388 P 484.117 -1.17771 -8.83182 0
M  V30 11389 O 483.897 -2.07206 -9.98732 0
M  V30 11390 O 483.327 0.0743816 -8.81969 0
M  V30 11391 O 483.867 -1.97652 -7.47304 0
M  V30 11392 C 484.807 -3.01133 -7.08783 0
M  V30 11393 C 484.077 -4.12613 -6.37049 0
M  V30 11394 O 483.867 -3.72827 -4.97879 0
M  V30 11395 C 482.677 -4.45085 -6.88694 0
M  V30 11396 O 482.287 -5.7877 -6.5624 0
M  V30 11397 C 481.797 -3.47817 -6.12078 0
M  V30 11398 C 482.507 -3.39414 -4.77697 0
M  V30 11399 N 482.457 -2.04199 -4.15538 0
M  V30 11400 C 482.537 -0.821545 -4.76977 0
M  V30 11401 N 482.467 0.1794 -3.94592 0
M  V30 11402 C 482.317 -0.419121 -2.70776 0
M  V30 11403 C 482.187 0.109072 -1.40577 0
M  V30 11404 N 482.177 1.4104 -1.1344 0
M  V30 11405 N 482.067 -0.764381 -0.39411 0
M  V30 11406 C 482.077 -2.06587 -0.664135 0
M  V30 11407 N 482.197 -2.67948 -1.82153 0
M  V30 11408 C 482.317 -1.77942 -2.8147 0
M  V30 11409 H 485.296 -3.41248 -7.98759 0
M  V30 11410 H 485.568 -2.57728 -6.42 0
M  V30 11411 H 484.7 -5.02657 -6.42673 0
M  V30 11412 H 482.045 -4.11708 -4.08956 0
M  V30 11413 H 481.765 -2.49626 -6.61679 0
M  V30 11414 H 480.774 -3.8662 -6.00862 0
M  V30 11415 H 482.608 -4.29991 -7.97006 0
M  V30 11416 H 482.649 -0.702451 -5.84696 0
M  V30 11417 H 482.268 2.09647 -1.89651 0
M  V30 11418 H 482.079 1.73358 -0.160575 0
M  V30 11419 H 481.971 -2.71695 0.195838 0
M  V30 11420 P 480.737 -6.144 -6.45285 0
M  V30 11421 O 480.517 -7.54673 -6.86199 0
M  V30 11422 O 479.947 -5.12391 -7.179 0
M  V30 11423 O 480.487 -5.99158 -4.88404 0
M  V30 11424 C 481.427 -6.60234 -3.96415 0
M  V30 11425 C 480.697 -7.08259 -2.72856 0
M  V30 11426 O 480.487 -5.9427 -1.83651 0
M  V30 11427 C 479.297 -7.64886 -2.9555 0
M  V30 11428 O 478.907 -8.53963 -1.90717 0
M  V30 11429 C 478.417 -6.4116 -2.90739 0
M  V30 11430 C 479.127 -5.55375 -1.86963 0
M  V30 11431 N 479.077 -4.09664 -2.15742 0
M  V30 11432 H 481.916 -7.45574 -4.45629 0
M  V30 11433 H 482.188 -5.86232 -3.67314 0
M  V30 11434 H 481.32 -7.84412 -2.24479 0
M  V30 11435 P 477.357 -8.7635 -1.60911 0
M  V30 11436 O 477.137 -10.1388 -1.11561 0
M  V30 11437 O 476.567 -8.36503 -2.79617 0
M  V30 11438 O 477.107 -7.71806 -0.42951 0
M  V30 11439 C 478.047 -7.66948 0.673514 0
M  V30 11440 C 477.317 -7.33374 1.95559 0
M  V30 11441 O 477.107 -5.88721 2.00726 0
M  V30 11442 C 475.917 -7.92218 2.1125 0
M  V30 11443 O 475.527 -8.02971 3.47653 0
M  V30 11444 C 475.037 -6.89504 1.41631 0
M  V30 11445 C 475.747 -5.59106 1.75155 0
M  V30 11446 N 475.697 -4.58136 0.662409 0
M  V30 11447 C 475.547 -3.26059 1.02863 0
M  V30 11448 O 475.457 -2.90743 2.19009 0
M  V30 11449 N 475.507 -2.35995 -0.0155585 0
M  V30 11450 C 475.597 -2.65248 -1.35603 0
M  V30 11451 O 475.547 -1.75605 -2.20651 0
M  V30 11452 C 475.747 -4.05747 -1.64698 0
M  V30 11453 C 475.857 -4.42345 -3.09553 0
M  V30 11454 C 475.797 -4.96734 -0.652411 0
M  V30 11455 H 478.538 -8.64917 0.776982 0
M  V30 11456 H 478.807 -6.89974 0.474015 0
M  V30 11457 H 477.94 -7.66548 2.79458 0
M  V30 11458 H 475.285 -5.16076 2.65138 0
M  V30 11459 H 475.006 -7.06433 0.329384 0
M  V30 11460 H 474.014 -6.90829 1.81996 0
M  V30 11461 H 475.848 -8.90774 1.62639 0
M  V30 11462 H 475.919 -6.02181 -0.895285 0
M  V30 11463 H 474.889 -4.80252 -3.45468 0
M  V30 11464 H 476.626 -5.20015 -3.22119 0
M  V30 11465 H 476.138 -3.53269 -3.67833 0
M  V30 11466 H 475.402 -1.39558 0.227499 0
M  V30 11467 P 473.977 -8.03563 3.84925 0
M  V30 11468 O 473.757 -8.85821 5.0569 0
M  V30 11469 O 473.187 -8.41101 2.65469 0
M  V30 11470 O 473.727 -6.4965 4.18908 0
M  V30 11471 C 474.667 -5.81037 5.05421 0
M  V30 11472 C 473.937 -4.78366 5.89277 0
M  V30 11473 O 473.727 -3.58302 5.08433 0
M  V30 11474 C 472.537 -5.17448 6.36119 0
M  V30 11475 O 472.147 -4.45271 7.53232 0
M  V30 11476 C 471.657 -4.74639 5.19936 0
M  V30 11477 C 472.367 -3.49432 4.70418 0
M  V30 11478 N 472.317 -3.31776 3.22945 0
M  V30 11479 H 475.156 -6.54213 5.71376 0
M  V30 11480 H 475.428 -5.30492 4.44033 0
M  V30 11481 H 474.56 -4.55889 6.76652 0
M  V30 11482 P 470.597 -4.23843 7.83734 0
M  V30 11483 O 470.377 -4.19407 9.29784 0
M  V30 11484 O 469.807 -5.24426 7.09156 0
M  V30 11485 O 470.347 -2.7935 7.20758 0
M  V30 11486 C 471.287 -1.7299 7.50419 0
M  V30 11487 C 470.557 -0.406376 7.57911 0
M  V30 11488 O 470.347 0.0897726 6.21935 0
M  V30 11489 C 469.157 -0.447224 8.1878 0
M  V30 11490 O 468.767 0.825065 8.71101 0
M  V30 11491 C 468.277 -0.783801 6.99623 0
M  V30 11492 C 468.987 -0.0619192 5.85967 0
M  V30 11493 N 468.937 -0.790462 4.56202 0
M  V30 11494 C 469.017 -2.13895 4.34171 0
M  V30 11495 N 468.947 -2.46449 3.08687 0
M  V30 11496 C 468.797 -1.2525 2.43697 0
M  V30 11497 C 468.667 -0.914535 1.07318 0
M  V30 11498 N 468.657 -1.80782 0.0887348 0
M  V30 11499 N 468.547 0.386745 0.768133 0
M  V30 11500 C 468.557 1.28096 1.75159 0
M  V30 11501 N 468.677 1.09708 3.04861 0
M  V30 11502 C 468.797 -0.214857 3.32306 0
M  V30 11503 H 471.776 -1.93423 8.4679 0
M  V30 11504 H 472.048 -1.68852 6.70877 0
M  V30 11505 H 471.18 0.289041 8.15388 0
M  V30 11506 H 468.525 0.927006 5.72848 0
M  V30 11507 H 468.245 -1.86973 6.82036 0
M  V30 11508 H 467.254 -0.403953 7.13357 0
M  V30 11509 H 469.088 -1.20599 8.97534 0
M  V30 11510 H 469.129 -2.86846 5.14318 0
M  V30 11511 H 468.748 -2.81082 0.302037 0
M  V30 11512 H 468.559 -1.49688 -0.889064 0
M  V30 11513 H 468.451 2.31317 1.43855 0
M  V30 11514 P 467.217 1.17771 8.83182 0
M  V30 11515 O 466.997 2.07206 9.98732 0
M  V30 11516 O 466.427 -0.0743816 8.81969 0
M  V30 11517 O 466.967 1.97652 7.47304 0
M  V30 11518 C 467.907 3.01133 7.08783 0
M  V30 11519 C 467.177 4.12613 6.37049 0
M  V30 11520 O 466.967 3.72827 4.97879 0
M  V30 11521 C 465.777 4.45085 6.88694 0
M  V30 11522 O 465.387 5.7877 6.5624 0
M  V30 11523 C 464.897 3.47817 6.12078 0
M  V30 11524 C 465.607 3.39414 4.77697 0
M  V30 11525 N 465.557 2.04615 4.15333 0
M  V30 11526 H 468.396 3.41248 7.98759 0
M  V30 11527 H 468.668 2.5837 6.41742 0
M  V30 11528 H 467.8 5.02657 6.42673 0
M  V30 11529 P 463.837 6.144 6.45285 0
M  V30 11530 O 463.617 7.54673 6.86199 0
M  V30 11531 O 463.047 5.12391 7.179 0
M  V30 11532 O 463.587 5.99158 4.88404 0
M  V30 11533 C 464.527 6.60234 3.96415 0
M  V30 11534 C 463.797 7.08259 2.72856 0
M  V30 11535 O 463.587 5.9427 1.83651 0
M  V30 11536 C 462.397 7.64886 2.9555 0
M  V30 11537 O 462.007 8.53963 1.90717 0
M  V30 11538 C 461.517 6.4116 2.90739 0
M  V30 11539 C 462.227 5.55375 1.86963 0
M  V30 11540 N 462.177 4.09664 2.15742 0
M  V30 11541 C 462.257 3.44381 3.37233 0
M  V30 11542 N 462.177 2.14131 3.28347 0
M  V30 11543 C 462.037 1.90247 1.91588 0
M  V30 11544 C 461.907 0.683992 1.20892 0
M  V30 11545 O 461.887 -0.46618 1.64523 0
M  V30 11546 N 461.787 0.903396 -0.173998 0
M  V30 11547 C 461.787 2.14171 -0.784879 0
M  V30 11548 N 461.657 2.1435 -2.11317 0
M  V30 11549 N 461.917 3.28784 -0.119316 0
M  V30 11550 C 462.037 3.0977 1.22194 0
M  V30 11551 H 465.016 7.45574 4.45629 0
M  V30 11552 H 465.288 5.86232 3.67314 0
M  V30 11553 H 464.42 7.84412 2.24479 0
M  V30 11554 H 461.765 5.73556 0.888715 0
M  V30 11555 H 461.485 5.9096 3.88638 0
M  V30 11556 H 460.494 6.66053 2.58894 0
M  V30 11557 H 462.328 8.16429 3.92093 0
M  V30 11558 H 462.377 3.96785 4.32043 0
M  V30 11559 H 461.695 0.0999567 -0.761467 0
M  V30 11560 H 461.658 3.03436 -2.63076 0
M  V30 11561 H 461.557 1.25228 -2.62233 0
M  V30 11562 P 460.457 8.7635 1.60911 0
M  V30 11563 O 460.237 10.1388 1.11561 0
M  V30 11564 O 459.667 8.36503 2.79617 0
M  V30 11565 O 460.207 7.71806 0.42951 0
M  V30 11566 C 461.147 7.67148 -0.673689 0
M  V30 11567 C 460.417 7.33374 -1.95559 0
M  V30 11568 O 460.207 5.88721 -2.00726 0
M  V30 11569 C 459.017 7.92526 -2.10483 0
M  V30 11570 O 458.627 8.02971 -3.47653 0
M  V30 11571 C 458.137 6.89602 -1.41652 0
M  V30 11572 C 458.847 5.59201 -1.75185 0
M  V30 11573 N 458.797 4.58235 -0.662552 0
M  V30 11574 H 461.636 8.65116 -0.777161 0
M  V30 11575 H 461.908 6.90173 -0.474152 0
M  V30 11576 H 461.04 7.66548 -2.79458 0
M  V30 11577 P 457.077 8.03563 -3.84925 0
M  V30 11578 O 456.857 8.85821 -5.0569 0
M  V30 11579 O 456.287 8.41101 -2.65469 0
M  V30 11580 O 456.827 6.4965 -4.18908 0
M  V30 11581 C 457.767 5.81037 -5.05421 0
M  V30 11582 C 457.037 4.78366 -5.89277 0
M  V30 11583 O 456.827 3.58302 -5.08433 0
M  V30 11584 C 455.637 5.17448 -6.36119 0
M  V30 11585 O 455.247 4.45271 -7.53232 0
M  V30 11586 C 454.757 4.74639 -5.19936 0
M  V30 11587 C 455.467 3.49432 -4.70418 0
M  V30 11588 N 455.417 3.31776 -3.22945 0
M  V30 11589 H 458.256 6.54213 -5.71376 0
M  V30 11590 H 458.528 5.30492 -4.44033 0
M  V30 11591 H 457.66 4.55889 -6.76652 0
M  V30 11592 P 453.697 4.23843 -7.83734 0
M  V30 11593 O 453.477 4.19407 -9.29784 0
M  V30 11594 O 452.907 5.24426 -7.09156 0
M  V30 11595 O 453.447 2.7935 -7.20758 0
M  V30 11596 C 454.387 1.7299 -7.50419 0
M  V30 11597 C 453.657 0.406376 -7.57911 0
M  V30 11598 O 453.447 -0.0897726 -6.21935 0
M  V30 11599 C 452.257 0.447224 -8.1878 0
M  V30 11600 O 451.867 -0.825065 -8.71101 0
M  V30 11601 C 451.377 0.783801 -6.99623 0
M  V30 11602 C 452.087 0.0619192 -5.85967 0
M  V30 11603 N 452.037 0.790462 -4.56202 0
M  V30 11604 C 452.117 2.13895 -4.34171 0
M  V30 11605 N 452.047 2.46449 -3.08687 0
M  V30 11606 C 451.897 1.2525 -2.43697 0
M  V30 11607 C 451.767 0.914535 -1.07318 0
M  V30 11608 N 451.757 1.80782 -0.0887348 0
M  V30 11609 N 451.647 -0.386745 -0.768133 0
M  V30 11610 C 451.657 -1.28096 -1.75159 0
M  V30 11611 N 451.777 -1.09708 -3.04861 0
M  V30 11612 C 451.897 0.214857 -3.32306 0
M  V30 11613 H 454.876 1.93423 -8.4679 0
M  V30 11614 H 455.148 1.68852 -6.70877 0
M  V30 11615 H 454.28 -0.289041 -8.15388 0
M  V30 11616 H 451.625 -0.927006 -5.72848 0
M  V30 11617 H 451.345 1.86973 -6.82036 0
M  V30 11618 H 450.354 0.403953 -7.13357 0
M  V30 11619 H 452.188 1.20599 -8.97534 0
M  V30 11620 H 452.229 2.86846 -5.14318 0
M  V30 11621 H 451.848 2.81082 -0.302037 0
M  V30 11622 H 451.659 1.49688 0.889064 0
M  V30 11623 H 451.551 -2.31317 -1.43855 0
M  V30 11624 P 450.317 -1.17771 -8.83182 0
M  V30 11625 O 450.097 -2.07206 -9.98732 0
M  V30 11626 O 449.527 0.0743816 -8.81969 0
M  V30 11627 O 450.067 -1.97652 -7.47304 0
M  V30 11628 C 451.007 -3.01133 -7.08783 0
M  V30 11629 C 450.277 -4.12613 -6.37049 0
M  V30 11630 O 450.067 -3.72827 -4.97879 0
M  V30 11631 C 448.877 -4.45085 -6.88694 0
M  V30 11632 O 448.487 -5.7877 -6.5624 0
M  V30 11633 C 447.997 -3.47817 -6.12078 0
M  V30 11634 C 448.707 -3.39414 -4.77697 0
M  V30 11635 N 448.657 -2.04199 -4.15538 0
M  V30 11636 H 451.496 -3.41248 -7.98759 0
M  V30 11637 H 451.768 -2.57728 -6.42 0
M  V30 11638 H 450.9 -5.02657 -6.42673 0
M  V30 11639 H 448.245 -4.11708 -4.08956 0
M  V30 11640 H 447.965 -2.49626 -6.61679 0
M  V30 11641 H 446.974 -3.8662 -6.00862 0
M  V30 11642 H 448.808 -4.29991 -7.97006 0
M  V30 11643 P 446.937 -6.144 -6.45285 0
M  V30 11644 O 446.717 -7.54673 -6.86199 0
M  V30 11645 O 446.147 -5.12391 -7.179 0
M  V30 11646 O 446.687 -5.99236 -4.88467 0
M  V30 11647 C 447.627 -6.60234 -3.96415 0
M  V30 11648 C 446.897 -7.08079 -2.736 0
M  V30 11649 O 446.687 -5.94365 -1.8368 0
M  V30 11650 C 445.497 -7.64886 -2.9555 0
M  V30 11651 O 445.107 -8.5406 -1.90739 0
M  V30 11652 C 444.617 -6.4116 -2.90739 0
M  V30 11653 C 445.327 -5.55375 -1.86963 0
M  V30 11654 N 445.277 -4.09664 -2.15742 0
M  V30 11655 C 445.127 -3.22231 -1.08477 0
M  V30 11656 O 445.037 -3.68951 0.0600489 0
M  V30 11657 N 445.077 -1.76692 -1.48799 0
M  V30 11658 C 445.177 -1.41695 -2.57602 0
M  V30 11659 N 445.127 -0.107296 -2.75791 0
M  V30 11660 C 445.327 -2.29178 -3.69733 0
M  V30 11661 C 445.377 -3.62753 -3.42653 0
M  V30 11662 H 448.117 -7.45488 -4.45578 0
M  V30 11663 H 448.387 -5.86232 -3.67314 0
M  V30 11664 H 447.52 -7.84508 -2.24507 0
M  V30 11665 H 444.865 -5.73556 -0.888715 0
M  V30 11666 H 444.585 -5.9096 -3.88638 0
M  V30 11667 H 443.594 -6.66053 -2.58894 0
M  V30 11668 H 445.428 -8.16339 -3.92049 0
M  V30 11669 H 445.5 -4.33052 -4.24913 0
M  V30 11670 H 445.398 -1.9103 -4.71577 0
M  V30 11671 H 445.01 0.521221 -1.95056 0
M  V30 11672 H 445.206 0.286429 -3.70695 0
M  V30 11673 P 443.557 -8.7635 -1.60911 0
M  V30 11674 O 443.337 -10.1388 -1.11561 0
M  V30 11675 O 442.767 -8.36503 -2.79617 0
M  V30 11676 O 443.307 -7.71806 -0.42951 0
M  V30 11677 C 444.247 -7.67148 0.673689 0
M  V30 11678 C 443.517 -7.33374 1.95559 0
M  V30 11679 O 443.307 -5.88721 2.00726 0
M  V30 11680 C 442.117 -7.92526 2.10483 0
M  V30 11681 O 441.727 -8.02971 3.47653 0
M  V30 11682 C 441.237 -6.89602 1.41652 0
M  V30 11683 C 441.947 -5.59201 1.75185 0
M  V30 11684 N 441.897 -4.58301 0.657969 0
M  V30 11685 C 441.977 -4.79019 -0.692603 0
M  V30 11686 N 441.907 -3.69736 -1.38998 0
M  V30 11687 C 441.757 -2.70474 -0.438135 0
M  V30 11688 C 441.627 -1.30327 -0.538142 0
M  V30 11689 N 441.617 -0.64304 -1.69192 0
M  V30 11690 N 441.507 -0.611027 0.605183 0
M  V30 11691 C 441.517 -1.27002 1.75953 0
M  V30 11692 N 441.637 -2.56038 1.98546 0
M  V30 11693 C 441.757 -3.22681 0.822541 0
M  V30 11694 H 444.736 -8.65116 0.777161 0
M  V30 11695 H 445.008 -6.9022 0.46725 0
M  V30 11696 H 444.14 -7.66548 2.79458 0
M  V30 11697 H 441.485 -5.16165 2.65183 0
M  V30 11698 H 441.205 -7.06433 0.329384 0
M  V30 11699 H 440.214 -6.90926 1.82021 0
M  V30 11700 H 442.048 -8.90873 1.62657 0
M  V30 11701 H 442.089 -5.77785 -1.13874 0
M  V30 11702 H 441.708 -1.15585 -2.57991 0
M  V30 11703 H 441.519 0.382989 -1.69835 0
M  V30 11704 H 441.411 -0.653331 2.64449 0
M  V30 11705 P 440.177 -8.03563 3.84925 0
M  V30 11706 O 439.957 -8.85821 5.0569 0
M  V30 11707 O 439.387 -8.41101 2.65469 0
M  V30 11708 O 439.927 -6.4965 4.18908 0
M  V30 11709 C 440.867 -5.80886 5.05289 0
M  V30 11710 C 440.137 -4.78366 5.89277 0
M  V30 11711 O 439.927 -3.58302 5.08433 0
M  V30 11712 C 438.737 -5.16748 6.36559 0
M  V30 11713 O 438.347 -4.45271 7.53232 0
M  V30 11714 C 437.857 -4.74572 5.19863 0
M  V30 11715 C 438.567 -3.49373 4.70338 0
M  V30 11716 N 438.517 -3.31704 3.22876 0
M  V30 11717 C 438.367 -2.03326 2.74871 0
M  V30 11718 O 438.277 -1.06486 3.48076 0
M  V30 11719 N 438.327 -1.91838 1.37456 0
M  V30 11720 C 438.417 -2.94295 0.462035 0
M  V30 11721 C 438.567 -4.25064 1.05249 0
M  V30 11722 C 438.617 -4.40214 2.39192 0
M  V30 11723 H 441.358 -6.54063 5.71245 0
M  V30 11724 H 441.627 -5.30339 4.43905 0
M  V30 11725 H 440.76 -4.55889 6.76652 0
M  V30 11726 H 438.105 -2.6167 5.17842 0
M  V30 11727 H 437.826 -5.52155 4.41878 0
M  V30 11728 H 436.834 -4.51918 5.53297 0
M  V30 11729 H 438.668 -6.25055 6.55162 0
M  V30 11730 H 438.739 -5.39798 2.81523 0
M  V30 11731 P 436.797 -4.23843 7.83734 0
M  V30 11732 O 436.577 -4.19407 9.29784 0
M  V30 11733 O 436.007 -5.24426 7.09156 0
M  V30 11734 O 436.547 -2.7935 7.20758 0
M  V30 11735 C 437.487 -1.7299 7.50419 0
M  V30 11736 C 436.757 -0.406376 7.57911 0
M  V30 11737 O 436.547 0.0897726 6.21935 0
M  V30 11738 C 435.357 -0.447224 8.1878 0
M  V30 11739 O 434.967 0.825065 8.71101 0
M  V30 11740 C 434.477 -0.783801 6.99623 0
M  V30 11741 C 435.187 -0.0619192 5.85967 0
M  V30 11742 N 435.137 -0.7859 4.56281 0
M  V30 11743 H 437.976 -1.93423 8.4679 0
M  V30 11744 H 438.248 -1.68181 6.71046 0
M  V30 11745 H 437.38 0.289041 8.15388 0
M  V30 11746 P 433.417 1.17771 8.83182 0
M  V30 11747 O 433.197 2.07206 9.98732 0
M  V30 11748 O 432.627 -0.0743816 8.81969 0
M  V30 11749 O 433.167 1.97652 7.47304 0
M  V30 11750 C 434.107 3.01133 7.08783 0
M  V30 11751 C 433.377 4.12613 6.37049 0
M  V30 11752 O 433.167 3.72827 4.97879 0
M  V30 11753 C 431.977 4.45085 6.88694 0
M  V30 11754 O 431.587 5.7877 6.5624 0
M  V30 11755 C 431.097 3.47817 6.12078 0
M  V30 11756 C 431.807 3.39414 4.77697 0
M  V30 11757 N 431.757 2.04615 4.15333 0
M  V30 11758 H 434.596 3.41248 7.98759 0
M  V30 11759 H 434.868 2.5837 6.41742 0
M  V30 11760 H 434 5.02657 6.42673 0
M  V30 11761 P 430.037 6.144 6.45285 0
M  V30 11762 O 429.817 7.54673 6.86199 0
M  V30 11763 O 429.247 5.12391 7.179 0
M  V30 11764 O 429.787 5.99236 4.88467 0
M  V30 11765 C 430.727 6.60234 3.96415 0
M  V30 11766 C 429.997 7.08079 2.736 0
M  V30 11767 O 429.787 5.94365 1.8368 0
M  V30 11768 C 428.597 7.64886 2.9555 0
M  V30 11769 O 428.207 8.5406 1.90739 0
M  V30 11770 C 427.717 6.4116 2.90739 0
M  V30 11771 C 428.427 5.55375 1.86963 0
M  V30 11772 N 428.377 4.09664 2.15742 0
M  V30 11773 C 428.227 3.22231 1.08477 0
M  V30 11774 O 428.137 3.68951 -0.0600489 0
M  V30 11775 N 428.177 1.76692 1.48799 0
M  V30 11776 C 428.277 1.41695 2.57602 0
M  V30 11777 N 428.227 0.107296 2.75791 0
M  V30 11778 C 428.427 2.29178 3.69733 0
M  V30 11779 C 428.477 3.62753 3.42653 0
M  V30 11780 H 431.217 7.45488 4.45578 0
M  V30 11781 H 431.487 5.86232 3.67314 0
M  V30 11782 H 430.62 7.84508 2.24507 0
M  V30 11783 H 427.965 5.73556 0.888715 0
M  V30 11784 H 427.685 5.9096 3.88638 0
M  V30 11785 H 426.694 6.66053 2.58894 0
M  V30 11786 H 428.528 8.16339 3.92049 0
M  V30 11787 H 428.6 4.33052 4.24913 0
M  V30 11788 H 428.498 1.9103 4.71577 0
M  V30 11789 H 428.11 -0.521221 1.95056 0
M  V30 11790 H 428.306 -0.286429 3.70695 0
M  V30 11791 P 426.657 8.7635 1.60911 0
M  V30 11792 O 426.437 10.1388 1.11561 0
M  V30 11793 O 425.867 8.36503 2.79617 0
M  V30 11794 O 426.407 7.71806 0.42951 0
M  V30 11795 C 427.347 7.67148 -0.673689 0
M  V30 11796 C 426.617 7.33374 -1.95559 0
M  V30 11797 O 426.407 5.88721 -2.00726 0
M  V30 11798 C 425.217 7.92526 -2.10483 0
M  V30 11799 O 424.827 8.02971 -3.47653 0
M  V30 11800 C 424.337 6.89602 -1.41652 0
M  V30 11801 C 425.047 5.59201 -1.75185 0
M  V30 11802 N 424.997 4.58235 -0.662552 0
M  V30 11803 H 427.836 8.65116 -0.777161 0
M  V30 11804 H 428.108 6.90173 -0.474152 0
M  V30 11805 H 427.24 7.66548 -2.79458 0
M  V30 11806 P 423.278 8.03563 -3.84925 0
M  V30 11807 O 423.058 8.85821 -5.0569 0
M  V30 11808 O 422.488 8.41101 -2.65469 0
M  V30 11809 O 423.028 6.4965 -4.18908 0
M  V30 11810 C 423.968 5.81037 -5.05421 0
M  V30 11811 C 423.238 4.78366 -5.89277 0
M  V30 11812 O 423.028 3.58302 -5.08433 0
M  V30 11813 C 421.838 5.17448 -6.36119 0
M  V30 11814 O 421.448 4.45271 -7.53232 0
M  V30 11815 C 420.958 4.74639 -5.19936 0
M  V30 11816 C 421.668 3.49432 -4.70418 0
M  V30 11817 N 421.618 3.31776 -3.22945 0
M  V30 11818 H 424.457 6.54213 -5.71376 0
M  V30 11819 H 424.729 5.30492 -4.44033 0
M  V30 11820 H 423.861 4.55889 -6.76652 0
M  V30 11821 P 419.898 4.23843 -7.83734 0
M  V30 11822 O 419.678 4.19407 -9.29784 0
M  V30 11823 O 419.108 5.24426 -7.09156 0
M  V30 11824 O 419.648 2.7935 -7.20758 0
M  V30 11825 C 420.588 1.7299 -7.50419 0
M  V30 11826 C 419.858 0.406376 -7.57911 0
M  V30 11827 O 419.648 -0.0897726 -6.21935 0
M  V30 11828 C 418.458 0.447224 -8.1878 0
M  V30 11829 O 418.068 -0.825065 -8.71101 0
M  V30 11830 C 417.578 0.783801 -6.99623 0
M  V30 11831 C 418.288 0.0619192 -5.85967 0
M  V30 11832 N 418.238 0.7859 -4.56281 0
M  V30 11833 H 421.077 1.93423 -8.4679 0
M  V30 11834 H 421.349 1.68181 -6.71046 0
M  V30 11835 H 420.481 -0.289041 -8.15388 0
M  V30 11836 P 416.518 -1.17771 -8.83182 0
M  V30 11837 O 416.298 -2.07206 -9.98732 0
M  V30 11838 O 415.728 0.0743816 -8.81969 0
M  V30 11839 O 416.268 -1.97652 -7.47304 0
M  V30 11840 C 417.208 -3.01133 -7.08783 0
M  V30 11841 C 416.478 -4.12613 -6.37049 0
M  V30 11842 O 416.268 -3.72827 -4.97879 0
M  V30 11843 C 415.078 -4.45085 -6.88694 0
M  V30 11844 O 414.688 -5.7877 -6.5624 0
M  V30 11845 C 414.198 -3.47817 -6.12078 0
M  V30 11846 C 414.908 -3.39414 -4.77697 0
M  V30 11847 N 414.858 -2.04199 -4.15538 0
M  V30 11848 C 414.938 -0.821545 -4.76977 0
M  V30 11849 N 414.868 0.1794 -3.94592 0
M  V30 11850 C 414.718 -0.419121 -2.70776 0
M  V30 11851 C 414.588 0.109072 -1.40577 0
M  V30 11852 N 414.578 1.4104 -1.1344 0
M  V30 11853 N 414.468 -0.764381 -0.39411 0
M  V30 11854 C 414.478 -2.06587 -0.664135 0
M  V30 11855 N 414.598 -2.67948 -1.82153 0
M  V30 11856 C 414.718 -1.77942 -2.8147 0
M  V30 11857 H 417.697 -3.41248 -7.98759 0
M  V30 11858 H 417.969 -2.57728 -6.42 0
M  V30 11859 H 417.101 -5.02657 -6.42673 0
M  V30 11860 H 414.446 -4.11708 -4.08956 0
M  V30 11861 H 414.166 -2.49626 -6.61679 0
M  V30 11862 H 413.175 -3.8662 -6.00862 0
M  V30 11863 H 415.009 -4.29991 -7.97006 0
M  V30 11864 H 415.05 -0.702451 -5.84696 0
M  V30 11865 H 414.669 2.09647 -1.89651 0
M  V30 11866 H 414.48 1.73358 -0.160575 0
M  V30 11867 H 414.372 -2.71695 0.195838 0
M  V30 11868 P 413.138 -6.144 -6.45285 0
M  V30 11869 O 412.918 -7.54673 -6.86199 0
M  V30 11870 O 412.348 -5.12391 -7.179 0
M  V30 11871 O 412.888 -5.99158 -4.88404 0
M  V30 11872 C 413.828 -6.60234 -3.96415 0
M  V30 11873 C 413.098 -7.08259 -2.72856 0
M  V30 11874 O 412.888 -5.9427 -1.83651 0
M  V30 11875 C 411.698 -7.64886 -2.9555 0
M  V30 11876 O 411.308 -8.53963 -1.90717 0
M  V30 11877 C 410.818 -6.4116 -2.90739 0
M  V30 11878 C 411.528 -5.55375 -1.86963 0
M  V30 11879 N 411.478 -4.09664 -2.15742 0
M  V30 11880 H 414.317 -7.45574 -4.45629 0
M  V30 11881 H 414.589 -5.86232 -3.67314 0
M  V30 11882 H 413.721 -7.84412 -2.24479 0
M  V30 11883 P 409.758 -8.7635 -1.60911 0
M  V30 11884 O 409.538 -10.1388 -1.11561 0
M  V30 11885 O 408.968 -8.36503 -2.79617 0
M  V30 11886 O 409.508 -7.71806 -0.42951 0
M  V30 11887 C 410.448 -7.67148 0.673689 0
M  V30 11888 C 409.718 -7.33374 1.95559 0
M  V30 11889 O 409.508 -5.88721 2.00726 0
M  V30 11890 C 408.318 -7.92526 2.10483 0
M  V30 11891 O 407.928 -8.02971 3.47653 0
M  V30 11892 C 407.438 -6.89602 1.41652 0
M  V30 11893 C 408.148 -5.59201 1.75185 0
M  V30 11894 N 408.098 -4.58301 0.657969 0
M  V30 11895 H 410.937 -8.65116 0.777161 0
M  V30 11896 H 411.209 -6.9022 0.46725 0
M  V30 11897 H 410.341 -7.66548 2.79458 0
M  V30 11898 H 407.686 -5.16165 2.65183 0
M  V30 11899 H 407.406 -7.06433 0.329384 0
M  V30 11900 H 406.415 -6.90926 1.82021 0
M  V30 11901 H 408.249 -8.90873 1.62657 0
M  V30 11902 P 406.378 -8.03563 3.84925 0
M  V30 11903 O 406.158 -8.85821 5.0569 0
M  V30 11904 O 405.588 -8.41101 2.65469 0
M  V30 11905 O 406.128 -6.49734 4.18962 0
M  V30 11906 C 407.068 -5.81037 5.05421 0
M  V30 11907 C 406.338 -4.79018 5.88876 0
M  V30 11908 O 406.128 -3.58359 5.08515 0
M  V30 11909 C 404.938 -5.17448 6.36119 0
M  V30 11910 O 404.548 -4.45322 7.53318 0
M  V30 11911 C 404.058 -4.74639 5.19936 0
M  V30 11912 C 404.768 -3.49432 4.70418 0
M  V30 11913 N 404.718 -3.31776 3.22945 0
M  V30 11914 C 404.568 -2.02742 2.72939 0
M  V30 11915 O 404.478 -1.08301 3.52749 0
M  V30 11916 N 404.518 -1.96117 1.22063 0
M  V30 11917 C 404.618 -2.8878 0.551566 0
M  V30 11918 N 404.568 -2.65609 -0.750198 0
M  V30 11919 C 404.768 -4.22457 1.03707 0
M  V30 11920 C 404.818 -4.37979 2.39113 0
M  V30 11921 H 407.558 -6.54138 5.7131 0
M  V30 11922 H 407.828 -5.30492 4.44033 0
M  V30 11923 H 406.961 -4.55945 6.76735 0
M  V30 11924 H 404.306 -2.6176 5.18021 0
M  V30 11925 H 404.026 -5.52233 4.41941 0
M  V30 11926 H 403.035 -4.52045 5.53452 0
M  V30 11927 H 404.869 -6.25124 6.55234 0
M  V30 11928 H 404.941 -5.37936 2.80552 0
M  V30 11929 H 404.839 -5.07528 0.359553 0
M  V30 11930 H 404.451 -1.69403 -1.09847 0
M  V30 11931 H 404.647 -3.43701 -1.41792 0
M  V30 11932 P 402.998 -4.23843 7.83734 0
M  V30 11933 O 402.778 -4.19407 9.29784 0
M  V30 11934 O 402.208 -5.24426 7.09156 0
M  V30 11935 O 402.748 -2.7935 7.20758 0
M  V30 11936 C 403.688 -1.7299 7.50419 0
M  V30 11937 C 402.958 -0.406376 7.57911 0
M  V30 11938 O 402.748 0.0897726 6.21935 0
M  V30 11939 C 401.558 -0.447224 8.1878 0
M  V30 11940 O 401.168 0.825065 8.71101 0
M  V30 11941 C 400.678 -0.783801 6.99623 0
M  V30 11942 C 401.388 -0.0619192 5.85967 0
M  V30 11943 N 401.338 -0.790462 4.56202 0
M  V30 11944 C 401.418 -2.13895 4.34171 0
M  V30 11945 N 401.348 -2.46449 3.08687 0
M  V30 11946 C 401.198 -1.2525 2.43697 0
M  V30 11947 C 401.068 -0.914535 1.07318 0
M  V30 11948 N 401.058 -1.80782 0.0887348 0
M  V30 11949 N 400.948 0.386745 0.768133 0
M  V30 11950 C 400.958 1.28096 1.75159 0
M  V30 11951 N 401.078 1.09708 3.04861 0
M  V30 11952 C 401.198 -0.214857 3.32306 0
M  V30 11953 H 404.177 -1.93423 8.4679 0
M  V30 11954 H 404.449 -1.68852 6.70877 0
M  V30 11955 H 403.581 0.289041 8.15388 0
M  V30 11956 H 400.926 0.927006 5.72848 0
M  V30 11957 H 400.646 -1.86973 6.82036 0
M  V30 11958 H 399.655 -0.403953 7.13357 0
M  V30 11959 H 401.489 -1.20599 8.97534 0
M  V30 11960 H 401.53 -2.86846 5.14318 0
M  V30 11961 H 401.149 -2.81082 0.302037 0
M  V30 11962 H 400.96 -1.49688 -0.889064 0
M  V30 11963 H 400.852 2.31317 1.43855 0
M  V30 11964 P 399.618 1.17771 8.83182 0
M  V30 11965 O 399.398 2.07206 9.98732 0
M  V30 11966 O 398.828 -0.0743816 8.81969 0
M  V30 11967 O 399.368 1.97652 7.47304 0
M  V30 11968 C 400.308 3.01133 7.08783 0
M  V30 11969 C 399.578 4.12613 6.37049 0
M  V30 11970 O 399.368 3.72827 4.97879 0
M  V30 11971 C 398.178 4.45085 6.88694 0
M  V30 11972 O 397.788 5.7877 6.5624 0
M  V30 11973 C 397.298 3.47817 6.12078 0
M  V30 11974 C 398.008 3.39414 4.77697 0
M  V30 11975 N 397.958 2.04615 4.15333 0
M  V30 11976 H 400.797 3.41248 7.98759 0
M  V30 11977 H 401.069 2.5837 6.41742 0
M  V30 11978 H 400.201 5.02657 6.42673 0
M  V30 11979 P 396.238 6.144 6.45285 0
M  V30 11980 O 396.018 7.54673 6.86199 0
M  V30 11981 O 395.448 5.12391 7.179 0
M  V30 11982 O 395.988 5.99158 4.88404 0
M  V30 11983 C 396.928 6.60234 3.96415 0
M  V30 11984 C 396.198 7.08259 2.72856 0
M  V30 11985 O 395.988 5.9427 1.83651 0
M  V30 11986 C 394.798 7.64886 2.9555 0
M  V30 11987 O 394.408 8.53963 1.90717 0
M  V30 11988 C 393.918 6.4116 2.90739 0
M  V30 11989 C 394.628 5.55375 1.86963 0
M  V30 11990 N 394.578 4.09664 2.15742 0
M  V30 11991 H 397.417 7.45574 4.45629 0
M  V30 11992 H 397.689 5.86232 3.67314 0
M  V30 11993 H 396.821 7.84412 2.24479 0
M  V30 11994 P 392.858 8.7635 1.60911 0
M  V30 11995 O 392.638 10.1388 1.11561 0
M  V30 11996 O 392.068 8.36503 2.79617 0
M  V30 11997 O 392.608 7.71906 0.429565 0
M  V30 11998 C 393.548 7.67148 -0.673689 0
M  V30 11999 C 392.818 7.33666 -1.94851 0
M  V30 12000 O 392.608 5.88816 -2.00759 0
M  V30 12001 C 391.418 7.92526 -2.10483 0
M  V30 12002 O 391.028 8.03063 -3.47693 0
M  V30 12003 C 390.538 6.89602 -1.41652 0
M  V30 12004 C 391.248 5.59201 -1.75185 0
M  V30 12005 N 391.198 4.58235 -0.662552 0
M  V30 12006 C 391.048 3.24451 -1.01643 0
M  V30 12007 O 390.958 2.94958 -2.21722 0
M  V30 12008 N 390.998 2.30408 0.165238 0
M  V30 12009 C 391.098 2.66048 1.25118 0
M  V30 12010 N 391.048 1.70787 2.16813 0
M  V30 12011 C 391.248 4.02732 1.64413 0
M  V30 12012 C 391.298 4.9488 0.63991 0
M  V30 12013 H 394.038 8.65017 -0.777072 0
M  V30 12014 H 394.308 6.90173 -0.474152 0
M  V30 12015 H 393.441 7.66642 -2.79492 0
M  V30 12016 H 390.786 5.16254 -2.65229 0
M  V30 12017 H 390.506 7.06532 -0.329431 0
M  V30 12018 H 389.515 6.91023 -1.82047 0
M  V30 12019 H 391.349 8.90873 -1.62657 0
M  V30 12020 H 391.421 6.00104 0.892197 0
M  V30 12021 H 391.319 4.31733 2.69229 0
M  V30 12022 H 390.931 0.724835 1.8844 0
M  V30 12023 H 391.127 1.94716 3.16734 0
M  V30 12024 P 389.478 8.03563 -3.84925 0
M  V30 12025 O 389.258 8.85821 -5.0569 0
M  V30 12026 O 388.688 8.41101 -2.65469 0
M  V30 12027 O 389.228 6.49734 -4.18962 0
M  V30 12028 C 390.168 5.81037 -5.05421 0
M  V30 12029 C 389.438 4.79018 -5.88876 0
M  V30 12030 O 389.228 3.58359 -5.08515 0
M  V30 12031 C 388.038 5.17448 -6.36119 0
M  V30 12032 O 387.648 4.45322 -7.53318 0
M  V30 12033 C 387.158 4.74639 -5.19936 0
M  V30 12034 C 387.868 3.49432 -4.70418 0
M  V30 12035 N 387.818 3.31776 -3.22945 0
M  V30 12036 C 387.668 2.02742 -2.72939 0
M  V30 12037 O 387.578 1.08301 -3.52749 0
M  V30 12038 N 387.618 1.96117 -1.22063 0
M  V30 12039 C 387.718 2.8878 -0.551566 0
M  V30 12040 N 387.668 2.65609 0.750198 0
M  V30 12041 C 387.868 4.22457 -1.03707 0
M  V30 12042 C 387.918 4.37979 -2.39113 0
M  V30 12043 H 390.658 6.54138 -5.7131 0
M  V30 12044 H 390.928 5.30492 -4.44033 0
M  V30 12045 H 390.061 4.55945 -6.76735 0
M  V30 12046 H 387.406 2.6176 -5.18021 0
M  V30 12047 H 387.126 5.52233 -4.41941 0
M  V30 12048 H 386.135 4.52045 -5.53452 0
M  V30 12049 H 387.969 6.25124 -6.55234 0
M  V30 12050 H 388.041 5.37936 -2.80552 0
M  V30 12051 H 387.939 5.07528 -0.359553 0
M  V30 12052 H 387.551 1.69403 1.09847 0
M  V30 12053 H 387.747 3.43701 1.41792 0
M  V30 12054 P 386.098 4.23843 -7.83734 0
M  V30 12055 O 385.878 4.19407 -9.29784 0
M  V30 12056 O 385.308 5.24426 -7.09156 0
M  V30 12057 O 385.848 2.7935 -7.20758 0
M  V30 12058 C 386.788 1.7299 -7.50419 0
M  V30 12059 C 386.058 0.406376 -7.57911 0
M  V30 12060 O 385.848 -0.0897726 -6.21935 0
M  V30 12061 C 384.658 0.447224 -8.1878 0
M  V30 12062 O 384.268 -0.825065 -8.71101 0
M  V30 12063 C 383.778 0.783801 -6.99623 0
M  V30 12064 C 384.488 0.0619192 -5.85967 0
M  V30 12065 N 384.438 0.7859 -4.56281 0
M  V30 12066 H 387.277 1.93423 -8.4679 0
M  V30 12067 H 387.549 1.68181 -6.71046 0
M  V30 12068 H 386.681 -0.289041 -8.15388 0
M  V30 12069 P 382.718 -1.17771 -8.83182 0
M  V30 12070 O 382.498 -2.07206 -9.98732 0
M  V30 12071 O 381.928 0.0743816 -8.81969 0
M  V30 12072 O 382.468 -1.97652 -7.47304 0
M  V30 12073 C 383.408 -3.01133 -7.08783 0
M  V30 12074 C 382.678 -4.12613 -6.37049 0
M  V30 12075 O 382.468 -3.72827 -4.97879 0
M  V30 12076 C 381.278 -4.45085 -6.88694 0
M  V30 12077 O 380.888 -5.7877 -6.5624 0
M  V30 12078 C 380.398 -3.47817 -6.12078 0
M  V30 12079 C 381.108 -3.39414 -4.77697 0
M  V30 12080 N 381.058 -2.04615 -4.15333 0
M  V30 12081 H 383.897 -3.41248 -7.98759 0
M  V30 12082 H 384.169 -2.5837 -6.41742 0
M  V30 12083 H 383.301 -5.02657 -6.42673 0
M  V30 12084 P 379.338 -6.144 -6.45285 0
M  V30 12085 O 379.118 -7.54673 -6.86199 0
M  V30 12086 O 378.548 -5.12391 -7.179 0
M  V30 12087 O 379.088 -5.99158 -4.88404 0
M  V30 12088 C 380.028 -6.60234 -3.96415 0
M  V30 12089 C 379.298 -7.08259 -2.72856 0
M  V30 12090 O 379.088 -5.9427 -1.83651 0
M  V30 12091 C 377.898 -7.64886 -2.9555 0
M  V30 12092 O 377.508 -8.53963 -1.90717 0
M  V30 12093 C 377.018 -6.4116 -2.90739 0
M  V30 12094 C 377.728 -5.55375 -1.86963 0
M  V30 12095 N 377.678 -4.09664 -2.15742 0
M  V30 12096 H 380.517 -7.45574 -4.45629 0
M  V30 12097 H 380.789 -5.86232 -3.67314 0
M  V30 12098 H 379.921 -7.84412 -2.24479 0
M  V30 12099 P 375.958 -8.7635 -1.60911 0
M  V30 12100 O 375.738 -10.1388 -1.11561 0
M  V30 12101 O 375.168 -8.36503 -2.79617 0
M  V30 12102 O 375.708 -7.71806 -0.42951 0
M  V30 12103 C 376.648 -7.67148 0.673689 0
M  V30 12104 C 375.918 -7.33374 1.95559 0
M  V30 12105 O 375.708 -5.88721 2.00726 0
M  V30 12106 C 374.518 -7.92526 2.10483 0
M  V30 12107 O 374.128 -8.02971 3.47653 0
M  V30 12108 C 373.638 -6.89602 1.41652 0
M  V30 12109 C 374.348 -5.59201 1.75185 0
M  V30 12110 N 374.298 -4.58301 0.657969 0
M  V30 12111 H 377.137 -8.65116 0.777161 0
M  V30 12112 H 377.409 -6.9022 0.46725 0
M  V30 12113 H 376.541 -7.66548 2.79458 0
M  V30 12114 H 373.886 -5.16165 2.65183 0
M  V30 12115 H 373.606 -7.06433 0.329384 0
M  V30 12116 H 372.615 -6.90926 1.82021 0
M  V30 12117 H 374.449 -8.90873 1.62657 0
M  V30 12118 P 372.578 -8.03563 3.84925 0
M  V30 12119 O 372.358 -8.85821 5.0569 0
M  V30 12120 O 371.788 -8.41101 2.65469 0
M  V30 12121 O 372.328 -6.4965 4.18908 0
M  V30 12122 C 373.268 -5.81037 5.05421 0
M  V30 12123 C 372.538 -4.78366 5.89277 0
M  V30 12124 O 372.328 -3.58302 5.08433 0
M  V30 12125 C 371.138 -5.17448 6.36119 0
M  V30 12126 O 370.748 -4.45271 7.53232 0
M  V30 12127 C 370.258 -4.74639 5.19936 0
M  V30 12128 C 370.968 -3.49432 4.70418 0
M  V30 12129 N 370.918 -3.32099 3.22613 0
M  V30 12130 H 373.757 -6.54213 5.71376 0
M  V30 12131 H 374.029 -5.30936 4.43503 0
M  V30 12132 H 373.161 -4.55889 6.76652 0
M  V30 12133 H 370.506 -2.61715 5.17932 0
M  V30 12134 H 370.226 -5.52155 4.41878 0
M  V30 12135 H 369.235 -4.51981 5.53374 0
M  V30 12136 H 371.069 -6.25124 6.55234 0
M  V30 12137 P 369.198 -4.23843 7.83734 0
M  V30 12138 O 368.978 -4.19407 9.29784 0
M  V30 12139 O 368.408 -5.24426 7.09156 0
M  V30 12140 O 368.948 -2.7935 7.20758 0
M  V30 12141 C 369.888 -1.7299 7.50419 0
M  V30 12142 C 369.158 -0.406376 7.57911 0
M  V30 12143 O 368.948 0.0897726 6.21935 0
M  V30 12144 C 367.758 -0.447224 8.1878 0
M  V30 12145 O 367.368 0.825065 8.71101 0
M  V30 12146 C 366.878 -0.783801 6.99623 0
M  V30 12147 C 367.588 -0.0619192 5.85967 0
M  V30 12148 N 367.538 -0.7859 4.56281 0
M  V30 12149 H 370.377 -1.93423 8.4679 0
M  V30 12150 H 370.649 -1.68181 6.71046 0
M  V30 12151 H 369.781 0.289041 8.15388 0
M  V30 12152 P 365.818 1.17771 8.83182 0
M  V30 12153 O 365.598 2.07206 9.98732 0
M  V30 12154 O 365.028 -0.0743816 8.81969 0
M  V30 12155 O 365.568 1.97652 7.47304 0
M  V30 12156 C 366.508 3.01133 7.08783 0
M  V30 12157 C 365.778 4.12613 6.37049 0
M  V30 12158 O 365.568 3.72827 4.97879 0
M  V30 12159 C 364.378 4.45085 6.88694 0
M  V30 12160 O 363.988 5.7877 6.5624 0
M  V30 12161 C 363.498 3.47817 6.12078 0
M  V30 12162 C 364.208 3.39414 4.77697 0
M  V30 12163 N 364.158 2.04615 4.15333 0
M  V30 12164 H 366.997 3.41248 7.98759 0
M  V30 12165 H 367.269 2.5837 6.41742 0
M  V30 12166 H 366.401 5.02657 6.42673 0
M  V30 12167 P 362.438 6.144 6.45285 0
M  V30 12168 O 362.218 7.54673 6.86199 0
M  V30 12169 O 361.648 5.12391 7.179 0
M  V30 12170 O 362.188 5.99158 4.88404 0
M  V30 12171 C 363.128 6.60234 3.96415 0
M  V30 12172 C 362.398 7.08259 2.72856 0
M  V30 12173 O 362.188 5.9427 1.83651 0
M  V30 12174 C 360.998 7.64886 2.9555 0
M  V30 12175 O 360.608 8.53963 1.90717 0
M  V30 12176 C 360.118 6.4116 2.90739 0
M  V30 12177 C 360.828 5.55375 1.86963 0
M  V30 12178 N 360.778 4.09448 2.16152 0
M  V30 12179 H 363.617 7.45574 4.45629 0
M  V30 12180 H 363.889 5.85864 3.679 0
M  V30 12181 H 363.021 7.84412 2.24479 0
M  V30 12182 H 360.366 5.73457 0.888562 0
M  V30 12183 H 360.086 5.90877 3.88583 0
M  V30 12184 H 359.095 6.6596 2.58858 0
M  V30 12185 H 360.929 8.16339 3.92049 0
M  V30 12186 P 359.058 8.7635 1.60911 0
M  V30 12187 O 358.838 10.1388 1.11561 0
M  V30 12188 O 358.268 8.36503 2.79617 0
M  V30 12189 O 358.808 7.71806 0.42951 0
M  V30 12190 C 359.748 7.67148 -0.673689 0
M  V30 12191 C 359.018 7.33374 -1.95559 0
M  V30 12192 O 358.808 5.88721 -2.00726 0
M  V30 12193 C 357.618 7.92526 -2.10483 0
M  V30 12194 O 357.228 8.02971 -3.47653 0
M  V30 12195 C 356.738 6.89602 -1.41652 0
M  V30 12196 C 357.448 5.59201 -1.75185 0
M  V30 12197 N 357.398 4.58301 -0.657969 0
M  V30 12198 H 360.237 8.65116 -0.777161 0
M  V30 12199 H 360.509 6.9022 -0.46725 0
M  V30 12200 H 359.641 7.66548 -2.79458 0
M  V30 12201 H 356.986 5.16165 -2.65183 0
M  V30 12202 H 356.706 7.06433 -0.329384 0
M  V30 12203 H 355.715 6.90926 -1.82021 0
M  V30 12204 H 357.549 8.90873 -1.62657 0
M  V30 12205 P 355.678 8.03563 -3.84925 0
M  V30 12206 O 355.458 8.85821 -5.0569 0
M  V30 12207 O 354.888 8.41101 -2.65469 0
M  V30 12208 O 355.428 6.49734 -4.18962 0
M  V30 12209 C 356.368 5.81037 -5.05421 0
M  V30 12210 C 355.638 4.79018 -5.88876 0
M  V30 12211 O 355.428 3.58359 -5.08515 0
M  V30 12212 C 354.238 5.17448 -6.36119 0
M  V30 12213 O 353.848 4.45322 -7.53318 0
M  V30 12214 C 353.358 4.74639 -5.19936 0
M  V30 12215 C 354.068 3.49432 -4.70418 0
M  V30 12216 N 354.018 3.31776 -3.22945 0
M  V30 12217 C 353.868 2.02742 -2.72939 0
M  V30 12218 O 353.778 1.08301 -3.52749 0
M  V30 12219 N 353.818 1.96117 -1.22063 0
M  V30 12220 C 353.918 2.8878 -0.551566 0
M  V30 12221 N 353.868 2.65609 0.750198 0
M  V30 12222 C 354.068 4.22457 -1.03707 0
M  V30 12223 C 354.118 4.37979 -2.39113 0
M  V30 12224 H 356.858 6.54138 -5.7131 0
M  V30 12225 H 357.128 5.30492 -4.44033 0
M  V30 12226 H 356.261 4.55945 -6.76735 0
M  V30 12227 H 353.606 2.6176 -5.18021 0
M  V30 12228 H 353.326 5.52233 -4.41941 0
M  V30 12229 H 352.335 4.52045 -5.53452 0
M  V30 12230 H 354.169 6.25124 -6.55234 0
M  V30 12231 H 354.241 5.37936 -2.80552 0
M  V30 12232 H 354.139 5.07528 -0.359553 0
M  V30 12233 H 353.751 1.69403 1.09847 0
M  V30 12234 H 353.947 3.43701 1.41792 0
M  V30 12235 P 352.298 4.23843 -7.83734 0
M  V30 12236 O 352.078 4.19407 -9.29784 0
M  V30 12237 O 351.508 5.24426 -7.09156 0
M  V30 12238 O 352.048 2.7935 -7.20758 0
M  V30 12239 C 352.988 1.7299 -7.50419 0
M  V30 12240 C 352.258 0.406376 -7.57911 0
M  V30 12241 O 352.048 -0.0897726 -6.21935 0
M  V30 12242 C 350.858 0.447224 -8.1878 0
M  V30 12243 O 350.468 -0.825065 -8.71101 0
M  V30 12244 C 349.978 0.783801 -6.99623 0
M  V30 12245 C 350.688 0.0619192 -5.85967 0
M  V30 12246 N 350.638 0.790462 -4.56202 0
M  V30 12247 C 350.718 2.13895 -4.34171 0
M  V30 12248 N 350.648 2.46449 -3.08687 0
M  V30 12249 C 350.498 1.2525 -2.43697 0
M  V30 12250 C 350.368 0.914535 -1.07318 0
M  V30 12251 N 350.358 1.80782 -0.0887348 0
M  V30 12252 N 350.248 -0.386745 -0.768133 0
M  V30 12253 C 350.258 -1.28096 -1.75159 0
M  V30 12254 N 350.378 -1.09708 -3.04861 0
M  V30 12255 C 350.498 0.214857 -3.32306 0
M  V30 12256 H 353.477 1.93423 -8.4679 0
M  V30 12257 H 353.749 1.68852 -6.70877 0
M  V30 12258 H 352.881 -0.289041 -8.15388 0
M  V30 12259 H 350.226 -0.927006 -5.72848 0
M  V30 12260 H 349.946 1.86973 -6.82036 0
M  V30 12261 H 348.955 0.403953 -7.13357 0
M  V30 12262 H 350.789 1.20599 -8.97534 0
M  V30 12263 H 350.83 2.86846 -5.14318 0
M  V30 12264 H 350.449 2.81082 -0.302037 0
M  V30 12265 H 350.26 1.49688 0.889064 0
M  V30 12266 H 350.152 -2.31317 -1.43855 0
M  V30 12267 P 348.918 -1.17771 -8.83182 0
M  V30 12268 O 348.698 -2.07206 -9.98732 0
M  V30 12269 O 348.128 0.0743816 -8.81969 0
M  V30 12270 O 348.668 -1.97652 -7.47304 0
M  V30 12271 C 349.608 -3.01133 -7.08783 0
M  V30 12272 C 348.878 -4.12613 -6.37049 0
M  V30 12273 O 348.668 -3.72827 -4.97879 0
M  V30 12274 C 347.478 -4.45085 -6.88694 0
M  V30 12275 O 347.088 -5.7877 -6.5624 0
M  V30 12276 C 346.598 -3.47817 -6.12078 0
M  V30 12277 C 347.308 -3.39414 -4.77697 0
M  V30 12278 N 347.258 -2.04199 -4.15538 0
M  V30 12279 C 347.338 -0.821545 -4.76977 0
M  V30 12280 N 347.268 0.1794 -3.94592 0
M  V30 12281 C 347.118 -0.419121 -2.70776 0
M  V30 12282 C 346.988 0.109072 -1.40577 0
M  V30 12283 N 346.978 1.4104 -1.1344 0
M  V30 12284 N 346.868 -0.764381 -0.39411 0
M  V30 12285 C 346.878 -2.06587 -0.664135 0
M  V30 12286 N 346.998 -2.67948 -1.82153 0
M  V30 12287 C 347.118 -1.77942 -2.8147 0
M  V30 12288 H 350.097 -3.41248 -7.98759 0
M  V30 12289 H 350.369 -2.57728 -6.42 0
M  V30 12290 H 349.501 -5.02657 -6.42673 0
M  V30 12291 H 346.846 -4.11708 -4.08956 0
M  V30 12292 H 346.566 -2.49626 -6.61679 0
M  V30 12293 H 345.575 -3.8662 -6.00862 0
M  V30 12294 H 347.409 -4.29991 -7.97006 0
M  V30 12295 H 347.45 -0.702451 -5.84696 0
M  V30 12296 H 347.069 2.09647 -1.89651 0
M  V30 12297 H 346.88 1.73358 -0.160575 0
M  V30 12298 H 346.772 -2.71695 0.195838 0
M  V30 12299 P 345.538 -6.144 -6.45285 0
M  V30 12300 O 345.318 -7.54673 -6.86199 0
M  V30 12301 O 344.748 -5.12391 -7.179 0
M  V30 12302 O 345.288 -5.99158 -4.88404 0
M  V30 12303 C 346.228 -6.60234 -3.96415 0
M  V30 12304 C 345.498 -7.08259 -2.72856 0
M  V30 12305 O 345.288 -5.9427 -1.83651 0
M  V30 12306 C 344.098 -7.64886 -2.9555 0
M  V30 12307 O 343.708 -8.53963 -1.90717 0
M  V30 12308 C 343.218 -6.4116 -2.90739 0
M  V30 12309 C 343.928 -5.55375 -1.86963 0
M  V30 12310 N 343.878 -4.09664 -2.15742 0
M  V30 12311 H 346.717 -7.45574 -4.45629 0
M  V30 12312 H 346.989 -5.86232 -3.67314 0
M  V30 12313 H 346.121 -7.84412 -2.24479 0
M  V30 12314 P 342.158 -8.7635 -1.60911 0
M  V30 12315 O 341.938 -10.1388 -1.11561 0
M  V30 12316 O 341.368 -8.36503 -2.79617 0
M  V30 12317 O 341.908 -7.71806 -0.42951 0
M  V30 12318 C 342.848 -7.67148 0.673689 0
M  V30 12319 C 342.118 -7.33374 1.95559 0
M  V30 12320 O 341.908 -5.88721 2.00726 0
M  V30 12321 C 340.718 -7.92526 2.10483 0
M  V30 12322 O 340.328 -8.02971 3.47653 0
M  V30 12323 C 339.838 -6.89602 1.41652 0
M  V30 12324 C 340.548 -5.59201 1.75185 0
M  V30 12325 N 340.498 -4.58235 0.662552 0
M  V30 12326 H 343.337 -8.65116 0.777161 0
M  V30 12327 H 343.609 -6.90173 0.474152 0
M  V30 12328 H 342.741 -7.66548 2.79458 0
M  V30 12329 P 338.778 -8.03563 3.84925 0
M  V30 12330 O 338.558 -8.85821 5.0569 0
M  V30 12331 O 337.988 -8.41101 2.65469 0
M  V30 12332 O 338.528 -6.4965 4.18908 0
M  V30 12333 C 339.468 -5.81037 5.05421 0
M  V30 12334 C 338.738 -4.78366 5.89277 0
M  V30 12335 O 338.528 -3.58302 5.08433 0
M  V30 12336 C 337.338 -5.17448 6.36119 0
M  V30 12337 O 336.948 -4.45271 7.53232 0
M  V30 12338 C 336.458 -4.74639 5.19936 0
M  V30 12339 C 337.168 -3.49432 4.70418 0
M  V30 12340 N 337.118 -3.31776 3.22945 0
M  V30 12341 H 339.957 -6.54213 5.71376 0
M  V30 12342 H 340.229 -5.30492 4.44033 0
M  V30 12343 H 339.361 -4.55889 6.76652 0
M  V30 12344 P 335.398 -4.23843 7.83734 0
M  V30 12345 O 335.178 -4.19407 9.29784 0
M  V30 12346 O 334.608 -5.24426 7.09156 0
M  V30 12347 O 335.148 -2.7935 7.20758 0
M  V30 12348 C 336.088 -1.7299 7.50419 0
M  V30 12349 C 335.358 -0.406376 7.57911 0
M  V30 12350 O 335.148 0.0897726 6.21935 0
M  V30 12351 C 333.958 -0.447224 8.1878 0
M  V30 12352 O 333.568 0.825065 8.71101 0
M  V30 12353 C 333.078 -0.783801 6.99623 0
M  V30 12354 C 333.788 -0.0619192 5.85967 0
M  V30 12355 N 333.738 -0.7859 4.56281 0
M  V30 12356 H 336.577 -1.93423 8.4679 0
M  V30 12357 H 336.849 -1.68181 6.71046 0
M  V30 12358 H 335.981 0.289041 8.15388 0
M  V30 12359 P 332.018 1.17771 8.83182 0
M  V30 12360 O 331.798 2.07206 9.98732 0
M  V30 12361 O 331.228 -0.0743816 8.81969 0
M  V30 12362 O 331.768 1.97652 7.47304 0
M  V30 12363 C 332.708 3.01133 7.08783 0
M  V30 12364 C 331.978 4.12613 6.37049 0
M  V30 12365 O 331.768 3.72827 4.97879 0
M  V30 12366 C 330.578 4.45085 6.88694 0
M  V30 12367 O 330.188 5.7877 6.5624 0
M  V30 12368 C 329.698 3.47817 6.12078 0
M  V30 12369 C 330.408 3.39414 4.77697 0
M  V30 12370 N 330.358 2.04615 4.15333 0
M  V30 12371 H 333.197 3.41248 7.98759 0
M  V30 12372 H 333.469 2.5837 6.41742 0
M  V30 12373 H 332.601 5.02657 6.42673 0
M  V30 12374 P 328.638 6.144 6.45285 0
M  V30 12375 O 328.418 7.54673 6.86199 0
M  V30 12376 O 327.848 5.12391 7.179 0
M  V30 12377 O 328.388 5.99158 4.88404 0
M  V30 12378 C 329.328 6.60234 3.96415 0
M  V30 12379 C 328.598 7.08259 2.72856 0
M  V30 12380 O 328.388 5.9427 1.83651 0
M  V30 12381 C 327.198 7.64886 2.9555 0
M  V30 12382 O 326.808 8.53963 1.90717 0
M  V30 12383 C 326.318 6.4116 2.90739 0
M  V30 12384 C 327.028 5.55375 1.86963 0
M  V30 12385 N 326.978 4.09448 2.16152 0
M  V30 12386 H 329.817 7.45574 4.45629 0
M  V30 12387 H 330.089 5.85864 3.679 0
M  V30 12388 H 329.221 7.84412 2.24479 0
M  V30 12389 H 326.566 5.73457 0.888562 0
M  V30 12390 H 326.286 5.90877 3.88583 0
M  V30 12391 H 325.295 6.6596 2.58858 0
M  V30 12392 H 327.129 8.16339 3.92049 0
M  V30 12393 P 325.258 8.7635 1.60911 0
M  V30 12394 O 325.038 10.1388 1.11561 0
M  V30 12395 O 324.468 8.36503 2.79617 0
M  V30 12396 O 325.008 7.71806 0.42951 0
M  V30 12397 C 325.948 7.66948 -0.673514 0
M  V30 12398 C 325.218 7.33374 -1.95559 0
M  V30 12399 O 325.008 5.88721 -2.00726 0
M  V30 12400 C 323.818 7.92218 -2.1125 0
M  V30 12401 O 323.428 8.02971 -3.47653 0
M  V30 12402 C 322.938 6.89504 -1.41631 0
M  V30 12403 C 323.648 5.59106 -1.75155 0
M  V30 12404 N 323.598 4.58136 -0.662409 0
M  V30 12405 C 323.448 3.26059 -1.02863 0
M  V30 12406 O 323.358 2.90743 -2.19009 0
M  V30 12407 N 323.408 2.35995 0.0155585 0
M  V30 12408 C 323.498 2.65248 1.35603 0
M  V30 12409 C 323.648 4.05747 1.64698 0
M  V30 12410 C 323.698 4.96734 0.652411 0
M  V30 12411 H 326.439 8.64917 -0.776982 0
M  V30 12412 H 326.708 6.89974 -0.474015 0
M  V30 12413 H 325.841 7.66548 -2.79458 0
M  V30 12414 H 323.186 5.16076 -2.65138 0
M  V30 12415 H 322.907 7.06433 -0.329384 0
M  V30 12416 H 321.915 6.90829 -1.81996 0
M  V30 12417 H 323.749 8.90774 -1.62639 0
M  V30 12418 H 323.82 6.02181 0.895285 0
M  V30 12419 P 321.878 8.03563 -3.84925 0
M  V30 12420 O 321.658 8.85821 -5.0569 0
M  V30 12421 O 321.088 8.41101 -2.65469 0
M  V30 12422 O 321.628 6.4965 -4.18908 0
M  V30 12423 C 322.568 5.80886 -5.05289 0
M  V30 12424 C 321.838 4.78366 -5.89277 0
M  V30 12425 O 321.628 3.58302 -5.08433 0
M  V30 12426 C 320.438 5.16748 -6.36559 0
M  V30 12427 O 320.048 4.45271 -7.53232 0
M  V30 12428 C 319.558 4.74572 -5.19863 0
M  V30 12429 C 320.268 3.49373 -4.70338 0
M  V30 12430 N 320.218 3.31704 -3.22876 0
M  V30 12431 C 320.068 2.03326 -2.74871 0
M  V30 12432 O 319.978 1.06486 -3.48076 0
M  V30 12433 N 320.028 1.91838 -1.37456 0
M  V30 12434 C 320.118 2.94295 -0.462035 0
M  V30 12435 C 320.268 4.25064 -1.05249 0
M  V30 12436 C 320.318 4.40214 -2.39192 0
M  V30 12437 H 323.059 6.54063 -5.71245 0
M  V30 12438 H 323.328 5.30339 -4.43905 0
M  V30 12439 H 322.461 4.55889 -6.76652 0
M  V30 12440 H 319.806 2.6167 -5.17842 0
M  V30 12441 H 319.527 5.52155 -4.41878 0
M  V30 12442 H 318.535 4.51918 -5.53297 0
M  V30 12443 H 320.369 6.25055 -6.55162 0
M  V30 12444 H 320.44 5.39798 -2.81523 0
M  V30 12445 P 318.498 4.23843 -7.83734 0
M  V30 12446 O 318.278 4.19407 -9.29784 0
M  V30 12447 O 317.708 5.24426 -7.09156 0
M  V30 12448 O 318.248 2.7935 -7.20758 0
M  V30 12449 C 319.188 1.7299 -7.50419 0
M  V30 12450 C 318.458 0.406376 -7.57911 0
M  V30 12451 O 318.248 -0.0897726 -6.21935 0
M  V30 12452 C 317.058 0.447224 -8.1878 0
M  V30 12453 O 316.668 -0.825065 -8.71101 0
M  V30 12454 C 316.178 0.783801 -6.99623 0
M  V30 12455 C 316.888 0.0619192 -5.85967 0
M  V30 12456 N 316.838 0.7859 -4.56281 0
M  V30 12457 H 319.677 1.93423 -8.4679 0
M  V30 12458 H 319.949 1.68181 -6.71046 0
M  V30 12459 H 319.081 -0.289041 -8.15388 0
M  V30 12460 P 315.118 -1.17771 -8.83182 0
M  V30 12461 O 314.898 -2.07206 -9.98732 0
M  V30 12462 O 314.328 0.0743816 -8.81969 0
M  V30 12463 O 314.868 -1.97652 -7.47304 0
M  V30 12464 C 315.808 -3.01133 -7.08783 0
M  V30 12465 C 315.078 -4.12613 -6.37049 0
M  V30 12466 O 314.868 -3.72827 -4.97879 0
M  V30 12467 C 313.678 -4.45085 -6.88694 0
M  V30 12468 O 313.288 -5.7877 -6.5624 0
M  V30 12469 C 312.798 -3.47817 -6.12078 0
M  V30 12470 C 313.508 -3.39414 -4.77697 0
M  V30 12471 N 313.458 -2.04615 -4.15333 0
M  V30 12472 H 316.297 -3.41248 -7.98759 0
M  V30 12473 H 316.569 -2.5837 -6.41742 0
M  V30 12474 H 315.701 -5.02657 -6.42673 0
M  V30 12475 P 311.738 -6.144 -6.45285 0
M  V30 12476 O 311.518 -7.54673 -6.86199 0
M  V30 12477 O 310.948 -5.12391 -7.179 0
M  V30 12478 O 311.488 -5.99158 -4.88404 0
M  V30 12479 C 312.428 -6.60234 -3.96415 0
M  V30 12480 C 311.698 -7.08259 -2.72856 0
M  V30 12481 O 311.488 -5.9427 -1.83651 0
M  V30 12482 C 310.298 -7.64886 -2.9555 0
M  V30 12483 O 309.908 -8.53963 -1.90717 0
M  V30 12484 C 309.418 -6.4116 -2.90739 0
M  V30 12485 C 310.128 -5.55375 -1.86963 0
M  V30 12486 N 310.078 -4.09664 -2.15742 0
M  V30 12487 H 312.917 -7.45574 -4.45629 0
M  V30 12488 H 313.189 -5.86232 -3.67314 0
M  V30 12489 H 312.321 -7.84412 -2.24479 0
M  V30 12490 P 308.358 -8.7635 -1.60911 0
M  V30 12491 O 308.138 -10.1388 -1.11561 0
M  V30 12492 O 307.568 -8.36503 -2.79617 0
M  V30 12493 O 308.108 -7.71806 -0.42951 0
M  V30 12494 C 309.048 -7.67148 0.673689 0
M  V30 12495 C 308.318 -7.33374 1.95559 0
M  V30 12496 O 308.108 -5.88721 2.00726 0
M  V30 12497 C 306.918 -7.92526 2.10483 0
M  V30 12498 O 306.528 -8.02971 3.47653 0
M  V30 12499 C 306.038 -6.89602 1.41652 0
M  V30 12500 C 306.748 -5.59201 1.75185 0
M  V30 12501 N 306.698 -4.58235 0.662552 0
M  V30 12502 H 309.537 -8.65116 0.777161 0
M  V30 12503 H 309.809 -6.90173 0.474152 0
M  V30 12504 H 308.941 -7.66548 2.79458 0
M  V30 12505 P 304.978 -8.03563 3.84925 0
M  V30 12506 O 304.758 -8.85821 5.0569 0
M  V30 12507 O 304.188 -8.41101 2.65469 0
M  V30 12508 O 304.728 -6.4965 4.18908 0
M  V30 12509 C 305.668 -5.81037 5.05421 0
M  V30 12510 C 304.938 -4.78366 5.89277 0
M  V30 12511 O 304.728 -3.58302 5.08433 0
M  V30 12512 C 303.538 -5.17448 6.36119 0
M  V30 12513 O 303.148 -4.45271 7.53232 0
M  V30 12514 C 302.658 -4.74639 5.19936 0
M  V30 12515 C 303.368 -3.49432 4.70418 0
M  V30 12516 N 303.318 -3.32099 3.22613 0
M  V30 12517 C 303.398 -4.28245 2.25527 0
M  V30 12518 N 303.328 -3.80823 1.04874 0
M  V30 12519 C 303.178 -2.44571 1.23535 0
M  V30 12520 C 303.048 -1.37068 0.330675 0
M  V30 12521 N 303.038 -1.51472 -0.990824 0
M  V30 12522 N 302.928 -0.138614 0.848756 0
M  V30 12523 C 302.938 0.00675923 2.16999 0
M  V30 12524 N 303.058 -0.904372 3.11122 0
M  V30 12525 C 303.178 -2.12707 2.56212 0
M  V30 12526 H 306.157 -6.54213 5.71376 0
M  V30 12527 H 306.429 -5.30936 4.43503 0
M  V30 12528 H 305.561 -4.55889 6.76652 0
M  V30 12529 H 302.906 -2.61715 5.17932 0
M  V30 12530 H 302.626 -5.52155 4.41878 0
M  V30 12531 H 301.635 -4.51981 5.53374 0
M  V30 12532 H 303.469 -6.25124 6.55234 0
M  V30 12533 H 303.51 -5.34372 2.47488 0
M  V30 12534 H 303.129 -2.45153 -1.4078 0
M  V30 12535 H 302.94 -0.688422 -1.59911 0
M  V30 12536 H 302.832 1.02584 2.52346 0
M  V30 12537 P 301.598 -4.23843 7.83734 0
M  V30 12538 O 301.378 -4.19407 9.29784 0
M  V30 12539 O 300.808 -5.24426 7.09156 0
M  V30 12540 O 301.348 -2.7935 7.20758 0
M  V30 12541 C 302.288 -1.72945 7.50224 0
M  V30 12542 C 301.558 -0.406376 7.57911 0
M  V30 12543 O 301.348 0.0897726 6.21935 0
M  V30 12544 C 300.158 -0.438983 8.18724 0
M  V30 12545 O 299.768 0.825065 8.71101 0
M  V30 12546 C 299.278 -0.783689 6.99524 0
M  V30 12547 C 299.988 -0.0619086 5.85867 0
M  V30 12548 N 299.938 -0.78573 4.56183 0
M  V30 12549 C 299.788 -0.0292889 3.41887 0
M  V30 12550 O 299.698 1.18445 3.4419 0
M  V30 12551 N 299.748 -0.744061 2.23964 0
M  V30 12552 C 299.838 -2.10932 2.10362 0
M  V30 12553 O 299.788 -2.64117 0.98825 0
M  V30 12554 C 299.988 -2.8202 3.34994 0
M  V30 12555 C 300.098 -4.31095 3.25037 0
M  V30 12556 C 300.038 -2.15547 4.52261 0
M  V30 12557 H 302.779 -1.93379 8.46595 0
M  V30 12558 H 303.048 -1.68132 6.70852 0
M  V30 12559 H 302.181 0.289041 8.15388 0
M  V30 12560 H 299.526 0.926847 5.72749 0
M  V30 12561 H 299.247 -1.86973 6.82036 0
M  V30 12562 H 298.255 -0.403896 7.13257 0
M  V30 12563 H 300.089 -1.20585 8.97435 0
M  V30 12564 H 300.16 -2.71231 5.45042 0
M  V30 12565 H 299.13 -4.76966 3.49992 0
M  V30 12566 H 300.867 -4.67047 3.95024 0
M  V30 12567 H 300.379 -4.58996 2.22312 0
M  V30 12568 H 299.643 -0.214893 1.39758 0
M  V30 12569 P 298.218 1.17771 8.83182 0
M  V30 12570 O 297.998 2.07206 9.98732 0
M  V30 12571 O 297.428 -0.0743816 8.81969 0
M  V30 12572 O 297.968 1.97652 7.47304 0
M  V30 12573 C 298.908 3.01133 7.08783 0
M  V30 12574 C 298.178 4.12613 6.37049 0
M  V30 12575 O 297.968 3.72827 4.97879 0
M  V30 12576 C 296.778 4.45085 6.88694 0
M  V30 12577 O 296.388 5.7877 6.5624 0
M  V30 12578 C 295.898 3.47817 6.12078 0
M  V30 12579 C 296.608 3.39414 4.77697 0
M  V30 12580 N 296.558 2.04199 4.15538 0
M  V30 12581 C 296.638 0.821545 4.76977 0
M  V30 12582 N 296.568 -0.1794 3.94592 0
M  V30 12583 C 296.418 0.419121 2.70776 0
M  V30 12584 C 296.288 -0.109072 1.40577 0
M  V30 12585 N 296.278 -1.4104 1.1344 0
M  V30 12586 N 296.168 0.764381 0.39411 0
M  V30 12587 C 296.178 2.06587 0.664135 0
M  V30 12588 N 296.298 2.67948 1.82153 0
M  V30 12589 C 296.418 1.77942 2.8147 0
M  V30 12590 H 299.397 3.41248 7.98759 0
M  V30 12591 H 299.669 2.57728 6.42 0
M  V30 12592 H 298.801 5.02657 6.42673 0
M  V30 12593 H 296.146 4.11708 4.08956 0
M  V30 12594 H 295.866 2.49626 6.61679 0
M  V30 12595 H 294.875 3.8662 6.00862 0
M  V30 12596 H 296.709 4.29991 7.97006 0
M  V30 12597 H 296.75 0.702451 5.84696 0
M  V30 12598 H 296.369 -2.09647 1.89651 0
M  V30 12599 H 296.18 -1.73358 0.160575 0
M  V30 12600 H 296.072 2.71695 -0.195838 0
M  V30 12601 P 294.838 6.144 6.45285 0
M  V30 12602 O 294.618 7.54673 6.86199 0
M  V30 12603 O 294.048 5.12391 7.179 0
M  V30 12604 O 294.588 5.99158 4.88404 0
M  V30 12605 C 295.528 6.60234 3.96415 0
M  V30 12606 C 294.798 7.08259 2.72856 0
M  V30 12607 O 294.588 5.9427 1.83651 0
M  V30 12608 C 293.398 7.64886 2.9555 0
M  V30 12609 O 293.008 8.53963 1.90717 0
M  V30 12610 C 292.518 6.4116 2.90739 0
M  V30 12611 C 293.228 5.55375 1.86963 0
M  V30 12612 N 293.178 4.09448 2.16152 0
M  V30 12613 C 293.258 3.46824 3.37593 0
M  V30 12614 N 293.188 2.17422 3.29777 0
M  V30 12615 C 293.038 1.93065 1.94427 0
M  V30 12616 C 292.908 0.738053 1.20141 0
M  V30 12617 N 292.898 -0.474256 1.74676 0
M  V30 12618 N 292.788 0.850049 -0.13045 0
M  V30 12619 C 292.798 2.06169 -0.676992 0
M  V30 12620 N 292.918 3.23842 -0.101312 0
M  V30 12621 C 293.038 3.09402 1.23122 0
M  V30 12622 H 296.017 7.45574 4.45629 0
M  V30 12623 H 296.289 5.85864 3.679 0
M  V30 12624 H 295.421 7.84412 2.24479 0
M  V30 12625 H 292.766 5.73457 0.888562 0
M  V30 12626 H 292.486 5.90877 3.88583 0
M  V30 12627 H 291.495 6.6596 2.58858 0
M  V30 12628 H 293.329 8.16339 3.92049 0
M  V30 12629 H 293.37 4.00505 4.3174 0
M  V30 12630 H 292.989 -0.581337 2.76658 0
M  V30 12631 H 292.8 -1.30811 1.14888 0
M  V30 12632 H 292.692 2.08295 -1.75542 0
M  V30 12633 P 291.458 8.7635 1.60911 0
M  V30 12634 O 291.238 10.1388 1.11561 0
M  V30 12635 O 290.668 8.36503 2.79617 0
M  V30 12636 O 291.208 7.71806 0.42951 0
M  V30 12637 C 292.148 7.67148 -0.673689 0
M  V30 12638 C 291.418 7.33374 -1.95559 0
M  V30 12639 O 291.208 5.88721 -2.00726 0
M  V30 12640 C 290.018 7.92526 -2.10483 0
M  V30 12641 O 289.628 8.02971 -3.47653 0
M  V30 12642 C 289.138 6.89602 -1.41652 0
M  V30 12643 C 289.848 5.59201 -1.75185 0
M  V30 12644 N 289.798 4.58235 -0.662552 0
M  V30 12645 H 292.637 8.65116 -0.777161 0
M  V30 12646 H 292.909 6.90173 -0.474152 0
M  V30 12647 H 292.041 7.66548 -2.79458 0
M  V30 12648 P 288.078 8.03563 -3.84925 0
M  V30 12649 O 287.858 8.85821 -5.0569 0
M  V30 12650 O 287.288 8.41101 -2.65469 0
M  V30 12651 O 287.828 6.49734 -4.18962 0
M  V30 12652 C 288.768 5.81037 -5.05421 0
M  V30 12653 C 288.038 4.79018 -5.88876 0
M  V30 12654 O 287.828 3.58359 -5.08515 0
M  V30 12655 C 286.638 5.17448 -6.36119 0
M  V30 12656 O 286.248 4.45322 -7.53318 0
M  V30 12657 C 285.758 4.74639 -5.19936 0
M  V30 12658 C 286.468 3.49432 -4.70418 0
M  V30 12659 N 286.418 3.31776 -3.22945 0
M  V30 12660 C 286.268 2.02742 -2.72939 0
M  V30 12661 O 286.178 1.08301 -3.52749 0
M  V30 12662 N 286.218 1.96117 -1.22063 0
M  V30 12663 C 286.318 2.8878 -0.551566 0
M  V30 12664 N 286.268 2.65609 0.750198 0
M  V30 12665 C 286.468 4.22457 -1.03707 0
M  V30 12666 C 286.518 4.37979 -2.39113 0
M  V30 12667 H 289.258 6.54138 -5.7131 0
M  V30 12668 H 289.528 5.30492 -4.44033 0
M  V30 12669 H 288.661 4.55945 -6.76735 0
M  V30 12670 H 286.006 2.6176 -5.18021 0
M  V30 12671 H 285.726 5.52233 -4.41941 0
M  V30 12672 H 284.735 4.52045 -5.53452 0
M  V30 12673 H 286.569 6.25124 -6.55234 0
M  V30 12674 H 286.641 5.37936 -2.80552 0
M  V30 12675 H 286.539 5.07528 -0.359553 0
M  V30 12676 H 286.151 1.69403 1.09847 0
M  V30 12677 H 286.347 3.43701 1.41792 0
M  V30 12678 P 284.698 4.23843 -7.83734 0
M  V30 12679 O 284.478 4.19407 -9.29784 0
M  V30 12680 O 283.908 5.24426 -7.09156 0
M  V30 12681 O 284.448 2.7935 -7.20758 0
M  V30 12682 C 285.388 1.7299 -7.50419 0
M  V30 12683 C 284.658 0.406376 -7.57911 0
M  V30 12684 O 284.448 -0.0897726 -6.21935 0
M  V30 12685 C 283.258 0.447224 -8.1878 0
M  V30 12686 O 282.868 -0.825065 -8.71101 0
M  V30 12687 C 282.378 0.783801 -6.99623 0
M  V30 12688 C 283.088 0.0619192 -5.85967 0
M  V30 12689 N 283.038 0.7859 -4.56281 0
M  V30 12690 H 285.877 1.93423 -8.4679 0
M  V30 12691 H 286.149 1.68181 -6.71046 0
M  V30 12692 H 285.281 -0.289041 -8.15388 0
M  V30 12693 P 281.318 -1.17771 -8.83182 0
M  V30 12694 O 281.098 -2.07206 -9.98732 0
M  V30 12695 O 280.528 0.0743816 -8.81969 0
M  V30 12696 O 281.068 -1.97652 -7.47304 0
M  V30 12697 C 282.008 -3.01133 -7.08783 0
M  V30 12698 C 281.278 -4.12613 -6.37049 0
M  V30 12699 O 281.068 -3.72827 -4.97879 0
M  V30 12700 C 279.878 -4.45085 -6.88694 0
M  V30 12701 O 279.488 -5.7877 -6.5624 0
M  V30 12702 C 278.998 -3.47817 -6.12078 0
M  V30 12703 C 279.708 -3.39414 -4.77697 0
M  V30 12704 N 279.658 -2.04615 -4.15333 0
M  V30 12705 H 282.497 -3.41248 -7.98759 0
M  V30 12706 H 282.769 -2.5837 -6.41742 0
M  V30 12707 H 281.901 -5.02657 -6.42673 0
M  V30 12708 P 277.938 -6.144 -6.45285 0
M  V30 12709 O 277.718 -7.54673 -6.86199 0
M  V30 12710 O 277.148 -5.12391 -7.179 0
M  V30 12711 O 277.688 -5.99158 -4.88404 0
M  V30 12712 C 278.628 -6.60234 -3.96415 0
M  V30 12713 C 277.898 -7.08259 -2.72856 0
M  V30 12714 O 277.688 -5.9427 -1.83651 0
M  V30 12715 C 276.498 -7.64886 -2.9555 0
M  V30 12716 O 276.108 -8.53963 -1.90717 0
M  V30 12717 C 275.618 -6.4116 -2.90739 0
M  V30 12718 C 276.328 -5.55375 -1.86963 0
M  V30 12719 N 276.278 -4.09664 -2.15742 0
M  V30 12720 H 279.117 -7.45574 -4.45629 0
M  V30 12721 H 279.389 -5.86232 -3.67314 0
M  V30 12722 H 278.521 -7.84412 -2.24479 0
M  V30 12723 P 274.558 -8.7635 -1.60911 0
M  V30 12724 O 274.338 -10.1388 -1.11561 0
M  V30 12725 O 273.768 -8.36503 -2.79617 0
M  V30 12726 O 274.308 -7.71806 -0.42951 0
M  V30 12727 C 275.248 -7.67148 0.673689 0
M  V30 12728 C 274.518 -7.33374 1.95559 0
M  V30 12729 O 274.308 -5.88721 2.00726 0
M  V30 12730 C 273.118 -7.92526 2.10483 0
M  V30 12731 O 272.728 -8.02971 3.47653 0
M  V30 12732 C 272.238 -6.89602 1.41652 0
M  V30 12733 C 272.948 -5.59201 1.75185 0
M  V30 12734 N 272.898 -4.58235 0.662552 0
M  V30 12735 H 275.737 -8.65116 0.777161 0
M  V30 12736 H 276.009 -6.90173 0.474152 0
M  V30 12737 H 275.141 -7.66548 2.79458 0
M  V30 12738 P 271.178 -8.03563 3.84925 0
M  V30 12739 O 270.958 -8.85821 5.0569 0
M  V30 12740 O 270.388 -8.41101 2.65469 0
M  V30 12741 O 270.928 -6.4965 4.18908 0
M  V30 12742 C 271.868 -5.81037 5.05421 0
M  V30 12743 C 271.138 -4.78366 5.89277 0
M  V30 12744 O 270.928 -3.58302 5.08433 0
M  V30 12745 C 269.738 -5.17448 6.36119 0
M  V30 12746 O 269.348 -4.45271 7.53232 0
M  V30 12747 C 268.858 -4.74639 5.19936 0
M  V30 12748 C 269.568 -3.49432 4.70418 0
M  V30 12749 N 269.518 -3.32099 3.22613 0
M  V30 12750 H 272.357 -6.54213 5.71376 0
M  V30 12751 H 272.629 -5.30936 4.43503 0
M  V30 12752 H 271.761 -4.55889 6.76652 0
M  V30 12753 H 269.106 -2.61715 5.17932 0
M  V30 12754 H 268.826 -5.52155 4.41878 0
M  V30 12755 H 267.835 -4.51981 5.53374 0
M  V30 12756 H 269.669 -6.25124 6.55234 0
M  V30 12757 P 267.798 -4.23843 7.83734 0
M  V30 12758 O 267.578 -4.19407 9.29784 0
M  V30 12759 O 267.008 -5.24426 7.09156 0
M  V30 12760 O 267.548 -2.7935 7.20758 0
M  V30 12761 C 268.488 -1.72945 7.50224 0
M  V30 12762 C 267.758 -0.406376 7.57911 0
M  V30 12763 O 267.548 0.0897726 6.21935 0
M  V30 12764 C 266.358 -0.438983 8.18724 0
M  V30 12765 O 265.968 0.825065 8.71101 0
M  V30 12766 C 265.478 -0.783689 6.99524 0
M  V30 12767 C 266.188 -0.0619086 5.85867 0
M  V30 12768 N 266.138 -0.78573 4.56183 0
M  V30 12769 C 265.988 -0.0292889 3.41887 0
M  V30 12770 O 265.898 1.18445 3.4419 0
M  V30 12771 N 265.948 -0.744061 2.23964 0
M  V30 12772 C 266.038 -2.10932 2.10362 0
M  V30 12773 O 265.988 -2.64117 0.98825 0
M  V30 12774 C 266.188 -2.8202 3.34994 0
M  V30 12775 C 266.298 -4.31095 3.25037 0
M  V30 12776 C 266.238 -2.15547 4.52261 0
M  V30 12777 H 268.979 -1.93379 8.46595 0
M  V30 12778 H 269.248 -1.68132 6.70852 0
M  V30 12779 H 268.381 0.289041 8.15388 0
M  V30 12780 H 265.726 0.926847 5.72749 0
M  V30 12781 H 265.447 -1.86973 6.82036 0
M  V30 12782 H 264.455 -0.403896 7.13257 0
M  V30 12783 H 266.289 -1.20585 8.97435 0
M  V30 12784 H 266.36 -2.71231 5.45042 0
M  V30 12785 H 265.33 -4.76966 3.49992 0
M  V30 12786 H 267.067 -4.67047 3.95024 0
M  V30 12787 H 266.579 -4.58996 2.22312 0
M  V30 12788 H 265.843 -0.214893 1.39758 0
M  V30 12789 P 264.418 1.17771 8.83182 0
M  V30 12790 O 264.198 2.07206 9.98732 0
M  V30 12791 O 263.628 -0.0743816 8.81969 0
M  V30 12792 O 264.168 1.97652 7.47304 0
M  V30 12793 C 265.108 3.01055 7.08599 0
M  V30 12794 C 264.378 4.12613 6.37049 0
M  V30 12795 O 264.168 3.72827 4.97879 0
M  V30 12796 C 262.978 4.45719 6.88164 0
M  V30 12797 O 262.588 5.7877 6.5624 0
M  V30 12798 C 262.098 3.47768 6.11991 0
M  V30 12799 C 262.808 3.39356 4.77615 0
M  V30 12800 N 262.758 2.04571 4.15244 0
M  V30 12801 C 262.608 1.98587 2.78314 0
M  V30 12802 O 262.518 2.98134 2.08835 0
M  V30 12803 N 262.568 0.714467 2.24925 0
M  V30 12804 C 262.658 -0.470001 2.94169 0
M  V30 12805 O 262.608 -1.55587 2.35195 0
M  V30 12806 C 262.808 -0.312541 4.36783 0
M  V30 12807 C 262.918 -1.57711 5.16352 0
M  V30 12808 C 262.858 0.914512 4.92583 0
M  V30 12809 H 265.599 3.41169 7.98575 0
M  V30 12810 H 265.868 2.58295 6.41556 0
M  V30 12811 H 265.001 5.02657 6.42673 0
M  V30 12812 H 262.346 4.11637 4.08885 0
M  V30 12813 H 262.067 2.49626 6.61679 0
M  V30 12814 H 261.075 3.86566 6.00778 0
M  V30 12815 H 262.909 4.29943 7.96918 0
M  V30 12816 H 262.98 1.00937 6.00374 0
M  V30 12817 H 261.95 -1.80153 5.63503 0
M  V30 12818 H 263.687 -1.4566 5.94104 0
M  V30 12819 H 263.199 -2.40664 4.49645 0
M  V30 12820 H 262.463 0.647622 1.25697 0
M  V30 12821 P 261.038 6.144 6.45285 0
M  V30 12822 O 260.818 7.54673 6.86199 0
M  V30 12823 O 260.248 5.12391 7.179 0
M  V30 12824 O 260.788 5.99158 4.88404 0
M  V30 12825 C 261.728 6.60234 3.96415 0
M  V30 12826 C 260.998 7.08259 2.72856 0
M  V30 12827 O 260.788 5.9427 1.83651 0
M  V30 12828 C 259.598 7.64886 2.9555 0
M  V30 12829 O 259.208 8.53963 1.90717 0
M  V30 12830 C 258.718 6.4116 2.90739 0
M  V30 12831 C 259.428 5.55375 1.86963 0
M  V30 12832 N 259.378 4.09664 2.15742 0
M  V30 12833 H 262.217 7.45574 4.45629 0
M  V30 12834 H 262.489 5.86232 3.67314 0
M  V30 12835 H 261.621 7.84412 2.24479 0
M  V30 12836 P 257.658 8.7635 1.60911 0
M  V30 12837 O 257.438 10.1388 1.11561 0
M  V30 12838 O 256.868 8.36503 2.79617 0
M  V30 12839 O 257.408 7.71806 0.42951 0
M  V30 12840 C 258.348 7.66948 -0.673514 0
M  V30 12841 C 257.618 7.33374 -1.95559 0
M  V30 12842 O 257.408 5.88721 -2.00726 0
M  V30 12843 C 256.218 7.92218 -2.1125 0
M  V30 12844 O 255.828 8.02971 -3.47653 0
M  V30 12845 C 255.338 6.89504 -1.41631 0
M  V30 12846 C 256.048 5.59106 -1.75155 0
M  V30 12847 N 255.998 4.58136 -0.662409 0
M  V30 12848 C 255.848 3.26059 -1.02863 0
M  V30 12849 O 255.758 2.90743 -2.19009 0
M  V30 12850 N 255.808 2.35995 0.0155585 0
M  V30 12851 C 255.898 2.65248 1.35603 0
M  V30 12852 O 255.848 1.75605 2.20651 0
M  V30 12853 C 256.048 4.05747 1.64698 0
M  V30 12854 C 256.158 4.42345 3.09553 0
M  V30 12855 C 256.098 4.96734 0.652411 0
M  V30 12856 H 258.839 8.64917 -0.776982 0
M  V30 12857 H 259.108 6.89974 -0.474015 0
M  V30 12858 H 258.241 7.66548 -2.79458 0
M  V30 12859 H 255.586 5.16076 -2.65138 0
M  V30 12860 H 255.307 7.06433 -0.329384 0
M  V30 12861 H 254.315 6.90829 -1.81996 0
M  V30 12862 H 256.149 8.90774 -1.62639 0
M  V30 12863 H 256.22 6.02181 0.895285 0
M  V30 12864 H 255.19 4.80252 3.45468 0
M  V30 12865 H 256.927 5.20015 3.22119 0
M  V30 12866 H 256.439 3.53269 3.67833 0
M  V30 12867 H 255.703 1.39558 -0.227499 0
M  V30 12868 P 254.279 8.03563 -3.84925 0
M  V30 12869 O 254.059 8.85821 -5.0569 0
M  V30 12870 O 253.489 8.41101 -2.65469 0
M  V30 12871 O 254.029 6.4965 -4.18908 0
M  V30 12872 C 254.969 5.81037 -5.05421 0
M  V30 12873 C 254.239 4.78366 -5.89277 0
M  V30 12874 O 254.029 3.58302 -5.08433 0
M  V30 12875 C 252.839 5.17448 -6.36119 0
M  V30 12876 O 252.449 4.45271 -7.53232 0
M  V30 12877 C 251.959 4.74639 -5.19936 0
M  V30 12878 C 252.669 3.49432 -4.70418 0
M  V30 12879 N 252.619 3.31776 -3.22945 0
M  V30 12880 H 255.458 6.54213 -5.71376 0
M  V30 12881 H 255.73 5.30492 -4.44033 0
M  V30 12882 H 254.862 4.55889 -6.76652 0
M  V30 12883 P 250.899 4.23843 -7.83734 0
M  V30 12884 O 250.679 4.19407 -9.29784 0
M  V30 12885 O 250.109 5.24426 -7.09156 0
M  V30 12886 O 250.649 2.7935 -7.20758 0
M  V30 12887 C 251.589 1.7299 -7.50419 0
M  V30 12888 C 250.859 0.406376 -7.57911 0
M  V30 12889 O 250.649 -0.0897726 -6.21935 0
M  V30 12890 C 249.459 0.447224 -8.1878 0
M  V30 12891 O 249.069 -0.825065 -8.71101 0
M  V30 12892 C 248.579 0.783801 -6.99623 0
M  V30 12893 C 249.289 0.0619192 -5.85967 0
M  V30 12894 N 249.239 0.7859 -4.56281 0
M  V30 12895 H 252.078 1.93423 -8.4679 0
M  V30 12896 H 252.35 1.68181 -6.71046 0
M  V30 12897 H 251.482 -0.289041 -8.15388 0
M  V30 12898 P 247.519 -1.17771 -8.83182 0
M  V30 12899 O 247.299 -2.07206 -9.98732 0
M  V30 12900 O 246.729 0.0743816 -8.81969 0
M  V30 12901 O 247.269 -1.97652 -7.47304 0
M  V30 12902 C 248.209 -3.01133 -7.08783 0
M  V30 12903 C 247.479 -4.12613 -6.37049 0
M  V30 12904 O 247.269 -3.72827 -4.97879 0
M  V30 12905 C 246.079 -4.45085 -6.88694 0
M  V30 12906 O 245.689 -5.7877 -6.5624 0
M  V30 12907 C 245.199 -3.47817 -6.12078 0
M  V30 12908 C 245.909 -3.39414 -4.77697 0
M  V30 12909 N 245.859 -2.04199 -4.15538 0
M  V30 12910 H 248.698 -3.41248 -7.98759 0
M  V30 12911 H 248.97 -2.57728 -6.42 0
M  V30 12912 H 248.102 -5.02657 -6.42673 0
M  V30 12913 H 245.447 -4.11708 -4.08956 0
M  V30 12914 H 245.167 -2.49626 -6.61679 0
M  V30 12915 H 244.176 -3.8662 -6.00862 0
M  V30 12916 H 246.01 -4.29991 -7.97006 0
M  V30 12917 P 244.139 -6.144 -6.45285 0
M  V30 12918 O 243.919 -7.54673 -6.86199 0
M  V30 12919 O 243.349 -5.12391 -7.179 0
M  V30 12920 O 243.889 -5.99158 -4.88404 0
M  V30 12921 C 244.829 -6.60234 -3.96415 0
M  V30 12922 C 244.099 -7.08259 -2.72856 0
M  V30 12923 O 243.889 -5.9427 -1.83651 0
M  V30 12924 C 242.699 -7.64886 -2.9555 0
M  V30 12925 O 242.309 -8.53963 -1.90717 0
M  V30 12926 C 241.819 -6.4116 -2.90739 0
M  V30 12927 C 242.529 -5.55375 -1.86963 0
M  V30 12928 N 242.479 -4.09448 -2.16152 0
M  V30 12929 H 245.318 -7.45574 -4.45629 0
M  V30 12930 H 245.59 -5.85864 -3.679 0
M  V30 12931 H 244.722 -7.84412 -2.24479 0
M  V30 12932 H 242.067 -5.73457 -0.888562 0
M  V30 12933 H 241.787 -5.90877 -3.88583 0
M  V30 12934 H 240.796 -6.6596 -2.58858 0
M  V30 12935 H 242.63 -8.16339 -3.92049 0
M  V30 12936 P 240.759 -8.7635 -1.60911 0
M  V30 12937 O 240.539 -10.1388 -1.11561 0
M  V30 12938 O 239.969 -8.36503 -2.79617 0
M  V30 12939 O 240.509 -7.71806 -0.42951 0
M  V30 12940 C 241.449 -7.66948 0.673514 0
M  V30 12941 C 240.719 -7.33374 1.95559 0
M  V30 12942 O 240.509 -5.88721 2.00726 0
M  V30 12943 C 239.319 -7.92218 2.1125 0
M  V30 12944 O 238.929 -8.02971 3.47653 0
M  V30 12945 C 238.439 -6.89504 1.41631 0
M  V30 12946 C 239.149 -5.59106 1.75155 0
M  V30 12947 N 239.099 -4.58136 0.662409 0
M  V30 12948 C 238.949 -3.26059 1.02863 0
M  V30 12949 O 238.859 -2.90743 2.19009 0
M  V30 12950 N 238.909 -2.35995 -0.0155585 0
M  V30 12951 C 238.999 -2.65248 -1.35603 0
M  V30 12952 O 238.949 -1.75605 -2.20651 0
M  V30 12953 C 239.149 -4.05747 -1.64698 0
M  V30 12954 C 239.259 -4.42345 -3.09553 0
M  V30 12955 C 239.199 -4.96734 -0.652411 0
M  V30 12956 H 241.94 -8.64917 0.776982 0
M  V30 12957 H 242.209 -6.89974 0.474015 0
M  V30 12958 H 241.342 -7.66548 2.79458 0
M  V30 12959 H 238.687 -5.16076 2.65138 0
M  V30 12960 H 238.408 -7.06433 0.329384 0
M  V30 12961 H 237.416 -6.90829 1.81996 0
M  V30 12962 H 239.25 -8.90774 1.62639 0
M  V30 12963 H 239.321 -6.02181 -0.895285 0
M  V30 12964 H 238.291 -4.80252 -3.45468 0
M  V30 12965 H 240.028 -5.20015 -3.22119 0
M  V30 12966 H 239.54 -3.53269 -3.67833 0
M  V30 12967 H 238.804 -1.39558 0.227499 0
M  V30 12968 P 237.379 -8.03563 3.84925 0
M  V30 12969 O 237.159 -8.85821 5.0569 0
M  V30 12970 O 236.589 -8.41101 2.65469 0
M  V30 12971 O 237.129 -6.4965 4.18908 0
M  V30 12972 C 238.069 -5.81037 5.05421 0
M  V30 12973 C 237.339 -4.78366 5.89277 0
M  V30 12974 O 237.129 -3.58302 5.08433 0
M  V30 12975 C 235.939 -5.17448 6.36119 0
M  V30 12976 O 235.549 -4.45271 7.53232 0
M  V30 12977 C 235.059 -4.74639 5.19936 0
M  V30 12978 C 235.769 -3.49432 4.70418 0
M  V30 12979 N 235.719 -3.32099 3.22613 0
M  V30 12980 H 238.558 -6.54213 5.71376 0
M  V30 12981 H 238.83 -5.30936 4.43503 0
M  V30 12982 H 237.962 -4.55889 6.76652 0
M  V30 12983 H 235.307 -2.61715 5.17932 0
M  V30 12984 H 235.027 -5.52155 4.41878 0
M  V30 12985 H 234.036 -4.51981 5.53374 0
M  V30 12986 H 235.87 -6.25124 6.55234 0
M  V30 12987 P 233.999 -4.23843 7.83734 0
M  V30 12988 O 233.779 -4.19407 9.29784 0
M  V30 12989 O 233.209 -5.24426 7.09156 0
M  V30 12990 O 233.749 -2.7935 7.20758 0
M  V30 12991 C 234.689 -1.72945 7.50224 0
M  V30 12992 C 233.959 -0.406376 7.57911 0
M  V30 12993 O 233.749 0.0897726 6.21935 0
M  V30 12994 C 232.559 -0.438983 8.18724 0
M  V30 12995 O 232.169 0.825065 8.71101 0
M  V30 12996 C 231.679 -0.783689 6.99524 0
M  V30 12997 C 232.389 -0.0619086 5.85867 0
M  V30 12998 N 232.339 -0.78573 4.56183 0
M  V30 12999 C 232.189 -0.0292889 3.41887 0
M  V30 13000 O 232.099 1.18445 3.4419 0
M  V30 13001 N 232.149 -0.744061 2.23964 0
M  V30 13002 C 232.239 -2.10932 2.10362 0
M  V30 13003 O 232.189 -2.64117 0.98825 0
M  V30 13004 C 232.389 -2.8202 3.34994 0
M  V30 13005 C 232.499 -4.31095 3.25037 0
M  V30 13006 C 232.439 -2.15547 4.52261 0
M  V30 13007 H 235.18 -1.93379 8.46595 0
M  V30 13008 H 235.449 -1.68132 6.70852 0
M  V30 13009 H 234.582 0.289041 8.15388 0
M  V30 13010 H 231.927 0.926847 5.72749 0
M  V30 13011 H 231.648 -1.86973 6.82036 0
M  V30 13012 H 230.656 -0.403896 7.13257 0
M  V30 13013 H 232.49 -1.20585 8.97435 0
M  V30 13014 H 232.561 -2.71231 5.45042 0
M  V30 13015 H 231.531 -4.76966 3.49992 0
M  V30 13016 H 233.268 -4.67047 3.95024 0
M  V30 13017 H 232.78 -4.58996 2.22312 0
M  V30 13018 H 232.044 -0.214893 1.39758 0
M  V30 13019 P 230.619 1.17771 8.83182 0
M  V30 13020 O 230.399 2.07206 9.98732 0
M  V30 13021 O 229.829 -0.0743816 8.81969 0
M  V30 13022 O 230.369 1.97652 7.47304 0
M  V30 13023 C 231.309 3.01133 7.08783 0
M  V30 13024 C 230.579 4.12613 6.37049 0
M  V30 13025 O 230.369 3.72827 4.97879 0
M  V30 13026 C 229.179 4.45085 6.88694 0
M  V30 13027 O 228.789 5.7877 6.5624 0
M  V30 13028 C 228.299 3.47817 6.12078 0
M  V30 13029 C 229.009 3.39414 4.77697 0
M  V30 13030 N 228.959 2.04615 4.15333 0
M  V30 13031 H 231.798 3.41248 7.98759 0
M  V30 13032 H 232.07 2.5837 6.41742 0
M  V30 13033 H 231.202 5.02657 6.42673 0
M  V30 13034 P 227.239 6.144 6.45285 0
M  V30 13035 O 227.019 7.54673 6.86199 0
M  V30 13036 O 226.449 5.12391 7.179 0
M  V30 13037 O 226.989 5.99158 4.88404 0
M  V30 13038 C 227.929 6.60234 3.96415 0
M  V30 13039 C 227.199 7.08259 2.72856 0
M  V30 13040 O 226.989 5.9427 1.83651 0
M  V30 13041 C 225.799 7.64886 2.9555 0
M  V30 13042 O 225.409 8.53963 1.90717 0
M  V30 13043 C 224.919 6.4116 2.90739 0
M  V30 13044 C 225.629 5.55375 1.86963 0
M  V30 13045 N 225.579 4.09448 2.16152 0
M  V30 13046 H 228.418 7.45574 4.45629 0
M  V30 13047 H 228.69 5.85864 3.679 0
M  V30 13048 H 227.822 7.84412 2.24479 0
M  V30 13049 H 225.167 5.73457 0.888562 0
M  V30 13050 H 224.887 5.90877 3.88583 0
M  V30 13051 H 223.896 6.6596 2.58858 0
M  V30 13052 H 225.73 8.16339 3.92049 0
M  V30 13053 P 223.859 8.7635 1.60911 0
M  V30 13054 O 223.639 10.1388 1.11561 0
M  V30 13055 O 223.069 8.36503 2.79617 0
M  V30 13056 O 223.609 7.71806 0.42951 0
M  V30 13057 C 224.549 7.67148 -0.673689 0
M  V30 13058 C 223.819 7.33374 -1.95559 0
M  V30 13059 O 223.609 5.88721 -2.00726 0
M  V30 13060 C 222.419 7.92526 -2.10483 0
M  V30 13061 O 222.029 8.02971 -3.47653 0
M  V30 13062 C 221.539 6.89602 -1.41652 0
M  V30 13063 C 222.249 5.59201 -1.75185 0
M  V30 13064 N 222.199 4.58235 -0.662552 0
M  V30 13065 H 225.038 8.65116 -0.777161 0
M  V30 13066 H 225.31 6.90173 -0.474152 0
M  V30 13067 H 224.442 7.66548 -2.79458 0
M  V30 13068 P 220.479 8.03563 -3.84925 0
M  V30 13069 O 220.259 8.85821 -5.0569 0
M  V30 13070 O 219.689 8.41101 -2.65469 0
M  V30 13071 O 220.229 6.49734 -4.18962 0
M  V30 13072 C 221.169 5.81037 -5.05421 0
M  V30 13073 C 220.439 4.79018 -5.88876 0
M  V30 13074 O 220.229 3.58359 -5.08515 0
M  V30 13075 C 219.039 5.17448 -6.36119 0
M  V30 13076 O 218.649 4.45322 -7.53318 0
M  V30 13077 C 218.159 4.74639 -5.19936 0
M  V30 13078 C 218.869 3.49432 -4.70418 0
M  V30 13079 N 218.819 3.31776 -3.22945 0
M  V30 13080 C 218.669 2.02742 -2.72939 0
M  V30 13081 O 218.579 1.08301 -3.52749 0
M  V30 13082 N 218.619 1.96117 -1.22063 0
M  V30 13083 C 218.719 2.8878 -0.551566 0
M  V30 13084 N 218.669 2.65609 0.750198 0
M  V30 13085 C 218.869 4.22457 -1.03707 0
M  V30 13086 C 218.919 4.37979 -2.39113 0
M  V30 13087 H 221.659 6.54138 -5.7131 0
M  V30 13088 H 221.929 5.30492 -4.44033 0
M  V30 13089 H 221.062 4.55945 -6.76735 0
M  V30 13090 H 218.407 2.6176 -5.18021 0
M  V30 13091 H 218.127 5.52233 -4.41941 0
M  V30 13092 H 217.136 4.52045 -5.53452 0
M  V30 13093 H 218.97 6.25124 -6.55234 0
M  V30 13094 H 219.042 5.37936 -2.80552 0
M  V30 13095 H 218.94 5.07528 -0.359553 0
M  V30 13096 H 218.552 1.69403 1.09847 0
M  V30 13097 H 218.748 3.43701 1.41792 0
M  V30 13098 P 217.099 4.23843 -7.83734 0
M  V30 13099 O 216.879 4.19407 -9.29784 0
M  V30 13100 O 216.309 5.24426 -7.09156 0
M  V30 13101 O 216.849 2.7935 -7.20758 0
M  V30 13102 C 217.789 1.7299 -7.50419 0
M  V30 13103 C 217.059 0.406376 -7.57911 0
M  V30 13104 O 216.849 -0.0897726 -6.21935 0
M  V30 13105 C 215.659 0.447224 -8.1878 0
M  V30 13106 O 215.269 -0.825065 -8.71101 0
M  V30 13107 C 214.779 0.783801 -6.99623 0
M  V30 13108 C 215.489 0.0619192 -5.85967 0
M  V30 13109 N 215.439 0.790462 -4.56202 0
M  V30 13110 H 218.278 1.93423 -8.4679 0
M  V30 13111 H 218.55 1.68852 -6.70877 0
M  V30 13112 H 217.682 -0.289041 -8.15388 0
M  V30 13113 H 215.027 -0.927006 -5.72848 0
M  V30 13114 H 214.747 1.86973 -6.82036 0
M  V30 13115 H 213.756 0.403953 -7.13357 0
M  V30 13116 H 215.59 1.20599 -8.97534 0
M  V30 13117 P 213.719 -1.17771 -8.83182 0
M  V30 13118 O 213.499 -2.07206 -9.98732 0
M  V30 13119 O 212.929 0.0743816 -8.81969 0
M  V30 13120 O 213.469 -1.97652 -7.47304 0
M  V30 13121 C 214.409 -3.01133 -7.08783 0
M  V30 13122 C 213.679 -4.12613 -6.37049 0
M  V30 13123 O 213.469 -3.72827 -4.97879 0
M  V30 13124 C 212.279 -4.45085 -6.88694 0
M  V30 13125 O 211.889 -5.7877 -6.5624 0
M  V30 13126 C 211.399 -3.47817 -6.12078 0
M  V30 13127 C 212.109 -3.39414 -4.77697 0
M  V30 13128 N 212.059 -2.04615 -4.15333 0
M  V30 13129 H 214.898 -3.41248 -7.98759 0
M  V30 13130 H 215.17 -2.5837 -6.41742 0
M  V30 13131 H 214.302 -5.02657 -6.42673 0
M  V30 13132 P 210.339 -6.144 -6.45285 0
M  V30 13133 O 210.119 -7.54673 -6.86199 0
M  V30 13134 O 209.549 -5.12391 -7.179 0
M  V30 13135 O 210.089 -5.99158 -4.88404 0
M  V30 13136 C 211.029 -6.60234 -3.96415 0
M  V30 13137 C 210.299 -7.08259 -2.72856 0
M  V30 13138 O 210.089 -5.9427 -1.83651 0
M  V30 13139 C 208.899 -7.64886 -2.9555 0
M  V30 13140 O 208.509 -8.53963 -1.90717 0
M  V30 13141 C 208.019 -6.4116 -2.90739 0
M  V30 13142 C 208.729 -5.55375 -1.86963 0
M  V30 13143 N 208.679 -4.09664 -2.15742 0
M  V30 13144 H 211.518 -7.45574 -4.45629 0
M  V30 13145 H 211.79 -5.86232 -3.67314 0
M  V30 13146 H 210.922 -7.84412 -2.24479 0
M  V30 13147 P 206.959 -8.7635 -1.60911 0
M  V30 13148 O 206.739 -10.1388 -1.11561 0
M  V30 13149 O 206.169 -8.36503 -2.79617 0
M  V30 13150 O 206.709 -7.71806 -0.42951 0
M  V30 13151 C 207.649 -7.67148 0.673689 0
M  V30 13152 C 206.919 -7.33374 1.95559 0
M  V30 13153 O 206.709 -5.88721 2.00726 0
M  V30 13154 C 205.519 -7.92526 2.10483 0
M  V30 13155 O 205.129 -8.02971 3.47653 0
M  V30 13156 C 204.639 -6.89602 1.41652 0
M  V30 13157 C 205.349 -5.59201 1.75185 0
M  V30 13158 N 205.299 -4.58235 0.662552 0
M  V30 13159 H 208.138 -8.65116 0.777161 0
M  V30 13160 H 208.41 -6.90173 0.474152 0
M  V30 13161 H 207.542 -7.66548 2.79458 0
M  V30 13162 P 203.579 -8.03563 3.84925 0
M  V30 13163 O 203.359 -8.85821 5.0569 0
M  V30 13164 O 202.789 -8.41101 2.65469 0
M  V30 13165 O 203.329 -6.4965 4.18908 0
M  V30 13166 C 204.269 -5.81037 5.05421 0
M  V30 13167 C 203.539 -4.78366 5.89277 0
M  V30 13168 O 203.329 -3.58302 5.08433 0
M  V30 13169 C 202.139 -5.17448 6.36119 0
M  V30 13170 O 201.749 -4.45271 7.53232 0
M  V30 13171 C 201.259 -4.74639 5.19936 0
M  V30 13172 C 201.969 -3.49432 4.70418 0
M  V30 13173 N 201.919 -3.31776 3.22945 0
M  V30 13174 H 204.758 -6.54213 5.71376 0
M  V30 13175 H 205.03 -5.30492 4.44033 0
M  V30 13176 H 204.162 -4.55889 6.76652 0
M  V30 13177 P 200.199 -4.23843 7.83734 0
M  V30 13178 O 199.979 -4.19407 9.29784 0
M  V30 13179 O 199.409 -5.24426 7.09156 0
M  V30 13180 O 199.949 -2.7935 7.20758 0
M  V30 13181 C 200.889 -1.7299 7.50419 0
M  V30 13182 C 200.159 -0.406376 7.57911 0
M  V30 13183 O 199.949 0.0897726 6.21935 0
M  V30 13184 C 198.759 -0.447224 8.1878 0
M  V30 13185 O 198.369 0.825065 8.71101 0
M  V30 13186 C 197.879 -0.783801 6.99623 0
M  V30 13187 C 198.589 -0.0619192 5.85967 0
M  V30 13188 N 198.539 -0.7859 4.56281 0
M  V30 13189 H 201.378 -1.93423 8.4679 0
M  V30 13190 H 201.65 -1.68181 6.71046 0
M  V30 13191 H 200.782 0.289041 8.15388 0
M  V30 13192 P 196.819 1.17771 8.83182 0
M  V30 13193 O 196.599 2.07206 9.98732 0
M  V30 13194 O 196.029 -0.0743816 8.81969 0
M  V30 13195 O 196.569 1.97652 7.47304 0
M  V30 13196 C 197.509 3.01133 7.08783 0
M  V30 13197 C 196.779 4.12613 6.37049 0
M  V30 13198 O 196.569 3.72827 4.97879 0
M  V30 13199 C 195.379 4.45085 6.88694 0
M  V30 13200 O 194.989 5.7877 6.5624 0
M  V30 13201 C 194.499 3.47817 6.12078 0
M  V30 13202 C 195.209 3.39414 4.77697 0
M  V30 13203 N 195.159 2.04199 4.15538 0
M  V30 13204 H 197.998 3.41248 7.98759 0
M  V30 13205 H 198.27 2.57728 6.42 0
M  V30 13206 H 197.402 5.02657 6.42673 0
M  V30 13207 H 194.747 4.11708 4.08956 0
M  V30 13208 H 194.467 2.49626 6.61679 0
M  V30 13209 H 193.476 3.8662 6.00862 0
M  V30 13210 H 195.31 4.29991 7.97006 0
M  V30 13211 P 193.439 6.144 6.45285 0
M  V30 13212 O 193.219 7.54673 6.86199 0
M  V30 13213 O 192.649 5.12391 7.179 0
M  V30 13214 O 193.189 5.99158 4.88404 0
M  V30 13215 C 194.129 6.60234 3.96415 0
M  V30 13216 C 193.399 7.08259 2.72856 0
M  V30 13217 O 193.189 5.9427 1.83651 0
M  V30 13218 C 191.999 7.64886 2.9555 0
M  V30 13219 O 191.609 8.53963 1.90717 0
M  V30 13220 C 191.119 6.4116 2.90739 0
M  V30 13221 C 191.829 5.55375 1.86963 0
M  V30 13222 N 191.779 4.09448 2.16152 0
M  V30 13223 H 194.618 7.45574 4.45629 0
M  V30 13224 H 194.89 5.85864 3.679 0
M  V30 13225 H 194.022 7.84412 2.24479 0
M  V30 13226 H 191.367 5.73457 0.888562 0
M  V30 13227 H 191.087 5.90877 3.88583 0
M  V30 13228 H 190.096 6.6596 2.58858 0
M  V30 13229 H 191.93 8.16339 3.92049 0
M  V30 13230 P 190.059 8.7635 1.60911 0
M  V30 13231 O 189.839 10.1388 1.11561 0
M  V30 13232 O 189.269 8.36503 2.79617 0
M  V30 13233 O 189.809 7.71806 0.42951 0
M  V30 13234 C 190.749 7.67148 -0.673689 0
M  V30 13235 C 190.019 7.33374 -1.95559 0
M  V30 13236 O 189.809 5.88721 -2.00726 0
M  V30 13237 C 188.619 7.92526 -2.10483 0
M  V30 13238 O 188.229 8.02971 -3.47653 0
M  V30 13239 C 187.739 6.89602 -1.41652 0
M  V30 13240 C 188.449 5.59201 -1.75185 0
M  V30 13241 N 188.399 4.58235 -0.662552 0
M  V30 13242 H 191.238 8.65116 -0.777161 0
M  V30 13243 H 191.51 6.90173 -0.474152 0
M  V30 13244 H 190.642 7.66548 -2.79458 0
M  V30 13245 P 186.679 8.03563 -3.84925 0
M  V30 13246 O 186.459 8.85821 -5.0569 0
M  V30 13247 O 185.889 8.41101 -2.65469 0
M  V30 13248 O 186.429 6.4965 -4.18908 0
M  V30 13249 C 187.369 5.80886 -5.05289 0
M  V30 13250 C 186.639 4.78366 -5.89277 0
M  V30 13251 O 186.429 3.58302 -5.08433 0
M  V30 13252 C 185.239 5.16748 -6.36559 0
M  V30 13253 O 184.849 4.45271 -7.53232 0
M  V30 13254 C 184.359 4.74572 -5.19863 0
M  V30 13255 C 185.069 3.49373 -4.70338 0
M  V30 13256 N 185.019 3.31704 -3.22876 0
M  V30 13257 C 184.869 2.03326 -2.74871 0
M  V30 13258 O 184.779 1.06486 -3.48076 0
M  V30 13259 N 184.829 1.91838 -1.37456 0
M  V30 13260 C 184.919 2.94295 -0.462035 0
M  V30 13261 O 184.869 2.71763 0.752928 0
M  V30 13262 C 185.069 4.25064 -1.05249 0
M  V30 13263 C 185.179 5.39815 -0.095697 0
M  V30 13264 C 185.119 4.40214 -2.39192 0
M  V30 13265 H 187.86 6.54063 -5.71245 0
M  V30 13266 H 188.129 5.30339 -4.43905 0
M  V30 13267 H 187.262 4.55889 -6.76652 0
M  V30 13268 H 184.607 2.6167 -5.17842 0
M  V30 13269 H 184.328 5.52155 -4.41878 0
M  V30 13270 H 183.336 4.51918 -5.53297 0
M  V30 13271 H 185.17 6.25055 -6.55162 0
M  V30 13272 H 185.241 5.39798 -2.81523 0
M  V30 13273 H 184.211 5.91593 -0.0279582 0
M  V30 13274 H 185.948 6.10038 -0.450573 0
M  V30 13275 H 185.46 5.02007 0.89937 0
M  V30 13276 H 184.724 0.995326 -1.00435 0
M  V30 13277 P 183.299 4.23843 -7.83734 0
M  V30 13278 O 183.079 4.19407 -9.29784 0
M  V30 13279 O 182.509 5.24426 -7.09156 0
M  V30 13280 O 183.049 2.7935 -7.20758 0
M  V30 13281 C 183.989 1.7299 -7.50419 0
M  V30 13282 C 183.259 0.406376 -7.57911 0
M  V30 13283 O 183.049 -0.0897726 -6.21935 0
M  V30 13284 C 181.859 0.447224 -8.1878 0
M  V30 13285 O 181.469 -0.825065 -8.71101 0
M  V30 13286 C 180.979 0.783801 -6.99623 0
M  V30 13287 C 181.689 0.0619192 -5.85967 0
M  V30 13288 N 181.639 0.7859 -4.56281 0
M  V30 13289 C 181.719 2.14308 -4.31736 0
M  V30 13290 N 181.639 2.46106 -3.05116 0
M  V30 13291 C 181.499 1.23422 -2.4014 0
M  V30 13292 C 181.369 0.938381 -1.02409 0
M  V30 13293 N 181.249 -0.444647 -0.805413 0
M  V30 13294 C 181.249 -1.40829 -1.79435 0
M  V30 13295 N 181.119 -2.67213 -1.38558 0
M  V30 13296 N 181.379 -1.12947 -3.09005 0
M  V30 13297 C 181.499 0.204887 -3.32369 0
M  V30 13298 H 184.478 1.93423 -8.4679 0
M  V30 13299 H 184.75 1.68181 -6.71046 0
M  V30 13300 H 183.882 -0.289041 -8.15388 0
M  V30 13301 P 179.919 -1.17771 -8.83182 0
M  V30 13302 O 179.699 -2.07206 -9.98732 0
M  V30 13303 O 179.129 0.0743816 -8.81969 0
M  V30 13304 O 179.669 -1.97652 -7.47304 0
M  V30 13305 C 180.609 -3.01055 -7.08599 0
M  V30 13306 C 179.879 -4.12613 -6.37049 0
M  V30 13307 O 179.669 -3.72827 -4.97879 0
M  V30 13308 C 178.479 -4.45719 -6.88164 0
M  V30 13309 O 178.089 -5.7877 -6.5624 0
M  V30 13310 C 177.599 -3.47768 -6.11991 0
M  V30 13311 C 178.309 -3.39356 -4.77615 0
M  V30 13312 N 178.259 -2.04571 -4.15244 0
M  V30 13313 C 178.109 -1.98587 -2.78314 0
M  V30 13314 O 178.019 -2.98134 -2.08835 0
M  V30 13315 N 178.069 -0.714467 -2.24925 0
M  V30 13316 C 178.159 0.470001 -2.94169 0
M  V30 13317 O 178.109 1.55587 -2.35195 0
M  V30 13318 C 178.309 0.312541 -4.36783 0
M  V30 13319 C 178.419 1.57711 -5.16352 0
M  V30 13320 C 178.359 -0.914512 -4.92583 0
M  V30 13321 H 181.1 -3.41169 -7.98575 0
M  V30 13322 H 181.369 -2.58295 -6.41556 0
M  V30 13323 H 180.502 -5.02657 -6.42673 0
M  V30 13324 H 177.847 -4.11637 -4.08885 0
M  V30 13325 H 177.568 -2.49626 -6.61679 0
M  V30 13326 H 176.576 -3.86566 -6.00778 0
M  V30 13327 H 178.41 -4.29943 -7.96918 0
M  V30 13328 H 178.481 -1.00937 -6.00374 0
M  V30 13329 H 177.451 1.80153 -5.63503 0
M  V30 13330 H 179.188 1.4566 -5.94104 0
M  V30 13331 H 178.7 2.40664 -4.49645 0
M  V30 13332 H 177.964 -0.647622 -1.25697 0
M  V30 13333 P 176.539 -6.144 -6.45285 0
M  V30 13334 O 176.319 -7.54673 -6.86199 0
M  V30 13335 O 175.749 -5.12391 -7.179 0
M  V30 13336 O 176.289 -5.99158 -4.88404 0
M  V30 13337 C 177.229 -6.60234 -3.96415 0
M  V30 13338 C 176.499 -7.08259 -2.72856 0
M  V30 13339 O 176.289 -5.9427 -1.83651 0
M  V30 13340 C 175.099 -7.64886 -2.9555 0
M  V30 13341 O 174.709 -8.53963 -1.90717 0
M  V30 13342 C 174.219 -6.4116 -2.90739 0
M  V30 13343 C 174.929 -5.55375 -1.86963 0
M  V30 13344 N 174.879 -4.09664 -2.15742 0
M  V30 13345 H 177.718 -7.45574 -4.45629 0
M  V30 13346 H 177.99 -5.86232 -3.67314 0
M  V30 13347 H 177.122 -7.84412 -2.24479 0
M  V30 13348 P 173.159 -8.7635 -1.60911 0
M  V30 13349 O 172.939 -10.1388 -1.11561 0
M  V30 13350 O 172.369 -8.36503 -2.79617 0
M  V30 13351 O 172.909 -7.71806 -0.42951 0
M  V30 13352 C 173.849 -7.66948 0.673514 0
M  V30 13353 C 173.119 -7.33374 1.95559 0
M  V30 13354 O 172.909 -5.88721 2.00726 0
M  V30 13355 C 171.719 -7.92218 2.1125 0
M  V30 13356 O 171.329 -8.02971 3.47653 0
M  V30 13357 C 170.839 -6.89504 1.41631 0
M  V30 13358 C 171.549 -5.59106 1.75155 0
M  V30 13359 N 171.499 -4.58136 0.662409 0
M  V30 13360 C 171.349 -3.26059 1.02863 0
M  V30 13361 O 171.259 -2.90743 2.19009 0
M  V30 13362 N 171.309 -2.35995 -0.0155585 0
M  V30 13363 C 171.399 -2.65248 -1.35603 0
M  V30 13364 O 171.349 -1.75605 -2.20651 0
M  V30 13365 C 171.549 -4.05747 -1.64698 0
M  V30 13366 C 171.659 -4.42345 -3.09553 0
M  V30 13367 C 171.599 -4.96734 -0.652411 0
M  V30 13368 H 174.34 -8.64917 0.776982 0
M  V30 13369 H 174.609 -6.89974 0.474015 0
M  V30 13370 H 173.742 -7.66548 2.79458 0
M  V30 13371 H 171.087 -5.16076 2.65138 0
M  V30 13372 H 170.808 -7.06433 0.329384 0
M  V30 13373 H 169.816 -6.90829 1.81996 0
M  V30 13374 H 171.65 -8.90774 1.62639 0
M  V30 13375 H 171.721 -6.02181 -0.895285 0
M  V30 13376 H 170.691 -4.80252 -3.45468 0
M  V30 13377 H 172.428 -5.20015 -3.22119 0
M  V30 13378 H 171.94 -3.53269 -3.67833 0
M  V30 13379 H 171.204 -1.39558 0.227499 0
M  V30 13380 P 169.779 -8.03563 3.84925 0
M  V30 13381 O 169.559 -8.85821 5.0569 0
M  V30 13382 O 168.989 -8.41101 2.65469 0
M  V30 13383 O 169.529 -6.4965 4.18908 0
M  V30 13384 C 170.469 -5.81037 5.05421 0
M  V30 13385 C 169.739 -4.78366 5.89277 0
M  V30 13386 O 169.529 -3.58302 5.08433 0
M  V30 13387 C 168.339 -5.17448 6.36119 0
M  V30 13388 O 167.949 -4.45271 7.53232 0
M  V30 13389 C 167.459 -4.74639 5.19936 0
M  V30 13390 C 168.169 -3.49432 4.70418 0
M  V30 13391 N 168.119 -3.31776 3.22945 0
M  V30 13392 H 170.958 -6.54213 5.71376 0
M  V30 13393 H 171.23 -5.30492 4.44033 0
M  V30 13394 H 170.362 -4.55889 6.76652 0
M  V30 13395 P 166.399 -4.23843 7.83734 0
M  V30 13396 O 166.179 -4.19407 9.29784 0
M  V30 13397 O 165.609 -5.24426 7.09156 0
M  V30 13398 O 166.149 -2.7935 7.20758 0
M  V30 13399 C 167.089 -1.7299 7.50419 0
M  V30 13400 C 166.359 -0.406376 7.57911 0
M  V30 13401 O 166.149 0.0897726 6.21935 0
M  V30 13402 C 164.959 -0.447224 8.1878 0
M  V30 13403 O 164.569 0.825065 8.71101 0
M  V30 13404 C 164.079 -0.783801 6.99623 0
M  V30 13405 C 164.789 -0.0619192 5.85967 0
M  V30 13406 N 164.739 -0.7859 4.56281 0
M  V30 13407 H 167.578 -1.93423 8.4679 0
M  V30 13408 H 167.85 -1.68181 6.71046 0
M  V30 13409 H 166.982 0.289041 8.15388 0
M  V30 13410 P 163.019 1.17771 8.83182 0
M  V30 13411 O 162.799 2.07206 9.98732 0
M  V30 13412 O 162.229 -0.0743816 8.81969 0
M  V30 13413 O 162.769 1.97652 7.47304 0
M  V30 13414 C 163.709 3.01133 7.08783 0
M  V30 13415 C 162.979 4.12613 6.37049 0
M  V30 13416 O 162.769 3.72827 4.97879 0
M  V30 13417 C 161.579 4.45085 6.88694 0
M  V30 13418 O 161.189 5.7877 6.5624 0
M  V30 13419 C 160.699 3.47817 6.12078 0
M  V30 13420 C 161.409 3.39414 4.77697 0
M  V30 13421 N 161.359 2.04199 4.15538 0
M  V30 13422 C 161.439 0.821545 4.76977 0
M  V30 13423 N 161.369 -0.1794 3.94592 0
M  V30 13424 C 161.219 0.419121 2.70776 0
M  V30 13425 C 161.089 -0.109072 1.40577 0
M  V30 13426 N 161.079 -1.4104 1.1344 0
M  V30 13427 N 160.969 0.764381 0.39411 0
M  V30 13428 C 160.979 2.06587 0.664135 0
M  V30 13429 N 161.099 2.67948 1.82153 0
M  V30 13430 C 161.219 1.77942 2.8147 0
M  V30 13431 H 164.198 3.41248 7.98759 0
M  V30 13432 H 164.47 2.57728 6.42 0
M  V30 13433 H 163.602 5.02657 6.42673 0
M  V30 13434 H 160.947 4.11708 4.08956 0
M  V30 13435 H 160.667 2.49626 6.61679 0
M  V30 13436 H 159.676 3.8662 6.00862 0
M  V30 13437 H 161.51 4.29991 7.97006 0
M  V30 13438 H 161.551 0.702451 5.84696 0
M  V30 13439 H 161.17 -2.09647 1.89651 0
M  V30 13440 H 160.981 -1.73358 0.160575 0
M  V30 13441 H 160.873 2.71695 -0.195838 0
M  V30 13442 P 159.639 6.144 6.45285 0
M  V30 13443 O 159.419 7.54673 6.86199 0
M  V30 13444 O 158.849 5.12391 7.179 0
M  V30 13445 O 159.389 5.99158 4.88404 0
M  V30 13446 C 160.329 6.60234 3.96415 0
M  V30 13447 C 159.599 7.08259 2.72856 0
M  V30 13448 O 159.389 5.9427 1.83651 0
M  V30 13449 C 158.199 7.64886 2.9555 0
M  V30 13450 O 157.809 8.53963 1.90717 0
M  V30 13451 C 157.319 6.4116 2.90739 0
M  V30 13452 C 158.029 5.55375 1.86963 0
M  V30 13453 N 157.979 4.09664 2.15742 0
M  V30 13454 H 160.818 7.45574 4.45629 0
M  V30 13455 H 161.09 5.86232 3.67314 0
M  V30 13456 H 160.222 7.84412 2.24479 0
M  V30 13457 P 156.259 8.7635 1.60911 0
M  V30 13458 O 156.039 10.1388 1.11561 0
M  V30 13459 O 155.469 8.36503 2.79617 0
M  V30 13460 O 156.009 7.71806 0.42951 0
M  V30 13461 C 156.949 7.67148 -0.673689 0
M  V30 13462 C 156.219 7.33374 -1.95559 0
M  V30 13463 O 156.009 5.88721 -2.00726 0
M  V30 13464 C 154.819 7.92526 -2.10483 0
M  V30 13465 O 154.429 8.02971 -3.47653 0
M  V30 13466 C 153.939 6.89602 -1.41652 0
M  V30 13467 C 154.649 5.59201 -1.75185 0
M  V30 13468 N 154.599 4.58235 -0.662552 0
M  V30 13469 H 157.438 8.65116 -0.777161 0
M  V30 13470 H 157.71 6.90173 -0.474152 0
M  V30 13471 H 156.842 7.66548 -2.79458 0
M  V30 13472 P 152.879 8.03563 -3.84925 0
M  V30 13473 O 152.659 8.85821 -5.0569 0
M  V30 13474 O 152.089 8.41101 -2.65469 0
M  V30 13475 O 152.629 6.49734 -4.18962 0
M  V30 13476 C 153.569 5.81037 -5.05421 0
M  V30 13477 C 152.839 4.79018 -5.88876 0
M  V30 13478 O 152.629 3.58359 -5.08515 0
M  V30 13479 C 151.439 5.17448 -6.36119 0
M  V30 13480 O 151.049 4.45322 -7.53318 0
M  V30 13481 C 150.559 4.74639 -5.19936 0
M  V30 13482 C 151.269 3.49432 -4.70418 0
M  V30 13483 N 151.219 3.31776 -3.22945 0
M  V30 13484 C 151.069 2.02742 -2.72939 0
M  V30 13485 O 150.979 1.08301 -3.52749 0
M  V30 13486 N 151.019 1.96117 -1.22063 0
M  V30 13487 C 151.119 2.8878 -0.551566 0
M  V30 13488 N 151.069 2.65609 0.750198 0
M  V30 13489 C 151.269 4.22457 -1.03707 0
M  V30 13490 C 151.319 4.37979 -2.39113 0
M  V30 13491 H 154.059 6.54138 -5.7131 0
M  V30 13492 H 154.329 5.30492 -4.44033 0
M  V30 13493 H 153.462 4.55945 -6.76735 0
M  V30 13494 H 150.807 2.6176 -5.18021 0
M  V30 13495 H 150.527 5.52233 -4.41941 0
M  V30 13496 H 149.536 4.52045 -5.53452 0
M  V30 13497 H 151.37 6.25124 -6.55234 0
M  V30 13498 H 151.442 5.37936 -2.80552 0
M  V30 13499 H 151.34 5.07528 -0.359553 0
M  V30 13500 H 150.952 1.69403 1.09847 0
M  V30 13501 H 151.148 3.43701 1.41792 0
M  V30 13502 P 149.499 4.23843 -7.83734 0
M  V30 13503 O 149.279 4.19407 -9.29784 0
M  V30 13504 O 148.709 5.24426 -7.09156 0
M  V30 13505 O 149.249 2.7935 -7.20758 0
M  V30 13506 C 150.189 1.72945 -7.50224 0
M  V30 13507 C 149.459 0.406376 -7.57911 0
M  V30 13508 O 149.249 -0.0897726 -6.21935 0
M  V30 13509 C 148.059 0.438983 -8.18724 0
M  V30 13510 O 147.669 -0.825065 -8.71101 0
M  V30 13511 C 147.179 0.783689 -6.99524 0
M  V30 13512 C 147.889 0.0619086 -5.85867 0
M  V30 13513 N 147.839 0.78573 -4.56183 0
M  V30 13514 C 147.689 0.0292889 -3.41887 0
M  V30 13515 O 147.599 -1.18445 -3.4419 0
M  V30 13516 N 147.649 0.744061 -2.23964 0
M  V30 13517 C 147.739 2.10932 -2.10362 0
M  V30 13518 O 147.689 2.64117 -0.98825 0
M  V30 13519 C 147.889 2.8202 -3.34994 0
M  V30 13520 C 147.999 4.31095 -3.25037 0
M  V30 13521 C 147.939 2.15547 -4.52261 0
M  V30 13522 H 150.68 1.93379 -8.46595 0
M  V30 13523 H 150.949 1.68132 -6.70852 0
M  V30 13524 H 150.082 -0.289041 -8.15388 0
M  V30 13525 H 147.427 -0.926847 -5.72749 0
M  V30 13526 H 147.148 1.86973 -6.82036 0
M  V30 13527 H 146.156 0.403896 -7.13257 0
M  V30 13528 H 147.99 1.20585 -8.97435 0
M  V30 13529 H 148.061 2.71231 -5.45042 0
M  V30 13530 H 147.031 4.76966 -3.49992 0
M  V30 13531 H 148.768 4.67047 -3.95024 0
M  V30 13532 H 148.28 4.58996 -2.22312 0
M  V30 13533 H 147.544 0.214893 -1.39758 0
M  V30 13534 P 146.119 -1.17771 -8.83182 0
M  V30 13535 O 145.899 -2.07206 -9.98732 0
M  V30 13536 O 145.329 0.0743816 -8.81969 0
M  V30 13537 O 145.869 -1.97652 -7.47304 0
M  V30 13538 C 146.809 -3.01133 -7.08783 0
M  V30 13539 C 146.079 -4.12613 -6.37049 0
M  V30 13540 O 145.869 -3.72827 -4.97879 0
M  V30 13541 C 144.679 -4.45085 -6.88694 0
M  V30 13542 O 144.289 -5.7877 -6.5624 0
M  V30 13543 C 143.799 -3.47817 -6.12078 0
M  V30 13544 C 144.509 -3.39414 -4.77697 0
M  V30 13545 N 144.459 -2.04615 -4.15333 0
M  V30 13546 H 147.298 -3.41248 -7.98759 0
M  V30 13547 H 147.57 -2.5837 -6.41742 0
M  V30 13548 H 146.702 -5.02657 -6.42673 0
M  V30 13549 P 142.739 -6.144 -6.45285 0
M  V30 13550 O 142.519 -7.54673 -6.86199 0
M  V30 13551 O 141.949 -5.12391 -7.179 0
M  V30 13552 O 142.489 -5.99158 -4.88404 0
M  V30 13553 C 143.429 -6.60234 -3.96415 0
M  V30 13554 C 142.699 -7.08259 -2.72856 0
M  V30 13555 O 142.489 -5.9427 -1.83651 0
M  V30 13556 C 141.299 -7.64886 -2.9555 0
M  V30 13557 O 140.909 -8.53963 -1.90717 0
M  V30 13558 C 140.419 -6.4116 -2.90739 0
M  V30 13559 C 141.129 -5.55375 -1.86963 0
M  V30 13560 N 141.079 -4.09664 -2.15742 0
M  V30 13561 H 143.918 -7.45574 -4.45629 0
M  V30 13562 H 144.19 -5.86232 -3.67314 0
M  V30 13563 H 143.322 -7.84412 -2.24479 0
M  V30 13564 P 139.359 -8.7635 -1.60911 0
M  V30 13565 O 139.139 -10.1388 -1.11561 0
M  V30 13566 O 138.569 -8.36503 -2.79617 0
M  V30 13567 O 139.109 -7.71806 -0.42951 0
M  V30 13568 C 140.049 -7.67148 0.673689 0
M  V30 13569 C 139.319 -7.33374 1.95559 0
M  V30 13570 O 139.109 -5.88721 2.00726 0
M  V30 13571 C 137.919 -7.92526 2.10483 0
M  V30 13572 O 137.529 -8.02971 3.47653 0
M  V30 13573 C 137.039 -6.89602 1.41652 0
M  V30 13574 C 137.749 -5.59201 1.75185 0
M  V30 13575 N 137.699 -4.58235 0.662552 0
M  V30 13576 H 140.538 -8.65116 0.777161 0
M  V30 13577 H 140.81 -6.90173 0.474152 0
M  V30 13578 H 139.942 -7.66548 2.79458 0
M  V30 13579 P 135.979 -8.03563 3.84925 0
M  V30 13580 O 135.759 -8.85821 5.0569 0
M  V30 13581 O 135.189 -8.41101 2.65469 0
M  V30 13582 O 135.729 -6.4965 4.18908 0
M  V30 13583 C 136.669 -5.81037 5.05421 0
M  V30 13584 C 135.939 -4.78366 5.89277 0
M  V30 13585 O 135.729 -3.58302 5.08433 0
M  V30 13586 C 134.539 -5.17448 6.36119 0
M  V30 13587 O 134.149 -4.45271 7.53232 0
M  V30 13588 C 133.659 -4.74639 5.19936 0
M  V30 13589 C 134.369 -3.49432 4.70418 0
M  V30 13590 N 134.319 -3.32099 3.22613 0
M  V30 13591 H 137.158 -6.54213 5.71376 0
M  V30 13592 H 137.43 -5.30936 4.43503 0
M  V30 13593 H 136.562 -4.55889 6.76652 0
M  V30 13594 H 133.907 -2.61715 5.17932 0
M  V30 13595 H 133.627 -5.52155 4.41878 0
M  V30 13596 H 132.636 -4.51981 5.53374 0
M  V30 13597 H 134.47 -6.25124 6.55234 0
M  V30 13598 P 132.599 -4.23843 7.83734 0
M  V30 13599 O 132.379 -4.19407 9.29784 0
M  V30 13600 O 131.809 -5.24426 7.09156 0
M  V30 13601 O 132.349 -2.7935 7.20758 0
M  V30 13602 C 133.289 -1.7299 7.50419 0
M  V30 13603 C 132.559 -0.406376 7.57911 0
M  V30 13604 O 132.349 0.0897726 6.21935 0
M  V30 13605 C 131.159 -0.447224 8.1878 0
M  V30 13606 O 130.769 0.825065 8.71101 0
M  V30 13607 C 130.279 -0.783801 6.99623 0
M  V30 13608 C 130.989 -0.0619192 5.85967 0
M  V30 13609 N 130.939 -0.790462 4.56202 0
M  V30 13610 H 133.778 -1.93423 8.4679 0
M  V30 13611 H 134.05 -1.68852 6.70877 0
M  V30 13612 H 133.182 0.289041 8.15388 0
M  V30 13613 H 130.527 0.927006 5.72848 0
M  V30 13614 H 130.247 -1.86973 6.82036 0
M  V30 13615 H 129.256 -0.403953 7.13357 0
M  V30 13616 H 131.09 -1.20599 8.97534 0
M  V30 13617 P 129.219 1.17771 8.83182 0
M  V30 13618 O 128.999 2.07206 9.98732 0
M  V30 13619 O 128.429 -0.0743816 8.81969 0
M  V30 13620 O 128.969 1.97652 7.47304 0
M  V30 13621 C 129.909 3.01133 7.08783 0
M  V30 13622 C 129.179 4.12613 6.37049 0
M  V30 13623 O 128.969 3.72827 4.97879 0
M  V30 13624 C 127.779 4.45085 6.88694 0
M  V30 13625 O 127.389 5.7877 6.5624 0
M  V30 13626 C 126.899 3.47817 6.12078 0
M  V30 13627 C 127.609 3.39414 4.77697 0
M  V30 13628 N 127.559 2.04615 4.15333 0
M  V30 13629 H 130.398 3.41248 7.98759 0
M  V30 13630 H 130.67 2.5837 6.41742 0
M  V30 13631 H 129.802 5.02657 6.42673 0
M  V30 13632 P 125.839 6.144 6.45285 0
M  V30 13633 O 125.619 7.54673 6.86199 0
M  V30 13634 O 125.049 5.12391 7.179 0
M  V30 13635 O 125.589 5.99158 4.88404 0
M  V30 13636 C 126.529 6.60234 3.96415 0
M  V30 13637 C 125.799 7.08259 2.72856 0
M  V30 13638 O 125.589 5.9427 1.83651 0
M  V30 13639 C 124.399 7.64886 2.9555 0
M  V30 13640 O 124.009 8.53963 1.90717 0
M  V30 13641 C 123.519 6.4116 2.90739 0
M  V30 13642 C 124.229 5.55375 1.86963 0
M  V30 13643 N 124.179 4.09448 2.16152 0
M  V30 13644 H 127.018 7.45574 4.45629 0
M  V30 13645 H 127.29 5.85864 3.679 0
M  V30 13646 H 126.422 7.84412 2.24479 0
M  V30 13647 H 123.767 5.73457 0.888562 0
M  V30 13648 H 123.487 5.90877 3.88583 0
M  V30 13649 H 122.496 6.6596 2.58858 0
M  V30 13650 H 124.33 8.16339 3.92049 0
M  V30 13651 P 122.459 8.7635 1.60911 0
M  V30 13652 O 122.239 10.1388 1.11561 0
M  V30 13653 O 121.669 8.36503 2.79617 0
M  V30 13654 O 122.209 7.71806 0.42951 0
M  V30 13655 C 123.149 7.67148 -0.673689 0
M  V30 13656 C 122.419 7.33374 -1.95559 0
M  V30 13657 O 122.209 5.88721 -2.00726 0
M  V30 13658 C 121.019 7.92526 -2.10483 0
M  V30 13659 O 120.629 8.02971 -3.47653 0
M  V30 13660 C 120.139 6.89602 -1.41652 0
M  V30 13661 C 120.849 5.59201 -1.75185 0
M  V30 13662 N 120.799 4.58235 -0.662552 0
M  V30 13663 H 123.638 8.65116 -0.777161 0
M  V30 13664 H 123.91 6.90173 -0.474152 0
M  V30 13665 H 123.042 7.66548 -2.79458 0
M  V30 13666 P 119.079 8.03563 -3.84925 0
M  V30 13667 O 118.859 8.85821 -5.0569 0
M  V30 13668 O 118.289 8.41101 -2.65469 0
M  V30 13669 O 118.829 6.4965 -4.18908 0
M  V30 13670 C 119.769 5.80886 -5.05289 0
M  V30 13671 C 119.039 4.78366 -5.89277 0
M  V30 13672 O 118.829 3.58302 -5.08433 0
M  V30 13673 C 117.639 5.16748 -6.36559 0
M  V30 13674 O 117.249 4.45271 -7.53232 0
M  V30 13675 C 116.759 4.74572 -5.19863 0
M  V30 13676 C 117.469 3.49373 -4.70338 0
M  V30 13677 N 117.419 3.31704 -3.22876 0
M  V30 13678 C 117.269 2.03326 -2.74871 0
M  V30 13679 O 117.179 1.06486 -3.48076 0
M  V30 13680 N 117.229 1.91838 -1.37456 0
M  V30 13681 C 117.319 2.94295 -0.462035 0
M  V30 13682 O 117.269 2.71763 0.752928 0
M  V30 13683 C 117.469 4.25064 -1.05249 0
M  V30 13684 C 117.579 5.39815 -0.095697 0
M  V30 13685 C 117.519 4.40214 -2.39192 0
M  V30 13686 H 120.26 6.54063 -5.71245 0
M  V30 13687 H 120.529 5.30339 -4.43905 0
M  V30 13688 H 119.662 4.55889 -6.76652 0
M  V30 13689 H 117.007 2.6167 -5.17842 0
M  V30 13690 H 116.728 5.52155 -4.41878 0
M  V30 13691 H 115.736 4.51918 -5.53297 0
M  V30 13692 H 117.57 6.25055 -6.55162 0
M  V30 13693 H 117.641 5.39798 -2.81523 0
M  V30 13694 H 116.611 5.91593 -0.0279582 0
M  V30 13695 H 118.348 6.10038 -0.450573 0
M  V30 13696 H 117.86 5.02007 0.89937 0
M  V30 13697 H 117.124 0.995326 -1.00435 0
M  V30 13698 P 115.699 4.23843 -7.83734 0
M  V30 13699 O 115.479 4.19407 -9.29784 0
M  V30 13700 O 114.909 5.24426 -7.09156 0
M  V30 13701 O 115.449 2.7935 -7.20758 0
M  V30 13702 C 116.389 1.7299 -7.50419 0
M  V30 13703 C 115.659 0.406376 -7.57911 0
M  V30 13704 O 115.449 -0.0897726 -6.21935 0
M  V30 13705 C 114.259 0.447224 -8.1878 0
M  V30 13706 O 113.869 -0.825065 -8.71101 0
M  V30 13707 C 113.379 0.783801 -6.99623 0
M  V30 13708 C 114.089 0.0619192 -5.85967 0
M  V30 13709 N 114.039 0.7859 -4.56281 0
M  V30 13710 H 116.878 1.93423 -8.4679 0
M  V30 13711 H 117.15 1.68181 -6.71046 0
M  V30 13712 H 116.282 -0.289041 -8.15388 0
M  V30 13713 P 112.319 -1.17771 -8.83182 0
M  V30 13714 O 112.099 -2.07206 -9.98732 0
M  V30 13715 O 111.529 0.0743816 -8.81969 0
M  V30 13716 O 112.069 -1.97652 -7.47304 0
M  V30 13717 C 113.009 -3.01133 -7.08783 0
M  V30 13718 C 112.279 -4.12613 -6.37049 0
M  V30 13719 O 112.069 -3.72827 -4.97879 0
M  V30 13720 C 110.879 -4.45085 -6.88694 0
M  V30 13721 O 110.489 -5.7877 -6.5624 0
M  V30 13722 C 109.999 -3.47817 -6.12078 0
M  V30 13723 C 110.709 -3.39414 -4.77697 0
M  V30 13724 N 110.659 -2.04615 -4.15333 0
M  V30 13725 H 113.498 -3.41248 -7.98759 0
M  V30 13726 H 113.77 -2.5837 -6.41742 0
M  V30 13727 H 112.902 -5.02657 -6.42673 0
M  V30 13728 P 108.939 -6.144 -6.45285 0
M  V30 13729 O 108.719 -7.54673 -6.86199 0
M  V30 13730 O 108.149 -5.12391 -7.179 0
M  V30 13731 O 108.689 -5.99236 -4.88467 0
M  V30 13732 C 109.629 -6.60234 -3.96415 0
M  V30 13733 C 108.899 -7.08079 -2.736 0
M  V30 13734 O 108.689 -5.94365 -1.8368 0
M  V30 13735 C 107.499 -7.64886 -2.9555 0
M  V30 13736 O 107.109 -8.5406 -1.90739 0
M  V30 13737 C 106.619 -6.4116 -2.90739 0
M  V30 13738 C 107.329 -5.55375 -1.86963 0
M  V30 13739 N 107.279 -4.09664 -2.15742 0
M  V30 13740 C 107.129 -3.22231 -1.08477 0
M  V30 13741 O 107.039 -3.68951 0.0600489 0
M  V30 13742 N 107.079 -1.76692 -1.48799 0
M  V30 13743 C 107.179 -1.41695 -2.57602 0
M  V30 13744 N 107.129 -0.107296 -2.75791 0
M  V30 13745 C 107.329 -2.29178 -3.69733 0
M  V30 13746 C 107.379 -3.62753 -3.42653 0
M  V30 13747 H 110.119 -7.45488 -4.45578 0
M  V30 13748 H 110.389 -5.86232 -3.67314 0
M  V30 13749 H 109.522 -7.84508 -2.24507 0
M  V30 13750 H 106.867 -5.73556 -0.888715 0
M  V30 13751 H 106.587 -5.9096 -3.88638 0
M  V30 13752 H 105.596 -6.66053 -2.58894 0
M  V30 13753 H 107.43 -8.16339 -3.92049 0
M  V30 13754 H 107.502 -4.33052 -4.24913 0
M  V30 13755 H 107.4 -1.9103 -4.71577 0
M  V30 13756 H 107.012 0.521221 -1.95056 0
M  V30 13757 H 107.208 0.286429 -3.70695 0
M  V30 13758 P 105.559 -8.7635 -1.60911 0
M  V30 13759 O 105.339 -10.1388 -1.11561 0
M  V30 13760 O 104.769 -8.36503 -2.79617 0
M  V30 13761 O 105.309 -7.71806 -0.42951 0
M  V30 13762 C 106.249 -7.67148 0.673689 0
M  V30 13763 C 105.519 -7.33374 1.95559 0
M  V30 13764 O 105.309 -5.88721 2.00726 0
M  V30 13765 C 104.119 -7.92526 2.10483 0
M  V30 13766 O 103.729 -8.02971 3.47653 0
M  V30 13767 C 103.239 -6.89602 1.41652 0
M  V30 13768 C 103.949 -5.59201 1.75185 0
M  V30 13769 N 103.899 -4.58235 0.662552 0
M  V30 13770 C 103.979 -4.7683 -0.704049 0
M  V30 13771 N 103.899 -3.66233 -1.39775 0
M  V30 13772 C 103.759 -2.66526 -0.431739 0
M  V30 13773 C 103.629 -1.26394 -0.575992 0
M  V30 13774 O 103.609 -0.589894 -1.60503 0
M  V30 13775 N 103.509 -0.62859 0.67177 0
M  V30 13776 C 103.509 -1.27134 1.89385 0
M  V30 13777 N 103.379 -0.492035 2.96951 0
M  V30 13778 N 103.639 -2.58978 2.02907 0
M  V30 13779 C 103.759 -3.22433 0.832218 0
M  V30 13780 H 106.738 -8.65116 0.777161 0
M  V30 13781 H 107.01 -6.90173 0.474152 0
M  V30 13782 H 106.142 -7.66548 2.79458 0
M  V30 13783 H 103.487 -5.16254 2.65229 0
M  V30 13784 H 103.207 -7.06532 0.329431 0
M  V30 13785 H 102.216 -6.91023 1.82047 0
M  V30 13786 H 104.05 -8.90971 1.62675 0
M  V30 13787 H 104.099 -5.74954 -1.16305 0
M  V30 13788 H 103.417 0.366713 0.674793 0
M  V30 13789 H 103.38 -0.908532 3.91188 0
M  V30 13790 H 103.279 0.528253 2.85758 0
M  V30 13791 P 102.179 -8.03563 3.84925 0
M  V30 13792 O 101.959 -8.85821 5.0569 0
M  V30 13793 O 101.389 -8.41101 2.65469 0
M  V30 13794 O 101.929 -6.4965 4.18908 0
M  V30 13795 C 102.869 -5.81037 5.05421 0
M  V30 13796 C 102.139 -4.78366 5.89277 0
M  V30 13797 O 101.929 -3.58302 5.08433 0
M  V30 13798 C 100.739 -5.17448 6.36119 0
M  V30 13799 O 100.349 -4.45271 7.53232 0
M  V30 13800 C 99.8594 -4.74639 5.19936 0
M  V30 13801 C 100.569 -3.49432 4.70418 0
M  V30 13802 N 100.519 -3.31776 3.22945 0
M  V30 13803 H 103.358 -6.54213 5.71376 0
M  V30 13804 H 103.63 -5.30492 4.44033 0
M  V30 13805 H 102.762 -4.55889 6.76652 0
M  V30 13806 P 98.7994 -4.23843 7.83734 0
M  V30 13807 O 98.5794 -4.19407 9.29784 0
M  V30 13808 O 98.0094 -5.24426 7.09156 0
M  V30 13809 O 98.5494 -2.7935 7.20758 0
M  V30 13810 C 99.4894 -1.7299 7.50419 0
M  V30 13811 C 98.7594 -0.406376 7.57911 0
M  V30 13812 O 98.5494 0.0897726 6.21935 0
M  V30 13813 C 97.3594 -0.447224 8.1878 0
M  V30 13814 O 96.9694 0.825065 8.71101 0
M  V30 13815 C 96.4794 -0.783801 6.99623 0
M  V30 13816 C 97.1894 -0.0619192 5.85967 0
M  V30 13817 N 97.1394 -0.7859 4.56281 0
M  V30 13818 H 99.9784 -1.93423 8.4679 0
M  V30 13819 H 100.25 -1.68181 6.71046 0
M  V30 13820 H 99.3824 0.289041 8.15388 0
M  V30 13821 P 95.4195 1.17771 8.83182 0
M  V30 13822 O 95.1995 2.07206 9.98732 0
M  V30 13823 O 94.6295 -0.0743816 8.81969 0
M  V30 13824 O 95.1695 1.97652 7.47304 0
M  V30 13825 C 96.1095 3.01133 7.08783 0
M  V30 13826 C 95.3795 4.12613 6.37049 0
M  V30 13827 O 95.1695 3.72827 4.97879 0
M  V30 13828 C 93.9795 4.45085 6.88694 0
M  V30 13829 O 93.5895 5.7877 6.5624 0
M  V30 13830 C 93.0995 3.47817 6.12078 0
M  V30 13831 C 93.8095 3.39414 4.77697 0
M  V30 13832 N 93.7595 2.04615 4.15333 0
M  V30 13833 H 96.5985 3.41248 7.98759 0
M  V30 13834 H 96.8705 2.5837 6.41742 0
M  V30 13835 H 96.0025 5.02657 6.42673 0
M  V30 13836 P 92.0395 6.144 6.45285 0
M  V30 13837 O 91.8195 7.54673 6.86199 0
M  V30 13838 O 91.2495 5.12391 7.179 0
M  V30 13839 O 91.7895 5.99158 4.88404 0
M  V30 13840 C 92.7295 6.60062 3.96313 0
M  V30 13841 C 91.9995 7.08259 2.72856 0
M  V30 13842 O 91.7895 5.9427 1.83651 0
M  V30 13843 C 90.5995 7.65087 2.94749 0
M  V30 13844 O 90.2095 8.53963 1.90717 0
M  V30 13845 C 89.7195 6.41069 2.90698 0
M  V30 13846 C 90.4295 5.5528 1.86931 0
M  V30 13847 N 90.3795 4.09575 2.15696 0
M  V30 13848 C 90.2295 3.24249 1.08435 0
M  V30 13849 O 90.1395 3.63946 -0.0628747 0
M  V30 13850 N 90.1895 1.90009 1.39973 0
M  V30 13851 C 90.2795 1.34884 2.65614 0
M  V30 13852 C 90.4295 2.3145 3.71736 0
M  V30 13853 C 90.4795 3.63518 3.44754 0
M  V30 13854 H 93.2205 7.45402 4.45526 0
M  V30 13855 H 93.4895 5.86062 3.67208 0
M  V30 13856 H 92.6225 7.84412 2.24479 0
M  V30 13857 H 89.9675 5.73358 0.888409 0
M  V30 13858 H 89.6885 5.90877 3.88583 0
M  V30 13859 H 88.6965 6.65867 2.58821 0
M  V30 13860 H 90.5305 8.16248 3.92006 0
M  V30 13861 H 90.6015 4.34551 4.26383 0
M  V30 13862 P 88.6595 8.7635 1.60911 0
M  V30 13863 O 88.4395 10.1388 1.11561 0
M  V30 13864 O 87.8695 8.36503 2.79617 0
M  V30 13865 O 88.4095 7.71806 0.42951 0
M  V30 13866 C 89.3495 7.67148 -0.673689 0
M  V30 13867 C 88.6195 7.33374 -1.95559 0
M  V30 13868 O 88.4095 5.88721 -2.00726 0
M  V30 13869 C 87.2195 7.92526 -2.10483 0
M  V30 13870 O 86.8295 8.02971 -3.47653 0
M  V30 13871 C 86.3395 6.89602 -1.41652 0
M  V30 13872 C 87.0495 5.59201 -1.75185 0
M  V30 13873 N 86.9995 4.58301 -0.657969 0
M  V30 13874 H 89.8385 8.65116 -0.777161 0
M  V30 13875 H 90.1105 6.9022 -0.46725 0
M  V30 13876 H 89.2425 7.66548 -2.79458 0
M  V30 13877 H 86.5875 5.16165 -2.65183 0
M  V30 13878 H 86.3075 7.06433 -0.329384 0
M  V30 13879 H 85.3165 6.90926 -1.82021 0
M  V30 13880 H 87.1505 8.90873 -1.62657 0
M  V30 13881 P 85.2795 8.03563 -3.84925 0
M  V30 13882 O 85.0595 8.85821 -5.0569 0
M  V30 13883 O 84.4895 8.41101 -2.65469 0
M  V30 13884 O 85.0295 6.4965 -4.18908 0
M  V30 13885 C 85.9695 5.81037 -5.05421 0
M  V30 13886 C 85.2395 4.78366 -5.89277 0
M  V30 13887 O 85.0295 3.58302 -5.08433 0
M  V30 13888 C 83.8395 5.17448 -6.36119 0
M  V30 13889 O 83.4495 4.45271 -7.53232 0
M  V30 13890 C 82.9595 4.74639 -5.19936 0
M  V30 13891 C 83.6695 3.49432 -4.70418 0
M  V30 13892 N 83.6195 3.31776 -3.22945 0
M  V30 13893 H 86.4585 6.54213 -5.71376 0
M  V30 13894 H 86.7305 5.30492 -4.44033 0
M  V30 13895 H 85.8625 4.55889 -6.76652 0
M  V30 13896 P 81.8995 4.23843 -7.83734 0
M  V30 13897 O 81.6795 4.19407 -9.29784 0
M  V30 13898 O 81.1095 5.24426 -7.09156 0
M  V30 13899 O 81.6495 2.7935 -7.20758 0
M  V30 13900 C 82.5895 1.7299 -7.50419 0
M  V30 13901 C 81.8595 0.406376 -7.57911 0
M  V30 13902 O 81.6495 -0.0897726 -6.21935 0
M  V30 13903 C 80.4595 0.447224 -8.1878 0
M  V30 13904 O 80.0695 -0.825065 -8.71101 0
M  V30 13905 C 79.5795 0.783801 -6.99623 0
M  V30 13906 C 80.2895 0.0619192 -5.85967 0
M  V30 13907 N 80.2395 0.7859 -4.56281 0
M  V30 13908 H 83.0785 1.93423 -8.4679 0
M  V30 13909 H 83.3505 1.68181 -6.71046 0
M  V30 13910 H 82.4825 -0.289041 -8.15388 0
M  V30 13911 P 78.5196 -1.17771 -8.83182 0
M  V30 13912 O 78.2996 -2.07206 -9.98732 0
M  V30 13913 O 77.7296 0.0743816 -8.81969 0
M  V30 13914 O 78.2696 -1.97652 -7.47304 0
M  V30 13915 C 79.2096 -3.01133 -7.08783 0
M  V30 13916 C 78.4796 -4.12613 -6.37049 0
M  V30 13917 O 78.2696 -3.72827 -4.97879 0
M  V30 13918 C 77.0796 -4.45085 -6.88694 0
M  V30 13919 O 76.6896 -5.7877 -6.5624 0
M  V30 13920 C 76.1996 -3.47817 -6.12078 0
M  V30 13921 C 76.9096 -3.39414 -4.77697 0
M  V30 13922 N 76.8596 -2.04615 -4.15333 0
M  V30 13923 H 79.6986 -3.41248 -7.98759 0
M  V30 13924 H 79.9706 -2.5837 -6.41742 0
M  V30 13925 H 79.1026 -5.02657 -6.42673 0
M  V30 13926 P 75.1396 -6.144 -6.45285 0
M  V30 13927 O 74.9196 -7.54673 -6.86199 0
M  V30 13928 O 74.3496 -5.12391 -7.179 0
M  V30 13929 O 74.8896 -5.99158 -4.88404 0
M  V30 13930 C 75.8296 -6.60234 -3.96415 0
M  V30 13931 C 75.0996 -7.08259 -2.72856 0
M  V30 13932 O 74.8896 -5.9427 -1.83651 0
M  V30 13933 C 73.6996 -7.64886 -2.9555 0
M  V30 13934 O 73.3096 -8.53963 -1.90717 0
M  V30 13935 C 72.8196 -6.4116 -2.90739 0
M  V30 13936 C 73.5296 -5.55375 -1.86963 0
M  V30 13937 N 73.4796 -4.09664 -2.15742 0
M  V30 13938 H 76.3186 -7.45574 -4.45629 0
M  V30 13939 H 76.5906 -5.86232 -3.67314 0
M  V30 13940 H 75.7226 -7.84412 -2.24479 0
M  V30 13941 P 71.7596 -8.7635 -1.60911 0
M  V30 13942 O 71.5396 -10.1388 -1.11561 0
M  V30 13943 O 70.9696 -8.36503 -2.79617 0
M  V30 13944 O 71.5096 -7.71906 -0.429565 0
M  V30 13945 C 72.4496 -7.67148 0.673689 0
M  V30 13946 C 71.7196 -7.33666 1.94851 0
M  V30 13947 O 71.5096 -5.88816 2.00759 0
M  V30 13948 C 70.3196 -7.92526 2.10483 0
M  V30 13949 O 69.9296 -8.03063 3.47693 0
M  V30 13950 C 69.4396 -6.89602 1.41652 0
M  V30 13951 C 70.1496 -5.59201 1.75185 0
M  V30 13952 N 70.0996 -4.58235 0.662552 0
M  V30 13953 C 69.9496 -3.24451 1.01643 0
M  V30 13954 O 69.8596 -2.94958 2.21722 0
M  V30 13955 N 69.8996 -2.30408 -0.165238 0
M  V30 13956 C 69.9996 -2.66048 -1.25118 0
M  V30 13957 N 69.9496 -1.70787 -2.16813 0
M  V30 13958 C 70.1496 -4.02732 -1.64413 0
M  V30 13959 C 70.1996 -4.9488 -0.63991 0
M  V30 13960 H 72.9396 -8.65017 0.777072 0
M  V30 13961 H 73.2096 -6.90173 0.474152 0
M  V30 13962 H 72.3426 -7.66642 2.79492 0
M  V30 13963 H 69.6876 -5.16254 2.65229 0
M  V30 13964 H 69.4076 -7.06532 0.329431 0
M  V30 13965 H 68.4166 -6.91023 1.82047 0
M  V30 13966 H 70.2506 -8.90873 1.62657 0
M  V30 13967 H 70.3226 -6.00104 -0.892197 0
M  V30 13968 H 70.2206 -4.31733 -2.69229 0
M  V30 13969 H 69.8326 -0.724835 -1.8844 0
M  V30 13970 H 70.0286 -1.94716 -3.16734 0
M  V30 13971 P 68.3796 -8.03563 3.84925 0
M  V30 13972 O 68.1596 -8.85821 5.0569 0
M  V30 13973 O 67.5896 -8.41101 2.65469 0
M  V30 13974 O 68.1296 -6.4965 4.18908 0
M  V30 13975 C 69.0696 -5.81037 5.05421 0
M  V30 13976 C 68.3396 -4.78366 5.89277 0
M  V30 13977 O 68.1296 -3.58302 5.08433 0
M  V30 13978 C 66.9396 -5.17448 6.36119 0
M  V30 13979 O 66.5496 -4.45271 7.53232 0
M  V30 13980 C 66.0596 -4.74639 5.19936 0
M  V30 13981 C 66.7696 -3.49432 4.70418 0
M  V30 13982 N 66.7196 -3.31776 3.22945 0
M  V30 13983 H 69.5586 -6.54213 5.71376 0
M  V30 13984 H 69.8306 -5.30492 4.44033 0
M  V30 13985 H 68.9626 -4.55889 6.76652 0
M  V30 13986 P 64.9996 -4.23843 7.83734 0
M  V30 13987 O 64.7796 -4.19407 9.29784 0
M  V30 13988 O 64.2096 -5.24426 7.09156 0
M  V30 13989 O 64.7496 -2.7935 7.20758 0
M  V30 13990 C 65.6896 -1.7299 7.50419 0
M  V30 13991 C 64.9596 -0.406376 7.57911 0
M  V30 13992 O 64.7496 0.0897726 6.21935 0
M  V30 13993 C 63.5596 -0.447224 8.1878 0
M  V30 13994 O 63.1696 0.825065 8.71101 0
M  V30 13995 C 62.6796 -0.783801 6.99623 0
M  V30 13996 C 63.3896 -0.0619192 5.85967 0
M  V30 13997 N 63.3396 -0.790462 4.56202 0
M  V30 13998 H 66.1786 -1.93423 8.4679 0
M  V30 13999 H 66.4506 -1.68852 6.70877 0
M  V30 14000 H 65.5826 0.289041 8.15388 0
M  V30 14001 H 62.9276 0.927006 5.72848 0
M  V30 14002 H 62.6476 -1.86973 6.82036 0
M  V30 14003 H 61.6566 -0.403953 7.13357 0
M  V30 14004 H 63.4906 -1.20599 8.97534 0
M  V30 14005 P 61.6197 1.17771 8.83182 0
M  V30 14006 O 61.3997 2.07206 9.98732 0
M  V30 14007 O 60.8297 -0.0743816 8.81969 0
M  V30 14008 O 61.3697 1.97652 7.47304 0
M  V30 14009 C 62.3097 3.01133 7.08783 0
M  V30 14010 C 61.5797 4.12613 6.37049 0
M  V30 14011 O 61.3697 3.72827 4.97879 0
M  V30 14012 C 60.1797 4.45085 6.88694 0
M  V30 14013 O 59.7897 5.7877 6.5624 0
M  V30 14014 C 59.2997 3.47817 6.12078 0
M  V30 14015 C 60.0097 3.39414 4.77697 0
M  V30 14016 N 59.9597 2.04615 4.15333 0
M  V30 14017 H 62.7987 3.41248 7.98759 0
M  V30 14018 H 63.0707 2.5837 6.41742 0
M  V30 14019 H 62.2027 5.02657 6.42673 0
M  V30 14020 P 58.2397 6.144 6.45285 0
M  V30 14021 O 58.0197 7.54673 6.86199 0
M  V30 14022 O 57.4497 5.12391 7.179 0
M  V30 14023 O 57.9897 5.99158 4.88404 0
M  V30 14024 C 58.9297 6.60234 3.96415 0
M  V30 14025 C 58.1997 7.08259 2.72856 0
M  V30 14026 O 57.9897 5.9427 1.83651 0
M  V30 14027 C 56.7997 7.64886 2.9555 0
M  V30 14028 O 56.4097 8.53963 1.90717 0
M  V30 14029 C 55.9197 6.4116 2.90739 0
M  V30 14030 C 56.6297 5.55375 1.86963 0
M  V30 14031 N 56.5797 4.09664 2.15742 0
M  V30 14032 H 59.4187 7.45574 4.45629 0
M  V30 14033 H 59.6907 5.86232 3.67314 0
M  V30 14034 H 58.8227 7.84412 2.24479 0
M  V30 14035 P 54.8597 8.7635 1.60911 0
M  V30 14036 O 54.6397 10.1388 1.11561 0
M  V30 14037 O 54.0697 8.36503 2.79617 0
M  V30 14038 O 54.6097 7.71806 0.42951 0
M  V30 14039 C 55.5497 7.67148 -0.673689 0
M  V30 14040 C 54.8197 7.33374 -1.95559 0
M  V30 14041 O 54.6097 5.88721 -2.00726 0
M  V30 14042 C 53.4197 7.92526 -2.10483 0
M  V30 14043 O 53.0297 8.02971 -3.47653 0
M  V30 14044 C 52.5397 6.89602 -1.41652 0
M  V30 14045 C 53.2497 5.59201 -1.75185 0
M  V30 14046 N 53.1997 4.58235 -0.662552 0
M  V30 14047 H 56.0387 8.65116 -0.777161 0
M  V30 14048 H 56.3107 6.90173 -0.474152 0
M  V30 14049 H 55.4427 7.66548 -2.79458 0
M  V30 14050 P 51.4797 8.03563 -3.84925 0
M  V30 14051 O 51.2597 8.85821 -5.0569 0
M  V30 14052 O 50.6897 8.41101 -2.65469 0
M  V30 14053 O 51.2297 6.4965 -4.18908 0
M  V30 14054 C 52.1697 5.81037 -5.05421 0
M  V30 14055 C 51.4397 4.78366 -5.89277 0
M  V30 14056 O 51.2297 3.58302 -5.08433 0
M  V30 14057 C 50.0397 5.17448 -6.36119 0
M  V30 14058 O 49.6497 4.45271 -7.53232 0
M  V30 14059 C 49.1597 4.74639 -5.19936 0
M  V30 14060 C 49.8697 3.49432 -4.70418 0
M  V30 14061 N 49.8197 3.31776 -3.22945 0
M  V30 14062 H 52.6587 6.54213 -5.71376 0
M  V30 14063 H 52.9307 5.30492 -4.44033 0
M  V30 14064 H 52.0627 4.55889 -6.76652 0
M  V30 14065 P 48.0997 4.23843 -7.83734 0
M  V30 14066 O 47.8797 4.19407 -9.29784 0
M  V30 14067 O 47.3097 5.24426 -7.09156 0
M  V30 14068 O 47.8497 2.7935 -7.20758 0
M  V30 14069 C 48.7897 1.7299 -7.50419 0
M  V30 14070 C 48.0597 0.406376 -7.57911 0
M  V30 14071 O 47.8497 -0.0897726 -6.21935 0
M  V30 14072 C 46.6597 0.447224 -8.1878 0
M  V30 14073 O 46.2697 -0.825065 -8.71101 0
M  V30 14074 C 45.7797 0.783801 -6.99623 0
M  V30 14075 C 46.4897 0.0619192 -5.85967 0
M  V30 14076 N 46.4397 0.790462 -4.56202 0
M  V30 14077 H 49.2787 1.93423 -8.4679 0
M  V30 14078 H 49.5507 1.68852 -6.70877 0
M  V30 14079 H 48.6827 -0.289041 -8.15388 0
M  V30 14080 H 46.0277 -0.927006 -5.72848 0
M  V30 14081 H 45.7477 1.86973 -6.82036 0
M  V30 14082 H 44.7567 0.403953 -7.13357 0
M  V30 14083 H 46.5907 1.20599 -8.97534 0
M  V30 14084 P 44.7198 -1.17771 -8.83182 0
M  V30 14085 O 44.4998 -2.07206 -9.98732 0
M  V30 14086 O 43.9298 0.0743816 -8.81969 0
M  V30 14087 O 44.4698 -1.97652 -7.47304 0
M  V30 14088 C 45.4098 -3.01133 -7.08783 0
M  V30 14089 C 44.6798 -4.12613 -6.37049 0
M  V30 14090 O 44.4698 -3.72827 -4.97879 0
M  V30 14091 C 43.2798 -4.45085 -6.88694 0
M  V30 14092 O 42.8898 -5.7877 -6.5624 0
M  V30 14093 C 42.3998 -3.47817 -6.12078 0
M  V30 14094 C 43.1098 -3.39414 -4.77697 0
M  V30 14095 N 43.0598 -2.04199 -4.15538 0
M  V30 14096 C 43.1398 -0.821545 -4.76977 0
M  V30 14097 N 43.0698 0.1794 -3.94592 0
M  V30 14098 C 42.9198 -0.419121 -2.70776 0
M  V30 14099 C 42.7898 0.109072 -1.40577 0
M  V30 14100 N 42.7798 1.4104 -1.1344 0
M  V30 14101 N 42.6698 -0.764381 -0.39411 0
M  V30 14102 C 42.6798 -2.06587 -0.664135 0
M  V30 14103 N 42.7998 -2.67948 -1.82153 0
M  V30 14104 C 42.9198 -1.77942 -2.8147 0
M  V30 14105 H 45.8988 -3.41248 -7.98759 0
M  V30 14106 H 46.1708 -2.57728 -6.42 0
M  V30 14107 H 45.3028 -5.02657 -6.42673 0
M  V30 14108 H 42.6478 -4.11708 -4.08956 0
M  V30 14109 H 42.3678 -2.49626 -6.61679 0
M  V30 14110 H 41.3768 -3.8662 -6.00862 0
M  V30 14111 H 43.2108 -4.29991 -7.97006 0
M  V30 14112 H 43.2518 -0.702451 -5.84696 0
M  V30 14113 H 42.8708 2.09647 -1.89651 0
M  V30 14114 H 42.6818 1.73358 -0.160575 0
M  V30 14115 H 42.5738 -2.71695 0.195838 0
M  V30 14116 P 41.3398 -6.144 -6.45285 0
M  V30 14117 O 41.1198 -7.54673 -6.86199 0
M  V30 14118 O 40.5498 -5.12391 -7.179 0
M  V30 14119 O 41.0898 -5.99158 -4.88404 0
M  V30 14120 C 42.0298 -6.60234 -3.96415 0
M  V30 14121 C 41.2998 -7.08259 -2.72856 0
M  V30 14122 O 41.0898 -5.9427 -1.83651 0
M  V30 14123 C 39.8998 -7.64886 -2.9555 0
M  V30 14124 O 39.5098 -8.53963 -1.90717 0
M  V30 14125 C 39.0198 -6.4116 -2.90739 0
M  V30 14126 C 39.7298 -5.55375 -1.86963 0
M  V30 14127 N 39.6798 -4.09448 -2.16152 0
M  V30 14128 H 42.5188 -7.45574 -4.45629 0
M  V30 14129 H 42.7908 -5.85864 -3.679 0
M  V30 14130 H 41.9228 -7.84412 -2.24479 0
M  V30 14131 H 39.2678 -5.73457 -0.888562 0
M  V30 14132 H 38.9878 -5.90877 -3.88583 0
M  V30 14133 H 37.9968 -6.6596 -2.58858 0
M  V30 14134 H 39.8308 -8.16339 -3.92049 0
M  V30 14135 P 37.9598 -8.7635 -1.60911 0
M  V30 14136 O 37.7398 -10.1388 -1.11561 0
M  V30 14137 O 37.1698 -8.36503 -2.79617 0
M  V30 14138 O 37.7098 -7.71806 -0.42951 0
M  V30 14139 C 38.6498 -7.66948 0.673514 0
M  V30 14140 C 37.9198 -7.33374 1.95559 0
M  V30 14141 O 37.7098 -5.88721 2.00726 0
M  V30 14142 C 36.5198 -7.92218 2.1125 0
M  V30 14143 O 36.1298 -8.02971 3.47653 0
M  V30 14144 C 35.6398 -6.89504 1.41631 0
M  V30 14145 C 36.3498 -5.59106 1.75155 0
M  V30 14146 N 36.2998 -4.58136 0.662409 0
M  V30 14147 C 36.1498 -3.26059 1.02863 0
M  V30 14148 O 36.0598 -2.90743 2.19009 0
M  V30 14149 N 36.1098 -2.35995 -0.0155585 0
M  V30 14150 C 36.1998 -2.65248 -1.35603 0
M  V30 14151 O 36.1498 -1.75605 -2.20651 0
M  V30 14152 C 36.3498 -4.05747 -1.64698 0
M  V30 14153 C 36.4598 -4.42345 -3.09553 0
M  V30 14154 C 36.3998 -4.96734 -0.652411 0
M  V30 14155 H 39.1408 -8.64917 0.776982 0
M  V30 14156 H 39.4098 -6.89974 0.474015 0
M  V30 14157 H 38.5428 -7.66548 2.79458 0
M  V30 14158 H 35.8878 -5.16076 2.65138 0
M  V30 14159 H 35.6088 -7.06433 0.329384 0
M  V30 14160 H 34.6168 -6.90829 1.81996 0
M  V30 14161 H 36.4508 -8.90774 1.62639 0
M  V30 14162 H 36.5218 -6.02181 -0.895285 0
M  V30 14163 H 35.4918 -4.80252 -3.45468 0
M  V30 14164 H 37.2288 -5.20015 -3.22119 0
M  V30 14165 H 36.7408 -3.53269 -3.67833 0
M  V30 14166 H 36.0048 -1.39558 0.227499 0
M  V30 14167 P 34.5798 -8.03563 3.84925 0
M  V30 14168 O 34.3598 -8.85821 5.0569 0
M  V30 14169 O 33.7898 -8.41101 2.65469 0
M  V30 14170 O 34.3298 -6.4965 4.18908 0
M  V30 14171 C 35.2698 -5.81037 5.05421 0
M  V30 14172 C 34.5398 -4.78366 5.89277 0
M  V30 14173 O 34.3298 -3.58302 5.08433 0
M  V30 14174 C 33.1398 -5.17448 6.36119 0
M  V30 14175 O 32.7498 -4.45271 7.53232 0
M  V30 14176 C 32.2598 -4.74639 5.19936 0
M  V30 14177 C 32.9698 -3.49432 4.70418 0
M  V30 14178 N 32.9198 -3.31776 3.22945 0
M  V30 14179 H 35.7588 -6.54213 5.71376 0
M  V30 14180 H 36.0308 -5.30492 4.44033 0
M  V30 14181 H 35.1628 -4.55889 6.76652 0
M  V30 14182 P 31.1998 -4.23843 7.83734 0
M  V30 14183 O 30.9798 -4.19407 9.29784 0
M  V30 14184 O 30.4098 -5.24426 7.09156 0
M  V30 14185 O 30.9498 -2.7935 7.20758 0
M  V30 14186 C 31.8898 -1.72945 7.50224 0
M  V30 14187 C 31.1598 -0.406376 7.57911 0
M  V30 14188 O 30.9498 0.0897726 6.21935 0
M  V30 14189 C 29.7598 -0.438983 8.18724 0
M  V30 14190 O 29.3698 0.825065 8.71101 0
M  V30 14191 C 28.8798 -0.783689 6.99524 0
M  V30 14192 C 29.5898 -0.0619086 5.85867 0
M  V30 14193 N 29.5398 -0.78573 4.56183 0
M  V30 14194 C 29.3898 -0.0292889 3.41887 0
M  V30 14195 O 29.2998 1.18445 3.4419 0
M  V30 14196 N 29.3498 -0.744061 2.23964 0
M  V30 14197 C 29.4398 -2.10932 2.10362 0
M  V30 14198 O 29.3898 -2.64117 0.98825 0
M  V30 14199 C 29.5898 -2.8202 3.34994 0
M  V30 14200 C 29.6998 -4.31095 3.25037 0
M  V30 14201 C 29.6398 -2.15547 4.52261 0
M  V30 14202 H 32.3808 -1.93379 8.46595 0
M  V30 14203 H 32.6498 -1.68132 6.70852 0
M  V30 14204 H 31.7828 0.289041 8.15388 0
M  V30 14205 H 29.1278 0.926847 5.72749 0
M  V30 14206 H 28.8488 -1.86973 6.82036 0
M  V30 14207 H 27.8568 -0.403896 7.13257 0
M  V30 14208 H 29.6908 -1.20585 8.97435 0
M  V30 14209 H 29.7618 -2.71231 5.45042 0
M  V30 14210 H 28.7318 -4.76966 3.49992 0
M  V30 14211 H 30.4688 -4.67047 3.95024 0
M  V30 14212 H 29.9808 -4.58996 2.22312 0
M  V30 14213 H 29.2448 -0.214893 1.39758 0
M  V30 14214 P 27.8199 1.17771 8.83182 0
M  V30 14215 O 27.5999 2.07206 9.98732 0
M  V30 14216 O 27.0299 -0.0743816 8.81969 0
M  V30 14217 O 27.5699 1.97652 7.47304 0
M  V30 14218 C 28.5099 3.01133 7.08783 0
M  V30 14219 C 27.7799 4.12613 6.37049 0
M  V30 14220 O 27.5699 3.72827 4.97879 0
M  V30 14221 C 26.3799 4.45085 6.88694 0
M  V30 14222 O 25.9899 5.7877 6.5624 0
M  V30 14223 C 25.4999 3.47817 6.12078 0
M  V30 14224 C 26.2099 3.39414 4.77697 0
M  V30 14225 N 26.1599 2.04615 4.15333 0
M  V30 14226 H 28.9989 3.41248 7.98759 0
M  V30 14227 H 29.2709 2.5837 6.41742 0
M  V30 14228 H 28.4029 5.02657 6.42673 0
M  V30 14229 P 24.4399 6.144 6.45285 0
M  V30 14230 O 24.2199 7.54673 6.86199 0
M  V30 14231 O 23.6499 5.12391 7.179 0
M  V30 14232 O 24.1899 5.99158 4.88404 0
M  V30 14233 C 25.1299 6.60234 3.96415 0
M  V30 14234 C 24.3999 7.08259 2.72856 0
M  V30 14235 O 24.1899 5.9427 1.83651 0
M  V30 14236 C 22.9999 7.64886 2.9555 0
M  V30 14237 O 22.6099 8.53963 1.90717 0
M  V30 14238 C 22.1199 6.4116 2.90739 0
M  V30 14239 C 22.8299 5.55375 1.86963 0
M  V30 14240 N 22.7799 4.09664 2.15742 0
M  V30 14241 H 25.6189 7.45574 4.45629 0
M  V30 14242 H 25.8909 5.86232 3.67314 0
M  V30 14243 H 25.0229 7.84412 2.24479 0
M  V30 14244 P 21.0599 8.7635 1.60911 0
M  V30 14245 O 20.8399 10.1388 1.11561 0
M  V30 14246 O 20.2699 8.36503 2.79617 0
M  V30 14247 O 20.8099 7.71806 0.42951 0
M  V30 14248 C 21.7499 7.67148 -0.673689 0
M  V30 14249 C 21.0199 7.33374 -1.95559 0
M  V30 14250 O 20.8099 5.88721 -2.00726 0
M  V30 14251 C 19.6199 7.92526 -2.10483 0
M  V30 14252 O 19.2299 8.02971 -3.47653 0
M  V30 14253 C 18.7399 6.89602 -1.41652 0
M  V30 14254 C 19.4499 5.59201 -1.75185 0
M  V30 14255 N 19.3999 4.58235 -0.662552 0
M  V30 14256 H 22.2389 8.65116 -0.777161 0
M  V30 14257 H 22.5109 6.90173 -0.474152 0
M  V30 14258 H 21.6429 7.66548 -2.79458 0
M  V30 14259 P 17.6799 8.03563 -3.84925 0
M  V30 14260 O 17.4599 8.85821 -5.0569 0
M  V30 14261 O 16.8899 8.41101 -2.65469 0
M  V30 14262 O 17.4299 6.4965 -4.18908 0
M  V30 14263 C 18.3699 5.81037 -5.05421 0
M  V30 14264 C 17.6399 4.78366 -5.89277 0
M  V30 14265 O 17.4299 3.58302 -5.08433 0
M  V30 14266 C 16.2399 5.17448 -6.36119 0
M  V30 14267 O 15.8499 4.45271 -7.53232 0
M  V30 14268 C 15.3599 4.74639 -5.19936 0
M  V30 14269 C 16.0699 3.49432 -4.70418 0
M  V30 14270 N 16.0199 3.31776 -3.22945 0
M  V30 14271 H 18.8589 6.54213 -5.71376 0
M  V30 14272 H 19.1309 5.30492 -4.44033 0
M  V30 14273 H 18.2629 4.55889 -6.76652 0
M  V30 14274 P 14.2999 4.23843 -7.83734 0
M  V30 14275 O 14.0799 4.19407 -9.29784 0
M  V30 14276 O 13.5099 5.24426 -7.09156 0
M  V30 14277 O 14.0499 2.7935 -7.20758 0
M  V30 14278 C 14.9899 1.7299 -7.50419 0
M  V30 14279 C 14.2599 0.406376 -7.57911 0
M  V30 14280 O 14.0499 -0.0897726 -6.21935 0
M  V30 14281 C 12.8599 0.447224 -8.1878 0
M  V30 14282 O 12.4699 -0.825065 -8.71101 0
M  V30 14283 C 11.9799 0.783801 -6.99623 0
M  V30 14284 C 12.6899 0.0619192 -5.85967 0
M  V30 14285 N 12.6399 0.7859 -4.56281 0
M  V30 14286 H 15.4789 1.93423 -8.4679 0
M  V30 14287 H 15.7509 1.68181 -6.71046 0
M  V30 14288 H 14.8829 -0.289041 -8.15388 0
M  V30 14289 P 10.92 -1.17771 -8.83182 0
M  V30 14290 O 10.7 -2.07206 -9.98732 0
M  V30 14291 O 10.13 0.0743816 -8.81969 0
M  V30 14292 O 10.67 -1.97652 -7.47304 0
M  V30 14293 C 11.61 -3.01133 -7.08783 0
M  V30 14294 C 10.88 -4.12613 -6.37049 0
M  V30 14295 O 10.67 -3.72827 -4.97879 0
M  V30 14296 C 9.47996 -4.45085 -6.88694 0
M  V30 14297 O 9.08996 -5.7877 -6.5624 0
M  V30 14298 C 8.59996 -3.47817 -6.12078 0
M  V30 14299 C 9.30996 -3.39414 -4.77697 0
M  V30 14300 N 9.25996 -2.04615 -4.15333 0
M  V30 14301 H 12.099 -3.41248 -7.98759 0
M  V30 14302 H 12.371 -2.5837 -6.41742 0
M  V30 14303 H 11.503 -5.02657 -6.42673 0
M  V30 14304 P 7.53998 -6.144 -6.45285 0
M  V30 14305 O 7.31998 -7.54673 -6.86199 0
M  V30 14306 O 6.74998 -5.12391 -7.179 0
M  V30 14307 O 7.28998 -5.99158 -4.88404 0
M  V30 14308 C 8.22998 -6.60062 -3.96313 0
M  V30 14309 C 7.49998 -7.08259 -2.72856 0
M  V30 14310 O 7.28998 -5.9427 -1.83651 0
M  V30 14311 C 6.09998 -7.65087 -2.94749 0
M  V30 14312 O 5.70998 -8.53963 -1.90717 0
M  V30 14313 C 5.21998 -6.41069 -2.90698 0
M  V30 14314 C 5.92998 -5.5528 -1.86931 0
M  V30 14315 N 5.87998 -4.09575 -2.15696 0
M  V30 14316 C 5.72998 -3.24249 -1.08435 0
M  V30 14317 O 5.63998 -3.63946 0.0628747 0
M  V30 14318 N 5.68998 -1.90009 -1.39973 0
M  V30 14319 C 5.77998 -1.34884 -2.65614 0
M  V30 14320 O 5.72998 -0.123716 -2.81728 0
M  V30 14321 C 5.92998 -2.3145 -3.71736 0
M  V30 14322 C 6.03998 -1.75913 -5.10438 0
M  V30 14323 C 5.97998 -3.63518 -3.44754 0
M  V30 14324 H 8.72098 -7.45402 -4.45526 0
M  V30 14325 H 8.98998 -5.86062 -3.67208 0
M  V30 14326 H 8.12298 -7.84412 -2.24479 0
M  V30 14327 H 5.46798 -5.73358 -0.888409 0
M  V30 14328 H 5.18898 -5.90877 -3.88583 0
M  V30 14329 H 4.19698 -6.65867 -2.58821 0
M  V30 14330 H 6.03098 -8.16248 -3.92006 0
M  V30 14331 H 6.10198 -4.34551 -4.26383 0
M  V30 14332 H 5.07198 -1.85471 -5.61775 0
M  V30 14333 H 6.80898 -2.31364 -5.66257 0
M  V30 14334 H 6.32098 -0.695936 -5.05229 0
M  V30 14335 H 5.58498 -1.26277 -0.63625 0
M  V30 14336 P 4.16 -8.7635 -1.60911 0
M  V30 14337 O 3.94 -10.1388 -1.11561 0
M  V30 14338 O 3.37 -8.36503 -2.79617 0
M  V30 14339 O 3.91 -7.71806 -0.42951 0
M  V30 14340 C 4.85 -7.67148 0.673689 0
M  V30 14341 C 4.12 -7.33374 1.95559 0
M  V30 14342 O 3.91 -5.88721 2.00726 0
M  V30 14343 C 2.72 -7.92526 2.10483 0
M  V30 14344 O 2.33 -8.02971 3.47653 0
M  V30 14345 C 1.84 -6.89602 1.41652 0
M  V30 14346 C 2.55 -5.59201 1.75185 0
M  V30 14347 N 2.5 -4.58235 0.662552 0
M  V30 14348 H 5.339 -8.65116 0.777161 0
M  V30 14349 H 5.611 -6.90173 0.474152 0
M  V30 14350 H 4.743 -7.66548 2.79458 0
M  V30 14351 H 1.613 -8.66322 3.55694 0
M  V30 END ATOM
M  V30 BEGIN BOND
M  V30 END BOND
M  V30 END CTAB
M  END
$$$$
