drugbank_target|P22088 Lipase (DB06965; DB06966; DB07990; DB08419)
 OpenBabel12092120393D

  0  0  0     0  0            999 V3000
M  V30 BEGIN CTAB
M  V30 COUNTS 5252 5302 0 0 0
M  V30 BEGIN ATOM
M  V30 1 H -0.908 1.98254 -0.117106 0
M  V30 2 N 0 1.576 0 0
M  V30 3 C 0.933 2.03868 1.02534 0
M  V30 4 C 1.911 0.928543 1.3348 0
M  V30 5 O 3.095 1.19667 1.45644 0
M  V30 6 C 0.222 2.43627 2.35294 0
M  V30 7 C -0.732 3.65373 2.2001 0
M  V30 8 S 0.101 5.13292 1.52614 0
M  V30 9 C 1.257 5.56322 2.86805 0
M  V30 10 H 1.49 2.90518 0.631377 0
M  V30 11 H -0.977 1.52953 0.210867 0
M  V30 12 H 0.981 2.67203 3.11629 0
M  V30 13 H -0.358 1.57376 2.7183 0
M  V30 14 H -1.165 3.90944 3.18086 0
M  V30 15 H -1.563 3.418 1.51819 0
M  V30 16 H 0.729 5.58782 3.83104 0
M  V30 17 H 1.672 6.56266 2.65933 0
M  V30 18 H 2.08 4.83886 2.90714 0
M  V30 19 N 1.4781 -0.272755 1.55222 0
M  V30 20 C 2.4411 -1.32041 1.87344 0
M  V30 21 C 3.4411 -1.42342 0.74803 0
M  V30 22 O 4.6311 -1.41488 1.0162 0
M  V30 23 C 1.7631 -2.70173 2.07893 0
M  V30 24 H 2.9561 -1.04789 2.80997 0
M  V30 25 H 0.5091 -0.51083 1.47717 0
M  V30 26 H 1.2441 -3.02605 1.16622 0
M  V30 27 H 1.0291 -2.64082 2.89833 0
M  V30 28 H 2.5191 -3.45869 2.34017 0
M  V30 29 N 2.9562 -1.48159 -0.537278 0
M  V30 30 C 4.3722 -1.34118 -0.865129 0
M  V30 31 C 4.5722 -0.346678 -1.98495 0
M  V30 32 O 3.6282 0.234715 -2.51407 0
M  V30 33 C 4.9412 -2.73963 -1.23954 0
M  V30 34 C 6.4892 -2.82397 -1.34984 0
M  V30 35 C 6.9642 -4.22928 -1.75772 0
M  V30 36 N 8.4552 -4.25566 -1.82887 0
M  V30 37 C 9.1902 -5.31235 -2.15817 0
M  V30 38 N 8.6862 -6.47189 -2.47222 0
M  V30 39 N 10.4792 -5.18624 -2.16761 0
M  V30 40 H 2.6302 -2.1144 0.201715 0
M  V30 41 H 4.8932 -0.947598 0.0275949 0
M  V30 42 H 4.5992 -3.48264 -0.490381 0
M  V30 43 H 4.4732 -3.0702 -2.19132 0
M  V30 44 H 6.8602 -2.08356 -2.08978 0
M  V30 45 H 6.9412 -2.5297 -0.379448 0
M  V30 46 H 6.5852 -4.97482 -1.02341 0
M  V30 47 H 6.5152 -4.49794 -2.73848 0
M  V30 48 H 9.0062 -3.41924 -1.60924 0
M  V30 49 H 9.3192 -7.23564 -2.71433 0
M  V30 50 H 7.6642 -6.50476 -2.44757 0
M  V30 51 H 10.8552 -4.27056 -1.91679 0
M  V30 52 H 11.0282 -6.01078 -2.42093 0
M  V30 53 N 4.4343 0.785586 -1.36625 0
M  V30 54 C 5.6623 1.57448 -1.3423 0
M  V30 55 C 6.0773 1.88649 0.0755653 0
M  V30 56 O 5.4343 1.50414 1.03354 0
M  V30 57 C 5.4853 2.89316 -2.16745 0
M  V30 58 O 5.2063 2.59459 -3.53005 0
M  V30 59 C 6.7073 3.83606 -2.22174 0
M  V30 60 H 3.9273 0.488226 -0.4603 0
M  V30 61 H 6.4713 0.974733 -1.79775 0
M  V30 62 H 4.6263 3.4575 -1.74745 0
M  V30 63 H 5.0403 3.43804 -3.96105 0
M  V30 64 H 6.5143 4.73181 -2.8426 0
M  V30 65 H 6.9913 4.21734 -1.22627 0
M  V30 66 H 7.5973 3.33104 -2.64427 0
M  V30 67 N 5.9124 1.20967 1.01018 0
M  V30 68 C 6.8454 0.907578 2.09376 0
M  V30 69 C 7.8234 -0.142868 1.61971 0
M  V30 70 O 9.0074 -0.0150391 1.88494 0
M  V30 71 C 6.1344 0.361791 3.36762 0
M  V30 72 C 5.1804 1.39423 4.03068 0
M  V30 73 S 6.0134 2.96159 4.4615 0
M  V30 74 C 7.1694 2.43173 5.7673 0
M  V30 75 H 7.4024 1.82519 2.34678 0
M  V30 76 H 4.9354 1.03884 1.14225 0
M  V30 77 H 6.8934 0.0534523 4.10465 0
M  V30 78 H 5.5544 -0.53443 3.0952 0
M  V30 79 H 4.7474 0.961853 4.94737 0
M  V30 80 H 4.3494 1.65038 3.35617 0
M  V30 81 H 6.6414 1.83335 6.52223 0
M  V30 82 H 7.5844 3.33264 6.24773 0
M  V30 83 H 7.9924 1.85069 5.33301 0
M  V30 84 N 7.3905 -1.2043 1.01659 0
M  V30 85 C 8.8065 -1.41852 0.731442 0
M  V30 86 C 9.0065 -1.89358 -0.688898 0
M  V30 87 O 8.0625 -2.06247 -1.45666 0
M  V30 88 C 9.3755 -2.44019 1.75714 0
M  V30 89 C 10.9235 -2.57785 1.77527 0
M  V30 90 C 11.3985 -3.63194 2.79023 0
M  V30 91 N 12.8895 -3.70678 2.77763 0
M  V30 92 C 13.6245 -4.51897 3.52954 0
M  V30 93 N 13.1205 -5.36921 4.37821 0
M  V30 94 N 14.9135 -4.4643 3.41551 0
M  V30 95 H 7.0645 -0.879093 1.93354 0
M  V30 96 H 9.3275 -0.448425 0.835236 0
M  V30 97 H 9.0335 -2.1611 2.77469 0
M  V30 98 H 8.9075 -3.43007 1.56927 0
M  V30 99 H 11.2945 -2.85023 0.764569 0
M  V30 100 H 11.3755 -1.58992 2.00387 0
M  V30 101 H 11.0195 -3.36699 3.80258 0
M  V30 102 H 10.9495 -4.61609 2.53425 0
M  V30 103 H 13.4405 -3.09944 2.16201 0
M  V30 104 H 13.7535 -5.95981 4.91962 0
M  V30 105 H 12.0985 -5.36424 4.41899 0
M  V30 106 H 15.2895 -3.79042 2.74672 0
M  V30 107 H 15.4625 -5.09491 4.00404 0
M  V30 108 N 8.8686 -0.792821 -1.36206 0
M  V30 109 C 10.0936 -0.377701 -2.03932 0
M  V30 110 C 10.5186 0.998947 -1.59382 0
M  V30 111 O 9.8766 1.64421 -0.763903 0
M  V30 112 C 9.9246 -0.453635 -3.57735 0
M  V30 113 O 9.0286 0.538151 -4.08874 0
M  V30 114 H 8.3696 -0.159855 -0.644471 0
M  V30 115 H 10.8996 -1.07488 -1.7409 0
M  V30 116 H 10.9096 -0.318464 -4.06755 0
M  V30 117 H 9.5846 -1.45784 -3.89512 0
M  V30 118 H 8.1616 0.364359 -3.71116 0
M  V30 119 N 10.3467 1.47872 -0.545128 0
M  V30 120 C 11.7627 1.5829 -0.204032 0
M  V30 121 C 11.9627 1.54529 1.29317 0
M  V30 122 O 11.0187 1.44232 2.07252 0
M  V30 123 C 12.3317 2.89304 -0.819987 0
M  V30 124 C 13.8797 3.02864 -0.790105 0
M  V30 125 C 14.3547 4.3656 -1.38491 0
M  V30 126 N 15.8457 4.43165 -1.34755 0
M  V30 127 C 16.5807 5.45153 -1.77753 0
M  V30 128 N 16.0767 6.54016 -2.2855 0
M  V30 129 N 17.8697 5.36125 -1.68897 0
M  V30 130 H 10.0207 1.4856 -1.51802 0
M  V30 131 H 12.2837 0.706305 -0.632327 0
M  V30 132 H 11.9897 2.97757 -1.87173 0
M  V30 133 H 11.8637 3.75957 -0.305915 0
M  V30 134 H 14.2507 2.94014 0.252913 0
M  V30 135 H 14.3317 2.17782 -1.34181 0
M  V30 136 H 13.9757 4.46164 -2.42693 0
M  V30 137 H 13.9057 5.20353 -0.808754 0
M  V30 138 H 16.3967 3.65083 -0.975855 0
M  V30 139 H 16.7097 7.27994 -2.59314 0
M  V30 140 H 15.0547 6.54938 -2.32553 0
M  V30 141 H 18.2457 4.49975 -1.28998 0
M  V30 142 H 18.4187 6.15472 -2.02726 0
M  V30 143 N 11.8248 0.280983 1.55075 0
M  V30 144 C 13.0708 -0.33461 2.00021 0
M  V30 145 C 13.4038 -1.55063 1.16915 0
M  V30 146 O 12.6788 -1.93006 0.240646 0
M  V30 147 C 12.9618 -0.711007 3.53011 0
M  V30 148 C 12.8148 0.512766 4.46868 0
M  V30 149 C 14.1338 -1.54522 4.12081 0
M  V30 150 H 11.2528 -0.120147 0.727141 0
M  V30 151 H 13.8948 0.389097 1.85973 0
M  V30 152 H 12.0448 -1.32761 3.65112 0
M  V30 153 H 13.7168 1.15131 4.46702 0
M  V30 154 H 11.9598 1.14975 4.18286 0
M  V30 155 H 12.6308 0.205556 5.51617 0
M  V30 156 H 15.1068 -1.02442 4.03293 0
M  V30 157 H 13.9828 -1.77739 5.19327 0
M  V30 158 H 14.2438 -2.52813 3.62682 0
M  V30 159 N 13.3029 -1.57598 0.00835791 0
M  V30 160 C 14.5489 -1.91211 -0.675732 0
M  V30 161 C 14.8819 -0.883139 -1.72958 0
M  V30 162 O 14.1569 0.097016 -1.94258 0
M  V30 163 C 14.4399 -3.35379 -1.31123 0
M  V30 164 C 14.2929 -4.48999 -0.268356 0
M  V30 165 C 15.6119 -3.7912 -2.23508 0
M  V30 166 H 12.7309 -0.695374 -0.244179 0
M  V30 167 H 15.3729 -1.89901 0.0613655 0
M  V30 168 H 13.5229 -3.36626 -1.93946 0
M  V30 169 H 15.1949 -4.59887 0.360844 0
M  V30 170 H 13.4379 -4.31873 0.408482 0
M  V30 171 H 14.1089 -5.46851 -0.752218 0
M  V30 172 H 16.5849 -3.79477 -1.70693 0
M  V30 173 H 15.4609 -4.80729 -2.64936 0
M  V30 174 H 15.7219 -3.13455 -3.11766 0
M  V30 175 N 14.781 0.264519 -1.55364 0
M  V30 176 C 15.744 1.31046 -1.88042 0
M  V30 177 C 16.744 1.41943 -0.755569 0
M  V30 178 O 17.934 1.40947 -1.02369 0
M  V30 179 C 15.066 2.69067 -2.09323 0
M  V30 180 H 16.259 1.03297 -2.81549 0
M  V30 181 H 13.812 0.502989 -1.47986 0
M  V30 182 H 14.547 3.01982 -1.18226 0
M  V30 183 H 14.332 2.62542 -2.91229 0
M  V30 184 H 15.822 3.44623 -2.35848 0
M  V30 185 N 16.2591 1.48442 0.529413 0
M  V30 186 C 17.5071 1.56179 1.28267 0
M  V30 187 C 17.8281 0.237721 1.93546 0
M  V30 188 O 17.0981 -0.740779 1.81354 0
M  V30 189 H 15.6781 0.575367 0.476405 0
M  V30 190 H 18.3401 1.84909 0.61602 0
M  V30 191 H 17.4361 2.34312 2.06165 0
M  V30 192 N 17.7372 -0.778329 1.37039 0
M  V30 193 C 18.7002 -1.87301 1.32102 0
M  V30 194 C 19.7002 -1.59198 0.226405 0
M  V30 195 O 20.8902 -1.67403 0.481861 0
M  V30 196 C 18.0222 -3.24309 1.05055 0
M  V30 197 H 19.2152 -1.93093 2.29467 0
M  V30 198 H 16.7682 -0.977358 1.21973 0
M  V30 199 H 17.5032 -3.24196 0.0819373 0
M  V30 200 H 17.2882 -3.46098 1.84279 0
M  V30 201 H 18.7782 -4.04382 1.04234 0
M  V30 202 N 19.2153 -1.21501 -1.00376 0
M  V30 203 C 20.4613 -1.03452 -1.74429 0
M  V30 204 C 20.7943 0.430764 -1.89362 0
M  V30 205 O 20.0693 1.31962 -1.42886 0
M  V30 206 C 20.3523 -1.73375 -3.15615 0
M  V30 207 C 20.2053 -3.27431 -3.08397 0
M  V30 208 C 21.5243 -1.47732 -4.14564 0
M  V30 209 H 18.6433 -0.377226 -0.633143 0
M  V30 210 H 21.2853 -1.49693 -1.17013 0
M  V30 211 H 19.4353 -1.34064 -3.64636 0
M  V30 212 H 21.1073 -3.76119 -2.67081 0
M  V30 213 H 19.3503 -3.5767 -2.45468 0
M  V30 214 H 20.0213 -3.71524 -4.08258 0
M  V30 215 H 22.4973 -1.8186 -3.74254 0
M  V30 216 H 21.3733 -1.99169 -5.11491 0
M  V30 217 H 21.6343 -0.407589 -4.40217 0
M  V30 218 N 20.6934 1.19889 -1.02296 0
M  V30 219 C 21.6564 2.21116 -0.603351 0
M  V30 220 C 22.6564 1.5738 0.329884 0
M  V30 221 O 23.8464 1.73802 0.117702 0
M  V30 222 C 20.9784 3.40696 0.117992 0
M  V30 223 H 22.1714 2.59754 -1.49893 0
M  V30 224 H 19.7244 1.33463 -0.813468 0
M  V30 225 H 20.4594 3.07569 1.0282 0
M  V30 226 H 20.2444 3.88188 -0.552511 0
M  V30 227 H 21.7344 4.15692 0.398696 0
M  V30 228 N 22.1715 0.800033 1.35784 0
M  V30 229 C 23.4115 0.382891 2.00782 0
M  V30 230 C 23.7755 -1.02891 1.62103 0
M  V30 231 O 24.9765 -1.54771 2.19771 0
M  V30 232 C 23.2475 0.553299 3.53091 0
M  V30 233 S 24.8065 0.225608 4.3822 0
M  V30 234 H 21.6245 0.145737 0.695904 0
M  V30 235 H 24.2265 1.04085 1.65489 0
M  V30 236 H 22.9305 1.58091 3.78729 0
M  V30 237 H 22.4615 -0.120214 3.93216 0
M  V30 238 H 24.4765 -0.969074 4.86645 0
M  V30 239 N 23.6496 -1.47581 0.552962 0
M  V30 240 C 24.6126 -2.28439 -0.186605 0
M  V30 241 C 25.6126 -1.36706 -0.84665 0
M  V30 242 O 26.8026 -1.59378 -0.703164 0
M  V30 243 C 23.9346 -3.16264 -1.2724 0
M  V30 244 H 25.1276 -2.95294 0.523609 0
M  V30 245 H 22.6806 -1.532 0.309745 0
M  V30 246 H 23.4156 -2.54091 -2.01514 0
M  V30 247 H 23.2006 -3.83769 -0.803968 0
M  V30 248 H 24.6906 -3.77198 -1.79196 0
M  V30 249 N 25.1277 -0.289203 -1.54924 0
M  V30 250 C 26.0607 0.633823 -2.19221 0
M  V30 251 C 27.0387 1.14174 -1.15772 0
M  V30 252 O 28.2227 1.21211 -1.44361 0
M  V30 253 C 25.3497 1.86592 -2.82668 0
M  V30 254 C 24.3957 1.49227 -3.99542 0
M  V30 255 S 25.2287 0.558312 -5.32582 0
M  V30 256 C 26.3847 1.79847 -5.99505 0
M  V30 257 H 26.6177 0.0875416 -2.97171 0
M  V30 258 H 24.1507 -0.0733899 -1.54225 0
M  V30 259 H 26.1087 2.57305 -3.19851 0
M  V30 260 H 24.7697 2.38335 -2.04585 0
M  V30 261 H 23.9627 2.40945 -4.42676 0
M  V30 262 H 23.5647 0.865193 -3.63855 0
M  V30 263 H 25.8567 2.7406 -6.19595 0
M  V30 264 H 26.7997 1.4099 -6.93922 0
M  V30 265 H 27.2077 1.96982 -5.29016 0
M  V30 266 N 26.6058 1.57591 -0.0167156 0
M  V30 267 C 27.8308 1.9598 0.67872 0
M  V30 268 C 28.2558 0.892546 1.65575 0
M  V30 269 O 27.6138 -0.147772 1.80697 0
M  V30 270 C 27.6618 3.33468 1.37227 0
M  V30 271 O 26.7658 3.28954 2.48722 0
M  V30 272 H 26.1068 0.639339 0.17928 0
M  V30 273 H 28.6368 2.04463 -0.0748802 0
M  V30 274 H 28.6468 3.69417 1.7319 0
M  V30 275 H 27.3218 4.10694 0.656007 0
M  V30 276 H 25.8988 3.04705 2.14963 0
M  V30 277 N 28.0839 -0.256276 1.55502 0
M  V30 278 C 29.3329 -0.983486 1.76098 0
M  V30 279 C 29.6459 -1.86837 0.578896 0
M  V30 280 O 30.8519 -2.63163 0.667648 0
M  V30 281 C 29.3079 -1.79868 3.1173 0
M  V30 282 C 28.9159 -0.961648 4.37557 0
M  V30 283 C 30.6599 -2.51919 3.41668 0
M  V30 284 C 28.5669 -1.77219 5.64223 0
M  V30 285 H 27.4969 -0.370936 0.656447 0
M  V30 286 H 30.1479 -0.238492 1.81944 0
M  V30 287 H 28.5299 -2.58527 2.99966 0
M  V30 288 H 29.7039 -0.218048 4.60284 0
M  V30 289 H 28.0189 -0.354913 4.14885 0
M  V30 290 H 30.6159 -3.12998 4.33516 0
M  V30 291 H 30.9589 -3.23059 2.62562 0
M  V30 292 H 31.4919 -1.80278 3.54605 0
M  V30 293 H 28.2309 -1.10471 6.46124 0
M  V30 294 H 27.7509 -2.49132 5.45613 0
M  V30 295 H 29.4299 -2.34169 6.03137 0
M  V30 296 N 29.562 -1.4872 -0.521534 0
M  V30 297 C 30.525 -1.63379 -1.60748 0
M  V30 298 C 31.525 -0.50661 -1.52611 0
M  V30 299 O 32.715 -0.772601 -1.5613 0
M  V30 300 C 29.847 -1.61192 -3.00383 0
M  V30 301 H 31.04 -2.60217 -1.49087 0
M  V30 302 H 28.593 -1.37444 -0.744235 0
M  V30 303 H 29.328 -0.65863 -3.17541 0
M  V30 304 H 29.113 -2.43032 -3.07698 0
M  V30 305 H 30.603 -1.7466 -3.7932 0
M  V30 306 N 31.0401 0.771051 -1.3745 0
M  V30 307 C 32.4511 1.34737 -1.29239 0
M  V30 308 C 32.8021 1.96109 0.0596908 0
M  V30 309 O 31.9271 1.93865 0.961534 0
M  V30 310 C 32.5221 2.44973 -2.34037 0
M  V30 311 C 31.0811 2.98372 -2.29458 0
M  V30 312 C 30.2281 1.71595 -2.17831 0
M  V30 313 H 33.1791 0.571256 -1.48062 0
M  V30 314 H 33.2001 3.24471 -1.98744 0
M  V30 315 H 32.7121 2.00276 -3.32432 0
M  V30 316 H 30.8131 3.47443 -1.34589 0
M  V30 317 H 30.9261 3.53939 -3.229 0
M  V30 318 H 29.2901 1.94547 -1.64388 0
M  V30 319 H 30.0731 1.29001 -3.18141 0
M  V30 320 N 32.5182 1.22032 0.997298 0
M  V30 321 C 33.7652 1.04222 1.73621 0
M  V30 322 C 34.0932 -0.423264 1.89839 0
M  V30 323 O 33.3482 -1.3302 1.43542 0
M  V30 324 C 33.6472 1.69345 3.14733 0
M  V30 325 C 33.3132 3.19226 3.18442 0
M  V30 326 C 31.9752 3.60124 3.19161 0
M  V30 327 C 34.3272 4.15181 3.15078 0
M  V30 328 C 31.6552 4.95467 3.14212 0
M  V30 329 C 34.0072 5.50495 3.1167 0
M  V30 330 C 32.6712 5.90779 3.10703 0
M  V30 331 H 31.9412 0.381374 0.635323 0
M  V30 332 H 34.5882 1.51732 1.16831 0
M  V30 333 H 32.8932 1.14147 3.74803 0
M  V30 334 H 34.5902 1.53059 3.7064 0
M  V30 335 H 31.1802 2.86659 3.18629 0
M  V30 336 H 35.3642 3.84605 3.13676 0
M  V30 337 H 30.6202 5.25916 3.11805 0
M  V30 338 H 34.7942 6.24576 3.08022 0
M  V30 339 H 32.4212 6.9562 3.06622 0
M  V30 340 N 33.9963 -1.19345 1.0293 0
M  V30 341 C 34.9593 -2.20793 0.615069 0
M  V30 342 C 35.9593 -1.57553 -0.321533 0
M  V30 343 O 37.1493 -1.73862 -0.108483 0
M  V30 344 C 34.2813 -3.40754 -0.0999222 0
M  V30 345 H 35.4743 -2.58955 1.51269 0
M  V30 346 H 33.0273 -1.3303 0.820534 0
M  V30 347 H 33.7623 -3.0811 -1.01187 0
M  V30 348 H 33.5473 -3.87889 0.57309 0
M  V30 349 H 35.0373 -4.15898 -0.376645 0
M  V30 350 N 35.4744 -0.807222 -1.35358 0
M  V30 351 C 36.7224 -0.387122 -1.98358 0
M  V30 352 C 37.0434 1.04942 -1.64354 0
M  V30 353 O 36.3134 1.72615 -0.926339 0
M  V30 354 H 34.8934 -0.140154 -0.733734 0
M  V30 355 H 37.5554 -1.0332 -1.6526 0
M  V30 356 H 36.6514 -0.493352 -3.08176 0
M  V30 357 N 36.9525 1.47285 -0.560781 0
M  V30 358 C 38.1805 2.06855 -0.0430262 0
M  V30 359 C 38.5955 1.41291 1.25229 0
M  V30 360 O 37.9525 0.510648 1.7521 0
M  V30 361 C 38.0035 3.61178 0.152518 0
M  V30 362 O 37.7245 4.24285 -1.0915 0
M  V30 363 C 39.2255 4.37624 0.707145 0
M  V30 364 H 36.4455 0.669319 -0.0474652 0
M  V30 365 H 38.9895 1.89237 -0.77521 0
M  V30 366 H 37.1445 3.78298 0.834843 0
M  V30 367 H 37.5585 5.16868 -0.891482 0
M  V30 368 H 39.0325 5.46271 0.793244 0
M  V30 369 H 39.5095 4.04152 1.71923 0
M  V30 370 H 40.1155 4.25257 0.0604027 0
M  V30 371 N 38.4306 0.297415 1.54768 0
M  V30 372 C 39.6586 -0.315623 2.04478 0
M  V30 373 C 40.0736 -1.47792 1.17486 0
M  V30 374 O 39.4306 -1.81404 0.19971 0
M  V30 375 C 39.4816 -0.7753 3.53088 0
M  V30 376 O 39.2026 0.340732 4.36773 0
M  V30 377 C 40.7036 -1.45386 4.18781 0
M  V30 378 H 37.9236 -0.0690887 0.667434 0
M  V30 379 H 40.4676 0.436003 1.99798 0
M  V30 380 H 38.6226 -1.47696 3.58141 0
M  V30 381 H 39.0366 -0.0165035 5.24497 0
M  V30 382 H 40.5106 -1.72669 5.24299 0
M  V30 383 H 40.9876 -2.39275 3.68299 0
M  V30 384 H 41.5936 -0.795475 4.17795 0
M  V30 385 N 39.9087 -1.5758 0.0250728 0
M  V30 386 C 40.8717 -2.08896 -0.943139 0
M  V30 387 C 41.8717 -1.00321 -1.25668 0
M  V30 388 O 43.0617 -1.26495 -1.19769 0
M  V30 389 C 40.1937 -2.55143 -2.26086 0
M  V30 390 H 41.3867 -2.95723 -0.498775 0
M  V30 391 H 38.9397 -1.54703 -0.222888 0
M  V30 392 H 39.6747 -1.71633 -2.75159 0
M  V30 393 H 39.4597 -3.34461 -2.04641 0
M  V30 394 H 40.9497 -2.95083 -2.95492 0
M  V30 395 N 41.3868 0.248026 -1.55636 0
M  V30 396 C 42.6328 0.97767 -1.77678 0
M  V30 397 C 42.9658 1.85016 -0.590135 0
M  V30 398 O 42.2408 1.90095 0.411611 0
M  V30 399 C 42.5238 1.83914 -3.09593 0
M  V30 400 C 42.3768 0.99491 -4.38659 0
M  V30 401 C 43.6958 2.82183 -3.37729 0
M  V30 402 H 40.8148 0.354005 -0.646413 0
M  V30 403 H 43.4568 0.248253 -1.88371 0
M  V30 404 H 41.6068 2.46104 -3.00608 0
M  V30 405 H 43.2788 0.391789 -4.59633 0
M  V30 406 H 41.5218 0.299231 -4.32767 0
M  V30 407 H 42.1928 1.63145 -5.2734 0
M  V30 408 H 44.6688 2.30129 -3.4667 0
M  V30 409 H 43.5448 3.39582 -4.31249 0
M  V30 410 H 43.8058 3.58588 -2.58586 0
M  V30 411 N 42.8649 1.48995 0.513639 0
M  V30 412 C 43.7979 1.59319 1.63379 0
M  V30 413 C 44.7759 0.442816 1.56454 0
M  V30 414 O 45.9599 0.656655 1.76693 0
M  V30 415 C 43.0869 1.5364 3.01848 0
M  V30 416 C 42.1329 2.7372 3.27078 0
M  V30 417 S 42.9659 4.35528 3.1157 0
M  V30 418 C 44.1219 4.32473 4.52458 0
M  V30 419 H 44.3549 2.54079 1.54374 0
M  V30 420 H 41.8879 1.3773 0.697849 0
M  V30 421 H 43.8459 1.51049 3.81699 0
M  V30 422 H 42.5069 0.601898 3.08279 0
M  V30 423 H 41.6999 2.6593 4.28132 0
M  V30 424 H 41.3019 2.73657 2.54927 0
M  V30 425 H 43.5939 4.03414 5.44301 0
M  V30 426 H 44.5369 5.33762 4.65299 0
M  V30 427 H 44.9449 3.62718 4.32546 0
M  V30 428 N 44.343 -0.763751 1.37857 0
M  V30 429 C 45.571 -1.55293 1.36718 0
M  V30 430 C 45.986 -1.88745 -0.0455434 0
M  V30 431 O 45.343 -1.52039 -1.00947 0
M  V30 432 C 45.394 -2.85831 2.2132 0
M  V30 433 O 45.115 -2.5381 3.57089 0
M  V30 434 C 46.616 -3.80023 2.28249 0
M  V30 435 H 43.836 -0.480841 0.468009 0
M  V30 436 H 46.38 -0.946009 1.81303 0
M  V30 437 H 44.535 -3.42926 1.80223 0
M  V30 438 H 44.949 -3.37459 4.01524 0
M  V30 439 H 46.423 -4.68599 2.91752 0
M  V30 440 H 46.9 -4.1973 1.2932 0
M  V30 441 H 47.506 -3.28855 2.69693 0
M  V30 442 N 45.8211 -1.22559 -0.990812 0
M  V30 443 C 46.7511 -1.0218 -2.09956 0
M  V30 444 C 47.7321 0.0579394 -1.70001 0
M  V30 445 O 48.9171 -0.104684 -1.93918 0
M  V30 446 C 46.0471 -0.601023 -3.4206 0
M  V30 447 C 45.0011 -1.62694 -3.95872 0
M  V30 448 C 44.3271 -1.06193 -5.24049 0
M  V30 449 C 45.6271 -3.01743 -4.2632 0
M  V30 450 H 47.3211 -1.94916 -2.27262 0
M  V30 451 H 44.8671 -0.938566 -1.09211 0
M  V30 452 H 46.8201 -0.445561 -4.19038 0
M  V30 453 H 45.5441 0.362005 -3.24588 0
M  V30 454 H 44.2031 -1.77021 -3.21028 0
M  V30 455 H 43.8511 -0.0901903 -5.02919 0
M  V30 456 H 43.5511 -1.74732 -5.61019 0
M  V30 457 H 45.0751 -0.918092 -6.03658 0
M  V30 458 H 46.4891 -2.90777 -4.94087 0
M  V30 459 H 44.8861 -3.67425 -4.74467 0
M  V30 460 H 45.9561 -3.51518 -3.34011 0
M  V30 461 N 47.2992 1.18797 -1.03562 0
M  V30 462 C 48.2622 2.20464 -0.626769 0
M  V30 463 C 49.2622 1.57721 0.313173 0
M  V30 464 O 50.4522 1.73917 0.0992615 0
M  V30 465 C 47.5842 3.40802 0.0818498 0
M  V30 466 H 48.7772 2.58149 -1.5264 0
M  V30 467 H 46.3302 1.32593 -0.827578 0
M  V30 468 H 47.0652 3.08642 0.995518 0
M  V30 469 H 46.8502 3.8758 -0.593652 0
M  V30 470 H 48.3402 4.16092 0.354584 0
M  V30 471 N 48.7773 0.814389 1.34928 0
M  V30 472 C 50.0053 0.411136 2.02774 0
M  V30 473 C 50.4203 -0.980316 1.61354 0
M  V30 474 O 49.7773 -1.63299 0.814847 0
M  V30 475 C 49.8283 0.493865 3.58111 0
M  V30 476 O 49.5493 1.83047 3.98027 0
M  V30 477 C 51.0503 0.0844174 4.4322 0
M  V30 478 H 48.2703 0.166037 0.650133 0
M  V30 479 H 50.8143 1.10018 1.72384 0
M  V30 480 H 48.9693 -0.147006 3.87121 0
M  V30 481 H 49.3833 1.79872 4.92693 0
M  V30 482 H 50.8573 0.193404 5.51661 0
M  V30 483 H 51.3343 -0.97113 4.28329 0
M  V30 484 H 51.9403 0.69875 4.19521 0
M  V30 485 N 50.2554 -1.46986 0.568584 0
M  V30 486 C 51.4834 -2.0683 0.0539956 0
M  V30 487 C 51.8984 -1.41953 -1.24478 0
M  V30 488 O 51.2554 -0.519933 -1.74937 0
M  V30 489 C 51.3064 -3.61254 -0.133362 0
M  V30 490 O 51.0274 -4.237 1.11399 0
M  V30 491 C 52.5284 -4.37992 -0.683927 0
M  V30 492 H 49.7484 -0.669058 0.0510141 0
M  V30 493 H 52.2924 -1.88824 0.785234 0
M  V30 494 H 50.4474 -3.78735 -0.81477 0
M  V30 495 H 50.8614 -5.16388 0.91888 0
M  V30 496 H 52.3354 -5.46684 -0.764263 0
M  V30 497 H 52.8124 -4.05058 -1.69778 0
M  V30 498 H 53.4184 -4.25283 -0.0378494 0
M  V30 499 N 51.7335 -0.305618 -1.54608 0
M  V30 500 C 52.6835 0.583595 -2.20405 0
M  V30 501 C 53.6675 1.09539 -1.17856 0
M  V30 502 O 54.8595 1.0354 -1.43557 0
M  V30 503 C 51.9885 1.75277 -2.95183 0
M  V30 504 C 51.0745 1.25672 -4.05052 0
M  V30 505 N 51.4655 0.478998 -5.03527 0
M  V30 506 C 49.7635 1.53704 -4.18678 0
M  V30 507 C 50.4645 0.214269 -5.81305 0
M  V30 508 N 49.4405 0.795374 -5.3775 0
M  V30 509 H 53.2425 -0.0180946 -2.93894 0
M  V30 510 H 50.7565 -0.110601 -1.62023 0
M  V30 511 H 52.7535 2.4014 -3.40791 0
M  V30 512 H 51.4135 2.35812 -2.23211 0
M  V30 513 H 52.4245 0.123473 -5.17753 0
M  V30 514 H 49.1015 2.14954 -3.57912 0
M  V30 515 H 50.4915 -0.410656 -6.70644 0
M  V30 516 N 53.2116 1.57565 -0.0334293 0
M  V30 517 C 54.1746 2.09393 0.932048 0
M  V30 518 C 55.1746 1.00986 1.25134 0
M  V30 519 O 56.3646 1.27129 1.19096 0
M  V30 520 C 53.4966 2.56338 2.2473 0
M  V30 521 H 54.6896 2.95984 0.483085 0
M  V30 522 H 52.2426 1.54819 0.21468 0
M  V30 523 H 52.9776 1.7309 2.74245 0
M  V30 524 H 52.7626 3.35542 2.02865 0
M  V30 525 H 54.2526 2.96646 2.93923 0
M  V30 526 N 54.6897 -0.239769 1.55765 0
M  V30 527 C 55.6527 -1.28038 1.90103 0
M  V30 528 C 56.6527 -1.40723 0.778055 0
M  V30 529 O 57.8427 -1.39301 1.04599 0
M  V30 530 C 54.9747 -2.65702 2.13577 0
M  V30 531 H 56.1677 -0.988048 2.83157 0
M  V30 532 H 53.7207 -0.479382 1.48767 0
M  V30 533 H 54.4557 -3.00063 1.23015 0
M  V30 534 H 54.2407 -2.57875 2.95369 0
M  V30 535 H 55.7307 -3.40828 2.41301 0
M  V30 536 N 56.1678 -1.49265 -0.50573 0
M  V30 537 C 57.1008 -1.60183 -1.62532 0
M  V30 538 C 58.0788 -0.451107 -1.56217 0
M  V30 539 O 59.2628 -0.666016 -1.76342 0
M  V30 540 C 56.3898 -1.55238 -3.01029 0
M  V30 541 C 55.4358 -2.7545 -3.25621 0
M  V30 542 S 56.2688 -4.37174 -3.09256 0
M  V30 543 C 57.4248 -4.34866 -4.50158 0
M  V30 544 H 57.6578 -2.54894 -1.53025 0
M  V30 545 H 55.1908 -1.38098 -0.690535 0
M  V30 546 H 57.1488 -1.53071 -3.80893 0
M  V30 547 H 55.8098 -0.618238 -3.07956 0
M  V30 548 H 55.0028 -2.68197 -4.26716 0
M  V30 549 H 54.6048 -2.75005 -2.53472 0
M  V30 550 H 56.8968 -4.06295 -5.42154 0
M  V30 551 H 57.8398 -5.36223 -4.62462 0
M  V30 552 H 58.2478 -3.65007 -4.30616 0
M  V30 553 N 57.6459 0.756429 -1.3826 0
M  V30 554 C 58.6089 1.85176 -1.35065 0
M  V30 555 C 59.6089 1.58818 -0.251703 0
M  V30 556 O 60.7989 1.66615 -0.508433 0
M  V30 557 C 57.9309 3.22596 -1.10201 0
M  V30 558 H 59.1239 1.89417 -2.3251 0
M  V30 559 H 56.6769 0.95783 -1.23512 0
M  V30 560 H 57.4119 3.24025 -0.133504 0
M  V30 561 H 57.1969 3.43122 -1.89762 0
M  V30 562 H 58.6869 4.02673 -1.10654 0
M  V30 563 N 59.124 1.23083 0.984299 0
M  V30 564 C 60.087 1.00979 2.05757 0
M  V30 565 C 61.087 -0.0269573 1.60777 0
M  V30 566 O 62.277 0.212403 1.729 0
M  V30 567 C 59.409 0.527072 3.36801 0
M  V30 568 H 60.602 1.9622 2.26799 0
M  V30 569 H 58.155 1.05072 1.15714 0
M  V30 570 H 58.89 -0.429294 3.21446 0
M  V30 571 H 58.675 1.27515 3.70786 0
M  V30 572 H 60.165 0.392942 4.15747 0
M  V30 573 N 60.6021 -1.18246 1.0419 0
M  V30 574 C 61.8301 -1.92195 0.766072 0
M  V30 575 C 62.2451 -1.76247 -0.676933 0
M  V30 576 O 61.6021 -1.09293 -1.46155 0
M  V30 577 C 61.6531 -3.43568 1.12442 0
M  V30 578 O 61.3741 -3.59015 2.51078 0
M  V30 579 C 62.8751 -4.34613 0.873275 0
M  V30 580 H 60.0951 -0.610114 0.279288 0
M  V30 581 H 62.6391 -1.50007 1.38989 0
M  V30 582 H 60.7941 -3.8354 0.545542 0
M  V30 583 H 61.2081 -4.5273 2.64831 0
M  V30 584 H 62.6821 -5.39374 1.17385 0
M  V30 585 H 63.1591 -4.38781 -0.191909 0
M  V30 586 H 63.7651 -4.00341 1.43551 0
M  V30 587 N 62.0802 -0.821533 -1.34494 0
M  V30 588 C 63.0432 -0.247847 -2.27856 0
M  V30 589 C 64.0432 0.573453 -1.50227 0
M  V30 590 O 65.2332 0.389759 -1.69784 0
M  V30 591 C 62.3652 0.652698 -3.34593 0
M  V30 592 H 63.5582 -1.07146 -2.80107 0
M  V30 593 H 61.1112 -0.593291 -1.44602 0
M  V30 594 H 61.8462 1.49943 -2.87555 0
M  V30 595 H 61.6312 0.065292 -3.92046 0
M  V30 596 H 63.1212 1.04793 -4.04238 0
M  V30 597 N 63.5583 1.46682 -0.576371 0
M  V30 598 C 64.9693 1.86112 -0.148091 0
M  V30 599 C 65.3203 1.48073 1.2872 0
M  V30 600 O 64.4453 0.892656 1.97131 0
M  V30 601 C 65.0403 3.37786 -0.261982 0
M  V30 602 C 63.5993 3.76235 0.111384 0
M  V30 603 C 62.7463 2.70713 -0.60083 0
M  V30 604 H 65.6973 1.37927 -0.78497 0
M  V30 605 H 65.7183 3.77007 0.514364 0
M  V30 606 H 65.2303 3.6544 -1.30671 0
M  V30 607 H 63.3313 3.54198 1.15649 0
M  V30 608 H 63.4443 4.78391 -0.26052 0
M  V30 609 H 61.8083 2.54666 -0.0417783 0
M  V30 610 H 62.5913 3.01208 -1.64708 0
M  V30 611 N 65.0364 0.313813 1.54444 0
M  V30 612 C 65.9994 -0.54379 2.22656 0
M  V30 613 C 66.9994 -1.05124 1.21678 0
M  V30 614 O 68.1894 -0.945225 1.46325 0
M  V30 615 C 65.3214 -1.75427 2.92298 0
M  V30 616 H 66.5144 0.0523599 2.99854 0
M  V30 617 H 64.0674 0.0647834 1.56166 0
M  V30 618 H 64.8024 -2.38991 2.19211 0
M  V30 619 H 64.5874 -1.39791 3.66334 0
M  V30 620 H 66.0774 -2.36325 3.44297 0
M  V30 621 N 66.5145 -1.57545 0.0417849 0
M  V30 622 C 67.4775 -2.09885 -0.92093 0
M  V30 623 C 68.4775 -1.01648 -1.24596 0
M  V30 624 O 69.6675 -1.27759 -1.1842 0
M  V30 625 C 66.7995 -2.57527 -2.23367 0
M  V30 626 H 67.9925 -2.96236 -0.467382 0
M  V30 627 H 65.5455 -1.5493 -0.206467 0
M  V30 628 H 66.2805 -1.74542 -2.73323 0
M  V30 629 H 66.0655 -3.36613 -2.01083 0
M  V30 630 H 67.5555 -2.98201 -2.92346 0
M  V30 631 N 67.9926 0.231505 -1.5589 0
M  V30 632 C 69.2406 0.955461 -1.78088 0
M  V30 633 C 69.5616 1.85262 -0.608533 0
M  V30 634 O 68.8316 1.92277 0.375035 0
M  V30 635 H 67.4116 0.355787 -0.656829 0
M  V30 636 H 70.0736 0.245751 -1.93344 0
M  V30 637 H 69.1696 1.56814 -2.69844 0
M  V30 638 N 69.4707 1.49531 0.497807 0
M  V30 639 C 70.7007 1.62657 1.27382 0
M  V30 640 C 71.1087 0.298488 1.86831 0
M  V30 641 O 70.4517 -0.72647 1.68725 0
M  V30 642 C 70.5137 2.6393 2.44093 0
M  V30 643 C 70.1777 4.08195 2.05489 0
M  V30 644 C 71.1747 4.949 1.59279 0
M  V30 645 C 68.8597 4.53948 2.15026 0
M  V30 646 C 70.8537 6.25397 1.23113 0
M  V30 647 C 68.5407 5.84458 1.78473 0
M  V30 648 C 69.5387 6.70006 1.32591 0
M  V30 649 O 69.2267 7.98083 0.965327 0
M  V30 650 H 68.9587 0.550429 0.392434 0
M  V30 651 H 71.5127 1.96325 0.603801 0
M  V30 652 H 69.7427 2.25449 3.14181 0
M  V30 653 H 71.4317 2.66552 3.06113 0
M  V30 654 H 72.1977 4.60779 1.51354 0
M  V30 655 H 68.0767 3.87525 2.4969 0
M  V30 656 H 71.6207 6.92125 0.872299 0
M  V30 657 H 67.5177 6.18107 1.86048 0
M  V30 658 H 68.2857 8.11122 1.09652 0
M  V30 659 N 70.9488 -0.749086 1.3866 0
M  V30 660 C 71.9118 -1.84457 1.36045 0
M  V30 661 C 72.9118 -1.58682 0.260122 0
M  V30 662 O 74.1018 -1.66343 0.517261 0
M  V30 663 C 71.2338 -3.22008 1.11911 0
M  V30 664 H 72.4268 -1.88182 2.33512 0
M  V30 665 H 69.9798 -0.951266 1.24019 0
M  V30 666 H 70.7148 -3.2395 0.150686 0
M  V30 667 H 70.4998 -3.42111 1.91579 0
M  V30 668 H 71.9898 -4.0208 1.12788 0
M  V30 669 N 72.4269 -1.23603 -0.977757 0
M  V30 670 C 73.3899 -1.02069 -2.05218 0
M  V30 671 C 74.3899 0.0184305 -1.60789 0
M  V30 672 O 75.5799 -0.221569 -1.72785 0
M  V30 673 C 72.7119 -0.544926 -3.36517 0
M  V30 674 H 73.9049 -1.9742 -2.25755 0
M  V30 675 H 71.4579 -1.05684 -1.15155 0
M  V30 676 H 72.1929 0.412241 -3.21669 0
M  V30 677 H 71.9779 -1.2948 -3.70105 0
M  V30 678 H 73.4679 -0.414985 -4.15533 0
M  V30 679 N 73.905 1.17692 -1.04816 0
M  V30 680 C 75.133 1.91786 -0.776254 0
M  V30 681 C 75.548 1.76604 0.667577 0
M  V30 682 O 74.905 1.10067 1.45573 0
M  V30 683 C 74.956 3.42967 -1.14263 0
M  V30 684 O 74.677 3.57678 -2.52978 0
M  V30 685 C 76.178 4.34144 -0.896311 0
M  V30 686 H 73.398 0.608624 -0.282519 0
M  V30 687 H 75.942 1.49268 -1.39783 0
M  V30 688 H 74.097 3.83245 -0.565874 0
M  V30 689 H 74.511 4.51319 -2.67229 0
M  V30 690 H 75.985 5.38744 -1.20244 0
M  V30 691 H 76.462 4.38876 0.168636 0
M  V30 692 H 77.068 3.99574 -1.45672 0
M  V30 693 N 75.3831 0.828654 1.34056 0
M  V30 694 C 76.7991 0.515135 1.51058 0
M  V30 695 C 76.9991 -0.959581 1.77184 0
M  V30 696 O 76.0551 -1.74382 1.82612 0
M  V30 697 C 77.3681 1.37963 2.67183 0
M  V30 698 C 78.9161 1.37735 2.81066 0
M  V30 699 C 79.3911 2.22645 4.00241 0
M  V30 700 N 80.8821 2.203 4.07458 0
M  V30 701 C 81.6171 2.82744 4.98842 0
M  V30 702 N 81.1131 3.54201 5.9541 0
M  V30 703 N 82.9061 2.72268 4.91759 0
M  V30 704 H 75.0571 1.78343 1.15358 0
M  V30 705 H 77.3201 0.760304 0.566252 0
M  V30 706 H 77.0261 2.42714 2.54525 0
M  V30 707 H 76.9001 1.0484 3.62338 0
M  V30 708 H 79.2871 0.337593 2.93163 0
M  V30 709 H 79.3681 1.74859 1.86703 0
M  V30 710 H 79.0121 3.26674 3.88905 0
M  V30 711 H 78.9421 1.82869 4.93829 0
M  V30 712 H 81.4331 1.68327 3.38341 0
M  V30 713 H 81.7461 3.9908 6.61782 0
M  V30 714 H 80.0911 3.58308 5.95517 0
M  V30 715 H 83.2821 2.16014 4.15278 0
M  V30 716 H 83.4551 3.21219 5.62781 0
M  V30 717 N 76.8612 -1.46375 0.584142 0
M  V30 718 C 78.0912 -2.06461 0.0758195 0
M  V30 719 C 78.4992 -1.43322 -1.23512 0
M  V30 720 O 77.8422 -0.533216 -1.75791 0
M  V30 721 C 77.9042 -3.59131 -0.162773 0
M  V30 722 C 77.5682 -4.4447 1.06279 0
M  V30 723 C 78.5652 -4.80918 1.97519 0
M  V30 724 C 76.2502 -4.85584 1.28504 0
M  V30 725 C 78.2442 -5.57309 3.09331 0
M  V30 726 C 75.9312 -5.61734 2.4062 0
M  V30 727 C 76.9292 -5.9751 3.30863 0
M  V30 728 O 76.6172 -6.72121 4.41032 0
M  V30 729 H 76.3492 -0.673745 0.0551725 0
M  V30 730 H 78.9032 -1.88969 0.804984 0
M  V30 731 H 77.1332 -3.74936 -0.946565 0
M  V30 732 H 78.8222 -4.0114 -0.619782 0
M  V30 733 H 79.5882 -4.49732 1.81565 0
M  V30 734 H 75.4672 -4.57187 0.591702 0
M  V30 735 H 79.0112 -5.85152 3.79793 0
M  V30 736 H 74.9082 -5.92334 2.56537 0
M  V30 737 H 75.6762 -6.90547 4.39417 0
M  V30 738 N 78.3393 -0.321999 -1.54275 0
M  V30 739 C 79.7503 0.166384 -1.85957 0
M  V30 740 C 80.1013 1.51747 -1.24367 0
M  V30 741 O 79.2263 2.09317 -0.549124 0
M  V30 742 C 79.8213 0.308681 -3.37391 0
M  V30 743 C 78.3803 0.741286 -3.69028 0
M  V30 744 C 77.5273 -0.137937 -2.76957 0
M  V30 745 H 80.4783 -0.542335 -1.49146 0
M  V30 746 H 80.4993 1.13984 -3.63026 0
M  V30 747 H 80.0113 -0.674809 -3.82188 0
M  V30 748 H 78.1123 1.73458 -3.29762 0
M  V30 749 H 78.2253 0.546118 -4.75977 0
M  V30 750 H 76.5893 0.386251 -2.51754 0
M  V30 751 H 77.3723 -1.11816 -3.2458 0
M  V30 752 N 79.8174 1.5752 -0.0501392 0
M  V30 753 C 81.0664 1.91827 0.623328 0
M  V30 754 C 81.3794 0.930222 1.72065 0
M  V30 755 O 82.5854 1.1653 2.4522 0
M  V30 756 C 81.0414 3.40692 1.16003 0
M  V30 757 C 80.6494 4.479 0.0948811 0
M  V30 758 C 82.3934 3.84034 1.80881 0
M  V30 759 C 80.3004 5.87879 0.644411 0
M  V30 760 H 79.2304 0.715918 0.236596 0
M  V30 761 H 81.8814 1.83115 -0.118861 0
M  V30 762 H 80.2634 3.44405 1.9545 0
M  V30 763 H 81.4374 4.55775 -0.678675 0
M  V30 764 H 79.7524 4.13892 -0.45637 0
M  V30 765 H 82.3494 4.85984 2.22988 0
M  V30 766 H 82.6924 3.20225 2.6601 0
M  V30 767 H 83.2254 3.82833 1.0809 0
M  V30 768 H 79.9644 6.55282 -0.169229 0
M  V30 769 H 79.4844 5.83567 1.38598 0
M  V30 770 H 81.1634 6.37098 1.12763 0
M  V30 771 N 81.2955 -0.223234 1.56011 0
M  V30 772 C 82.5445 -0.945912 1.78144 0
M  V30 773 C 82.8575 -1.85567 0.618396 0
M  V30 774 O 84.0635 -2.61688 0.723318 0
M  V30 775 C 82.5195 -1.73216 3.15475 0
M  V30 776 C 82.1275 -0.868619 4.39499 0
M  V30 777 C 83.8715 -2.44615 3.46935 0
M  V30 778 C 81.7785 -1.65212 5.67855 0
M  V30 779 H 80.7085 -0.356929 0.664167 0
M  V30 780 H 83.3595 -0.199845 1.82409 0
M  V30 781 H 81.7415 -2.52107 3.05382 0
M  V30 782 H 82.9155 -0.120366 4.60643 0
M  V30 783 H 81.2305 -0.26683 4.15544 0
M  V30 784 H 83.8275 -3.03732 4.40058 0
M  V30 785 H 84.1705 -3.17417 2.69355 0
M  V30 786 H 84.7035 -1.72715 3.58349 0
M  V30 787 H 81.4425 -0.967407 6.48322 0
M  V30 788 H 80.9625 -2.37503 5.50774 0
M  V30 789 H 82.6415 -2.21322 6.07968 0
M  V30 790 N 82.7736 -1.49793 -0.48987 0
M  V30 791 C 83.7036 -1.70201 -1.59856 0
M  V30 792 C 84.6846 -0.55076 -1.60937 0
M  V30 793 O 85.8696 -0.787841 -1.77501 0
M  V30 794 C 82.9996 -1.77882 -2.98287 0
M  V30 795 C 81.9536 -2.92907 -3.12073 0
M  V30 796 C 81.2796 -2.85712 -4.51965 0
M  V30 797 C 82.5796 -4.3369 -2.91051 0
M  V30 798 H 84.2736 -2.63025 -1.43032 0
M  V30 799 H 81.8196 -1.26574 -0.686664 0
M  V30 800 H 83.7726 -1.90744 -3.75759 0
M  V30 801 H 82.4966 -0.816653 -3.16225 0
M  V30 802 H 81.1556 -2.79665 -2.37029 0
M  V30 803 H 80.8036 -1.8738 -4.66795 0
M  V30 804 H 80.5036 -3.62921 -4.62128 0
M  V30 805 H 82.0276 -3.00598 -5.31482 0
M  V30 806 H 83.4416 -4.47555 -3.58284 0
M  V30 807 H 81.8386 -5.12205 -3.12675 0
M  V30 808 H 82.9086 -4.47362 -1.87071 0
M  V30 809 N 84.2517 0.741722 -1.39055 0
M  V30 810 C 85.4977 1.50336 -1.36113 0
M  V30 811 C 85.8307 1.94148 0.0450796 0
M  V30 812 O 85.1057 1.66301 1.00868 0
M  V30 813 C 85.3887 2.74773 -2.32749 0
M  V30 814 C 85.2417 2.37023 -3.82283 0
M  V30 815 C 86.5607 3.76846 -2.27322 0
M  V30 816 H 83.6797 0.545351 -0.495743 0
M  V30 817 H 86.3217 0.848624 -1.69995 0
M  V30 818 H 84.4717 3.30639 -2.03986 0
M  V30 819 H 86.1437 1.8684 -4.21768 0
M  V30 820 H 84.3867 1.69334 -3.99385 0
M  V30 821 H 85.0577 3.26104 -4.45376 0
M  V30 822 H 87.5337 3.30548 -2.5274 0
M  V30 823 H 86.4097 4.6159 -2.97028 0
M  V30 824 H 86.6707 4.23286 -1.27599 0
M  V30 825 N 85.7298 1.2412 0.971189 0
M  V30 826 C 86.6798 0.997551 2.05019 0
M  V30 827 C 87.6638 -0.0597747 1.60789 0
M  V30 828 O 88.8558 0.153516 1.76333 0
M  V30 829 C 85.9848 0.600557 3.38006 0
M  V30 830 C 85.0708 1.69377 3.88809 0
M  V30 831 N 85.4618 2.92586 4.12586 0
M  V30 832 C 83.7598 1.57048 4.17435 0
M  V30 833 C 84.4608 3.63431 4.54195 0
M  V30 834 N 83.4368 2.90979 4.59165 0
M  V30 835 H 87.2388 1.93316 2.21374 0
M  V30 836 H 84.7528 1.14194 1.1547 0
M  V30 837 H 86.7498 0.40725 4.14906 0
M  V30 838 H 85.4098 -0.327903 3.2304 0
M  V30 839 H 86.4208 3.288 4.00139 0
M  V30 840 H 83.0978 0.709798 4.11422 0
M  V30 841 H 84.4878 4.69102 4.81033 0
M  V30 842 N 87.2079 -1.17134 1.05439 0
M  V30 843 C 88.4559 -1.87085 0.764429 0
M  V30 844 C 88.7769 -1.81584 -0.710787 0
M  V30 845 O 88.0469 -1.24349 -1.51374 0
M  V30 846 H 86.6269 -0.692627 0.279779 0
M  V30 847 H 89.2889 -1.42087 1.33406 0
M  V30 848 H 88.3849 -2.92759 1.0816 0
M  V30 849 N 88.686 -0.835752 -1.33615 0
M  V30 850 C 89.616 -0.281739 -2.31794 0
M  V30 851 C 90.597 0.608833 -1.58831 0
M  V30 852 O 91.782 0.533035 -1.86741 0
M  V30 853 C 88.912 0.546612 -3.42971 0
M  V30 854 C 87.866 -0.247904 -4.27281 0
M  V30 855 C 87.192 0.704001 -5.30045 0
M  V30 856 C 88.492 -1.46324 -5.01385 0
M  V30 857 H 90.186 -1.10206 -2.78379 0
M  V30 858 H 87.732 -0.531388 -1.33837 0
M  V30 859 H 89.685 0.944467 -4.1068 0
M  V30 860 H 88.409 1.40011 -2.95067 0
M  V30 861 H 87.068 -0.627281 -3.61194 0
M  V30 862 H 86.716 1.55381 -4.78399 0
M  V30 863 H 86.416 0.176524 -5.87335 0
M  V30 864 H 87.94 1.09944 -6.0062 0
M  V30 865 H 89.354 -1.13871 -5.61877 0
M  V30 866 H 87.751 -1.92728 -5.6831 0
M  V30 867 H 88.821 -2.23467 -4.30338 0
M  V30 868 N 90.1641 1.46063 -0.591896 0
M  V30 869 C 91.3891 2.07226 -0.0850314 0
M  V30 870 C 91.8141 1.43625 1.21463 0
M  V30 871 O 91.1721 0.523305 1.73583 0
M  V30 872 C 91.2201 3.60554 0.0576567 0
M  V30 873 O 90.3241 3.97128 1.11188 0
M  V30 874 H 89.6651 0.660615 -0.0669568 0
M  V30 875 H 92.1951 1.8756 -0.81745 0
M  V30 876 H 92.2051 4.07165 0.2609 0
M  V30 877 H 90.8801 4.06235 -0.891416 0
M  V30 878 H 89.4571 3.62213 0.886356 0
M  V30 879 N 91.6422 0.330177 1.54103 0
M  V30 880 C 92.8902 -0.269871 2.0029 0
M  V30 881 C 93.2112 -1.52133 1.21986 0
M  V30 882 O 92.4812 -1.93212 0.323438 0
M  V30 883 H 91.0612 -0.10271 0.739905 0
M  V30 884 H 93.7232 0.448249 1.89675 0
M  V30 885 H 92.8192 -0.52166 3.07709 0
M  V30 886 N 93.1203 -1.57491 0.0584922 0
M  V30 887 C 94.3483 -1.97296 -0.623037 0
M  V30 888 C 94.7633 -0.936338 -1.63946 0
M  V30 889 O 94.1203 0.0785981 -1.82331 0
M  V30 890 C 94.1713 -3.37183 -1.30345 0
M  V30 891 O 93.8923 -4.36872 -0.32773 0
M  V30 892 C 95.3933 -3.91788 -2.07406 0
M  V30 893 H 92.6133 -0.649153 -0.169826 0
M  V30 894 H 95.1573 -2.04106 0.12696 0
M  V30 895 H 93.3123 -3.31502 -2.00463 0
M  V30 896 H 93.7263 -5.18141 -0.814269 0
M  V30 897 H 95.2003 -4.91926 -2.50425 0
M  V30 898 H 95.6773 -3.27609 -2.92521 0
M  V30 899 H 96.2833 -4.00829 -1.42184 0
M  V30 900 N 94.5984 0.214957 -1.56127 0
M  V30 901 C 95.8754 0.963093 -1.70247 0
M  V30 902 C 96.2554 2.02166 -0.60764 0
M  V30 903 O 95.6034 2.25244 0.384385 0
M  V30 904 C 95.8134 1.56756 -3.11815 0
M  V30 905 C 97.1614 2.0573 -3.7143 0
M  V30 906 O 98.1854 1.66637 -3.14818 0
M  V30 907 O 97.0444 2.77603 -4.70743 0
M  V30 908 H 94.1384 0.450321 -0.693643 0
M  V30 909 H 96.6844 0.206219 -1.68442 0
M  V30 910 H 95.4564 0.803533 -3.82961 0
M  V30 911 H 95.0794 2.3898 -3.17765 0
M  V30 912 N 96.0765 1.50051 0.48192 0
M  V30 913 C 97.0235 1.68122 1.58125 0
M  V30 914 C 97.9935 0.522545 1.57666 0
M  V30 915 O 99.1785 0.751844 1.75362 0
M  V30 916 C 96.3185 1.77142 2.96167 0
M  V30 917 C 95.4315 3.0444 3.06497 0
M  V30 918 C 94.5665 3.04321 4.35387 0
M  V30 919 C 93.6055 4.26118 4.3942 0
M  V30 920 N 92.7425 4.238 5.59766 0
M  V30 921 H 97.5825 2.6198 1.42022 0
M  V30 922 H 95.1195 1.29877 0.690687 0
M  V30 923 H 97.0775 1.80352 3.76203 0
M  V30 924 H 95.7075 0.867329 3.1093 0
M  V30 925 H 94.7595 3.10752 2.19402 0
M  V30 926 H 96.0715 3.94426 3.05336 0
M  V30 927 H 95.2255 3.062 5.23762 0
M  V30 928 H 93.9645 2.12147 4.39141 0
M  V30 929 H 92.9695 4.24463 3.49444 0
M  V30 930 H 94.1945 5.19507 4.37366 0
M  V30 931 H 92.1405 3.34474 5.64326 0
M  V30 932 H 92.0575 5.07542 5.60301 0
M  V30 933 H 93.3255 4.2981 6.50295 0
M  V30 934 N 97.5546 -0.734337 1.39446 0
M  V30 935 C 98.7846 -1.52137 1.39778 0
M  V30 936 C 99.1926 -1.89198 -0.00929312 0
M  V30 937 O 98.5356 -1.54666 -0.991168 0
M  V30 938 C 98.5976 -2.83762 2.20724 0
M  V30 939 C 98.2616 -2.69131 3.69347 0
M  V30 940 C 99.2586 -2.37635 4.62413 0
M  V30 941 C 96.9436 -2.85982 4.1294 0
M  V30 942 C 98.9376 -2.23172 5.97054 0
M  V30 943 C 96.6246 -2.71137 5.47657 0
M  V30 944 C 97.6226 -2.39777 6.39528 0
M  V30 945 O 97.3106 -2.25026 7.71763 0
M  V30 946 H 97.0426 -0.476717 0.479288 0
M  V30 947 H 99.5966 -0.915012 1.83893 0
M  V30 948 H 97.8266 -3.4666 1.71359 0
M  V30 949 H 99.5156 -3.45383 2.13226 0
M  V30 950 H 100.282 -2.24267 4.30034 0
M  V30 951 H 96.1606 -3.09383 3.41765 0
M  V30 952 H 99.7046 -1.98617 6.68728 0
M  V30 953 H 95.6016 -2.84083 5.79626 0
M  V30 954 H 96.3696 -2.40091 7.82495 0
M  V30 955 N 99.0327 -1.24633 -0.964593 0
M  V30 956 C 99.9957 -1.0424 -2.04124 0
M  V30 957 C 100.996 0.00137563 -1.608 0
M  V30 958 O 102.186 -0.239883 -1.7254 0
M  V30 959 C 99.3177 -0.580588 -3.3592 0
M  V30 960 H 100.511 -1.99803 -2.23649 0
M  V30 961 H 98.0637 -1.06899 -1.14027 0
M  V30 962 H 98.7987 0.3781 -3.22088 0
M  V30 963 H 98.5837 -1.33398 -3.6871 0
M  V30 964 H 100.074 -0.459034 -4.15069 0
M  V30 965 N 100.511 1.16574 -1.06058 0
M  V30 966 C 101.759 1.86677 -0.77434 0
M  V30 967 C 102.08 1.81959 0.701147 0
M  V30 968 O 101.35 1.2515 1.50713 0
M  V30 969 H 99.9298 0.691134 -0.283449 0
M  V30 970 H 102.592 1.41378 -1.34158 0
M  V30 971 H 101.688 2.92181 -1.09711 0
M  V30 972 N 101.989 0.842826 1.3317 0
M  V30 973 C 103.235 0.441099 1.97945 0
M  V30 974 C 103.568 -0.998024 1.66593 0
M  V30 975 O 102.843 -1.69839 0.947898 0
M  V30 976 C 103.126 0.666841 3.53872 0
M  V30 977 C 102.979 2.15352 3.94897 0
M  V30 978 C 104.298 0.115544 4.39948 0
M  V30 979 H 101.417 0.161739 0.719034 0
M  V30 980 H 104.059 1.05907 1.57746 0
M  V30 981 H 102.209 0.140828 3.88245 0
M  V30 982 H 103.881 2.7447 3.70761 0
M  V30 983 H 102.124 2.63653 3.44484 0
M  V30 984 H 102.795 2.26221 5.03516 0
M  V30 985 H 105.271 0.565213 4.12243 0
M  V30 986 H 104.147 0.303152 5.48062 0
M  V30 987 H 104.408 -0.980935 4.3108 0
M  V30 988 N 103.467 -1.45747 0.599634 0
M  V30 989 C 104.397 -2.33235 -0.111306 0
M  V30 990 C 105.378 -1.46359 -0.866781 0
M  V30 991 O 106.563 -1.75146 -0.838904 0
M  V30 992 C 103.693 -3.28932 -1.11451 0
M  V30 993 C 102.647 -4.25381 -0.472772 0
M  V30 994 C 101.973 -5.1071 -1.58365 0
M  V30 995 C 103.273 -5.18831 0.600948 0
M  V30 996 H 104.967 -2.92927 0.61919 0
M  V30 997 H 102.513 -1.40857 0.299215 0
M  V30 998 H 104.466 -3.89002 -1.62036 0
M  V30 999 H 103.19 -2.67381 -1.8755 0
M  V30 1000 H 101.849 -3.66598 0.0121472 0
M  V30 1001 H 101.497 -4.45533 -2.33473 0
M  V30 1002 H 101.197 -5.7604 -1.15982 0
M  V30 1003 H 102.721 -5.73647 -2.09194 0
M  V30 1004 H 104.135 -5.73019 0.179491 0
M  V30 1005 H 102.532 -5.92595 0.946076 0
M  V30 1006 H 103.602 -4.6174 1.48068 0
M  V30 1007 N 104.945 -0.338344 -1.53925 0
M  V30 1008 C 105.855 0.529421 -2.28548 0
M  V30 1009 C 106.871 1.11645 -1.3346 0
M  V30 1010 O 108.047 1.13325 -1.66492 0
M  V30 1011 C 105.112 1.66713 -3.03987 0
M  V30 1012 C 104.173 1.11041 -4.14691 0
M  V30 1013 C 103.406 2.19389 -4.86522 0
M  V30 1014 O 103.629 3.40013 -4.57982 0
M  V30 1015 O 102.563 1.83976 -5.73094 0
M  V30 1016 H 106.389 -0.0770399 -3.03602 0
M  V30 1017 H 103.974 -0.103555 -1.49041 0
M  V30 1018 H 105.856 2.32918 -3.5118 0
M  V30 1019 H 104.531 2.25949 -2.31794 0
M  V30 1020 H 103.438 0.413024 -3.71813 0
M  V30 1021 H 104.771 0.562975 -4.8897 0
M  V30 1022 N 106.423 1.57458 -0.0668435 0
M  V30 1023 C 107.653 1.97337 0.611677 0
M  V30 1024 C 108.061 0.943744 1.63982 0
M  V30 1025 O 107.404 -0.0785584 1.83532 0
M  V30 1026 C 107.466 3.33511 1.34205 0
M  V30 1027 C 107.13 4.54598 0.467941 0
M  V30 1028 C 108.127 5.19186 -0.272439 0
M  V30 1029 C 105.812 5.0075 0.39427 0
M  V30 1030 C 107.806 6.28274 -1.07476 0
M  V30 1031 C 105.493 6.09711 -0.411729 0
M  V30 1032 C 106.491 6.73335 -1.14492 0
M  V30 1033 O 106.179 7.80199 -1.93763 0
M  V30 1034 H 105.911 0.654042 0.170893 0
M  V30 1035 H 108.465 2.04961 -0.134289 0
M  V30 1036 H 106.695 3.22487 2.13398 0
M  V30 1037 H 108.384 3.58029 1.91233 0
M  V30 1038 H 109.15 4.84477 -0.225086 0
M  V30 1039 H 105.029 4.51009 0.954569 0
M  V30 1040 H 108.573 6.77866 -1.64755 0
M  V30 1041 H 104.47 6.43854 -0.460664 0
M  V30 1042 H 105.238 7.97053 -1.86142 0
M  V30 1043 N 107.901 -0.206675 1.56239 0
M  V30 1044 C 109.147 -0.925733 1.81113 0
M  V30 1045 C 109.502 -1.81368 0.642135 0
M  V30 1046 O 108.795 -1.88126 -0.363211 0
M  V30 1047 C 108.989 -1.78675 3.09532 0
M  V30 1048 C 108.818 -0.98365 4.3881 0
M  V30 1049 C 107.588 -0.672661 5.00803 0
M  V30 1050 C 109.786 -0.341847 5.13163 0
M  V30 1051 N 107.768 0.150283 6.13716 0
M  V30 1052 C 109.139 0.343815 6.19046 0
M  V30 1053 C 111.194 -0.256392 4.97239 0
M  V30 1054 C 109.897 1.10678 7.10734 0
M  V30 1055 C 111.923 0.493142 5.8934 0
M  V30 1056 C 111.285 1.16729 6.94661 0
M  V30 1057 H 107.384 -0.318524 0.714189 0
M  V30 1058 H 109.968 -0.195378 1.93717 0
M  V30 1059 H 108.139 -2.4888 2.98183 0
M  V30 1060 H 109.871 -2.44441 3.22538 0
M  V30 1061 H 106.626 -0.994294 4.63045 0
M  V30 1062 H 107.05 0.551026 6.74754 0
M  V30 1063 H 111.692 -0.763249 4.15854 0
M  V30 1064 H 109.41 1.6251 7.91591 0
M  V30 1065 H 112.996 0.560465 5.79094 0
M  V30 1066 H 111.876 1.738 7.64698 0
M  V30 1067 N 109.379 -1.50304 -0.473955 0
M  V30 1068 C 110.609 -1.64663 -1.24778 0
M  V30 1069 C 111.017 -0.328174 -1.86332 0
M  V30 1070 O 110.36 0.699536 -1.69859 0
M  V30 1071 C 110.422 -2.6778 -2.39863 0
M  V30 1072 C 110.086 -4.11413 -1.98969 0
M  V30 1073 C 111.083 -4.97372 -1.51385 0
M  V30 1074 C 108.768 -4.57312 -2.07777 0
M  V30 1075 C 110.762 -6.27277 -1.13148 0
M  V30 1076 C 108.449 -5.87223 -1.69152 0
M  V30 1077 C 109.447 -6.72031 -1.21915 0
M  V30 1078 O 109.135 -7.99518 -0.838237 0
M  V30 1079 H 108.867 -0.556602 -0.383627 0
M  V30 1080 H 111.421 -1.9726 -0.572491 0
M  V30 1081 H 109.651 -2.30419 -3.10554 0
M  V30 1082 H 111.34 -2.71388 -3.01833 0
M  V30 1083 H 112.106 -4.63128 -1.44004 0
M  V30 1084 H 107.985 -3.91449 -2.43493 0
M  V30 1085 H 111.529 -6.93425 -0.762077 0
M  V30 1086 H 107.426 -6.20989 -1.76191 0
M  V30 1087 H 108.194 -8.12764 -0.967339 0
M  V30 1088 N 110.857 0.726932 -1.39834 0
M  V30 1089 C 112.105 1.4837 -1.37225 0
M  V30 1090 C 112.426 1.94979 0.0284857 0
M  V30 1091 O 111.696 1.69555 0.981213 0
M  V30 1092 H 110.276 0.55043 -0.505011 0
M  V30 1093 H 112.938 0.862468 -1.74778 0
M  V30 1094 H 112.034 2.36198 -2.04003 0
M  V30 1095 N 112.336 1.25143 0.95797 0
M  V30 1096 C 113.585 1.0909 1.69654 0
M  V30 1097 C 113.898 -0.368548 1.92097 0
M  V30 1098 O 115.104 -0.649455 2.63618 0
M  V30 1099 C 113.56 1.90395 3.05414 0
M  V30 1100 C 113.168 3.4081 2.90779 0
M  V30 1101 C 114.912 1.82901 3.83076 0
M  V30 1102 C 112.819 4.14423 4.21909 0
M  V30 1103 H 111.749 0.404625 0.636235 0
M  V30 1104 H 114.4 1.4931 1.06672 0
M  V30 1105 H 112.782 1.42996 3.69281 0
M  V30 1106 H 113.956 3.95859 2.35865 0
M  V30 1107 H 112.271 3.49361 2.26575 0
M  V30 1108 H 114.868 2.35196 4.80195 0
M  V30 1109 H 115.211 0.796224 4.08615 0
M  V30 1110 H 115.744 2.28033 3.25954 0
M  V30 1111 H 112.483 5.18102 4.01561 0
M  V30 1112 H 112.003 3.64159 4.76601 0
M  V30 1113 H 113.682 4.21956 4.90471 0
M  V30 1114 N 113.814 -1.1601 1.06675 0
M  V30 1115 C 114.746 -2.20115 0.638921 0
M  V30 1116 C 115.759 -1.59916 -0.305057 0
M  V30 1117 O 116.948 -1.78245 -0.0954446 0
M  V30 1118 C 114.048 -3.38798 -0.0830083 0
M  V30 1119 C 113.221 -4.2855 0.875426 0
M  V30 1120 C 112.28 -5.25849 0.192042 0
M  V30 1121 O 111.306 -5.63102 0.830921 0
M  V30 1122 N 112.508 -5.70648 -1.06493 0
M  V30 1123 H 115.273 -2.57439 1.53444 0
M  V30 1124 H 112.834 -1.31057 0.950557 0
M  V30 1125 H 114.826 -4.00936 -0.550685 0
M  V30 1126 H 113.396 -2.99947 -0.880386 0
M  V30 1127 H 112.616 -3.63617 1.52238 0
M  V30 1128 H 113.904 -4.85393 1.52548 0
M  V30 1129 H 113.302 -5.42482 -1.60405 0
M  V30 1130 H 111.859 -6.34859 -1.47641 0
M  V30 1131 N 115.292 -0.849877 -1.32721 0
M  V30 1132 C 116.202 -0.293791 -2.32753 0
M  V30 1133 C 117.218 0.585906 -1.63839 0
M  V30 1134 O 118.394 0.487413 -1.95413 0
M  V30 1135 C 115.459 0.512752 -3.42887 0
M  V30 1136 C 114.52 -0.39252 -4.27502 0
M  V30 1137 C 113.753 0.375625 -5.32377 0
M  V30 1138 O 113.976 1.60613 -5.4732 0
M  V30 1139 O 112.91 -0.256094 -6.01355 0
M  V30 1140 H 116.736 -1.12242 -2.82197 0
M  V30 1141 H 114.321 -0.612685 -1.36259 0
M  V30 1142 H 116.203 0.970704 -4.10067 0
M  V30 1143 H 114.878 1.31826 -2.95641 0
M  V30 1144 H 113.785 -0.898547 -3.63149 0
M  V30 1145 H 115.118 -1.16309 -4.7826 0
M  V30 1146 N 116.77 1.45427 -0.607355 0
M  V30 1147 C 118.047 1.9557 -0.0344566 0
M  V30 1148 C 118.427 1.54979 1.43334 0
M  V30 1149 O 117.775 0.812241 2.13576 0
M  V30 1150 C 117.985 3.48226 -0.232321 0
M  V30 1151 C 119.333 4.2445 -0.113001 0
M  V30 1152 O 120.357 3.55829 -0.162431 0
M  V30 1153 O 119.216 5.465 0.00209442 0
M  V30 1154 H 116.31 0.826222 0.0358667 0
M  V30 1155 H 118.856 1.55594 -0.6774 0
M  V30 1156 H 117.628 3.70739 -1.25174 0
M  V30 1157 H 117.251 3.95092 0.445896 0
M  V30 1158 N 118.248 0.346503 1.53744 0
M  V30 1159 C 119.178 -0.501193 2.28058 0
M  V30 1160 C 120.159 -1.10014 1.29734 0
M  V30 1161 O 121.344 -1.12097 1.58581 0
M  V30 1162 C 118.474 -1.65078 3.05559 0
M  V30 1163 C 117.428 -1.18003 4.11411 0
M  V30 1164 C 116.754 -2.41837 4.76884 0
M  V30 1165 C 118.054 -0.278394 5.21558 0
M  V30 1166 H 119.748 0.11875 2.99164 0
M  V30 1167 H 117.294 0.0585531 1.43881 0
M  V30 1168 H 119.247 -2.25028 3.56287 0
M  V30 1169 H 117.971 -2.29767 2.32109 0
M  V30 1170 H 116.63 -0.603331 3.61601 0
M  V30 1171 H 116.278 -3.0494 4.00026 0
M  V30 1172 H 115.978 -2.1102 5.48402 0
M  V30 1173 H 117.502 -3.02508 5.30397 0
M  V30 1174 H 118.916 -0.784823 5.67903 0
M  V30 1175 H 117.313 -0.0619707 6.00068 0
M  V30 1176 H 118.383 0.684677 4.80042 0
M  V30 1177 N 119.726 -1.57421 0.075193 0
M  V30 1178 C 120.658 -2.09904 -0.920483 0
M  V30 1179 C 121.671 -1.03191 -1.25918 0
M  V30 1180 O 122.86 -1.30695 -1.21577 0
M  V30 1181 C 119.96 -2.54726 -2.23534 0
M  V30 1182 C 119.133 -3.8505 -2.07498 0
M  V30 1183 C 118.192 -4.15929 -3.22319 0
M  V30 1184 O 117.218 -4.85474 -2.9716 0
M  V30 1185 N 118.42 -3.69745 -4.47514 0
M  V30 1186 H 121.185 -2.95954 -0.472359 0
M  V30 1187 H 118.746 -1.61523 -0.110444 0
M  V30 1188 H 120.738 -2.72443 -2.9926 0
M  V30 1189 H 119.308 -1.73795 -2.59835 0
M  V30 1190 H 118.528 -3.76679 -1.16219 0
M  V30 1191 H 119.816 -4.70348 -1.94038 0
M  V30 1192 H 119.214 -3.13569 -4.7084 0
M  V30 1193 H 117.771 -3.92655 -5.20255 0
M  V30 1194 N 121.204 0.198386 -1.56346 0
M  V30 1195 C 122.136 1.26987 -1.90806 0
M  V30 1196 C 123.149 1.41877 -0.798419 0
M  V30 1197 O 124.338 1.42362 -1.07682 0
M  V30 1198 C 121.438 2.64246 -2.12196 0
M  V30 1199 C 120.611 2.71007 -3.43328 0
M  V30 1200 C 119.67 3.89439 -3.5387 0
M  V30 1201 O 118.696 3.76695 -4.26719 0
M  V30 1202 N 119.898 5.04752 -2.86715 0
M  V30 1203 H 122.663 0.977433 -2.83313 0
M  V30 1204 H 120.224 0.388322 -1.57174 0
M  V30 1205 H 122.216 3.41896 -2.1654 0
M  V30 1206 H 120.786 2.85992 -1.26204 0
M  V30 1207 H 120.006 1.79657 -3.50881 0
M  V30 1208 H 121.294 2.72512 -4.29668 0
M  V30 1209 H 120.692 5.18004 -2.2735 0
M  V30 1210 H 119.249 5.8036 -2.96691 0
M  V30 1211 N 122.682 1.50554 0.465978 0
M  V30 1212 C 123.63 1.70324 1.58406 0
M  V30 1213 C 124.624 0.569139 1.59553 0
M  V30 1214 O 125.83 0.749776 1.63641 0
M  V30 1215 H 122.205 0.537688 0.525734 0
M  V30 1216 H 124.176 2.64104 1.38894 0
M  V30 1217 C 122.925 1.81928 2.96307 0
M  V30 1218 H 122.248 2.68586 2.96144 0
M  V30 1219 H 123.688 1.99784 3.73982 0
M  V30 1220 C 122.147 0.572095 3.32007 0
M  V30 1221 O 122.677 -0.286416 4.00678 0
M  V30 1222 N 120.883 0.424606 2.87481 0
M  V30 1223 H 120.43 1.12427 2.31771 0
M  V30 1224 H 120.388 -0.408697 3.11732 0
M  V30 1225 N 124.16 -0.719506 1.40217 0
M  V30 1226 C 125.408 -1.47641 1.3801 0
M  V30 1227 C 125.729 -1.94992 -0.018145 0
M  V30 1228 O 124.999 -1.70073 -0.972207 0
M  V30 1229 H 123.579 -0.547744 0.507923 0
M  V30 1230 H 126.241 -0.853187 1.75233 0
M  V30 1231 H 125.337 -2.35112 2.05253 0
M  V30 1232 N 125.638 -1.25649 -0.95132 0
M  V30 1233 C 126.601 -1.06399 -2.03007 0
M  V30 1234 C 127.601 -0.0156794 -1.60792 0
M  V30 1235 O 128.791 -0.25817 -1.72276 0
M  V30 1236 C 125.923 -0.616184 -3.35285 0
M  V30 1237 H 127.116 -2.02164 -2.21517 0
M  V30 1238 H 124.669 -1.08103 -1.12887 0
M  V30 1239 H 125.404 0.343917 -3.22471 0
M  V30 1240 H 125.189 -1.37301 -3.67275 0
M  V30 1241 H 126.679 -0.503032 -4.14559 0
M  V30 1242 N 127.117 1.15442 -1.07289 0
M  V30 1243 C 128.345 1.90096 -0.81676 0
M  V30 1244 C 128.76 1.7798 0.629966 0
M  V30 1245 O 128.117 1.1313 1.43206 0
M  V30 1246 C 128.168 3.40466 -1.21512 0
M  V30 1247 O 127.889 3.52232 -2.60508 0
M  V30 1248 C 129.39 4.32145 -0.988198 0
M  V30 1249 H 126.61 0.602495 -0.295366 0
M  V30 1250 H 129.154 1.4627 -1.42918 0
M  V30 1251 H 127.309 3.81958 -0.647039 0
M  V30 1252 H 127.723 4.45549 -2.76742 0
M  V30 1253 H 129.197 5.36072 -1.31645 0
M  V30 1254 H 129.674 4.39135 0.0755063 0
M  V30 1255 H 130.28 3.96395 -1.54115 0
M  V30 1256 N 128.595 0.856903 1.32268 0
M  V30 1257 C 129.841 0.462069 1.97466 0
M  V30 1258 C 130.174 -0.980298 1.67642 0
M  V30 1259 O 129.449 -1.68824 0.965858 0
M  V30 1260 C 129.732 0.704336 3.53145 0
M  V30 1261 C 129.585 2.19529 3.9259 0
M  V30 1262 C 130.904 0.1622 4.39801 0
M  V30 1263 H 128.023 0.169357 0.717278 0
M  V30 1264 H 130.665 1.07574 1.56614 0
M  V30 1265 H 128.815 0.181999 3.88073 0
M  V30 1266 H 130.487 2.78387 3.67829 0
M  V30 1267 H 128.73 2.67292 3.41668 0
M  V30 1268 H 129.401 2.31549 5.01088 0
M  V30 1269 H 131.877 0.608905 4.11621 0
M  V30 1270 H 130.753 0.361265 5.4771 0
M  V30 1271 H 131.014 -0.935158 4.32096 0
M  V30 1272 N 130.073 -1.45103 0.615059 0
M  V30 1273 C 131.303 -2.06254 0.119596 0
M  V30 1274 C 131.711 -1.4591 -1.20445 0
M  V30 1275 O 131.054 -0.570384 -1.7462 0
M  V30 1276 C 131.116 -3.59396 -0.0865591 0
M  V30 1277 C 130.78 -4.42116 1.15683 0
M  V30 1278 C 131.777 -4.7662 2.07676 0
M  V30 1279 C 129.462 -4.82749 1.38775 0
M  V30 1280 C 131.456 -5.50622 3.21082 0
M  V30 1281 C 129.143 -5.56504 2.52481 0
M  V30 1282 C 130.141 -5.90358 3.43463 0
M  V30 1283 O 129.829 -6.62615 4.55189 0
M  V30 1284 H 129.561 -0.672423 0.0694512 0
M  V30 1285 H 132.115 -1.87219 0.844885 0
M  V30 1286 H 130.345 -3.76859 -0.866823 0
M  V30 1287 H 132.034 -4.02365 -0.534555 0
M  V30 1288 H 132.8 -4.4578 1.91063 0
M  V30 1289 H 128.679 -4.55829 0.688545 0
M  V30 1290 H 132.223 -5.76965 3.92119 0
M  V30 1291 H 128.12 -5.86759 2.69043 0
M  V30 1292 H 128.888 -6.81071 4.53966 0
M  V30 1293 N 131.551 -0.354651 -1.53558 0
M  V30 1294 C 132.797 0.238797 -2.01389 0
M  V30 1295 C 133.13 1.49309 -1.2418 0
M  V30 1296 O 132.405 1.91638 -0.332457 0
M  V30 1297 C 132.688 0.541771 -3.56001 0
M  V30 1298 C 132.541 -0.725388 -4.43912 0
M  V30 1299 C 133.86 1.34685 -4.18984 0
M  V30 1300 H 130.979 0.0853177 -0.732045 0
M  V30 1301 H 133.621 -0.477384 -1.83905 0
M  V30 1302 H 131.771 1.15189 -3.71031 0
M  V30 1303 H 133.443 -1.36313 -4.407 0
M  V30 1304 H 131.686 -1.34801 -4.12324 0
M  V30 1305 H 132.357 -0.468505 -5.50008 0
M  V30 1306 H 134.833 0.830837 -4.07721 0
M  V30 1307 H 133.709 1.52759 -5.27215 0
M  V30 1308 H 133.97 2.35221 -3.74331 0
M  V30 1309 N 133.029 1.57378 -0.0835403 0
M  V30 1310 C 133.992 2.12252 0.864959 0
M  V30 1311 C 134.992 1.04916 1.21858 0
M  V30 1312 O 136.182 1.30853 1.14991 0
M  V30 1313 C 133.314 2.63358 2.16461 0
M  V30 1314 H 134.507 2.97371 0.388676 0
M  V30 1315 H 132.06 1.55423 0.165317 0
M  V30 1316 H 132.795 1.81727 2.686 0
M  V30 1317 H 132.58 3.41826 1.92087 0
M  V30 1318 H 134.07 3.05847 2.84337 0
M  V30 1319 N 134.507 -0.190092 1.56449 0
M  V30 1320 C 135.455 -1.25501 1.95837 0
M  V30 1321 C 136.449 -1.4685 0.844485 0
M  V30 1322 O 137.655 -1.47651 1.02952 0
M  V30 1323 H 134.03 -0.421447 0.622805 0
M  V30 1324 H 136.001 -0.895821 2.84636 0
M  V30 1325 C 134.75 -2.59124 2.31841 0
M  V30 1326 H 134.073 -2.43514 3.17082 0
M  V30 1327 H 135.513 -3.32371 2.6326 0
M  V30 1328 C 133.972 -3.16488 1.15486 0
M  V30 1329 O 134.502 -3.99365 0.432535 0
M  V30 1330 N 132.708 -2.75305 0.930349 0
M  V30 1331 H 132.255 -2.08013 1.51948 0
M  V30 1332 H 132.213 -3.14024 0.153634 0
M  V30 1333 N 135.985 -1.50799 -0.457987 0
M  V30 1334 C 136.915 -1.73553 -1.5621 0
M  V30 1335 C 137.896 -0.584774 -1.59732 0
M  V30 1336 O 139.081 -0.825314 -1.7579 0
M  V30 1337 C 136.211 -1.84169 -2.94447 0
M  V30 1338 C 135.165 -2.99461 -3.0579 0
M  V30 1339 C 134.491 -2.95235 -4.45803 0
M  V30 1340 C 135.791 -4.39766 -2.81786 0
M  V30 1341 H 137.485 -2.66 -1.37421 0
M  V30 1342 H 135.031 -1.28002 -0.659662 0
M  V30 1343 H 136.984 -1.98672 -3.71628 0
M  V30 1344 H 135.708 -0.883545 -3.14422 0
M  V30 1345 H 134.367 -2.8463 -2.31044 0
M  V30 1346 H 134.015 -1.97239 -4.62715 0
M  V30 1347 H 133.715 -3.72642 -4.54326 0
M  V30 1348 H 135.239 -3.11803 -5.24987 0
M  V30 1349 H 136.653 -4.55054 -3.4871 0
M  V30 1350 H 135.05 -5.18722 -3.0174 0
M  V30 1351 H 136.12 -4.51229 -1.7754 0
M  V30 1352 N 137.463 0.71206 -1.40597 0
M  V30 1353 C 138.688 1.50617 -1.42581 0
M  V30 1354 C 139.113 1.88079 -0.0282102 0
M  V30 1355 O 138.471 1.53511 0.964579 0
M  V30 1356 C 138.519 2.7557 -2.3258 0
M  V30 1357 O 137.623 3.72414 -1.77148 0
M  V30 1358 H 136.964 0.453966 -0.484573 0
M  V30 1359 H 139.494 0.876649 -1.84868 0
M  V30 1360 H 139.504 3.2406 -2.47889 0
M  V30 1361 H 138.179 2.47639 -3.34138 0
M  V30 1362 H 136.756 3.31276 -1.71204 0
M  V30 1363 N 138.941 1.26152 0.944643 0
M  V30 1364 C 140.189 1.11271 1.6871 0
M  V30 1365 C 140.51 -0.345166 1.91921 0
M  V30 1366 O 139.78 -1.24387 1.51343 0
M  V30 1367 H 138.36 0.408783 0.625224 0
M  V30 1368 H 141.022 1.58427 1.1352 0
M  V30 1369 H 140.118 1.62879 2.66227 0
M  V30 1370 N 140.419 -1.14872 1.07899 0
M  V30 1371 C 141.666 -1.85789 0.805532 0
M  V30 1372 C 141.994 -1.82649 -0.668561 0
M  V30 1373 O 141.249 -1.24858 -1.50695 0
M  V30 1374 C 141.548 -3.34223 1.26609 0
M  V30 1375 C 141.214 -3.57555 2.74709 0
M  V30 1376 C 139.876 -3.63631 3.1516 0
M  V30 1377 C 142.228 -3.66803 3.70277 0
M  V30 1378 C 139.556 -3.76473 4.49983 0
M  V30 1379 C 141.908 -3.8117 5.04869 0
M  V30 1380 C 140.572 -3.85494 5.44932 0
M  V30 1381 H 139.842 -0.679849 0.294765 0
M  V30 1382 H 142.489 -1.3572 1.35101 0
M  V30 1383 H 140.794 -3.86536 0.640103 0
M  V30 1384 H 142.491 -3.87511 1.03132 0
M  V30 1385 H 139.081 -3.5347 2.42398 0
M  V30 1386 H 143.265 -3.61404 3.40149 0
M  V30 1387 H 138.521 -3.7808 4.80484 0
M  V30 1388 H 142.695 -3.87268 5.78789 0
M  V30 1389 H 140.322 -3.95197 6.49403 0
M  V30 1390 N 141.898 -0.863906 -1.31812 0
M  V30 1391 C 142.83 -0.272485 -2.27575 0
M  V30 1392 C 143.843 0.56104 -1.52827 0
M  V30 1393 O 145.032 0.384021 -1.7432 0
M  V30 1394 C 142.132 0.63283 -3.32939 0
M  V30 1395 C 141.305 -0.166902 -4.37081 0
M  V30 1396 C 140.364 0.665608 -5.21973 0
M  V30 1397 O 139.39 0.0958091 -5.69119 0
M  V30 1398 N 140.592 1.9787 -5.45736 0
M  V30 1399 H 143.357 -1.0954 -2.78964 0
M  V30 1400 H 140.918 -0.724791 -1.4477 0
M  V30 1401 H 142.91 1.19532 -3.86645 0
M  V30 1402 H 141.48 1.35642 -2.81638 0
M  V30 1403 H 140.7 -0.910838 -3.83533 0
M  V30 1404 H 141.988 -0.715874 -5.03739 0
M  V30 1405 H 141.386 2.46484 -5.09178 0
M  V30 1406 H 139.943 2.48911 -6.024 0
M  V30 1407 N 143.376 1.44774 -0.622745 0
M  V30 1408 C 144.601 2.06999 -0.128968 0
M  V30 1409 C 145.026 1.4617 1.1839 0
M  V30 1410 O 144.384 0.560007 1.72434 0
M  V30 1411 C 144.432 3.60595 -0.0188351 0
M  V30 1412 O 143.536 3.99398 1.02739 0
M  V30 1413 H 142.877 0.659047 -0.0809544 0
M  V30 1414 H 145.407 1.85784 -0.85705 0
M  V30 1415 H 145.417 4.07627 0.174476 0
M  V30 1416 H 144.092 4.04252 -0.977384 0
M  V30 1417 H 142.669 3.64011 0.809326 0
M  V30 1418 N 144.854 0.36279 1.53368 0
M  V30 1419 C 146.131 -0.284021 1.93527 0
M  V30 1420 C 146.511 -1.66628 1.29608 0
M  V30 1421 O 145.859 -2.23942 0.45413 0
M  V30 1422 C 146.069 -0.337028 3.47369 0
M  V30 1423 C 147.417 -0.578708 4.20638 0
M  V30 1424 O 148.441 -0.418352 3.53735 0
M  V30 1425 O 147.3 -0.89074 5.39192 0
M  V30 1426 H 144.394 -0.169743 0.809393 0
M  V30 1427 H 146.94 0.41537 1.64538 0
M  V30 1428 H 145.712 0.632217 3.86159 0
M  V30 1429 H 145.335 -1.08243 3.82582 0
M  V30 1430 N 146.332 -1.57332 0.0918853 0
M  V30 1431 C 147.609 -1.85691 -0.614668 0
M  V30 1432 C 147.989 -0.988146 -1.86545 0
M  V30 1433 O 147.337 -0.0597055 -2.28422 0
M  V30 1434 C 147.547 -3.36294 -0.933126 0
M  V30 1435 C 148.895 -4.04275 -1.29796 0
M  V30 1436 O 149.919 -3.41157 -1.02424 0
M  V30 1437 O 148.778 -5.1564 -1.81047 0
M  V30 1438 H 145.872 -0.767802 -0.307261 0
M  V30 1439 H 148.418 -1.69244 0.12434 0
M  V30 1440 H 147.19 -3.91273 -0.0456404 0
M  V30 1441 H 146.813 -3.58076 -1.72822 0
M  V30 1442 N 147.81 0.181792 -1.56548 0
M  V30 1443 C 149.058 0.89832 -1.81038 0
M  V30 1444 C 149.379 1.83232 -0.667164 0
M  V30 1445 O 148.649 1.93372 0.313673 0
M  V30 1446 H 147.229 0.33471 -0.667816 0
M  V30 1447 H 149.891 0.184116 -1.94028 0
M  V30 1448 H 148.987 1.4815 -2.74696 0
M  V30 1449 N 149.288 1.51039 0.449983 0
M  V30 1450 C 150.699 1.557 1.03026 0
M  V30 1451 C 151.05 0.372939 1.92623 0
M  V30 1452 O 150.175 -0.511771 2.10261 0
M  V30 1453 C 150.77 2.82171 1.87523 0
M  V30 1454 C 149.329 2.89444 2.40622 0
M  V30 1455 C 148.476 2.50228 1.19504 0
M  V30 1456 H 151.427 1.56999 0.231745 0
M  V30 1457 H 151.448 2.65219 2.72835 0
M  V30 1458 H 150.96 3.68331 1.22286 0
M  V30 1459 H 149.061 2.07685 3.0935 0
M  V30 1460 H 149.174 3.92816 2.74285 0
M  V30 1461 H 147.538 2.03139 1.53644 0
M  V30 1462 H 148.321 3.38719 0.558972 0
M  V30 1463 N 150.766 -0.704594 1.40972 0
M  V30 1464 C 151.714 -1.83994 1.42299 0
M  V30 1465 C 152.708 -1.66684 0.302111 0
M  V30 1466 O 153.914 -1.73655 0.473697 0
M  V30 1467 H 150.289 -0.606171 0.44504 0
M  V30 1468 H 152.26 -1.79992 2.38003 0
M  V30 1469 C 151.009 -3.21946 1.31323 0
M  V30 1470 H 150.332 -3.35878 2.16855 0
M  V30 1471 H 151.772 -4.01491 1.36311 0
M  V30 1472 C 150.231 -3.36891 0.0245977 0
M  V30 1473 O 150.761 -3.90687 -0.934153 0
M  V30 1474 N 148.967 -2.90559 -0.0485243 0
M  V30 1475 H 148.514 -2.46968 0.732419 0
M  V30 1476 H 148.472 -3.00937 -0.910171 0
M  V30 1477 N 152.244 -1.26651 -0.937939 0
M  V30 1478 C 153.492 -1.12165 -1.68118 0
M  V30 1479 C 153.813 0.334983 -1.92101 0
M  V30 1480 O 153.083 1.23583 -1.52 0
M  V30 1481 H 151.663 -0.412093 -0.623048 0
M  V30 1482 H 154.325 -1.59027 -1.12678 0
M  V30 1483 H 153.421 -1.64289 -2.6536 0
M  V30 1484 N 153.722 1.14298 -1.08507 0
M  V30 1485 C 155.138 1.37347 -0.812901 0
M  V30 1486 C 155.338 1.93052 0.577325 0
M  V30 1487 O 154.394 2.14389 1.33393 0
M  V30 1488 C 155.707 2.33359 -1.89642 0
M  V30 1489 C 157.255 2.46996 -1.92255 0
M  V30 1490 C 157.73 3.46309 -2.99724 0
M  V30 1491 N 159.221 3.53853 -2.98902 0
M  V30 1492 C 159.956 4.3055 -3.787 0
M  V30 1493 N 159.452 5.10482 -4.6838 0
M  V30 1494 N 161.245 4.25757 -3.66998 0
M  V30 1495 H 153.396 0.764867 -1.9815 0
M  V30 1496 H 155.659 0.398966 -0.859959 0
M  V30 1497 H 155.365 1.99565 -2.89597 0
M  V30 1498 H 155.239 3.33274 -1.76659 0
M  V30 1499 H 157.626 2.80081 -0.929445 0
M  V30 1500 H 157.707 1.47039 -2.09316 0
M  V30 1501 H 157.351 3.13957 -3.99241 0
M  V30 1502 H 157.281 4.46049 -2.79907 0
M  V30 1503 H 159.772 2.96812 -2.33904 0
M  V30 1504 H 160.085 5.66284 -5.25873 0
M  V30 1505 H 158.43 5.09747 -4.72422 0
M  V30 1506 H 161.621 3.62383 -2.96304 0
M  V30 1507 H 161.794 4.85279 -4.29427 0
M  V30 1508 N 155.201 0.870884 1.31352 0
M  V30 1509 C 156.449 0.48132 1.96285 0
M  V30 1510 C 156.77 -0.969813 1.69173 0
M  V30 1511 O 156.04 -1.67998 1.00764 0
M  V30 1512 H 154.62 0.175002 0.726212 0
M  V30 1513 H 157.282 1.11087 1.60143 0
M  V30 1514 H 156.378 0.639825 3.05471 0
M  V30 1515 N 156.679 -1.44442 0.630414 0
M  V30 1516 C 157.589 -2.34476 -0.0761693 0
M  V30 1517 C 158.605 -1.52576 -0.836449 0
M  V30 1518 O 159.781 -1.85307 -0.788874 0
M  V30 1519 C 156.846 -3.30545 -1.04599 0
M  V30 1520 C 155.907 -4.28352 -0.28516 0
M  V30 1521 C 155.14 -5.19831 -1.20878 0
M  V30 1522 O 155.363 -5.15223 -2.44747 0
M  V30 1523 O 154.297 -5.97892 -0.693491 0
M  V30 1524 H 158.123 -2.96345 0.664324 0
M  V30 1525 H 155.708 -1.44203 0.39061 0
M  V30 1526 H 157.59 -3.89681 -1.60396 0
M  V30 1527 H 156.265 -2.7121 -1.76711 0
M  V30 1528 H 155.172 -3.72764 0.315837 0
M  V30 1529 H 156.505 -4.90605 0.395924 0
M  V30 1530 N 158.157 -0.370918 -1.53173 0
M  V30 1531 C 159.089 0.507823 -2.23503 0
M  V30 1532 C 160.102 1.04182 -1.251 0
M  V30 1533 O 161.291 0.947286 -1.5129 0
M  V30 1534 C 158.391 1.71447 -2.92334 0
M  V30 1535 C 157.564 1.31105 -4.17289 0
M  V30 1536 C 156.623 2.38035 -4.69282 0
M  V30 1537 O 155.649 2.00204 -5.32829 0
M  V30 1538 N 156.851 3.69697 -4.47554 0
M  V30 1539 H 159.616 -0.0946382 -2.99551 0
M  V30 1540 H 157.177 -0.196358 -1.60705 0
M  V30 1541 H 159.169 2.42469 -3.24023 0
M  V30 1542 H 157.739 2.22368 -2.19707 0
M  V30 1543 H 156.959 0.430462 -3.91843 0
M  V30 1544 H 158.247 1.0179 -4.98514 0
M  V30 1545 H 157.645 4.03205 -3.9679 0
M  V30 1546 H 156.202 4.36807 -4.8378 0
M  V30 1547 N 159.635 1.57281 -0.100228 0
M  V30 1548 C 160.565 2.17328 0.853857 0
M  V30 1549 C 161.546 1.10804 1.2906 0
M  V30 1550 O 162.731 1.38963 1.35657 0
M  V30 1551 C 159.861 2.75772 2.11109 0
M  V30 1552 C 158.815 3.87713 1.81279 0
M  V30 1553 C 158.141 4.32882 3.13874 0
M  V30 1554 C 159.441 5.10677 1.09574 0
M  V30 1555 H 161.135 2.97305 0.353545 0
M  V30 1556 H 158.681 1.43009 0.168612 0
M  V30 1557 H 160.634 3.16433 2.78296 0
M  V30 1558 H 159.358 1.93057 2.63432 0
M  V30 1559 H 158.017 3.476 1.16489 0
M  V30 1560 H 157.665 3.47051 3.64095 0
M  V30 1561 H 157.365 5.08358 2.94696 0
M  V30 1562 H 158.889 4.7618 3.82211 0
M  V30 1563 H 160.303 5.48474 1.66879 0
M  V30 1564 H 158.7 5.91615 1.00557 0
M  V30 1565 H 159.77 4.84835 0.0793299 0
M  V30 1566 N 161.113 -0.173488 1.56642 0
M  V30 1567 C 162.043 -1.2171 1.99271 0
M  V30 1568 C 163.024 -1.46289 0.867959 0
M  V30 1569 O 164.209 -1.5766 1.13388 0
M  V30 1570 C 161.339 -2.55651 2.35074 0
M  V30 1571 C 160.293 -2.45645 3.50489 0
M  V30 1572 C 159.619 -3.84056 3.72028 0
M  V30 1573 C 160.919 -1.96302 4.84007 0
M  V30 1574 H 162.613 -0.86275 2.867 0
M  V30 1575 H 160.159 -0.413571 1.37933 0
M  V30 1576 H 162.112 -3.2886 2.63494 0
M  V30 1577 H 160.836 -2.92869 1.44552 0
M  V30 1578 H 159.495 -1.7489 3.22194 0
M  V30 1579 H 159.143 -4.18664 2.788 0
M  V30 1580 H 158.843 -3.7823 4.49684 0
M  V30 1581 H 160.367 -4.58854 4.02846 0
M  V30 1582 H 161.781 -2.59284 5.11317 0
M  V30 1583 H 160.178 -2.01429 5.65284 0
M  V30 1584 H 161.248 -0.917226 4.76146 0
M  V30 1585 N 162.591 -1.51276 -0.441967 0
M  V30 1586 C 163.554 -1.7167 -1.51862 0
M  V30 1587 C 164.554 -0.586793 -1.49711 0
M  V30 1588 O 165.744 -0.854276 -1.51815 0
M  V30 1589 C 162.876 -1.76889 -2.91416 0
M  V30 1590 H 164.069 -2.67754 -1.35084 0
M  V30 1591 H 161.622 -1.41196 -0.670333 0
M  V30 1592 H 162.357 -0.826026 -3.13604 0
M  V30 1593 H 162.142 -2.59001 -2.94382 0
M  V30 1594 H 163.632 -1.94522 -3.69528 0
M  V30 1595 N 164.069 0.697108 -1.41344 0
M  V30 1596 C 165.299 1.48377 -1.43763 0
M  V30 1597 C 165.707 1.89156 -0.0408726 0
M  V30 1598 O 165.05 1.57239 0.949812 0
M  V30 1599 C 165.112 2.7781 -2.2817 0
M  V30 1600 C 164.776 2.59244 -3.76353 0
M  V30 1601 C 165.773 2.25292 -4.68551 0
M  V30 1602 C 163.458 2.74933 -4.20378 0
M  V30 1603 C 165.452 2.07264 -6.02761 0
M  V30 1604 C 163.139 2.56521 -5.54653 0
M  V30 1605 C 164.137 2.22737 -6.4566 0
M  V30 1606 O 163.825 2.04485 -7.77458 0
M  V30 1607 H 163.557 0.463842 -0.491759 0
M  V30 1608 H 166.111 0.865934 -1.86255 0
M  V30 1609 H 164.341 3.41995 -1.8049 0
M  V30 1610 H 166.03 3.39608 -2.22309 0
M  V30 1611 H 166.796 2.12787 -4.35829 0
M  V30 1612 H 162.675 3.00213 -3.49848 0
M  V30 1613 H 166.219 1.80817 -6.73759 0
M  V30 1614 H 162.116 2.68616 -5.86955 0
M  V30 1615 H 162.884 2.1926 -7.88586 0
M  V30 1616 N 165.547 1.27147 0.931209 0
M  V30 1617 C 166.793 1.13446 1.68101 0
M  V30 1618 C 167.126 -0.319628 1.91552 0
M  V30 1619 O 166.401 -1.23407 1.50336 0
M  V30 1620 C 166.684 1.91482 3.0497 0
M  V30 1621 C 166.537 3.44855 2.88782 0
M  V30 1622 C 167.856 1.71651 4.05246 0
M  V30 1623 H 164.975 0.413498 0.610072 0
M  V30 1624 H 167.617 1.56261 1.08086 0
M  V30 1625 H 165.767 1.55095 3.56199 0
M  V30 1626 H 167.439 3.9105 2.44698 0
M  V30 1627 H 165.682 3.71373 2.24198 0
M  V30 1628 H 166.353 3.94694 3.85902 0
M  V30 1629 H 168.829 2.0337 3.63015 0
M  V30 1630 H 167.705 2.28651 4.99009 0
M  V30 1631 H 167.966 0.663555 4.37092 0
M  V30 1632 N 167.025 -1.13721 1.09112 0
M  V30 1633 C 167.972 -2.19031 0.727591 0
M  V30 1634 C 168.942 -1.63555 -0.289656 0
M  V30 1635 O 170.127 -1.90023 -0.172026 0
M  V30 1636 C 167.267 -3.4477 0.15082 0
M  V30 1637 C 166.38 -4.14365 1.22172 0
M  V30 1638 C 165.515 -5.27709 0.608042 0
M  V30 1639 C 164.554 -5.89147 1.66047 0
M  V30 1640 N 163.691 -6.93929 1.06806 0
M  V30 1641 H 168.531 -2.49475 1.62991 0
M  V30 1642 H 166.068 -1.22499 0.81439 0
M  V30 1643 H 168.026 -4.16714 -0.201358 0
M  V30 1644 H 166.656 -3.14787 -0.714783 0
M  V30 1645 H 165.708 -3.40737 1.69122 0
M  V30 1646 H 167.02 -4.56114 2.01895 0
M  V30 1647 H 166.174 -6.06355 0.204523 0
M  V30 1648 H 164.913 -4.872 -0.220769 0
M  V30 1649 H 163.918 -5.09198 2.07357 0
M  V30 1650 H 165.143 -6.31729 2.49189 0
M  V30 1651 H 163.089 -6.55483 0.260476 0
M  V30 1652 H 163.006 -7.34202 1.8023 0
M  V30 1653 H 164.274 -7.76434 0.690644 0
M  V30 1654 N 168.503 -0.877838 -1.30888 0
M  V30 1655 C 169.731 -0.507414 -2.00581 0
M  V30 1656 C 170.146 0.902216 -1.65848 0
M  V30 1657 O 169.503 1.59225 -0.891831 0
M  V30 1658 C 169.554 -0.664162 -3.55347 0
M  V30 1659 O 169.275 -2.01829 -3.8884 0
M  V30 1660 C 170.776 -0.295787 -4.42312 0
M  V30 1661 H 167.996 -0.196866 -0.641471 0
M  V30 1662 H 170.54 -1.18117 -1.66939 0
M  V30 1663 H 168.695 -0.0378619 -3.87381 0
M  V30 1664 H 169.109 -2.03174 -4.8355 0
M  V30 1665 H 170.583 -0.456388 -5.5011 0
M  V30 1666 H 171.06 0.765663 -4.32475 0
M  V30 1667 H 171.666 -0.898113 -4.15709 0
M  V30 1668 N 169.982 1.44106 -0.638065 0
M  V30 1669 C 171.228 2.02277 -0.145546 0
M  V30 1670 C 171.561 1.50125 1.23191 0
M  V30 1671 O 170.836 0.688133 1.8192 0
M  V30 1672 C 171.119 3.59829 -0.139791 0
M  V30 1673 C 170.972 4.22247 -1.55008 0
M  V30 1674 C 172.291 4.36873 0.531966 0
M  V30 1675 H 169.41 0.734992 -0.0543632 0
M  V30 1676 H 172.052 1.71592 -0.815863 0
M  V30 1677 H 170.202 3.86102 0.431007 0
M  V30 1678 H 171.874 4.07057 -2.1703 0
M  V30 1679 H 170.117 3.79476 -2.10191 0
M  V30 1680 H 170.788 5.31284 -1.49804 0
M  V30 1681 H 173.264 4.16074 0.0464781 0
M  V30 1682 H 172.14 5.4657 0.505206 0
M  V30 1683 H 172.401 4.11995 1.60352 0
M  V30 1684 N 171.46 0.379036 1.52974 0
M  V30 1685 C 172.39 -0.452706 2.29069 0
M  V30 1686 C 173.371 -1.07237 1.32039 0
M  V30 1687 O 174.556 -1.08708 1.60923 0
M  V30 1688 C 171.686 -1.5856 3.08992 0
M  V30 1689 C 170.64 -1.0925 4.13822 0
M  V30 1690 C 169.966 -2.31668 4.81907 0
M  V30 1691 C 171.266 -0.167702 5.22031 0
M  V30 1692 H 172.96 0.182181 2.98845 0
M  V30 1693 H 170.506 0.0890592 1.43724 0
M  V30 1694 H 172.459 -2.1742 3.6098 0
M  V30 1695 H 171.183 -2.24792 2.36931 0
M  V30 1696 H 169.842 -0.526494 3.628 0
M  V30 1697 H 169.49 -2.96386 4.06404 0
M  V30 1698 H 169.19 -1.9934 5.52754 0
M  V30 1699 H 170.714 -2.91189 5.36695 0
M  V30 1700 H 172.128 -0.664186 5.6944 0
M  V30 1701 H 170.525 0.0653265 6.00064 0
M  V30 1702 H 171.595 0.786347 4.78482 0
M  V30 1703 N 172.938 -1.57226 0.108567 0
M  V30 1704 C 173.901 -2.13602 -0.831082 0
M  V30 1705 C 174.901 -1.06841 -1.20173 0
M  V30 1706 O 176.091 -1.32666 -1.12895 0
M  V30 1707 C 173.223 -2.66769 -2.12243 0
M  V30 1708 H 174.416 -2.97951 -0.341317 0
M  V30 1709 H 171.969 -1.55667 -0.14057 0
M  V30 1710 H 172.704 -1.85977 -2.65675 0
M  V30 1711 H 172.489 -3.44839 -1.86625 0
M  V30 1712 H 173.979 -3.10332 -2.79435 0
M  V30 1713 N 174.416 0.165178 -1.56732 0
M  V30 1714 C 175.379 1.18822 -1.95995 0
M  V30 1715 C 176.379 1.3685 -0.84431 0
M  V30 1716 O 177.569 1.34152 -1.11126 0
M  V30 1717 C 174.701 2.5521 -2.26011 0
M  V30 1718 H 175.894 0.851825 -2.87548 0
M  V30 1719 H 173.447 0.407857 -1.50885 0
M  V30 1720 H 174.182 2.93852 -1.37191 0
M  V30 1721 H 173.967 2.43489 -3.07336 0
M  V30 1722 H 175.457 3.28927 -2.57288 0
M  V30 1723 N 175.894 1.51508 0.433938 0
M  V30 1724 C 177.122 1.68157 1.20543 0
M  V30 1725 C 177.537 0.380362 1.84929 0
M  V30 1726 O 176.894 -0.641446 1.70856 0
M  V30 1727 C 176.945 2.79965 2.28696 0
M  V30 1728 O 176.666 4.05045 1.66943 0
M  V30 1729 C 178.167 3.07912 3.18912 0
M  V30 1730 H 175.387 0.56421 0.363191 0
M  V30 1731 H 177.931 1.97941 0.513754 0
M  V30 1732 H 176.086 2.5277 2.93574 0
M  V30 1733 H 176.5 4.67165 2.38448 0
M  V30 1734 H 177.974 3.89719 3.90926 0
M  V30 1735 H 178.451 2.20456 3.79863 0
M  V30 1736 H 179.057 3.36779 2.59731 0
M  V30 1737 N 177.372 -0.689602 1.41712 0
M  V30 1738 C 178.62 -1.4468 1.4111 0
M  V30 1739 C 178.941 -1.94986 0.0232196 0
M  V30 1740 O 178.211 -1.72097 -0.935913 0
M  V30 1741 H 176.791 -0.536847 0.519427 0
M  V30 1742 H 179.453 -0.815825 1.77004 0
M  V30 1743 H 178.549 -2.30706 2.10193 0
M  V30 1744 N 178.85 -1.27639 -0.924453 0
M  V30 1745 C 179.813 -1.10681 -2.00705 0
M  V30 1746 C 180.813 -0.0497823 -1.60723 0
M  V30 1747 O 182.003 -0.294654 -1.7169 0
M  V30 1748 C 179.135 -0.687164 -3.33902 0
M  V30 1749 H 180.328 -2.06817 -2.17179 0
M  V30 1750 H 177.881 -1.10473 -1.10569 0
M  V30 1751 H 178.616 0.275439 -3.23128 0
M  V30 1752 H 178.401 -1.45061 -3.6428 0
M  V30 1753 H 179.891 -0.590853 -4.13399 0
M  V30 1754 N 180.328 1.1314 -1.09713 0
M  V30 1755 C 181.556 1.88321 -0.856898 0
M  V30 1756 C 181.971 1.79276 0.592073 0
M  V30 1757 O 181.328 1.16142 1.40774 0
M  V30 1758 C 181.379 3.37812 -1.28706 0
M  V30 1759 O 181.1 3.46627 -2.67921 0
M  V30 1760 C 182.601 4.29952 -1.07964 0
M  V30 1761 H 179.821 0.596094 -0.308079 0
M  V30 1762 H 182.365 1.43205 -1.45988 0
M  V30 1763 H 180.52 3.805 -0.727912 0
M  V30 1764 H 180.934 4.39579 -2.8613 0
M  V30 1765 H 182.408 5.33159 -1.42986 0
M  V30 1766 H 182.885 4.39196 -0.0176577 0
M  V30 1767 H 183.491 3.93036 -1.62489 0
M  V30 1768 N 181.806 0.884767 1.30421 0
M  V30 1769 C 182.753 0.349642 2.28136 0
M  V30 1770 C 183.723 -0.560061 1.56373 0
M  V30 1771 O 184.908 -0.488524 1.8444 0
M  V30 1772 C 182.048 -0.42999 3.42411 0
M  V30 1773 C 181.161 0.508907 4.28992 0
M  V30 1774 C 180.296 -0.286301 5.30428 0
M  V30 1775 C 179.335 0.648079 6.08659 0
M  V30 1776 N 178.472 -0.111792 7.02011 0
M  V30 1777 H 183.312 1.18807 2.73293 0
M  V30 1778 H 180.849 0.597231 1.3443 0
M  V30 1779 H 182.807 -0.897923 4.07423 0
M  V30 1780 H 181.437 -1.23299 2.98324 0
M  V30 1781 H 180.489 1.09533 3.64289 0
M  V30 1782 H 181.801 1.22475 4.8353 0
M  V30 1783 H 180.955 -0.816098 6.01186 0
M  V30 1784 H 179.694 -1.03536 4.76583 0
M  V30 1785 H 178.699 1.18951 5.36778 0
M  V30 1786 H 179.924 1.39623 6.64592 0
M  V30 1787 H 177.87 -0.843395 6.50556 0
M  V30 1788 H 177.787 0.544429 7.54037 0
M  V30 1789 H 179.055 -0.622339 7.77012 0
M  V30 1790 N 183.284 -1.43765 0.645699 0
M  V30 1791 C 184.53 -2.02197 0.156271 0
M  V30 1792 C 184.863 -1.50776 -1.22393 0
M  V30 1793 O 184.138 -0.697771 -1.81553 0
M  V30 1794 C 184.421 -3.59749 0.158872 0
M  V30 1795 C 184.274 -4.21419 1.57245 0
M  V30 1796 C 185.593 -4.37149 -0.50879 0
M  V30 1797 H 182.712 -0.734694 0.0582602 0
M  V30 1798 H 185.354 -1.71157 0.824951 0
M  V30 1799 H 183.504 -3.86325 -0.410525 0
M  V30 1800 H 185.176 -4.059 2.19186 0
M  V30 1801 H 183.419 -3.78356 2.122 0
M  V30 1802 H 184.09 -5.30482 1.52619 0
M  V30 1803 H 186.566 -4.16093 -0.024412 0
M  V30 1804 H 185.442 -5.4683 -0.476213 0
M  V30 1805 H 185.703 -4.12839 -1.58165 0
M  V30 1806 N 184.763 -0.387143 -1.52771 0
M  V30 1807 C 185.711 0.463953 -2.27926 0
M  V30 1808 C 186.705 1.06493 -1.31741 0
M  V30 1809 O 187.911 1.00565 -1.49287 0
M  V30 1810 H 184.286 0.16837 -0.732909 0
M  V30 1811 H 186.257 -0.19141 -2.97785 0
M  V30 1812 C 185.006 1.5803 -3.09713 0
M  V30 1813 H 184.329 1.12718 -3.83581 0
M  V30 1814 H 185.769 2.15008 -3.65442 0
M  V30 1815 C 184.228 2.53509 -2.2189 0
M  V30 1816 O 184.758 3.56863 -1.84422 0
M  V30 1817 N 182.964 2.23199 -1.86093 0
M  V30 1818 H 182.511 1.39185 -2.16761 0
M  V30 1819 H 182.469 2.87333 -1.27621 0
M  V30 1820 N 186.241 1.57166 -0.116904 0
M  V30 1821 C 187.171 2.18222 0.830759 0
M  V30 1822 C 188.152 1.12167 1.27877 0
M  V30 1823 O 189.337 1.40394 1.34176 0
M  V30 1824 C 186.467 2.77996 2.08172 0
M  V30 1825 C 185.421 3.89614 1.77157 0
M  V30 1826 C 184.747 4.36187 3.09265 0
M  V30 1827 C 186.047 5.1181 1.04151 0
M  V30 1828 H 187.741 2.97664 0.321992 0
M  V30 1829 H 185.287 1.4318 0.153434 0
M  V30 1830 H 187.24 3.19366 2.74924 0
M  V30 1831 H 185.964 1.9584 2.6137 0
M  V30 1832 H 184.623 3.48816 1.12796 0
M  V30 1833 H 184.271 3.50893 3.60393 0
M  V30 1834 H 183.971 5.11455 2.89288 0
M  V30 1835 H 185.495 4.80207 3.77139 0
M  V30 1836 H 186.909 5.50214 1.61052 0
M  V30 1837 H 185.306 5.92648 0.942762 0
M  V30 1838 H 186.376 4.84892 0.0279022 0
M  V30 1839 N 187.719 -0.156864 1.56817 0
M  V30 1840 C 188.965 -0.872416 1.83076 0
M  V30 1841 C 189.298 -1.81261 0.697001 0
M  V30 1842 O 188.573 -1.92171 -0.30008 0
M  V30 1843 C 188.856 -1.65551 3.19789 0
M  V30 1844 C 188.709 -0.737467 4.43713 0
M  V30 1845 C 190.028 -2.62012 3.53606 0
M  V30 1846 H 187.147 -0.315715 0.665953 0
M  V30 1847 H 189.789 -0.138004 1.89498 0
M  V30 1848 H 187.939 -2.28159 3.14445 0
M  V30 1849 H 189.611 -0.123143 4.61136 0
M  V30 1850 H 187.854 -0.0464067 4.33775 0
M  V30 1851 H 188.525 -1.32122 5.35955 0
M  V30 1852 H 191.001 -2.09525 3.59497 0
M  V30 1853 H 189.877 -3.13861 4.50314 0
M  V30 1854 H 190.138 -3.42902 2.79053 0
M  V30 1855 N 189.197 -1.51736 -0.425897 0
M  V30 1856 C 190.445 -1.64644 -1.17204 0
M  V30 1857 C 190.766 -0.370486 -1.91448 0
M  V30 1858 O 190.036 0.614088 -1.86026 0
M  V30 1859 H 188.616 -0.606819 -0.435638 0
M  V30 1860 H 191.278 -1.88713 -0.487177 0
M  V30 1861 H 190.374 -2.47958 -1.89534 0
M  V30 1862 N 190.675 0.682077 -1.42076 0
M  V30 1863 C 191.625 1.78823 -1.41444 0
M  V30 1864 C 192.609 1.58323 -0.28681 0
M  V30 1865 O 193.801 1.68926 -0.528498 0
M  V30 1866 C 190.93 3.17232 -1.3122 0
M  V30 1867 C 190.016 3.4338 -2.489 0
M  V30 1868 N 190.407 3.40152 -3.7434 0
M  V30 1869 C 188.705 3.73986 -2.43003 0
M  V30 1870 C 189.406 3.65581 -4.52466 0
M  V30 1871 N 188.382 3.85989 -3.8277 0
M  V30 1872 H 192.184 1.7471 -2.36334 0
M  V30 1873 H 189.698 0.882622 -1.36321 0
M  V30 1874 H 191.695 3.96489 -1.2885 0
M  V30 1875 H 190.355 3.22547 -0.373263 0
M  V30 1876 H 191.366 3.20221 -4.07037 0
M  V30 1877 H 188.043 3.86591 -1.57651 0
M  V30 1878 H 189.433 3.69108 -5.61435 0
M  V30 1879 N 192.153 1.28127 0.917671 0
M  V30 1880 C 193.378 1.18007 1.70555 0
M  V30 1881 C 193.803 -0.258257 1.86319 0
M  V30 1882 O 193.161 -1.1869 1.37049 0
M  V30 1883 C 193.209 1.87948 3.07746 0
M  V30 1884 O 192.313 1.18427 3.9503 0
M  V30 1885 H 191.654 0.409867 0.522403 0
M  V30 1886 H 194.184 1.69379 1.1477 0
M  V30 1887 H 194.194 1.95701 3.58001 0
M  V30 1888 H 192.869 2.92573 2.95591 0
M  V30 1889 H 191.446 1.18811 3.53466 0
M  V30 1890 N 193.631 -1.12557 1.10312 0
M  V30 1891 C 194.563 -2.17971 0.708625 0
M  V30 1892 C 195.576 -1.60806 -0.254027 0
M  V30 1893 O 196.765 -1.78458 -0.0386891 0
M  V30 1894 C 193.865 -3.38891 0.0248198 0
M  V30 1895 C 193.038 -4.25548 1.01132 0
M  V30 1896 C 192.097 -5.24972 0.35924 0
M  V30 1897 O 191.123 -5.60174 1.00965 0
M  V30 1898 N 192.325 -5.73747 -0.882847 0
M  V30 1899 H 195.09 -2.52427 1.61557 0
M  V30 1900 H 192.651 -1.27967 0.991771 0
M  V30 1901 H 194.643 -4.02485 -0.422852 0
M  V30 1902 H 193.213 -3.02596 -0.784514 0
M  V30 1903 H 192.433 -3.58589 1.6373 0
M  V30 1904 H 193.721 -4.80294 1.67914 0
M  V30 1905 H 193.119 -5.4731 -1.43065 0
M  V30 1906 H 191.676 -6.39234 -1.27369 0
M  V30 1907 N 195.109 -0.891671 -1.2995 0
M  V30 1908 C 196.357 -0.512486 -1.95494 0
M  V30 1909 C 196.678 0.942776 -1.70695 0
M  V30 1910 O 195.948 1.66374 -1.03424 0
M  V30 1911 H 194.528 -0.186533 -0.723336 0
M  V30 1912 H 197.19 -1.13621 -1.58355 0
M  V30 1913 H 196.286 -0.688342 -3.04415 0
M  V30 1914 N 196.587 1.43421 -0.653314 0
M  V30 1915 C 197.835 2.01414 -0.166415 0
M  V30 1916 C 198.156 1.51803 1.22397 0
M  V30 1917 O 197.426 0.730693 1.81763 0
M  V30 1918 H 196.006 0.744703 -0.0585319 0
M  V30 1919 H 198.668 1.75629 -0.845003 0
M  V30 1920 H 197.764 3.11734 -0.151111 0
M  V30 1921 N 198.065 0.39524 1.52563 0
M  V30 1922 C 198.995 -0.428384 2.29537 0
M  V30 1923 C 199.976 -1.05831 1.33169 0
M  V30 1924 O 201.161 -1.06995 1.62067 0
M  V30 1925 C 198.291 -1.55274 3.10656 0
M  V30 1926 C 197.245 -1.04855 4.14957 0
M  V30 1927 C 196.571 -2.26543 4.84337 0
M  V30 1928 C 197.871 -0.112324 5.22179 0
M  V30 1929 H 199.565 0.213867 2.98635 0
M  V30 1930 H 197.111 0.104298 1.43622 0
M  V30 1931 H 199.064 -2.1358 3.63265 0
M  V30 1932 H 197.788 -2.22266 2.39302 0
M  V30 1933 H 196.447 -0.487985 3.63338 0
M  V30 1934 H 196.095 -2.92059 4.09525 0
M  V30 1935 H 195.795 -1.93466 5.54837 0
M  V30 1936 H 197.319 -2.85481 5.39753 0
M  V30 1937 H 198.733 -0.603752 5.70112 0
M  V30 1938 H 197.13 0.128968 5.99961 0
M  V30 1939 H 198.2 0.837052 4.77621 0
M  V30 1940 N 199.544 -1.57102 0.125237 0
M  V30 1941 C 200.769 -2.0019 -0.542101 0
M  V30 1942 C 201.194 -1.00449 -1.59034 0
M  V30 1943 O 200.552 0.0229423 -1.81285 0
M  V30 1944 C 200.6 -3.42129 -1.13929 0
M  V30 1945 O 199.704 -3.45307 -2.2547 0
M  V30 1946 H 199.045 -0.650171 -0.134812 0
M  V30 1947 H 201.575 -2.03461 0.215553 0
M  V30 1948 H 201.585 -3.80471 -1.4733 0
M  V30 1949 H 200.26 -4.14237 -0.371531 0
M  V30 1950 H 198.837 -3.1879 -1.93462 0
M  V30 1951 N 201.022 0.148545 -1.56898 0
M  V30 1952 C 202.247 0.880385 -1.87787 0
M  V30 1953 C 202.672 1.74018 -0.714093 0
M  V30 1954 O 202.03 1.78153 0.336343 0
M  V30 1955 C 202.078 1.71422 -3.17249 0
M  V30 1956 O 201.182 2.8183 -3.01074 0
M  V30 1957 H 200.523 0.245301 -0.617028 0
M  V30 1958 H 203.053 0.139826 -2.04122 0
M  V30 1959 H 203.063 2.10954 -3.49231 0
M  V30 1960 H 201.738 1.08284 -4.01556 0
M  V30 1961 H 200.315 2.45715 -2.80497 0
M  V30 1962 N 202.5 1.5196 0.417844 0
M  V30 1963 C 203.916 1.40569 0.755816 0
M  V30 1964 C 204.116 0.503316 1.95113 0
M  V30 1965 O 203.172 -0.0341925 2.52477 0
M  V30 1966 C 204.485 2.82947 1.01791 0
M  V30 1967 C 206.033 2.92231 1.12116 0
M  V30 1968 C 206.508 4.35559 1.41608 0
M  V30 1969 N 207.999 4.38753 1.48491 0
M  V30 1970 C 208.734 5.46705 1.7292 0
M  V30 1971 N 208.23 6.64788 1.95011 0
M  V30 1972 N 210.023 5.34209 1.74863 0
M  V30 1973 H 202.174 2.09168 -0.369098 0
M  V30 1974 H 204.437 0.942409 -0.102809 0
M  V30 1975 H 204.143 3.5106 0.212081 0
M  V30 1976 H 204.017 3.23462 1.94042 0
M  V30 1977 H 206.404 2.24304 1.9176 0
M  V30 1978 H 206.485 2.55185 0.177225 0
M  V30 1979 H 206.129 5.04042 0.624848 0
M  V30 1980 H 206.059 4.70133 2.37239 0
M  V30 1981 H 208.55 3.5363 1.33244 0
M  V30 1982 H 208.863 7.42845 2.13076 0
M  V30 1983 H 207.208 6.67869 1.92293 0
M  V30 1984 H 210.399 4.40937 1.57137 0
M  V30 1985 H 210.572 6.18415 1.93563 0
M  V30 1986 N 203.978 -0.674533 1.42435 0
M  V30 1987 C 205.208 -1.46071 1.46105 0
M  V30 1988 C 205.616 -1.89067 0.0709605 0
M  V30 1989 O 204.959 -1.58731 -0.924677 0
M  V30 1990 C 205.021 -2.74145 2.32561 0
M  V30 1991 C 204.685 -2.53224 3.8043 0
M  V30 1992 C 205.682 -2.17809 4.72075 0
M  V30 1993 C 203.367 -2.6821 4.24698 0
M  V30 1994 C 205.361 -1.97648 6.05982 0
M  V30 1995 C 203.048 -2.47665 5.58664 0
M  V30 1996 C 204.046 -2.12437 6.49122 0
M  V30 1997 O 203.734 -1.9209 7.80613 0
M  V30 1998 H 203.466 -0.455959 0.499076 0
M  V30 1999 H 206.02 -0.836193 1.87609 0
M  V30 2000 H 204.25 -3.3908 1.85908 0
M  V30 2001 H 205.939 -3.36028 2.27683 0
M  V30 2002 H 206.705 -2.05826 4.39159 0
M  V30 2003 H 202.584 -2.94609 3.54579 0
M  V30 2004 H 206.128 -1.70075 6.7655 0
M  V30 2005 H 202.025 -2.59244 5.91154 0
M  V30 2006 H 202.793 -2.06686 7.91974 0
M  V30 2007 N 205.456 -1.28612 -0.910864 0
M  V30 2008 C 206.702 -1.16106 -1.66274 0
M  V30 2009 C 207.035 0.289113 -1.92036 0
M  V30 2010 O 206.31 1.21 -1.52281 0
M  V30 2011 C 206.593 -1.96309 -3.01885 0
M  V30 2012 C 206.446 -3.49405 -2.8326 0
M  V30 2013 C 207.765 -1.78076 -4.02463 0
M  V30 2014 H 204.884 -0.423152 -0.603417 0
M  V30 2015 H 207.526 -1.57961 -1.05586 0
M  V30 2016 H 205.676 -1.60742 -3.53687 0
M  V30 2017 H 207.348 -3.94894 -2.38446 0
M  V30 2018 H 205.591 -3.74893 -2.18261 0
M  V30 2019 H 206.262 -4.00784 -3.79574 0
M  V30 2020 H 208.738 -2.0912 -3.59733 0
M  V30 2021 H 207.614 -2.36561 -4.95308 0
M  V30 2022 H 207.875 -0.733008 -4.35981 0
M  V30 2023 N 206.934 1.1197 -1.10907 0
M  V30 2024 C 207.897 2.16031 -0.765707 0
M  V30 2025 C 208.897 1.59393 0.212235 0
M  V30 2026 O 210.087 1.74196 -0.0115441 0
M  V30 2027 C 207.219 3.40632 -0.135053 0
M  V30 2028 H 208.412 2.47919 -1.68748 0
M  V30 2029 H 205.965 1.27061 -0.910226 0
M  V30 2030 H 206.7 3.14348 0.797218 0
M  V30 2031 H 206.485 3.8302 -0.838937 0
M  V30 2032 H 207.975 4.17505 0.0892469 0
M  V30 2033 N 208.412 0.89855 1.29475 0
M  V30 2034 C 209.375 0.380272 2.26023 0
M  V30 2035 C 210.375 -0.484891 1.53315 0
M  V30 2036 O 211.565 -0.290108 1.71767 0
M  V30 2037 C 208.697 -0.45651 3.3783 0
M  V30 2038 H 209.89 1.23295 2.73383 0
M  V30 2039 H 207.443 0.676589 1.40897 0
M  V30 2040 H 208.178 -1.32922 2.95808 0
M  V30 2041 H 207.963 0.163393 3.91759 0
M  V30 2042 H 209.453 -0.810466 4.0966 0
M  V30 2043 N 209.89 -1.43072 0.660911 0
M  V30 2044 C 211.136 -2.0202 0.177708 0
M  V30 2045 C 211.469 -1.52066 -1.20787 0
M  V30 2046 O 210.744 -0.716987 -1.80802 0
M  V30 2047 C 211.027 -3.59561 0.197019 0
M  V30 2048 C 210.88 -4.19727 1.61706 0
M  V30 2049 C 212.199 -4.37664 -0.462396 0
M  V30 2050 H 209.318 -0.734034 0.0660494 0
M  V30 2051 H 211.96 -1.70272 0.843058 0
M  V30 2052 H 210.11 -3.86739 -0.369527 0
M  V30 2053 H 211.782 -4.03553 2.23479 0
M  V30 2054 H 210.025 -3.76084 2.16201 0
M  V30 2055 H 210.696 -5.28834 1.58237 0
M  V30 2056 H 213.172 -4.16095 0.0197215 0
M  V30 2057 H 212.048 -5.47305 -0.418188 0
M  V30 2058 H 212.309 -4.14493 -1.53778 0
M  V30 2059 N 211.368 -0.403325 -1.52352 0
M  V30 2060 C 212.331 0.413051 -2.25447 0
M  V30 2061 C 213.331 0.978513 -1.276 0
M  V30 2062 O 214.521 0.858305 -1.51587 0
M  V30 2063 C 211.653 1.58087 -3.02029 0
M  V30 2064 H 212.846 -0.227094 -2.99039 0
M  V30 2065 H 210.399 -0.155722 -1.55522 0
M  V30 2066 H 211.134 2.25804 -2.32772 0
M  V30 2067 H 210.919 1.18195 -3.73861 0
M  V30 2068 H 212.409 2.1585 -3.57489 0
M  V30 2069 N 212.846 1.57033 -0.133567 0
M  V30 2070 C 214.257 1.82593 0.389464 0
M  V30 2071 C 214.608 1.05156 1.6564 0
M  V30 2072 O 213.733 0.292644 2.14412 0
M  V30 2073 C 214.328 3.31204 0.713377 0
M  V30 2074 C 212.887 3.57393 1.18098 0
M  V30 2075 C 212.034 2.76598 0.197126 0
M  V30 2076 H 214.985 1.54598 -0.358481 0
M  V30 2077 H 215.006 3.46627 1.56939 0
M  V30 2078 H 214.518 3.87537 -0.2089 0
M  V30 2079 H 212.619 3.06433 2.11966 0
M  V30 2080 H 212.732 4.65915 1.11624 0
M  V30 2081 H 211.096 2.45257 0.687088 0
M  V30 2082 H 211.879 3.35697 -0.718504 0
M  V30 2083 N 214.325 -0.140222 1.56975 0
M  V30 2084 C 215.602 -0.880769 1.74648 0
M  V30 2085 C 215.982 -1.99036 0.703404 0
M  V30 2086 O 215.33 -2.26821 -0.27648 0
M  V30 2087 C 215.54 -1.417 3.18939 0
M  V30 2088 C 216.888 -1.87774 3.80823 0
M  V30 2089 O 217.912 -1.51427 3.2241 0
M  V30 2090 O 216.771 -2.54827 4.83452 0
M  V30 2091 H 213.865 -0.416713 0.714338 0
M  V30 2092 H 216.411 -0.125618 1.69234 0
M  V30 2093 H 215.183 -0.619902 3.86359 0
M  V30 2094 H 214.806 -2.23546 3.28805 0
M  V30 2095 N 215.803 -1.52179 -0.40978 0
M  V30 2096 C 216.733 -1.78435 -1.5061 0
M  V30 2097 C 217.714 -0.635295 -1.57791 0
M  V30 2098 O 218.899 -0.880823 -1.73076 0
M  V30 2099 C 216.029 -1.93444 -2.88439 0
M  V30 2100 C 214.983 -3.09038 -2.96108 0
M  V30 2101 C 214.309 -3.09268 -4.36185 0
M  V30 2102 C 215.609 -4.48508 -2.67652 0
M  V30 2103 H 217.303 -2.70237 -1.28889 0
M  V30 2104 H 214.849 -1.30036 -0.618605 0
M  V30 2105 H 216.802 -2.10394 -3.65119 0
M  V30 2106 H 215.526 -0.983129 -3.11452 0
M  V30 2107 H 214.185 -2.91837 -2.21872 0
M  V30 2108 H 213.833 -2.11861 -4.56206 0
M  V30 2109 H 213.533 -3.86907 -4.42241 0
M  V30 2110 H 215.057 -3.28348 -5.14801 0
M  V30 2111 H 216.471 -4.65918 -3.34056 0
M  V30 2112 H 214.868 -5.28059 -2.85085 0
M  V30 2113 H 215.938 -4.56649 -1.63095 0
M  V30 2114 N 217.281 0.66697 -1.42791 0
M  V30 2115 C 218.527 1.4291 -1.43891 0
M  V30 2116 C 218.86 1.94114 -0.0578972 0
M  V30 2117 O 218.135 1.71414 0.91911 0
M  V30 2118 C 218.418 2.62049 -2.46987 0
M  V30 2119 C 218.271 2.16426 -3.94309 0
M  V30 2120 C 219.59 3.64266 -2.46978 0
M  V30 2121 H 216.709 0.518306 -0.523954 0
M  V30 2122 H 219.351 0.757321 -1.74255 0
M  V30 2123 H 217.501 3.19361 -2.21225 0
M  V30 2124 H 219.173 1.64221 -4.31079 0
M  V30 2125 H 217.416 1.47925 -4.078 0
M  V30 2126 H 218.087 3.02038 -4.62036 0
M  V30 2127 H 220.563 3.16686 -2.69906 0
M  V30 2128 H 219.439 4.45196 -3.21079 0
M  V30 2129 H 219.7 4.15927 -1.49857 0
M  V30 2130 N 218.759 1.29093 0.90403 0
M  V30 2131 C 219.722 1.1386 1.98919 0
M  V30 2132 C 220.722 0.0753457 1.60623 0
M  V30 2133 O 221.912 0.321931 1.71199 0
M  V30 2134 C 219.044 0.740198 3.32767 0
M  V30 2135 H 220.237 2.10246 2.13861 0
M  V30 2136 H 217.79 1.12218 1.08797 0
M  V30 2137 H 218.525 -0.223997 3.23525 0
M  V30 2138 H 218.31 1.50838 3.61926 0
M  V30 2139 H 219.8 0.656546 4.12407 0
M  V30 2140 N 220.237 -1.11381 1.11499 0
M  V30 2141 C 221.462 -1.87475 0.887019 0
M  V30 2142 C 221.887 -1.79639 -0.557796 0
M  V30 2143 O 221.245 -1.15924 -1.39396 0
M  V30 2144 C 221.293 -3.34213 1.35403 0
M  V30 2145 O 220.397 -4.0903 0.526146 0
M  V30 2146 H 219.738 -0.582099 0.319463 0
M  V30 2147 H 222.268 -1.40785 1.48461 0
M  V30 2148 H 222.278 -3.8506 1.34881 0
M  V30 2149 H 220.953 -3.39232 2.40612 0
M  V30 2150 H 219.53 -3.68082 0.597522 0
M  V30 2151 N 221.715 -0.905404 -1.28997 0
M  V30 2152 C 222.961 -0.535039 -1.95615 0
M  V30 2153 C 223.294 0.917404 -1.71165 0
M  V30 2154 O 222.569 1.65123 -1.02785 0
M  V30 2155 C 222.852 -0.834918 -3.50287 0
M  V30 2156 C 222.705 -2.33948 -3.84172 0
M  V30 2157 C 224.024 -0.325318 -4.38896 0
M  V30 2158 H 221.143 -0.195861 -0.710498 0
M  V30 2159 H 223.785 -1.13313 -1.52513 0
M  V30 2160 H 221.935 -0.325904 -3.87131 0
M  V30 2161 H 223.607 -2.91847 -3.57243 0
M  V30 2162 H 221.85 -2.79789 -3.31513 0
M  V30 2163 H 222.521 -2.49987 -4.92149 0
M  V30 2164 H 224.997 -0.761256 -4.09077 0
M  V30 2165 H 223.873 -0.564295 -5.45992 0
M  V30 2166 H 224.134 0.774144 -4.35269 0
M  V30 2167 N 223.193 1.4272 -0.668489 0
M  V30 2168 C 224.421 2.05966 -0.196348 0
M  V30 2169 C 224.836 1.50191 1.14403 0
M  V30 2170 O 224.193 0.639208 1.7094 0
M  V30 2171 C 224.244 3.61314 -0.115815 0
M  V30 2172 O 223.965 4.1502 -1.40322 0
M  V30 2173 C 225.466 4.41663 0.380579 0
M  V30 2174 H 222.686 0.663954 -0.0969829 0
M  V30 2175 H 225.23 1.82966 -0.913446 0
M  V30 2176 H 223.385 3.83448 0.551931 0
M  V30 2177 H 223.799 5.08832 -1.27243 0
M  V30 2178 H 225.273 5.5065 0.385848 0
M  V30 2179 H 225.75 4.15792 1.41471 0
M  V30 2180 H 226.356 4.24534 -0.255209 0
M  V30 2181 N 224.671 0.411399 1.52136 0
M  V30 2182 C 225.899 -0.163076 2.06256 0
M  V30 2183 C 226.314 -1.3867 1.28125 0
M  V30 2184 O 225.671 -1.79423 0.333721 0
M  V30 2185 C 225.722 -0.511252 3.57867 0
M  V30 2186 O 225.443 0.66378 4.33042 0
M  V30 2187 C 226.944 -1.13921 4.28412 0
M  V30 2188 H 224.164 -0.0193897 0.67072 0
M  V30 2189 H 226.708 0.583007 1.96013 0
M  V30 2190 H 224.863 -1.20723 3.6811 0
M  V30 2191 H 225.277 0.372601 5.23175 0
M  V30 2192 H 226.751 -1.33302 5.35663 0
M  V30 2193 H 227.228 -2.11296 3.85033 0
M  V30 2194 H 227.834 -0.483373 4.22544 0
M  V30 2195 N 226.149 -1.5696 0.141893 0
M  V30 2196 C 227.398 -1.95135 -0.510427 0
M  V30 2197 C 227.711 -1.02896 -1.66348 0
M  V30 2198 O 228.917 -1.30629 -2.38009 0
M  V30 2199 C 227.373 -3.46876 -0.959427 0
M  V30 2200 C 226.981 -4.47691 0.166419 0
M  V30 2201 C 228.725 -3.93927 -1.58183 0
M  V30 2202 C 226.632 -5.90636 -0.300565 0
M  V30 2203 H 225.562 -0.728494 -0.194454 0
M  V30 2204 H 228.213 -1.8211 0.22542 0
M  V30 2205 H 226.595 -3.55215 -1.75038 0
M  V30 2206 H 227.769 -4.51043 0.94325 0
M  V30 2207 H 226.084 -4.10527 0.696905 0
M  V30 2208 H 228.681 -4.98158 -1.94275 0
M  V30 2209 H 229.024 -3.3519 -2.46888 0
M  V30 2210 H 229.557 -3.88484 -0.855863 0
M  V30 2211 H 226.296 -6.5318 0.550989 0
M  V30 2212 H 225.816 -5.90655 -1.04338 0
M  V30 2213 H 227.495 -6.42588 -0.754265 0
M  V30 2214 N 227.627 0.131896 -1.57047 0
M  V30 2215 C 228.875 0.840269 -1.83804 0
M  V30 2216 C 229.196 1.81017 -0.72512 0
M  V30 2217 O 228.466 1.94272 0.251995 0
M  V30 2218 H 227.046 0.313294 -0.678127 0
M  V30 2219 H 229.708 0.122294 -1.94516 0
M  V30 2220 H 228.804 1.39335 -2.79271 0
M  V30 2221 N 229.106 1.52395 0.401703 0
M  V30 2222 C 230.334 1.70676 1.16949 0
M  V30 2223 C 230.749 0.419503 1.8408 0
M  V30 2224 O 230.106 -0.605061 1.72178 0
M  V30 2225 C 230.157 2.84753 2.22706 0
M  V30 2226 O 229.878 4.08495 1.58314 0
M  V30 2227 C 231.379 3.14608 3.12309 0
M  V30 2228 H 228.599 0.571787 0.351142 0
M  V30 2229 H 231.143 1.98987 0.471652 0
M  V30 2230 H 229.298 2.58941 2.88147 0
M  V30 2231 H 229.712 4.72117 2.28485 0
M  V30 2232 H 231.186 3.97923 3.82572 0
M  V30 2233 H 231.663 2.28464 3.75101 0
M  V30 2234 H 232.269 3.42212 2.52529 0
M  V30 2235 N 230.584 -0.659388 1.43143 0
M  V30 2236 C 231.995 -1.24041 1.39537 0
M  V30 2237 C 232.346 -1.95963 0.0963364 0
M  V30 2238 O 231.471 -2.00892 -0.804438 0
M  V30 2239 C 232.066 -2.25601 2.52764 0
M  V30 2240 C 230.625 -2.79195 2.52443 0
M  V30 2241 C 229.772 -1.53743 2.30778 0
M  V30 2242 H 232.723 -0.451792 1.52133 0
M  V30 2243 H 232.744 -3.07651 2.23899 0
M  V30 2244 H 232.256 -1.73226 3.47296 0
M  V30 2245 H 230.357 -3.35649 1.61773 0
M  V30 2246 H 230.47 -3.2716 3.50004 0
M  V30 2247 H 228.834 -1.80869 1.79328 0
M  V30 2248 H 229.617 -1.03312 3.27386 0
M  V30 2249 N 232.062 -1.29571 -0.897171 0
M  V30 2250 C 233.012 -1.11539 -1.98855 0
M  V30 2251 C 233.996 -0.0340716 -1.60864 0
M  V30 2252 O 235.188 -0.256062 -1.75138 0
M  V30 2253 C 232.317 -0.796603 -3.3393 0
M  V30 2254 C 231.403 -1.91758 -3.78272 0
M  V30 2255 N 231.794 -3.16143 -3.94826 0
M  V30 2256 C 230.092 -1.81119 -4.07568 0
M  V30 2257 C 230.793 -3.89293 -4.32233 0
M  V30 2258 N 229.769 -3.17255 -4.41419 0
M  V30 2259 H 233.571 -2.05894 -2.09726 0
M  V30 2260 H 231.085 -1.20732 -1.08616 0
M  V30 2261 H 233.082 -0.648459 -4.11826 0
M  V30 2262 H 231.742 0.139003 -3.24402 0
M  V30 2263 H 232.753 -3.5157 -3.80288 0
M  V30 2264 H 229.43 -0.948461 -4.06584 0
M  V30 2265 H 230.82 -4.9635 -4.52865 0
M  V30 2266 N 233.54 1.10788 -1.12088 0
M  V30 2267 C 234.956 1.34691 -0.856186 0
M  V30 2268 C 235.156 1.94791 0.515615 0
M  V30 2269 O 234.212 2.18524 1.26505 0
M  V30 2270 C 235.525 2.27208 -1.9697 0
M  V30 2271 C 237.073 2.40755 -2.00016 0
M  V30 2272 C 237.548 3.36598 -3.1059 0
M  V30 2273 N 239.039 3.44164 -3.10008 0
M  V30 2274 C 239.774 4.18284 -3.92206 0
M  V30 2275 N 239.27 4.95322 -4.84384 0
M  V30 2276 N 241.063 4.13865 -3.80357 0
M  V30 2277 H 233.214 0.70144 -2.00483 0
M  V30 2278 H 235.477 0.371405 -0.872217 0
M  V30 2279 H 235.183 1.90251 -2.958 0
M  V30 2280 H 235.057 3.27485 -1.87172 0
M  V30 2281 H 237.444 2.76982 -1.01808 0
M  V30 2282 H 237.525 1.40305 -2.13888 0
M  V30 2283 H 237.169 3.01096 -4.09028 0
M  V30 2284 H 237.099 4.36918 -2.93956 0
M  V30 2285 H 239.59 2.8922 -2.43228 0
M  V30 2286 H 239.903 5.49267 -5.43623 0
M  V30 2287 H 238.248 4.94459 -4.884 0
M  V30 2288 H 241.439 3.52773 -3.07683 0
M  V30 2289 H 241.612 4.71372 -4.44649 0
M  V30 2290 N 235.018 0.912232 1.28515 0
M  V30 2291 C 236.266 0.543523 1.94654 0
M  V30 2292 C 236.587 -0.9155 1.72173 0
M  V30 2293 O 235.857 -1.64708 1.06058 0
M  V30 2294 H 234.437 0.198017 0.720277 0
M  V30 2295 H 237.099 1.16126 1.56527 0
M  V30 2296 H 236.195 0.736684 3.03281 0
M  V30 2297 N 236.496 -1.42363 0.676048 0
M  V30 2298 C 237.721 -2.06377 0.205705 0
M  V30 2299 C 238.146 -1.50463 -1.12883 0
M  V30 2300 O 237.504 -0.623619 -1.70237 0
M  V30 2301 C 237.552 -3.60277 0.152655 0
M  V30 2302 O 236.656 -4.02935 -0.87845 0
M  V30 2303 H 235.997 -0.655588 0.105359 0
M  V30 2304 H 238.527 -1.82475 0.925412 0
M  V30 2305 H 238.537 -4.07993 -0.0230675 0
M  V30 2306 H 237.212 -4.00346 1.12675 0
M  V30 2307 H 235.789 -3.66764 -0.673668 0
M  V30 2308 N 237.974 -0.419461 -1.51915 0
M  V30 2309 C 238.884 0.407528 -2.31033 0
M  V30 2310 C 239.9 1.04413 -1.3919 0
M  V30 2311 O 241.076 1.0434 -1.72265 0
M  V30 2312 C 238.141 1.50365 -3.12396 0
M  V30 2313 C 237.202 0.889029 -4.19994 0
M  V30 2314 C 236.435 1.93291 -4.97468 0
M  V30 2315 O 236.658 3.15259 -4.75361 0
M  V30 2316 O 235.592 1.53339 -5.8204 0
M  V30 2317 H 239.418 -0.237865 -3.02767 0
M  V30 2318 H 237.003 -0.182413 -1.48282 0
M  V30 2319 H 238.885 2.13975 -3.63032 0
M  V30 2320 H 237.56 2.13345 -2.43445 0
M  V30 2321 H 236.467 0.215353 -3.7348 0
M  V30 2322 H 237.8 0.302991 -4.91267 0
M  V30 2323 N 239.452 1.56882 -0.150215 0
M  V30 2324 C 240.699 1.96228 0.500093 0
M  V30 2325 C 241.027 1.03522 1.64661 0
M  V30 2326 O 240.282 0.0650683 1.95592 0
M  V30 2327 C 240.581 3.41801 1.04437 0
M  V30 2328 C 240.247 4.50897 0.0159671 0
M  V30 2329 C 238.909 4.8046 -0.266731 0
M  V30 2330 C 241.261 5.16703 -0.683192 0
M  V30 2331 C 238.589 5.73135 -1.25434 0
M  V30 2332 C 240.941 6.10441 -1.65964 0
M  V30 2333 C 239.605 6.38382 -1.95 0
M  V30 2334 H 238.875 0.718048 0.182997 0
M  V30 2335 H 241.522 1.90019 -0.237724 0
M  V30 2336 H 239.827 3.44857 1.85959 0
M  V30 2337 H 241.524 3.69573 1.55618 0
M  V30 2338 H 238.114 4.27891 0.246485 0
M  V30 2339 H 242.298 4.93993 -0.477983 0
M  V30 2340 H 237.554 5.93074 -1.48571 0
M  V30 2341 H 241.728 6.60507 -2.20689 0
M  V30 2342 H 239.355 7.09996 -2.71679 0
M  V30 2343 N 240.93 -0.123565 1.57115 0
M  V30 2344 C 241.893 -1.13583 1.99076 0
M  V30 2345 C 242.893 -1.34564 0.880296 0
M  V30 2346 O 244.083 -1.31158 1.14644 0
M  V30 2347 C 241.215 -2.49128 2.32698 0
M  V30 2348 H 242.408 -0.775287 2.89706 0
M  V30 2349 H 239.961 -0.36771 1.51913 0
M  V30 2350 H 240.696 -2.90111 1.44934 0
M  V30 2351 H 240.481 -2.35255 3.13684 0
M  V30 2352 H 241.971 -3.2199 2.65918 0
M  V30 2353 N 242.408 -1.52605 -0.393616 0
M  V30 2354 C 243.685 -1.58001 -1.15304 0
M  V30 2355 C 244.065 -0.370385 -2.07825 0
M  V30 2356 O 243.413 0.641638 -2.19306 0
M  V30 2357 C 243.623 -2.91652 -1.91677 0
M  V30 2358 C 244.971 -3.4522 -2.47201 0
M  V30 2359 O 245.995 -2.93495 -2.01839 0
M  V30 2360 O 244.854 -4.35579 -3.3005 0
M  V30 2361 H 241.948 -0.637068 -0.527327 0
M  V30 2362 H 244.494 -1.64939 -0.399141 0
M  V30 2363 H 243.266 -3.71136 -1.23992 0
M  V30 2364 H 242.889 -2.88077 -2.74039 0
M  V30 2365 N 243.887 0.651787 -1.4349 0
M  V30 2366 C 245.134 1.41167 -1.45183 0
M  V30 2367 C 245.462 1.94349 -0.0766601 0
M  V30 2368 O 244.717 1.72804 0.918555 0
M  V30 2369 C 245.016 2.60914 -2.44251 0
M  V30 2370 C 244.682 2.26142 -3.9009 0
M  V30 2371 C 243.344 2.16371 -4.2981 0
M  V30 2372 C 245.696 1.98334 -4.81989 0
M  V30 2373 C 243.024 1.7695 -5.5938 0
M  V30 2374 C 245.376 1.6041 -6.11924 0
M  V30 2375 C 244.04 1.49166 -6.5062 0
M  V30 2376 H 243.31 0.516566 -0.531263 0
M  V30 2377 H 245.957 0.741099 -1.76579 0
M  V30 2378 H 244.262 3.3311 -2.06265 0
M  V30 2379 H 245.959 3.19127 -2.42815 0
M  V30 2380 H 242.549 2.34658 -3.58655 0
M  V30 2381 H 246.733 2.04803 -4.52072 0
M  V30 2382 H 241.989 1.66831 -5.88198 0
M  V30 2383 H 246.163 1.37925 -6.82605 0
M  V30 2384 H 243.79 1.1839 -7.50925 0
M  V30 2385 N 245.365 1.30045 0.890287 0
M  V30 2386 C 246.611 1.18737 1.64406 0
M  V30 2387 C 246.944 -0.258525 1.92472 0
M  V30 2388 O 246.219 -1.18562 1.54186 0
M  V30 2389 C 246.502 2.01087 2.98724 0
M  V30 2390 C 246.355 3.53867 2.77665 0
M  V30 2391 C 247.674 1.84457 3.9958 0
M  V30 2392 H 244.793 0.432698 0.596608 0
M  V30 2393 H 247.435 1.5962 1.0306 0
M  V30 2394 H 245.585 1.66349 3.51084 0
M  V30 2395 H 247.257 3.98637 2.32133 0
M  V30 2396 H 245.5 3.78318 2.12269 0
M  V30 2397 H 246.171 4.06772 3.7315 0
M  V30 2398 H 248.647 2.14817 3.56361 0
M  V30 2399 H 247.523 2.44411 4.91482 0
M  V30 2400 H 247.784 0.802276 4.3476 0
M  V30 2401 N 246.843 -1.10192 1.12674 0
M  V30 2402 C 247.775 -2.16418 0.754701 0
M  V30 2403 C 248.788 -1.61309 -0.21986 0
M  V30 2404 O 249.977 -1.785 -0.000826841 0
M  V30 2405 C 247.077 -3.38762 0.096698 0
M  V30 2406 C 246.25 -4.23307 1.10136 0
M  V30 2407 C 245.309 -5.24092 0.470513 0
M  V30 2408 O 244.335 -5.57906 1.12824 0
M  V30 2409 N 245.537 -5.75491 -0.760948 0
M  V30 2410 H 248.302 -2.48943 1.66875 0
M  V30 2411 H 245.863 -1.25834 1.01869 0
M  V30 2412 H 247.855 -4.03291 -0.337384 0
M  V30 2413 H 246.425 -3.04192 -0.720153 0
M  V30 2414 H 245.645 -3.55036 1.71299 0
M  V30 2415 H 246.933 -4.76624 1.78064 0
M  V30 2416 H 246.331 -5.50222 -1.31424 0
M  V30 2417 H 244.888 -6.41792 -1.13781 0
M  V30 2418 N 248.321 -0.919034 -1.28029 0
M  V30 2419 C 249.598 -0.473668 -1.89778 0
M  V30 2420 C 249.978 1.04783 -1.83259 0
M  V30 2421 O 249.326 1.8982 -1.27202 0
M  V30 2422 C 249.536 -1.00998 -3.34066 0
M  V30 2423 C 250.884 -1.06525 -4.1102 0
M  V30 2424 O 251.908 -0.958996 -3.43048 0
M  V30 2425 O 250.767 -1.22776 -5.3253 0
M  V30 2426 H 247.861 -0.15098 -0.813101 0
M  V30 2427 H 250.407 -1.01016 -1.36359 0
M  V30 2428 H 249.179 -2.05392 -3.33061 0
M  V30 2429 H 248.802 -0.454626 -3.94992 0
M  V30 2430 N 249.799 1.42003 -0.683588 0
M  V30 2431 C 251.045 2.01712 -0.209825 0
M  V30 2432 C 251.378 1.53968 1.18353 0
M  V30 2433 O 250.653 0.745661 1.79639 0
M  V30 2434 C 250.936 3.59202 -0.254197 0
M  V30 2435 C 250.789 4.17102 -1.68363 0
M  V30 2436 C 252.108 4.38344 0.392709 0
M  V30 2437 H 249.227 0.732891 -0.0777189 0
M  V30 2438 H 251.869 1.68909 -0.87004 0
M  V30 2439 H 250.019 3.87278 0.307954 0
M  V30 2440 H 251.691 3.99946 -2.29871 0
M  V30 2441 H 249.934 3.72597 -2.22157 0
M  V30 2442 H 250.605 5.26249 -1.6663 0
M  V30 2443 H 253.081 4.16011 -0.0859162 0
M  V30 2444 H 251.957 5.47901 0.331063 0
M  V30 2445 H 252.218 4.16887 1.47164 0
M  V30 2446 N 251.277 0.427512 1.51691 0
M  V30 2447 C 252.207 -0.3796 2.30394 0
M  V30 2448 C 253.188 -1.02982 1.35384 0
M  V30 2449 O 254.373 -1.03534 1.643 0
M  V30 2450 C 251.503 -1.48649 3.1388 0
M  V30 2451 C 250.457 -0.960294 4.17088 0
M  V30 2452 C 249.783 -2.16219 4.89033 0
M  V30 2453 C 251.083 -0.00153679 5.223 0
M  V30 2454 H 252.777 0.277164 2.98114 0
M  V30 2455 H 250.323 0.134739 1.43368 0
M  V30 2456 H 252.276 -2.05826 3.67714 0
M  V30 2457 H 251 -2.1714 2.43962 0
M  V30 2458 H 249.659 -0.410806 3.64291 0
M  V30 2459 H 249.307 -2.83307 4.15628 0
M  V30 2460 H 249.007 -1.81654 5.58816 0
M  V30 2461 H 250.531 -2.73968 5.45687 0
M  V30 2462 H 251.945 -0.482687 5.71264 0
M  V30 2463 H 250.342 0.256199 5.99553 0
M  V30 2464 H 251.412 0.938174 4.75738 0
M  V30 2465 N 252.755 -1.56801 0.158532 0
M  V30 2466 C 253.718 -2.16138 -0.762705 0
M  V30 2467 C 254.718 -1.1061 -1.16713 0
M  V30 2468 O 255.908 -1.36191 -1.08617 0
M  V30 2469 C 253.04 -2.73386 -2.03649 0
M  V30 2470 H 254.233 -2.98886 -0.246354 0
M  V30 2471 H 251.786 -1.56035 -0.0909744 0
M  V30 2472 H 252.521 -1.94335 -2.59623 0
M  V30 2473 H 252.306 -3.50601 -1.75559 0
M  V30 2474 H 253.796 -3.19065 -2.6942 0
M  V30 2475 N 254.233 0.115231 -1.57178 0
M  V30 2476 C 255.463 0.835224 -1.88964 0
M  V30 2477 C 255.871 1.73774 -0.74829 0
M  V30 2478 O 255.214 1.81401 0.289739 0
M  V30 2479 C 255.276 1.7178 -3.15804 0
M  V30 2480 C 254.94 0.989198 -4.46166 0
M  V30 2481 C 255.937 0.328263 -5.18863 0
M  V30 2482 C 253.622 0.969256 -4.9286 0
M  V30 2483 C 255.616 -0.342873 -6.36477 0
M  V30 2484 C 253.303 0.294324 -6.10391 0
M  V30 2485 C 254.301 -0.360582 -6.82048 0
M  V30 2486 O 253.989 -1.02474 -7.97342 0
M  V30 2487 H 253.721 0.245197 -0.629964 0
M  V30 2488 H 256.275 0.10303 -2.05141 0
M  V30 2489 H 254.505 2.49173 -2.95719 0
M  V30 2490 H 256.194 2.31255 -3.33581 0
M  V30 2491 H 256.96 0.335263 -4.8384 0
M  V30 2492 H 252.839 1.46844 -4.36987 0
M  V30 2493 H 256.383 -0.854629 -6.92345 0
M  V30 2494 H 252.28 0.285099 -6.4487 0
M  V30 2495 H 253.048 -0.929594 -8.13204 0
M  V30 2496 N 255.711 1.52812 0.385517 0
M  V30 2497 C 256.988 1.5861 1.14465 0
M  V30 2498 C 257.368 0.381402 2.07626 0
M  V30 2499 O 256.716 -0.629999 2.19643 0
M  V30 2500 C 256.926 2.92664 1.90128 0
M  V30 2501 C 258.274 3.46526 2.45367 0
M  V30 2502 O 259.298 2.94562 2.0028 0
M  V30 2503 O 258.157 4.37323 3.27736 0
M  V30 2504 H 255.251 0.639855 0.523941 0
M  V30 2505 H 257.797 1.65149 0.390389 0
M  V30 2506 H 256.569 3.71788 1.22022 0
M  V30 2507 H 256.192 2.89527 2.72507 0
M  V30 2508 N 257.189 -0.644168 1.43834 0
M  V30 2509 C 258.6 -1.22554 1.40845 0
M  V30 2510 C 258.951 -1.9585 0.117115 0
M  V30 2511 O 258.076 -2.01734 -0.783086 0
M  V30 2512 C 258.671 -2.22907 2.55143 0
M  V30 2513 C 257.23 -2.76501 2.5539 0
M  V30 2514 C 256.377 -1.51287 2.32396 0
M  V30 2515 H 259.328 -0.43563 1.52604 0
M  V30 2516 H 259.349 -3.05259 2.2715 0
M  V30 2517 H 258.861 -1.69533 3.49114 0
M  V30 2518 H 256.962 -3.33914 1.65324 0
M  V30 2519 H 257.075 -3.23429 3.53455 0
M  V30 2520 H 255.439 -1.78957 1.81236 0
M  V30 2521 H 256.222 -0.998336 3.28463 0
M  V30 2522 N 258.668 -1.30515 -0.883378 0
M  V30 2523 C 259.896 -1.22359 -1.66841 0
M  V30 2524 C 260.311 0.213296 -1.87591 0
M  V30 2525 O 259.668 1.14075 -1.42454 0
M  V30 2526 C 259.719 -1.95011 -3.04389 0
M  V30 2527 O 259.44 -3.3309 -2.84575 0
M  V30 2528 C 260.941 -1.93532 -3.98824 0
M  V30 2529 H 258.161 -0.423371 -0.520575 0
M  V30 2530 H 260.705 -1.72167 -1.10357 0
M  V30 2531 H 258.86 -1.48997 -3.57601 0
M  V30 2532 H 259.274 -3.69907 -3.71846 0
M  V30 2533 H 260.748 -2.48902 -4.92699 0
M  V30 2534 H 261.225 -0.914627 -4.29571 0
M  V30 2535 H 261.831 -2.39364 -3.51547 0
M  V30 2536 N 260.146 1.09593 -1.13257 0
M  V30 2537 C 261.394 1.81375 -0.891492 0
M  V30 2538 C 261.715 1.86049 0.584009 0
M  V30 2539 O 260.985 1.34481 1.42449 0
M  V30 2540 H 259.565 0.671708 -0.326828 0
M  V30 2541 H 262.227 1.3256 -1.42877 0
M  V30 2542 H 261.323 2.84612 -1.28071 0
M  V30 2543 N 261.624 0.925811 1.2754 0
M  V30 2544 C 262.554 0.440748 2.29303 0
M  V30 2545 C 263.535 -0.497971 1.62648 0
M  V30 2546 O 264.72 -0.403126 1.8997 0
M  V30 2547 C 261.85 -0.309048 3.45922 0
M  V30 2548 C 260.804 0.54166 4.24559 0
M  V30 2549 C 260.13 -0.337191 5.33636 0
M  V30 2550 C 261.43 1.80516 4.90114 0
M  V30 2551 H 263.124 1.29121 2.70126 0
M  V30 2552 H 260.67 0.622323 1.29858 0
M  V30 2553 H 262.623 -0.659315 4.1621 0
M  V30 2554 H 261.347 -1.19352 3.04011 0
M  V30 2555 H 260.006 0.874609 3.56014 0
M  V30 2556 H 259.654 -1.22056 4.87966 0
M  V30 2557 H 259.354 0.228497 5.87156 0
M  V30 2558 H 260.878 -0.683072 6.06767 0
M  V30 2559 H 262.292 1.52307 5.52698 0
M  V30 2560 H 260.689 2.3142 5.53683 0
M  V30 2561 H 261.759 2.52581 4.13921 0
M  V30 2562 N 263.102 -1.41638 0.69111 0
M  V30 2563 C 264.327 -2.06148 0.227583 0
M  V30 2564 C 264.752 -1.51652 -1.11281 0
M  V30 2565 O 264.11 -0.64164 -1.69566 0
M  V30 2566 C 264.158 -3.60095 0.190858 0
M  V30 2567 O 263.262 -4.03845 -0.835664 0
M  V30 2568 H 262.603 -0.654434 0.112306 0
M  V30 2569 H 265.133 -1.81484 0.944714 0
M  V30 2570 H 265.143 -4.07995 0.020207 0
M  V30 2571 H 263.818 -3.99129 1.16915 0
M  V30 2572 H 262.395 -3.67458 -0.63473 0
M  V30 2573 N 264.58 -0.43555 -1.51462 0
M  V30 2574 C 265.805 0.132627 -2.06976 0
M  V30 2575 C 266.23 1.35848 -1.30104 0
M  V30 2576 O 265.588 1.78112 -0.338493 0
M  V30 2577 C 265.636 0.43523 -3.57964 0
M  V30 2578 O 264.74 1.52198 -3.83288 0
M  V30 2579 H 264.081 0.00265 -0.663995 0
M  V30 2580 H 266.611 -0.616369 -1.95095 0
M  V30 2581 H 266.621 0.686206 -4.02188 0
M  V30 2582 H 265.296 -0.460739 -4.1334 0
M  V30 2583 H 263.873 1.2611 -3.50928 0
M  V30 2584 N 266.058 1.56714 -0.166846 0
M  V30 2585 C 267.283 2.01557 0.488833 0
M  V30 2586 C 267.708 1.0463 1.56314 0
M  V30 2587 O 267.066 0.0251304 1.81283 0
M  V30 2588 C 267.114 3.4503 1.04818 0
M  V30 2589 O 266.218 3.51163 2.16236 0
M  V30 2590 H 265.559 0.653516 0.117526 0
M  V30 2591 H 268.089 2.02818 -0.269421 0
M  V30 2592 H 268.099 3.84243 1.37191 0
M  V30 2593 H 266.774 4.15077 0.261572 0
M  V30 2594 H 265.351 3.23807 1.84942 0
M  V30 2595 N 267.536 -0.106894 1.57237 0
M  V30 2596 C 268.782 -0.81373 1.85759 0
M  V30 2597 C 269.115 -1.78952 0.754315 0
M  V30 2598 O 268.39 -1.93029 -0.23879 0
M  V30 2599 C 268.673 -1.55293 3.24894 0
M  V30 2600 C 268.526 -0.595929 4.45835 0
M  V30 2601 C 269.845 -2.5063 3.61763 0
M  V30 2602 H 266.964 -0.294369 0.67566 0
M  V30 2603 H 269.606 -0.0776472 1.89841 0
M  V30 2604 H 267.756 -2.1804 3.21544 0
M  V30 2605 H 269.428 0.0236262 4.61294 0
M  V30 2606 H 267.671 0.0916191 4.33703 0
M  V30 2607 H 268.342 -1.15004 5.39887 0
M  V30 2608 H 270.818 -1.97982 3.65981 0
M  V30 2609 H 269.694 -2.99376 4.60071 0
M  V30 2610 H 269.955 -3.3385 2.89821 0
M  V30 2611 N 269.014 -1.53014 -0.377408 0
M  V30 2612 C 270.263 -1.67845 -1.11853 0
M  V30 2613 C 270.576 -0.430625 -1.90801 0
M  V30 2614 O 271.782 -0.459261 -2.67587 0
M  V30 2615 C 270.238 -2.96668 -2.03756 0
M  V30 2616 C 269.846 -4.28671 -1.30175 0
M  V30 2617 C 271.59 -3.20865 -2.77932 0
M  V30 2618 C 269.497 -5.48591 -2.20911 0
M  V30 2619 H 268.427 -0.625343 -0.421263 0
M  V30 2620 H 271.078 -1.79514 -0.380409 0
M  V30 2621 H 269.46 -2.78773 -2.8125 0
M  V30 2622 H 270.634 -4.57157 -0.578259 0
M  V30 2623 H 268.949 -4.10825 -0.679108 0
M  V30 2624 H 271.546 -4.07642 -3.46024 0
M  V30 2625 H 271.889 -2.36424 -3.4265 0
M  V30 2626 H 272.422 -3.39379 -2.07525 0
M  V30 2627 H 269.161 -6.35474 -1.6079 0
M  V30 2628 H 268.681 -5.244 -2.91144 0
M  V30 2629 H 270.36 -5.8292 -2.80736 0
M  V30 2630 N 270.492 0.636531 -1.44174 0
M  V30 2631 C 271.455 1.73063 -1.50273 0
M  V30 2632 C 272.455 1.56113 -0.385397 0
M  V30 2633 O 273.645 1.61707 -0.64781 0
M  V30 2634 C 270.777 3.12096 -1.37145 0
M  V30 2635 H 271.97 1.69031 -2.47727 0
M  V30 2636 H 269.523 0.849706 -1.31186 0
M  V30 2637 H 270.258 3.21728 -0.407636 0
M  V30 2638 H 270.043 3.25805 -2.18159 0
M  V30 2639 H 271.533 3.91846 -1.44382 0
M  V30 2640 N 271.97 1.30982 0.876444 0
M  V30 2641 C 272.933 1.18054 1.96459 0
M  V30 2642 C 273.933 0.109399 1.60427 0
M  V30 2643 O 275.123 0.358173 1.70478 0
M  V30 2644 C 272.255 0.810616 3.31122 0
M  V30 2645 H 273.448 2.14735 2.09354 0
M  V30 2646 H 271.001 1.145 1.06392 0
M  V30 2647 H 271.736 -0.155322 3.23928 0
M  V30 2648 H 271.521 1.58481 3.58645 0
M  V30 2649 H 273.011 0.743876 4.10921 0
M  V30 2650 N 273.449 -1.08991 1.13837 0
M  V30 2651 C 274.696 -1.81258 0.902882 0
M  V30 2652 C 275.024 -1.85936 -0.570803 0
M  V30 2653 O 274.279 -1.3267 -1.43865 0
M  V30 2654 C 274.578 -3.27042 1.44147 0
M  V30 2655 C 274.244 -3.4249 2.93276 0
M  V30 2656 C 272.906 -3.46414 3.33992 0
M  V30 2657 C 275.258 -3.4666 3.892 0
M  V30 2658 C 272.586 -3.52091 4.69307 0
M  V30 2659 C 274.938 -3.53872 5.24364 0
M  V30 2660 C 273.602 -3.56066 5.646 0
M  V30 2661 H 272.872 -0.663268 0.330388 0
M  V30 2662 H 275.519 -1.28368 1.42105 0
M  V30 2663 H 273.824 -3.82599 0.844097 0
M  V30 2664 H 275.521 -3.81499 1.23528 0
M  V30 2665 H 272.111 -3.40124 2.60794 0
M  V30 2666 H 276.295 -3.42865 3.58828 0
M  V30 2667 H 271.551 -3.52079 4.9985 0
M  V30 2668 H 275.725 -3.56043 5.98503 0
M  V30 2669 H 273.352 -3.60218 6.69438 0
M  V30 2670 N 274.927 -0.932562 -1.27047 0
M  V30 2671 C 276.173 -0.576412 -1.94436 0
M  V30 2672 C 276.506 0.880891 -1.73072 0
M  V30 2673 O 275.781 1.62905 -1.06264 0
M  V30 2674 C 276.064 -0.909031 -3.48437 0
M  V30 2675 C 275.917 -2.42044 -3.79123 0
M  V30 2676 C 277.236 -0.418341 -4.38107 0
M  V30 2677 H 274.355 -0.210888 -0.706184 0
M  V30 2678 H 276.997 -1.16522 -1.50075 0
M  V30 2679 H 275.147 -0.407947 -3.86352 0
M  V30 2680 H 276.819 -2.99359 -3.50973 0
M  V30 2681 H 275.062 -2.86758 -3.25503 0
M  V30 2682 H 275.733 -2.6037 -4.86736 0
M  V30 2683 H 278.209 -0.847856 -4.0737 0
M  V30 2684 H 277.085 -0.679981 -5.44672 0
M  V30 2685 H 277.346 0.681642 -4.36814 0
M  V30 2686 N 276.405 1.4127 -0.698611 0
M  V30 2687 C 277.353 2.32588 -0.023855 0
M  V30 2688 C 278.347 1.51128 0.765292 0
M  V30 2689 O 279.553 1.67043 0.670571 0
M  V30 2690 H 275.928 0.751918 0.0110871 0
M  V30 2691 H 277.899 2.87167 -0.811031 0
M  V30 2692 C 276.648 3.35947 0.896369 0
M  V30 2693 H 275.971 3.98684 0.298548 0
M  V30 2694 H 277.411 4.02376 1.33676 0
M  V30 2695 C 275.87 2.70076 2.01396 0
M  V30 2696 O 276.4 2.55093 3.10307 0
M  V30 2697 N 274.606 2.28724 1.79259 0
M  V30 2698 H 274.153 2.4111 0.906841 0
M  V30 2699 H 274.111 1.84986 2.54219 0
M  V30 2700 N 277.883 0.443576 1.51229 0
M  V30 2701 C 279.129 -0.120975 2.02439 0
M  V30 2702 C 279.462 -1.41815 1.32674 0
M  V30 2703 O 278.737 -1.89373 0.443622 0
M  V30 2704 C 279.02 -0.333291 3.58554 0
M  V30 2705 C 278.873 0.982968 4.38928 0
M  V30 2706 C 280.192 -1.10028 4.26124 0
M  V30 2707 H 277.311 -0.0424923 0.735774 0
M  V30 2708 H 279.953 0.583794 1.80809 0
M  V30 2709 H 278.103 -0.933614 3.77115 0
M  V30 2710 H 279.775 1.61775 4.32003 0
M  V30 2711 H 278.018 1.58611 4.03763 0
M  V30 2712 H 278.689 0.788379 5.46341 0
M  V30 2713 H 281.165 -0.591711 4.11871 0
M  V30 2714 H 280.041 -1.21761 5.35225 0
M  V30 2715 H 280.302 -2.12996 3.87408 0
M  V30 2716 N 279.361 -1.56624 0.175154 0
M  V30 2717 C 280.608 -1.96999 -0.468811 0
M  V30 2718 C 280.936 -1.06129 -1.62994 0
M  V30 2719 O 280.191 -0.0961771 -1.95464 0
M  V30 2720 C 280.49 -3.43419 -0.989864 0
M  V30 2721 C 280.156 -4.50866 0.0557687 0
M  V30 2722 C 278.818 -4.79975 0.343134 0
M  V30 2723 C 281.17 -5.15551 0.765308 0
M  V30 2724 C 278.498 -5.71066 1.34536 0
M  V30 2725 C 280.85 -6.07724 1.75654 0
M  V30 2726 C 279.514 -6.35199 2.05132 0
M  V30 2727 H 278.784 -0.720869 -0.17155 0
M  V30 2728 H 281.431 -1.89616 0.267924 0
M  V30 2729 H 279.736 -3.47772 -1.80449 0
M  V30 2730 H 281.433 -3.72002 -1.49719 0
M  V30 2731 H 278.023 -4.28229 -0.178381 0
M  V30 2732 H 282.207 -4.9317 0.556513 0
M  V30 2733 H 277.463 -5.90635 1.57988 0
M  V30 2734 H 281.637 -6.56912 2.31169 0
M  V30 2735 H 279.264 -7.05584 2.8294 0
M  V30 2736 N 280.839 0.0985539 -1.57292 0
M  V30 2737 C 282.087 0.801092 -1.85545 0
M  V30 2738 C 282.408 1.79438 -0.763353 0
M  V30 2739 O 281.678 1.94763 0.21073 0
M  V30 2740 H 280.258 0.29884 -0.684619 0
M  V30 2741 H 282.92 0.0810064 -1.94732 0
M  V30 2742 H 282.016 1.3338 -2.82163 0
M  V30 2743 N 282.317 1.53212 0.369288 0
M  V30 2744 C 283.566 1.68436 1.10961 0
M  V30 2745 C 283.879 0.440738 1.9057 0
M  V30 2746 O 285.085 0.473446 2.6734 0
M  V30 2747 C 283.541 2.97744 2.0218 0
M  V30 2748 C 283.149 4.29355 1.279 0
M  V30 2749 C 284.893 3.22334 2.76226 0
M  V30 2750 C 282.8 5.49755 2.17999 0
M  V30 2751 H 281.73 0.627568 0.41794 0
M  V30 2752 H 284.381 1.79713 0.370884 0
M  V30 2753 H 282.763 2.8026 2.79768 0
M  V30 2754 H 283.937 4.57458 0.554007 0
M  V30 2755 H 282.252 4.11179 0.657311 0
M  V30 2756 H 284.849 4.09471 3.43857 0
M  V30 2757 H 285.192 2.38238 3.41392 0
M  V30 2758 H 285.725 3.40475 2.05723 0
M  V30 2759 H 282.464 6.36318 1.57417 0
M  V30 2760 H 281.984 5.25937 2.88359 0
M  V30 2761 H 283.663 5.84401 2.77641 0
M  V30 2762 N 283.795 -0.628877 1.44509 0
M  V30 2763 C 284.725 -1.75187 1.54376 0
M  V30 2764 C 285.706 -1.65411 0.396618 0
M  V30 2765 O 286.891 -1.84137 0.617031 0
M  V30 2766 C 284.021 -3.13725 1.48976 0
M  V30 2767 C 282.975 -3.38291 2.62189 0
M  V30 2768 C 282.301 -4.76883 2.41841 0
M  V30 2769 C 283.601 -3.30632 4.04326 0
M  V30 2770 H 285.295 -1.67187 2.48373 0
M  V30 2771 H 282.841 -0.802909 1.19538 0
M  V30 2772 H 284.794 -3.92064 1.54478 0
M  V30 2773 H 283.518 -3.22515 0.514961 0
M  V30 2774 H 282.177 -2.62334 2.56079 0
M  V30 2775 H 281.825 -4.82378 1.42548 0
M  V30 2776 H 281.525 -4.94278 3.17747 0
M  V30 2777 H 283.049 -5.57449 2.49165 0
M  V30 2778 H 284.463 -3.98873 4.11793 0
M  V30 2779 H 282.86 -3.59561 4.80454 0
M  V30 2780 H 283.93 -2.28404 4.27738 0
M  V30 2781 N 285.273 -1.31445 -0.869486 0
M  V30 2782 C 286.501 -1.24122 -1.65534 0
M  V30 2783 C 286.916 0.193387 -1.87807 0
M  V30 2784 O 286.273 1.12557 -1.43656 0
M  V30 2785 C 286.324 -1.98229 -3.02304 0
M  V30 2786 O 286.045 -3.3609 -2.81026 0
M  V30 2787 C 287.546 -1.97751 -3.96749 0
M  V30 2788 H 284.766 -0.428868 -0.516055 0
M  V30 2789 H 287.31 -1.73328 -1.08525 0
M  V30 2790 H 285.465 -1.52782 -3.56001 0
M  V30 2791 H 285.879 -3.7383 -3.67902 0
M  V30 2792 H 287.353 -2.54114 -4.90031 0
M  V30 2793 H 287.83 -0.960137 -4.28577 0
M  V30 2794 H 288.436 -2.43079 -3.48988 0
M  V30 2795 N 286.751 1.08385 -1.14413 0
M  V30 2796 C 287.976 1.85057 -0.936413 0
M  V30 2797 C 288.401 1.81055 0.509971 0
M  V30 2798 O 287.759 1.1958 1.36273 0
M  V30 2799 C 287.807 3.30505 -1.44217 0
M  V30 2800 O 286.911 4.07491 -0.634409 0
M  V30 2801 H 286.252 0.573425 -0.334784 0
M  V30 2802 H 288.782 1.36799 -1.52142 0
M  V30 2803 H 288.792 3.81348 -1.45043 0
M  V30 2804 H 287.467 3.32734 -2.49522 0
M  V30 2805 H 286.044 3.66368 -0.694902 0
M  V30 2806 N 288.23 0.939286 1.26551 0
M  V30 2807 C 289.455 0.602008 1.98471 0
M  V30 2808 C 289.88 -0.815624 1.69497 0
M  V30 2809 O 289.238 -1.54912 0.941905 0
M  V30 2810 C 289.286 0.848407 3.50477 0
M  V30 2811 O 288.39 -0.0804009 4.12322 0
M  V30 2812 H 287.731 0.23049 0.622712 0
M  V30 2813 H 290.261 1.2617 1.61066 0
M  V30 2814 H 290.271 0.768553 4.00696 0
M  V30 2815 H 288.946 1.88171 3.70897 0
M  V30 2816 H 287.523 0.0503508 3.72866 0
M  V30 2817 N 289.708 -1.40897 0.706093 0
M  V30 2818 C 290.933 -2.05895 0.249435 0
M  V30 2819 C 291.358 -1.52823 -1.09666 0
M  V30 2820 O 290.716 -0.659589 -1.68876 0
M  V30 2821 C 290.764 -3.59872 0.22904 0
M  V30 2822 O 289.868 -4.04708 -0.792784 0
M  V30 2823 H 289.209 -0.653206 0.119241 0
M  V30 2824 H 291.739 -1.80471 0.96391 0
M  V30 2825 H 291.749 -4.07951 0.0634791 0
M  V30 2826 H 290.424 -3.97866 1.21141 0
M  V30 2827 H 289.001 -3.68111 -0.59572 0
M  V30 2828 N 291.186 -0.45159 -1.50991 0
M  V30 2829 C 292.136 0.370861 -2.24964 0
M  V30 2830 C 293.12 0.978074 -1.2776 0
M  V30 2831 O 294.312 0.893854 -1.52772 0
M  V30 2832 C 291.441 1.46344 -3.10545 0
M  V30 2833 C 290.527 0.864924 -4.15187 0
M  V30 2834 N 290.918 -0.00311354 -5.058 0
M  V30 2835 C 289.216 1.13099 -4.31422 0
M  V30 2836 C 289.917 -0.340772 -5.80701 0
M  V30 2837 N 288.893 0.279203 -5.42883 0
M  V30 2838 H 292.695 -0.298134 -2.92384 0
M  V30 2839 H 290.209 -0.264528 -1.60231 0
M  V30 2840 H 292.206 2.06565 -3.62128 0
M  V30 2841 H 290.866 2.13463 -2.4467 0
M  V30 2842 H 291.877 -0.37058 -5.16572 0
M  V30 2843 H 288.554 1.79861 -3.76771 0
M  V30 2844 H 289.944 -1.048 -6.63677 0
M  V30 2845 N 292.664 1.56529 -0.183458 0
M  V30 2846 C 293.612 2.19873 0.758845 0
M  V30 2847 C 294.606 1.16638 1.22849 0
M  V30 2848 O 295.812 1.3481 1.19274 0
M  V30 2849 H 292.187 0.7045 0.263029 0
M  V30 2850 H 294.158 2.97724 0.200755 0
M  V30 2851 C 292.907 2.86314 1.9728 0
M  V30 2852 H 292.23 3.65487 1.62047 0
M  V30 2853 H 293.67 3.3409 2.61075 0
M  V30 2854 C 292.129 1.86729 2.80418 0
M  V30 2855 O 292.659 1.36031 3.77966 0
M  V30 2856 N 290.865 1.55216 2.45675 0
M  V30 2857 H 290.412 1.96636 1.66409 0
M  V30 2858 H 290.37 0.888388 3.01588 0
M  V30 2859 N 294.142 -0.090211 1.57342 0
M  V30 2860 C 295.37 -0.806224 1.90546 0
M  V30 2861 C 295.785 -1.72041 0.777644 0
M  V30 2862 O 295.142 -1.80778 -0.250103 0
M  V30 2863 C 295.193 -1.61546 3.23396 0
M  V30 2864 O 294.914 -0.738043 4.31839 0
M  V30 2865 C 296.415 -2.4341 3.70495 0
M  V30 2866 H 293.635 -0.230256 0.630257 0
M  V30 2867 H 296.179 -0.0659843 2.04394 0
M  V30 2868 H 294.334 -2.30816 3.11131 0
M  V30 2869 H 294.748 -1.29901 5.08159 0
M  V30 2870 H 296.222 -2.95676 4.66133 0
M  V30 2871 H 296.699 -3.22098 2.98579 0
M  V30 2872 H 297.305 -1.79331 3.85643 0
M  V30 2873 N 295.62 -1.53406 -0.361157 0
M  V30 2874 C 296.568 -1.80832 -1.46296 0
M  V30 2875 C 297.562 -0.677699 -1.55253 0
M  V30 2876 O 298.768 -0.860723 -1.58087 0
M  V30 2877 H 295.143 -0.572627 -0.487445 0
M  V30 2878 H 297.114 -2.73045 -1.20371 0
M  V30 2879 C 295.863 -2.01907 -2.8307 0
M  V30 2880 H 295.186 -2.88349 -2.76938 0
M  V30 2881 H 296.626 -2.25072 -3.59331 0
M  V30 2882 C 295.085 -0.799449 -3.27277 0
M  V30 2883 O 295.615 0.00971761 -4.01699 0
M  V30 2884 N 293.821 -0.621637 -2.83873 0
M  V30 2885 H 293.368 -1.28126 -2.23476 0
M  V30 2886 H 293.326 0.19298 -3.13807 0
M  V30 2887 N 297.098 0.621204 -1.44841 0
M  V30 2888 C 298.03 1.74615 -1.48466 0
M  V30 2889 C 299.043 1.58377 -0.37691 0
M  V30 2890 O 300.232 1.66508 -0.643215 0
M  V30 2891 C 297.332 3.12459 -1.31236 0
M  V30 2892 C 296.505 3.55064 -2.55438 0
M  V30 2893 C 295.564 4.71821 -2.32963 0
M  V30 2894 O 294.59 4.79628 -3.06505 0
M  V30 2895 N 295.792 5.64186 -1.36654 0
M  V30 2896 H 298.557 1.71973 -2.45449 0
M  V30 2897 H 296.118 0.806077 -1.40407 0
M  V30 2898 H 298.11 3.88302 -1.14032 0
M  V30 2899 H 296.68 3.09686 -0.4258 0
M  V30 2900 H 295.9 2.69324 -2.87851 0
M  V30 2901 H 297.188 3.80284 -3.38026 0
M  V30 2902 H 296.586 5.6058 -0.759344 0
M  V30 2903 H 295.143 6.39618 -1.25425 0
M  V30 2904 N 298.576 1.31904 0.862503 0
M  V30 2905 C 299.853 1.12644 1.59908 0
M  V30 2906 C 300.233 -0.316104 2.0872 0
M  V30 2907 O 299.581 -1.31145 1.87118 0
M  V30 2908 C 299.791 2.1472 2.7513 0
M  V30 2909 C 301.139 2.47637 3.44907 0
M  V30 2910 O 302.163 2.13205 2.85346 0
M  V30 2911 O 301.022 3.06632 4.52371 0
M  V30 2912 H 298.116 0.43416 0.703871 0
M  V30 2913 H 300.662 1.43408 0.907314 0
M  V30 2914 H 299.434 3.1172 2.3653 0
M  V30 2915 H 299.057 1.84905 3.51989 0
M  V30 2916 N 300.054 -1.07777 1.14986 0
M  V30 2917 C 301.017 -2.13041 0.845358 0
M  V30 2918 C 302.017 -1.60071 -0.152931 0
M  V30 2919 O 303.207 -1.74033 0.0761879 0
M  V30 2920 C 300.339 -3.39896 0.261383 0
M  V30 2921 H 301.532 -2.41485 1.77834 0
M  V30 2922 H 299.085 -1.23595 0.956757 0
M  V30 2923 H 299.82 -3.17091 -0.68 0
M  V30 2924 H 299.605 -3.79642 0.980514 0
M  V30 2925 H 301.095 -4.17548 0.0657687 0
M  V30 2926 N 301.532 -0.945985 -1.26051 0
M  V30 2927 C 302.462 -0.477172 -2.28572 0
M  V30 2928 C 303.443 0.472032 -1.63419 0
M  V30 2929 O 304.628 0.372853 -1.90587 0
M  V30 2930 C 301.758 0.253975 -3.4637 0
M  V30 2931 C 300.712 -0.609135 -4.23643 0
M  V30 2932 C 300.038 0.252252 -5.34105 0
M  V30 2933 C 301.338 -1.8829 -4.8718 0
M  V30 2934 H 303.032 -1.33402 -2.68038 0
M  V30 2935 H 300.578 -0.642904 -1.28852 0
M  V30 2936 H 302.531 0.593016 -4.17207 0
M  V30 2937 H 301.255 1.145 -3.05871 0
M  V30 2938 H 299.914 -0.931138 -3.54578 0
M  V30 2939 H 299.562 1.14278 -4.89846 0
M  V30 2940 H 299.262 -0.32188 -5.86718 0
M  V30 2941 H 300.786 0.586454 -6.07777 0
M  V30 2942 H 302.2 -1.61081 -5.50205 0
M  V30 2943 H 300.597 -2.40199 -5.49931 0
M  V30 2944 H 301.667 -2.59134 -4.09851 0
M  V30 2945 N 303.011 1.40521 -0.713556 0
M  V30 2946 C 303.974 2.29098 -0.0684347 0
M  V30 2947 C 304.974 1.45268 0.689472 0
M  V30 2948 O 306.164 1.66205 0.521677 0
M  V30 2949 C 303.296 3.28446 0.913024 0
M  V30 2950 H 304.489 2.87645 -0.84855 0
M  V30 2951 H 302.042 1.48809 -0.47809 0
M  V30 2952 H 302.777 2.74913 1.72027 0
M  V30 2953 H 302.562 3.90327 0.372472 0
M  V30 2954 H 304.052 3.94777 1.36165 0
M  V30 2955 N 304.489 0.459591 1.5075 0
M  V30 2956 C 305.452 -0.329093 2.26825 0
M  V30 2957 C 306.452 -0.930481 1.31144 0
M  V30 2958 O 307.642 -0.801453 1.54669 0
M  V30 2959 C 304.774 -1.46768 3.07688 0
M  V30 2960 H 305.967 0.337924 2.9799 0
M  V30 2961 H 303.52 0.213336 1.54837 0
M  V30 2962 H 304.255 -2.17009 2.40993 0
M  V30 2963 H 304.04 -1.04238 3.77991 0
M  V30 2964 H 305.53 -2.02433 3.65254 0
M  V30 2965 N 305.967 -1.56429 0.191757 0
M  V30 2966 C 306.897 -2.21937 -0.725696 0
M  V30 2967 C 307.878 -1.1814 -1.2238 0
M  V30 2968 O 309.063 -1.46636 -1.27325 0
M  V30 2969 C 306.193 -2.87611 -1.94672 0
M  V30 2970 C 305.147 -3.97623 -1.58366 0
M  V30 2971 C 304.473 -4.50446 -2.88102 0
M  V30 2972 C 305.773 -5.16197 -0.796133 0
M  V30 2973 H 307.467 -2.98861 -0.179606 0
M  V30 2974 H 305.013 -1.43749 -0.0849464 0
M  V30 2975 H 306.966 -3.3212 -2.59373 0
M  V30 2976 H 305.69 -2.08087 -2.51728 0
M  V30 2977 H 304.349 -3.53801 -0.960247 0
M  V30 2978 H 303.997 -3.67688 -3.43241 0
M  V30 2979 H 303.697 -5.24675 -2.64556 0
M  V30 2980 H 305.221 -4.97654 -3.53798 0
M  V30 2981 H 306.635 -5.57271 -1.34618 0
M  V30 2982 H 305.032 -5.96471 -0.658928 0
M  V30 2983 H 306.102 -4.84473 0.203478 0
M  V30 2984 N 307.445 0.0818655 -1.57387 0
M  V30 2985 C 308.377 1.12484 -1.997 0
M  V30 2986 C 309.39 1.35564 -0.90146 0
M  V30 2987 O 310.579 1.33982 -1.17945 0
M  V30 2988 C 307.679 2.47778 -2.31213 0
M  V30 2989 C 306.852 2.44793 -3.62485 0
M  V30 2990 C 305.911 3.62117 -3.81782 0
M  V30 2991 O 304.937 3.44005 -4.53486 0
M  V30 2992 N 306.139 4.82094 -3.23367 0
M  V30 2993 H 308.904 0.764585 -2.89783 0
M  V30 2994 H 306.465 0.270664 -1.59621 0
M  V30 2995 H 308.457 3.24891 -2.41304 0
M  V30 2996 H 307.027 2.75843 -1.4707 0
M  V30 2997 H 306.247 1.53134 -3.6324 0
M  V30 2998 H 307.535 2.39889 -4.48699 0
M  V30 2999 H 306.933 4.99713 -2.65148 0
M  V30 3000 H 305.49 5.56753 -3.38923 0
M  V30 3001 N 308.923 1.53595 0.353017 0
M  V30 3002 C 310.151 1.74311 1.1146 0
M  V30 3003 C 310.566 0.477854 1.82653 0
M  V30 3004 O 309.923 -0.549977 1.74016 0
M  V30 3005 C 309.974 2.91694 2.13534 0
M  V30 3006 O 309.695 4.13325 1.45238 0
M  V30 3007 C 311.196 3.24384 3.02142 0
M  V30 3008 H 308.416 0.582669 0.332773 0
M  V30 3009 H 310.96 2.00386 0.408107 0
M  V30 3010 H 309.115 2.67977 2.79763 0
M  V30 3011 H 309.529 4.79148 2.13349 0
M  V30 3012 H 311.003 4.09893 3.69718 0
M  V30 3013 H 311.48 2.40282 3.67643 0
M  V30 3014 H 312.086 3.50073 2.41514 0
M  V30 3015 N 310.401 -0.613514 1.45168 0
M  V30 3016 C 311.331 -1.7354 1.56225 0
M  V30 3017 C 312.312 -1.64981 0.41414 0
M  V30 3018 O 313.497 -1.83472 0.636526 0
M  V30 3019 C 310.627 -3.12128 1.52295 0
M  V30 3020 C 309.581 -3.35491 2.65762 0
M  V30 3021 C 308.907 -4.74291 2.46885 0
M  V30 3022 C 310.207 -3.26325 4.0781 0
M  V30 3023 H 311.901 -1.64543 2.50132 0
M  V30 3024 H 309.447 -0.790185 1.20383 0
M  V30 3025 H 311.4 -3.90404 1.58628 0
M  V30 3026 H 310.124 -3.2195 0.549139 0
M  V30 3027 H 308.783 -2.59603 2.58847 0
M  V30 3028 H 308.431 -4.80839 1.47657 0
M  V30 3029 H 308.131 -4.9088 3.22972 0
M  V30 3030 H 309.655 -5.54775 2.55063 0
M  V30 3031 H 311.069 -3.94483 4.16 0
M  V30 3032 H 309.466 -3.54445 4.8424 0
M  V30 3033 H 310.536 -2.23855 4.30136 0
M  V30 3034 N 311.879 -1.3236 -0.855495 0
M  V30 3035 C 313.107 -1.2587 -1.64208 0
M  V30 3036 C 313.522 0.173457 -1.88002 0
M  V30 3037 O 312.879 1.11027 -1.44842 0
M  V30 3038 C 312.93 -2.01424 -3.00184 0
M  V30 3039 O 312.651 -3.39051 -2.77445 0
M  V30 3040 C 314.152 -2.01948 -3.94629 0
M  V30 3041 H 311.372 -0.434318 -0.511477 0
M  V30 3042 H 313.916 -1.74469 -1.0668 0
M  V30 3043 H 312.071 -1.56549 -3.5436 0
M  V30 3044 H 312.485 -3.77711 -3.63916 0
M  V30 3045 H 313.959 -2.59297 -4.87308 0
M  V30 3046 H 314.436 -1.00554 -4.27534 0
M  V30 3047 H 315.042 -2.46767 -3.4639 0
M  V30 3048 N 313.357 1.07166 -1.15556 0
M  V30 3049 C 314.585 1.83514 -0.955519 0
M  V30 3050 C 315 1.82163 0.49621 0
M  V30 3051 O 314.357 1.23441 1.34419 0
M  V30 3052 C 314.408 3.30515 -1.46432 0
M  V30 3053 O 314.129 3.31937 -2.85918 0
M  V30 3054 C 315.63 4.23625 -1.30603 0
M  V30 3055 H 312.85 0.578926 -0.339244 0
M  V30 3056 H 315.394 1.35265 -1.53374 0
M  V30 3057 H 313.549 3.76106 -0.928584 0
M  V30 3058 H 313.963 4.23794 -3.09029 0
M  V30 3059 H 315.437 5.24831 -1.71047 0
M  V30 3060 H 315.914 4.38485 -0.250441 0
M  V30 3061 H 316.52 3.83871 -1.83094 0
M  V30 3062 N 314.835 0.952656 1.25548 0
M  V30 3063 C 315.798 0.475794 2.24207 0
M  V30 3064 C 316.798 -0.419428 1.55234 0
M  V30 3065 O 317.988 -0.216994 1.72843 0
M  V30 3066 C 315.12 -0.312814 3.39462 0
M  V30 3067 H 316.313 1.34779 2.67908 0
M  V30 3068 H 313.866 0.735739 1.37901 0
M  V30 3069 H 314.601 -1.20257 3.01179 0
M  V30 3070 H 314.386 0.329404 3.90714 0
M  V30 3071 H 315.876 -0.635986 4.12729 0
M  V30 3072 N 316.313 -1.40141 0.720998 0
M  V30 3073 C 317.729 -1.54632 0.395113 0
M  V30 3074 C 317.929 -1.69115 -1.09555 0
M  V30 3075 O 316.985 -1.68377 -1.88163 0
M  V30 3076 C 318.298 -2.77177 1.1659 0
M  V30 3077 C 319.846 -2.91 1.15274 0
M  V30 3078 C 320.321 -4.16465 1.90579 0
M  V30 3079 N 321.812 -4.23476 1.87675 0
M  V30 3080 C 322.547 -5.19475 2.42762 0
M  V30 3081 N 322.043 -6.21348 3.06428 0
M  V30 3082 N 323.836 -5.11592 2.32874 0
M  V30 3083 H 315.987 -1.28986 1.68749 0
M  V30 3084 H 318.25 -0.62412 0.713567 0
M  V30 3085 H 317.956 -2.72771 2.22011 0
M  V30 3086 H 317.83 -3.69442 0.76108 0
M  V30 3087 H 320.217 -2.94907 0.106702 0
M  V30 3088 H 320.298 -1.99838 1.59682 0
M  V30 3089 H 319.942 -4.1332 2.95176 0
M  V30 3090 H 319.872 -5.06646 1.43587 0
M  V30 3091 H 322.363 -3.50497 1.41281 0
M  V30 3092 H 322.676 -6.91034 3.45965 0
M  V30 3093 H 321.021 -6.21777 3.10514 0
M  V30 3094 H 324.212 -4.30936 1.82789 0
M  V30 3095 H 324.385 -5.86233 2.76106 0
M  V30 3096 N 317.792 -0.46758 -1.50504 0
M  V30 3097 C 318.755 0.317059 -2.26996 0
M  V30 3098 C 319.755 0.923513 -1.31635 0
M  V30 3099 O 320.945 0.793239 -1.55091 0
M  V30 3100 C 318.077 1.45134 -3.08462 0
M  V30 3101 H 319.27 -0.353723 -2.97807 0
M  V30 3102 H 316.823 -0.221545 -1.54722 0
M  V30 3103 H 317.558 2.15728 -2.4214 0
M  V30 3104 H 317.343 1.02232 -3.78538 0
M  V30 3105 H 318.833 2.00493 -3.66323 0
M  V30 3106 N 319.27 1.56325 -0.20005 0
M  V30 3107 C 320.233 2.18084 0.705132 0
M  V30 3108 C 321.233 1.13666 1.1374 0
M  V30 3109 O 322.423 1.39023 1.04968 0
M  V30 3110 C 319.555 2.78689 1.96329 0
M  V30 3111 H 320.748 2.99435 0.167023 0
M  V30 3112 H 318.301 1.56221 0.0495725 0
M  V30 3113 H 319.036 2.0115 2.5438 0
M  V30 3114 H 318.821 3.55133 1.66202 0
M  V30 3115 H 320.311 3.26096 2.60866 0
M  V30 3116 N 320.748 -0.0735177 1.57428 0
M  V30 3117 C 321.976 -0.785969 1.9139 0
M  V30 3118 C 322.391 -1.71207 0.795847 0
M  V30 3119 O 321.748 -1.81033 -0.230915 0
M  V30 3120 C 321.799 -1.58107 3.25091 0
M  V30 3121 O 321.52 -0.6922 4.32597 0
M  V30 3122 C 323.021 -2.39467 3.73055 0
M  V30 3123 H 320.241 -0.223558 0.632663 0
M  V30 3124 H 322.785 -0.044302 2.04452 0
M  V30 3125 H 320.94 -2.27503 3.13562 0
M  V30 3126 H 321.354 -1.24504 5.09508 0
M  V30 3127 H 322.828 -2.90716 4.69242 0
M  V30 3128 H 323.305 -3.18913 3.01979 0
M  V30 3129 H 323.911 -1.7523 3.87523 0
M  V30 3130 N 322.226 -1.5378 -0.344866 0
M  V30 3131 C 323.456 -1.74646 -1.10374 0
M  V30 3132 C 323.864 -0.48491 -1.8288 0
M  V30 3133 O 323.207 0.553062 -1.75177 0
M  V30 3134 C 323.269 -2.87145 -2.16306 0
M  V30 3135 C 322.933 -4.26795 -1.63386 0
M  V30 3136 C 323.93 -5.08412 -1.08688 0
M  V30 3137 C 321.615 -4.73276 -1.68272 0
M  V30 3138 C 323.609 -6.34609 -0.595792 0
M  V30 3139 C 321.296 -5.99446 -1.18776 0
M  V30 3140 C 322.294 -6.79946 -0.645215 0
M  V30 3141 O 321.982 -8.03745 -0.157626 0
M  V30 3142 H 321.714 -0.587112 -0.335075 0
M  V30 3143 H 324.268 -2.01403 -0.403252 0
M  V30 3144 H 322.498 -2.55909 -2.89909 0
M  V30 3145 H 324.187 -2.95992 -2.77747 0
M  V30 3146 H 324.953 -4.73666 -1.04236 0
M  V30 3147 H 320.832 -4.10677 -2.09442 0
M  V30 3148 H 324.376 -6.97389 -0.171654 0
M  V30 3149 H 320.273 -6.33687 -1.22928 0
M  V30 3150 H 321.041 -8.18038 -0.275037 0
M  V30 3151 N 323.704 0.605807 -1.45491 0
M  V30 3152 C 324.652 1.73754 -1.54636 0
M  V30 3153 C 325.646 1.64207 -0.416219 0
M  V30 3154 O 326.852 1.69979 -0.592199 0
M  V30 3155 H 323.227 0.574073 -0.485741 0
M  V30 3156 H 325.198 1.63169 -2.49837 0
M  V30 3157 C 323.947 3.12135 -1.53189 0
M  V30 3158 H 323.27 3.20141 -2.39478 0
M  V30 3159 H 324.71 3.91147 -1.63645 0
M  V30 3160 C 323.169 3.35921 -0.256616 0
M  V30 3161 O 323.699 3.96194 0.662798 0
M  V30 3162 N 321.905 2.90204 -0.151751 0
M  V30 3163 H 321.452 2.41336 -0.90081 0
M  V30 3164 H 321.41 3.06492 0.700699 0
M  V30 3165 N 325.182 1.32811 0.848464 0
M  V30 3166 C 326.114 1.18095 1.96433 0
M  V30 3167 C 327.127 0.114354 1.62398 0
M  V30 3168 O 328.316 0.363892 1.74751 0
M  V30 3169 C 325.416 0.786798 3.2964 0
M  V30 3170 C 324.589 1.943 3.91875 0
M  V30 3171 C 323.648 1.53138 5.03423 0
M  V30 3172 O 322.674 2.24432 5.23086 0
M  V30 3173 N 323.876 0.430915 5.78898 0
M  V30 3174 H 326.641 2.14218 2.09597 0
M  V30 3175 H 324.202 1.2543 1.02367 0
M  V30 3176 H 326.194 0.493715 4.01677 0
M  V30 3177 H 324.764 -0.0834541 3.12489 0
M  V30 3178 H 323.984 2.40224 3.12547 0
M  V30 3179 H 325.272 2.71689 4.30189 0
M  V30 3180 H 324.67 -0.162333 5.65467 0
M  V30 3181 H 323.227 0.197466 6.51501 0
M  V30 3182 N 326.66 -1.06551 1.16123 0
M  V30 3183 C 327.608 -2.16063 0.861371 0
M  V30 3184 C 328.602 -1.6856 -0.168517 0
M  V30 3185 O 329.808 -1.79986 -0.0227579 0
M  V30 3186 H 326.183 -0.705278 0.260934 0
M  V30 3187 H 328.154 -2.38567 1.79244 0
M  V30 3188 C 326.903 -3.45661 0.376018 0
M  V30 3189 H 326.226 -3.82604 1.15992 0
M  V30 3190 H 327.666 -4.23504 0.204951 0
M  V30 3191 C 326.125 -3.24546 -0.903954 0
M  V30 3192 O 326.655 -3.49865 -1.97377 0
M  V30 3193 N 324.861 -2.77992 -0.846679 0
M  V30 3194 H 324.408 -2.57589 0.0241017 0
M  V30 3195 H 324.366 -2.64244 -1.70359 0
M  V30 3196 N 328.138 -0.959301 -1.25041 0
M  V30 3197 C 329.368 -0.63303 -1.96663 0
M  V30 3198 C 329.776 0.800031 -1.71453 0
M  V30 3199 O 329.119 1.54736 -0.99008 0
M  V30 3200 C 329.181 -0.817523 -3.50081 0
M  V30 3201 C 328.845 -2.22863 -3.98975 0
M  V30 3202 C 329.842 -3.20569 -4.09306 0
M  V30 3203 C 327.527 -2.55407 -4.32519 0
M  V30 3204 C 329.521 -4.4891 -4.52503 0
M  V30 3205 C 327.208 -3.83976 -4.754 0
M  V30 3206 C 328.206 -4.8054 -4.85356 0
M  V30 3207 O 327.894 -6.06817 -5.27284 0
M  V30 3208 H 327.626 -0.235866 -0.633516 0
M  V30 3209 H 330.18 -1.2874 -1.60047 0
M  V30 3210 H 328.41 -0.105992 -3.86555 0
M  V30 3211 H 330.099 -0.491604 -4.02912 0
M  V30 3212 H 330.865 -2.96753 -3.83618 0
M  V30 3213 H 326.744 -1.8097 -4.23994 0
M  V30 3214 H 330.288 -5.24283 -4.60188 0
M  V30 3215 H 326.185 -4.07596 -5.00535 0
M  V30 3216 H 326.953 -6.10262 -5.45457 0
M  V30 3217 N 329.616 1.39756 -0.72842 0
M  V30 3218 C 331.027 1.83498 -0.344289 0
M  V30 3219 C 331.378 1.60868 1.12321 0
M  V30 3220 O 330.503 1.09634 1.86573 0
M  V30 3221 C 331.098 3.33114 -0.618112 0
M  V30 3222 C 329.657 3.753 -0.287549 0
M  V30 3223 C 328.804 2.62831 -0.884048 0
M  V30 3224 H 331.755 1.28842 -0.926578 0
M  V30 3225 H 331.776 3.80334 0.112349 0
M  V30 3226 H 331.288 3.49553 -1.68625 0
M  V30 3227 H 329.389 3.64451 0.775012 0
M  V30 3228 H 329.502 4.72945 -0.765512 0
M  V30 3229 H 327.866 2.52792 -0.311149 0
M  V30 3230 H 328.649 2.82078 -1.95671 0
M  V30 3231 N 331.094 0.475555 1.50254 0
M  V30 3232 C 332.319 -0.0777042 2.07254 0
M  V30 3233 C 332.744 -1.3235 1.3366 0
M  V30 3234 O 332.102 -1.77152 0.385597 0
M  V30 3235 C 332.15 -0.340169 3.58992 0
M  V30 3236 O 331.254 -1.41982 3.87188 0
M  V30 3237 H 330.595 0.0149556 0.663832 0
M  V30 3238 H 333.125 0.667878 1.93392 0
M  V30 3239 H 333.135 -0.579332 4.03866 0
M  V30 3240 H 331.81 0.570167 4.11973 0
M  V30 3241 H 330.387 -1.16762 3.54148 0
M  V30 3242 N 332.573 -1.56217 0.208337 0
M  V30 3243 C 333.536 -2.18455 -0.693557 0
M  V30 3244 C 334.536 -1.14268 -1.13135 0
M  V30 3245 O 335.726 -1.39577 -1.0423 0
M  V30 3246 C 332.858 -2.79727 -1.94848 0
M  V30 3247 H 334.051 -2.99519 -0.15114 0
M  V30 3248 H 331.604 -1.56245 -0.041287 0
M  V30 3249 H 332.339 -2.02497 -2.53309 0
M  V30 3250 H 332.124 -3.56009 -1.64316 0
M  V30 3251 H 333.614 -3.27475 -2.59133 0
M  V30 3252 N 334.051 0.0651679 -1.57465 0
M  V30 3253 C 335.299 0.761555 -1.87202 0
M  V30 3254 C 335.62 1.77778 -0.801243 0
M  V30 3255 O 334.89 1.95166 0.16937 0
M  V30 3256 H 333.47 0.284251 -0.690804 0
M  V30 3257 H 336.132 0.0396827 -1.9486 0
M  V30 3258 H 335.228 1.27365 -2.84929 0
M  V30 3259 N 335.529 1.53961 0.336706 0
M  V30 3260 C 336.459 1.85417 1.41925 0
M  V30 3261 C 337.44 0.709856 1.5458 0
M  V30 3262 O 338.625 0.962396 1.68676 0
M  V30 3263 C 335.755 2.06985 2.78881 0
M  V30 3264 C 334.709 3.22813 2.81026 0
M  V30 3265 C 334.035 3.29727 4.20932 0
M  V30 3266 C 335.335 4.60767 2.45949 0
M  V30 3267 H 337.029 2.76079 1.15848 0
M  V30 3268 H 334.575 1.32839 0.555859 0
M  V30 3269 H 336.528 2.27575 3.54665 0
M  V30 3270 H 335.252 1.13061 3.06406 0
M  V30 3271 H 333.911 3.0209 2.07695 0
M  V30 3272 H 333.559 2.33385 4.45579 0
M  V30 3273 H 333.259 4.07566 4.23277 0
M  V30 3274 H 334.783 3.52536 4.98549 0
M  V30 3275 H 336.197 4.81325 3.11446 0
M  V30 3276 H 334.594 5.4106 2.59566 0
M  V30 3277 H 335.664 4.6391 1.41122 0
M  V30 3278 N 337.007 -0.598083 1.45811 0
M  V30 3279 C 338.255 -1.35413 1.50026 0
M  V30 3280 C 338.576 -1.94444 0.147177 0
M  V30 3281 O 337.846 -1.77701 -0.824571 0
M  V30 3282 H 336.426 -0.502727 0.552517 0
M  V30 3283 H 339.088 -0.701606 1.81834 0
M  V30 3284 H 338.184 -2.16871 2.2444 0
M  V30 3285 N 338.485 -1.33259 -0.841409 0
M  V30 3286 C 339.448 -1.23221 -1.9326 0
M  V30 3287 C 340.448 -0.151895 -1.60081 0
M  V30 3288 O 341.638 -0.403246 -1.69468 0
M  V30 3289 C 338.77 -0.898123 -3.28856 0
M  V30 3290 H 339.963 -2.2021 -2.03587 0
M  V30 3291 H 337.516 -1.17281 -1.03319 0
M  V30 3292 H 338.251 0.0693841 -3.24226 0
M  V30 3293 H 338.036 -1.67934 -3.54317 0
M  V30 3294 H 339.526 -0.852563 -4.08805 0
M  V30 3295 N 339.963 1.05934 -1.16686 0
M  V30 3296 C 341.374 1.60263 -0.957745 0
M  V30 3297 C 341.725 1.89789 0.49745 0
M  V30 3298 O 340.85 1.67401 1.37135 0
M  V30 3299 C 341.445 2.91172 -1.73218 0
M  V30 3300 C 340.004 3.42188 -1.56794 0
M  V30 3301 C 339.151 2.16028 -1.73859 0
M  V30 3302 H 342.102 0.888392 -1.31504 0
M  V30 3303 H 342.123 3.60744 -1.21014 0
M  V30 3304 H 341.635 2.6965 -2.79124 0
M  V30 3305 H 339.736 3.68762 -0.533437 0
M  V30 3306 H 339.849 4.17273 -2.35414 0
M  V30 3307 H 338.213 2.26426 -1.16633 0
M  V30 3308 H 338.996 1.96985 -2.81161 0
M  V30 3309 N 341.441 0.965919 1.2453 0
M  V30 3310 C 342.689 0.625593 1.92174 0
M  V30 3311 C 343.01 -0.841652 1.75901 0
M  V30 3312 O 342.28 -1.60061 1.12948 0
M  V30 3313 H 340.86 0.228388 0.71123 0
M  V30 3314 H 343.522 1.2266 1.51461 0
M  V30 3315 H 342.618 0.864653 2.99884 0
M  V30 3316 N 342.919 -1.39368 0.735821 0
M  V30 3317 C 344.144 -2.05319 0.293052 0
M  V30 3318 C 344.569 -1.55115 -1.064 0
M  V30 3319 O 343.927 -0.695261 -1.67439 0
M  V30 3320 C 343.975 -3.59305 0.305323 0
M  V30 3321 O 343.079 -4.06299 -0.706761 0
M  V30 3322 H 342.42 -0.650529 0.13307 0
M  V30 3323 H 344.95 -1.78386 1.00197 0
M  V30 3324 H 344.96 -4.07724 0.149997 0
M  V30 3325 H 343.635 -3.95207 1.29553 0
M  V30 3326 H 342.212 -3.69292 -0.517504 0
M  V30 3327 N 344.397 -0.483516 -1.5 0
M  V30 3328 C 345.637 0.0657469 -2.04294 0
M  V30 3329 C 346.001 1.35869 -1.35659 0
M  V30 3330 O 347.202 1.99111 -1.80578 0
M  V30 3331 C 345.473 0.232758 -3.56641 0
M  V30 3332 S 347.032 0.738788 -4.32536 0
M  V30 3333 H 343.85 0.0100755 -0.710929 0
M  V30 3334 H 346.452 -0.653494 -1.84254 0
M  V30 3335 H 345.156 -0.713847 -4.04144 0
M  V30 3336 H 344.687 0.977751 -3.81056 0
M  V30 3337 H 346.702 2.01048 -4.53645 0
M  V30 3338 N 345.875 1.56104 -0.216619 0
M  V30 3339 C 346.807 2.17339 0.72776 0
M  V30 3340 C 347.82 1.14109 1.16116 0
M  V30 3341 O 349.009 1.4111 1.09317 0
M  V30 3342 C 346.109 2.73818 1.99693 0
M  V30 3343 C 345.282 4.02168 1.71988 0
M  V30 3344 C 344.341 4.43259 2.83562 0
M  V30 3345 O 343.367 5.10257 2.52244 0
M  V30 3346 N 344.569 4.08535 4.12407 0
M  V30 3347 H 347.334 2.99005 0.203983 0
M  V30 3348 H 344.895 1.61861 -0.0354289 0
M  V30 3349 H 346.887 2.9828 2.73516 0
M  V30 3350 H 345.457 1.96483 2.43132 0
M  V30 3351 H 344.677 3.85612 0.818337 0
M  V30 3352 H 345.965 4.85907 1.50903 0
M  V30 3353 H 345.363 3.54687 4.40696 0
M  V30 3354 H 343.92 4.37901 4.8279 0
M  V30 3355 N 347.353 -0.0568162 1.57498 0
M  V30 3356 C 348.581 -0.765626 1.92213 0
M  V30 3357 C 348.996 -1.70353 0.813961 0
M  V30 3358 O 348.353 -1.81268 -0.211701 0
M  V30 3359 C 348.404 -1.5465 3.2675 0
M  V30 3360 O 348.125 -0.646278 4.33307 0
M  V30 3361 C 349.626 -2.35497 3.75574 0
M  V30 3362 H 346.846 -0.216835 0.634999 0
M  V30 3363 H 349.39 -0.0226146 2.04487 0
M  V30 3364 H 347.545 -2.24165 3.15957 0
M  V30 3365 H 347.959 -1.19093 5.108 0
M  V30 3366 H 349.433 -2.85722 4.72299 0
M  V30 3367 H 349.91 -3.15692 3.05344 0
M  V30 3368 H 350.516 -1.7111 3.8936 0
M  V30 3369 N 348.832 -1.54138 -0.328536 0
M  V30 3370 C 350.08 -1.71765 -1.06496 0
M  V30 3371 C 350.401 -0.49149 -1.88704 0
M  V30 3372 O 349.671 0.494539 -1.89555 0
M  V30 3373 H 348.251 -0.633295 -0.396164 0
M  V30 3374 H 350.913 -1.91429 -0.366176 0
M  V30 3375 H 350.009 -2.5951 -1.73381 0
M  V30 3376 N 350.31 0.590341 -1.46126 0
M  V30 3377 C 351.273 1.68194 -1.55703 0
M  V30 3378 C 352.273 1.54808 -0.434868 0
M  V30 3379 O 353.463 1.59564 -0.698928 0
M  V30 3380 C 350.595 3.07575 -1.47005 0
M  V30 3381 H 351.788 1.61064 -2.52979 0
M  V30 3382 H 349.341 0.807541 -1.33823 0
M  V30 3383 H 350.076 3.20268 -0.509785 0
M  V30 3384 H 349.861 3.187 -2.28414 0
M  V30 3385 H 351.351 3.87055 -1.56776 0
M  V30 3386 N 351.788 1.33704 0.83433 0
M  V30 3387 C 353.199 1.22813 1.4062 0
M  V30 3388 C 353.55 -0.151107 1.95617 0
M  V30 3389 O 352.675 -1.05092 1.89168 0
M  V30 3390 C 353.27 2.22355 2.55624 0
M  V30 3391 C 351.829 2.1529 3.08751 0
M  V30 3392 C 350.976 2.09589 1.8157 0
M  V30 3393 H 353.927 1.45236 0.639702 0
M  V30 3394 H 353.948 1.83391 3.33389 0
M  V30 3395 H 353.46 3.22728 2.15566 0
M  V30 3396 H 351.561 1.18235 3.53343 0
M  V30 3397 H 351.674 3.06038 3.68616 0
M  V30 3398 H 350.038 1.55134 2.02004 0
M  V30 3399 H 350.821 3.11777 1.43701 0
M  V30 3400 N 353.266 -1.05314 1.17247 0
M  V30 3401 C 354.494 -1.81971 0.984593 0
M  V30 3402 C 354.909 -1.82929 -0.467166 0
M  V30 3403 O 354.266 -1.25564 -1.32438 0
M  V30 3404 C 354.317 -3.28143 1.51672 0
M  V30 3405 O 354.038 -3.27347 2.91163 0
M  V30 3406 C 355.539 -4.21493 1.37326 0
M  V30 3407 H 352.759 -0.573455 0.348411 0
M  V30 3408 H 355.303 -1.32808 1.55506 0
M  V30 3409 H 353.458 -3.74582 0.988302 0
M  V30 3410 H 353.872 -4.18824 3.15732 0
M  V30 3411 H 355.346 -5.22043 1.79375 0
M  V30 3412 H 355.823 -4.38031 0.320169 0
M  V30 3413 H 356.429 -3.80909 1.89178 0
M  V30 3414 N 354.744 -0.972509 -1.24016 0
M  V30 3415 C 355.654 -0.5143 -2.28893 0
M  V30 3416 C 356.67 0.427078 -1.68677 0
M  V30 3417 O 357.846 0.298939 -1.99169 0
M  V30 3418 C 354.911 0.183598 -3.46214 0
M  V30 3419 C 353.972 -0.798202 -4.21814 0
M  V30 3420 C 353.205 -0.133514 -5.33533 0
M  V30 3421 O 353.428 1.07714 -5.60137 0
M  V30 3422 O 352.362 -0.828103 -5.96176 0
M  V30 3423 H 356.188 -1.38629 -2.70214 0
M  V30 3424 H 353.773 -0.739769 -1.29799 0
M  V30 3425 H 355.655 0.575433 -4.17453 0
M  V30 3426 H 354.33 1.03048 -3.0686 0
M  V30 3427 H 353.237 -1.24059 -3.52931 0
M  V30 3428 H 354.57 -1.61364 -4.64997 0
M  V30 3429 N 356.222 1.38976 -0.743202 0
M  V30 3430 C 357.45 2.04636 -0.30525 0
M  V30 3431 C 357.865 1.56044 1.06281 0
M  V30 3432 O 357.222 0.728921 1.67311 0
M  V30 3433 C 357.273 3.60193 -0.307177 0
M  V30 3434 O 356.994 4.06998 -1.62124 0
M  V30 3435 C 358.495 4.4306 0.145928 0
M  V30 3436 H 355.715 0.65788 -0.132041 0
M  V30 3437 H 358.259 1.77866 -1.00915 0
M  V30 3438 H 356.414 3.85835 0.347898 0
M  V30 3439 H 356.828 5.01371 -1.54036 0
M  V30 3440 H 358.302 5.51921 0.0934183 0
M  V30 3441 H 358.779 4.22706 1.19231 0
M  V30 3442 H 359.385 4.22584 -0.479886 0
M  V30 3443 N 357.7 0.491464 1.49741 0
M  V30 3444 C 358.946 -0.0565092 2.02721 0
M  V30 3445 C 359.279 -1.37522 1.37118 0
M  V30 3446 O 358.554 -1.87866 0.503645 0
M  V30 3447 C 358.837 -0.219051 3.59433 0
M  V30 3448 C 358.69 1.12211 4.35579 0
M  V30 3449 C 360.009 -0.964157 4.29409 0
M  V30 3450 H 357.128 -0.0190627 0.736753 0
M  V30 3451 H 359.77 0.641021 1.7886 0
M  V30 3452 H 357.92 -0.813165 3.79895 0
M  V30 3453 H 359.592 1.75437 4.26637 0
M  V30 3454 H 357.835 1.71377 3.98513 0
M  V30 3455 H 358.506 0.961794 5.43556 0
M  V30 3456 H 360.982 -0.460378 4.13545 0
M  V30 3457 H 359.858 -1.04671 5.38828 0
M  V30 3458 H 360.119 -2.00563 3.93988 0
M  V30 3459 N 359.178 -1.55987 0.224894 0
M  V30 3460 C 360.426 -1.97998 -0.405099 0
M  V30 3461 C 360.747 -1.11387 -1.60056 0
M  V30 3462 O 360.017 -0.191645 -1.9496 0
M  V30 3463 H 358.597 -0.731235 -0.152658 0
M  V30 3464 H 361.259 -1.92279 0.318567 0
M  V30 3465 H 360.355 -3.03463 -0.729167 0
M  V30 3466 N 360.656 0.0484629 -1.57525 0
M  V30 3467 C 361.904 0.741657 -1.88 0
M  V30 3468 C 362.225 1.76918 -0.820054 0
M  V30 3469 O 361.495 1.95335 0.148661 0
M  V30 3470 H 360.075 0.276908 -0.69378 0
M  V30 3471 H 362.737 0.019013 -1.94891 0
M  V30 3472 H 361.833 1.24336 -2.86264 0
M  V30 3473 N 362.134 1.5431 0.320358 0
M  V30 3474 C 363.082 1.84647 1.4145 0
M  V30 3475 C 364.076 0.718624 1.53402 0
M  V30 3476 O 365.282 0.902335 1.5575 0
M  V30 3477 H 361.657 0.585349 0.472091 0
M  V30 3478 H 363.628 2.7614 1.13089 0
M  V30 3479 C 362.377 2.09341 2.77617 0
M  V30 3480 H 361.7 2.9559 2.69196 0
M  V30 3481 H 363.14 2.3452 3.53237 0
M  V30 3482 C 361.599 0.885939 3.25043 0
M  V30 3483 O 362.129 0.0967891 4.01583 0
M  V30 3484 N 360.335 0.696682 2.82125 0
M  V30 3485 H 359.882 1.34006 2.2 0
M  V30 3486 H 359.84 -0.109712 3.14209 0
M  V30 3487 N 363.613 -0.582584 1.46437 0
M  V30 3488 C 364.841 -1.36682 1.55324 0
M  V30 3489 C 365.256 -1.87796 0.194409 0
M  V30 3490 O 364.613 -1.63623 -0.808318 0
M  V30 3491 C 364.664 -2.55426 2.55812 0
M  V30 3492 O 364.385 -2.0643 3.86417 0
M  V30 3493 C 365.886 -3.47976 2.74641 0
M  V30 3494 H 363.106 -0.417545 0.525259 0
M  V30 3495 H 365.65 -0.708219 1.91845 0
M  V30 3496 H 363.805 -3.17275 2.22295 0
M  V30 3497 H 364.219 -2.83762 4.41111 0
M  V30 3498 H 365.693 -4.27775 3.48874 0
M  V30 3499 H 366.17 -3.99919 1.81553 0
M  V30 3500 H 366.776 -2.91962 3.09255 0
M  V30 3501 N 365.091 -1.34144 -0.827227 0
M  V30 3502 C 366.041 -1.21923 -1.92663 0
M  V30 3503 C 367.025 -0.119294 -1.60457 0
M  V30 3504 O 368.217 -0.348539 -1.73534 0
M  V30 3505 C 365.346 -0.972492 -3.29238 0
M  V30 3506 C 364.432 -2.1154 -3.67576 0
M  V30 3507 N 364.823 -3.36627 -3.77512 0
M  V30 3508 C 363.121 -2.02468 -3.97395 0
M  V30 3509 C 363.822 -4.11658 -4.1099 0
M  V30 3510 N 362.798 -3.40207 -4.23981 0
M  V30 3511 H 366.6 -2.16721 -1.98517 0
M  V30 3512 H 364.114 -1.2632 -1.02064 0
M  V30 3513 H 366.111 -0.865847 -4.0781 0
M  V30 3514 H 364.771 -0.0331509 -3.24683 0
M  V30 3515 H 365.782 -3.71234 -3.61118 0
M  V30 3516 H 362.459 -1.16265 -4.00985 0
M  V30 3517 H 363.849 -5.19657 -4.25918 0
M  V30 3518 N 366.569 1.04691 -1.17803 0
M  V30 3519 C 367.499 2.14494 -0.92275 0
M  V30 3520 C 368.48 1.69546 0.137179 0
M  V30 3521 O 369.665 1.94195 -0.0141108 0
M  V30 3522 C 366.795 3.44491 -0.440803 0
M  V30 3523 C 365.749 4.03031 -1.4405 0
M  V30 3524 C 365.075 5.28432 -0.81631 0
M  V30 3525 C 366.375 4.39932 -2.81527 0
M  V30 3526 H 368.069 2.36107 -1.84103 0
M  V30 3527 H 365.615 1.1347 -0.886599 0
M  V30 3528 H 367.568 4.2066 -0.249602 0
M  V30 3529 H 366.292 3.22546 0.513025 0
M  V30 3530 H 364.951 3.28937 -1.61853 0
M  V30 3531 H 364.599 5.02792 0.144511 0
M  V30 3532 H 364.299 5.68559 -1.48371 0
M  V30 3533 H 365.823 6.07284 -0.635496 0
M  V30 3534 H 367.237 5.07113 -2.67412 0
M  V30 3535 H 365.634 4.9109 -3.44892 0
M  V30 3536 H 366.704 3.50045 -3.35554 0
M  V30 3537 N 368.047 0.979072 1.23499 0
M  V30 3538 C 368.977 0.537606 2.27227 0
M  V30 3539 C 369.958 -0.428539 1.64613 0
M  V30 3540 O 371.143 -0.322191 1.91509 0
M  V30 3541 C 368.273 -0.162052 3.46922 0
M  V30 3542 C 367.227 0.721242 4.21879 0
M  V30 3543 C 366.553 -0.110555 5.34586 0
M  V30 3544 C 367.853 2.01141 4.82016 0
M  V30 3545 H 369.547 1.40462 2.64406 0
M  V30 3546 H 367.093 0.67684 1.27102 0
M  V30 3547 H 369.046 -0.482192 4.18632 0
M  V30 3548 H 367.77 -1.06351 3.08799 0
M  V30 3549 H 366.429 1.02482 3.51984 0
M  V30 3550 H 366.077 -1.0125 4.92704 0
M  V30 3551 H 365.777 0.477325 5.85658 0
M  V30 3552 H 367.301 -0.425107 6.09118 0
M  V30 3553 H 368.715 1.75612 5.45741 0
M  V30 3554 H 367.112 2.54695 5.43369 0
M  V30 3555 H 368.182 2.69909 4.02836 0
M  V30 3556 N 369.525 -1.3858 0.750561 0
M  V30 3557 C 370.755 -2.04175 0.31564 0
M  V30 3558 C 371.163 -1.56726 -1.05989 0
M  V30 3559 O 370.506 -0.734225 -1.68389 0
M  V30 3560 C 370.568 -3.58585 0.256389 0
M  V30 3561 C 370.232 -4.29077 1.57296 0
M  V30 3562 C 371.229 -4.54656 2.52159 0
M  V30 3563 C 368.914 -4.67324 1.84156 0
M  V30 3564 C 370.908 -5.17512 3.72103 0
M  V30 3565 C 368.595 -5.29905 3.04374 0
M  V30 3566 C 369.593 -5.54933 3.98168 0
M  V30 3567 O 369.281 -6.16212 5.16273 0
M  V30 3568 H 369.013 -0.662742 0.133226 0
M  V30 3569 H 371.567 -1.78313 1.01948 0
M  V30 3570 H 369.797 -3.83406 -0.503677 0
M  V30 3571 H 371.486 -4.05628 -0.148612 0
M  V30 3572 H 372.252 -4.25539 2.32683 0
M  V30 3573 H 368.131 -4.47191 1.11988 0
M  V30 3574 H 371.675 -5.36963 4.45327 0
M  V30 3575 H 367.572 -5.58444 3.23745 0
M  V30 3576 H 368.34 -6.34701 5.16815 0
M  V30 3577 N 371.003 -0.499398 -1.49478 0
M  V30 3578 C 372.228 0.044722 -2.07352 0
M  V30 3579 C 372.653 1.30207 -1.35749 0
M  V30 3580 O 372.011 1.76516 -0.413732 0
M  V30 3581 C 372.059 0.283013 -3.59488 0
M  V30 3582 O 371.163 1.35804 -3.89398 0
M  V30 3583 H 370.504 -0.0255147 -0.66351 0
M  V30 3584 H 373.034 -0.698561 -1.92305 0
M  V30 3585 H 373.044 0.515007 -4.04737 0
M  V30 3586 H 371.719 -0.635636 -4.11014 0
M  V30 3587 H 370.296 1.11113 -3.55961 0
M  V30 3588 N 372.481 1.55866 -0.233164 0
M  V30 3589 C 373.727 1.99643 0.389148 0
M  V30 3590 C 374.082 1.11836 1.56558 0
M  V30 3591 O 373.375 0.170848 1.90837 0
M  V30 3592 C 373.569 3.46856 0.861724 0
M  V30 3593 C 373.398 4.48904 -0.267376 0
M  V30 3594 C 372.168 4.99888 -0.737577 0
M  V30 3595 C 374.366 5.02624 -1.08966 0
M  V30 3596 N 372.348 5.8566 -1.84052 0
M  V30 3597 C 373.719 5.85434 -2.04125 0
M  V30 3598 C 375.774 4.84959 -1.12779 0
M  V30 3599 C 374.477 6.52466 -3.02789 0
M  V30 3600 C 376.503 5.52759 -2.10266 0
M  V30 3601 C 375.865 6.35346 -3.04162 0
M  V30 3602 H 371.964 0.774402 0.108742 0
M  V30 3603 H 374.548 1.91572 -0.347596 0
M  V30 3604 H 372.719 3.55352 1.5678 0
M  V30 3605 H 374.451 3.77531 1.45783 0
M  V30 3606 H 371.206 4.7249 -0.324122 0
M  V30 3607 H 371.63 6.33246 -2.39434 0
M  V30 3608 H 376.272 4.20751 -0.415749 0
M  V30 3609 H 373.99 7.15849 -3.74948 0
M  V30 3610 H 377.576 5.41051 -2.13905 0
M  V30 3611 H 376.456 6.86883 -3.78366 0
M  V30 3612 N 373.959 -0.0401083 1.57549 0
M  V30 3613 C 374.922 -1.02871 2.04817 0
M  V30 3614 C 375.922 -1.29708 0.950388 0
M  V30 3615 O 377.112 -1.24897 1.21435 0
M  V30 3616 C 374.244 -2.36443 2.45576 0
M  V30 3617 H 375.437 -0.620631 2.93408 0
M  V30 3618 H 372.99 -0.286667 1.53649 0
M  V30 3619 H 373.725 -2.82021 1.60108 0
M  V30 3620 H 373.51 -2.18296 3.25713 0
M  V30 3621 H 375 -3.07441 2.82612 0
M  V30 3622 N 375.437 -1.54477 -0.31217 0
M  V30 3623 C 376.685 -1.72884 -1.04668 0
M  V30 3624 C 377.006 -0.511477 -1.88173 0
M  V30 3625 O 376.276 0.474407 -1.90069 0
M  V30 3626 H 374.856 -0.637461 -0.389425 0
M  V30 3627 H 377.518 -1.91807 -0.345852 0
M  V30 3628 H 376.614 -2.61334 -1.70619 0
M  V30 3629 N 376.915 0.57481 -1.46744 0
M  V30 3630 C 378.143 1.35856 -1.56047 0
M  V30 3631 C 378.558 1.87691 -0.204365 0
M  V30 3632 O 377.915 1.64049 0.79963 0
M  V30 3633 C 377.966 2.54066 -2.57163 0
M  V30 3634 O 377.687 2.04377 -3.87507 0
M  V30 3635 C 379.188 3.46514 -2.76483 0
M  V30 3636 H 376.408 0.414754 -0.527466 0
M  V30 3637 H 378.952 0.698035 -1.92218 0
M  V30 3638 H 377.107 3.16092 -2.23974 0
M  V30 3639 H 377.521 2.81419 -4.4261 0
M  V30 3640 H 378.995 4.25919 -3.51137 0
M  V30 3641 H 379.472 3.98951 -1.83671 0
M  V30 3642 H 380.078 2.90318 -3.10799 0
M  V30 3643 N 378.394 1.34581 0.820102 0
M  V30 3644 C 379.357 1.2628 1.91275 0
M  V30 3645 C 380.357 0.177344 1.59819 0
M  V30 3646 O 381.547 0.430156 1.68806 0
M  V30 3647 C 378.679 0.950327 3.27386 0
M  V30 3648 H 379.872 2.23421 2.00057 0
M  V30 3649 H 377.425 1.1891 1.0144 0
M  V30 3650 H 378.16 -0.0177938 3.24295 0
M  V30 3651 H 377.945 1.73549 3.51601 0
M  V30 3652 H 379.435 0.917492 4.07396 0
M  V30 3653 N 379.872 -1.04064 1.18357 0
M  V30 3654 C 381.121 -1.76662 0.973313 0
M  V30 3655 C 381.434 -1.89154 -0.497991 0
M  V30 3656 O 382.64 -2.58606 -0.826762 0
M  V30 3657 C 381.096 -3.17624 1.69242 0
M  V30 3658 C 380.704 -3.13225 3.20303 0
M  V30 3659 C 382.448 -3.946 1.56497 0
M  V30 3660 C 380.355 -4.49046 3.84853 0
M  V30 3661 H 379.285 -0.662214 0.36054 0
M  V30 3662 H 381.936 -1.16553 1.41731 0
M  V30 3663 H 380.318 -3.78129 1.1762 0
M  V30 3664 H 381.492 -2.62172 3.78949 0
M  V30 3665 H 379.807 -2.49749 3.33189 0
M  V30 3666 H 382.404 -4.95042 2.02084 0
M  V30 3667 H 382.747 -4.13074 0.517243 0
M  V30 3668 H 383.28 -3.4067 2.05399 0
M  V30 3669 H 380.019 -4.35777 4.89672 0
M  V30 3670 H 379.539 -5.00203 3.30994 0
M  V30 3671 H 381.218 -5.17961 3.87718 0
M  V30 3672 N 381.35 -0.985608 -1.22978 0
M  V30 3673 C 382.282 -0.488154 -2.23941 0
M  V30 3674 C 383.295 0.41282 -1.57479 0
M  V30 3675 O 384.484 0.216121 -1.77187 0
M  V30 3676 C 381.584 0.312611 -3.37455 0
M  V30 3677 C 380.757 -0.582741 -4.33501 0
M  V30 3678 C 379.816 0.165064 -5.25941 0
M  V30 3679 O 378.842 -0.447077 -5.67442 0
M  V30 3680 N 380.044 1.44953 -5.62111 0
M  V30 3681 H 382.809 -1.3563 -2.67254 0
M  V30 3682 H 380.37 -0.859477 -1.37203 0
M  V30 3683 H 382.362 0.821357 -3.96277 0
M  V30 3684 H 380.932 1.0818 -2.93285 0
M  V30 3685 H 380.152 -1.27225 -3.73105 0
M  V30 3686 H 381.44 -1.19275 -4.94622 0
M  V30 3687 H 380.838 1.9683 -5.30353 0
M  V30 3688 H 379.395 1.90361 -6.23383 0
M  V30 3689 N 382.828 1.3818 -0.7579 0
M  V30 3690 C 384.239 1.82726 -0.383134 0
M  V30 3691 C 384.59 1.63214 1.08884 0
M  V30 3692 O 383.715 1.13566 1.84205 0
M  V30 3693 C 384.31 3.31728 -0.688631 0
M  V30 3694 C 382.869 3.74606 -0.367091 0
M  V30 3695 C 382.016 2.60896 -0.939599 0
M  V30 3696 H 384.967 1.26847 -0.953699 0
M  V30 3697 H 384.988 3.80487 0.0316492 0
M  V30 3698 H 384.5 3.45898 -1.76001 0
M  V30 3699 H 382.601 3.66013 0.697532 0
M  V30 3700 H 382.714 4.71215 -0.865658 0
M  V30 3701 H 381.078 2.52075 -0.3647 0
M  V30 3702 H 381.861 2.77864 -2.0161 0
M  V30 3703 N 384.306 0.507319 1.49211 0
M  V30 3704 C 385.534 -0.0315749 2.06876 0
M  V30 3705 C 385.949 -1.30241 1.36685 0
M  V30 3706 O 385.306 -1.76937 0.447152 0
M  V30 3707 C 385.357 -0.282627 3.60393 0
M  V30 3708 O 385.078 0.937835 4.27944 0
M  V30 3709 C 386.579 -0.864453 4.3479 0
M  V30 3710 H 383.799 0.0233048 0.670595 0
M  V30 3711 H 386.343 0.706484 1.91909 0
M  V30 3712 H 384.498 -0.97068 3.75042 0
M  V30 3713 H 384.912 0.704567 5.19746 0
M  V30 3714 H 386.386 -0.989664 5.43056 0
M  V30 3715 H 386.863 -1.86382 3.97692 0
M  V30 3716 H 387.469 -0.213672 4.24763 0
M  V30 3717 N 385.784 -1.5574 0.241426 0
M  V30 3718 C 386.714 -2.24133 -0.654722 0
M  V30 3719 C 387.695 -1.21974 -1.1856 0
M  V30 3720 O 388.88 -1.50612 -1.22595 0
M  V30 3721 C 386.01 -2.93659 -1.85423 0
M  V30 3722 C 384.964 -4.0246 -1.45636 0
M  V30 3723 C 384.29 -4.59383 -2.73626 0
M  V30 3724 C 385.59 -5.18468 -0.631506 0
M  V30 3725 H 387.284 -2.99281 -0.0844353 0
M  V30 3726 H 384.83 -1.43947 -0.0391707 0
M  V30 3727 H 386.783 -3.40203 -2.48676 0
M  V30 3728 H 385.507 -2.15991 -2.44981 0
M  V30 3729 H 384.166 -3.56676 -0.847202 0
M  V30 3730 H 383.814 -3.78422 -3.3137 0
M  V30 3731 H 383.514 -5.32826 -2.4773 0
M  V30 3732 H 385.038 -5.08658 -3.37786 0
M  V30 3733 H 386.452 -5.61272 -1.1682 0
M  V30 3734 H 384.849 -5.98266 -0.468831 0
M  V30 3735 H 385.919 -4.8358 0.357506 0
M  V30 3736 N 387.262 0.0317525 -1.57568 0
M  V30 3737 C 388.487 0.738664 -1.938 0
M  V30 3738 C 388.912 1.68242 -0.841208 0
M  V30 3739 O 388.27 1.80157 0.203267 0
M  V30 3740 C 388.318 1.47417 -3.29091 0
M  V30 3741 O 387.422 2.5872 -3.2115 0
M  V30 3742 H 386.763 0.198856 -0.633524 0
M  V30 3743 H 389.293 -0.0119713 -2.04596 0
M  V30 3744 H 389.303 1.84468 -3.63917 0
M  V30 3745 H 387.978 0.781988 -4.08482 0
M  V30 3746 H 386.555 2.24231 -2.97951 0
M  V30 3747 N 388.74 1.54641 0.303973 0
M  V30 3748 C 389.986 1.74038 1.04109 0
M  V30 3749 C 390.319 0.523051 1.87024 0
M  V30 3750 O 389.594 -0.479874 1.88487 0
M  V30 3751 C 389.877 3.02761 1.94955 0
M  V30 3752 C 389.73 4.34787 1.1524 0
M  V30 3753 C 391.049 3.27336 2.94175 0
M  V30 3754 H 388.168 0.63323 0.377079 0
M  V30 3755 H 390.81 1.87354 0.316001 0
M  V30 3756 H 388.96 2.9154 2.56782 0
M  V30 3757 H 390.632 4.57922 0.557236 0
M  V30 3758 H 388.875 4.31407 0.455053 0
M  V30 3759 H 389.546 5.21116 1.8205 0
M  V30 3760 H 392.022 3.38148 2.42477 0
M  V30 3761 H 390.898 4.18726 3.54908 0
M  V30 3762 H 391.159 2.45491 3.67677 0
M  V30 3763 N 390.218 -0.567019 1.47046 0
M  V30 3764 C 391.465 -1.32462 1.53167 0
M  V30 3765 C 391.793 -1.93571 0.189841 0
M  V30 3766 O 391.048 -1.77865 -0.816243 0
M  V30 3767 C 391.347 -2.4623 2.59047 0
M  V30 3768 C 391.013 -2.03014 4.02612 0
M  V30 3769 C 389.675 -1.90944 4.41694 0
M  V30 3770 C 392.027 -1.69895 4.92732 0
M  V30 3771 C 389.355 -1.44035 5.68745 0
M  V30 3772 C 391.707 -1.2446 6.20236 0
M  V30 3773 C 390.371 -1.10979 6.5821 0
M  V30 3774 H 389.641 -0.484713 0.560477 0
M  V30 3775 H 392.288 -0.636888 1.80599 0
M  V30 3776 H 390.593 -3.20517 2.25335 0
M  V30 3777 H 392.29 -3.04427 2.61008 0
M  V30 3778 H 388.88 -2.13348 3.71726 0
M  V30 3779 H 393.064 -1.78098 4.63244 0
M  V30 3780 H 388.32 -1.32254 5.96925 0
M  V30 3781 H 392.494 -0.978924 6.89485 0
M  V30 3782 H 390.121 -0.744078 7.5655 0
M  V30 3783 N 391.696 -1.35014 -0.812953 0
M  V30 3784 C 392.944 -1.27678 -1.56661 0
M  V30 3785 C 393.265 0.150359 -1.94419 0
M  V30 3786 O 392.535 1.08532 -1.63088 0
M  V30 3787 H 391.115 -0.469602 -0.580933 0
M  V30 3788 H 393.777 -1.69043 -0.970076 0
M  V30 3789 H 392.873 -1.88833 -2.48492 0
M  V30 3790 N 393.175 1.03435 -1.18907 0
M  V30 3791 C 394.421 1.77005 -0.989798 0
M  V30 3792 C 394.754 1.88205 0.478816 0
M  V30 3793 O 394.029 1.39481 1.35556 0
M  V30 3794 C 394.312 3.19925 -1.65287 0
M  V30 3795 C 394.165 3.1663 -3.19477 0
M  V30 3796 C 395.484 4.18189 -1.37134 0
M  V30 3797 H 392.603 0.642538 -0.360991 0
M  V30 3798 H 395.245 1.20784 -1.46667 0
M  V30 3799 H 393.395 3.67929 -1.24741 0
M  V30 3800 H 395.067 2.76567 -3.692 0
M  V30 3801 H 393.31 2.54491 -3.51307 0
M  V30 3802 H 393.981 4.1758 -3.61013 0
M  V30 3803 H 396.457 3.78761 -1.72276 0
M  V30 3804 H 395.333 5.16394 -1.86087 0
M  V30 3805 H 395.594 4.41112 -0.295424 0
M  V30 3806 N 394.653 0.992116 1.22453 0
M  V30 3807 C 395.881 0.685944 1.95198 0
M  V30 3808 C 396.296 -0.749233 1.73297 0
M  V30 3809 O 395.653 -1.50549 1.03156 0
M  V30 3810 C 395.704 0.981395 3.47924 0
M  V30 3811 O 395.425 2.36018 3.6909 0
M  V30 3812 C 396.926 0.692815 4.37853 0
M  V30 3813 H 394.146 0.253821 0.621141 0
M  V30 3814 H 396.69 1.32668 1.55626 0
M  V30 3815 H 394.845 0.386481 3.85467 0
M  V30 3816 H 395.259 2.45884 4.63294 0
M  V30 3817 H 396.733 0.949818 5.43767 0
M  V30 3818 H 397.21 -0.373181 4.37612 0
M  V30 3819 H 397.816 1.26874 4.05935 0
M  V30 3820 N 396.131 -1.37776 0.765217 0
M  V30 3821 C 397.379 -1.99454 0.325943 0
M  V30 3822 C 397.7 -1.61049 -1.09947 0
M  V30 3823 O 396.97 -0.872821 -1.75381 0
M  V30 3824 H 395.55 -0.737697 0.117525 0
M  V30 3825 H 398.212 -1.68359 0.981895 0
M  V30 3826 H 397.308 -3.09547 0.398353 0
M  V30 3827 N 397.609 -0.515225 -1.4894 0
M  V30 3828 C 398.572 0.244681 -2.2789 0
M  V30 3829 C 399.572 0.881166 -1.34507 0
M  V30 3830 O 400.762 0.743497 -1.57537 0
M  V30 3831 C 397.894 1.35247 -3.12923 0
M  V30 3832 H 399.087 -0.448289 -2.96531 0
M  V30 3833 H 396.64 -0.270656 -1.53939 0
M  V30 3834 H 397.375 2.07916 -2.48881 0
M  V30 3835 H 397.16 0.901374 -3.81599 0
M  V30 3836 H 398.65 1.88737 -3.72516 0
M  V30 3837 N 399.087 1.5561 -0.249682 0
M  V30 3838 C 400.315 2.03411 0.378352 0
M  V30 3839 C 400.73 1.12886 1.51335 0
M  V30 3840 O 400.087 0.143833 1.81932 0
M  V30 3841 C 400.138 3.50537 0.88351 0
M  V30 3842 O 399.859 4.37614 -0.20626 0
M  V30 3843 C 401.36 4.14113 1.58195 0
M  V30 3844 H 398.58 0.664994 0.08958 0
M  V30 3845 H 401.124 2.01044 -0.374357 0
M  V30 3846 H 399.279 3.5343 1.58639 0
M  V30 3847 H 399.693 5.24199 0.177782 0
M  V30 3848 H 401.167 5.18741 1.8871 0
M  V30 3849 H 401.644 3.60767 2.50487 0
M  V30 3850 H 402.25 4.15151 0.923573 0
M  V30 3851 N 400.565 -0.0233959 1.57583 0
M  V30 3852 C 401.842 -0.748794 1.807 0
M  V30 3853 C 402.222 -1.9327 0.849106 0
M  V30 3854 O 401.57 -2.28247 -0.107468 0
M  V30 3855 C 401.78 -1.17651 3.28571 0
M  V30 3856 C 403.128 -1.59008 3.93702 0
M  V30 3857 O 404.152 -1.27094 3.32755 0
M  V30 3858 O 403.011 -2.18264 5.01022 0
M  V30 3859 H 400.105 -0.362578 0.743281 0
M  V30 3860 H 402.651 0.000261958 1.697 0
M  V30 3861 H 401.423 -0.331603 3.89892 0
M  V30 3862 H 401.046 -1.98541 3.44481 0
M  V30 3863 N 402.043 -1.548 -0.295768 0
M  V30 3864 C 403.271 -1.78327 -1.04914 0
M  V30 3865 C 403.686 -0.545316 -1.80753 0
M  V30 3866 O 403.043 0.485013 -1.75937 0
M  V30 3867 C 403.094 -2.99418 -2.02561 0
M  V30 3868 O 402.815 -4.18431 -1.29798 0
M  V30 3869 C 404.316 -3.35375 -2.89895 0
M  V30 3870 H 401.536 -0.594618 -0.310918 0
M  V30 3871 H 404.08 -2.01763 -0.333454 0
M  V30 3872 H 402.235 -2.78175 -2.69624 0
M  V30 3873 H 402.649 -4.86736 -1.95419 0
M  V30 3874 H 404.123 -4.23332 -3.54251 0
M  V30 3875 H 404.6 -2.53761 -3.58472 0
M  V30 3876 H 405.206 -3.58796 -2.28355 0
M  V30 3877 N 403.521 0.559213 -1.47345 0
M  V30 3878 C 404.746 1.34676 -1.57725 0
M  V30 3879 C 405.171 1.86723 -0.227164 0
M  V30 3880 O 404.529 1.6286 0.796642 0
M  V30 3881 C 404.577 2.49399 -2.60447 0
M  V30 3882 O 403.681 3.51567 -2.15578 0
M  V30 3883 H 403.022 0.400115 -0.52991 0
M  V30 3884 H 405.552 0.676009 -1.93109 0
M  V30 3885 H 405.562 2.95996 -2.80803 0
M  V30 3886 H 404.237 2.10873 -3.58477 0
M  V30 3887 H 402.814 3.11289 -2.05313 0
M  V30 3888 N 404.999 1.35443 0.805782 0
M  V30 3889 C 406.227 1.31878 1.59423 0
M  V30 3890 C 406.642 -0.103562 1.88516 0
M  V30 3891 O 405.999 -1.05575 1.48863 0
M  V30 3892 C 406.05 2.12426 2.92502 0
M  V30 3893 O 405.771 3.49115 2.6467 0
M  V30 3894 C 407.272 2.16455 3.86862 0
M  V30 3895 H 404.492 0.453002 0.495005 0
M  V30 3896 H 407.036 1.78309 1.00131 0
M  V30 3897 H 405.191 1.69593 3.48306 0
M  V30 3898 H 405.605 3.90957 3.49647 0
M  V30 3899 H 407.079 2.77204 4.77349 0
M  V30 3900 H 407.556 1.16352 4.23508 0
M  V30 3901 H 408.162 2.59453 3.36993 0
M  V30 3902 N 406.477 -1.02803 1.19454 0
M  V30 3903 C 407.407 -2.12999 0.956758 0
M  V30 3904 C 408.388 -1.69743 -0.110188 0
M  V30 3905 O 409.573 -1.94148 0.0450038 0
M  V30 3906 C 406.703 -3.43746 0.495553 0
M  V30 3907 C 405.657 -4.00688 1.50443 0
M  V30 3908 C 404.983 -5.27067 0.900275 0
M  V30 3909 C 406.283 -4.35397 2.8849 0
M  V30 3910 H 407.977 -2.33148 1.87836 0
M  V30 3911 H 405.523 -1.12045 0.904539 0
M  V30 3912 H 407.476 -4.2021 0.316493 0
M  V30 3913 H 406.2 -3.23321 -0.461646 0
M  V30 3914 H 404.859 -3.2632 1.67065 0
M  V30 3915 H 404.507 -5.02959 -0.064503 0
M  V30 3916 H 404.207 -5.66127 1.57397 0
M  V30 3917 H 405.731 -6.06196 0.73203 0
M  V30 3918 H 407.145 -5.02795 2.75446 0
M  V30 3919 H 405.542 -4.85541 3.52661 0
M  V30 3920 H 406.612 -3.44662 3.41081 0
M  V30 3921 N 407.956 -0.998596 -1.21925 0
M  V30 3922 C 409.367 -0.711939 -1.72593 0
M  V30 3923 C 409.718 0.770842 -1.80423 0
M  V30 3924 O 408.843 1.60237 -1.4544 0
M  V30 3925 C 409.438 -1.28567 -3.13458 0
M  V30 3926 C 407.997 -1.04828 -3.61508 0
M  V30 3927 C 407.144 -1.4024 -2.39224 0
M  V30 3928 H 410.095 -1.17027 -1.07193 0
M  V30 3929 H 410.116 -0.667098 -3.74607 0
M  V30 3930 H 409.628 -2.36486 -3.07727 0
M  V30 3931 H 407.729 0.0140383 -3.72597 0
M  V30 3932 H 407.842 -1.71566 -4.47328 0
M  V30 3933 H 406.206 -0.821077 -2.41103 0
M  V30 3934 H 406.989 -2.49176 -2.36149 0
M  V30 3935 N 409.434 1.37368 -0.772513 0
M  V30 3936 C 410.364 2.32856 -0.173304 0
M  V30 3937 C 411.345 1.55818 0.682262 0
M  V30 3938 O 412.53 1.84052 0.619566 0
M  V30 3939 C 409.66 3.40048 0.706007 0
M  V30 3940 C 408.614 4.27973 -0.0483144 0
M  V30 3941 C 407.94 5.26184 0.950491 0
M  V30 3942 C 409.24 5.07665 -1.22776 0
M  V30 3943 H 410.934 2.83217 -0.971002 0
M  V30 3944 H 408.48 1.3617 -0.468377 0
M  V30 3945 H 410.433 4.05827 1.13501 0
M  V30 3946 H 409.157 2.88214 1.53623 0
M  V30 3947 H 407.816 3.63726 -0.458107 0
M  V30 3948 H 407.464 4.7063 1.77529 0
M  V30 3949 H 407.164 5.85872 0.450314 0
M  V30 3950 H 408.688 5.94838 1.37842 0
M  V30 3951 H 410.102 5.66578 -0.875366 0
M  V30 3952 H 408.499 5.76681 -1.66007 0
M  V30 3953 H 409.569 4.40294 -2.03149 0
M  V30 3954 N 410.912 0.523116 1.48665 0
M  V30 3955 C 412.158 -0.0134963 2.02796 0
M  V30 3956 C 412.491 -1.34582 1.40004 0
M  V30 3957 O 411.766 -1.86756 0.543381 0
M  V30 3958 C 412.049 -0.14276 3.59817 0
M  V30 3959 C 411.902 1.21425 4.331 0
M  V30 3960 C 413.221 -0.872856 4.31357 0
M  V30 3961 H 410.34 -0.00343074 0.736992 0
M  V30 3962 H 412.982 0.678816 1.7746 0
M  V30 3963 H 411.132 -0.732401 3.81534 0
M  V30 3964 H 412.804 1.84447 4.2282 0
M  V30 3965 H 411.047 1.79791 3.94788 0
M  V30 3966 H 411.718 1.07687 5.41394 0
M  V30 3967 H 414.194 -0.372555 4.14429 0
M  V30 3968 H 413.07 -0.932185 5.40927 0
M  V30 3969 H 413.331 -1.92161 3.98154 0
M  V30 3970 N 412.39 -1.55475 0.257931 0
M  V30 3971 C 413.667 -1.91155 -0.414629 0
M  V30 3972 C 414.047 -1.18008 -1.75035 0
M  V30 3973 O 413.395 -0.301193 -2.26506 0
M  V30 3974 C 413.605 -3.44283 -0.571859 0
M  V30 3975 C 414.953 -4.15744 -0.862678 0
M  V30 3976 O 415.977 -3.50083 -0.657314 0
M  V30 3977 O 414.836 -5.31909 -1.2544 0
M  V30 3978 H 411.93 -0.796016 -0.22425 0
M  V30 3979 H 414.476 -1.66976 0.302814 0
M  V30 3980 H 413.248 -3.89558 0.368844 0
M  V30 3981 H 412.871 -3.7436 -1.33943 0
M  V30 3982 N 413.868 0.0150385 -1.57593 0
M  V30 3983 C 415.279 0.559832 -1.78109 0
M  V30 3984 C 415.63 1.74814 -0.890756 0
M  V30 3985 O 414.755 2.16216 -0.0892482 0
M  V30 3986 C 415.35 1.02238 -3.23006 0
M  V30 3987 C 413.909 1.51258 -3.44671 0
M  V30 3988 C 413.056 0.456955 -2.73509 0
M  V30 3989 H 416.007 -0.211169 -1.57289 0
M  V30 3990 H 416.028 1.88912 -3.30292 0
M  V30 3991 H 415.54 0.157302 -3.87781 0
M  V30 3992 H 413.641 2.39905 -2.8509 0
M  V30 3993 H 413.754 1.55042 -4.5332 0
M  V30 3994 H 412.118 0.915196 -2.37689 0
M  V30 3995 H 412.901 -0.398896 -3.40975 0
M  V30 3996 N 415.346 1.54954 0.287554 0
M  V30 3997 C 416.309 1.86076 1.33823 0
M  V30 3998 C 417.309 0.734414 1.43049 0
M  V30 3999 O 418.499 1.00266 1.42452 0
M  V30 4000 C 415.631 2.05305 2.72144 0
M  V30 4001 H 416.824 2.79984 1.07465 0
M  V30 4002 H 414.377 1.47223 0.524902 0
M  V30 4003 H 415.112 1.1373 3.03704 0
M  V30 4004 H 414.897 2.873 2.66836 0
M  V30 4005 H 416.387 2.30706 3.48087 0
M  V30 4006 N 416.824 -0.551391 1.4764 0
M  V30 4007 C 417.772 -1.67896 1.60978 0
M  V30 4008 C 418.766 -1.62549 0.476877 0
M  V30 4009 O 419.972 -1.67664 0.654878 0
M  V30 4010 H 416.347 -0.555649 0.506713 0
M  V30 4011 H 418.318 -1.53784 2.55721 0
M  V30 4012 C 417.067 -3.06234 1.64669 0
M  V30 4013 H 416.39 -3.11033 2.51194 0
M  V30 4014 H 417.83 -3.84804 1.7805 0
M  V30 4015 C 416.289 -3.34737 0.381115 0
M  V30 4016 O 416.819 -3.98381 -0.515297 0
M  V30 4017 N 415.025 -2.8944 0.259354 0
M  V30 4018 H 414.572 -2.37827 0.98976 0
M  V30 4019 H 414.53 -3.08882 -0.586464 0
M  V30 4020 N 418.302 -1.35869 -0.798587 0
M  V30 4021 C 419.548 -1.2978 -1.55836 0
M  V30 4022 C 419.881 0.125322 -1.93795 0
M  V30 4023 O 419.156 1.07658 -1.61987 0
M  V30 4024 C 419.439 -2.21188 -2.84162 0
M  V30 4025 C 419.292 -3.72155 -2.52628 0
M  V30 4026 C 420.611 -2.11545 -3.85923 0
M  V30 4027 H 417.73 -0.472769 -0.565383 0
M  V30 4028 H 420.372 -1.66341 -0.918192 0
M  V30 4029 H 418.522 -1.90139 -3.38791 0
M  V30 4030 H 420.194 -4.13682 -2.04121 0
M  V30 4031 H 418.437 -3.92042 -1.85704 0
M  V30 4032 H 419.108 -4.31511 -3.44242 0
M  V30 4033 H 421.584 -2.38855 -3.40716 0
M  V30 4034 H 420.46 -2.77688 -4.73477 0
M  V30 4035 H 420.721 -1.09987 -4.282 0
M  V30 4036 N 419.78 1.02168 -1.19998 0
M  V30 4037 C 420.71 2.12488 -0.96804 0
M  V30 4038 C 421.691 1.69799 0.101185 0
M  V30 4039 O 422.876 1.94121 -0.0552993 0
M  V30 4040 C 420.006 3.43479 -0.513776 0
M  V30 4041 C 418.96 3.99884 -1.52566 0
M  V30 4042 C 418.286 5.26582 -0.928214 0
M  V30 4043 C 419.586 4.33861 -2.90795 0
M  V30 4044 H 421.28 2.32149 -1.89069 0
M  V30 4045 H 418.826 1.11564 -0.910468 0
M  V30 4046 H 420.779 4.20036 -0.338774 0
M  V30 4047 H 419.503 3.23561 0.444493 0
M  V30 4048 H 418.162 3.25429 -1.68794 0
M  V30 4049 H 417.81 5.02986 0.0378289 0
M  V30 4050 H 417.51 5.65284 -1.60397 0
M  V30 4051 H 419.034 6.05799 -0.764167 0
M  V30 4052 H 420.448 5.01327 -2.78109 0
M  V30 4053 H 418.845 4.83664 -3.55231 0
M  V30 4054 H 419.915 3.42848 -3.42904 0
M  V30 4055 N 421.258 1.00505 1.21394 0
M  V30 4056 C 422.535 0.603277 1.86064 0
M  V30 4057 C 422.915 -0.919095 1.90042 0
M  V30 4058 O 422.263 -1.80607 1.39977 0
M  V30 4059 C 422.473 1.23772 3.26315 0
M  V30 4060 C 423.821 1.34586 4.02705 0
M  V30 4061 O 424.845 1.19304 3.35626 0
M  V30 4062 O 423.704 1.59169 5.22807 0
M  V30 4063 H 420.798 0.206634 0.800769 0
M  V30 4064 H 423.344 1.1017 1.29076 0
M  V30 4065 H 422.116 2.27848 3.18121 0
M  V30 4066 H 421.739 0.725648 3.90922 0
M  V30 4067 N 422.737 -1.36956 0.779787 0
M  V30 4068 C 423.667 -2.32761 0.185651 0
M  V30 4069 C 424.648 -1.56177 -0.673989 0
M  V30 4070 O 425.833 -1.84378 -0.609797 0
M  V30 4071 C 422.963 -3.40418 -0.687964 0
M  V30 4072 C 421.917 -4.27941 0.0710102 0
M  V30 4073 C 421.243 -5.26681 -0.922573 0
M  V30 4074 C 422.543 -5.07006 1.25467 0
M  V30 4075 H 424.237 -2.82698 0.986008 0
M  V30 4076 H 421.783 -1.3592 0.475592 0
M  V30 4077 H 423.736 -4.06423 -1.11348 0
M  V30 4078 H 422.46 -2.89025 -1.52093 0
M  V30 4079 H 421.119 -3.63478 0.47739 0
M  V30 4080 H 420.767 -4.71565 -1.7503 0
M  V30 4081 H 420.467 -5.86103 -0.419237 0
M  V30 4082 H 421.991 -5.9556 -1.34686 0
M  V30 4083 H 423.405 -5.66105 0.905401 0
M  V30 4084 H 421.802 -5.75793 1.69063 0
M  V30 4085 H 422.872 -4.3921 2.05481 0
M  V30 4086 N 424.215 -0.530993 -1.48385 0
M  V30 4087 C 425.44 0.000729535 -2.074 0
M  V30 4088 C 425.865 1.27298 -1.3848 0
M  V30 4089 O 425.223 1.75599 -0.451081 0
M  V30 4090 C 425.271 0.206697 -3.60007 0
M  V30 4091 O 424.375 1.27514 -3.92191 0
M  V30 4092 H 423.716 -0.039583 -0.662819 0
M  V30 4093 H 426.246 -0.739194 -1.9078 0
M  V30 4094 H 426.256 0.42904 -4.05738 0
M  V30 4095 H 424.931 -0.722675 -4.09573 0
M  V30 4096 H 423.508 1.03537 -3.58238 0
M  V30 4097 N 425.693 1.55336 -0.266172 0
M  V30 4098 C 426.921 2.03801 0.356756 0
M  V30 4099 C 427.336 1.14485 1.50129 0
M  V30 4100 O 426.693 0.163121 1.8177 0
M  V30 4101 C 426.744 3.51455 0.846281 0
M  V30 4102 O 426.465 4.37371 -0.252663 0
M  V30 4103 C 427.966 4.15767 1.53794 0
M  V30 4104 H 425.186 0.665906 0.0825218 0
M  V30 4105 H 427.73 2.00636 -0.39566 0
M  V30 4106 H 425.885 3.55092 1.54881 0
M  V30 4107 H 426.299 5.24358 0.122173 0
M  V30 4108 H 427.773 5.20714 1.83198 0
M  V30 4109 H 428.25 3.63404 2.46646 0
M  V30 4110 H 428.856 4.16107 0.879488 0
M  V30 4111 N 427.171 -0.0066808 1.57599 0
M  V30 4112 C 428.101 -0.999296 2.11036 0
M  V30 4113 C 429.082 -1.36278 1.01795 0
M  V30 4114 O 430.267 -1.4477 1.29442 0
M  V30 4115 C 427.397 -2.29328 2.60818 0
M  V30 4116 C 426.351 -2.07159 3.74525 0
M  V30 4117 C 425.677 -3.42512 4.10596 0
M  V30 4118 C 426.977 -1.43959 5.02069 0
M  V30 4119 H 428.671 -0.554382 2.94223 0
M  V30 4120 H 426.217 -0.265221 1.41536 0
M  V30 4121 H 428.17 -2.99117 2.96828 0
M  V30 4122 H 426.894 -2.7592 1.74745 0
M  V30 4123 H 425.553 -1.39797 3.38899 0
M  V30 4124 H 425.201 -3.86795 3.21556 0
M  V30 4125 H 424.901 -3.28498 4.87199 0
M  V30 4126 H 426.425 -4.13628 4.4916 0
M  V30 4127 H 427.839 -2.03696 5.35893 0
M  V30 4128 H 426.236 -1.40452 5.83432 0
M  V30 4129 H 427.306 -0.407992 4.83181 0
M  V30 4130 N 428.649 -1.55105 -0.279332 0
M  V30 4131 C 429.612 -1.86783 -1.32834 0
M  V30 4132 C 430.612 -0.74199 -1.42657 0
M  V30 4133 O 431.802 -1.0102 -1.41918 0
M  V30 4134 C 428.934 -2.06746 -2.71052 0
M  V30 4135 H 430.127 -2.8055 -1.05979 0
M  V30 4136 H 427.68 -1.47499 -0.517087 0
M  V30 4137 H 428.415 -1.15339 -3.03097 0
M  V30 4138 H 428.2 -2.88711 -2.65309 0
M  V30 4139 H 429.69 -2.32549 -3.46858 0
M  V30 4140 N 430.127 0.543554 -1.4793 0
M  V30 4141 C 431.057 1.65888 -1.64327 0
M  V30 4142 C 432.038 1.62818 -0.492383 0
M  V30 4143 O 433.223 1.80226 -0.723338 0
M  V30 4144 C 430.353 3.04506 -1.67013 0
M  V30 4145 C 429.307 3.2243 -2.81466 0
M  V30 4146 C 428.633 4.61972 -2.69233 0
M  V30 4147 C 429.933 3.06496 -4.22915 0
M  V30 4148 H 431.627 1.52421 -2.57698 0
M  V30 4149 H 429.173 0.731849 -1.24016 0
M  V30 4150 H 431.126 3.82391 -1.77074 0
M  V30 4151 H 429.85 3.18964 -0.70212 0
M  V30 4152 H 428.509 2.46957 -2.70938 0
M  V30 4153 H 428.157 4.73247 -1.7043 0
M  V30 4154 H 427.857 4.74911 -3.46025 0
M  V30 4155 H 429.381 5.41974 -2.81242 0
M  V30 4156 H 430.795 3.74186 -4.34348 0
M  V30 4157 H 429.192 3.30938 -5.006 0
M  V30 4158 H 430.262 2.03077 -4.40327 0
M  V30 4159 N 431.605 1.3629 0.791371 0
M  V30 4160 C 432.852 1.30412 1.54916 0
M  V30 4161 C 433.18 -0.117162 1.94147 0
M  V30 4162 O 432.435 -1.08599 1.62803 0
M  V30 4163 C 432.734 2.17068 2.8393 0
M  V30 4164 C 432.4 3.65645 2.63846 0
M  V30 4165 C 431.062 4.0614 2.58077 0
M  V30 4166 C 433.414 4.59855 2.45322 0
M  V30 4167 C 430.742 5.3899 2.31748 0
M  V30 4168 C 433.094 5.9292 2.2052 0
M  V30 4169 C 431.758 6.32542 2.13183 0
M  V30 4170 H 431.028 0.47721 0.566879 0
M  V30 4171 H 433.675 1.68325 0.913172 0
M  V30 4172 H 431.98 1.72085 3.51986 0
M  V30 4173 H 433.677 2.09846 3.4171 0
M  V30 4174 H 430.267 3.33518 2.69191 0
M  V30 4175 H 434.451 4.29443 2.48782 0
M  V30 4176 H 429.707 5.68672 2.24548 0
M  V30 4177 H 433.881 6.65487 2.05182 0
M  V30 4178 H 431.508 7.35412 1.92544 0
M  V30 4179 N 433.083 -1.0153 1.20538 0
M  V30 4180 C 434.331 -1.74803 1.01432 0
M  V30 4181 C 434.652 -1.8963 -0.454456 0
M  V30 4182 O 433.922 -1.43975 -1.32846 0
M  V30 4183 H 432.502 -0.647598 0.372324 0
M  V30 4184 H 435.164 -1.22402 1.5167 0
M  V30 4185 H 434.26 -2.75114 1.47373 0
M  V30 4186 N 434.561 -1.01147 -1.20859 0
M  V30 4187 C 435.789 -0.716911 -1.94082 0
M  V30 4188 C 436.204 0.721568 -1.74467 0
M  V30 4189 O 435.561 1.48889 -1.05539 0
M  V30 4190 C 435.612 -1.03662 -3.46318 0
M  V30 4191 O 435.333 -2.4186 -3.65288 0
M  V30 4192 C 436.834 -0.762386 -4.36695 0
M  V30 4193 H 434.054 -0.26367 -0.617024 0
M  V30 4194 H 436.598 -1.35127 -1.53496 0
M  V30 4195 H 434.753 -0.447757 -3.84804 0
M  V30 4196 H 435.167 -2.53224 -4.59323 0
M  V30 4197 H 436.641 -1.03621 -5.42187 0
M  V30 4198 H 437.118 0.303514 -4.3815 0
M  V30 4199 H 437.724 -1.33316 -4.03865 0
M  V30 4200 N 436.039 1.36541 -0.78704 0
M  V30 4201 C 437.287 1.98911 -0.357633 0
M  V30 4202 C 437.608 1.62778 1.07371 0
M  V30 4203 O 436.878 0.900612 1.73971 0
M  V30 4204 H 435.458 0.735734 -0.129246 0
M  V30 4205 H 438.12 1.66776 -1.00855 0
M  V30 4206 H 437.216 3.08874 -0.447549 0
M  V30 4207 N 437.518 0.538854 1.48102 0
M  V30 4208 C 438.746 0.0123136 2.06896 0
M  V30 4209 C 439.161 -1.27312 1.39417 0
M  V30 4210 O 438.518 -1.75949 0.484582 0
M  V30 4211 C 438.569 -0.206118 3.60912 0
M  V30 4212 O 438.29 1.0284 4.25859 0
M  V30 4213 C 439.791 -0.772033 4.36526 0
M  V30 4214 H 437.011 0.0375239 0.66995 0
M  V30 4215 H 439.555 0.747032 1.90367 0
M  V30 4216 H 437.71 -0.89091 3.77017 0
M  V30 4217 H 438.124 0.814654 5.18135 0
M  V30 4218 H 439.598 -0.874251 5.45033 0
M  V30 4219 H 440.075 -1.77904 4.01555 0
M  V30 4220 H 440.681 -0.123526 4.25121 0
M  V30 4221 N 438.996 -1.55193 0.274407 0
M  V30 4222 C 440.242 -1.99877 -0.343086 0
M  V30 4223 C 440.575 -1.16256 -1.55558 0
M  V30 4224 O 439.85 -0.232462 -1.93106 0
M  V30 4225 C 440.133 -3.52706 -0.725965 0
M  V30 4226 C 439.986 -4.47081 0.493818 0
M  V30 4227 C 441.305 -4.11422 -1.56268 0
M  V30 4228 H 438.424 -0.726625 -0.123229 0
M  V30 4229 H 441.066 -1.86136 0.38121 0
M  V30 4230 H 439.216 -3.64546 -1.34307 0
M  V30 4231 H 440.888 -4.47186 1.13237 0
M  V30 4232 H 439.131 -4.1877 1.13201 0
M  V30 4233 H 439.802 -5.51699 0.18217 0
M  V30 4234 H 442.278 -4.02855 -1.04151 0
M  V30 4235 H 441.154 -5.18568 -1.79939 0
M  V30 4236 H 441.415 -3.61607 -2.54348 0
M  V30 4237 N 440.474 -0.00167713 -1.576 0
M  V30 4238 C 441.407 1.02317 -2.03977 0
M  V30 4239 C 442.385 1.33381 -0.929963 0
M  V30 4240 O 443.569 1.45517 -1.19822 0
M  V30 4241 C 440.696 2.35035 -2.43878 0
M  V30 4242 C 439.742 2.19621 -3.65607 0
M  V30 4243 S 440.575 1.52068 -5.13455 0
M  V30 4244 C 441.731 2.86212 -5.56627 0
M  V30 4245 H 441.964 0.628285 -2.90585 0
M  V30 4246 H 439.497 0.209239 -1.52976 0
M  V30 4247 H 441.455 3.11345 -2.67534 0
M  V30 4248 H 440.116 2.71663 -1.57665 0
M  V30 4249 H 439.309 3.1767 -3.91282 0
M  V30 4250 H 438.911 1.51455 -3.41961 0
M  V30 4251 H 441.203 3.82509 -5.59189 0
M  V30 4252 H 442.146 2.65235 -6.56549 0
M  V30 4253 H 442.554 2.90199 -4.84195 0
M  V30 4254 N 441.952 1.55251 0.271103 0
M  V30 4255 C 443.201 1.75151 1.00025 0
M  V30 4256 C 443.514 0.561041 1.87381 0
M  V30 4257 O 444.72 0.642506 2.63788 0
M  V30 4258 C 443.176 3.09999 1.82835 0
M  V30 4259 C 442.784 4.3662 1.00336 0
M  V30 4260 C 444.528 3.39249 2.55168 0
M  V30 4261 C 442.435 5.62506 1.82595 0
M  V30 4262 H 441.365 0.652877 0.377183 0
M  V30 4263 H 444.016 1.81708 0.255843 0
M  V30 4264 H 442.398 2.97485 2.61378 0
M  V30 4265 H 443.572 4.60055 0.261959 0
M  V30 4266 H 441.887 4.14527 0.394486 0
M  V30 4267 H 444.484 4.3051 3.1712 0
M  V30 4268 H 444.827 2.59467 3.2555 0
M  V30 4269 H 445.36 3.52869 1.83653 0
M  V30 4270 H 442.099 6.45041 1.16631 0
M  V30 4271 H 441.619 5.43211 2.54327 0
M  V30 4272 H 443.298 6.00875 2.39913 0
M  V30 4273 N 443.43 -0.535701 1.48216 0
M  V30 4274 C 444.378 -1.66179 1.62749 0
M  V30 4275 C 445.372 -1.62034 0.49409 0
M  V30 4276 O 446.578 -1.6696 0.672624 0
M  V30 4277 H 442.953 -0.550244 0.512578 0
M  V30 4278 H 444.924 -1.51063 2.57337 0
M  V30 4279 C 443.673 -3.04471 1.67907 0
M  V30 4280 H 442.996 -3.08351 2.54479 0
M  V30 4281 H 444.436 -3.82894 1.82121 0
M  V30 4282 C 442.895 -3.34314 0.416596 0
M  V30 4283 O 443.425 -3.98905 -0.473014 0
M  V30 4284 N 441.631 -2.89149 0.290038 0
M  V30 4285 H 441.178 -2.36764 1.01493 0
M  V30 4286 H 441.136 -3.09486 -0.55367 0
M  V30 4287 N 444.908 -1.36708 -0.784132 0
M  V30 4288 C 446.324 -1.17237 -1.08294 0
M  V30 4289 C 446.524 -5.93947e-05 -2.015 0
M  V30 4290 O 445.58 0.663686 -2.43622 0
M  V30 4291 C 446.893 -2.48557 -1.69233 0
M  V30 4292 C 448.441 -2.54968 -1.8155 0
M  V30 4293 C 448.916 -3.86388 -2.45904 0
M  V30 4294 N 450.407 -3.87762 -2.53367 0
M  V30 4295 C 451.142 -4.86191 -3.03983 0
M  V30 4296 N 450.638 -5.95015 -3.54866 0
M  V30 4297 N 452.431 -4.73606 -3.02743 0
M  V30 4298 H 444.582 -2.11758 -0.16501 0
M  V30 4299 H 446.845 -0.93822 -0.135822 0
M  V30 4300 H 446.551 -3.34638 -1.08215 0
M  V30 4301 H 446.425 -2.64748 -2.68679 0
M  V30 4302 H 448.812 -1.69302 -2.41704 0
M  V30 4303 H 448.893 -2.42672 -0.80895 0
M  V30 4304 H 448.537 -4.72462 -1.86392 0
M  V30 4305 H 448.467 -3.95982 -3.4714 0
M  V30 4306 H 450.958 -3.09145 -2.17343 0
M  V30 4307 H 451.271 -6.66086 -3.91854 0
M  V30 4308 H 449.616 -5.98676 -3.53003 0
M  V30 4309 H 452.807 -3.87717 -2.62284 0
M  V30 4310 H 452.98 -5.50473 -3.41881 0
M  V30 4311 N 446.386 1.0089 -1.21074 0
M  V30 4312 C 447.634 1.74262 -1.02358 0
M  V30 4313 C 447.955 1.89869 0.444393 0
M  V30 4314 O 447.225 1.44677 1.32081 0
M  V30 4315 H 445.805 0.645615 -0.375754 0
M  V30 4316 H 448.467 1.21596 -1.52317 0
M  V30 4317 H 447.563 2.74328 -1.4883 0
M  V30 4318 N 447.864 1.01787 1.20321 0
M  V30 4319 C 449.089 0.727009 1.9424 0
M  V30 4320 C 449.514 -0.706179 1.74341 0
M  V30 4321 O 448.872 -1.48609 1.03852 0
M  V30 4322 C 448.92 1.06958 3.44372 0
M  V30 4323 O 448.024 0.181983 4.11998 0
M  V30 4324 H 447.365 0.269626 0.606793 0
M  V30 4325 H 449.895 1.36158 1.52716 0
M  V30 4326 H 449.905 1.02182 3.94997 0
M  V30 4327 H 448.58 2.11378 3.58179 0
M  V30 4328 H 447.157 0.287378 3.71791 0
M  V30 4329 N 449.342 -1.36122 0.79427 0
M  V30 4330 C 450.59 -1.98718 0.368177 0
M  V30 4331 C 450.911 -1.63345 -1.06506 0
M  V30 4332 O 450.181 -0.909825 -1.73491 0
M  V30 4333 H 448.761 -0.735038 0.133146 0
M  V30 4334 H 451.423 -1.66239 1.01739 0
M  V30 4335 H 450.519 -3.08633 0.463923 0
M  V30 4336 N 450.82 -0.546701 -1.47814 0
M  V30 4337 C 451.752 0.244196 -2.27895 0
M  V30 4338 C 452.765 0.88911 -1.36377 0
M  V30 4339 O 453.954 0.764733 -1.61289 0
M  V30 4340 C 451.054 1.36252 -3.10304 0
M  V30 4341 C 450.227 0.816382 -4.29714 0
M  V30 4342 C 449.286 1.81789 -4.93801 0
M  V30 4343 O 448.312 1.36818 -5.52512 0
M  V30 4344 N 449.514 3.15085 -4.87547 0
M  V30 4345 H 452.279 -0.442694 -2.96412 0
M  V30 4346 H 449.84 -0.382095 -1.57327 0
M  V30 4347 H 451.832 2.03102 -3.50045 0
M  V30 4348 H 450.402 1.95281 -2.44099 0
M  V30 4349 H 449.622 -0.0285981 -3.9419 0
M  V30 4350 H 450.91 0.430668 -5.06974 0
M  V30 4351 H 450.308 3.54275 -4.41028 0
M  V30 4352 H 448.865 3.77522 -5.31339 0
M  V30 4353 N 452.299 1.55045 -0.282633 0
M  V30 4354 C 453.247 2.24254 0.617478 0
M  V30 4355 C 454.241 1.24215 1.15183 0
M  V30 4356 O 455.447 1.42123 1.10459 0
M  V30 4357 H 451.822 0.719801 0.217693 0
M  V30 4358 H 453.793 2.98398 0.0110076 0
M  V30 4359 C 452.542 2.98281 1.78672 0
M  V30 4360 H 451.865 3.75053 1.38475 0
M  V30 4361 H 453.305 3.50017 2.393 0
M  V30 4362 C 451.764 2.04184 2.67975 0
M  V30 4363 O 452.294 1.59792 3.6855 0
M  V30 4364 N 450.5 1.70526 2.35307 0
M  V30 4365 H 450.047 2.06821 1.53567 0
M  V30 4366 H 450.005 1.07839 2.95327 0
M  V30 4367 N 453.777 0.010035 1.57597 0
M  V30 4368 C 455.054 -0.710296 1.82248 0
M  V30 4369 C 455.434 -1.91426 0.889911 0
M  V30 4370 O 454.782 -2.28424 -0.0590292 0
M  V30 4371 C 454.992 -1.10655 3.30993 0
M  V30 4372 C 456.34 -1.50621 3.96987 0
M  V30 4373 O 457.364 -1.20007 3.35375 0
M  V30 4374 O 456.223 -2.07587 5.05539 0
M  V30 4375 H 453.317 -0.34673 0.750804 0
M  V30 4376 H 455.863 0.0362578 1.69661 0
M  V30 4377 H 454.635 -0.248826 3.90508 0
M  V30 4378 H 454.258 -1.91189 3.48615 0
M  V30 4379 N 455.255 -1.55392 -0.262866 0
M  V30 4380 C 456.503 -1.76127 -0.991147 0
M  V30 4381 C 456.824 -0.571083 -1.8645 0
M  V30 4382 O 456.094 0.413698 -1.91482 0
M  V30 4383 H 454.674 -0.649528 -0.368948 0
M  V30 4384 H 457.336 -1.9281 -0.284655 0
M  V30 4385 H 456.432 -2.6663 -1.62219 0
M  V30 4386 N 456.733 0.527833 -1.48498 0
M  V30 4387 C 457.663 1.64136 -1.66077 0
M  V30 4388 C 458.644 1.62286 -0.509625 0
M  V30 4389 O 459.829 1.79449 -0.742413 0
M  V30 4390 C 456.959 3.02717 -1.70234 0
M  V30 4391 C 455.913 3.19426 -2.8487 0
M  V30 4392 C 455.239 4.5909 -2.74118 0
M  V30 4393 C 456.539 3.01993 -4.26142 0
M  V30 4394 H 458.233 1.4968 -2.593 0
M  V30 4395 H 455.779 0.718654 -1.24785 0
M  V30 4396 H 457.732 3.80491 -1.8112 0
M  V30 4397 H 456.456 3.18201 -0.735911 0
M  V30 4398 H 455.115 2.4407 -2.73542 0
M  V30 4399 H 454.763 4.71413 -1.7544 0
M  V30 4400 H 454.463 4.71214 -3.51042 0
M  V30 4401 H 455.987 5.3896 -2.86974 0
M  V30 4402 H 457.401 3.69558 -4.38292 0
M  V30 4403 H 455.798 3.2561 -5.04082 0
M  V30 4404 H 456.868 1.98396 -4.42456 0
M  V30 4405 N 458.211 1.37122 0.776871 0
M  V30 4406 C 459.457 1.32243 1.53752 0
M  V30 4407 C 459.79 -0.0944745 1.9397 0
M  V30 4408 O 459.065 -1.05068 1.6368 0
M  V30 4409 C 459.348 2.25681 2.80607 0
M  V30 4410 C 459.201 3.76127 2.46676 0
M  V30 4411 C 460.52 2.17657 3.82509 0
M  V30 4412 H 457.639 0.481704 0.557791 0
M  V30 4413 H 460.281 1.6778 0.891612 0
M  V30 4414 H 458.431 1.95505 3.35723 0
M  V30 4415 H 460.103 4.16877 1.97513 0
M  V30 4416 H 458.346 3.94946 1.79443 0
M  V30 4417 H 459.017 4.36933 3.37333 0
M  V30 4418 H 461.493 2.44245 3.36873 0
M  V30 4419 H 460.369 2.85185 4.69 0
M  V30 4420 H 460.63 1.16785 4.26396 0
M  V30 4421 N 459.689 -1.00246 1.21608 0
M  V30 4422 C 460.914 -1.78167 1.06167 0
M  V30 4423 C 461.339 -1.84138 -0.384035 0
M  V30 4424 O 460.697 -1.28683 -1.27712 0
M  V30 4425 C 460.745 -3.19786 1.66642 0
M  V30 4426 O 459.849 -4.02153 0.913613 0
M  V30 4427 H 459.19 -0.549 0.37349 0
M  V30 4428 H 461.72 -1.25994 1.61204 0
M  V30 4429 H 461.73 -3.70451 1.70969 0
M  V30 4430 H 460.405 -3.14754 2.7185 0
M  V30 4431 H 458.982 -3.60711 0.945635 0
M  V30 4432 N 461.167 -1.02423 -1.1978 0
M  V30 4433 C 462.114 -0.601023 -2.22837 0
M  V30 4434 C 463.084 0.382801 -1.61629 0
M  V30 4435 O 464.269 0.280514 -1.88727 0
M  V30 4436 C 461.409 0.0467755 -3.45068 0
M  V30 4437 C 460.522 -0.98253 -4.20678 0
M  V30 4438 C 459.657 -0.304982 -5.30324 0
M  V30 4439 C 458.696 -1.32052 -5.97686 0
M  V30 4440 N 457.833 -0.669105 -6.98904 0
M  V30 4441 H 462.673 -1.48444 -2.58396 0
M  V30 4442 H 460.21 -0.742936 -1.2696 0
M  V30 4443 H 462.168 0.439556 -4.14878 0
M  V30 4444 H 460.798 0.893796 -3.10179 0
M  V30 4445 H 459.85 -1.49341 -3.49859 0
M  V30 4446 H 461.162 -1.75455 -4.66923 0
M  V30 4447 H 460.316 0.142893 -6.06532 0
M  V30 4448 H 459.055 0.499283 -4.85138 0
M  V30 4449 H 458.06 -1.7787 -5.20233 0
M  V30 4450 H 459.285 -2.1262 -6.44957 0
M  V30 4451 H 457.231 0.115152 -6.55899 0
M  V30 4452 H 457.148 -1.37908 -7.43315 0
M  V30 4453 H 458.416 -0.245076 -7.79115 0
M  V30 4454 N 462.645 1.35699 -0.801477 0
M  V30 4455 C 463.885 2.00741 -0.385027 0
M  V30 4456 C 464.249 1.62213 1.02718 0
M  V30 4457 O 465.45 2.19936 1.54537 0
M  V30 4458 C 463.721 3.53032 -0.557057 0
M  V30 4459 S 465.28 4.38195 -0.230272 0
M  V30 4460 H 462.098 0.695748 -0.146477 0
M  V30 4461 H 464.7 1.65378 -1.04261 0
M  V30 4462 H 463.404 3.7856 -1.58494 0
M  V30 4463 H 462.935 3.93229 0.116029 0
M  V30 4464 H 464.95 4.86748 0.963895 0
M  V30 4465 N 464.123 0.554532 1.47522 0
M  V30 4466 C 465.348 0.0322661 2.07375 0
M  V30 4467 C 465.773 -1.25079 1.40488 0
M  V30 4468 O 465.131 -1.74859 0.47896 0
M  V30 4469 C 465.179 -0.149397 3.6029 0
M  V30 4470 O 464.283 -1.21259 3.9417 0
M  V30 4471 H 463.624 0.0501228 0.662106 0
M  V30 4472 H 466.154 0.769452 1.8958 0
M  V30 4473 H 466.164 -0.364437 4.06369 0
M  V30 4474 H 464.839 0.787743 4.08372 0
M  V30 4475 H 463.416 -0.97825 3.5984 0
M  V30 4476 N 465.601 -1.54893 0.290851 0
M  V30 4477 C 466.564 -2.21824 -0.576784 0
M  V30 4478 C 467.564 -1.20104 -1.06919 0
M  V30 4479 O 468.754 -1.44906 -0.966843 0
M  V30 4480 C 465.886 -2.89662 -1.79747 0
M  V30 4481 H 467.079 -2.99899 0.00784051 0
M  V30 4482 H 464.632 -1.56245 0.0415934 0
M  V30 4483 H 465.367 -2.15639 -2.42219 0
M  V30 4484 H 465.152 -3.64219 -1.45214 0
M  V30 4485 H 466.642 -3.4075 -2.4141 0
M  V30 4486 N 467.08 -0.0183926 -1.57589 0
M  V30 4487 C 468.01 0.965596 -2.12599 0
M  V30 4488 C 468.991 1.34641 -1.0395 0
M  V30 4489 O 470.176 1.42693 -1.31729 0
M  V30 4490 C 467.306 2.25149 -2.64434 0
M  V30 4491 C 466.26 2.01175 -3.77773 0
M  V30 4492 C 465.586 3.35937 -4.15994 0
M  V30 4493 C 466.886 1.35953 -5.04296 0
M  V30 4494 H 468.58 0.507504 -2.95067 0
M  V30 4495 H 466.126 0.242671 -1.41941 0
M  V30 4496 H 468.079 2.94357 -3.01549 0
M  V30 4497 H 466.803 2.73105 -1.79112 0
M  V30 4498 H 465.462 1.34388 -3.4108 0
M  V30 4499 H 465.11 3.81631 -3.27669 0
M  V30 4500 H 464.81 3.20705 -4.92364 0
M  V30 4501 H 466.334 4.0643 -4.55683 0
M  V30 4502 H 467.748 1.95144 -5.39065 0
M  V30 4503 H 466.145 1.31152 -5.85593 0
M  V30 4504 H 467.215 0.331071 -4.83768 0
M  V30 4505 N 468.558 1.5553 0.254621 0
M  V30 4506 C 469.788 1.80784 1.00004 0
M  V30 4507 C 470.196 0.59071 1.79742 0
M  V30 4508 O 469.539 -0.449988 1.78103 0
M  V30 4509 C 469.601 2.99268 1.99196 0
M  V30 4510 C 469.265 4.35595 1.38224 0
M  V30 4511 C 470.262 5.13884 0.788611 0
M  V30 4512 C 467.947 4.82281 1.40393 0
M  V30 4513 C 469.941 6.37004 0.224783 0
M  V30 4514 C 467.628 6.05351 0.836243 0
M  V30 4515 C 468.626 6.82551 0.24769 0
M  V30 4516 O 468.314 8.03297 -0.311249 0
M  V30 4517 H 468.046 0.60565 0.300274 0
M  V30 4518 H 470.6 2.03411 0.285143 0
M  V30 4519 H 468.83 2.72377 2.74496 0
M  V30 4520 H 470.519 3.11682 2.60018 0
M  V30 4521 H 471.285 4.78938 0.764423 0
M  V30 4522 H 467.164 4.22189 1.85142 0
M  V30 4523 H 470.708 6.97203 -0.235235 0
M  V30 4524 H 466.605 6.39776 0.857733 0
M  V30 4525 H 467.373 8.1825 -0.20237 0
M  V30 4526 N 470.036 -0.519951 1.48776 0
M  V30 4527 C 471.284 -1.2727 1.56993 0
M  V30 4528 C 471.605 -1.9339 0.25004 0
M  V30 4529 O 470.875 -1.81822 -0.729216 0
M  V30 4530 H 469.455 -0.472732 0.578389 0
M  V30 4531 H 472.117 -0.604234 1.85297 0
M  V30 4532 H 471.213 -2.04669 2.3562 0
M  V30 4533 N 471.514 -1.37532 -0.769588 0
M  V30 4534 C 472.461 -1.3347 -1.88293 0
M  V30 4535 C 473.431 -0.199891 -1.64893 0
M  V30 4536 O 474.616 -0.389594 -1.8678 0
M  V30 4537 C 471.756 -1.14968 -3.25387 0
M  V30 4538 C 470.869 -2.37698 -3.60727 0
M  V30 4539 C 470.004 -2.12051 -4.8704 0
M  V30 4540 C 469.043 -3.30636 -5.15117 0
M  V30 4541 N 468.18 -3.04527 -6.3262 0
M  V30 4542 H 473.02 -2.28658 -1.911 0
M  V30 4543 H 470.557 -1.13622 -0.934257 0
M  V30 4544 H 472.515 -1.02261 -4.04473 0
M  V30 4545 H 471.145 -0.234263 -3.21949 0
M  V30 4546 H 470.197 -2.61137 -2.76608 0
M  V30 4547 H 471.509 -3.26131 -3.77413 0
M  V30 4548 H 470.663 -1.96388 -5.74035 0
M  V30 4549 H 469.402 -1.20959 -4.72462 0
M  V30 4550 H 468.407 -3.46836 -4.26597 0
M  V30 4551 H 469.632 -4.22582 -5.31603 0
M  V30 4552 H 467.578 -2.16067 -6.19396 0
M  V30 4553 H 467.495 -3.86503 -6.49732 0
M  V30 4554 H 468.763 -2.92485 -7.22546 0
M  V30 4555 N 472.992 0.995999 -1.22138 0
M  V30 4556 C 474.238 1.73767 -1.04561 0
M  V30 4557 C 474.571 1.89633 0.418698 0
M  V30 4558 O 473.846 1.43723 1.3105 0
M  V30 4559 C 474.129 3.14505 -1.75382 0
M  V30 4560 C 473.982 3.06306 -3.29388 0
M  V30 4561 C 475.301 4.13615 -1.50369 0
M  V30 4562 H 472.42 0.630728 -0.38125 0
M  V30 4563 H 475.062 1.16057 -1.50435 0
M  V30 4564 H 473.212 3.63775 -1.36383 0
M  V30 4565 H 474.884 2.64681 -3.77812 0
M  V30 4566 H 473.127 2.43186 -3.59226 0
M  V30 4567 H 473.798 4.05884 -3.74116 0
M  V30 4568 H 476.274 3.73089 -1.84239 0
M  V30 4569 H 475.15 5.10212 -2.02421 0
M  V30 4570 H 475.411 4.39949 -0.435611 0
M  V30 4571 N 474.47 1.03057 1.19235 0
M  V30 4572 C 475.4 0.633497 2.24742 0
M  V30 4573 C 476.381 -0.358335 1.66283 0
M  V30 4574 O 477.566 -0.240676 1.92703 0
M  V30 4575 C 474.696 -0.0147648 3.47297 0
M  V30 4576 C 473.65 0.899527 4.18441 0
M  V30 4577 C 472.976 0.116281 5.34574 0
M  V30 4578 C 474.276 2.21404 4.73051 0
M  V30 4579 H 475.97 1.5155 2.58211 0
M  V30 4580 H 473.516 0.73014 1.24117 0
M  V30 4581 H 475.469 -0.304202 4.20301 0
M  V30 4582 H 474.193 -0.931577 3.13032 0
M  V30 4583 H 472.852 1.17319 3.47321 0
M  V30 4584 H 472.5 -0.802619 4.96555 0
M  V30 4585 H 472.2 0.725293 5.83107 0
M  V30 4586 H 473.724 -0.166376 6.10373 0
M  V30 4587 H 475.138 1.98601 5.37802 0
M  V30 4588 H 473.535 2.77512 5.32078 0
M  V30 4589 H 474.605 2.86752 3.91026 0
M  V30 4590 N 475.948 -1.35272 0.808662 0
M  V30 4591 C 477.173 -2.03477 0.401475 0
M  V30 4592 C 477.598 -1.60537 -0.980279 0
M  V30 4593 O 476.956 -0.78304 -1.63518 0
M  V30 4594 C 477.004 -3.57181 0.495354 0
M  V30 4595 O 476.108 -4.09474 -0.490397 0
M  V30 4596 H 475.449 -0.642561 0.167366 0
M  V30 4597 H 477.979 -1.72824 1.09512 0
M  V30 4598 H 477.989 -4.06356 0.365912 0
M  V30 4599 H 476.664 -3.87784 1.5032 0
M  V30 4600 H 475.241 -3.71516 -0.321023 0
M  V30 4601 N 477.426 -0.562348 -1.47226 0
M  V30 4602 C 478.654 -0.0452275 -2.06851 0
M  V30 4603 C 479.069 1.25078 -1.41424 0
M  V30 4604 O 478.426 1.75156 -0.512513 0
M  V30 4605 C 478.477 0.148674 -3.61194 0
M  V30 4606 O 478.198 -1.09602 -4.24169 0
M  V30 4607 C 479.699 0.702488 -4.37699 0
M  V30 4608 H 476.919 -0.0481775 -0.669268 0
M  V30 4609 H 479.463 -0.777223 -1.89155 0
M  V30 4610 H 477.618 0.830817 -3.78386 0
M  V30 4611 H 478.032 -0.896982 -5.16773 0
M  V30 4612 H 479.506 0.78743 -5.46355 0
M  V30 4613 H 479.983 1.71493 -4.04335 0
M  V30 4614 H 480.589 0.0558772 -4.25263 0
M  V30 4615 N 478.904 1.54736 -0.299062 0
M  V30 4616 C 480.129 2.04975 0.316254 0
M  V30 4617 C 480.554 1.17501 1.46885 0
M  V30 4618 O 479.912 0.178678 1.80417 0
M  V30 4619 C 479.96 3.52672 0.751997 0
M  V30 4620 O 479.064 3.68226 1.85697 0
M  V30 4621 H 478.405 0.661126 0.0617175 0
M  V30 4622 H 480.935 1.99805 -0.440341 0
M  V30 4623 H 480.945 3.94488 1.04133 0
M  V30 4624 H 479.62 4.158 -0.0911482 0
M  V30 4625 H 478.197 3.38316 1.56834 0
M  V30 4626 N 480.382 0.0267497 1.57577 0
M  V30 4627 C 481.612 -0.6617 1.95717 0
M  V30 4628 C 482.02 -1.66331 0.901706 0
M  V30 4629 O 481.363 -1.83273 -0.125241 0
M  V30 4630 C 481.425 -1.42649 3.29987 0
M  V30 4631 C 481.089 -0.583482 4.5326 0
M  V30 4632 C 482.086 0.140221 5.19711 0
M  V30 4633 C 479.771 -0.521581 4.99585 0
M  V30 4634 C 481.765 0.914523 6.30805 0
M  V30 4635 C 479.452 0.256428 6.10562 0
M  V30 4636 C 480.45 0.973189 6.76031 0
M  V30 4637 O 480.138 1.73845 7.84878 0
M  V30 4638 H 479.87 -0.187483 0.649481 0
M  V30 4639 H 482.424 0.0820847 2.05236 0
M  V30 4640 H 480.654 -2.21536 3.16952 0
M  V30 4641 H 482.343 -2.00282 3.53047 0
M  V30 4642 H 483.109 0.101716 4.84893 0
M  V30 4643 H 478.988 -1.06904 4.48433 0
M  V30 4644 H 482.532 1.4745 6.81839 0
M  V30 4645 H 478.429 0.296657 6.44818 0
M  V30 4646 H 479.197 1.65797 8.01532 0
M  V30 4647 N 481.861 -1.55662 -0.24637 0
M  V30 4648 C 482.808 -1.90361 -1.30504 0
M  V30 4649 C 483.778 -0.757905 -1.47801 0
M  V30 4650 O 484.963 -1.01161 -1.61775 0
M  V30 4651 C 482.103 -2.2042 -2.65535 0
M  V30 4652 C 481.216 -3.47799 -2.56242 0
M  V30 4653 C 480.351 -3.67426 -3.8363 0
M  V30 4654 C 479.39 -4.88403 -3.68956 0
M  V30 4655 N 478.527 -5.04548 -4.88237 0
M  V30 4656 H 483.367 -2.80645 -1.00213 0
M  V30 4657 H 480.904 -1.38924 -0.483577 0
M  V30 4658 H 482.862 -2.35853 -3.44135 0
M  V30 4659 H 481.492 -1.3334 -2.93973 0
M  V30 4660 H 480.544 -3.40694 -1.69208 0
M  V30 4661 H 481.856 -4.36544 -2.4131 0
M  V30 4662 H 481.01 -3.82821 -4.70673 0
M  V30 4663 H 479.749 -2.76914 -4.01459 0
M  V30 4664 H 478.754 -4.72984 -2.80296 0
M  V30 4665 H 479.979 -5.80375 -3.52621 0
M  V30 4666 H 477.925 -4.16974 -5.06427 0
M  V30 4667 H 477.842 -5.87384 -4.75937 0
M  V30 4668 H 479.11 -5.24355 -5.76777 0
M  V30 4669 N 483.339 0.512053 -1.4905 0
M  V30 4670 C 484.585 1.26613 -1.59187 0
M  V30 4671 C 484.94 1.90494 -0.270163 0
M  V30 4672 O 484.233 1.77204 0.728648 0
M  V30 4673 C 484.427 2.36446 -2.68008 0
M  V30 4674 C 484.256 1.83334 -4.10632 0
M  V30 4675 C 483.026 1.65131 -4.77556 0
M  V30 4676 C 485.224 1.35153 -4.96224 0
M  V30 4677 N 483.206 1.06833 -6.04533 0
M  V30 4678 C 484.577 0.889186 -6.13591 0
M  V30 4679 C 486.632 1.23623 -4.82309 0
M  V30 4680 C 485.335 0.322953 -7.18575 0
M  V30 4681 C 487.361 0.683978 -5.87431 0
M  V30 4682 C 486.723 0.2318 -7.04018 0
M  V30 4683 H 482.822 0.453678 -0.636946 0
M  V30 4684 H 485.406 0.575217 -1.86009 0
M  V30 4685 H 483.577 3.03012 -2.42978 0
M  V30 4686 H 485.309 3.03485 -2.67729 0
M  V30 4687 H 482.064 1.89178 -4.34176 0
M  V30 4688 H 482.488 0.796425 -6.72299 0
M  V30 4689 H 487.13 1.57184 -3.92496 0
M  V30 4690 H 484.848 -0.024943 -8.08096 0
M  V30 4691 H 488.434 0.597694 -5.78722 0
M  V30 4692 H 487.314 -0.188869 -7.83973 0
M  V30 4693 N 484.817 1.37938 0.762283 0
M  V30 4694 C 485.765 1.34569 1.89721 0
M  V30 4695 C 486.759 0.232929 1.67791 0
M  V30 4696 O 487.965 0.401485 1.75465 0
M  V30 4697 H 484.34 0.419594 0.624055 0
M  V30 4698 H 486.311 2.30357 1.8968 0
M  V30 4699 C 485.06 1.17898 3.27101 0
M  V30 4700 H 484.383 2.02781 3.44558 0
M  V30 4701 H 485.823 1.19593 4.06784 0
M  V30 4702 C 484.282 -0.114728 3.36705 0
M  V30 4703 O 484.812 -1.0949 3.8649 0
M  V30 4704 N 483.018 -0.16863 2.9011 0
M  V30 4705 H 482.565 0.62967 2.49786 0
M  V30 4706 H 482.523 -1.03383 2.96916 0
M  V30 4707 N 486.295 -0.989507 1.22664 0
M  V30 4708 C 487.245 -2.06478 0.967005 0
M  V30 4709 C 488.229 -1.60682 -0.0836374 0
M  V30 4710 O 489.421 -1.76541 0.127322 0
M  V30 4711 C 486.55 -3.38861 0.550313 0
M  V30 4712 C 485.636 -3.9128 1.63587 0
M  V30 4713 N 486.027 -4.16884 2.86429 0
M  V30 4714 C 484.325 -4.1972 1.50834 0
M  V30 4715 C 485.026 -4.5954 3.56648 0
M  V30 4716 N 484.002 -4.63434 2.84131 0
M  V30 4717 H 487.804 -2.24219 1.90008 0
M  V30 4718 H 485.318 -1.17153 1.12467 0
M  V30 4719 H 487.315 -4.15465 0.345612 0
M  V30 4720 H 485.975 -3.22518 -0.375822 0
M  V30 4721 H 486.986 -4.04976 3.22823 0
M  V30 4722 H 483.663 -4.1243 0.648643 0
M  V30 4723 H 485.053 -4.87944 4.61909 0
M  V30 4724 N 487.773 -1.03688 -1.18687 0
M  V30 4725 C 488.703 -0.645407 -2.24403 0
M  V30 4726 C 489.684 0.349511 -1.66471 0
M  V30 4727 O 490.869 0.230453 -1.92828 0
M  V30 4728 C 487.999 -0.00365337 -3.473 0
M  V30 4729 C 486.953 -0.921705 -4.17958 0
M  V30 4730 C 486.279 -0.144629 -5.34504 0
M  V30 4731 C 487.579 -2.23909 -4.71871 0
M  V30 4732 H 489.273 -1.52917 -2.57404 0
M  V30 4733 H 486.819 -0.736711 -1.23728 0
M  V30 4734 H 488.772 0.281908 -4.20456 0
M  V30 4735 H 487.496 0.914963 -3.13522 0
M  V30 4736 H 486.155 -1.19159 -3.46694 0
M  V30 4737 H 485.803 0.776274 -4.96974 0
M  V30 4738 H 485.503 -0.756206 -5.82714 0
M  V30 4739 H 487.027 0.134004 -6.10453 0
M  V30 4740 H 488.441 -2.0145 -5.36741 0
M  V30 4741 H 486.838 -2.8033 -5.30599 0
M  V30 4742 H 487.908 -2.88822 -3.895 0
M  V30 4743 N 489.251 1.34841 -0.815825 0
M  V30 4744 C 490.528 1.92908 -0.323416 0
M  V30 4745 C 490.908 1.74479 1.18828 0
M  V30 4746 O 490.256 1.11928 1.99209 0
M  V30 4747 C 490.466 3.40957 -0.744952 0
M  V30 4748 C 491.814 4.18107 -0.739716 0
M  V30 4749 O 492.838 3.49511 -0.68708 0
M  V30 4750 O 491.697 5.40517 -0.806456 0
M  V30 4751 H 488.791 0.822436 -0.0867646 0
M  V30 4752 H 491.337 1.4386 -0.90014 0
M  V30 4753 H 490.109 3.4814 -1.78646 0
M  V30 4754 H 489.732 3.97341 -0.143535 0
M  V30 4755 N 490.729 0.570148 1.46925 0
M  V30 4756 C 491.639 -0.173061 2.33961 0
M  V30 4757 C 492.655 -0.898825 1.48987 0
M  V30 4758 O 493.831 -0.864825 1.81887 0
M  V30 4759 C 490.896 -1.18177 3.25937 0
M  V30 4760 C 489.957 -0.462041 4.26806 0
M  V30 4761 C 489.19 -1.4227 5.14388 0
M  V30 4762 O 489.413 -2.65842 5.04662 0
M  V30 4763 O 488.347 -0.940127 5.94513 0
M  V30 4764 H 492.173 0.541216 2.98839 0
M  V30 4765 H 489.758 0.330647 1.45695 0
M  V30 4766 H 491.64 -1.76372 3.82715 0
M  V30 4767 H 490.315 -1.87774 2.63671 0
M  V30 4768 H 489.222 0.161429 3.73752 0
M  V30 4769 H 490.555 0.192719 4.91823 0
M  V30 4770 N 492.207 -1.54576 0.307264 0
M  V30 4771 C 493.456 -1.99442 -0.300976 0
M  V30 4772 C 493.769 -1.19928 -1.5452 0
M  V30 4773 O 494.975 -1.55092 -2.22842 0
M  V30 4774 C 493.431 -3.55084 -0.586809 0
M  V30 4775 C 493.039 -4.43413 0.639438 0
M  V30 4776 C 494.783 -4.0846 -1.1559 0
M  V30 4777 C 492.69 -5.90499 0.326411 0
M  V30 4778 H 491.62 -0.744986 -0.116238 0
M  V30 4779 H 494.271 -1.787 0.416947 0
M  V30 4780 H 492.653 -3.71749 -1.36449 0
M  V30 4781 H 493.827 -4.38522 1.41545 0
M  V30 4782 H 492.142 -4.00842 1.1276 0
M  V30 4783 H 494.739 -5.15926 -1.40445 0
M  V30 4784 H 495.082 -3.59443 -2.10015 0
M  V30 4785 H 495.615 -3.95362 -0.439778 0
M  V30 4786 H 492.354 -6.43676 1.23939 0
M  V30 4787 H 491.874 -5.98382 -0.412212 0
M  V30 4788 H 493.553 -6.46962 -0.0697393 0
M  V30 4789 N 493.685 -0.035106 -1.57561 0
M  V30 4790 C 494.633 0.962707 -2.11742 0
M  V30 4791 C 495.627 1.33296 -1.0454 0
M  V30 4792 O 496.833 1.31449 -1.22968 0
M  V30 4793 H 493.208 0.32826 -0.676572 0
M  V30 4794 H 495.179 0.48048 -2.94506 0
M  V30 4795 C 493.928 2.23388 -2.66445 0
M  V30 4796 H 493.251 1.95774 -3.48587 0
M  V30 4797 H 494.691 2.91402 -3.07995 0
M  V30 4798 C 493.15 2.96769 -1.59467 0
M  V30 4799 O 493.68 3.89105 -0.998 0
M  V30 4800 N 491.886 2.59212 -1.31369 0
M  V30 4801 H 491.433 1.84202 -1.80076 0
M  V30 4802 H 491.391 3.08618 -0.600173 0
M  V30 4803 N 495.163 1.55791 0.238111 0
M  V30 4804 C 496.095 1.87513 1.31802 0
M  V30 4805 C 497.108 0.762053 1.43863 0
M  V30 4806 O 498.297 1.04024 1.45056 0
M  V30 4807 C 495.397 2.05402 2.69561 0
M  V30 4808 C 494.57 3.3632 2.79656 0
M  V30 4809 C 493.629 3.43844 3.98319 0
M  V30 4810 O 492.655 4.16994 3.87433 0
M  V30 4811 N 493.857 2.73777 5.11885 0
M  V30 4812 H 496.622 2.80734 1.04922 0
M  V30 4813 H 494.183 1.56135 0.428196 0
M  V30 4814 H 496.175 2.07769 3.47296 0
M  V30 4815 H 494.745 1.18884 2.89111 0
M  V30 4816 H 493.965 3.46195 1.88528 0
M  V30 4817 H 495.253 4.22594 2.83358 0
M  V30 4818 H 494.651 2.14094 5.23622 0
M  V30 4819 H 493.208 2.81825 5.87723 0
M  V30 4820 N 496.642 -0.504142 1.49319 0
M  V30 4821 C 497.572 -1.61473 1.68667 0
M  V30 4822 C 498.553 -1.61455 0.535378 0
M  V30 4823 O 499.738 -1.78245 0.770868 0
M  V30 4824 C 496.868 -2.99971 1.75028 0
M  V30 4825 C 495.822 -3.14854 2.89916 0
M  V30 4826 C 495.148 -4.54671 2.81387 0
M  V30 4827 C 496.448 -2.95176 4.30893 0
M  V30 4828 H 498.142 -1.45535 2.61648 0
M  V30 4829 H 495.688 -0.698711 1.25913 0
M  V30 4830 H 497.641 -3.77562 1.8715 0
M  V30 4831 H 496.365 -3.1699 0.786441 0
M  V30 4832 H 495.024 -2.39687 2.77391 0
M  V30 4833 H 494.672 -4.68562 1.82917 0
M  V30 4834 H 494.372 -4.6557 3.58494 0
M  V30 4835 H 495.896 -5.34327 2.95512 0
M  V30 4836 H 497.31 -3.62538 4.44116 0
M  V30 4837 H 495.707 -3.17549 5.09198 0
M  V30 4838 H 496.777 -1.91332 4.45556 0
M  V30 4839 N 498.12 -1.38341 -0.754957 0
M  V30 4840 C 499.05 -1.38176 -1.88227 0
M  V30 4841 C 500.031 -0.247873 -1.68284 0
M  V30 4842 O 501.216 -0.45075 -1.88896 0
M  V30 4843 C 498.346 -1.20471 -3.25736 0
M  V30 4844 C 497.3 -2.3105 -3.60278 0
M  V30 4845 C 496.626 -1.98452 -4.96509 0
M  V30 4846 C 497.926 -3.73305 -3.65295 0
M  V30 4847 H 499.62 -2.32512 -1.88622 0
M  V30 4848 H 497.166 -1.1192 -0.906082 0
M  V30 4849 H 499.119 -1.18982 -4.04254 0
M  V30 4850 H 497.843 -0.225965 -3.25817 0
M  V30 4851 H 496.502 -2.31723 -2.84078 0
M  V30 4852 H 496.15 -0.990641 -4.93148 0
M  V30 4853 H 495.85 -2.7251 -5.20588 0
M  V30 4854 H 497.374 -1.98578 -5.77407 0
M  V30 4855 H 498.788 -3.7467 -4.3393 0
M  V30 4856 H 497.185 -4.46557 -4.00883 0
M  V30 4857 H 498.255 -4.05719 -2.65556 0
M  V30 4858 N 499.598 0.982988 -1.23187 0
M  V30 4859 C 500.846 1.72052 -1.06031 0
M  V30 4860 C 501.167 1.90769 0.404019 0
M  V30 4861 O 500.437 1.47446 1.28982 0
M  V30 4862 H 499.017 0.637499 -0.389363 0
M  V30 4863 H 501.679 1.18338 -1.54862 0
M  V30 4864 H 500.775 2.7111 -1.54615 0
M  V30 4865 N 501.076 1.04316 1.18135 0
M  V30 4866 C 502.322 0.749128 1.88457 0
M  V30 4867 C 502.655 -0.72149 1.803 0
M  V30 4868 O 501.93 -1.52676 1.205 0
M  V30 4869 C 502.213 1.21905 3.38838 0
M  V30 4870 C 502.066 2.75195 3.55792 0
M  V30 4871 C 503.385 0.811085 4.32561 0
M  V30 4872 H 500.504 0.273611 0.684329 0
M  V30 4873 H 503.146 1.29561 1.38975 0
M  V30 4874 H 501.296 0.754137 3.8111 0
M  V30 4875 H 502.968 3.29743 3.22595 0
M  V30 4876 H 501.211 3.14899 2.98364 0
M  V30 4877 H 501.882 3.03135 4.61317 0
M  V30 4878 H 504.358 1.21118 3.98082 0
M  V30 4879 H 503.234 1.16761 5.36338 0
M  V30 4880 H 503.495 -0.285596 4.41177 0
M  V30 4881 N 502.554 -1.34406 0.822964 0
M  V30 4882 C 503.97 -1.51275 0.508727 0
M  V30 4883 C 504.17 -1.76776 -0.967083 0
M  V30 4884 O 503.226 -1.81871 -1.75155 0
M  V30 4885 C 504.539 -2.67765 1.36829 0
M  V30 4886 C 506.087 -2.81647 1.36542 0
M  V30 4887 C 506.562 -4.01181 2.20947 0
M  V30 4888 N 508.053 -4.08388 2.18571 0
M  V30 4889 C 508.788 -5.00036 2.80627 0
M  V30 4890 N 508.284 -5.96906 3.51674 0
M  V30 4891 N 510.077 -4.92908 2.70181 0
M  V30 4892 H 502.228 -1.16113 1.77852 0
M  V30 4893 H 504.491 -0.56947 0.757897 0
M  V30 4894 H 504.197 -2.55551 2.41633 0
M  V30 4895 H 504.071 -3.62779 1.03303 0
M  V30 4896 H 506.458 -2.93303 0.325163 0
M  V30 4897 H 506.539 -1.87443 1.74066 0
M  V30 4898 H 506.183 -3.90286 3.25022 0
M  V30 4899 H 506.113 -4.94599 1.80774 0
M  V30 4900 H 508.604 -3.39051 1.66891 0
M  V30 4901 H 508.917 -6.63468 3.96271 0
M  V30 4902 H 507.262 -5.9703 3.5578 0
M  V30 4903 H 510.453 -4.1619 2.14251 0
M  V30 4904 H 510.626 -5.64137 3.18831 0
M  V30 4905 N 504.032 -0.577932 -1.46621 0
M  V30 4906 C 505.28 -0.061566 -2.02006 0
M  V30 4907 C 505.601 1.30117 -1.4524 0
M  V30 4908 O 504.871 1.85313 -0.63529 0
M  V30 4909 H 503.451 -0.0197692 -0.746738 0
M  V30 4910 H 506.113 -0.752631 -1.79782 0
M  V30 4911 H 505.209 0.0110238 -3.12098 0
M  V30 4912 N 505.51 1.54411 -0.315457 0
M  V30 4913 C 506.473 2.22713 0.54142 0
M  V30 4914 C 507.473 1.2179 1.04995 0
M  V30 4915 O 508.663 1.46426 0.943667 0
M  V30 4916 C 505.795 2.92485 1.75116 0
M  V30 4917 H 506.988 2.99849 -0.0555508 0
M  V30 4918 H 504.541 1.56159 -0.0664453 0
M  V30 4919 H 505.276 2.19466 2.38758 0
M  V30 4920 H 505.061 3.66483 1.39401 0
M  V30 4921 H 506.551 3.44548 2.35959 0
M  V30 4922 N 506.988 0.0434614 1.5754 0
M  V30 4923 C 508.218 -0.640905 1.96408 0
M  V30 4924 C 508.626 -1.65365 0.919297 0
M  V30 4925 O 507.969 -1.83395 -0.105795 0
M  V30 4926 C 508.031 -1.39141 3.31482 0
M  V30 4927 C 507.695 -0.535375 4.53853 0
M  V30 4928 C 508.692 0.195335 5.19533 0
M  V30 4929 C 506.377 -0.468564 5.0011 0
M  V30 4930 C 508.371 0.981377 6.298 0
M  V30 4931 C 506.058 0.321171 6.10255 0
M  V30 4932 C 507.056 1.04484 6.74961 0
M  V30 4933 O 506.744 1.8216 7.8299 0
M  V30 4934 H 506.476 -0.180584 0.651433 0
M  V30 4935 H 509.03 0.103848 2.05137 0
M  V30 4936 H 507.26 -2.18162 3.19284 0
M  V30 4937 H 508.949 -1.96526 3.55151 0
M  V30 4938 H 509.715 0.15314 4.84758 0
M  V30 4939 H 505.594 -1.02142 4.49542 0
M  V30 4940 H 509.138 1.54674 6.80237 0
M  V30 4941 H 505.035 0.365032 6.44467 0
M  V30 4942 H 505.803 1.74289 7.99728 0
M  V30 4943 N 508.466 -1.55915 -0.229846 0
M  V30 4944 C 509.429 -1.90914 -1.26824 0
M  V30 4945 C 510.429 -0.786999 -1.40225 0
M  V30 4946 O 511.619 -1.05484 -1.38632 0
M  V30 4947 C 508.751 -2.15264 -2.64337 0
M  V30 4948 H 509.944 -2.8378 -0.969998 0
M  V30 4949 H 507.497 -1.49069 -0.4699 0
M  V30 4950 H 508.232 -1.24923 -2.99274 0
M  V30 4951 H 508.017 -2.97005 -2.55989 0
M  V30 4952 H 509.507 -2.43467 -3.39284 0
M  V30 4953 N 509.944 0.496216 -1.49584 0
M  V30 4954 C 510.854 1.62352 -1.69349 0
M  V30 4955 C 511.87 1.64184 -0.576147 0
M  V30 4956 O 513.046 1.82517 -0.85144 0
M  V30 4957 C 510.111 2.98698 -1.76013 0
M  V30 4958 C 509.172 3.07454 -2.99617 0
M  V30 4959 C 508.405 4.37296 -3.05953 0
M  V30 4960 O 508.628 5.2637 -2.19752 0
M  V30 4961 O 507.562 4.51124 -3.9846 0
M  V30 4962 H 511.388 1.48606 -2.64859 0
M  V30 4963 H 508.973 0.673022 -1.33382 0
M  V30 4964 H 510.855 3.79725 -1.82721 0
M  V30 4965 H 509.53 3.12696 -0.836828 0
M  V30 4966 H 508.437 2.25597 -2.98424 0
M  V30 4967 H 509.77 2.98385 -3.91443 0
M  V30 4968 N 511.423 1.38739 0.74761 0
M  V30 4969 C 512.7 1.25791 1.49786 0
M  V30 4970 C 513.08 -0.138075 2.10648 0
M  V30 4971 O 512.428 -1.14815 1.9756 0
M  V30 4972 C 512.638 2.37265 2.55942 0
M  V30 4973 C 513.986 2.75978 3.22679 0
M  V30 4974 O 515.01 2.36621 2.6625 0
M  V30 4975 O 513.869 3.43867 4.24756 0
M  V30 4976 H 510.963 0.492251 0.664543 0
M  V30 4977 H 513.509 1.50582 0.782511 0
M  V30 4978 H 512.281 3.30644 2.0926 0
M  V30 4979 H 511.904 2.14071 3.35051 0
M  V30 4980 N 512.901 -0.976442 1.23707 0
M  V30 4981 C 514.312 -1.53284 1.06587 0
M  V30 4982 C 514.663 -1.92765 -0.365526 0
M  V30 4983 O 513.788 -1.7645 -1.25277 0
M  V30 4984 C 514.383 -2.78548 1.92864 0
M  V30 4985 C 512.942 -3.30574 1.79994 0
M  V30 4986 C 512.089 -2.03538 1.88328 0
M  V30 4987 H 515.04 -0.795692 1.37311 0
M  V30 4988 H 515.061 -3.5155 1.45577 0
M  V30 4989 H 514.573 -2.49782 2.97037 0
M  V30 4990 H 512.674 -3.64211 0.786202 0
M  V30 4991 H 512.787 -4.00065 2.636 0
M  V30 4992 H 511.151 -2.17853 1.31954 0
M  V30 4993 H 511.934 -1.77149 2.94063 0
M  V30 4994 N 514.379 -1.04941 -1.1758 0
M  V30 4995 C 515.625 -0.759112 -1.88057 0
M  V30 4996 C 515.958 0.711918 -1.8068 0
M  V30 4997 O 515.233 1.52035 -1.21308 0
M  V30 4998 C 515.516 -1.237 -3.38187 0
M  V30 4999 C 515.369 -2.77078 -3.54327 0
M  V30 5000 C 516.688 -0.834014 -4.32125 0
M  V30 5001 H 513.807 -0.277237 -0.682868 0
M  V30 5002 H 516.449 -1.30296 -1.38286 0
M  V30 5003 H 514.599 -0.774337 -3.80705 0
M  V30 5004 H 516.271 -3.31449 -3.20842 0
M  V30 5005 H 514.514 -3.16477 -2.96689 0
M  V30 5006 H 515.185 -3.05577 -4.59703 0
M  V30 5007 H 517.661 -1.23228 -3.97434 0
M  V30 5008 H 516.537 -1.19603 -5.35711 0
M  V30 5009 H 516.798 0.262195 -4.41322 0
M  V30 5010 N 515.857 1.33968 -0.830081 0
M  V30 5011 C 516.82 2.27694 -0.26235 0
M  V30 5012 C 517.82 1.50589 0.563876 0
M  V30 5013 O 519.01 1.70028 0.378941 0
M  V30 5014 C 516.142 3.35002 0.63138 0
M  V30 5015 H 517.335 2.79419 -1.08928 0
M  V30 5016 H 514.888 1.44221 -0.602486 0
M  V30 5017 H 515.623 2.88504 1.48109 0
M  V30 5018 H 515.408 3.92079 0.0403276 0
M  V30 5019 H 516.898 4.04897 1.02217 0
M  V30 5020 N 517.335 0.585699 1.46312 0
M  V30 5021 C 518.581 0.0725284 2.0267 0
M  V30 5022 C 518.914 -1.28523 1.45586 0
M  V30 5023 O 518.189 -1.84283 0.622101 0
M  V30 5024 C 518.472 0.0099788 3.60099 0
M  V30 5025 C 518.325 1.39685 4.27561 0
M  V30 5026 C 519.644 -0.689117 4.34671 0
M  V30 5027 H 516.763 0.0278307 0.736474 0
M  V30 5028 H 519.405 0.753472 1.74421 0
M  V30 5029 H 517.555 -0.56992 3.84297 0
M  V30 5030 H 519.227 2.02215 4.14617 0
M  V30 5031 H 517.47 1.96374 3.86807 0
M  V30 5032 H 518.141 1.30553 5.36339 0
M  V30 5033 H 520.617 -0.196446 4.15636 0
M  V30 5034 H 519.493 -0.701921 5.44393 0
M  V30 5035 H 519.754 -1.75101 4.05946 0
M  V30 5036 N 518.813 -1.54241 0.323641 0
M  V30 5037 C 520.062 -1.9975 -0.279806 0
M  V30 5038 C 520.375 -1.2156 -1.5324 0
M  V30 5039 O 521.581 -1.57447 -2.21185 0
M  V30 5040 C 520.037 -3.55686 -0.549115 0
M  V30 5041 C 519.645 -4.4271 0.686432 0
M  V30 5042 C 521.389 -4.09663 -1.11251 0
M  V30 5043 C 519.296 -5.90119 0.389022 0
M  V30 5044 H 518.226 -0.746177 -0.10833 0
M  V30 5045 H 520.877 -1.78248 0.435877 0
M  V30 5046 H 519.259 -3.73176 -1.32499 0
M  V30 5047 H 520.433 -4.36996 1.46188 0
M  V30 5048 H 518.748 -3.99623 1.17005 0
M  V30 5049 H 521.345 -5.17386 -1.34965 0
M  V30 5050 H 521.688 -3.61651 -2.06191 0
M  V30 5051 H 522.221 -3.95806 -0.39782 0
M  V30 5052 H 518.96 -6.42326 1.30759 0
M  V30 5053 H 518.48 -5.98785 -0.348722 0
M  V30 5054 H 520.159 -6.47 -0.0011164 0
M  V30 5055 N 520.291 -0.0518155 -1.57515 0
M  V30 5056 C 521.707 0.304735 -1.56664 0
M  V30 5057 C 521.907 1.71395 -1.05953 0
M  V30 5058 O 520.963 2.42123 -0.716414 0
M  V30 5059 C 522.276 0.132614 -3.00407 0
M  V30 5060 C 523.824 0.20367 -3.12337 0
M  V30 5061 C 524.299 0.0600706 -4.57961 0
M  V30 5062 N 525.79 0.116326 -4.63054 0
M  V30 5063 C 526.525 0.0293363 -5.73392 0
M  V30 5064 N 526.021 -0.110038 -6.92713 0
M  V30 5065 N 527.814 0.0849651 -5.62036 0
M  V30 5066 H 519.965 -0.973056 -1.888 0
M  V30 5067 H 522.228 -0.377781 -0.869474 0
M  V30 5068 H 521.934 -0.839019 -3.41546 0
M  V30 5069 H 521.808 0.893376 -3.66468 0
M  V30 5070 H 524.195 1.16578 -2.71097 0
M  V30 5071 H 524.276 -0.587857 -2.48954 0
M  V30 5072 H 523.92 -0.898715 -4.99886 0
M  V30 5073 H 523.85 0.87075 -5.19351 0
M  V30 5074 H 526.341 0.22327 -3.7724 0
M  V30 5075 H 526.654 -0.169104 -7.72615 0
M  V30 5076 H 524.999 -0.145132 -6.94848 0
M  V30 5077 H 528.19 0.192411 -4.67704 0
M  V30 5078 H 528.363 0.0137131 -6.47999 0
M  V30 5079 N 521.769 1.56035 0.221574 0
M  V30 5080 C 522.997 1.8313 0.962864 0
M  V30 5081 C 523.412 0.630934 1.77946 0
M  V30 5082 O 522.769 -0.400519 1.78051 0
M  V30 5083 C 522.82 3.08742 1.88045 0
M  V30 5084 O 522.541 4.24147 1.09686 0
M  V30 5085 C 524.042 3.48824 2.73563 0
M  V30 5086 H 521.262 0.608775 0.282194 0
M  V30 5087 H 523.806 2.03124 0.23681 0
M  V30 5088 H 521.961 2.90723 2.56045 0
M  V30 5089 H 522.375 4.95505 1.71974 0
M  V30 5090 H 523.849 4.39752 3.3365 0
M  V30 5091 H 524.326 2.70575 3.45956 0
M  V30 5092 H 524.932 3.69282 2.10976 0
M  V30 5093 N 523.247 -0.488276 1.49845 0
M  V30 5094 C 524.197 -1.58556 1.63842 0
M  V30 5095 C 525.181 -1.53142 0.493586 0
M  V30 5096 O 526.373 -1.60457 0.747169 0
M  V30 5097 C 523.502 -2.97101 1.72005 0
M  V30 5098 C 522.588 -3.07463 2.92108 0
M  V30 5099 N 522.979 -2.87681 4.16021 0
M  V30 5100 C 521.277 -3.3858 2.90309 0
M  V30 5101 C 521.978 -3.0256 4.96822 0
M  V30 5102 N 520.954 -3.32002 4.30437 0
M  V30 5103 H 524.756 -1.41935 2.57355 0
M  V30 5104 H 522.27 -0.694668 1.46793 0
M  V30 5105 H 524.267 -3.75976 1.80132 0
M  V30 5106 H 522.927 -3.14782 0.796375 0
M  V30 5107 H 523.938 -2.63603 4.45796 0
M  V30 5108 H 520.615 -3.62357 2.07372 0
M  V30 5109 H 522.005 -2.9165 6.05301 0
M  V30 5110 N 524.725 -1.39134 -0.740242 0
M  V30 5111 C 525.688 -1.37217 -1.83587 0
M  V30 5112 C 526.688 -0.270221 -1.58513 0
M  V30 5113 O 527.878 -0.527843 -1.6601 0
M  V30 5114 C 525.01 -1.13959 -3.21288 0
M  V30 5115 H 526.203 -2.34705 -1.86691 0
M  V30 5116 H 523.756 -1.24622 -0.94335 0
M  V30 5117 H 524.491 -0.17131 -3.23847 0
M  V30 5118 H 524.276 -1.93754 -3.40884 0
M  V30 5119 H 525.766 -1.15346 -4.01354 0
M  V30 5120 N 526.204 0.969867 -1.24223 0
M  V30 5121 C 527.152 2.08535 -1.03034 0
M  V30 5122 C 528.146 1.69366 0.0340379 0
M  V30 5123 O 529.352 1.79597 -0.12034 0
M  V30 5124 H 525.727 0.682313 -0.316154 0
M  V30 5125 H 527.698 2.23569 -1.97635 0
M  V30 5126 C 526.447 3.4158 -0.649509 0
M  V30 5127 H 525.77 3.72177 -1.46028 0
M  V30 5128 H 527.21 4.20536 -0.540841 0
M  V30 5129 C 525.669 3.30703 0.643194 0
M  V30 5130 O 526.199 3.64443 1.68951 0
M  V30 5131 N 524.405 2.83841 0.623095 0
M  V30 5132 H 523.952 2.56583 -0.228719 0
M  V30 5133 H 523.91 2.76946 1.48823 0
M  V30 5134 N 527.682 1.05563 1.17022 0
M  V30 5135 C 529.098 0.777684 1.39371 0
M  V30 5136 C 529.298 -0.626269 1.91521 0
M  V30 5137 O 528.354 -1.38806 2.10924 0
M  V30 5138 C 529.667 1.83642 2.3811 0
M  V30 5139 C 531.215 1.85907 2.51809 0
M  V30 5140 C 531.69 2.90813 3.53824 0
M  V30 5141 N 533.181 2.898 3.61345 0
M  V30 5142 C 533.916 3.6762 4.40049 0
M  V30 5143 N 533.412 4.55237 5.22237 0
M  V30 5144 N 535.205 3.56044 4.34959 0
M  V30 5145 H 527.356 1.9614 0.815047 0
M  V30 5146 H 529.619 0.849527 0.420722 0
M  V30 5147 H 529.325 2.84425 2.06871 0
M  V30 5148 H 529.199 1.6812 3.37662 0
M  V30 5149 H 531.586 0.857865 2.82356 0
M  V30 5150 H 531.667 2.05506 1.52318 0
M  V30 5151 H 531.311 3.91122 3.24015 0
M  V30 5152 H 531.241 2.68465 4.53028 0
M  V30 5153 H 533.732 2.26274 3.02669 0
M  V30 5154 H 534.045 5.11291 5.79484 0
M  V30 5155 H 532.39 4.59296 5.21605 0
M  V30 5156 H 535.581 2.86986 3.69806 0
M  V30 5157 H 535.754 4.16938 4.96051 0
M  V30 5158 N 529.16 -1.33526 0.837174 0
M  V30 5159 C 530.09 -2.31764 0.284206 0
M  V30 5160 C 531.071 -1.58896 -0.607142 0
M  V30 5161 O 532.256 -1.86798 -0.531047 0
M  V30 5162 C 529.386 -3.43029 -0.542962 0
M  V30 5163 C 528.34 -4.27255 0.252451 0
M  V30 5164 C 527.666 -5.3012 -0.69836 0
M  V30 5165 C 528.966 -5.01229 1.46858 0
M  V30 5166 H 530.66 -2.78262 1.10502 0
M  V30 5167 H 528.206 -1.3378 0.532812 0
M  V30 5168 H 530.159 -4.1078 -0.940096 0
M  V30 5169 H 528.883 -2.95216 -1.39697 0
M  V30 5170 H 527.542 -3.61127 0.631124 0
M  V30 5171 H 527.19 -4.78564 -1.54872 0
M  V30 5172 H 526.89 -5.87353 -0.170274 0
M  V30 5173 H 528.414 -6.00737 -1.09305 0
M  V30 5174 H 529.828 -5.61756 1.14469 0
M  V30 5175 H 528.225 -5.68104 1.93333 0
M  V30 5176 H 529.295 -4.301 2.23924 0
M  V30 5177 N 530.638 -0.59345 -1.46 0
M  V30 5178 C 531.585 0.133618 -2.30413 0
M  V30 5179 C 532.555 0.873736 -1.41262 0
M  V30 5180 O 533.74 0.862279 -1.70204 0
M  V30 5181 C 530.88 1.13434 -3.25924 0
M  V30 5182 C 529.993 0.39656 -4.30176 0
M  V30 5183 C 529.128 1.38575 -5.12806 0
M  V30 5184 C 528.167 0.634984 -6.08797 0
M  V30 5185 N 527.304 1.57276 -6.84258 0
M  V30 5186 H 532.144 -0.592252 -2.92055 0
M  V30 5187 H 529.681 -0.303874 -1.43927 0
M  V30 5188 H 531.639 1.72752 -3.79753 0
M  V30 5189 H 530.269 1.82779 -2.66067 0
M  V30 5190 H 529.321 -0.311861 -3.79119 0
M  V30 5191 H 530.633 -0.189869 -4.98438 0
M  V30 5192 H 529.787 2.05141 -5.70966 0
M  V30 5193 H 528.526 2.00611 -4.44529 0
M  V30 5194 H 527.531 -0.0443925 -5.49782 0
M  V30 5195 H 528.756 0.0198678 -6.79097 0
M  V30 5196 H 526.702 2.18103 -6.18682 0
M  V30 5197 H 526.619 1.03941 -7.48821 0
M  V30 5198 H 527.887 2.22844 -7.46968 0
M  V30 5199 N 532.116 1.54067 -0.331816 0
M  V30 5200 C 533.046 2.27569 0.522932 0
M  V30 5201 C 534.027 1.28679 1.11247 0
M  V30 5202 O 535.212 1.57504 1.13605 0
M  V30 5203 C 532.342 3.0397 1.67987 0
M  V30 5204 C 531.296 4.10267 1.21924 0
M  V30 5205 C 530.622 4.74555 2.46377 0
M  V30 5206 C 531.922 5.21268 0.32815 0
M  V30 5207 H 533.616 2.99264 -0.0901977 0
M  V30 5208 H 531.162 1.4393 -0.044821 0
M  V30 5209 H 533.115 3.54123 2.28418 0
M  V30 5210 H 531.839 2.29906 2.31971 0
M  V30 5211 H 530.498 3.61009 0.637809 0
M  V30 5212 H 530.146 3.97098 3.08743 0
M  V30 5213 H 529.846 5.46363 2.16243 0
M  V30 5214 H 531.37 5.27487 3.07555 0
M  V30 5215 H 532.784 5.67128 0.838978 0
M  V30 5216 H 531.181 5.99982 0.119228 0
M  V30 5217 H 532.251 4.80673 -0.638839 0
M  V30 5218 N 533.594 0.0601682 1.57485 0
M  V30 5219 C 534.557 -0.896373 2.10945 0
M  V30 5220 C 535.557 -1.23402 1.03095 0
M  V30 5221 O 536.747 -1.16921 1.29132 0
M  V30 5222 C 533.879 -2.20346 2.60116 0
M  V30 5223 H 535.072 -0.432778 2.96761 0
M  V30 5224 H 532.625 -0.188372 1.55161 0
M  V30 5225 H 533.36 -2.71268 1.7772 0
M  V30 5226 H 533.145 -1.9714 3.38937 0
M  V30 5227 H 534.635 -2.88846 3.01592 0
M  V30 5228 N 535.072 -1.5615 -0.213296 0
M  V30 5229 C 536.32 -1.79191 -0.934612 0
M  V30 5230 C 536.641 -0.630112 -1.84539 0
M  V30 5231 O 535.911 0.35257 -1.92701 0
M  V30 5232 H 534.491 -0.660937 -0.348097 0
M  V30 5233 H 537.153 -1.93618 -0.22317 0
M  V30 5234 H 536.249 -2.71656 -1.53654 0
M  V30 5235 N 536.55 0.480323 -1.50102 0
M  V30 5236 C 537.796 1.23489 -1.60867 0
M  V30 5237 C 538.129 1.91809 -0.303827 0
M  V30 5238 O 537.404 1.81694 0.694092 0
M  V30 5239 C 537.687 2.28578 -2.78252 0
M  V30 5240 C 537.54 1.64624 -4.18592 0
M  V30 5241 C 538.859 3.2997 -2.91218 0
M  V30 5242 H 535.978 0.447605 -0.585507 0
M  V30 5243 H 538.62 0.530005 -1.82458 0
M  V30 5244 H 536.77 2.88697 -2.59974 0
M  V30 5245 H 538.442 1.08173 -4.48438 0
M  V30 5246 H 536.685 0.949645 -4.23278 0
M  V30 5247 H 537.356 2.40946 -4.96638 0
M  V30 5248 H 539.832 2.79864 -3.07921 0
M  V30 5249 H 538.708 4.00839 -3.74993 0
M  V30 5250 H 538.969 3.93541 -2.0144 0
M  V30 5251 O 538.067 1.48883 0.625791 0
M  V30 5252 H 538.758 1.45381 1.28 0
M  V30 END ATOM
M  V30 BEGIN BOND
M  V30 END BOND
M  V30 END CTAB
M  END
$$$$
