drugbank_target|P19878 Neutrophil cytosol factor 2 (DB00514)
 OpenBabel12092121003D

  0  0  0     0  0            999 V3000
M  V30 BEGIN CTAB
M  V30 COUNTS 8413 8510 0 0 0
M  V30 BEGIN ATOM
M  V30 1 H -0.908 1.98254 -0.117106 0
M  V30 2 N 0 1.576 0 0
M  V30 3 C 0.933 2.03868 1.02534 0
M  V30 4 C 1.911 0.928543 1.3348 0
M  V30 5 O 3.095 1.19667 1.45644 0
M  V30 6 C 0.222 2.43627 2.35294 0
M  V30 7 C -0.732 3.65373 2.2001 0
M  V30 8 S 0.101 5.13292 1.52614 0
M  V30 9 C 1.257 5.56322 2.86805 0
M  V30 10 H 1.49 2.90518 0.631377 0
M  V30 11 H -0.977 1.52953 0.210867 0
M  V30 12 H 0.981 2.67203 3.11629 0
M  V30 13 H -0.358 1.57376 2.7183 0
M  V30 14 H -1.165 3.90944 3.18086 0
M  V30 15 H -1.563 3.418 1.51819 0
M  V30 16 H 0.729 5.58782 3.83104 0
M  V30 17 H 1.672 6.56266 2.65933 0
M  V30 18 H 2.08 4.83886 2.90714 0
M  V30 19 N 1.4781 -0.272755 1.55222 0
M  V30 20 C 2.7031 -1.02683 1.80197 0
M  V30 21 C 3.1281 -1.79142 0.573551 0
M  V30 22 O 2.4861 -1.74917 -0.476849 0
M  V30 23 C 2.5341 -1.9609 3.02624 0
M  V30 24 O 1.6381 -3.04863 2.77727 0
M  V30 25 H 0.9791 -0.293557 0.595584 0
M  V30 26 H 3.5091 -0.30159 2.02365 0
M  V30 27 H 3.5191 -2.38039 3.31363 0
M  V30 28 H 2.1941 -1.39851 3.91682 0
M  V30 29 H 0.7711 -2.67228 2.60084 0
M  V30 30 N 2.9562 -1.48159 -0.537278 0
M  V30 31 C 3.8862 -1.65029 -1.6519 0
M  V30 32 C 4.8672 -0.499281 -1.62607 0
M  V30 33 O 6.0522 -0.730972 -1.79918 0
M  V30 34 C 3.1822 -1.68303 -3.03795 0
M  V30 35 C 2.1362 -2.8283 -3.21234 0
M  V30 36 C 1.4622 -2.71189 -4.60826 0
M  V30 37 C 2.7622 -4.24211 -3.04701 0
M  V30 38 H 4.4562 -2.58341 -1.51328 0
M  V30 39 H 2.0022 -1.24325 -0.726585 0
M  V30 40 H 3.9552 -1.78693 -3.81637 0
M  V30 41 H 2.6792 -0.715635 -3.18663 0
M  V30 42 H 1.3382 -2.71983 -2.45807 0
M  V30 43 H 0.9862 -1.72435 -4.7252 0
M  V30 44 H 0.6862 -3.48035 -4.7344 0
M  V30 45 H 2.2102 -2.83537 -5.40777 0
M  V30 46 H 3.6242 -4.3593 -3.72341 0
M  V30 47 H 2.0212 -5.01998 -3.28813 0
M  V30 48 H 3.0912 -4.41184 -2.01209 0
M  V30 49 N 4.4343 0.785586 -1.36625 0
M  V30 50 C 5.6803 1.54591 -1.31261 0
M  V30 51 C 6.0133 1.93906 0.106823 0
M  V30 52 O 5.2883 1.63007 1.06108 0
M  V30 53 C 5.5713 2.82038 -2.23889 0
M  V30 54 C 5.4243 2.49066 -3.74548 0
M  V30 55 C 6.7433 3.83887 -2.15217 0
M  V30 56 H 3.8623 0.560846 -0.478143 0
M  V30 57 H 6.5043 0.902278 -1.67209 0
M  V30 58 H 4.6543 3.36961 -1.93363 0
M  V30 59 H 6.3263 2.00164 -4.15611 0
M  V30 60 H 4.5693 1.81954 -3.93796 0
M  V30 61 H 5.2403 3.40109 -4.34776 0
M  V30 62 H 7.7163 3.38421 -2.42096 0
M  V30 63 H 6.5923 4.70806 -2.82193 0
M  V30 64 H 6.8533 4.27131 -1.14068 0
M  V30 65 N 5.9124 1.20967 1.01018 0
M  V30 66 C 6.8224 0.980157 2.13143 0
M  V30 67 C 7.8384 -0.0660665 1.73875 0
M  V30 68 O 9.0144 0.122821 2.01025 0
M  V30 69 C 6.0794 0.54216 3.42435 0
M  V30 70 C 5.1404 1.65999 3.95908 0
M  V30 71 C 4.3734 1.2428 5.19028 0
M  V30 72 O 4.5964 0.114196 5.70286 0
M  V30 73 O 3.5304 2.05271 5.65816 0
M  V30 74 H 7.3564 1.91913 2.35379 0
M  V30 75 H 4.9414 0.994099 1.11526 0
M  V30 76 H 6.8234 0.30744 4.20277 0
M  V30 77 H 5.4984 -0.36815 3.216 0
M  V30 78 H 4.4054 1.94906 3.19316 0
M  V30 79 H 5.7384 2.54753 4.21143 0
M  V30 80 N 7.3905 -1.2043 1.01659 0
M  V30 81 C 8.3535 -2.21433 0.591616 0
M  V30 82 C 9.3535 -1.57203 -0.338226 0
M  V30 83 O 10.5435 -1.73737 -0.126918 0
M  V30 84 C 7.6755 -3.40628 -0.136058 0
M  V30 85 H 8.8685 -2.60545 1.48514 0
M  V30 86 H 6.4215 -1.33893 0.806379 0
M  V30 87 H 7.1565 -3.07019 -1.04449 0
M  V30 88 H 6.9415 -3.88475 0.531917 0
M  V30 89 H 8.4315 -4.15475 -0.420735 0
M  V30 90 N 8.8686 -0.792821 -1.36206 0
M  V30 91 C 10.1176 -0.363353 -1.984 0
M  V30 92 C 10.4306 1.07172 -1.63626 0
M  V30 93 O 11.6366 1.60362 -2.19081 0
M  V30 94 C 10.0926 -0.59872 -3.54885 0
M  V30 95 C 9.7006 -2.04543 -3.9858 0
M  V30 96 C 11.4446 -0.233926 -4.23855 0
M  V30 97 C 9.3516 -2.22727 -5.47856 0
M  V30 98 H 8.2816 -0.13212 -0.742334 0
M  V30 99 H 10.9326 -0.974935 -1.55458 0
M  V30 100 H 9.3146 0.0826222 -3.95914 0
M  V30 101 H 10.4886 -2.76345 -3.68741 0
M  V30 102 H 8.8036 -2.36879 -3.42458 0
M  V30 103 H 11.4006 -0.348027 -5.33566 0
M  V30 104 H 11.7436 0.818351 -4.08177 0
M  V30 105 H 12.2766 -0.868639 -3.882 0
M  V30 106 H 9.0156 -3.2635 -5.68486 0
M  V30 107 H 8.5356 -1.55434 -5.7931 0
M  V30 108 H 10.2146 -2.03607 -6.14128 0
M  V30 109 N 10.3467 1.47872 -0.545128 0
M  V30 110 C 11.5717 2.07391 -0.0190611 0
M  V30 111 C 11.9967 1.39688 1.25971 0
M  V30 112 O 11.3547 0.467816 1.7516 0
M  V30 113 C 11.4027 3.60188 0.172335 0
M  V30 114 O 10.5067 3.9339 1.23766 0
M  V30 115 H 9.8477 0.662411 -0.0459059 0
M  V30 116 H 12.3777 1.90066 -0.757365 0
M  V30 117 H 12.3877 4.06129 0.390305 0
M  V30 118 H 11.0627 4.08865 -0.761725 0
M  V30 119 H 9.6397 3.5921 1.00114 0
M  V30 120 N 11.8248 0.280983 1.55075 0
M  V30 121 C 12.7548 -0.597469 2.25727 0
M  V30 122 C 13.7358 -1.15417 1.24952 0
M  V30 123 O 14.9208 -1.18722 1.53684 0
M  V30 124 C 12.0508 -1.7789 2.98283 0
M  V30 125 C 11.0048 -1.35347 4.06036 0
M  V30 126 C 10.3308 -2.61846 4.66198 0
M  V30 127 C 11.6308 -0.499354 5.19907 0
M  V30 128 H 13.3248 -0.00824265 2.99399 0
M  V30 129 H 10.8708 -0.0025244 1.44 0
M  V30 130 H 12.8238 -2.39937 3.46422 0
M  V30 131 H 11.5478 -2.39405 2.22155 0
M  V30 132 H 10.2068 -0.756156 3.58717 0
M  V30 133 H 9.8548 -3.21632 3.86732 0
M  V30 134 H 9.5548 -2.3409 5.38958 0
M  V30 135 H 11.0788 -3.24732 5.1709 0
M  V30 136 H 12.4928 -1.02498 5.64063 0
M  V30 137 H 10.8898 -0.316424 5.99265 0
M  V30 138 H 11.9598 0.480459 4.82514 0
M  V30 139 N 13.3029 -1.57598 0.00835791 0
M  V30 140 C 14.5489 -1.92046 -0.670055 0
M  V30 141 C 14.9039 -0.88351 -1.70915 0
M  V30 142 O 14.1969 0.103223 -1.91322 0
M  V30 143 C 14.3909 -3.3101 -1.34787 0
M  V30 144 C 14.2199 -4.48126 -0.375945 0
M  V30 145 C 12.9899 -5.05297 0.0166914 0
M  V30 146 C 15.1879 -5.1303 0.361272 0
M  V30 147 N 13.1699 -6.05931 0.985952 0
M  V30 148 C 14.5409 -6.08571 1.18495 0
M  V30 149 C 16.5959 -4.9609 0.42421 0
M  V30 150 C 15.2989 -6.88996 2.06584 0
M  V30 151 C 17.3249 -5.77107 1.29236 0
M  V30 152 C 16.6869 -6.72248 2.10386 0
M  V30 153 H 12.7859 -0.75096 -0.218136 0
M  V30 154 H 15.3699 -1.94572 0.0706669 0
M  V30 155 H 13.5409 -3.29342 -2.05884 0
M  V30 156 H 15.2729 -3.52864 -1.98164 0
M  V30 157 H 12.0279 -4.72279 -0.353435 0
M  V30 158 H 12.4519 -6.60932 1.4662 0
M  V30 159 H 17.0939 -4.22378 -0.188915 0
M  V30 160 H 14.8119 -7.62028 2.6896 0
M  V30 161 H 18.3979 -5.66038 1.34508 0
M  V30 162 H 17.2779 -7.33846 2.76476 0
M  V30 163 N 14.781 0.264519 -1.55364 0
M  V30 164 C 15.729 1.34702 -1.89626 0
M  V30 165 C 16.723 1.50712 -0.773459 0
M  V30 166 O 17.929 1.52395 -0.957897 0
M  V30 167 H 14.304 0.450682 -0.601988 0
M  V30 168 H 16.275 1.0306 -2.80038 0
M  V30 169 C 15.024 2.6989 -2.19214 0
M  V30 170 H 14.347 2.58365 -3.05103 0
M  V30 171 H 15.787 3.44553 -2.47102 0
M  V30 172 C 14.246 3.21637 -1.00254 0
M  V30 173 O 14.776 4.00973 -0.241501 0
M  V30 174 N 12.982 2.7943 -0.797938 0
M  V30 175 H 12.529 2.15026 -1.4185 0
M  V30 176 H 12.487 3.144 -0.00363422 0
M  V30 177 N 16.2591 1.48442 0.529413 0
M  V30 178 C 17.1691 1.6569 1.66084 0
M  V30 179 C 18.1851 0.539432 1.65427 0
M  V30 180 O 19.3611 0.810572 1.84368 0
M  V30 181 C 16.4261 1.69315 3.02545 0
M  V30 182 C 15.4871 2.92694 3.14052 0
M  V30 183 C 14.7201 2.96137 4.44003 0
M  V30 184 O 14.9431 2.07973 5.31134 0
M  V30 185 O 13.8771 3.88312 4.59888 0
M  V30 186 H 17.7031 2.61483 1.54469 0
M  V30 187 H 15.2881 1.3185 0.702567 0
M  V30 188 H 17.1701 1.74217 3.83701 0
M  V30 189 H 15.8451 0.766966 3.14483 0
M  V30 190 H 14.7521 2.93324 2.32189 0
M  V30 191 H 16.0851 3.84699 3.0703 0
M  V30 192 N 17.7372 -0.778329 1.37039 0
M  V30 193 C 18.9852 -1.53361 1.31623 0
M  V30 194 C 19.3062 -1.94739 -0.100831 0
M  V30 195 O 18.5762 -1.65797 -1.04347 0
M  V30 196 H 17.1562 -0.568794 0.484234 0
M  V30 197 H 19.8182 -0.926742 1.71457 0
M  V30 198 H 18.9142 -2.43606 1.95096 0
M  V30 199 N 19.2153 -1.21501 -1.00376 0
M  V30 200 C 20.4613 -1.03452 -1.74429 0
M  V30 201 C 20.7943 0.430764 -1.89362 0
M  V30 202 O 20.0693 1.31962 -1.42886 0
M  V30 203 C 20.3523 -1.73375 -3.15615 0
M  V30 204 C 20.2053 -3.27431 -3.08397 0
M  V30 205 C 21.5243 -1.47732 -4.14564 0
M  V30 206 H 18.6433 -0.377226 -0.633143 0
M  V30 207 H 21.2853 -1.49693 -1.17013 0
M  V30 208 H 19.4353 -1.34064 -3.64636 0
M  V30 209 H 21.1073 -3.76119 -2.67081 0
M  V30 210 H 19.3503 -3.5767 -2.45468 0
M  V30 211 H 20.0213 -3.71524 -4.08258 0
M  V30 212 H 22.4973 -1.8186 -3.74254 0
M  V30 213 H 21.3733 -1.99169 -5.11491 0
M  V30 214 H 21.6343 -0.407589 -4.40217 0
M  V30 215 N 20.6934 1.19889 -1.02296 0
M  V30 216 C 21.6234 2.25141 -0.619174 0
M  V30 217 C 22.6044 1.66051 0.368915 0
M  V30 218 O 23.7894 1.92546 0.252941 0
M  V30 219 C 20.9194 3.4728 0.0368783 0
M  V30 220 C 19.8734 4.19005 -0.872865 0
M  V30 221 C 19.1994 5.34637 -0.0822402 0
M  V30 222 C 20.4994 4.74452 -2.18387 0
M  V30 223 H 22.1934 2.59171 -1.49903 0
M  V30 224 H 19.7394 1.24579 -0.722222 0
M  V30 225 H 21.6924 4.20098 0.330958 0
M  V30 226 H 20.4164 3.12433 0.95149 0
M  V30 227 H 19.0754 3.48061 -1.15105 0
M  V30 228 H 18.7234 4.96034 0.83422 0
M  V30 229 H 18.4234 5.83557 -0.688149 0
M  V30 230 H 19.9474 6.10255 0.205238 0
M  V30 231 H 21.3614 5.39055 -1.95172 0
M  V30 232 H 19.7584 5.33834 -2.74119 0
M  V30 233 H 20.8284 3.92844 -2.84257 0
M  V30 234 N 22.1715 0.800033 1.35784 0
M  V30 235 C 23.1345 0.211565 2.28221 0
M  V30 236 C 24.1345 -0.59728 1.49296 0
M  V30 237 O 25.3245 -0.416721 1.69142 0
M  V30 238 C 22.4565 -0.705846 3.33513 0
M  V30 239 H 23.6495 1.02677 2.81776 0
M  V30 240 H 21.2025 0.570211 1.45528 0
M  V30 241 H 21.9375 -1.54498 2.85133 0
M  V30 242 H 21.7225 -0.127655 3.91892 0
M  V30 243 H 23.2125 -1.11211 4.02519 0
M  V30 244 N 23.6496 -1.47581 0.552962 0
M  V30 245 C 24.6126 -2.28439 -0.186605 0
M  V30 246 C 25.6126 -1.36706 -0.84665 0
M  V30 247 O 26.8026 -1.59378 -0.703164 0
M  V30 248 C 23.9346 -3.16264 -1.2724 0
M  V30 249 H 25.1276 -2.95294 0.523609 0
M  V30 250 H 22.6806 -1.532 0.309745 0
M  V30 251 H 23.4156 -2.54091 -2.01514 0
M  V30 252 H 23.2006 -3.83769 -0.803968 0
M  V30 253 H 24.6906 -3.77198 -1.79196 0
M  V30 254 N 25.1277 -0.289203 -1.54924 0
M  V30 255 C 26.4047 0.376032 -1.91951 0
M  V30 256 C 26.7847 1.72622 -1.21511 0
M  V30 257 O 26.1327 2.25853 -0.346767 0
M  V30 258 C 26.3427 0.502378 -3.45365 0
M  V30 259 C 27.6907 0.778741 -4.17398 0
M  V30 260 O 28.7147 0.586647 -3.51336 0
M  V30 261 O 27.5737 1.14698 -5.34328 0
M  V30 262 H 24.6677 0.208167 -0.800372 0
M  V30 263 H 27.2137 -0.336394 -1.66332 0
M  V30 264 H 25.9857 -0.447255 -3.88736 0
M  V30 265 H 25.6087 1.26373 -3.76982 0
M  V30 266 N 26.6058 1.57591 -0.0167156 0
M  V30 267 C 27.5528 2.09462 0.969251 0
M  V30 268 C 28.5228 0.99381 1.33089 0
M  V30 269 O 29.7078 1.26726 1.42636 0
M  V30 270 C 26.8478 2.61622 2.25051 0
M  V30 271 C 25.9608 3.85666 1.94642 0
M  V30 272 C 25.0958 4.26266 3.16972 0
M  V30 273 C 24.1348 5.43101 2.82326 0
M  V30 274 N 23.2718 5.78915 3.97243 0
M  V30 275 H 28.1118 2.93428 0.519997 0
M  V30 276 H 25.6488 1.45044 0.245087 0
M  V30 277 H 27.6068 2.89949 2.99976 0
M  V30 278 H 26.2368 1.80505 2.67615 0
M  V30 279 H 25.2888 3.64145 1.10013 0
M  V30 280 H 26.6008 4.70678 1.65117 0
M  V30 281 H 25.7548 4.55963 4.00228 0
M  V30 282 H 24.4938 3.39996 3.49648 0
M  V30 283 H 23.4988 5.1311 1.97479 0
M  V30 284 H 24.7238 6.3106 2.50879 0
M  V30 285 H 22.6698 4.95602 4.29785 0
M  V30 286 H 22.5868 6.58539 3.71299 0
M  V30 287 H 23.8548 6.13212 4.81239 0
M  V30 288 N 28.0839 -0.256276 1.55502 0
M  V30 289 C 29.0309 -1.31714 1.89526 0
M  V30 290 C 30.0009 -1.4828 0.748479 0
M  V30 291 O 31.1859 -1.62416 1.00128 0
M  V30 292 C 28.3259 -2.66933 2.18725 0
M  V30 293 C 27.4389 -2.58452 3.4616 0
M  V30 294 C 26.5739 -3.85961 3.64976 0
M  V30 295 C 25.6129 -3.72059 4.86044 0
M  V30 296 N 24.7499 -4.9144 5.01429 0
M  V30 297 H 29.5899 -1.01998 2.80001 0
M  V30 298 H 27.1269 -0.492413 1.38613 0
M  V30 299 H 29.0849 -3.4563 2.33657 0
M  V30 300 H 27.7149 -2.94816 1.31466 0
M  V30 301 H 26.7669 -1.71374 3.3961 0
M  V30 302 H 28.0789 -2.44085 4.34999 0
M  V30 303 H 27.2329 -4.73101 3.79816 0
M  V30 304 H 25.9719 -4.03215 2.74353 0
M  V30 305 H 24.9769 -2.83302 4.7119 0
M  V30 306 H 26.2019 -3.56309 5.78118 0
M  V30 307 H 24.1479 -5.09072 4.13741 0
M  V30 308 H 24.0649 -4.79668 5.84341 0
M  V30 309 H 25.3329 -5.80104 5.20672 0
M  V30 310 N 29.562 -1.4872 -0.521534 0
M  V30 311 C 30.839 -1.4766 -1.2828 0
M  V30 312 C 31.219 -0.19292 -2.10217 0
M  V30 313 O 30.567 0.825193 -2.13079 0
M  V30 314 C 30.777 -2.74358 -2.15705 0
M  V30 315 C 32.125 -3.23028 -2.75569 0
M  V30 316 O 33.149 -2.75333 -2.25987 0
M  V30 317 O 32.008 -4.0604 -3.65778 0
M  V30 318 H 29.102 -0.590085 -0.579421 0
M  V30 319 H 31.648 -1.60963 -0.537492 0
M  V30 320 H 30.42 -3.59292 -1.54999 0
M  V30 321 H 30.043 -2.63816 -2.97467 0
M  V30 322 N 31.0401 0.771051 -1.3745 0
M  V30 323 C 32.2861 1.53109 -1.339 0
M  V30 324 C 32.6411 1.9225 0.0758401 0
M  V30 325 O 31.9341 1.61264 1.03463 0
M  V30 326 C 32.1281 2.80676 -2.2126 0
M  V30 327 C 31.9571 2.54003 -3.71096 0
M  V30 328 C 30.7271 2.48097 -4.402 0
M  V30 329 C 32.9251 2.21953 -4.63941 0
M  V30 330 N 30.9071 2.13515 -5.75573 0
M  V30 331 C 32.2781 1.97516 -5.87697 0
M  V30 332 C 34.3331 2.08114 -4.5232 0
M  V30 333 C 33.0361 1.60638 -7.01133 0
M  V30 334 C 35.0621 1.72636 -5.65642 0
M  V30 335 C 34.4241 1.4906 -6.88448 0
M  V30 336 H 30.5231 0.56055 -0.54526 0
M  V30 337 H 33.1071 0.899472 -1.72678 0
M  V30 338 H 31.2781 3.41674 -1.84698 0
M  V30 339 H 33.0101 3.46578 -2.08963 0
M  V30 340 H 29.7651 2.63974 -3.93211 0
M  V30 341 H 30.1891 1.98919 -6.47117 0
M  V30 342 H 34.8311 2.25024 -3.57944 0
M  V30 343 H 32.5491 1.42467 -7.95443 0
M  V30 344 H 36.1351 1.62586 -5.58621 0
M  V30 345 H 35.0151 1.22014 -7.7465 0
M  V30 346 N 32.5182 1.22032 0.997298 0
M  V30 347 C 33.4652 0.986467 2.08656 0
M  V30 348 C 34.4352 -0.0902671 1.65855 0
M  V30 349 O 35.6202 0.0584294 1.90711 0
M  V30 350 C 32.7602 0.565569 3.40434 0
M  V30 351 C 31.8732 1.71259 3.96604 0
M  V30 352 C 31.0082 1.24011 5.16522 0
M  V30 353 C 30.0472 2.35896 5.64818 0
M  V30 354 N 29.1842 1.89726 6.7598 0
M  V30 355 H 34.0242 1.91892 2.27994 0
M  V30 356 H 31.5612 0.956199 1.11782 0
M  V30 357 H 33.5192 0.302738 4.161 0
M  V30 358 H 32.1492 -0.329879 3.2111 0
M  V30 359 H 31.2012 2.08986 3.17851 0
M  V30 360 H 32.5132 2.55436 4.28432 0
M  V30 361 H 31.6672 0.934395 5.99461 0
M  V30 362 H 30.4062 0.368487 4.86306 0
M  V30 363 H 29.4112 2.67261 4.8047 0
M  V30 364 H 30.6362 3.23567 5.97061 0
M  V30 365 H 28.5822 1.0492 6.47555 0
M  V30 366 H 28.4992 2.67471 7.07103 0
M  V30 367 H 29.7672 1.62211 7.62435 0
M  V30 368 N 33.9963 -1.19345 1.0293 0
M  V30 369 C 35.2443 -1.88665 0.724574 0
M  V30 370 C 35.5653 -1.80036 -0.749144 0
M  V30 371 O 34.8353 -1.2111 -1.53978 0
M  V30 372 H 33.4153 -0.698406 0.265025 0
M  V30 373 H 36.0773 -1.44885 1.30362 0
M  V30 374 H 35.1733 -2.94987 1.01926 0
M  V30 375 N 35.4744 -0.807222 -1.35358 0
M  V30 376 C 36.4374 -0.223665 -2.28106 0
M  V30 377 C 37.4374 0.589354 -1.4961 0
M  V30 378 O 38.6274 0.407745 -1.69361 0
M  V30 379 C 35.7594 0.688149 -3.33882 0
M  V30 380 H 36.9524 -1.04169 -2.81227 0
M  V30 381 H 34.5054 -0.577921 -1.45223 0
M  V30 382 H 35.2404 1.52984 -2.85948 0
M  V30 383 H 35.0254 0.10687 -3.91954 0
M  V30 384 H 36.5154 1.09075 -4.03104 0
M  V30 385 N 36.9525 1.47285 -0.560781 0
M  V30 386 C 37.8825 2.32857 0.173105 0
M  V30 387 C 38.8635 1.44009 0.905281 0
M  V30 388 O 40.0485 1.7286 0.885046 0
M  V30 389 C 37.1785 3.25861 1.20133 0
M  V30 390 C 36.1325 4.23978 0.585388 0
M  V30 391 C 35.4585 5.06332 1.7185 0
M  V30 392 C 36.7585 5.20242 -0.463178 0
M  V30 393 H 38.4525 2.94466 -0.541307 0
M  V30 394 H 35.9985 1.41601 -0.261764 0
M  V30 395 H 37.9515 3.84569 1.72293 0
M  V30 396 H 36.6755 2.62315 1.94573 0
M  V30 397 H 35.3345 3.66501 0.085054 0
M  V30 398 H 34.9825 4.39186 2.45203 0
M  V30 399 H 34.6825 5.72762 1.31213 0
M  V30 400 H 36.2065 5.67899 2.24329 0
M  V30 401 H 37.6205 5.73293 -0.027502 0
M  V30 402 H 36.0175 5.94896 -0.788627 0
M  V30 403 H 37.0875 4.65504 -1.35773 0
M  V30 404 N 38.4306 0.297415 1.54768 0
M  V30 405 C 39.7076 -0.365847 1.92148 0
M  V30 406 C 40.0876 -1.71975 1.22424 0
M  V30 407 O 39.4356 -2.25666 0.358739 0
M  V30 408 C 39.6456 -0.484056 3.45627 0
M  V30 409 C 40.9936 -0.756594 4.17805 0
M  V30 410 O 42.0176 -0.568007 3.51642 0
M  V30 411 O 40.8766 -1.11863 5.34929 0
M  V30 412 H 37.9706 -0.203919 0.801465 0
M  V30 413 H 40.5166 0.34521 1.66152 0
M  V30 414 H 39.2886 0.467865 3.88493 0
M  V30 415 H 38.9116 -1.24372 3.77647 0
M  V30 416 N 39.9087 -1.5758 0.0250728 0
M  V30 417 C 40.8717 -2.08896 -0.943139 0
M  V30 418 C 41.8717 -1.00321 -1.25668 0
M  V30 419 O 43.0617 -1.26495 -1.19769 0
M  V30 420 C 40.1937 -2.55143 -2.26086 0
M  V30 421 H 41.3867 -2.95723 -0.498775 0
M  V30 422 H 38.9397 -1.54703 -0.222888 0
M  V30 423 H 39.6747 -1.71633 -2.75159 0
M  V30 424 H 39.4597 -3.34461 -2.04641 0
M  V30 425 H 40.9497 -2.95083 -2.95492 0
M  V30 426 N 41.3868 0.248026 -1.55636 0
M  V30 427 C 42.6338 0.976224 -1.77415 0
M  V30 428 C 42.9618 1.85361 -0.589193 0
M  V30 429 O 42.2168 1.90973 0.427529 0
M  V30 430 C 42.5158 1.86819 -3.04686 0
M  V30 431 C 42.1818 1.14625 -4.36087 0
M  V30 432 C 40.8438 0.946723 -4.71795 0
M  V30 433 C 43.1958 0.634463 -5.17324 0
M  V30 434 C 40.5238 0.223091 -5.86276 0
M  V30 435 C 42.8758 -0.0756959 -6.32555 0
M  V30 436 C 41.5398 -0.286711 -6.66884 0
M  V30 437 H 40.8098 0.357226 -0.649208 0
M  V30 438 H 43.4568 0.246415 -1.89908 0
M  V30 439 H 41.7618 2.66502 -2.872 0
M  V30 440 H 43.4588 2.43329 -3.18735 0
M  V30 441 H 40.0488 1.3117 -4.08035 0
M  V30 442 H 44.2328 0.77616 -4.90193 0
M  V30 443 H 39.4888 0.0491185 -6.1138 0
M  V30 444 H 43.6628 -0.479899 -6.94745 0
M  V30 445 H 41.2898 -0.849389 -7.5544 0
M  V30 446 N 42.8649 1.48995 0.513639 0
M  V30 447 C 44.0899 1.61792 1.29762 0
M  V30 448 C 44.5149 0.284475 1.85936 0
M  V30 449 O 43.8729 -0.746185 1.65232 0
M  V30 450 C 43.9209 2.67993 2.41272 0
M  V30 451 O 43.0249 2.26287 3.44772 0
M  V30 452 H 42.3659 0.541963 0.38363 0
M  V30 453 H 44.8959 1.95097 0.616307 0
M  V30 454 H 44.9059 2.89772 2.87221 0
M  V30 455 H 43.5809 3.64791 1.9975 0
M  V30 456 H 42.1579 2.14788 3.04829 0
M  V30 457 N 44.343 -0.763751 1.37857 0
M  V30 458 C 45.306 -1.85889 1.34081 0
M  V30 459 C 46.306 -1.58949 0.243277 0
M  V30 460 O 47.496 -1.66882 0.499589 0
M  V30 461 C 44.628 -3.23176 1.08489 0
M  V30 462 H 45.821 -1.90648 2.31502 0
M  V30 463 H 43.374 -0.964367 1.23003 0
M  V30 464 H 44.109 -3.24091 0.116318 0
M  V30 465 H 43.894 -3.44124 1.8794 0
M  V30 466 H 45.384 -4.03254 1.08517 0
M  V30 467 N 45.8211 -1.22559 -0.990812 0
M  V30 468 C 47.0671 -1.05297 -1.73322 0
M  V30 469 C 47.4001 0.410655 -1.89808 0
M  V30 470 O 46.6751 1.30439 -1.44277 0
M  V30 471 C 46.9581 -1.76713 -3.13759 0
M  V30 472 C 46.8111 -3.30684 -3.04907 0
M  V30 473 C 48.1301 -1.52121 -4.12974 0
M  V30 474 H 45.2491 -0.38392 -0.629106 0
M  V30 475 H 47.8911 -1.50926 -1.15418 0
M  V30 476 H 46.0411 -1.37924 -3.63193 0
M  V30 477 H 47.7131 -3.7893 -2.63077 0
M  V30 478 H 45.9561 -3.60253 -2.41661 0
M  V30 479 H 46.6271 -3.75833 -4.04294 0
M  V30 480 H 49.1031 -1.85819 -3.72304 0
M  V30 481 H 47.9791 -2.04582 -5.0935 0
M  V30 482 H 48.2401 -0.454257 -4.3976 0
M  V30 483 N 47.2992 1.18797 -1.03562 0
M  V30 484 C 48.2312 2.21731 -0.580337 0
M  V30 485 C 49.2442 1.59051 0.347349 0
M  V30 486 O 50.4332 1.77929 0.142669 0
M  V30 487 C 47.5332 3.38459 0.172805 0
M  V30 488 C 46.7062 4.3072 -0.761496 0
M  V30 489 C 45.7652 5.26174 -0.0525547 0
M  V30 490 O 44.7912 5.65108 -0.681333 0
M  V30 491 N 45.9932 5.67624 1.21586 0
M  V30 492 H 48.7582 2.61417 -1.46565 0
M  V30 493 H 46.3192 1.33531 -0.915476 0
M  V30 494 H 48.3112 3.99335 0.656793 0
M  V30 495 H 46.8812 2.97507 0.959602 0
M  V30 496 H 46.1012 3.67525 -1.42544 0
M  V30 497 H 47.3892 4.89267 -1.39626 0
M  V30 498 H 46.7872 5.38038 1.74732 0
M  V30 499 H 45.3442 6.30721 1.64421 0
M  V30 500 N 48.7773 0.814389 1.34928 0
M  V30 501 C 50.0543 0.321363 1.92942 0
M  V30 502 C 50.4343 -1.19014 1.74353 0
M  V30 503 O 49.7823 -1.99328 1.11716 0
M  V30 504 C 49.9923 0.741323 3.41036 0
M  V30 505 C 51.3403 0.735266 4.18185 0
M  V30 506 O 52.3643 0.68336 3.49584 0
M  V30 507 O 51.2233 0.800703 5.40602 0
M  V30 508 H 48.3173 0.0858893 0.822528 0
M  V30 509 H 50.8633 0.898609 1.43955 0
M  V30 510 H 49.6353 1.78276 3.4833 0
M  V30 511 H 49.2583 0.139307 3.97356 0
M  V30 512 N 50.2554 -1.46986 0.568584 0
M  V30 513 C 51.6664 -1.86188 0.138219 0
M  V30 514 C 52.0174 -1.47388 -1.29504 0
M  V30 515 O 51.1424 -0.88219 -1.97602 0
M  V30 516 C 51.7374 -3.3792 0.244065 0
M  V30 517 C 50.2964 -3.76171 -0.131335 0
M  V30 518 C 49.4434 -2.71027 0.586465 0
M  V30 519 H 52.3944 -1.38342 0.777645 0
M  V30 520 H 52.4154 -3.76729 -0.534351 0
M  V30 521 H 51.9274 -3.66128 1.28731 0
M  V30 522 H 50.0284 -3.5358 -1.17526 0
M  V30 523 H 50.1414 -4.78523 0.235146 0
M  V30 524 H 48.5054 -2.54684 0.0282722 0
M  V30 525 H 49.2884 -3.02077 1.63109 0
M  V30 526 N 51.7335 -0.305618 -1.54608 0
M  V30 527 C 52.6835 0.583595 -2.20405 0
M  V30 528 C 53.6675 1.09539 -1.17856 0
M  V30 529 O 54.8595 1.0354 -1.43557 0
M  V30 530 C 51.9885 1.75277 -2.95183 0
M  V30 531 C 51.0745 1.25672 -4.05052 0
M  V30 532 N 51.4655 0.478998 -5.03527 0
M  V30 533 C 49.7635 1.53704 -4.18678 0
M  V30 534 C 50.4645 0.214269 -5.81305 0
M  V30 535 N 49.4405 0.795374 -5.3775 0
M  V30 536 H 53.2425 -0.0180946 -2.93894 0
M  V30 537 H 50.7565 -0.110601 -1.62023 0
M  V30 538 H 52.7535 2.4014 -3.40791 0
M  V30 539 H 51.4135 2.35812 -2.23211 0
M  V30 540 H 52.4245 0.123473 -5.17753 0
M  V30 541 H 49.1015 2.14954 -3.57912 0
M  V30 542 H 50.4915 -0.410656 -6.70644 0
M  V30 543 N 53.2116 1.57565 -0.0334293 0
M  V30 544 C 54.4366 1.96689 0.657895 0
M  V30 545 C 54.8616 0.910057 1.64619 0
M  V30 546 O 54.2196 -0.128598 1.80843 0
M  V30 547 C 54.2676 3.34905 1.33683 0
M  V30 548 O 53.3716 3.31574 2.45219 0
M  V30 549 H 52.7126 0.641205 0.172489 0
M  V30 550 H 55.2426 2.04372 -0.0965621 0
M  V30 551 H 55.2526 3.71234 1.69262 0
M  V30 552 H 53.9276 4.11366 0.612411 0
M  V30 553 H 52.5046 3.06968 2.11719 0
M  V30 554 N 54.6897 -0.239769 1.55765 0
M  V30 555 C 56.1057 -0.588624 1.48349 0
M  V30 556 C 56.3057 -1.88005 0.72502 0
M  V30 557 O 55.3617 -2.51186 0.257269 0
M  V30 558 C 56.6747 -0.68474 2.928 0
M  V30 559 C 58.2227 -0.77659 3.03213 0
M  V30 560 C 58.6977 -0.904207 4.48986 0
M  V30 561 N 60.1887 -0.968896 4.52953 0
M  V30 562 C 60.9237 -1.08703 5.63002 0
M  V30 563 N 60.4197 -1.17026 6.82845 0
M  V30 564 N 62.2127 -1.12074 5.50814 0
M  V30 565 H 54.3637 0.607911 2.03515 0
M  V30 566 H 56.6267 0.21083 0.924259 0
M  V30 567 H 56.3327 0.194284 3.51163 0
M  V30 568 H 56.2067 -1.55435 3.43686 0
M  V30 569 H 58.5937 -1.64606 2.44926 0
M  V30 570 H 58.6747 0.118315 2.55526 0
M  V30 571 H 58.3187 -0.0392633 5.07885 0
M  V30 572 H 58.2487 -1.81426 4.9436 0
M  V30 573 H 60.7397 -0.915633 3.6664 0
M  V30 574 H 61.0527 -1.25966 7.62465 0
M  V30 575 H 59.3977 -1.13971 6.85591 0
M  V30 576 H 62.5887 -1.05226 4.5612 0
M  V30 577 H 62.7617 -1.20936 6.36615 0
M  V30 578 N 56.1678 -1.49265 -0.50573 0
M  V30 579 C 57.4168 -1.57761 -1.25675 0
M  V30 580 C 57.7298 -0.267371 -1.93764 0
M  V30 581 O 58.9358 -0.230827 -2.70517 0
M  V30 582 C 57.3918 -2.78332 -2.28165 0
M  V30 583 C 56.9998 -4.16096 -1.66037 0
M  V30 584 C 58.7438 -2.96155 -3.04125 0
M  V30 585 C 56.6508 -5.27895 -2.6661 0
M  V30 586 H 55.5808 -0.587391 -0.472745 0
M  V30 587 H 58.2318 -1.75644 -0.53118 0
M  V30 588 H 56.6138 -2.53934 -3.03865 0
M  V30 589 H 57.7878 -4.50612 -0.963622 0
M  V30 590 H 56.1028 -4.03591 -1.02484 0
M  V30 591 H 58.6998 -3.76849 -3.79327 0
M  V30 592 H 59.0428 -2.06534 -3.61455 0
M  V30 593 H 59.5758 -3.2057 -2.35541 0
M  V30 594 H 56.3148 -6.1956 -2.14068 0
M  V30 595 H 55.8348 -4.97839 -3.34539 0
M  V30 596 H 57.5138 -5.57031 -3.29129 0
M  V30 597 N 57.6459 0.756429 -1.3826 0
M  V30 598 C 58.8859 1.52833 -1.35725 0
M  V30 599 C 59.2499 1.91926 0.0534106 0
M  V30 600 O 60.4509 2.68028 0.203613 0
M  V30 601 C 58.7219 2.74919 -2.28373 0
M  V30 602 S 60.2809 3.64817 -2.43832 0
M  V30 603 H 57.0989 0.523043 -0.481608 0
M  V30 604 H 59.7009 0.888212 -1.74158 0
M  V30 605 H 58.4049 2.44304 -3.29763 0
M  V30 606 H 57.9359 3.43878 -1.91079 0
M  V30 607 H 59.9509 4.676 -1.66027 0
M  V30 608 N 59.124 1.23083 0.984299 0
M  V30 609 C 60.371 1.06057 1.72505 0
M  V30 610 C 60.699 -0.403105 1.90277 0
M  V30 611 O 59.954 -1.3149 1.44944 0
M  V30 612 C 60.253 1.72673 3.1292 0
M  V30 613 C 59.919 3.22586 3.15038 0
M  V30 614 C 58.581 3.63489 3.15324 0
M  V30 615 C 60.933 4.185 3.10657 0
M  V30 616 C 58.261 4.98772 3.08939 0
M  V30 617 C 60.613 5.53769 3.05814 0
M  V30 618 C 59.277 5.94041 3.04419 0
M  V30 619 H 58.547 0.388091 0.631242 0
M  V30 620 H 61.194 1.52963 1.15215 0
M  V30 621 H 59.499 1.18116 3.73572 0
M  V30 622 H 61.196 1.56982 3.68996 0
M  V30 623 H 57.786 2.90022 3.15571 0
M  V30 624 H 61.97 3.87911 3.09579 0
M  V30 625 H 57.226 5.29193 3.0621 0
M  V30 626 H 61.4 6.27808 3.0138 0
M  V30 627 H 59.027 6.98833 2.99227 0
M  V30 628 N 60.6021 -1.18246 1.0419 0
M  V30 629 C 61.5501 -2.23968 0.627792 0
M  V30 630 C 62.5441 -1.65828 -0.346019 0
M  V30 631 O 63.7501 -1.78733 -0.213175 0
M  V30 632 H 60.1251 -0.728939 0.184802 0
M  V30 633 H 62.0961 -2.56202 1.52981 0
M  V30 634 C 60.8451 -3.47699 0.00796591 0
M  V30 635 H 60.1681 -3.92734 0.748347 0
M  V30 636 H 61.6081 -4.23294 -0.24455 0
M  V30 637 C 60.0671 -3.13153 -1.24246 0
M  V30 638 O 60.5971 -3.27003 -2.33307 0
M  V30 639 N 58.8031 -2.67467 -1.13622 0
M  V30 640 H 58.3501 -2.56396 -0.248734 0
M  V30 641 H 58.3081 -2.44724 -1.97377 0
M  V30 642 N 62.0802 -0.821533 -1.34494 0
M  V30 643 C 63.3292 -0.405355 -1.97585 0
M  V30 644 C 63.6422 1.03677 -1.65863 0
M  V30 645 O 64.8482 1.55679 -2.22433 0
M  V30 646 C 63.3042 -0.673861 -3.53535 0
M  V30 647 C 62.9122 -2.12951 -3.94152 0
M  V30 648 C 64.6562 -0.32378 -4.23263 0
M  V30 649 C 62.5632 -2.34298 -5.43009 0
M  V30 650 H 61.4932 -0.147836 -0.739365 0
M  V30 651 H 64.1442 -1.00769 -1.53355 0
M  V30 652 H 62.5262 -0.00137554 -3.96 0
M  V30 653 H 63.7002 -2.84104 -3.62797 0
M  V30 654 H 62.0152 -2.44089 -3.37356 0
M  V30 655 H 64.6122 -0.461126 -5.32708 0
M  V30 656 H 64.9552 0.731586 -4.09821 0
M  V30 657 H 65.4882 -0.950786 -3.8627 0
M  V30 658 H 62.2272 -3.38335 -5.61435 0
M  V30 659 H 61.7472 -1.67687 -5.75883 0
M  V30 660 H 63.4262 -2.16588 -6.09671 0
M  V30 661 N 63.5583 1.46682 -0.576371 0
M  V30 662 C 64.8063 2.02013 -0.0594163 0
M  V30 663 C 65.1273 1.45101 1.30271 0
M  V30 664 O 64.3973 0.633317 1.8538 0
M  V30 665 H 62.9773 0.746759 -0.0189745 0
M  V30 666 H 65.6393 1.79862 -0.750717 0
M  V30 667 H 64.7353 3.12097 0.014345 0
M  V30 668 N 65.0364 0.313813 1.54444 0
M  V30 669 C 66.2764 -0.292389 2.02298 0
M  V30 670 C 66.6404 -1.50105 1.19719 0
M  V30 671 O 67.8414 -2.17947 1.5733 0
M  V30 672 C 66.1124 -0.627682 3.51845 0
M  V30 673 S 67.6714 -1.21493 4.21646 0
M  V30 674 H 64.4894 -0.0890247 0.705405 0
M  V30 675 H 67.0914 0.444668 1.90376 0
M  V30 676 H 65.7954 0.260265 4.09574 0
M  V30 677 H 65.3264 -1.39519 3.67829 0
M  V30 678 H 67.3414 -2.5022 4.28491 0
M  V30 679 N 66.5145 -1.57545 0.0417849 0
M  V30 680 C 67.4475 -2.06514 -0.970928 0
M  V30 681 C 68.4255 -0.963607 -1.30971 0
M  V30 682 O 69.6095 -1.23486 -1.4242 0
M  V30 683 C 66.7365 -2.4978 -2.28752 0
M  V30 684 C 65.7825 -3.71078 -2.10246 0
M  V30 685 S 66.6155 -5.17158 -1.38952 0
M  V30 686 C 67.7715 -5.6373 -2.71954 0
M  V30 687 H 68.0045 -2.9209 -0.554129 0
M  V30 688 H 65.5375 -1.53459 -0.17024 0
M  V30 689 H 67.4955 -2.75371 -3.04435 0
M  V30 690 H 66.1565 -1.64527 -2.67562 0
M  V30 691 H 65.3495 -3.9924 -3.07609 0
M  V30 692 H 64.9515 -3.45705 -1.42704 0
M  V30 693 H 67.2435 -5.68743 -3.68154 0
M  V30 694 H 68.1865 -6.63086 -2.4844 0
M  V30 695 H 68.5945 -4.91424 -2.77782 0
M  V30 696 N 67.9926 0.231505 -1.5589 0
M  V30 697 C 69.2226 0.973092 -1.82248 0
M  V30 698 C 69.6306 1.78845 -0.617328 0
M  V30 699 O 68.9736 1.78752 0.423499 0
M  V30 700 C 69.0356 1.94732 -3.02192 0
M  V30 701 C 68.6996 1.31743 -4.37599 0
M  V30 702 C 69.6966 0.712238 -5.14998 0
M  V30 703 C 67.3816 1.33218 -4.84312 0
M  V30 704 C 69.3756 0.130195 -6.37267 0
M  V30 705 C 67.0626 0.746286 -6.06526 0
M  V30 706 C 68.0606 0.146337 -6.82843 0
M  V30 707 O 67.7486 -0.430465 -8.02747 0
M  V30 708 H 67.4806 0.29125 -0.61004 0
M  V30 709 H 70.0346 0.254915 -2.03812 0
M  V30 710 H 68.2646 2.70422 -2.76422 0
M  V30 711 H 69.9536 2.55362 -3.15508 0
M  V30 712 H 70.7196 0.69324 -4.8002 0
M  V30 713 H 66.5986 1.78854 -4.24891 0
M  V30 714 H 70.1426 -0.33871 -6.96777 0
M  V30 715 H 66.0396 0.762663 -6.40979 0
M  V30 716 H 66.8076 -0.323818 -8.17859 0
M  V30 717 N 69.4707 1.49531 0.497807 0
M  V30 718 C 70.6987 1.62893 1.27567 0
M  V30 719 C 71.1137 0.301585 1.86376 0
M  V30 720 O 70.4707 -0.713335 1.67982 0
M  V30 721 C 70.5217 2.70013 2.40364 0
M  V30 722 O 70.2427 3.976 1.83972 0
M  V30 723 C 71.7437 2.94109 3.31685 0
M  V30 724 H 68.9637 0.548298 0.386794 0
M  V30 725 H 71.5077 1.95584 0.597245 0
M  V30 726 H 69.6627 2.40092 3.04031 0
M  V30 727 H 70.0767 4.56631 2.58047 0
M  V30 728 H 71.5507 3.72788 4.07104 0
M  V30 729 H 72.0277 2.04147 3.88871 0
M  V30 730 H 72.6337 3.2546 2.73781 0
M  V30 731 N 70.9488 -0.749086 1.3866 0
M  V30 732 C 72.1978 -1.50371 1.3443 0
M  V30 733 C 72.5108 -1.95503 -0.0616397 0
M  V30 734 O 73.7168 -2.70554 -0.226489 0
M  V30 735 C 72.1728 -2.71644 2.36088 0
M  V30 736 C 71.7808 -2.3352 3.82325 0
M  V30 737 C 73.5248 -3.49518 2.40909 0
M  V30 738 C 71.4318 -3.51431 4.75658 0
M  V30 739 H 70.3618 -0.564628 0.499712 0
M  V30 740 H 73.0128 -0.818449 1.64237 0
M  V30 741 H 71.3948 -3.42175 1.9933 0
M  V30 742 H 72.5688 -1.70627 4.28046 0
M  V30 743 H 70.8838 -1.6877 3.80665 0
M  V30 744 H 73.4808 -4.37197 3.07836 0
M  V30 745 H 73.8238 -3.90992 1.42937 0
M  V30 746 H 74.3568 -2.86005 2.76489 0
M  V30 747 H 71.0958 -3.15019 5.74842 0
M  V30 748 H 70.6158 -4.13352 4.34627 0
M  V30 749 H 72.2948 -4.17953 4.93887 0
M  V30 750 N 72.4269 -1.23603 -0.977757 0
M  V30 751 C 73.3569 -1.04401 -2.0886 0
M  V30 752 C 74.3379 0.0399052 -1.70053 0
M  V30 753 O 75.5229 -0.125246 -1.93796 0
M  V30 754 C 72.6529 -0.637269 -3.41403 0
M  V30 755 C 71.6069 -1.66883 -3.94124 0
M  V30 756 C 70.9329 -1.11745 -5.22893 0
M  V30 757 C 72.2329 -3.06247 -4.23096 0
M  V30 758 H 73.9269 -1.97316 -2.25182 0
M  V30 759 H 71.4729 -0.950096 -1.08209 0
M  V30 760 H 73.4259 -0.48998 -4.18542 0
M  V30 761 H 72.1499 0.327557 -3.24953 0
M  V30 762 H 70.8089 -1.80416 -3.19133 0
M  V30 763 H 70.4569 -0.143527 -5.02795 0
M  V30 764 H 70.1569 -1.80672 -5.59134 0
M  V30 765 H 71.6809 -0.982067 -6.02651 0
M  V30 766 H 73.0949 -2.96001 -4.90975 0
M  V30 767 H 71.4919 -3.72436 -4.70544 0
M  V30 768 H 72.5619 -3.55041 -3.30263 0
M  V30 769 N 73.905 1.17692 -1.04816 0
M  V30 770 C 74.852 2.21581 -0.645797 0
M  V30 771 C 75.822 1.62367 0.350159 0
M  V30 772 O 77.007 1.89254 0.242433 0
M  V30 773 C 74.147 3.45092 -0.0227568 0
M  V30 774 C 73.26 4.18613 -1.06709 0
M  V30 775 C 72.395 5.29602 -0.411767 0
M  V30 776 C 71.434 5.94904 -1.44067 0
M  V30 777 N 70.571 6.97414 -0.809781 0
M  V30 778 H 75.411 2.55353 -1.5362 0
M  V30 779 H 72.948 1.25438 -0.768364 0
M  V30 780 H 74.906 4.15679 0.35588 0
M  V30 781 H 73.536 3.11917 0.831122 0
M  V30 782 H 72.588 3.46779 -1.5636 0
M  V30 783 H 73.9 4.63293 -1.84827 0
M  V30 784 H 73.054 6.06696 0.0206623 0
M  V30 785 H 71.793 4.86045 0.401438 0
M  V30 786 H 70.798 5.16544 -1.88316 0
M  V30 787 H 72.023 6.40542 -2.25571 0
M  V30 788 H 69.969 6.55998 -0.0170186 0
M  V30 789 H 69.886 7.40386 -1.52856 0
M  V30 790 H 71.154 7.78463 -0.401999 0
M  V30 791 N 75.3831 0.828654 1.34056 0
M  V30 792 C 76.3311 0.242973 2.31327 0
M  V30 793 C 77.3251 -0.61944 1.57668 0
M  V30 794 O 78.5311 -0.51014 1.7262 0
M  V30 795 H 74.9061 0.059834 0.749616 0
M  V30 796 H 76.8771 1.07809 2.78244 0
M  V30 797 C 75.6261 -0.575733 3.429 0
M  V30 798 H 74.9491 0.0785582 3.99723 0
M  V30 799 H 76.3891 -0.951547 4.13185 0
M  V30 800 C 74.8481 -1.75044 2.87856 0
M  V30 801 O 75.3781 -2.84882 2.83205 0
M  V30 802 N 73.5841 -1.56903 2.44602 0
M  V30 803 H 73.1311 -0.675547 2.48584 0
M  V30 804 H 73.0891 -2.35652 2.08124 0
M  V30 805 N 76.8612 -1.46375 0.584142 0
M  V30 806 C 77.7942 -2.27351 -0.196676 0
M  V30 807 C 78.7722 -1.35715 -0.895561 0
M  V30 808 O 79.9562 -1.65126 -0.90916 0
M  V30 809 C 77.0832 -3.13486 -1.28235 0
M  V30 810 C 76.1292 -4.20896 -0.689145 0
M  V30 811 S 76.9622 -5.33299 0.48507 0
M  V30 812 C 78.1182 -6.23 -0.601767 0
M  V30 813 H 78.3512 -2.93228 0.490395 0
M  V30 814 H 75.8842 -1.49875 0.371071 0
M  V30 815 H 77.8422 -3.63676 -1.90395 0
M  V30 816 H 76.5032 -2.4692 -1.94138 0
M  V30 817 H 75.6962 -4.80997 -1.50527 0
M  V30 818 H 75.2982 -3.73726 -0.143181 0
M  V30 819 H 77.5902 -6.60979 -1.48705 0
M  V30 820 H 78.5332 -7.0809 -0.0374799 0
M  V30 821 H 78.9412 -5.57173 -0.906557 0
M  V30 822 N 78.3393 -0.321999 -1.54275 0
M  V30 823 C 79.5673 0.283052 -2.04955 0
M  V30 824 C 79.9823 1.45904 -1.19823 0
M  V30 825 O 79.3393 1.81063 -0.228545 0
M  V30 826 C 79.3903 0.719028 -3.54277 0
M  V30 827 O 79.1113 -0.410175 -4.36176 0
M  V30 828 C 80.6123 1.38705 -4.21041 0
M  V30 829 H 77.8323 0.0584616 -0.668448 0
M  V30 830 H 80.3763 -0.467734 -1.99079 0
M  V30 831 H 78.5313 1.41979 -3.60445 0
M  V30 832 H 78.9453 -0.0669416 -5.24457 0
M  V30 833 H 80.4193 1.64306 -5.2698 0
M  V30 834 H 80.8963 2.33385 -3.72059 0
M  V30 835 H 81.5023 0.728906 -4.19007 0
M  V30 836 N 79.8174 1.5752 -0.0501392 0
M  V30 837 C 80.7274 2.14952 0.939827 0
M  V30 838 C 81.7434 1.10706 1.34239 0
M  V30 839 O 82.9194 1.42869 1.41952 0
M  V30 840 C 79.9844 2.68232 2.19665 0
M  V30 841 C 79.0454 3.87272 1.85253 0
M  V30 842 C 78.2784 4.38002 3.04943 0
M  V30 843 O 78.5014 3.87811 4.18281 0
M  V30 844 O 77.4354 5.29602 2.86017 0
M  V30 845 H 81.2614 2.9986 0.481392 0
M  V30 846 H 78.8464 1.4841 0.171699 0
M  V30 847 H 80.7284 3.02475 2.93406 0
M  V30 848 H 79.4034 1.86395 2.64648 0
M  V30 849 H 78.3104 3.5792 1.0883 0
M  V30 850 H 79.6434 4.70336 1.4507 0
M  V30 851 N 81.2955 -0.223234 1.56011 0
M  V30 852 C 82.2585 -1.26014 1.9145 0
M  V30 853 C 83.2585 -1.3989 0.792937 0
M  V30 854 O 84.4485 -1.38184 1.0607 0
M  V30 855 C 81.5805 -2.63422 2.16383 0
M  V30 856 H 82.7735 -0.95796 2.84189 0
M  V30 857 H 80.3265 -0.463576 1.49267 0
M  V30 858 H 81.0615 -2.98741 1.2619 0
M  V30 859 H 80.8465 -2.54728 2.98088 0
M  V30 860 H 82.3365 -3.38249 2.44903 0
M  V30 861 N 82.7736 -1.49793 -0.48987 0
M  V30 862 C 83.6836 -1.70036 -1.61632 0
M  V30 863 C 84.6996 -0.583102 -1.63939 0
M  V30 864 O 85.8756 -0.859169 -1.82154 0
M  V30 865 C 82.9406 -1.77277 -2.97949 0
M  V30 866 C 82.0016 -3.00918 -3.06181 0
M  V30 867 C 81.2346 -3.07804 -4.35996 0
M  V30 868 O 81.4576 -2.21982 -5.25433 0
M  V30 869 O 80.3916 -4.00369 -4.49431 0
M  V30 870 H 84.2176 -2.65486 -1.47482 0
M  V30 871 H 81.8026 -1.33666 -0.667362 0
M  V30 872 H 83.6846 -1.84329 -3.78947 0
M  V30 873 H 82.3596 -0.850076 -3.12339 0
M  V30 874 H 81.2666 -2.99377 -2.2433 0
M  V30 875 H 82.5996 -3.92704 -2.96723 0
M  V30 876 N 84.2517 0.741722 -1.39055 0
M  V30 877 C 85.1987 1.85566 -1.37237 0
M  V30 878 C 86.1687 1.64457 -0.233072 0
M  V30 879 O 87.3537 1.85957 -0.427147 0
M  V30 880 C 84.4937 3.23004 -1.215 0
M  V30 881 C 83.6067 3.55864 -2.44918 0
M  V30 882 C 82.7417 4.82669 -2.21821 0
M  V30 883 C 81.7807 5.08351 -3.40948 0
M  V30 884 N 80.9177 6.26356 -3.17211 0
M  V30 885 H 85.7577 1.86455 -2.32462 0
M  V30 886 H 83.2947 0.911176 -1.15482 0
M  V30 887 H 85.2527 4.02331 -1.10389 0
M  V30 888 H 83.8827 3.21411 -0.29908 0
M  V30 889 H 82.9347 2.7129 -2.66657 0
M  V30 890 H 84.2467 3.70765 -3.33668 0
M  V30 891 H 83.4007 5.69962 -2.07914 0
M  V30 892 H 82.1397 4.69929 -1.30454 0
M  V30 893 H 81.1447 4.19522 -3.55361 0
M  V30 894 H 82.3697 5.22981 -4.33207 0
M  V30 895 H 80.3157 6.14917 -2.28502 0
M  V30 896 H 80.2327 6.41813 -3.99515 0
M  V30 897 H 81.5007 7.16506 -3.06984 0
M  V30 898 N 85.7298 1.2412 0.971189 0
M  V30 899 C 86.6928 1.03156 2.04674 0
M  V30 900 C 87.6928 -0.00990322 1.60797 0
M  V30 901 O 88.8828 0.230729 1.72665 0
M  V30 902 C 86.0148 0.562765 3.36223 0
M  V30 903 H 87.2078 1.98614 2.24705 0
M  V30 904 H 84.7608 1.06293 1.14593 0
M  V30 905 H 85.4958 -0.395176 3.21883 0
M  V30 906 H 85.2808 1.31441 3.69413 0
M  V30 907 H 86.7708 0.437015 4.15307 0
M  V30 908 N 87.2079 -1.17134 1.05439 0
M  V30 909 C 88.4549 -1.87456 0.765942 0
M  V30 910 C 88.7829 -1.81189 -0.707153 0
M  V30 911 O 88.0379 -1.21633 -1.5331 0
M  V30 912 C 88.3369 -3.36833 1.19491 0
M  V30 913 C 88.0029 -3.63301 2.67063 0
M  V30 914 C 86.6649 -3.70234 3.07376 0
M  V30 915 C 89.0169 -3.74575 3.62413 0
M  V30 916 C 86.3449 -3.85933 4.41896 0
M  V30 917 C 88.6969 -3.91793 4.9667 0
M  V30 918 C 87.3609 -3.96966 5.36633 0
M  V30 919 H 86.6309 -0.685948 0.280278 0
M  V30 920 H 89.2779 -1.38556 1.32192 0
M  V30 921 H 87.5829 -3.87807 0.557969 0
M  V30 922 H 89.2799 -3.89611 0.948893 0
M  V30 923 H 85.8699 -3.58532 2.34846 0
M  V30 924 H 90.0539 -3.68537 3.32406 0
M  V30 925 H 85.3099 -3.88187 4.72357 0
M  V30 926 H 89.4839 -3.99458 5.70444 0
M  V30 927 H 87.1109 -4.08883 6.40874 0
M  V30 928 N 88.686 -0.835752 -1.33615 0
M  V30 929 C 89.914 -0.443344 -2.02094 0
M  V30 930 C 90.329 0.954522 -1.62894 0
M  V30 931 O 89.686 1.61982 -0.840723 0
M  V30 932 C 89.737 -0.550775 -3.5728 0
M  V30 933 O 89.458 -1.89356 -3.95065 0
M  V30 934 C 90.959 -0.154919 -4.43029 0
M  V30 935 H 88.179 -0.176359 -0.647409 0
M  V30 936 H 90.723 -1.12746 -1.70612 0
M  V30 937 H 88.878 0.0853997 -3.87306 0
M  V30 938 H 89.292 -1.87687 -4.89769 0
M  V30 939 H 90.766 -0.281144 -5.51284 0
M  V30 940 H 91.243 0.902863 -4.2982 0
M  V30 941 H 91.849 -0.765404 -4.18356 0
M  V30 942 N 90.1641 1.46063 -0.591896 0
M  V30 943 C 91.5801 1.57561 -0.254288 0
M  V30 944 C 91.7801 1.58565 1.24336 0
M  V30 945 O 90.8361 1.50753 2.02558 0
M  V30 946 C 92.1491 2.86549 -0.911611 0
M  V30 947 C 93.6971 3.00197 -0.886059 0
M  V30 948 C 94.1721 4.31933 -1.5231 0
M  V30 949 N 95.6631 4.38654 -1.48786 0
M  V30 950 C 96.3981 5.39222 -1.95006 0
M  V30 951 N 95.8941 6.46414 -2.49241 0
M  V30 952 N 97.6871 5.3048 -1.85868 0
M  V30 953 H 89.8381 1.43655 -1.56451 0
M  V30 954 H 92.1011 0.68583 -0.654478 0
M  V30 955 H 91.8071 2.91651 -1.96551 0
M  V30 956 H 91.6811 3.74794 -0.425368 0
M  V30 957 H 94.0681 2.9467 0.159246 0
M  V30 958 H 94.1491 2.13403 -1.41041 0
M  V30 959 H 93.7931 4.38217 -2.56765 0
M  V30 960 H 93.7231 5.17516 -0.973891 0
M  V30 961 H 96.2141 3.61793 -1.09151 0
M  V30 962 H 96.5271 7.19376 -2.82344 0
M  V30 963 H 94.8721 6.47208 -2.53272 0
M  V30 964 H 98.0631 4.45643 -1.43248 0
M  V30 965 H 98.2361 6.08711 -2.22204 0
M  V30 966 N 91.6422 0.330177 1.54103 0
M  V30 967 C 92.8672 -0.274893 2.0557 0
M  V30 968 C 93.2922 -1.44487 1.20437 0
M  V30 969 O 92.6502 -1.80021 0.214991 0
M  V30 970 C 92.6982 -0.68079 3.54115 0
M  V30 971 O 91.8022 -1.7824 3.71893 0
M  V30 972 H 91.1432 -0.0483849 0.662235 0
M  V30 973 H 93.6732 0.480508 1.98878 0
M  V30 974 H 93.6832 -0.961635 3.96505 0
M  V30 975 H 92.3582 0.174903 4.15532 0
M  V30 976 H 90.9352 -1.49985 3.41407 0
M  V30 977 N 93.1203 -1.57491 0.0584922 0
M  V30 978 C 94.3693 -1.92155 -0.613146 0
M  V30 979 C 94.6823 -0.939334 -1.71569 0
M  V30 980 O 95.8883 -1.17829 -2.44599 0
M  V30 981 C 94.3443 -3.41303 -1.14195 0
M  V30 982 C 93.9523 -4.47944 -0.0711265 0
M  V30 983 C 95.6963 -3.84988 -1.78841 0
M  V30 984 C 93.6033 -5.88212 -0.613225 0
M  V30 985 H 92.5333 -0.717162 -0.232796 0
M  V30 986 H 95.1843 -1.83049 0.12857 0
M  V30 987 H 93.5663 -3.45437 -1.93621 0
M  V30 988 H 94.7403 -4.55408 0.702836 0
M  V30 989 H 93.0553 -4.13644 0.478313 0
M  V30 990 H 95.6523 -4.87159 -2.20408 0
M  V30 991 H 95.9953 -3.21632 -2.64308 0
M  V30 992 H 96.5283 -3.83401 -1.06059 0
M  V30 993 H 93.2673 -6.55183 0.203978 0
M  V30 994 H 92.7873 -5.84294 -1.35501 0
M  V30 995 H 94.4663 -6.37687 -1.09383 0
M  V30 996 N 94.5984 0.214957 -1.56127 0
M  V30 997 C 95.5464 1.28601 -1.93816 0
M  V30 998 C 96.5404 1.48175 -0.821016 0
M  V30 999 O 97.7464 1.49271 -1.0059 0
M  V30 1000 H 94.1214 0.431302 -0.616022 0
M  V30 1001 H 96.0924 0.940991 -2.83175 0
M  V30 1002 C 94.8414 2.62779 -2.27689 0
M  V30 1003 H 94.1644 2.48527 -3.13168 0
M  V30 1004 H 95.6044 3.36517 -2.57939 0
M  V30 1005 C 94.0634 3.18285 -1.10436 0
M  V30 1006 O 94.5934 4.00002 -0.368945 0
M  V30 1007 N 92.7994 2.7675 -0.886433 0
M  V30 1008 H 92.3464 2.10404 -1.48619 0
M  V30 1009 H 92.3044 3.14229 -0.103656 0
M  V30 1010 N 96.0765 1.50051 0.48192 0
M  V30 1011 C 97.4925 1.37237 0.814756 0
M  V30 1012 C 97.6925 0.420109 1.97072 0
M  V30 1013 O 96.7485 -0.141246 2.52105 0
M  V30 1014 C 98.0615 2.78375 1.13701 0
M  V30 1015 C 99.6095 2.87213 1.2441 0
M  V30 1016 C 100.084 4.29161 1.59954 0
M  V30 1017 N 101.575 4.32061 1.66967 0
M  V30 1018 C 102.31 5.38879 1.95952 0
M  V30 1019 N 101.806 6.55918 2.23031 0
M  V30 1020 N 103.599 5.26312 1.97363 0
M  V30 1021 H 95.7505 2.10546 -0.28005 0
M  V30 1022 H 98.0135 0.945921 -0.0627454 0
M  V30 1023 H 97.7195 3.49845 0.360787 0
M  V30 1024 H 97.5935 3.14941 2.07586 0
M  V30 1025 H 99.9805 2.15969 2.01101 0
M  V30 1026 H 100.061 2.54204 0.285299 0
M  V30 1027 H 99.7055 5.00938 0.838067 0
M  V30 1028 H 99.6355 4.59648 2.56966 0
M  V30 1029 H 102.126 3.47661 1.48123 0
M  V30 1030 H 102.439 7.33139 2.44391 0
M  V30 1031 H 100.784 6.59112 2.20447 0
M  V30 1032 H 103.975 4.33876 1.75697 0
M  V30 1033 H 104.148 6.09649 2.19618 0
M  V30 1034 N 97.5546 -0.734337 1.39446 0
M  V30 1035 C 98.8316 -1.48579 1.27215 0
M  V30 1036 C 99.2116 -2.1077 -0.117968 0
M  V30 1037 O 98.5596 -1.98646 -1.12924 0
M  V30 1038 C 98.7696 -2.53667 2.39696 0
M  V30 1039 C 100.118 -3.20031 2.79044 0
M  V30 1040 O 101.142 -2.6398 2.39151 0
M  V30 1041 O 100.001 -4.21455 3.47905 0
M  V30 1042 H 97.0946 -0.659816 0.49857 0
M  V30 1043 H 99.6406 -0.768106 1.51322 0
M  V30 1044 H 98.4126 -2.06096 3.32626 0
M  V30 1045 H 98.0356 -3.32994 2.17258 0
M  V30 1046 N 99.0327 -1.24633 -0.964593 0
M  V30 1047 C 99.9797 -1.04144 -2.05968 0
M  V30 1048 C 100.95 0.046262 -1.66036 0
M  V30 1049 O 102.135 -0.108972 -1.90489 0
M  V30 1050 C 99.2747 -0.65563 -3.38815 0
M  V30 1051 C 98.3877 -1.81714 -3.91923 0
M  V30 1052 C 97.5227 -1.37662 -5.13052 0
M  V30 1053 C 96.5617 -2.50788 -5.58365 0
M  V30 1054 N 95.6987 -2.07582 -6.70712 0
M  V30 1055 H 100.539 -1.9787 -2.22827 0
M  V30 1056 H 98.0757 -0.9855 -1.09208 0
M  V30 1057 H 100.034 -0.412954 -4.15151 0
M  V30 1058 H 98.6637 0.244627 -3.21872 0
M  V30 1059 H 97.7157 -2.1734 -3.12198 0
M  V30 1060 H 99.0277 -2.66705 -4.21509 0
M  V30 1061 H 98.1817 -1.093 -5.96773 0
M  V30 1062 H 96.9207 -0.497293 -4.85158 0
M  V30 1063 H 95.9257 -2.79906 -4.73215 0
M  V30 1064 H 97.1507 -3.39283 -5.88272 0
M  V30 1065 H 95.0967 -1.22051 -6.44546 0
M  V30 1066 H 95.0137 -2.86125 -6.99763 0
M  V30 1067 H 96.2817 -1.82369 -7.57867 0
M  V30 1068 N 100.511 1.16574 -1.06058 0
M  V30 1069 C 101.461 2.18854 -0.63929 0
M  V30 1070 C 102.445 1.57505 0.328798 0
M  V30 1071 O 103.637 1.76408 0.144623 0
M  V30 1072 C 100.766 3.43291 -0.0247203 0
M  V30 1073 C 99.8518 4.11722 -1.01716 0
M  V30 1074 N 100.243 4.55841 -2.19186 0
M  V30 1075 C 98.5408 4.37872 -0.847569 0
M  V30 1076 C 99.2418 5.08751 -2.82042 0
M  V30 1077 N 98.2178 5.01489 -2.09784 0
M  V30 1078 H 102.02 2.5068 -1.53417 0
M  V30 1079 H 99.5338 1.32999 -0.931935 0
M  V30 1080 H 101.531 4.15856 0.294915 0
M  V30 1081 H 100.191 3.12954 0.865448 0
M  V30 1082 H 101.202 4.49649 -2.56975 0
M  V30 1083 H 97.8788 4.17499 -0.00918848 0
M  V30 1084 H 99.2688 5.52944 -3.81709 0
M  V30 1085 N 101.989 0.842826 1.3317 0
M  V30 1086 C 102.919 0.294028 2.31641 0
M  V30 1087 C 103.9 -0.600401 1.59151 0
M  V30 1088 O 105.085 -0.523124 1.87022 0
M  V30 1089 C 102.215 -0.528416 3.43257 0
M  V30 1090 C 101.169 0.27056 4.27144 0
M  V30 1091 C 100.495 -0.675881 5.30411 0
M  V30 1092 C 101.795 1.48981 5.00602 0
M  V30 1093 H 103.489 1.11681 2.77791 0
M  V30 1094 H 101.035 0.538478 1.33553 0
M  V30 1095 H 102.988 -0.922674 4.11175 0
M  V30 1096 H 101.712 -1.38445 2.95805 0
M  V30 1097 H 100.371 0.646427 3.60856 0
M  V30 1098 H 100.019 -1.52842 4.79216 0
M  V30 1099 H 99.7189 -0.145374 5.8742 0
M  V30 1100 H 101.243 -1.06757 6.01195 0
M  V30 1101 H 102.657 1.16849 5.61266 0
M  V30 1102 H 101.054 1.95739 5.6728 0
M  V30 1103 H 102.124 2.25746 4.29147 0
M  V30 1104 N 103.467 -1.45747 0.599634 0
M  V30 1105 C 104.43 -2.28917 -0.113835 0
M  V30 1106 C 105.43 -1.3933 -0.802729 0
M  V30 1107 O 106.62 -1.61534 -0.652103 0
M  V30 1108 C 103.752 -3.20152 -1.17114 0
M  V30 1109 H 104.945 -2.93478 0.617289 0
M  V30 1110 H 102.498 -1.52137 0.358327 0
M  V30 1111 H 103.233 -2.60374 -1.93329 0
M  V30 1112 H 103.018 -3.86133 -0.681468 0
M  V30 1113 H 104.508 -3.82708 -1.67105 0
M  V30 1114 N 104.945 -0.338344 -1.53925 0
M  V30 1115 C 106.191 0.260143 -2.01125 0
M  V30 1116 C 106.524 1.50617 -1.22589 0
M  V30 1117 O 105.799 1.91979 -0.312113 0
M  V30 1118 C 106.082 0.579499 -3.55407 0
M  V30 1119 C 105.935 -0.678264 -4.44657 0
M  V30 1120 C 107.254 1.39122 -4.17532 0
M  V30 1121 H 104.373 0.0930772 -0.731099 0
M  V30 1122 H 107.015 -0.457852 -1.84401 0
M  V30 1123 H 105.165 1.19118 -3.69788 0
M  V30 1124 H 106.837 -1.31631 -4.42121 0
M  V30 1125 H 105.08 -1.3042 -4.13731 0
M  V30 1126 H 105.751 -0.410143 -5.50474 0
M  V30 1127 H 108.227 0.874035 -4.06817 0
M  V30 1128 H 107.103 1.58342 -5.25565 0
M  V30 1129 H 107.364 2.39178 -3.71815 0
M  V30 1130 N 106.423 1.57458 -0.0668435 0
M  V30 1131 C 107.386 2.11323 0.887422 0
M  V30 1132 C 108.386 1.03618 1.22964 0
M  V30 1133 O 109.576 1.29626 1.16373 0
M  V30 1134 C 106.708 2.61048 2.19242 0
M  V30 1135 H 107.901 2.96942 0.420194 0
M  V30 1136 H 105.454 1.55239 0.181793 0
M  V30 1137 H 106.189 1.78868 2.70512 0
M  V30 1138 H 105.974 3.39769 1.95702 0
M  V30 1139 H 107.464 3.02814 2.87565 0
M  V30 1140 N 107.901 -0.206675 1.56239 0
M  V30 1141 C 109.131 -0.943975 1.83773 0
M  V30 1142 C 109.539 -1.77841 0.645703 0
M  V30 1143 O 108.882 -1.79403 -0.395008 0
M  V30 1144 C 108.944 -1.899 3.05251 0
M  V30 1145 C 108.608 -1.24764 4.39639 0
M  V30 1146 C 109.605 -0.630216 5.16066 0
M  V30 1147 C 107.29 -1.25496 4.8637 0
M  V30 1148 C 109.284 -0.0287946 6.37393 0
M  V30 1149 C 106.971 -0.649698 6.07637 0
M  V30 1150 C 107.969 -0.0376845 6.8299 0
M  V30 1151 O 107.657 0.55812 8.0196 0
M  V30 1152 H 107.389 -0.281508 0.614597 0
M  V30 1153 H 109.943 -0.222458 2.04192 0
M  V30 1154 H 108.173 -2.6599 2.80689 0
M  V30 1155 H 109.862 -2.5031 3.1953 0
M  V30 1156 H 110.628 -0.616785 4.81062 0
M  V30 1157 H 106.507 -1.72072 4.27683 0
M  V30 1158 H 110.051 0.449518 6.9615 0
M  V30 1159 H 105.948 -0.660592 6.42111 0
M  V30 1160 H 106.716 0.453891 8.17241 0
M  V30 1161 N 109.379 -1.50304 -0.473955 0
M  V30 1162 C 110.626 -1.6115 -1.22625 0
M  V30 1163 C 110.954 -0.310517 -1.92005 0
M  V30 1164 O 110.209 0.703419 -1.82621 0
M  V30 1165 C 110.508 -2.73938 -2.29549 0
M  V30 1166 C 110.174 -4.14519 -1.7744 0
M  V30 1167 C 108.836 -4.5277 -1.62949 0
M  V30 1168 C 111.188 -5.02392 -1.3875 0
M  V30 1169 C 108.516 -5.76639 -1.08187 0
M  V30 1170 C 110.868 -6.26805 -0.854309 0
M  V30 1171 C 109.532 -6.63861 -0.696011 0
M  V30 1172 H 108.802 -0.589691 -0.448715 0
M  V30 1173 H 111.449 -1.84228 -0.522705 0
M  V30 1174 H 109.754 -2.44937 -3.05799 0
M  V30 1175 H 111.451 -2.79534 -2.87509 0
M  V30 1176 H 108.041 -3.8434 -1.89685 0
M  V30 1177 H 112.225 -4.73474 -1.4878 0
M  V30 1178 H 107.481 -6.04027 -0.946666 0
M  V30 1179 H 111.655 -6.94258 -0.545843 0
M  V30 1180 H 109.282 -7.59722 -0.26952 0
M  V30 1181 N 110.857 0.726932 -1.39834 0
M  V30 1182 C 111.789 1.85147 -1.35104 0
M  V30 1183 C 112.802 1.60736 -0.258392 0
M  V30 1184 O 113.991 1.70821 -0.517931 0
M  V30 1185 C 111.091 3.21332 -1.07697 0
M  V30 1186 C 110.264 3.73033 -2.28396 0
M  V30 1187 C 109.323 4.87802 -1.97322 0
M  V30 1188 O 108.349 5.01043 -2.70083 0
M  V30 1189 N 109.551 5.72768 -0.944273 0
M  V30 1190 H 112.316 1.89706 -2.32017 0
M  V30 1191 H 109.877 0.908006 -1.3404 0
M  V30 1192 H 111.869 3.95691 -0.849144 0
M  V30 1193 H 110.439 3.11992 -0.194909 0
M  V30 1194 H 109.659 2.89934 -2.6708 0
M  V30 1195 H 110.947 4.0431 -3.08887 0
M  V30 1196 H 110.345 5.64669 -0.341427 0
M  V30 1197 H 108.902 6.4716 -0.776346 0
M  V30 1198 N 112.336 1.25143 0.95797 0
M  V30 1199 C 113.752 1.01892 1.22842 0
M  V30 1200 C 113.952 -0.266311 1.99732 0
M  V30 1201 O 113.008 -0.979913 2.3271 0
M  V30 1202 C 114.321 2.24004 2.00606 0
M  V30 1203 C 115.869 2.28731 2.13662 0
M  V30 1204 C 116.344 3.5049 2.94823 0
M  V30 1205 N 117.835 3.50866 3.02403 0
M  V30 1206 C 118.57 4.4174 3.65586 0
M  V30 1207 N 118.066 5.42882 4.30408 0
M  V30 1208 N 119.859 4.29429 3.62694 0
M  V30 1209 H 112.01 2.07718 0.443493 0
M  V30 1210 H 114.273 0.912031 0.258657 0
M  V30 1211 H 113.979 3.17395 1.51503 0
M  V30 1212 H 113.853 2.26907 3.01319 0
M  V30 1213 H 116.24 1.35865 2.61963 0
M  V30 1214 H 116.321 2.29848 1.12265 0
M  V30 1215 H 115.965 4.43676 2.47213 0
M  V30 1216 H 115.895 3.46617 3.96439 0
M  V30 1217 H 118.386 2.777 2.56302 0
M  V30 1218 H 118.699 6.0844 4.76467 0
M  V30 1219 H 117.044 5.46758 4.29047 0
M  V30 1220 H 120.235 3.49643 3.11236 0
M  V30 1221 H 120.408 5.00448 4.1165 0
M  V30 1222 N 113.814 -1.1601 1.06675 0
M  V30 1223 C 115.062 -1.86264 0.784229 0
M  V30 1224 C 115.383 -1.82328 -0.691488 0
M  V30 1225 O 114.653 -1.25947 -1.50047 0
M  V30 1226 H 113.233 -0.689621 0.28711 0
M  V30 1227 H 115.895 -1.40664 1.34906 0
M  V30 1228 H 114.991 -2.91595 1.11259 0
M  V30 1229 N 115.292 -0.849877 -1.32721 0
M  V30 1230 C 116.225 -0.235903 -2.26977 0
M  V30 1231 C 117.203 0.623355 -1.50177 0
M  V30 1232 O 118.387 0.581207 -1.79316 0
M  V30 1233 C 115.514 0.667712 -3.32053 0
M  V30 1234 C 114.56 -0.11753 -4.26338 0
M  V30 1235 S 115.393 -1.48277 -5.14562 0
M  V30 1236 C 116.549 -0.584741 -6.23163 0
M  V30 1237 H 116.782 -1.03495 -2.78704 0
M  V30 1238 H 114.315 -0.64724 -1.40179 0
M  V30 1239 H 116.273 1.18343 -3.93072 0
M  V30 1240 H 114.934 1.44052 -2.7912 0
M  V30 1241 H 114.127 0.57051 -5.00761 0
M  V30 1242 H 113.729 -0.564668 -3.69713 0
M  V30 1243 H 116.021 0.212968 -6.77165 0
M  V30 1244 H 116.964 -1.29947 -6.96074 0
M  V30 1245 H 117.372 -0.161202 -5.6427 0
M  V30 1246 N 116.77 1.45427 -0.607355 0
M  V30 1247 C 117.7 2.3329 0.0989352 0
M  V30 1248 C 118.681 1.46816 0.859007 0
M  V30 1249 O 119.866 1.75588 0.829604 0
M  V30 1250 C 116.996 3.29518 1.09705 0
M  V30 1251 C 115.95 4.25626 0.450206 0
M  V30 1252 C 115.276 5.11542 1.55655 0
M  V30 1253 C 116.576 5.18505 -0.628455 0
M  V30 1254 H 118.27 2.92595 -0.634716 0
M  V30 1255 H 115.816 1.40696 -0.306681 0
M  V30 1256 H 117.769 3.89855 1.59971 0
M  V30 1257 H 116.493 2.68372 1.86129 0
M  V30 1258 H 115.152 3.66586 -0.0315886 0
M  V30 1259 H 114.8 4.46765 2.31107 0
M  V30 1260 H 114.5 5.76647 1.12925 0
M  V30 1261 H 116.024 5.74748 2.06148 0
M  V30 1262 H 117.438 5.72916 -0.209877 0
M  V30 1263 H 115.835 5.92085 -0.977489 0
M  V30 1264 H 116.905 4.60948 -1.50514 0
M  V30 1265 N 118.248 0.346503 1.53744 0
M  V30 1266 C 119.478 -0.250047 2.05081 0
M  V30 1267 C 119.886 -1.44529 1.22098 0
M  V30 1268 O 119.229 -1.81992 0.249917 0
M  V30 1269 C 119.291 -0.725934 3.52094 0
M  V30 1270 C 118.955 0.350053 4.55657 0
M  V30 1271 C 119.952 1.19372 5.0601 0
M  V30 1272 C 117.637 0.504827 4.99757 0
M  V30 1273 C 119.631 2.17768 5.99046 0
M  V30 1274 C 117.318 1.49218 5.92602 0
M  V30 1275 C 118.316 2.32706 6.42135 0
M  V30 1276 O 118.004 3.2976 7.33153 0
M  V30 1277 H 117.736 -0.0515469 0.674032 0
M  V30 1278 H 120.29 0.497559 1.99282 0
M  V30 1279 H 118.52 -1.52483 3.55367 0
M  V30 1280 H 120.209 -1.24336 3.86388 0
M  V30 1281 H 120.975 1.08525 4.72702 0
M  V30 1282 H 116.854 -0.135178 4.60802 0
M  V30 1283 H 120.398 2.82971 6.37631 0
M  V30 1284 H 116.295 1.6012 6.25325 0
M  V30 1285 H 117.063 3.25265 7.51096 0
M  V30 1286 N 119.726 -1.57421 0.075193 0
M  V30 1287 C 120.956 -1.97659 -0.601203 0
M  V30 1288 C 121.364 -0.952427 -1.63479 0
M  V30 1289 O 120.707 0.0688241 -1.83571 0
M  V30 1290 C 120.769 -3.34218 -1.32434 0
M  V30 1291 C 120.433 -4.5484 -0.443826 0
M  V30 1292 C 121.43 -5.19034 0.299969 0
M  V30 1293 C 119.115 -5.00952 -0.367709 0
M  V30 1294 C 121.109 -6.27695 1.10807 0
M  V30 1295 C 118.796 -6.09484 0.444058 0
M  V30 1296 C 119.794 -6.72719 1.18061 0
M  V30 1297 O 119.482 -7.79161 1.97898 0
M  V30 1298 H 119.214 -0.65494 -0.167422 0
M  V30 1299 H 121.768 -2.04886 0.145157 0
M  V30 1300 H 119.998 -3.23615 -2.11685 0
M  V30 1301 H 121.687 -3.59038 -1.89331 0
M  V30 1302 H 122.453 -4.84351 0.250776 0
M  V30 1303 H 118.332 -4.51509 -0.930638 0
M  V30 1304 H 121.876 -6.76982 1.68347 0
M  V30 1305 H 117.773 -6.43601 0.494803 0
M  V30 1306 H 118.541 -7.96055 1.90367 0
M  V30 1307 N 121.204 0.198386 -1.56346 0
M  V30 1308 C 122.136 1.26987 -1.90806 0
M  V30 1309 C 123.149 1.41877 -0.798419 0
M  V30 1310 O 124.338 1.42362 -1.07682 0
M  V30 1311 C 121.438 2.64246 -2.12196 0
M  V30 1312 C 120.611 2.71007 -3.43328 0
M  V30 1313 C 119.67 3.89439 -3.5387 0
M  V30 1314 O 118.696 3.76695 -4.26719 0
M  V30 1315 N 119.898 5.04752 -2.86715 0
M  V30 1316 H 122.663 0.977433 -2.83313 0
M  V30 1317 H 120.224 0.388322 -1.57174 0
M  V30 1318 H 122.216 3.41896 -2.1654 0
M  V30 1319 H 120.786 2.85992 -1.26204 0
M  V30 1320 H 120.006 1.79657 -3.50881 0
M  V30 1321 H 121.294 2.72512 -4.29668 0
M  V30 1322 H 120.692 5.18004 -2.2735 0
M  V30 1323 H 119.249 5.8036 -2.96691 0
M  V30 1324 N 122.682 1.50554 0.465978 0
M  V30 1325 C 123.91 1.65563 1.24083 0
M  V30 1326 C 124.325 0.341051 1.85694 0
M  V30 1327 O 123.682 -0.677543 1.69457 0
M  V30 1328 C 123.733 2.75051 2.34583 0
M  V30 1329 O 123.454 4.01413 1.75497 0
M  V30 1330 C 124.955 3.01078 3.25372 0
M  V30 1331 H 122.175 0.55638 0.375077 0
M  V30 1332 H 124.719 1.96807 0.555624 0
M  V30 1333 H 122.874 2.46486 2.9887 0
M  V30 1334 H 123.288 4.62002 2.48303 0
M  V30 1335 H 124.762 3.81339 3.99105 0
M  V30 1336 H 125.239 2.12349 3.84453 0
M  V30 1337 H 125.845 3.31194 2.66816 0
M  V30 1338 N 124.16 -0.719506 1.40217 0
M  V30 1339 C 125.07 -1.86378 1.42479 0
M  V30 1340 C 126.086 -1.71073 0.317834 0
M  V30 1341 O 127.262 -1.93406 0.561794 0
M  V30 1342 C 124.327 -3.22136 1.28178 0
M  V30 1343 C 123.388 -3.49723 2.48982 0
M  V30 1344 C 122.621 -4.79004 2.35353 0
M  V30 1345 O 122.844 -5.53821 1.36524 0
M  V30 1346 O 121.778 -5.06839 3.2465 0
M  V30 1347 H 125.604 -1.87425 2.38968 0
M  V30 1348 H 123.189 -0.869405 1.21498 0
M  V30 1349 H 125.071 -4.03234 1.22395 0
M  V30 1350 H 123.746 -3.21825 0.347934 0
M  V30 1351 H 122.653 -2.6865 2.60342 0
M  V30 1352 H 123.986 -3.54828 3.41113 0
M  V30 1353 N 125.638 -1.25649 -0.95132 0
M  V30 1354 C 126.585 -1.06323 -2.04851 0
M  V30 1355 C 127.555 0.0286491 -1.66075 0
M  V30 1356 O 128.74 -0.12917 -1.90362 0
M  V30 1357 C 125.88 -0.691529 -3.381 0
M  V30 1358 C 124.993 -1.85861 -3.89974 0
M  V30 1359 C 124.128 -1.43096 -5.11563 0
M  V30 1360 C 123.167 -2.56696 -5.55674 0
M  V30 1361 N 122.304 -2.14684 -6.68472 0
M  V30 1362 H 127.144 -2.00222 -2.20715 0
M  V30 1363 H 124.681 -0.997027 -1.08156 0
M  V30 1364 H 126.639 -0.456963 -4.1469 0
M  V30 1365 H 125.269 0.210474 -3.22113 0
M  V30 1366 H 124.321 -2.20639 -3.09875 0
M  V30 1367 H 125.633 -2.71161 -4.18657 0
M  V30 1368 H 124.787 -1.15624 -5.9558 0
M  V30 1369 H 123.526 -0.548722 -4.84603 0
M  V30 1370 H 122.531 -2.84909 -4.7022 0
M  V30 1371 H 123.756 -3.45503 -5.8464 0
M  V30 1372 H 121.702 -1.28881 -6.43215 0
M  V30 1373 H 121.619 -2.9353 -6.96689 0
M  V30 1374 H 122.887 -1.90397 -7.5589 0
M  V30 1375 N 127.117 1.15442 -1.07289 0
M  V30 1376 C 128.347 1.89821 -0.815576 0
M  V30 1377 C 128.755 1.7823 0.634867 0
M  V30 1378 O 128.098 1.13152 1.44715 0
M  V30 1379 C 128.16 3.40817 -1.14385 0
M  V30 1380 C 127.824 3.76193 -2.59476 0
M  V30 1381 C 128.821 3.77269 -3.57721 0
M  V30 1382 C 126.506 4.0652 -2.95037 0
M  V30 1383 C 128.5 4.08176 -4.89562 0
M  V30 1384 C 126.187 4.37092 -4.27076 0
M  V30 1385 C 127.185 4.37902 -5.24148 0
M  V30 1386 O 126.873 4.67741 -6.53815 0
M  V30 1387 H 126.605 0.608465 -0.294528 0
M  V30 1388 H 129.159 1.472 -1.43252 0
M  V30 1389 H 127.389 3.83835 -0.469865 0
M  V30 1390 H 129.078 3.96485 -0.869179 0
M  V30 1391 H 129.844 3.5394 -3.3159 0
M  V30 1392 H 125.723 4.05049 -2.20128 0
M  V30 1393 H 129.267 4.08723 -5.65324 0
M  V30 1394 H 125.164 4.59889 -4.5296 0
M  V30 1395 H 125.932 4.85509 -6.58957 0
M  V30 1396 N 128.595 0.856903 1.32268 0
M  V30 1397 C 129.872 0.382583 1.91822 0
M  V30 1398 C 130.252 -1.13407 1.78051 0
M  V30 1399 O 129.6 -1.95673 1.18001 0
M  V30 1400 C 129.81 0.849446 3.38505 0
M  V30 1401 C 131.158 0.867936 4.15634 0
M  V30 1402 O 132.182 0.794232 3.47232 0
M  V30 1403 O 131.041 0.972286 5.37781 0
M  V30 1404 H 128.135 0.112014 0.819379 0
M  V30 1405 H 130.681 0.943952 1.41024 0
M  V30 1406 H 129.453 1.89267 3.42482 0
M  V30 1407 H 129.076 0.265652 3.96712 0
M  V30 1408 N 130.073 -1.45103 0.615059 0
M  V30 1409 C 131.003 -2.33339 -0.0865619 0
M  V30 1410 C 131.984 -1.4727 -0.851209 0
M  V30 1411 O 133.169 -1.76026 -0.820281 0
M  V30 1412 C 130.299 -3.30095 -1.07956 0
M  V30 1413 C 129.253 -4.25858 -0.427628 0
M  V30 1414 C 128.579 -5.12361 -1.5294 0
M  V30 1415 C 129.879 -5.18165 0.655944 0
M  V30 1416 H 131.573 -2.92254 0.650224 0
M  V30 1417 H 129.119 -1.40532 0.314138 0
M  V30 1418 H 131.072 -3.90698 -1.57901 0
M  V30 1419 H 129.796 -2.69355 -1.84703 0
M  V30 1420 H 128.455 -3.66564 0.0510292 0
M  V30 1421 H 128.103 -4.47984 -2.28734 0
M  V30 1422 H 127.803 -5.77238 -1.09865 0
M  V30 1423 H 129.327 -5.75833 -2.03098 0
M  V30 1424 H 130.741 -5.72796 0.240257 0
M  V30 1425 H 129.138 -5.91559 1.00888 0
M  V30 1426 H 130.208 -4.60144 1.52957 0
M  V30 1427 N 131.551 -0.354651 -1.53558 0
M  V30 1428 C 132.514 0.484566 -2.24019 0
M  V30 1429 C 133.514 1.01861 -1.24422 0
M  V30 1430 O 134.704 0.906097 -1.4878 0
M  V30 1431 C 131.836 1.67615 -2.96847 0
M  V30 1432 H 133.029 -0.131843 -2.9961 0
M  V30 1433 H 130.582 -0.106165 -1.55939 0
M  V30 1434 H 131.317 2.33095 -2.25471 0
M  V30 1435 H 131.102 1.30029 -3.69912 0
M  V30 1436 H 132.592 2.27114 -3.50441 0
M  V30 1437 N 133.029 1.57378 -0.0835403 0
M  V30 1438 C 134.278 1.93106 0.582498 0
M  V30 1439 C 134.591 0.96651 1.70053 0
M  V30 1440 O 135.797 1.21705 2.42693 0
M  V30 1441 C 134.253 3.43076 1.08751 0
M  V30 1442 C 133.861 4.48 -0.000146404 0
M  V30 1443 C 135.605 3.87785 1.72694 0
M  V30 1444 C 133.512 5.89113 0.519568 0
M  V30 1445 H 132.442 0.720775 0.221358 0
M  V30 1446 H 135.093 1.82821 -0.157675 0
M  V30 1447 H 133.475 3.48474 1.88101 0
M  V30 1448 H 134.649 4.54233 -0.775199 0
M  V30 1449 H 132.964 4.1283 -0.54406 0
M  V30 1450 H 135.561 4.90604 2.1263 0
M  V30 1451 H 135.904 3.25796 2.59158 0
M  V30 1452 H 136.437 3.8504 0.999457 0
M  V30 1453 H 133.176 6.54775 -0.308186 0
M  V30 1454 H 132.696 5.86376 1.26188 0
M  V30 1455 H 134.375 6.39346 0.992237 0
M  V30 1456 N 134.507 -0.190092 1.56449 0
M  V30 1457 C 135.454 -1.23557 1.94942 0
M  V30 1458 C 136.424 -1.44972 0.810696 0
M  V30 1459 O 137.609 -1.58023 1.06927 0
M  V30 1460 C 134.749 -2.57416 2.2985 0
M  V30 1461 C 133.862 -2.43537 3.5681 0
M  V30 1462 C 132.997 -3.70134 3.81017 0
M  V30 1463 C 132.036 -3.51109 5.01387 0
M  V30 1464 N 131.173 -4.6973 5.21822 0
M  V30 1465 H 136.013 -0.900304 2.84075 0
M  V30 1466 H 133.55 -0.43318 1.40577 0
M  V30 1467 H 135.508 -3.35409 2.48106 0
M  V30 1468 H 134.138 -2.88975 1.43852 0
M  V30 1469 H 133.19 -1.56816 3.46573 0
M  V30 1470 H 134.502 -2.25415 4.4496 0
M  V30 1471 H 133.656 -4.56566 3.9954 0
M  V30 1472 H 132.395 -3.91215 2.91207 0
M  V30 1473 H 131.4 -2.63063 4.82782 0
M  V30 1474 H 132.625 -3.31468 5.9271 0
M  V30 1475 H 130.571 -4.91065 4.34961 0
M  V30 1476 H 130.488 -4.54452 6.0416 0
M  V30 1477 H 131.756 -5.57499 5.44808 0
M  V30 1478 N 135.985 -1.50799 -0.457987 0
M  V30 1479 C 137.262 -1.52968 -1.21902 0
M  V30 1480 C 137.642 -0.281906 -2.09209 0
M  V30 1481 O 136.99 0.734076 -2.16388 0
M  V30 1482 C 137.2 -2.8326 -2.03875 0
M  V30 1483 C 138.548 -3.34425 -2.6162 0
M  V30 1484 O 139.572 -2.8467 -2.14106 0
M  V30 1485 O 138.431 -4.21188 -3.48228 0
M  V30 1486 H 135.525 -0.614129 -0.553873 0
M  V30 1487 H 138.071 -1.63098 -0.468739 0
M  V30 1488 H 136.843 -3.65543 -1.39621 0
M  V30 1489 H 136.466 -2.76195 -2.8601 0
M  V30 1490 N 137.463 0.71206 -1.40597 0
M  V30 1491 C 138.393 1.83889 -1.43899 0
M  V30 1492 C 139.374 1.67442 -0.299504 0
M  V30 1493 O 140.559 1.87421 -0.508624 0
M  V30 1494 C 137.689 3.21877 -1.30431 0
M  V30 1495 C 136.643 3.53002 -2.42019 0
M  V30 1496 C 135.969 4.90172 -2.13626 0
M  V30 1497 C 137.269 3.53643 -3.84362 0
M  V30 1498 H 138.963 1.81383 -2.38203 0
M  V30 1499 H 136.509 0.871237 -1.14654 0
M  V30 1500 H 138.462 4.00404 -1.31357 0
M  V30 1501 H 137.186 3.24968 -0.326049 0
M  V30 1502 H 135.845 2.76818 -2.40349 0
M  V30 1503 H 135.493 4.89869 -1.14182 0
M  V30 1504 H 135.193 5.11962 -2.88389 0
M  V30 1505 H 136.717 5.71028 -2.1624 0
M  V30 1506 H 138.131 4.22203 -3.87837 0
M  V30 1507 H 136.528 3.86961 -4.58673 0
M  V30 1508 H 137.598 2.52954 -4.13693 0
M  V30 1509 N 138.941 1.26152 0.944643 0
M  V30 1510 C 139.888 1.07408 2.04285 0
M  V30 1511 C 140.858 -0.0198413 1.66088 0
M  V30 1512 O 142.043 0.139264 1.90291 0
M  V30 1513 C 139.183 0.70945 3.37729 0
M  V30 1514 C 138.296 1.87926 3.88983 0
M  V30 1515 C 137.431 1.45807 5.10797 0
M  V30 1516 C 136.47 2.5964 5.54305 0
M  V30 1517 N 135.607 2.18226 6.67324 0
M  V30 1518 H 140.447 2.01389 2.1965 0
M  V30 1519 H 137.984 1.00275 1.07626 0
M  V30 1520 H 139.942 0.478948 4.14442 0
M  V30 1521 H 138.572 -0.193389 3.2222 0
M  V30 1522 H 137.624 2.22279 3.08701 0
M  V30 1523 H 138.936 2.73377 4.17213 0
M  V30 1524 H 138.09 1.18781 5.94959 0
M  V30 1525 H 136.829 0.574414 4.84305 0
M  V30 1526 H 135.834 2.87399 4.68702 0
M  V30 1527 H 137.059 3.48599 5.828 0
M  V30 1528 H 135.005 1.3229 6.42523 0
M  V30 1529 H 134.922 2.97221 6.95123 0
M  V30 1530 H 136.19 1.94403 7.54869 0
M  V30 1531 N 140.419 -1.14872 1.07899 0
M  V30 1532 C 141.329 -2.2341 0.715915 0
M  V30 1533 C 142.345 -1.71808 -0.275306 0
M  V30 1534 O 143.521 -2.01039 -0.120545 0
M  V30 1535 C 140.586 -3.46474 0.125168 0
M  V30 1536 C 139.647 -4.13039 1.17034 0
M  V30 1537 C 138.88 -5.30229 0.607688 0
M  V30 1538 O 139.103 -5.675 -0.574497 0
M  V30 1539 O 138.037 -5.86444 1.35526 0
M  V30 1540 H 141.863 -2.56808 1.62121 0
M  V30 1541 H 139.448 -1.22702 0.852322 0
M  V30 1542 H 141.33 -4.20917 -0.201729 0
M  V30 1543 H 140.005 -3.14811 -0.753364 0
M  V30 1544 H 138.912 -3.40493 1.54968 0
M  V30 1545 H 140.245 -4.48796 2.02097 0
M  V30 1546 N 141.898 -0.863906 -1.31812 0
M  V30 1547 C 142.861 -0.320212 -2.26952 0
M  V30 1548 C 143.861 0.525369 -1.51975 0
M  V30 1549 O 145.051 0.335547 -1.70938 0
M  V30 1550 C 142.183 0.545919 -3.365 0
M  V30 1551 H 143.376 -1.16004 -2.76556 0
M  V30 1552 H 140.929 -0.638995 -1.42641 0
M  V30 1553 H 141.664 1.40718 -2.92179 0
M  V30 1554 H 141.449 -0.0594674 -3.92055 0
M  V30 1555 H 142.939 0.918796 -4.07367 0
M  V30 1556 N 143.376 1.44774 -0.622745 0
M  V30 1557 C 144.306 2.33382 0.0741861 0
M  V30 1558 C 145.287 1.47719 0.843387 0
M  V30 1559 O 146.472 1.76458 0.810934 0
M  V30 1560 C 143.602 3.30663 1.06204 0
M  V30 1561 C 142.556 4.26079 0.405037 0
M  V30 1562 C 141.882 5.13165 1.5022 0
M  V30 1563 C 143.182 5.1781 -0.683414 0
M  V30 1564 H 144.876 2.91905 -0.665713 0
M  V30 1565 H 142.422 1.40363 -0.321587 0
M  V30 1566 H 144.375 3.9153 1.55827 0
M  V30 1567 H 143.099 2.70331 1.83272 0
M  V30 1568 H 141.758 3.66532 -0.0704683 0
M  V30 1569 H 141.406 4.49191 2.26355 0
M  V30 1570 H 141.106 5.77812 1.06803 0
M  V30 1571 H 142.63 5.76902 2.00041 0
M  V30 1572 H 144.044 5.72661 -0.270631 0
M  V30 1573 H 142.441 5.91015 -1.04023 0
M  V30 1574 H 143.511 4.59326 -1.55395 0
M  V30 1575 N 144.854 0.36279 1.53368 0
M  V30 1576 C 146.103 -0.22888 2.00397 0
M  V30 1577 C 146.416 -1.50096 1.25421 0
M  V30 1578 O 147.622 -2.17106 1.63025 0
M  V30 1579 C 146.078 -0.458417 3.56969 0
M  V30 1580 C 145.686 0.798877 4.4082 0
M  V30 1581 C 147.43 -1.00789 4.12361 0
M  V30 1582 C 145.337 0.539078 5.88938 0
M  V30 1583 H 144.267 -0.089305 0.748693 0
M  V30 1584 H 146.918 0.481099 1.77081 0
M  V30 1585 H 145.3 -1.22959 3.76427 0
M  V30 1586 H 146.474 1.57262 4.33134 0
M  V30 1587 H 144.789 1.27137 3.96516 0
M  V30 1588 H 147.386 -1.21754 5.20653 0
M  V30 1589 H 147.729 -1.9692 3.66781 0
M  V30 1590 H 148.262 -0.296961 3.9669 0
M  V30 1591 H 145.001 1.47064 6.3879 0
M  V30 1592 H 144.521 -0.196222 5.99479 0
M  V30 1593 H 146.2 0.163542 6.46793 0
M  V30 1594 N 146.332 -1.57332 0.0918853 0
M  V30 1595 C 147.264 -2.10869 -0.898168 0
M  V30 1596 C 148.277 -1.04521 -1.24817 0
M  V30 1597 O 149.466 -1.31977 -1.20184 0
M  V30 1598 C 146.566 -2.57083 -2.2082 0
M  V30 1599 C 145.739 -3.87229 -2.03402 0
M  V30 1600 C 144.798 -4.19324 -3.17889 0
M  V30 1601 O 143.824 -4.88598 -2.91994 0
M  V30 1602 N 145.026 -3.74471 -4.43567 0
M  V30 1603 H 147.791 -2.96439 -0.440943 0
M  V30 1604 H 145.352 -1.61631 -0.0933064 0
M  V30 1605 H 147.344 -2.75602 -2.96354 0
M  V30 1606 H 145.914 -1.76541 -2.57977 0
M  V30 1607 H 145.134 -3.7789 -1.12218 0
M  V30 1608 H 146.422 -4.72379 -1.89038 0
M  V30 1609 H 145.82 -3.18546 -4.67488 0
M  V30 1610 H 144.377 -3.98151 -5.16061 0
M  V30 1611 N 147.81 0.181792 -1.56548 0
M  V30 1612 C 148.74 1.22765 -1.98623 0
M  V30 1613 C 149.721 1.46747 -0.860189 0
M  V30 1614 O 150.906 1.58259 -1.12551 0
M  V30 1615 C 148.036 2.56894 -2.33715 0
M  V30 1616 C 146.99 2.475 -3.49182 0
M  V30 1617 C 146.316 3.86023 -3.69986 0
M  V30 1618 C 147.616 1.98866 -4.82959 0
M  V30 1619 H 149.31 0.877942 -2.86239 0
M  V30 1620 H 146.856 0.42088 -1.37712 0
M  V30 1621 H 148.809 3.30253 -2.61746 0
M  V30 1622 H 147.533 2.93632 -1.42997 0
M  V30 1623 H 146.192 1.76596 -3.21262 0
M  V30 1624 H 145.84 4.20136 -2.76576 0
M  V30 1625 H 145.54 3.80609 -4.47672 0
M  V30 1626 H 147.064 4.60984 -4.00407 0
M  V30 1627 H 148.478 2.61992 -5.09934 0
M  V30 1628 H 146.875 2.04424 -5.64208 0
M  V30 1629 H 147.945 0.942465 -4.75653 0
M  V30 1630 N 149.288 1.51039 0.449983 0
M  V30 1631 C 150.704 1.38934 0.785462 0
M  V30 1632 C 150.904 0.461817 1.96136 0
M  V30 1633 O 149.96 -0.0877389 2.52348 0
M  V30 1634 C 151.273 2.80724 1.0777 0
M  V30 1635 C 152.821 2.89787 1.1829 0
M  V30 1636 C 153.296 4.32457 1.50815 0
M  V30 1637 N 154.787 4.35505 1.57764 0
M  V30 1638 C 155.522 5.42914 1.84477 0
M  V30 1639 N 155.018 6.60502 2.09068 0
M  V30 1640 N 156.811 5.3038 1.86155 0
M  V30 1641 H 148.962 2.09904 -0.324647 0
M  V30 1642 H 151.225 0.944378 -0.0827957 0
M  V30 1643 H 150.931 3.50531 0.286498 0
M  V30 1644 H 150.805 3.19273 2.00859 0
M  V30 1645 H 153.192 2.20186 1.96474 0
M  V30 1646 H 153.273 2.54752 0.231314 0
M  V30 1647 H 152.917 5.02603 0.731622 0
M  V30 1648 H 152.847 4.64995 2.47158 0
M  V30 1649 H 155.338 3.50724 1.40715 0
M  V30 1650 H 155.651 7.38158 2.28785 0
M  V30 1651 H 153.996 6.63639 2.06416 0
M  V30 1652 H 157.187 4.37505 1.66454 0
M  V30 1653 H 157.36 6.1417 2.06637 0
M  V30 1654 N 150.766 -0.704594 1.40972 0
M  V30 1655 C 152.014 -1.46169 1.39568 0
M  V30 1656 C 152.335 -1.95 0.00253745 0
M  V30 1657 O 151.605 -1.71095 -0.954114 0
M  V30 1658 H 150.185 -0.542326 0.513704 0
M  V30 1659 H 152.847 -0.834553 1.76128 0
M  V30 1660 H 151.943 -2.32922 2.07735 0
M  V30 1661 N 152.244 -1.26651 -0.937939 0
M  V30 1662 C 153.192 -1.08308 -2.05845 0
M  V30 1663 C 154.186 -0.0090757 -1.69398 0
M  V30 1664 O 155.392 -0.166007 -1.79233 0
M  V30 1665 H 151.767 -0.333416 -0.674046 0
M  V30 1666 H 153.738 -2.03261 -2.18467 0
M  V30 1667 C 152.487 -0.736229 -3.39816 0
M  V30 1668 H 151.81 -1.55453 -3.6834 0
M  V30 1669 H 153.25 -0.64769 -4.19024 0
M  V30 1670 C 151.709 0.558824 -3.32233 0
M  V30 1671 O 152.239 1.59621 -3.68624 0
M  V30 1672 N 150.445 0.550657 -2.85335 0
M  V30 1673 H 149.992 -0.293943 -2.55917 0
M  V30 1674 H 149.95 1.41726 -2.80644 0
M  V30 1675 N 153.722 1.14298 -1.08507 0
M  V30 1676 C 154.654 2.1907 -0.673859 0
M  V30 1677 C 155.667 1.60381 0.279577 0
M  V30 1678 O 156.856 1.78374 0.0670754 0
M  V30 1679 C 153.956 3.38888 0.0290979 0
M  V30 1680 C 153.129 4.27103 -0.943494 0
M  V30 1681 C 152.188 5.25477 -0.275676 0
M  V30 1682 O 151.214 5.61709 -0.920401 0
M  V30 1683 N 152.416 5.7227 0.974013 0
M  V30 1684 H 155.181 2.54965 -1.57521 0
M  V30 1685 H 152.742 1.29528 -0.971287 0
M  V30 1686 H 154.734 4.01761 0.48683 0
M  V30 1687 H 153.304 3.01309 0.832555 0
M  V30 1688 H 152.524 3.61149 -1.58004 0
M  V30 1689 H 153.812 4.82905 -1.60251 0
M  V30 1690 H 153.21 5.44965 1.51755 0
M  V30 1691 H 151.767 6.37127 1.37522 0
M  V30 1692 N 155.201 0.870884 1.31352 0
M  V30 1693 C 156.131 0.343096 2.30966 0
M  V30 1694 C 157.112 -0.566507 1.60389 0
M  V30 1695 O 158.297 -0.483336 1.88089 0
M  V30 1696 C 155.427 -0.455487 3.443 0
M  V30 1697 C 154.381 0.361103 4.26474 0
M  V30 1698 C 153.707 -0.563221 5.31725 0
M  V30 1699 C 155.007 1.59566 4.97329 0
M  V30 1700 H 156.701 1.17548 2.75359 0
M  V30 1701 H 154.247 0.566686 1.32381 0
M  V30 1702 H 156.2 -0.83525 4.13039 0
M  V30 1703 H 154.924 -1.32139 2.98675 0
M  V30 1704 H 153.583 0.722825 3.59403 0
M  V30 1705 H 153.231 -1.42643 4.82351 0
M  V30 1706 H 152.931 -0.0207409 5.87596 0
M  V30 1707 H 154.455 -0.939808 6.03324 0
M  V30 1708 H 155.869 1.28728 5.58661 0
M  V30 1709 H 154.266 2.07728 5.63 0
M  V30 1710 H 155.336 2.34798 4.24262 0
M  V30 1711 N 156.679 -1.44442 0.630414 0
M  V30 1712 C 157.928 -2.01267 0.132073 0
M  V30 1713 C 158.241 -1.50172 -1.25331 0
M  V30 1714 O 159.447 -1.9912 -1.84562 0
M  V30 1715 C 157.903 -3.59422 0.185362 0
M  V30 1716 C 157.511 -4.19514 1.57201 0
M  V30 1717 C 159.255 -4.23724 -0.256553 0
M  V30 1718 C 157.162 -5.69891 1.58045 0
M  V30 1719 H 156.092 -0.752619 0.0456092 0
M  V30 1720 H 158.743 -1.65666 0.789106 0
M  V30 1721 H 157.125 -3.92318 -0.538759 0
M  V30 1722 H 158.299 -3.98156 2.31966 0
M  V30 1723 H 156.614 -3.67496 1.95795 0
M  V30 1724 H 159.211 -5.34019 -0.269767 0
M  V30 1725 H 159.554 -3.96013 -1.28372 0
M  V30 1726 H 160.087 -3.95629 0.41505 0
M  V30 1727 H 156.826 -6.02336 2.58597 0
M  V30 1728 H 156.346 -5.93373 0.875725 0
M  V30 1729 H 158.025 -6.33515 1.31408 0
M  V30 1730 N 158.157 -0.370918 -1.53173 0
M  V30 1731 C 159.434 0.273754 -1.93675 0
M  V30 1732 C 159.814 1.65938 -1.3049 0
M  V30 1733 O 159.162 2.23698 -0.465999 0
M  V30 1734 C 159.372 0.318602 -3.47543 0
M  V30 1735 C 160.72 0.556392 -4.20939 0
M  V30 1736 O 161.744 0.399587 -3.53952 0
M  V30 1737 O 160.603 0.862133 -5.39657 0
M  V30 1738 H 157.697 0.165448 -0.810281 0
M  V30 1739 H 160.243 -0.42409 -1.64315 0
M  V30 1740 H 159.015 -0.652687 -3.85818 0
M  V30 1741 H 158.638 1.06212 -3.83151 0
M  V30 1742 N 159.635 1.57281 -0.100228 0
M  V30 1743 C 160.865 1.98591 0.569681 0
M  V30 1744 C 161.273 0.978315 1.61943 0
M  V30 1745 O 160.616 -0.0396108 1.83657 0
M  V30 1746 C 160.678 3.36282 1.271 0
M  V30 1747 C 160.342 4.55488 0.371409 0
M  V30 1748 C 161.339 5.18491 -0.382504 0
M  V30 1749 C 159.024 5.01474 0.287965 0
M  V30 1750 C 161.018 6.25852 -1.20779 0
M  V30 1751 C 158.705 6.08701 -0.540965 0
M  V30 1752 C 159.703 6.70755 -1.28749 0
M  V30 1753 O 159.391 7.75914 -2.10269 0
M  V30 1754 H 159.123 0.65752 0.156982 0
M  V30 1755 H 161.677 2.0463 -0.177734 0
M  V30 1756 H 159.907 3.26941 2.0651 0
M  V30 1757 H 161.596 3.62005 1.83595 0
M  V30 1758 H 162.362 4.83891 -0.3278 0
M  V30 1759 H 158.241 4.52932 0.858689 0
M  V30 1760 H 161.785 6.74218 -1.79096 0
M  V30 1761 H 157.682 6.42732 -0.597131 0
M  V30 1762 H 158.45 7.92925 -2.03007 0
M  V30 1763 N 161.113 -0.173488 1.56642 0
M  V30 1764 C 162.06 -1.21482 1.96242 0
M  V30 1765 C 163.03 -1.44104 0.826027 0
M  V30 1766 O 164.215 -1.5688 1.08597 0
M  V30 1767 C 161.355 -2.54964 2.32567 0
M  V30 1768 C 160.468 -2.39739 3.59373 0
M  V30 1769 C 159.603 -3.66072 3.84921 0
M  V30 1770 C 158.642 -3.45771 5.05083 0
M  V30 1771 N 157.779 -4.64169 5.26775 0
M  V30 1772 H 162.619 -0.870123 2.85014 0
M  V30 1773 H 160.156 -0.418245 1.41029 0
M  V30 1774 H 162.114 -3.32758 2.5165 0
M  V30 1775 H 160.744 -2.87433 1.46908 0
M  V30 1776 H 159.796 -1.53131 3.48217 0
M  V30 1777 H 161.108 -2.20683 4.47326 0
M  V30 1778 H 160.262 -4.52303 4.0436 0
M  V30 1779 H 159.001 -3.88105 2.9534 0
M  V30 1780 H 158.006 -2.57927 4.85545 0
M  V30 1781 H 159.231 -3.25163 5.96193 0
M  V30 1782 H 157.177 -4.86425 4.40144 0
M  V30 1783 H 157.094 -4.48019 6.08946 0
M  V30 1784 H 158.362 -5.51689 5.5069 0
M  V30 1785 N 162.591 -1.51276 -0.441967 0
M  V30 1786 C 163.84 -1.6295 -1.18871 0
M  V30 1787 C 164.153 -0.349312 -1.92456 0
M  V30 1788 O 165.359 -0.345355 -2.69295 0
M  V30 1789 C 163.815 -2.87759 -2.16155 0
M  V30 1790 C 163.423 -4.22764 -1.48239 0
M  V30 1791 C 165.167 -3.08788 -2.91291 0
M  V30 1792 C 163.074 -5.38728 -2.4398 0
M  V30 1793 H 162.004 -0.606913 -0.447406 0
M  V30 1794 H 164.655 -1.77739 -0.456205 0
M  V30 1795 H 163.037 -2.66593 -2.92821 0
M  V30 1796 H 164.211 -4.54293 -0.771635 0
M  V30 1797 H 162.526 -4.07575 -0.852741 0
M  V30 1798 H 165.123 -3.92599 -3.63002 0
M  V30 1799 H 165.466 -2.21679 -3.5237 0
M  V30 1800 H 165.999 -3.30272 -2.21733 0
M  V30 1801 H 162.738 -6.28082 -1.87598 0
M  V30 1802 H 162.258 -5.1158 -3.13123 0
M  V30 1803 H 163.937 -5.70489 -3.05207 0
M  V30 1804 N 164.069 0.697108 -1.41344 0
M  V30 1805 C 164.999 1.82353 -1.45841 0
M  V30 1806 C 165.98 1.67115 -0.317247 0
M  V30 1807 O 167.165 1.86871 -0.528474 0
M  V30 1808 C 164.295 3.20476 -1.33838 0
M  V30 1809 C 163.249 3.50415 -2.4575 0
M  V30 1810 C 162.575 4.87878 -2.18813 0
M  V30 1811 C 163.875 3.49546 -3.88091 0
M  V30 1812 H 165.569 1.78846 -2.40113 0
M  V30 1813 H 163.115 0.859028 -1.15571 0
M  V30 1814 H 165.068 3.98988 -1.35596 0
M  V30 1815 H 163.792 3.24604 -0.360498 0
M  V30 1816 H 162.451 2.74253 -2.43271 0
M  V30 1817 H 162.099 4.8863 -1.19371 0
M  V30 1818 H 161.799 5.08875 -2.93803 0
M  V30 1819 H 163.323 5.68702 -2.22284 0
M  V30 1820 H 164.737 4.18066 -3.92293 0
M  V30 1821 H 163.134 3.82075 -4.62751 0
M  V30 1822 H 164.204 2.48552 -4.16353 0
M  V30 1823 N 165.547 1.27147 0.931209 0
M  V30 1824 C 166.795 1.13055 1.6752 0
M  V30 1825 C 167.116 -0.324791 1.92276 0
M  V30 1826 O 166.386 -1.22775 1.52654 0
M  V30 1827 H 164.966 0.415391 0.620854 0
M  V30 1828 H 167.628 1.59623 1.11833 0
M  V30 1829 H 166.724 1.65694 2.64485 0
M  V30 1830 N 167.025 -1.13721 1.09112 0
M  V30 1831 C 167.955 -2.21148 0.749385 0
M  V30 1832 C 168.936 -1.6792 -0.271475 0
M  V30 1833 O 170.121 -1.93693 -0.140251 0
M  V30 1834 C 167.251 -3.46905 0.165659 0
M  V30 1835 C 166.205 -4.13203 1.11567 0
M  V30 1836 C 165.531 -5.33248 0.393809 0
M  V30 1837 C 166.831 -4.60912 2.45678 0
M  V30 1838 H 168.525 -2.4999 1.64758 0
M  V30 1839 H 166.071 -1.20156 0.793626 0
M  V30 1840 H 168.024 -4.21313 -0.085466 0
M  V30 1841 H 166.748 -3.17449 -0.767714 0
M  V30 1842 H 165.407 -3.40758 1.35202 0
M  V30 1843 H 165.055 -5.00054 -0.543599 0
M  V30 1844 H 164.755 -5.78552 1.02721 0
M  V30 1845 H 166.279 -6.10413 0.150908 0
M  V30 1846 H 167.693 -5.26759 2.26269 0
M  V30 1847 H 166.09 -5.16944 3.04776 0
M  V30 1848 H 167.16 -3.75603 3.06677 0
M  V30 1849 N 168.503 -0.877838 -1.30888 0
M  V30 1850 C 169.435 -0.296607 -2.27273 0
M  V30 1851 C 170.448 0.544799 -1.53414 0
M  V30 1852 O 171.637 0.365511 -1.74718 0
M  V30 1853 C 168.737 0.597481 -3.33592 0
M  V30 1854 C 167.91 -0.213251 -4.3688 0
M  V30 1855 C 166.969 0.610208 -5.2265 0
M  V30 1856 O 165.995 0.035441 -5.69189 0
M  V30 1857 N 167.197 1.92071 -5.47804 0
M  V30 1858 H 169.962 -1.12492 -2.77787 0
M  V30 1859 H 167.523 -0.740105 -1.43993 0
M  V30 1860 H 169.515 1.15425 -3.87891 0
M  V30 1861 H 168.085 1.32647 -2.83061 0
M  V30 1862 H 167.305 -0.951466 -3.82545 0
M  V30 1863 H 168.593 -0.769262 -5.02951 0
M  V30 1864 H 167.991 2.4107 -5.11763 0
M  V30 1865 H 166.548 2.42508 -6.05007 0
M  V30 1866 N 169.982 1.44106 -0.638065 0
M  V30 1867 C 171.229 2.01978 -0.14533 0
M  V30 1868 C 171.557 1.50234 1.23532 0
M  V30 1869 O 170.812 0.679548 1.83523 0
M  V30 1870 C 171.111 3.5729 -0.0887327 0
M  V30 1871 C 170.777 4.28317 -1.40909 0
M  V30 1872 C 169.439 4.47437 -1.77069 0
M  V30 1873 C 171.791 4.6867 -2.28031 0
M  V30 1874 C 169.119 5.04171 -3.00047 0
M  V30 1875 C 171.471 5.26766 -3.50286 0
M  V30 1876 C 170.135 5.44104 -3.86661 0
M  V30 1877 H 169.405 0.739089 -0.0531801 0
M  V30 1878 H 172.052 1.72781 -0.825761 0
M  V30 1879 H 170.357 3.8594 0.675095 0
M  V30 1880 H 172.054 3.99807 0.309145 0
M  V30 1881 H 168.644 4.1377 -1.1177 0
M  V30 1882 H 172.828 4.53604 -2.01388 0
M  V30 1883 H 168.084 5.15782 -3.28298 0
M  V30 1884 H 172.258 5.56983 -4.18023 0
M  V30 1885 H 169.885 5.87832 -4.82034 0
M  V30 1886 N 171.46 0.379036 1.52974 0
M  V30 1887 C 172.407 -0.461048 2.26148 0
M  V30 1888 C 173.377 -1.06637 1.27349 0
M  V30 1889 O 174.562 -1.09633 1.56157 0
M  V30 1890 C 171.702 -1.58782 3.06402 0
M  V30 1891 C 170.815 -1.00636 4.20115 0
M  V30 1892 C 169.95 -2.10334 4.87784 0
M  V30 1893 C 168.989 -1.49724 5.93506 0
M  V30 1894 N 168.126 -2.5331 6.54812 0
M  V30 1895 H 172.966 0.169429 2.97518 0
M  V30 1896 H 170.503 0.0953806 1.4679 0
M  V30 1897 H 172.461 -2.25174 3.51215 0
M  V30 1898 H 171.091 -2.18876 2.37261 0
M  V30 1899 H 170.143 -0.232332 3.7969 0
M  V30 1900 H 171.455 -0.523343 4.96047 0
M  V30 1901 H 170.609 -2.84519 5.35849 0
M  V30 1902 H 169.348 -2.61992 4.11353 0
M  V30 1903 H 168.353 -0.740598 5.44789 0
M  V30 1904 H 169.578 -0.988732 6.71864 0
M  V30 1905 H 167.524 -3.04156 5.81227 0
M  V30 1906 H 167.441 -2.09734 7.26325 0
M  V30 1907 H 168.709 -3.27155 7.07524 0
M  V30 1908 N 172.938 -1.57226 0.108567 0
M  V30 1909 C 173.868 -2.17778 -0.84232 0
M  V30 1910 C 174.849 -1.11487 -1.2847 0
M  V30 1911 O 176.034 -1.39681 -1.34918 0
M  V30 1912 C 173.164 -2.76888 -2.09644 0
M  V30 1913 C 172.118 -3.88669 -1.79221 0
M  V30 1914 C 171.444 -4.34541 -3.11574 0
M  V30 1915 C 172.744 -5.11251 -1.06864 0
M  V30 1916 H 174.438 -2.97489 -0.337774 0
M  V30 1917 H 171.984 -1.43097 -0.161025 0
M  V30 1918 H 173.937 -3.17904 -2.76614 0
M  V30 1919 H 172.661 -1.94451 -2.62405 0
M  V30 1920 H 171.32 -3.48213 -1.14644 0
M  V30 1921 H 170.968 -3.48977 -3.62249 0
M  V30 1922 H 170.668 -5.09914 -2.91996 0
M  V30 1923 H 172.192 -4.782 -3.7968 0
M  V30 1924 H 173.606 -5.49352 -1.63968 0
M  V30 1925 H 172.003 -5.9214 -0.974178 0
M  V30 1926 H 173.073 -4.8487 -0.0536168 0
M  V30 1927 N 174.416 0.165178 -1.56732 0
M  V30 1928 C 175.663 0.880807 -1.8234 0
M  V30 1929 C 175.991 1.81977 -0.686621 0
M  V30 1930 O 175.246 1.92971 0.325697 0
M  V30 1931 C 175.545 1.70405 -3.1416 0
M  V30 1932 C 175.211 0.913475 -4.4155 0
M  V30 1933 C 173.873 0.695303 -4.7615 0
M  V30 1934 C 176.225 0.359349 -5.1996 0
M  V30 1935 C 173.553 -0.0879947 -5.86634 0
M  V30 1936 C 175.905 -0.410893 -6.31264 0
M  V30 1937 C 174.569 -0.639808 -6.64427 0
M  V30 1938 H 173.839 0.32231 -0.667231 0
M  V30 1939 H 176.486 0.145402 -1.90947 0
M  V30 1940 H 174.791 2.50903 -3.00923 0
M  V30 1941 H 176.488 2.26091 -3.31186 0
M  V30 1942 H 173.078 1.09357 -4.14414 0
M  V30 1943 H 177.262 0.515228 -4.93618 0
M  V30 1944 H 172.518 -0.27503 -6.10781 0
M  V30 1945 H 176.692 -0.847494 -6.91224 0
M  V30 1946 H 174.319 -1.24864 -7.49875 0
M  V30 1947 N 175.894 1.51508 0.433938 0
M  V30 1948 C 176.857 1.72473 1.50949 0
M  V30 1949 C 177.857 0.594725 1.49398 0
M  V30 1950 O 179.047 0.862315 1.5136 0
M  V30 1951 C 176.179 1.78431 2.90474 0
M  V30 1952 H 177.372 2.68467 1.33662 0
M  V30 1953 H 174.925 1.41549 0.662836 0
M  V30 1954 H 175.66 0.842645 3.13161 0
M  V30 1955 H 175.445 2.60558 2.93005 0
M  V30 1956 H 176.935 1.96479 3.68491 0
M  V30 1957 N 177.372 -0.689602 1.41712 0
M  V30 1958 C 178.612 -1.46184 1.42862 0
M  V30 1959 C 178.976 -1.91962 0.0382204 0
M  V30 1960 O 180.177 -2.68694 -0.0755019 0
M  V30 1961 C 178.448 -2.6371 2.4123 0
M  V30 1962 S 180.007 -3.52768 2.6096 0
M  V30 1963 H 176.825 -0.49947 0.506015 0
M  V30 1964 H 179.427 -0.804107 1.78198 0
M  V30 1965 H 178.131 -2.28293 3.41044 0
M  V30 1966 H 177.662 -3.3437 2.07269 0
M  V30 1967 H 179.677 -4.59146 1.88148 0
M  V30 1968 N 178.85 -1.27639 -0.924453 0
M  V30 1969 C 179.76 -1.12466 -2.05885 0
M  V30 1970 C 180.776 -0.053869 -1.73917 0
M  V30 1971 O 181.952 -0.261012 -1.99702 0
M  V30 1972 C 179.017 -0.776768 -3.37886 0
M  V30 1973 C 178.078 -1.92878 -3.83532 0
M  V30 1974 C 177.311 -1.59739 -5.09234 0
M  V30 1975 O 177.534 -0.506782 -5.68144 0
M  V30 1976 O 176.468 -2.43761 -5.50331 0
M  V30 1977 H 180.294 -2.07671 -2.21599 0
M  V30 1978 H 177.879 -1.06857 -1.04413 0
M  V30 1979 H 179.761 -0.596229 -4.17161 0
M  V30 1980 H 178.436 0.145732 -3.23372 0
M  V30 1981 H 177.343 -2.1644 -3.0513 0
M  V30 1982 H 178.676 -2.8316 -4.02593 0
M  V30 1983 N 180.328 1.1314 -1.09713 0
M  V30 1984 C 181.574 1.84757 -0.836224 0
M  V30 1985 C 181.907 1.8347 0.636598 0
M  V30 1986 O 181.182 1.27491 1.46889 0
M  V30 1987 C 181.465 3.32782 -1.37578 0
M  V30 1988 C 181.318 3.42567 -2.91493 0
M  V30 1989 C 182.637 4.28307 -1.01198 0
M  V30 1990 H 179.756 0.67082 -0.305236 0
M  V30 1991 H 182.398 1.3278 -1.35903 0
M  V30 1992 H 180.548 3.77177 -0.931097 0
M  V30 1993 H 182.22 3.06862 -3.44432 0
M  V30 1994 H 180.463 2.83349 -3.28475 0
M  V30 1995 H 181.134 4.46674 -3.24324 0
M  V30 1996 H 183.61 3.91999 -1.39556 0
M  V30 1997 H 182.486 5.30307 -1.41653 0
M  V30 1998 H 182.747 4.42029 0.0794833 0
M  V30 1999 N 181.806 0.884767 1.30421 0
M  V30 2000 C 182.736 0.367574 2.30589 0
M  V30 2001 C 183.717 -0.549464 1.60981 0
M  V30 2002 O 184.902 -0.46336 1.88591 0
M  V30 2003 C 182.032 -0.418944 3.44764 0
M  V30 2004 C 180.986 0.406316 4.26067 0
M  V30 2005 C 180.312 -0.506793 5.32293 0
M  V30 2006 C 181.612 1.64832 4.95608 0
M  V30 2007 H 183.306 1.20462 2.74097 0
M  V30 2008 H 180.852 0.580695 1.31772 0
M  V30 2009 H 182.805 -0.791395 4.13902 0
M  V30 2010 H 181.529 -1.28964 3.0006 0
M  V30 2011 H 180.188 0.760903 3.58617 0
M  V30 2012 H 179.836 -1.37519 4.83836 0
M  V30 2013 H 179.536 0.0415828 5.87585 0
M  V30 2014 H 181.06 -0.875764 6.04287 0
M  V30 2015 H 182.474 1.34646 5.57264 0
M  V30 2016 H 180.871 2.13688 5.60765 0
M  V30 2017 H 181.941 2.39284 4.21748 0
M  V30 2018 N 183.284 -1.43765 0.645699 0
M  V30 2019 C 184.514 -2.05953 0.163318 0
M  V30 2020 C 184.922 -1.48432 -1.17322 0
M  V30 2021 O 184.265 -0.607295 -1.73371 0
M  V30 2022 C 184.327 -3.59499 -0.0103065 0
M  V30 2023 C 183.991 -4.39563 1.25035 0
M  V30 2024 C 184.988 -4.72108 2.17739 0
M  V30 2025 C 182.673 -4.79697 1.48983 0
M  V30 2026 C 184.667 -5.43688 3.3269 0
M  V30 2027 C 182.354 -5.51023 2.64229 0
M  V30 2028 C 183.352 -5.8294 3.55908 0
M  V30 2029 O 183.04 -6.5281 4.69142 0
M  V30 2030 H 182.772 -0.670798 0.0836986 0
M  V30 2031 H 185.326 -1.85384 0.884407 0
M  V30 2032 H 183.556 -3.78613 -0.78669 0
M  V30 2033 H 185.245 -4.03408 -0.449087 0
M  V30 2034 H 186.011 -4.41627 2.00476 0
M  V30 2035 H 181.89 -4.54266 0.785078 0
M  V30 2036 H 185.434 -5.68517 4.04269 0
M  V30 2037 H 181.331 -5.8092 2.81429 0
M  V30 2038 H 182.099 -6.71288 4.6831 0
M  V30 2039 N 184.763 -0.387143 -1.52771 0
M  V30 2040 C 185.711 0.463953 -2.27926 0
M  V30 2041 C 186.705 1.06493 -1.31741 0
M  V30 2042 O 187.911 1.00565 -1.49287 0
M  V30 2043 H 184.286 0.16837 -0.732909 0
M  V30 2044 H 186.257 -0.19141 -2.97785 0
M  V30 2045 C 185.006 1.5803 -3.09713 0
M  V30 2046 H 184.329 1.12718 -3.83581 0
M  V30 2047 H 185.769 2.15008 -3.65442 0
M  V30 2048 C 184.228 2.53509 -2.2189 0
M  V30 2049 O 184.758 3.56863 -1.84422 0
M  V30 2050 N 182.964 2.23199 -1.86093 0
M  V30 2051 H 182.511 1.39185 -2.16761 0
M  V30 2052 H 182.469 2.87333 -1.27621 0
M  V30 2053 N 186.241 1.57166 -0.116904 0
M  V30 2054 C 187.49 1.94298 0.541407 0
M  V30 2055 C 187.803 1.00236 1.67964 0
M  V30 2056 O 189.009 1.26826 2.40057 0
M  V30 2057 C 187.465 3.45306 1.01449 0
M  V30 2058 C 187.073 4.47899 -0.0951738 0
M  V30 2059 C 188.817 3.91361 1.6443 0
M  V30 2060 C 186.724 5.90083 0.394491 0
M  V30 2061 H 185.654 0.725308 0.206019 0
M  V30 2062 H 188.305 1.82446 -0.196419 0
M  V30 2063 H 186.687 3.52385 1.80667 0
M  V30 2064 H 187.861 4.52486 -0.871374 0
M  V30 2065 H 186.176 4.11583 -0.631505 0
M  V30 2066 H 188.773 4.95004 2.02176 0
M  V30 2067 H 189.116 3.3122 2.52189 0
M  V30 2068 H 189.649 3.87073 0.917559 0
M  V30 2069 H 186.388 6.53974 -0.447004 0
M  V30 2070 H 185.908 5.88921 1.13722 0
M  V30 2071 H 187.587 6.41307 0.856399 0
M  V30 2072 N 187.719 -0.156864 1.56817 0
M  V30 2073 C 188.682 -1.17781 1.96622 0
M  V30 2074 C 189.682 -1.36401 0.851555 0
M  V30 2075 O 190.872 -1.33561 1.11836 0
M  V30 2076 C 188.004 -2.54008 2.27361 0
M  V30 2077 H 189.197 -0.836564 2.87996 0
M  V30 2078 H 186.75 -0.39985 1.51099 0
M  V30 2079 H 187.485 -2.9312 1.38748 0
M  V30 2080 H 187.27 -2.41856 3.08623 0
M  V30 2081 H 188.76 -3.27558 2.59029 0
M  V30 2082 N 189.197 -1.51736 -0.425897 0
M  V30 2083 C 190.444 -1.6497 -1.17436 0
M  V30 2084 C 190.772 -0.371445 -1.9092 0
M  V30 2085 O 190.027 0.644963 -1.84767 0
M  V30 2086 C 190.326 -2.81103 -2.20717 0
M  V30 2087 C 189.992 -4.19954 -1.64162 0
M  V30 2088 C 188.654 -4.57725 -1.48462 0
M  V30 2089 C 191.006 -5.06552 -1.22696 0
M  V30 2090 C 188.334 -5.79789 -0.897873 0
M  V30 2091 C 190.686 -6.29205 -0.654464 0
M  V30 2092 C 189.35 -6.6574 -0.484456 0
M  V30 2093 H 188.62 -0.603668 -0.429727 0
M  V30 2094 H 191.267 -1.85798 -0.463829 0
M  V30 2095 H 189.572 -2.54542 -2.97852 0
M  V30 2096 H 191.269 -2.8854 -2.78471 0
M  V30 2097 H 187.859 -3.90181 -1.77361 0
M  V30 2098 H 192.043 -4.77968 -1.33642 0
M  V30 2099 H 187.299 -6.06733 -0.75402 0
M  V30 2100 H 191.473 -6.95643 -0.324694 0
M  V30 2101 H 189.1 -7.60195 -0.0276833 0
M  V30 2102 N 190.675 0.682077 -1.42076 0
M  V30 2103 C 191.608 1.80666 -1.3941 0
M  V30 2104 C 192.586 1.60518 -0.25939 0
M  V30 2105 O 193.77 1.83088 -0.448456 0
M  V30 2106 C 190.897 3.17556 -1.17796 0
M  V30 2107 C 189.943 3.56468 -2.34164 0
M  V30 2108 S 190.776 3.59729 -3.96681 0
M  V30 2109 C 191.932 4.99323 -3.77395 0
M  V30 2110 H 192.165 1.82652 -2.34575 0
M  V30 2111 H 189.698 0.852062 -1.2876 0
M  V30 2112 H 191.656 3.96575 -1.06012 0
M  V30 2113 H 190.317 3.13164 -0.242279 0
M  V30 2114 H 189.51 4.5595 -2.1477 0
M  V30 2115 H 189.112 2.84792 -2.42425 0
M  V30 2116 H 191.404 5.87202 -3.37935 0
M  V30 2117 H 192.347 5.23763 -4.76527 0
M  V30 2118 H 192.755 4.71498 -3.10403 0
M  V30 2119 N 192.153 1.28127 0.917671 0
M  V30 2120 C 193.383 1.17722 1.6978 0
M  V30 2121 C 193.791 -0.267261 1.87303 0
M  V30 2122 O 193.134 -1.19286 1.39702 0
M  V30 2123 C 193.196 1.79958 3.11216 0
M  V30 2124 C 192.86 3.29187 3.16993 0
M  V30 2125 C 193.857 4.25679 2.98485 0
M  V30 2126 C 191.542 3.70075 3.39632 0
M  V30 2127 C 193.536 5.61035 3.02521 0
M  V30 2128 C 191.223 5.05557 3.433 0
M  V30 2129 C 192.221 6.00847 3.24764 0
M  V30 2130 O 191.909 7.33859 3.28187 0
M  V30 2131 H 191.641 0.409788 0.537634 0
M  V30 2132 H 194.195 1.69694 1.15728 0
M  V30 2133 H 192.425 1.22475 3.66793 0
M  V30 2134 H 194.114 1.64125 3.71238 0
M  V30 2135 H 194.88 3.95426 2.80826 0
M  V30 2136 H 190.759 2.96373 3.53106 0
M  V30 2137 H 194.303 6.35388 2.87971 0
M  V30 2138 H 190.2 5.35462 3.60486 0
M  V30 2139 H 190.968 7.42436 3.44575 0
M  V30 2140 N 193.631 -1.12557 1.10312 0
M  V30 2141 C 194.594 -2.16434 0.75424 0
M  V30 2142 C 195.594 -1.59278 -0.220685 0
M  V30 2143 O 196.784 -1.742 0.00230591 0
M  V30 2144 C 193.916 -3.40699 0.116987 0
M  V30 2145 H 195.109 -2.48811 1.67431 0
M  V30 2146 H 192.662 -1.27542 0.903475 0
M  V30 2147 H 193.397 -3.13921 -0.813877 0
M  V30 2148 H 193.182 -3.83459 0.818613 0
M  V30 2149 H 194.672 -4.17451 -0.111387 0
M  V30 2150 N 195.109 -0.891671 -1.2995 0
M  V30 2151 C 196.056 -0.361736 -2.27948 0
M  V30 2152 C 197.026 0.551761 -1.56668 0
M  V30 2153 O 198.211 0.478736 -1.84696 0
M  V30 2154 C 195.351 0.411825 -3.42634 0
M  V30 2155 C 194.464 -0.531651 -4.28716 0
M  V30 2156 C 193.599 0.258167 -5.30572 0
M  V30 2157 C 192.638 -0.680349 -6.08307 0
M  V30 2158 N 191.775 0.0745613 -7.0206 0
M  V30 2159 H 196.615 -1.20254 -2.72659 0
M  V30 2160 H 194.152 -0.604352 -1.34112 0
M  V30 2161 H 196.11 0.876304 -4.07893 0
M  V30 2162 H 194.74 1.21715 -2.98974 0
M  V30 2163 H 193.792 -1.11463 -3.63703 0
M  V30 2164 H 195.104 -1.25038 -4.82874 0
M  V30 2165 H 194.258 0.784204 -6.0161 0
M  V30 2166 H 192.997 1.01008 -4.77126 0
M  V30 2167 H 192.002 -1.21796 -5.3614 0
M  V30 2168 H 193.227 -1.43145 -6.63842 0
M  V30 2169 H 191.173 0.808883 -6.50994 0
M  V30 2170 H 191.09 -0.584409 -7.53738 0
M  V30 2171 H 192.358 0.581123 -7.77331 0
M  V30 2172 N 196.587 1.43421 -0.653314 0
M  V30 2173 C 197.534 2.30768 0.0382271 0
M  V30 2174 C 198.504 1.44755 0.814576 0
M  V30 2175 O 199.689 1.73624 0.791162 0
M  V30 2176 C 196.829 3.30336 0.998599 0
M  V30 2177 C 195.942 4.31448 0.218342 0
M  V30 2178 C 195.077 5.18098 1.17252 0
M  V30 2179 C 194.116 6.10902 0.382702 0
M  V30 2180 N 193.253 6.90176 1.28848 0
M  V30 2181 H 198.093 2.89357 -0.712511 0
M  V30 2182 H 195.63 1.42548 -0.363128 0
M  V30 2183 H 197.588 3.86572 1.56901 0
M  V30 2184 H 196.218 2.73397 1.71621 0
M  V30 2185 H 195.27 3.77506 -0.46836 0
M  V30 2186 H 196.582 4.97227 -0.395812 0
M  V30 2187 H 195.736 5.7896 1.81356 0
M  V30 2188 H 194.475 4.52444 1.82058 0
M  V30 2189 H 193.48 5.49128 -0.27169 0
M  V30 2190 H 194.705 6.78598 -0.260957 0
M  V30 2191 H 192.651 6.27171 1.92334 0
M  V30 2192 H 192.568 7.52478 0.728887 0
M  V30 2193 H 193.836 7.55543 1.91766 0
M  V30 2194 N 198.065 0.39524 1.52563 0
M  V30 2195 C 198.975 -0.444232 2.30356 0
M  V30 2196 C 199.991 -1.06615 1.37511 0
M  V30 2197 O 201.167 -1.07067 1.70583 0
M  V30 2198 C 198.232 -1.55315 3.09964 0
M  V30 2199 C 197.293 -0.955734 4.18526 0
M  V30 2200 C 196.526 -2.01181 4.9433 0
M  V30 2201 O 196.749 -3.22781 4.70285 0
M  V30 2202 O 195.683 -1.62579 5.79527 0
M  V30 2203 H 199.509 0.189667 3.03107 0
M  V30 2204 H 197.094 0.1588 1.48554 0
M  V30 2205 H 198.976 -2.19724 3.59582 0
M  V30 2206 H 197.651 -2.17191 2.4002 0
M  V30 2207 H 196.558 -0.274743 3.7309 0
M  V30 2208 H 197.891 -0.381109 4.90722 0
M  V30 2209 N 199.544 -1.57102 0.125237 0
M  V30 2210 C 200.454 -2.19191 -0.8362 0
M  V30 2211 C 201.47 -1.16985 -1.28805 0
M  V30 2212 O 202.646 -1.49479 -1.34974 0
M  V30 2213 C 199.711 -2.78407 -2.06617 0
M  V30 2214 C 198.772 -3.9567 -1.66565 0
M  V30 2215 C 198.005 -4.52052 -2.83698 0
M  V30 2216 O 198.228 -4.07326 -3.99302 0
M  V30 2217 O 197.162 -5.42645 -2.60423 0
M  V30 2218 H 200.988 -3.01816 -0.337776 0
M  V30 2219 H 198.573 -1.4906 -0.100695 0
M  V30 2220 H 200.455 -3.16129 -2.7864 0
M  V30 2221 H 199.13 -1.9881 -2.55453 0
M  V30 2222 H 198.037 -3.62705 -0.916296 0
M  V30 2223 H 199.37 -4.76722 -1.22464 0
M  V30 2224 N 201.022 0.148545 -1.56898 0
M  V30 2225 C 202.268 0.857877 -1.84424 0
M  V30 2226 C 202.623 1.7886 -0.709006 0
M  V30 2227 O 201.916 1.89344 0.293139 0
M  V30 2228 C 202.11 1.67064 -3.1595 0
M  V30 2229 C 201.939 0.82011 -4.42159 0
M  V30 2230 C 200.709 0.486328 -5.02954 0
M  V30 2231 C 202.907 0.151155 -5.14078 0
M  V30 2232 N 200.889 -0.377956 -6.12735 0
M  V30 2233 C 202.26 -0.573333 -6.17343 0
M  V30 2234 C 204.315 0.0716685 -4.97848 0
M  V30 2235 C 203.018 -1.3698 -7.06137 0
M  V30 2236 C 205.044 -0.711532 -5.87104 0
M  V30 2237 C 204.406 -1.42431 -6.8985 0
M  V30 2238 H 200.505 0.291798 -0.725519 0
M  V30 2239 H 203.089 0.123347 -1.94309 0
M  V30 2240 H 201.26 2.37642 -3.07215 0
M  V30 2241 H 202.992 2.32302 -3.31388 0
M  V30 2242 H 199.747 0.821753 -4.66416 0
M  V30 2243 H 200.171 -0.801077 -6.72244 0
M  V30 2244 H 204.813 0.608381 -4.184 0
M  V30 2245 H 202.531 -1.91778 -7.85014 0
M  V30 2246 H 206.117 -0.775005 -5.76615 0
M  V30 2247 H 204.997 -2.02061 -7.57721 0
M  V30 2248 N 202.5 1.5196 0.417844 0
M  V30 2249 C 203.447 1.74678 1.50852 0
M  V30 2250 C 204.417 0.588947 1.55308 0
M  V30 2251 O 205.602 0.825544 1.72016 0
M  V30 2252 C 202.742 1.89544 2.88387 0
M  V30 2253 C 201.855 3.17166 2.93309 0
M  V30 2254 C 200.99 3.22513 4.22088 0
M  V30 2255 C 200.029 4.44372 4.20951 0
M  V30 2256 N 199.166 4.47161 5.41287 0
M  V30 2257 H 204.006 2.67768 1.30783 0
M  V30 2258 H 201.543 1.32689 0.63498 0
M  V30 2259 H 203.501 1.96146 3.68216 0
M  V30 2260 H 202.131 0.998424 3.06971 0
M  V30 2261 H 201.183 3.19778 2.06024 0
M  V30 2262 H 202.495 4.07021 2.88332 0
M  V30 2263 H 201.649 3.28139 5.10303 0
M  V30 2264 H 200.388 2.30581 4.29748 0
M  V30 2265 H 199.393 4.38902 3.31127 0
M  V30 2266 H 200.618 5.3759 4.14938 0
M  V30 2267 H 198.564 3.58108 5.49632 0
M  V30 2268 H 198.481 5.3085 5.3827 0
M  V30 2269 H 199.749 4.57005 6.3148 0
M  V30 2270 N 203.978 -0.674533 1.42435 0
M  V30 2271 C 204.925 -1.78807 1.45934 0
M  V30 2272 C 205.895 -1.63157 0.311271 0
M  V30 2273 O 207.08 -1.83707 0.515383 0
M  V30 2274 C 204.22 -3.16839 1.36773 0
M  V30 2275 C 203.333 -3.43774 2.61617 0
M  V30 2276 C 202.468 -4.71536 2.44597 0
M  V30 2277 C 201.507 -4.91505 3.64814 0
M  V30 2278 N 200.644 -6.10508 3.46734 0
M  V30 2279 H 205.484 -1.75151 2.41093 0
M  V30 2280 H 203.021 -0.85504 1.19697 0
M  V30 2281 H 204.979 -3.96606 1.29459 0
M  V30 2282 H 203.609 -3.19619 0.452089 0
M  V30 2283 H 202.661 -2.58259 2.79297 0
M  V30 2284 H 203.973 -3.54423 3.50978 0
M  V30 2285 H 203.127 -5.59393 2.3487 0
M  V30 2286 H 201.866 -4.6317 1.52726 0
M  V30 2287 H 200.871 -4.0209 3.74972 0
M  V30 2288 H 202.096 -5.01716 4.57665 0
M  V30 2289 H 200.042 -6.03315 2.5758 0
M  V30 2290 H 199.959 -6.2202 4.29682 0
M  V30 2291 H 201.227 -7.01044 3.40819 0
M  V30 2292 N 205.456 -1.28612 -0.910864 0
M  V30 2293 C 206.419 -1.12803 -1.9952 0
M  V30 2294 C 207.419 -0.0668264 -1.60661 0
M  V30 2295 O 208.609 -0.312847 -1.71368 0
M  V30 2296 C 205.741 -0.72254 -3.33155 0
M  V30 2297 H 206.934 -2.09109 -2.14973 0
M  V30 2298 H 204.487 -1.11639 -1.09391 0
M  V30 2299 H 205.222 0.241152 -3.23402 0
M  V30 2300 H 205.007 -1.48916 -3.62721 0
M  V30 2301 H 206.497 -0.634666 -4.12749 0
M  V30 2302 N 206.934 1.1197 -1.10907 0
M  V30 2303 C 207.844 2.21433 -0.774896 0
M  V30 2304 C 208.86 1.72478 0.229657 0
M  V30 2305 O 210.036 2.01288 0.0672008 0
M  V30 2306 C 207.101 3.4602 -0.216986 0
M  V30 2307 C 206.162 4.09791 -1.27944 0
M  V30 2308 C 205.395 5.28431 -0.748055 0
M  V30 2309 O 205.618 5.68823 0.423833 0
M  V30 2310 O 204.552 5.82644 -1.51027 0
M  V30 2311 H 208.378 2.5242 -1.68873 0
M  V30 2312 H 205.963 1.20399 -0.884555 0
M  V30 2313 H 207.845 4.21304 0.090059 0
M  V30 2314 H 206.52 3.16698 0.669633 0
M  V30 2315 H 205.427 3.36265 -1.63941 0
M  V30 2316 H 206.76 4.4328 -2.13925 0
M  V30 2317 N 208.412 0.89855 1.29475 0
M  V30 2318 C 209.322 0.379974 2.31502 0
M  V30 2319 C 210.338 -0.524695 1.659 0
M  V30 2320 O 211.514 -0.414551 1.97087 0
M  V30 2321 C 208.579 -0.385138 3.44554 0
M  V30 2322 C 207.64 0.550914 4.2575 0
M  V30 2323 C 206.873 -0.177778 5.33404 0
M  V30 2324 O 207.096 -1.40189 5.52904 0
M  V30 2325 O 206.03 0.479106 5.9999 0
M  V30 2326 H 209.856 1.22639 2.77837 0
M  V30 2327 H 207.441 0.662834 1.33891 0
M  V30 2328 H 209.323 -0.817841 4.13388 0
M  V30 2329 H 207.998 -1.20763 3.0033 0
M  V30 2330 H 206.905 1.03271 3.59564 0
M  V30 2331 H 208.238 1.33979 4.73614 0
M  V30 2332 N 209.89 -1.43072 0.660911 0
M  V30 2333 C 210.822 -2.29108 -0.0647641 0
M  V30 2334 C 211.835 -1.42928 -0.779448 0
M  V30 2335 O 213.024 -1.66788 -0.635921 0
M  V30 2336 C 210.124 -3.20032 -1.11503 0
M  V30 2337 C 209.297 -4.34792 -0.476955 0
M  V30 2338 C 208.356 -5.06534 -1.42513 0
M  V30 2339 O 207.382 -5.61538 -0.930771 0
M  V30 2340 N 208.584 -5.1075 -2.75889 0
M  V30 2341 H 211.349 -2.92029 0.673731 0
M  V30 2342 H 208.91 -1.53846 0.50427 0
M  V30 2343 H 210.902 -3.64892 -1.75032 0
M  V30 2344 H 209.472 -2.58658 -1.75541 0
M  V30 2345 H 208.692 -3.92752 0.337572 0
M  V30 2346 H 209.98 -5.0879 -0.0318525 0
M  V30 2347 H 209.378 -4.67447 -3.18606 0
M  V30 2348 H 207.935 -5.59302 -3.347 0
M  V30 2349 N 211.368 -0.403325 -1.52352 0
M  V30 2350 C 212.298 0.416205 -2.29761 0
M  V30 2351 C 213.279 1.05123 -1.33728 0
M  V30 2352 O 214.464 1.06134 -1.62632 0
M  V30 2353 C 211.594 1.53624 -3.11475 0
M  V30 2354 C 210.548 1.02653 -4.15507 0
M  V30 2355 C 209.874 2.23971 -4.85532 0
M  V30 2356 C 211.174 0.08463 -5.22231 0
M  V30 2357 H 212.868 -0.229701 -2.98518 0
M  V30 2358 H 210.414 -0.111913 -1.43564 0
M  V30 2359 H 212.367 2.1165 -3.64393 0
M  V30 2360 H 211.091 2.20994 -2.40477 0
M  V30 2361 H 209.75 0.46871 -3.63591 0
M  V30 2362 H 209.398 2.89883 -4.11068 0
M  V30 2363 H 209.098 1.90521 -5.55856 0
M  V30 2364 H 210.622 2.82614 -5.41259 0
M  V30 2365 H 212.036 0.573509 -5.70424 0
M  V30 2366 H 210.433 -0.160783 -5.99885 0
M  V30 2367 H 211.503 -0.86237 -4.7717 0
M  V30 2368 N 212.846 1.57033 -0.133567 0
M  V30 2369 C 213.809 2.14897 0.796995 0
M  V30 2370 C 214.809 1.0874 1.18458 0
M  V30 2371 O 215.999 1.34446 1.1077 0
M  V30 2372 C 213.131 2.70112 2.07973 0
M  V30 2373 H 214.324 2.98457 0.293873 0
M  V30 2374 H 211.877 1.55871 0.115787 0
M  V30 2375 H 212.612 1.9018 2.62682 0
M  V30 2376 H 212.397 3.47764 1.81115 0
M  V30 2377 H 213.887 3.14738 2.74462 0
M  V30 2378 N 214.325 -0.140222 1.56975 0
M  V30 2379 C 215.255 -1.17456 2.01808 0
M  V30 2380 C 216.236 -1.44415 0.898794 0
M  V30 2381 O 217.421 -1.5522 1.16707 0
M  V30 2382 C 214.551 -2.50607 2.40444 0
M  V30 2383 C 213.505 -2.38155 3.55621 0
M  V30 2384 C 212.831 -3.76078 3.80091 0
M  V30 2385 C 214.131 -1.85991 4.88062 0
M  V30 2386 H 215.825 -0.801743 2.88466 0
M  V30 2387 H 213.371 -0.38422 1.38779 0
M  V30 2388 H 215.324 -3.23197 2.7041 0
M  V30 2389 H 214.048 -2.89737 1.50732 0
M  V30 2390 H 212.707 -1.68016 3.25832 0
M  V30 2391 H 212.355 -4.12656 2.87618 0
M  V30 2392 H 212.055 -3.68606 4.57606 0
M  V30 2393 H 213.579 -4.50206 4.12488 0
M  V30 2394 H 214.993 -2.4838 5.16701 0
M  V30 2395 H 213.39 -1.89393 5.6943 0
M  V30 2396 H 214.46 -0.816023 4.77984 0
M  V30 2397 N 215.803 -1.52179 -0.40978 0
M  V30 2398 C 216.766 -1.74853 -1.48186 0
M  V30 2399 C 217.766 -0.618417 -1.48433 0
M  V30 2400 O 218.956 -0.886286 -1.49969 0
M  V30 2401 C 216.088 -1.8303 -2.87598 0
M  V30 2402 H 217.281 -2.70559 -1.29374 0
M  V30 2403 H 214.834 -1.42586 -0.640233 0
M  V30 2404 H 215.569 -0.89236 -3.11781 0
M  V30 2405 H 215.354 -2.65187 -2.88822 0
M  V30 2406 H 216.844 -2.02316 -3.65319 0
M  V30 2407 N 217.281 0.66697 -1.42791 0
M  V30 2408 C 218.509 1.45505 -1.47091 0
M  V30 2409 C 218.924 1.8861 -0.0845873 0
M  V30 2410 O 218.281 1.58632 0.90234 0
M  V30 2411 C 218.332 2.69906 -2.40485 0
M  V30 2412 O 218.053 2.28608 -3.73725 0
M  V30 2413 C 219.554 3.63396 -2.53886 0
M  V30 2414 H 216.774 0.447459 -0.500022 0
M  V30 2415 H 219.318 0.818866 -1.8739 0
M  V30 2416 H 217.473 3.29696 -2.03419 0
M  V30 2417 H 217.887 3.08997 -4.23817 0
M  V30 2418 H 219.361 4.47387 -3.2334 0
M  V30 2419 H 219.838 4.09824 -1.57927 0
M  V30 2420 H 220.444 3.09495 -2.91706 0
M  V30 2421 N 218.759 1.29093 0.90403 0
M  V30 2422 C 219.984 1.19809 1.69294 0
M  V30 2423 C 220.409 -0.238481 1.86582 0
M  V30 2424 O 219.767 -1.1723 1.383 0
M  V30 2425 C 219.815 1.91202 3.05736 0
M  V30 2426 O 218.919 1.22611 3.93752 0
M  V30 2427 H 218.26 0.415385 0.518027 0
M  V30 2428 H 220.79 1.70586 1.12967 0
M  V30 2429 H 220.8 1.99487 3.55906 0
M  V30 2430 H 219.475 2.95692 2.92471 0
M  V30 2431 H 218.052 1.22554 3.52186 0
M  V30 2432 N 220.237 -1.11381 1.11499 0
M  V30 2433 C 221.17 -2.16621 0.71769 0
M  V30 2434 C 222.148 -1.60058 -0.286413 0
M  V30 2435 O 223.332 -1.87613 -0.182689 0
M  V30 2436 C 220.459 -3.38646 0.0607265 0
M  V30 2437 C 219.505 -4.13874 1.03008 0
M  V30 2438 S 220.338 -4.70731 2.55289 0
M  V30 2439 C 221.494 -5.96079 1.90895 0
M  V30 2440 H 221.727 -2.49987 1.60915 0
M  V30 2441 H 219.26 -1.23015 0.933092 0
M  V30 2442 H 221.218 -4.09313 -0.311965 0
M  V30 2443 H 219.879 -3.03537 -0.807702 0
M  V30 2444 H 219.072 -5.01333 0.517853 0
M  V30 2445 H 218.674 -3.4897 1.34522 0
M  V30 2446 H 220.966 -6.65948 1.24577 0
M  V30 2447 H 221.909 -6.51946 2.76354 0
M  V30 2448 H 222.317 -5.47652 1.36885 0
M  V30 2449 N 221.715 -0.905404 -1.28997 0
M  V30 2450 C 222.662 -0.385892 -2.27551 0
M  V30 2451 C 223.632 0.535113 -1.57244 0
M  V30 2452 O 224.817 0.459119 -1.85194 0
M  V30 2453 C 221.957 0.375461 -3.43051 0
M  V30 2454 C 221.07 -0.577092 -4.28128 0
M  V30 2455 C 220.205 0.201879 -5.30816 0
M  V30 2456 C 219.244 -0.744829 -6.07551 0
M  V30 2457 N 218.381 9.42587e-05 -7.021 0
M  V30 2458 H 223.221 -1.23139 -2.71368 0
M  V30 2459 H 220.758 -0.618542 -1.33463 0
M  V30 2460 H 222.716 0.832992 -4.088 0
M  V30 2461 H 221.346 1.18537 -3.00248 0
M  V30 2462 H 220.398 -1.15315 -3.62501 0
M  V30 2463 H 221.71 -1.30152 -4.8152 0
M  V30 2464 H 220.864 0.720351 -6.02408 0
M  V30 2465 H 219.603 0.959413 -4.7817 0
M  V30 2466 H 218.608 -1.27475 -5.34818 0
M  V30 2467 H 219.833 -1.50178 -6.62286 0
M  V30 2468 H 217.779 0.739791 -6.51815 0
M  V30 2469 H 217.696 -0.664321 -7.53076 0
M  V30 2470 H 218.964 0.498644 -7.77903 0
M  V30 2471 N 223.193 1.4272 -0.668489 0
M  V30 2472 C 224.418 2.06484 -0.194758 0
M  V30 2473 C 224.843 1.49862 1.13679 0
M  V30 2474 O 224.201 0.614582 1.70565 0
M  V30 2475 C 224.249 3.60353 -0.133546 0
M  V30 2476 O 223.353 4.02464 0.899806 0
M  V30 2477 H 222.694 0.656137 -0.10188 0
M  V30 2478 H 225.224 1.82964 -0.915722 0
M  V30 2479 H 225.234 4.07976 0.0447041 0
M  V30 2480 H 223.909 4.00938 -1.1055 0
M  V30 2481 H 222.486 3.66402 0.693109 0
M  V30 2482 N 224.671 0.411399 1.52136 0
M  V30 2483 C 225.581 -0.419774 2.30814 0
M  V30 2484 C 226.597 -1.0515 1.38634 0
M  V30 2485 O 227.773 -1.05252 1.71709 0
M  V30 2486 C 224.838 -1.52019 3.11594 0
M  V30 2487 C 223.899 -0.91129 4.19516 0
M  V30 2488 C 223.132 -1.95927 4.96436 0
M  V30 2489 O 223.355 -3.17775 4.73683 0
M  V30 2490 O 222.289 -1.56423 5.81219 0
M  V30 2491 H 226.115 0.221805 3.02889 0
M  V30 2492 H 223.7 0.174547 1.48377 0
M  V30 2493 H 225.582 -2.15898 3.61892 0
M  V30 2494 H 224.257 -2.14633 2.42311 0
M  V30 2495 H 223.164 -0.235157 3.7336 0
M  V30 2496 H 224.497 -0.32904 4.91099 0
M  V30 2497 N 226.149 -1.5696 0.141893 0
M  V30 2498 C 227.56 -1.82797 -0.379776 0
M  V30 2499 C 227.911 -1.06033 -1.6508 0
M  V30 2500 O 227.036 -0.304011 -2.14254 0
M  V30 2501 C 227.631 -3.31578 -0.695802 0
M  V30 2502 C 226.19 -3.58014 -1.16201 0
M  V30 2503 C 225.337 -2.76699 -0.182455 0
M  V30 2504 H 228.288 -1.54406 0.366675 0
M  V30 2505 H 228.309 -3.47454 -1.55099 0
M  V30 2506 H 227.821 -3.87421 0.229449 0
M  V30 2507 H 225.922 -3.07553 -2.10338 0
M  V30 2508 H 226.035 -4.66501 -1.09151 0
M  V30 2509 H 224.399 -2.45618 -0.674072 0
M  V30 2510 H 225.182 -3.35311 0.736297 0
M  V30 2511 N 227.627 0.131896 -1.57047 0
M  V30 2512 C 229.043 0.485031 -1.52051 0
M  V30 2513 C 229.243 1.82563 -0.85281 0
M  V30 2514 O 228.299 2.48817 -0.429694 0
M  V30 2515 C 229.612 0.481409 -2.96821 0
M  V30 2516 C 231.16 0.565868 -3.07842 0
M  V30 2517 C 231.635 0.592762 -4.54148 0
M  V30 2518 N 233.126 0.654564 -4.58552 0
M  V30 2519 C 233.861 0.696608 -5.69153 0
M  V30 2520 N 233.357 0.697078 -6.89284 0
M  V30 2521 N 235.15 0.738639 -5.57226 0
M  V30 2522 H 227.301 -0.746664 -1.98843 0
M  V30 2523 H 229.564 -0.273999 -0.90754 0
M  V30 2524 H 229.27 -0.435731 -3.4899 0
M  V30 2525 H 229.144 1.3139 -3.53577 0
M  V30 2526 H 231.531 1.47343 -2.55684 0
M  V30 2527 H 231.612 -0.29406 -2.54104 0
M  V30 2528 H 231.256 -0.310701 -5.06949 0
M  V30 2529 H 231.186 1.46939 -5.05684 0
M  V30 2530 H 233.677 0.660887 -3.72076 0
M  V30 2531 H 233.99 0.731426 -7.69331 0
M  V30 2532 H 232.335 0.66471 -6.91814 0
M  V30 2533 H 235.526 0.735545 -4.62285 0
M  V30 2534 H 235.699 0.767938 -6.43434 0
M  V30 2535 N 229.106 1.52395 0.401703 0
M  V30 2536 C 230.056 1.72649 1.48917 0
M  V30 2537 C 231.04 0.580436 1.50066 0
M  V30 2538 O 232.232 0.83779 1.55917 0
M  V30 2539 C 229.361 1.88729 2.86769 0
M  V30 2540 C 228.447 3.09228 2.90239 0
M  V30 2541 N 228.838 4.31805 2.63396 0
M  V30 2542 C 227.136 3.09214 3.21408 0
M  V30 2543 C 227.837 5.13326 2.73625 0
M  V30 2544 N 226.813 4.48735 3.06819 0
M  V30 2545 H 230.615 2.65058 1.26971 0
M  V30 2546 H 228.129 1.50528 0.609504 0
M  V30 2547 H 230.126 2.01358 3.65049 0
M  V30 2548 H 228.786 0.975252 3.09708 0
M  V30 2549 H 229.797 4.60154 2.37653 0
M  V30 2550 H 226.474 2.27774 3.49893 0
M  V30 2551 H 227.864 6.21003 2.56524 0
M  V30 2552 N 230.584 -0.659388 1.43143 0
M  V30 2553 C 231.809 -1.45221 1.48073 0
M  V30 2554 C 232.234 -1.87845 0.097995 0
M  V30 2555 O 231.592 -1.56985 -0.90694 0
M  V30 2556 C 231.64 -2.66748 2.42647 0
M  V30 2557 O 230.744 -3.65583 1.90848 0
M  V30 2558 H 230.085 -0.435669 0.501088 0
M  V30 2559 H 232.615 -0.807432 1.87994 0
M  V30 2560 H 232.625 -3.14637 2.59745 0
M  V30 2561 H 231.3 -2.35067 3.43098 0
M  V30 2562 H 229.877 -3.24693 1.83381 0
M  V30 2563 N 232.062 -1.29571 -0.897171 0
M  V30 2564 C 233.009 -1.14916 -2.00158 0
M  V30 2565 C 233.979 -0.0418149 -1.66047 0
M  V30 2566 O 235.164 -0.209793 -1.89643 0
M  V30 2567 C 232.304 -0.834307 -3.34863 0
M  V30 2568 C 231.417 -2.02234 -3.8174 0
M  V30 2569 C 230.552 -1.64664 -5.05034 0
M  V30 2570 C 229.591 -2.80033 -5.44286 0
M  V30 2571 N 228.728 -2.42843 -6.58765 0
M  V30 2572 H 233.568 -2.09403 -2.12025 0
M  V30 2573 H 231.105 -1.042 -1.0383 0
M  V30 2574 H 233.063 -0.632436 -4.12379 0
M  V30 2575 H 231.693 0.0736656 -3.22716 0
M  V30 2576 H 230.745 -2.33583 -3.00238 0
M  V30 2577 H 232.057 -2.88673 -4.06779 0
M  V30 2578 H 231.211 -1.4078 -5.9014 0
M  V30 2579 H 229.95 -0.753766 -4.8184 0
M  V30 2580 H 228.955 -3.04596 -4.57713 0
M  V30 2581 H 230.18 -3.69989 -5.6946 0
M  V30 2582 H 228.126 -1.56046 -6.3717 0
M  V30 2583 H 228.043 -3.22815 -6.83613 0
M  V30 2584 H 229.311 -2.22285 -7.47134 0
M  V30 2585 N 233.54 1.10788 -1.12088 0
M  V30 2586 C 234.789 1.82036 -0.868659 0
M  V30 2587 C 235.102 1.85929 0.607426 0
M  V30 2588 O 236.308 2.53346 0.97613 0
M  V30 2589 C 234.764 3.26951 -1.50435 0
M  V30 2590 C 234.372 3.31367 -3.01496 0
M  V30 2591 C 236.116 4.03053 -1.33225 0
M  V30 2592 C 234.023 4.7072 -3.58017 0
M  V30 2593 H 232.953 0.682108 -0.321318 0
M  V30 2594 H 235.604 1.24618 -1.34694 0
M  V30 2595 H 233.986 3.84343 -0.953735 0
M  V30 2596 H 235.16 2.83819 -3.6302 0
M  V30 2597 H 233.475 2.6875 -3.18061 0
M  V30 2598 H 236.072 5.05981 -1.72878 0
M  V30 2599 H 236.415 4.15387 -0.275529 0
M  V30 2600 H 236.948 3.52066 -1.85188 0
M  V30 2601 H 233.687 4.63585 -4.63432 0
M  V30 2602 H 233.207 5.1865 -3.01268 0
M  V30 2603 H 234.886 5.39685 -3.56859 0
M  V30 2604 N 235.018 0.912232 1.28515 0
M  V30 2605 C 236.295 0.463597 1.90027 0
M  V30 2606 C 236.675 -1.05753 1.82701 0
M  V30 2607 O 236.023 -1.90492 1.26194 0
M  V30 2608 C 236.233 0.992253 3.34597 0
M  V30 2609 C 237.581 1.04344 4.11579 0
M  V30 2610 O 238.605 0.94079 3.43551 0
M  V30 2611 O 237.464 1.1995 5.33174 0
M  V30 2612 H 234.558 0.146666 0.813891 0
M  V30 2613 H 237.104 1.00292 1.36893 0
M  V30 2614 H 235.876 2.03623 3.34146 0
M  V30 2615 H 235.499 0.433672 3.95228 0
M  V30 2616 N 236.496 -1.42363 0.676048 0
M  V30 2617 C 237.443 -2.308 -0.00150904 0
M  V30 2618 C 238.413 -1.46032 -0.791444 0
M  V30 2619 O 239.598 -1.74861 -0.76344 0
M  V30 2620 C 236.738 -3.31883 -0.945919 0
M  V30 2621 C 235.851 -4.31741 -0.149675 0
M  V30 2622 C 234.986 -5.19898 -1.08995 0
M  V30 2623 C 234.025 -6.11434 -0.285465 0
M  V30 2624 N 233.162 -6.92138 -1.17851 0
M  V30 2625 H 238.002 -2.88187 0.758455 0
M  V30 2626 H 235.539 -1.41952 0.38576 0
M  V30 2627 H 237.497 -3.89019 -1.50731 0
M  V30 2628 H 236.127 -2.76093 -1.6725 0
M  V30 2629 H 235.179 -3.76713 0.528359 0
M  V30 2630 H 236.491 -4.96534 0.474866 0
M  V30 2631 H 235.645 -5.81772 -1.72123 0
M  V30 2632 H 234.384 -4.55284 -1.74837 0
M  V30 2633 H 233.389 -5.48627 0.359018 0
M  V30 2634 H 234.614 -6.78097 0.368883 0
M  V30 2635 H 232.56 -6.30152 -1.82332 0
M  V30 2636 H 232.477 -7.53542 -0.609082 0
M  V30 2637 H 233.745 -7.58499 -1.79722 0
M  V30 2638 N 237.974 -0.419461 -1.51915 0
M  V30 2639 C 238.937 0.389116 -2.25873 0
M  V30 2640 C 239.937 0.964924 -1.28631 0
M  V30 2641 O 241.127 0.842179 -1.52489 0
M  V30 2642 C 238.259 1.54874 -3.03689 0
M  V30 2643 H 239.452 -0.258799 -2.98781 0
M  V30 2644 H 237.005 -0.172209 -1.55348 0
M  V30 2645 H 237.74 2.23323 -2.35154 0
M  V30 2646 H 237.525 1.14223 -3.75094 0
M  V30 2647 H 239.015 2.12046 -3.59759 0
M  V30 2648 N 239.452 1.56882 -0.150215 0
M  V30 2649 C 240.385 2.12712 0.826358 0
M  V30 2650 C 241.363 1.05154 1.24022 0
M  V30 2651 O 242.547 1.33004 1.33575 0
M  V30 2652 C 239.674 2.64945 2.11002 0
M  V30 2653 C 238.72 3.8468 1.84183 0
M  V30 2654 S 239.553 5.25502 1.02995 0
M  V30 2655 C 240.709 5.81125 2.32474 0
M  V30 2656 H 240.942 2.95214 0.351598 0
M  V30 2657 H 238.475 1.54267 0.0641211 0
M  V30 2658 H 240.433 2.95689 2.84742 0
M  V30 2659 H 239.094 1.82568 2.55593 0
M  V30 2660 H 238.287 4.19482 2.79375 0
M  V30 2661 H 237.889 3.54714 1.1855 0
M  V30 2662 H 240.181 5.92753 3.281 0
M  V30 2663 H 241.124 6.78625 2.02171 0
M  V30 2664 H 241.532 5.09392 2.43269 0
M  V30 2665 N 240.93 -0.123565 1.57115 0
M  V30 2666 C 241.84 -1.17074 2.033 0
M  V30 2667 C 242.856 -1.4561 0.952559 0
M  V30 2668 O 244.032 -1.56817 1.26374 0
M  V30 2669 C 241.097 -2.47857 2.42421 0
M  V30 2670 C 240.158 -2.26758 3.64526 0
M  V30 2671 C 239.391 -3.51305 4.01771 0
M  V30 2672 O 239.614 -4.5843 3.39409 0
M  V30 2673 O 238.548 -3.42578 4.94898 0
M  V30 2674 H 242.374 -0.808555 2.92739 0
M  V30 2675 H 239.959 -0.334027 1.45618 0
M  V30 2676 H 241.841 -3.2492 2.68338 0
M  V30 2677 H 240.516 -2.83558 1.5613 0
M  V30 2678 H 239.423 -1.47569 3.43765 0
M  V30 2679 H 240.756 -1.95963 4.51508 0
M  V30 2680 N 242.408 -1.52605 -0.393616 0
M  V30 2681 C 243.648 -1.6911 -1.1481 0
M  V30 2682 C 244.012 -0.41969 -1.87357 0
M  V30 2683 O 245.213 -0.461034 -2.64817 0
M  V30 2684 C 243.484 -2.88909 -2.10395 0
M  V30 2685 S 245.043 -3.25977 -2.93742 0
M  V30 2686 H 241.861 -0.595337 -0.38871 0
M  V30 2687 H 244.463 -1.90641 -0.433178 0
M  V30 2688 H 243.167 -3.79672 -1.55812 0
M  V30 2689 H 242.698 -2.69698 -2.86403 0
M  V30 2690 H 244.713 -2.75806 -4.12487 0
M  V30 2691 N 243.887 0.651787 -1.4349 0
M  V30 2692 C 245.133 1.41376 -1.45398 0
M  V30 2693 C 245.466 1.94041 -0.0784823 0
M  V30 2694 O 244.741 1.72379 0.900878 0
M  V30 2695 C 245.024 2.59414 -2.49752 0
M  V30 2696 C 244.877 2.12232 -3.96582 0
M  V30 2697 C 246.196 3.61626 -2.50827 0
M  V30 2698 H 243.315 0.512719 -0.529422 0
M  V30 2699 H 245.957 0.738796 -1.75048 0
M  V30 2700 H 244.107 3.16997 -2.246 0
M  V30 2701 H 245.779 1.59639 -4.32797 0
M  V30 2702 H 244.022 1.43592 -4.09346 0
M  V30 2703 H 244.693 2.9712 -4.65214 0
M  V30 2704 H 247.169 3.13805 -2.7325 0
M  V30 2705 H 246.045 4.41766 -3.25783 0
M  V30 2706 H 246.306 4.14314 -1.5426 0
M  V30 2707 N 245.365 1.30045 0.890287 0
M  V30 2708 C 246.611 1.19747 1.64415 0
M  V30 2709 C 246.966 -0.246591 1.90813 0
M  V30 2710 O 246.259 -1.174 1.51419 0
M  V30 2711 C 246.453 1.95409 2.99249 0
M  V30 2712 C 246.282 3.47025 2.86013 0
M  V30 2713 C 245.052 4.1638 2.86279 0
M  V30 2714 C 247.25 4.42353 2.62351 0
M  V30 2715 N 245.232 5.54293 2.63879 0
M  V30 2716 C 246.603 5.67792 2.49022 0
M  V30 2717 C 248.658 4.32009 2.47533 0
M  V30 2718 C 247.361 6.8406 2.22383 0
M  V30 2719 C 249.387 5.48038 2.22279 0
M  V30 2720 C 248.749 6.72455 2.09722 0
M  V30 2721 H 244.848 0.493223 0.60684 0
M  V30 2722 H 247.432 1.6399 1.04954 0
M  V30 2723 H 245.603 1.53565 3.56752 0
M  V30 2724 H 247.335 1.77298 3.63796 0
M  V30 2725 H 244.09 3.68164 2.97913 0
M  V30 2726 H 244.514 6.26852 2.55706 0
M  V30 2727 H 249.156 3.36503 2.55979 0
M  V30 2728 H 246.874 7.79612 2.12675 0
M  V30 2729 H 250.46 5.41939 2.11643 0
M  V30 2730 H 249.34 7.60722 1.90453 0
M  V30 2731 N 246.843 -1.10192 1.12674 0
M  V30 2732 C 247.79 -2.16606 0.796906 0
M  V30 2733 C 248.76 -1.64394 -0.237476 0
M  V30 2734 O 249.945 -1.90474 -0.111484 0
M  V30 2735 C 247.085 -3.44116 0.26043 0
M  V30 2736 C 246.198 -4.10268 1.35293 0
M  V30 2737 C 245.333 -5.25507 0.775621 0
M  V30 2738 C 244.372 -5.83567 1.84706 0
M  V30 2739 N 243.509 -6.90179 1.28829 0
M  V30 2740 H 248.349 -2.44163 1.70846 0
M  V30 2741 H 245.886 -1.19846 0.85295 0
M  V30 2742 H 247.844 -4.17143 -0.0686814 0
M  V30 2743 H 246.474 -3.16901 -0.614274 0
M  V30 2744 H 245.526 -3.35184 1.79877 0
M  V30 2745 H 246.838 -4.4946 2.16303 0
M  V30 2746 H 245.992 -6.05398 0.397327 0
M  V30 2747 H 244.731 -4.87656 -0.0656581 0
M  V30 2748 H 243.736 -5.02344 2.23452 0
M  V30 2749 H 244.961 -6.23482 2.69161 0
M  V30 2750 H 242.907 -6.54322 0.468881 0
M  V30 2751 H 242.824 -7.28097 2.03497 0
M  V30 2752 H 244.092 -7.73844 0.937311 0
M  V30 2753 N 248.321 -0.919034 -1.28029 0
M  V30 2754 C 249.253 -0.368762 -2.26214 0
M  V30 2755 C 250.266 0.495716 -1.55069 0
M  V30 2756 O 251.455 0.30974 -1.75792 0
M  V30 2757 C 248.555 0.491049 -3.35324 0
M  V30 2758 C 247.728 -0.352133 -4.3598 0
M  V30 2759 C 246.787 0.443622 -5.24327 0
M  V30 2760 O 245.813 -0.14566 -5.69014 0
M  V30 2761 N 247.015 1.74545 -5.53637 0
M  V30 2762 H 249.78 -1.21273 -2.74068 0
M  V30 2763 H 247.341 -0.785541 -1.41566 0
M  V30 2764 H 249.333 1.03026 -3.91366 0
M  V30 2765 H 247.903 1.23574 -2.87138 0
M  V30 2766 H 247.123 -1.07269 -3.79324 0
M  V30 2767 H 248.411 -0.928883 -5.00249 0
M  V30 2768 H 247.809 2.24666 -5.19174 0
M  V30 2769 H 246.366 2.23138 -6.12416 0
M  V30 2770 N 249.799 1.42003 -0.683588 0
M  V30 2771 C 250.746 2.30798 -0.0107309 0
M  V30 2772 C 251.716 1.4645 0.783688 0
M  V30 2773 O 252.901 1.75263 0.754156 0
M  V30 2774 C 250.041 3.3238 0.928306 0
M  V30 2775 C 249.154 4.31814 0.126776 0
M  V30 2776 C 248.289 5.20468 1.06236 0
M  V30 2777 C 247.328 6.11577 0.253035 0
M  V30 2778 N 246.465 6.92754 1.14179 0
M  V30 2779 H 251.305 2.8778 -0.773727 0
M  V30 2780 H 248.842 1.41745 -0.393283 0
M  V30 2781 H 250.8 3.89813 1.48666 0
M  V30 2782 H 249.43 2.76976 1.65783 0
M  V30 2783 H 248.482 3.76427 -0.54833 0
M  V30 2784 H 249.794 4.96276 -0.501192 0
M  V30 2785 H 248.948 5.82677 1.69035 0
M  V30 2786 H 247.687 4.56204 1.7242 0
M  V30 2787 H 246.692 5.48428 -0.388108 0
M  V30 2788 H 247.917 6.77892 -0.404839 0
M  V30 2789 H 245.863 6.3111 1.78987 0
M  V30 2790 H 245.78 7.53855 0.569111 0
M  V30 2791 H 247.048 7.59441 1.75697 0
M  V30 2792 N 251.277 0.427512 1.51691 0
M  V30 2793 C 252.207 -0.3796 2.30394 0
M  V30 2794 C 253.188 -1.02982 1.35384 0
M  V30 2795 O 254.373 -1.03534 1.643 0
M  V30 2796 C 251.503 -1.48649 3.1388 0
M  V30 2797 C 250.457 -0.960294 4.17088 0
M  V30 2798 C 249.783 -2.16219 4.89033 0
M  V30 2799 C 251.083 -0.00153679 5.223 0
M  V30 2800 H 252.777 0.277164 2.98114 0
M  V30 2801 H 250.323 0.134739 1.43368 0
M  V30 2802 H 252.276 -2.05826 3.67714 0
M  V30 2803 H 251 -2.1714 2.43962 0
M  V30 2804 H 249.659 -0.410806 3.64291 0
M  V30 2805 H 249.307 -2.83307 4.15628 0
M  V30 2806 H 249.007 -1.81654 5.58816 0
M  V30 2807 H 250.531 -2.73968 5.45687 0
M  V30 2808 H 251.945 -0.482687 5.71264 0
M  V30 2809 H 250.342 0.256199 5.99553 0
M  V30 2810 H 251.412 0.938174 4.75738 0
M  V30 2811 N 252.755 -1.56801 0.158532 0
M  V30 2812 C 253.985 -2.00568 -0.495583 0
M  V30 2813 C 254.393 -1.03774 -1.58201 0
M  V30 2814 O 253.736 -0.0285797 -1.83678 0
M  V30 2815 C 253.798 -3.40768 -1.14532 0
M  V30 2816 C 253.462 -4.56553 -0.202101 0
M  V30 2817 C 254.459 -5.16714 0.574675 0
M  V30 2818 C 252.144 -5.02197 -0.101648 0
M  V30 2819 C 254.138 -6.20939 1.43924 0
M  V30 2820 C 251.825 -6.06274 0.766508 0
M  V30 2821 C 252.823 -6.65515 1.53555 0
M  V30 2822 O 252.511 -7.67575 2.38922 0
M  V30 2823 H 252.243 -0.662893 -0.13247 0
M  V30 2824 H 254.797 -2.03829 0.253559 0
M  V30 2825 H 253.027 -3.34381 -1.94233 0
M  V30 2826 H 254.716 -3.6857 -1.70033 0
M  V30 2827 H 255.482 -4.82341 0.507167 0
M  V30 2828 H 251.361 -4.55807 -0.689994 0
M  V30 2829 H 254.905 -6.67107 2.03996 0
M  V30 2830 H 250.802 -6.40073 0.835266 0
M  V30 2831 H 251.57 -7.84844 2.32296 0
M  V30 2832 N 254.233 0.115231 -1.57178 0
M  V30 2833 C 255.143 1.15994 -2.03918 0
M  V30 2834 C 256.159 1.45103 -0.960268 0
M  V30 2835 O 257.335 1.56144 -1.27204 0
M  V30 2836 C 254.4 2.46568 -2.43732 0
M  V30 2837 C 253.461 2.24822 -3.65723 0
M  V30 2838 C 252.694 3.4917 -4.03629 0
M  V30 2839 O 252.917 4.56623 -3.41835 0
M  V30 2840 O 251.851 3.39949 -4.96708 0
M  V30 2841 H 255.677 0.793019 -2.93164 0
M  V30 2842 H 253.262 0.3263 -1.45793 0
M  V30 2843 H 255.144 3.23492 -2.70057 0
M  V30 2844 H 253.819 2.82726 -1.57631 0
M  V30 2845 H 252.726 1.45744 -3.44542 0
M  V30 2846 H 254.059 1.93566 -4.52541 0
M  V30 2847 N 255.711 1.52812 0.385517 0
M  V30 2848 C 257.122 1.5993 0.963293 0
M  V30 2849 C 257.473 0.454302 1.90868 0
M  V30 2850 O 256.598 -0.422132 2.12243 0
M  V30 2851 C 257.193 2.89871 1.75387 0
M  V30 2852 C 255.752 2.99389 2.28129 0
M  V30 2853 C 254.899 2.55071 1.08783 0
M  V30 2854 H 257.85 1.5784 0.164948 0
M  V30 2855 H 257.871 2.76553 2.61341 0
M  V30 2856 H 257.383 3.73186 1.06554 0
M  V30 2857 H 255.484 2.20619 3.00263 0
M  V30 2858 H 255.597 4.04096 2.57377 0
M  V30 2859 H 253.961 2.09473 1.4489 0
M  V30 2860 H 254.744 3.40785 0.414807 0
M  V30 2861 N 257.189 -0.644168 1.43834 0
M  V30 2862 C 258.435 -1.40603 1.46146 0
M  V30 2863 C 258.768 -1.93997 0.0887717 0
M  V30 2864 O 258.043 -1.72854 -0.891724 0
M  V30 2865 C 258.326 -2.58086 2.51124 0
M  V30 2866 C 258.179 -2.10126 3.97702 0
M  V30 2867 C 259.498 -3.60291 2.52742 0
M  V30 2868 H 256.617 -0.509905 0.532134 0
M  V30 2869 H 259.259 -0.729502 1.75437 0
M  V30 2870 H 257.409 -3.15801 2.26278 0
M  V30 2871 H 259.081 -1.57342 4.33637 0
M  V30 2872 H 257.324 -1.41419 4.10101 0
M  V30 2873 H 257.995 -2.94649 4.66783 0
M  V30 2874 H 260.471 -3.12352 2.7491 0
M  V30 2875 H 259.347 -4.40032 3.28121 0
M  V30 2876 H 259.608 -4.1349 1.56455 0
M  V30 2877 N 258.668 -1.30515 -0.883378 0
M  V30 2878 C 259.914 -1.19607 -1.63774 0
M  V30 2879 C 260.247 0.248314 -1.92606 0
M  V30 2880 O 259.522 1.17742 -1.54813 0
M  V30 2881 C 259.805 -2.02669 -2.97653 0
M  V30 2882 C 259.658 -3.55335 -2.75784 0
M  V30 2883 C 260.977 -1.86573 -3.98596 0
M  V30 2884 H 258.096 -0.435856 -0.594305 0
M  V30 2885 H 260.738 -1.60165 -1.02212 0
M  V30 2886 H 258.888 -1.68208 -3.50197 0
M  V30 2887 H 260.56 -3.99863 -2.30016 0
M  V30 2888 H 258.803 -3.79438 -2.1026 0
M  V30 2889 H 259.474 -4.08745 -3.70988 0
M  V30 2890 H 261.95 -2.16703 -3.55217 0
M  V30 2891 H 260.826 -2.47014 -4.90179 0
M  V30 2892 H 261.087 -0.825321 -4.34328 0
M  V30 2893 N 260.146 1.09593 -1.13257 0
M  V30 2894 C 261.395 1.81105 -0.887917 0
M  V30 2895 C 261.708 1.86563 0.587672 0
M  V30 2896 O 262.914 2.54367 0.949204 0
M  V30 2897 C 261.37 3.25338 -1.53895 0
M  V30 2898 C 260.978 3.28151 -3.04994 0
M  V30 2899 C 262.722 4.01617 -1.37492 0
M  V30 2900 C 260.629 4.66897 -3.6299 0
M  V30 2901 H 259.559 0.678661 -0.328534 0
M  V30 2902 H 262.21 1.23183 -1.36008 0
M  V30 2903 H 260.592 3.8331 -0.994446 0
M  V30 2904 H 261.766 2.79953 -3.66009 0
M  V30 2905 H 260.081 2.65361 -3.20893 0
M  V30 2906 H 262.678 5.04119 -1.78235 0
M  V30 2907 H 263.021 4.15072 -0.31957 0
M  V30 2908 H 263.554 3.50082 -1.88912 0
M  V30 2909 H 260.293 4.58643 -4.68323 0
M  V30 2910 H 259.813 5.15426 -3.06752 0
M  V30 2911 H 261.492 5.3587 -3.62563 0
M  V30 2912 N 261.624 0.925811 1.2754 0
M  V30 2913 C 263.035 0.610102 1.7645 0
M  V30 2914 C 263.386 -0.874723 1.75622 0
M  V30 2915 O 262.511 -1.68444 1.35851 0
M  V30 2916 C 263.106 1.10073 3.20421 0
M  V30 2917 C 261.665 0.835723 3.67005 0
M  V30 2918 C 260.812 1.26054 2.46993 0
M  V30 2919 H 263.763 1.10579 1.13833 0
M  V30 2920 H 263.784 0.447557 3.77859 0
M  V30 2921 H 263.296 2.18143 3.20991 0
M  V30 2922 H 261.397 -0.231249 3.71882 0
M  V30 2923 H 261.51 1.45193 4.56569 0
M  V30 2924 H 259.874 0.679111 2.45479 0
M  V30 2925 H 260.657 2.34984 2.50275 0
M  V30 2926 N 263.102 -1.41638 0.69111 0
M  V30 2927 C 264.348 -2.01598 0.220519 0
M  V30 2928 C 264.681 -1.54594 -1.17535 0
M  V30 2929 O 263.956 -0.755177 -1.79241 0
M  V30 2930 C 264.239 -3.59062 0.273243 0
M  V30 2931 C 264.092 -4.16203 1.70573 0
M  V30 2932 C 265.411 -4.38546 -0.369457 0
M  V30 2933 H 262.53 -0.732468 0.0816045 0
M  V30 2934 H 265.172 -1.68445 0.878986 0
M  V30 2935 H 263.322 -3.87435 -0.287411 0
M  V30 2936 H 264.994 -3.98722 2.31989 0
M  V30 2937 H 263.237 -3.71414 2.2413 0
M  V30 2938 H 263.908 -5.25358 1.69419 0
M  V30 2939 H 266.384 -4.1596 0.107977 0
M  V30 2940 H 265.26 -5.48069 -0.302002 0
M  V30 2941 H 265.521 -4.17662 -1.44951 0
M  V30 2942 N 264.58 -0.43555 -1.51462 0
M  V30 2943 C 265.828 0.131254 -2.01673 0
M  V30 2944 C 266.149 1.43368 -1.32177 0
M  V30 2945 O 265.419 1.90524 -0.455769 0
M  V30 2946 H 263.999 0.0514954 -0.745223 0
M  V30 2947 H 266.661 -0.577847 -1.86137 0
M  V30 2948 H 265.757 0.308446 -3.10572 0
M  V30 2949 N 266.058 1.56714 -0.166846 0
M  V30 2950 C 267.005 2.17746 0.765193 0
M  V30 2951 C 267.975 1.11614 1.23011 0
M  V30 2952 O 269.16 1.39745 1.29908 0
M  V30 2953 C 266.3 2.81882 1.9909 0
M  V30 2954 C 265.413 4.02462 1.56997 0
M  V30 2955 C 264.548 4.54537 2.749 0
M  V30 2956 C 263.587 5.67538 2.29275 0
M  V30 2957 N 262.724 6.14142 3.40255 0
M  V30 2958 H 267.564 2.97048 0.237952 0
M  V30 2959 H 265.101 1.4672 0.105725 0
M  V30 2960 H 267.059 3.17221 2.70974 0
M  V30 2961 H 265.689 2.05191 2.49192 0
M  V30 2962 H 264.741 3.72973 0.748037 0
M  V30 2963 H 266.053 4.84273 1.19503 0
M  V30 2964 H 265.207 4.92035 3.54946 0
M  V30 2965 H 263.946 3.71774 3.1565 0
M  V30 2966 H 262.951 5.29597 1.47674 0
M  V30 2967 H 264.176 6.52099 1.89588 0
M  V30 2968 H 262.122 5.3431 3.8059 0
M  V30 2969 H 262.039 6.9093 3.06841 0
M  V30 2970 H 263.307 6.56289 4.206 0
M  V30 2971 N 267.536 -0.106894 1.57237 0
M  V30 2972 C 268.466 -1.13148 2.04254 0
M  V30 2973 C 269.447 -1.42476 0.929224 0
M  V30 2974 O 270.632 -1.52709 1.19973 0
M  V30 2975 C 267.762 -2.4545 2.45706 0
M  V30 2976 C 266.716 -2.30558 3.60592 0
M  V30 2977 C 266.042 -3.67931 3.87983 0
M  V30 2978 C 267.342 -1.75597 4.91897 0
M  V30 2979 H 269.036 -0.740374 2.90101 0
M  V30 2980 H 266.582 -0.354696 1.39563 0
M  V30 2981 H 268.535 -3.17389 2.77205 0
M  V30 2982 H 267.259 -2.86475 1.56843 0
M  V30 2983 H 265.918 -1.61067 3.29322 0
M  V30 2984 H 265.566 -4.06462 2.96306 0
M  V30 2985 H 265.266 -3.58817 4.65322 0
M  V30 2986 H 266.79 -4.41356 4.21945 0
M  V30 2987 H 268.204 -2.37364 5.21854 0
M  V30 2988 H 266.601 -1.77272 5.73319 0
M  V30 2989 H 267.671 -0.714451 4.79608 0
M  V30 2990 N 269.014 -1.53014 -0.377408 0
M  V30 2991 C 270.261 -1.68623 -1.12128 0
M  V30 2992 C 270.589 -0.431997 -1.89642 0
M  V30 2993 O 269.844 0.585855 -1.86725 0
M  V30 2994 C 270.143 -2.87982 -2.11663 0
M  V30 2995 C 269.809 -4.24964 -1.50719 0
M  V30 2996 C 268.471 -4.62217 -1.33825 0
M  V30 2997 C 270.823 -5.10199 -1.06519 0
M  V30 2998 C 268.151 -5.82352 -0.712963 0
M  V30 2999 C 270.503 -6.30969 -0.453955 0
M  V30 3000 C 269.167 -6.66944 -0.272411 0
M  V30 3001 H 268.437 -0.617034 -0.410305 0
M  V30 3002 H 271.084 -1.8718 -0.404484 0
M  V30 3003 H 269.389 -2.63889 -2.89603 0
M  V30 3004 H 271.086 -2.97253 -2.6915 0
M  V30 3005 H 267.676 -3.95626 -1.64858 0
M  V30 3006 H 271.86 -4.81978 -1.18368 0
M  V30 3007 H 267.116 -6.08824 -0.560611 0
M  V30 3008 H 271.29 -6.96324 -0.103217 0
M  V30 3009 H 268.917 -7.59898 0.214181 0
M  V30 3010 N 270.492 0.636531 -1.44174 0
M  V30 3011 C 271.908 0.954104 -1.27941 0
M  V30 3012 C 272.108 2.0039 -0.211248 0
M  V30 3013 O 271.164 2.49236 0.404695 0
M  V30 3014 C 272.477 1.4225 -2.64925 0
M  V30 3015 C 274.025 1.53827 -2.72592 0
M  V30 3016 C 274.5 2.04053 -4.10032 0
M  V30 3017 N 275.991 2.11331 -4.12182 0
M  V30 3018 C 276.726 2.51352 -5.15374 0
M  V30 3019 N 276.222 2.90549 -6.2893 0
M  V30 3020 N 278.015 2.51438 -5.02728 0
M  V30 3021 H 270.166 -0.0578386 -2.12321 0
M  V30 3022 H 272.429 0.0367406 -0.947288 0
M  V30 3023 H 272.135 0.725466 -3.44136 0
M  V30 3024 H 272.009 2.39451 -2.9145 0
M  V30 3025 H 274.396 2.22628 -1.93702 0
M  V30 3026 H 274.477 0.550154 -2.49814 0
M  V30 3027 H 274.121 1.35848 -4.89395 0
M  V30 3028 H 274.051 3.03726 -4.30184 0
M  V30 3029 H 276.542 1.83745 -3.30222 0
M  V30 3030 H 276.855 3.19884 -7.03487 0
M  V30 3031 H 275.2 2.88313 -6.32377 0
M  V30 3032 H 278.391 2.20203 -4.13072 0
M  V30 3033 H 278.564 2.82304 -5.83274 0
M  V30 3034 N 271.97 1.30982 0.876444 0
M  V30 3035 C 273.381 1.18277 1.44456 0
M  V30 3036 C 273.732 -0.213265 1.95037 0
M  V30 3037 O 272.857 -1.11057 1.85729 0
M  V30 3038 C 273.452 2.1411 2.62569 0
M  V30 3039 C 272.011 2.05358 3.15444 0
M  V30 3040 C 271.158 2.03706 1.88146 0
M  V30 3041 H 274.109 1.43127 0.685584 0
M  V30 3042 H 274.13 1.72692 3.39054 0
M  V30 3043 H 273.642 3.15706 2.25724 0
M  V30 3044 H 271.743 1.06934 3.56926 0
M  V30 3045 H 271.856 2.94156 3.78166 0
M  V30 3046 H 270.22 1.48629 2.06837 0
M  V30 3047 H 271.003 3.07047 1.53547 0
M  V30 3048 N 273.449 -1.08991 1.13837 0
M  V30 3049 C 274.397 -2.17841 0.815347 0
M  V30 3050 C 275.391 -1.68164 -0.204233 0
M  V30 3051 O 276.597 -1.79897 -0.0609304 0
M  V30 3052 H 272.972 -0.710654 0.245915 0
M  V30 3053 H 274.943 -2.42315 1.74143 0
M  V30 3054 C 273.692 -3.46381 0.302614 0
M  V30 3055 H 273.015 -3.84979 1.0785 0
M  V30 3056 H 274.455 -4.23844 0.115074 0
M  V30 3057 C 272.914 -3.22556 -0.972591 0
M  V30 3058 O 273.444 -3.45599 -2.04754 0
M  V30 3059 N 271.65 -2.76134 -0.905455 0
M  V30 3060 H 271.197 -2.57582 -0.0305421 0
M  V30 3061 H 271.155 -2.60571 -1.75926 0
M  V30 3062 N 274.927 -0.932562 -1.27047 0
M  V30 3063 C 275.837 -0.441219 -2.30414 0
M  V30 3064 C 276.853 0.480525 -1.67233 0
M  V30 3065 O 278.029 0.362151 -1.98117 0
M  V30 3066 C 275.094 0.293651 -3.45454 0
M  V30 3067 C 274.155 -0.663601 -4.2414 0
M  V30 3068 C 273.388 0.0362932 -5.33688 0
M  V30 3069 O 273.611 1.2548 -5.56427 0
M  V30 3070 O 272.545 -0.638015 -5.98509 0
M  V30 3071 H 276.371 -1.29962 -2.74488 0
M  V30 3072 H 273.956 -0.6981 -1.32087 0
M  V30 3073 H 275.838 0.707951 -4.15411 0
M  V30 3074 H 274.513 1.12758 -3.03426 0
M  V30 3075 H 273.42 -1.12768 -3.56699 0
M  V30 3076 H 274.753 -1.46489 -4.69896 0
M  V30 3077 N 276.405 1.4127 -0.698611 0
M  V30 3078 C 277.821 1.55241 -0.370462 0
M  V30 3079 C 278.021 1.67351 1.12231 0
M  V30 3080 O 277.077 1.65363 1.90818 0
M  V30 3081 C 278.39 2.78997 -1.12165 0
M  V30 3082 C 279.938 2.92797 -1.1063 0
M  V30 3083 C 280.413 4.19445 -1.8393 0
M  V30 3084 N 281.904 4.26409 -1.80914 0
M  V30 3085 C 282.639 5.23271 -2.34467 0
M  V30 3086 N 282.135 6.26145 -2.96504 0
M  V30 3087 N 283.928 5.15232 -2.24706 0
M  V30 3088 H 276.079 1.31654 -1.66676 0
M  V30 3089 H 278.342 0.635393 -0.703548 0
M  V30 3090 H 278.048 2.76268 -2.17644 0
M  V30 3091 H 277.922 3.70606 -0.702209 0
M  V30 3092 H 280.309 2.95039 -0.0597713 0
M  V30 3093 H 280.39 2.02353 -1.56483 0
M  V30 3094 H 280.034 4.17964 -2.88563 0
M  V30 3095 H 279.964 5.08866 -1.35509 0
M  V30 3096 H 282.455 3.527 -1.35687 0
M  V30 3097 H 282.768 6.96451 -3.34927 0
M  V30 3098 H 281.113 6.26638 -3.00583 0
M  V30 3099 H 284.304 4.33789 -1.7591 0
M  V30 3100 H 284.477 5.90552 -2.66745 0
M  V30 3101 N 277.883 0.443576 1.51229 0
M  V30 3102 C 278.815 -0.400608 2.25672 0
M  V30 3103 C 279.828 -0.980945 1.29928 0
M  V30 3104 O 281.017 -0.874024 1.55638 0
M  V30 3105 C 278.117 -1.57304 3.00181 0
M  V30 3106 C 277.29 -1.11046 4.23069 0
M  V30 3107 C 276.349 -2.15374 4.80105 0
M  V30 3108 O 275.375 -1.74554 5.41774 0
M  V30 3109 N 276.577 -3.47922 4.64683 0
M  V30 3110 H 279.342 0.23745 2.98758 0
M  V30 3111 H 276.903 0.272809 1.59585 0
M  V30 3112 H 278.895 -2.26733 3.35223 0
M  V30 3113 H 277.465 -2.11632 2.30066 0
M  V30 3114 H 276.685 -0.243019 3.9345 0
M  V30 3115 H 277.973 -0.778888 5.02803 0
M  V30 3116 H 277.371 -3.83815 4.15575 0
M  V30 3117 H 275.928 -4.13228 5.0407 0
M  V30 3118 N 279.361 -1.56624 0.175154 0
M  V30 3119 C 280.607 -1.9729 -0.469506 0
M  V30 3120 C 280.94 -1.06128 -1.62636 0
M  V30 3121 O 280.215 -0.109183 -1.94193 0
M  V30 3122 C 280.498 -3.47375 -0.948804 0
M  V30 3123 C 280.351 -4.49317 0.208491 0
M  V30 3124 C 281.67 -4.00652 -1.82116 0
M  V30 3125 H 278.789 -0.717317 -0.16919 0
M  V30 3126 H 281.431 -1.88184 0.262062 0
M  V30 3127 H 279.581 -3.55267 -1.57219 0
M  V30 3128 H 281.253 -4.53482 0.845682 0
M  V30 3129 H 279.496 -4.25121 0.863395 0
M  V30 3130 H 280.167 -5.51741 -0.169059 0
M  V30 3131 H 282.643 -3.95416 -1.2956 0
M  V30 3132 H 281.519 -5.06075 -2.12554 0
M  V30 3133 H 281.78 -3.44699 -2.7683 0
M  V30 3134 N 280.839 0.0985539 -1.57292 0
M  V30 3135 C 281.802 1.10402 -2.00858 0
M  V30 3136 C 282.802 1.33146 -0.901593 0
M  V30 3137 O 283.992 1.29318 -1.16716 0
M  V30 3138 C 281.124 2.45394 -2.36632 0
M  V30 3139 H 282.317 0.729099 -2.90902 0
M  V30 3140 H 279.87 0.343495 -1.52479 0
M  V30 3141 H 280.605 2.87769 -1.49531 0
M  V30 3142 H 280.39 2.30235 -3.17387 0
M  V30 3143 H 281.88 3.17718 -2.71007 0
M  V30 3144 N 282.317 1.53212 0.369288 0
M  V30 3145 C 283.249 1.75668 1.47219 0
M  V30 3146 C 284.262 0.637387 1.49804 0
M  V30 3147 O 285.451 0.913561 1.5335 0
M  V30 3148 C 282.551 1.81818 2.85999 0
M  V30 3149 C 281.724 3.11409 3.07153 0
M  V30 3150 C 280.783 3.08849 4.26026 0
M  V30 3151 O 279.809 3.82659 4.2138 0
M  V30 3152 N 281.011 2.29409 5.33246 0
M  V30 3153 H 283.776 2.70832 1.28337 0
M  V30 3154 H 281.337 1.51944 0.55898 0
M  V30 3155 H 283.329 1.77588 3.63655 0
M  V30 3156 H 281.899 0.939544 2.98146 0
M  V30 3157 H 281.119 3.28971 2.1719 0
M  V30 3158 H 282.407 3.97059 3.18154 0
M  V30 3159 H 281.805 1.68946 5.39883 0
M  V30 3160 H 280.362 2.31001 6.09493 0
M  V30 3161 N 283.795 -0.628877 1.44509 0
M  V30 3162 C 284.725 -1.75187 1.54376 0
M  V30 3163 C 285.706 -1.65411 0.396618 0
M  V30 3164 O 286.891 -1.84137 0.617031 0
M  V30 3165 C 284.021 -3.13725 1.48976 0
M  V30 3166 C 282.975 -3.38291 2.62189 0
M  V30 3167 C 282.301 -4.76883 2.41841 0
M  V30 3168 C 283.601 -3.30632 4.04326 0
M  V30 3169 H 285.295 -1.67187 2.48373 0
M  V30 3170 H 282.841 -0.802909 1.19538 0
M  V30 3171 H 284.794 -3.92064 1.54478 0
M  V30 3172 H 283.518 -3.22515 0.514961 0
M  V30 3173 H 282.177 -2.62334 2.56079 0
M  V30 3174 H 281.825 -4.82378 1.42548 0
M  V30 3175 H 281.525 -4.94278 3.17747 0
M  V30 3176 H 283.049 -5.57449 2.49165 0
M  V30 3177 H 284.463 -3.98873 4.11793 0
M  V30 3178 H 282.86 -3.59561 4.80454 0
M  V30 3179 H 283.93 -2.28404 4.27738 0
M  V30 3180 N 285.273 -1.31445 -0.869486 0
M  V30 3181 C 286.236 -1.19094 -1.9583 0
M  V30 3182 C 287.236 -0.117906 -1.60367 0
M  V30 3183 O 288.426 -0.367208 -1.70286 0
M  V30 3184 C 285.558 -0.828165 -3.30688 0
M  V30 3185 H 286.751 -2.15842 -2.08212 0
M  V30 3186 H 284.304 -1.15063 -1.05784 0
M  V30 3187 H 285.039 0.138142 -3.24006 0
M  V30 3188 H 284.824 -1.6038 -3.578 0
M  V30 3189 H 286.314 -0.765658 -4.10521 0
M  V30 3190 N 286.751 1.08385 -1.14413 0
M  V30 3191 C 287.698 2.15311 -0.831265 0
M  V30 3192 C 288.668 1.64751 0.211292 0
M  V30 3193 O 289.853 1.90627 0.0811674 0
M  V30 3194 C 286.993 3.43658 -0.315143 0
M  V30 3195 C 286.106 4.08064 -1.41802 0
M  V30 3196 C 285.241 5.24207 -0.859126 0
M  V30 3197 C 284.28 5.80554 -1.93967 0
M  V30 3198 N 283.417 6.88042 -1.39793 0
M  V30 3199 H 288.257 2.41415 -1.74708 0
M  V30 3200 H 285.794 1.18474 -0.871909 0
M  V30 3201 H 287.752 4.172 0.00230884 0
M  V30 3202 H 286.382 3.17839 0.56378 0
M  V30 3203 H 285.434 3.3228 -1.85187 0
M  V30 3204 H 286.746 4.45962 -2.23427 0
M  V30 3205 H 285.9 6.04689 -0.49359 0
M  V30 3206 H 284.639 4.87699 -0.011932 0
M  V30 3207 H 283.644 4.98725 -2.31415 0
M  V30 3208 H 284.869 6.19121 -2.79046 0
M  V30 3209 H 282.815 6.53493 -0.572919 0
M  V30 3210 H 282.732 7.24767 -2.15054 0
M  V30 3211 H 284 7.72255 -1.0603 0
M  V30 3212 N 288.23 0.939286 1.26551 0
M  V30 3213 C 289.177 0.446088 2.26448 0
M  V30 3214 C 290.147 -0.493234 1.58608 0
M  V30 3215 O 291.332 -0.409857 1.86346 0
M  V30 3216 C 288.472 -0.284375 3.43926 0
M  V30 3217 C 287.585 0.690399 4.26448 0
M  V30 3218 C 286.72 -0.0610712 5.31165 0
M  V30 3219 C 285.759 0.905649 6.05363 0
M  V30 3220 N 284.896 0.186055 7.01853 0
M  V30 3221 H 289.736 1.30291 2.68008 0
M  V30 3222 H 287.273 0.65371 1.31776 0
M  V30 3223 H 289.231 -0.724313 4.10864 0
M  V30 3224 H 287.861 -1.10535 3.03285 0
M  V30 3225 H 286.913 1.24885 3.59316 0
M  V30 3226 H 288.225 1.42873 4.779 0
M  V30 3227 H 287.379 -0.56038 6.04106 0
M  V30 3228 H 286.118 -0.832297 4.80546 0
M  V30 3229 H 285.123 1.4161 5.3125 0
M  V30 3230 H 286.348 1.67685 6.58072 0
M  V30 3231 H 284.294 -0.566714 6.53548 0
M  V30 3232 H 284.211 0.863752 7.51049 0
M  V30 3233 H 285.479 -0.292221 7.78952 0
M  V30 3234 N 289.708 -1.40897 0.706093 0
M  V30 3235 C 290.985 -1.94868 0.169099 0
M  V30 3236 C 291.365 -1.64485 -1.32318 0
M  V30 3237 O 290.713 -0.95744 -2.07474 0
M  V30 3238 C 290.923 -3.45798 0.471654 0
M  V30 3239 C 292.271 -4.22663 0.405127 0
M  V30 3240 O 293.295 -3.53865 0.407168 0
M  V30 3241 O 292.154 -5.45216 0.374383 0
M  V30 3242 H 289.248 -0.82673 0.0211352 0
M  V30 3243 H 291.794 -1.50558 0.782976 0
M  V30 3244 H 290.566 -3.61235 1.50416 0
M  V30 3245 H 290.189 -3.97225 -0.172666 0
M  V30 3246 N 291.186 -0.45159 -1.50991 0
M  V30 3247 C 292.416 0.108177 -2.06317 0
M  V30 3248 C 292.824 1.35774 -1.31765 0
M  V30 3249 O 292.167 1.79838 -0.374694 0
M  V30 3250 C 292.229 0.481659 -3.56259 0
M  V30 3251 C 291.893 -0.663114 -4.52163 0
M  V30 3252 C 292.89 -1.53947 -4.96585 0
M  V30 3253 C 290.575 -0.8479 -4.95092 0
M  V30 3254 C 292.569 -2.58518 -5.82621 0
M  V30 3255 C 290.256 -1.89686 -5.80915 0
M  V30 3256 C 291.254 -2.76388 -6.24579 0
M  V30 3257 O 290.942 -3.79482 -7.08695 0
M  V30 3258 H 290.674 0.00499183 -0.675982 0
M  V30 3259 H 293.228 -0.633659 -1.95381 0
M  V30 3260 H 291.458 1.27641 -3.65027 0
M  V30 3261 H 293.147 0.974233 -3.94035 0
M  V30 3262 H 293.913 -1.4083 -4.64103 0
M  V30 3263 H 289.792 -0.18258 -4.60638 0
M  V30 3264 H 293.336 -3.26224 -6.16623 0
M  V30 3265 H 289.233 -2.02817 -6.12809 0
M  V30 3266 H 290.001 -3.76234 -7.26905 0
M  V30 3267 N 292.664 1.56529 -0.183458 0
M  V30 3268 C 293.594 2.21549 0.737456 0
M  V30 3269 C 294.575 1.17489 1.23005 0
M  V30 3270 O 295.76 1.45959 1.281 0
M  V30 3271 C 292.89 2.86575 1.96194 0
M  V30 3272 C 291.844 3.96778 1.60473 0
M  V30 3273 C 291.17 4.48911 2.90487 0
M  V30 3274 C 292.47 5.15767 0.823497 0
M  V30 3275 H 294.164 2.98761 0.195453 0
M  V30 3276 H 291.71 1.43702 0.0925686 0
M  V30 3277 H 293.663 3.30739 2.61131 0
M  V30 3278 H 292.387 2.06749 2.52828 0
M  V30 3279 H 291.046 3.53286 0.978997 0
M  V30 3280 H 290.694 3.65862 3.45186 0
M  V30 3281 H 290.394 5.23265 2.67335 0
M  V30 3282 H 291.918 4.95771 3.56432 0
M  V30 3283 H 293.332 5.56549 1.37571 0
M  V30 3284 H 291.729 5.96114 0.690551 0
M  V30 3285 H 292.799 4.84574 -0.177782 0
M  V30 3286 N 294.142 -0.090211 1.57342 0
M  V30 3287 C 295.39 -0.791241 1.85967 0
M  V30 3288 C 295.711 -1.7903 0.772859 0
M  V30 3289 O 294.981 -1.94872 -0.200398 0
M  V30 3290 H 293.561 -0.295205 0.686195 0
M  V30 3291 H 296.223 -0.0706782 1.94772 0
M  V30 3292 H 295.319 -1.31882 2.82867 0
M  V30 3293 N 295.62 -1.53406 -0.361157 0
M  V30 3294 C 296.567 -1.80156 -1.44265 0
M  V30 3295 C 297.537 -0.646183 -1.53015 0
M  V30 3296 O 298.722 -0.888818 -1.68833 0
M  V30 3297 C 295.862 -2.00116 -2.81154 0
M  V30 3298 C 294.975 -3.27833 -2.81335 0
M  V30 3299 C 294.11 -3.37957 -4.09828 0
M  V30 3300 C 293.149 -4.59689 -4.04168 0
M  V30 3301 N 292.286 -4.66942 -5.24318 0
M  V30 3302 H 297.126 -2.72438 -1.20754 0
M  V30 3303 H 294.663 -1.34954 -0.585296 0
M  V30 3304 H 296.621 -2.09677 -3.60682 0
M  V30 3305 H 295.251 -1.11167 -3.03054 0
M  V30 3306 H 294.303 -3.27204 -1.94014 0
M  V30 3307 H 295.615 -4.17442 -2.73027 0
M  V30 3308 H 294.769 -3.46853 -4.97773 0
M  V30 3309 H 293.508 -2.46372 -4.20894 0
M  V30 3310 H 292.513 -4.50889 -3.14609 0
M  V30 3311 H 293.738 -5.5262 -3.947 0
M  V30 3312 H 291.684 -3.7826 -5.35962 0
M  V30 3313 H 291.601 -5.50462 -5.18197 0
M  V30 3314 H 292.869 -4.80127 -6.14084 0
M  V30 3315 N 297.098 0.621204 -1.44841 0
M  V30 3316 C 298.061 1.71459 -1.521 0
M  V30 3317 C 299.061 1.55696 -0.401933 0
M  V30 3318 O 300.251 1.61011 -0.664925 0
M  V30 3319 C 297.383 3.10624 -1.40447 0
M  V30 3320 H 298.576 1.66394 -2.49506 0
M  V30 3321 H 296.129 0.835745 -1.3208 0
M  V30 3322 H 296.864 3.21277 -0.441737 0
M  V30 3323 H 296.649 3.23473 -2.21602 0
M  V30 3324 H 298.139 3.90293 -1.4853 0
M  V30 3325 N 298.576 1.31904 0.862503 0
M  V30 3326 C 299.804 1.24998 1.64873 0
M  V30 3327 C 300.219 -0.183425 1.87907 0
M  V30 3328 O 299.576 -1.11794 1.44251 0
M  V30 3329 C 299.627 1.99829 3.01248 0
M  V30 3330 O 299.348 3.37575 2.79239 0
M  V30 3331 C 300.849 1.99852 3.95694 0
M  V30 3332 H 298.069 0.431599 0.513773 0
M  V30 3333 H 300.613 1.73901 1.07604 0
M  V30 3334 H 298.768 1.54668 3.55185 0
M  V30 3335 H 299.182 3.75776 3.65914 0
M  V30 3336 H 300.656 2.56709 4.88676 0
M  V30 3337 H 301.133 0.982852 4.28062 0
M  V30 3338 H 301.739 2.44926 3.47694 0
M  V30 3339 N 300.054 -1.07777 1.14986 0
M  V30 3340 C 301.3 -1.80557 0.923422 0
M  V30 3341 C 301.633 -1.86298 -0.548337 0
M  V30 3342 O 300.908 -1.34354 -1.40639 0
M  V30 3343 C 301.191 -3.25839 1.53299 0
M  V30 3344 C 301.044 -3.28269 3.07505 0
M  V30 3345 C 302.363 -4.22991 1.21518 0
M  V30 3346 H 299.482 -0.655493 0.336894 0
M  V30 3347 H 302.124 -1.26144 1.42083 0
M  V30 3348 H 300.274 -3.72306 1.10999 0
M  V30 3349 H 301.946 -2.90079 3.58681 0
M  V30 3350 H 300.189 -2.67355 3.4162 0
M  V30 3351 H 300.86 -4.30691 3.45266 0
M  V30 3352 H 303.336 -3.84894 1.581 0
M  V30 3353 H 302.212 -5.22945 1.66793 0
M  V30 3354 H 302.473 -4.41904 0.131505 0
M  V30 3355 N 301.532 -0.945985 -1.26051 0
M  V30 3356 C 302.778 -0.597002 -1.93814 0
M  V30 3357 C 303.111 0.862484 -1.73997 0
M  V30 3358 O 302.386 1.61769 -1.07986 0
M  V30 3359 C 302.669 -0.945937 -3.47454 0
M  V30 3360 C 302.522 -2.46052 -3.76535 0
M  V30 3361 C 303.841 -0.464785 -4.37639 0
M  V30 3362 H 300.96 -0.218366 -0.703907 0
M  V30 3363 H 303.602 -1.18107 -1.48831 0
M  V30 3364 H 301.752 -0.448902 -3.85898 0
M  V30 3365 H 303.424 -3.03065 -3.47778 0
M  V30 3366 H 301.667 -2.90194 -3.22444 0
M  V30 3367 H 302.338 -2.65517 -4.83947 0
M  V30 3368 H 304.814 -0.891016 -4.06448 0
M  V30 3369 H 303.69 -0.737712 -5.4392 0
M  V30 3370 H 303.951 0.635274 -4.37512 0
M  V30 3371 N 303.011 1.40521 -0.713556 0
M  V30 3372 C 303.974 2.29098 -0.0684347 0
M  V30 3373 C 304.974 1.45268 0.689472 0
M  V30 3374 O 306.164 1.66205 0.521677 0
M  V30 3375 C 303.296 3.28446 0.913024 0
M  V30 3376 H 304.489 2.87645 -0.84855 0
M  V30 3377 H 302.042 1.48809 -0.47809 0
M  V30 3378 H 302.777 2.74913 1.72027 0
M  V30 3379 H 302.562 3.90327 0.372472 0
M  V30 3380 H 304.052 3.94777 1.36165 0
M  V30 3381 N 304.489 0.459591 1.5075 0
M  V30 3382 C 305.714 -0.0996819 2.0716 0
M  V30 3383 C 306.139 -1.33761 1.32249 0
M  V30 3384 O 305.497 -1.77551 0.366786 0
M  V30 3385 C 305.545 -0.378226 3.58611 0
M  V30 3386 O 304.649 -1.46081 3.85661 0
M  V30 3387 H 303.99 0.00791392 0.663953 0
M  V30 3388 H 306.52 0.647329 1.9409 0
M  V30 3389 H 306.53 -0.622135 4.03229 0
M  V30 3390 H 305.205 0.526439 4.12555 0
M  V30 3391 H 303.782 -1.20511 3.5289 0
M  V30 3392 N 305.967 -1.56429 0.191757 0
M  V30 3393 C 307.213 -1.97777 -0.448554 0
M  V30 3394 C 307.546 -1.07847 -1.61501 0
M  V30 3395 O 306.821 -0.129774 -1.94067 0
M  V30 3396 C 307.104 -3.48362 -0.911906 0
M  V30 3397 C 306.957 -4.4907 0.256136 0
M  V30 3398 C 308.276 -4.02561 -1.77857 0
M  V30 3399 H 305.395 -0.719071 -0.161572 0
M  V30 3400 H 308.037 -1.87896 0.282007 0
M  V30 3401 H 306.187 -3.56914 -1.53442 0
M  V30 3402 H 307.859 -4.5256 0.893733 0
M  V30 3403 H 306.102 -4.24181 0.908436 0
M  V30 3404 H 306.773 -5.51889 -0.11053 0
M  V30 3405 H 309.249 -3.96767 -1.25359 0
M  V30 3406 H 308.125 -5.08301 -2.07174 0
M  V30 3407 H 308.386 -3.47616 -2.73158 0
M  V30 3408 N 307.445 0.0818655 -1.57387 0
M  V30 3409 C 308.691 0.784074 -1.8703 0
M  V30 3410 C 309.024 1.77729 -0.782689 0
M  V30 3411 O 308.299 1.93384 0.208051 0
M  V30 3412 C 308.582 1.50105 -3.27323 0
M  V30 3413 C 308.435 0.524925 -4.46727 0
M  V30 3414 C 309.754 2.44843 -3.65705 0
M  V30 3415 H 306.873 0.283582 -0.680257 0
M  V30 3416 H 309.515 0.0474352 -1.89941 0
M  V30 3417 H 307.665 2.12897 -3.24972 0
M  V30 3418 H 309.337 -0.0970111 -4.61198 0
M  V30 3419 H 307.58 -0.160606 -4.33503 0
M  V30 3420 H 308.251 1.064 -5.41648 0
M  V30 3421 H 310.727 1.92135 -3.69085 0
M  V30 3422 H 309.603 2.92018 -4.64776 0
M  V30 3423 H 309.864 3.29197 -2.95096 0
M  V30 3424 N 308.923 1.53595 0.353017 0
M  V30 3425 C 310.2 1.61002 1.11075 0
M  V30 3426 C 310.58 0.425356 2.0677 0
M  V30 3427 O 309.928 -0.583267 2.2093 0
M  V30 3428 C 310.138 2.96631 1.83877 0
M  V30 3429 C 311.486 3.51653 2.37961 0
M  V30 3430 O 312.51 2.98743 1.93987 0
M  V30 3431 O 311.369 4.44177 3.18386 0
M  V30 3432 H 308.463 0.650825 0.510251 0
M  V30 3433 H 311.009 1.6594 0.35527 0
M  V30 3434 H 309.781 3.74293 1.14108 0
M  V30 3435 H 309.404 2.95242 2.66304 0
M  V30 3436 N 310.401 -0.613514 1.45168 0
M  V30 3437 C 311.333 -1.73825 1.4939 0
M  V30 3438 C 312.346 -1.58175 0.385304 0
M  V30 3439 O 313.535 -1.66165 0.652036 0
M  V30 3440 C 310.635 -3.11758 1.32891 0
M  V30 3441 C 309.808 -3.53704 2.57317 0
M  V30 3442 C 308.867 -4.70579 2.35462 0
M  V30 3443 O 307.893 -4.77996 3.09044 0
M  V30 3444 N 309.095 -5.63454 1.39644 0
M  V30 3445 H 311.86 -1.70669 2.46358 0
M  V30 3446 H 309.421 -0.79862 1.40832 0
M  V30 3447 H 311.413 -3.87692 1.1609 0
M  V30 3448 H 309.983 -3.09456 0.442218 0
M  V30 3449 H 309.203 -2.67794 2.89275 0
M  V30 3450 H 310.491 -3.78486 3.40038 0
M  V30 3451 H 309.889 -5.6017 0.789062 0
M  V30 3452 H 308.446 -6.38944 1.28816 0
M  V30 3453 N 311.879 -1.3236 -0.855495 0
M  V30 3454 C 313.156 -1.13491 -1.59309 0
M  V30 3455 C 313.536 0.30503 -2.08885 0
M  V30 3456 O 312.884 1.30151 -1.87811 0
M  V30 3457 C 313.094 -2.16176 -2.73987 0
M  V30 3458 C 314.442 -2.49463 -3.43589 0
M  V30 3459 O 315.466 -2.14715 -2.84211 0
M  V30 3460 O 314.325 -3.09027 -4.50738 0
M  V30 3461 H 311.419 -0.437887 -0.701559 0
M  V30 3462 H 313.965 -1.43887 -0.899696 0
M  V30 3463 H 312.737 -3.1297 -2.34873 0
M  V30 3464 H 312.36 -1.86769 -3.51003 0
M  V30 3465 N 313.357 1.07166 -1.15556 0
M  V30 3466 C 314.582 1.84053 -0.955988 0
M  V30 3467 C 315.007 1.81586 0.490739 0
M  V30 3468 O 314.365 1.21018 1.34997 0
M  V30 3469 C 314.413 3.28957 -1.47714 0
M  V30 3470 O 313.517 4.06795 -0.677593 0
M  V30 3471 H 312.858 0.569842 -0.340847 0
M  V30 3472 H 315.388 1.35178 -1.53584 0
M  V30 3473 H 315.398 3.79788 -1.4908 0
M  V30 3474 H 314.073 3.30068 -2.53037 0
M  V30 3475 H 312.65 3.6561 -0.733721 0
M  V30 3476 N 314.835 0.952656 1.25548 0
M  V30 3477 C 316.082 0.606373 1.93208 0
M  V30 3478 C 316.41 -0.85631 1.74636 0
M  V30 3479 O 315.665 -1.62951 1.08376 0
M  V30 3480 C 315.964 0.908818 3.45652 0
M  V30 3481 C 315.63 2.35722 3.84378 0
M  V30 3482 C 314.292 2.75312 3.9466 0
M  V30 3483 C 316.644 3.29793 4.03591 0
M  V30 3484 C 313.972 4.08047 4.21562 0
M  V30 3485 C 316.324 4.62138 4.31985 0
M  V30 3486 C 314.988 5.01528 4.40484 0
M  V30 3487 H 314.258 0.221888 0.706998 0
M  V30 3488 H 316.905 1.20132 1.49133 0
M  V30 3489 H 315.21 0.231456 3.91116 0
M  V30 3490 H 316.907 0.619498 3.96186 0
M  V30 3491 H 313.497 2.04017 3.76928 0
M  V30 3492 H 317.681 3.00397 3.95064 0
M  V30 3493 H 312.937 4.38212 4.26357 0
M  V30 3494 H 317.111 5.35012 4.45797 0
M  V30 3495 H 314.738 6.04406 4.61083 0
M  V30 3496 N 316.313 -1.40141 0.720998 0
M  V30 3497 C 317.538 -2.05618 0.271258 0
M  V30 3498 C 317.963 -1.53978 -1.08039 0
M  V30 3499 O 317.321 -0.677463 -1.68167 0
M  V30 3500 C 317.369 -3.59609 0.267197 0
M  V30 3501 O 316.473 -4.05526 -0.749814 0
M  V30 3502 H 315.814 -0.651904 0.126162 0
M  V30 3503 H 318.344 -1.79439 0.982997 0
M  V30 3504 H 318.354 -4.0786 0.106744 0
M  V30 3505 H 317.029 -3.96559 1.25354 0
M  V30 3506 H 315.606 -3.68722 -0.556644 0
M  V30 3507 N 317.792 -0.46758 -1.50504 0
M  V30 3508 C 319.04 0.0884469 -2.01906 0
M  V30 3509 C 319.361 1.40532 -1.35188 0
M  V30 3510 O 318.631 1.89515 -0.496079 0
M  V30 3511 H 317.211 0.0356765 -0.746148 0
M  V30 3512 H 319.873 -0.6172 -1.84869 0
M  V30 3513 H 318.969 0.2425 -3.11156 0
M  V30 3514 N 319.27 1.56325 -0.20005 0
M  V30 3515 C 320.517 1.97719 0.437411 0
M  V30 3516 C 320.845 1.08709 1.61284 0
M  V30 3517 O 320.1 0.127261 1.95286 0
M  V30 3518 C 320.399 3.4495 0.935103 0
M  V30 3519 C 320.065 4.5072 -0.12749 0
M  V30 3520 C 318.727 4.79368 -0.419451 0
M  V30 3521 C 321.079 5.14268 -0.847231 0
M  V30 3522 C 318.407 5.68854 -1.43604 0
M  V30 3523 C 320.759 6.04852 -1.85301 0
M  V30 3524 C 319.423 6.31855 -2.15211 0
M  V30 3525 H 318.693 0.723507 0.16006 0
M  V30 3526 H 321.34 1.89166 -0.298056 0
M  V30 3527 H 319.645 3.50599 1.74894 0
M  V30 3528 H 321.342 3.74337 1.43781 0
M  V30 3529 H 317.932 4.28458 0.11023 0
M  V30 3530 H 322.116 4.92222 -0.634901 0
M  V30 3531 H 317.372 5.88047 -1.67364 0
M  V30 3532 H 321.546 6.53152 -2.41591 0
M  V30 3533 H 319.173 7.00994 -2.94129 0
M  V30 3534 N 320.748 -0.0735177 1.57428 0
M  V30 3535 C 321.711 -1.07192 2.02589 0
M  V30 3536 C 322.711 -1.31695 0.922661 0
M  V30 3537 O 323.901 -1.27445 1.18758 0
M  V30 3538 C 321.033 -2.41599 2.40506 0
M  V30 3539 H 322.226 -0.682727 2.92025 0
M  V30 3540 H 319.779 -0.319193 1.53006 0
M  V30 3541 H 320.514 -2.85354 1.5409 0
M  V30 3542 H 320.299 -2.25156 3.21009 0
M  V30 3543 H 321.789 -3.13367 2.76027 0
M  V30 3544 N 322.226 -1.5378 -0.344866 0
M  V30 3545 C 323.637 -1.62428 -0.920552 0
M  V30 3546 C 323.988 -0.504747 -1.89596 0
M  V30 3547 O 323.113 0.365711 -2.13287 0
M  V30 3548 C 323.708 -2.94419 -1.67639 0
M  V30 3549 C 322.267 -3.05333 -2.20111 0
M  V30 3550 C 321.414 -2.57866 -1.01982 0
M  V30 3551 H 324.365 -1.58222 -0.123042 0
M  V30 3552 H 324.386 -2.83384 -2.53917 0
M  V30 3553 H 323.898 -3.7588 -0.966224 0
M  V30 3554 H 321.999 -2.28502 -2.94308 0
M  V30 3555 H 322.112 -4.10778 -2.46573 0
M  V30 3556 H 320.476 -2.13241 -1.39285 0
M  V30 3557 H 321.259 -3.41765 -0.324308 0
M  V30 3558 N 323.704 0.605807 -1.45491 0
M  V30 3559 C 324.634 1.72709 -1.57143 0
M  V30 3560 C 325.615 1.6476 -0.422884 0
M  V30 3561 O 326.8 1.83132 -0.646247 0
M  V30 3562 C 323.93 3.11316 -1.53948 0
M  V30 3563 C 322.884 3.34077 -2.67537 0
M  V30 3564 C 322.21 4.72975 -2.49397 0
M  V30 3565 C 323.51 3.24158 -4.09535 0
M  V30 3566 H 325.204 1.63214 -2.51001 0
M  V30 3567 H 322.75 0.78379 -1.208 0
M  V30 3568 H 324.703 3.89557 -1.60696 0
M  V30 3569 H 323.427 3.21655 -0.566205 0
M  V30 3570 H 322.086 2.58227 -2.6022 0
M  V30 3571 H 321.734 4.8005 -1.50205 0
M  V30 3572 H 321.434 4.8916 -3.25571 0
M  V30 3573 H 322.958 5.53414 -2.58002 0
M  V30 3574 H 324.372 3.92271 -4.18086 0
M  V30 3575 H 322.769 3.51872 -4.86113 0
M  V30 3576 H 323.839 2.2157 -4.31317 0
M  V30 3577 N 325.182 1.32811 0.848464 0
M  V30 3578 C 326.114 1.18095 1.96433 0
M  V30 3579 C 327.127 0.114354 1.62398 0
M  V30 3580 O 328.316 0.363892 1.74751 0
M  V30 3581 C 325.416 0.786798 3.2964 0
M  V30 3582 C 324.589 1.943 3.91875 0
M  V30 3583 C 323.648 1.53138 5.03423 0
M  V30 3584 O 322.674 2.24432 5.23086 0
M  V30 3585 N 323.876 0.430915 5.78898 0
M  V30 3586 H 326.641 2.14218 2.09597 0
M  V30 3587 H 324.202 1.2543 1.02367 0
M  V30 3588 H 326.194 0.493715 4.01677 0
M  V30 3589 H 324.764 -0.0834541 3.12489 0
M  V30 3590 H 323.984 2.40224 3.12547 0
M  V30 3591 H 325.272 2.71689 4.30189 0
M  V30 3592 H 324.67 -0.162333 5.65467 0
M  V30 3593 H 323.227 0.197466 6.51501 0
M  V30 3594 N 326.66 -1.06551 1.16123 0
M  V30 3595 C 328.071 -1.60768 0.949232 0
M  V30 3596 C 328.422 -1.89523 -0.507508 0
M  V30 3597 O 327.547 -1.66671 -1.38021 0
M  V30 3598 C 328.142 -2.92086 1.71671 0
M  V30 3599 C 326.701 -3.43015 1.54977 0
M  V30 3600 C 325.848 -2.16947 1.72711 0
M  V30 3601 H 328.799 -0.895354 1.31031 0
M  V30 3602 H 328.82 -3.6138 1.19099 0
M  V30 3603 H 328.332 -2.71127 2.7769 0
M  V30 3604 H 326.433 -3.69039 0.513873 0
M  V30 3605 H 326.546 -4.18516 2.33198 0
M  V30 3606 H 324.91 -2.27041 1.15431 0
M  V30 3607 H 325.693 -1.98473 2.80113 0
M  V30 3608 N 328.138 -0.959301 -1.25041 0
M  V30 3609 C 329.07 -0.440543 -2.24926 0
M  V30 3610 C 330.083 0.446131 -1.56568 0
M  V30 3611 O 331.272 0.253657 -1.76689 0
M  V30 3612 C 328.372 0.38412 -3.36716 0
M  V30 3613 C 327.545 -0.490658 -4.34639 0
M  V30 3614 C 326.604 0.276587 -5.25473 0
M  V30 3615 O 325.63 -0.326614 -5.68262 0
M  V30 3616 N 326.832 1.56844 -5.5891 0
M  V30 3617 H 329.597 -1.29931 -2.70071 0
M  V30 3618 H 327.158 -0.830181 -1.38995 0
M  V30 3619 H 329.15 0.905228 -3.94446 0
M  V30 3620 H 327.72 1.14377 -2.90924 0
M  V30 3621 H 326.94 -1.19282 -3.7572 0
M  V30 3622 H 328.228 -1.08756 -4.97041 0
M  V30 3623 H 327.626 2.08036 -5.26059 0
M  V30 3624 H 326.183 2.03541 -6.19205 0
M  V30 3625 N 329.616 1.39756 -0.72842 0
M  V30 3626 C 330.579 2.29012 -0.0927297 0
M  V30 3627 C 331.579 1.45992 0.674025 0
M  V30 3628 O 332.769 1.66749 0.50402 0
M  V30 3629 C 329.901 3.29396 0.878137 0
M  V30 3630 H 331.094 2.86729 -0.879011 0
M  V30 3631 H 328.647 1.48293 -0.493847 0
M  V30 3632 H 329.382 2.76722 1.69101 0
M  V30 3633 H 329.167 3.907 0.331051 0
M  V30 3634 H 330.657 3.96199 1.3197 0
M  V30 3635 N 331.094 0.475555 1.50254 0
M  V30 3636 C 332.057 -0.305016 2.27161 0
M  V30 3637 C 333.057 -0.916519 1.32123 0
M  V30 3638 O 334.247 -0.785003 1.5551 0
M  V30 3639 C 331.379 -1.43496 3.09227 0
M  V30 3640 H 332.572 0.369511 2.97615 0
M  V30 3641 H 330.125 0.229747 1.54602 0
M  V30 3642 H 330.86 -2.14441 2.43281 0
M  V30 3643 H 330.645 -1.00223 3.79075 0
M  V30 3644 H 332.135 -1.98548 3.67381 0
M  V30 3645 N 332.573 -1.56217 0.208337 0
M  V30 3646 C 333.483 -2.23316 -0.718836 0
M  V30 3647 C 334.499 -1.23648 -1.22422 0
M  V30 3648 O 335.675 -1.56423 -1.26861 0
M  V30 3649 C 332.74 -2.88968 -1.91568 0
M  V30 3650 C 331.801 -4.03943 -1.45357 0
M  V30 3651 C 331.034 -4.66455 -2.59337 0
M  V30 3652 O 331.257 -4.27919 -3.77149 0
M  V30 3653 O 330.191 -5.55686 -2.31293 0
M  V30 3654 H 334.017 -3.03182 -0.177315 0
M  V30 3655 H 331.602 -1.49384 -0.0215402 0
M  V30 3656 H 333.484 -3.30455 -2.61491 0
M  V30 3657 H 332.159 -2.12071 -2.44556 0
M  V30 3658 H 331.066 -3.67052 -0.722746 0
M  V30 3659 H 332.399 -4.82543 -0.970219 0
M  V30 3660 N 334.051 0.0651679 -1.57465 0
M  V30 3661 C 335.462 0.616213 -1.76238 0
M  V30 3662 C 335.813 1.7756 -0.834689 0
M  V30 3663 O 334.938 2.1639 -0.0204156 0
M  V30 3664 C 335.533 1.12462 -3.1959 0
M  V30 3665 C 334.092 1.62147 -3.39684 0
M  V30 3666 C 333.239 0.543739 -2.71917 0
M  V30 3667 H 336.19 -0.161022 -1.57881 0
M  V30 3668 H 336.211 1.99324 -3.24114 0
M  V30 3669 H 335.723 0.280592 -3.87084 0
M  V30 3670 H 333.824 2.48854 -2.77313 0
M  V30 3671 H 333.937 1.69385 -4.48158 0
M  V30 3672 H 332.301 0.990352 -2.34657 0
M  V30 3673 H 333.084 -0.290216 -3.42071 0
M  V30 3674 N 335.529 1.53961 0.336706 0
M  V30 3675 C 336.94 1.62914 0.911925 0
M  V30 3676 C 337.291 0.514795 1.89326 0
M  V30 3677 O 336.416 -0.354395 2.13478 0
M  V30 3678 C 337.011 2.95304 1.66076 0
M  V30 3679 C 335.57 3.06496 2.18489 0
M  V30 3680 C 334.717 2.58403 1.00613 0
M  V30 3681 H 337.668 1.58285 0.114649 0
M  V30 3682 H 337.689 2.84727 2.5241 0
M  V30 3683 H 337.201 3.76387 0.946276 0
M  V30 3684 H 335.302 2.3006 2.93092 0
M  V30 3685 H 335.415 4.1208 2.44391 0
M  V30 3686 H 333.779 2.13977 1.38152 0
M  V30 3687 H 334.562 3.41932 0.306179 0
M  V30 3688 N 337.007 -0.598083 1.45811 0
M  V30 3689 C 338.418 -1.18011 1.44673 0
M  V30 3690 C 338.769 -1.95378 0.179364 0
M  V30 3691 O 337.894 -2.04124 -0.718509 0
M  V30 3692 C 338.489 -2.14677 2.62105 0
M  V30 3693 C 337.048 -2.68236 2.64057 0
M  V30 3694 C 336.195 -1.43816 2.37091 0
M  V30 3695 H 339.146 -0.38686 1.53913 0
M  V30 3696 H 339.167 -2.97878 2.36746 0
M  V30 3697 H 338.679 -1.5834 3.5433 0
M  V30 3698 H 336.78 -3.28486 1.75864 0
M  V30 3699 H 336.893 -3.12021 3.63566 0
M  V30 3700 H 335.257 -1.731 1.86838 0
M  V30 3701 H 336.04 -0.893333 3.31473 0
M  V30 3702 N 338.485 -1.33259 -0.841409 0
M  V30 3703 C 339.901 -1.12538 -1.13169 0
M  V30 3704 C 340.101 0.0854037 -2.01319 0
M  V30 3705 O 339.157 0.766417 -2.40587 0
M  V30 3706 C 340.47 -2.41156 -1.79623 0
M  V30 3707 C 342.018 -2.47038 -1.922 0
M  V30 3708 C 342.493 -3.7561 -2.6207 0
M  V30 3709 N 343.984 -3.76667 -2.69585 0
M  V30 3710 C 344.719 -4.72861 -3.2433 0
M  V30 3711 N 344.215 -5.79428 -3.79783 0
M  V30 3712 N 346.008 -4.6034 -3.22558 0
M  V30 3713 H 338.159 -2.10868 -0.254676 0
M  V30 3714 H 340.422 -0.931615 -0.175493 0
M  V30 3715 H 340.128 -3.29747 -1.22311 0
M  V30 3716 H 340.002 -2.53114 -2.79666 0
M  V30 3717 H 342.389 -1.58898 -2.48667 0
M  V30 3718 H 342.47 -2.39022 -0.911148 0
M  V30 3719 H 342.114 -4.64131 -2.06263 0
M  V30 3720 H 342.044 -3.80902 -3.63622 0
M  V30 3721 H 344.535 -2.99648 -2.30259 0
M  V30 3722 H 344.848 -6.48867 -4.19752 0
M  V30 3723 H 343.193 -5.83166 -3.78078 0
M  V30 3724 H 346.384 -3.76244 -2.78492 0
M  V30 3725 H 346.557 -5.35478 -3.64921 0
M  V30 3726 N 339.963 1.05934 -1.16686 0
M  V30 3727 C 341.374 1.60263 -0.957745 0
M  V30 3728 C 341.725 1.89789 0.49745 0
M  V30 3729 O 340.85 1.67401 1.37135 0
M  V30 3730 C 341.445 2.91172 -1.73218 0
M  V30 3731 C 340.004 3.42188 -1.56794 0
M  V30 3732 C 339.151 2.16028 -1.73859 0
M  V30 3733 H 342.102 0.888392 -1.31504 0
M  V30 3734 H 342.123 3.60744 -1.21014 0
M  V30 3735 H 341.635 2.6965 -2.79124 0
M  V30 3736 H 339.736 3.68762 -0.533437 0
M  V30 3737 H 339.849 4.17273 -2.35414 0
M  V30 3738 H 338.213 2.26426 -1.16633 0
M  V30 3739 H 338.996 1.96985 -2.81161 0
M  V30 3740 N 341.441 0.965919 1.2453 0
M  V30 3741 C 342.388 0.49402 2.25451 0
M  V30 3742 C 343.358 -0.45948 1.59618 0
M  V30 3743 O 344.543 -0.370238 1.87173 0
M  V30 3744 C 341.683 -0.211359 3.44452 0
M  V30 3745 C 340.796 0.7807 4.24887 0
M  V30 3746 C 339.931 0.0516105 5.31175 0
M  V30 3747 C 338.97 1.03385 6.03306 0
M  V30 3748 N 338.107 0.334887 7.01301 0
M  V30 3749 H 342.947 1.35946 2.65184 0
M  V30 3750 H 340.484 0.681515 1.3036 0
M  V30 3751 H 342.442 -0.637 4.12308 0
M  V30 3752 H 341.072 -1.04077 3.05562 0
M  V30 3753 H 340.124 1.32479 3.56586 0
M  V30 3754 H 341.436 1.52978 4.74762 0
M  V30 3755 H 340.59 -0.432114 6.05159 0
M  V30 3756 H 339.329 -0.730179 4.82203 0
M  V30 3757 H 338.334 1.52847 5.28127 0
M  V30 3758 H 339.559 1.81606 6.54367 0
M  V30 3759 H 337.505 -0.427959 6.54603 0
M  V30 3760 H 337.422 1.02287 7.49048 0
M  V30 3761 H 338.69 -0.126928 7.79397 0
M  V30 3762 N 342.919 -1.39368 0.735821 0
M  V30 3763 C 344.147 -2.04795 0.294393 0
M  V30 3764 C 344.562 -1.55478 -1.07107 0
M  V30 3765 O 343.919 -0.720038 -1.67695 0
M  V30 3766 C 343.97 -3.6035 0.288071 0
M  V30 3767 O 343.691 -4.07852 1.59963 0
M  V30 3768 C 345.192 -4.42976 -0.169422 0
M  V30 3769 H 342.412 -0.658571 0.128551 0
M  V30 3770 H 344.956 -1.78399 0.999701 0
M  V30 3771 H 343.111 -3.85645 -0.368355 0
M  V30 3772 H 343.525 -5.02181 1.51375 0
M  V30 3773 H 344.999 -5.51864 -0.122687 0
M  V30 3774 H 345.476 -4.22068 -1.21472 0
M  V30 3775 H 346.082 -4.22832 0.457469 0
M  V30 3776 N 344.397 -0.483516 -1.5 0
M  V30 3777 C 345.808 -0.0314176 -1.86674 0
M  V30 3778 C 346.159 1.37728 -1.39733 0
M  V30 3779 O 345.284 2.02327 -0.767635 0
M  V30 3780 C 345.879 -0.0502376 -3.38763 0
M  V30 3781 C 344.438 0.346442 -3.74802 0
M  V30 3782 C 343.585 -0.430366 -2.7394 0
M  V30 3783 H 346.536 -0.697182 -1.42566 0
M  V30 3784 H 346.557 0.749116 -3.73053 0
M  V30 3785 H 346.069 -1.07563 -3.72897 0
M  V30 3786 H 344.17 1.37572 -3.46273 0
M  V30 3787 H 344.283 0.0391486 -4.79084 0
M  V30 3788 H 342.647 0.117557 -2.54429 0
M  V30 3789 H 343.43 -1.4555 -3.10918 0
M  V30 3790 N 345.875 1.56104 -0.216619 0
M  V30 3791 C 346.785 2.23694 0.706982 0
M  V30 3792 C 347.801 1.24295 1.21765 0
M  V30 3793 O 348.977 1.57094 1.2603 0
M  V30 3794 C 346.042 2.8998 1.90033 0
M  V30 3795 C 345.103 4.04708 1.43213 0
M  V30 3796 C 344.336 4.67824 2.56859 0
M  V30 3797 O 344.559 4.29913 3.74874 0
M  V30 3798 O 343.493 5.56905 2.28343 0
M  V30 3799 H 347.319 3.03272 0.161235 0
M  V30 3800 H 344.904 1.49394 0.0136177 0
M  V30 3801 H 346.786 3.31837 2.59735 0
M  V30 3802 H 345.461 2.13365 2.43428 0
M  V30 3803 H 344.368 3.6743 0.70327 0
M  V30 3804 H 345.701 4.83051 0.944615 0
M  V30 3805 N 347.353 -0.0568162 1.57498 0
M  V30 3806 C 348.602 -0.752001 1.87157 0
M  V30 3807 C 348.915 -1.77978 0.811375 0
M  V30 3808 O 350.121 -2.52559 0.996293 0
M  V30 3809 C 348.577 -1.38844 3.3204 0
M  V30 3810 C 348.185 -0.398456 4.46225 0
M  V30 3811 C 349.929 -2.06512 3.70882 0
M  V30 3812 C 347.836 -1.04166 5.82154 0
M  V30 3813 H 346.766 -0.28461 0.698222 0
M  V30 3814 H 349.417 -0.00561272 1.83499 0
M  V30 3815 H 347.799 -2.1836 3.30356 0
M  V30 3816 H 348.973 0.367977 4.59328 0
M  V30 3817 H 347.288 0.174592 4.16034 0
M  V30 3818 H 349.885 -2.55437 4.6974 0
M  V30 3819 H 350.228 -2.87117 3.01445 0
M  V30 3820 H 350.761 -1.33808 3.7462 0
M  V30 3821 H 347.5 -0.275614 6.5492 0
M  V30 3822 H 347.02 -1.7786 5.72823 0
M  V30 3823 H 348.699 -1.55715 6.27982 0
M  V30 3824 N 348.832 -1.54138 -0.328536 0
M  V30 3825 C 350.079 -1.72105 -1.06706 0
M  V30 3826 C 350.407 -0.492111 -1.88171 0
M  V30 3827 O 349.662 0.526153 -1.88494 0
M  V30 3828 C 349.961 -2.9457 -2.02393 0
M  V30 3829 C 349.627 -4.29544 -1.37122 0
M  V30 3830 C 348.289 -4.6624 -1.19052 0
M  V30 3831 C 350.641 -5.1333 -0.902331 0
M  V30 3832 C 347.969 -5.84325 -0.527331 0
M  V30 3833 C 350.321 -6.32094 -0.252988 0
M  V30 3834 C 348.985 -6.67473 -0.0600901 0
M  V30 3835 H 348.255 -0.629775 -0.390466 0
M  V30 3836 H 350.902 -1.88372 -0.34473 0
M  V30 3837 H 349.207 -2.72969 -2.81061 0
M  V30 3838 H 350.904 -3.05665 -2.59557 0
M  V30 3839 H 347.494 -4.0067 -1.52188 0
M  V30 3840 H 351.678 -4.855 -1.02974 0
M  V30 3841 H 346.934 -6.103 -0.366634 0
M  V30 3842 H 351.108 -6.96299 0.118366 0
M  V30 3843 H 348.735 -7.58832 0.455828 0
M  V30 3844 N 350.31 0.590341 -1.46126 0
M  V30 3845 C 351.726 0.912917 -1.30912 0
M  V30 3846 C 351.926 1.99616 -0.274893 0
M  V30 3847 O 350.982 2.50397 0.325197 0
M  V30 3848 C 352.295 1.3375 -2.69317 0
M  V30 3849 C 353.843 1.45077 -2.77348 0
M  V30 3850 C 354.318 1.90904 -4.16317 0
M  V30 3851 N 355.809 1.9811 -4.18696 0
M  V30 3852 C 356.544 2.34828 -5.23109 0
M  V30 3853 N 356.04 2.70393 -6.37856 0
M  V30 3854 N 357.833 2.35317 -5.10473 0
M  V30 3855 H 349.984 -0.125358 -2.1203 0
M  V30 3856 H 352.247 0.00658481 -0.947977 0
M  V30 3857 H 351.953 0.615614 -3.4627 0
M  V30 3858 H 351.827 2.30058 -2.9892 0
M  V30 3859 H 354.214 2.16353 -2.00687 0
M  V30 3860 H 354.295 0.4704 -2.51438 0
M  V30 3861 H 353.939 1.20209 -4.9347 0
M  V30 3862 H 353.869 2.89886 -4.39629 0
M  V30 3863 H 356.36 1.73146 -3.359 0
M  V30 3864 H 356.673 2.97341 -7.13308 0
M  V30 3865 H 355.018 2.68048 -6.41229 0
M  V30 3866 H 358.209 2.0695 -4.19868 0
M  V30 3867 H 358.382 2.63605 -5.9196 0
M  V30 3868 N 351.788 1.33704 0.83433 0
M  V30 3869 C 352.751 1.24244 1.92603 0
M  V30 3870 C 353.751 0.160383 1.59998 0
M  V30 3871 O 354.941 0.412228 1.69252 0
M  V30 3872 C 352.073 0.91555 3.28376 0
M  V30 3873 H 353.266 2.21287 2.02416 0
M  V30 3874 H 350.819 1.17827 1.02696 0
M  V30 3875 H 351.554 -0.0521886 3.24258 0
M  V30 3876 H 351.339 1.69811 3.53422 0
M  V30 3877 H 352.829 0.874231 4.08347 0
M  V30 3878 N 353.266 -1.05314 1.17247 0
M  V30 3879 C 354.196 -2.1498 0.911362 0
M  V30 3880 C 355.177 -1.69471 -0.146169 0
M  V30 3881 O 356.362 -1.942 0.003812 0
M  V30 3882 C 353.492 -3.4472 0.422528 0
M  V30 3883 C 352.446 -4.03789 1.4191 0
M  V30 3884 C 351.772 -5.28858 0.788274 0
M  V30 3885 C 353.072 -4.41418 2.7919 0
M  V30 3886 H 354.766 -2.3708 1.82848 0
M  V30 3887 H 352.312 -1.13938 0.880569 0
M  V30 3888 H 354.265 -4.20787 0.227289 0
M  V30 3889 H 352.989 -3.22269 -0.530123 0
M  V30 3890 H 351.648 -3.2979 1.60106 0
M  V30 3891 H 351.296 -5.02709 -0.171173 0
M  V30 3892 H 350.996 -5.69338 1.45353 0
M  V30 3893 H 352.52 -6.07612 0.603282 0
M  V30 3894 H 353.934 -5.08524 2.64719 0
M  V30 3895 H 352.331 -4.92913 3.42282 0
M  V30 3896 H 353.401 -3.51819 3.33693 0
M  V30 3897 N 354.744 -0.972509 -1.24016 0
M  V30 3898 C 355.654 -0.5143 -2.28893 0
M  V30 3899 C 356.67 0.427078 -1.68677 0
M  V30 3900 O 357.846 0.298939 -1.99169 0
M  V30 3901 C 354.911 0.183598 -3.46214 0
M  V30 3902 C 353.972 -0.798202 -4.21814 0
M  V30 3903 C 353.205 -0.133514 -5.33533 0
M  V30 3904 O 353.428 1.07714 -5.60137 0
M  V30 3905 O 352.362 -0.828103 -5.96176 0
M  V30 3906 H 356.188 -1.38629 -2.70214 0
M  V30 3907 H 353.773 -0.739769 -1.29799 0
M  V30 3908 H 355.655 0.575433 -4.17453 0
M  V30 3909 H 354.33 1.03048 -3.0686 0
M  V30 3910 H 353.237 -1.24059 -3.52931 0
M  V30 3911 H 354.57 -1.61364 -4.64997 0
M  V30 3912 N 356.222 1.38976 -0.743202 0
M  V30 3913 C 357.47 1.99948 -0.29417 0
M  V30 3914 C 357.791 1.59279 1.12495 0
M  V30 3915 O 357.061 0.844808 1.76748 0
M  V30 3916 H 355.641 0.739473 -0.105774 0
M  V30 3917 H 358.303 1.699 -0.954986 0
M  V30 3918 H 357.399 3.10142 -0.349056 0
M  V30 3919 N 357.7 0.491464 1.49741 0
M  V30 3920 C 358.61 -0.296835 2.32715 0
M  V30 3921 C 359.626 -0.976536 1.44013 0
M  V30 3922 O 360.802 -0.960023 1.77047 0
M  V30 3923 C 357.867 -1.35288 3.19215 0
M  V30 3924 C 356.928 -0.687632 4.23757 0
M  V30 3925 C 356.161 -1.69336 5.06123 0
M  V30 3926 O 356.384 -2.92219 4.89861 0
M  V30 3927 O 355.318 -1.25394 5.88693 0
M  V30 3928 H 359.144 0.382048 3.01287 0
M  V30 3929 H 356.729 0.252953 1.47243 0
M  V30 3930 H 358.611 -1.96411 3.72828 0
M  V30 3931 H 357.286 -2.01487 2.53347 0
M  V30 3932 H 356.193 -0.0369159 3.74082 0
M  V30 3933 H 357.526 -0.0682566 4.92153 0
M  V30 3934 N 359.178 -1.55987 0.224894 0
M  V30 3935 C 360.141 -2.19178 -0.670348 0
M  V30 3936 C 361.141 -1.15461 -1.11917 0
M  V30 3937 O 362.331 -1.40675 -1.02743 0
M  V30 3938 C 359.463 -2.81777 -1.9187 0
M  V30 3939 H 360.656 -2.99662 -0.119364 0
M  V30 3940 H 358.209 -1.5628 -0.0247128 0
M  V30 3941 H 358.944 -2.05172 -2.51147 0
M  V30 3942 H 358.729 -3.57732 -1.60531 0
M  V30 3943 H 360.219 -3.30205 -2.55645 0
M  V30 3944 N 360.656 0.0484629 -1.57525 0
M  V30 3945 C 361.606 1.06246 -2.01732 0
M  V30 3946 C 362.59 1.33155 -0.903245 0
M  V30 3947 O 363.782 1.33065 -1.16717 0
M  V30 3948 C 360.911 2.36943 -2.48421 0
M  V30 3949 C 359.997 2.13208 -3.6661 0
M  V30 3950 N 360.388 1.5947 -4.80003 0
M  V30 3951 C 358.686 2.43581 -3.7361 0
M  V30 3952 C 359.387 1.51092 -5.61735 0
M  V30 3953 N 358.363 1.9797 -5.0627 0
M  V30 3954 H 362.165 0.640675 -2.86832 0
M  V30 3955 H 359.679 0.255134 -1.60383 0
M  V30 3956 H 361.676 3.10374 -2.78341 0
M  V30 3957 H 360.336 2.79818 -1.64718 0
M  V30 3958 H 361.347 1.28008 -5.01831 0
M  V30 3959 H 358.024 2.89662 -3.00669 0
M  V30 3960 H 359.414 1.10199 -6.62801 0
M  V30 3961 N 362.134 1.5431 0.320358 0
M  V30 3962 C 363.55 1.45091 0.664889 0
M  V30 3963 C 363.75 0.626382 1.91517 0
M  V30 3964 O 362.806 0.126443 2.52183 0
M  V30 3965 C 364.119 2.88848 0.83591 0
M  V30 3966 C 365.667 2.9877 0.933046 0
M  V30 3967 C 366.142 4.43683 1.13621 0
M  V30 3968 N 367.633 4.47309 1.20287 0
M  V30 3969 C 368.368 5.56595 1.37801 0
M  V30 3970 N 367.864 6.75844 1.52338 0
M  V30 3971 N 369.657 5.44248 1.40535 0
M  V30 3972 H 361.808 2.06398 -0.501374 0
M  V30 3973 H 364.071 0.933963 -0.162534 0
M  V30 3974 H 363.777 3.51698 -0.0116092 0
M  V30 3975 H 363.651 3.35148 1.73078 0
M  V30 3976 H 366.038 2.36045 1.77107 0
M  V30 3977 H 366.119 2.55796 0.0145782 0
M  V30 3978 H 365.763 5.06995 0.303032 0
M  V30 3979 H 365.693 4.84269 2.0686 0
M  V30 3980 H 368.184 3.61388 1.10485 0
M  V30 3981 H 368.497 7.54892 1.65403 0
M  V30 3982 H 366.842 6.78746 1.4943 0
M  V30 3983 H 370.033 4.50038 1.28777 0
M  V30 3984 H 370.206 6.29473 1.53842 0
M  V30 3985 N 363.613 -0.582584 1.46437 0
M  V30 3986 C 364.859 -1.34278 1.51978 0
M  V30 3987 C 365.192 -1.93446 0.170973 0
M  V30 3988 O 364.467 -1.76481 -0.817608 0
M  V30 3989 C 364.75 -2.47203 2.61845 0
M  V30 3990 C 364.603 -1.93069 4.06257 0
M  V30 3991 C 365.922 -3.49247 2.67795 0
M  V30 3992 H 363.041 -0.486876 0.553282 0
M  V30 3993 H 365.683 -0.654437 1.78374 0
M  V30 3994 H 363.833 -3.0592 2.39469 0
M  V30 3995 H 365.505 -1.38808 4.3992 0
M  V30 3996 H 363.748 -1.23898 4.1573 0
M  V30 3997 H 364.419 -2.74586 4.7886 0
M  V30 3998 H 366.895 -3.00411 2.8791 0
M  V30 3999 H 365.771 -4.25719 3.46489 0
M  V30 4000 H 366.032 -4.06482 1.73852 0
M  V30 4001 N 365.091 -1.34144 -0.827227 0
M  V30 4002 C 366.021 -1.28005 -1.95287 0
M  V30 4003 C 367.002 -0.158321 -1.69362 0
M  V30 4004 O 368.187 -0.349987 -1.9102 0
M  V30 4005 C 365.317 -1.03036 -3.31664 0
M  V30 4006 C 364.271 -2.11628 -3.72019 0
M  V30 4007 C 363.597 -1.71854 -5.0633 0
M  V30 4008 C 364.897 -3.53417 -3.8457 0
M  V30 4009 H 366.591 -2.22187 -2.00682 0
M  V30 4010 H 364.137 -1.0696 -0.964135 0
M  V30 4011 H 366.09 -0.973863 -4.09993 0
M  V30 4012 H 364.814 -0.0529391 -3.26557 0
M  V30 4013 H 363.473 -2.16339 -2.95961 0
M  V30 4014 H 363.121 -0.727841 -4.97706 0
M  V30 4015 H 362.821 -2.44531 -5.34302 0
M  V30 4016 H 364.345 -1.67692 -5.87122 0
M  V30 4017 H 365.759 -3.51142 -4.5318 0
M  V30 4018 H 364.156 -4.24679 -4.2399 0
M  V30 4019 H 365.226 -3.91072 -2.86689 0
M  V30 4020 N 366.569 1.04691 -1.17803 0
M  V30 4021 C 367.816 1.77782 -0.969532 0
M  V30 4022 C 368.144 1.87926 0.501401 0
M  V30 4023 O 367.399 1.37918 1.38842 0
M  V30 4024 C 367.698 3.21467 -1.56186 0
M  V30 4025 C 367.364 3.3137 -3.05786 0
M  V30 4026 C 366.026 3.3378 -3.46619 0
M  V30 4027 C 368.378 3.31976 -4.01797 0
M  V30 4028 C 365.706 3.34431 -4.82051 0
M  V30 4029 C 368.058 3.34167 -5.37136 0
M  V30 4030 C 366.722 3.34866 -5.77426 0
M  V30 4031 H 365.992 0.650549 -0.354777 0
M  V30 4032 H 368.639 1.23006 -1.46772 0
M  V30 4033 H 366.944 3.79203 -0.985515 0
M  V30 4034 H 368.641 3.76652 -1.37602 0
M  V30 4035 H 365.231 3.3021 -2.73238 0
M  V30 4036 H 369.415 3.29311 -3.71306 0
M  V30 4037 H 364.671 3.33285 -5.12573 0
M  V30 4038 H 368.845 3.33585 -6.11305 0
M  V30 4039 H 366.472 3.35124 -6.82346 0
M  V30 4040 N 368.047 0.979072 1.23499 0
M  V30 4041 C 369.295 0.645941 1.91499 0
M  V30 4042 C 369.616 -0.822948 1.76784 0
M  V30 4043 O 368.886 -1.58854 1.14639 0
M  V30 4044 H 367.466 0.235919 0.708767 0
M  V30 4045 H 370.128 1.2426 1.50152 0
M  V30 4046 H 369.224 0.896411 2.9895 0
M  V30 4047 N 369.525 -1.3858 0.750561 0
M  V30 4048 C 370.772 -2.00184 0.305373 0
M  V30 4049 C 371.1 -1.59575 -1.11203 0
M  V30 4050 O 370.355 -0.823236 -1.77542 0
M  V30 4051 C 370.654 -3.55455 0.372373 0
M  V30 4052 C 370.32 -4.15765 1.745 0
M  V30 4053 C 368.982 -4.31951 2.12065 0
M  V30 4054 C 371.334 -4.49067 2.64553 0
M  V30 4055 C 368.662 -4.78734 3.39162 0
M  V30 4056 C 371.014 -4.97265 3.91038 0
M  V30 4057 C 369.678 -5.11658 4.28676 0
M  V30 4058 H 368.948 -0.732526 0.111744 0
M  V30 4059 H 371.595 -1.65673 0.960451 0
M  V30 4060 H 369.9 -3.90084 -0.366272 0
M  V30 4061 H 371.597 -4.00999 0.00953918 0
M  V30 4062 H 368.187 -4.03579 1.44297 0
M  V30 4063 H 372.371 -4.36166 2.36796 0
M  V30 4064 H 367.627 -4.88062 3.68246 0
M  V30 4065 H 371.801 -5.22003 4.60962 0
M  V30 4066 H 369.428 -5.47668 5.27222 0
M  V30 4067 N 371.003 -0.499398 -1.49478 0
M  V30 4068 C 372.249 0.0457576 -2.02748 0
M  V30 4069 C 372.582 1.36793 -1.37846 0
M  V30 4070 O 371.857 1.87596 -0.513601 0
M  V30 4071 C 372.14 0.199986 -3.59544 0
M  V30 4072 C 371.993 -1.1452 -4.34977 0
M  V30 4073 C 373.312 0.94137 -4.29914 0
M  V30 4074 H 370.431 0.0151552 -0.736844 0
M  V30 4075 H 373.073 -0.650498 -1.78518 0
M  V30 4076 H 371.223 0.793007 -3.8032 0
M  V30 4077 H 372.895 -1.77697 -4.25701 0
M  V30 4078 H 371.138 -1.73488 -3.97598 0
M  V30 4079 H 371.809 -0.990607 -5.43039 0
M  V30 4080 H 374.285 0.43844 -4.13784 0
M  V30 4081 H 373.161 1.01812 -5.39375 0
M  V30 4082 H 373.422 1.98471 -3.95046 0
M  V30 4083 N 372.481 1.55866 -0.233164 0
M  V30 4084 C 373.892 1.847 0.272554 0
M  V30 4085 C 374.243 1.15477 1.58617 0
M  V30 4086 O 373.368 0.42841 2.12117 0
M  V30 4087 C 373.963 3.35071 0.501299 0
M  V30 4088 C 372.522 3.6418 0.951304 0
M  V30 4089 C 371.669 2.77292 0.0208209 0
M  V30 4090 H 374.62 1.52005 -0.456074 0
M  V30 4091 H 374.641 3.55906 1.34577 0
M  V30 4092 H 374.153 3.85424 -0.454936 0
M  V30 4093 H 372.254 3.19293 1.92049 0
M  V30 4094 H 372.367 4.72071 0.817675 0
M  V30 4095 H 370.731 2.49131 0.529723 0
M  V30 4096 H 371.514 3.30448 -0.93054 0
M  V30 4097 N 373.959 -0.0401083 1.57549 0
M  V30 4098 C 374.869 -1.06133 2.0922 0
M  V30 4099 C 375.885 -1.40356 1.0284 0
M  V30 4100 O 377.061 -1.49897 1.34509 0
M  V30 4101 C 374.126 -2.34658 2.55218 0
M  V30 4102 C 373.187 -2.07117 3.76033 0
M  V30 4103 C 372.42 -3.29514 4.19829 0
M  V30 4104 O 372.643 -4.39794 3.63232 0
M  V30 4105 O 371.577 -3.15863 5.12362 0
M  V30 4106 H 375.403 -0.652244 2.96613 0
M  V30 4107 H 372.988 -0.256368 1.47184 0
M  V30 4108 H 374.87 -3.10239 2.85184 0
M  V30 4109 H 373.545 -2.74883 1.70941 0
M  V30 4110 H 372.452 -1.29139 3.51104 0
M  V30 4111 H 373.785 -1.71754 4.61261 0
M  V30 4112 N 375.437 -1.54477 -0.31217 0
M  V30 4113 C 376.665 -1.77205 -1.068 0
M  V30 4114 C 377.08 -0.526114 -1.81321 0
M  V30 4115 O 376.437 0.503647 -1.75413 0
M  V30 4116 C 376.488 -2.97253 -2.05725 0
M  V30 4117 O 376.209 -4.1703 -1.34228 0
M  V30 4118 C 377.71 -3.32281 -2.93435 0
M  V30 4119 H 374.93 -0.591287 -0.317208 0
M  V30 4120 H 377.474 -2.01398 -0.354834 0
M  V30 4121 H 375.629 -2.753 -2.72559 0
M  V30 4122 H 376.043 -4.84636 -2.00571 0
M  V30 4123 H 377.517 -4.19551 -3.58721 0
M  V30 4124 H 377.994 -2.49945 -3.61143 0
M  V30 4125 H 378.6 -3.56353 -2.32147 0
M  V30 4126 N 376.915 0.57481 -1.46744 0
M  V30 4127 C 377.862 1.68329 -1.57905 0
M  V30 4128 C 378.832 1.60625 -0.422927 0
M  V30 4129 O 380.017 1.79721 -0.640711 0
M  V30 4130 C 377.157 3.06665 -1.58274 0
M  V30 4131 C 376.27 3.24935 -2.84678 0
M  V30 4132 C 375.405 4.53566 -2.76499 0
M  V30 4133 C 374.444 4.65207 -3.97806 0
M  V30 4134 N 373.581 5.85172 -3.87967 0
M  V30 4135 H 378.421 1.58127 -2.52587 0
M  V30 4136 H 375.958 0.770552 -1.25303 0
M  V30 4137 H 377.916 3.86745 -1.56473 0
M  V30 4138 H 376.546 3.15745 -0.671194 0
M  V30 4139 H 375.598 2.38405 -2.96424 0
M  V30 4140 H 376.91 3.29403 -3.7456 0
M  V30 4141 H 376.064 5.41885 -2.72848 0
M  V30 4142 H 374.803 4.51548 -1.8427 0
M  V30 4143 H 373.808 3.75304 -4.0178 0
M  V30 4144 H 375.033 4.68997 -4.9114 0
M  V30 4145 H 372.979 5.84137 -2.98529 0
M  V30 4146 H 372.896 5.90943 -4.71511 0
M  V30 4147 H 374.164 6.759 -3.88303 0
M  V30 4148 N 378.394 1.34581 0.820102 0
M  V30 4149 C 379.304 1.28471 1.96297 0
M  V30 4150 C 380.32 0.191902 1.72939 0
M  V30 4151 O 381.496 0.418879 1.96996 0
M  V30 4152 C 378.561 1.04281 3.30645 0
M  V30 4153 C 377.622 2.22745 3.66992 0
M  V30 4154 C 376.855 1.997 4.9493 0
M  V30 4155 O 377.078 0.956656 5.6232 0
M  V30 4156 O 376.012 2.86723 5.2922 0
M  V30 4157 H 379.838 2.24624 2.04396 0
M  V30 4158 H 377.423 1.14816 0.955913 0
M  V30 4159 H 379.305 0.925841 4.11104 0
M  V30 4160 H 377.98 0.111697 3.23507 0
M  V30 4161 H 376.887 2.40003 2.86966 0
M  V30 4162 H 378.22 3.14257 3.78819 0
M  V30 4163 N 379.872 -1.04064 1.18357 0
M  V30 4164 C 380.782 -2.15569 0.925596 0
M  V30 4165 C 381.798 -1.7365 -0.110295 0
M  V30 4166 O 382.974 -2.01273 0.0716218 0
M  V30 4167 C 380.039 -3.43704 0.454836 0
M  V30 4168 C 379.1 -4.00004 1.55869 0
M  V30 4169 C 378.333 -5.22023 1.1103 0
M  V30 4170 O 378.556 -5.70392 -0.0309756 0
M  V30 4171 O 377.49 -5.70856 1.90805 0
M  V30 4172 H 381.316 -2.40187 1.8586 0
M  V30 4173 H 378.901 -1.1402 0.965394 0
M  V30 4174 H 380.783 -4.20923 0.200382 0
M  V30 4175 H 379.458 -3.20559 -0.449876 0
M  V30 4176 H 378.365 -3.24172 1.86716 0
M  V30 4177 H 379.698 -4.2749 2.43953 0
M  V30 4178 N 381.35 -0.985608 -1.22978 0
M  V30 4179 C 382.28 -0.549649 -2.26939 0
M  V30 4180 C 383.261 0.419803 -1.64838 0
M  V30 4181 O 384.446 0.31203 -1.91677 0
M  V30 4182 C 381.576 0.143652 -3.47003 0
M  V30 4183 C 380.53 -0.743606 -4.21491 0
M  V30 4184 C 379.856 0.0822027 -5.34637 0
M  V30 4185 C 381.156 -2.03694 -4.80943 0
M  V30 4186 H 382.85 -1.41862 -2.63658 0
M  V30 4187 H 380.396 -0.683571 -1.26741 0
M  V30 4188 H 382.349 0.459985 -4.18882 0
M  V30 4189 H 381.073 1.04711 -3.09359 0
M  V30 4190 H 379.732 -1.04347 -3.51436 0
M  V30 4191 H 379.38 0.986359 -4.93234 0
M  V30 4192 H 379.08 -0.508377 -5.85397 0
M  V30 4193 H 380.604 0.392797 -6.09335 0
M  V30 4194 H 382.018 -1.78504 -5.44802 0
M  V30 4195 H 380.415 -2.57573 -5.42011 0
M  V30 4196 H 381.485 -2.72042 -4.01399 0
M  V30 4197 N 382.828 1.3818 -0.7579 0
M  V30 4198 C 383.76 2.2901 -0.0932177 0
M  V30 4199 C 384.773 1.47958 0.679136 0
M  V30 4200 O 385.962 1.70773 0.519514 0
M  V30 4201 C 383.062 3.26953 0.89192 0
M  V30 4202 C 382.235 4.37045 0.176303 0
M  V30 4203 C 381.294 5.15148 1.07281 0
M  V30 4204 O 380.32 5.66616 0.541728 0
M  V30 4205 N 381.522 5.28542 2.40049 0
M  V30 4206 H 384.287 2.86694 -0.873303 0
M  V30 4207 H 381.848 1.50007 -0.609054 0
M  V30 4208 H 383.84 3.76083 1.49479 0
M  V30 4209 H 382.41 2.70136 1.57306 0
M  V30 4210 H 381.63 3.89493 -0.607328 0
M  V30 4211 H 382.918 5.07801 -0.318718 0
M  V30 4212 H 382.316 4.88285 2.85647 0
M  V30 4213 H 380.873 5.8103 2.95376 0
M  V30 4214 N 384.306 0.507319 1.49211 0
M  V30 4215 C 385.552 -0.0350047 2.0277 0
M  V30 4216 C 385.885 -1.3606 1.38569 0
M  V30 4217 O 385.16 -1.87321 0.523542 0
M  V30 4218 C 385.443 -0.180916 3.59645 0
M  V30 4219 C 385.296 1.16825 4.34364 0
M  V30 4220 C 386.615 -0.918558 4.30407 0
M  V30 4221 H 383.734 -0.0112473 0.736914 0
M  V30 4222 H 386.376 0.659956 1.7817 0
M  V30 4223 H 384.526 -0.772826 3.80736 0
M  V30 4224 H 386.198 1.79952 4.24753 0
M  V30 4225 H 384.441 1.75594 3.96673 0
M  V30 4226 H 385.112 1.01939 5.42506 0
M  V30 4227 H 387.588 -0.41649 4.1401 0
M  V30 4228 H 386.464 -0.989505 5.39907 0
M  V30 4229 H 386.725 -1.96373 3.96093 0
M  V30 4230 N 385.784 -1.5574 0.241426 0
M  V30 4231 C 386.717 -2.17168 -0.700935 0
M  V30 4232 C 387.695 -1.12206 -1.1768 0
M  V30 4233 O 388.879 -1.40565 -1.25593 0
M  V30 4234 C 386.006 -2.76796 -1.95196 0
M  V30 4235 C 385.052 -3.94764 -1.61442 0
M  V30 4236 S 385.885 -5.30613 -0.72182 0
M  V30 4237 C 387.041 -5.93691 -1.98197 0
M  V30 4238 H 387.274 -2.96761 -0.178882 0
M  V30 4239 H 384.807 -1.54378 0.0259299 0
M  V30 4240 H 386.765 -3.11787 -2.67019 0
M  V30 4241 H 385.426 -1.9716 -2.44514 0
M  V30 4242 H 384.619 -4.35057 -2.54443 0
M  V30 4243 H 384.221 -3.61022 -0.976672 0
M  V30 4244 H 386.513 -6.10874 -2.92983 0
M  V30 4245 H 387.456 -6.89258 -1.62262 0
M  V30 4246 H 387.864 -5.22709 -2.13156 0
M  V30 4247 N 387.262 0.0317525 -1.57568 0
M  V30 4248 C 388.673 0.578692 -1.77505 0
M  V30 4249 C 389.024 1.75749 -0.872164 0
M  V30 4250 O 388.149 2.16298 -0.0663106 0
M  V30 4251 C 388.744 1.05658 -3.21904 0
M  V30 4252 C 387.303 1.54906 -3.43047 0
M  V30 4253 C 386.45 0.485939 -2.73009 0
M  V30 4254 H 389.401 -0.194475 -1.57504 0
M  V30 4255 H 389.422 1.92404 -3.28269 0
M  V30 4256 H 388.934 0.198422 -3.87592 0
M  V30 4257 H 387.035 2.42915 -2.82529 0
M  V30 4258 H 387.148 1.59841 -4.5165 0
M  V30 4259 H 385.512 0.940354 -2.36705 0
M  V30 4260 H 386.295 -0.362709 -3.41379 0
M  V30 4261 N 388.74 1.54641 0.303973 0
M  V30 4262 C 389.988 1.73437 1.0375 0
M  V30 4263 C 390.309 0.521449 1.87899 0
M  V30 4264 O 389.579 -0.46432 1.90318 0
M  V30 4265 H 388.159 0.639518 0.386039 0
M  V30 4266 H 390.821 1.91988 0.335675 0
M  V30 4267 H 389.917 2.62235 1.69231 0
M  V30 4268 N 390.218 -0.567019 1.47046 0
M  V30 4269 C 391.166 -1.69593 1.59188 0
M  V30 4270 C 392.16 -1.63046 0.459609 0
M  V30 4271 O 393.366 -1.6835 0.637058 0
M  V30 4272 H 389.741 -0.560993 0.500791 0
M  V30 4273 H 391.712 -1.56488 2.54075 0
M  V30 4274 C 390.461 -3.07964 1.61411 0
M  V30 4275 H 389.784 -3.13679 2.47881 0
M  V30 4276 H 391.224 -3.86671 1.73958 0
M  V30 4277 C 389.683 -3.35123 0.34559 0
M  V30 4278 O 390.213 -3.97812 -0.557521 0
M  V30 4279 N 388.419 -2.89699 0.22864 0
M  V30 4280 H 387.966 -2.38863 0.964479 0
M  V30 4281 H 387.924 -3.08242 -0.619192 0
M  V30 4282 N 391.696 -1.35014 -0.812953 0
M  V30 4283 C 392.945 -1.27269 -1.56479 0
M  V30 4284 C 393.258 0.152771 -1.95002 0
M  V30 4285 O 394.464 0.352451 -2.69203 0
M  V30 4286 C 392.92 -2.23159 -2.82362 0
M  V30 4287 C 392.528 -3.71016 -2.511 0
M  V30 4288 C 394.272 -2.24342 -3.60376 0
M  V30 4289 C 392.179 -4.58746 -3.73237 0
M  V30 4290 H 391.109 -0.472829 -0.587324 0
M  V30 4291 H 393.76 -1.6024 -0.894171 0
M  V30 4292 H 392.142 -1.83151 -3.51101 0
M  V30 4293 H 393.316 -4.1962 -1.90409 0
M  V30 4294 H 391.631 -3.72378 -1.86343 0
M  V30 4295 H 394.228 -2.87107 -4.51081 0
M  V30 4296 H 394.571 -1.24542 -3.97234 0
M  V30 4297 H 395.104 -2.62846 -2.98591 0
M  V30 4298 H 391.843 -5.59521 -3.41492 0
M  V30 4299 H 391.363 -4.14871 -4.33176 0
M  V30 4300 H 393.042 -4.73852 -4.40537 0
M  V30 4301 N 393.175 1.03435 -1.18907 0
M  V30 4302 C 394.421 1.77005 -0.989798 0
M  V30 4303 C 394.754 1.88205 0.478816 0
M  V30 4304 O 394.029 1.39481 1.35556 0
M  V30 4305 C 394.312 3.19925 -1.65287 0
M  V30 4306 C 394.165 3.1663 -3.19477 0
M  V30 4307 C 395.484 4.18189 -1.37134 0
M  V30 4308 H 392.603 0.642538 -0.360991 0
M  V30 4309 H 395.245 1.20784 -1.46667 0
M  V30 4310 H 393.395 3.67929 -1.24741 0
M  V30 4311 H 395.067 2.76567 -3.692 0
M  V30 4312 H 393.31 2.54491 -3.51307 0
M  V30 4313 H 393.981 4.1758 -3.61013 0
M  V30 4314 H 396.457 3.78761 -1.72276 0
M  V30 4315 H 395.333 5.16394 -1.86087 0
M  V30 4316 H 395.594 4.41112 -0.295424 0
M  V30 4317 N 394.653 0.992116 1.22453 0
M  V30 4318 C 395.9 0.667534 1.91181 0
M  V30 4319 C 396.228 -0.800317 1.77271 0
M  V30 4320 O 395.483 -1.59421 1.13505 0
M  V30 4321 C 395.782 1.01832 3.42586 0
M  V30 4322 C 395.448 2.47831 3.76684 0
M  V30 4323 C 394.11 2.87729 3.85701 0
M  V30 4324 C 396.462 3.42466 3.92895 0
M  V30 4325 C 393.79 4.21252 4.08367 0
M  V30 4326 C 396.142 4.75648 4.17064 0
M  V30 4327 C 394.806 5.15288 4.24305 0
M  V30 4328 H 394.076 0.244268 0.699581 0
M  V30 4329 H 396.723 1.24816 1.45235 0
M  V30 4330 H 395.028 0.355769 3.90181 0
M  V30 4331 H 396.725 0.745228 3.94014 0
M  V30 4332 H 393.315 2.15905 3.70247 0
M  V30 4333 H 397.499 3.12814 3.85307 0
M  V30 4334 H 392.755 4.51554 4.122 0
M  V30 4335 H 396.929 5.48924 4.2855 0
M  V30 4336 H 394.556 6.18769 4.41621 0
M  V30 4337 N 396.131 -1.37776 0.765217 0
M  V30 4338 C 397.377 -2.00145 0.327072 0
M  V30 4339 C 397.71 -1.60607 -1.09175 0
M  V30 4340 O 396.985 -0.849127 -1.74986 0
M  V30 4341 C 397.268 -3.57109 0.46319 0
M  V30 4342 C 397.121 -4.06576 1.92395 0
M  V30 4343 C 398.44 -4.39888 -0.136473 0
M  V30 4344 H 395.559 -0.727113 0.120316 0
M  V30 4345 H 398.201 -1.63549 0.967039 0
M  V30 4346 H 396.351 -3.88414 -0.0816358 0
M  V30 4347 H 398.023 -3.85864 2.52798 0
M  V30 4348 H 396.266 -3.59011 2.43503 0
M  V30 4349 H 396.937 -5.15639 1.97028 0
M  V30 4350 H 399.413 -4.14803 0.328317 0
M  V30 4351 H 398.289 -5.48899 -0.0110582 0
M  V30 4352 H 398.55 -4.24758 -1.22608 0
M  V30 4353 N 397.609 -0.515225 -1.4894 0
M  V30 4354 C 398.539 0.244628 -2.32215 0
M  V30 4355 C 399.52 0.949136 -1.41157 0
M  V30 4356 O 400.705 0.937783 -1.70057 0
M  V30 4357 C 397.835 1.30096 -3.22013 0
M  V30 4358 C 396.789 0.715486 -4.21977 0
M  V30 4359 C 396.115 1.87339 -5.00808 0
M  V30 4360 C 397.415 -0.302982 -5.2142 0
M  V30 4361 H 399.109 -0.450501 -2.95991 0
M  V30 4362 H 396.655 -0.218098 -1.42339 0
M  V30 4363 H 398.608 1.84037 -3.79089 0
M  V30 4364 H 397.332 2.02547 -2.56207 0
M  V30 4365 H 395.991 0.197715 -3.66066 0
M  V30 4366 H 395.639 2.58592 -4.31438 0
M  V30 4367 H 395.339 1.48764 -5.68457 0
M  V30 4368 H 396.863 2.41686 -5.60732 0
M  V30 4369 H 398.277 0.148802 -5.73107 0
M  V30 4370 H 396.674 -0.60532 -5.97039 0
M  V30 4371 H 397.744 -1.21395 -4.69459 0
M  V30 4372 N 399.087 1.5561 -0.249682 0
M  V30 4373 C 400.034 2.21496 0.648694 0
M  V30 4374 C 401.004 1.17977 1.16921 0
M  V30 4375 O 402.189 1.46434 1.22318 0
M  V30 4376 C 399.329 2.92039 1.83868 0
M  V30 4377 C 398.442 4.10219 1.35442 0
M  V30 4378 C 397.577 4.6847 2.50419 0
M  V30 4379 C 396.616 5.78893 1.98869 0
M  V30 4380 N 395.753 6.31315 3.07223 0
M  V30 4381 H 400.593 2.97892 0.0801582 0
M  V30 4382 H 398.13 1.47074 0.0278031 0
M  V30 4383 H 400.088 3.31138 2.53778 0
M  V30 4384 H 398.718 2.18111 2.37965 0
M  V30 4385 H 397.77 3.76413 0.54928 0
M  V30 4386 H 399.082 4.89927 0.936649 0
M  V30 4387 H 398.236 5.10158 3.28366 0
M  V30 4388 H 396.975 3.87984 2.95499 0
M  V30 4389 H 395.98 5.3668 1.19393 0
M  V30 4390 H 397.205 6.61232 1.54755 0
M  V30 4391 H 395.151 5.53733 3.51732 0
M  V30 4392 H 395.068 7.06224 2.69784 0
M  V30 4393 H 396.336 6.77662 3.8522 0
M  V30 4394 N 400.565 -0.0233959 1.57583 0
M  V30 4395 C 401.512 -1.02224 2.06927 0
M  V30 4396 C 402.482 -1.35575 0.959617 0
M  V30 4397 O 403.667 -1.45815 1.23055 0
M  V30 4398 C 400.807 -2.31636 2.5581 0
M  V30 4399 C 399.92 -2.04394 3.80588 0
M  V30 4400 C 399.055 -3.27717 4.18061 0
M  V30 4401 C 398.094 -2.96056 5.3574 0
M  V30 4402 N 397.231 -4.11847 5.68618 0
M  V30 4403 H 402.071 -0.594504 2.9201 0
M  V30 4404 H 399.608 -0.281921 1.44373 0
M  V30 4405 H 401.566 -3.07258 2.82221 0
M  V30 4406 H 400.196 -2.72122 1.73636 0
M  V30 4407 H 399.248 -1.19244 3.61227 0
M  V30 4408 H 400.56 -1.77042 4.66323 0
M  V30 4409 H 399.714 -4.11702 4.4563 0
M  V30 4410 H 398.453 -3.58188 3.30988 0
M  V30 4411 H 397.458 -2.10474 5.07918 0
M  V30 4412 H 398.683 -2.66857 6.24471 0
M  V30 4413 H 396.629 -4.42258 4.84504 0
M  V30 4414 H 396.546 -3.87938 6.48876 0
M  V30 4415 H 397.814 -4.96689 6.00766 0
M  V30 4416 N 402.043 -1.548 -0.295768 0
M  V30 4417 C 403.291 -1.73985 -1.02828 0
M  V30 4418 C 403.612 -0.531406 -1.87619 0
M  V30 4419 O 402.882 0.454221 -1.90561 0
M  V30 4420 H 401.462 -0.641556 -0.382642 0
M  V30 4421 H 404.124 -1.92163 -0.325489 0
M  V30 4422 H 403.22 -2.63129 -1.67838 0
M  V30 4423 N 403.521 0.559213 -1.47345 0
M  V30 4424 C 404.469 1.68747 -1.60085 0
M  V30 4425 C 405.463 1.628 -0.46825 0
M  V30 4426 O 406.669 1.68009 -0.645977 0
M  V30 4427 H 403.044 0.558329 -0.503759 0
M  V30 4428 H 405.015 1.55138 -2.54902 0
M  V30 4429 C 403.764 3.07103 -1.63042 0
M  V30 4430 H 403.087 3.12361 -2.49541 0
M  V30 4431 H 404.527 3.85743 -1.76006 0
M  V30 4432 C 402.986 3.34935 -0.363357 0
M  V30 4433 O 403.516 3.98102 0.536416 0
M  V30 4434 N 401.722 2.89574 -0.244 0
M  V30 4435 H 401.269 2.38348 -0.977133 0
M  V30 4436 H 401.227 3.08566 0.602836 0
M  V30 4437 N 404.999 1.35443 0.805782 0
M  V30 4438 C 406.276 1.19325 1.54987 0
M  V30 4439 C 406.656 -0.227294 2.09873 0
M  V30 4440 O 406.004 -1.2309 1.92512 0
M  V30 4441 C 406.214 2.26196 2.65775 0
M  V30 4442 C 407.562 2.62043 3.34094 0
M  V30 4443 O 408.586 2.25115 2.76046 0
M  V30 4444 O 407.445 3.25542 4.38958 0
M  V30 4445 H 404.539 0.463623 0.684823 0
M  V30 4446 H 407.085 1.47127 0.845674 0
M  V30 4447 H 405.857 3.21471 2.23096 0
M  V30 4448 H 405.48 1.99667 3.43829 0
M  V30 4449 N 406.477 -1.02803 1.19454 0
M  V30 4450 C 407.425 -2.13213 0.929673 0
M  V30 4451 C 408.419 -1.69011 -0.114806 0
M  V30 4452 O 409.625 -1.79967 0.0345147 0
M  V30 4453 H 406 -0.69662 0.28324 0
M  V30 4454 H 407.971 -2.32744 1.86743 0
M  V30 4455 C 406.72 -3.4429 0.485797 0
M  V30 4456 H 406.043 -3.7872 1.28105 0
M  V30 4457 H 407.483 -4.22638 0.339582 0
M  V30 4458 C 405.942 -3.27258 -0.800244 0
M  V30 4459 O 406.472 -3.55967 -1.86146 0
M  V30 4460 N 404.678 -2.80545 -0.75781 0
M  V30 4461 H 404.225 -2.57382 0.106039 0
M  V30 4462 H 404.183 -2.6953 -1.61867 0
M  V30 4463 N 407.956 -0.998596 -1.21925 0
M  V30 4464 C 409.202 -0.688337 -1.91399 0
M  V30 4465 C 409.557 0.771805 -1.76241 0
M  V30 4466 O 408.85 1.55153 -1.1242 0
M  V30 4467 C 409.044 -1.03648 -3.42041 0
M  V30 4468 C 408.873 -2.52892 -3.71855 0
M  V30 4469 C 407.643 -3.19389 -3.91559 0
M  V30 4470 C 409.841 -3.5103 -3.75875 0
M  V30 4471 N 407.823 -4.5805 -4.08734 0
M  V30 4472 C 409.194 -4.75174 -3.98259 0
M  V30 4473 C 411.249 -3.45257 -3.58751 0
M  V30 4474 C 409.952 -5.94247 -4.05294 0
M  V30 4475 C 411.978 -4.63712 -3.67049 0
M  V30 4476 C 411.34 -5.86658 -3.89887 0
M  V30 4477 H 407.439 -0.303251 -0.720807 0
M  V30 4478 H 410.023 -1.27977 -1.46731 0
M  V30 4479 H 408.194 -0.473569 -3.85502 0
M  V30 4480 H 409.926 -0.681619 -3.98919 0
M  V30 4481 H 406.681 -2.69846 -3.89205 0
M  V30 4482 H 407.105 -5.29989 -4.21237 0
M  V30 4483 H 411.747 -2.51215 -3.40075 0
M  V30 4484 H 409.465 -6.88687 -4.22772 0
M  V30 4485 H 413.051 -4.6084 -3.5513 0
M  V30 4486 H 411.931 -6.76786 -3.96144 0
M  V30 4487 N 409.434 1.37368 -0.772513 0
M  V30 4488 C 410.397 2.28601 -0.165541 0
M  V30 4489 C 411.397 1.48062 0.627238 0
M  V30 4490 O 412.587 1.68268 0.450715 0
M  V30 4491 C 409.719 3.32023 0.772897 0
M  V30 4492 H 410.912 2.83787 -0.969787 0
M  V30 4493 H 408.465 1.46647 -0.540775 0
M  V30 4494 H 409.2 2.81962 1.60212 0
M  V30 4495 H 408.985 3.91555 0.206585 0
M  V30 4496 H 410.475 4.00197 1.19298 0
M  V30 4497 N 410.912 0.523116 1.48665 0
M  V30 4498 C 412.14 -0.0096312 2.06898 0
M  V30 4499 C 412.555 -1.28784 1.38059 0
M  V30 4500 O 411.912 -1.76453 0.465893 0
M  V30 4501 C 411.963 -0.244386 3.60673 0
M  V30 4502 O 411.684 0.983172 4.26925 0
M  V30 4503 C 413.185 -0.818289 4.35682 0
M  V30 4504 H 410.405 0.0304161 0.67031 0
M  V30 4505 H 412.949 0.726799 1.91149 0
M  V30 4506 H 411.104 -0.930847 3.76051 0
M  V30 4507 H 411.518 0.759653 5.1897 0
M  V30 4508 H 412.992 -0.93201 5.44075 0
M  V30 4509 H 413.469 -1.82153 3.99646 0
M  V30 4510 H 414.075 -0.168609 4.24966 0
M  V30 4511 N 412.39 -1.55475 0.257931 0
M  V30 4512 C 413.636 -1.99502 -0.364266 0
M  V30 4513 C 413.969 -1.146 -1.56782 0
M  V30 4514 O 413.244 -0.211968 -1.93342 0
M  V30 4515 C 413.527 -3.51917 -0.763333 0
M  V30 4516 C 413.38 -4.4758 0.446371 0
M  V30 4517 C 414.699 -4.09742 -1.60623 0
M  V30 4518 H 411.818 -0.725277 -0.130929 0
M  V30 4519 H 414.46 -1.8653 0.361446 0
M  V30 4520 H 412.61 -3.63101 -1.38166 0
M  V30 4521 H 414.282 -4.48362 1.08487 0
M  V30 4522 H 412.525 -4.19947 1.08753 0
M  V30 4523 H 413.196 -5.51862 0.123645 0
M  V30 4524 H 415.672 -4.01727 -1.08418 0
M  V30 4525 H 414.548 -5.16631 -1.85429 0
M  V30 4526 H 414.809 -3.58889 -2.58169 0
M  V30 4527 N 413.868 0.0150385 -1.57593 0
M  V30 4528 C 414.801 1.04475 -2.0288 0
M  V30 4529 C 415.779 1.3436 -0.915764 0
M  V30 4530 O 416.963 1.46779 -1.18271 0
M  V30 4531 C 414.09 2.37608 -2.41371 0
M  V30 4532 C 413.136 2.23487 -3.63257 0
M  V30 4533 S 413.969 1.57505 -5.11813 0
M  V30 4534 C 415.125 2.921 -5.5356 0
M  V30 4535 H 415.358 0.65907 -2.89903 0
M  V30 4536 H 412.891 0.225452 -1.52745 0
M  V30 4537 H 414.849 3.14165 -2.64217 0
M  V30 4538 H 413.51 2.7332 -1.54775 0
M  V30 4539 H 412.703 3.21802 -3.87891 0
M  V30 4540 H 412.305 1.55074 -3.40335 0
M  V30 4541 H 414.597 3.88419 -5.55101 0
M  V30 4542 H 415.54 2.72184 -6.53698 0
M  V30 4543 H 415.948 2.95318 -4.8109 0
M  V30 4544 N 415.346 1.54954 0.287554 0
M  V30 4545 C 416.593 1.74873 1.02106 0
M  V30 4546 C 416.921 0.541829 1.86801 0
M  V30 4547 O 416.176 -0.475992 1.89823 0
M  V30 4548 C 416.475 2.99833 1.94512 0
M  V30 4549 C 416.141 4.33029 1.25686 0
M  V30 4550 C 414.803 4.69233 1.06649 0
M  V30 4551 C 417.155 5.15542 0.765913 0
M  V30 4552 C 414.483 5.85518 0.372222 0
M  V30 4553 C 416.835 6.32542 0.0853101 0
M  V30 4554 C 415.499 6.67398 -0.1169 0
M  V30 4555 H 414.769 0.639906 0.373632 0
M  V30 4556 H 417.416 1.89219 0.294665 0
M  V30 4557 H 415.721 2.80325 2.73725 0
M  V30 4558 H 417.418 3.1244 2.51361 0
M  V30 4559 H 414.008 4.04564 1.41512 0
M  V30 4560 H 418.192 4.88059 0.90066 0
M  V30 4561 H 413.448 6.11057 0.204695 0
M  V30 4562 H 417.622 6.95741 -0.302936 0
M  V30 4563 H 415.249 7.57357 -0.656859 0
M  V30 4564 N 416.824 -0.551391 1.4764 0
M  V30 4565 C 417.772 -1.67896 1.60978 0
M  V30 4566 C 418.766 -1.62549 0.476877 0
M  V30 4567 O 419.972 -1.67664 0.654878 0
M  V30 4568 H 416.347 -0.555649 0.506713 0
M  V30 4569 H 418.318 -1.53784 2.55721 0
M  V30 4570 C 417.067 -3.06234 1.64669 0
M  V30 4571 H 416.39 -3.11033 2.51194 0
M  V30 4572 H 417.83 -3.84804 1.7805 0
M  V30 4573 C 416.289 -3.34737 0.381115 0
M  V30 4574 O 416.819 -3.98381 -0.515297 0
M  V30 4575 N 415.025 -2.8944 0.259354 0
M  V30 4576 H 414.572 -2.37827 0.98976 0
M  V30 4577 H 414.53 -3.08882 -0.586464 0
M  V30 4578 N 418.302 -1.35869 -0.798587 0
M  V30 4579 C 419.55 -1.29332 -1.55298 0
M  V30 4580 C 419.871 0.129729 -1.94568 0
M  V30 4581 O 419.141 1.06796 -1.6423 0
M  V30 4582 H 417.721 -0.475737 -0.57592 0
M  V30 4583 H 420.383 -1.70062 -0.952093 0
M  V30 4584 H 419.479 -1.91458 -2.46476 0
M  V30 4585 N 419.78 1.02168 -1.19998 0
M  V30 4586 C 420.712 2.10705 -0.901994 0
M  V30 4587 C 421.725 1.6244 0.108216 0
M  V30 4588 O 422.914 1.78082 -0.12214 0
M  V30 4589 C 420.014 3.37291 -0.329834 0
M  V30 4590 C 419.187 4.14714 -1.39035 0
M  V30 4591 C 418.246 5.19606 -0.830432 0
M  V30 4592 O 417.272 5.48809 -1.50989 0
M  V30 4593 N 418.474 5.79366 0.362696 0
M  V30 4594 H 421.239 2.36856 -1.83628 0
M  V30 4595 H 418.8 1.18518 -1.10296 0
M  V30 4596 H 420.792 4.04657 0.0587633 0
M  V30 4597 H 419.362 3.0843 0.508891 0
M  V30 4598 H 418.582 3.42392 -1.9535 0
M  V30 4599 H 419.87 4.63226 -2.10474 0
M  V30 4600 H 419.268 5.57968 0.932081 0
M  V30 4601 H 417.825 6.48106 0.69299 0
M  V30 4602 N 421.258 1.00505 1.21394 0
M  V30 4603 C 422.205 0.565496 2.23765 0
M  V30 4604 C 423.175 -0.408466 1.60999 0
M  V30 4605 O 424.36 -0.310503 1.88257 0
M  V30 4606 C 421.5 -0.101667 3.4495 0
M  V30 4607 C 420.613 0.915479 4.22188 0
M  V30 4608 C 419.748 0.220574 5.30742 0
M  V30 4609 C 418.787 1.22527 5.99711 0
M  V30 4610 N 417.924 0.557831 6.9988 0
M  V30 4611 H 422.764 1.44314 2.60725 0
M  V30 4612 H 420.301 0.722643 1.28126 0
M  V30 4613 H 422.259 -0.505504 4.14126 0
M  V30 4614 H 420.889 -0.94303 3.08718 0
M  V30 4615 H 419.941 1.43756 3.52191 0
M  V30 4616 H 421.253 1.68005 4.69655 0
M  V30 4617 H 420.407 -0.239368 6.06228 0
M  V30 4618 H 419.146 -0.576401 4.84282 0
M  V30 4619 H 418.151 1.69571 5.22997 0
M  V30 4620 H 419.376 2.02332 6.48258 0
M  V30 4621 H 417.322 -0.219486 6.55633 0
M  V30 4622 H 417.239 1.26065 7.45415 0
M  V30 4623 H 418.507 0.121095 7.79406 0
M  V30 4624 N 422.737 -1.36956 0.779787 0
M  V30 4625 C 423.985 -1.99097 0.347079 0
M  V30 4626 C 424.306 -1.62206 -1.08232 0
M  V30 4627 O 423.576 -0.891373 -1.74446 0
M  V30 4628 H 422.156 -0.736409 0.125342 0
M  V30 4629 H 424.818 -1.67308 0.999696 0
M  V30 4630 H 423.914 -3.09107 0.431162 0
M  V30 4631 N 424.215 -0.530993 -1.48385 0
M  V30 4632 C 425.145 0.219985 -2.32461 0
M  V30 4633 C 426.126 0.934111 -1.42156 0
M  V30 4634 O 427.311 0.919694 -1.71042 0
M  V30 4635 C 424.441 1.26674 -3.23375 0
M  V30 4636 C 423.395 0.67069 -4.22712 0
M  V30 4637 C 422.721 1.82017 -5.02766 0
M  V30 4638 C 424.021 -0.358268 -5.2107 0
M  V30 4639 H 425.715 -0.48187 -2.95497 0
M  V30 4640 H 423.261 -0.233182 -1.42099 0
M  V30 4641 H 425.214 1.80006 -3.81019 0
M  V30 4642 H 423.938 1.99818 -2.58341 0
M  V30 4643 H 422.597 0.158878 -3.66256 0
M  V30 4644 H 422.245 2.54002 -4.34157 0
M  V30 4645 H 421.945 1.42727 -5.70003 0
M  V30 4646 H 423.469 2.35725 -5.63264 0
M  V30 4647 H 424.883 0.0880081 -5.73232 0
M  V30 4648 H 423.28 -0.66861 -5.96364 0
M  V30 4649 H 424.35 -1.26367 -4.68145 0
M  V30 4650 N 425.693 1.55336 -0.266172 0
M  V30 4651 C 426.939 1.99692 0.353681 0
M  V30 4652 C 427.272 1.1543 1.56172 0
M  V30 4653 O 426.547 0.222218 1.93226 0
M  V30 4654 C 426.83 3.52316 0.74466 0
M  V30 4655 C 426.683 4.47337 -0.470101 0
M  V30 4656 C 428.002 4.10588 1.58447 0
M  V30 4657 H 425.121 0.725961 0.12708 0
M  V30 4658 H 427.763 1.86336 -0.371333 0
M  V30 4659 H 425.913 3.63829 1.36239 0
M  V30 4660 H 427.585 4.4778 -1.10864 0
M  V30 4661 H 425.828 4.19364 -1.10978 0
M  V30 4662 H 426.499 5.51788 -0.15291 0
M  V30 4663 H 428.975 4.02297 1.06286 0
M  V30 4664 H 427.851 5.17607 1.82686 0
M  V30 4665 H 428.112 3.60253 2.56262 0
M  V30 4666 N 427.171 -0.0066808 1.57599 0
M  V30 4667 C 428.582 -0.550379 1.78403 0
M  V30 4668 C 428.933 -1.74339 0.900014 0
M  V30 4669 O 428.058 -2.16166 0.100713 0
M  V30 4670 C 428.653 -1.00523 3.23544 0
M  V30 4671 C 427.212 -1.49428 3.45468 0
M  V30 4672 C 426.359 -0.442444 2.73748 0
M  V30 4673 H 429.31 0.219508 1.57175 0
M  V30 4674 H 429.331 -1.87157 3.31289 0
M  V30 4675 H 428.843 -0.136735 3.87859 0
M  V30 4676 H 426.944 -2.3839 2.86358 0
M  V30 4677 H 427.057 -1.52635 4.54136 0
M  V30 4678 H 425.421 -0.902578 2.38171 0
M  V30 4679 H 426.204 0.416973 3.40758 0
M  V30 4680 N 428.649 -1.55105 -0.279332 0
M  V30 4681 C 429.889 -1.7716 -1.01949 0
M  V30 4682 C 430.253 -0.557511 -1.83728 0
M  V30 4683 O 431.454 -0.656198 -2.60667 0
M  V30 4684 C 429.725 -3.0372 -1.88385 0
M  V30 4685 S 431.284 -3.46868 -2.68752 0
M  V30 4686 H 428.102 -0.62253 -0.343478 0
M  V30 4687 H 430.704 -1.93329 -0.290572 0
M  V30 4688 H 429.408 -3.90184 -1.2722 0
M  V30 4689 H 428.939 -2.902 -2.65608 0
M  V30 4690 H 430.954 -3.05643 -3.90892 0
M  V30 4691 N 430.127 0.543554 -1.4793 0
M  V30 4692 C 431.075 1.67039 -1.61866 0
M  V30 4693 C 432.069 1.62294 -0.48549 0
M  V30 4694 O 433.275 1.67315 -0.66376 0
M  V30 4695 H 429.65 0.552954 -0.509652 0
M  V30 4696 H 431.621 1.52426 -2.56533 0
M  V30 4697 C 430.37 3.05357 -1.6629 0
M  V30 4698 H 429.693 3.09696 -2.5284 0
M  V30 4699 H 431.133 3.83855 -1.80088 0
M  V30 4700 C 429.592 3.34531 -0.398861 0
M  V30 4701 O 430.122 3.98649 0.494162 0
M  V30 4702 N 428.328 2.89299 -0.2747 0
M  V30 4703 H 427.875 2.37298 -1.00236 0
M  V30 4704 H 427.833 3.09188 0.570075 0
M  V30 4705 N 431.605 1.3629 0.791371 0
M  V30 4706 C 432.835 1.33368 1.57786 0
M  V30 4707 C 433.243 -0.0875188 1.88997 0
M  V30 4708 O 432.586 -1.05427 1.50435 0
M  V30 4709 C 432.648 2.08802 2.92646 0
M  V30 4710 C 432.312 3.57903 2.84174 0
M  V30 4711 C 433.309 4.52191 2.56553 0
M  V30 4712 C 430.994 4.00762 3.02812 0
M  V30 4713 C 432.988 5.87315 2.47669 0
M  V30 4714 C 430.675 5.35977 2.93551 0
M  V30 4715 C 431.673 6.29066 2.66017 0
M  V30 4716 O 431.361 7.61798 2.56746 0
M  V30 4717 H 431.093 0.459166 0.496128 0
M  V30 4718 H 433.647 1.79952 0.990269 0
M  V30 4719 H 431.877 1.56878 3.53449 0
M  V30 4720 H 433.566 1.98762 3.53904 0
M  V30 4721 H 434.332 4.20393 2.41858 0
M  V30 4722 H 430.211 3.2868 3.2325 0
M  V30 4723 H 433.755 6.59943 2.26099 0
M  V30 4724 H 429.652 5.67384 3.07808 0
M  V30 4725 H 430.42 7.71898 2.72242 0
M  V30 4726 N 433.083 -1.0153 1.20538 0
M  V30 4727 C 434.013 -2.11972 0.979295 0
M  V30 4728 C 434.994 -1.6985 -0.0921787 0
M  V30 4729 O 436.179 -1.94089 0.0655932 0
M  V30 4730 C 433.309 -3.43201 0.531984 0
M  V30 4731 C 432.263 -3.9907 1.54685 0
M  V30 4732 C 431.589 -5.26082 0.956127 0
M  V30 4733 C 432.889 -4.32313 2.93092 0
M  V30 4734 H 434.583 -2.31143 1.90298 0
M  V30 4735 H 432.129 -1.11079 0.916372 0
M  V30 4736 H 434.082 -4.1985 0.361044 0
M  V30 4737 H 432.806 -3.23792 -0.427327 0
M  V30 4738 H 431.465 -3.2453 1.70517 0
M  V30 4739 H 431.113 -5.02999 -0.0111538 0
M  V30 4740 H 430.813 -5.64426 1.63393 0
M  V30 4741 H 432.337 -6.05386 0.796284 0
M  V30 4742 H 433.751 -4.99845 2.80763 0
M  V30 4743 H 432.148 -4.81774 3.57791 0
M  V30 4744 H 433.218 -3.41025 3.44717 0
M  V30 4745 N 434.561 -1.01147 -1.20859 0
M  V30 4746 C 435.471 -0.58686 -2.27141 0
M  V30 4747 C 436.487 0.373198 -1.69951 0
M  V30 4748 O 437.663 0.235423 -2.00019 0
M  V30 4749 C 434.728 0.0733602 -3.46622 0
M  V30 4750 C 433.789 -0.931995 -4.19061 0
M  V30 4751 C 433.022 -0.303186 -5.32838 0
M  V30 4752 O 433.245 0.898395 -5.63281 0
M  V30 4753 O 432.179 -1.01735 -5.9324 0
M  V30 4754 H 436.005 -1.47155 -2.65667 0
M  V30 4755 H 433.59 -0.780689 -1.2738 0
M  V30 4756 H 435.472 0.442333 -4.19072 0
M  V30 4757 H 434.147 0.932329 -3.09983 0
M  V30 4758 H 433.054 -1.35224 -3.48805 0
M  V30 4759 H 434.387 -1.76076 -4.59628 0
M  V30 4760 N 436.039 1.36541 -0.78704 0
M  V30 4761 C 437.45 1.81873 -0.421807 0
M  V30 4762 C 437.801 1.65487 1.05397 0
M  V30 4763 O 436.926 1.17448 1.81755 0
M  V30 4764 C 437.521 3.30192 -0.758841 0
M  V30 4765 C 436.08 3.73743 -0.446468 0
M  V30 4766 C 435.227 2.58844 -0.994728 0
M  V30 4767 H 438.178 1.24796 -0.98039 0
M  V30 4768 H 438.199 3.80468 -0.0490648 0
M  V30 4769 H 437.711 3.42087 -1.83299 0
M  V30 4770 H 435.812 3.6741 0.619739 0
M  V30 4771 H 435.925 4.69272 -0.965415 0
M  V30 4772 H 434.289 2.51245 -0.418087 0
M  V30 4773 H 435.072 2.73525 -2.07458 0
M  V30 4774 N 437.518 0.538854 1.48102 0
M  V30 4775 C 438.764 0.00801365 2.02798 0
M  V30 4776 C 439.097 -1.3309 1.41424 0
M  V30 4777 O 438.372 -1.86169 0.563158 0
M  V30 4778 C 438.655 -0.104589 3.59948 0
M  V30 4779 C 438.508 1.26012 4.31788 0
M  V30 4780 C 439.827 -0.827055 4.32259 0
M  V30 4781 H 436.946 0.00438624 0.736987 0
M  V30 4782 H 439.588 0.6976 1.7673 0
M  V30 4783 H 437.738 -0.691893 3.82289 0
M  V30 4784 H 439.41 1.88922 4.2084 0
M  V30 4785 H 437.653 1.83968 3.92859 0
M  V30 4786 H 438.324 1.13424 5.40221 0
M  V30 4787 H 440.8 -0.328578 4.14801 0
M  V30 4788 H 439.676 -0.87476 5.41885 0
M  V30 4789 H 439.937 -1.87927 4.0017 0
M  V30 4790 N 438.996 -1.55193 0.274407 0
M  V30 4791 C 439.906 -2.26164 -0.623473 0
M  V30 4792 C 440.922 -1.28729 -1.17068 0
M  V30 4793 O 442.098 -1.61663 -1.20112 0
M  V30 4794 C 439.163 -2.96833 -1.7914 0
M  V30 4795 C 438.224 -4.09745 -1.28093 0
M  V30 4796 C 437.457 -4.77034 -2.3932 0
M  V30 4797 O 437.68 -4.4353 -3.5866 0
M  V30 4798 O 436.614 -5.64996 -2.07516 0
M  V30 4799 H 440.44 -3.03661 -0.0485661 0
M  V30 4800 H 438.025 -1.49341 0.0418382 0
M  V30 4801 H 439.907 -3.41248 -2.4724 0
M  V30 4802 H 438.582 -2.22253 -2.35341 0
M  V30 4803 H 437.489 -3.69787 -0.566416 0
M  V30 4804 H 438.822 -4.86224 -0.764683 0
M  V30 4805 N 440.474 -0.00167713 -1.576 0
M  V30 4806 C 441.404 0.988091 -2.11563 0
M  V30 4807 C 442.385 1.35736 -1.02517 0
M  V30 4808 O 443.57 1.44082 -1.30208 0
M  V30 4809 C 440.7 2.27941 -2.62031 0
M  V30 4810 C 439.654 2.0517 -3.75619 0
M  V30 4811 C 438.98 3.4033 -4.12407 0
M  V30 4812 C 440.28 1.41294 -5.02825 0
M  V30 4813 H 441.974 0.538771 -2.94513 0
M  V30 4814 H 439.52 0.257712 -1.41675 0
M  V30 4815 H 441.473 2.97539 -2.9841 0
M  V30 4816 H 440.197 2.74989 -1.76205 0
M  V30 4817 H 438.856 1.37998 -3.39635 0
M  V30 4818 H 438.504 3.85085 -3.23603 0
M  V30 4819 H 438.204 3.25909 -4.88935 0
M  V30 4820 H 439.728 4.1124 -4.51347 0
M  V30 4821 H 441.142 2.00851 -5.36965 0
M  V30 4822 H 439.539 1.37356 -5.84169 0
M  V30 4823 H 440.609 0.382362 -4.8339 0
M  V30 4824 N 441.952 1.55251 0.271103 0
M  V30 4825 C 443.368 1.47133 0.618393 0
M  V30 4826 C 443.568 0.686994 1.89427 0
M  V30 4827 O 442.624 0.206609 2.51653 0
M  V30 4828 C 443.937 2.91361 0.743593 0
M  V30 4829 C 445.485 3.01587 0.837522 0
M  V30 4830 C 445.96 4.47073 0.994483 0
M  V30 4831 N 447.451 4.50909 1.05996 0
M  V30 4832 C 448.186 5.60698 1.20024 0
M  V30 4833 N 447.682 6.80348 1.30759 0
M  V30 4834 N 449.475 5.48444 1.23149 0
M  V30 4835 H 441.626 2.04698 -0.566784 0
M  V30 4836 H 443.889 0.928319 -0.192165 0
M  V30 4837 H 443.595 3.51483 -0.123493 0
M  V30 4838 H 443.469 3.40484 1.62328 0
M  V30 4839 H 445.856 2.4156 1.69507 0
M  V30 4840 H 445.937 2.55713 -0.0668086 0
M  V30 4841 H 445.581 5.07703 0.141582 0
M  V30 4842 H 445.511 4.90605 1.91349 0
M  V30 4843 H 448.002 3.6472 0.989316 0
M  V30 4844 H 448.315 7.59772 1.41303 0
M  V30 4845 H 446.66 6.83156 1.27761 0
M  V30 4846 H 449.851 4.53907 1.14394 0
M  V30 4847 H 450.024 6.34049 1.33738 0
M  V30 4848 N 443.43 -0.535701 1.48216 0
M  V30 4849 C 444.679 -1.28828 1.55197 0
M  V30 4850 C 444.992 -1.94263 0.228278 0
M  V30 4851 O 446.198 -2.70927 0.176278 0
M  V30 4852 C 444.654 -2.33727 2.73678 0
M  V30 4853 C 444.262 -1.74386 4.12666 0
M  V30 4854 C 446.006 -3.1003 2.89968 0
M  V30 4855 C 443.913 -2.77192 5.22416 0
M  V30 4856 H 442.843 -0.484484 0.577747 0
M  V30 4857 H 445.494 -0.56646 1.74538 0
M  V30 4858 H 443.876 -3.08919 2.4776 0
M  V30 4859 H 445.05 -1.05421 4.48579 0
M  V30 4860 H 443.365 -1.10595 4.01445 0
M  V30 4861 H 445.962 -3.86842 3.6913 0
M  V30 4862 H 446.305 -3.65542 1.9921 0
M  V30 4863 H 446.838 -2.41952 3.15759 0
M  V30 4864 H 443.577 -2.26507 6.15122 0
M  V30 4865 H 443.097 -3.44502 4.90998 0
M  V30 4866 H 444.776 -3.40285 5.50286 0
M  V30 4867 N 444.908 -1.36708 -0.784132 0
M  V30 4868 C 445.858 -1.2799 -1.88686 0
M  V30 4869 C 446.842 -0.170282 -1.59996 0
M  V30 4870 O 448.034 -0.403571 -1.72338 0
M  V30 4871 C 445.163 -1.07674 -3.25977 0
M  V30 4872 C 444.249 -2.23127 -3.60659 0
M  V30 4873 N 444.64 -3.48467 -3.66612 0
M  V30 4874 C 442.938 -2.15009 -3.90752 0
M  V30 4875 C 443.639 -4.24525 -3.97685 0
M  V30 4876 N 442.615 -3.53524 -4.12943 0
M  V30 4877 H 446.417 -2.22927 -1.91522 0
M  V30 4878 H 443.931 -1.29503 -0.979933 0
M  V30 4879 H 445.928 -0.995151 -4.04849 0
M  V30 4880 H 444.588 -0.13643 -3.24413 0
M  V30 4881 H 445.599 -3.82534 -3.49125 0
M  V30 4882 H 442.276 -1.28963 -3.97083 0
M  V30 4883 H 443.666 -5.32944 -4.0917 0
M  V30 4884 N 446.386 1.0089 -1.21074 0
M  V30 4885 C 447.797 1.56056 -1.02486 0
M  V30 4886 C 448.148 1.91728 0.416506 0
M  V30 4887 O 447.273 1.73066 1.29912 0
M  V30 4888 C 447.868 2.83563 -1.85411 0
M  V30 4889 C 446.427 3.3523 -1.71166 0
M  V30 4890 C 445.574 2.0846 -1.82865 0
M  V30 4891 H 448.525 0.831818 -1.35154 0
M  V30 4892 H 448.546 3.55286 -1.36205 0
M  V30 4893 H 448.058 2.57569 -2.9031 0
M  V30 4894 H 446.159 3.66167 -0.689361 0
M  V30 4895 H 446.272 4.06913 -2.52901 0
M  V30 4896 H 444.636 2.21275 -1.26132 0
M  V30 4897 H 445.419 1.84883 -2.89263 0
M  V30 4898 N 447.864 1.01787 1.20321 0
M  V30 4899 C 448.796 0.547357 2.22568 0
M  V30 4900 C 449.809 -0.370922 1.58518 0
M  V30 4901 O 450.998 -0.169067 1.77698 0
M  V30 4902 C 448.098 -0.223031 3.38165 0
M  V30 4903 C 447.271 0.697472 4.31803 0
M  V30 4904 C 446.33 -0.025562 5.26194 0
M  V30 4905 O 445.356 0.597367 5.66057 0
M  V30 4906 N 446.558 -1.29999 5.65757 0
M  V30 4907 H 449.323 1.42668 2.63564 0
M  V30 4908 H 446.884 0.895552 1.34876 0
M  V30 4909 H 448.876 -0.716002 3.98316 0
M  V30 4910 H 447.446 -1.00366 2.9605 0
M  V30 4911 H 446.666 1.37073 3.69601 0
M  V30 4912 H 447.954 1.32347 4.91286 0
M  V30 4913 H 447.352 -1.827 5.35385 0
M  V30 4914 H 445.909 -1.73766 6.28211 0
M  V30 4915 N 449.342 -1.36122 0.79427 0
M  V30 4916 C 450.274 -2.28683 0.153903 0
M  V30 4917 C 451.287 -1.49707 -0.639669 0
M  V30 4918 O 452.476 -1.7209 -0.474054 0
M  V30 4919 C 449.576 -3.29202 -0.804921 0
M  V30 4920 C 448.749 -4.37358 -0.060366 0
M  V30 4921 C 447.808 -5.17811 -0.935849 0
M  V30 4922 O 446.834 -5.67853 -0.391309 0
M  V30 4923 N 448.036 -5.34721 -2.25951 0
M  V30 4924 H 450.801 -2.84278 0.949008 0
M  V30 4925 H 448.362 -1.4834 0.648611 0
M  V30 4926 H 450.354 -3.79914 -1.39455 0
M  V30 4927 H 448.924 -2.74212 -1.50088 0
M  V30 4928 H 448.144 -3.87746 0.710382 0
M  V30 4929 H 449.432 -5.06777 0.45324 0
M  V30 4930 H 448.83 -4.95687 -2.72601 0
M  V30 4931 H 447.387 -5.88657 -2.79867 0
M  V30 4932 N 450.82 -0.546701 -1.47814 0
M  V30 4933 C 451.752 0.244196 -2.27895 0
M  V30 4934 C 452.765 0.88911 -1.36377 0
M  V30 4935 O 453.954 0.764733 -1.61289 0
M  V30 4936 C 451.054 1.36252 -3.10304 0
M  V30 4937 C 450.227 0.816382 -4.29714 0
M  V30 4938 C 449.286 1.81789 -4.93801 0
M  V30 4939 O 448.312 1.36818 -5.52512 0
M  V30 4940 N 449.514 3.15085 -4.87547 0
M  V30 4941 H 452.279 -0.442694 -2.96412 0
M  V30 4942 H 449.84 -0.382095 -1.57327 0
M  V30 4943 H 451.832 2.03102 -3.50045 0
M  V30 4944 H 450.402 1.95281 -2.44099 0
M  V30 4945 H 449.622 -0.0285981 -3.9419 0
M  V30 4946 H 450.91 0.430668 -5.06974 0
M  V30 4947 H 450.308 3.54275 -4.41028 0
M  V30 4948 H 448.865 3.77522 -5.31339 0
M  V30 4949 N 452.299 1.55045 -0.282633 0
M  V30 4950 C 453.71 1.85473 0.213655 0
M  V30 4951 C 454.061 1.20465 1.54863 0
M  V30 4952 O 453.186 0.495676 2.10647 0
M  V30 4953 C 453.781 3.36496 0.394445 0
M  V30 4954 C 452.34 3.67022 0.834961 0
M  V30 4955 C 451.487 2.77218 -0.0674081 0
M  V30 4956 H 454.438 1.50478 -0.504202 0
M  V30 4957 H 454.459 3.60007 1.23186 0
M  V30 4958 H 453.971 3.83782 -0.577326 0
M  V30 4959 H 452.072 3.25241 1.81794 0
M  V30 4960 H 452.185 4.74433 0.667075 0
M  V30 4961 H 450.549 2.5069 0.450196 0
M  V30 4962 H 451.332 3.2732 -1.0352 0
M  V30 4963 N 453.777 0.010035 1.57597 0
M  V30 4964 C 454.709 -1.00649 2.05918 0
M  V30 4965 C 455.722 -1.30077 0.978964 0
M  V30 4966 O 456.911 -1.26878 1.25556 0
M  V30 4967 C 454.011 -2.33876 2.45265 0
M  V30 4968 C 453.184 -2.23242 3.7614 0
M  V30 4969 C 452.243 -3.39242 4.02245 0
M  V30 4970 O 451.269 -3.1698 4.72771 0
M  V30 4971 N 452.471 -4.6242 3.50924 0
M  V30 4972 H 455.236 -0.594333 2.93748 0
M  V30 4973 H 452.797 -0.17714 1.60928 0
M  V30 4974 H 454.789 -3.1027 2.59836 0
M  V30 4975 H 453.359 -2.66799 1.62902 0
M  V30 4976 H 452.579 -1.31696 3.71551 0
M  V30 4977 H 453.867 -2.13321 4.61922 0
M  V30 4978 H 453.265 -4.83404 2.93832 0
M  V30 4979 H 451.822 -5.36046 3.70807 0
M  V30 4980 N 455.255 -1.55392 -0.262866 0
M  V30 4981 C 456.165 -1.92077 -1.34698 0
M  V30 4982 C 457.181 -0.819227 -1.53508 0
M  V30 4983 O 458.357 -1.11921 -1.67439 0
M  V30 4984 C 455.422 -2.19407 -2.68443 0
M  V30 4985 C 454.483 -3.42905 -2.58292 0
M  V30 4986 C 453.716 -3.68921 -3.85659 0
M  V30 4987 O 453.939 -2.97275 -4.8681 0
M  V30 4988 O 452.873 -4.62455 -3.85252 0
M  V30 4989 H 456.699 -2.84384 -1.06581 0
M  V30 4990 H 454.284 -1.42069 -0.462264 0
M  V30 4991 H 456.166 -2.38365 -3.47506 0
M  V30 4992 H 454.841 -1.30282 -2.96325 0
M  V30 4993 H 453.748 -3.29272 -1.7757 0
M  V30 4994 H 455.081 -4.32282 -2.35358 0
M  V30 4995 N 456.733 0.527833 -1.48498 0
M  V30 4996 C 457.643 1.65907 -1.65867 0
M  V30 4997 C 458.659 1.6537 -0.541192 0
M  V30 4998 O 459.835 1.84282 -0.812534 0
M  V30 4999 C 456.9 3.02364 -1.69637 0
M  V30 5000 C 455.961 3.1374 -2.93028 0
M  V30 5001 C 455.194 4.43688 -2.96609 0
M  V30 5002 O 455.417 5.30913 -2.08538 0
M  V30 5003 O 454.351 4.59475 -3.88802 0
M  V30 5004 H 458.177 1.5419 -2.61647 0
M  V30 5005 H 455.762 0.701163 -1.31924 0
M  V30 5006 H 457.644 3.83515 -1.74625 0
M  V30 5007 H 456.319 3.14401 -0.770312 0
M  V30 5008 H 455.226 2.31877 -2.93571 0
M  V30 5009 H 456.559 3.06621 -3.85026 0
M  V30 5010 N 458.211 1.37122 0.776871 0
M  V30 5011 C 459.436 1.354 1.57104 0
M  V30 5012 C 459.861 -0.0595562 1.88006 0
M  V30 5013 O 459.219 -1.03514 1.48844 0
M  V30 5014 C 459.267 2.19472 2.8612 0
M  V30 5015 O 458.371 1.59582 3.80273 0
M  V30 5016 H 457.712 0.462869 0.476076 0
M  V30 5017 H 460.242 1.80577 0.961932 0
M  V30 5018 H 460.252 2.32502 3.35271 0
M  V30 5019 H 458.927 3.22222 2.62956 0
M  V30 5020 H 457.504 1.55564 3.38902 0
M  V30 5021 N 459.689 -1.00246 1.21608 0
M  V30 5022 C 460.914 -1.78167 1.06167 0
M  V30 5023 C 461.339 -1.84138 -0.384035 0
M  V30 5024 O 460.697 -1.28683 -1.27712 0
M  V30 5025 C 460.745 -3.19786 1.66642 0
M  V30 5026 O 459.849 -4.02153 0.913613 0
M  V30 5027 H 459.19 -0.549 0.37349 0
M  V30 5028 H 461.72 -1.25994 1.61204 0
M  V30 5029 H 461.73 -3.70451 1.70969 0
M  V30 5030 H 460.405 -3.14754 2.7185 0
M  V30 5031 H 458.982 -3.60711 0.945635 0
M  V30 5032 N 461.167 -1.02423 -1.1978 0
M  V30 5033 C 462.578 -0.748389 -1.71044 0
M  V30 5034 C 462.929 0.732398 -1.82017 0
M  V30 5035 O 462.054 1.57116 -1.48807 0
M  V30 5036 C 462.649 -1.35187 -3.1066 0
M  V30 5037 C 461.208 -1.12472 -3.59203 0
M  V30 5038 C 460.355 -1.45283 -2.36195 0
M  V30 5039 H 463.306 -1.19275 -1.04686 0
M  V30 5040 H 463.327 -0.746408 -3.73107 0
M  V30 5041 H 462.839 -2.4296 -3.02642 0
M  V30 5042 H 460.94 -0.0649983 -3.72543 0
M  V30 5043 H 461.053 -1.81016 -4.43588 0
M  V30 5044 H 459.417 -0.872034 -2.39307 0
M  V30 5045 H 460.2 -2.54129 -2.30811 0
M  V30 5046 N 462.645 1.35699 -0.801477 0
M  V30 5047 C 463.577 2.28598 -0.166028 0
M  V30 5048 C 464.59 1.50044 0.631721 0
M  V30 5049 O 465.779 1.72339 0.464921 0
M  V30 5050 C 462.879 3.29625 0.787451 0
M  V30 5051 C 462.052 4.37384 0.037171 0
M  V30 5052 C 461.111 5.183 0.908375 0
M  V30 5053 O 460.137 5.68053 0.361189 0
M  V30 5054 N 461.339 5.35912 2.23112 0
M  V30 5055 H 464.104 2.83771 -0.964071 0
M  V30 5056 H 461.665 1.47994 -0.656469 0
M  V30 5057 H 463.657 3.80648 1.37439 0
M  V30 5058 H 462.227 2.75004 1.48632 0
M  V30 5059 H 461.447 3.87364 -0.730935 0
M  V30 5060 H 462.735 5.0653 -0.480109 0
M  V30 5061 H 462.133 4.97125 2.69968 0
M  V30 5062 H 460.69 5.90133 2.76741 0
M  V30 5063 N 464.123 0.554532 1.47522 0
M  V30 5064 C 465.348 0.0322661 2.07375 0
M  V30 5065 C 465.773 -1.25079 1.40488 0
M  V30 5066 O 465.131 -1.74859 0.47896 0
M  V30 5067 C 465.179 -0.149397 3.6029 0
M  V30 5068 O 464.283 -1.21259 3.9417 0
M  V30 5069 H 463.624 0.0501228 0.662106 0
M  V30 5070 H 466.154 0.769452 1.8958 0
M  V30 5071 H 466.164 -0.364437 4.06369 0
M  V30 5072 H 464.839 0.787743 4.08372 0
M  V30 5073 H 463.416 -0.97825 3.5984 0
M  V30 5074 N 465.601 -1.54893 0.290851 0
M  V30 5075 C 466.878 -1.91991 -0.373989 0
M  V30 5076 C 467.258 -1.21694 -1.72493 0
M  V30 5077 O 466.606 -0.34917 -2.25816 0
M  V30 5078 C 466.816 -3.45419 -0.498703 0
M  V30 5079 C 468.164 -4.1748 -0.774298 0
M  V30 5080 O 469.188 -3.51398 -0.582908 0
M  V30 5081 O 468.047 -5.3445 -1.14129 0
M  V30 5082 H 465.141 -0.800593 -0.207315 0
M  V30 5083 H 467.687 -1.66297 0.338164 0
M  V30 5084 H 466.459 -3.88688 0.451392 0
M  V30 5085 H 466.082 -3.77117 -1.25972 0
M  V30 5086 N 467.08 -0.0183926 -1.57589 0
M  V30 5087 C 468.329 0.66185 -1.90532 0
M  V30 5088 C 468.642 1.73904 -0.895366 0
M  V30 5089 O 469.848 2.47518 -1.11566 0
M  V30 5090 C 468.304 1.22844 -3.38286 0
M  V30 5091 C 467.912 0.185103 -4.47617 0
M  V30 5092 C 469.656 1.88581 -3.80312 0
M  V30 5093 C 467.563 0.762723 -5.86461 0
M  V30 5094 H 466.493 0.250972 -0.711006 0
M  V30 5095 H 469.144 -0.0819435 -1.83317 0
M  V30 5096 H 467.526 2.0235 -3.40398 0
M  V30 5097 H 468.7 -0.58671 -4.5705 0
M  V30 5098 H 467.015 -0.372889 -4.14727 0
M  V30 5099 H 469.612 2.32735 -4.81392 0
M  V30 5100 H 469.955 2.72408 -3.14801 0
M  V30 5101 H 470.488 1.15782 -3.80578 0
M  V30 5102 H 467.227 -0.0371713 -6.55489 0
M  V30 5103 H 466.747 1.50327 -5.80656 0
M  V30 5104 H 468.426 1.25576 -6.34697 0
M  V30 5105 N 468.558 1.5553 0.254621 0
M  V30 5106 C 469.969 1.67518 0.824286 0
M  V30 5107 C 470.32 0.614429 1.86331 0
M  V30 5108 O 469.445 -0.240736 2.15057 0
M  V30 5109 C 470.04 3.03692 1.50189 0
M  V30 5110 C 468.599 3.17646 2.01935 0
M  V30 5111 C 467.746 2.63373 0.867746 0
M  V30 5112 H 470.697 1.58671 0.0305843 0
M  V30 5113 H 470.718 2.97706 2.36962 0
M  V30 5114 H 470.23 3.80874 0.745431 0
M  V30 5115 H 468.331 2.45273 2.80485 0
M  V30 5116 H 468.444 4.24455 2.22204 0
M  V30 5117 H 466.808 2.20999 1.26616 0
M  V30 5118 H 467.591 3.43074 0.124498 0
M  V30 5119 N 470.036 -0.519951 1.48776 0
M  V30 5120 C 470.999 -1.60574 1.6355 0
M  V30 5121 C 471.999 -1.52557 0.508234 0
M  V30 5122 O 473.189 -1.56047 0.774262 0
M  V30 5123 C 470.321 -3.00211 1.61512 0
M  V30 5124 H 471.514 -1.4881 2.60376 0
M  V30 5125 H 469.067 -0.742772 1.37523 0
M  V30 5126 H 469.802 -3.17471 0.662009 0
M  V30 5127 H 469.587 -3.07439 2.43359 0
M  V30 5128 H 471.077 -3.79134 1.75064 0
M  V30 5129 N 471.514 -1.37532 -0.769588 0
M  V30 5130 C 472.925 -1.29382 -1.346 0
M  V30 5131 C 473.276 0.0576039 -1.96115 0
M  V30 5132 O 472.401 0.95947 -1.93967 0
M  V30 5133 C 472.996 -2.34298 -2.44724 0
M  V30 5134 C 471.555 -2.29776 -2.98128 0
M  V30 5135 C 470.702 -2.18013 -1.71364 0
M  V30 5136 H 473.653 -1.48123 -0.56968 0
M  V30 5137 H 473.674 -1.99089 -3.24259 0
M  V30 5138 H 473.186 -3.32645 -1.99922 0
M  V30 5139 H 471.287 -1.34959 -3.47299 0
M  V30 5140 H 471.4 -3.23276 -3.53595 0
M  V30 5141 H 469.764 -1.64595 -1.94372 0
M  V30 5142 H 470.547 -3.18278 -1.28662 0
M  V30 5143 N 472.992 0.995999 -1.22138 0
M  V30 5144 C 474.403 1.54961 -1.04135 0
M  V30 5145 C 474.754 1.92159 0.396147 0
M  V30 5146 O 473.879 1.74435 1.28069 0
M  V30 5147 C 474.474 2.81581 -1.88408 0
M  V30 5148 C 473.033 3.33396 -1.74712 0
M  V30 5149 C 472.18 2.06509 -1.85066 0
M  V30 5150 H 475.131 0.817436 -1.36028 0
M  V30 5151 H 475.152 3.53822 -1.39966 0
M  V30 5152 H 474.664 2.54476 -2.93025 0
M  V30 5153 H 472.765 3.65416 -0.728159 0
M  V30 5154 H 472.878 4.04208 -2.57202 0
M  V30 5155 H 471.242 2.19925 -1.28472 0
M  V30 5156 H 472.025 1.81804 -2.91208 0
M  V30 5157 N 474.47 1.03057 1.19235 0
M  V30 5158 C 475.695 0.74757 1.93458 0
M  V30 5159 C 476.12 -0.687648 1.7508 0
M  V30 5160 O 475.478 -1.47499 1.05422 0
M  V30 5161 C 475.526 1.10604 3.43219 0
M  V30 5162 O 474.63 0.225671 4.11782 0
M  V30 5163 H 473.971 0.276047 0.603899 0
M  V30 5164 H 476.501 1.3777 1.51263 0
M  V30 5165 H 476.511 1.06366 3.93891 0
M  V30 5166 H 475.186 2.15165 3.55917 0
M  V30 5167 H 473.763 0.326795 3.71465 0
M  V30 5168 N 475.948 -1.35272 0.808662 0
M  V30 5169 C 477.173 -2.03477 0.401475 0
M  V30 5170 C 477.598 -1.60537 -0.980279 0
M  V30 5171 O 476.956 -0.78304 -1.63518 0
M  V30 5172 C 477.004 -3.57181 0.495354 0
M  V30 5173 O 476.108 -4.09474 -0.490397 0
M  V30 5174 H 475.449 -0.642561 0.167366 0
M  V30 5175 H 477.979 -1.72824 1.09512 0
M  V30 5176 H 477.989 -4.06356 0.365912 0
M  V30 5177 H 476.664 -3.87784 1.5032 0
M  V30 5178 H 475.241 -3.71516 -0.321023 0
M  V30 5179 N 477.426 -0.562348 -1.47226 0
M  V30 5180 C 478.373 0.182461 -2.30078 0
M  V30 5181 C 479.343 0.903503 -1.39377 0
M  V30 5182 O 480.528 0.898188 -1.68337 0
M  V30 5183 C 477.668 1.20322 -3.23445 0
M  V30 5184 C 476.781 0.487717 -4.29238 0
M  V30 5185 C 475.916 1.49422 -5.09752 0
M  V30 5186 C 474.955 0.763976 -6.07314 0
M  V30 5187 N 474.092 1.71755 -6.80768 0
M  V30 5188 H 478.932 -0.530169 -2.93246 0
M  V30 5189 H 476.469 -0.273276 -1.44539 0
M  V30 5190 H 478.427 1.80768 -3.76004 0
M  V30 5191 H 477.057 1.88382 -2.6213 0
M  V30 5192 H 476.109 -0.231374 -3.79696 0
M  V30 5193 H 477.421 -0.0841003 -4.98729 0
M  V30 5194 H 476.575 2.17206 -5.66486 0
M  V30 5195 H 475.314 2.09995 -4.40174 0
M  V30 5196 H 474.319 0.0722344 -5.49753 0
M  V30 5197 H 475.544 0.16391 -6.78902 0
M  V30 5198 H 473.49 2.31177 -6.13916 0
M  V30 5199 H 473.407 1.19802 -7.46447 0
M  V30 5200 H 474.675 2.38638 -7.42073 0
M  V30 5201 N 478.904 1.54736 -0.299062 0
M  V30 5202 C 479.867 2.22127 0.565012 0
M  V30 5203 C 480.867 1.20669 1.06281 0
M  V30 5204 O 482.057 1.45417 0.959145 0
M  V30 5205 C 479.189 2.90611 1.78208 0
M  V30 5206 H 480.382 2.99891 -0.0237448 0
M  V30 5207 H 477.935 1.5622 -0.0498788 0
M  V30 5208 H 478.67 2.16921 2.41072 0
M  V30 5209 H 478.455 3.64984 1.43281 0
M  V30 5210 H 479.945 3.42026 2.396 0
M  V30 5211 N 480.382 0.0267497 1.57577 0
M  V30 5212 C 481.793 -0.512413 1.79531 0
M  V30 5213 C 482.144 -1.72391 0.936791 0
M  V30 5214 O 481.269 -2.15903 0.146543 0
M  V30 5215 C 481.864 -0.936378 3.25603 0
M  V30 5216 C 480.423 -1.42067 3.4856 0
M  V30 5217 C 479.57 -0.384278 2.74624 0
M  V30 5218 H 482.521 0.252797 1.56674 0
M  V30 5219 H 482.542 -1.80088 3.35184 0
M  V30 5220 H 482.054 -0.0544332 3.88062 0
M  V30 5221 H 480.155 -2.32262 2.9135 0
M  V30 5222 H 480.268 -1.42968 4.57271 0
M  V30 5223 H 478.632 -0.851855 2.40032 0
M  V30 5224 H 479.415 0.489159 3.39797 0
M  V30 5225 N 481.861 -1.55662 -0.24637 0
M  V30 5226 C 483.109 -1.77168 -0.972411 0
M  V30 5227 C 483.43 -0.590827 -1.85834 0
M  V30 5228 O 482.7 0.393365 -1.9191 0
M  V30 5229 H 481.28 -0.653405 -0.362038 0
M  V30 5230 H 483.942 -1.93101 -0.264189 0
M  V30 5231 H 483.038 -2.68335 -1.59382 0
M  V30 5232 N 483.339 0.512053 -1.4905 0
M  V30 5233 C 484.755 0.84224 -1.35567 0
M  V30 5234 C 484.955 1.97878 -0.380319 0
M  V30 5235 O 484.011 2.51769 0.19201 0
M  V30 5236 C 485.324 1.19286 -2.76028 0
M  V30 5237 C 486.872 1.30171 -2.84648 0
M  V30 5238 C 487.347 1.68568 -4.25851 0
M  V30 5239 N 488.838 1.75638 -4.28609 0
M  V30 5240 C 489.573 2.06769 -5.34821 0
M  V30 5241 N 489.069 2.36201 -6.51292 0
M  V30 5242 N 490.862 2.07927 -5.22229 0
M  V30 5243 H 483.013 -0.237574 -2.11067 0
M  V30 5244 H 485.276 -0.0436747 -0.946993 0
M  V30 5245 H 484.982 0.431199 -3.49047 0
M  V30 5246 H 484.856 2.13889 -3.10695 0
M  V30 5247 H 487.243 2.05411 -2.11873 0
M  V30 5248 H 487.324 0.336457 -2.53578 0
M  V30 5249 H 486.968 0.938824 -4.99148 0
M  V30 5250 H 486.898 2.66174 -4.54377 0
M  V30 5251 H 489.389 1.55097 -3.44606 0
M  V30 5252 H 489.702 2.59112 -7.28066 0
M  V30 5253 H 488.047 2.33681 -6.54536 0
M  V30 5254 H 491.238 1.84403 -4.30248 0
M  V30 5255 H 491.411 2.31856 -6.05101 0
M  V30 5256 N 484.817 1.37938 0.762283 0
M  V30 5257 C 486.228 1.30094 1.33912 0
M  V30 5258 C 486.579 -0.0472026 1.96143 0
M  V30 5259 O 485.704 -0.94917 1.94473 0
M  V30 5260 C 486.299 2.35592 2.43478 0
M  V30 5261 C 484.858 2.31353 2.96905 0
M  V30 5262 C 484.005 2.18919 1.70205 0
M  V30 5263 H 486.956 1.48423 0.561816 0
M  V30 5264 H 486.977 2.00806 3.23199 0
M  V30 5265 H 486.489 3.33701 1.98155 0
M  V30 5266 H 484.59 1.36799 3.46579 0
M  V30 5267 H 484.703 3.25147 3.51875 0
M  V30 5268 H 483.067 1.65624 1.93496 0
M  V30 5269 H 483.85 3.18956 1.26973 0
M  V30 5270 N 486.295 -0.989507 1.22664 0
M  V30 5271 C 487.227 -2.0824 0.957542 0
M  V30 5272 C 488.24 -1.6267 -0.0651098 0
M  V30 5273 O 489.429 -1.77695 0.169312 0
M  V30 5274 C 486.529 -3.36298 0.419145 0
M  V30 5275 C 485.702 -4.10882 1.49982 0
M  V30 5276 C 484.761 -5.17221 0.967904 0
M  V30 5277 O 483.787 -5.44613 1.65487 0
M  V30 5278 N 484.989 -5.80124 -0.20896 0
M  V30 5279 H 487.754 -2.31904 1.89843 0
M  V30 5280 H 485.315 -1.15552 1.13399 0
M  V30 5281 H 487.307 -4.04671 0.0485451 0
M  V30 5282 H 485.877 -3.09671 -0.426937 0
M  V30 5283 H 485.097 -3.37092 2.04359 0
M  V30 5284 H 486.385 -4.57482 2.22682 0
M  V30 5285 H 485.783 -5.60244 -0.783818 0
M  V30 5286 H 484.34 -6.49715 -0.520913 0
M  V30 5287 N 487.773 -1.03688 -1.18687 0
M  V30 5288 C 488.703 -0.645407 -2.24403 0
M  V30 5289 C 489.684 0.349511 -1.66471 0
M  V30 5290 O 490.869 0.230453 -1.92828 0
M  V30 5291 C 487.999 -0.00365337 -3.473 0
M  V30 5292 C 486.953 -0.921705 -4.17958 0
M  V30 5293 C 486.279 -0.144629 -5.34504 0
M  V30 5294 C 487.579 -2.23909 -4.71871 0
M  V30 5295 H 489.273 -1.52917 -2.57404 0
M  V30 5296 H 486.819 -0.736711 -1.23728 0
M  V30 5297 H 488.772 0.281908 -4.20456 0
M  V30 5298 H 487.496 0.914963 -3.13522 0
M  V30 5299 H 486.155 -1.19159 -3.46694 0
M  V30 5300 H 485.803 0.776274 -4.96974 0
M  V30 5301 H 485.503 -0.756206 -5.82714 0
M  V30 5302 H 487.027 0.134004 -6.10453 0
M  V30 5303 H 488.441 -2.0145 -5.36741 0
M  V30 5304 H 486.838 -2.8033 -5.30599 0
M  V30 5305 H 487.908 -2.88822 -3.895 0
M  V30 5306 N 489.251 1.34841 -0.815825 0
M  V30 5307 C 490.476 2.03261 -0.41226 0
M  V30 5308 C 490.901 1.61055 0.971751 0
M  V30 5309 O 490.259 0.7917 1.63101 0
M  V30 5310 C 490.307 3.56914 -0.514289 0
M  V30 5311 O 489.411 4.09728 0.468675 0
M  V30 5312 H 488.752 0.641664 -0.170771 0
M  V30 5313 H 491.282 1.72241 -1.10427 0
M  V30 5314 H 491.292 4.06156 -0.387457 0
M  V30 5315 H 489.967 3.86982 -1.52375 0
M  V30 5316 H 488.544 3.71681 0.301316 0
M  V30 5317 N 490.729 0.570148 1.46925 0
M  V30 5318 C 492.14 0.1402 1.86173 0
M  V30 5319 C 492.491 -1.29347 1.47526 0
M  V30 5320 O 491.616 -1.97508 0.884292 0
M  V30 5321 C 492.211 0.247661 3.37894 0
M  V30 5322 C 490.77 -0.127332 3.76185 0
M  V30 5323 C 489.917 0.589349 2.70965 0
M  V30 5324 H 492.868 0.779117 1.38259 0
M  V30 5325 H 492.889 -0.530341 3.76786 0
M  V30 5326 H 492.401 1.29121 3.65991 0
M  V30 5327 H 490.502 -1.17149 3.53704 0
M  V30 5328 H 490.615 0.240238 4.78497 0
M  V30 5329 H 488.979 0.0309824 2.54681 0
M  V30 5330 H 489.762 1.6343 3.01903 0
M  V30 5331 N 492.207 -1.54576 0.307264 0
M  V30 5332 C 493.455 -1.99867 -0.299574 0
M  V30 5333 C 493.776 -1.19714 -1.53927 0
M  V30 5334 O 493.046 -0.29472 -1.9367 0
M  V30 5335 H 491.626 -0.738299 -0.113683 0
M  V30 5336 H 494.288 -1.9032 0.420042 0
M  V30 5337 H 493.384 -3.06901 -0.567283 0
M  V30 5338 N 493.685 -0.035106 -1.57561 0
M  V30 5339 C 494.617 0.973604 -2.07494 0
M  V30 5340 C 495.63 1.28504 -0.999534 0
M  V30 5341 O 496.819 1.24864 -1.27559 0
M  V30 5342 C 493.919 2.29945 -2.48955 0
M  V30 5343 C 493.092 2.1723 -3.79644 0
M  V30 5344 C 492.151 3.328 -4.07592 0
M  V30 5345 O 491.177 3.09418 -4.77754 0
M  V30 5346 N 492.379 4.56779 -3.58236 0
M  V30 5347 H 495.144 0.547525 -2.94656 0
M  V30 5348 H 492.705 0.151515 -1.61189 0
M  V30 5349 H 494.697 3.06097 -2.64739 0
M  V30 5350 H 493.267 2.64173 -1.67126 0
M  V30 5351 H 492.487 1.25768 -3.73599 0
M  V30 5352 H 493.775 2.05945 -4.65257 0
M  V30 5353 H 493.173 4.78668 -3.01485 0
M  V30 5354 H 491.73 5.30079 -3.79288 0
M  V30 5355 N 495.163 1.55791 0.238111 0
M  V30 5356 C 496.11 1.9105 1.29493 0
M  V30 5357 C 497.08 0.765733 1.47397 0
M  V30 5358 O 498.265 1.02017 1.61236 0
M  V30 5359 C 495.405 2.21826 2.64362 0
M  V30 5360 C 494.518 3.49153 2.54394 0
M  V30 5361 C 493.653 3.69455 3.81676 0
M  V30 5362 C 492.692 4.90353 3.66361 0
M  V30 5363 N 491.829 5.07131 4.85554 0
M  V30 5364 H 496.669 2.81172 0.987233 0
M  V30 5365 H 494.206 1.39179 0.476203 0
M  V30 5366 H 496.164 2.37675 3.4288 0
M  V30 5367 H 494.794 1.34897 2.93262 0
M  V30 5368 H 493.846 3.41587 1.67399 0
M  V30 5369 H 495.158 4.37818 2.38991 0
M  V30 5370 H 494.312 3.85311 4.68636 0
M  V30 5371 H 493.051 2.7904 3.99985 0
M  V30 5372 H 492.056 4.74464 2.77784 0
M  V30 5373 H 493.281 5.82237 3.49538 0
M  V30 5374 H 491.227 4.19654 5.04209 0
M  V30 5375 H 491.144 5.89899 4.72816 0
M  V30 5376 H 492.412 5.27407 5.73988 0
M  V30 5377 N 496.642 -0.504142 1.49319 0
M  V30 5378 C 497.574 -1.62265 1.61872 0
M  V30 5379 C 498.587 -1.54881 0.501573 0
M  V30 5380 O 499.776 -1.6087 0.773497 0
M  V30 5381 C 496.876 -3.01042 1.55651 0
M  V30 5382 C 496.049 -3.33642 2.82845 0
M  V30 5383 C 495.108 -4.51816 2.69719 0
M  V30 5384 O 494.134 -4.53755 3.4365 0
M  V30 5385 N 495.336 -5.51543 1.81055 0
M  V30 5386 H 498.101 -1.51924 2.58339 0
M  V30 5387 H 495.662 -0.691954 1.46368 0
M  V30 5388 H 497.654 -3.78013 1.44528 0
M  V30 5389 H 496.224 -3.05323 0.670546 0
M  V30 5390 H 495.444 -2.45598 3.08343 0
M  V30 5391 H 496.732 -3.5222 3.67177 0
M  V30 5392 H 496.13 -5.52774 1.20241 0
M  V30 5393 H 494.687 -6.27629 1.75856 0
M  V30 5394 N 498.12 -1.38341 -0.754957 0
M  V30 5395 C 499.067 -1.3546 -1.86867 0
M  V30 5396 C 500.037 -0.217369 -1.64672 0
M  V30 5397 O 501.222 -0.409383 -1.86356 0
M  V30 5398 C 498.362 -1.18413 -3.24149 0
M  V30 5399 C 497.475 -2.41511 -3.58185 0
M  V30 5400 C 496.61 -2.17205 -4.84763 0
M  V30 5401 C 495.649 -3.36081 -5.11582 0
M  V30 5402 N 494.786 -3.11219 -6.29354 0
M  V30 5403 H 499.626 -2.30672 -1.88664 0
M  V30 5404 H 497.163 -1.14607 -0.922154 0
M  V30 5405 H 499.121 -1.06545 -4.03366 0
M  V30 5406 H 497.751 -0.268397 -3.21682 0
M  V30 5407 H 496.803 -2.64056 -2.73822 0
M  V30 5408 H 498.115 -3.30115 -3.73932 0
M  V30 5409 H 497.269 -2.02465 -5.7192 0
M  V30 5410 H 496.008 -1.25964 -4.71152 0
M  V30 5411 H 495.013 -3.51341 -4.22894 0
M  V30 5412 H 496.238 -4.28196 -5.27091 0
M  V30 5413 H 494.184 -2.22624 -6.17069 0
M  V30 5414 H 494.101 -3.93373 -6.45596 0
M  V30 5415 H 495.369 -3.00132 -7.19403 0
M  V30 5416 N 499.598 0.982988 -1.23187 0
M  V30 5417 C 500.508 2.10907 -1.02739 0
M  V30 5418 C 501.524 1.73979 0.0273188 0
M  V30 5419 O 502.7 2.00702 -0.16757 0
M  V30 5420 C 499.765 3.41142 -0.618304 0
M  V30 5421 C 498.826 3.92112 -1.74777 0
M  V30 5422 C 498.059 5.16131 -1.3581 0
M  V30 5423 O 498.282 5.6989 -0.241201 0
M  V30 5424 O 497.216 5.61103 -2.17824 0
M  V30 5425 H 501.042 2.31046 -1.97108 0
M  V30 5426 H 498.627 1.09284 -1.01869 0
M  V30 5427 H 500.509 4.19488 -0.400982 0
M  V30 5428 H 499.184 3.2234 0.296421 0
M  V30 5429 H 498.091 3.14895 -2.0197 0
M  V30 5430 H 499.424 4.15364 -2.64071 0
M  V30 5431 N 501.076 1.04316 1.18135 0
M  V30 5432 C 501.986 0.646876 2.25505 0
M  V30 5433 C 503.002 -0.328008 1.7088 0
M  V30 5434 O 504.178 -0.182309 2.00573 0
M  V30 5435 C 501.243 0.0185664 3.46695 0
M  V30 5436 C 500.304 1.04277 4.16443 0
M  V30 5437 C 499.537 0.444352 5.31847 0
M  V30 5438 O 499.76 -0.748735 5.65465 0
M  V30 5439 O 498.694 1.17428 5.90334 0
M  V30 5440 H 502.52 1.54147 2.61672 0
M  V30 5441 H 500.105 0.814188 1.25265 0
M  V30 5442 H 501.987 -0.331068 4.20097 0
M  V30 5443 H 500.662 -0.849814 3.12346 0
M  V30 5444 H 499.569 1.44425 3.45098 0
M  V30 5445 H 500.902 1.882 4.54798 0
M  V30 5446 N 502.554 -1.34406 0.822964 0
M  V30 5447 C 503.965 -1.8069 0.469879 0
M  V30 5448 C 504.316 -1.68223 -1.00972 0
M  V30 5449 O 503.441 -1.22226 -1.78577 0
M  V30 5450 C 504.036 -3.28064 0.846118 0
M  V30 5451 C 502.595 -3.72428 0.545402 0
M  V30 5452 C 501.742 -2.56116 1.06301 0
M  V30 5453 H 504.693 -1.22153 1.01313 0
M  V30 5454 H 504.714 -3.80205 0.149922 0
M  V30 5455 H 504.226 -3.37107 1.92304 0
M  V30 5456 H 502.327 -3.68924 -0.522109 0
M  V30 5457 H 502.44 -4.66548 1.0895 0
M  V30 5458 H 500.804 -2.50048 0.484554 0
M  V30 5459 H 501.587 -2.67928 2.14638 0
M  V30 5460 N 504.032 -0.577932 -1.46621 0
M  V30 5461 C 504.979 0.158048 -2.30258 0
M  V30 5462 C 505.949 0.888669 -1.40328 0
M  V30 5463 O 507.134 0.880283 -1.6928 0
M  V30 5464 C 504.274 1.16884 -3.24703 0
M  V30 5465 C 503.387 0.442163 -4.29731 0
M  V30 5466 C 502.522 1.44007 -5.11308 0
M  V30 5467 C 501.561 0.69952 -6.0809 0
M  V30 5468 N 500.698 1.64525 -6.82551 0
M  V30 5469 H 505.538 -0.561242 -2.92667 0
M  V30 5470 H 503.075 -0.288591 -1.44241 0
M  V30 5471 H 505.033 1.7677 -3.779 0
M  V30 5472 H 503.663 1.85591 -2.64113 0
M  V30 5473 H 502.715 -0.271632 -3.79429 0
M  V30 5474 H 504.027 -0.136992 -4.98612 0
M  V30 5475 H 503.181 2.11186 -5.68758 0
M  V30 5476 H 501.92 2.05315 -4.42377 0
M  V30 5477 H 500.925 0.0139217 -5.49798 0
M  V30 5478 H 502.15 0.091894 -6.79038 0
M  V30 5479 H 500.096 2.24653 -6.16334 0
M  V30 5480 H 500.013 1.11878 -7.47676 0
M  V30 5481 H 501.281 2.30754 -7.44562 0
M  V30 5482 N 505.51 1.54411 -0.315457 0
M  V30 5483 C 506.42 2.27737 0.56329 0
M  V30 5484 C 507.436 1.31787 1.13614 0
M  V30 5485 O 508.612 1.64791 1.15784 0
M  V30 5486 C 505.677 3.01478 1.71207 0
M  V30 5487 C 504.738 4.12997 1.17185 0
M  V30 5488 C 503.971 4.83212 2.26588 0
M  V30 5489 O 504.194 4.52884 3.46775 0
M  V30 5490 O 503.128 5.70299 1.92463 0
M  V30 5491 H 506.954 3.03683 -0.0319614 0
M  V30 5492 H 504.539 1.49178 -0.0814188 0
M  V30 5493 H 506.421 3.47683 2.38106 0
M  V30 5494 H 505.096 2.28414 2.29366 0
M  V30 5495 H 504.003 3.71159 0.468174 0
M  V30 5496 H 505.336 4.8808 0.635501 0
M  V30 5497 N 506.988 0.0434614 1.5754 0
M  V30 5498 C 508.234 -0.632971 1.92669 0
M  V30 5499 C 508.567 -1.70947 0.921446 0
M  V30 5500 O 507.842 -1.94426 -0.0537202 0
M  V30 5501 C 508.125 -1.23619 3.38216 0
M  V30 5502 C 507.978 -0.168274 4.49485 0
M  V30 5503 C 509.297 -2.15008 3.84005 0
M  V30 5504 H 506.416 -0.228629 0.700641 0
M  V30 5505 H 509.058 0.103651 1.89717 0
M  V30 5506 H 507.208 -1.864 3.40863 0
M  V30 5507 H 508.88 0.463196 4.58969 0
M  V30 5508 H 507.123 0.504581 4.30855 0
M  V30 5509 H 507.794 -0.630218 5.48391 0
M  V30 5510 H 510.27 -1.62198 3.83185 0
M  V30 5511 H 509.146 -2.54161 4.86511 0
M  V30 5512 H 509.407 -3.04707 3.20322 0
M  V30 5513 N 508.466 -1.55915 -0.229846 0
M  V30 5514 C 509.413 -1.91734 -1.28478 0
M  V30 5515 C 510.383 -0.773539 -1.46988 0
M  V30 5516 O 511.568 -1.02871 -1.60693 0
M  V30 5517 C 508.708 -2.23224 -2.63182 0
M  V30 5518 C 507.821 -3.50497 -2.52539 0
M  V30 5519 C 506.956 -3.71474 -3.79711 0
M  V30 5520 C 505.995 -4.92289 -3.63755 0
M  V30 5521 N 505.132 -5.09698 -4.82858 0
M  V30 5522 H 509.972 -2.81692 -0.972308 0
M  V30 5523 H 507.509 -1.39429 -0.468815 0
M  V30 5524 H 509.467 -2.3949 -3.41614 0
M  V30 5525 H 508.097 -1.36451 -2.92542 0
M  V30 5526 H 507.149 -3.4247 -1.65585 0
M  V30 5527 H 508.461 -4.39079 -2.36666 0
M  V30 5528 H 507.615 -3.87791 -4.66586 0
M  V30 5529 H 506.354 -2.81157 -3.985 0
M  V30 5530 H 505.359 -4.7593 -2.75264 0
M  V30 5531 H 506.584 -5.84083 -3.46445 0
M  V30 5532 H 504.53 -4.22322 -5.01976 0
M  V30 5533 H 504.447 -5.92399 -4.69681 0
M  V30 5534 H 505.715 -5.30443 -5.71183 0
M  V30 5535 N 509.944 0.496216 -1.49584 0
M  V30 5536 C 510.874 1.60576 -1.69521 0
M  V30 5537 C 511.855 1.61169 -0.543933 0
M  V30 5538 O 513.04 1.77834 -0.78031 0
M  V30 5539 C 510.17 2.99038 -1.76616 0
M  V30 5540 C 509.124 3.13312 -2.91581 0
M  V30 5541 C 508.45 4.53172 -2.83794 0
M  V30 5542 C 509.75 2.92886 -4.32452 0
M  V30 5543 H 511.444 1.44146 -2.62416 0
M  V30 5544 H 508.99 0.692024 -1.26282 0
M  V30 5545 H 510.943 3.76564 -1.8915 0
M  V30 5546 H 509.667 3.16568 -0.80324 0
M  V30 5547 H 508.326 2.38213 -2.78658 0
M  V30 5548 H 507.974 4.67585 -1.854 0
M  V30 5549 H 507.674 4.63662 -3.60958 0
M  V30 5550 H 509.198 5.32752 -2.98342 0
M  V30 5551 H 510.612 3.60178 -4.46032 0
M  V30 5552 H 509.009 3.14844 -5.10875 0
M  V30 5553 H 510.079 1.88966 -4.46565 0
M  V30 5554 N 511.423 1.38739 0.74761 0
M  V30 5555 C 512.648 1.38702 1.54197 0
M  V30 5556 C 513.073 -0.019664 1.8809 0
M  V30 5557 O 512.431 -1.00333 1.51006 0
M  V30 5558 C 512.479 2.25492 2.814 0
M  V30 5559 O 511.583 1.67613 3.76802 0
M  V30 5560 H 510.924 0.472863 0.466151 0
M  V30 5561 H 513.454 1.82577 0.923413 0
M  V30 5562 H 513.464 2.39561 3.30264 0
M  V30 5563 H 512.139 3.27727 2.56062 0
M  V30 5564 H 510.716 1.62718 3.35526 0
M  V30 5565 N 512.901 -0.976442 1.23707 0
M  V30 5566 C 514.147 -1.72081 1.07312 0
M  V30 5567 C 514.48 -1.90275 -0.388476 0
M  V30 5568 O 513.755 -1.4579 -1.28746 0
M  V30 5569 C 514.038 -3.11675 1.80363 0
M  V30 5570 C 513.891 -3.01027 3.3422 0
M  V30 5571 C 515.21 -4.1117 1.5693 0
M  V30 5572 H 512.329 -0.624583 0.391236 0
M  V30 5573 H 514.971 -1.13649 1.52263 0
M  V30 5574 H 513.121 -3.61559 1.42153 0
M  V30 5575 H 514.793 -2.58637 3.81975 0
M  V30 5576 H 513.036 -2.3744 3.63049 0
M  V30 5577 H 513.707 -3.9988 3.80525 0
M  V30 5578 H 516.183 -3.7011 1.90151 0
M  V30 5579 H 515.059 -5.06928 2.10513 0
M  V30 5580 H 515.32 -4.392 0.505548 0
M  V30 5581 N 514.379 -1.04941 -1.1758 0
M  V30 5582 C 515.79 -0.784501 -1.69418 0
M  V30 5583 C 516.141 0.693625 -1.8353 0
M  V30 5584 O 515.266 1.53925 -1.52106 0
M  V30 5585 C 515.861 -1.41746 -3.07723 0
M  V30 5586 C 514.42 -1.20066 -3.56737 0
M  V30 5587 C 513.567 -1.5026 -2.33061 0
M  V30 5588 H 516.518 -1.21469 -1.02133 0
M  V30 5589 H 516.539 -0.825381 -3.7144 0
M  V30 5590 H 516.051 -2.49325 -2.9742 0
M  V30 5591 H 514.152 -0.144006 -3.72322 0
M  V30 5592 H 514.265 -1.90384 -4.39648 0
M  V30 5593 H 512.629 -0.922598 -2.37403 0
M  V30 5594 H 513.412 -2.58967 -2.25368 0
M  V30 5595 N 515.857 1.33968 -0.830081 0
M  V30 5596 C 516.79 2.27303 -0.202182 0
M  V30 5597 C 517.768 1.49235 0.645581 0
M  V30 5598 O 518.952 1.78433 0.607762 0
M  V30 5599 C 516.079 3.31025 0.716932 0
M  V30 5600 C 515.125 4.26466 -0.0542271 0
M  V30 5601 S 515.958 5.16707 -1.40622 0
M  V30 5602 C 517.114 6.23962 -0.492167 0
M  V30 5603 H 517.347 2.8021 -0.99346 0
M  V30 5604 H 514.88 1.41124 -0.626359 0
M  V30 5605 H 516.838 3.91271 1.24165 0
M  V30 5606 H 515.499 2.76951 1.4818 0
M  V30 5607 H 514.692 4.99858 0.644785 0
M  V30 5608 H 514.294 3.7051 -0.509722 0
M  V30 5609 H 516.586 6.76774 0.31347 0
M  V30 5610 H 517.529 6.97927 -1.19599 0
M  V30 5611 H 517.937 5.64447 -0.0774176 0
M  V30 5612 N 517.335 0.585699 1.46312 0
M  V30 5613 C 518.746 0.159938 1.86014 0
M  V30 5614 C 519.097 -1.27775 1.48889 0
M  V30 5615 O 518.222 -1.96559 0.90519 0
M  V30 5616 C 518.817 0.283485 3.37612 0
M  V30 5617 C 517.376 -0.0874256 3.76298 0
M  V30 5618 C 516.523 0.618055 2.70325 0
M  V30 5619 H 519.474 0.793737 1.37425 0
M  V30 5620 H 519.495 -0.490348 3.77327 0
M  V30 5621 H 519.007 1.32995 3.64601 0
M  V30 5622 H 517.108 -1.13391 3.54927 0
M  V30 5623 H 517.221 0.290975 4.78216 0
M  V30 5624 H 515.585 0.057993 2.54634 0
M  V30 5625 H 516.368 1.66623 3.00153 0
M  V30 5626 N 518.813 -1.54241 0.323641 0
M  V30 5627 C 520.043 -2.04687 -0.280464 0
M  V30 5628 C 520.451 -1.19939 -1.46326 0
M  V30 5629 O 519.794 -0.222872 -1.82343 0
M  V30 5630 C 519.856 -3.50978 -0.778123 0
M  V30 5631 C 519.52 -4.56127 0.282371 0
M  V30 5632 C 520.517 -5.07726 1.11847 0
M  V30 5633 C 518.202 -5.00451 0.430582 0
M  V30 5634 C 520.196 -6.02212 2.08851 0
M  V30 5635 C 517.883 -5.94752 1.40404 0
M  V30 5636 C 518.881 -6.45519 2.23147 0
M  V30 5637 O 518.569 -7.37968 3.1884 0
M  V30 5638 H 518.301 -0.673192 -0.0615473 0
M  V30 5639 H 520.855 -1.99999 0.467921 0
M  V30 5640 H 519.085 -3.53064 -1.57742 0
M  V30 5641 H 520.774 -3.84499 -1.30058 0
M  V30 5642 H 521.54 -4.74261 1.01496 0
M  V30 5643 H 517.419 -4.6055 -0.203569 0
M  V30 5644 H 520.963 -6.41761 2.73474 0
M  V30 5645 H 516.86 -6.27633 1.5082 0
M  V30 5646 H 517.628 -7.55841 3.14079 0
M  V30 5647 N 520.291 -0.0518155 -1.57515 0
M  V30 5648 C 521.519 0.631395 -1.9703 0
M  V30 5649 C 521.934 1.64341 -0.92938 0
M  V30 5650 O 521.291 1.82296 0.0863266 0
M  V30 5651 C 521.342 1.31774 -3.36627 0
M  V30 5652 O 521.063 0.346247 -4.3673 0
M  V30 5653 C 522.564 2.09065 -3.90905 0
M  V30 5654 H 519.784 0.172576 -0.648428 0
M  V30 5655 H 522.328 -0.118306 -2.04158 0
M  V30 5656 H 520.483 2.01867 -3.30649 0
M  V30 5657 H 520.897 0.836226 -5.17791 0
M  V30 5658 H 522.371 2.52508 -4.9086 0
M  V30 5659 H 522.848 2.93908 -3.26366 0
M  V30 5660 H 523.454 1.43882 -4.00223 0
M  V30 5661 N 521.769 1.56035 0.221574 0
M  V30 5662 C 522.699 1.95434 1.2778 0
M  V30 5663 C 523.68 0.822564 1.48889 0
M  V30 5664 O 524.865 1.08486 1.61072 0
M  V30 5665 C 521.995 2.27102 2.62759 0
M  V30 5666 C 520.949 3.4277 2.56306 0
M  V30 5667 C 520.275 3.60043 3.95314 0
M  V30 5668 C 521.575 4.77742 2.11093 0
M  V30 5669 H 523.269 2.83912 0.950504 0
M  V30 5670 H 520.815 1.36596 0.455791 0
M  V30 5671 H 522.768 2.53256 3.36807 0
M  V30 5672 H 521.492 1.35478 2.97176 0
M  V30 5673 H 520.151 3.16664 1.84715 0
M  V30 5674 H 519.799 2.65794 4.27039 0
M  V30 5675 H 519.499 4.37841 3.91879 0
M  V30 5676 H 521.023 3.88545 4.71025 0
M  V30 5677 H 522.437 5.03102 2.74885 0
M  V30 5678 H 520.834 5.58823 2.18716 0
M  V30 5679 H 521.904 4.731 1.06321 0
M  V30 5680 N 523.247 -0.488276 1.49845 0
M  V30 5681 C 524.194 -1.58836 1.67451 0
M  V30 5682 C 525.164 -1.57886 0.515857 0
M  V30 5683 O 526.349 -1.75679 0.744403 0
M  V30 5684 C 523.489 -2.96915 1.75885 0
M  V30 5685 C 522.602 -3.07784 3.03138 0
M  V30 5686 C 521.737 -4.36673 3.02473 0
M  V30 5687 C 520.776 -4.41222 4.24252 0
M  V30 5688 N 519.913 -5.61557 4.21424 0
M  V30 5689 H 524.753 -1.43131 2.61376 0
M  V30 5690 H 522.29 -0.696186 1.29583 0
M  V30 5691 H 524.248 -3.76965 1.78755 0
M  V30 5692 H 522.878 -3.11295 0.85414 0
M  V30 5693 H 521.93 -2.20717 3.09819 0
M  V30 5694 H 523.242 -3.07005 3.93128 0
M  V30 5695 H 522.396 -5.25055 3.03977 0
M  V30 5696 H 521.135 -4.40037 2.10283 0
M  V30 5697 H 520.14 -3.5124 4.22978 0
M  V30 5698 H 521.365 -4.39564 5.17649 0
M  V30 5699 H 519.311 -5.65738 3.32078 0
M  V30 5700 H 519.228 -5.62447 5.05163 0
M  V30 5701 H 520.496 -6.52111 4.2705 0
M  V30 5702 N 524.725 -1.39134 -0.740242 0
M  V30 5703 C 525.971 -1.36273 -1.50192 0
M  V30 5704 C 526.304 0.0430136 -1.94152 0
M  V30 5705 O 525.579 1.00691 -1.66408 0
M  V30 5706 C 525.862 -2.33041 -2.74525 0
M  V30 5707 C 525.715 -3.82535 -2.36617 0
M  V30 5708 C 527.034 -2.27723 -3.76604 0
M  V30 5709 H 524.153 -0.496323 -0.544823 0
M  V30 5710 H 526.795 -1.70085 -0.846815 0
M  V30 5711 H 524.945 -2.04337 -3.30422 0
M  V30 5712 H 526.617 -4.21967 -1.86391 0
M  V30 5713 H 524.86 -3.99565 -1.68909 0
M  V30 5714 H 525.531 -4.45723 -3.2563 0
M  V30 5715 H 528.007 -2.53091 -3.30279 0
M  V30 5716 H 526.883 -2.97519 -4.61274 0
M  V30 5717 H 527.144 -1.28049 -4.2315 0
M  V30 5718 N 526.204 0.969867 -1.24223 0
M  V30 5719 C 527.154 2.04913 -0.999732 0
M  V30 5720 C 528.138 1.60795 0.0580636 0
M  V30 5721 O 529.33 1.76317 -0.155392 0
M  V30 5722 C 526.459 3.37942 -0.604154 0
M  V30 5723 C 525.545 3.88628 -1.69791 0
M  V30 5724 N 525.936 4.12274 -2.93025 0
M  V30 5725 C 524.234 4.17268 -1.57492 0
M  V30 5726 C 524.935 4.53808 -3.63914 0
M  V30 5727 N 523.911 4.58855 -2.91468 0
M  V30 5728 H 527.713 2.21168 -1.93551 0
M  V30 5729 H 525.227 1.15349 -1.14317 0
M  V30 5730 H 527.224 4.14863 -0.411665 0
M  V30 5731 H 525.884 3.23075 0.324465 0
M  V30 5732 H 526.895 3.99789 -3.29225 0
M  V30 5733 H 523.572 4.11346 -0.714175 0
M  V30 5734 H 524.962 4.80534 -4.69614 0
M  V30 5735 N 527.682 1.05563 1.17022 0
M  V30 5736 C 528.912 0.787307 1.91011 0
M  V30 5737 C 529.32 -0.661256 1.77268 0
M  V30 5738 O 528.663 -1.46379 1.10991 0
M  V30 5739 C 528.725 1.09313 3.42478 0
M  V30 5740 C 528.389 2.53863 3.80004 0
M  V30 5741 C 529.386 3.52081 3.82538 0
M  V30 5742 C 527.071 2.88969 4.10855 0
M  V30 5743 C 529.065 4.83449 4.15399 0
M  V30 5744 C 526.752 4.2054 4.43384 0
M  V30 5745 C 527.75 5.17589 4.45635 0
M  V30 5746 O 527.438 6.46799 4.77395 0
M  V30 5747 H 527.17 0.285463 0.61277 0
M  V30 5748 H 529.724 1.41051 1.49311 0
M  V30 5749 H 527.954 0.412833 3.8449 0
M  V30 5750 H 529.643 0.810224 3.97731 0
M  V30 5751 H 530.409 3.26299 3.58823 0
M  V30 5752 H 526.288 2.1409 4.08272 0
M  V30 5753 H 529.832 5.59194 4.1707 0
M  V30 5754 H 525.729 4.46083 4.66563 0
M  V30 5755 H 526.497 6.51677 4.95237 0
M  V30 5756 N 529.16 -1.33526 0.837174 0
M  V30 5757 C 530.107 -2.29248 0.267169 0
M  V30 5758 C 531.077 -1.54252 -0.616071 0
M  V30 5759 O 532.262 -1.82559 -0.554699 0
M  V30 5760 C 529.402 -3.40638 -0.553152 0
M  V30 5761 C 528.515 -4.30548 0.353921 0
M  V30 5762 C 527.65 -5.29051 -0.477339 0
M  V30 5763 C 526.689 -6.106 0.42823 0
M  V30 5764 N 525.826 -7.01152 -0.364801 0
M  V30 5765 H 530.666 -2.77398 1.08877 0
M  V30 5766 H 528.203 -1.36496 0.54838 0
M  V30 5767 H 530.161 -4.03921 -1.04422 0
M  V30 5768 H 528.791 -2.93685 -1.33973 0
M  V30 5769 H 527.843 -3.68001 0.963289 0
M  V30 5770 H 529.155 -4.87631 1.04964 0
M  V30 5771 H 528.309 -5.97853 -1.0323 0
M  V30 5772 H 527.048 -4.72541 -1.2065 0
M  V30 5773 H 526.053 -5.40718 0.995219 0
M  V30 5774 H 527.278 -6.69193 1.15573 0
M  V30 5775 H 525.224 -6.47092 -1.07738 0
M  V30 5776 H 525.141 -7.5551 0.272238 0
M  V30 5777 H 526.409 -7.74263 -0.902054 0
M  V30 5778 N 530.638 -0.59345 -1.46 0
M  V30 5779 C 531.868 -0.0889642 -2.06408 0
M  V30 5780 C 532.276 1.22597 -1.44106 0
M  V30 5781 O 531.619 1.75448 -0.544398 0
M  V30 5782 C 531.681 0.139902 -3.59228 0
M  V30 5783 C 531.345 -1.09107 -4.43784 0
M  V30 5784 C 532.342 -2.00577 -4.79651 0
M  V30 5785 C 530.027 -1.31593 -4.84756 0
M  V30 5786 C 532.021 -3.12873 -5.55328 0
M  V30 5787 C 529.708 -2.44192 -5.60191 0
M  V30 5788 C 530.706 -3.34661 -5.95392 0
M  V30 5789 O 530.394 -4.45302 -6.69299 0
M  V30 5790 H 530.126 -0.0594613 -0.67338 0
M  V30 5791 H 532.68 -0.817 -1.88452 0
M  V30 5792 H 530.91 0.922672 -3.75531 0
M  V30 5793 H 532.599 0.594228 -4.01527 0
M  V30 5794 H 533.365 -1.84425 -4.48567 0
M  V30 5795 H 529.244 -0.620801 -4.56801 0
M  V30 5796 H 532.788 -3.83511 -5.82722 0
M  V30 5797 H 528.685 -2.60303 -5.90688 0
M  V30 5798 H 529.453 -4.43805 -6.87735 0
M  V30 5799 N 532.116 1.54067 -0.331816 0
M  V30 5800 C 533.344 2.05131 0.269996 0
M  V30 5801 C 533.759 1.20749 1.45138 0
M  V30 5802 O 533.116 0.240069 1.80914 0
M  V30 5803 C 533.167 3.54728 0.696456 0
M  V30 5804 O 532.888 4.35906 -0.43794 0
M  V30 5805 C 534.389 4.21916 1.36021 0
M  V30 5806 H 531.609 0.668807 0.0542042 0
M  V30 5807 H 534.153 1.98777 -0.4804 0
M  V30 5808 H 532.308 3.61342 1.39681 0
M  V30 5809 H 532.722 5.24404 -0.100334 0
M  V30 5810 H 534.196 5.28015 1.60947 0
M  V30 5811 H 534.673 3.73538 2.31011 0
M  V30 5812 H 535.279 4.19463 0.702212 0
M  V30 5813 N 533.594 0.0601682 1.57485 0
M  V30 5814 C 534.84 -0.612501 1.93329 0
M  V30 5815 C 535.173 -1.6996 0.939526 0
M  V30 5816 O 534.448 -1.94472 -0.0330957 0
M  V30 5817 C 534.731 -1.20025 3.39508 0
M  V30 5818 C 534.584 -0.12059 4.49638 0
M  V30 5819 C 535.903 -2.10923 3.86264 0
M  V30 5820 H 533.022 -0.221185 0.703027 0
M  V30 5821 H 535.664 0.123768 1.89596 0
M  V30 5822 H 533.814 -1.82774 3.42821 0
M  V30 5823 H 535.486 0.51185 4.58452 0
M  V30 5824 H 533.729 0.550251 4.30296 0
M  V30 5825 H 534.4 -0.572019 5.49028 0
M  V30 5826 H 536.876 -1.58124 3.84884 0
M  V30 5827 H 535.752 -2.48987 4.8918 0
M  V30 5828 H 536.013 -3.01292 3.23536 0
M  V30 5829 N 535.072 -1.5615 -0.213296 0
M  V30 5830 C 536.318 -1.79812 -0.937849 0
M  V30 5831 C 536.651 -0.631201 -1.83656 0
M  V30 5832 O 535.926 0.369165 -1.90964 0
M  V30 5833 C 536.209 -3.13613 -1.76972 0
M  V30 5834 C 536.062 -4.40766 -0.89695 0
M  V30 5835 C 537.381 -3.43931 -2.7459 0
M  V30 5836 H 534.5 -0.654138 -0.339518 0
M  V30 5837 H 537.142 -1.88877 -0.20623 0
M  V30 5838 H 535.292 -3.06015 -2.39347 0
M  V30 5839 H 536.964 -4.60392 -0.289306 0
M  V30 5840 H 535.207 -4.33326 -0.202756 0
M  V30 5841 H 535.878 -5.30843 -1.51358 0
M  V30 5842 H 538.354 -3.5171 -2.22349 0
M  V30 5843 H 537.23 -4.38706 -3.29891 0
M  V30 5844 H 537.491 -2.6651 -3.52739 0
M  V30 5845 N 536.55 0.480323 -1.50102 0
M  V30 5846 C 537.483 1.59789 -1.62919 0
M  V30 5847 C 538.461 1.55429 -0.477557 0
M  V30 5848 O 539.645 1.75186 -0.695851 0
M  V30 5849 C 536.772 2.98351 -1.60325 0
M  V30 5850 C 535.818 3.20899 -2.80938 0
M  V30 5851 S 536.651 3.01791 -4.4236 0
M  V30 5852 C 537.807 4.42712 -4.42444 0
M  V30 5853 H 538.04 1.48676 -2.57454 0
M  V30 5854 H 535.573 0.666996 -1.3925 0
M  V30 5855 H 537.531 3.7824 -1.59514 0
M  V30 5856 H 536.192 3.06862 -0.670419 0
M  V30 5857 H 535.385 4.22102 -2.75401 0
M  V30 5858 H 534.987 2.48768 -2.79268 0
M  V30 5859 H 537.279 5.3518 -4.15438 0
M  V30 5860 H 538.222 4.53294 -5.43995 0
M  V30 5861 H 538.63 4.24359 -3.72263 0
M  V30 5862 N 538.028 1.39524 0.732853 0
M  V30 5863 C 538.975 1.38416 1.84688 0
M  V30 5864 C 539.945 0.243539 1.64305 0
M  V30 5865 O 541.13 0.438979 1.85681 0
M  V30 5866 C 538.27 1.23555 3.22224 0
M  V30 5867 C 537.383 2.47179 3.54298 0
M  V30 5868 C 536.518 2.2489 4.81246 0
M  V30 5869 C 535.557 3.44178 5.0617 0
M  V30 5870 N 534.694 3.21192 6.24323 0
M  V30 5871 H 539.534 2.33645 1.84971 0
M  V30 5872 H 537.071 1.16059 0.903804 0
M  V30 5873 H 539.029 1.12949 4.0162 0
M  V30 5874 H 537.659 0.31954 3.21215 0
M  V30 5875 H 536.711 2.68379 2.69587 0
M  V30 5876 H 538.023 3.36022 3.68633 0
M  V30 5877 H 537.177 2.11538 5.68627 0
M  V30 5878 H 535.916 1.33443 4.69089 0
M  V30 5879 H 534.921 3.58025 4.17251 0
M  V30 5880 H 536.146 4.36528 5.20212 0
M  V30 5881 H 534.092 2.32413 6.1345 0
M  V30 5882 H 534.009 4.03594 6.39256 0
M  V30 5883 H 535.277 3.1154 7.14537 0
M  V30 5884 N 539.506 -0.963266 1.24736 0
M  V30 5885 C 540.734 -1.74166 1.11686 0
M  V30 5886 C 541.149 -1.8589 -0.330187 0
M  V30 5887 O 540.506 -1.35042 -1.2276 0
M  V30 5888 C 540.557 -3.15989 1.75595 0
M  V30 5889 O 540.278 -3.04847 3.14642 0
M  V30 5890 C 541.779 -4.10145 1.68213 0
M  V30 5891 H 538.999 -0.546031 0.389989 0
M  V30 5892 H 541.543 -1.20907 1.64929 0
M  V30 5893 H 539.698 -3.66219 1.26343 0
M  V30 5894 H 540.112 -3.9425 3.4593 0
M  V30 5895 H 541.586 -5.07299 2.17604 0
M  V30 5896 H 542.063 -4.3445 0.644208 0
M  V30 5897 H 542.669 -3.65827 2.16912 0
M  V30 5898 N 540.985 -1.06182 -1.16461 0
M  V30 5899 C 541.917 -0.629584 -2.20383 0
M  V30 5900 C 542.93 0.311834 -1.59786 0
M  V30 5901 O 544.119 0.103 -1.78203 0
M  V30 5902 C 541.219 0.0973695 -3.3876 0
M  V30 5903 C 540.392 -0.857252 -4.28917 0
M  V30 5904 C 539.451 -0.169749 -5.25926 0
M  V30 5905 O 538.477 -0.807044 -5.6345 0
M  V30 5906 N 539.679 1.08911 -5.70192 0
M  V30 5907 H 542.444 -1.52352 -2.58087 0
M  V30 5908 H 540.005 -0.944993 -1.31459 0
M  V30 5909 H 541.997 0.567676 -4.00699 0
M  V30 5910 H 540.567 0.893093 -2.99571 0
M  V30 5911 H 539.787 -1.50696 -3.64259 0
M  V30 5912 H 541.075 -1.50489 -4.86035 0
M  V30 5913 H 540.473 1.62703 -5.41797 0
M  V30 5914 H 539.03 1.50331 -6.34227 0
M  V30 5915 N 542.463 1.3308 -0.844243 0
M  V30 5916 C 543.874 1.7992 -0.498566 0
M  V30 5917 C 544.225 1.69808 0.982834 0
M  V30 5918 O 543.35 1.25051 1.7661 0
M  V30 5919 C 543.945 3.26677 -0.898204 0
M  V30 5920 C 542.504 3.71513 -0.604583 0
M  V30 5921 C 541.651 2.54393 -1.10362 0
M  V30 5922 H 544.602 1.20526 -1.03244 0
M  V30 5923 H 544.623 3.79918 -0.21039 0
M  V30 5924 H 544.135 3.34004 -1.97643 0
M  V30 5925 H 542.236 3.69708 0.46335 0
M  V30 5926 H 542.349 4.64755 -1.16358 0
M  V30 5927 H 540.713 2.49246 -0.524273 0
M  V30 5928 H 541.496 2.6448 -2.18873 0
M  V30 5929 N 543.941 0.601185 1.45683 0
M  V30 5930 C 545.189 0.0936957 2.01883 0
M  V30 5931 C 545.51 -1.2779 1.47291 0
M  V30 5932 O 544.78 -1.84279 0.664691 0
M  V30 5933 H 543.36 0.0316466 0.746329 0
M  V30 5934 H 546.022 0.781137 1.78562 0
M  V30 5935 H 545.118 0.0386297 3.12076 0
M  V30 5936 N 545.419 -1.53889 0.339982 0
M  V30 5937 C 546.349 -2.27843 -0.510856 0
M  V30 5938 C 547.33 -1.29267 -1.10563 0
M  V30 5939 O 548.515 -1.58104 -1.12768 0
M  V30 5940 C 545.645 -3.04857 -1.66372 0
M  V30 5941 C 544.599 -4.10907 -1.19746 0
M  V30 5942 C 543.925 -4.75855 -2.43857 0
M  V30 5943 C 545.225 -5.21435 -0.300501 0
M  V30 5944 H 546.919 -2.99212 0.106067 0
M  V30 5945 H 544.465 -1.43904 0.0524533 0
M  V30 5946 H 546.418 -3.5533 -2.26537 0
M  V30 5947 H 545.142 -2.31133 -2.30749 0
M  V30 5948 H 543.801 -3.61342 -0.618654 0
M  V30 5949 H 543.449 -3.9873 -3.06633 0
M  V30 5950 H 543.149 -5.47502 -2.13343 0
M  V30 5951 H 544.673 -5.2911 -3.04754 0
M  V30 5952 H 546.087 -5.67565 -0.80889 0
M  V30 5953 H 544.484 -6.00036 -0.0874076 0
M  V30 5954 H 545.554 -4.80328 0.664321 0
M  V30 5955 N 546.897 -0.0685191 -1.57451 0
M  V30 5956 C 548.308 0.464634 -1.80826 0
M  V30 5957 C 548.659 1.69847 -0.982169 0
M  V30 5958 O 547.784 2.15439 -0.203734 0
M  V30 5959 C 548.379 0.849721 -3.27971 0
M  V30 5960 C 546.938 1.32776 -3.52204 0
M  V30 5961 C 546.085 0.311332 -2.75547 0
M  V30 5962 H 549.036 -0.294248 -1.55948 0
M  V30 5963 H 549.057 1.71138 -3.39841 0
M  V30 5964 H 548.569 -0.0484736 -3.8807 0
M  V30 5965 H 546.67 2.24456 -2.97406 0
M  V30 5966 H 546.783 1.30794 -4.60901 0
M  V30 5967 H 545.147 0.787915 -2.42206 0
M  V30 5968 H 545.93 -0.579078 -3.38381 0
M  V30 5969 N 548.375 1.56261 0.205012 0
M  V30 5970 C 549.605 1.83874 0.942018 0
M  V30 5971 C 550.013 0.647595 1.77772 0
M  V30 5972 O 549.356 -0.393098 1.79445 0
M  V30 5973 C 549.418 3.05453 1.89575 0
M  V30 5974 C 549.082 4.39772 1.24296 0
M  V30 5975 C 550.079 5.16133 0.624724 0
M  V30 5976 C 547.764 4.86504 1.24978 0
M  V30 5977 C 549.758 6.37396 0.0220117 0
M  V30 5978 C 547.445 6.07705 0.643232 0
M  V30 5979 C 548.443 6.82993 0.0304164 0
M  V30 5980 O 548.131 8.019 -0.566654 0
M  V30 5981 H 547.863 0.614896 0.280854 0
M  V30 5982 H 550.417 2.04215 0.220285 0
M  V30 5983 H 548.647 2.80972 2.65691 0
M  V30 5984 H 550.336 3.19797 2.4997 0
M  V30 5985 H 551.102 4.81127 0.611666 0
M  V30 5986 H 546.981 4.27865 1.71616 0
M  V30 5987 H 550.525 6.96102 -0.456926 0
M  V30 5988 H 546.422 6.42181 0.653759 0
M  V30 5989 H 547.19 8.17192 -0.462588 0
M  V30 5990 N 549.853 -0.472356 1.50355 0
M  V30 5991 C 551.078 -1.25251 1.65309 0
M  V30 5992 C 551.503 -1.85081 0.335643 0
M  V30 5993 O 550.861 -1.67227 -0.700335 0
M  V30 5994 C 550.909 -2.3379 2.74544 0
M  V30 5995 O 550.013 -3.38401 2.35709 0
M  V30 5996 H 549.354 -0.368539 0.552336 0
M  V30 5997 H 551.884 -0.562271 1.96722 0
M  V30 5998 H 551.894 -2.79121 2.97583 0
M  V30 5999 H 550.569 -1.89614 3.70161 0
M  V30 6000 H 549.146 -2.9879 2.23112 0
M  V30 6001 N 551.331 -1.39911 -0.725443 0
M  V30 6002 C 552.263 -1.35301 -1.85003 0
M  V30 6003 C 553.276 -0.260102 -1.60709 0
M  V30 6004 O 554.465 -0.519749 -1.70766 0
M  V30 6005 C 551.565 -1.08039 -3.21218 0
M  V30 6006 C 550.738 -2.28793 -3.7279 0
M  V30 6007 C 549.797 -1.97841 -4.87591 0
M  V30 6008 O 548.823 -2.70616 -5.00755 0
M  V30 6009 N 550.025 -0.950367 -5.72668 0
M  V30 6010 H 552.79 -2.32218 -1.89459 0
M  V30 6011 H 550.351 -1.34137 -0.90658 0
M  V30 6012 H 552.343 -0.853354 -3.95601 0
M  V30 6013 H 550.913 -0.198229 -3.11971 0
M  V30 6014 H 550.133 -2.67388 -2.8965 0
M  V30 6015 H 551.421 -3.09317 -4.03981 0
M  V30 6016 H 550.819 -0.347436 -5.64632 0
M  V30 6017 H 549.376 -0.783232 -6.47077 0
M  V30 6018 N 552.809 0.956637 -1.25245 0
M  V30 6019 C 554.055 1.70352 -1.10036 0
M  V30 6020 C 554.388 1.90869 0.358156 0
M  V30 6021 O 553.663 1.47819 1.26411 0
M  V30 6022 C 553.946 3.08766 -1.85298 0
M  V30 6023 C 553.799 2.95672 -3.38966 0
M  V30 6024 C 555.118 4.08622 -1.63451 0
M  V30 6025 H 552.237 0.618279 -0.401123 0
M  V30 6026 H 554.879 1.11212 -1.54051 0
M  V30 6027 H 553.029 3.59252 -1.47887 0
M  V30 6028 H 554.701 2.52527 -3.86041 0
M  V30 6029 H 552.944 2.31634 -3.6678 0
M  V30 6030 H 553.615 3.93776 -3.86839 0
M  V30 6031 H 556.091 3.67038 -1.96015 0
M  V30 6032 H 554.967 5.03514 -2.18551 0
M  V30 6033 H 555.228 4.3834 -0.575357 0
M  V30 6034 N 554.287 1.06798 1.15896 0
M  V30 6035 C 555.703 0.792423 1.38538 0
M  V30 6036 C 555.903 -0.60592 1.92174 0
M  V30 6037 O 554.959 -1.36561 2.12385 0
M  V30 6038 C 556.272 1.86157 2.36149 0
M  V30 6039 C 557.82 1.88567 2.49823 0
M  V30 6040 C 558.295 2.9455 3.5072 0
M  V30 6041 N 559.786 2.93616 3.58251 0
M  V30 6042 C 560.521 3.72267 4.36125 0
M  V30 6043 N 560.017 4.60751 5.17379 0
M  V30 6044 N 561.81 3.60637 4.31158 0
M  V30 6045 H 553.961 1.96993 0.794198 0
M  V30 6046 H 556.224 0.853942 0.411688 0
M  V30 6047 H 555.93 2.86603 2.03843 0
M  V30 6048 H 555.804 1.71692 3.3586 0
M  V30 6049 H 558.191 0.887765 2.8143 0
M  V30 6050 H 558.272 2.0711 1.5013 0
M  V30 6051 H 557.916 3.94537 3.19849 0
M  V30 6052 H 557.846 2.73255 4.50155 0
M  V30 6053 H 560.337 2.29472 3.00252 0
M  V30 6054 H 560.65 5.17408 5.74028 0
M  V30 6055 H 558.995 4.64803 5.16704 0
M  V30 6056 H 562.186 2.90892 3.66742 0
M  V30 6057 H 562.359 4.22176 4.91601 0
M  V30 6058 N 555.766 -1.3263 0.851289 0
M  V30 6059 C 557.043 -1.91982 0.374448 0
M  V30 6060 C 557.423 -1.77568 -1.14161 0
M  V30 6061 O 556.771 -1.1717 -1.96172 0
M  V30 6062 C 556.981 -3.38862 0.835088 0
M  V30 6063 C 558.329 -4.15999 0.850309 0
M  V30 6064 O 559.353 -3.47566 0.779505 0
M  V30 6065 O 558.212 -5.38189 0.949481 0
M  V30 6066 H 555.306 -0.819846 0.10854 0
M  V30 6067 H 557.852 -1.41422 0.937966 0
M  V30 6068 H 556.624 -3.43281 1.87814 0
M  V30 6069 H 556.247 -3.96821 0.248833 0
M  V30 6070 N 557.244 -0.608902 -1.45362 0
M  V30 6071 C 558.177 0.158059 -2.27652 0
M  V30 6072 C 559.155 0.872397 -1.37215 0
M  V30 6073 O 560.339 0.881002 -1.66645 0
M  V30 6074 C 557.466 1.22896 -3.15617 0
M  V30 6075 C 556.512 0.617607 -4.22005 0
M  V30 6076 S 557.345 -0.575518 -5.32398 0
M  V30 6077 C 558.501 0.495938 -6.23932 0
M  V30 6078 H 558.734 -0.540095 -2.92353 0
M  V30 6079 H 556.267 -0.396456 -1.49223 0
M  V30 6080 H 558.225 1.84195 -3.66855 0
M  V30 6081 H 556.886 1.89919 -2.50179 0
M  V30 6082 H 556.079 1.42341 -4.83482 0
M  V30 6083 H 555.681 0.0797273 -3.73915 0
M  V30 6084 H 557.973 1.37465 -6.63408 0
M  V30 6085 H 558.916 -0.0827108 -7.08052 0
M  V30 6086 H 559.324 0.811856 -5.58631 0
M  V30 6087 N 558.722 1.53707 -0.348139 0
M  V30 6088 C 559.968 2.01286 0.247332 0
M  V30 6089 C 560.301 1.23546 1.49834 0
M  V30 6090 O 559.576 0.324331 1.91777 0
M  V30 6091 C 559.859 3.55768 0.556858 0
M  V30 6092 C 559.712 4.44216 -0.706564 0
M  V30 6093 C 561.031 4.1841 1.3646 0
M  V30 6094 H 558.15 0.731677 0.0884201 0
M  V30 6095 H 560.792 1.84106 -0.469584 0
M  V30 6096 H 558.942 3.70539 1.16761 0
M  V30 6097 H 560.614 4.41274 -1.34444 0
M  V30 6098 H 558.857 4.12892 -1.33052 0
M  V30 6099 H 559.528 5.50202 -0.445186 0
M  V30 6100 H 562.004 4.07365 0.848113 0
M  V30 6101 H 560.88 5.26563 1.54992 0
M  V30 6102 H 561.141 3.7333 2.36805 0
M  V30 6103 N 560.2 0.0768682 1.57412 0
M  V30 6104 C 561.425 -0.603404 1.98428 0
M  V30 6105 C 561.85 -1.62047 0.955108 0
M  V30 6106 O 561.208 -1.81129 -0.0786778 0
M  V30 6107 C 561.256 -1.24396 3.38464 0
M  V30 6108 O 560.36 -2.35982 3.3821 0
M  V30 6109 H 559.701 -0.154741 0.645718 0
M  V30 6110 H 562.231 0.152885 2.04028 0
M  V30 6111 H 562.241 -1.5896 3.7576 0
M  V30 6112 H 560.916 -0.498735 4.12899 0
M  V30 6113 H 559.493 -2.03173 3.1269 0
M  V30 6114 N 561.678 -1.56367 -0.196722 0
M  V30 6115 C 562.625 -1.94417 -1.24382 0
M  V30 6116 C 563.595 -0.804543 -1.45315 0
M  V30 6117 O 564.78 -1.06256 -1.58475 0
M  V30 6118 C 561.92 -2.28757 -2.58388 0
M  V30 6119 C 561.033 -3.55775 -2.45047 0
M  V30 6120 C 560.168 -3.79445 -3.71746 0
M  V30 6121 C 559.207 -4.99894 -3.53231 0
M  V30 6122 N 558.344 -5.19826 -4.71938 0
M  V30 6123 H 563.184 -2.83691 -0.912338 0
M  V30 6124 H 560.721 -1.40392 -0.439135 0
M  V30 6125 H 562.679 -2.46682 -3.36457 0
M  V30 6126 H 561.309 -1.42625 -2.89582 0
M  V30 6127 H 560.361 -3.45905 -1.58284 0
M  V30 6128 H 561.673 -4.44 -2.27299 0
M  V30 6129 H 560.827 -3.97601 -4.58256 0
M  V30 6130 H 559.566 -2.89546 -3.92446 0
M  V30 6131 H 558.571 -4.81662 -2.65107 0
M  V30 6132 H 559.796 -5.913 -3.33978 0
M  V30 6133 H 557.742 -4.32875 -4.92905 0
M  V30 6134 H 557.659 -6.02228 -4.57009 0
M  V30 6135 H 558.927 -5.42439 -5.59803 0
M  V30 6136 N 563.156 0.464375 -1.50603 0
M  V30 6137 C 564.103 1.56152 -1.69956 0
M  V30 6138 C 565.073 1.57046 -0.54091 0
M  V30 6139 O 566.258 1.74473 -0.772258 0
M  V30 6140 C 563.398 2.94079 -1.80586 0
M  V30 6141 C 562.511 3.02923 -3.07996 0
M  V30 6142 C 561.646 4.31806 -3.09382 0
M  V30 6143 C 560.685 4.34417 -4.31218 0
M  V30 6144 N 559.822 5.54782 -4.30304 0
M  V30 6145 H 564.662 1.38955 -2.6362 0
M  V30 6146 H 562.199 0.675482 -1.30674 0
M  V30 6147 H 564.157 3.74073 -1.8473 0
M  V30 6148 H 562.787 3.09896 -0.903556 0
M  V30 6149 H 561.839 2.1576 -3.13292 0
M  V30 6150 H 563.151 3.00712 -3.97962 0
M  V30 6151 H 562.305 5.20153 -3.12292 0
M  V30 6152 H 561.044 4.36636 -2.17257 0
M  V30 6153 H 560.049 3.44467 -4.28512 0
M  V30 6154 H 561.274 4.31273 -5.24576 0
M  V30 6155 H 559.22 5.60384 -3.41037 0
M  V30 6156 H 559.137 5.54339 -5.14047 0
M  V30 6157 H 560.405 6.45235 -4.3737 0
M  V30 6158 N 564.634 1.40294 0.718013 0
M  V30 6159 C 565.564 1.43118 1.84498 0
M  V30 6160 C 566.545 0.292403 1.67568 0
M  V30 6161 O 567.73 0.500675 1.87635 0
M  V30 6162 C 564.86 1.29065 3.22427 0
M  V30 6163 C 563.814 2.40521 3.54025 0
M  V30 6164 C 563.14 2.11546 4.91073 0
M  V30 6165 C 564.44 3.82859 3.55269 0
M  V30 6166 H 566.134 2.37432 1.82391 0
M  V30 6167 H 563.68 1.14283 0.87609 0
M  V30 6168 H 565.633 1.29658 4.00957 0
M  V30 6169 H 564.357 0.312271 3.25104 0
M  V30 6170 H 563.016 2.39173 2.77834 0
M  V30 6171 H 562.664 1.12104 4.90348 0
M  V30 6172 H 562.364 2.86216 5.1318 0
M  V30 6173 H 563.888 2.13817 5.71939 0
M  V30 6174 H 565.302 3.86044 4.23843 0
M  V30 6175 H 563.699 4.57029 3.88902 0
M  V30 6176 H 564.769 4.12617 2.54706 0
M  V30 6177 N 566.112 -0.949982 1.2575 0
M  V30 6178 C 567.022 -2.08109 1.08295 0
M  V30 6179 C 568.038 -1.7399 0.0188181 0
M  V30 6180 O 569.214 -2.00187 0.220724 0
M  V30 6181 C 566.279 -3.39383 0.708534 0
M  V30 6182 C 565.34 -3.8734 1.85111 0
M  V30 6183 C 564.573 -5.12349 1.49447 0
M  V30 6184 O 564.796 -5.6905 0.392212 0
M  V30 6185 O 563.73 -5.5513 2.32624 0
M  V30 6186 H 567.556 -2.25738 2.03165 0
M  V30 6187 H 565.141 -1.06545 1.04731 0
M  V30 6188 H 567.023 -4.18277 0.512061 0
M  V30 6189 H 565.698 -3.23013 -0.210854 0
M  V30 6190 H 564.605 -3.09429 2.10248 0
M  V30 6191 H 565.938 -4.08216 2.74991 0
M  V30 6192 N 567.59 -1.07411 -1.15328 0
M  V30 6193 C 568.52 -0.716472 -2.22236 0
M  V30 6194 C 569.501 0.296373 -1.67498 0
M  V30 6195 O 570.686 0.168989 -1.93463 0
M  V30 6196 C 567.816 -0.114142 -3.47112 0
M  V30 6197 C 566.77 -1.05421 -4.14814 0
M  V30 6198 C 566.096 -0.314604 -5.33774 0
M  V30 6199 C 567.396 -2.38808 -4.64508 0
M  V30 6200 H 569.09 -1.61029 -2.52408 0
M  V30 6201 H 566.636 -0.775702 -1.21321 0
M  V30 6202 H 568.589 0.148001 -4.2114 0
M  V30 6203 H 567.313 0.814755 -3.16274 0
M  V30 6204 H 565.972 -1.30128 -3.42728 0
M  V30 6205 H 565.62 0.617772 -4.99192 0
M  V30 6206 H 565.32 -0.941209 -5.80013 0
M  V30 6207 H 566.844 -0.0602747 -6.1057 0
M  V30 6208 H 568.258 -2.18424 -5.3006 0
M  V30 6209 H 566.655 -2.97069 -5.21412 0
M  V30 6210 H 567.725 -3.01067 -3.80114 0
M  V30 6211 N 569.068 1.32177 -0.85831 0
M  V30 6212 C 570.484 1.49873 -0.548656 0
M  V30 6213 C 570.684 1.79278 0.919874 0
M  V30 6214 O 569.74 1.86451 1.70271 0
M  V30 6215 C 571.053 2.64043 -1.4388 0
M  V30 6216 C 572.601 2.77928 -1.43961 0
M  V30 6217 C 573.076 3.95182 -2.31506 0
M  V30 6218 N 574.567 4.0245 -2.29321 0
M  V30 6219 C 575.302 4.9242 -2.93786 0
M  V30 6220 N 574.798 5.87373 -3.67376 0
M  V30 6221 N 576.591 4.85572 -2.83155 0
M  V30 6222 H 568.742 1.11357 -1.80868 0
M  V30 6223 H 571.005 0.549175 -0.772729 0
M  V30 6224 H 570.711 2.49055 -2.48324 0
M  V30 6225 H 570.585 3.59912 -1.12885 0
M  V30 6226 H 572.972 2.92338 -0.402813 0
M  V30 6227 H 573.053 1.82762 -1.78974 0
M  V30 6228 H 572.697 3.81531 -3.35256 0
M  V30 6229 H 572.627 4.89633 -1.93823 0
M  V30 6230 H 575.118 3.34507 -1.75822 0
M  V30 6231 H 575.431 6.52728 -4.13722 0
M  V30 6232 H 573.776 5.87388 -3.71484 0
M  V30 6233 H 576.967 4.10363 -2.25211 0
M  V30 6234 H 577.14 5.55486 -3.33676 0
M  V30 6235 N 570.547 0.616602 1.45037 0
M  V30 6236 C 571.477 -0.0840787 2.33349 0
M  V30 6237 C 572.458 -0.849641 1.4736 0
M  V30 6238 O 573.643 -0.818407 1.76113 0
M  V30 6239 C 570.773 -1.07604 3.3021 0
M  V30 6240 C 569.727 -0.423096 4.25904 0
M  V30 6241 C 569.053 -1.52394 5.12523 0
M  V30 6242 C 570.353 0.661457 5.18095 0
M  V30 6243 H 572.047 0.653333 2.92185 0
M  V30 6244 H 569.593 0.315634 1.40498 0
M  V30 6245 H 571.546 -1.57485 3.90866 0
M  V30 6246 H 570.27 -1.84416 2.69552 0
M  V30 6247 H 568.929 0.05493 3.66559 0
M  V30 6248 H 568.577 -2.28257 4.48227 0
M  V30 6249 H 568.277 -1.09251 5.77354 0
M  V30 6250 H 569.801 -2.02485 5.76049 0
M  V30 6251 H 571.215 0.246353 5.7277 0
M  V30 6252 H 569.612 1.01517 5.91451 0
M  V30 6253 H 570.682 1.53446 4.59981 0
M  V30 6254 N 572.025 -1.5352 0.356285 0
M  V30 6255 C 572.935 -2.29151 -0.502712 0
M  V30 6256 C 573.951 -1.34753 -1.1008 0
M  V30 6257 O 575.127 -1.67803 -1.11374 0
M  V30 6258 C 572.192 -3.05911 -1.63154 0
M  V30 6259 C 571.253 -4.15958 -1.06194 0
M  V30 6260 C 570.486 -4.8905 -2.13696 0
M  V30 6261 O 570.709 -4.61919 -3.34645 0
M  V30 6262 O 569.643 -5.75202 -1.77275 0
M  V30 6263 H 573.469 -3.03492 0.112466 0
M  V30 6264 H 571.054 -1.4891 0.120942 0
M  V30 6265 H 572.936 -3.53874 -2.28804 0
M  V30 6266 H 571.611 -2.34415 -2.23229 0
M  V30 6267 H 570.518 -3.7227 -0.369603 0
M  V30 6268 H 571.851 -4.89593 -0.505872 0
M  V30 6269 N 573.503 -0.0852151 -1.57369 0
M  V30 6270 C 574.453 0.88767 -2.10011 0
M  V30 6271 C 575.437 1.25021 -1.01285 0
M  V30 6272 O 576.629 1.22694 -1.27574 0
M  V30 6273 C 573.758 2.15037 -2.67608 0
M  V30 6274 C 572.844 1.81371 -3.83361 0
M  V30 6275 N 573.235 1.18216 -4.91791 0
M  V30 6276 C 571.533 2.11041 -3.92909 0
M  V30 6277 C 572.234 1.02941 -5.72519 0
M  V30 6278 N 571.21 1.54351 -5.21226 0
M  V30 6279 H 575.012 0.395279 -2.9123 0
M  V30 6280 H 572.526 0.11829 -1.61969 0
M  V30 6281 H 574.523 2.85667 -3.03644 0
M  V30 6282 H 573.183 2.64851 -1.8784 0
M  V30 6283 H 574.194 0.850168 -5.10874 0
M  V30 6284 H 570.871 2.63138 -3.24136 0
M  V30 6285 H 572.261 0.536298 -6.69756 0
M  V30 6286 N 574.981 1.5647 0.188427 0
M  V30 6287 C 576.209 1.85131 0.923803 0
M  V30 6288 C 576.624 0.668537 1.76567 0
M  V30 6289 O 575.981 -0.362662 1.7886 0
M  V30 6290 C 576.032 3.12661 1.81453 0
M  V30 6291 O 575.753 4.26378 1.00665 0
M  V30 6292 C 577.254 3.54548 2.66103 0
M  V30 6293 H 574.474 0.614624 0.269218 0
M  V30 6294 H 577.018 2.03581 0.193671 0
M  V30 6295 H 575.173 2.96088 2.49821 0
M  V30 6296 H 575.587 4.99041 1.61425 0
M  V30 6297 H 577.061 4.4673 3.24247 0
M  V30 6298 H 577.538 2.77853 3.40139 0
M  V30 6299 H 578.144 3.73674 2.03096 0
M  V30 6300 N 576.459 -0.456382 1.50847 0
M  V30 6301 C 577.406 -1.55249 1.70782 0
M  V30 6302 C 578.376 -1.56757 0.549231 0
M  V30 6303 O 579.561 -1.74061 0.7815 0
M  V30 6304 C 576.701 -2.93118 1.82143 0
M  V30 6305 C 575.814 -3.01285 3.09598 0
M  V30 6306 C 574.949 -4.30159 3.11667 0
M  V30 6307 C 573.988 -4.32124 4.33515 0
M  V30 6308 N 573.125 -5.52492 4.3324 0
M  V30 6309 H 577.965 -1.37555 2.64353 0
M  V30 6310 H 575.502 -0.668543 1.3103 0
M  V30 6311 H 577.46 -3.73088 1.86711 0
M  V30 6312 H 576.09 -3.09413 0.919978 0
M  V30 6313 H 575.142 -2.14096 3.14431 0
M  V30 6314 H 576.454 -2.98597 3.99551 0
M  V30 6315 H 575.608 -5.18489 3.15046 0
M  V30 6316 H 574.347 -4.35477 2.1957 0
M  V30 6317 H 573.352 -3.42189 4.30333 0
M  V30 6318 H 574.577 -4.28485 5.26856 0
M  V30 6319 H 572.523 -5.58567 3.44004 0
M  V30 6320 H 572.44 -5.51605 5.16979 0
M  V30 6321 H 573.708 -6.42906 4.40786 0
M  V30 6322 N 577.937 -1.40673 -0.710563 0
M  V30 6323 C 578.867 -1.44095 -1.83736 0
M  V30 6324 C 579.848 -0.301286 -1.67411 0
M  V30 6325 O 581.033 -0.510618 -1.87367 0
M  V30 6326 C 578.163 -1.30773 -3.21738 0
M  V30 6327 C 577.117 -2.42395 -3.52745 0
M  V30 6328 C 576.443 -2.14147 -4.89944 0
M  V30 6329 C 577.743 -3.84738 -3.53234 0
M  V30 6330 H 579.437 -2.38396 -1.81129 0
M  V30 6331 H 576.983 -1.14746 -0.870017 0
M  V30 6332 H 578.936 -1.31783 -4.00264 0
M  V30 6333 H 577.66 -0.329507 -3.24934 0
M  V30 6334 H 576.319 -2.40643 -2.76562 0
M  V30 6335 H 575.967 -1.14703 -4.89747 0
M  V30 6336 H 575.667 -2.88934 -5.11655 0
M  V30 6337 H 577.191 -2.16848 -5.70797 0
M  V30 6338 H 578.605 -3.88286 -4.2179 0
M  V30 6339 H 577.002 -4.59085 -3.86473 0
M  V30 6340 H 578.072 -4.13962 -2.52514 0
M  V30 6341 N 579.415 0.9433 -1.26252 0
M  V30 6342 C 580.64 1.72898 -1.14547 0
M  V30 6343 C 581.065 1.85761 0.295743 0
M  V30 6344 O 580.423 1.3463 1.21427 0
M  V30 6345 C 580.471 3.11471 -1.8171 0
M  V30 6346 O 579.575 3.97336 -1.10445 0
M  V30 6347 H 578.916 0.530555 -0.399259 0
M  V30 6348 H 581.446 1.18159 -1.67032 0
M  V30 6349 H 581.456 3.61872 -1.88449 0
M  V30 6350 H 580.131 3.01425 -2.86558 0
M  V30 6351 H 578.708 3.55788 -1.11666 0
M  V30 6352 N 580.893 1.08022 1.14757 0
M  V30 6353 C 582.123 0.827646 1.89298 0
M  V30 6354 C 582.531 -0.623506 1.78631 0
M  V30 6355 O 581.874 -1.43991 1.14071 0
M  V30 6356 C 581.936 1.16553 3.40082 0
M  V30 6357 C 581.6 2.61866 3.74533 0
M  V30 6358 C 582.597 3.60116 3.74984 0
M  V30 6359 C 580.282 2.97619 4.04633 0
M  V30 6360 C 582.276 4.92151 4.05051 0
M  V30 6361 C 579.963 4.2985 4.34364 0
M  V30 6362 C 580.961 5.26926 4.34555 0
M  V30 6363 O 580.649 6.5678 4.63568 0
M  V30 6364 H 580.381 0.298396 0.606577 0
M  V30 6365 H 582.935 1.44187 1.46285 0
M  V30 6366 H 581.165 0.494296 3.83528 0
M  V30 6367 H 582.854 0.894407 3.95923 0
M  V30 6368 H 583.62 3.33837 3.51821 0
M  V30 6369 H 579.499 2.22702 4.03639 0
M  V30 6370 H 583.043 5.67915 4.05115 0
M  V30 6371 H 578.94 4.55879 4.56995 0
M  V30 6372 H 579.708 6.62035 4.81303 0
M  V30 6373 N 582.371 -1.3172 0.865308 0
M  V30 6374 C 583.787 -1.4958 0.556596 0
M  V30 6375 C 583.987 -1.79763 -0.910353 0
M  V30 6376 O 583.043 -1.87351 -1.6928 0
M  V30 6377 C 584.356 -2.63277 1.45279 0
M  V30 6378 C 585.904 -2.77161 1.45433 0
M  V30 6379 C 586.379 -3.93949 2.33598 0
M  V30 6380 N 587.87 -4.01228 2.31453 0
M  V30 6381 C 588.605 -4.90855 2.96393 0
M  V30 6382 N 588.101 -5.85416 3.70486 0
M  V30 6383 N 589.894 -4.84063 2.85726 0
M  V30 6384 H 582.045 -1.10396 1.81456 0
M  V30 6385 H 584.308 -0.54507 0.775631 0
M  V30 6386 H 584.014 -2.47734 2.49641 0
M  V30 6387 H 583.888 -3.59309 1.14792 0
M  V30 6388 H 586.275 -2.9212 0.41831 0
M  V30 6389 H 586.356 -1.8181 1.79941 0
M  V30 6390 H 586 -3.79748 3.37274 0
M  V30 6391 H 585.93 -4.88598 1.96417 0
M  V30 6392 H 588.421 -3.3357 1.77593 0
M  V30 6393 H 588.734 -6.50525 4.17178 0
M  V30 6394 H 587.079 -5.85409 3.74594 0
M  V30 6395 H 590.27 -4.09163 2.27384 0
M  V30 6396 H 590.443 -5.53708 3.36617 0
M  V30 6397 N 583.85 -0.624285 -1.44708 0
M  V30 6398 C 585.26 -0.2092 -1.85524 0
M  V30 6399 C 585.611 1.23783 -1.52225 0
M  V30 6400 O 584.736 1.94089 -0.956986 0
M  V30 6401 C 585.332 -0.372897 -3.36742 0
M  V30 6402 C 583.891 -0.012374 -3.76398 0
M  V30 6403 C 583.038 -0.68951 -2.68591 0
M  V30 6404 H 585.989 -0.829894 -1.35272 0
M  V30 6405 H 586.01 0.390134 -3.78495 0
M  V30 6406 H 585.522 -1.42615 -3.60947 0
M  V30 6407 H 583.623 1.03941 -3.57809 0
M  V30 6408 H 583.736 -0.417663 -4.77276 0
M  V30 6409 H 582.1 -0.125484 -2.54391 0
M  V30 6410 H 582.883 -1.74522 -2.9563 0
M  V30 6411 N 585.328 1.53329 -0.364422 0
M  V30 6412 C 586.744 1.59594 -0.0133165 0
M  V30 6413 C 586.944 1.37959 1.46865 0
M  V30 6414 O 586 1.18418 2.2301 0
M  V30 6415 C 587.313 2.97032 -0.468213 0
M  V30 6416 C 588.861 3.10138 -0.422334 0
M  V30 6417 C 589.336 4.49986 -0.853024 0
M  V30 6418 N 590.827 4.56098 -0.808037 0
M  V30 6419 C 591.562 5.62495 -1.11299 0
M  V30 6420 N 591.058 6.7665 -1.48717 0
M  V30 6421 N 592.851 5.52473 -1.03586 0
M  V30 6422 H 585.002 1.65644 -1.32951 0
M  V30 6423 H 587.265 0.77684 -0.543345 0
M  V30 6424 H 586.971 3.18 -1.5023 0
M  V30 6425 H 586.845 3.76918 0.145775 0
M  V30 6426 H 589.232 2.88881 0.602622 0
M  V30 6427 H 589.313 2.32263 -1.0718 0
M  V30 6428 H 588.957 4.7198 -1.87609 0
M  V30 6429 H 588.887 5.26289 -0.180819 0
M  V30 6430 H 591.378 3.74131 -0.532361 0
M  V30 6431 H 591.691 7.53776 -1.70415 0
M  V30 6432 H 590.036 6.78044 -1.52581 0
M  V30 6433 H 593.227 4.6217 -0.742736 0
M  V30 6434 H 593.4 6.35295 -1.27686 0
M  V30 6435 N 586.806 0.0935595 1.57322 0
M  V30 6436 C 588.083 -0.612692 1.85756 0
M  V30 6437 C 588.463 -1.86439 0.99013 0
M  V30 6438 O 587.811 -2.28416 0.0621362 0
M  V30 6439 C 588.021 -0.929547 3.36393 0
M  V30 6440 C 589.369 -1.29366 4.04413 0
M  V30 6441 O 590.393 -1.02061 3.41265 0
M  V30 6442 O 589.252 -1.80498 5.15832 0
M  V30 6443 H 586.346 -0.306444 0.768128 0
M  V30 6444 H 588.892 0.126141 1.69231 0
M  V30 6445 H 587.664 -0.0414766 3.91278 0
M  V30 6446 H 587.287 -1.72441 3.5826 0
M  V30 6447 N 588.284 -1.56567 -0.180126 0
M  V30 6448 C 589.509 -1.85975 -0.918041 0
M  V30 6449 C 589.934 -0.678888 -1.75422 0
M  V30 6450 O 589.292 0.372168 -1.77439 0
M  V30 6451 C 589.34 -3.13731 -1.77779 0
M  V30 6452 O 588.444 -2.95335 -2.87838 0
M  V30 6453 H 587.785 -0.61196 -0.257683 0
M  V30 6454 H 590.315 -2.03798 -0.180923 0
M  V30 6455 H 590.325 -3.4491 -2.17948 0
M  V30 6456 H 589 -3.99293 -1.16352 0
M  V30 6457 H 587.577 -2.7549 -2.51316 0
M  V30 6458 N 589.762 0.448376 -1.51087 0
M  V30 6459 C 590.71 1.56407 -1.72161 0
M  V30 6460 C 591.704 1.58878 -0.587721 0
M  V30 6461 O 592.91 1.62755 -0.768822 0
M  V30 6462 H 589.285 0.519423 -0.543786 0
M  V30 6463 H 591.256 1.35803 -2.65707 0
M  V30 6464 C 590.005 2.94163 -1.85373 0
M  V30 6465 H 589.328 2.9299 -2.72024 0
M  V30 6466 H 590.768 3.71625 -2.04135 0
M  V30 6467 C 589.227 3.31317 -0.610803 0
M  V30 6468 O 589.757 4.00985 0.239636 0
M  V30 6469 N 587.963 2.86966 -0.458127 0
M  V30 6470 H 587.51 2.30443 -1.15124 0
M  V30 6471 H 587.468 3.12188 0.372289 0
M  V30 6472 N 591.24 1.41047 0.703093 0
M  V30 6473 C 592.15 1.44645 1.84703 0
M  V30 6474 C 593.166 0.337778 1.7069 0
M  V30 6475 O 594.342 0.584327 1.92737 0
M  V30 6476 C 591.407 1.31928 3.20618 0
M  V30 6477 C 590.468 2.53047 3.46794 0
M  V30 6478 C 589.701 2.40927 4.76224 0
M  V30 6479 O 589.924 1.42978 5.5219 0
M  V30 6480 O 588.858 3.30543 5.03016 0
M  V30 6481 H 592.684 2.41139 1.84624 0
M  V30 6482 H 590.269 1.22504 0.855167 0
M  V30 6483 H 592.151 1.27092 4.01778 0
M  V30 6484 H 590.826 0.385469 3.21397 0
M  V30 6485 H 589.733 2.6346 2.65593 0
M  V30 6486 H 591.066 3.45231 3.50822 0
M  V30 6487 N 592.718 -0.936591 1.26751 0
M  V30 6488 C 593.648 -2.05315 1.11212 0
M  V30 6489 C 594.629 -1.70092 0.0160262 0
M  V30 6490 O 595.814 -1.93279 0.188894 0
M  V30 6491 C 592.944 -3.39123 0.749171 0
M  V30 6492 C 591.898 -3.88425 1.79751 0
M  V30 6493 C 591.224 -5.18936 1.28876 0
M  V30 6494 C 592.524 -4.12798 3.19992 0
M  V30 6495 H 594.218 -2.18573 2.04613 0
M  V30 6496 H 591.764 -1.05027 0.985159 0
M  V30 6497 H 593.717 -4.16704 0.627323 0
M  V30 6498 H 592.441 -3.25855 -0.220543 0
M  V30 6499 H 591.1 -3.13028 1.90811 0
M  V30 6500 H 590.748 -5.02051 0.308757 0
M  V30 6501 H 590.448 -5.52892 1.98958 0
M  V30 6502 H 591.972 -5.99096 1.17967 0
M  V30 6503 H 593.386 -4.80977 3.11983 0
M  V30 6504 H 591.783 -4.58044 3.87705 0
M  V30 6505 H 592.853 -3.18412 3.65707 0
M  V30 6506 N 594.196 -1.08629 -1.14182 0
M  V30 6507 C 595.442 -0.818556 -1.85546 0
M  V30 6508 C 595.775 0.654076 -1.82854 0
M  V30 6509 O 595.05 1.48099 -1.26083 0
M  V30 6510 C 595.333 -1.34397 -3.3408 0
M  V30 6511 C 595.186 -2.8821 -3.45333 0
M  V30 6512 C 596.505 -0.971069 -4.29253 0
M  V30 6513 H 593.624 -0.298821 -0.673702 0
M  V30 6514 H 596.266 -1.34629 -1.34071 0
M  V30 6515 H 594.416 -0.895064 -3.78049 0
M  V30 6516 H 596.088 -3.41488 -3.10134 0
M  V30 6517 H 594.331 -3.25756 -2.86471 0
M  V30 6518 H 595.002 -3.20047 -4.49749 0
M  V30 6519 H 597.478 -1.35809 -3.93313 0
M  V30 6520 H 596.354 -1.36586 -5.31635 0
M  V30 6521 H 596.615 0.121659 -4.41933 0
M  V30 6522 N 595.674 1.31259 -0.872281 0
M  V30 6523 C 597.085 1.78822 -0.536617 0
M  V30 6524 C 597.436 1.71855 0.946594 0
M  V30 6525 O 596.561 1.28769 1.73918 0
M  V30 6526 C 597.156 3.24698 -0.967294 0
M  V30 6527 C 595.715 3.70147 -0.683251 0
M  V30 6528 C 594.862 2.51994 -1.15733 0
M  V30 6529 H 597.813 1.18308 -1.05777 0
M  V30 6530 H 597.834 3.79386 -0.290929 0
M  V30 6531 H 597.346 3.29737 -2.04683 0
M  V30 6532 H 595.447 3.70607 0.384825 0
M  V30 6533 H 595.56 4.62183 -1.2619 0
M  V30 6534 H 593.924 2.48078 -0.577024 0
M  V30 6535 H 594.707 2.59778 -2.24434 0
M  V30 6536 N 597.152 0.631951 1.44375 0
M  V30 6537 C 598.082 -0.0593243 2.33425 0
M  V30 6538 C 599.063 -0.833964 1.48253 0
M  V30 6539 O 600.248 -0.799682 1.76971 0
M  V30 6540 C 597.378 -1.04096 3.31333 0
M  V30 6541 C 596.332 -0.377899 4.26328 0
M  V30 6542 C 595.658 -1.4695 5.14111 0
M  V30 6543 C 596.958 0.716371 5.17364 0
M  V30 6544 H 598.652 0.684287 2.91475 0
M  V30 6545 H 596.198 0.330518 1.40156 0
M  V30 6546 H 598.151 -1.53331 3.92514 0
M  V30 6547 H 596.875 -1.81547 2.71493 0
M  V30 6548 H 595.534 0.0938054 3.6648 0
M  V30 6549 H 595.182 -2.2349 4.50623 0
M  V30 6550 H 594.882 -1.03121 5.78481 0
M  V30 6551 H 596.406 -1.96363 5.78164 0
M  V30 6552 H 597.82 0.307089 5.72477 0
M  V30 6553 H 596.217 1.07784 5.90341 0
M  V30 6554 H 597.287 1.58316 4.58327 0
M  V30 6555 N 598.631 -1.53133 0.372548 0
M  V30 6556 C 599.856 -2.0625 -0.218098 0
M  V30 6557 C 600.281 -1.24375 -1.41111 0
M  V30 6558 O 599.639 -0.264554 -1.79359 0
M  V30 6559 C 599.687 -3.55858 -0.582876 0
M  V30 6560 O 598.791 -3.76667 -1.67917 0
M  V30 6561 H 598.132 -0.663317 -0.030104 0
M  V30 6562 H 600.662 -1.97477 0.535169 0
M  V30 6563 H 600.672 -3.99007 -0.851925 0
M  V30 6564 H 599.347 -4.14892 0.289428 0
M  V30 6565 H 597.924 -3.45413 -1.40513 0
M  V30 6566 N 600.109 -0.101901 -1.5727 0
M  V30 6567 C 601.019 0.868647 -2.17926 0
M  V30 6568 C 602.035 1.30527 -1.1506 0
M  V30 6569 O 603.211 1.37178 -1.47459 0
M  V30 6570 C 600.276 2.10727 -2.75309 0
M  V30 6571 C 599.337 1.7242 -3.93154 0
M  V30 6572 C 598.57 2.90377 -4.47791 0
M  V30 6573 O 598.793 4.05305 -4.01353 0
M  V30 6574 O 597.727 2.6845 -5.38719 0
M  V30 6575 H 601.553 0.382544 -3.01281 0
M  V30 6576 H 599.138 0.122812 -1.48894 0
M  V30 6577 H 601.02 2.83303 -3.11958 0
M  V30 6578 H 599.695 2.58376 -1.94996 0
M  V30 6579 H 598.602 0.970039 -3.61305 0
M  V30 6580 H 599.935 1.29528 -4.74851 0
M  V30 6581 N 601.587 1.56661 0.17182 0
M  V30 6582 C 602.864 1.72838 0.915778 0
M  V30 6583 C 603.244 0.66316 2.00413 0
M  V30 6584 O 602.592 -0.322123 2.26218 0
M  V30 6585 C 602.802 3.16019 1.48097 0
M  V30 6586 C 604.15 3.76962 1.95408 0
M  V30 6587 O 605.174 3.19294 1.57892 0
M  V30 6588 O 604.033 4.78219 2.64516 0
M  V30 6589 H 601.127 0.705797 0.431021 0
M  V30 6590 H 603.673 1.68947 0.159689 0
M  V30 6591 H 602.445 3.85031 0.697618 0
M  V30 6592 H 602.068 3.24234 2.30126 0
M  V30 6593 N 603.065 -0.440357 1.51323 0
M  V30 6594 C 604.29 -1.21716 1.67928 0
M  V30 6595 C 604.715 -1.84328 0.374826 0
M  V30 6596 O 604.073 -1.68675 -0.664706 0
M  V30 6597 C 604.121 -2.27914 2.79442 0
M  V30 6598 O 603.225 -3.33325 2.42834 0
M  V30 6599 H 602.566 -0.35674 0.560029 0
M  V30 6600 H 605.096 -0.520417 1.97871 0
M  V30 6601 H 605.106 -2.72746 3.03436 0
M  V30 6602 H 603.781 -1.8172 3.741 0
M  V30 6603 H 602.358 -2.9399 2.294 0
M  V30 6604 N 604.543 -1.41418 -0.695603 0
M  V30 6605 C 605.476 -1.3768 -1.81988 0
M  V30 6606 C 606.454 -0.244061 -1.60758 0
M  V30 6607 O 607.638 -0.430965 -1.83507 0
M  V30 6608 C 604.765 -1.1476 -3.18666 0
M  V30 6609 C 603.811 -2.30752 -3.58686 0
M  V30 6610 S 604.644 -3.9323 -3.63498 0
M  V30 6611 C 605.8 -3.72613 -5.02902 0
M  V30 6612 H 606.033 -2.32822 -1.84882 0
M  V30 6613 H 603.566 -1.27942 -0.86431 0
M  V30 6614 H 605.524 -1.02223 -3.97569 0
M  V30 6615 H 604.185 -0.212385 -3.13381 0
M  V30 6616 H 603.378 -2.10409 -4.57978 0
M  V30 6617 H 602.98 -2.39696 -2.87092 0
M  V30 6618 H 605.272 -3.32317 -5.904 0
M  V30 6619 H 606.215 -4.71507 -5.28286 0
M  V30 6620 H 606.623 -3.0589 -4.74438 0
M  V30 6621 N 606.021 0.929856 -1.27246 0
M  V30 6622 C 606.968 2.03017 -1.09785 0
M  V30 6623 C 607.938 1.661 0.000456744 0
M  V30 6624 O 609.123 1.90116 -0.161462 0
M  V30 6625 C 606.263 3.36878 -0.748816 0
M  V30 6626 C 605.376 3.86763 -1.92453 0
M  V30 6627 C 604.511 5.09061 -1.51758 0
M  V30 6628 C 603.55 5.51237 -2.66091 0
M  V30 6629 N 602.687 6.64732 -2.25999 0
M  V30 6630 H 607.527 2.17285 -2.03939 0
M  V30 6631 H 605.064 1.06448 -1.01524 0
M  V30 6632 H 607.022 4.13855 -0.527283 0
M  V30 6633 H 605.652 3.22424 0.155771 0
M  V30 6634 H 604.704 3.06086 -2.25867 0
M  V30 6635 H 606.016 4.13994 -2.78227 0
M  V30 6636 H 605.17 5.93532 -1.25716 0
M  V30 6637 H 603.909 4.83602 -0.630896 0
M  V30 6638 H 602.914 4.65316 -2.92849 0
M  V30 6639 H 604.139 5.78692 -3.55377 0
M  V30 6640 H 602.085 6.40935 -1.3978 0
M  V30 6641 H 602.002 6.91607 -3.05313 0
M  V30 6642 H 603.27 7.52549 -2.03199 0
M  V30 6643 N 607.499 1.09233 1.13605 0
M  V30 6644 C 608.776 0.739633 1.81077 0
M  V30 6645 C 609.156 -0.775595 1.96336 0
M  V30 6646 O 608.504 -1.69726 1.52988 0
M  V30 6647 C 608.714 1.47636 3.16235 0
M  V30 6648 C 610.062 1.64087 3.91613 0
M  V30 6649 O 611.086 1.43871 3.25852 0
M  V30 6650 O 609.945 1.97511 5.0956 0
M  V30 6651 H 607.039 0.265464 0.783236 0
M  V30 6652 H 609.585 1.19441 1.20549 0
M  V30 6653 H 608.357 2.50818 3.00344 0
M  V30 6654 H 607.98 1.01362 3.84462 0
M  V30 6655 N 608.977 -1.30795 0.87923 0
M  V30 6656 C 609.94 -2.26563 0.346676 0
M  V30 6657 C 610.94 -1.52578 -0.507597 0
M  V30 6658 O 612.13 -1.71318 -0.315575 0
M  V30 6659 C 609.262 -3.37115 -0.506611 0
M  V30 6660 H 610.455 -2.75183 1.19223 0
M  V30 6661 H 608.008 -1.41886 0.655598 0
M  V30 6662 H 608.743 -2.93802 -1.37299 0
M  V30 6663 H 608.528 -3.91959 0.105218 0
M  V30 6664 H 610.018 -4.08412 -0.871192 0
M  V30 6665 N 610.455 -0.639598 -1.44038 0
M  V30 6666 C 611.701 -0.156248 -2.02799 0
M  V30 6667 C 612.056 1.21145 -1.49471 0
M  V30 6668 O 611.349 1.79406 -0.672608 0
M  V30 6669 C 611.543 -0.0925348 -3.5728 0
M  V30 6670 C 611.372 -1.45252 -4.25596 0
M  V30 6671 C 610.142 -2.04145 -4.62226 0
M  V30 6672 C 612.34 -2.38812 -4.55492 0
M  V30 6673 N 610.322 -3.3329 -5.15549 0
M  V30 6674 C 611.693 -3.52578 -5.09989 0
M  V30 6675 C 613.748 -2.37785 -4.3745 0
M  V30 6676 C 612.451 -4.65525 -5.48342 0
M  V30 6677 C 614.477 -3.49802 -4.76857 0
M  V30 6678 C 613.839 -4.62292 -5.31475 0
M  V30 6679 H 609.938 -0.101292 -0.775412 0
M  V30 6680 H 612.522 -0.844938 -1.75411 0
M  V30 6681 H 610.693 0.565459 -3.84262 0
M  V30 6682 H 612.425 0.400426 -4.02714 0
M  V30 6683 H 609.18 -1.56999 -4.4682 0
M  V30 6684 H 609.604 -3.9934 -5.46678 0
M  V30 6685 H 614.246 -1.52061 -3.94509 0
M  V30 6686 H 611.964 -5.51951 -5.90233 0
M  V30 6687 H 615.55 -3.50193 -4.64603 0
M  V30 6688 H 614.43 -5.47536 -5.61403 0
M  V30 6689 N 611.933 1.52934 -0.380664 0
M  V30 6690 C 613.181 2.01069 0.203874 0
M  V30 6691 C 613.502 1.26922 1.4804 0
M  V30 6692 O 612.772 0.386787 1.92044 0
M  V30 6693 H 611.352 0.742882 0.0783279 0
M  V30 6694 H 614.014 1.88099 -0.510368 0
M  V30 6695 H 613.11 3.09258 0.42021 0
M  V30 6696 N 613.412 0.11024 1.57214 0
M  V30 6697 C 614.344 -0.873497 2.11902 0
M  V30 6698 C 615.357 -1.23588 1.05971 0
M  V30 6699 O 616.546 -1.18636 1.33371 0
M  V30 6700 C 613.646 -2.17805 2.59643 0
M  V30 6701 C 612.819 -1.98869 3.89576 0
M  V30 6702 C 611.878 -3.12974 4.23006 0
M  V30 6703 O 610.904 -2.86272 4.91973 0
M  V30 6704 N 612.106 -4.39167 3.79622 0
M  V30 6705 H 614.871 -0.406317 2.96933 0
M  V30 6706 H 612.432 -0.074437 1.61729 0
M  V30 6707 H 614.424 -2.93117 2.79042 0
M  V30 6708 H 612.994 -2.55899 1.7954 0
M  V30 6709 H 612.214 -1.078 3.79174 0
M  V30 6710 H 613.502 -1.83512 4.74553 0
M  V30 6711 H 612.9 -4.63739 3.2398 0
M  V30 6712 H 611.457 -5.11379 4.04147 0
M  V30 6713 N 614.89 -1.56749 -0.16351 0
M  V30 6714 C 616.136 -1.82704 -0.880168 0
M  V30 6715 C 616.469 -0.689311 -1.81555 0
M  V30 6716 O 615.744 0.308224 -1.92042 0
M  V30 6717 C 616.027 -3.19084 -1.66905 0
M  V30 6718 C 615.88 -4.43397 -0.756269 0
M  V30 6719 C 617.199 -3.52493 -2.63509 0
M  V30 6720 H 614.318 -0.664608 -0.318535 0
M  V30 6721 H 616.96 -1.89438 -0.146036 0
M  V30 6722 H 615.11 -3.13475 -2.2949 0
M  V30 6723 H 616.782 -4.61079 -0.14269 0
M  V30 6724 H 615.025 -4.33752 -0.0647944 0
M  V30 6725 H 615.696 -5.3539 -1.34393 0
M  V30 6726 H 618.172 -3.58606 -2.11047 0
M  V30 6727 H 617.048 -4.48979 -3.15767 0
M  V30 6728 H 617.309 -2.77597 -3.44082 0
M  V30 6729 N 616.368 0.432326 -1.51554 0
M  V30 6730 C 617.315 1.52512 -1.7323 0
M  V30 6731 C 618.285 1.55863 -0.5741 0
M  V30 6732 O 619.47 1.72796 -0.809093 0
M  V30 6733 C 616.61 2.90183 -1.86783 0
M  V30 6734 C 615.723 2.96322 -3.14352 0
M  V30 6735 C 614.858 4.25147 -3.18471 0
M  V30 6736 C 613.897 4.25172 -4.40335 0
M  V30 6737 N 613.034 5.45529 -4.41975 0
M  V30 6738 H 617.874 1.33332 -2.66508 0
M  V30 6739 H 615.411 0.647613 -1.32077 0
M  V30 6740 H 617.369 3.70071 -1.92623 0
M  V30 6741 H 615.999 3.0791 -0.969087 0
M  V30 6742 H 615.051 2.09066 -3.17798 0
M  V30 6743 H 616.363 2.92203 -4.04251 0
M  V30 6744 H 615.517 5.13411 -3.23255 0
M  V30 6745 H 614.256 4.31929 -2.2647 0
M  V30 6746 H 613.261 3.353 -4.35723 0
M  V30 6747 H 614.486 4.20049 -5.33606 0
M  V30 6748 H 612.432 5.53024 -3.52847 0
M  V30 6749 H 612.349 5.43311 -5.25689 0
M  V30 6750 H 613.617 6.35812 -4.50958 0
M  V30 6751 N 617.846 1.41785 0.688094 0
M  V30 6752 C 618.794 1.44436 1.82321 0
M  V30 6753 C 619.788 0.321544 1.6632 0
M  V30 6754 O 620.994 0.493931 1.73091 0
M  V30 6755 H 617.369 0.452084 0.600936 0
M  V30 6756 H 619.34 2.40087 1.77202 0
M  V30 6757 C 618.089 1.35071 3.20392 0
M  V30 6758 H 617.412 2.2076 3.33324 0
M  V30 6759 H 618.852 1.40988 3.99873 0
M  V30 6760 C 617.311 0.0639127 3.36839 0
M  V30 6761 O 617.841 -0.888495 3.91751 0
M  V30 6762 N 616.047 -0.0146114 2.90596 0
M  V30 6763 H 615.594 0.761191 2.46097 0
M  V30 6764 H 615.552 -0.874988 3.01979 0
M  V30 6765 N 619.324 -0.923095 1.27737 0
M  V30 6766 C 620.554 -1.70277 1.17001 0
M  V30 6767 C 620.962 -1.87188 -0.275199 0
M  V30 6768 O 620.305 -1.39195 -1.19877 0
M  V30 6769 C 620.367 -3.11976 1.78637 0
M  V30 6770 C 620.031 -3.18386 3.27841 0
M  V30 6771 C 621.028 -3.00287 4.2441 0
M  V30 6772 C 618.713 -3.41198 3.68632 0
M  V30 6773 C 620.707 -3.04896 5.59747 0
M  V30 6774 C 618.394 -3.4544 5.04097 0
M  V30 6775 C 619.392 -3.27309 5.99465 0
M  V30 6776 O 619.08 -3.31295 7.32461 0
M  V30 6777 H 618.812 -0.539366 0.407505 0
M  V30 6778 H 621.366 -1.16446 1.69202 0
M  V30 6779 H 619.596 -3.67308 1.20919 0
M  V30 6780 H 621.285 -3.7193 1.6255 0
M  V30 6781 H 622.051 -2.825 3.94232 0
M  V30 6782 H 617.93 -3.54359 2.94873 0
M  V30 6783 H 621.474 -2.90662 6.34162 0
M  V30 6784 H 617.371 -3.62753 5.33929 0
M  V30 6785 H 618.139 -3.47719 7.40968 0
M  V30 6786 N 620.802 -1.09834 -1.13024 0
M  V30 6787 C 622.042 -0.846664 -1.8604 0
M  V30 6788 C 622.406 0.616557 -1.81831 0
M  V30 6789 O 623.607 0.984329 -2.50129 0
M  V30 6790 C 621.878 -1.37228 -3.30005 0
M  V30 6791 S 623.437 -1.25511 -4.20467 0
M  V30 6792 H 620.255 -0.30611 -0.64173 0
M  V30 6793 H 622.857 -1.40255 -1.36194 0
M  V30 6794 H 621.561 -2.43138 -3.30624 0
M  V30 6795 H 621.092 -0.81271 -3.84914 0
M  V30 6796 H 623.107 -0.208762 -4.95761 0
M  V30 6797 N 622.28 1.30327 -0.886154 0
M  V30 6798 C 623.21 2.30549 -0.370028 0
M  V30 6799 C 624.191 1.61039 0.547751 0
M  V30 6800 O 625.376 1.8864 0.461353 0
M  V30 6801 C 622.506 3.44808 0.415275 0
M  V30 6802 C 621.46 4.26024 -0.41085 0
M  V30 6803 C 620.786 5.32347 0.501128 0
M  V30 6804 C 622.086 4.95433 -1.65359 0
M  V30 6805 H 623.78 2.73969 -1.20754 0
M  V30 6806 H 621.326 1.3171 -0.582097 0
M  V30 6807 H 623.279 4.13986 0.78699 0
M  V30 6808 H 622.003 3.00197 1.28644 0
M  V30 6809 H 620.662 3.58535 -0.764719 0
M  V30 6810 H 620.31 4.83982 1.37004 0
M  V30 6811 H 620.01 5.87581 -0.0478356 0
M  V30 6812 H 621.534 6.0438 0.869333 0
M  V30 6813 H 622.948 5.5712 -1.35239 0
M  V30 6814 H 621.345 5.60537 -2.14284 0
M  V30 6815 H 622.415 4.21493 -2.39733 0
M  V30 6816 N 623.758 0.647228 1.43697 0
M  V30 6817 C 624.986 0.16575 2.06235 0
M  V30 6818 C 625.401 -1.1662 1.48476 0
M  V30 6819 O 624.758 -1.7187 0.613762 0
M  V30 6820 C 624.809 0.0621651 3.61447 0
M  V30 6821 O 624.53 1.34146 4.17057 0
M  V30 6822 C 626.031 -0.446102 4.4105 0
M  V30 6823 H 623.251 0.0871158 0.665321 0
M  V30 6824 H 625.795 0.886183 1.84301 0
M  V30 6825 H 623.95 -0.608794 3.82587 0
M  V30 6826 H 624.364 1.19675 5.10664 0
M  V30 6827 H 625.838 -0.46755 5.50016 0
M  V30 6828 H 626.315 -1.47627 4.13646 0
M  V30 6829 H 626.921 0.192159 4.24866 0
M  V30 6830 N 625.236 -1.5273 0.388769 0
M  V30 6831 C 626.166 -2.29353 -0.438111 0
M  V30 6832 C 627.147 -1.32719 -1.06394 0
M  V30 6833 O 628.332 -1.61612 -1.07681 0
M  V30 6834 C 625.462 -3.09995 -1.56589 0
M  V30 6835 C 624.416 -4.14509 -1.06613 0
M  V30 6836 C 623.742 -4.83372 -2.28594 0
M  V30 6837 C 625.042 -5.22127 -0.134459 0
M  V30 6838 H 626.736 -2.98723 0.201206 0
M  V30 6839 H 624.282 -1.43665 0.0982089 0
M  V30 6840 H 626.235 -3.62357 -2.15118 0
M  V30 6841 H 624.959 -2.38357 -2.23279 0
M  V30 6842 H 623.618 -3.63128 -0.503383 0
M  V30 6843 H 623.266 -4.08283 -2.93792 0
M  V30 6844 H 622.966 -5.54012 -1.95817 0
M  V30 6845 H 624.49 -5.38538 -2.87766 0
M  V30 6846 H 625.904 -5.69851 -0.627914 0
M  V30 6847 H 624.301 -6.00011 0.103534 0
M  V30 6848 H 625.371 -4.77971 0.816798 0
M  V30 6849 N 626.714 -0.118576 -1.57153 0
M  V30 6850 C 627.96 0.534078 -1.96263 0
M  V30 6851 C 628.315 1.64316 -1.0009 0
M  V30 6852 O 627.608 1.91575 -0.0308582 0
M  V30 6853 C 627.802 1.11303 -3.39627 0
M  V30 6854 C 627.631 0.0615624 -4.49658 0
M  V30 6855 C 626.401 -0.370103 -5.03943 0
M  V30 6856 C 628.599 -0.719249 -5.09246 0
M  V30 6857 N 626.581 -1.40738 -5.9755 0
M  V30 6858 C 627.952 -1.60774 -5.98792 0
M  V30 6859 C 630.007 -0.770183 -4.91907 0
M  V30 6860 C 628.71 -2.54272 -6.72858 0
M  V30 6861 C 630.736 -1.69288 -5.66653 0
M  V30 6862 C 630.098 -2.56894 -6.55885 0
M  V30 6863 H 626.197 0.165072 -0.764379 0
M  V30 6864 H 628.781 -0.206596 -1.93601 0
M  V30 6865 H 626.952 1.82342 -3.42937 0
M  V30 6866 H 628.684 1.72996 -3.65861 0
M  V30 6867 H 625.439 0.0222121 -4.73595 0
M  V30 6868 H 625.863 -1.92493 -6.49057 0
M  V30 6869 H 630.505 -0.106999 -4.22665 0
M  V30 6870 H 628.223 -3.21605 -7.41347 0
M  V30 6871 H 631.809 -1.73772 -5.55243 0
M  V30 6872 H 630.689 -3.27131 -7.1271 0
M  V30 6873 N 628.193 1.56834 0.155195 0
M  V30 6874 C 629.433 1.84701 0.875488 0
M  V30 6875 C 629.797 0.701747 1.78716 0
M  V30 6876 O 630.998 0.861263 2.54629 0
M  V30 6877 C 629.269 3.1773 1.63654 0
M  V30 6878 S 630.828 3.67128 2.40338 0
M  V30 6879 H 627.646 0.647856 0.292923 0
M  V30 6880 H 630.248 1.95026 0.136024 0
M  V30 6881 H 628.952 3.99059 0.958117 0
M  V30 6882 H 628.483 3.10388 2.41708 0
M  V30 6883 H 630.498 3.35739 3.65368 0
M  V30 6884 N 629.671 -0.424282 1.51781 0
M  V30 6885 C 630.581 -1.54087 1.76902 0
M  V30 6886 C 631.597 -1.61249 0.653826 0
M  V30 6887 O 632.773 -1.78247 0.937552 0
M  V30 6888 C 629.838 -2.8996 1.90063 0
M  V30 6889 C 628.899 -2.92809 3.13945 0
M  V30 6890 C 628.132 -4.22201 3.26469 0
M  V30 6891 O 628.355 -5.15286 2.44616 0
M  V30 6892 O 627.289 -4.31599 4.1953 0
M  V30 6893 H 631.115 -1.358 2.71647 0
M  V30 6894 H 628.7 -0.608618 1.36441 0
M  V30 6895 H 630.582 -3.70575 2.0063 0
M  V30 6896 H 629.257 -3.08347 0.985067 0
M  V30 6897 H 628.164 -2.11102 3.08847 0
M  V30 6898 H 629.497 -2.79369 4.05233 0
M  V30 6899 N 631.149 -1.42148 -0.680565 0
M  V30 6900 C 632.097 -1.45401 -1.81552 0
M  V30 6901 C 633.091 -0.33036 -1.66147 0
M  V30 6902 O 634.297 -0.503103 -1.72826 0
M  V30 6903 H 630.672 -0.455265 -0.59853 0
M  V30 6904 H 632.643 -2.41024 -1.75926 0
M  V30 6905 C 631.392 -1.36769 -3.19671 0
M  V30 6906 H 630.715 -2.22525 -3.32149 0
M  V30 6907 H 632.155 -1.43106 -3.9912 0
M  V30 6908 C 630.614 -0.0817752 -3.36801 0
M  V30 6909 O 631.144 0.867707 -3.92216 0
M  V30 6910 N 629.35 -0.000799811 -2.906 0
M  V30 6911 H 628.897 -0.774231 -2.4569 0
M  V30 6912 H 628.855 0.858961 -3.02439 0
M  V30 6913 N 632.627 0.916307 -1.28225 0
M  V30 6914 C 633.855 1.69901 -1.18073 0
M  V30 6915 C 634.27 1.86988 0.260968 0
M  V30 6916 O 633.627 1.39505 1.17663 0
M  V30 6917 C 633.678 3.09254 -1.87201 0
M  V30 6918 O 633.399 2.92959 -3.2574 0
M  V30 6919 C 634.9 4.0362 -1.83319 0
M  V30 6920 H 632.12 0.531181 -0.409985 0
M  V30 6921 H 634.664 1.14703 -1.69303 0
M  V30 6922 H 632.819 3.61277 -1.39848 0
M  V30 6923 H 633.233 3.81139 -3.60324 0
M  V30 6924 H 634.707 4.98873 -2.36282 0
M  V30 6925 H 635.184 4.3176 -0.805007 0
M  V30 6926 H 635.79 3.57524 -2.3034 0
M  V30 6927 N 634.105 1.10431 1.1244 0
M  V30 6928 C 635.351 0.847972 1.84221 0
M  V30 6929 C 635.684 -0.624903 1.83871 0
M  V30 6930 O 634.959 -1.46074 1.28423 0
M  V30 6931 C 635.242 1.39695 3.319 0
M  V30 6932 C 635.095 2.93668 3.40704 0
M  V30 6933 C 636.414 1.03924 4.27654 0
M  V30 6934 H 633.533 0.309502 0.668863 0
M  V30 6935 H 636.175 1.36745 1.31912 0
M  V30 6936 H 634.325 0.955095 3.76577 0
M  V30 6937 H 635.997 3.46379 3.04662 0
M  V30 6938 H 634.24 3.30272 2.81252 0
M  V30 6939 H 634.911 3.27162 4.446 0
M  V30 6940 H 637.387 1.42049 3.91102 0
M  V30 6941 H 636.263 1.45027 5.29394 0
M  V30 6942 H 636.524 -0.051336 4.4207 0
M  V30 6943 N 635.583 -1.29855 0.893053 0
M  V30 6944 C 636.831 -1.9544 0.514566 0
M  V30 6945 C 637.152 -1.70795 -0.940959 0
M  V30 6946 O 636.422 -1.03601 -1.66264 0
M  V30 6947 H 635.002 -0.723137 0.187302 0
M  V30 6948 H 637.664 -1.58234 1.13789 0
M  V30 6949 H 636.76 -3.04341 0.691581 0
M  V30 6950 N 637.061 -0.65484 -1.43351 0
M  V30 6951 C 638.338 -0.0987371 -1.95351 0
M  V30 6952 C 638.718 1.38161 -1.59608 0
M  V30 6953 O 638.066 2.10791 -0.882021 0
M  V30 6954 C 638.276 -0.346684 -3.47274 0
M  V30 6955 C 639.624 -0.25249 -4.23849 0
M  V30 6956 O 640.648 -0.279332 -3.55103 0
M  V30 6957 O 639.507 -0.177584 -5.46211 0
M  V30 6958 H 636.601 0.0086829 -0.826954 0
M  V30 6959 H 639.147 -0.728189 -1.53282 0
M  V30 6960 H 637.919 -1.37296 -3.66423 0
M  V30 6961 H 637.542 0.315757 -3.96344 0
M  V30 6962 N 638.539 1.52521 -0.396863 0
M  V30 6963 C 639.471 2.24333 0.469814 0
M  V30 6964 C 640.484 1.2685 1.02043 0
M  V30 6965 O 641.673 1.52876 0.92147 0
M  V30 6966 C 638.773 2.95202 1.66461 0
M  V30 6967 C 637.946 4.19454 1.24003 0
M  V30 6968 C 637.005 4.73255 2.30036 0
M  V30 6969 O 636.031 5.36151 1.91131 0
M  V30 6970 N 637.233 4.53765 3.62047 0
M  V30 6971 H 639.998 2.99347 -0.145468 0
M  V30 6972 H 637.559 1.60348 -0.223606 0
M  V30 6973 H 639.551 3.28092 2.36934 0
M  V30 6974 H 638.121 2.2345 2.18607 0
M  V30 6975 H 637.341 3.92517 0.363892 0
M  V30 6976 H 638.629 5.0017 0.933135 0
M  V30 6977 H 638.027 4.03576 3.96412 0
M  V30 6978 H 636.584 4.91124 4.28533 0
M  V30 6979 N 640.017 0.126909 1.57088 0
M  V30 6980 C 641.265 -0.528123 1.95078 0
M  V30 6981 C 641.586 -1.66708 1.0116 0
M  V30 6982 O 640.856 -1.95777 0.0693527 0
M  V30 6983 H 639.436 -0.198087 0.720257 0
M  V30 6984 H 642.098 0.197703 1.93895 0
M  V30 6985 H 641.194 -0.917507 2.98309 0
M  V30 6986 N 641.495 -1.56914 -0.146875 0
M  V30 6987 C 642.742 -1.83356 -0.859467 0
M  V30 6988 C 643.07 -0.707811 -1.81164 0
M  V30 6989 O 642.325 0.303155 -1.93338 0
M  V30 6990 C 642.624 -3.16128 -1.66727 0
M  V30 6991 C 642.29 -4.42586 -0.861881 0
M  V30 6992 C 640.952 -4.76929 -0.639687 0
M  V30 6993 C 643.304 -5.20344 -0.298643 0
M  V30 6994 C 640.632 -5.86491 0.156451 0
M  V30 6995 C 642.984 -6.30742 0.484536 0
M  V30 6996 C 641.648 -6.63635 0.717306 0
M  V30 6997 H 640.918 -0.670947 -0.314501 0
M  V30 6998 H 643.565 -1.91104 -0.123108 0
M  V30 6999 H 641.87 -3.03831 -2.47374 0
M  V30 7000 H 643.567 -3.33802 -2.2221 0
M  V30 7001 H 640.157 -4.15662 -1.04513 0
M  V30 7002 H 644.341 -4.94186 -0.457585 0
M  V30 7003 H 639.597 -6.10419 0.346292 0
M  V30 7004 H 643.771 -6.90188 0.928105 0
M  V30 7005 H 641.398 -7.48367 1.33607 0
M  V30 7006 N 642.974 0.416227 -1.52004 0
M  V30 7007 C 644.385 0.995319 -1.57957 0
M  V30 7008 C 644.736 1.91744 -0.415754 0
M  V30 7009 O 643.861 2.11349 0.464808 0
M  V30 7010 C 644.456 1.81191 -2.86278 0
M  V30 7011 C 643.015 2.34115 -2.94732 0
M  V30 7012 C 642.162 1.139 -2.52828 0
M  V30 7013 H 645.113 0.196716 -1.57476 0
M  V30 7014 H 645.134 2.66859 -2.71231 0
M  V30 7015 H 644.646 1.14051 -3.70963 0
M  V30 7016 H 642.747 3.04647 -2.14525 0
M  V30 7017 H 642.86 2.65466 -3.98829 0
M  V30 7018 H 641.224 1.49081 -2.06511 0
M  V30 7019 H 642.007 0.483383 -3.3988 0
M  V30 7020 N 644.452 1.42507 0.673017 0
M  V30 7021 C 645.729 1.33554 1.42908 0
M  V30 7022 C 646.109 -0.0262211 2.11084 0
M  V30 7023 O 645.457 -1.04181 2.03368 0
M  V30 7024 C 645.667 2.50498 2.43006 0
M  V30 7025 C 647.015 2.92694 3.07596 0
M  V30 7026 O 648.039 2.50401 2.53333 0
M  V30 7027 O 646.898 3.65899 4.05931 0
M  V30 7028 H 643.992 0.526785 0.637516 0
M  V30 7029 H 646.538 1.54518 0.701591 0
M  V30 7030 H 645.31 3.41272 1.9144 0
M  V30 7031 H 644.933 2.3153 3.23233 0
M  V30 7032 N 645.93 -0.909495 1.28709 0
M  V30 7033 C 646.84 -2.04558 1.14861 0
M  V30 7034 C 647.856 -1.73842 0.0741621 0
M  V30 7035 O 649.032 -1.99383 0.2843 0
M  V30 7036 C 646.097 -3.36957 0.816148 0
M  V30 7037 C 645.158 -3.81255 1.97341 0
M  V30 7038 C 644.391 -5.07335 1.65671 0
M  V30 7039 O 644.614 -5.67514 0.573053 0
M  V30 7040 O 643.548 -5.47449 2.50167 0
M  V30 7041 H 647.374 -2.19161 2.10243 0
M  V30 7042 H 644.959 -1.03159 1.08068 0
M  V30 7043 H 646.841 -4.16436 0.644873 0
M  V30 7044 H 645.516 -3.2352 -0.107983 0
M  V30 7045 H 644.423 -3.02584 2.19986 0
M  V30 7046 H 645.756 -3.99261 2.87839 0
M  V30 7047 N 647.408 -1.11026 -1.11852 0
M  V30 7048 C 648.819 -0.873203 -1.65021 0
M  V30 7049 C 649.17 0.595364 -1.86949 0
M  V30 7050 O 648.295 1.45645 -1.60051 0
M  V30 7051 C 648.89 -1.57859 -2.99777 0
M  V30 7052 C 647.449 -1.38807 -3.49871 0
M  V30 7053 C 646.596 -1.62403 -2.24768 0
M  V30 7054 H 649.547 -1.26712 -0.955503 0
M  V30 7055 H 649.568 -1.02111 -3.66543 0
M  V30 7056 H 649.08 -2.6474 -2.83786 0
M  V30 7057 H 647.181 -0.341163 -3.71035 0
M  V30 7058 H 647.294 -2.13421 -4.28938 0
M  V30 7059 H 645.658 -1.04714 -2.32179 0
M  V30 7060 H 646.441 -2.70549 -2.11324 0
M  V30 7061 N 648.886 1.2938 -0.899927 0
M  V30 7062 C 649.833 2.27713 -0.376243 0
M  V30 7063 C 650.803 1.57016 0.541774 0
M  V30 7064 O 651.988 1.84997 0.466966 0
M  V30 7065 C 649.128 3.42889 0.39 0
M  V30 7066 C 648.241 4.28369 -0.558938 0
M  V30 7067 C 647.376 5.30726 0.224379 0
M  V30 7068 C 646.415 6.07862 -0.719068 0
M  V30 7069 N 645.552 7.02094 0.0298569 0
M  V30 7070 H 650.392 2.71888 -1.21988 0
M  V30 7071 H 647.929 1.33724 -0.612879 0
M  V30 7072 H 649.887 4.08443 0.850314 0
M  V30 7073 H 648.517 2.99743 1.19809 0
M  V30 7074 H 647.569 3.62986 -1.13777 0
M  V30 7075 H 648.881 4.82068 -1.2811 0
M  V30 7076 H 648.035 6.02098 0.745881 0
M  V30 7077 H 646.774 4.77759 0.979674 0
M  V30 7078 H 645.779 5.35353 -1.25207 0
M  V30 7079 H 647.004 6.62917 -1.4737 0
M  V30 7080 H 644.95 6.51496 0.767415 0
M  V30 7081 H 644.867 7.5335 -0.632391 0
M  V30 7082 H 646.135 7.77685 0.531615 0
M  V30 7083 N 650.364 0.662433 1.43002 0
M  V30 7084 C 651.274 -0.0239199 2.34588 0
M  V30 7085 C 652.29 -0.802255 1.54402 0
M  V30 7086 O 653.466 -0.747401 1.87018 0
M  V30 7087 C 650.531 -0.972098 3.32793 0
M  V30 7088 C 649.592 -0.189673 4.28881 0
M  V30 7089 C 648.825 -1.09269 5.22395 0
M  V30 7090 O 649.048 -2.33209 5.20547 0
M  V30 7091 O 647.982 -0.560136 5.99288 0
M  V30 7092 H 651.808 0.730171 2.94792 0
M  V30 7093 H 649.393 0.422635 1.43297 0
M  V30 7094 H 651.275 -1.51676 3.93157 0
M  V30 7095 H 649.95 -1.70626 2.75079 0
M  V30 7096 H 648.857 0.398794 3.71968 0
M  V30 7097 H 650.19 0.50511 4.89601 0
M  V30 7098 N 651.842 -1.52309 0.404946 0
M  V30 7099 C 653.067 -2.06666 -0.1743 0
M  V30 7100 C 653.492 -1.27341 -1.38441 0
M  V30 7101 O 652.85 -0.302539 -1.78758 0
M  V30 7102 C 652.898 -3.57014 -0.507262 0
M  V30 7103 O 652.002 -3.80144 -1.59889 0
M  V30 7104 H 651.343 -0.663807 -0.0160273 0
M  V30 7105 H 653.873 -1.96297 0.576937 0
M  V30 7106 H 653.883 -4.00724 -0.767098 0
M  V30 7107 H 652.558 -4.14184 0.377368 0
M  V30 7108 H 651.135 -3.48316 -1.33155 0
M  V30 7109 N 653.32 -0.135238 -1.57019 0
M  V30 7110 C 654.23 0.822226 -2.19719 0
M  V30 7111 C 655.246 1.28057 -1.17802 0
M  V30 7112 O 656.422 1.3402 -1.50335 0
M  V30 7113 C 653.487 2.0484 -2.79717 0
M  V30 7114 C 652.548 1.64042 -3.96723 0
M  V30 7115 C 651.781 2.80814 -4.53849 0
M  V30 7116 O 652.004 3.967 -4.0986 0
M  V30 7117 O 650.938 2.56963 -5.44292 0
M  V30 7118 H 654.764 0.318552 -3.02025 0
M  V30 7119 H 652.349 0.0912021 -1.49121 0
M  V30 7120 H 654.231 2.76622 -3.17897 0
M  V30 7121 H 652.906 2.54182 -2.00432 0
M  V30 7122 H 651.813 0.893182 -3.63281 0
M  V30 7123 H 653.146 1.19426 -4.77492 0
M  V30 7124 N 654.798 1.5699 0.138552 0
M  V30 7125 C 655.745 1.98899 1.17081 0
M  V30 7126 C 656.715 0.857922 1.42228 0
M  V30 7127 O 657.9 1.12065 1.54422 0
M  V30 7128 C 655.04 2.38189 2.4972 0
M  V30 7129 C 654.153 3.64624 2.31674 0
M  V30 7130 C 653.288 3.9298 3.57407 0
M  V30 7131 C 652.327 5.1266 3.34435 0
M  V30 7132 N 651.464 5.36983 4.5232 0
M  V30 7133 H 656.304 2.86881 0.80642 0
M  V30 7134 H 653.841 1.41925 0.386727 0
M  V30 7135 H 655.799 2.59 3.2707 0
M  V30 7136 H 654.429 1.53275 2.84089 0
M  V30 7137 H 653.481 3.51542 1.45337 0
M  V30 7138 H 654.793 4.52131 2.10664 0
M  V30 7139 H 653.947 4.14335 4.43183 0
M  V30 7140 H 652.686 3.03912 3.8143 0
M  V30 7141 H 651.691 4.9117 2.47048 0
M  V30 7142 H 652.916 6.03288 3.11802 0
M  V30 7143 H 650.862 4.50871 4.76499 0
M  V30 7144 H 650.779 6.18775 4.34343 0
M  V30 7145 H 652.047 5.62842 5.39285 0
M  V30 7146 N 656.276 -0.40816 1.52223 0
M  V30 7147 C 657.239 -1.48 1.7501 0
M  V30 7148 C 658.239 -1.48367 0.619996 0
M  V30 7149 O 659.429 -1.49874 0.887881 0
M  V30 7150 C 656.561 -2.87403 1.83336 0
M  V30 7151 H 657.754 -1.29086 2.70697 0
M  V30 7152 H 655.307 -0.638715 1.42654 0
M  V30 7153 H 656.042 -3.11686 0.895677 0
M  V30 7154 H 655.827 -2.8854 2.65494 0
M  V30 7155 H 657.317 -3.65103 2.02705 0
M  V30 7156 N 657.755 -1.42862 -0.66545 0
M  V30 7157 C 659.032 -1.3431 -1.42197 0
M  V30 7158 C 659.412 0.0150265 -2.11095 0
M  V30 7159 O 658.76 1.03101 -2.03918 0
M  V30 7160 C 658.97 -2.51783 -2.41674 0
M  V30 7161 C 660.318 -2.94321 -3.0604 0
M  V30 7162 O 661.342 -2.51741 -2.52001 0
M  V30 7163 O 660.201 -3.68047 -4.03985 0
M  V30 7164 H 657.295 -0.530159 -0.634713 0
M  V30 7165 H 659.841 -1.54888 -0.693386 0
M  V30 7166 H 658.613 -3.42282 -1.89627 0
M  V30 7167 H 658.236 -2.33241 -3.22001 0
M  V30 7168 N 659.233 0.902656 -1.29189 0
M  V30 7169 C 660.196 1.98797 -1.14071 0
M  V30 7170 C 661.196 1.60615 -0.0770549 0
M  V30 7171 O 662.386 1.71165 -0.323753 0
M  V30 7172 C 659.518 3.32688 -0.743739 0
M  V30 7173 H 660.711 2.13637 -2.10473 0
M  V30 7174 H 658.264 1.08678 -1.12334 0
M  V30 7175 H 658.999 3.23549 0.220554 0
M  V30 7176 H 658.784 3.61765 -1.51223 0
M  V30 7177 H 660.274 4.12337 -0.660935 0
M  V30 7178 N 660.711 1.11618 1.11262 0
M  V30 7179 C 661.659 0.771291 2.1944 0
M  V30 7180 C 662.653 -0.238073 1.67719 0
M  V30 7181 O 663.859 -0.0971628 1.79738 0
M  V30 7182 H 660.234 0.231548 0.715465 0
M  V30 7183 H 662.205 1.69226 2.45775 0
M  V30 7184 C 660.954 0.232765 3.4692 0
M  V30 7185 H 660.277 1.00072 3.87073 0
M  V30 7186 H 661.717 0.0296561 4.2399 0
M  V30 7187 C 660.176 -1.03738 3.20531 0
M  V30 7188 O 660.706 -2.11675 3.41404 0
M  V30 7189 N 658.912 -0.960906 2.74253 0
M  V30 7190 H 658.459 -0.0824323 2.57468 0
M  V30 7191 H 658.417 -1.8114 2.56974 0
M  V30 7192 N 662.189 -1.289 0.906776 0
M  V30 7193 C 663.137 -2.29477 0.379873 0
M  V30 7194 C 664.131 -1.61068 -0.524747 0
M  V30 7195 O 665.337 -1.75344 -0.406765 0
M  V30 7196 H 661.712 -0.744742 0.10423 0
M  V30 7197 H 663.683 -2.71353 1.24137 0
M  V30 7198 C 662.432 -3.45713 -0.371154 0
M  V30 7199 H 661.755 -3.98551 0.315716 0
M  V30 7200 H 663.195 -4.18105 -0.704581 0
M  V30 7201 C 661.654 -2.9774 -1.57646 0
M  V30 7202 O 662.184 -2.99618 -2.67567 0
M  V30 7203 N 660.39 -2.53485 -1.42105 0
M  V30 7204 H 659.937 -2.52156 -0.526783 0
M  V30 7205 H 659.895 -2.21747 -2.22881 0
M  V30 7206 N 663.667 -0.670007 -1.42649 0
M  V30 7207 C 664.599 0.0501746 -2.29145 0
M  V30 7208 C 665.612 0.770331 -1.43422 0
M  V30 7209 O 666.801 0.625288 -1.6719 0
M  V30 7210 C 663.901 1.09463 -3.20735 0
M  V30 7211 C 663.074 0.44926 -4.35087 0
M  V30 7212 C 662.133 1.39285 -5.07431 0
M  V30 7213 O 661.159 0.894997 -5.6212 0
M  V30 7214 N 662.361 2.72631 -5.12496 0
M  V30 7215 H 665.126 -0.692312 -2.91594 0
M  V30 7216 H 662.687 -0.514056 -1.53522 0
M  V30 7217 H 664.679 1.72705 -3.65999 0
M  V30 7218 H 663.249 1.73891 -2.59771 0
M  V30 7219 H 662.469 -0.362573 -3.92529 0
M  V30 7220 H 663.757 -0.000544776 -5.088 0
M  V30 7221 H 663.155 3.15623 -4.69467 0
M  V30 7222 H 661.712 3.31132 -5.61422 0
M  V30 7223 N 665.145 1.52092 -0.413018 0
M  V30 7224 C 666.373 2.06274 0.160881 0
M  V30 7225 C 666.788 1.28273 1.38533 0
M  V30 7226 O 666.145 0.33563 1.79387 0
M  V30 7227 C 666.196 3.57921 0.507443 0
M  V30 7228 O 665.917 4.32971 -0.668388 0
M  V30 7229 C 667.418 4.28533 1.13465 0
M  V30 7230 H 664.638 0.67074 0.0186759 0
M  V30 7231 H 667.182 1.95951 -0.585092 0
M  V30 7232 H 665.337 3.68238 1.20331 0
M  V30 7233 H 665.751 5.23135 -0.378169 0
M  V30 7234 H 667.225 5.35804 1.32732 0
M  V30 7235 H 667.702 3.85258 2.10886 0
M  V30 7236 H 668.308 4.22595 0.478876 0
M  V30 7237 N 666.623 0.143563 1.56945 0
M  V30 7238 C 667.851 -0.515447 2.00377 0
M  V30 7239 C 668.266 -1.58643 1.02361 0
M  V30 7240 O 667.623 -1.82489 0.0201039 0
M  V30 7241 C 667.674 -1.11923 3.43737 0
M  V30 7242 O 667.395 -0.0910318 4.38005 0
M  V30 7243 C 668.896 -1.85918 4.02429 0
M  V30 7244 H 666.116 -0.134478 0.657386 0
M  V30 7245 H 668.66 0.237135 2.0312 0
M  V30 7246 H 666.815 -1.82245 3.41856 0
M  V30 7247 H 667.229 -0.532916 5.21786 0
M  V30 7248 H 668.703 -2.2346 5.04747 0
M  V30 7249 H 669.18 -2.7438 3.42947 0
M  V30 7250 H 669.786 -1.20303 4.07931 0
M  V30 7251 N 668.101 -1.57061 -0.130224 0
M  V30 7252 C 669.011 -2.02802 -1.17934 0
M  V30 7253 C 670.027 -0.946378 -1.46013 0
M  V30 7254 O 671.203 -1.25708 -1.57351 0
M  V30 7255 C 668.268 -2.41368 -2.48882 0
M  V30 7256 C 667.329 -3.63561 -2.28301 0
M  V30 7257 C 666.562 -4.00279 -3.53005 0
M  V30 7258 O 666.785 -3.37463 -4.59864 0
M  V30 7259 O 665.719 -4.93441 -3.44673 0
M  V30 7260 H 669.545 -2.92394 -0.820958 0
M  V30 7261 H 667.13 -1.45475 -0.340197 0
M  V30 7262 H 669.012 -2.66958 -3.26054 0
M  V30 7263 H 667.687 -1.54926 -2.84217 0
M  V30 7264 H 666.594 -3.43136 -1.49025 0
M  V30 7265 H 667.927 -4.50673 -1.97875 0
M  V30 7266 N 669.579 0.400081 -1.52437 0
M  V30 7267 C 670.99 0.97851 -1.59003 0
M  V30 7268 C 671.341 1.91293 -0.436068 0
M  V30 7269 O 670.466 2.1183 0.442365 0
M  V30 7270 C 671.061 1.78145 -2.88184 0
M  V30 7271 C 669.62 2.30976 -2.97199 0
M  V30 7272 C 668.767 1.11212 -2.54022 0
M  V30 7273 H 671.718 0.180002 -1.57676 0
M  V30 7274 H 671.739 2.63968 -2.74046 0
M  V30 7275 H 671.251 1.1011 -3.72152 0
M  V30 7276 H 669.352 3.02355 -2.17744 0
M  V30 7277 H 669.465 2.61221 -4.01622 0
M  V30 7278 H 667.829 1.46882 -2.08081 0
M  V30 7279 H 668.612 0.447307 -3.40373 0
M  V30 7280 N 671.057 1.43213 0.657864 0
M  V30 7281 C 671.989 1.43974 1.78337 0
M  V30 7282 C 673.002 0.336482 1.59285 0
M  V30 7283 O 674.191 0.600631 1.68091 0
M  V30 7284 C 671.291 1.23242 3.15697 0
M  V30 7285 C 670.464 2.46319 3.61449 0
M  V30 7286 C 669.523 2.2088 4.77597 0
M  V30 7287 O 668.549 2.942 4.87273 0
M  V30 7288 N 669.751 1.22251 5.67481 0
M  V30 7289 H 672.516 2.40993 1.78164 0
M  V30 7290 H 670.077 1.3831 0.841549 0
M  V30 7291 H 672.069 1.04113 3.91079 0
M  V30 7292 H 670.639 0.346849 3.1067 0
M  V30 7293 H 669.859 2.80904 2.76563 0
M  V30 7294 H 671.147 3.28239 3.88763 0
M  V30 7295 H 670.545 0.616433 5.62331 0
M  V30 7296 H 669.102 1.09107 6.42603 0
M  V30 7297 N 672.536 -0.895792 1.29666 0
M  V30 7298 C 673.466 -2.01673 1.17688 0
M  V30 7299 C 674.447 -1.69955 0.0701317 0
M  V30 7300 O 675.632 -1.9258 0.250289 0
M  V30 7301 C 672.762 -3.36568 0.856681 0
M  V30 7302 C 671.716 -3.82509 1.92017 0
M  V30 7303 C 671.042 -5.14574 1.4532 0
M  V30 7304 C 672.342 -4.02409 3.32963 0
M  V30 7305 H 674.036 -2.11953 2.11463 0
M  V30 7306 H 671.582 -1.01839 1.01807 0
M  V30 7307 H 673.535 -4.14498 0.759577 0
M  V30 7308 H 672.259 -3.26391 -0.116763 0
M  V30 7309 H 670.918 -3.068 2.00673 0
M  V30 7310 H 670.566 -5.00815 0.468325 0
M  V30 7311 H 670.266 -5.46283 2.16447 0
M  V30 7312 H 671.79 -5.9504 1.36968 0
M  V30 7313 H 673.204 -4.70808 3.27127 0
M  V30 7314 H 671.601 -4.45478 4.02082 0
M  V30 7315 H 672.671 -3.06616 3.75652 0
M  V30 7316 N 674.014 -1.12206 -1.10668 0
M  V30 7317 C 674.961 -0.787716 -2.16942 0
M  V30 7318 C 675.931 0.244442 -1.64291 0
M  V30 7319 O 677.116 0.119558 -1.90425 0
M  V30 7320 C 674.256 -0.24584 -3.44223 0
M  V30 7321 C 673.369 -1.33552 -4.10838 0
M  V30 7322 C 672.504 -0.753337 -5.25831 0
M  V30 7323 C 671.543 -1.82231 -5.84344 0
M  V30 7324 N 670.68 -1.25902 -6.90719 0
M  V30 7325 H 675.52 -1.69809 -2.44885 0
M  V30 7326 H 673.057 -0.847862 -1.20207 0
M  V30 7327 H 675.015 0.0863639 -4.17111 0
M  V30 7328 H 673.645 0.627702 -3.16638 0
M  V30 7329 H 672.697 -1.78454 -3.35944 0
M  V30 7330 H 674.009 -2.14396 -4.50373 0
M  V30 7331 H 673.163 -0.37166 -6.05561 0
M  V30 7332 H 671.902 0.0863297 -4.87624 0
M  V30 7333 H 670.907 -2.2132 -5.03287 0
M  V30 7334 H 672.132 -2.66515 -6.24617 0
M  V30 7335 H 670.078 -0.44114 -6.54515 0
M  V30 7336 H 669.995 -2.00408 -7.28953 0
M  V30 7337 H 671.263 -0.904498 -7.74235 0
M  V30 7338 N 675.492 1.28418 -0.913599 0
M  V30 7339 C 676.439 2.27301 -0.400373 0
M  V30 7340 C 677.409 1.57582 0.52509 0
M  V30 7341 O 678.594 1.85482 0.447318 0
M  V30 7342 C 675.734 3.43284 0.35361 0
M  V30 7343 C 674.847 4.27752 -0.604341 0
M  V30 7344 C 673.982 5.30934 0.168075 0
M  V30 7345 C 673.021 6.07065 -0.783499 0
M  V30 7346 N 672.158 7.02086 -0.0446112 0
M  V30 7347 H 676.998 2.70579 -1.24865 0
M  V30 7348 H 674.535 1.33067 -0.627028 0
M  V30 7349 H 676.493 4.09322 0.806945 0
M  V30 7350 H 675.123 3.00997 1.16623 0
M  V30 7351 H 674.175 3.61759 -1.17621 0
M  V30 7352 H 675.487 4.80682 -1.33216 0
M  V30 7353 H 674.641 6.02855 0.681979 0
M  V30 7354 H 673.38 4.78771 0.928947 0
M  V30 7355 H 672.385 5.33995 -1.30878 0
M  V30 7356 H 673.61 6.61317 -1.54392 0
M  V30 7357 H 671.556 6.52273 0.698272 0
M  V30 7358 H 671.473 7.52637 -0.712258 0
M  V30 7359 H 672.741 7.78205 0.449102 0
M  V30 7360 N 676.97 0.677563 1.42291 0
M  V30 7361 C 678.218 0.200578 2.01102 0
M  V30 7362 C 678.539 -1.19803 1.53858 0
M  V30 7363 O 677.809 -1.80496 0.761439 0
M  V30 7364 H 676.389 0.0711634 0.743603 0
M  V30 7365 H 679.051 0.874691 1.7417 0
M  V30 7366 H 678.147 0.204 3.11433 0
M  V30 7367 N 678.448 -1.51871 0.421078 0
M  V30 7368 C 679.673 -2.0684 -0.152371 0
M  V30 7369 C 680.098 -1.28802 -1.37083 0
M  V30 7370 O 679.456 -0.321482 -1.78427 0
M  V30 7371 C 679.504 -3.57532 -0.469368 0
M  V30 7372 O 678.608 -3.81818 -1.55848 0
M  V30 7373 H 677.949 -0.663939 -0.00898586 0
M  V30 7374 H 680.479 -1.95674 0.597724 0
M  V30 7375 H 680.489 -4.01515 -0.724553 0
M  V30 7376 H 679.164 -4.13761 0.421276 0
M  V30 7377 H 677.741 -3.49709 -1.29453 0
M  V30 7378 N 679.926 -0.151884 -1.56866 0
M  V30 7379 C 680.858 0.817008 -2.14144 0
M  V30 7380 C 681.871 1.20735 -1.0921 0
M  V30 7381 O 683.06 1.15058 -1.36469 0
M  V30 7382 C 680.16 2.10844 -2.65326 0
M  V30 7383 C 679.333 1.88471 -3.94712 0
M  V30 7384 C 678.392 3.01649 -4.31155 0
M  V30 7385 O 677.418 2.73127 -4.9939 0
M  V30 7386 N 678.62 4.28947 -3.91132 0
M  V30 7387 H 681.385 0.327448 -2.97906 0
M  V30 7388 H 678.946 0.0315313 -1.61869 0
M  V30 7389 H 680.938 2.85616 -2.86715 0
M  V30 7390 H 679.508 2.51049 -1.86262 0
M  V30 7391 H 678.728 0.977088 -3.81899 0
M  V30 7392 H 680.016 1.70866 -4.79252 0
M  V30 7393 H 679.414 4.54986 -3.36161 0
M  V30 7394 H 677.971 5.00484 -4.17563 0
M  V30 7395 N 681.404 1.57128 0.121893 0
M  V30 7396 C 682.65 1.84974 0.831418 0
M  V30 7397 C 682.983 0.737204 1.79663 0
M  V30 7398 O 682.258 -0.257199 1.92792 0
M  V30 7399 C 682.541 3.23397 1.58386 0
M  V30 7400 C 682.394 4.45246 0.638445 0
M  V30 7401 C 683.713 3.59355 2.54071 0
M  V30 7402 H 680.832 0.67282 0.300803 0
M  V30 7403 H 683.474 1.89759 0.0957587 0
M  V30 7404 H 681.624 3.19449 2.21098 0
M  V30 7405 H 683.296 4.61295 0.0203925 0
M  V30 7406 H 681.539 4.33771 -0.05023 0
M  V30 7407 H 682.21 5.38765 1.20151 0
M  V30 7408 H 684.686 3.64075 2.01465 0
M  V30 7409 H 683.562 4.57193 3.03752 0
M  V30 7410 H 683.823 2.86622 3.36601 0
M  V30 7411 N 682.882 -0.391992 1.52647 0
M  V30 7412 C 683.792 -1.503 1.80131 0
M  V30 7413 C 684.808 -1.59825 0.687882 0
M  V30 7414 O 685.984 -1.76218 0.975149 0
M  V30 7415 C 683.049 -2.85863 1.96171 0
M  V30 7416 C 682.11 -2.86084 3.20085 0
M  V30 7417 C 681.343 -4.15181 3.35351 0
M  V30 7418 O 681.566 -5.09981 2.55491 0
M  V30 7419 O 680.5 -4.22603 4.28591 0
M  V30 7420 H 684.326 -1.30007 2.74466 0
M  V30 7421 H 681.911 -0.579539 1.37701 0
M  V30 7422 H 683.793 -3.66236 2.08445 0
M  V30 7423 H 682.468 -3.06189 1.05025 0
M  V30 7424 H 681.375 -2.04504 3.13256 0
M  V30 7425 H 682.708 -2.7071 4.11068 0
M  V30 7426 N 684.36 -1.4356 -0.65026 0
M  V30 7427 C 685.323 -1.48615 -1.74489 0
M  V30 7428 C 686.323 -0.370483 -1.56474 0
M  V30 7429 O 687.513 -0.632351 -1.62317 0
M  V30 7430 C 684.645 -1.34161 -3.13391 0
M  V30 7431 H 685.838 -2.46103 -1.71387 0
M  V30 7432 H 683.391 -1.30369 -0.862186 0
M  V30 7433 H 684.126 -0.376918 -3.22102 0
M  V30 7434 H 683.911 -2.1504 -3.27872 0
M  V30 7435 H 685.401 -1.40637 -3.93206 0
M  V30 7436 N 685.838 0.888903 -1.30139 0
M  V30 7437 C 686.768 2.01046 -1.18755 0
M  V30 7438 C 687.749 1.69916 -0.0791438 0
M  V30 7439 O 688.934 1.92445 -0.260498 0
M  V30 7440 C 686.064 3.36109 -0.874518 0
M  V30 7441 C 685.018 3.81486 -1.94043 0
M  V30 7442 C 684.344 5.13796 -1.48047 0
M  V30 7443 C 685.644 4.00637 -3.35093 0
M  V30 7444 H 687.338 2.10828 -2.12584 0
M  V30 7445 H 684.884 1.01298 -1.02346 0
M  V30 7446 H 686.837 4.14089 -0.781548 0
M  V30 7447 H 685.561 3.26449 0.0994519 0
M  V30 7448 H 684.22 3.05731 -2.02297 0
M  V30 7449 H 683.868 5.0056 -0.494878 0
M  V30 7450 H 683.568 5.45127 -2.19341 0
M  V30 7451 H 685.092 5.94305 -1.40121 0
M  V30 7452 H 686.506 4.69067 -3.2962 0
M  V30 7453 H 684.903 4.43339 -4.04438 0
M  V30 7454 H 685.973 3.0462 -3.77273 0
M  V30 7455 N 687.317 1.12792 1.10072 0
M  V30 7456 C 688.564 0.885545 1.82111 0
M  V30 7457 C 688.892 -0.588519 1.85383 0
M  V30 7458 O 688.147 -1.45124 1.31292 0
M  V30 7459 C 688.446 1.4102 3.28403 0
M  V30 7460 C 688.112 2.89995 3.45273 0
M  V30 7461 C 686.774 3.30671 3.49585 0
M  V30 7462 C 689.126 3.85874 3.50358 0
M  V30 7463 C 686.454 4.65925 3.56553 0
M  V30 7464 C 688.806 5.20963 3.58859 0
M  V30 7465 C 687.47 5.61177 3.61437 0
M  V30 7466 H 686.74 0.324044 0.666391 0
M  V30 7467 H 689.387 1.40874 1.29718 0
M  V30 7468 H 687.692 0.807551 3.83387 0
M  V30 7469 H 689.389 1.19882 3.82661 0
M  V30 7470 H 685.979 2.57537 3.42597 0
M  V30 7471 H 690.163 3.5554 3.46273 0
M  V30 7472 H 685.419 4.96468 3.56833 0
M  V30 7473 H 689.593 5.95079 3.61738 0
M  V30 7474 H 687.22 6.6597 3.66589 0
M  V30 7475 N 688.795 -1.27931 0.920396 0
M  V30 7476 C 690.02 -1.99343 0.572478 0
M  V30 7477 C 690.445 -1.68267 -0.840696 0
M  V30 7478 O 689.803 -0.918805 -1.56294 0
M  V30 7479 C 689.851 -3.51698 0.796284 0
M  V30 7480 O 688.955 -4.12157 -0.141602 0
M  V30 7481 H 688.296 -0.626065 0.221221 0
M  V30 7482 H 690.826 -1.62921 1.23765 0
M  V30 7483 H 690.836 -4.01793 0.708984 0
M  V30 7484 H 689.511 -3.73649 1.82644 0
M  V30 7485 H 688.088 -3.729 -0.005007 0
M  V30 7486 N 690.273 -0.685099 -1.4193 0
M  V30 7487 C 691.503 -0.220052 -2.05425 0
M  V30 7488 C 691.911 1.13185 -1.51611 0
M  V30 7489 O 691.254 1.71631 -0.654875 0
M  V30 7490 C 691.316 -0.0888364 -3.5939 0
M  V30 7491 C 690.98 -1.37109 -4.35947 0
M  V30 7492 C 691.977 -2.30675 -4.65924 0
M  V30 7493 C 689.662 -1.62155 -4.75406 0
M  V30 7494 C 691.656 -3.47556 -5.34306 0
M  V30 7495 C 689.343 -2.79324 -5.43527 0
M  V30 7496 C 690.341 -3.71848 -5.72903 0
M  V30 7497 O 690.029 -4.86966 -6.39624 0
M  V30 7498 H 689.761 -0.102165 -0.668235 0
M  V30 7499 H 692.315 -0.935194 -1.82875 0
M  V30 7500 H 690.545 0.681981 -3.80639 0
M  V30 7501 H 692.234 0.337669 -4.04493 0
M  V30 7502 H 693 -2.12579 -4.3593 0
M  V30 7503 H 688.879 -0.910053 -4.51928 0
M  V30 7504 H 692.423 -4.19794 -5.57153 0
M  V30 7505 H 688.32 -2.97342 -5.72938 0
M  V30 7506 H 689.088 -4.86644 -6.58118 0
M  V30 7507 N 691.751 1.51645 -0.429126 0
M  V30 7508 C 692.661 2.31288 0.392809 0
M  V30 7509 C 693.677 1.39852 1.03525 0
M  V30 7510 O 694.853 1.72926 1.03241 0
M  V30 7511 C 691.918 3.13347 1.48372 0
M  V30 7512 C 690.979 4.20551 0.862268 0
M  V30 7513 C 690.212 4.98688 1.9012 0
M  V30 7514 O 690.435 4.77359 3.12225 0
M  V30 7515 O 689.369 5.83005 1.4963 0
M  V30 7516 H 693.195 3.02609 -0.257138 0
M  V30 7517 H 690.78 1.48163 -0.191851 0
M  V30 7518 H 692.662 3.64387 2.1166 0
M  V30 7519 H 691.337 2.44799 2.1179 0
M  V30 7520 H 690.244 3.73609 0.191568 0
M  V30 7521 H 691.577 4.91449 0.271704 0
M  V30 7522 N 693.229 0.160201 1.56784 0
M  V30 7523 C 694.192 -0.760405 2.16219 0
M  V30 7524 C 695.192 -1.16595 1.10735 0
M  V30 7525 O 696.382 -1.08472 1.36306 0
M  V30 7526 C 693.514 -2.03358 2.73603 0
M  V30 7527 H 694.707 -0.243173 2.98912 0
M  V30 7528 H 692.26 -0.0893139 1.56045 0
M  V30 7529 H 692.995 -2.59416 1.94612 0
M  V30 7530 H 692.78 -1.75186 3.50788 0
M  V30 7531 H 694.27 -2.69081 3.19351 0
M  V30 7532 N 694.707 -1.5719 -0.113559 0
M  V30 7533 C 695.935 -1.89328 -0.834422 0
M  V30 7534 C 696.35 -0.752018 -1.73177 0
M  V30 7535 O 695.707 0.276912 -1.80387 0
M  V30 7536 C 695.758 -3.20962 -1.66329 0
M  V30 7537 O 695.479 -4.30695 -0.802069 0
M  V30 7538 C 696.98 -3.6684 -2.48884 0
M  V30 7539 H 694.2 -0.626769 -0.239587 0
M  V30 7540 H 696.744 -2.04273 -0.0963195 0
M  V30 7541 H 694.899 -3.0767 -2.35409 0
M  V30 7542 H 695.313 -5.06175 -1.37431 0
M  V30 7543 H 696.787 -4.61692 -3.02563 0
M  V30 7544 H 697.264 -2.93765 -3.26495 0
M  V30 7545 H 697.87 -3.82938 -1.85036 0
M  V30 7546 N 696.185 0.383891 -1.52853 0
M  V30 7547 C 697.117 1.48889 -1.74255 0
M  V30 7548 C 698.13 1.50405 -0.623063 0
M  V30 7549 O 699.319 1.54215 -0.898887 0
M  V30 7550 C 696.419 2.87721 -1.79081 0
M  V30 7551 C 695.592 3.10111 -3.08464 0
M  V30 7552 C 694.651 4.28954 -3.0477 0
M  V30 7553 O 693.677 4.25012 -3.78621 0
M  V30 7554 N 694.879 5.35411 -2.24311 0
M  V30 7555 H 697.644 1.30915 -2.69595 0
M  V30 7556 H 695.205 0.573454 -1.51404 0
M  V30 7557 H 697.197 3.65333 -1.7411 0
M  V30 7558 H 695.767 2.99029 -0.911052 0
M  V30 7559 H 694.987 2.20319 -3.26884 0
M  V30 7560 H 696.275 3.21928 -3.94005 0
M  V30 7561 H 695.673 5.41471 -1.63787 0
M  V30 7562 H 694.23 6.1167 -2.25175 0
M  V30 7563 N 697.663 1.43903 0.642637 0
M  V30 7564 C 699.074 1.40975 1.22404 0
M  V30 7565 C 699.425 0.1192 1.95838 0
M  V30 7566 O 698.55 -0.780939 2.01818 0
M  V30 7567 C 699.145 2.5538 2.22636 0
M  V30 7568 C 697.704 2.55684 2.76229 0
M  V30 7569 C 696.851 2.32556 1.51039 0
M  V30 7570 H 699.802 1.5265 0.434006 0
M  V30 7571 H 699.823 2.27474 3.05017 0
M  V30 7572 H 699.335 3.49294 1.69161 0
M  V30 7573 H 697.436 1.65679 3.33738 0
M  V30 7574 H 697.549 3.53799 3.23053 0
M  V30 7575 H 695.913 1.81427 1.78764 0
M  V30 7576 H 696.696 3.28569 0.99484 0
M  V30 7577 N 699.141 -0.881989 1.30609 0
M  V30 7578 C 700.051 -2.02076 1.19174 0
M  V30 7579 C 701.067 -1.73645 0.11102 0
M  V30 7580 O 702.243 -1.98735 0.326528 0
M  V30 7581 C 699.308 -3.3515 0.887438 0
M  V30 7582 C 698.369 -3.76983 2.05383 0
M  V30 7583 C 697.602 -5.03707 1.76395 0
M  V30 7584 O 697.825 -5.66171 0.693302 0
M  V30 7585 O 696.759 -5.42019 2.61723 0
M  V30 7586 H 700.585 -2.14652 2.14845 0
M  V30 7587 H 698.17 -1.00843 1.10232 0
M  V30 7588 H 700.052 -4.14975 0.73306 0
M  V30 7589 H 698.727 -3.23676 -0.0393354 0
M  V30 7590 H 697.634 -2.97849 2.26355 0
M  V30 7591 H 698.967 -3.93066 2.96243 0
M  V30 7592 N 700.619 -1.13374 -1.09472 0
M  V30 7593 C 701.896 -0.806329 -1.78207 0
M  V30 7594 C 702.276 0.702191 -1.99079 0
M  V30 7595 O 701.624 1.63931 -1.59182 0
M  V30 7596 C 701.834 -1.59271 -3.10538 0
M  V30 7597 C 703.182 -1.78509 -3.85253 0
M  V30 7598 O 704.206 -1.55866 -3.20288 0
M  V30 7599 O 703.065 -2.16287 -5.01879 0
M  V30 7600 H 700.159 -0.29435 -0.772843 0
M  V30 7601 H 702.705 -1.23833 -1.16033 0
M  V30 7602 H 701.477 -2.61792 -2.90828 0
M  V30 7603 H 701.1 -1.15562 -3.80436 0
M  V30 7604 N 702.098 1.27442 -0.927168 0
M  V30 7605 C 703.028 2.29256 -0.443188 0
M  V30 7606 C 704.009 1.62701 0.49624 0
M  V30 7607 O 705.194 1.90013 0.401105 0
M  V30 7608 C 702.324 3.45955 0.305366 0
M  V30 7609 C 701.278 4.24501 -0.546178 0
M  V30 7610 C 700.604 5.33671 0.331512 0
M  V30 7611 C 701.904 4.89921 -1.81037 0
M  V30 7612 H 703.598 2.69988 -1.29409 0
M  V30 7613 H 701.144 1.29792 -0.623705 0
M  V30 7614 H 703.097 4.1628 0.654885 0
M  V30 7615 H 701.821 3.04138 1.19029 0
M  V30 7616 H 700.48 3.55921 -0.878398 0
M  V30 7617 H 700.128 4.88096 1.21537 0
M  V30 7618 H 699.828 5.87131 -0.234746 0
M  V30 7619 H 701.352 6.0684 0.676614 0
M  V30 7620 H 702.766 5.52536 -1.52895 0
M  V30 7621 H 701.163 5.53436 -2.32009 0
M  V30 7622 H 702.233 4.13652 -2.53021 0
M  V30 7623 N 703.576 0.692616 1.41565 0
M  V30 7624 C 704.486 0.0258451 2.34586 0
M  V30 7625 C 705.502 -0.769324 1.56069 0
M  V30 7626 O 706.678 -0.707563 1.88562 0
M  V30 7627 C 703.743 -0.901289 3.3478 0
M  V30 7628 C 702.804 -0.0986579 4.29187 0
M  V30 7629 C 702.037 -0.981634 5.24595 0
M  V30 7630 O 702.26 -2.22115 5.25377 0
M  V30 7631 O 701.194 -0.432892 6.00341 0
M  V30 7632 H 705.02 0.792537 2.93177 0
M  V30 7633 H 702.605 0.452935 1.42369 0
M  V30 7634 H 704.487 -1.43302 3.96286 0
M  V30 7635 H 703.162 -1.64752 2.78637 0
M  V30 7636 H 702.069 0.477604 3.71039 0
M  V30 7637 H 703.402 0.608848 4.8842 0
M  V30 7638 N 705.054 -1.51416 0.437162 0
M  V30 7639 C 706.301 -2.02086 -0.129364 0
M  V30 7640 C 706.629 -1.32133 -1.42728 0
M  V30 7641 O 705.884 -0.424916 -1.91031 0
M  V30 7642 C 706.183 -3.55203 -0.39564 0
M  V30 7643 C 705.849 -4.43447 0.81644 0
M  V30 7644 C 704.511 -4.67285 1.14884 0
M  V30 7645 C 706.863 -4.95219 1.62503 0
M  V30 7646 C 704.191 -5.40141 2.29052 0
M  V30 7647 C 706.543 -5.69327 2.7577 0
M  V30 7648 C 705.207 -5.91429 3.09464 0
M  V30 7649 H 704.477 -0.739486 -0.0473375 0
M  V30 7650 H 707.124 -1.82368 0.584321 0
M  V30 7651 H 705.429 -3.73252 -1.19121 0
M  V30 7652 H 707.126 -3.91944 -0.847399 0
M  V30 7653 H 703.716 -4.2509 0.547422 0
M  V30 7654 H 707.9 -4.76686 1.38144 0
M  V30 7655 H 703.156 -5.55468 2.55471 0
M  V30 7656 H 707.33 -6.08433 3.38795 0
M  V30 7657 H 704.957 -6.47662 3.98042 0
M  V30 7658 N 706.532 -0.168513 -1.56696 0
M  V30 7659 C 707.464 0.794249 -2.14998 0
M  V30 7660 C 708.477 1.1957 -1.10485 0
M  V30 7661 O 709.666 1.13604 -1.37682 0
M  V30 7662 C 706.766 2.08018 -2.67547 0
M  V30 7663 C 705.939 1.84274 -3.96689 0
M  V30 7664 C 704.998 2.97059 -4.3433 0
M  V30 7665 O 704.024 2.67815 -5.02259 0
M  V30 7666 N 705.226 4.24775 -3.9566 0
M  V30 7667 H 707.991 0.295832 -2.98236 0
M  V30 7668 H 705.552 0.0143611 -1.61894 0
M  V30 7669 H 707.544 2.82559 -2.89729 0
M  V30 7670 H 706.114 2.49059 -1.88914 0
M  V30 7671 H 705.334 0.936528 -3.82914 0
M  V30 7672 H 706.622 1.65773 -4.81037 0
M  V30 7673 H 706.02 4.51395 -3.40968 0
M  V30 7674 H 704.577 4.96027 -4.22848 0
M  V30 7675 N 708.01 1.57248 0.105221 0
M  V30 7676 C 708.92 2.04653 1.14693 0
M  V30 7677 C 709.936 0.969488 1.44489 0
M  V30 7678 O 711.112 1.28196 1.55331 0
M  V30 7679 C 708.177 2.45297 2.45011 0
M  V30 7680 C 707.238 3.67148 2.22489 0
M  V30 7681 C 706.471 4.05844 3.46592 0
M  V30 7682 O 706.694 3.44736 4.54437 0
M  V30 7683 O 705.628 4.98862 3.36779 0
M  V30 7684 H 709.454 2.93663 0.774336 0
M  V30 7685 H 707.039 1.45998 0.31701 0
M  V30 7686 H 708.921 2.72112 3.21766 0
M  V30 7687 H 707.596 1.59429 2.81717 0
M  V30 7688 H 706.503 3.45463 1.43547 0
M  V30 7689 H 707.836 4.53764 1.9068 0
M  V30 7690 N 709.488 -0.375779 1.53054 0
M  V30 7691 C 710.736 -1.11727 1.68409 0
M  V30 7692 C 711.057 -1.90127 0.43323 0
M  V30 7693 O 710.327 -1.87945 -0.552595 0
M  V30 7694 H 708.907 -0.415451 0.620813 0
M  V30 7695 H 711.569 -0.424869 1.90213 0
M  V30 7696 H 710.665 -1.8128 2.54055 0
M  V30 7697 N 710.966 -1.44241 -0.634997 0
M  V30 7698 C 712.243 -1.37296 -1.39317 0
M  V30 7699 C 712.623 -0.0297532 -2.11079 0
M  V30 7700 O 711.971 0.987524 -2.06059 0
M  V30 7701 C 712.181 -2.56853 -2.36279 0
M  V30 7702 C 713.529 -3.00747 -2.99728 0
M  V30 7703 O 714.553 -2.5703 -2.46605 0
M  V30 7704 O 713.412 -3.76533 -3.96087 0
M  V30 7705 H 710.506 -0.543503 -0.623325 0
M  V30 7706 H 713.052 -1.56324 -0.660376 0
M  V30 7707 H 711.824 -3.46228 -1.82324 0
M  V30 7708 H 711.447 -2.40019 -3.16981 0
M  V30 7709 N 712.444 0.87505 -1.31075 0
M  V30 7710 C 713.693 1.62245 -1.19831 0
M  V30 7711 C 714.006 1.94078 0.24357 0
M  V30 7712 O 715.212 2.67265 0.477646 0
M  V30 7713 C 713.668 2.92464 -2.09744 0
M  V30 7714 C 713.276 2.68134 -3.58898 0
M  V30 7715 C 715.02 3.70449 -2.07287 0
M  V30 7716 C 712.927 3.9423 -4.40836 0
M  V30 7717 H 711.857 0.608741 -0.444916 0
M  V30 7718 H 714.508 0.967947 -1.55894 0
M  V30 7719 H 712.89 3.59262 -1.66574 0
M  V30 7720 H 714.064 2.09776 -4.10281 0
M  V30 7721 H 712.379 2.03511 -3.6328 0
M  V30 7722 H 714.976 4.63983 -2.65752 0
M  V30 7723 H 715.319 4.02611 -1.05876 0
M  V30 7724 H 715.852 3.10528 -2.48631 0
M  V30 7725 H 712.591 3.67221 -5.42982 0
M  V30 7726 H 712.111 4.52058 -3.94213 0
M  V30 7727 H 713.79 4.62162 -4.52786 0
M  V30 7728 N 713.922 1.13953 1.08869 0
M  V30 7729 C 715.171 0.899431 1.80536 0
M  V30 7730 C 715.484 -0.575781 1.86933 0
M  V30 7731 O 716.69 -0.932988 2.54966 0
M  V30 7732 C 715.146 1.55963 3.24351 0
M  V30 7733 C 714.754 3.07077 3.26202 0
M  V30 7734 C 716.498 1.40046 4.00733 0
M  V30 7735 C 714.405 3.65955 4.64576 0
M  V30 7736 H 713.335 0.332849 0.676556 0
M  V30 7737 H 715.986 1.3679 1.22314 0
M  V30 7738 H 714.368 1.01883 3.82669 0
M  V30 7739 H 715.542 3.67785 2.77617 0
M  V30 7740 H 713.857 3.22576 2.63312 0
M  V30 7741 H 716.454 1.81441 5.02974 0
M  V30 7742 H 716.797 0.345993 4.1486 0
M  V30 7743 H 717.33 1.91137 3.48872 0
M  V30 7744 H 714.069 4.71234 4.55652 0
M  V30 7745 H 713.589 3.10027 5.13462 0
M  V30 7746 H 715.268 3.65968 5.33551 0
M  V30 7747 N 715.4 -1.26948 0.933913 0
M  V30 7748 C 716.33 -2.29017 0.45534 0
M  V30 7749 C 717.311 -1.62961 -0.487605 0
M  V30 7750 O 718.496 -1.90223 -0.391022 0
M  V30 7751 C 715.626 -3.46112 -0.287015 0
M  V30 7752 C 714.58 -4.24205 0.568682 0
M  V30 7753 C 713.906 -5.3384 -0.303206 0
M  V30 7754 C 715.206 -4.88954 1.83633 0
M  V30 7755 H 716.9 -2.69298 1.30839 0
M  V30 7756 H 714.446 -1.29459 0.630579 0
M  V30 7757 H 716.399 -4.16622 -0.6328 0
M  V30 7758 H 715.123 -3.04765 -1.17414 0
M  V30 7759 H 713.782 -3.5545 0.897261 0
M  V30 7760 H 713.43 -4.88734 -1.18947 0
M  V30 7761 H 713.13 -5.86998 0.265879 0
M  V30 7762 H 714.654 -6.0719 -0.644423 0
M  V30 7763 H 716.068 -5.51717 1.55823 0
M  V30 7764 H 714.465 -5.52198 2.34941 0
M  V30 7765 H 715.535 -4.12305 2.55211 0
M  V30 7766 N 716.879 -0.700114 -1.41195 0
M  V30 7767 C 718.125 -0.233351 -2.01453 0
M  V30 7768 C 718.458 1.16548 -1.55339 0
M  V30 7769 O 717.733 1.78756 -0.766575 0
M  V30 7770 C 718.016 -0.2961 -3.58881 0
M  V30 7771 C 717.869 -1.7322 -4.15108 0
M  V30 7772 C 719.188 0.341525 -4.38773 0
M  V30 7773 H 716.307 -0.0862667 -0.731934 0
M  V30 7774 H 718.949 -0.889693 -1.67882 0
M  V30 7775 H 717.099 0.262736 -3.87611 0
M  V30 7776 H 718.771 -2.34523 -3.97236 0
M  V30 7777 H 717.014 -2.2649 -3.69979 0
M  V30 7778 H 717.685 -1.7276 -5.24269 0
M  V30 7779 H 720.161 -0.134461 -4.15883 0
M  V30 7780 H 719.037 0.267098 -5.4825 0
M  V30 7781 H 719.298 1.42289 -4.18577 0
M  V30 7782 N 718.357 1.51182 -0.445186 0
M  V30 7783 C 719.287 2.30821 0.352686 0
M  V30 7784 C 720.268 1.36576 1.01395 0
M  V30 7785 O 721.453 1.65497 1.01609 0
M  V30 7786 C 718.583 3.15593 1.44976 0
M  V30 7787 C 717.537 4.1818 0.911553 0
M  V30 7788 C 716.863 4.91523 2.10497 0
M  V30 7789 C 718.163 5.22266 -0.059418 0
M  V30 7790 H 719.857 2.97771 -0.311936 0
M  V30 7791 H 717.403 1.43201 -0.151461 0
M  V30 7792 H 719.356 3.70091 2.01521 0
M  V30 7793 H 718.08 2.4648 2.14278 0
M  V30 7794 H 716.739 3.64746 0.368264 0
M  V30 7795 H 716.387 4.18906 2.78437 0
M  V30 7796 H 716.087 5.60898 1.7512 0
M  V30 7797 H 717.611 5.48847 2.6758 0
M  V30 7798 H 719.025 5.71789 0.415985 0
M  V30 7799 H 717.422 5.99213 -0.326152 0
M  V30 7800 H 718.492 4.7461 -0.993631 0
M  V30 7801 N 719.835 0.176821 1.56605 0
M  V30 7802 C 721.06 -0.47599 2.01864 0
M  V30 7803 C 721.485 -1.55645 1.05623 0
M  V30 7804 O 720.843 -1.81263 0.0366729 0
M  V30 7805 C 720.891 -1.02619 3.4569 0
M  V30 7806 O 719.995 -2.13996 3.52533 0
M  V30 7807 H 719.336 -0.113363 0.654251 0
M  V30 7808 H 721.866 0.28233 2.02643 0
M  V30 7809 H 721.876 -1.34742 3.85109 0
M  V30 7810 H 720.551 -0.235138 4.15235 0
M  V30 7811 H 719.128 -1.82876 3.24978 0
M  V30 7812 N 721.313 -1.57302 -0.09688 0
M  V30 7813 C 722.26 -2.01933 -1.11766 0
M  V30 7814 C 723.23 -0.895329 -1.39904 0
M  V30 7815 O 724.415 -1.16119 -1.51397 0
M  V30 7816 C 721.555 -2.44726 -2.43317 0
M  V30 7817 C 720.668 -3.70639 -2.21925 0
M  V30 7818 C 719.803 -4.02318 -3.46862 0
M  V30 7819 C 718.842 -5.21346 -3.20725 0
M  V30 7820 N 717.979 -5.48787 -4.37924 0
M  V30 7821 H 722.819 -2.88919 -0.730075 0
M  V30 7822 H 720.356 -1.42901 -0.348962 0
M  V30 7823 H 722.314 -2.6758 -3.20088 0
M  V30 7824 H 720.944 -1.60753 -2.79926 0
M  V30 7825 H 719.996 -3.55271 -1.35965 0
M  V30 7826 H 721.308 -4.57557 -1.98603 0
M  V30 7827 H 720.462 -4.25939 -4.32042 0
M  V30 7828 H 719.201 -3.13918 -3.73238 0
M  V30 7829 H 718.206 -4.97547 -2.33938 0
M  V30 7830 H 719.431 -6.11343 -2.95697 0
M  V30 7831 H 717.377 -4.63346 -4.64378 0
M  V30 7832 H 717.294 -6.30073 -4.17785 0
M  V30 7833 H 718.562 -5.76943 -5.24173 0
M  V30 7834 N 722.791 0.367657 -1.53252 0
M  V30 7835 C 724.037 1.11216 -1.69584 0
M  V30 7836 C 724.37 1.89026 -0.445269 0
M  V30 7837 O 723.645 1.86342 0.557404 0
M  V30 7838 C 723.928 2.07308 -2.94441 0
M  V30 7839 C 723.781 1.3312 -4.2965 0
M  V30 7840 C 725.1 3.07459 -3.14892 0
M  V30 7841 H 722.219 0.40294 -0.617096 0
M  V30 7842 H 724.861 0.393201 -1.85887 0
M  V30 7843 H 723.011 2.68617 -2.80673 0
M  V30 7844 H 724.683 0.746111 -4.55226 0
M  V30 7845 H 722.926 0.633051 -4.29156 0
M  V30 7846 H 723.597 2.03443 -5.13142 0
M  V30 7847 H 726.073 2.56252 -3.27832 0
M  V30 7848 H 724.949 3.71919 -4.03693 0
M  V30 7849 H 725.21 3.77514 -2.30077 0
M  V30 7850 N 724.269 1.44576 0.627338 0
M  V30 7851 C 725.217 1.52039 1.76031 0
M  V30 7852 C 726.211 0.391796 1.64807 0
M  V30 7853 O 727.417 0.5669 1.7084 0
M  V30 7854 H 723.792 0.477165 0.581221 0
M  V30 7855 H 725.763 2.47387 1.6686 0
M  V30 7856 C 724.512 1.48539 3.14375 0
M  V30 7857 H 723.835 2.34699 3.23661 0
M  V30 7858 H 725.275 1.57821 3.93534 0
M  V30 7859 C 723.734 0.20672 3.36265 0
M  V30 7860 O 724.264 -0.72154 3.95167 0
M  V30 7861 N 722.47 0.108654 2.90397 0
M  V30 7862 H 722.017 0.864884 2.42647 0
M  V30 7863 H 721.975 -0.746121 3.05418 0
M  V30 7864 N 725.747 -0.868086 1.31537 0
M  V30 7865 C 726.657 -2.00801 1.21311 0
M  V30 7866 C 727.673 -1.73518 0.129431 0
M  V30 7867 O 728.849 -1.98378 0.347588 0
M  V30 7868 C 725.914 -3.3419 0.922935 0
M  V30 7869 C 724.975 -3.74783 2.0937 0
M  V30 7870 C 724.208 -5.01807 1.81728 0
M  V30 7871 O 724.431 -5.65404 0.753313 0
M  V30 7872 O 723.365 -5.39213 2.67457 0
M  V30 7873 H 727.191 -2.12361 2.17109 0
M  V30 7874 H 724.776 -0.996684 1.11295 0
M  V30 7875 H 726.658 -4.14174 0.777033 0
M  V30 7876 H 725.333 -3.237 -0.00500301 0
M  V30 7877 H 724.24 -2.95432 2.29501 0
M  V30 7878 H 725.573 -3.89902 3.00396 0
M  V30 7879 N 727.225 -1.14528 -1.08264 0
M  V30 7880 C 728.135 -0.84728 -2.18765 0
M  V30 7881 C 729.151 0.172826 -1.7314 0
M  V30 7882 O 730.327 0.000985336 -2.014 0
M  V30 7883 C 727.392 -0.330633 -3.4512 0
M  V30 7884 C 726.453 -1.41348 -4.05363 0
M  V30 7885 C 725.686 -0.921387 -5.25686 0
M  V30 7886 O 725.909 0.236587 -5.69909 0
M  V30 7887 O 724.843 -1.70101 -5.77364 0
M  V30 7888 H 728.669 -1.7708 -2.46731 0
M  V30 7889 H 726.254 -0.923661 -1.17426 0
M  V30 7890 H 728.136 -0.0485053 -4.21372 0
M  V30 7891 H 726.811 0.565147 -3.18728 0
M  V30 7892 H 725.718 -1.74908 -3.30693 0
M  V30 7893 H 727.051 -2.28383 -4.36007 0
M  V30 7894 N 728.703 1.26451 -0.940633 0
M  V30 7895 C 729.949 1.94401 -0.598303 0
M  V30 7896 C 730.304 1.72449 0.853178 0
M  V30 7897 O 729.597 1.0506 1.60228 0
M  V30 7898 C 729.791 3.46503 -0.875794 0
M  V30 7899 C 729.62 3.83247 -2.3527 0
M  V30 7900 C 728.39 4.06032 -3.00776 0
M  V30 7901 C 730.588 3.91841 -3.33114 0
M  V30 7902 N 728.57 4.29656 -4.38485 0
M  V30 7903 C 729.941 4.19991 -4.56078 0
M  V30 7904 C 731.996 3.74466 -3.28146 0
M  V30 7905 C 730.699 4.32574 -5.74693 0
M  V30 7906 C 732.725 3.88281 -4.46085 0
M  V30 7907 C 732.087 4.16829 -5.67831 0
M  V30 7908 H 728.186 0.734168 -0.269297 0
M  V30 7909 H 730.77 1.52541 -1.20992 0
M  V30 7910 H 728.941 3.87292 -0.293223 0
M  V30 7911 H 730.673 4.01664 -0.494788 0
M  V30 7912 H 727.428 4.01369 -2.51396 0
M  V30 7913 H 727.852 4.45501 -5.09762 0
M  V30 7914 H 732.494 3.51424 -2.35077 0
M  V30 7915 H 730.212 4.54438 -6.68215 0
M  V30 7916 H 733.798 3.76241 -4.43773 0
M  V30 7917 H 732.678 4.27284 -6.5757 0
M  V30 7918 N 730.181 0.707592 1.40822 0
M  V30 7919 C 731.111 0.0644925 2.33411 0
M  V30 7920 C 732.092 -0.754205 1.52466 0
M  V30 7921 O 733.277 -0.704749 1.80961 0
M  V30 7922 C 730.407 -0.863865 3.36385 0
M  V30 7923 C 729.361 -0.15138 4.27732 0
M  V30 7924 C 728.687 -1.19491 5.21177 0
M  V30 7925 C 729.987 0.989607 5.12839 0
M  V30 7926 H 731.681 0.837829 2.87438 0
M  V30 7927 H 729.227 0.404346 1.38207 0
M  V30 7928 H 731.18 -1.32309 4.0009 0
M  V30 7929 H 729.904 -1.66901 2.80734 0
M  V30 7930 H 728.563 0.287937 3.65467 0
M  V30 7931 H 728.211 -1.9929 4.61836 0
M  V30 7932 H 727.911 -0.723123 5.83134 0
M  V30 7933 H 729.435 -1.6544 5.8776 0
M  V30 7934 H 730.849 0.610114 5.70044 0
M  V30 7935 H 729.246 1.38926 5.83798 0
M  V30 7936 H 730.316 1.82389 4.49291 0
M  V30 7937 N 731.66 -1.50943 0.453197 0
M  V30 7938 C 732.57 -2.31884 -0.355963 0
M  V30 7939 C 733.586 -1.41481 -1.01287 0
M  V30 7940 O 734.762 -1.74546 -1.00477 0
M  V30 7941 C 731.827 -3.15668 -1.43369 0
M  V30 7942 C 730.888 -4.2187 -0.795253 0
M  V30 7943 C 730.121 -5.0165 -1.82162 0
M  V30 7944 O 730.344 -4.82266 -3.04592 0
M  V30 7945 O 729.278 -5.85311 -1.40336 0
M  V30 7946 H 733.104 -3.02162 0.305248 0
M  V30 7947 H 730.689 -1.47839 0.215398 0
M  V30 7948 H 732.571 -3.67709 -2.05836 0
M  V30 7949 H 731.246 -2.48137 -2.07869 0
M  V30 7950 H 730.153 -3.73867 -0.132106 0
M  V30 7951 H 731.486 -4.9182 -0.193484 0
M  V30 7952 N 733.138 -0.185124 -1.56509 0
M  V30 7953 C 734.386 0.455357 -1.96903 0
M  V30 7954 C 734.707 1.62839 -1.07277 0
M  V30 7955 O 733.977 1.95385 -0.141966 0
M  V30 7956 H 732.557 0.171218 -0.727113 0
M  V30 7957 H 735.219 -0.26953 -1.93027 0
M  V30 7958 H 734.315 0.80616 -3.01509 0
M  V30 7959 N 734.616 1.57351 0.0885366 0
M  V30 7960 C 735.526 2.05858 1.12516 0
M  V30 7961 C 736.542 0.984758 1.43452 0
M  V30 7962 O 737.718 1.29836 1.53963 0
M  V30 7963 C 734.783 2.47882 2.42395 0
M  V30 7964 C 733.844 3.69487 2.18582 0
M  V30 7965 C 733.077 4.09497 3.42268 0
M  V30 7966 O 733.3 3.49536 4.50755 0
M  V30 7967 O 732.234 5.02406 3.31469 0
M  V30 7968 H 736.06 2.94467 0.743146 0
M  V30 7969 H 733.645 1.46326 0.301507 0
M  V30 7970 H 735.527 2.75509 3.18862 0
M  V30 7971 H 734.202 1.62408 2.8001 0
M  V30 7972 H 733.109 3.46967 1.39875 0
M  V30 7973 H 734.442 4.55761 1.85857 0
M  V30 7974 N 736.094 -0.359525 1.53444 0
M  V30 7975 C 737.334 -1.11014 1.71625 0
M  V30 7976 C 737.698 -1.86376 0.46132 0
M  V30 7977 O 738.899 -2.63724 0.519908 0
M  V30 7978 C 737.17 -2.03907 2.93524 0
M  V30 7979 S 738.729 -2.86408 3.3244 0
M  V30 7980 H 735.547 -0.375352 0.603847 0
M  V30 7981 H 738.149 -0.390604 1.91558 0
M  V30 7982 H 736.853 -1.47316 3.83048 0
M  V30 7983 H 736.384 -2.80324 2.76011 0
M  V30 7984 H 738.399 -4.06241 2.84926 0
M  V30 7985 N 737.572 -1.44907 -0.619662 0
M  V30 7986 C 738.519 -1.52654 -1.73105 0
M  V30 7987 C 739.489 -0.373334 -1.6185 0
M  V30 7988 O 740.674 -0.585143 -1.81606 0
M  V30 7989 C 737.814 -1.48769 -3.11387 0
M  V30 7990 C 736.927 -2.74551 -3.33535 0
M  V30 7991 C 736.062 -2.62421 -4.61854 0
M  V30 7992 C 735.101 -3.83312 -4.77219 0
M  V30 7993 N 734.238 -3.69789 -5.96826 0
M  V30 7994 H 739.078 -2.47605 -1.65819 0
M  V30 7995 H 736.615 -1.22875 -0.808719 0
M  V30 7996 H 738.573 -1.44507 -3.91374 0
M  V30 7997 H 737.203 -0.573783 -3.1766 0
M  V30 7998 H 736.255 -2.88953 -2.47408 0
M  V30 7999 H 737.567 -3.64253 -3.40765 0
M  V30 8000 H 736.721 -2.56056 -5.50019 0
M  V30 8001 H 735.46 -1.70298 -4.57001 0
M  V30 8002 H 734.465 -3.90049 -3.87481 0
M  V30 8003 H 735.69 -4.76486 -4.83878 0
M  V30 8004 H 733.636 -2.80426 -5.93041 0
M  V30 8005 H 733.553 -4.53116 -6.05163 0
M  V30 8006 H 734.821 -3.67335 -6.87521 0
M  V30 8007 N 739.05 0.861098 -1.31996 0
M  V30 8008 C 740.298 1.61162 -1.21947 0
M  V30 8009 C 740.619 1.93751 0.220351 0
M  V30 8010 O 739.889 1.59069 1.14341 0
M  V30 8011 H 738.469 0.597485 -0.448353 0
M  V30 8012 H 741.131 1.03039 -1.65436 0
M  V30 8013 H 740.227 2.55138 -1.79752 0
M  V30 8014 N 740.528 1.15101 1.07655 0
M  V30 8015 C 741.475 0.844958 2.14777 0
M  V30 8016 C 742.445 -0.200798 1.64882 0
M  V30 8017 O 743.63 -0.0690278 1.90675 0
M  V30 8018 C 740.77 0.337018 3.4345 0
M  V30 8019 C 739.883 1.44398 4.07153 0
M  V30 8020 C 739.018 0.892487 5.23649 0
M  V30 8021 C 738.057 1.9766 5.79307 0
M  V30 8022 N 737.194 1.44171 6.87138 0
M  V30 8023 H 742.034 1.76242 2.40297 0
M  V30 8024 H 739.571 0.879435 1.17917 0
M  V30 8025 H 741.529 0.024256 4.17193 0
M  V30 8026 H 740.159 -0.543531 3.18191 0
M  V30 8027 H 739.211 1.87299 3.31094 0
M  V30 8028 H 740.523 2.26262 4.4453 0
M  V30 8029 H 739.677 0.532083 6.04362 0
M  V30 8030 H 738.416 0.0429854 4.87681 0
M  V30 8031 H 737.421 2.34586 4.97242 0
M  V30 8032 H 738.646 2.82982 6.17331 0
M  V30 8033 H 736.592 0.614518 6.53115 0
M  V30 8034 H 736.509 2.19665 7.23383 0
M  V30 8035 H 737.777 1.10945 7.71564 0
M  V30 8036 N 742.006 -1.2595 0.947325 0
M  V30 8037 C 743.252 -1.9375 0.599064 0
M  V30 8038 C 743.585 -1.74088 -0.860632 0
M  V30 8039 O 742.86 -1.08158 -1.61654 0
M  V30 8040 C 743.143 -3.47353 0.949634 0
M  V30 8041 C 742.996 -3.76273 2.46452 0
M  V30 8042 C 744.315 -4.37589 0.469442 0
M  V30 8043 H 741.434 -0.703674 0.219115 0
M  V30 8044 H 744.076 -1.48705 1.18266 0
M  V30 8045 H 742.226 -3.8585 0.453008 0
M  V30 8046 H 743.898 -3.47455 3.03435 0
M  V30 8047 H 742.141 -3.22135 2.90537 0
M  V30 8048 H 742.812 -4.83664 2.66032 0
M  V30 8049 H 745.288 -4.06353 0.89534 0
M  V30 8050 H 744.164 -5.43841 0.7435 0
M  V30 8051 H 744.425 -4.37579 -0.630618 0
M  V30 8052 N 743.484 -0.715051 -1.40445 0
M  V30 8053 C 744.732 -0.253826 -2.005 0
M  V30 8054 C 745.053 1.15681 -1.5698 0
M  V30 8055 O 744.323 1.78414 -0.809027 0
M  V30 8056 H 742.903 -0.0908537 -0.741454 0
M  V30 8057 H 745.565 -0.920561 -1.7179 0
M  V30 8058 H 744.661 -0.286499 -3.10782 0
M  V30 8059 N 744.962 1.50701 -0.461195 0
M  V30 8060 C 746.211 2.01458 0.0988277 0
M  V30 8061 C 746.524 1.34863 1.41673 0
M  V30 8062 O 747.73 1.76721 2.06111 0
M  V30 8063 C 746.186 3.59186 0.226648 0
M  V30 8064 C 745.794 4.34732 -1.08223 0
M  V30 8065 C 747.538 4.18015 0.73916 0
M  V30 8066 C 745.445 5.8422 -0.918747 0
M  V30 8067 H 744.375 0.7529 0.040709 0
M  V30 8068 H 747.026 1.736 -0.594589 0
M  V30 8069 H 745.408 3.83589 0.983621 0
M  V30 8070 H 746.582 4.22059 -1.84939 0
M  V30 8071 H 744.897 3.87466 -1.52509 0
M  V30 8072 H 747.494 5.27436 0.878347 0
M  V30 8073 H 747.837 3.78746 1.72793 0
M  V30 8074 H 748.37 3.9778 0.0398469 0
M  V30 8075 H 745.109 6.27944 -1.88059 0
M  V30 8076 H 744.629 5.99493 -0.191801 0
M  V30 8077 H 746.308 6.44382 -0.581405 0
M  V30 8078 N 746.441 0.193421 1.56409 0
M  V30 8079 C 747.688 -0.445789 1.97532 0
M  V30 8080 C 748.016 -1.61744 1.08024 0
M  V30 8081 O 747.271 -1.95338 0.118982 0
M  V30 8082 C 747.57 -0.949718 3.44551 0
M  V30 8083 C 747.236 0.108383 4.5077 0
M  V30 8084 C 745.898 0.399126 4.79542 0
M  V30 8085 C 748.25 0.825423 5.14622 0
M  V30 8086 C 745.578 1.41192 5.69457 0
M  V30 8087 C 747.93 1.82735 6.05632 0
M  V30 8088 C 746.594 2.12531 6.32761 0
M  V30 8089 H 745.864 -0.163126 0.722822 0
M  V30 8090 H 748.511 0.290035 1.89291 0
M  V30 8091 H 746.816 -1.76378 3.49854 0
M  V30 8092 H 748.513 -1.45367 3.73724 0
M  V30 8093 H 745.103 -0.128392 4.28408 0
M  V30 8094 H 749.287 0.61403 4.92487 0
M  V30 8095 H 744.543 1.6487 5.88751 0
M  V30 8096 H 748.717 2.3882 6.5417 0
M  V30 8097 H 746.344 2.91155 7.02234 0
M  V30 8098 N 747.919 -1.57396 -0.0801906 0
M  V30 8099 C 749.33 -1.75642 -0.633002 0
M  V30 8100 C 749.681 -0.817708 -1.78348 0
M  V30 8101 O 748.806 0.000233743 -2.164 0
M  V30 8102 C 749.401 -3.18502 -1.15507 0
M  V30 8103 C 747.96 -3.38121 -1.65381 0
M  V30 8104 C 747.107 -2.71386 -0.569661 0
M  V30 8105 H 750.058 -1.58027 0.145949 0
M  V30 8106 H 750.079 -3.22198 -2.02408 0
M  V30 8107 H 749.591 -3.86799 -0.317515 0
M  V30 8108 H 747.692 -2.74926 -2.51488 0
M  V30 8109 H 747.805 -4.46521 -1.73654 0
M  V30 8110 H 746.169 -2.33702 -1.0127 0
M  V30 8111 H 746.952 -3.42332 0.257561 0
M  V30 8112 N 749.397 0.351382 -1.53633 0
M  V30 8113 C 750.344 1.43115 -1.81071 0
M  V30 8114 C 751.314 1.52601 -0.655913 0
M  V30 8115 O 752.499 1.68264 -0.89955 0
M  V30 8116 C 749.639 2.79874 -2.01903 0
M  V30 8117 C 748.752 2.79242 -3.29618 0
M  V30 8118 C 747.887 4.07667 -3.40559 0
M  V30 8119 C 746.926 4.01233 -4.62254 0
M  V30 8120 N 746.063 5.21334 -4.70271 0
M  V30 8121 H 750.903 1.19017 -2.73201 0
M  V30 8122 H 748.44 0.576691 -1.35324 0
M  V30 8123 H 750.398 3.5934 -2.11969 0
M  V30 8124 H 749.028 3.0234 -1.13094 0
M  V30 8125 H 748.08 1.91927 -3.28433 0
M  V30 8126 H 749.392 2.70363 -4.19172 0
M  V30 8127 H 748.546 4.95555 -3.50015 0
M  V30 8128 H 747.285 4.19317 -2.49047 0
M  V30 8129 H 746.29 3.11732 -4.52884 0
M  V30 8130 H 747.515 3.91173 -5.55122 0
M  V30 8131 H 745.461 5.33543 -3.81665 0
M  V30 8132 H 745.378 5.14681 -5.5375 0
M  V30 8133 H 746.646 6.11014 -4.84027 0
M  V30 8134 N 750.875 1.45233 0.611969 0
M  V30 8135 C 752.121 1.49242 1.37312 0
M  V30 8136 C 752.454 0.131963 1.93751 0
M  V30 8137 O 751.729 -0.852999 1.74798 0
M  V30 8138 C 752.012 2.56811 2.52428 0
M  V30 8139 C 751.865 4.02284 2.01215 0
M  V30 8140 C 753.184 2.60705 3.54572 0
M  V30 8141 H 750.303 0.54336 0.497925 0
M  V30 8142 H 752.945 1.77019 0.690242 0
M  V30 8143 H 751.095 2.33256 3.10683 0
M  V30 8144 H 752.767 4.37035 1.47643 0
M  V30 8145 H 751.01 4.1315 1.32248 0
M  V30 8146 H 751.681 4.7323 2.84178 0
M  V30 8147 H 754.157 2.81799 3.06151 0
M  V30 8148 H 753.033 3.37841 4.32614 0
M  V30 8149 H 753.294 1.65627 4.09903 0
M  V30 8150 N 752.353 -0.854086 1.3245 0
M  V30 8151 C 753.6 -1.60831 1.23043 0
M  V30 8152 C 753.928 -1.93389 -0.2076 0
M  V30 8153 O 753.183 -1.5756 -1.16075 0
M  V30 8154 C 753.482 -2.93746 2.03587 0
M  V30 8155 C 753.148 -2.80615 3.52939 0
M  V30 8156 C 751.81 -2.76742 3.93659 0
M  V30 8157 C 754.162 -2.66507 4.4791 0
M  V30 8158 C 751.49 -2.56638 5.27592 0
M  V30 8159 C 753.842 -2.47939 5.81987 0
M  V30 8160 C 752.506 -2.42458 6.21909 0
M  V30 8161 H 751.776 -0.588523 0.450247 0
M  V30 8162 H 754.423 -0.990699 1.63882 0
M  V30 8163 H 752.728 -3.5963 1.55478 0
M  V30 8164 H 754.425 -3.51127 1.93677 0
M  V30 8165 H 751.015 -2.84456 3.20598 0
M  V30 8166 H 755.199 -2.68544 4.1737 0
M  V30 8167 H 750.455 -2.50831 5.57579 0
M  V30 8168 H 754.629 -2.36002 6.55192 0
M  V30 8169 H 752.256 -2.2664 7.2563 0
M  V30 8170 N 753.831 -1.1567 -1.07043 0
M  V30 8171 C 755.077 -0.9349 -1.79965 0
M  V30 8172 C 755.41 0.536464 -1.86643 0
M  V30 8173 O 754.685 1.39781 -1.35247 0
M  V30 8174 C 754.968 -1.55371 -3.24857 0
M  V30 8175 C 754.821 -3.09589 -3.26305 0
M  V30 8176 C 756.14 -1.24209 -4.22209 0
M  V30 8177 H 753.259 -0.341061 -0.653335 0
M  V30 8178 H 755.901 -1.42883 -1.25237 0
M  V30 8179 H 754.051 -1.13368 -3.71591 0
M  V30 8180 H 755.723 -3.60521 -2.87789 0
M  V30 8181 H 753.966 -3.43315 -2.65174 0
M  V30 8182 H 754.637 -3.48002 -4.28484 0
M  V30 8183 H 757.113 -1.60548 -3.8388 0
M  V30 8184 H 755.989 -1.70119 -5.21872 0
M  V30 8185 H 756.25 -0.15964 -4.41812 0
M  V30 8186 N 755.309 1.25446 -0.953992 0
M  V30 8187 C 756.219 2.29632 -0.480264 0
M  V30 8188 C 757.235 1.68025 0.452071 0
M  V30 8189 O 758.411 1.98703 0.328472 0
M  V30 8190 C 755.476 3.45903 0.234974 0
M  V30 8191 C 754.537 4.22953 -0.735495 0
M  V30 8192 C 753.77 5.33672 -0.0542957 0
M  V30 8193 O 753.993 5.58477 1.16018 0
M  V30 8194 O 752.927 5.9734 -0.739509 0
M  V30 8195 H 756.753 2.72242 -1.34602 0
M  V30 8196 H 754.338 1.30883 -0.720419 0
M  V30 8197 H 756.22 4.16552 0.637341 0
M  V30 8198 H 754.895 3.05296 1.07592 0
M  V30 8199 H 753.802 3.54734 -1.18806 0
M  V30 8200 H 755.135 4.67341 -1.54444 0
M  V30 8201 N 756.787 0.722489 1.40064 0
M  V30 8202 C 758.064 0.191829 1.94657 0
M  V30 8203 C 758.444 -1.30389 1.66018 0
M  V30 8204 O 757.792 -2.06342 0.981588 0
M  V30 8205 C 758.002 0.511978 3.45224 0
M  V30 8206 C 759.35 0.454426 4.22161 0
M  V30 8207 O 760.374 0.448438 3.53366 0
M  V30 8208 O 759.233 0.437986 5.44742 0
M  V30 8209 H 756.327 0.0307821 0.826427 0
M  V30 8210 H 758.873 0.800493 1.49634 0
M  V30 8211 H 757.645 1.54622 3.59455 0
M  V30 8212 H 757.268 -0.126296 3.97399 0
M  V30 8213 N 758.265 -1.50454 0.469181 0
M  V30 8214 C 759.505 -2.04222 -0.0852381 0
M  V30 8215 C 759.869 -1.34357 -1.37158 0
M  V30 8216 O 761.07 -1.78669 -2.00825 0
M  V30 8217 C 759.341 -3.56403 -0.266778 0
M  V30 8218 S 760.9 -4.31811 -0.780028 0
M  V30 8219 H 757.718 -0.7108 -0.0168589 0
M  V30 8220 H 760.32 -1.8487 0.635883 0
M  V30 8221 H 759.024 -4.04807 0.67525 0
M  V30 8222 H 758.555 -3.80106 -1.01407 0
M  V30 8223 H 760.57 -4.51706 -2.05368 0
M  V30 8224 N 759.743 -0.201713 -1.56304 0
M  V30 8225 C 760.706 0.702811 -2.18159 0
M  V30 8226 C 761.706 1.13619 -1.13787 0
M  V30 8227 O 762.896 1.0482 -1.39134 0
M  V30 8228 C 760.028 1.96032 -2.78898 0
M  V30 8229 H 761.221 0.163836 -2.99452 0
M  V30 8230 H 758.774 0.04791 -1.56227 0
M  V30 8231 H 759.509 2.54165 -2.01421 0
M  V30 8232 H 759.294 1.65824 -3.55309 0
M  V30 8233 H 760.784 2.60519 -3.26373 0
M  V30 8234 N 761.222 1.57436 0.0718424 0
M  V30 8235 C 762.45 1.91474 0.783932 0
M  V30 8236 C 762.865 0.797669 1.71122 0
M  V30 8237 O 762.222 -0.228989 1.81058 0
M  V30 8238 C 762.273 3.25259 1.57761 0
M  V30 8239 O 761.994 4.3267 0.687596 0
M  V30 8240 C 763.495 3.7331 2.3907 0
M  V30 8241 H 760.715 0.632901 0.222885 0
M  V30 8242 H 763.259 2.04457 0.0421262 0
M  V30 8243 H 761.414 3.13804 2.27169 0
M  V30 8244 H 761.828 5.09641 1.23962 0
M  V30 8245 H 763.302 4.69551 2.90216 0
M  V30 8246 H 763.779 3.02318 3.18591 0
M  V30 8247 H 764.385 3.8771 1.74818 0
M  V30 8248 N 762.7 -0.34323 1.53817 0
M  V30 8249 C 763.928 -1.10348 1.75017 0
M  V30 8250 C 764.343 -1.82345 0.489475 0
M  V30 8251 O 763.7 -1.74362 -0.538886 0
M  V30 8252 C 763.751 -2.11672 2.93048 0
M  V30 8253 O 763.472 -1.42603 4.14241 0
M  V30 8254 C 764.973 -3.0007 3.26301 0
M  V30 8255 H 762.193 -0.329056 0.584776 0
M  V30 8256 H 764.737 -0.395339 2.00642 0
M  V30 8257 H 762.892 -2.78051 2.69753 0
M  V30 8258 H 763.306 -2.10294 4.80496 0
M  V30 8259 H 764.78 -3.67101 4.12239 0
M  V30 8260 H 765.257 -3.66105 2.42618 0
M  V30 8261 H 765.863 -2.3928 3.51604 0
M  V30 8262 N 764.178 -1.45556 -0.604258 0
M  V30 8263 C 765.455 -1.40221 -1.36373 0
M  V30 8264 C 765.835 -0.0745195 -2.10968 0
M  V30 8265 O 765.183 0.943594 -2.08107 0
M  V30 8266 C 765.393 -2.61807 -2.30777 0
M  V30 8267 C 766.741 -3.07037 -2.93281 0
M  V30 8268 O 767.765 -2.62203 -2.41097 0
M  V30 8269 O 766.624 -3.8485 -3.88011 0
M  V30 8270 H 763.718 -0.556602 -0.611656 0
M  V30 8271 H 766.264 -1.57689 -0.627069 0
M  V30 8272 H 765.036 -3.50017 -1.74939 0
M  V30 8273 H 764.659 -2.46688 -3.11818 0
M  V30 8274 N 765.656 0.84705 -1.32902 0
M  V30 8275 C 766.586 1.97166 -1.25091 0
M  V30 8276 C 767.567 1.69578 -0.133161 0
M  V30 8277 O 768.752 1.91519 -0.321591 0
M  V30 8278 C 765.882 3.33157 -0.981006 0
M  V30 8279 C 764.836 3.75119 -2.06082 0
M  V30 8280 C 764.162 5.08826 -1.64318 0
M  V30 8281 C 765.462 3.89774 -3.47669 0
M  V30 8282 H 767.156 2.03958 -2.19184 0
M  V30 8283 H 764.702 0.979907 -1.05517 0
M  V30 8284 H 766.655 4.11393 -0.912891 0
M  V30 8285 H 765.379 3.266 -0.00445559 0
M  V30 8286 H 764.038 2.9914 -2.11921 0
M  V30 8287 H 763.686 4.98732 -0.653876 0
M  V30 8288 H 763.386 5.37873 -2.36572 0
M  V30 8289 H 764.91 5.89546 -1.58958 0
M  V30 8290 H 766.324 4.58343 -3.44376 0
M  V30 8291 H 764.721 4.30248 -4.18338 0
M  V30 8292 H 765.791 2.92463 -3.86773 0
M  V30 8293 N 767.134 1.16236 1.06428 0
M  V30 8294 C 768.044 0.881976 2.1739 0
M  V30 8295 C 769.06 -0.145259 1.73393 0
M  V30 8296 O 770.236 0.0310558 2.01376 0
M  V30 8297 C 767.301 0.385496 3.4455 0
M  V30 8298 C 766.362 1.47779 4.03063 0
M  V30 8299 C 765.595 1.0049 5.24154 0
M  V30 8300 O 765.818 -0.145889 5.70213 0
M  V30 8301 O 764.752 1.79265 5.74585 0
M  V30 8302 H 768.578 1.80983 2.43883 0
M  V30 8303 H 766.163 0.942226 1.15942 0
M  V30 8304 H 768.045 0.115536 4.21242 0
M  V30 8305 H 766.72 -0.514369 3.19587 0
M  V30 8306 H 765.627 1.80147 3.27869 0
M  V30 8307 H 766.96 2.35291 4.32318 0
M  V30 8308 N 768.612 -1.24939 0.960631 0
M  V30 8309 C 769.837 -1.9742 0.635608 0
M  V30 8310 C 770.262 -1.70857 -0.786737 0
M  V30 8311 O 769.62 -0.968063 -1.53291 0
M  V30 8312 C 769.668 -3.48987 0.907771 0
M  V30 8313 O 768.772 -4.12399 -0.0104053 0
M  V30 8314 H 768.113 -0.61871 0.241027 0
M  V30 8315 H 770.643 -1.58901 1.28886 0
M  V30 8316 H 770.653 -3.99334 0.836453 0
M  V30 8317 H 769.328 -3.6765 1.94439 0
M  V30 8318 H 767.905 -3.72727 0.113631 0
M  V30 8319 N 770.09 -0.729906 -1.39679 0
M  V30 8320 C 771.318 -0.285709 -2.04918 0
M  V30 8321 C 771.733 1.07765 -1.55023 0
M  V30 8322 O 771.09 1.67999 -0.712923 0
M  V30 8323 C 771.141 -0.272793 -3.60469 0
M  V30 8324 O 770.862 -1.58233 -4.08527 0
M  V30 8325 C 772.363 0.188199 -4.429 0
M  V30 8326 H 769.583 -0.125758 -0.65911 0
M  V30 8327 H 772.127 -0.992129 -1.78821 0
M  V30 8328 H 770.282 0.384699 -3.85485 0
M  V30 8329 H 770.696 -1.49245 -5.02818 0
M  V30 8330 H 772.17 0.14608 -5.51807 0
M  V30 8331 H 772.647 1.2326 -4.21549 0
M  V30 8332 H 773.253 -0.439541 -4.23023 0
M  V30 8333 N 771.568 1.50203 -0.477153 0
M  V30 8334 C 772.984 1.59056 -0.131663 0
M  V30 8335 C 773.184 1.48473 1.36227 0
M  V30 8336 O 772.24 1.34635 2.13611 0
M  V30 8337 C 773.553 2.92741 -0.687254 0
M  V30 8338 C 775.101 3.0615 -0.651223 0
M  V30 8339 C 775.576 4.42419 -1.18446 0
M  V30 8340 N 777.067 4.48847 -1.14413 0
M  V30 8341 C 777.802 5.52689 -1.52717 0
M  V30 8342 N 777.298 6.63754 -1.98499 0
M  V30 8343 N 779.091 5.43267 -1.44282 0
M  V30 8344 H 771.242 1.55325 -1.44872 0
M  V30 8345 H 773.505 0.734395 -0.599473 0
M  V30 8346 H 773.211 3.0598 -1.73405 0
M  V30 8347 H 773.085 3.76961 -0.134215 0
M  V30 8348 H 775.472 2.92556 0.386677 0
M  V30 8349 H 775.553 2.23673 -1.24114 0
M  V30 8350 H 775.197 4.56763 -2.22103 0
M  V30 8351 H 775.127 5.23498 -0.570709 0
M  V30 8352 H 777.618 3.69152 -0.808416 0
M  V30 8353 H 777.931 7.39059 -2.25859 0
M  V30 8354 H 776.276 6.64858 -2.02456 0
M  V30 8355 H 779.467 4.55387 -1.08352 0
M  V30 8356 H 779.64 6.24074 -1.74459 0
M  V30 8357 N 773.046 0.209999 1.56195 0
M  V30 8358 C 774.462 -0.145598 1.58934 0
M  V30 8359 C 774.662 -1.59868 1.22656 0
M  V30 8360 O 773.718 -2.33689 0.956336 0
M  V30 8361 C 775.031 0.170243 3.00218 0
M  V30 8362 C 776.579 0.111548 3.12801 0
M  V30 8363 C 777.054 0.400904 4.56242 0
M  V30 8364 N 778.545 0.350058 4.61875 0
M  V30 8365 C 779.28 0.547598 5.70779 0
M  V30 8366 N 778.776 0.806291 6.88092 0
M  V30 8367 N 780.569 0.480827 5.6004 0
M  V30 8368 H 772.72 1.15804 1.78054 0
M  V30 8369 H 774.983 0.463326 0.827063 0
M  V30 8370 H 774.689 1.17833 3.31373 0
M  V30 8371 H 774.563 -0.520208 3.73596 0
M  V30 8372 H 776.95 -0.887162 2.81449 0
M  V30 8373 H 777.031 0.835302 2.41777 0
M  V30 8374 H 776.675 1.397 4.8831 0
M  V30 8375 H 776.605 -0.34391 5.25476 0
M  V30 8376 H 779.096 0.157334 3.77572 0
M  V30 8377 H 779.409 0.945433 7.66995 0
M  V30 8378 H 777.754 0.843355 6.89864 0
M  V30 8379 H 780.945 0.279037 4.67268 0
M  V30 8380 H 781.118 0.638189 6.4485 0
M  V30 8381 N 774.524 -1.57472 -0.0634922 0
M  V30 8382 C 775.434 -2.07621 -1.09227 0
M  V30 8383 C 776.45 -1.00746 -1.41867 0
M  V30 8384 O 777.626 -1.32269 -1.51878 0
M  V30 8385 C 774.691 -2.51707 -2.38421 0
M  V30 8386 C 773.752 -3.72917 -2.12676 0
M  V30 8387 C 772.985 -4.14891 -3.3571 0
M  V30 8388 O 773.208 -3.56663 -4.45137 0
M  V30 8389 O 772.142 -5.07616 -3.23434 0
M  V30 8390 H 775.968 -2.95612 -0.696205 0
M  V30 8391 H 773.553 -1.46787 -0.27819 0
M  V30 8392 H 775.435 -2.80547 -3.14438 0
M  V30 8393 H 774.11 -1.66842 -2.77391 0
M  V30 8394 H 773.017 -3.49148 -1.34337 0
M  V30 8395 H 774.35 -4.5866 -1.78583 0
M  V30 8396 N 776.003 0.335068 -1.53997 0
M  V30 8397 C 777.249 1.07594 -1.71905 0
M  V30 8398 C 777.582 1.88039 -0.485264 0
M  V30 8399 O 776.857 1.87482 0.517752 0
M  V30 8400 C 777.14 2.01016 -2.98772 0
M  V30 8401 C 776.993 1.23977 -4.32377 0
M  V30 8402 C 778.312 3.0071 -3.21343 0
M  V30 8403 H 775.431 0.38976 -0.625505 0
M  V30 8404 H 778.073 0.353684 -1.86679 0
M  V30 8405 H 776.223 2.62603 -2.86307 0
M  V30 8406 H 777.895 0.649383 -4.56706 0
M  V30 8407 H 776.138 0.541878 -4.30402 0
M  V30 8408 H 776.809 1.92512 -5.17342 0
M  V30 8409 H 779.285 2.4924 -3.33194 0
M  V30 8410 H 778.161 3.63272 -4.11491 0
M  V30 8411 H 778.422 3.72549 -2.38033 0
M  V30 8412 O 777.52 1.5417 0.481036 0
M  V30 8413 H 778.211 1.5692 1.1356 0
M  V30 END ATOM
M  V30 BEGIN BOND
M  V30 END BOND
M  V30 END CTAB
M  END
$$$$
