drugbank_target|Q9P2J5 Leucine--tRNA ligase, cytoplasmic (DB00149)
 OpenBabel12092119393D

  0  0  0     0  0            999 V3000
M  V30 BEGIN CTAB
M  V30 COUNTS 25426 27038 0 0 0
M  V30 BEGIN ATOM
M  V30 1 H -2.588 8.49073 -0.0679273 0
M  V30 2 O -1.492 9.37262 0.0843559 0
M  V30 3 P 0 8.791 0 0
M  V30 4 O 1.422 9.31096 0.027933 0
M  V30 5 O -0.36 7.77869 -1.04071 0
M  V30 6 O -0.323 8.09533 1.41463 0
M  V30 7 C -0.483 9.0349 2.53943 0
M  V30 8 C 0.057 8.35226 3.79016 0
M  V30 9 O -0.999 7.57992 4.15078 0
M  V30 10 C 1.275 7.45087 3.67298 0
M  V30 11 O 2.013 7.27796 4.85194 0
M  V30 12 C 0.606 6.17323 3.12027 0
M  V30 13 O 1.405 5.04231 3.47188 0
M  V30 14 C -0.731 6.19961 3.81809 0
M  V30 15 H -0.699 5.58218 4.73051 0
M  V30 16 H 0.484 6.21726 2.02589 0
M  V30 17 H 1.968 7.86112 2.9231 0
M  V30 18 H 0.274 9.11627 4.55076 0
M  V30 19 H 0.084 9.9573 2.34194 0
M  V30 20 H -1.546 9.2792 2.67832 0
M  V30 21 H 1.093 4.67702 4.28772 0
M  V30 22 P 2.95057 7.39546 4.75277 0
M  V30 23 O 4.37157 7.81861 5.05793 0
M  V30 24 O 2.59057 7.1065 3.32998 0
M  V30 25 O 2.62757 6.04542 5.56673 0
M  V30 26 C 2.46657 6.22839 7.02169 0
M  V30 27 C 3.00757 4.97725 7.70406 0
M  V30 28 O 1.95257 4.13208 7.58899 0
M  V30 29 C 4.22557 4.28231 7.11815 0
M  V30 30 O 4.96357 3.49945 8.01648 0
M  V30 31 C 3.55757 3.5063 5.96244 0
M  V30 32 O 4.35557 2.37008 5.64352 0
M  V30 33 C 2.21957 3.15122 6.56374 0
M  V30 34 N 1.17657 3.22311 5.55692 0
M  V30 35 C 1.34557 3.99655 4.46046 0
M  V30 36 N 0.31857 3.97599 3.63918 0
M  V30 37 C -0.56643 3.11159 4.25334 0
M  V30 38 C -1.83343 2.64972 3.85157 0
M  V30 39 N -2.43243 3.02132 2.69405 0
M  V30 40 N -2.39843 1.78482 4.74759 0
M  V30 41 C -1.79643 1.37463 5.90819 0
M  V30 42 N -0.61943 1.7733 6.31889 0
M  V30 43 C -0.04443 2.64393 5.43725 0
M  V30 44 H 2.25157 2.13823 6.99656 0
M  V30 45 H 3.43457 4.12931 5.06895 0
M  V30 46 H 4.91757 5.03285 6.70911 0
M  V30 47 H 3.22357 5.20001 8.76217 0
M  V30 48 H 3.03357 7.11046 7.35349 0
M  V30 49 H 1.40357 6.35815 7.26986 0
M  V30 50 H -2.33243 0.66574 6.53015 0
M  V30 51 H 2.24557 4.58037 4.27732 0
M  V30 52 H -3.36243 2.64828 2.45331 0
M  V30 53 H -1.95843 3.67472 2.05644 0
M  V30 54 H 4.04357 1.61619 6.13468 0
M  V30 55 P 5.90114 3.65191 7.99657 0
M  V30 56 O 7.32314 3.8425 8.48115 0
M  V30 57 O 5.54114 4.17805 6.64342 0
M  V30 58 O 5.57814 2.07613 7.95143 0
M  V30 59 C 5.41814 1.44328 9.27336 0
M  V30 60 C 5.95814 0.0220036 9.17197 0
M  V30 61 O 4.90214 -0.626867 8.61923 0
M  V30 62 C 7.17614 -0.24586 8.30336 0
M  V30 63 O 7.91414 -1.39011 8.63583 0
M  V30 64 C 6.50714 -0.273849 6.91158 0
M  V30 65 O 7.30614 -1.06348 6.02892 0
M  V30 66 C 5.17014 -0.897649 7.22545 0
M  V30 67 H 5.20214 -1.9841 7.04286 0
M  V30 68 H 6.38514 0.739928 6.497 0
M  V30 69 H 7.86914 0.60668 8.36503 0
M  V30 70 H 6.17514 -0.352479 10.1829 0
M  V30 71 H 5.98514 2.00611 10.0304 0
M  V30 72 H 4.35514 1.41843 9.55327 0
M  V30 73 H 6.99414 -1.95734 6.03555 0
M  V30 74 P 8.85171 -1.25109 8.70152 0
M  V30 75 O 10.2727 -1.35288 9.2132 0
M  V30 76 O 8.49171 -0.0769065 7.84762 0
M  V30 77 O 8.52871 -2.55232 7.81161 0
M  V30 78 C 8.36771 -3.79979 8.58246 0
M  V30 79 C 8.90871 -4.94023 7.72785 0
M  V30 80 O 7.85371 -5.18666 6.91125 0
M  V30 81 C 10.1267 -4.69597 6.85231 0
M  V30 82 O 10.8647 -5.83832 6.51337 0
M  V30 83 C 9.45871 -3.96706 5.66633 0
M  V30 84 O 10.2567 -4.14896 4.5003 0
M  V30 85 C 8.12071 -4.66153 5.59313 0
M  V30 86 N 7.07771 -3.71582 5.24027 0
M  V30 87 C 7.24671 -2.39715 5.48833 0
M  V30 88 N 6.21971 -1.65863 5.12845 0
M  V30 89 C 5.33471 -2.57637 4.5973 0
M  V30 90 C 4.06771 -2.40278 4.01027 0
M  V30 91 N 3.50271 -3.57711 3.59575 0
M  V30 92 C 4.10471 -4.80324 3.70476 0
M  V30 93 N 5.28171 -5.01121 4.23801 0
M  V30 94 C 5.85671 -3.84757 4.66372 0
M  V30 95 H 9.33571 -2.8955 5.86187 0
M  V30 96 H 10.8187 -4.0121 7.36511 0
M  V30 97 H 9.12471 -5.81019 8.37003 0
M  V30 98 H 8.93471 -3.73517 9.52265 0
M  V30 99 H 7.30471 -3.97163 8.80359 0
M  V30 100 H 8.14671 -1.98804 5.94332 0
M  V30 101 H 9.94471 -4.90891 4.01857 0
M  V30 102 P 11.8023 -5.75688 6.64379 0
M  V30 103 O 13.2243 -6.11849 7.01846 0
M  V30 104 O 11.4423 -4.30744 6.56026 0
M  V30 105 O 11.4793 -6.37042 5.19165 0
M  V30 106 C 11.3193 -7.83578 5.16515 0
M  V30 107 C 11.8593 -8.33398 3.83019 0
M  V30 108 O 10.8033 -8.10074 3.01034 0
M  V30 109 C 13.0773 -7.65514 3.2257 0
M  V30 110 O 13.8153 -8.4329 2.32297 0
M  V30 111 C 12.4083 -6.40075 2.62207 0
M  V30 112 O 13.2073 -5.92589 1.53712 0
M  V30 113 C 11.0713 -6.9454 2.18503 0
M  V30 114 H 11.1033 -7.23063 1.12091 0
M  V30 115 H 12.2863 -5.6025 3.37201 0
M  V30 116 H 13.7703 -7.35707 4.02681 0
M  V30 117 H 12.0763 -9.40912 3.9095 0
M  V30 118 H 11.8863 -8.29056 5.99158 0
M  V30 119 H 10.2563 -8.10073 5.25882 0
M  V30 120 H 12.8953 -6.30324 0.726794 0
M  V30 121 P 14.7528 -8.4349 2.47671 0
M  V30 122 O 16.1748 -8.94359 2.59696 0
M  V30 123 O 14.3928 -7.1704 3.19006 0
M  V30 124 O 14.4298 -8.16596 0.923387 0
M  V30 125 C 14.2698 -9.38437 0.108857 0
M  V30 126 C 14.8098 -9.08076 -1.28339 0
M  V30 127 O 13.7548 -8.44229 -1.84713 0
M  V30 128 C 16.0278 -8.18386 -1.42505 0
M  V30 129 O 16.7659 -8.3501 -2.60497 0
M  V30 130 C 15.3598 -6.80225 -1.25468 0
M  V30 131 O 16.1578 -5.81526 -1.91035 0
M  V30 132 C 14.0218 -7.02416 -1.9168 0
M  V30 133 N 12.9788 -6.31033 -1.20314 0
M  V30 134 C 13.0408 -6.18781 0.121293 0
M  V30 135 N 11.9958 -5.49762 0.588272 0
M  V30 136 C 11.2618 -5.22015 -0.488988 0
M  V30 137 C 9.95585 -4.61966 -0.596448 0
M  V30 138 O 9.22285 -4.19162 0.309059 0
M  V30 139 N 9.52585 -4.53773 -1.878 0
M  V30 140 C 10.2748 -4.99623 -2.99082 0
M  V30 141 N 9.67785 -4.78912 -4.21227 0
M  V30 142 N 11.4278 -5.59957 -2.91093 0
M  V30 143 C 11.8848 -5.70225 -1.64218 0
M  V30 144 H 14.0538 -6.6888 -2.96621 0
M  V30 145 H 15.2368 -6.53517 -0.192194 0
M  V30 146 H 16.7218 -8.36563 -0.598329 0
M  V30 147 H 15.0268 -10.0291 -1.79807 0
M  V30 148 H 14.8368 -10.2138 0.558219 0
M  V30 149 H 13.2058 -9.6579 0.0444202 0
M  V30 150 H 8.62985 -4.12883 -2.05283 0
M  V30 151 H 13.8368 -6.59596 0.745856 0
M  V30 152 H 8.76685 -4.31425 -4.2628 0
M  V30 153 H 10.1428 -5.11219 -5.07148 0
M  V30 154 H 15.8468 -5.69466 -2.79593 0
M  V30 155 P 17.7034 -8.4349 -2.47671 0
M  V30 156 O 19.1254 -8.92593 -2.65 0
M  V30 157 O 17.3434 -7.7568 -1.19296 0
M  V30 158 O 17.3804 -7.36886 -3.63805 0
M  V30 159 C 17.2204 -7.95349 -4.982 0
M  V30 160 C 17.7604 -6.94612 -5.98974 0
M  V30 161 O 16.7044 -6.10347 -6.11815 0
M  V30 162 C 18.9784 -6.11426 -5.62335 0
M  V30 163 O 19.7164 -5.6162 -6.70584 0
M  V30 164 C 18.3094 -5.04409 -4.73308 0
M  V30 165 O 19.1084 -3.85992 -4.75183 0
M  V30 166 C 16.9724 -4.8728 -5.41006 0
M  V30 167 H 17.0044 -4.02333 -6.11157 0
M  V30 168 H 18.1874 -5.39466 -3.69543 0
M  V30 169 H 19.6714 -6.71916 -5.01943 0
M  V30 170 H 17.9774 -7.4649 -6.93477 0
M  V30 171 H 17.7874 -8.89416 -5.05237 0
M  V30 172 H 16.1574 -8.14876 -5.18409 0
M  V30 173 H 18.7964 -3.27957 -5.4317 0
M  V30 174 P 20.654 -5.75688 -6.64379 0
M  V30 175 O 22.075 -6.07692 -7.0558 0
M  V30 176 O 20.294 -5.88047 -5.19722 0
M  V30 177 O 20.331 -4.2322 -7.04443 0
M  V30 178 C 20.17 -3.99785 -8.49201 0
M  V30 179 C 20.711 -2.60516 -8.79425 0
M  V30 180 O 19.656 -1.82663 -8.44573 0
M  V30 181 C 21.929 -2.10343 -8.03628 0
M  V30 182 O 22.667 -1.09919 -8.67766 0
M  V30 183 C 21.261 -1.68446 -6.70876 0
M  V30 184 O 22.059 -0.684109 -6.08265 0
M  V30 185 C 19.923 -1.17436 -7.18567 0
M  V30 186 N 18.88 -1.52699 -6.23988 0
M  V30 187 C 19.049 -2.578 -5.40574 0
M  V30 188 N 18.022 -2.78966 -4.61193 0
M  V30 189 C 17.137 -1.78725 -4.95769 0
M  V30 190 C 15.87 -1.45727 -4.44207 0
M  V30 191 N 15.271 -2.13994 -3.43613 0
M  V30 192 N 15.305 -0.374977 -5.05812 0
M  V30 193 C 15.907 0.345585 -6.05615 0
M  V30 194 N 17.084 0.0787651 -6.56253 0
M  V30 195 C 17.659 -1.00499 -5.96189 0
M  V30 196 H 19.955 -0.0804622 -7.31556 0
M  V30 197 H 21.138 -2.53396 -6.02698 0
M  V30 198 H 22.621 -2.93881 -7.85526 0
M  V30 199 H 20.927 -2.52078 -9.87225 0
M  V30 200 H 20.737 -4.75072 -9.05887 0
M  V30 201 H 19.107 -4.05244 -8.76668 0
M  V30 202 H 15.371 1.20098 -6.4532 0
M  V30 203 H 19.949 -3.18977 -5.3945 0
M  V30 204 H 14.341 -1.84983 -3.10004 0
M  V30 205 H 15.745 -2.9465 -3.00843 0
M  V30 206 H 21.747 0.177619 -6.34151 0
M  V30 207 P 23.6046 -1.25109 -8.70152 0
M  V30 208 O 25.0266 -1.29744 -9.22016 0
M  V30 209 O 23.2446 -2.13714 -7.55141 0
M  V30 210 O 23.2816 0.248149 -8.21425 0
M  V30 211 C 23.1216 1.22779 -9.30434 0
M  V30 212 C 23.6616 2.56293 -8.80664 0
M  V30 213 O 22.6056 3.02979 -8.09349 0
M  V30 214 C 24.8796 2.57523 -7.89775 0
M  V30 215 O 25.6176 3.7668 -7.89438 0
M  V30 216 C 24.2106 2.20997 -6.55446 0
M  V30 217 O 25.0096 2.71895 -5.48509 0
M  V30 218 C 22.8736 2.89693 -6.67988 0
M  V30 219 H 22.9056 3.88793 -6.19859 0
M  V30 220 H 24.0886 1.12046 -6.44229 0
M  V30 221 H 25.5726 1.7746 -8.19711 0
M  V30 222 H 23.8786 3.20706 -9.67112 0
M  V30 223 H 23.6886 0.901032 -10.1892 0
M  V30 224 H 22.0586 1.33049 -9.56592 0
M  V30 225 H 24.6976 3.57847 -5.23962 0
M  V30 226 P 26.5551 3.65191 -7.99657 0
M  V30 227 O 27.9771 3.89332 -8.45794 0
M  V30 228 O 26.1951 2.28472 -7.50807 0
M  V30 229 O 26.2321 4.64972 -6.77611 0
M  V30 230 C 26.0721 6.06319 -7.16352 0
M  V30 231 C 26.6121 6.91731 -6.02299 0
M  V30 232 O 25.5561 6.92449 -5.17064 0
M  V30 233 C 27.8301 6.43627 -5.25174 0
M  V30 234 O 28.5681 7.43686 -4.60469 0
M  V30 235 C 27.1611 5.40275 -4.31916 0
M  V30 236 O 27.9601 5.25279 -3.14438 0
M  V30 237 C 25.8241 6.04847 -4.05327 0
M  V30 238 H 25.8561 6.62195 -3.11261 0
M  V30 239 H 27.0391 4.42556 -4.81383 0
M  V30 240 H 28.5231 5.92458 -5.93643 0
M  V30 241 H 26.8291 7.92655 -6.402 0
M  V30 242 H 26.6391 6.26671 -8.0846 0
M  V30 243 H 25.0091 6.29101 -7.32804 0
M  V30 244 H 27.6481 5.84315 -2.47318 0
M  V30 245 P 29.5057 7.39546 -4.75277 0
M  V30 246 O 30.9277 7.84798 -5.01039 0
M  V30 247 O 29.1457 5.9812 -5.08098 0
M  V30 248 O 29.1827 7.57503 -3.1866 0
M  V30 249 C 29.0227 8.97357 -2.74833 0
M  V30 250 C 29.5627 9.07548 -1.32709 0
M  V30 251 O 28.5067 8.62072 -0.606159 0
M  V30 252 C 30.7807 8.25383 -0.938334 0
M  V30 253 O 31.5187 8.74577 0.146954 0
M  V30 254 C 30.1117 6.8802 -0.712559 0
M  V30 255 O 30.9107 6.1189 0.194655 0
M  V30 256 C 28.7747 7.27966 -0.139777 0
M  V30 257 H 28.8067 7.25354 0.961601 0
M  V30 258 H 29.9897 6.32557 -1.65702 0
M  V30 259 H 31.4737 8.19355 -1.79097 0
M  V30 260 H 29.7797 10.1294 -1.10029 0
M  V30 261 H 29.5897 9.64276 -3.41316 0
M  V30 262 H 27.9597 9.25417 -2.76357 0
M  V30 263 H 30.5987 6.25267 1.07847 0
M  V30 264 P 32.4563 8.791 -9.96115e-15 0
M  V30 265 O 33.8783 9.31096 0.027933 0
M  V30 266 O 32.0963 7.77869 -1.04071 0
M  V30 267 O 32.1333 8.09533 1.41463 0
M  V30 268 C 31.9733 9.0349 2.53943 0
M  V30 269 C 32.5133 8.35226 3.79016 0
M  V30 270 O 31.4573 7.57992 4.15078 0
M  V30 271 C 33.7313 7.45087 3.67298 0
M  V30 272 O 34.4693 7.27796 4.85194 0
M  V30 273 C 33.0623 6.17323 3.12027 0
M  V30 274 O 33.8613 5.04231 3.47188 0
M  V30 275 C 31.7253 6.19961 3.81809 0
M  V30 276 H 31.7573 5.58218 4.73051 0
M  V30 277 H 32.9403 6.21726 2.02589 0
M  V30 278 H 34.4243 7.86112 2.9231 0
M  V30 279 H 32.7303 9.11627 4.55076 0
M  V30 280 H 32.5403 9.9573 2.34194 0
M  V30 281 H 30.9103 9.2792 2.67832 0
M  V30 282 H 33.5493 4.67702 4.28772 0
M  V30 283 P 35.4068 7.39546 4.75277 0
M  V30 284 O 36.8288 7.81777 5.05738 0
M  V30 285 O 35.0468 7.1065 3.32998 0
M  V30 286 O 35.0838 6.04542 5.56673 0
M  V30 287 C 34.9238 6.22772 7.02095 0
M  V30 288 C 35.4638 4.97725 7.70406 0
M  V30 289 O 34.4078 4.13256 7.58987 0
M  V30 290 C 36.6818 4.28231 7.11815 0
M  V30 291 O 37.4198 3.49945 8.01648 0
M  V30 292 C 36.0128 3.5063 5.96244 0
M  V30 293 O 36.8118 2.36482 5.64681 0
M  V30 294 C 34.6758 3.15122 6.56374 0
M  V30 295 H 34.7078 2.13853 6.99751 0
M  V30 296 H 35.8908 4.13501 5.06559 0
M  V30 297 H 37.3748 5.03285 6.70911 0
M  V30 298 H 35.6808 5.20877 8.75697 0
M  V30 299 H 35.4908 7.11046 7.35349 0
M  V30 300 H 33.8608 6.35815 7.26986 0
M  V30 301 H 36.4998 1.61644 6.13565 0
M  V30 302 P 38.3574 3.65191 7.99657 0
M  V30 303 O 39.7794 3.8425 8.48115 0
M  V30 304 O 37.9974 4.17805 6.64342 0
M  V30 305 O 38.0344 2.07613 7.95143 0
M  V30 306 C 37.8744 1.44328 9.27336 0
M  V30 307 C 38.4144 0.0220036 9.17197 0
M  V30 308 O 37.3584 -0.626867 8.61923 0
M  V30 309 C 39.6324 -0.24586 8.30336 0
M  V30 310 O 40.3704 -1.39011 8.63583 0
M  V30 311 C 38.9634 -0.273849 6.91158 0
M  V30 312 O 39.7624 -1.06348 6.02892 0
M  V30 313 C 37.6264 -0.897649 7.22545 0
M  V30 314 H 37.6584 -1.9841 7.04286 0
M  V30 315 H 38.8414 0.739928 6.497 0
M  V30 316 H 40.3254 0.60668 8.36503 0
M  V30 317 H 38.6314 -0.352479 10.1829 0
M  V30 318 H 38.4414 2.00611 10.0304 0
M  V30 319 H 36.8114 1.41843 9.55327 0
M  V30 320 H 39.4504 -1.95734 6.03555 0
M  V30 321 P 41.308 -1.25109 8.70152 0
M  V30 322 O 42.73 -1.35274 9.21221 0
M  V30 323 O 40.948 -0.0769065 7.84762 0
M  V30 324 O 40.985 -2.55232 7.81161 0
M  V30 325 C 40.825 -3.79939 8.58154 0
M  V30 326 C 41.365 -4.94023 7.72785 0
M  V30 327 O 40.309 -5.18726 6.91205 0
M  V30 328 C 42.583 -4.69597 6.85231 0
M  V30 329 O 43.321 -5.83832 6.51337 0
M  V30 330 C 41.914 -3.96706 5.66633 0
M  V30 331 O 42.713 -4.15414 4.49689 0
M  V30 332 C 40.577 -4.66153 5.59313 0
M  V30 333 H 40.609 -5.47679 4.85214 0
M  V30 334 H 41.792 -2.89008 5.86566 0
M  V30 335 H 43.276 -4.0121 7.36511 0
M  V30 336 H 41.582 -5.80182 8.37584 0
M  V30 337 H 41.392 -3.73517 9.52265 0
M  V30 338 H 39.762 -3.97163 8.80359 0
M  V30 339 H 42.401 -4.90969 4.01921 0
M  V30 340 P 44.2585 -5.75688 6.64379 0
M  V30 341 O 45.6805 -6.11849 7.01846 0
M  V30 342 O 43.8985 -4.30744 6.56026 0
M  V30 343 O 43.9355 -6.37042 5.19165 0
M  V30 344 C 43.7755 -7.83578 5.16515 0
M  V30 345 C 44.3155 -8.33398 3.83019 0
M  V30 346 O 43.2595 -8.10074 3.01034 0
M  V30 347 C 45.5335 -7.65514 3.2257 0
M  V30 348 O 46.2715 -8.4329 2.32297 0
M  V30 349 C 44.8645 -6.40075 2.62207 0
M  V30 350 O 45.6635 -5.92589 1.53712 0
M  V30 351 C 43.5275 -6.9454 2.18503 0
M  V30 352 H 43.5595 -7.23063 1.12091 0
M  V30 353 H 44.7425 -5.6025 3.37201 0
M  V30 354 H 46.2265 -7.35707 4.02681 0
M  V30 355 H 44.5325 -9.40912 3.9095 0
M  V30 356 H 44.3425 -8.29056 5.99158 0
M  V30 357 H 42.7125 -8.10073 5.25882 0
M  V30 358 H 45.3515 -6.30324 0.726794 0
M  V30 359 P 47.2091 -8.4349 2.47671 0
M  V30 360 O 48.6311 -8.94167 2.5964 0
M  V30 361 O 46.8491 -7.1704 3.19006 0
M  V30 362 O 46.8861 -8.16596 0.923387 0
M  V30 363 C 46.7261 -9.38437 0.108857 0
M  V30 364 C 47.2661 -9.08175 -1.28353 0
M  V30 365 O 46.2101 -8.44229 -1.84713 0
M  V30 366 C 48.4841 -8.18386 -1.42505 0
M  V30 367 O 49.2221 -8.3501 -2.60497 0
M  V30 368 C 47.8151 -6.80225 -1.25468 0
M  V30 369 O 48.6141 -5.81621 -1.91066 0
M  V30 370 C 46.4781 -7.02416 -1.9168 0
M  V30 371 H 46.5101 -6.6888 -2.96621 0
M  V30 372 H 47.6931 -6.53617 -0.192223 0
M  V30 373 H 49.1771 -8.36622 -0.589963 0
M  V30 374 H 47.4831 -10.0291 -1.79807 0
M  V30 375 H 47.2931 -10.2138 0.558219 0
M  V30 376 H 45.6631 -9.6579 0.0444202 0
M  V30 377 H 48.3021 -5.69556 -2.79637 0
M  V30 378 P 50.1597 -8.4349 -2.47671 0
M  V30 379 O 51.5817 -8.92593 -2.65 0
M  V30 380 O 49.7997 -7.7568 -1.19296 0
M  V30 381 O 49.8367 -7.36886 -3.63805 0
M  V30 382 C 49.6767 -7.95349 -4.982 0
M  V30 383 C 50.2167 -6.94612 -5.98974 0
M  V30 384 O 49.1607 -6.10347 -6.11815 0
M  V30 385 C 51.4347 -6.11426 -5.62335 0
M  V30 386 O 52.1727 -5.6162 -6.70584 0
M  V30 387 C 50.7657 -5.04409 -4.73308 0
M  V30 388 O 51.5647 -3.85992 -4.75183 0
M  V30 389 C 49.4287 -4.8728 -5.41006 0
M  V30 390 H 49.4607 -4.02333 -6.11157 0
M  V30 391 H 50.6437 -5.39466 -3.69543 0
M  V30 392 H 52.1277 -6.71916 -5.01943 0
M  V30 393 H 50.4337 -7.4649 -6.93477 0
M  V30 394 H 50.2437 -8.89416 -5.05237 0
M  V30 395 H 48.6137 -8.14876 -5.18409 0
M  V30 396 H 51.2527 -3.27957 -5.4317 0
M  V30 397 P 53.1103 -5.75688 -6.64379 0
M  V30 398 O 54.5323 -6.07627 -7.05504 0
M  V30 399 O 52.7503 -5.88047 -5.19722 0
M  V30 400 O 52.7873 -4.2322 -7.04443 0
M  V30 401 C 52.6273 -3.99743 -8.4911 0
M  V30 402 C 53.1673 -2.60516 -8.79425 0
M  V30 403 O 52.1113 -1.82684 -8.4467 0
M  V30 404 C 54.3853 -2.10343 -8.03628 0
M  V30 405 O 55.1233 -1.09919 -8.67766 0
M  V30 406 C 53.7163 -1.68446 -6.70876 0
M  V30 407 O 54.5153 -0.678137 -6.08433 0
M  V30 408 C 52.3793 -1.17436 -7.18567 0
M  V30 409 H 52.4113 -0.0804732 -7.31656 0
M  V30 410 H 53.5943 -2.54037 -6.02537 0
M  V30 411 H 55.0783 -2.93881 -7.85526 0
M  V30 412 H 53.3843 -2.53065 -9.86973 0
M  V30 413 H 53.1943 -4.75072 -9.05887 0
M  V30 414 H 51.5643 -4.05244 -8.76668 0
M  V30 415 H 54.2033 0.177647 -6.34251 0
M  V30 416 P 56.0608 -1.25109 -8.70152 0
M  V30 417 O 57.4828 -1.29744 -9.22016 0
M  V30 418 O 55.7008 -2.13714 -7.55141 0
M  V30 419 O 55.7378 0.248149 -8.21425 0
M  V30 420 C 55.5778 1.22779 -9.30434 0
M  V30 421 C 56.1178 2.56293 -8.80664 0
M  V30 422 O 55.0618 3.02979 -8.09349 0
M  V30 423 C 57.3358 2.57523 -7.89775 0
M  V30 424 O 58.0738 3.7668 -7.89438 0
M  V30 425 C 56.6668 2.20997 -6.55446 0
M  V30 426 O 57.4658 2.71895 -5.48509 0
M  V30 427 C 55.3298 2.89693 -6.67988 0
M  V30 428 H 55.3618 3.88793 -6.19859 0
M  V30 429 H 56.5448 1.12046 -6.44229 0
M  V30 430 H 58.0288 1.7746 -8.19711 0
M  V30 431 H 56.3348 3.20706 -9.67112 0
M  V30 432 H 56.1448 0.901032 -10.1892 0
M  V30 433 H 54.5148 1.33049 -9.56592 0
M  V30 434 H 57.1538 3.57847 -5.23962 0
M  V30 435 P 59.0114 3.65191 -7.99657 0
M  V30 436 O 60.4334 3.89332 -8.45794 0
M  V30 437 O 58.6514 2.28472 -7.50807 0
M  V30 438 O 58.6884 4.64972 -6.77611 0
M  V30 439 C 58.5284 6.06319 -7.16352 0
M  V30 440 C 59.0684 6.91731 -6.02299 0
M  V30 441 O 58.0124 6.92449 -5.17064 0
M  V30 442 C 60.2864 6.43627 -5.25174 0
M  V30 443 O 61.0244 7.43686 -4.60469 0
M  V30 444 C 59.6174 5.40275 -4.31916 0
M  V30 445 O 60.4164 5.25279 -3.14438 0
M  V30 446 C 58.2804 6.04847 -4.05327 0
M  V30 447 H 58.3124 6.62195 -3.11261 0
M  V30 448 H 59.4954 4.42556 -4.81383 0
M  V30 449 H 60.9794 5.92458 -5.93643 0
M  V30 450 H 59.2854 7.92655 -6.402 0
M  V30 451 H 59.0954 6.26671 -8.0846 0
M  V30 452 H 57.4654 6.29101 -7.32804 0
M  V30 453 H 60.1044 5.84315 -2.47318 0
M  V30 454 P 61.962 7.39546 -4.75277 0
M  V30 455 O 63.384 7.84798 -5.01039 0
M  V30 456 O 61.602 5.9812 -5.08098 0
M  V30 457 O 61.639 7.57503 -3.1866 0
M  V30 458 C 61.479 8.97357 -2.74833 0
M  V30 459 C 62.019 9.07548 -1.32709 0
M  V30 460 O 60.963 8.62072 -0.606159 0
M  V30 461 C 63.237 8.25383 -0.938334 0
M  V30 462 O 63.975 8.74577 0.146954 0
M  V30 463 C 62.568 6.8802 -0.712559 0
M  V30 464 O 63.367 6.1189 0.194655 0
M  V30 465 C 61.231 7.27966 -0.139777 0
M  V30 466 H 61.263 7.25354 0.961601 0
M  V30 467 H 62.446 6.32557 -1.65702 0
M  V30 468 H 63.93 8.19355 -1.79097 0
M  V30 469 H 62.236 10.1294 -1.10029 0
M  V30 470 H 62.046 9.64276 -3.41316 0
M  V30 471 H 60.416 9.25417 -2.76357 0
M  V30 472 H 63.055 6.25267 1.07847 0
M  V30 473 P 64.9125 8.791 -3.55383e-14 0
M  V30 474 O 66.3345 9.31096 0.027933 0
M  V30 475 O 64.5525 7.77869 -1.04071 0
M  V30 476 O 64.5895 8.09533 1.41463 0
M  V30 477 C 64.4295 9.0349 2.53943 0
M  V30 478 C 64.9695 8.35226 3.79016 0
M  V30 479 O 63.9135 7.57992 4.15078 0
M  V30 480 C 66.1875 7.45087 3.67298 0
M  V30 481 O 66.9255 7.27796 4.85194 0
M  V30 482 C 65.5185 6.17323 3.12027 0
M  V30 483 O 66.3175 5.04231 3.47188 0
M  V30 484 C 64.1815 6.19961 3.81809 0
M  V30 485 H 64.2135 5.58218 4.73051 0
M  V30 486 H 65.3965 6.21726 2.02589 0
M  V30 487 H 66.8805 7.86112 2.9231 0
M  V30 488 H 65.1865 9.11627 4.55076 0
M  V30 489 H 64.9965 9.9573 2.34194 0
M  V30 490 H 63.3665 9.2792 2.67832 0
M  V30 491 H 66.0055 4.67702 4.28772 0
M  V30 492 P 67.8631 7.39546 4.75277 0
M  V30 493 O 69.2851 7.81777 5.05738 0
M  V30 494 O 67.5031 7.1065 3.32998 0
M  V30 495 O 67.5401 6.04542 5.56673 0
M  V30 496 C 67.3801 6.22772 7.02095 0
M  V30 497 C 67.9201 4.97725 7.70406 0
M  V30 498 O 66.8641 4.13256 7.58987 0
M  V30 499 C 69.1381 4.28231 7.11815 0
M  V30 500 O 69.8761 3.49945 8.01648 0
M  V30 501 C 68.4691 3.5063 5.96244 0
M  V30 502 O 69.2681 2.36482 5.64681 0
M  V30 503 C 67.1321 3.15122 6.56374 0
M  V30 504 H 67.1641 2.13853 6.99751 0
M  V30 505 H 68.3471 4.13501 5.06559 0
M  V30 506 H 69.8311 5.03285 6.70911 0
M  V30 507 H 68.1371 5.20877 8.75697 0
M  V30 508 H 67.9471 7.11046 7.35349 0
M  V30 509 H 66.3171 6.35815 7.26986 0
M  V30 510 H 68.9561 1.61644 6.13565 0
M  V30 511 P 70.8137 3.65191 7.99657 0
M  V30 512 O 72.2357 3.8425 8.48115 0
M  V30 513 O 70.4537 4.17805 6.64342 0
M  V30 514 O 70.4907 2.07613 7.95143 0
M  V30 515 C 70.3307 1.44328 9.27336 0
M  V30 516 C 70.8707 0.0220036 9.17197 0
M  V30 517 O 69.8147 -0.626867 8.61923 0
M  V30 518 C 72.0887 -0.24586 8.30336 0
M  V30 519 O 72.8267 -1.39011 8.63583 0
M  V30 520 C 71.4197 -0.273849 6.91158 0
M  V30 521 O 72.2187 -1.06348 6.02892 0
M  V30 522 C 70.0827 -0.897649 7.22545 0
M  V30 523 H 70.1147 -1.9841 7.04286 0
M  V30 524 H 71.2977 0.739928 6.497 0
M  V30 525 H 72.7817 0.60668 8.36503 0
M  V30 526 H 71.0877 -0.352479 10.1829 0
M  V30 527 H 70.8977 2.00611 10.0304 0
M  V30 528 H 69.2677 1.41843 9.55327 0
M  V30 529 H 71.9067 -1.95734 6.03555 0
M  V30 530 P 73.7642 -1.25109 8.70152 0
M  V30 531 O 75.1862 -1.35274 9.21221 0
M  V30 532 O 73.4042 -0.0769065 7.84762 0
M  V30 533 O 73.4412 -2.55232 7.81161 0
M  V30 534 C 73.2812 -3.79939 8.58154 0
M  V30 535 C 73.8212 -4.94023 7.72785 0
M  V30 536 O 72.7652 -5.18726 6.91205 0
M  V30 537 C 75.0392 -4.69597 6.85231 0
M  V30 538 O 75.7772 -5.83832 6.51337 0
M  V30 539 C 74.3702 -3.96706 5.66633 0
M  V30 540 O 75.1692 -4.15414 4.49689 0
M  V30 541 C 73.0332 -4.66153 5.59313 0
M  V30 542 H 73.0652 -5.47679 4.85214 0
M  V30 543 H 74.2482 -2.89008 5.86566 0
M  V30 544 H 75.7322 -4.0121 7.36511 0
M  V30 545 H 74.0382 -5.80182 8.37584 0
M  V30 546 H 73.8482 -3.73517 9.52265 0
M  V30 547 H 72.2182 -3.97163 8.80359 0
M  V30 548 H 74.8572 -4.90969 4.01921 0
M  V30 549 P 76.7148 -5.75688 6.64379 0
M  V30 550 O 78.1368 -6.11849 7.01846 0
M  V30 551 O 76.3548 -4.30744 6.56026 0
M  V30 552 O 76.3918 -6.37042 5.19165 0
M  V30 553 C 76.2318 -7.83578 5.16515 0
M  V30 554 C 76.7718 -8.33398 3.83019 0
M  V30 555 O 75.7158 -8.10074 3.01034 0
M  V30 556 C 77.9898 -7.65514 3.2257 0
M  V30 557 O 78.7278 -8.4329 2.32297 0
M  V30 558 C 77.3208 -6.40075 2.62207 0
M  V30 559 O 78.1198 -5.92589 1.53712 0
M  V30 560 C 75.9838 -6.9454 2.18503 0
M  V30 561 H 76.0158 -7.23063 1.12091 0
M  V30 562 H 77.1988 -5.6025 3.37201 0
M  V30 563 H 78.6828 -7.35707 4.02681 0
M  V30 564 H 76.9888 -9.40912 3.9095 0
M  V30 565 H 76.7988 -8.29056 5.99158 0
M  V30 566 H 75.1688 -8.10073 5.25882 0
M  V30 567 H 77.8078 -6.30324 0.726794 0
M  V30 568 P 79.6654 -8.4349 2.47671 0
M  V30 569 O 81.0864 -8.94263 2.59668 0
M  V30 570 O 79.3054 -7.1704 3.19006 0
M  V30 571 O 79.3424 -8.16596 0.923387 0
M  V30 572 C 79.1814 -9.38537 0.108869 0
M  V30 573 C 79.7224 -9.08175 -1.28353 0
M  V30 574 O 78.6674 -8.44131 -1.84692 0
M  V30 575 C 80.9404 -8.18386 -1.42505 0
M  V30 576 O 81.6784 -8.3501 -2.60497 0
M  V30 577 C 80.2724 -6.80225 -1.25468 0
M  V30 578 O 81.0704 -5.81716 -1.90454 0
M  V30 579 C 78.9344 -7.02416 -1.9168 0
M  V30 580 N 77.8914 -6.31033 -1.20314 0
M  V30 581 C 78.0604 -5.98817 0.0994088 0
M  V30 582 N 77.0334 -5.35403 0.621694 0
M  V30 583 C 76.1484 -5.25212 -0.43376 0
M  V30 584 C 74.8814 -4.64602 -0.519722 0
M  V30 585 N 74.3164 -4.7568 -1.76013 0
M  V30 586 C 74.9184 -5.3653 -2.83017 0
M  V30 587 N 76.0954 -5.93676 -2.79782 0
M  V30 588 C 76.6704 -5.84061 -1.56249 0
M  V30 589 H 80.1494 -6.53498 -0.198729 0
M  V30 590 H 81.6324 -8.36622 -0.589963 0
M  V30 591 H 79.9384 -10.0273 -1.8081 0
M  V30 592 H 79.7484 -10.2138 0.558219 0
M  V30 593 H 78.1184 -9.6579 0.0444202 0
M  V30 594 H 78.9604 -6.23209 0.660562 0
M  V30 595 H 80.7584 -5.69466 -2.79593 0
M  V30 596 P 82.616 -8.4349 -2.47671 0
M  V30 597 O 84.038 -8.92593 -2.65 0
M  V30 598 O 82.256 -7.7568 -1.19296 0
M  V30 599 O 82.293 -7.36886 -3.63805 0
M  V30 600 C 82.133 -7.95349 -4.982 0
M  V30 601 C 82.673 -6.94612 -5.98974 0
M  V30 602 O 81.617 -6.10347 -6.11815 0
M  V30 603 C 83.891 -6.11426 -5.62335 0
M  V30 604 O 84.629 -5.6162 -6.70584 0
M  V30 605 C 83.222 -5.04409 -4.73308 0
M  V30 606 O 84.021 -3.85992 -4.75183 0
M  V30 607 C 81.885 -4.8728 -5.41006 0
M  V30 608 H 81.917 -4.02333 -6.11157 0
M  V30 609 H 83.1 -5.39466 -3.69543 0
M  V30 610 H 84.584 -6.71916 -5.01943 0
M  V30 611 H 82.89 -7.4649 -6.93477 0
M  V30 612 H 82.7 -8.89416 -5.05237 0
M  V30 613 H 81.07 -8.14876 -5.18409 0
M  V30 614 H 83.709 -3.27957 -5.4317 0
M  V30 615 P 85.5665 -5.75688 -6.64379 0
M  V30 616 O 86.9885 -6.07627 -7.05504 0
M  V30 617 O 85.2065 -5.88047 -5.19722 0
M  V30 618 O 85.2435 -4.2322 -7.04443 0
M  V30 619 C 85.0835 -3.99743 -8.4911 0
M  V30 620 C 85.6235 -2.60516 -8.79425 0
M  V30 621 O 84.5675 -1.82684 -8.4467 0
M  V30 622 C 86.8415 -2.10343 -8.03628 0
M  V30 623 O 87.5795 -1.09919 -8.67766 0
M  V30 624 C 86.1725 -1.68446 -6.70876 0
M  V30 625 O 86.9715 -0.678137 -6.08433 0
M  V30 626 C 84.8355 -1.17436 -7.18567 0
M  V30 627 H 84.8675 -0.0804732 -7.31656 0
M  V30 628 H 86.0505 -2.54037 -6.02537 0
M  V30 629 H 87.5345 -2.93881 -7.85526 0
M  V30 630 H 85.8405 -2.53065 -9.86973 0
M  V30 631 H 85.6505 -4.75072 -9.05887 0
M  V30 632 H 84.0205 -4.05244 -8.76668 0
M  V30 633 H 86.6595 0.177647 -6.34251 0
M  V30 634 P 88.5171 -1.25109 -8.70152 0
M  V30 635 O 89.9391 -1.29744 -9.22016 0
M  V30 636 O 88.1571 -2.13714 -7.55141 0
M  V30 637 O 88.1941 0.248149 -8.21425 0
M  V30 638 C 88.0341 1.22779 -9.30434 0
M  V30 639 C 88.5741 2.56293 -8.80664 0
M  V30 640 O 87.5181 3.02979 -8.09349 0
M  V30 641 C 89.7921 2.57523 -7.89775 0
M  V30 642 O 90.5301 3.7668 -7.89438 0
M  V30 643 C 89.1231 2.20997 -6.55446 0
M  V30 644 O 89.9221 2.71895 -5.48509 0
M  V30 645 C 87.7861 2.89693 -6.67988 0
M  V30 646 H 87.8181 3.88793 -6.19859 0
M  V30 647 H 89.0011 1.12046 -6.44229 0
M  V30 648 H 90.4851 1.7746 -8.19711 0
M  V30 649 H 88.7911 3.20706 -9.67112 0
M  V30 650 H 88.6011 0.901032 -10.1892 0
M  V30 651 H 86.9711 1.33049 -9.56592 0
M  V30 652 H 89.6101 3.57847 -5.23962 0
M  V30 653 P 91.4677 3.65191 -7.99657 0
M  V30 654 O 92.8897 3.89332 -8.45794 0
M  V30 655 O 91.1077 2.28472 -7.50807 0
M  V30 656 O 91.1447 4.64972 -6.77611 0
M  V30 657 C 90.9847 6.06319 -7.16352 0
M  V30 658 C 91.5247 6.91731 -6.02299 0
M  V30 659 O 90.4687 6.92449 -5.17064 0
M  V30 660 C 92.7427 6.43627 -5.25174 0
M  V30 661 O 93.4807 7.43686 -4.60469 0
M  V30 662 C 92.0737 5.40275 -4.31916 0
M  V30 663 O 92.8727 5.25279 -3.14438 0
M  V30 664 C 90.7367 6.04847 -4.05327 0
M  V30 665 H 90.7687 6.62195 -3.11261 0
M  V30 666 H 91.9517 4.42556 -4.81383 0
M  V30 667 H 93.4357 5.92458 -5.93643 0
M  V30 668 H 91.7417 7.92655 -6.402 0
M  V30 669 H 91.5517 6.26671 -8.0846 0
M  V30 670 H 89.9217 6.29101 -7.32804 0
M  V30 671 H 92.5607 5.84315 -2.47318 0
M  V30 672 P 94.4182 7.39546 -4.75277 0
M  V30 673 O 95.8402 7.84798 -5.01039 0
M  V30 674 O 94.0582 5.9812 -5.08098 0
M  V30 675 O 94.0952 7.57503 -3.1866 0
M  V30 676 C 93.9352 8.97357 -2.74833 0
M  V30 677 C 94.4752 9.07548 -1.32709 0
M  V30 678 O 93.4192 8.62072 -0.606159 0
M  V30 679 C 95.6932 8.25383 -0.938334 0
M  V30 680 O 96.4312 8.74577 0.146954 0
M  V30 681 C 95.0242 6.8802 -0.712559 0
M  V30 682 O 95.8232 6.1189 0.194655 0
M  V30 683 C 93.6872 7.27966 -0.139777 0
M  V30 684 H 93.7192 7.25354 0.961601 0
M  V30 685 H 94.9022 6.32557 -1.65702 0
M  V30 686 H 96.3862 8.19355 -1.79097 0
M  V30 687 H 94.6922 10.1294 -1.10029 0
M  V30 688 H 94.5022 9.64276 -3.41316 0
M  V30 689 H 92.8722 9.25417 -2.76357 0
M  V30 690 H 95.5112 6.25267 1.07847 0
M  V30 691 P 97.3688 8.791 -6.89233e-14 0
M  V30 692 O 98.7898 9.31196 0.027936 0
M  V30 693 O 97.0088 7.77869 -1.04071 0
M  V30 694 O 97.0458 8.09533 1.41463 0
M  V30 695 C 96.8848 9.03587 2.5397 0
M  V30 696 C 97.4258 8.35226 3.79016 0
M  V30 697 O 96.3708 7.57904 4.1503 0
M  V30 698 C 98.6438 7.45087 3.67298 0
M  V30 699 O 99.3818 7.27796 4.85194 0
M  V30 700 C 97.9758 6.17323 3.12027 0
M  V30 701 O 98.7738 5.04496 3.46627 0
M  V30 702 C 96.6378 6.19961 3.81809 0
M  V30 703 N 95.5948 5.71575 2.93223 0
M  V30 704 C 95.7638 5.77362 1.59168 0
M  V30 705 N 94.7368 5.3123 0.911893 0
M  V30 706 C 93.8518 4.91717 1.89588 0
M  V30 707 C 92.5848 4.3114 1.8076 0
M  V30 708 N 91.9858 3.99821 0.632928 0
M  V30 709 N 92.0198 4.06823 3.02898 0
M  V30 710 C 92.6218 4.35062 4.22711 0
M  V30 711 N 93.7988 4.90805 4.35707 0
M  V30 712 C 94.3738 5.16382 3.14469 0
M  V30 713 H 96.6698 5.58142 4.72986 0
M  V30 714 H 97.8528 6.21428 2.0318 0
M  V30 715 H 99.3358 7.86112 2.9231 0
M  V30 716 H 97.6418 9.11171 4.55987 0
M  V30 717 H 97.4518 9.9573 2.34194 0
M  V30 718 H 95.8218 9.2792 2.67832 0
M  V30 719 H 92.0858 4.09052 5.13359 0
M  V30 720 H 96.6638 6.16575 1.12198 0
M  V30 721 H 91.0558 3.55423 0.632085 0
M  V30 722 H 92.4598 4.20317 -0.256712 0
M  V30 723 H 98.4618 4.67628 4.28704 0
M  V30 724 P 100.319 7.39546 4.75277 0
M  V30 725 O 101.741 7.81777 5.05738 0
M  V30 726 O 99.9594 7.1065 3.32998 0
M  V30 727 O 99.9964 6.04542 5.56673 0
M  V30 728 C 99.8364 6.22772 7.02095 0
M  V30 729 C 100.376 4.97725 7.70406 0
M  V30 730 O 99.3204 4.13256 7.58987 0
M  V30 731 C 101.594 4.28231 7.11815 0
M  V30 732 O 102.332 3.49945 8.01648 0
M  V30 733 C 100.925 3.5063 5.96244 0
M  V30 734 O 101.724 2.36482 5.64681 0
M  V30 735 C 99.5884 3.15122 6.56374 0
M  V30 736 H 99.6204 2.13853 6.99751 0
M  V30 737 H 100.803 4.13501 5.06559 0
M  V30 738 H 102.287 5.03285 6.70911 0
M  V30 739 H 100.593 5.20877 8.75697 0
M  V30 740 H 100.403 7.11046 7.35349 0
M  V30 741 H 98.7734 6.35815 7.26986 0
M  V30 742 H 101.412 1.61644 6.13565 0
M  V30 743 P 103.27 3.65191 7.99657 0
M  V30 744 O 104.692 3.8425 8.48115 0
M  V30 745 O 102.91 4.17805 6.64342 0
M  V30 746 O 102.947 2.07613 7.95143 0
M  V30 747 C 102.787 1.44328 9.27336 0
M  V30 748 C 103.327 0.0220036 9.17197 0
M  V30 749 O 102.271 -0.626867 8.61923 0
M  V30 750 C 104.545 -0.24586 8.30336 0
M  V30 751 O 105.283 -1.39011 8.63583 0
M  V30 752 C 103.876 -0.273849 6.91158 0
M  V30 753 O 104.675 -1.06348 6.02892 0
M  V30 754 C 102.539 -0.897649 7.22545 0
M  V30 755 H 102.571 -1.9841 7.04286 0
M  V30 756 H 103.754 0.739928 6.497 0
M  V30 757 H 105.238 0.60668 8.36503 0
M  V30 758 H 103.544 -0.352479 10.1829 0
M  V30 759 H 103.354 2.00611 10.0304 0
M  V30 760 H 101.724 1.41843 9.55327 0
M  V30 761 H 104.363 -1.95734 6.03555 0
M  V30 762 P 106.221 -1.25109 8.70152 0
M  V30 763 O 107.643 -1.35274 9.21221 0
M  V30 764 O 105.861 -0.0769065 7.84762 0
M  V30 765 O 105.898 -2.55232 7.81161 0
M  V30 766 C 105.738 -3.79939 8.58154 0
M  V30 767 C 106.278 -4.94023 7.72785 0
M  V30 768 O 105.222 -5.18726 6.91205 0
M  V30 769 C 107.496 -4.69597 6.85231 0
M  V30 770 O 108.234 -5.83832 6.51337 0
M  V30 771 C 106.827 -3.96706 5.66633 0
M  V30 772 O 107.626 -4.15414 4.49689 0
M  V30 773 C 105.49 -4.66153 5.59313 0
M  V30 774 H 105.522 -5.47679 4.85214 0
M  V30 775 H 106.705 -2.89008 5.86566 0
M  V30 776 H 108.189 -4.0121 7.36511 0
M  V30 777 H 106.495 -5.80182 8.37584 0
M  V30 778 H 106.305 -3.73517 9.52265 0
M  V30 779 H 104.675 -3.97163 8.80359 0
M  V30 780 H 107.314 -4.90969 4.01921 0
M  V30 781 P 109.171 -5.75688 6.64379 0
M  V30 782 O 110.593 -6.11849 7.01846 0
M  V30 783 O 108.811 -4.30744 6.56026 0
M  V30 784 O 108.848 -6.37042 5.19165 0
M  V30 785 C 108.688 -7.83578 5.16515 0
M  V30 786 C 109.228 -8.33398 3.83019 0
M  V30 787 O 108.172 -8.10074 3.01034 0
M  V30 788 C 110.446 -7.65514 3.2257 0
M  V30 789 O 111.184 -8.4329 2.32297 0
M  V30 790 C 109.777 -6.40075 2.62207 0
M  V30 791 O 110.576 -5.92589 1.53712 0
M  V30 792 C 108.44 -6.9454 2.18503 0
M  V30 793 H 108.472 -7.23063 1.12091 0
M  V30 794 H 109.655 -5.6025 3.37201 0
M  V30 795 H 111.139 -7.35707 4.02681 0
M  V30 796 H 109.445 -9.40912 3.9095 0
M  V30 797 H 109.255 -8.29056 5.99158 0
M  V30 798 H 107.625 -8.10073 5.25882 0
M  V30 799 H 110.264 -6.30324 0.726794 0
M  V30 800 P 112.122 -8.4349 2.47671 0
M  V30 801 O 113.544 -8.94167 2.5964 0
M  V30 802 O 111.762 -7.1704 3.19006 0
M  V30 803 O 111.799 -8.16596 0.923387 0
M  V30 804 C 111.639 -9.38437 0.108857 0
M  V30 805 C 112.179 -9.08175 -1.28353 0
M  V30 806 O 111.123 -8.44229 -1.84713 0
M  V30 807 C 113.397 -8.18386 -1.42505 0
M  V30 808 O 114.135 -8.3501 -2.60497 0
M  V30 809 C 112.728 -6.80225 -1.25468 0
M  V30 810 O 113.527 -5.81621 -1.91066 0
M  V30 811 C 111.391 -7.02416 -1.9168 0
M  V30 812 H 111.423 -6.6888 -2.96621 0
M  V30 813 H 112.606 -6.53617 -0.192223 0
M  V30 814 H 114.09 -8.36622 -0.589963 0
M  V30 815 H 112.396 -10.0291 -1.79807 0
M  V30 816 H 112.206 -10.2138 0.558219 0
M  V30 817 H 110.576 -9.6579 0.0444202 0
M  V30 818 H 113.215 -5.69556 -2.79637 0
M  V30 819 P 115.072 -8.4349 -2.47671 0
M  V30 820 O 116.494 -8.92593 -2.65 0
M  V30 821 O 114.712 -7.7568 -1.19296 0
M  V30 822 O 114.749 -7.36886 -3.63805 0
M  V30 823 C 114.589 -7.95349 -4.982 0
M  V30 824 C 115.129 -6.94612 -5.98974 0
M  V30 825 O 114.073 -6.10347 -6.11815 0
M  V30 826 C 116.347 -6.11426 -5.62335 0
M  V30 827 O 117.085 -5.6162 -6.70584 0
M  V30 828 C 115.678 -5.04409 -4.73308 0
M  V30 829 O 116.477 -3.85992 -4.75183 0
M  V30 830 C 114.341 -4.8728 -5.41006 0
M  V30 831 H 114.373 -4.02333 -6.11157 0
M  V30 832 H 115.556 -5.39466 -3.69543 0
M  V30 833 H 117.04 -6.71916 -5.01943 0
M  V30 834 H 115.346 -7.4649 -6.93477 0
M  V30 835 H 115.156 -8.89416 -5.05237 0
M  V30 836 H 113.526 -8.14876 -5.18409 0
M  V30 837 H 116.165 -3.27957 -5.4317 0
M  V30 838 P 118.023 -5.75688 -6.64379 0
M  V30 839 O 119.445 -6.07627 -7.05504 0
M  V30 840 O 117.663 -5.88047 -5.19722 0
M  V30 841 O 117.7 -4.2322 -7.04443 0
M  V30 842 C 117.54 -3.99743 -8.4911 0
M  V30 843 C 118.08 -2.60516 -8.79425 0
M  V30 844 O 117.024 -1.82684 -8.4467 0
M  V30 845 C 119.298 -2.10343 -8.03628 0
M  V30 846 O 120.036 -1.09919 -8.67766 0
M  V30 847 C 118.629 -1.68446 -6.70876 0
M  V30 848 O 119.428 -0.678137 -6.08433 0
M  V30 849 C 117.292 -1.17436 -7.18567 0
M  V30 850 H 117.324 -0.0804732 -7.31656 0
M  V30 851 H 118.507 -2.54037 -6.02537 0
M  V30 852 H 119.991 -2.93881 -7.85526 0
M  V30 853 H 118.297 -2.53065 -9.86973 0
M  V30 854 H 118.107 -4.75072 -9.05887 0
M  V30 855 H 116.477 -4.05244 -8.76668 0
M  V30 856 H 119.116 0.177647 -6.34251 0
M  V30 857 P 120.973 -1.25109 -8.70152 0
M  V30 858 O 122.395 -1.29744 -9.22016 0
M  V30 859 O 120.613 -2.13714 -7.55141 0
M  V30 860 O 120.65 0.248149 -8.21425 0
M  V30 861 C 120.49 1.22779 -9.30434 0
M  V30 862 C 121.03 2.56293 -8.80664 0
M  V30 863 O 119.974 3.02979 -8.09349 0
M  V30 864 C 122.248 2.57523 -7.89775 0
M  V30 865 O 122.986 3.7668 -7.89438 0
M  V30 866 C 121.579 2.20997 -6.55446 0
M  V30 867 O 122.378 2.71895 -5.48509 0
M  V30 868 C 120.242 2.89693 -6.67988 0
M  V30 869 H 120.274 3.88793 -6.19859 0
M  V30 870 H 121.457 1.12046 -6.44229 0
M  V30 871 H 122.941 1.7746 -8.19711 0
M  V30 872 H 121.247 3.20706 -9.67112 0
M  V30 873 H 121.057 0.901032 -10.1892 0
M  V30 874 H 119.427 1.33049 -9.56592 0
M  V30 875 H 122.066 3.57847 -5.23962 0
M  V30 876 P 123.924 3.65191 -7.99657 0
M  V30 877 O 125.346 3.89332 -8.45794 0
M  V30 878 O 123.564 2.28472 -7.50807 0
M  V30 879 O 123.601 4.64972 -6.77611 0
M  V30 880 C 123.441 6.06319 -7.16352 0
M  V30 881 C 123.981 6.91731 -6.02299 0
M  V30 882 O 122.925 6.92449 -5.17064 0
M  V30 883 C 125.199 6.43627 -5.25174 0
M  V30 884 O 125.937 7.43686 -4.60469 0
M  V30 885 C 124.53 5.40275 -4.31916 0
M  V30 886 O 125.329 5.25279 -3.14438 0
M  V30 887 C 123.193 6.04847 -4.05327 0
M  V30 888 H 123.225 6.62195 -3.11261 0
M  V30 889 H 124.408 4.42556 -4.81383 0
M  V30 890 H 125.892 5.92458 -5.93643 0
M  V30 891 H 124.198 7.92655 -6.402 0
M  V30 892 H 124.008 6.26671 -8.0846 0
M  V30 893 H 122.378 6.29101 -7.32804 0
M  V30 894 H 125.017 5.84315 -2.47318 0
M  V30 895 P 126.875 7.39546 -4.75277 0
M  V30 896 O 128.297 7.84966 -5.01146 0
M  V30 897 O 126.515 5.9812 -5.08098 0
M  V30 898 O 126.552 7.57503 -3.1866 0
M  V30 899 C 126.392 8.97357 -2.74833 0
M  V30 900 C 126.932 9.0745 -1.32694 0
M  V30 901 O 125.877 8.62072 -0.606159 0
M  V30 902 C 128.15 8.25383 -0.938334 0
M  V30 903 O 128.888 8.74577 0.146954 0
M  V30 904 C 127.482 6.8802 -0.712559 0
M  V30 905 O 128.28 6.11791 0.194623 0
M  V30 906 C 126.144 7.27966 -0.139777 0
M  V30 907 N 125.101 6.39368 -0.623421 0
M  V30 908 C 125.163 5.90299 -1.85969 0
M  V30 909 N 124.118 5.10919 -2.1133 0
M  V30 910 C 123.384 5.14646 -1.0015 0
M  V30 911 C 122.078 4.60057 -0.729219 0
M  V30 912 O 121.345 3.93476 -1.47746 0
M  V30 913 N 121.648 4.88302 0.523505 0
M  V30 914 C 122.397 5.63646 1.46207 0
M  V30 915 N 121.8 5.78186 2.69239 0
M  V30 916 N 123.55 6.19285 1.21544 0
M  V30 917 C 124.007 5.93392 -0.0308487 0
M  V30 918 H 126.176 7.25354 0.961601 0
M  V30 919 H 127.359 6.3246 -1.65676 0
M  V30 920 H 128.844 8.19533 -1.78278 0
M  V30 921 H 127.149 10.1294 -1.10029 0
M  V30 922 H 126.959 9.64276 -3.41316 0
M  V30 923 H 125.328 9.25417 -2.76357 0
M  V30 924 H 120.752 4.53993 0.806451 0
M  V30 925 H 125.959 6.11865 -2.57394 0
M  V30 926 H 120.889 5.34046 2.87467 0
M  V30 927 H 122.265 6.33391 3.42578 0
M  V30 928 H 127.969 6.25169 1.0783 0
M  V30 929 P 129.825 8.791 -1.02308e-13 0
M  V30 930 O 131.247 9.31096 0.027933 0
M  V30 931 O 129.465 7.77869 -1.04071 0
M  V30 932 O 129.502 8.09533 1.41463 0
M  V30 933 C 129.342 9.0349 2.53943 0
M  V30 934 C 129.882 8.35226 3.79016 0
M  V30 935 O 128.826 7.57992 4.15078 0
M  V30 936 C 131.1 7.45087 3.67298 0
M  V30 937 O 131.838 7.27796 4.85194 0
M  V30 938 C 130.431 6.17323 3.12027 0
M  V30 939 O 131.23 5.04231 3.47188 0
M  V30 940 C 129.094 6.19961 3.81809 0
M  V30 941 H 129.126 5.58218 4.73051 0
M  V30 942 H 130.309 6.21726 2.02589 0
M  V30 943 H 131.793 7.86112 2.9231 0
M  V30 944 H 130.099 9.11627 4.55076 0
M  V30 945 H 129.909 9.9573 2.34194 0
M  V30 946 H 128.279 9.2792 2.67832 0
M  V30 947 H 130.918 4.67702 4.28772 0
M  V30 948 P 132.776 7.39546 4.75277 0
M  V30 949 O 134.177 7.89013 5.04841 0
M  V30 950 O 132.398 7.16603 3.32298 0
M  V30 951 O 132.453 6.04468 5.56605 0
M  V30 952 C 132.293 6.22772 7.02095 0
M  V30 953 C 132.833 4.97671 7.70322 0
M  V30 954 O 131.777 4.13208 7.58899 0
M  V30 955 C 134.05 4.28231 7.11815 0
M  V30 956 O 134.789 3.49945 8.01648 0
M  V30 957 C 133.383 3.5063 5.96244 0
M  V30 958 O 134.181 2.36443 5.64589 0
M  V30 959 C 132.045 3.15122 6.56374 0
M  V30 960 N 131.002 3.22311 5.55692 0
M  V30 961 C 129.967 2.32244 5.62437 0
M  V30 962 O 130.006 1.43107 6.50341 0
M  V30 963 N 128.955 2.40811 4.73368 0
M  V30 964 C 129.003 3.344 3.77753 0
M  V30 965 C 130.099 4.24712 3.66679 0
M  V30 966 C 131.065 4.15625 4.58307 0
M  V30 967 H 132.077 2.13823 6.99656 0
M  V30 968 H 133.26 4.12931 5.06895 0
M  V30 969 H 134.744 5.02674 6.71494 0
M  V30 970 H 133.05 5.20001 8.76217 0
M  V30 971 H 132.859 7.11046 7.35349 0
M  V30 972 H 131.229 6.35749 7.26911 0
M  V30 973 H 130.147 4.9828 2.86753 0
M  V30 974 H 131.911 4.84464 4.54228 0
M  V30 975 H 133.965 1.65592 6.23485 0
M  V30 976 P 135.726 3.65191 7.99657 0
M  V30 977 O 137.148 3.8425 8.48115 0
M  V30 978 O 135.366 4.17805 6.64342 0
M  V30 979 O 135.403 2.07613 7.95143 0
M  V30 980 C 135.243 1.44328 9.27336 0
M  V30 981 C 135.783 0.0220036 9.17197 0
M  V30 982 O 134.727 -0.626867 8.61923 0
M  V30 983 C 137.001 -0.24586 8.30336 0
M  V30 984 O 137.739 -1.39011 8.63583 0
M  V30 985 C 136.332 -0.273849 6.91158 0
M  V30 986 O 137.131 -1.06348 6.02892 0
M  V30 987 C 134.995 -0.897649 7.22545 0
M  V30 988 H 135.027 -1.9841 7.04286 0
M  V30 989 H 136.21 0.739928 6.497 0
M  V30 990 H 137.694 0.60668 8.36503 0
M  V30 991 H 136 -0.352479 10.1829 0
M  V30 992 H 135.81 2.00611 10.0304 0
M  V30 993 H 134.18 1.41843 9.55327 0
M  V30 994 H 136.819 -1.95734 6.03555 0
M  V30 995 P 138.677 -1.25109 8.70152 0
M  V30 996 O 140.099 -1.35274 9.21221 0
M  V30 997 O 138.317 -0.0769065 7.84762 0
M  V30 998 O 138.354 -2.55232 7.81161 0
M  V30 999 C 138.194 -3.79939 8.58154 0
M  V30 1000 C 138.734 -4.94023 7.72785 0
M  V30 1001 O 137.678 -5.18726 6.91205 0
M  V30 1002 C 139.952 -4.69597 6.85231 0
M  V30 1003 O 140.69 -5.83832 6.51337 0
M  V30 1004 C 139.283 -3.96706 5.66633 0
M  V30 1005 O 140.082 -4.15414 4.49689 0
M  V30 1006 C 137.946 -4.66153 5.59313 0
M  V30 1007 H 137.978 -5.47679 4.85214 0
M  V30 1008 H 139.161 -2.89008 5.86566 0
M  V30 1009 H 140.645 -4.0121 7.36511 0
M  V30 1010 H 138.951 -5.80182 8.37584 0
M  V30 1011 H 138.761 -3.73517 9.52265 0
M  V30 1012 H 137.131 -3.97163 8.80359 0
M  V30 1013 H 139.77 -4.90969 4.01921 0
M  V30 1014 P 141.627 -5.75688 6.64379 0
M  V30 1015 O 143.049 -6.11849 7.01846 0
M  V30 1016 O 141.267 -4.30744 6.56026 0
M  V30 1017 O 141.304 -6.37042 5.19165 0
M  V30 1018 C 141.144 -7.83578 5.16515 0
M  V30 1019 C 141.684 -8.33398 3.83019 0
M  V30 1020 O 140.628 -8.10074 3.01034 0
M  V30 1021 C 142.902 -7.65514 3.2257 0
M  V30 1022 O 143.64 -8.4329 2.32297 0
M  V30 1023 C 142.233 -6.40075 2.62207 0
M  V30 1024 O 143.032 -5.92589 1.53712 0
M  V30 1025 C 140.896 -6.9454 2.18503 0
M  V30 1026 H 140.928 -7.23063 1.12091 0
M  V30 1027 H 142.111 -5.6025 3.37201 0
M  V30 1028 H 143.595 -7.35707 4.02681 0
M  V30 1029 H 141.901 -9.40912 3.9095 0
M  V30 1030 H 141.711 -8.29056 5.99158 0
M  V30 1031 H 140.081 -8.10073 5.25882 0
M  V30 1032 H 142.72 -6.30324 0.726794 0
M  V30 1033 P 144.578 -8.4349 2.47671 0
M  V30 1034 O 146 -8.94167 2.5964 0
M  V30 1035 O 144.218 -7.1704 3.19006 0
M  V30 1036 O 144.255 -8.16596 0.923387 0
M  V30 1037 C 144.095 -9.38437 0.108857 0
M  V30 1038 C 144.635 -9.08175 -1.28353 0
M  V30 1039 O 143.579 -8.44229 -1.84713 0
M  V30 1040 C 145.853 -8.18386 -1.42505 0
M  V30 1041 O 146.591 -8.3501 -2.60497 0
M  V30 1042 C 145.184 -6.80225 -1.25468 0
M  V30 1043 O 145.983 -5.81621 -1.91066 0
M  V30 1044 C 143.847 -7.02416 -1.9168 0
M  V30 1045 H 143.879 -6.6888 -2.96621 0
M  V30 1046 H 145.062 -6.53617 -0.192223 0
M  V30 1047 H 146.546 -8.36622 -0.589963 0
M  V30 1048 H 144.852 -10.0291 -1.79807 0
M  V30 1049 H 144.662 -10.2138 0.558219 0
M  V30 1050 H 143.032 -9.6579 0.0444202 0
M  V30 1051 H 145.671 -5.69556 -2.79637 0
M  V30 1052 P 147.528 -8.4349 -2.47671 0
M  V30 1053 O 148.95 -8.92593 -2.65 0
M  V30 1054 O 147.168 -7.7568 -1.19296 0
M  V30 1055 O 147.205 -7.36886 -3.63805 0
M  V30 1056 C 147.045 -7.95349 -4.982 0
M  V30 1057 C 147.585 -6.94612 -5.98974 0
M  V30 1058 O 146.529 -6.10347 -6.11815 0
M  V30 1059 C 148.803 -6.11426 -5.62335 0
M  V30 1060 O 149.541 -5.6162 -6.70584 0
M  V30 1061 C 148.134 -5.04409 -4.73308 0
M  V30 1062 O 148.933 -3.85992 -4.75183 0
M  V30 1063 C 146.797 -4.8728 -5.41006 0
M  V30 1064 H 146.829 -4.02333 -6.11157 0
M  V30 1065 H 148.012 -5.39466 -3.69543 0
M  V30 1066 H 149.496 -6.71916 -5.01943 0
M  V30 1067 H 147.802 -7.4649 -6.93477 0
M  V30 1068 H 147.612 -8.89416 -5.05237 0
M  V30 1069 H 145.982 -8.14876 -5.18409 0
M  V30 1070 H 148.621 -3.27957 -5.4317 0
M  V30 1071 P 150.479 -5.75688 -6.64379 0
M  V30 1072 O 151.88 -6.14823 -7.06682 0
M  V30 1073 O 150.101 -5.93957 -5.20728 0
M  V30 1074 O 150.156 -4.23169 -7.04357 0
M  V30 1075 C 149.996 -3.99743 -8.4911 0
M  V30 1076 C 150.536 -2.60487 -8.79329 0
M  V30 1077 O 149.48 -1.82663 -8.44573 0
M  V30 1078 C 151.753 -2.10343 -8.03628 0
M  V30 1079 O 152.492 -1.09919 -8.67766 0
M  V30 1080 C 151.086 -1.68446 -6.70876 0
M  V30 1081 O 151.884 -0.678026 -6.08333 0
M  V30 1082 C 149.748 -1.17436 -7.18567 0
M  V30 1083 N 148.705 -1.52699 -6.23988 0
M  V30 1084 C 147.67 -0.643793 -6.05085 0
M  V30 1085 O 147.709 0.459118 -6.64315 0
M  V30 1086 N 146.658 -0.976931 -5.22038 0
M  V30 1087 C 146.706 -2.14429 -4.56662 0
M  V30 1088 C 147.802 -3.04203 -4.71481 0
M  V30 1089 C 148.768 -2.69669 -5.56838 0
M  V30 1090 H 149.78 -0.0804622 -7.31556 0
M  V30 1091 H 150.963 -2.53396 -6.02698 0
M  V30 1092 H 152.447 -2.9313 -7.85914 0
M  V30 1093 H 150.753 -2.52078 -9.87225 0
M  V30 1094 H 150.562 -4.75072 -9.05887 0
M  V30 1095 H 148.932 -4.05202 -8.76577 0
M  V30 1096 H 147.85 -3.97309 -4.15519 0
M  V30 1097 H 149.614 -3.36869 -5.72318 0
M  V30 1098 H 151.668 0.167718 -6.44882 0
M  V30 1099 P 153.43 -1.25109 -8.70152 0
M  V30 1100 O 154.852 -1.29744 -9.22016 0
M  V30 1101 O 153.07 -2.13714 -7.55141 0
M  V30 1102 O 153.107 0.248149 -8.21425 0
M  V30 1103 C 152.947 1.22779 -9.30434 0
M  V30 1104 C 153.487 2.56293 -8.80664 0
M  V30 1105 O 152.431 3.02979 -8.09349 0
M  V30 1106 C 154.705 2.57523 -7.89775 0
M  V30 1107 O 155.443 3.7668 -7.89438 0
M  V30 1108 C 154.036 2.20997 -6.55446 0
M  V30 1109 O 154.835 2.71895 -5.48509 0
M  V30 1110 C 152.699 2.89693 -6.67988 0
M  V30 1111 H 152.731 3.88793 -6.19859 0
M  V30 1112 H 153.914 1.12046 -6.44229 0
M  V30 1113 H 155.398 1.7746 -8.19711 0
M  V30 1114 H 153.704 3.20706 -9.67112 0
M  V30 1115 H 153.514 0.901032 -10.1892 0
M  V30 1116 H 151.884 1.33049 -9.56592 0
M  V30 1117 H 154.523 3.57847 -5.23962 0
M  V30 1118 P 156.38 3.65191 -7.99657 0
M  V30 1119 O 157.781 3.87414 -8.52829 0
M  V30 1120 O 156.002 2.26932 -7.566 0
M  V30 1121 O 156.057 4.64915 -6.77529 0
M  V30 1122 C 155.897 6.06319 -7.16352 0
M  V30 1123 C 156.437 6.91655 -6.02234 0
M  V30 1124 O 155.381 6.92369 -5.17005 0
M  V30 1125 C 157.654 6.43627 -5.25174 0
M  V30 1126 O 158.393 7.43686 -4.60469 0
M  V30 1127 C 156.987 5.40275 -4.31916 0
M  V30 1128 O 157.785 5.25193 -3.14386 0
M  V30 1129 C 155.649 6.04847 -4.05327 0
M  V30 1130 N 154.606 5.04166 -3.98114 0
M  V30 1131 C 153.571 5.2366 -3.09923 0
M  V30 1132 O 153.61 6.23355 -2.34204 0
M  V30 1133 N 152.559 4.34279 -3.05727 0
M  V30 1134 C 152.607 3.26317 -3.84756 0
M  V30 1135 C 153.703 3.02504 -4.72573 0
M  V30 1136 C 154.669 3.94493 -4.76618 0
M  V30 1137 H 155.681 6.62104 -3.11218 0
M  V30 1138 H 156.864 4.42969 -4.80867 0
M  V30 1139 H 158.348 5.93122 -5.93121 0
M  V30 1140 H 156.654 7.93295 -6.39407 0
M  V30 1141 H 156.463 6.26671 -8.0846 0
M  V30 1142 H 154.833 6.29036 -7.32728 0
M  V30 1143 H 153.751 2.12921 -5.34017 0
M  V30 1144 H 155.515 3.80658 -5.44176 0
M  V30 1145 H 157.569 5.93572 -2.52637 0
M  V30 1146 P 159.331 7.39546 -4.75277 0
M  V30 1147 O 160.753 7.84798 -5.01039 0
M  V30 1148 O 158.971 5.9812 -5.08098 0
M  V30 1149 O 159.008 7.57503 -3.1866 0
M  V30 1150 C 158.848 8.97357 -2.74833 0
M  V30 1151 C 159.388 9.07548 -1.32709 0
M  V30 1152 O 158.332 8.62072 -0.606159 0
M  V30 1153 C 160.606 8.25383 -0.938334 0
M  V30 1154 O 161.344 8.74577 0.146954 0
M  V30 1155 C 159.937 6.8802 -0.712559 0
M  V30 1156 O 160.736 6.1189 0.194655 0
M  V30 1157 C 158.6 7.27966 -0.139777 0
M  V30 1158 H 158.632 7.25354 0.961601 0
M  V30 1159 H 159.815 6.32557 -1.65702 0
M  V30 1160 H 161.299 8.19355 -1.79097 0
M  V30 1161 H 159.605 10.1294 -1.10029 0
M  V30 1162 H 159.415 9.64276 -3.41316 0
M  V30 1163 H 157.785 9.25417 -2.76357 0
M  V30 1164 H 160.424 6.25267 1.07847 0
M  V30 1165 P 162.281 8.791 -1.35693e-13 0
M  V30 1166 O 163.703 9.31096 0.027933 0
M  V30 1167 O 161.921 7.77869 -1.04071 0
M  V30 1168 O 161.958 8.09533 1.41463 0
M  V30 1169 C 161.798 9.0349 2.53943 0
M  V30 1170 C 162.338 8.35226 3.79016 0
M  V30 1171 O 161.282 7.57992 4.15078 0
M  V30 1172 C 163.556 7.45087 3.67298 0
M  V30 1173 O 164.294 7.27796 4.85194 0
M  V30 1174 C 162.887 6.17323 3.12027 0
M  V30 1175 O 163.686 5.04231 3.47188 0
M  V30 1176 C 161.55 6.19961 3.81809 0
M  V30 1177 H 161.582 5.58218 4.73051 0
M  V30 1178 H 162.765 6.21726 2.02589 0
M  V30 1179 H 164.249 7.86112 2.9231 0
M  V30 1180 H 162.555 9.11627 4.55076 0
M  V30 1181 H 162.365 9.9573 2.34194 0
M  V30 1182 H 160.735 9.2792 2.67832 0
M  V30 1183 H 163.374 4.67702 4.28772 0
M  V30 1184 P 165.232 7.39546 4.75277 0
M  V30 1185 O 166.654 7.81945 5.05847 0
M  V30 1186 O 164.872 7.1065 3.32998 0
M  V30 1187 O 164.909 6.04542 5.56673 0
M  V30 1188 C 164.749 6.22772 7.02095 0
M  V30 1189 C 165.289 4.97671 7.70322 0
M  V30 1190 O 164.234 4.13256 7.58987 0
M  V30 1191 C 166.507 4.28231 7.11815 0
M  V30 1192 O 167.245 3.49945 8.01648 0
M  V30 1193 C 165.839 3.5063 5.96244 0
M  V30 1194 O 166.637 2.36443 5.64589 0
M  V30 1195 C 164.501 3.15122 6.56374 0
M  V30 1196 N 163.458 3.22311 5.55692 0
M  V30 1197 C 163.52 4.14382 4.59701 0
M  V30 1198 N 162.475 4.04476 3.76958 0
M  V30 1199 C 161.741 3.04892 4.26534 0
M  V30 1200 C 160.435 2.57447 3.88189 0
M  V30 1201 O 159.702 2.9785 2.96543 0
M  V30 1202 N 160.005 1.55228 4.65922 0
M  V30 1203 C 160.754 1.01152 5.73447 0
M  V30 1204 N 160.157 -0.0472117 6.37783 0
M  V30 1205 N 161.907 1.467 6.13813 0
M  V30 1206 C 162.364 2.4931 5.38487 0
M  V30 1207 H 164.533 2.13853 6.99751 0
M  V30 1208 H 165.716 4.13438 5.06482 0
M  V30 1209 H 167.201 5.02614 6.71414 0
M  V30 1210 H 165.506 5.20877 8.75697 0
M  V30 1211 H 165.316 7.11046 7.35349 0
M  V30 1212 H 163.685 6.35815 7.26986 0
M  V30 1213 H 159.109 1.15238 4.46468 0
M  V30 1214 H 164.316 4.88312 4.49647 0
M  V30 1215 H 159.246 -0.396382 6.05203 0
M  V30 1216 H 160.622 -0.484997 7.18465 0
M  V30 1217 H 166.326 1.61619 6.13468 0
M  V30 1218 P 168.182 3.65191 7.99657 0
M  V30 1219 O 169.603 3.84292 8.48206 0
M  V30 1220 O 167.822 4.17805 6.64342 0
M  V30 1221 O 167.859 2.07613 7.95143 0
M  V30 1222 C 167.698 1.44344 9.27435 0
M  V30 1223 C 168.239 0.0220036 9.17197 0
M  V30 1224 O 167.184 -0.626794 8.61824 0
M  V30 1225 C 169.457 -0.24586 8.30336 0
M  V30 1226 O 170.195 -1.39011 8.63583 0
M  V30 1227 C 168.789 -0.273849 6.91158 0
M  V30 1228 O 169.587 -1.05728 6.029 0
M  V30 1229 C 167.451 -0.897649 7.22545 0
M  V30 1230 N 166.408 -0.292839 6.41732 0
M  V30 1231 C 166.577 0.950603 5.91308 0
M  V30 1232 N 165.55 1.37732 5.21105 0
M  V30 1233 C 164.665 0.318109 5.26039 0
M  V30 1234 C 163.398 0.146766 4.6727 0
M  V30 1235 N 162.833 -1.06525 4.95887 0
M  V30 1236 C 163.435 -2.0378 5.71347 0
M  V30 1237 N 164.612 -1.92445 6.27451 0
M  V30 1238 C 165.187 -0.715382 6.00353 0
M  V30 1239 H 168.666 0.733318 6.49674 0
M  V30 1240 H 170.149 0.60668 8.36503 0
M  V30 1241 H 168.455 -0.362662 10.1825 0
M  V30 1242 H 168.265 2.00611 10.0304 0
M  V30 1243 H 166.635 1.41843 9.55327 0
M  V30 1244 H 167.477 1.54076 6.07465 0
M  V30 1245 H 169.275 -1.95704 6.0346 0
M  V30 1246 P 171.133 -1.25109 8.70152 0
M  V30 1247 O 172.555 -1.35274 9.21221 0
M  V30 1248 O 170.773 -0.0769065 7.84762 0
M  V30 1249 O 170.81 -2.55232 7.81161 0
M  V30 1250 C 170.65 -3.79939 8.58154 0
M  V30 1251 C 171.19 -4.94023 7.72785 0
M  V30 1252 O 170.134 -5.18726 6.91205 0
M  V30 1253 C 172.408 -4.69597 6.85231 0
M  V30 1254 O 173.146 -5.83832 6.51337 0
M  V30 1255 C 171.739 -3.96706 5.66633 0
M  V30 1256 O 172.538 -4.15414 4.49689 0
M  V30 1257 C 170.402 -4.66153 5.59313 0
M  V30 1258 H 170.434 -5.47679 4.85214 0
M  V30 1259 H 171.617 -2.89008 5.86566 0
M  V30 1260 H 173.101 -4.0121 7.36511 0
M  V30 1261 H 171.407 -5.80182 8.37584 0
M  V30 1262 H 171.217 -3.73517 9.52265 0
M  V30 1263 H 169.587 -3.97163 8.80359 0
M  V30 1264 H 172.226 -4.90969 4.01921 0
M  V30 1265 P 174.084 -5.75688 6.64379 0
M  V30 1266 O 175.506 -6.11849 7.01846 0
M  V30 1267 O 173.724 -4.30744 6.56026 0
M  V30 1268 O 173.761 -6.37042 5.19165 0
M  V30 1269 C 173.601 -7.83578 5.16515 0
M  V30 1270 C 174.141 -8.33398 3.83019 0
M  V30 1271 O 173.085 -8.10074 3.01034 0
M  V30 1272 C 175.359 -7.65514 3.2257 0
M  V30 1273 O 176.097 -8.4329 2.32297 0
M  V30 1274 C 174.69 -6.40075 2.62207 0
M  V30 1275 O 175.489 -5.92589 1.53712 0
M  V30 1276 C 173.353 -6.9454 2.18503 0
M  V30 1277 H 173.385 -7.23063 1.12091 0
M  V30 1278 H 174.568 -5.6025 3.37201 0
M  V30 1279 H 176.052 -7.35707 4.02681 0
M  V30 1280 H 174.358 -9.40912 3.9095 0
M  V30 1281 H 174.168 -8.29056 5.99158 0
M  V30 1282 H 172.538 -8.10073 5.25882 0
M  V30 1283 H 175.177 -6.30324 0.726794 0
M  V30 1284 P 177.034 -8.4349 2.47671 0
M  V30 1285 O 178.456 -8.94167 2.5964 0
M  V30 1286 O 176.674 -7.1704 3.19006 0
M  V30 1287 O 176.711 -8.16596 0.923387 0
M  V30 1288 C 176.551 -9.38437 0.108857 0
M  V30 1289 C 177.091 -9.08175 -1.28353 0
M  V30 1290 O 176.035 -8.44229 -1.84713 0
M  V30 1291 C 178.309 -8.18386 -1.42505 0
M  V30 1292 O 179.047 -8.3501 -2.60497 0
M  V30 1293 C 177.64 -6.80225 -1.25468 0
M  V30 1294 O 178.439 -5.81621 -1.91066 0
M  V30 1295 C 176.303 -7.02416 -1.9168 0
M  V30 1296 H 176.335 -6.6888 -2.96621 0
M  V30 1297 H 177.518 -6.53617 -0.192223 0
M  V30 1298 H 179.002 -8.36622 -0.589963 0
M  V30 1299 H 177.308 -10.0291 -1.79807 0
M  V30 1300 H 177.118 -10.2138 0.558219 0
M  V30 1301 H 175.488 -9.6579 0.0444202 0
M  V30 1302 H 178.127 -5.69556 -2.79637 0
M  V30 1303 P 179.985 -8.4349 -2.47671 0
M  V30 1304 O 181.407 -8.92785 -2.65057 0
M  V30 1305 O 179.625 -7.7568 -1.19296 0
M  V30 1306 O 179.662 -7.36886 -3.63805 0
M  V30 1307 C 179.502 -7.95349 -4.982 0
M  V30 1308 C 180.042 -6.94537 -5.98908 0
M  V30 1309 O 178.987 -6.10347 -6.11815 0
M  V30 1310 C 181.26 -6.11426 -5.62335 0
M  V30 1311 O 181.998 -5.6162 -6.70584 0
M  V30 1312 C 180.592 -5.04409 -4.73308 0
M  V30 1313 O 181.39 -3.85929 -4.75106 0
M  V30 1314 C 179.254 -4.8728 -5.41006 0
M  V30 1315 N 178.211 -4.65812 -4.42377 0
M  V30 1316 C 178.273 -5.27109 -3.24335 0
M  V30 1317 N 177.228 -4.94293 -2.47735 0
M  V30 1318 C 176.494 -4.1271 -3.23359 0
M  V30 1319 C 175.188 -3.56384 -2.99934 0
M  V30 1320 O 174.455 -3.69331 -2.00616 0
M  V30 1321 N 174.758 -2.80206 -4.03316 0
M  V30 1322 C 175.507 -2.58614 -5.2172 0
M  V30 1323 N 174.91 -1.75154 -6.13278 0
M  V30 1324 N 176.66 -3.13689 -5.47619 0
M  V30 1325 C 177.117 -3.90921 -4.46436 0
M  V30 1326 H 179.286 -4.02333 -6.11157 0
M  V30 1327 H 180.469 -5.39383 -3.69487 0
M  V30 1328 H 181.954 -6.71414 -5.02615 0
M  V30 1329 H 180.259 -7.4649 -6.93477 0
M  V30 1330 H 180.069 -8.89416 -5.05237 0
M  V30 1331 H 178.438 -8.14876 -5.18409 0
M  V30 1332 H 173.862 -2.36355 -3.95916 0
M  V30 1333 H 179.069 -5.95212 -2.93859 0
M  V30 1334 H 173.999 -1.32473 -5.91856 0
M  V30 1335 H 175.375 -1.5588 -7.03026 0
M  V30 1336 H 181.079 -3.27906 -5.43085 0
M  V30 1337 P 182.935 -5.75688 -6.64379 0
M  V30 1338 O 184.357 -6.07627 -7.05504 0
M  V30 1339 O 182.575 -5.88047 -5.19722 0
M  V30 1340 O 182.612 -4.2322 -7.04443 0
M  V30 1341 C 182.452 -3.99743 -8.4911 0
M  V30 1342 C 182.992 -2.60516 -8.79425 0
M  V30 1343 O 181.936 -1.82684 -8.4467 0
M  V30 1344 C 184.21 -2.10343 -8.03628 0
M  V30 1345 O 184.948 -1.09919 -8.67766 0
M  V30 1346 C 183.541 -1.68446 -6.70876 0
M  V30 1347 O 184.34 -0.678137 -6.08433 0
M  V30 1348 C 182.204 -1.17436 -7.18567 0
M  V30 1349 H 182.236 -0.0804732 -7.31656 0
M  V30 1350 H 183.419 -2.54037 -6.02537 0
M  V30 1351 H 184.903 -2.93881 -7.85526 0
M  V30 1352 H 183.209 -2.53065 -9.86973 0
M  V30 1353 H 183.019 -4.75072 -9.05887 0
M  V30 1354 H 181.389 -4.05244 -8.76668 0
M  V30 1355 H 184.028 0.177647 -6.34251 0
M  V30 1356 P 185.886 -1.25109 -8.70152 0
M  V30 1357 O 187.308 -1.29744 -9.22016 0
M  V30 1358 O 185.526 -2.13714 -7.55141 0
M  V30 1359 O 185.563 0.248149 -8.21425 0
M  V30 1360 C 185.403 1.22779 -9.30434 0
M  V30 1361 C 185.943 2.56293 -8.80664 0
M  V30 1362 O 184.887 3.02979 -8.09349 0
M  V30 1363 C 187.161 2.57523 -7.89775 0
M  V30 1364 O 187.899 3.7668 -7.89438 0
M  V30 1365 C 186.492 2.20997 -6.55446 0
M  V30 1366 O 187.291 2.71895 -5.48509 0
M  V30 1367 C 185.155 2.89693 -6.67988 0
M  V30 1368 H 185.187 3.88793 -6.19859 0
M  V30 1369 H 186.37 1.12046 -6.44229 0
M  V30 1370 H 187.854 1.7746 -8.19711 0
M  V30 1371 H 186.16 3.20706 -9.67112 0
M  V30 1372 H 185.97 0.901032 -10.1892 0
M  V30 1373 H 184.34 1.33049 -9.56592 0
M  V30 1374 H 186.979 3.57847 -5.23962 0
M  V30 1375 P 188.836 3.65191 -7.99657 0
M  V30 1376 O 190.258 3.89332 -8.45794 0
M  V30 1377 O 188.476 2.28472 -7.50807 0
M  V30 1378 O 188.513 4.64972 -6.77611 0
M  V30 1379 C 188.353 6.06319 -7.16352 0
M  V30 1380 C 188.893 6.91731 -6.02299 0
M  V30 1381 O 187.837 6.92449 -5.17064 0
M  V30 1382 C 190.111 6.43627 -5.25174 0
M  V30 1383 O 190.849 7.43686 -4.60469 0
M  V30 1384 C 189.442 5.40275 -4.31916 0
M  V30 1385 O 190.241 5.25279 -3.14438 0
M  V30 1386 C 188.105 6.04847 -4.05327 0
M  V30 1387 H 188.137 6.62195 -3.11261 0
M  V30 1388 H 189.32 4.42556 -4.81383 0
M  V30 1389 H 190.804 5.92458 -5.93643 0
M  V30 1390 H 189.11 7.92655 -6.402 0
M  V30 1391 H 188.92 6.26671 -8.0846 0
M  V30 1392 H 187.29 6.29101 -7.32804 0
M  V30 1393 H 189.929 5.84315 -2.47318 0
M  V30 1394 P 191.787 7.39546 -4.75277 0
M  V30 1395 O 193.209 7.84798 -5.01039 0
M  V30 1396 O 191.427 5.9812 -5.08098 0
M  V30 1397 O 191.464 7.57503 -3.1866 0
M  V30 1398 C 191.304 8.97357 -2.74833 0
M  V30 1399 C 191.844 9.07548 -1.32709 0
M  V30 1400 O 190.788 8.62072 -0.606159 0
M  V30 1401 C 193.062 8.25383 -0.938334 0
M  V30 1402 O 193.8 8.74577 0.146954 0
M  V30 1403 C 192.393 6.8802 -0.712559 0
M  V30 1404 O 193.192 6.1189 0.194655 0
M  V30 1405 C 191.056 7.27966 -0.139777 0
M  V30 1406 H 191.088 7.25354 0.961601 0
M  V30 1407 H 192.271 6.32557 -1.65702 0
M  V30 1408 H 193.755 8.19355 -1.79097 0
M  V30 1409 H 192.061 10.1294 -1.10029 0
M  V30 1410 H 191.871 9.64276 -3.41316 0
M  V30 1411 H 190.241 9.25417 -2.76357 0
M  V30 1412 H 192.88 6.25267 1.07847 0
M  V30 1413 P 194.738 8.791 1.12009e-13 0
M  V30 1414 O 196.16 9.31096 0.027933 0
M  V30 1415 O 194.378 7.77869 -1.04071 0
M  V30 1416 O 194.415 8.09533 1.41463 0
M  V30 1417 C 194.255 9.0349 2.53943 0
M  V30 1418 C 194.795 8.35226 3.79016 0
M  V30 1419 O 193.739 7.57992 4.15078 0
M  V30 1420 C 196.013 7.45087 3.67298 0
M  V30 1421 O 196.751 7.27796 4.85194 0
M  V30 1422 C 195.344 6.17323 3.12027 0
M  V30 1423 O 196.143 5.04231 3.47188 0
M  V30 1424 C 194.007 6.19961 3.81809 0
M  V30 1425 H 194.039 5.58218 4.73051 0
M  V30 1426 H 195.222 6.21726 2.02589 0
M  V30 1427 H 196.706 7.86112 2.9231 0
M  V30 1428 H 195.012 9.11627 4.55076 0
M  V30 1429 H 194.822 9.9573 2.34194 0
M  V30 1430 H 193.192 9.2792 2.67832 0
M  V30 1431 H 195.831 4.67702 4.28772 0
M  V30 1432 P 197.688 7.39546 4.75277 0
M  V30 1433 O 199.11 7.81777 5.05738 0
M  V30 1434 O 197.328 7.1065 3.32998 0
M  V30 1435 O 197.365 6.04542 5.56673 0
M  V30 1436 C 197.205 6.22772 7.02095 0
M  V30 1437 C 197.745 4.97725 7.70406 0
M  V30 1438 O 196.689 4.13256 7.58987 0
M  V30 1439 C 198.963 4.28231 7.11815 0
M  V30 1440 O 199.701 3.49945 8.01648 0
M  V30 1441 C 198.294 3.5063 5.96244 0
M  V30 1442 O 199.093 2.36482 5.64681 0
M  V30 1443 C 196.957 3.15122 6.56374 0
M  V30 1444 H 196.989 2.13853 6.99751 0
M  V30 1445 H 198.172 4.13501 5.06559 0
M  V30 1446 H 199.656 5.03285 6.70911 0
M  V30 1447 H 197.962 5.20877 8.75697 0
M  V30 1448 H 197.772 7.11046 7.35349 0
M  V30 1449 H 196.142 6.35815 7.26986 0
M  V30 1450 H 198.781 1.61644 6.13565 0
M  V30 1451 P 200.639 3.65191 7.99657 0
M  V30 1452 O 202.061 3.8425 8.48115 0
M  V30 1453 O 200.279 4.17805 6.64342 0
M  V30 1454 O 200.316 2.07613 7.95143 0
M  V30 1455 C 200.156 1.44328 9.27336 0
M  V30 1456 C 200.696 0.0220036 9.17197 0
M  V30 1457 O 199.64 -0.626867 8.61923 0
M  V30 1458 C 201.914 -0.24586 8.30336 0
M  V30 1459 O 202.652 -1.39011 8.63583 0
M  V30 1460 C 201.245 -0.273849 6.91158 0
M  V30 1461 O 202.044 -1.06348 6.02892 0
M  V30 1462 C 199.908 -0.897649 7.22545 0
M  V30 1463 H 199.94 -1.9841 7.04286 0
M  V30 1464 H 201.123 0.739928 6.497 0
M  V30 1465 H 202.607 0.60668 8.36503 0
M  V30 1466 H 200.913 -0.352479 10.1829 0
M  V30 1467 H 200.723 2.00611 10.0304 0
M  V30 1468 H 199.093 1.41843 9.55327 0
M  V30 1469 H 201.732 -1.95734 6.03555 0
M  V30 1470 P 203.589 -1.25109 8.70152 0
M  V30 1471 O 204.99 -1.31452 9.27431 0
M  V30 1472 O 203.211 -0.0458113 7.89887 0
M  V30 1473 O 203.266 -2.55201 7.81066 0
M  V30 1474 C 203.106 -3.79939 8.58154 0
M  V30 1475 C 203.646 -4.93969 7.72701 0
M  V30 1476 O 202.59 -5.18666 6.91125 0
M  V30 1477 C 204.863 -4.69597 6.85231 0
M  V30 1478 O 205.602 -5.83832 6.51337 0
M  V30 1479 C 204.196 -3.96706 5.66633 0
M  V30 1480 O 204.994 -4.15346 4.49615 0
M  V30 1481 C 202.858 -4.66153 5.59313 0
M  V30 1482 N 201.815 -3.71582 5.24027 0
M  V30 1483 C 200.78 -4.15133 4.44901 0
M  V30 1484 O 200.819 -5.32122 4.00336 0
M  V30 1485 N 199.768 -3.30554 4.15693 0
M  V30 1486 C 199.816 -2.04701 4.61105 0
M  V30 1487 N 198.806 -1.23621 4.31855 0
M  V30 1488 C 200.912 -1.57111 5.38655 0
M  V30 1489 C 201.878 -2.44234 5.68454 0
M  V30 1490 H 202.89 -5.47604 4.85148 0
M  V30 1491 H 204.073 -2.8955 5.86187 0
M  V30 1492 H 205.557 -4.01995 7.36197 0
M  V30 1493 H 203.863 -5.81019 8.37003 0
M  V30 1494 H 203.672 -3.73517 9.52265 0
M  V30 1495 H 202.042 -3.97122 8.80267 0
M  V30 1496 H 200.96 -0.538464 5.72373 0
M  V30 1497 H 202.724 -2.11927 6.29377 0
M  V30 1498 H 198.016 -1.58199 3.7543 0
M  V30 1499 H 198.811 -0.264601 4.65348 0
M  V30 1500 H 204.778 -4.98352 4.09633 0
M  V30 1501 P 206.54 -5.75688 6.64379 0
M  V30 1502 O 207.962 -6.11849 7.01846 0
M  V30 1503 O 206.18 -4.30744 6.56026 0
M  V30 1504 O 206.217 -6.37042 5.19165 0
M  V30 1505 C 206.057 -7.83578 5.16515 0
M  V30 1506 C 206.597 -8.33398 3.83019 0
M  V30 1507 O 205.541 -8.10074 3.01034 0
M  V30 1508 C 207.815 -7.65514 3.2257 0
M  V30 1509 O 208.553 -8.4329 2.32297 0
M  V30 1510 C 207.146 -6.40075 2.62207 0
M  V30 1511 O 207.945 -5.92589 1.53712 0
M  V30 1512 C 205.809 -6.9454 2.18503 0
M  V30 1513 H 205.841 -7.23063 1.12091 0
M  V30 1514 H 207.024 -5.6025 3.37201 0
M  V30 1515 H 208.508 -7.35707 4.02681 0
M  V30 1516 H 206.814 -9.40912 3.9095 0
M  V30 1517 H 206.624 -8.29056 5.99158 0
M  V30 1518 H 204.994 -8.10073 5.25882 0
M  V30 1519 H 207.633 -6.30324 0.726794 0
M  V30 1520 P 209.49 -8.4349 2.47671 0
M  V30 1521 O 210.912 -8.94167 2.5964 0
M  V30 1522 O 209.13 -7.1704 3.19006 0
M  V30 1523 O 209.167 -8.16596 0.923387 0
M  V30 1524 C 209.007 -9.38437 0.108857 0
M  V30 1525 C 209.547 -9.08175 -1.28353 0
M  V30 1526 O 208.491 -8.44229 -1.84713 0
M  V30 1527 C 210.765 -8.18386 -1.42505 0
M  V30 1528 O 211.503 -8.3501 -2.60497 0
M  V30 1529 C 210.096 -6.80225 -1.25468 0
M  V30 1530 O 210.895 -5.81621 -1.91066 0
M  V30 1531 C 208.759 -7.02416 -1.9168 0
M  V30 1532 H 208.791 -6.6888 -2.96621 0
M  V30 1533 H 209.974 -6.53617 -0.192223 0
M  V30 1534 H 211.458 -8.36622 -0.589963 0
M  V30 1535 H 209.764 -10.0291 -1.79807 0
M  V30 1536 H 209.574 -10.2138 0.558219 0
M  V30 1537 H 207.944 -9.6579 0.0444202 0
M  V30 1538 H 210.583 -5.69556 -2.79637 0
M  V30 1539 P 212.441 -8.4349 -2.47671 0
M  V30 1540 O 213.862 -8.92689 -2.65029 0
M  V30 1541 O 212.081 -7.7568 -1.19296 0
M  V30 1542 O 212.118 -7.36886 -3.63805 0
M  V30 1543 C 211.957 -7.95433 -4.98253 0
M  V30 1544 C 212.498 -6.94612 -5.98974 0
M  V30 1545 O 211.443 -6.10277 -6.11744 0
M  V30 1546 C 213.716 -6.11426 -5.62335 0
M  V30 1547 O 214.454 -5.6162 -6.70584 0
M  V30 1548 C 213.048 -5.04409 -4.73308 0
M  V30 1549 O 213.846 -3.86404 -4.74719 0
M  V30 1550 C 211.71 -4.8728 -5.41006 0
M  V30 1551 N 210.667 -4.65812 -4.42377 0
M  V30 1552 C 210.836 -5.09132 -3.15382 0
M  V30 1553 N 209.809 -4.84021 -2.3716 0
M  V30 1554 C 208.924 -4.18386 -3.20441 0
M  V30 1555 C 207.657 -3.6275 -2.94905 0
M  V30 1556 N 207.058 -3.65794 -1.73372 0
M  V30 1557 N 207.092 -3.05008 -4.05243 0
M  V30 1558 C 207.694 -2.98348 -5.28159 0
M  V30 1559 N 208.871 -3.48171 -5.56333 0
M  V30 1560 C 209.446 -4.06869 -4.47212 0
M  V30 1561 H 211.742 -4.02278 -6.11074 0
M  V30 1562 H 212.925 -5.39013 -3.70026 0
M  V30 1563 H 214.408 -6.71916 -5.01943 0
M  V30 1564 H 212.714 -7.45796 -6.94223 0
M  V30 1565 H 212.524 -8.89416 -5.05237 0
M  V30 1566 H 210.894 -8.14876 -5.18409 0
M  V30 1567 H 207.158 -2.47853 -6.07807 0
M  V30 1568 H 211.736 -5.59989 -2.81362 0
M  V30 1569 H 206.128 -3.23218 -1.60782 0
M  V30 1570 H 207.532 -4.10523 -0.937856 0
M  V30 1571 H 213.534 -3.27906 -5.43085 0
M  V30 1572 P 215.392 -5.75688 -6.64379 0
M  V30 1573 O 216.814 -6.07627 -7.05504 0
M  V30 1574 O 215.032 -5.88047 -5.19722 0
M  V30 1575 O 215.069 -4.2322 -7.04443 0
M  V30 1576 C 214.909 -3.99743 -8.4911 0
M  V30 1577 C 215.449 -2.60516 -8.79425 0
M  V30 1578 O 214.393 -1.82684 -8.4467 0
M  V30 1579 C 216.667 -2.10343 -8.03628 0
M  V30 1580 O 217.405 -1.09919 -8.67766 0
M  V30 1581 C 215.998 -1.68446 -6.70876 0
M  V30 1582 O 216.797 -0.678137 -6.08433 0
M  V30 1583 C 214.661 -1.17436 -7.18567 0
M  V30 1584 H 214.693 -0.0804732 -7.31656 0
M  V30 1585 H 215.876 -2.54037 -6.02537 0
M  V30 1586 H 217.36 -2.93881 -7.85526 0
M  V30 1587 H 215.666 -2.53065 -9.86973 0
M  V30 1588 H 215.476 -4.75072 -9.05887 0
M  V30 1589 H 213.846 -4.05244 -8.76668 0
M  V30 1590 H 216.485 0.177647 -6.34251 0
M  V30 1591 P 218.342 -1.25109 -8.70152 0
M  V30 1592 O 219.764 -1.29772 -9.22214 0
M  V30 1593 O 217.982 -2.13714 -7.55141 0
M  V30 1594 O 218.019 0.248149 -8.21425 0
M  V30 1595 C 217.859 1.22779 -9.30434 0
M  V30 1596 C 218.399 2.56265 -8.80568 0
M  V30 1597 O 217.344 3.02979 -8.09349 0
M  V30 1598 C 219.617 2.57523 -7.89775 0
M  V30 1599 O 220.355 3.7668 -7.89438 0
M  V30 1600 C 218.949 2.20997 -6.55446 0
M  V30 1601 O 219.747 2.71851 -5.48419 0
M  V30 1602 C 217.611 2.89693 -6.67988 0
M  V30 1603 N 216.568 2.08895 -6.07487 0
M  V30 1604 C 216.63 0.760559 -6.14209 0
M  V30 1605 N 215.585 0.200108 -5.52538 0
M  V30 1606 C 214.851 1.22692 -5.09742 0
M  V30 1607 C 213.545 1.24782 -4.48775 0
M  V30 1608 O 212.812 0.290617 -4.19294 0
M  V30 1609 N 213.115 2.50468 -4.22428 0
M  V30 1610 C 213.864 3.67142 -4.51974 0
M  V30 1611 N 213.267 4.85096 -4.14091 0
M  V30 1612 N 215.017 3.67821 -5.12831 0
M  V30 1613 C 215.474 2.43698 -5.4105 0
M  V30 1614 H 217.643 3.88793 -6.19859 0
M  V30 1615 H 218.826 1.12029 -6.4413 0
M  V30 1616 H 220.311 1.78279 -8.19533 0
M  V30 1617 H 218.616 3.20706 -9.67112 0
M  V30 1618 H 218.426 0.901032 -10.1892 0
M  V30 1619 H 216.795 1.33049 -9.56592 0
M  V30 1620 H 212.219 2.61953 -3.79465 0
M  V30 1621 H 217.426 0.200439 -6.63497 0
M  V30 1622 H 212.356 4.8334 -3.66367 0
M  V30 1623 H 213.732 5.7474 -4.33841 0
M  V30 1624 H 219.436 3.5779 -5.23879 0
M  V30 1625 P 221.293 3.65191 -7.99657 0
M  V30 1626 O 222.694 3.87414 -8.52829 0
M  V30 1627 O 220.915 2.26932 -7.566 0
M  V30 1628 O 220.97 4.64915 -6.77529 0
M  V30 1629 C 220.81 6.06319 -7.16352 0
M  V30 1630 C 221.35 6.91655 -6.02234 0
M  V30 1631 O 220.294 6.92369 -5.17005 0
M  V30 1632 C 222.567 6.43627 -5.25174 0
M  V30 1633 O 223.306 7.43686 -4.60469 0
M  V30 1634 C 221.9 5.40275 -4.31916 0
M  V30 1635 O 222.698 5.25193 -3.14386 0
M  V30 1636 C 220.562 6.04847 -4.05327 0
M  V30 1637 N 219.519 5.04166 -3.98114 0
M  V30 1638 C 218.484 5.2366 -3.09923 0
M  V30 1639 O 218.523 6.23355 -2.34204 0
M  V30 1640 N 217.472 4.34279 -3.05727 0
M  V30 1641 C 217.52 3.26317 -3.84756 0
M  V30 1642 C 218.616 3.02504 -4.72573 0
M  V30 1643 C 219.582 3.94493 -4.76618 0
M  V30 1644 H 220.594 6.62104 -3.11218 0
M  V30 1645 H 221.777 4.42969 -4.80867 0
M  V30 1646 H 223.261 5.93122 -5.93121 0
M  V30 1647 H 221.567 7.93295 -6.39407 0
M  V30 1648 H 221.376 6.26671 -8.0846 0
M  V30 1649 H 219.746 6.29036 -7.32728 0
M  V30 1650 H 218.664 2.12921 -5.34017 0
M  V30 1651 H 220.428 3.80658 -5.44176 0
M  V30 1652 H 222.482 5.93572 -2.52637 0
M  V30 1653 P 224.243 7.39546 -4.75277 0
M  V30 1654 O 225.665 7.84798 -5.01039 0
M  V30 1655 O 223.883 5.9812 -5.08098 0
M  V30 1656 O 223.92 7.57503 -3.1866 0
M  V30 1657 C 223.76 8.97357 -2.74833 0
M  V30 1658 C 224.3 9.07548 -1.32709 0
M  V30 1659 O 223.244 8.62072 -0.606159 0
M  V30 1660 C 225.518 8.25383 -0.938334 0
M  V30 1661 O 226.256 8.74577 0.146954 0
M  V30 1662 C 224.849 6.8802 -0.712559 0
M  V30 1663 O 225.648 6.1189 0.194655 0
M  V30 1664 C 223.512 7.27966 -0.139777 0
M  V30 1665 H 223.544 7.25354 0.961601 0
M  V30 1666 H 224.727 6.32557 -1.65702 0
M  V30 1667 H 226.211 8.19355 -1.79097 0
M  V30 1668 H 224.517 10.1294 -1.10029 0
M  V30 1669 H 224.327 9.64276 -3.41316 0
M  V30 1670 H 222.697 9.25417 -2.76357 0
M  V30 1671 H 225.336 6.25267 1.07847 0
M  V30 1672 P 227.194 8.791 4.22174e-13 0
M  V30 1673 O 228.615 9.31196 0.027936 0
M  V30 1674 O 226.834 7.77869 -1.04071 0
M  V30 1675 O 226.871 8.09533 1.41463 0
M  V30 1676 C 226.71 9.03587 2.5397 0
M  V30 1677 C 227.251 8.35226 3.79016 0
M  V30 1678 O 226.196 7.57904 4.1503 0
M  V30 1679 C 228.469 7.45087 3.67298 0
M  V30 1680 O 229.207 7.27796 4.85194 0
M  V30 1681 C 227.801 6.17323 3.12027 0
M  V30 1682 O 228.599 5.04496 3.46627 0
M  V30 1683 C 226.463 6.19961 3.81809 0
M  V30 1684 N 225.42 5.71575 2.93223 0
M  V30 1685 C 225.589 5.77362 1.59168 0
M  V30 1686 N 224.562 5.3123 0.911893 0
M  V30 1687 C 223.677 4.91717 1.89588 0
M  V30 1688 C 222.41 4.3114 1.8076 0
M  V30 1689 N 221.845 4.06823 3.02898 0
M  V30 1690 C 222.447 4.35062 4.22711 0
M  V30 1691 N 223.624 4.90805 4.35707 0
M  V30 1692 C 224.199 5.16382 3.14469 0
M  V30 1693 H 227.678 6.21428 2.0318 0
M  V30 1694 H 229.161 7.86112 2.9231 0
M  V30 1695 H 227.467 9.11171 4.55987 0
M  V30 1696 H 227.277 9.9573 2.34194 0
M  V30 1697 H 225.647 9.2792 2.67832 0
M  V30 1698 H 226.489 6.16575 1.12198 0
M  V30 1699 H 228.287 4.67628 4.28704 0
M  V30 1700 P 230.144 7.39546 4.75277 0
M  V30 1701 O 231.566 7.81777 5.05738 0
M  V30 1702 O 229.784 7.1065 3.32998 0
M  V30 1703 O 229.821 6.04542 5.56673 0
M  V30 1704 C 229.661 6.22772 7.02095 0
M  V30 1705 C 230.201 4.97725 7.70406 0
M  V30 1706 O 229.145 4.13256 7.58987 0
M  V30 1707 C 231.419 4.28231 7.11815 0
M  V30 1708 O 232.157 3.49945 8.01648 0
M  V30 1709 C 230.75 3.5063 5.96244 0
M  V30 1710 O 231.549 2.36482 5.64681 0
M  V30 1711 C 229.413 3.15122 6.56374 0
M  V30 1712 H 229.445 2.13853 6.99751 0
M  V30 1713 H 230.628 4.13501 5.06559 0
M  V30 1714 H 232.112 5.03285 6.70911 0
M  V30 1715 H 230.418 5.20877 8.75697 0
M  V30 1716 H 230.228 7.11046 7.35349 0
M  V30 1717 H 228.598 6.35815 7.26986 0
M  V30 1718 H 231.237 1.61644 6.13565 0
M  V30 1719 P 233.095 3.65191 7.99657 0
M  V30 1720 O 234.517 3.8425 8.48115 0
M  V30 1721 O 232.735 4.17805 6.64342 0
M  V30 1722 O 232.772 2.07613 7.95143 0
M  V30 1723 C 232.612 1.44328 9.27336 0
M  V30 1724 C 233.152 0.0220036 9.17197 0
M  V30 1725 O 232.096 -0.626867 8.61923 0
M  V30 1726 C 234.37 -0.24586 8.30336 0
M  V30 1727 O 235.108 -1.39011 8.63583 0
M  V30 1728 C 233.701 -0.273849 6.91158 0
M  V30 1729 O 234.5 -1.06348 6.02892 0
M  V30 1730 C 232.364 -0.897649 7.22545 0
M  V30 1731 H 232.396 -1.9841 7.04286 0
M  V30 1732 H 233.579 0.739928 6.497 0
M  V30 1733 H 235.063 0.60668 8.36503 0
M  V30 1734 H 233.369 -0.352479 10.1829 0
M  V30 1735 H 233.179 2.00611 10.0304 0
M  V30 1736 H 231.549 1.41843 9.55327 0
M  V30 1737 H 234.188 -1.95734 6.03555 0
M  V30 1738 P 236.046 -1.25109 8.70152 0
M  V30 1739 O 237.468 -1.35303 9.21419 0
M  V30 1740 O 235.686 -0.0769065 7.84762 0
M  V30 1741 O 235.723 -2.55232 7.81161 0
M  V30 1742 C 235.563 -3.79939 8.58154 0
M  V30 1743 C 236.103 -4.93969 7.72701 0
M  V30 1744 O 235.048 -5.18726 6.91205 0
M  V30 1745 C 237.321 -4.69597 6.85231 0
M  V30 1746 O 238.059 -5.83832 6.51337 0
M  V30 1747 C 236.653 -3.96706 5.66633 0
M  V30 1748 O 237.451 -4.15346 4.49615 0
M  V30 1749 C 235.315 -4.66153 5.59313 0
M  V30 1750 N 234.272 -3.71582 5.24027 0
M  V30 1751 C 234.334 -2.46018 5.67902 0
M  V30 1752 N 233.289 -1.74868 5.24518 0
M  V30 1753 C 232.555 -2.61333 4.54528 0
M  V30 1754 C 231.249 -2.46162 3.95441 0
M  V30 1755 O 230.516 -1.46013 3.94122 0
M  V30 1756 N 230.819 -3.59334 3.34752 0
M  V30 1757 C 231.568 -4.79605 3.3023 0
M  V30 1758 N 230.971 -5.82109 2.6065 0
M  V30 1759 N 232.721 -4.97402 3.8843 0
M  V30 1760 C 233.178 -3.86258 4.50476 0
M  V30 1761 H 235.347 -5.47679 4.85214 0
M  V30 1762 H 236.53 -2.88964 5.86476 0
M  V30 1763 H 238.015 -4.01947 7.36109 0
M  V30 1764 H 236.32 -5.80182 8.37584 0
M  V30 1765 H 236.13 -3.73517 9.52265 0
M  V30 1766 H 234.499 -3.97163 8.80359 0
M  V30 1767 H 229.923 -3.5825 2.90294 0
M  V30 1768 H 235.13 -2.06161 6.30974 0
M  V30 1769 H 230.06 -5.66979 2.15354 0
M  V30 1770 H 231.436 -6.73686 2.54344 0
M  V30 1771 H 237.14 -4.90891 4.01857 0
M  V30 1772 P 238.996 -5.75688 6.64379 0
M  V30 1773 O 240.418 -6.11849 7.01846 0
M  V30 1774 O 238.636 -4.30744 6.56026 0
M  V30 1775 O 238.673 -6.37042 5.19165 0
M  V30 1776 C 238.513 -7.83578 5.16515 0
M  V30 1777 C 239.053 -8.33398 3.83019 0
M  V30 1778 O 237.997 -8.10074 3.01034 0
M  V30 1779 C 240.271 -7.65514 3.2257 0
M  V30 1780 O 241.009 -8.4329 2.32297 0
M  V30 1781 C 239.602 -6.40075 2.62207 0
M  V30 1782 O 240.401 -5.92589 1.53712 0
M  V30 1783 C 238.265 -6.9454 2.18503 0
M  V30 1784 H 238.297 -7.23063 1.12091 0
M  V30 1785 H 239.48 -5.6025 3.37201 0
M  V30 1786 H 240.964 -7.35707 4.02681 0
M  V30 1787 H 239.27 -9.40912 3.9095 0
M  V30 1788 H 239.08 -8.29056 5.99158 0
M  V30 1789 H 237.45 -8.10073 5.25882 0
M  V30 1790 H 240.089 -6.30324 0.726794 0
M  V30 1791 P 241.947 -8.4349 2.47671 0
M  V30 1792 O 243.348 -8.98227 2.65696 0
M  V30 1793 O 241.569 -7.20409 3.23964 0
M  V30 1794 O 241.624 -8.16496 0.923275 0
M  V30 1795 C 241.464 -9.38437 0.108857 0
M  V30 1796 C 242.004 -9.08076 -1.28339 0
M  V30 1797 O 240.948 -8.44131 -1.84692 0
M  V30 1798 C 243.221 -8.18386 -1.42505 0
M  V30 1799 O 243.96 -8.3501 -2.60497 0
M  V30 1800 C 242.554 -6.80225 -1.25468 0
M  V30 1801 O 243.352 -5.81526 -1.91035 0
M  V30 1802 C 241.216 -7.02416 -1.9168 0
M  V30 1803 N 240.173 -6.31033 -1.20314 0
M  V30 1804 C 239.138 -5.77149 -1.928 0
M  V30 1805 O 239.177 -5.8521 -3.17729 0
M  V30 1806 N 238.126 -5.15445 -1.27997 0
M  V30 1807 C 238.174 -5.04472 0.0534726 0
M  V30 1808 N 237.164 -4.44183 0.669496 0
M  V30 1809 C 239.27 -5.55244 0.808522 0
M  V30 1810 C 240.236 -6.18542 0.13981 0
M  V30 1811 H 241.248 -6.68789 -2.9658 0
M  V30 1812 H 242.431 -6.53498 -0.198729 0
M  V30 1813 H 243.915 -8.36663 -0.5984 0
M  V30 1814 H 242.221 -10.0273 -1.8081 0
M  V30 1815 H 242.03 -10.2138 0.558219 0
M  V30 1816 H 240.4 -9.6569 0.0444156 0
M  V30 1817 H 239.318 -5.43017 1.88792 0
M  V30 1818 H 241.082 -6.60539 0.686773 0
M  V30 1819 H 236.374 -4.07222 0.12057 0
M  V30 1820 H 237.169 -4.34288 1.69244 0
M  V30 1821 H 243.136 -5.79638 -2.8315 0
M  V30 1822 P 244.897 -8.4349 -2.47671 0
M  V30 1823 O 246.298 -8.99283 -2.62101 0
M  V30 1824 O 244.519 -7.81195 -1.16947 0
M  V30 1825 O 244.574 -7.36797 -3.63761 0
M  V30 1826 C 244.414 -7.95349 -4.982 0
M  V30 1827 C 244.954 -6.94537 -5.98908 0
M  V30 1828 O 243.898 -6.10277 -6.11744 0
M  V30 1829 C 246.171 -6.11426 -5.62335 0
M  V30 1830 O 246.91 -5.6162 -6.70584 0
M  V30 1831 C 245.504 -5.04409 -4.73308 0
M  V30 1832 O 246.302 -3.85929 -4.75106 0
M  V30 1833 C 244.166 -4.8728 -5.41006 0
M  V30 1834 N 243.123 -4.65812 -4.42377 0
M  V30 1835 C 242.088 -3.81293 -4.74224 0
M  V30 1836 O 242.127 -3.20533 -5.83679 0
M  V30 1837 N 241.076 -3.6442 -3.86349 0
M  V30 1838 C 241.124 -4.2728 -2.6824 0
M  V30 1839 N 240.114 -4.09866 -1.83822 0
M  V30 1840 C 242.22 -5.10813 -2.3217 0
M  V30 1841 C 243.186 -5.27909 -3.22647 0
M  V30 1842 H 244.198 -4.02278 -6.11074 0
M  V30 1843 H 245.381 -5.39013 -3.70026 0
M  V30 1844 H 246.865 -6.71494 -5.02675 0
M  V30 1845 H 245.171 -7.45796 -6.94223 0
M  V30 1846 H 244.98 -8.89416 -5.05237 0
M  V30 1847 H 243.35 -8.14791 -5.18355 0
M  V30 1848 H 242.268 -5.58884 -1.34755 0
M  V30 1849 H 244.032 -5.92811 -2.9934 0
M  V30 1850 H 239.324 -3.49095 -2.10018 0
M  V30 1851 H 240.119 -4.56846 -0.924167 0
M  V30 1852 H 246.086 -3.3454 -5.51577 0
M  V30 1853 P 247.848 -5.75688 -6.64379 0
M  V30 1854 O 249.27 -6.07627 -7.05504 0
M  V30 1855 O 247.488 -5.88047 -5.19722 0
M  V30 1856 O 247.525 -4.2322 -7.04443 0
M  V30 1857 C 247.365 -3.99743 -8.4911 0
M  V30 1858 C 247.905 -2.60516 -8.79425 0
M  V30 1859 O 246.849 -1.82684 -8.4467 0
M  V30 1860 C 249.123 -2.10343 -8.03628 0
M  V30 1861 O 249.861 -1.09919 -8.67766 0
M  V30 1862 C 248.454 -1.68446 -6.70876 0
M  V30 1863 O 249.253 -0.678137 -6.08433 0
M  V30 1864 C 247.117 -1.17436 -7.18567 0
M  V30 1865 H 247.149 -0.0804732 -7.31656 0
M  V30 1866 H 248.332 -2.54037 -6.02537 0
M  V30 1867 H 249.816 -2.93881 -7.85526 0
M  V30 1868 H 248.122 -2.53065 -9.86973 0
M  V30 1869 H 247.932 -4.75072 -9.05887 0
M  V30 1870 H 246.302 -4.05244 -8.76668 0
M  V30 1871 H 248.941 0.177647 -6.34251 0
M  V30 1872 P 250.798 -1.25109 -8.70152 0
M  V30 1873 O 252.22 -1.29744 -9.22016 0
M  V30 1874 O 250.438 -2.13714 -7.55141 0
M  V30 1875 O 250.475 0.248149 -8.21425 0
M  V30 1876 C 250.315 1.22779 -9.30434 0
M  V30 1877 C 250.855 2.56293 -8.80664 0
M  V30 1878 O 249.799 3.02979 -8.09349 0
M  V30 1879 C 252.073 2.57523 -7.89775 0
M  V30 1880 O 252.811 3.7668 -7.89438 0
M  V30 1881 C 251.404 2.20997 -6.55446 0
M  V30 1882 O 252.203 2.71895 -5.48509 0
M  V30 1883 C 250.067 2.89693 -6.67988 0
M  V30 1884 H 250.099 3.88793 -6.19859 0
M  V30 1885 H 251.282 1.12046 -6.44229 0
M  V30 1886 H 252.766 1.7746 -8.19711 0
M  V30 1887 H 251.072 3.20706 -9.67112 0
M  V30 1888 H 250.882 0.901032 -10.1892 0
M  V30 1889 H 249.252 1.33049 -9.56592 0
M  V30 1890 H 251.891 3.57847 -5.23962 0
M  V30 1891 P 253.749 3.65191 -7.99657 0
M  V30 1892 O 255.171 3.89332 -8.45794 0
M  V30 1893 O 253.389 2.28472 -7.50807 0
M  V30 1894 O 253.426 4.64972 -6.77611 0
M  V30 1895 C 253.266 6.06319 -7.16352 0
M  V30 1896 C 253.806 6.91731 -6.02299 0
M  V30 1897 O 252.75 6.92449 -5.17064 0
M  V30 1898 C 255.024 6.43627 -5.25174 0
M  V30 1899 O 255.762 7.43686 -4.60469 0
M  V30 1900 C 254.355 5.40275 -4.31916 0
M  V30 1901 O 255.154 5.25279 -3.14438 0
M  V30 1902 C 253.018 6.04847 -4.05327 0
M  V30 1903 H 253.05 6.62195 -3.11261 0
M  V30 1904 H 254.233 4.42556 -4.81383 0
M  V30 1905 H 255.717 5.92458 -5.93643 0
M  V30 1906 H 254.023 7.92655 -6.402 0
M  V30 1907 H 253.833 6.26671 -8.0846 0
M  V30 1908 H 252.203 6.29101 -7.32804 0
M  V30 1909 H 254.842 5.84315 -2.47318 0
M  V30 1910 P 256.7 7.39546 -4.75277 0
M  V30 1911 O 258.122 7.84798 -5.01039 0
M  V30 1912 O 256.34 5.9812 -5.08098 0
M  V30 1913 O 256.377 7.57503 -3.1866 0
M  V30 1914 C 256.217 8.97357 -2.74833 0
M  V30 1915 C 256.757 9.07548 -1.32709 0
M  V30 1916 O 255.701 8.62072 -0.606159 0
M  V30 1917 C 257.975 8.25383 -0.938334 0
M  V30 1918 O 258.713 8.74577 0.146954 0
M  V30 1919 C 257.306 6.8802 -0.712559 0
M  V30 1920 O 258.105 6.1189 0.194655 0
M  V30 1921 C 255.969 7.27966 -0.139777 0
M  V30 1922 H 256.001 7.25354 0.961601 0
M  V30 1923 H 257.184 6.32557 -1.65702 0
M  V30 1924 H 258.668 8.19355 -1.79097 0
M  V30 1925 H 256.974 10.1294 -1.10029 0
M  V30 1926 H 256.784 9.64276 -3.41316 0
M  V30 1927 H 255.154 9.25417 -2.76357 0
M  V30 1928 H 257.793 6.25267 1.07847 0
M  V30 1929 P 259.65 8.791 7.3234e-13 0
M  V30 1930 O 261.072 9.31296 0.027939 0
M  V30 1931 O 259.29 7.77869 -1.04071 0
M  V30 1932 O 259.327 8.09533 1.41463 0
M  V30 1933 C 259.167 9.0349 2.53943 0
M  V30 1934 C 259.707 8.35135 3.78975 0
M  V30 1935 O 258.652 7.57992 4.15078 0
M  V30 1936 C 260.925 7.45087 3.67298 0
M  V30 1937 O 261.663 7.27796 4.85194 0
M  V30 1938 C 260.257 6.17323 3.12027 0
M  V30 1939 O 261.055 5.04149 3.47132 0
M  V30 1940 C 258.919 6.19961 3.81809 0
M  V30 1941 N 257.876 5.71575 2.93223 0
M  V30 1942 C 257.938 5.97133 1.62693 0
M  V30 1943 N 256.893 5.44066 0.984414 0
M  V30 1944 C 256.159 4.87093 1.93987 0
M  V30 1945 C 254.853 4.26449 1.8738 0
M  V30 1946 O 254.12 4.1089 0.884377 0
M  V30 1947 N 254.423 3.82483 3.08036 0
M  V30 1948 C 255.172 3.95124 4.27727 0
M  V30 1949 N 254.575 3.4084 5.39089 0
M  V30 1950 N 256.325 4.55264 4.3706 0
M  V30 1951 C 256.782 5.00861 3.18217 0
M  V30 1952 H 258.951 5.58218 4.73051 0
M  V30 1953 H 260.134 6.21631 2.02558 0
M  V30 1954 H 261.619 7.85819 2.93096 0
M  V30 1955 H 259.924 9.11627 4.55076 0
M  V30 1956 H 259.734 9.9573 2.34194 0
M  V30 1957 H 258.103 9.2792 2.67832 0
M  V30 1958 H 253.527 3.38323 3.1329 0
M  V30 1959 H 258.734 6.53891 1.14265 0
M  V30 1960 H 253.664 2.93852 5.30559 0
M  V30 1961 H 255.04 3.47631 6.30632 0
M  V30 1962 H 260.744 4.67628 4.28704 0
M  V30 1963 P 262.601 7.39546 4.75277 0
M  V30 1964 O 264.023 7.81777 5.05738 0
M  V30 1965 O 262.241 7.1065 3.32998 0
M  V30 1966 O 262.278 6.04542 5.56673 0
M  V30 1967 C 262.118 6.22772 7.02095 0
M  V30 1968 C 262.658 4.97725 7.70406 0
M  V30 1969 O 261.602 4.13256 7.58987 0
M  V30 1970 C 263.876 4.28231 7.11815 0
M  V30 1971 O 264.614 3.49945 8.01648 0
M  V30 1972 C 263.207 3.5063 5.96244 0
M  V30 1973 O 264.006 2.36482 5.64681 0
M  V30 1974 C 261.87 3.15122 6.56374 0
M  V30 1975 H 261.902 2.13853 6.99751 0
M  V30 1976 H 263.085 4.13501 5.06559 0
M  V30 1977 H 264.569 5.03285 6.70911 0
M  V30 1978 H 262.875 5.20877 8.75697 0
M  V30 1979 H 262.685 7.11046 7.35349 0
M  V30 1980 H 261.055 6.35815 7.26986 0
M  V30 1981 H 263.694 1.61644 6.13565 0
M  V30 1982 P 265.551 3.65191 7.99657 0
M  V30 1983 O 266.973 3.8425 8.48115 0
M  V30 1984 O 265.191 4.17805 6.64342 0
M  V30 1985 O 265.228 2.07613 7.95143 0
M  V30 1986 C 265.068 1.44328 9.27336 0
M  V30 1987 C 265.608 0.0220036 9.17197 0
M  V30 1988 O 264.552 -0.626867 8.61923 0
M  V30 1989 C 266.826 -0.24586 8.30336 0
M  V30 1990 O 267.564 -1.39011 8.63583 0
M  V30 1991 C 266.157 -0.273849 6.91158 0
M  V30 1992 O 266.956 -1.06348 6.02892 0
M  V30 1993 C 264.82 -0.897649 7.22545 0
M  V30 1994 H 264.852 -1.9841 7.04286 0
M  V30 1995 H 266.035 0.739928 6.497 0
M  V30 1996 H 267.519 0.60668 8.36503 0
M  V30 1997 H 265.825 -0.352479 10.1829 0
M  V30 1998 H 265.635 2.00611 10.0304 0
M  V30 1999 H 264.005 1.41843 9.55327 0
M  V30 2000 H 266.644 -1.95734 6.03555 0
M  V30 2001 P 268.502 -1.25109 8.70152 0
M  V30 2002 O 269.903 -1.31452 9.27431 0
M  V30 2003 O 268.124 -0.0458113 7.89887 0
M  V30 2004 O 268.179 -2.55201 7.81066 0
M  V30 2005 C 268.019 -3.79939 8.58154 0
M  V30 2006 C 268.559 -4.93969 7.72701 0
M  V30 2007 O 267.503 -5.18666 6.91125 0
M  V30 2008 C 269.776 -4.69597 6.85231 0
M  V30 2009 O 270.515 -5.83832 6.51337 0
M  V30 2010 C 269.109 -3.96706 5.66633 0
M  V30 2011 O 269.907 -4.15346 4.49615 0
M  V30 2012 C 267.771 -4.66153 5.59313 0
M  V30 2013 N 266.728 -3.71582 5.24027 0
M  V30 2014 C 265.693 -4.15133 4.44901 0
M  V30 2015 O 265.732 -5.32122 4.00336 0
M  V30 2016 N 264.681 -3.30554 4.15693 0
M  V30 2017 C 264.729 -2.04701 4.61105 0
M  V30 2018 N 263.719 -1.23621 4.31855 0
M  V30 2019 C 265.825 -1.57111 5.38655 0
M  V30 2020 C 266.791 -2.44234 5.68454 0
M  V30 2021 H 267.803 -5.47604 4.85148 0
M  V30 2022 H 268.986 -2.8955 5.86187 0
M  V30 2023 H 270.47 -4.01995 7.36197 0
M  V30 2024 H 268.776 -5.81019 8.37003 0
M  V30 2025 H 268.585 -3.73517 9.52265 0
M  V30 2026 H 266.955 -3.97122 8.80267 0
M  V30 2027 H 265.873 -0.538464 5.72373 0
M  V30 2028 H 267.637 -2.11927 6.29377 0
M  V30 2029 H 262.929 -1.58199 3.7543 0
M  V30 2030 H 263.724 -0.264601 4.65348 0
M  V30 2031 H 269.691 -4.98352 4.09633 0
M  V30 2032 P 271.452 -5.75688 6.64379 0
M  V30 2033 O 272.874 -6.11849 7.01846 0
M  V30 2034 O 271.092 -4.30744 6.56026 0
M  V30 2035 O 271.129 -6.37042 5.19165 0
M  V30 2036 C 270.969 -7.83578 5.16515 0
M  V30 2037 C 271.509 -8.33398 3.83019 0
M  V30 2038 O 270.453 -8.10074 3.01034 0
M  V30 2039 C 272.727 -7.65514 3.2257 0
M  V30 2040 O 273.465 -8.4329 2.32297 0
M  V30 2041 C 272.058 -6.40075 2.62207 0
M  V30 2042 O 272.857 -5.92589 1.53712 0
M  V30 2043 C 270.721 -6.9454 2.18503 0
M  V30 2044 H 270.753 -7.23063 1.12091 0
M  V30 2045 H 271.936 -5.6025 3.37201 0
M  V30 2046 H 273.42 -7.35707 4.02681 0
M  V30 2047 H 271.726 -9.40912 3.9095 0
M  V30 2048 H 271.536 -8.29056 5.99158 0
M  V30 2049 H 269.906 -8.10073 5.25882 0
M  V30 2050 H 272.545 -6.30324 0.726794 0
M  V30 2051 P 274.403 -8.4349 2.47671 0
M  V30 2052 O 275.825 -8.94359 2.59696 0
M  V30 2053 O 274.043 -7.1704 3.19006 0
M  V30 2054 O 274.08 -8.16596 0.923387 0
M  V30 2055 C 273.92 -9.38437 0.108857 0
M  V30 2056 C 274.46 -9.08076 -1.28339 0
M  V30 2057 O 273.405 -8.44229 -1.84713 0
M  V30 2058 C 275.678 -8.18386 -1.42505 0
M  V30 2059 O 276.416 -8.3501 -2.60497 0
M  V30 2060 C 275.01 -6.80225 -1.25468 0
M  V30 2061 O 275.808 -5.81526 -1.91035 0
M  V30 2062 C 273.672 -7.02416 -1.9168 0
M  V30 2063 N 272.629 -6.31033 -1.20314 0
M  V30 2064 C 272.691 -6.18781 0.121293 0
M  V30 2065 N 271.646 -5.49762 0.588272 0
M  V30 2066 C 270.912 -5.22015 -0.488988 0
M  V30 2067 C 269.606 -4.61966 -0.596448 0
M  V30 2068 O 268.873 -4.19162 0.309059 0
M  V30 2069 N 269.176 -4.53773 -1.878 0
M  V30 2070 C 269.925 -4.99623 -2.99082 0
M  V30 2071 N 269.328 -4.78912 -4.21227 0
M  V30 2072 N 271.078 -5.59957 -2.91093 0
M  V30 2073 C 271.535 -5.70225 -1.64218 0
M  V30 2074 H 273.704 -6.6888 -2.96621 0
M  V30 2075 H 274.887 -6.53517 -0.192194 0
M  V30 2076 H 276.372 -8.36563 -0.598329 0
M  V30 2077 H 274.677 -10.0291 -1.79807 0
M  V30 2078 H 274.487 -10.2138 0.558219 0
M  V30 2079 H 272.856 -9.6579 0.0444202 0
M  V30 2080 H 268.28 -4.12883 -2.05283 0
M  V30 2081 H 273.487 -6.59596 0.745856 0
M  V30 2082 H 268.417 -4.31425 -4.2628 0
M  V30 2083 H 269.793 -5.11219 -5.07148 0
M  V30 2084 H 275.497 -5.69466 -2.79593 0
M  V30 2085 P 277.354 -8.4349 -2.47671 0
M  V30 2086 O 278.776 -8.92593 -2.65 0
M  V30 2087 O 276.994 -7.7568 -1.19296 0
M  V30 2088 O 277.031 -7.36886 -3.63805 0
M  V30 2089 C 276.871 -7.95349 -4.982 0
M  V30 2090 C 277.411 -6.94612 -5.98974 0
M  V30 2091 O 276.355 -6.10347 -6.11815 0
M  V30 2092 C 278.629 -6.11426 -5.62335 0
M  V30 2093 O 279.367 -5.6162 -6.70584 0
M  V30 2094 C 277.96 -5.04409 -4.73308 0
M  V30 2095 O 278.759 -3.85992 -4.75183 0
M  V30 2096 C 276.623 -4.8728 -5.41006 0
M  V30 2097 H 276.655 -4.02333 -6.11157 0
M  V30 2098 H 277.838 -5.39466 -3.69543 0
M  V30 2099 H 279.322 -6.71916 -5.01943 0
M  V30 2100 H 277.628 -7.4649 -6.93477 0
M  V30 2101 H 277.438 -8.89416 -5.05237 0
M  V30 2102 H 275.808 -8.14876 -5.18409 0
M  V30 2103 H 278.447 -3.27957 -5.4317 0
M  V30 2104 P 280.304 -5.75688 -6.64379 0
M  V30 2105 O 281.726 -6.07627 -7.05504 0
M  V30 2106 O 279.944 -5.88047 -5.19722 0
M  V30 2107 O 279.981 -4.2322 -7.04443 0
M  V30 2108 C 279.821 -3.99743 -8.4911 0
M  V30 2109 C 280.361 -2.60516 -8.79425 0
M  V30 2110 O 279.305 -1.82684 -8.4467 0
M  V30 2111 C 281.579 -2.10343 -8.03628 0
M  V30 2112 O 282.317 -1.09919 -8.67766 0
M  V30 2113 C 280.91 -1.68446 -6.70876 0
M  V30 2114 O 281.709 -0.678137 -6.08433 0
M  V30 2115 C 279.573 -1.17436 -7.18567 0
M  V30 2116 H 279.605 -0.0804732 -7.31656 0
M  V30 2117 H 280.788 -2.54037 -6.02537 0
M  V30 2118 H 282.272 -2.93881 -7.85526 0
M  V30 2119 H 280.578 -2.53065 -9.86973 0
M  V30 2120 H 280.388 -4.75072 -9.05887 0
M  V30 2121 H 278.758 -4.05244 -8.76668 0
M  V30 2122 H 281.397 0.177647 -6.34251 0
M  V30 2123 P 283.255 -1.25109 -8.70152 0
M  V30 2124 O 284.677 -1.29744 -9.22016 0
M  V30 2125 O 282.895 -2.13714 -7.55141 0
M  V30 2126 O 282.932 0.248149 -8.21425 0
M  V30 2127 C 282.772 1.22779 -9.30434 0
M  V30 2128 C 283.312 2.56293 -8.80664 0
M  V30 2129 O 282.256 3.02979 -8.09349 0
M  V30 2130 C 284.53 2.57523 -7.89775 0
M  V30 2131 O 285.268 3.7668 -7.89438 0
M  V30 2132 C 283.861 2.20997 -6.55446 0
M  V30 2133 O 284.66 2.71895 -5.48509 0
M  V30 2134 C 282.524 2.89693 -6.67988 0
M  V30 2135 H 282.556 3.88793 -6.19859 0
M  V30 2136 H 283.739 1.12046 -6.44229 0
M  V30 2137 H 285.223 1.7746 -8.19711 0
M  V30 2138 H 283.529 3.20706 -9.67112 0
M  V30 2139 H 283.339 0.901032 -10.1892 0
M  V30 2140 H 281.709 1.33049 -9.56592 0
M  V30 2141 H 284.348 3.57847 -5.23962 0
M  V30 2142 P 286.205 3.65191 -7.99657 0
M  V30 2143 O 287.627 3.89332 -8.45794 0
M  V30 2144 O 285.845 2.28472 -7.50807 0
M  V30 2145 O 285.882 4.64972 -6.77611 0
M  V30 2146 C 285.722 6.06319 -7.16352 0
M  V30 2147 C 286.262 6.91731 -6.02299 0
M  V30 2148 O 285.206 6.92449 -5.17064 0
M  V30 2149 C 287.48 6.43627 -5.25174 0
M  V30 2150 O 288.218 7.43686 -4.60469 0
M  V30 2151 C 286.811 5.40275 -4.31916 0
M  V30 2152 O 287.61 5.25279 -3.14438 0
M  V30 2153 C 285.474 6.04847 -4.05327 0
M  V30 2154 H 285.506 6.62195 -3.11261 0
M  V30 2155 H 286.689 4.42556 -4.81383 0
M  V30 2156 H 288.173 5.92458 -5.93643 0
M  V30 2157 H 286.479 7.92655 -6.402 0
M  V30 2158 H 286.289 6.26671 -8.0846 0
M  V30 2159 H 284.659 6.29101 -7.32804 0
M  V30 2160 H 287.298 5.84315 -2.47318 0
M  V30 2161 P 289.156 7.39546 -4.75277 0
M  V30 2162 O 290.577 7.84882 -5.01092 0
M  V30 2163 O 288.796 5.9812 -5.08098 0
M  V30 2164 O 288.833 7.57503 -3.1866 0
M  V30 2165 C 288.672 8.97452 -2.74862 0
M  V30 2166 C 289.213 9.07548 -1.32709 0
M  V30 2167 O 288.158 8.61972 -0.606089 0
M  V30 2168 C 290.431 8.25383 -0.938334 0
M  V30 2169 O 291.169 8.74577 0.146954 0
M  V30 2170 C 289.763 6.8802 -0.712559 0
M  V30 2171 O 290.561 6.1181 0.188505 0
M  V30 2172 C 288.425 7.27966 -0.139777 0
M  V30 2173 N 287.382 6.39368 -0.623421 0
M  V30 2174 C 287.551 5.71761 -1.78245 0
M  V30 2175 N 286.524 4.962 -2.10491 0
M  V30 2176 C 285.639 5.16158 -1.0635 0
M  V30 2177 C 284.372 4.60425 -0.810266 0
M  V30 2178 N 283.773 3.7057 -1.62914 0
M  V30 2179 N 283.807 5.06 0.348685 0
M  V30 2180 C 284.409 5.94532 1.20395 0
M  V30 2181 N 285.586 6.48452 1.01191 0
M  V30 2182 C 286.161 6.04423 -0.146291 0
M  V30 2183 H 288.457 7.25255 0.961469 0
M  V30 2184 H 289.64 6.32625 -1.65044 0
M  V30 2185 H 291.123 8.19355 -1.79097 0
M  V30 2186 H 289.429 10.1305 -1.09016 0
M  V30 2187 H 289.239 9.64276 -3.41316 0
M  V30 2188 H 287.609 9.25417 -2.76357 0
M  V30 2189 H 283.873 6.21659 2.10714 0
M  V30 2190 H 288.451 5.79354 -2.38959 0
M  V30 2191 H 282.843 3.33174 -1.38982 0
M  V30 2192 H 284.247 3.39714 -2.48836 0
M  V30 2193 H 290.249 6.25169 1.0783 0
M  V30 2194 P 292.106 8.791 1.04251e-12 0
M  V30 2195 O 293.507 9.36698 -0.018734 0
M  V30 2196 O 291.728 7.82499 -1.07878 0
M  V30 2197 O 291.783 8.09434 1.41446 0
M  V30 2198 C 291.623 9.0349 2.53943 0
M  V30 2199 C 292.163 8.35135 3.78975 0
M  V30 2200 O 291.107 7.57904 4.1503 0
M  V30 2201 C 293.38 7.45087 3.67298 0
M  V30 2202 O 294.119 7.27796 4.85194 0
M  V30 2203 C 292.713 6.17323 3.12027 0
M  V30 2204 O 293.511 5.04149 3.47132 0
M  V30 2205 C 291.375 6.19961 3.81809 0
M  V30 2206 N 290.332 5.71575 2.93223 0
M  V30 2207 C 289.297 4.99452 3.47592 0
M  V30 2208 O 289.336 4.7199 4.69732 0
M  V30 2209 N 288.285 4.58505 2.6803 0
M  V30 2210 C 288.333 4.85544 1.36995 0
M  V30 2211 N 287.323 4.45052 0.609031 0
M  V30 2212 C 289.429 5.55532 0.788532 0
M  V30 2213 C 290.395 5.97426 1.60849 0
M  V30 2214 H 291.407 5.58142 4.72986 0
M  V30 2215 H 292.59 6.21428 2.0318 0
M  V30 2216 H 294.074 7.85913 2.93131 0
M  V30 2217 H 292.38 9.11171 4.55987 0
M  V30 2218 H 292.189 9.9573 2.34194 0
M  V30 2219 H 290.559 9.27824 2.67805 0
M  V30 2220 H 289.477 5.7421 -0.281588 0
M  V30 2221 H 291.241 6.53132 1.202 0
M  V30 2222 H 286.533 3.94123 1.03159 0
M  V30 2223 H 287.328 4.64377 -0.400352 0
M  V30 2224 H 293.295 4.76386 4.34983 0
M  V30 2225 P 295.057 7.39546 4.75277 0
M  V30 2226 O 296.478 7.81861 5.05793 0
M  V30 2227 O 294.697 7.1065 3.32998 0
M  V30 2228 O 294.734 6.04542 5.56673 0
M  V30 2229 C 294.573 6.22839 7.02169 0
M  V30 2230 C 295.114 4.97725 7.70406 0
M  V30 2231 O 294.059 4.13208 7.58899 0
M  V30 2232 C 296.332 4.28231 7.11815 0
M  V30 2233 O 297.07 3.49945 8.01648 0
M  V30 2234 C 295.664 3.5063 5.96244 0
M  V30 2235 O 296.462 2.37008 5.64352 0
M  V30 2236 C 294.326 3.15122 6.56374 0
M  V30 2237 N 293.283 3.22311 5.55692 0
M  V30 2238 C 293.452 3.99655 4.46046 0
M  V30 2239 N 292.425 3.97599 3.63918 0
M  V30 2240 C 291.54 3.11159 4.25334 0
M  V30 2241 C 290.273 2.64972 3.85157 0
M  V30 2242 N 289.674 3.02132 2.69405 0
M  V30 2243 N 289.708 1.78482 4.74759 0
M  V30 2244 C 290.31 1.37463 5.90819 0
M  V30 2245 N 291.487 1.7733 6.31889 0
M  V30 2246 C 292.062 2.64393 5.43725 0
M  V30 2247 H 294.358 2.13823 6.99656 0
M  V30 2248 H 295.541 4.12931 5.06895 0
M  V30 2249 H 297.024 5.03285 6.70911 0
M  V30 2250 H 295.33 5.20001 8.76217 0
M  V30 2251 H 295.14 7.11046 7.35349 0
M  V30 2252 H 293.51 6.35815 7.26986 0
M  V30 2253 H 289.774 0.66574 6.53015 0
M  V30 2254 H 294.352 4.58037 4.27732 0
M  V30 2255 H 288.744 2.64828 2.45331 0
M  V30 2256 H 290.148 3.67472 2.05644 0
M  V30 2257 H 296.15 1.61619 6.13468 0
M  V30 2258 P 298.008 3.65191 7.99657 0
M  V30 2259 O 299.43 3.8425 8.48115 0
M  V30 2260 O 297.648 4.17805 6.64342 0
M  V30 2261 O 297.685 2.07613 7.95143 0
M  V30 2262 C 297.525 1.44328 9.27336 0
M  V30 2263 C 298.065 0.0220036 9.17197 0
M  V30 2264 O 297.009 -0.626867 8.61923 0
M  V30 2265 C 299.283 -0.24586 8.30336 0
M  V30 2266 O 300.021 -1.39011 8.63583 0
M  V30 2267 C 298.614 -0.273849 6.91158 0
M  V30 2268 O 299.413 -1.06348 6.02892 0
M  V30 2269 C 297.277 -0.897649 7.22545 0
M  V30 2270 H 297.309 -1.9841 7.04286 0
M  V30 2271 H 298.492 0.739928 6.497 0
M  V30 2272 H 299.976 0.60668 8.36503 0
M  V30 2273 H 298.282 -0.352479 10.1829 0
M  V30 2274 H 298.092 2.00611 10.0304 0
M  V30 2275 H 296.462 1.41843 9.55327 0
M  V30 2276 H 299.101 -1.95734 6.03555 0
M  V30 2277 P 300.958 -1.25109 8.70152 0
M  V30 2278 O 302.38 -1.35274 9.21221 0
M  V30 2279 O 300.598 -0.0769065 7.84762 0
M  V30 2280 O 300.635 -2.55232 7.81161 0
M  V30 2281 C 300.475 -3.79939 8.58154 0
M  V30 2282 C 301.015 -4.94023 7.72785 0
M  V30 2283 O 299.959 -5.18726 6.91205 0
M  V30 2284 C 302.233 -4.69597 6.85231 0
M  V30 2285 O 302.971 -5.83832 6.51337 0
M  V30 2286 C 301.564 -3.96706 5.66633 0
M  V30 2287 O 302.363 -4.15414 4.49689 0
M  V30 2288 C 300.227 -4.66153 5.59313 0
M  V30 2289 H 300.259 -5.47679 4.85214 0
M  V30 2290 H 301.442 -2.89008 5.86566 0
M  V30 2291 H 302.926 -4.0121 7.36511 0
M  V30 2292 H 301.232 -5.80182 8.37584 0
M  V30 2293 H 301.042 -3.73517 9.52265 0
M  V30 2294 H 299.412 -3.97163 8.80359 0
M  V30 2295 H 302.051 -4.90969 4.01921 0
M  V30 2296 P 303.909 -5.75688 6.64379 0
M  V30 2297 O 305.331 -6.11849 7.01846 0
M  V30 2298 O 303.549 -4.30744 6.56026 0
M  V30 2299 O 303.586 -6.37042 5.19165 0
M  V30 2300 C 303.426 -7.83578 5.16515 0
M  V30 2301 C 303.966 -8.33398 3.83019 0
M  V30 2302 O 302.91 -8.10074 3.01034 0
M  V30 2303 C 305.184 -7.65514 3.2257 0
M  V30 2304 O 305.922 -8.4329 2.32297 0
M  V30 2305 C 304.515 -6.40075 2.62207 0
M  V30 2306 O 305.314 -5.92589 1.53712 0
M  V30 2307 C 303.178 -6.9454 2.18503 0
M  V30 2308 H 303.21 -7.23063 1.12091 0
M  V30 2309 H 304.393 -5.6025 3.37201 0
M  V30 2310 H 305.877 -7.35707 4.02681 0
M  V30 2311 H 304.183 -9.40912 3.9095 0
M  V30 2312 H 303.993 -8.29056 5.99158 0
M  V30 2313 H 302.363 -8.10073 5.25882 0
M  V30 2314 H 305.002 -6.30324 0.726794 0
M  V30 2315 P 306.859 -8.4349 2.47671 0
M  V30 2316 O 308.281 -8.94167 2.5964 0
M  V30 2317 O 306.499 -7.1704 3.19006 0
M  V30 2318 O 306.536 -8.16596 0.923387 0
M  V30 2319 C 306.376 -9.38437 0.108857 0
M  V30 2320 C 306.916 -9.08175 -1.28353 0
M  V30 2321 O 305.86 -8.44229 -1.84713 0
M  V30 2322 C 308.134 -8.18386 -1.42505 0
M  V30 2323 O 308.872 -8.3501 -2.60497 0
M  V30 2324 C 307.465 -6.80225 -1.25468 0
M  V30 2325 O 308.264 -5.81621 -1.91066 0
M  V30 2326 C 306.128 -7.02416 -1.9168 0
M  V30 2327 H 306.16 -6.6888 -2.96621 0
M  V30 2328 H 307.343 -6.53617 -0.192223 0
M  V30 2329 H 308.827 -8.36622 -0.589963 0
M  V30 2330 H 307.133 -10.0291 -1.79807 0
M  V30 2331 H 306.943 -10.2138 0.558219 0
M  V30 2332 H 305.313 -9.6579 0.0444202 0
M  V30 2333 H 307.952 -5.69556 -2.79637 0
M  V30 2334 P 309.81 -8.4349 -2.47671 0
M  V30 2335 O 311.231 -8.92689 -2.65029 0
M  V30 2336 O 309.45 -7.7568 -1.19296 0
M  V30 2337 O 309.487 -7.36886 -3.63805 0
M  V30 2338 C 309.326 -7.95433 -4.98253 0
M  V30 2339 C 309.867 -6.94612 -5.98974 0
M  V30 2340 O 308.812 -6.10277 -6.11744 0
M  V30 2341 C 311.085 -6.11426 -5.62335 0
M  V30 2342 O 311.823 -5.6162 -6.70584 0
M  V30 2343 C 310.417 -5.04409 -4.73308 0
M  V30 2344 O 311.215 -3.86404 -4.74719 0
M  V30 2345 C 309.079 -4.8728 -5.41006 0
M  V30 2346 N 308.036 -4.65812 -4.42377 0
M  V30 2347 C 308.205 -5.09132 -3.15382 0
M  V30 2348 N 307.178 -4.84021 -2.3716 0
M  V30 2349 C 306.293 -4.18386 -3.20441 0
M  V30 2350 C 305.026 -3.6275 -2.94905 0
M  V30 2351 N 304.461 -3.05008 -4.05243 0
M  V30 2352 C 305.063 -2.98348 -5.28159 0
M  V30 2353 N 306.24 -3.48171 -5.56333 0
M  V30 2354 C 306.815 -4.06869 -4.47212 0
M  V30 2355 H 310.294 -5.39013 -3.70026 0
M  V30 2356 H 311.777 -6.71916 -5.01943 0
M  V30 2357 H 310.083 -7.45796 -6.94223 0
M  V30 2358 H 309.893 -8.89416 -5.05237 0
M  V30 2359 H 308.263 -8.14876 -5.18409 0
M  V30 2360 H 309.105 -5.59989 -2.81362 0
M  V30 2361 H 310.903 -3.27906 -5.43085 0
M  V30 2362 P 312.76 -5.75688 -6.64379 0
M  V30 2363 O 314.182 -6.07627 -7.05504 0
M  V30 2364 O 312.4 -5.88047 -5.19722 0
M  V30 2365 O 312.437 -4.2322 -7.04443 0
M  V30 2366 C 312.277 -3.99743 -8.4911 0
M  V30 2367 C 312.817 -2.60516 -8.79425 0
M  V30 2368 O 311.761 -1.82684 -8.4467 0
M  V30 2369 C 314.035 -2.10343 -8.03628 0
M  V30 2370 O 314.773 -1.09919 -8.67766 0
M  V30 2371 C 313.366 -1.68446 -6.70876 0
M  V30 2372 O 314.165 -0.678137 -6.08433 0
M  V30 2373 C 312.029 -1.17436 -7.18567 0
M  V30 2374 H 312.061 -0.0804732 -7.31656 0
M  V30 2375 H 313.244 -2.54037 -6.02537 0
M  V30 2376 H 314.728 -2.93881 -7.85526 0
M  V30 2377 H 313.034 -2.53065 -9.86973 0
M  V30 2378 H 312.844 -4.75072 -9.05887 0
M  V30 2379 H 311.214 -4.05244 -8.76668 0
M  V30 2380 H 313.853 0.177647 -6.34251 0
M  V30 2381 P 315.711 -1.25109 -8.70152 0
M  V30 2382 O 317.133 -1.29744 -9.22016 0
M  V30 2383 O 315.351 -2.13714 -7.55141 0
M  V30 2384 O 315.388 0.248149 -8.21425 0
M  V30 2385 C 315.228 1.22779 -9.30434 0
M  V30 2386 C 315.768 2.56293 -8.80664 0
M  V30 2387 O 314.712 3.02979 -8.09349 0
M  V30 2388 C 316.986 2.57523 -7.89775 0
M  V30 2389 O 317.724 3.7668 -7.89438 0
M  V30 2390 C 316.317 2.20997 -6.55446 0
M  V30 2391 O 317.116 2.71895 -5.48509 0
M  V30 2392 C 314.98 2.89693 -6.67988 0
M  V30 2393 H 315.012 3.88793 -6.19859 0
M  V30 2394 H 316.195 1.12046 -6.44229 0
M  V30 2395 H 317.679 1.7746 -8.19711 0
M  V30 2396 H 315.985 3.20706 -9.67112 0
M  V30 2397 H 315.795 0.901032 -10.1892 0
M  V30 2398 H 314.165 1.33049 -9.56592 0
M  V30 2399 H 316.804 3.57847 -5.23962 0
M  V30 2400 P 318.662 3.65191 -7.99657 0
M  V30 2401 O 320.084 3.89332 -8.45794 0
M  V30 2402 O 318.302 2.28472 -7.50807 0
M  V30 2403 O 318.339 4.64972 -6.77611 0
M  V30 2404 C 318.179 6.06319 -7.16352 0
M  V30 2405 C 318.719 6.91731 -6.02299 0
M  V30 2406 O 317.663 6.92449 -5.17064 0
M  V30 2407 C 319.937 6.43627 -5.25174 0
M  V30 2408 O 320.675 7.43686 -4.60469 0
M  V30 2409 C 319.268 5.40275 -4.31916 0
M  V30 2410 O 320.067 5.25279 -3.14438 0
M  V30 2411 C 317.931 6.04847 -4.05327 0
M  V30 2412 H 317.963 6.62195 -3.11261 0
M  V30 2413 H 319.146 4.42556 -4.81383 0
M  V30 2414 H 320.63 5.92458 -5.93643 0
M  V30 2415 H 318.936 7.92655 -6.402 0
M  V30 2416 H 318.746 6.26671 -8.0846 0
M  V30 2417 H 317.116 6.29101 -7.32804 0
M  V30 2418 H 319.755 5.84315 -2.47318 0
M  V30 2419 P 321.612 7.39546 -4.75277 0
M  V30 2420 O 323.034 7.84798 -5.01039 0
M  V30 2421 O 321.252 5.9812 -5.08098 0
M  V30 2422 O 321.289 7.57503 -3.1866 0
M  V30 2423 C 321.129 8.97357 -2.74833 0
M  V30 2424 C 321.669 9.07548 -1.32709 0
M  V30 2425 O 320.613 8.62072 -0.606159 0
M  V30 2426 C 322.887 8.25383 -0.938334 0
M  V30 2427 O 323.625 8.74577 0.146954 0
M  V30 2428 C 322.218 6.8802 -0.712559 0
M  V30 2429 O 323.017 6.1189 0.194655 0
M  V30 2430 C 320.881 7.27966 -0.139777 0
M  V30 2431 H 320.913 7.25354 0.961601 0
M  V30 2432 H 322.096 6.32557 -1.65702 0
M  V30 2433 H 323.58 8.19355 -1.79097 0
M  V30 2434 H 321.886 10.1294 -1.10029 0
M  V30 2435 H 321.696 9.64276 -3.41316 0
M  V30 2436 H 320.066 9.25417 -2.76357 0
M  V30 2437 H 322.705 6.25267 1.07847 0
M  V30 2438 P 324.563 8.791 1.35267e-12 0
M  V30 2439 O 325.964 9.36698 -0.018734 0
M  V30 2440 O 324.185 7.82499 -1.07878 0
M  V30 2441 O 324.24 8.09434 1.41446 0
M  V30 2442 C 324.08 9.0349 2.53943 0
M  V30 2443 C 324.62 8.35135 3.78975 0
M  V30 2444 O 323.564 7.57904 4.1503 0
M  V30 2445 C 325.837 7.45087 3.67298 0
M  V30 2446 O 326.576 7.27796 4.85194 0
M  V30 2447 C 325.17 6.17323 3.12027 0
M  V30 2448 O 325.968 5.04149 3.47132 0
M  V30 2449 C 323.832 6.19961 3.81809 0
M  V30 2450 N 322.789 5.71575 2.93223 0
M  V30 2451 C 321.754 4.99452 3.47592 0
M  V30 2452 O 321.793 4.7199 4.69732 0
M  V30 2453 N 320.742 4.58505 2.6803 0
M  V30 2454 C 320.79 4.85544 1.36995 0
M  V30 2455 C 321.886 5.55532 0.788532 0
M  V30 2456 C 322.852 5.97426 1.60849 0
M  V30 2457 H 323.864 5.58142 4.72986 0
M  V30 2458 H 325.047 6.21428 2.0318 0
M  V30 2459 H 326.531 7.85913 2.93131 0
M  V30 2460 H 324.837 9.11171 4.55987 0
M  V30 2461 H 324.646 9.9573 2.34194 0
M  V30 2462 H 323.016 9.27824 2.67805 0
M  V30 2463 H 321.934 5.7421 -0.281588 0
M  V30 2464 H 323.698 6.53132 1.202 0
M  V30 2465 H 325.752 4.76386 4.34983 0
M  V30 2466 P 327.513 7.39546 4.75277 0
M  V30 2467 O 328.935 7.81945 5.05847 0
M  V30 2468 O 327.153 7.1065 3.32998 0
M  V30 2469 O 327.19 6.04542 5.56673 0
M  V30 2470 C 327.03 6.22772 7.02095 0
M  V30 2471 C 327.57 4.97671 7.70322 0
M  V30 2472 O 326.515 4.13256 7.58987 0
M  V30 2473 C 328.788 4.28231 7.11815 0
M  V30 2474 O 329.526 3.49945 8.01648 0
M  V30 2475 C 328.12 3.5063 5.96244 0
M  V30 2476 O 328.918 2.36443 5.64589 0
M  V30 2477 C 326.782 3.15122 6.56374 0
M  V30 2478 N 325.739 3.22311 5.55692 0
M  V30 2479 C 325.801 4.14382 4.59701 0
M  V30 2480 N 324.756 4.04476 3.76958 0
M  V30 2481 C 324.022 3.04892 4.26534 0
M  V30 2482 C 322.716 2.57447 3.88189 0
M  V30 2483 O 321.983 2.9785 2.96543 0
M  V30 2484 N 322.286 1.55228 4.65922 0
M  V30 2485 C 323.035 1.01152 5.73447 0
M  V30 2486 N 322.438 -0.0472117 6.37783 0
M  V30 2487 N 324.188 1.467 6.13813 0
M  V30 2488 C 324.645 2.4931 5.38487 0
M  V30 2489 H 326.814 2.13853 6.99751 0
M  V30 2490 H 327.997 4.13438 5.06482 0
M  V30 2491 H 329.482 5.02614 6.71414 0
M  V30 2492 H 327.787 5.20877 8.75697 0
M  V30 2493 H 327.597 7.11046 7.35349 0
M  V30 2494 H 325.966 6.35815 7.26986 0
M  V30 2495 H 321.39 1.15238 4.46468 0
M  V30 2496 H 326.597 4.88312 4.49647 0
M  V30 2497 H 321.527 -0.396382 6.05203 0
M  V30 2498 H 322.903 -0.484997 7.18465 0
M  V30 2499 H 328.607 1.61619 6.13468 0
M  V30 2500 P 330.464 3.65191 7.99657 0
M  V30 2501 O 331.865 3.90823 8.51272 0
M  V30 2502 O 330.086 4.23191 6.66972 0
M  V30 2503 O 330.141 2.07587 7.95046 0
M  V30 2504 C 329.981 1.44328 9.27336 0
M  V30 2505 C 330.521 0.0220012 9.17097 0
M  V30 2506 O 329.465 -0.626794 8.61824 0
M  V30 2507 C 331.738 -0.24586 8.30336 0
M  V30 2508 O 332.477 -1.39011 8.63583 0
M  V30 2509 C 331.071 -0.273849 6.91158 0
M  V30 2510 O 331.869 -1.06331 6.02794 0
M  V30 2511 C 329.733 -0.897649 7.22545 0
M  V30 2512 N 328.69 -0.292839 6.41732 0
M  V30 2513 C 327.655 -1.08701 5.98712 0
M  V30 2514 O 327.694 -2.31211 6.24471 0
M  V30 2515 N 326.643 -0.533391 5.28415 0
M  V30 2516 C 326.691 0.770866 4.98576 0
M  V30 2517 N 325.681 1.29482 4.30134 0
M  V30 2518 C 327.787 1.59049 5.38086 0
M  V30 2519 C 328.753 1.01866 6.10256 0
M  V30 2520 H 329.765 -1.98383 7.04189 0
M  V30 2521 H 330.948 0.733318 6.49674 0
M  V30 2522 H 332.432 0.598386 8.36663 0
M  V30 2523 H 330.738 -0.362662 10.1825 0
M  V30 2524 H 330.547 2.00611 10.0304 0
M  V30 2525 H 328.917 1.41828 9.55228 0
M  V30 2526 H 327.835 2.6415 5.10622 0
M  V30 2527 H 329.599 1.61983 6.44042 0
M  V30 2528 H 324.891 0.69888 4.01361 0
M  V30 2529 H 325.686 2.29327 4.05781 0
M  V30 2530 H 331.653 -1.97777 6.14035 0
M  V30 2531 P 333.414 -1.25109 8.70152 0
M  V30 2532 O 334.836 -1.35274 9.21221 0
M  V30 2533 O 333.054 -0.0769065 7.84762 0
M  V30 2534 O 333.091 -2.55232 7.81161 0
M  V30 2535 C 332.931 -3.79939 8.58154 0
M  V30 2536 C 333.471 -4.94023 7.72785 0
M  V30 2537 O 332.415 -5.18726 6.91205 0
M  V30 2538 C 334.689 -4.69597 6.85231 0
M  V30 2539 O 335.427 -5.83832 6.51337 0
M  V30 2540 C 334.02 -3.96706 5.66633 0
M  V30 2541 O 334.819 -4.15414 4.49689 0
M  V30 2542 C 332.683 -4.66153 5.59313 0
M  V30 2543 H 332.715 -5.47679 4.85214 0
M  V30 2544 H 333.898 -2.89008 5.86566 0
M  V30 2545 H 335.382 -4.0121 7.36511 0
M  V30 2546 H 333.688 -5.80182 8.37584 0
M  V30 2547 H 333.498 -3.73517 9.52265 0
M  V30 2548 H 331.868 -3.97163 8.80359 0
M  V30 2549 H 334.507 -4.90969 4.01921 0
M  V30 2550 P 336.365 -5.75688 6.64379 0
M  V30 2551 O 337.787 -6.11849 7.01846 0
M  V30 2552 O 336.005 -4.30744 6.56026 0
M  V30 2553 O 336.042 -6.37042 5.19165 0
M  V30 2554 C 335.882 -7.83578 5.16515 0
M  V30 2555 C 336.422 -8.33398 3.83019 0
M  V30 2556 O 335.366 -8.10074 3.01034 0
M  V30 2557 C 337.64 -7.65514 3.2257 0
M  V30 2558 O 338.378 -8.4329 2.32297 0
M  V30 2559 C 336.971 -6.40075 2.62207 0
M  V30 2560 O 337.77 -5.92589 1.53712 0
M  V30 2561 C 335.634 -6.9454 2.18503 0
M  V30 2562 H 335.666 -7.23063 1.12091 0
M  V30 2563 H 336.849 -5.6025 3.37201 0
M  V30 2564 H 338.333 -7.35707 4.02681 0
M  V30 2565 H 336.639 -9.40912 3.9095 0
M  V30 2566 H 336.449 -8.29056 5.99158 0
M  V30 2567 H 334.819 -8.10073 5.25882 0
M  V30 2568 H 337.458 -6.30324 0.726794 0
M  V30 2569 P 339.316 -8.4349 2.47671 0
M  V30 2570 O 340.738 -8.94167 2.5964 0
M  V30 2571 O 338.956 -7.1704 3.19006 0
M  V30 2572 O 338.993 -8.16596 0.923387 0
M  V30 2573 C 338.833 -9.38437 0.108857 0
M  V30 2574 C 339.373 -9.08175 -1.28353 0
M  V30 2575 O 338.317 -8.44229 -1.84713 0
M  V30 2576 C 340.591 -8.18386 -1.42505 0
M  V30 2577 O 341.329 -8.3501 -2.60497 0
M  V30 2578 C 339.922 -6.80225 -1.25468 0
M  V30 2579 O 340.721 -5.81621 -1.91066 0
M  V30 2580 C 338.585 -7.02416 -1.9168 0
M  V30 2581 H 338.617 -6.6888 -2.96621 0
M  V30 2582 H 339.8 -6.53617 -0.192223 0
M  V30 2583 H 341.284 -8.36622 -0.589963 0
M  V30 2584 H 339.59 -10.0291 -1.79807 0
M  V30 2585 H 339.4 -10.2138 0.558219 0
M  V30 2586 H 337.77 -9.6579 0.0444202 0
M  V30 2587 H 340.409 -5.69556 -2.79637 0
M  V30 2588 P 342.266 -8.4349 -2.47671 0
M  V30 2589 O 343.688 -8.92593 -2.65 0
M  V30 2590 O 341.906 -7.7568 -1.19296 0
M  V30 2591 O 341.943 -7.36886 -3.63805 0
M  V30 2592 C 341.783 -7.95349 -4.982 0
M  V30 2593 C 342.323 -6.94612 -5.98974 0
M  V30 2594 O 341.267 -6.10347 -6.11815 0
M  V30 2595 C 343.541 -6.11426 -5.62335 0
M  V30 2596 O 344.279 -5.6162 -6.70584 0
M  V30 2597 C 342.872 -5.04409 -4.73308 0
M  V30 2598 O 343.671 -3.85992 -4.75183 0
M  V30 2599 C 341.535 -4.8728 -5.41006 0
M  V30 2600 H 341.567 -4.02333 -6.11157 0
M  V30 2601 H 342.75 -5.39466 -3.69543 0
M  V30 2602 H 344.234 -6.71916 -5.01943 0
M  V30 2603 H 342.54 -7.4649 -6.93477 0
M  V30 2604 H 342.35 -8.89416 -5.05237 0
M  V30 2605 H 340.72 -8.14876 -5.18409 0
M  V30 2606 H 343.359 -3.27957 -5.4317 0
M  V30 2607 P 345.217 -5.75688 -6.64379 0
M  V30 2608 O 346.639 -6.07627 -7.05504 0
M  V30 2609 O 344.857 -5.88047 -5.19722 0
M  V30 2610 O 344.894 -4.2322 -7.04443 0
M  V30 2611 C 344.734 -3.99743 -8.4911 0
M  V30 2612 C 345.274 -2.60516 -8.79425 0
M  V30 2613 O 344.218 -1.82684 -8.4467 0
M  V30 2614 C 346.492 -2.10343 -8.03628 0
M  V30 2615 O 347.23 -1.09919 -8.67766 0
M  V30 2616 C 345.823 -1.68446 -6.70876 0
M  V30 2617 O 346.622 -0.678137 -6.08433 0
M  V30 2618 C 344.486 -1.17436 -7.18567 0
M  V30 2619 H 344.518 -0.0804732 -7.31656 0
M  V30 2620 H 345.701 -2.54037 -6.02537 0
M  V30 2621 H 347.185 -2.93881 -7.85526 0
M  V30 2622 H 345.491 -2.53065 -9.86973 0
M  V30 2623 H 345.301 -4.75072 -9.05887 0
M  V30 2624 H 343.671 -4.05244 -8.76668 0
M  V30 2625 H 346.31 0.177647 -6.34251 0
M  V30 2626 P 348.167 -1.25109 -8.70152 0
M  V30 2627 O 349.589 -1.29744 -9.22016 0
M  V30 2628 O 347.807 -2.13714 -7.55141 0
M  V30 2629 O 347.844 0.248149 -8.21425 0
M  V30 2630 C 347.684 1.22779 -9.30434 0
M  V30 2631 C 348.224 2.56293 -8.80664 0
M  V30 2632 O 347.168 3.02979 -8.09349 0
M  V30 2633 C 349.442 2.57523 -7.89775 0
M  V30 2634 O 350.18 3.7668 -7.89438 0
M  V30 2635 C 348.773 2.20997 -6.55446 0
M  V30 2636 O 349.572 2.71895 -5.48509 0
M  V30 2637 C 347.436 2.89693 -6.67988 0
M  V30 2638 H 347.468 3.88793 -6.19859 0
M  V30 2639 H 348.651 1.12046 -6.44229 0
M  V30 2640 H 350.135 1.7746 -8.19711 0
M  V30 2641 H 348.441 3.20706 -9.67112 0
M  V30 2642 H 348.251 0.901032 -10.1892 0
M  V30 2643 H 346.621 1.33049 -9.56592 0
M  V30 2644 H 349.26 3.57847 -5.23962 0
M  V30 2645 P 351.118 3.65191 -7.99657 0
M  V30 2646 O 352.54 3.89332 -8.45794 0
M  V30 2647 O 350.758 2.28472 -7.50807 0
M  V30 2648 O 350.795 4.64972 -6.77611 0
M  V30 2649 C 350.635 6.06319 -7.16352 0
M  V30 2650 C 351.175 6.91731 -6.02299 0
M  V30 2651 O 350.119 6.92449 -5.17064 0
M  V30 2652 C 352.393 6.43627 -5.25174 0
M  V30 2653 O 353.131 7.43686 -4.60469 0
M  V30 2654 C 351.724 5.40275 -4.31916 0
M  V30 2655 O 352.523 5.25279 -3.14438 0
M  V30 2656 C 350.387 6.04847 -4.05327 0
M  V30 2657 H 350.419 6.62195 -3.11261 0
M  V30 2658 H 351.602 4.42556 -4.81383 0
M  V30 2659 H 353.086 5.92458 -5.93643 0
M  V30 2660 H 351.392 7.92655 -6.402 0
M  V30 2661 H 351.202 6.26671 -8.0846 0
M  V30 2662 H 349.572 6.29101 -7.32804 0
M  V30 2663 H 352.211 5.84315 -2.47318 0
M  V30 2664 P 354.068 7.39546 -4.75277 0
M  V30 2665 O 355.49 7.84798 -5.01039 0
M  V30 2666 O 353.708 5.9812 -5.08098 0
M  V30 2667 O 353.745 7.57503 -3.1866 0
M  V30 2668 C 353.585 8.97357 -2.74833 0
M  V30 2669 C 354.125 9.07548 -1.32709 0
M  V30 2670 O 353.069 8.62072 -0.606159 0
M  V30 2671 C 355.343 8.25383 -0.938334 0
M  V30 2672 O 356.081 8.74577 0.146954 0
M  V30 2673 C 354.674 6.8802 -0.712559 0
M  V30 2674 O 355.473 6.1189 0.194655 0
M  V30 2675 C 353.337 7.27966 -0.139777 0
M  V30 2676 H 353.369 7.25354 0.961601 0
M  V30 2677 H 354.552 6.32557 -1.65702 0
M  V30 2678 H 356.036 8.19355 -1.79097 0
M  V30 2679 H 354.342 10.1294 -1.10029 0
M  V30 2680 H 354.152 9.64276 -3.41316 0
M  V30 2681 H 352.522 9.25417 -2.76357 0
M  V30 2682 H 355.161 6.25267 1.07847 0
M  V30 2683 P 357.019 8.791 1.66284e-12 0
M  V30 2684 O 358.441 9.31096 0.027933 0
M  V30 2685 O 356.659 7.77869 -1.04071 0
M  V30 2686 O 356.696 8.09533 1.41463 0
M  V30 2687 C 356.536 9.0349 2.53943 0
M  V30 2688 C 357.076 8.35226 3.79016 0
M  V30 2689 O 356.02 7.57992 4.15078 0
M  V30 2690 C 358.294 7.45087 3.67298 0
M  V30 2691 O 359.032 7.27796 4.85194 0
M  V30 2692 C 357.625 6.17323 3.12027 0
M  V30 2693 O 358.424 5.04231 3.47188 0
M  V30 2694 C 356.288 6.19961 3.81809 0
M  V30 2695 H 356.32 5.58218 4.73051 0
M  V30 2696 H 357.503 6.21726 2.02589 0
M  V30 2697 H 358.987 7.86112 2.9231 0
M  V30 2698 H 357.293 9.11627 4.55076 0
M  V30 2699 H 357.103 9.9573 2.34194 0
M  V30 2700 H 355.473 9.2792 2.67832 0
M  V30 2701 H 358.112 4.67702 4.28772 0
M  V30 2702 P 359.97 7.39546 4.75277 0
M  V30 2703 O 361.392 7.81777 5.05738 0
M  V30 2704 O 359.61 7.1065 3.32998 0
M  V30 2705 O 359.647 6.04542 5.56673 0
M  V30 2706 C 359.487 6.22772 7.02095 0
M  V30 2707 C 360.027 4.97725 7.70406 0
M  V30 2708 O 358.971 4.13256 7.58987 0
M  V30 2709 C 361.245 4.28231 7.11815 0
M  V30 2710 O 361.983 3.49945 8.01648 0
M  V30 2711 C 360.576 3.5063 5.96244 0
M  V30 2712 O 361.375 2.36482 5.64681 0
M  V30 2713 C 359.239 3.15122 6.56374 0
M  V30 2714 H 359.271 2.13853 6.99751 0
M  V30 2715 H 360.454 4.13501 5.06559 0
M  V30 2716 H 361.938 5.03285 6.70911 0
M  V30 2717 H 360.244 5.20877 8.75697 0
M  V30 2718 H 360.054 7.11046 7.35349 0
M  V30 2719 H 358.424 6.35815 7.26986 0
M  V30 2720 H 361.063 1.61644 6.13565 0
M  V30 2721 P 362.92 3.65191 7.99657 0
M  V30 2722 O 364.342 3.8425 8.48115 0
M  V30 2723 O 362.56 4.17805 6.64342 0
M  V30 2724 O 362.597 2.07613 7.95143 0
M  V30 2725 C 362.437 1.44328 9.27336 0
M  V30 2726 C 362.977 0.0220036 9.17197 0
M  V30 2727 O 361.921 -0.626867 8.61923 0
M  V30 2728 C 364.195 -0.24586 8.30336 0
M  V30 2729 O 364.933 -1.39011 8.63583 0
M  V30 2730 C 363.526 -0.273849 6.91158 0
M  V30 2731 O 364.325 -1.06348 6.02892 0
M  V30 2732 C 362.189 -0.897649 7.22545 0
M  V30 2733 H 362.221 -1.9841 7.04286 0
M  V30 2734 H 363.404 0.739928 6.497 0
M  V30 2735 H 364.888 0.60668 8.36503 0
M  V30 2736 H 363.194 -0.352479 10.1829 0
M  V30 2737 H 363.004 2.00611 10.0304 0
M  V30 2738 H 361.374 1.41843 9.55327 0
M  V30 2739 H 364.013 -1.95734 6.03555 0
M  V30 2740 P 365.871 -1.25109 8.70152 0
M  V30 2741 O 367.293 -1.35274 9.21221 0
M  V30 2742 O 365.511 -0.0769065 7.84762 0
M  V30 2743 O 365.548 -2.55232 7.81161 0
M  V30 2744 C 365.388 -3.79939 8.58154 0
M  V30 2745 C 365.928 -4.94023 7.72785 0
M  V30 2746 O 364.872 -5.18726 6.91205 0
M  V30 2747 C 367.146 -4.69597 6.85231 0
M  V30 2748 O 367.884 -5.83832 6.51337 0
M  V30 2749 C 366.477 -3.96706 5.66633 0
M  V30 2750 O 367.276 -4.15414 4.49689 0
M  V30 2751 C 365.14 -4.66153 5.59313 0
M  V30 2752 H 365.172 -5.47679 4.85214 0
M  V30 2753 H 366.355 -2.89008 5.86566 0
M  V30 2754 H 367.839 -4.0121 7.36511 0
M  V30 2755 H 366.145 -5.80182 8.37584 0
M  V30 2756 H 365.955 -3.73517 9.52265 0
M  V30 2757 H 364.325 -3.97163 8.80359 0
M  V30 2758 H 366.964 -4.90969 4.01921 0
M  V30 2759 P 368.821 -5.75688 6.64379 0
M  V30 2760 O 370.243 -6.11849 7.01846 0
M  V30 2761 O 368.461 -4.30744 6.56026 0
M  V30 2762 O 368.498 -6.37042 5.19165 0
M  V30 2763 C 368.338 -7.83578 5.16515 0
M  V30 2764 C 368.878 -8.33398 3.83019 0
M  V30 2765 O 367.822 -8.10074 3.01034 0
M  V30 2766 C 370.096 -7.65514 3.2257 0
M  V30 2767 O 370.834 -8.4329 2.32297 0
M  V30 2768 C 369.427 -6.40075 2.62207 0
M  V30 2769 O 370.226 -5.92589 1.53712 0
M  V30 2770 C 368.09 -6.9454 2.18503 0
M  V30 2771 H 368.122 -7.23063 1.12091 0
M  V30 2772 H 369.305 -5.6025 3.37201 0
M  V30 2773 H 370.789 -7.35707 4.02681 0
M  V30 2774 H 369.095 -9.40912 3.9095 0
M  V30 2775 H 368.905 -8.29056 5.99158 0
M  V30 2776 H 367.275 -8.10073 5.25882 0
M  V30 2777 H 369.914 -6.30324 0.726794 0
M  V30 2778 P 371.772 -8.4349 2.47671 0
M  V30 2779 O 373.194 -8.94167 2.5964 0
M  V30 2780 O 371.412 -7.1704 3.19006 0
M  V30 2781 O 371.449 -8.16596 0.923387 0
M  V30 2782 C 371.289 -9.38437 0.108857 0
M  V30 2783 C 371.829 -9.08175 -1.28353 0
M  V30 2784 O 370.773 -8.44229 -1.84713 0
M  V30 2785 C 373.047 -8.18386 -1.42505 0
M  V30 2786 O 373.785 -8.3501 -2.60497 0
M  V30 2787 C 372.378 -6.80225 -1.25468 0
M  V30 2788 O 373.177 -5.81621 -1.91066 0
M  V30 2789 C 371.041 -7.02416 -1.9168 0
M  V30 2790 H 371.073 -6.6888 -2.96621 0
M  V30 2791 H 372.256 -6.53617 -0.192223 0
M  V30 2792 H 373.74 -8.36622 -0.589963 0
M  V30 2793 H 372.046 -10.0291 -1.79807 0
M  V30 2794 H 371.856 -10.2138 0.558219 0
M  V30 2795 H 370.226 -9.6579 0.0444202 0
M  V30 2796 H 372.865 -5.69556 -2.79637 0
M  V30 2797 P 374.722 -8.4349 -2.47671 0
M  V30 2798 O 376.144 -8.92593 -2.65 0
M  V30 2799 O 374.362 -7.7568 -1.19296 0
M  V30 2800 O 374.399 -7.36886 -3.63805 0
M  V30 2801 C 374.239 -7.95349 -4.982 0
M  V30 2802 C 374.779 -6.94612 -5.98974 0
M  V30 2803 O 373.723 -6.10347 -6.11815 0
M  V30 2804 C 375.997 -6.11426 -5.62335 0
M  V30 2805 O 376.735 -5.6162 -6.70584 0
M  V30 2806 C 375.328 -5.04409 -4.73308 0
M  V30 2807 O 376.127 -3.85992 -4.75183 0
M  V30 2808 C 373.991 -4.8728 -5.41006 0
M  V30 2809 H 374.023 -4.02333 -6.11157 0
M  V30 2810 H 375.206 -5.39466 -3.69543 0
M  V30 2811 H 376.69 -6.71916 -5.01943 0
M  V30 2812 H 374.996 -7.4649 -6.93477 0
M  V30 2813 H 374.806 -8.89416 -5.05237 0
M  V30 2814 H 373.176 -8.14876 -5.18409 0
M  V30 2815 H 375.815 -3.27957 -5.4317 0
M  V30 2816 P 377.673 -5.75688 -6.64379 0
M  V30 2817 O 379.095 -6.07627 -7.05504 0
M  V30 2818 O 377.313 -5.88047 -5.19722 0
M  V30 2819 O 377.35 -4.2322 -7.04443 0
M  V30 2820 C 377.19 -3.99743 -8.4911 0
M  V30 2821 C 377.73 -2.60516 -8.79425 0
M  V30 2822 O 376.674 -1.82684 -8.4467 0
M  V30 2823 C 378.948 -2.10343 -8.03628 0
M  V30 2824 O 379.686 -1.09919 -8.67766 0
M  V30 2825 C 378.279 -1.68446 -6.70876 0
M  V30 2826 O 379.078 -0.678137 -6.08433 0
M  V30 2827 C 376.942 -1.17436 -7.18567 0
M  V30 2828 H 376.974 -0.0804732 -7.31656 0
M  V30 2829 H 378.157 -2.54037 -6.02537 0
M  V30 2830 H 379.641 -2.93881 -7.85526 0
M  V30 2831 H 377.947 -2.53065 -9.86973 0
M  V30 2832 H 377.757 -4.75072 -9.05887 0
M  V30 2833 H 376.127 -4.05244 -8.76668 0
M  V30 2834 H 378.766 0.177647 -6.34251 0
M  V30 2835 P 380.624 -1.25109 -8.70152 0
M  V30 2836 O 382.046 -1.29744 -9.22016 0
M  V30 2837 O 380.264 -2.13714 -7.55141 0
M  V30 2838 O 380.301 0.248149 -8.21425 0
M  V30 2839 C 380.141 1.22779 -9.30434 0
M  V30 2840 C 380.681 2.56293 -8.80664 0
M  V30 2841 O 379.625 3.02979 -8.09349 0
M  V30 2842 C 381.899 2.57523 -7.89775 0
M  V30 2843 O 382.637 3.7668 -7.89438 0
M  V30 2844 C 381.23 2.20997 -6.55446 0
M  V30 2845 O 382.029 2.71895 -5.48509 0
M  V30 2846 C 379.893 2.89693 -6.67988 0
M  V30 2847 H 379.925 3.88793 -6.19859 0
M  V30 2848 H 381.108 1.12046 -6.44229 0
M  V30 2849 H 382.592 1.7746 -8.19711 0
M  V30 2850 H 380.898 3.20706 -9.67112 0
M  V30 2851 H 380.708 0.901032 -10.1892 0
M  V30 2852 H 379.078 1.33049 -9.56592 0
M  V30 2853 H 381.717 3.57847 -5.23962 0
M  V30 2854 P 383.574 3.65191 -7.99657 0
M  V30 2855 O 384.996 3.89332 -8.45794 0
M  V30 2856 O 383.214 2.28472 -7.50807 0
M  V30 2857 O 383.251 4.64972 -6.77611 0
M  V30 2858 C 383.091 6.06319 -7.16352 0
M  V30 2859 C 383.631 6.91731 -6.02299 0
M  V30 2860 O 382.575 6.92449 -5.17064 0
M  V30 2861 C 384.849 6.43627 -5.25174 0
M  V30 2862 O 385.587 7.43686 -4.60469 0
M  V30 2863 C 384.18 5.40275 -4.31916 0
M  V30 2864 O 384.979 5.25279 -3.14438 0
M  V30 2865 C 382.843 6.04847 -4.05327 0
M  V30 2866 H 382.875 6.62195 -3.11261 0
M  V30 2867 H 384.058 4.42556 -4.81383 0
M  V30 2868 H 385.542 5.92458 -5.93643 0
M  V30 2869 H 383.848 7.92655 -6.402 0
M  V30 2870 H 383.658 6.26671 -8.0846 0
M  V30 2871 H 382.028 6.29101 -7.32804 0
M  V30 2872 H 384.667 5.84315 -2.47318 0
M  V30 2873 P 386.525 7.39546 -4.75277 0
M  V30 2874 O 387.947 7.84798 -5.01039 0
M  V30 2875 O 386.165 5.9812 -5.08098 0
M  V30 2876 O 386.202 7.57503 -3.1866 0
M  V30 2877 C 386.042 8.97357 -2.74833 0
M  V30 2878 C 386.582 9.07548 -1.32709 0
M  V30 2879 O 385.526 8.62072 -0.606159 0
M  V30 2880 C 387.8 8.25383 -0.938334 0
M  V30 2881 O 388.538 8.74577 0.146954 0
M  V30 2882 C 387.131 6.8802 -0.712559 0
M  V30 2883 O 387.93 6.1189 0.194655 0
M  V30 2884 C 385.794 7.27966 -0.139777 0
M  V30 2885 H 385.826 7.25354 0.961601 0
M  V30 2886 H 387.009 6.32557 -1.65702 0
M  V30 2887 H 388.493 8.19355 -1.79097 0
M  V30 2888 H 386.799 10.1294 -1.10029 0
M  V30 2889 H 386.609 9.64276 -3.41316 0
M  V30 2890 H 384.979 9.25417 -2.76357 0
M  V30 2891 H 387.618 6.25267 1.07847 0
M  V30 2892 P 389.475 8.791 1.973e-12 0
M  V30 2893 O 390.897 9.31096 0.027933 0
M  V30 2894 O 389.115 7.77869 -1.04071 0
M  V30 2895 O 389.152 8.09533 1.41463 0
M  V30 2896 C 388.992 9.0349 2.53943 0
M  V30 2897 C 389.532 8.35226 3.79016 0
M  V30 2898 O 388.476 7.57992 4.15078 0
M  V30 2899 C 390.75 7.45087 3.67298 0
M  V30 2900 O 391.488 7.27796 4.85194 0
M  V30 2901 C 390.081 6.17323 3.12027 0
M  V30 2902 O 390.88 5.04231 3.47188 0
M  V30 2903 C 388.744 6.19961 3.81809 0
M  V30 2904 H 388.776 5.58218 4.73051 0
M  V30 2905 H 389.959 6.21726 2.02589 0
M  V30 2906 H 391.443 7.86112 2.9231 0
M  V30 2907 H 389.749 9.11627 4.55076 0
M  V30 2908 H 389.559 9.9573 2.34194 0
M  V30 2909 H 387.929 9.2792 2.67832 0
M  V30 2910 H 390.568 4.67702 4.28772 0
M  V30 2911 P 392.426 7.39546 4.75277 0
M  V30 2912 O 393.848 7.81777 5.05738 0
M  V30 2913 O 392.066 7.1065 3.32998 0
M  V30 2914 O 392.103 6.04542 5.56673 0
M  V30 2915 C 391.943 6.22772 7.02095 0
M  V30 2916 C 392.483 4.97725 7.70406 0
M  V30 2917 O 391.427 4.13256 7.58987 0
M  V30 2918 C 393.701 4.28231 7.11815 0
M  V30 2919 O 394.439 3.49945 8.01648 0
M  V30 2920 C 393.032 3.5063 5.96244 0
M  V30 2921 O 393.831 2.36482 5.64681 0
M  V30 2922 C 391.695 3.15122 6.56374 0
M  V30 2923 H 391.727 2.13853 6.99751 0
M  V30 2924 H 392.91 4.13501 5.06559 0
M  V30 2925 H 394.394 5.03285 6.70911 0
M  V30 2926 H 392.7 5.20877 8.75697 0
M  V30 2927 H 392.51 7.11046 7.35349 0
M  V30 2928 H 390.88 6.35815 7.26986 0
M  V30 2929 H 393.519 1.61644 6.13565 0
M  V30 2930 P 395.376 3.65191 7.99657 0
M  V30 2931 O 396.798 3.8425 8.48115 0
M  V30 2932 O 395.016 4.17805 6.64342 0
M  V30 2933 O 395.053 2.07613 7.95143 0
M  V30 2934 C 394.893 1.44328 9.27336 0
M  V30 2935 C 395.433 0.0220036 9.17197 0
M  V30 2936 O 394.377 -0.626867 8.61923 0
M  V30 2937 C 396.651 -0.24586 8.30336 0
M  V30 2938 O 397.389 -1.39011 8.63583 0
M  V30 2939 C 395.982 -0.273849 6.91158 0
M  V30 2940 O 396.781 -1.06348 6.02892 0
M  V30 2941 C 394.645 -0.897649 7.22545 0
M  V30 2942 H 394.677 -1.9841 7.04286 0
M  V30 2943 H 395.86 0.739928 6.497 0
M  V30 2944 H 397.344 0.60668 8.36503 0
M  V30 2945 H 395.65 -0.352479 10.1829 0
M  V30 2946 H 395.46 2.00611 10.0304 0
M  V30 2947 H 393.83 1.41843 9.55327 0
M  V30 2948 H 396.469 -1.95734 6.03555 0
M  V30 2949 P 398.327 -1.25109 8.70152 0
M  V30 2950 O 399.749 -1.35274 9.21221 0
M  V30 2951 O 397.967 -0.0769065 7.84762 0
M  V30 2952 O 398.004 -2.55232 7.81161 0
M  V30 2953 C 397.844 -3.79939 8.58154 0
M  V30 2954 C 398.384 -4.94023 7.72785 0
M  V30 2955 O 397.328 -5.18726 6.91205 0
M  V30 2956 C 399.602 -4.69597 6.85231 0
M  V30 2957 O 400.34 -5.83832 6.51337 0
M  V30 2958 C 398.933 -3.96706 5.66633 0
M  V30 2959 O 399.732 -4.15414 4.49689 0
M  V30 2960 C 397.596 -4.66153 5.59313 0
M  V30 2961 H 397.628 -5.47679 4.85214 0
M  V30 2962 H 398.811 -2.89008 5.86566 0
M  V30 2963 H 400.295 -4.0121 7.36511 0
M  V30 2964 H 398.601 -5.80182 8.37584 0
M  V30 2965 H 398.411 -3.73517 9.52265 0
M  V30 2966 H 396.781 -3.97163 8.80359 0
M  V30 2967 H 399.42 -4.90969 4.01921 0
M  V30 2968 P 401.278 -5.75688 6.64379 0
M  V30 2969 O 402.7 -6.11849 7.01846 0
M  V30 2970 O 400.918 -4.30744 6.56026 0
M  V30 2971 O 400.955 -6.37042 5.19165 0
M  V30 2972 C 400.795 -7.83578 5.16515 0
M  V30 2973 C 401.335 -8.33398 3.83019 0
M  V30 2974 O 400.279 -8.10074 3.01034 0
M  V30 2975 C 402.553 -7.65514 3.2257 0
M  V30 2976 O 403.291 -8.4329 2.32297 0
M  V30 2977 C 401.884 -6.40075 2.62207 0
M  V30 2978 O 402.683 -5.92589 1.53712 0
M  V30 2979 C 400.547 -6.9454 2.18503 0
M  V30 2980 H 400.579 -7.23063 1.12091 0
M  V30 2981 H 401.762 -5.6025 3.37201 0
M  V30 2982 H 403.246 -7.35707 4.02681 0
M  V30 2983 H 401.552 -9.40912 3.9095 0
M  V30 2984 H 401.362 -8.29056 5.99158 0
M  V30 2985 H 399.732 -8.10073 5.25882 0
M  V30 2986 H 402.371 -6.30324 0.726794 0
M  V30 2987 P 404.228 -8.4349 2.47671 0
M  V30 2988 O 405.65 -8.94167 2.5964 0
M  V30 2989 O 403.868 -7.1704 3.19006 0
M  V30 2990 O 403.905 -8.16596 0.923387 0
M  V30 2991 C 403.745 -9.38437 0.108857 0
M  V30 2992 C 404.285 -9.08175 -1.28353 0
M  V30 2993 O 403.229 -8.44229 -1.84713 0
M  V30 2994 C 405.503 -8.18386 -1.42505 0
M  V30 2995 O 406.241 -8.3501 -2.60497 0
M  V30 2996 C 404.834 -6.80225 -1.25468 0
M  V30 2997 O 405.633 -5.81621 -1.91066 0
M  V30 2998 C 403.497 -7.02416 -1.9168 0
M  V30 2999 H 403.529 -6.6888 -2.96621 0
M  V30 3000 H 404.712 -6.53617 -0.192223 0
M  V30 3001 H 406.196 -8.36622 -0.589963 0
M  V30 3002 H 404.502 -10.0291 -1.79807 0
M  V30 3003 H 404.312 -10.2138 0.558219 0
M  V30 3004 H 402.682 -9.6579 0.0444202 0
M  V30 3005 H 405.321 -5.69556 -2.79637 0
M  V30 3006 P 407.179 -8.4349 -2.47671 0
M  V30 3007 O 408.601 -8.92593 -2.65 0
M  V30 3008 O 406.819 -7.7568 -1.19296 0
M  V30 3009 O 406.856 -7.36886 -3.63805 0
M  V30 3010 C 406.696 -7.95349 -4.982 0
M  V30 3011 C 407.236 -6.94612 -5.98974 0
M  V30 3012 O 406.18 -6.10347 -6.11815 0
M  V30 3013 C 408.454 -6.11426 -5.62335 0
M  V30 3014 O 409.192 -5.6162 -6.70584 0
M  V30 3015 C 407.785 -5.04409 -4.73308 0
M  V30 3016 O 408.584 -3.85992 -4.75183 0
M  V30 3017 C 406.448 -4.8728 -5.41006 0
M  V30 3018 H 406.48 -4.02333 -6.11157 0
M  V30 3019 H 407.663 -5.39466 -3.69543 0
M  V30 3020 H 409.147 -6.71916 -5.01943 0
M  V30 3021 H 407.453 -7.4649 -6.93477 0
M  V30 3022 H 407.263 -8.89416 -5.05237 0
M  V30 3023 H 405.633 -8.14876 -5.18409 0
M  V30 3024 H 408.272 -3.27957 -5.4317 0
M  V30 3025 P 410.129 -5.75688 -6.64379 0
M  V30 3026 O 411.55 -6.07692 -7.0558 0
M  V30 3027 O 409.769 -5.88047 -5.19722 0
M  V30 3028 O 409.806 -4.2322 -7.04443 0
M  V30 3029 C 409.645 -3.99785 -8.49201 0
M  V30 3030 C 410.186 -2.60516 -8.79425 0
M  V30 3031 O 409.131 -1.82663 -8.44573 0
M  V30 3032 C 411.404 -2.10343 -8.03628 0
M  V30 3033 O 412.142 -1.09919 -8.67766 0
M  V30 3034 C 410.736 -1.68446 -6.70876 0
M  V30 3035 O 411.534 -0.684109 -6.08265 0
M  V30 3036 C 409.398 -1.17436 -7.18567 0
M  V30 3037 N 408.355 -1.52699 -6.23988 0
M  V30 3038 C 408.524 -2.578 -5.40574 0
M  V30 3039 N 407.497 -2.78966 -4.61193 0
M  V30 3040 C 406.612 -1.78725 -4.95769 0
M  V30 3041 C 405.345 -1.45727 -4.44207 0
M  V30 3042 N 404.746 -2.13994 -3.43613 0
M  V30 3043 N 404.78 -0.374977 -5.05812 0
M  V30 3044 C 405.382 0.345585 -6.05615 0
M  V30 3045 N 406.559 0.0787651 -6.56253 0
M  V30 3046 C 407.134 -1.00499 -5.96189 0
M  V30 3047 H 409.43 -0.0804622 -7.31556 0
M  V30 3048 H 410.613 -2.53396 -6.02698 0
M  V30 3049 H 412.096 -2.93881 -7.85526 0
M  V30 3050 H 410.402 -2.52078 -9.87225 0
M  V30 3051 H 410.212 -4.75072 -9.05887 0
M  V30 3052 H 408.582 -4.05244 -8.76668 0
M  V30 3053 H 404.846 1.20098 -6.4532 0
M  V30 3054 H 409.424 -3.18977 -5.3945 0
M  V30 3055 H 403.816 -1.84983 -3.10004 0
M  V30 3056 H 405.22 -2.9465 -3.00843 0
M  V30 3057 H 411.222 0.177619 -6.34151 0
M  V30 3058 P 413.08 -1.25109 -8.70152 0
M  V30 3059 O 414.502 -1.29744 -9.22016 0
M  V30 3060 O 412.72 -2.13714 -7.55141 0
M  V30 3061 O 412.757 0.248149 -8.21425 0
M  V30 3062 C 412.597 1.22779 -9.30434 0
M  V30 3063 C 413.137 2.56293 -8.80664 0
M  V30 3064 O 412.081 3.02979 -8.09349 0
M  V30 3065 C 414.355 2.57523 -7.89775 0
M  V30 3066 O 415.093 3.7668 -7.89438 0
M  V30 3067 C 413.686 2.20997 -6.55446 0
M  V30 3068 O 414.485 2.71895 -5.48509 0
M  V30 3069 C 412.349 2.89693 -6.67988 0
M  V30 3070 H 412.381 3.88793 -6.19859 0
M  V30 3071 H 413.564 1.12046 -6.44229 0
M  V30 3072 H 415.048 1.7746 -8.19711 0
M  V30 3073 H 413.354 3.20706 -9.67112 0
M  V30 3074 H 413.164 0.901032 -10.1892 0
M  V30 3075 H 411.534 1.33049 -9.56592 0
M  V30 3076 H 414.173 3.57847 -5.23962 0
M  V30 3077 P 416.03 3.65191 -7.99657 0
M  V30 3078 O 417.452 3.89416 -8.45976 0
M  V30 3079 O 415.67 2.28472 -7.50807 0
M  V30 3080 O 415.707 4.64972 -6.77611 0
M  V30 3081 C 415.547 6.06319 -7.16352 0
M  V30 3082 C 416.087 6.91655 -6.02234 0
M  V30 3083 O 415.032 6.92449 -5.17064 0
M  V30 3084 C 417.305 6.43627 -5.25174 0
M  V30 3085 O 418.043 7.43686 -4.60469 0
M  V30 3086 C 416.637 5.40275 -4.31916 0
M  V30 3087 O 417.435 5.25193 -3.14386 0
M  V30 3088 C 415.299 6.04847 -4.05327 0
M  V30 3089 N 414.256 5.04166 -3.98114 0
M  V30 3090 C 414.318 3.96049 -4.75587 0
M  V30 3091 N 413.273 3.15559 -4.54006 0
M  V30 3092 C 412.539 3.78802 -3.62491 0
M  V30 3093 C 411.233 3.476 -3.10071 0
M  V30 3094 O 410.5 2.51136 -3.37021 0
M  V30 3095 N 410.803 4.39088 -2.19956 0
M  V30 3096 C 411.552 5.53215 -1.81733 0
M  V30 3097 N 410.955 6.31963 -0.860928 0
M  V30 3098 N 412.705 5.86688 -2.32562 0
M  V30 3099 C 413.162 4.97525 -3.23407 0
M  V30 3100 H 415.331 6.62195 -3.11261 0
M  V30 3101 H 416.514 4.42488 -4.8131 0
M  V30 3102 H 417.999 5.93051 -5.9305 0
M  V30 3103 H 416.304 7.92655 -6.402 0
M  V30 3104 H 416.114 6.26671 -8.0846 0
M  V30 3105 H 414.483 6.29101 -7.32804 0
M  V30 3106 H 409.907 4.25523 -1.77604 0
M  V30 3107 H 415.114 3.75576 -5.47333 0
M  V30 3108 H 410.044 6.04684 -0.468946 0
M  V30 3109 H 411.42 7.18054 -0.542422 0
M  V30 3110 H 417.124 5.84223 -2.47279 0
M  V30 3111 P 418.981 7.39546 -4.75277 0
M  V30 3112 O 420.403 7.84798 -5.01039 0
M  V30 3113 O 418.621 5.9812 -5.08098 0
M  V30 3114 O 418.658 7.57503 -3.1866 0
M  V30 3115 C 418.498 8.97357 -2.74833 0
M  V30 3116 C 419.038 9.07548 -1.32709 0
M  V30 3117 O 417.982 8.62072 -0.606159 0
M  V30 3118 C 420.256 8.25383 -0.938334 0
M  V30 3119 O 420.994 8.74577 0.146954 0
M  V30 3120 C 419.587 6.8802 -0.712559 0
M  V30 3121 O 420.386 6.1189 0.194655 0
M  V30 3122 C 418.25 7.27966 -0.139777 0
M  V30 3123 H 418.282 7.25354 0.961601 0
M  V30 3124 H 419.465 6.32557 -1.65702 0
M  V30 3125 H 420.949 8.19355 -1.79097 0
M  V30 3126 H 419.255 10.1294 -1.10029 0
M  V30 3127 H 419.065 9.64276 -3.41316 0
M  V30 3128 H 417.435 9.25417 -2.76357 0
M  V30 3129 H 420.074 6.25267 1.07847 0
M  V30 3130 P 421.932 8.791 2.28317e-12 0
M  V30 3131 O 423.354 9.31096 0.027933 0
M  V30 3132 O 421.572 7.77869 -1.04071 0
M  V30 3133 O 421.609 8.09533 1.41463 0
M  V30 3134 C 421.449 9.0349 2.53943 0
M  V30 3135 C 421.989 8.35226 3.79016 0
M  V30 3136 O 420.933 7.57992 4.15078 0
M  V30 3137 C 423.207 7.45087 3.67298 0
M  V30 3138 O 423.945 7.27796 4.85194 0
M  V30 3139 C 422.538 6.17323 3.12027 0
M  V30 3140 O 423.337 5.04231 3.47188 0
M  V30 3141 C 421.201 6.19961 3.81809 0
M  V30 3142 H 421.233 5.58218 4.73051 0
M  V30 3143 H 422.416 6.21726 2.02589 0
M  V30 3144 H 423.9 7.86112 2.9231 0
M  V30 3145 H 422.206 9.11627 4.55076 0
M  V30 3146 H 422.016 9.9573 2.34194 0
M  V30 3147 H 420.386 9.2792 2.67832 0
M  V30 3148 H 423.025 4.67702 4.28772 0
M  V30 3149 P 424.882 7.39546 4.75277 0
M  V30 3150 O 426.304 7.81777 5.05738 0
M  V30 3151 O 424.522 7.1065 3.32998 0
M  V30 3152 O 424.559 6.04542 5.56673 0
M  V30 3153 C 424.399 6.22772 7.02095 0
M  V30 3154 C 424.939 4.97725 7.70406 0
M  V30 3155 O 423.883 4.13256 7.58987 0
M  V30 3156 C 426.157 4.28231 7.11815 0
M  V30 3157 O 426.895 3.49945 8.01648 0
M  V30 3158 C 425.488 3.5063 5.96244 0
M  V30 3159 O 426.287 2.36482 5.64681 0
M  V30 3160 C 424.151 3.15122 6.56374 0
M  V30 3161 H 424.183 2.13853 6.99751 0
M  V30 3162 H 425.366 4.13501 5.06559 0
M  V30 3163 H 426.85 5.03285 6.70911 0
M  V30 3164 H 425.156 5.20877 8.75697 0
M  V30 3165 H 424.966 7.11046 7.35349 0
M  V30 3166 H 423.336 6.35815 7.26986 0
M  V30 3167 H 425.975 1.61644 6.13565 0
M  V30 3168 P 427.833 3.65191 7.99657 0
M  V30 3169 O 429.255 3.8425 8.48115 0
M  V30 3170 O 427.473 4.17805 6.64342 0
M  V30 3171 O 427.51 2.07613 7.95143 0
M  V30 3172 C 427.35 1.44328 9.27336 0
M  V30 3173 C 427.89 0.0220036 9.17197 0
M  V30 3174 O 426.834 -0.626867 8.61923 0
M  V30 3175 C 429.108 -0.24586 8.30336 0
M  V30 3176 O 429.846 -1.39011 8.63583 0
M  V30 3177 C 428.439 -0.273849 6.91158 0
M  V30 3178 O 429.238 -1.06348 6.02892 0
M  V30 3179 C 427.102 -0.897649 7.22545 0
M  V30 3180 H 427.134 -1.9841 7.04286 0
M  V30 3181 H 428.317 0.739928 6.497 0
M  V30 3182 H 429.801 0.60668 8.36503 0
M  V30 3183 H 428.107 -0.352479 10.1829 0
M  V30 3184 H 427.917 2.00611 10.0304 0
M  V30 3185 H 426.287 1.41843 9.55327 0
M  V30 3186 H 428.926 -1.95734 6.03555 0
M  V30 3187 P 430.783 -1.25109 8.70152 0
M  V30 3188 O 432.204 -1.35288 9.2132 0
M  V30 3189 O 430.423 -0.0769065 7.84762 0
M  V30 3190 O 430.46 -2.55232 7.81161 0
M  V30 3191 C 430.299 -3.79979 8.58246 0
M  V30 3192 C 430.84 -4.94023 7.72785 0
M  V30 3193 O 429.785 -5.18666 6.91125 0
M  V30 3194 C 432.058 -4.69597 6.85231 0
M  V30 3195 O 432.796 -5.83832 6.51337 0
M  V30 3196 C 431.39 -3.96706 5.66633 0
M  V30 3197 O 432.188 -4.14896 4.5003 0
M  V30 3198 C 430.052 -4.66153 5.59313 0
M  V30 3199 N 429.009 -3.71582 5.24027 0
M  V30 3200 C 429.178 -2.39715 5.48833 0
M  V30 3201 N 428.151 -1.65863 5.12845 0
M  V30 3202 C 427.266 -2.57637 4.5973 0
M  V30 3203 C 425.999 -2.40278 4.01027 0
M  V30 3204 N 425.4 -1.19549 3.86744 0
M  V30 3205 N 425.434 -3.57711 3.59575 0
M  V30 3206 C 426.036 -4.80324 3.70476 0
M  V30 3207 N 427.213 -5.01121 4.23801 0
M  V30 3208 C 427.788 -3.84757 4.66372 0
M  V30 3209 H 430.084 -5.47604 4.85148 0
M  V30 3210 H 431.267 -2.8955 5.86187 0
M  V30 3211 H 432.75 -4.0121 7.36511 0
M  V30 3212 H 431.056 -5.81019 8.37003 0
M  V30 3213 H 430.866 -3.73517 9.52265 0
M  V30 3214 H 429.236 -3.97163 8.80359 0
M  V30 3215 H 425.5 -5.66348 3.3183 0
M  V30 3216 H 430.078 -1.98804 5.94332 0
M  V30 3217 H 424.47 -1.13147 3.4281 0
M  V30 3218 H 425.874 -0.344074 4.19692 0
M  V30 3219 H 431.876 -4.90891 4.01857 0
M  V30 3220 P 433.734 -5.75688 6.64379 0
M  V30 3221 O 435.155 -6.11915 7.01921 0
M  V30 3222 O 433.374 -4.30744 6.56026 0
M  V30 3223 O 433.411 -6.37042 5.19165 0
M  V30 3224 C 433.25 -7.83662 5.1657 0
M  V30 3225 C 433.791 -8.33398 3.83019 0
M  V30 3226 O 432.736 -8.0998 3.00999 0
M  V30 3227 C 435.009 -7.65514 3.2257 0
M  V30 3228 O 435.747 -8.4329 2.32297 0
M  V30 3229 C 434.341 -6.40075 2.62207 0
M  V30 3230 O 435.139 -5.92338 1.5428 0
M  V30 3231 C 433.003 -6.9454 2.18503 0
M  V30 3232 N 431.96 -5.95905 2.39948 0
M  V30 3233 C 432.129 -4.98383 3.32108 0
M  V30 3234 N 431.102 -4.16798 3.41761 0
M  V30 3235 C 430.217 -4.65287 2.47461 0
M  V30 3236 C 428.95 -4.18946 2.07461 0
M  V30 3237 N 428.351 -3.09661 2.60717 0
M  V30 3238 N 428.385 -4.95327 1.09101 0
M  V30 3239 C 428.987 -6.04369 0.519812 0
M  V30 3240 N 430.164 -6.50694 0.855982 0
M  V30 3241 C 430.739 -5.75818 1.84322 0
M  V30 3242 H 433.035 -7.22964 1.12076 0
M  V30 3243 H 434.218 -5.60502 3.36589 0
M  V30 3244 H 435.701 -7.35707 4.02681 0
M  V30 3245 H 434.007 -9.41302 3.90009 0
M  V30 3246 H 433.817 -8.29056 5.99158 0
M  V30 3247 H 432.187 -8.10073 5.25882 0
M  V30 3248 H 428.451 -6.55843 -0.270373 0
M  V30 3249 H 433.029 -4.88564 3.92502 0
M  V30 3250 H 427.421 -2.80523 2.27218 0
M  V30 3251 H 428.825 -2.55848 3.34465 0
M  V30 3252 H 434.827 -6.30224 0.72668 0
M  V30 3253 P 436.684 -8.4349 2.47671 0
M  V30 3254 O 438.105 -8.94263 2.59668 0
M  V30 3255 O 436.324 -7.1704 3.19006 0
M  V30 3256 O 436.361 -8.16596 0.923387 0
M  V30 3257 C 436.2 -9.38537 0.108869 0
M  V30 3258 C 436.741 -9.08175 -1.28353 0
M  V30 3259 O 435.686 -8.44131 -1.84692 0
M  V30 3260 C 437.959 -8.18386 -1.42505 0
M  V30 3261 O 438.697 -8.3501 -2.60497 0
M  V30 3262 C 437.291 -6.80225 -1.25468 0
M  V30 3263 O 438.089 -5.81716 -1.90454 0
M  V30 3264 C 435.953 -7.02416 -1.9168 0
M  V30 3265 N 434.91 -6.31033 -1.20314 0
M  V30 3266 C 435.079 -5.98817 0.0994088 0
M  V30 3267 N 434.052 -5.35403 0.621694 0
M  V30 3268 C 433.167 -5.25212 -0.43376 0
M  V30 3269 C 431.9 -4.64602 -0.519722 0
M  V30 3270 N 431.301 -4.01457 0.519136 0
M  V30 3271 N 431.335 -4.7568 -1.76013 0
M  V30 3272 C 431.937 -5.3653 -2.83017 0
M  V30 3273 N 433.114 -5.93676 -2.79782 0
M  V30 3274 C 433.689 -5.84061 -1.56249 0
M  V30 3275 H 435.985 -6.68789 -2.9658 0
M  V30 3276 H 437.168 -6.53498 -0.198729 0
M  V30 3277 H 438.651 -8.36622 -0.589963 0
M  V30 3278 H 436.957 -10.0273 -1.8081 0
M  V30 3279 H 436.767 -10.2138 0.558219 0
M  V30 3280 H 435.137 -9.6579 0.0444202 0
M  V30 3281 H 431.401 -5.37113 -3.77321 0
M  V30 3282 H 435.979 -6.23209 0.660562 0
M  V30 3283 H 430.371 -3.58834 0.394862 0
M  V30 3284 H 431.775 -3.96059 1.43048 0
M  V30 3285 H 437.777 -5.69466 -2.79593 0
M  V30 3286 P 439.635 -8.4349 -2.47671 0
M  V30 3287 O 441.057 -8.92593 -2.65 0
M  V30 3288 O 439.275 -7.7568 -1.19296 0
M  V30 3289 O 439.312 -7.36886 -3.63805 0
M  V30 3290 C 439.152 -7.95349 -4.982 0
M  V30 3291 C 439.692 -6.94612 -5.98974 0
M  V30 3292 O 438.636 -6.10347 -6.11815 0
M  V30 3293 C 440.91 -6.11426 -5.62335 0
M  V30 3294 O 441.648 -5.6162 -6.70584 0
M  V30 3295 C 440.241 -5.04409 -4.73308 0
M  V30 3296 O 441.04 -3.85992 -4.75183 0
M  V30 3297 C 438.904 -4.8728 -5.41006 0
M  V30 3298 H 438.936 -4.02333 -6.11157 0
M  V30 3299 H 440.119 -5.39466 -3.69543 0
M  V30 3300 H 441.603 -6.71916 -5.01943 0
M  V30 3301 H 439.909 -7.4649 -6.93477 0
M  V30 3302 H 439.719 -8.89416 -5.05237 0
M  V30 3303 H 438.089 -8.14876 -5.18409 0
M  V30 3304 H 440.728 -3.27957 -5.4317 0
M  V30 3305 P 442.586 -5.75688 -6.64379 0
M  V30 3306 O 444.007 -6.07692 -7.0558 0
M  V30 3307 O 442.226 -5.88047 -5.19722 0
M  V30 3308 O 442.263 -4.2322 -7.04443 0
M  V30 3309 C 442.102 -3.99785 -8.49201 0
M  V30 3310 C 442.643 -2.60516 -8.79425 0
M  V30 3311 O 441.588 -1.82663 -8.44573 0
M  V30 3312 C 443.861 -2.10343 -8.03628 0
M  V30 3313 O 444.599 -1.09919 -8.67766 0
M  V30 3314 C 443.193 -1.68446 -6.70876 0
M  V30 3315 O 443.991 -0.684109 -6.08265 0
M  V30 3316 C 441.855 -1.17436 -7.18567 0
M  V30 3317 N 440.812 -1.52699 -6.23988 0
M  V30 3318 C 440.981 -2.578 -5.40574 0
M  V30 3319 N 439.954 -2.78966 -4.61193 0
M  V30 3320 C 439.069 -1.78725 -4.95769 0
M  V30 3321 C 437.802 -1.45727 -4.44207 0
M  V30 3322 N 437.203 -2.13994 -3.43613 0
M  V30 3323 N 437.237 -0.374977 -5.05812 0
M  V30 3324 C 437.839 0.345585 -6.05615 0
M  V30 3325 N 439.016 0.0787651 -6.56253 0
M  V30 3326 C 439.591 -1.00499 -5.96189 0
M  V30 3327 H 441.887 -0.0804622 -7.31556 0
M  V30 3328 H 443.07 -2.53396 -6.02698 0
M  V30 3329 H 444.553 -2.93881 -7.85526 0
M  V30 3330 H 442.859 -2.52078 -9.87225 0
M  V30 3331 H 442.669 -4.75072 -9.05887 0
M  V30 3332 H 441.039 -4.05244 -8.76668 0
M  V30 3333 H 437.303 1.20098 -6.4532 0
M  V30 3334 H 441.881 -3.18977 -5.3945 0
M  V30 3335 H 436.273 -1.84983 -3.10004 0
M  V30 3336 H 437.677 -2.9465 -3.00843 0
M  V30 3337 H 443.679 0.177619 -6.34151 0
M  V30 3338 P 445.536 -1.25109 -8.70152 0
M  V30 3339 O 446.958 -1.29772 -9.22214 0
M  V30 3340 O 445.176 -2.13714 -7.55141 0
M  V30 3341 O 445.213 0.248149 -8.21425 0
M  V30 3342 C 445.053 1.22779 -9.30434 0
M  V30 3343 C 445.593 2.56265 -8.80568 0
M  V30 3344 O 444.538 3.02979 -8.09349 0
M  V30 3345 C 446.811 2.57523 -7.89775 0
M  V30 3346 O 447.549 3.7668 -7.89438 0
M  V30 3347 C 446.143 2.20997 -6.55446 0
M  V30 3348 O 446.941 2.71851 -5.48419 0
M  V30 3349 C 444.805 2.89693 -6.67988 0
M  V30 3350 N 443.762 2.08895 -6.07487 0
M  V30 3351 C 443.824 0.760559 -6.14209 0
M  V30 3352 N 442.779 0.200108 -5.52538 0
M  V30 3353 C 442.045 1.22692 -5.09742 0
M  V30 3354 C 440.739 1.24782 -4.48775 0
M  V30 3355 O 440.006 0.290617 -4.19294 0
M  V30 3356 N 440.309 2.50468 -4.22428 0
M  V30 3357 C 441.058 3.67142 -4.51974 0
M  V30 3358 N 440.461 4.85096 -4.14091 0
M  V30 3359 N 442.211 3.67821 -5.12831 0
M  V30 3360 C 442.668 2.43698 -5.4105 0
M  V30 3361 H 444.837 3.88793 -6.19859 0
M  V30 3362 H 446.02 1.12029 -6.4413 0
M  V30 3363 H 447.505 1.78279 -8.19533 0
M  V30 3364 H 445.81 3.20706 -9.67112 0
M  V30 3365 H 445.62 0.901032 -10.1892 0
M  V30 3366 H 443.989 1.33049 -9.56592 0
M  V30 3367 H 439.413 2.61953 -3.79465 0
M  V30 3368 H 444.62 0.200439 -6.63497 0
M  V30 3369 H 439.55 4.8334 -3.66367 0
M  V30 3370 H 440.926 5.7474 -4.33841 0
M  V30 3371 H 446.63 3.5779 -5.23879 0
M  V30 3372 P 448.487 3.65191 -7.99657 0
M  V30 3373 O 449.909 3.89332 -8.45794 0
M  V30 3374 O 448.127 2.28472 -7.50807 0
M  V30 3375 O 448.164 4.64972 -6.77611 0
M  V30 3376 C 448.004 6.06319 -7.16352 0
M  V30 3377 C 448.544 6.91731 -6.02299 0
M  V30 3378 O 447.488 6.92449 -5.17064 0
M  V30 3379 C 449.762 6.43627 -5.25174 0
M  V30 3380 O 450.5 7.43686 -4.60469 0
M  V30 3381 C 449.093 5.40275 -4.31916 0
M  V30 3382 O 449.892 5.25279 -3.14438 0
M  V30 3383 C 447.756 6.04847 -4.05327 0
M  V30 3384 H 447.788 6.62195 -3.11261 0
M  V30 3385 H 448.971 4.42556 -4.81383 0
M  V30 3386 H 450.455 5.92458 -5.93643 0
M  V30 3387 H 448.761 7.92655 -6.402 0
M  V30 3388 H 448.571 6.26671 -8.0846 0
M  V30 3389 H 446.941 6.29101 -7.32804 0
M  V30 3390 H 449.58 5.84315 -2.47318 0
M  V30 3391 P 451.437 7.39546 -4.75277 0
M  V30 3392 O 452.859 7.84798 -5.01039 0
M  V30 3393 O 451.077 5.9812 -5.08098 0
M  V30 3394 O 451.114 7.57503 -3.1866 0
M  V30 3395 C 450.954 8.97357 -2.74833 0
M  V30 3396 C 451.494 9.07548 -1.32709 0
M  V30 3397 O 450.438 8.62072 -0.606159 0
M  V30 3398 C 452.712 8.25383 -0.938334 0
M  V30 3399 O 453.45 8.74577 0.146954 0
M  V30 3400 C 452.043 6.8802 -0.712559 0
M  V30 3401 O 452.842 6.1189 0.194655 0
M  V30 3402 C 450.706 7.27966 -0.139777 0
M  V30 3403 H 450.738 7.25354 0.961601 0
M  V30 3404 H 451.921 6.32557 -1.65702 0
M  V30 3405 H 453.405 8.19355 -1.79097 0
M  V30 3406 H 451.711 10.1294 -1.10029 0
M  V30 3407 H 451.521 9.64276 -3.41316 0
M  V30 3408 H 449.891 9.25417 -2.76357 0
M  V30 3409 H 452.53 6.25267 1.07847 0
M  V30 3410 P 454.388 8.791 2.59334e-12 0
M  V30 3411 O 455.81 9.31096 0.027933 0
M  V30 3412 O 454.028 7.77869 -1.04071 0
M  V30 3413 O 454.065 8.09533 1.41463 0
M  V30 3414 C 453.905 9.0349 2.53943 0
M  V30 3415 C 454.445 8.35226 3.79016 0
M  V30 3416 O 453.389 7.57992 4.15078 0
M  V30 3417 C 455.663 7.45087 3.67298 0
M  V30 3418 O 456.401 7.27796 4.85194 0
M  V30 3419 C 454.994 6.17323 3.12027 0
M  V30 3420 O 455.793 5.04231 3.47188 0
M  V30 3421 C 453.657 6.19961 3.81809 0
M  V30 3422 H 453.689 5.58218 4.73051 0
M  V30 3423 H 454.872 6.21726 2.02589 0
M  V30 3424 H 456.356 7.86112 2.9231 0
M  V30 3425 H 454.662 9.11627 4.55076 0
M  V30 3426 H 454.472 9.9573 2.34194 0
M  V30 3427 H 452.842 9.2792 2.67832 0
M  V30 3428 H 455.481 4.67702 4.28772 0
M  V30 3429 P 457.338 7.39546 4.75277 0
M  V30 3430 O 458.739 7.89013 5.04841 0
M  V30 3431 O 456.96 7.16603 3.32298 0
M  V30 3432 O 457.015 6.04468 5.56605 0
M  V30 3433 C 456.855 6.22772 7.02095 0
M  V30 3434 C 457.395 4.97671 7.70322 0
M  V30 3435 O 456.339 4.13208 7.58899 0
M  V30 3436 C 458.612 4.28231 7.11815 0
M  V30 3437 O 459.351 3.49945 8.01648 0
M  V30 3438 C 457.945 3.5063 5.96244 0
M  V30 3439 O 458.743 2.36443 5.64589 0
M  V30 3440 C 456.607 3.15122 6.56374 0
M  V30 3441 N 455.564 3.22311 5.55692 0
M  V30 3442 C 454.529 2.32244 5.62437 0
M  V30 3443 O 454.568 1.43107 6.50341 0
M  V30 3444 N 453.517 2.40811 4.73368 0
M  V30 3445 C 453.565 3.344 3.77753 0
M  V30 3446 C 454.661 4.24712 3.66679 0
M  V30 3447 C 455.627 4.15625 4.58307 0
M  V30 3448 H 456.639 2.13823 6.99656 0
M  V30 3449 H 457.822 4.12931 5.06895 0
M  V30 3450 H 459.306 5.02674 6.71494 0
M  V30 3451 H 457.612 5.20001 8.76217 0
M  V30 3452 H 457.421 7.11046 7.35349 0
M  V30 3453 H 455.791 6.35749 7.26911 0
M  V30 3454 H 454.709 4.9828 2.86753 0
M  V30 3455 H 456.473 4.84464 4.54228 0
M  V30 3456 H 458.527 1.65592 6.23485 0
M  V30 3457 P 460.289 3.65191 7.99657 0
M  V30 3458 O 461.711 3.8425 8.48115 0
M  V30 3459 O 459.929 4.17805 6.64342 0
M  V30 3460 O 459.966 2.07613 7.95143 0
M  V30 3461 C 459.806 1.44328 9.27336 0
M  V30 3462 C 460.346 0.0220036 9.17197 0
M  V30 3463 O 459.29 -0.626867 8.61923 0
M  V30 3464 C 461.564 -0.24586 8.30336 0
M  V30 3465 O 462.302 -1.39011 8.63583 0
M  V30 3466 C 460.895 -0.273849 6.91158 0
M  V30 3467 O 461.694 -1.06348 6.02892 0
M  V30 3468 C 459.558 -0.897649 7.22545 0
M  V30 3469 H 459.59 -1.9841 7.04286 0
M  V30 3470 H 460.773 0.739928 6.497 0
M  V30 3471 H 462.257 0.60668 8.36503 0
M  V30 3472 H 460.563 -0.352479 10.1829 0
M  V30 3473 H 460.373 2.00611 10.0304 0
M  V30 3474 H 458.743 1.41843 9.55327 0
M  V30 3475 H 461.382 -1.95734 6.03555 0
M  V30 3476 P 463.239 -1.25109 8.70152 0
M  V30 3477 O 464.661 -1.35274 9.21221 0
M  V30 3478 O 462.879 -0.0769065 7.84762 0
M  V30 3479 O 462.916 -2.55232 7.81161 0
M  V30 3480 C 462.756 -3.79939 8.58154 0
M  V30 3481 C 463.296 -4.94023 7.72785 0
M  V30 3482 O 462.24 -5.18726 6.91205 0
M  V30 3483 C 464.514 -4.69597 6.85231 0
M  V30 3484 O 465.252 -5.83832 6.51337 0
M  V30 3485 C 463.845 -3.96706 5.66633 0
M  V30 3486 O 464.644 -4.15414 4.49689 0
M  V30 3487 C 462.508 -4.66153 5.59313 0
M  V30 3488 H 462.54 -5.47679 4.85214 0
M  V30 3489 H 463.723 -2.89008 5.86566 0
M  V30 3490 H 465.207 -4.0121 7.36511 0
M  V30 3491 H 463.513 -5.80182 8.37584 0
M  V30 3492 H 463.323 -3.73517 9.52265 0
M  V30 3493 H 461.693 -3.97163 8.80359 0
M  V30 3494 H 464.332 -4.90969 4.01921 0
M  V30 3495 P 466.19 -5.75688 6.64379 0
M  V30 3496 O 467.612 -6.11981 7.01997 0
M  V30 3497 O 465.83 -4.30744 6.56026 0
M  V30 3498 O 465.867 -6.37042 5.19165 0
M  V30 3499 C 465.707 -7.83578 5.16515 0
M  V30 3500 C 466.247 -8.33307 3.82977 0
M  V30 3501 O 465.192 -8.10074 3.01034 0
M  V30 3502 C 467.465 -7.65514 3.2257 0
M  V30 3503 O 468.203 -8.4329 2.32297 0
M  V30 3504 C 466.797 -6.40075 2.62207 0
M  V30 3505 O 467.595 -5.92492 1.53687 0
M  V30 3506 C 465.459 -6.9454 2.18503 0
M  V30 3507 N 464.416 -5.95905 2.39948 0
M  V30 3508 C 464.478 -5.13994 3.44742 0
M  V30 3509 N 463.433 -4.30684 3.46712 0
M  V30 3510 C 462.699 -4.65583 2.41086 0
M  V30 3511 C 461.393 -4.20877 1.99581 0
M  V30 3512 O 460.66 -3.35913 2.52616 0
M  V30 3513 N 460.963 -4.83271 0.873406 0
M  V30 3514 C 461.712 -5.82006 0.185129 0
M  V30 3515 N 461.115 -6.30619 -0.95439 0
M  V30 3516 N 462.865 -6.28443 0.578524 0
M  V30 3517 C 463.322 -5.68486 1.70138 0
M  V30 3518 H 465.491 -7.23063 1.12091 0
M  V30 3519 H 466.674 -5.60165 3.3715 0
M  V30 3520 H 468.159 -7.3611 4.01946 0
M  V30 3521 H 466.464 -9.40912 3.9095 0
M  V30 3522 H 466.274 -8.29056 5.99158 0
M  V30 3523 H 464.643 -8.10073 5.25882 0
M  V30 3524 H 460.067 -4.58323 0.505262 0
M  V30 3525 H 465.274 -5.14564 4.1935 0
M  V30 3526 H 460.204 -5.93402 -1.25364 0
M  V30 3527 H 461.58 -7.0425 -1.50254 0
M  V30 3528 H 467.284 -6.30224 0.72668 0
M  V30 3529 P 469.141 -8.4349 2.47671 0
M  V30 3530 O 470.563 -8.94167 2.5964 0
M  V30 3531 O 468.781 -7.1704 3.19006 0
M  V30 3532 O 468.818 -8.16596 0.923387 0
M  V30 3533 C 468.658 -9.38437 0.108857 0
M  V30 3534 C 469.198 -9.08175 -1.28353 0
M  V30 3535 O 468.142 -8.44229 -1.84713 0
M  V30 3536 C 470.416 -8.18386 -1.42505 0
M  V30 3537 O 471.154 -8.3501 -2.60497 0
M  V30 3538 C 469.747 -6.80225 -1.25468 0
M  V30 3539 O 470.546 -5.81621 -1.91066 0
M  V30 3540 C 468.41 -7.02416 -1.9168 0
M  V30 3541 H 468.442 -6.6888 -2.96621 0
M  V30 3542 H 469.625 -6.53617 -0.192223 0
M  V30 3543 H 471.109 -8.36622 -0.589963 0
M  V30 3544 H 469.415 -10.0291 -1.79807 0
M  V30 3545 H 469.225 -10.2138 0.558219 0
M  V30 3546 H 467.595 -9.6579 0.0444202 0
M  V30 3547 H 470.234 -5.69556 -2.79637 0
M  V30 3548 P 472.091 -8.4349 -2.47671 0
M  V30 3549 O 473.513 -8.92593 -2.65 0
M  V30 3550 O 471.731 -7.7568 -1.19296 0
M  V30 3551 O 471.768 -7.36886 -3.63805 0
M  V30 3552 C 471.608 -7.95349 -4.982 0
M  V30 3553 C 472.148 -6.94612 -5.98974 0
M  V30 3554 O 471.092 -6.10347 -6.11815 0
M  V30 3555 C 473.366 -6.11426 -5.62335 0
M  V30 3556 O 474.104 -5.6162 -6.70584 0
M  V30 3557 C 472.697 -5.04409 -4.73308 0
M  V30 3558 O 473.496 -3.85992 -4.75183 0
M  V30 3559 C 471.36 -4.8728 -5.41006 0
M  V30 3560 H 471.392 -4.02333 -6.11157 0
M  V30 3561 H 472.575 -5.39466 -3.69543 0
M  V30 3562 H 474.059 -6.71916 -5.01943 0
M  V30 3563 H 472.365 -7.4649 -6.93477 0
M  V30 3564 H 472.175 -8.89416 -5.05237 0
M  V30 3565 H 470.545 -8.14876 -5.18409 0
M  V30 3566 H 473.184 -3.27957 -5.4317 0
M  V30 3567 P 475.042 -5.75688 -6.64379 0
M  V30 3568 O 476.464 -6.07627 -7.05504 0
M  V30 3569 O 474.682 -5.88047 -5.19722 0
M  V30 3570 O 474.719 -4.2322 -7.04443 0
M  V30 3571 C 474.559 -3.99743 -8.4911 0
M  V30 3572 C 475.099 -2.60516 -8.79425 0
M  V30 3573 O 474.043 -1.82684 -8.4467 0
M  V30 3574 C 476.317 -2.10343 -8.03628 0
M  V30 3575 O 477.055 -1.09919 -8.67766 0
M  V30 3576 C 475.648 -1.68446 -6.70876 0
M  V30 3577 O 476.447 -0.678137 -6.08433 0
M  V30 3578 C 474.311 -1.17436 -7.18567 0
M  V30 3579 H 474.343 -0.0804732 -7.31656 0
M  V30 3580 H 475.526 -2.54037 -6.02537 0
M  V30 3581 H 477.01 -2.93881 -7.85526 0
M  V30 3582 H 475.316 -2.53065 -9.86973 0
M  V30 3583 H 475.126 -4.75072 -9.05887 0
M  V30 3584 H 473.496 -4.05244 -8.76668 0
M  V30 3585 H 476.135 0.177647 -6.34251 0
M  V30 3586 P 477.992 -1.25109 -8.70152 0
M  V30 3587 O 479.414 -1.29744 -9.22016 0
M  V30 3588 O 477.632 -2.13714 -7.55141 0
M  V30 3589 O 477.669 0.248149 -8.21425 0
M  V30 3590 C 477.509 1.22779 -9.30434 0
M  V30 3591 C 478.049 2.56293 -8.80664 0
M  V30 3592 O 476.993 3.02979 -8.09349 0
M  V30 3593 C 479.267 2.57523 -7.89775 0
M  V30 3594 O 480.005 3.7668 -7.89438 0
M  V30 3595 C 478.598 2.20997 -6.55446 0
M  V30 3596 O 479.397 2.71895 -5.48509 0
M  V30 3597 C 477.261 2.89693 -6.67988 0
M  V30 3598 H 477.293 3.88793 -6.19859 0
M  V30 3599 H 478.476 1.12046 -6.44229 0
M  V30 3600 H 479.96 1.7746 -8.19711 0
M  V30 3601 H 478.266 3.20706 -9.67112 0
M  V30 3602 H 478.076 0.901032 -10.1892 0
M  V30 3603 H 476.446 1.33049 -9.56592 0
M  V30 3604 H 479.085 3.57847 -5.23962 0
M  V30 3605 P 480.943 3.65191 -7.99657 0
M  V30 3606 O 482.365 3.89332 -8.45794 0
M  V30 3607 O 480.583 2.28472 -7.50807 0
M  V30 3608 O 480.62 4.64972 -6.77611 0
M  V30 3609 C 480.46 6.06319 -7.16352 0
M  V30 3610 C 481 6.91731 -6.02299 0
M  V30 3611 O 479.944 6.92449 -5.17064 0
M  V30 3612 C 482.218 6.43627 -5.25174 0
M  V30 3613 O 482.956 7.43686 -4.60469 0
M  V30 3614 C 481.549 5.40275 -4.31916 0
M  V30 3615 O 482.348 5.25279 -3.14438 0
M  V30 3616 C 480.212 6.04847 -4.05327 0
M  V30 3617 H 480.244 6.62195 -3.11261 0
M  V30 3618 H 481.427 4.42556 -4.81383 0
M  V30 3619 H 482.911 5.92458 -5.93643 0
M  V30 3620 H 481.217 7.92655 -6.402 0
M  V30 3621 H 481.027 6.26671 -8.0846 0
M  V30 3622 H 479.397 6.29101 -7.32804 0
M  V30 3623 H 482.036 5.84315 -2.47318 0
M  V30 3624 P 483.893 7.39546 -4.75277 0
M  V30 3625 O 485.315 7.84966 -5.01146 0
M  V30 3626 O 483.533 5.9812 -5.08098 0
M  V30 3627 O 483.57 7.57503 -3.1866 0
M  V30 3628 C 483.41 8.97357 -2.74833 0
M  V30 3629 C 483.95 9.0745 -1.32694 0
M  V30 3630 O 482.895 8.62072 -0.606159 0
M  V30 3631 C 485.168 8.25383 -0.938334 0
M  V30 3632 O 485.906 8.74577 0.146954 0
M  V30 3633 C 484.5 6.8802 -0.712559 0
M  V30 3634 O 485.298 6.11791 0.194623 0
M  V30 3635 C 483.162 7.27966 -0.139777 0
M  V30 3636 N 482.119 6.39368 -0.623421 0
M  V30 3637 C 482.181 5.90299 -1.85969 0
M  V30 3638 N 481.136 5.10919 -2.1133 0
M  V30 3639 C 480.402 5.14646 -1.0015 0
M  V30 3640 C 479.096 4.60057 -0.729219 0
M  V30 3641 O 478.363 3.93476 -1.47746 0
M  V30 3642 N 478.666 4.88302 0.523505 0
M  V30 3643 C 479.415 5.63646 1.46207 0
M  V30 3644 N 478.818 5.78186 2.69239 0
M  V30 3645 N 480.568 6.19285 1.21544 0
M  V30 3646 C 481.025 5.93392 -0.0308487 0
M  V30 3647 H 483.194 7.25354 0.961601 0
M  V30 3648 H 484.377 6.3246 -1.65676 0
M  V30 3649 H 485.862 8.19533 -1.78278 0
M  V30 3650 H 484.167 10.1294 -1.10029 0
M  V30 3651 H 483.977 9.64276 -3.41316 0
M  V30 3652 H 482.346 9.25417 -2.76357 0
M  V30 3653 H 477.77 4.53993 0.806451 0
M  V30 3654 H 482.977 6.11865 -2.57394 0
M  V30 3655 H 477.907 5.34046 2.87467 0
M  V30 3656 H 479.283 6.33391 3.42578 0
M  V30 3657 H 484.987 6.25169 1.0783 0
M  V30 3658 P 486.844 8.791 2.9035e-12 0
M  V30 3659 O 488.266 9.31096 0.027933 0
M  V30 3660 O 486.484 7.77869 -1.04071 0
M  V30 3661 O 486.521 8.09533 1.41463 0
M  V30 3662 C 486.361 9.0349 2.53943 0
M  V30 3663 C 486.901 8.35226 3.79016 0
M  V30 3664 O 485.845 7.57992 4.15078 0
M  V30 3665 C 488.119 7.45087 3.67298 0
M  V30 3666 O 488.857 7.27796 4.85194 0
M  V30 3667 C 487.45 6.17323 3.12027 0
M  V30 3668 O 488.249 5.04231 3.47188 0
M  V30 3669 C 486.113 6.19961 3.81809 0
M  V30 3670 H 486.145 5.58218 4.73051 0
M  V30 3671 H 487.328 6.21726 2.02589 0
M  V30 3672 H 488.812 7.86112 2.9231 0
M  V30 3673 H 487.118 9.11627 4.55076 0
M  V30 3674 H 486.928 9.9573 2.34194 0
M  V30 3675 H 485.298 9.2792 2.67832 0
M  V30 3676 H 487.937 4.67702 4.28772 0
M  V30 3677 P 489.795 7.39546 4.75277 0
M  V30 3678 O 491.217 7.81777 5.05738 0
M  V30 3679 O 489.435 7.1065 3.32998 0
M  V30 3680 O 489.472 6.04542 5.56673 0
M  V30 3681 C 489.312 6.22772 7.02095 0
M  V30 3682 C 489.852 4.97725 7.70406 0
M  V30 3683 O 488.796 4.13256 7.58987 0
M  V30 3684 C 491.07 4.28231 7.11815 0
M  V30 3685 O 491.808 3.49945 8.01648 0
M  V30 3686 C 490.401 3.5063 5.96244 0
M  V30 3687 O 491.2 2.36482 5.64681 0
M  V30 3688 C 489.064 3.15122 6.56374 0
M  V30 3689 H 489.096 2.13853 6.99751 0
M  V30 3690 H 490.279 4.13501 5.06559 0
M  V30 3691 H 491.763 5.03285 6.70911 0
M  V30 3692 H 490.069 5.20877 8.75697 0
M  V30 3693 H 489.879 7.11046 7.35349 0
M  V30 3694 H 488.249 6.35815 7.26986 0
M  V30 3695 H 490.888 1.61644 6.13565 0
M  V30 3696 P 492.745 3.65191 7.99657 0
M  V30 3697 O 494.167 3.8425 8.48115 0
M  V30 3698 O 492.385 4.17805 6.64342 0
M  V30 3699 O 492.422 2.07613 7.95143 0
M  V30 3700 C 492.262 1.44328 9.27336 0
M  V30 3701 C 492.802 0.0220036 9.17197 0
M  V30 3702 O 491.746 -0.626867 8.61923 0
M  V30 3703 C 494.02 -0.24586 8.30336 0
M  V30 3704 O 494.758 -1.39011 8.63583 0
M  V30 3705 C 493.351 -0.273849 6.91158 0
M  V30 3706 O 494.15 -1.06348 6.02892 0
M  V30 3707 C 492.014 -0.897649 7.22545 0
M  V30 3708 H 492.046 -1.9841 7.04286 0
M  V30 3709 H 493.229 0.739928 6.497 0
M  V30 3710 H 494.713 0.60668 8.36503 0
M  V30 3711 H 493.019 -0.352479 10.1829 0
M  V30 3712 H 492.829 2.00611 10.0304 0
M  V30 3713 H 491.199 1.41843 9.55327 0
M  V30 3714 H 493.838 -1.95734 6.03555 0
M  V30 3715 P 495.696 -1.25109 8.70152 0
M  V30 3716 O 497.118 -1.35274 9.21221 0
M  V30 3717 O 495.336 -0.0769065 7.84762 0
M  V30 3718 O 495.373 -2.55232 7.81161 0
M  V30 3719 C 495.213 -3.79939 8.58154 0
M  V30 3720 C 495.753 -4.94023 7.72785 0
M  V30 3721 O 494.697 -5.18726 6.91205 0
M  V30 3722 C 496.971 -4.69597 6.85231 0
M  V30 3723 O 497.709 -5.83832 6.51337 0
M  V30 3724 C 496.302 -3.96706 5.66633 0
M  V30 3725 O 497.101 -4.15414 4.49689 0
M  V30 3726 C 494.965 -4.66153 5.59313 0
M  V30 3727 H 494.997 -5.47679 4.85214 0
M  V30 3728 H 496.18 -2.89008 5.86566 0
M  V30 3729 H 497.664 -4.0121 7.36511 0
M  V30 3730 H 495.97 -5.80182 8.37584 0
M  V30 3731 H 495.78 -3.73517 9.52265 0
M  V30 3732 H 494.15 -3.97163 8.80359 0
M  V30 3733 H 496.789 -4.90969 4.01921 0
M  V30 3734 P 498.646 -5.75688 6.64379 0
M  V30 3735 O 500.068 -6.11849 7.01846 0
M  V30 3736 O 498.286 -4.30744 6.56026 0
M  V30 3737 O 498.323 -6.37042 5.19165 0
M  V30 3738 C 498.163 -7.83578 5.16515 0
M  V30 3739 C 498.703 -8.33398 3.83019 0
M  V30 3740 O 497.647 -8.10074 3.01034 0
M  V30 3741 C 499.921 -7.65514 3.2257 0
M  V30 3742 O 500.659 -8.4329 2.32297 0
M  V30 3743 C 499.252 -6.40075 2.62207 0
M  V30 3744 O 500.051 -5.92589 1.53712 0
M  V30 3745 C 497.915 -6.9454 2.18503 0
M  V30 3746 H 497.947 -7.23063 1.12091 0
M  V30 3747 H 499.13 -5.6025 3.37201 0
M  V30 3748 H 500.614 -7.35707 4.02681 0
M  V30 3749 H 498.92 -9.40912 3.9095 0
M  V30 3750 H 498.73 -8.29056 5.99158 0
M  V30 3751 H 497.1 -8.10073 5.25882 0
M  V30 3752 H 499.739 -6.30324 0.726794 0
M  V30 3753 P 501.597 -8.4349 2.47671 0
M  V30 3754 O 503.019 -8.94167 2.5964 0
M  V30 3755 O 501.237 -7.1704 3.19006 0
M  V30 3756 O 501.274 -8.16596 0.923387 0
M  V30 3757 C 501.114 -9.38437 0.108857 0
M  V30 3758 C 501.654 -9.08175 -1.28353 0
M  V30 3759 O 500.598 -8.44229 -1.84713 0
M  V30 3760 C 502.872 -8.18386 -1.42505 0
M  V30 3761 O 503.61 -8.3501 -2.60497 0
M  V30 3762 C 502.203 -6.80225 -1.25468 0
M  V30 3763 O 503.002 -5.81621 -1.91066 0
M  V30 3764 C 500.866 -7.02416 -1.9168 0
M  V30 3765 H 500.898 -6.6888 -2.96621 0
M  V30 3766 H 502.081 -6.53617 -0.192223 0
M  V30 3767 H 503.565 -8.36622 -0.589963 0
M  V30 3768 H 501.871 -10.0291 -1.79807 0
M  V30 3769 H 501.681 -10.2138 0.558219 0
M  V30 3770 H 500.051 -9.6579 0.0444202 0
M  V30 3771 H 502.69 -5.69556 -2.79637 0
M  V30 3772 P 504.547 -8.4349 -2.47671 0
M  V30 3773 O 505.969 -8.92593 -2.65 0
M  V30 3774 O 504.187 -7.7568 -1.19296 0
M  V30 3775 O 504.224 -7.36886 -3.63805 0
M  V30 3776 C 504.064 -7.95349 -4.982 0
M  V30 3777 C 504.604 -6.94612 -5.98974 0
M  V30 3778 O 503.548 -6.10347 -6.11815 0
M  V30 3779 C 505.822 -6.11426 -5.62335 0
M  V30 3780 O 506.56 -5.6162 -6.70584 0
M  V30 3781 C 505.153 -5.04409 -4.73308 0
M  V30 3782 O 505.952 -3.85992 -4.75183 0
M  V30 3783 C 503.816 -4.8728 -5.41006 0
M  V30 3784 H 503.848 -4.02333 -6.11157 0
M  V30 3785 H 505.031 -5.39466 -3.69543 0
M  V30 3786 H 506.515 -6.71916 -5.01943 0
M  V30 3787 H 504.821 -7.4649 -6.93477 0
M  V30 3788 H 504.631 -8.89416 -5.05237 0
M  V30 3789 H 503.001 -8.14876 -5.18409 0
M  V30 3790 H 505.64 -3.27957 -5.4317 0
M  V30 3791 P 507.498 -5.75688 -6.64379 0
M  V30 3792 O 508.92 -6.07627 -7.05504 0
M  V30 3793 O 507.138 -5.88047 -5.19722 0
M  V30 3794 O 507.175 -4.2322 -7.04443 0
M  V30 3795 C 507.015 -3.99743 -8.4911 0
M  V30 3796 C 507.555 -2.60516 -8.79425 0
M  V30 3797 O 506.499 -1.82684 -8.4467 0
M  V30 3798 C 508.773 -2.10343 -8.03628 0
M  V30 3799 O 509.511 -1.09919 -8.67766 0
M  V30 3800 C 508.104 -1.68446 -6.70876 0
M  V30 3801 O 508.903 -0.678137 -6.08433 0
M  V30 3802 C 506.767 -1.17436 -7.18567 0
M  V30 3803 H 506.799 -0.0804732 -7.31656 0
M  V30 3804 H 507.982 -2.54037 -6.02537 0
M  V30 3805 H 509.466 -2.93881 -7.85526 0
M  V30 3806 H 507.772 -2.53065 -9.86973 0
M  V30 3807 H 507.582 -4.75072 -9.05887 0
M  V30 3808 H 505.952 -4.05244 -8.76668 0
M  V30 3809 H 508.591 0.177647 -6.34251 0
M  V30 3810 P 510.449 -1.25109 -8.70152 0
M  V30 3811 O 511.871 -1.29744 -9.22016 0
M  V30 3812 O 510.089 -2.13714 -7.55141 0
M  V30 3813 O 510.126 0.248149 -8.21425 0
M  V30 3814 C 509.966 1.22779 -9.30434 0
M  V30 3815 C 510.506 2.56293 -8.80664 0
M  V30 3816 O 509.45 3.02979 -8.09349 0
M  V30 3817 C 511.724 2.57523 -7.89775 0
M  V30 3818 O 512.462 3.7668 -7.89438 0
M  V30 3819 C 511.055 2.20997 -6.55446 0
M  V30 3820 O 511.854 2.71895 -5.48509 0
M  V30 3821 C 509.718 2.89693 -6.67988 0
M  V30 3822 H 509.75 3.88793 -6.19859 0
M  V30 3823 H 510.933 1.12046 -6.44229 0
M  V30 3824 H 512.417 1.7746 -8.19711 0
M  V30 3825 H 510.723 3.20706 -9.67112 0
M  V30 3826 H 510.533 0.901032 -10.1892 0
M  V30 3827 H 508.903 1.33049 -9.56592 0
M  V30 3828 H 511.542 3.57847 -5.23962 0
M  V30 3829 P 513.399 3.65191 -7.99657 0
M  V30 3830 O 514.821 3.89332 -8.45794 0
M  V30 3831 O 513.039 2.28472 -7.50807 0
M  V30 3832 O 513.076 4.64972 -6.77611 0
M  V30 3833 C 512.916 6.06319 -7.16352 0
M  V30 3834 C 513.456 6.91731 -6.02299 0
M  V30 3835 O 512.4 6.92449 -5.17064 0
M  V30 3836 C 514.674 6.43627 -5.25174 0
M  V30 3837 O 515.412 7.43686 -4.60469 0
M  V30 3838 C 514.005 5.40275 -4.31916 0
M  V30 3839 O 514.804 5.25279 -3.14438 0
M  V30 3840 C 512.668 6.04847 -4.05327 0
M  V30 3841 H 512.7 6.62195 -3.11261 0
M  V30 3842 H 513.883 4.42556 -4.81383 0
M  V30 3843 H 515.367 5.92458 -5.93643 0
M  V30 3844 H 513.673 7.92655 -6.402 0
M  V30 3845 H 513.483 6.26671 -8.0846 0
M  V30 3846 H 511.853 6.29101 -7.32804 0
M  V30 3847 H 514.492 5.84315 -2.47318 0
M  V30 3848 P 516.35 7.39546 -4.75277 0
M  V30 3849 O 517.772 7.84798 -5.01039 0
M  V30 3850 O 515.99 5.9812 -5.08098 0
M  V30 3851 O 516.027 7.57503 -3.1866 0
M  V30 3852 C 515.867 8.97357 -2.74833 0
M  V30 3853 C 516.407 9.07548 -1.32709 0
M  V30 3854 O 515.351 8.62072 -0.606159 0
M  V30 3855 C 517.625 8.25383 -0.938334 0
M  V30 3856 O 518.363 8.74577 0.146954 0
M  V30 3857 C 516.956 6.8802 -0.712559 0
M  V30 3858 O 517.755 6.1189 0.194655 0
M  V30 3859 C 515.619 7.27966 -0.139777 0
M  V30 3860 H 515.651 7.25354 0.961601 0
M  V30 3861 H 516.834 6.32557 -1.65702 0
M  V30 3862 H 518.318 8.19355 -1.79097 0
M  V30 3863 H 516.624 10.1294 -1.10029 0
M  V30 3864 H 516.434 9.64276 -3.41316 0
M  V30 3865 H 514.804 9.25417 -2.76357 0
M  V30 3866 H 517.443 6.25267 1.07847 0
M  V30 3867 P 519.3 8.791 3.21367e-12 0
M  V30 3868 O 520.721 9.31196 0.027936 0
M  V30 3869 O 518.94 7.77869 -1.04071 0
M  V30 3870 O 518.977 8.09533 1.41463 0
M  V30 3871 C 518.816 9.03587 2.5397 0
M  V30 3872 C 519.357 8.35226 3.79016 0
M  V30 3873 O 518.302 7.57904 4.1503 0
M  V30 3874 C 520.575 7.45087 3.67298 0
M  V30 3875 O 521.313 7.27796 4.85194 0
M  V30 3876 C 519.907 6.17323 3.12027 0
M  V30 3877 O 520.705 5.04496 3.46627 0
M  V30 3878 C 518.569 6.19961 3.81809 0
M  V30 3879 N 517.526 5.71575 2.93223 0
M  V30 3880 C 517.695 5.77362 1.59168 0
M  V30 3881 N 516.668 5.3123 0.911893 0
M  V30 3882 C 515.783 4.91717 1.89588 0
M  V30 3883 C 514.516 4.3114 1.8076 0
M  V30 3884 N 513.917 3.99821 0.632928 0
M  V30 3885 N 513.951 4.06823 3.02898 0
M  V30 3886 C 514.553 4.35062 4.22711 0
M  V30 3887 N 515.73 4.90805 4.35707 0
M  V30 3888 C 516.305 5.16382 3.14469 0
M  V30 3889 H 518.601 5.58142 4.72986 0
M  V30 3890 H 519.784 6.21428 2.0318 0
M  V30 3891 H 521.267 7.86112 2.9231 0
M  V30 3892 H 519.573 9.11171 4.55987 0
M  V30 3893 H 519.383 9.9573 2.34194 0
M  V30 3894 H 517.753 9.2792 2.67832 0
M  V30 3895 H 514.017 4.09052 5.13359 0
M  V30 3896 H 518.595 6.16575 1.12198 0
M  V30 3897 H 512.987 3.55423 0.632085 0
M  V30 3898 H 514.391 4.20317 -0.256712 0
M  V30 3899 H 520.393 4.67628 4.28704 0
M  V30 3900 P 522.251 7.39546 4.75277 0
M  V30 3901 O 523.673 7.81777 5.05738 0
M  V30 3902 O 521.891 7.1065 3.32998 0
M  V30 3903 O 521.928 6.04542 5.56673 0
M  V30 3904 C 521.768 6.22772 7.02095 0
M  V30 3905 C 522.308 4.97725 7.70406 0
M  V30 3906 O 521.252 4.13256 7.58987 0
M  V30 3907 C 523.526 4.28231 7.11815 0
M  V30 3908 O 524.264 3.49945 8.01648 0
M  V30 3909 C 522.857 3.5063 5.96244 0
M  V30 3910 O 523.656 2.36482 5.64681 0
M  V30 3911 C 521.52 3.15122 6.56374 0
M  V30 3912 H 521.552 2.13853 6.99751 0
M  V30 3913 H 522.735 4.13501 5.06559 0
M  V30 3914 H 524.219 5.03285 6.70911 0
M  V30 3915 H 522.525 5.20877 8.75697 0
M  V30 3916 H 522.335 7.11046 7.35349 0
M  V30 3917 H 520.705 6.35815 7.26986 0
M  V30 3918 H 523.344 1.61644 6.13565 0
M  V30 3919 P 525.201 3.65191 7.99657 0
M  V30 3920 O 526.623 3.8425 8.48115 0
M  V30 3921 O 524.841 4.17805 6.64342 0
M  V30 3922 O 524.878 2.07613 7.95143 0
M  V30 3923 C 524.718 1.44328 9.27336 0
M  V30 3924 C 525.258 0.0220036 9.17197 0
M  V30 3925 O 524.202 -0.626867 8.61923 0
M  V30 3926 C 526.476 -0.24586 8.30336 0
M  V30 3927 O 527.214 -1.39011 8.63583 0
M  V30 3928 C 525.807 -0.273849 6.91158 0
M  V30 3929 O 526.606 -1.06348 6.02892 0
M  V30 3930 C 524.47 -0.897649 7.22545 0
M  V30 3931 H 524.502 -1.9841 7.04286 0
M  V30 3932 H 525.685 0.739928 6.497 0
M  V30 3933 H 527.169 0.60668 8.36503 0
M  V30 3934 H 525.475 -0.352479 10.1829 0
M  V30 3935 H 525.285 2.00611 10.0304 0
M  V30 3936 H 523.655 1.41843 9.55327 0
M  V30 3937 H 526.294 -1.95734 6.03555 0
M  V30 3938 P 528.152 -1.25109 8.70152 0
M  V30 3939 O 529.574 -1.35274 9.21221 0
M  V30 3940 O 527.792 -0.0769065 7.84762 0
M  V30 3941 O 527.829 -2.55232 7.81161 0
M  V30 3942 C 527.669 -3.79939 8.58154 0
M  V30 3943 C 528.209 -4.94023 7.72785 0
M  V30 3944 O 527.153 -5.18726 6.91205 0
M  V30 3945 C 529.427 -4.69597 6.85231 0
M  V30 3946 O 530.165 -5.83832 6.51337 0
M  V30 3947 C 528.758 -3.96706 5.66633 0
M  V30 3948 O 529.557 -4.15414 4.49689 0
M  V30 3949 C 527.421 -4.66153 5.59313 0
M  V30 3950 H 527.453 -5.47679 4.85214 0
M  V30 3951 H 528.636 -2.89008 5.86566 0
M  V30 3952 H 530.12 -4.0121 7.36511 0
M  V30 3953 H 528.426 -5.80182 8.37584 0
M  V30 3954 H 528.236 -3.73517 9.52265 0
M  V30 3955 H 526.606 -3.97163 8.80359 0
M  V30 3956 H 529.245 -4.90969 4.01921 0
M  V30 3957 P 531.103 -5.75688 6.64379 0
M  V30 3958 O 532.525 -6.11849 7.01846 0
M  V30 3959 O 530.743 -4.30744 6.56026 0
M  V30 3960 O 530.78 -6.37042 5.19165 0
M  V30 3961 C 530.62 -7.83578 5.16515 0
M  V30 3962 C 531.16 -8.33398 3.83019 0
M  V30 3963 O 530.104 -8.10074 3.01034 0
M  V30 3964 C 532.378 -7.65514 3.2257 0
M  V30 3965 O 533.116 -8.4329 2.32297 0
M  V30 3966 C 531.709 -6.40075 2.62207 0
M  V30 3967 O 532.508 -5.92589 1.53712 0
M  V30 3968 C 530.372 -6.9454 2.18503 0
M  V30 3969 H 530.404 -7.23063 1.12091 0
M  V30 3970 H 531.587 -5.6025 3.37201 0
M  V30 3971 H 533.071 -7.35707 4.02681 0
M  V30 3972 H 531.377 -9.40912 3.9095 0
M  V30 3973 H 531.187 -8.29056 5.99158 0
M  V30 3974 H 529.557 -8.10073 5.25882 0
M  V30 3975 H 532.196 -6.30324 0.726794 0
M  V30 3976 P 534.053 -8.4349 2.47671 0
M  V30 3977 O 535.475 -8.94167 2.5964 0
M  V30 3978 O 533.693 -7.1704 3.19006 0
M  V30 3979 O 533.73 -8.16596 0.923387 0
M  V30 3980 C 533.57 -9.38437 0.108857 0
M  V30 3981 C 534.11 -9.08175 -1.28353 0
M  V30 3982 O 533.054 -8.44229 -1.84713 0
M  V30 3983 C 535.328 -8.18386 -1.42505 0
M  V30 3984 O 536.066 -8.3501 -2.60497 0
M  V30 3985 C 534.659 -6.80225 -1.25468 0
M  V30 3986 O 535.458 -5.81621 -1.91066 0
M  V30 3987 C 533.322 -7.02416 -1.9168 0
M  V30 3988 H 533.354 -6.6888 -2.96621 0
M  V30 3989 H 534.537 -6.53617 -0.192223 0
M  V30 3990 H 536.021 -8.36622 -0.589963 0
M  V30 3991 H 534.327 -10.0291 -1.79807 0
M  V30 3992 H 534.137 -10.2138 0.558219 0
M  V30 3993 H 532.507 -9.6579 0.0444202 0
M  V30 3994 H 535.146 -5.69556 -2.79637 0
M  V30 3995 P 537.004 -8.4349 -2.47671 0
M  V30 3996 O 538.405 -8.99283 -2.62101 0
M  V30 3997 O 536.626 -7.81195 -1.16947 0
M  V30 3998 O 536.681 -7.36797 -3.63761 0
M  V30 3999 C 536.521 -7.95349 -4.982 0
M  V30 4000 C 537.061 -6.94537 -5.98908 0
M  V30 4001 O 536.005 -6.10277 -6.11744 0
M  V30 4002 C 538.278 -6.11426 -5.62335 0
M  V30 4003 O 539.017 -5.6162 -6.70584 0
M  V30 4004 C 537.611 -5.04409 -4.73308 0
M  V30 4005 O 538.409 -3.85929 -4.75106 0
M  V30 4006 C 536.273 -4.8728 -5.41006 0
M  V30 4007 N 535.23 -4.65812 -4.42377 0
M  V30 4008 C 534.195 -3.81293 -4.74224 0
M  V30 4009 O 534.234 -3.20533 -5.83679 0
M  V30 4010 N 533.183 -3.6442 -3.86349 0
M  V30 4011 C 533.231 -4.2728 -2.6824 0
M  V30 4012 C 534.327 -5.10813 -2.3217 0
M  V30 4013 C 535.293 -5.27909 -3.22647 0
M  V30 4014 H 536.305 -4.02278 -6.11074 0
M  V30 4015 H 537.488 -5.39013 -3.70026 0
M  V30 4016 H 538.972 -6.71494 -5.02675 0
M  V30 4017 H 537.278 -7.45796 -6.94223 0
M  V30 4018 H 537.087 -8.89416 -5.05237 0
M  V30 4019 H 535.457 -8.14791 -5.18355 0
M  V30 4020 H 534.375 -5.58884 -1.34755 0
M  V30 4021 H 536.139 -5.92811 -2.9934 0
M  V30 4022 H 538.193 -3.3454 -5.51577 0
M  V30 4023 P 539.954 -5.75688 -6.64379 0
M  V30 4024 O 541.376 -6.07627 -7.05504 0
M  V30 4025 O 539.594 -5.88047 -5.19722 0
M  V30 4026 O 539.631 -4.2322 -7.04443 0
M  V30 4027 C 539.471 -3.99743 -8.4911 0
M  V30 4028 C 540.011 -2.60516 -8.79425 0
M  V30 4029 O 538.955 -1.82684 -8.4467 0
M  V30 4030 C 541.229 -2.10343 -8.03628 0
M  V30 4031 O 541.967 -1.09919 -8.67766 0
M  V30 4032 C 540.56 -1.68446 -6.70876 0
M  V30 4033 O 541.359 -0.678137 -6.08433 0
M  V30 4034 C 539.223 -1.17436 -7.18567 0
M  V30 4035 H 539.255 -0.0804732 -7.31656 0
M  V30 4036 H 540.438 -2.54037 -6.02537 0
M  V30 4037 H 541.922 -2.93881 -7.85526 0
M  V30 4038 H 540.228 -2.53065 -9.86973 0
M  V30 4039 H 540.038 -4.75072 -9.05887 0
M  V30 4040 H 538.408 -4.05244 -8.76668 0
M  V30 4041 H 541.047 0.177647 -6.34251 0
M  V30 4042 P 542.905 -1.25109 -8.70152 0
M  V30 4043 O 544.327 -1.29744 -9.22016 0
M  V30 4044 O 542.545 -2.13714 -7.55141 0
M  V30 4045 O 542.582 0.248149 -8.21425 0
M  V30 4046 C 542.422 1.22779 -9.30434 0
M  V30 4047 C 542.962 2.56293 -8.80664 0
M  V30 4048 O 541.906 3.02979 -8.09349 0
M  V30 4049 C 544.18 2.57523 -7.89775 0
M  V30 4050 O 544.918 3.7668 -7.89438 0
M  V30 4051 C 543.511 2.20997 -6.55446 0
M  V30 4052 O 544.31 2.71895 -5.48509 0
M  V30 4053 C 542.174 2.89693 -6.67988 0
M  V30 4054 H 542.206 3.88793 -6.19859 0
M  V30 4055 H 543.389 1.12046 -6.44229 0
M  V30 4056 H 544.873 1.7746 -8.19711 0
M  V30 4057 H 543.179 3.20706 -9.67112 0
M  V30 4058 H 542.989 0.901032 -10.1892 0
M  V30 4059 H 541.359 1.33049 -9.56592 0
M  V30 4060 H 543.998 3.57847 -5.23962 0
M  V30 4061 P 545.855 3.65191 -7.99657 0
M  V30 4062 O 547.277 3.89332 -8.45794 0
M  V30 4063 O 545.495 2.28472 -7.50807 0
M  V30 4064 O 545.532 4.64972 -6.77611 0
M  V30 4065 C 545.372 6.06319 -7.16352 0
M  V30 4066 C 545.912 6.91731 -6.02299 0
M  V30 4067 O 544.856 6.92449 -5.17064 0
M  V30 4068 C 547.13 6.43627 -5.25174 0
M  V30 4069 O 547.868 7.43686 -4.60469 0
M  V30 4070 C 546.461 5.40275 -4.31916 0
M  V30 4071 O 547.26 5.25279 -3.14438 0
M  V30 4072 C 545.124 6.04847 -4.05327 0
M  V30 4073 H 545.156 6.62195 -3.11261 0
M  V30 4074 H 546.339 4.42556 -4.81383 0
M  V30 4075 H 547.823 5.92458 -5.93643 0
M  V30 4076 H 546.129 7.92655 -6.402 0
M  V30 4077 H 545.939 6.26671 -8.0846 0
M  V30 4078 H 544.309 6.29101 -7.32804 0
M  V30 4079 H 546.948 5.84315 -2.47318 0
M  V30 4080 P 548.806 7.39546 -4.75277 0
M  V30 4081 O 550.228 7.84798 -5.01039 0
M  V30 4082 O 548.446 5.9812 -5.08098 0
M  V30 4083 O 548.483 7.57503 -3.1866 0
M  V30 4084 C 548.323 8.97357 -2.74833 0
M  V30 4085 C 548.863 9.07548 -1.32709 0
M  V30 4086 O 547.807 8.62072 -0.606159 0
M  V30 4087 C 550.081 8.25383 -0.938334 0
M  V30 4088 O 550.819 8.74577 0.146954 0
M  V30 4089 C 549.412 6.8802 -0.712559 0
M  V30 4090 O 550.211 6.1189 0.194655 0
M  V30 4091 C 548.075 7.27966 -0.139777 0
M  V30 4092 H 548.107 7.25354 0.961601 0
M  V30 4093 H 549.29 6.32557 -1.65702 0
M  V30 4094 H 550.774 8.19355 -1.79097 0
M  V30 4095 H 549.08 10.1294 -1.10029 0
M  V30 4096 H 548.89 9.64276 -3.41316 0
M  V30 4097 H 547.26 9.25417 -2.76357 0
M  V30 4098 H 549.899 6.25267 1.07847 0
M  V30 4099 P 551.757 8.791 3.52383e-12 0
M  V30 4100 O 553.178 9.31196 0.027936 0
M  V30 4101 O 551.397 7.77869 -1.04071 0
M  V30 4102 O 551.434 8.09533 1.41463 0
M  V30 4103 C 551.273 9.03587 2.5397 0
M  V30 4104 C 551.814 8.35226 3.79016 0
M  V30 4105 O 550.759 7.57904 4.1503 0
M  V30 4106 C 553.032 7.45087 3.67298 0
M  V30 4107 O 553.77 7.27796 4.85194 0
M  V30 4108 C 552.364 6.17323 3.12027 0
M  V30 4109 O 553.162 5.04496 3.46627 0
M  V30 4110 C 551.026 6.19961 3.81809 0
M  V30 4111 N 549.983 5.71575 2.93223 0
M  V30 4112 C 550.152 5.77362 1.59168 0
M  V30 4113 N 549.125 5.3123 0.911893 0
M  V30 4114 C 548.24 4.91717 1.89588 0
M  V30 4115 C 546.973 4.3114 1.8076 0
M  V30 4116 N 546.374 3.99821 0.632928 0
M  V30 4117 N 546.408 4.06823 3.02898 0
M  V30 4118 C 547.01 4.35062 4.22711 0
M  V30 4119 N 548.187 4.90805 4.35707 0
M  V30 4120 C 548.762 5.16382 3.14469 0
M  V30 4121 H 551.058 5.58142 4.72986 0
M  V30 4122 H 552.241 6.21428 2.0318 0
M  V30 4123 H 553.724 7.86112 2.9231 0
M  V30 4124 H 552.03 9.11171 4.55987 0
M  V30 4125 H 551.84 9.9573 2.34194 0
M  V30 4126 H 550.21 9.2792 2.67832 0
M  V30 4127 H 546.474 4.09052 5.13359 0
M  V30 4128 H 551.052 6.16575 1.12198 0
M  V30 4129 H 545.444 3.55423 0.632085 0
M  V30 4130 H 546.848 4.20317 -0.256712 0
M  V30 4131 H 552.85 4.67628 4.28704 0
M  V30 4132 P 554.707 7.39546 4.75277 0
M  V30 4133 O 556.129 7.81777 5.05738 0
M  V30 4134 O 554.347 7.1065 3.32998 0
M  V30 4135 O 554.384 6.04542 5.56673 0
M  V30 4136 C 554.224 6.22772 7.02095 0
M  V30 4137 C 554.764 4.97725 7.70406 0
M  V30 4138 O 553.708 4.13256 7.58987 0
M  V30 4139 C 555.982 4.28231 7.11815 0
M  V30 4140 O 556.72 3.49945 8.01648 0
M  V30 4141 C 555.313 3.5063 5.96244 0
M  V30 4142 O 556.112 2.36482 5.64681 0
M  V30 4143 C 553.976 3.15122 6.56374 0
M  V30 4144 H 554.008 2.13853 6.99751 0
M  V30 4145 H 555.191 4.13501 5.06559 0
M  V30 4146 H 556.675 5.03285 6.70911 0
M  V30 4147 H 554.981 5.20877 8.75697 0
M  V30 4148 H 554.791 7.11046 7.35349 0
M  V30 4149 H 553.161 6.35815 7.26986 0
M  V30 4150 H 555.8 1.61644 6.13565 0
M  V30 4151 P 557.658 3.65191 7.99657 0
M  V30 4152 O 559.08 3.8425 8.48115 0
M  V30 4153 O 557.298 4.17805 6.64342 0
M  V30 4154 O 557.335 2.07613 7.95143 0
M  V30 4155 C 557.175 1.44328 9.27336 0
M  V30 4156 C 557.715 0.0220036 9.17197 0
M  V30 4157 O 556.659 -0.626867 8.61923 0
M  V30 4158 C 558.933 -0.24586 8.30336 0
M  V30 4159 O 559.671 -1.39011 8.63583 0
M  V30 4160 C 558.264 -0.273849 6.91158 0
M  V30 4161 O 559.063 -1.06348 6.02892 0
M  V30 4162 C 556.927 -0.897649 7.22545 0
M  V30 4163 H 556.959 -1.9841 7.04286 0
M  V30 4164 H 558.142 0.739928 6.497 0
M  V30 4165 H 559.626 0.60668 8.36503 0
M  V30 4166 H 557.932 -0.352479 10.1829 0
M  V30 4167 H 557.742 2.00611 10.0304 0
M  V30 4168 H 556.112 1.41843 9.55327 0
M  V30 4169 H 558.751 -1.95734 6.03555 0
M  V30 4170 P 560.608 -1.25109 8.70152 0
M  V30 4171 O 562.03 -1.35274 9.21221 0
M  V30 4172 O 560.248 -0.0769065 7.84762 0
M  V30 4173 O 560.285 -2.55232 7.81161 0
M  V30 4174 C 560.125 -3.79939 8.58154 0
M  V30 4175 C 560.665 -4.94023 7.72785 0
M  V30 4176 O 559.609 -5.18726 6.91205 0
M  V30 4177 C 561.883 -4.69597 6.85231 0
M  V30 4178 O 562.621 -5.83832 6.51337 0
M  V30 4179 C 561.214 -3.96706 5.66633 0
M  V30 4180 O 562.013 -4.15414 4.49689 0
M  V30 4181 C 559.877 -4.66153 5.59313 0
M  V30 4182 H 559.909 -5.47679 4.85214 0
M  V30 4183 H 561.092 -2.89008 5.86566 0
M  V30 4184 H 562.576 -4.0121 7.36511 0
M  V30 4185 H 560.882 -5.80182 8.37584 0
M  V30 4186 H 560.692 -3.73517 9.52265 0
M  V30 4187 H 559.062 -3.97163 8.80359 0
M  V30 4188 H 561.701 -4.90969 4.01921 0
M  V30 4189 P 563.559 -5.75688 6.64379 0
M  V30 4190 O 564.981 -6.11849 7.01846 0
M  V30 4191 O 563.199 -4.30744 6.56026 0
M  V30 4192 O 563.236 -6.37042 5.19165 0
M  V30 4193 C 563.076 -7.83578 5.16515 0
M  V30 4194 C 563.616 -8.33398 3.83019 0
M  V30 4195 O 562.56 -8.10074 3.01034 0
M  V30 4196 C 564.834 -7.65514 3.2257 0
M  V30 4197 O 565.572 -8.4329 2.32297 0
M  V30 4198 C 564.165 -6.40075 2.62207 0
M  V30 4199 O 564.964 -5.92589 1.53712 0
M  V30 4200 C 562.828 -6.9454 2.18503 0
M  V30 4201 H 562.86 -7.23063 1.12091 0
M  V30 4202 H 564.043 -5.6025 3.37201 0
M  V30 4203 H 565.527 -7.35707 4.02681 0
M  V30 4204 H 563.833 -9.40912 3.9095 0
M  V30 4205 H 563.643 -8.29056 5.99158 0
M  V30 4206 H 562.013 -8.10073 5.25882 0
M  V30 4207 H 564.652 -6.30324 0.726794 0
M  V30 4208 P 566.509 -8.4349 2.47671 0
M  V30 4209 O 567.931 -8.94167 2.5964 0
M  V30 4210 O 566.149 -7.1704 3.19006 0
M  V30 4211 O 566.186 -8.16596 0.923387 0
M  V30 4212 C 566.026 -9.38437 0.108857 0
M  V30 4213 C 566.566 -9.08175 -1.28353 0
M  V30 4214 O 565.51 -8.44229 -1.84713 0
M  V30 4215 C 567.784 -8.18386 -1.42505 0
M  V30 4216 O 568.522 -8.3501 -2.60497 0
M  V30 4217 C 567.115 -6.80225 -1.25468 0
M  V30 4218 O 567.914 -5.81621 -1.91066 0
M  V30 4219 C 565.778 -7.02416 -1.9168 0
M  V30 4220 H 565.81 -6.6888 -2.96621 0
M  V30 4221 H 566.993 -6.53617 -0.192223 0
M  V30 4222 H 568.477 -8.36622 -0.589963 0
M  V30 4223 H 566.783 -10.0291 -1.79807 0
M  V30 4224 H 566.593 -10.2138 0.558219 0
M  V30 4225 H 564.963 -9.6579 0.0444202 0
M  V30 4226 H 567.602 -5.69556 -2.79637 0
M  V30 4227 P 569.46 -8.4349 -2.47671 0
M  V30 4228 O 570.881 -8.92689 -2.65029 0
M  V30 4229 O 569.1 -7.7568 -1.19296 0
M  V30 4230 O 569.137 -7.36886 -3.63805 0
M  V30 4231 C 568.976 -7.95433 -4.98253 0
M  V30 4232 C 569.517 -6.94612 -5.98974 0
M  V30 4233 O 568.462 -6.10277 -6.11744 0
M  V30 4234 C 570.735 -6.11426 -5.62335 0
M  V30 4235 O 571.473 -5.6162 -6.70584 0
M  V30 4236 C 570.067 -5.04409 -4.73308 0
M  V30 4237 O 570.865 -3.86404 -4.74719 0
M  V30 4238 C 568.729 -4.8728 -5.41006 0
M  V30 4239 N 567.686 -4.65812 -4.42377 0
M  V30 4240 C 567.855 -5.09132 -3.15382 0
M  V30 4241 N 566.828 -4.84021 -2.3716 0
M  V30 4242 C 565.943 -4.18386 -3.20441 0
M  V30 4243 C 564.676 -3.6275 -2.94905 0
M  V30 4244 N 564.111 -3.05008 -4.05243 0
M  V30 4245 C 564.713 -2.98348 -5.28159 0
M  V30 4246 N 565.89 -3.48171 -5.56333 0
M  V30 4247 C 566.465 -4.06869 -4.47212 0
M  V30 4248 H 569.944 -5.39013 -3.70026 0
M  V30 4249 H 571.427 -6.71916 -5.01943 0
M  V30 4250 H 569.733 -7.45796 -6.94223 0
M  V30 4251 H 569.543 -8.89416 -5.05237 0
M  V30 4252 H 567.913 -8.14876 -5.18409 0
M  V30 4253 H 568.755 -5.59989 -2.81362 0
M  V30 4254 H 570.553 -3.27906 -5.43085 0
M  V30 4255 P 572.411 -5.75688 -6.64379 0
M  V30 4256 O 573.833 -6.07627 -7.05504 0
M  V30 4257 O 572.051 -5.88047 -5.19722 0
M  V30 4258 O 572.088 -4.2322 -7.04443 0
M  V30 4259 C 571.928 -3.99743 -8.4911 0
M  V30 4260 C 572.468 -2.60516 -8.79425 0
M  V30 4261 O 571.412 -1.82684 -8.4467 0
M  V30 4262 C 573.686 -2.10343 -8.03628 0
M  V30 4263 O 574.424 -1.09919 -8.67766 0
M  V30 4264 C 573.017 -1.68446 -6.70876 0
M  V30 4265 O 573.816 -0.678137 -6.08433 0
M  V30 4266 C 571.68 -1.17436 -7.18567 0
M  V30 4267 H 571.712 -0.0804732 -7.31656 0
M  V30 4268 H 572.895 -2.54037 -6.02537 0
M  V30 4269 H 574.379 -2.93881 -7.85526 0
M  V30 4270 H 572.685 -2.53065 -9.86973 0
M  V30 4271 H 572.495 -4.75072 -9.05887 0
M  V30 4272 H 570.865 -4.05244 -8.76668 0
M  V30 4273 H 573.504 0.177647 -6.34251 0
M  V30 4274 P 575.361 -1.25109 -8.70152 0
M  V30 4275 O 576.783 -1.29772 -9.22214 0
M  V30 4276 O 575.001 -2.13714 -7.55141 0
M  V30 4277 O 575.038 0.248149 -8.21425 0
M  V30 4278 C 574.878 1.22779 -9.30434 0
M  V30 4279 C 575.418 2.56265 -8.80568 0
M  V30 4280 O 574.363 3.02979 -8.09349 0
M  V30 4281 C 576.636 2.57523 -7.89775 0
M  V30 4282 O 577.374 3.7668 -7.89438 0
M  V30 4283 C 575.968 2.20997 -6.55446 0
M  V30 4284 O 576.766 2.71851 -5.48419 0
M  V30 4285 C 574.63 2.89693 -6.67988 0
M  V30 4286 N 573.587 2.08895 -6.07487 0
M  V30 4287 C 573.649 0.760559 -6.14209 0
M  V30 4288 N 572.604 0.200108 -5.52538 0
M  V30 4289 C 571.87 1.22692 -5.09742 0
M  V30 4290 C 570.564 1.24782 -4.48775 0
M  V30 4291 O 569.831 0.290617 -4.19294 0
M  V30 4292 N 570.134 2.50468 -4.22428 0
M  V30 4293 C 570.883 3.67142 -4.51974 0
M  V30 4294 N 570.286 4.85096 -4.14091 0
M  V30 4295 N 572.036 3.67821 -5.12831 0
M  V30 4296 C 572.493 2.43698 -5.4105 0
M  V30 4297 H 574.662 3.88793 -6.19859 0
M  V30 4298 H 575.845 1.12029 -6.4413 0
M  V30 4299 H 577.33 1.78279 -8.19533 0
M  V30 4300 H 575.635 3.20706 -9.67112 0
M  V30 4301 H 575.445 0.901032 -10.1892 0
M  V30 4302 H 573.814 1.33049 -9.56592 0
M  V30 4303 H 569.238 2.61953 -3.79465 0
M  V30 4304 H 574.445 0.200439 -6.63497 0
M  V30 4305 H 569.375 4.8334 -3.66367 0
M  V30 4306 H 570.751 5.7474 -4.33841 0
M  V30 4307 H 576.455 3.5779 -5.23879 0
M  V30 4308 P 578.312 3.65191 -7.99657 0
M  V30 4309 O 579.734 3.89332 -8.45794 0
M  V30 4310 O 577.952 2.28472 -7.50807 0
M  V30 4311 O 577.989 4.64972 -6.77611 0
M  V30 4312 C 577.829 6.06319 -7.16352 0
M  V30 4313 C 578.369 6.91731 -6.02299 0
M  V30 4314 O 577.313 6.92449 -5.17064 0
M  V30 4315 C 579.587 6.43627 -5.25174 0
M  V30 4316 O 580.325 7.43686 -4.60469 0
M  V30 4317 C 578.918 5.40275 -4.31916 0
M  V30 4318 O 579.717 5.25279 -3.14438 0
M  V30 4319 C 577.581 6.04847 -4.05327 0
M  V30 4320 H 577.613 6.62195 -3.11261 0
M  V30 4321 H 578.796 4.42556 -4.81383 0
M  V30 4322 H 580.28 5.92458 -5.93643 0
M  V30 4323 H 578.586 7.92655 -6.402 0
M  V30 4324 H 578.396 6.26671 -8.0846 0
M  V30 4325 H 576.766 6.29101 -7.32804 0
M  V30 4326 H 579.405 5.84315 -2.47318 0
M  V30 4327 P 581.262 7.39546 -4.75277 0
M  V30 4328 O 582.684 7.84798 -5.01039 0
M  V30 4329 O 580.902 5.9812 -5.08098 0
M  V30 4330 O 580.939 7.57503 -3.1866 0
M  V30 4331 C 580.779 8.97357 -2.74833 0
M  V30 4332 C 581.319 9.07548 -1.32709 0
M  V30 4333 O 580.263 8.62072 -0.606159 0
M  V30 4334 C 582.537 8.25383 -0.938334 0
M  V30 4335 O 583.275 8.74577 0.146954 0
M  V30 4336 C 581.868 6.8802 -0.712559 0
M  V30 4337 O 582.667 6.1189 0.194655 0
M  V30 4338 C 580.531 7.27966 -0.139777 0
M  V30 4339 H 580.563 7.25354 0.961601 0
M  V30 4340 H 581.746 6.32557 -1.65702 0
M  V30 4341 H 583.23 8.19355 -1.79097 0
M  V30 4342 H 581.536 10.1294 -1.10029 0
M  V30 4343 H 581.346 9.64276 -3.41316 0
M  V30 4344 H 579.716 9.25417 -2.76357 0
M  V30 4345 H 582.355 6.25267 1.07847 0
M  V30 4346 P 584.213 8.791 3.834e-12 0
M  V30 4347 O 585.635 9.31096 0.027933 0
M  V30 4348 O 583.853 7.77869 -1.04071 0
M  V30 4349 O 583.89 8.09533 1.41463 0
M  V30 4350 C 583.73 9.0349 2.53943 0
M  V30 4351 C 584.27 8.35226 3.79016 0
M  V30 4352 O 583.214 7.57992 4.15078 0
M  V30 4353 C 585.488 7.45087 3.67298 0
M  V30 4354 O 586.226 7.27796 4.85194 0
M  V30 4355 C 584.819 6.17323 3.12027 0
M  V30 4356 O 585.618 5.04231 3.47188 0
M  V30 4357 C 583.482 6.19961 3.81809 0
M  V30 4358 H 583.514 5.58218 4.73051 0
M  V30 4359 H 584.697 6.21726 2.02589 0
M  V30 4360 H 586.181 7.86112 2.9231 0
M  V30 4361 H 584.487 9.11627 4.55076 0
M  V30 4362 H 584.297 9.9573 2.34194 0
M  V30 4363 H 582.667 9.2792 2.67832 0
M  V30 4364 H 585.306 4.67702 4.28772 0
M  V30 4365 P 587.163 7.39546 4.75277 0
M  V30 4366 O 588.585 7.81777 5.05738 0
M  V30 4367 O 586.803 7.1065 3.32998 0
M  V30 4368 O 586.84 6.04542 5.56673 0
M  V30 4369 C 586.68 6.22772 7.02095 0
M  V30 4370 C 587.22 4.97725 7.70406 0
M  V30 4371 O 586.164 4.13256 7.58987 0
M  V30 4372 C 588.438 4.28231 7.11815 0
M  V30 4373 O 589.176 3.49945 8.01648 0
M  V30 4374 C 587.769 3.5063 5.96244 0
M  V30 4375 O 588.568 2.36482 5.64681 0
M  V30 4376 C 586.432 3.15122 6.56374 0
M  V30 4377 H 586.464 2.13853 6.99751 0
M  V30 4378 H 587.647 4.13501 5.06559 0
M  V30 4379 H 589.131 5.03285 6.70911 0
M  V30 4380 H 587.437 5.20877 8.75697 0
M  V30 4381 H 587.247 7.11046 7.35349 0
M  V30 4382 H 585.617 6.35815 7.26986 0
M  V30 4383 H 588.256 1.61644 6.13565 0
M  V30 4384 P 590.114 3.65191 7.99657 0
M  V30 4385 O 591.536 3.8425 8.48115 0
M  V30 4386 O 589.754 4.17805 6.64342 0
M  V30 4387 O 589.791 2.07613 7.95143 0
M  V30 4388 C 589.631 1.44328 9.27336 0
M  V30 4389 C 590.171 0.0220036 9.17197 0
M  V30 4390 O 589.115 -0.626867 8.61923 0
M  V30 4391 C 591.389 -0.24586 8.30336 0
M  V30 4392 O 592.127 -1.39011 8.63583 0
M  V30 4393 C 590.72 -0.273849 6.91158 0
M  V30 4394 O 591.519 -1.06348 6.02892 0
M  V30 4395 C 589.383 -0.897649 7.22545 0
M  V30 4396 H 589.415 -1.9841 7.04286 0
M  V30 4397 H 590.598 0.739928 6.497 0
M  V30 4398 H 592.082 0.60668 8.36503 0
M  V30 4399 H 590.388 -0.352479 10.1829 0
M  V30 4400 H 590.198 2.00611 10.0304 0
M  V30 4401 H 588.568 1.41843 9.55327 0
M  V30 4402 H 591.207 -1.95734 6.03555 0
M  V30 4403 P 593.065 -1.25109 8.70152 0
M  V30 4404 O 594.486 -1.35288 9.2132 0
M  V30 4405 O 592.705 -0.0769065 7.84762 0
M  V30 4406 O 592.742 -2.55232 7.81161 0
M  V30 4407 C 592.581 -3.79979 8.58246 0
M  V30 4408 C 593.122 -4.94023 7.72785 0
M  V30 4409 O 592.067 -5.18666 6.91125 0
M  V30 4410 C 594.34 -4.69597 6.85231 0
M  V30 4411 O 595.078 -5.83832 6.51337 0
M  V30 4412 C 593.672 -3.96706 5.66633 0
M  V30 4413 O 594.47 -4.14896 4.5003 0
M  V30 4414 C 592.334 -4.66153 5.59313 0
M  V30 4415 N 591.291 -3.71582 5.24027 0
M  V30 4416 C 591.46 -2.39715 5.48833 0
M  V30 4417 N 590.433 -1.65863 5.12845 0
M  V30 4418 C 589.548 -2.57637 4.5973 0
M  V30 4419 C 588.281 -2.40278 4.01027 0
M  V30 4420 N 587.716 -3.57711 3.59575 0
M  V30 4421 C 588.318 -4.80324 3.70476 0
M  V30 4422 N 589.495 -5.01121 4.23801 0
M  V30 4423 C 590.07 -3.84757 4.66372 0
M  V30 4424 H 593.549 -2.8955 5.86187 0
M  V30 4425 H 595.032 -4.0121 7.36511 0
M  V30 4426 H 593.338 -5.81019 8.37003 0
M  V30 4427 H 593.148 -3.73517 9.52265 0
M  V30 4428 H 591.518 -3.97163 8.80359 0
M  V30 4429 H 592.36 -1.98804 5.94332 0
M  V30 4430 H 594.158 -4.90891 4.01857 0
M  V30 4431 P 596.015 -5.75688 6.64379 0
M  V30 4432 O 597.436 -6.11915 7.01921 0
M  V30 4433 O 595.655 -4.30744 6.56026 0
M  V30 4434 O 595.692 -6.37042 5.19165 0
M  V30 4435 C 595.531 -7.83662 5.1657 0
M  V30 4436 C 596.072 -8.33398 3.83019 0
M  V30 4437 O 595.017 -8.0998 3.00999 0
M  V30 4438 C 597.29 -7.65514 3.2257 0
M  V30 4439 O 598.028 -8.4329 2.32297 0
M  V30 4440 C 596.622 -6.40075 2.62207 0
M  V30 4441 O 597.42 -5.92338 1.5428 0
M  V30 4442 C 595.284 -6.9454 2.18503 0
M  V30 4443 N 594.241 -5.95905 2.39948 0
M  V30 4444 C 594.41 -4.98383 3.32108 0
M  V30 4445 N 593.383 -4.16798 3.41761 0
M  V30 4446 C 592.498 -4.65287 2.47461 0
M  V30 4447 C 591.231 -4.18946 2.07461 0
M  V30 4448 N 590.666 -4.95327 1.09101 0
M  V30 4449 C 591.268 -6.04369 0.519812 0
M  V30 4450 N 592.445 -6.50694 0.855982 0
M  V30 4451 C 593.02 -5.75818 1.84322 0
M  V30 4452 H 596.499 -5.60502 3.36589 0
M  V30 4453 H 597.982 -7.35707 4.02681 0
M  V30 4454 H 596.288 -9.41302 3.90009 0
M  V30 4455 H 596.098 -8.29056 5.99158 0
M  V30 4456 H 594.468 -8.10073 5.25882 0
M  V30 4457 H 595.31 -4.88564 3.92502 0
M  V30 4458 H 597.108 -6.30224 0.72668 0
M  V30 4459 P 598.966 -8.4349 2.47671 0
M  V30 4460 O 600.388 -8.94167 2.5964 0
M  V30 4461 O 598.606 -7.1704 3.19006 0
M  V30 4462 O 598.643 -8.16596 0.923387 0
M  V30 4463 C 598.483 -9.38437 0.108857 0
M  V30 4464 C 599.023 -9.08175 -1.28353 0
M  V30 4465 O 597.967 -8.44229 -1.84713 0
M  V30 4466 C 600.241 -8.18386 -1.42505 0
M  V30 4467 O 600.979 -8.3501 -2.60497 0
M  V30 4468 C 599.572 -6.80225 -1.25468 0
M  V30 4469 O 600.371 -5.81621 -1.91066 0
M  V30 4470 C 598.235 -7.02416 -1.9168 0
M  V30 4471 H 598.267 -6.6888 -2.96621 0
M  V30 4472 H 599.45 -6.53617 -0.192223 0
M  V30 4473 H 600.934 -8.36622 -0.589963 0
M  V30 4474 H 599.24 -10.0291 -1.79807 0
M  V30 4475 H 599.05 -10.2138 0.558219 0
M  V30 4476 H 597.42 -9.6579 0.0444202 0
M  V30 4477 H 600.059 -5.69556 -2.79637 0
M  V30 4478 P 601.916 -8.4349 -2.47671 0
M  V30 4479 O 603.338 -8.92593 -2.65 0
M  V30 4480 O 601.556 -7.7568 -1.19296 0
M  V30 4481 O 601.593 -7.36886 -3.63805 0
M  V30 4482 C 601.433 -7.95349 -4.982 0
M  V30 4483 C 601.973 -6.94612 -5.98974 0
M  V30 4484 O 600.917 -6.10347 -6.11815 0
M  V30 4485 C 603.191 -6.11426 -5.62335 0
M  V30 4486 O 603.929 -5.6162 -6.70584 0
M  V30 4487 C 602.522 -5.04409 -4.73308 0
M  V30 4488 O 603.321 -3.85992 -4.75183 0
M  V30 4489 C 601.185 -4.8728 -5.41006 0
M  V30 4490 H 601.217 -4.02333 -6.11157 0
M  V30 4491 H 602.4 -5.39466 -3.69543 0
M  V30 4492 H 603.884 -6.71916 -5.01943 0
M  V30 4493 H 602.19 -7.4649 -6.93477 0
M  V30 4494 H 602 -8.89416 -5.05237 0
M  V30 4495 H 600.37 -8.14876 -5.18409 0
M  V30 4496 H 603.009 -3.27957 -5.4317 0
M  V30 4497 P 604.867 -5.75688 -6.64379 0
M  V30 4498 O 606.289 -6.07627 -7.05504 0
M  V30 4499 O 604.507 -5.88047 -5.19722 0
M  V30 4500 O 604.544 -4.2322 -7.04443 0
M  V30 4501 C 604.384 -3.99743 -8.4911 0
M  V30 4502 C 604.924 -2.60516 -8.79425 0
M  V30 4503 O 603.868 -1.82684 -8.4467 0
M  V30 4504 C 606.142 -2.10343 -8.03628 0
M  V30 4505 O 606.88 -1.09919 -8.67766 0
M  V30 4506 C 605.473 -1.68446 -6.70876 0
M  V30 4507 O 606.272 -0.678137 -6.08433 0
M  V30 4508 C 604.136 -1.17436 -7.18567 0
M  V30 4509 H 604.168 -0.0804732 -7.31656 0
M  V30 4510 H 605.351 -2.54037 -6.02537 0
M  V30 4511 H 606.835 -2.93881 -7.85526 0
M  V30 4512 H 605.141 -2.53065 -9.86973 0
M  V30 4513 H 604.951 -4.75072 -9.05887 0
M  V30 4514 H 603.321 -4.05244 -8.76668 0
M  V30 4515 H 605.96 0.177647 -6.34251 0
M  V30 4516 P 607.817 -1.25109 -8.70152 0
M  V30 4517 O 609.239 -1.29744 -9.22016 0
M  V30 4518 O 607.457 -2.13714 -7.55141 0
M  V30 4519 O 607.494 0.248149 -8.21425 0
M  V30 4520 C 607.334 1.22779 -9.30434 0
M  V30 4521 C 607.874 2.56293 -8.80664 0
M  V30 4522 O 606.818 3.02979 -8.09349 0
M  V30 4523 C 609.092 2.57523 -7.89775 0
M  V30 4524 O 609.83 3.7668 -7.89438 0
M  V30 4525 C 608.423 2.20997 -6.55446 0
M  V30 4526 O 609.222 2.71895 -5.48509 0
M  V30 4527 C 607.086 2.89693 -6.67988 0
M  V30 4528 H 607.118 3.88793 -6.19859 0
M  V30 4529 H 608.301 1.12046 -6.44229 0
M  V30 4530 H 609.785 1.7746 -8.19711 0
M  V30 4531 H 608.091 3.20706 -9.67112 0
M  V30 4532 H 607.901 0.901032 -10.1892 0
M  V30 4533 H 606.271 1.33049 -9.56592 0
M  V30 4534 H 608.91 3.57847 -5.23962 0
M  V30 4535 P 610.768 3.65191 -7.99657 0
M  V30 4536 O 612.19 3.89332 -8.45794 0
M  V30 4537 O 610.408 2.28472 -7.50807 0
M  V30 4538 O 610.445 4.64972 -6.77611 0
M  V30 4539 C 610.285 6.06319 -7.16352 0
M  V30 4540 C 610.825 6.91731 -6.02299 0
M  V30 4541 O 609.769 6.92449 -5.17064 0
M  V30 4542 C 612.043 6.43627 -5.25174 0
M  V30 4543 O 612.781 7.43686 -4.60469 0
M  V30 4544 C 611.374 5.40275 -4.31916 0
M  V30 4545 O 612.173 5.25279 -3.14438 0
M  V30 4546 C 610.037 6.04847 -4.05327 0
M  V30 4547 H 610.069 6.62195 -3.11261 0
M  V30 4548 H 611.252 4.42556 -4.81383 0
M  V30 4549 H 612.736 5.92458 -5.93643 0
M  V30 4550 H 611.042 7.92655 -6.402 0
M  V30 4551 H 610.852 6.26671 -8.0846 0
M  V30 4552 H 609.222 6.29101 -7.32804 0
M  V30 4553 H 611.861 5.84315 -2.47318 0
M  V30 4554 P 613.719 7.39546 -4.75277 0
M  V30 4555 O 615.141 7.84798 -5.01039 0
M  V30 4556 O 613.359 5.9812 -5.08098 0
M  V30 4557 O 613.396 7.57503 -3.1866 0
M  V30 4558 C 613.236 8.97357 -2.74833 0
M  V30 4559 C 613.776 9.07548 -1.32709 0
M  V30 4560 O 612.72 8.62072 -0.606159 0
M  V30 4561 C 614.994 8.25383 -0.938334 0
M  V30 4562 O 615.732 8.74577 0.146954 0
M  V30 4563 C 614.325 6.8802 -0.712559 0
M  V30 4564 O 615.124 6.1189 0.194655 0
M  V30 4565 C 612.988 7.27966 -0.139777 0
M  V30 4566 H 613.02 7.25354 0.961601 0
M  V30 4567 H 614.203 6.32557 -1.65702 0
M  V30 4568 H 615.687 8.19355 -1.79097 0
M  V30 4569 H 613.993 10.1294 -1.10029 0
M  V30 4570 H 613.803 9.64276 -3.41316 0
M  V30 4571 H 612.173 9.25417 -2.76357 0
M  V30 4572 H 614.812 6.25267 1.07847 0
M  V30 4573 P 616.669 8.791 4.14417e-12 0
M  V30 4574 O 618.091 9.31096 0.027933 0
M  V30 4575 O 616.309 7.77869 -1.04071 0
M  V30 4576 O 616.346 8.09533 1.41463 0
M  V30 4577 C 616.186 9.0349 2.53943 0
M  V30 4578 C 616.726 8.35226 3.79016 0
M  V30 4579 O 615.67 7.57992 4.15078 0
M  V30 4580 C 617.944 7.45087 3.67298 0
M  V30 4581 O 618.682 7.27796 4.85194 0
M  V30 4582 C 617.275 6.17323 3.12027 0
M  V30 4583 O 618.074 5.04231 3.47188 0
M  V30 4584 C 615.938 6.19961 3.81809 0
M  V30 4585 H 615.97 5.58218 4.73051 0
M  V30 4586 H 617.153 6.21726 2.02589 0
M  V30 4587 H 618.637 7.86112 2.9231 0
M  V30 4588 H 616.943 9.11627 4.55076 0
M  V30 4589 H 616.753 9.9573 2.34194 0
M  V30 4590 H 615.123 9.2792 2.67832 0
M  V30 4591 H 617.762 4.67702 4.28772 0
M  V30 4592 P 619.62 7.39546 4.75277 0
M  V30 4593 O 621.042 7.81777 5.05738 0
M  V30 4594 O 619.26 7.1065 3.32998 0
M  V30 4595 O 619.297 6.04542 5.56673 0
M  V30 4596 C 619.137 6.22772 7.02095 0
M  V30 4597 C 619.677 4.97725 7.70406 0
M  V30 4598 O 618.621 4.13256 7.58987 0
M  V30 4599 C 620.895 4.28231 7.11815 0
M  V30 4600 O 621.633 3.49945 8.01648 0
M  V30 4601 C 620.226 3.5063 5.96244 0
M  V30 4602 O 621.025 2.36482 5.64681 0
M  V30 4603 C 618.889 3.15122 6.56374 0
M  V30 4604 H 618.921 2.13853 6.99751 0
M  V30 4605 H 620.104 4.13501 5.06559 0
M  V30 4606 H 621.588 5.03285 6.70911 0
M  V30 4607 H 619.894 5.20877 8.75697 0
M  V30 4608 H 619.704 7.11046 7.35349 0
M  V30 4609 H 618.074 6.35815 7.26986 0
M  V30 4610 H 620.713 1.61644 6.13565 0
M  V30 4611 P 622.57 3.65191 7.99657 0
M  V30 4612 O 623.992 3.8425 8.48115 0
M  V30 4613 O 622.21 4.17805 6.64342 0
M  V30 4614 O 622.247 2.07613 7.95143 0
M  V30 4615 C 622.087 1.44328 9.27336 0
M  V30 4616 C 622.627 0.0220036 9.17197 0
M  V30 4617 O 621.571 -0.626867 8.61923 0
M  V30 4618 C 623.845 -0.24586 8.30336 0
M  V30 4619 O 624.583 -1.39011 8.63583 0
M  V30 4620 C 623.176 -0.273849 6.91158 0
M  V30 4621 O 623.975 -1.06348 6.02892 0
M  V30 4622 C 621.839 -0.897649 7.22545 0
M  V30 4623 H 621.871 -1.9841 7.04286 0
M  V30 4624 H 623.054 0.739928 6.497 0
M  V30 4625 H 624.538 0.60668 8.36503 0
M  V30 4626 H 622.844 -0.352479 10.1829 0
M  V30 4627 H 622.654 2.00611 10.0304 0
M  V30 4628 H 621.024 1.41843 9.55327 0
M  V30 4629 H 623.663 -1.95734 6.03555 0
M  V30 4630 P 625.521 -1.25109 8.70152 0
M  V30 4631 O 626.922 -1.31452 9.27431 0
M  V30 4632 O 625.143 -0.0458113 7.89887 0
M  V30 4633 O 625.198 -2.55201 7.81066 0
M  V30 4634 C 625.038 -3.79939 8.58154 0
M  V30 4635 C 625.578 -4.93969 7.72701 0
M  V30 4636 O 624.522 -5.18666 6.91125 0
M  V30 4637 C 626.795 -4.69597 6.85231 0
M  V30 4638 O 627.534 -5.83832 6.51337 0
M  V30 4639 C 626.128 -3.96706 5.66633 0
M  V30 4640 O 626.926 -4.15346 4.49615 0
M  V30 4641 C 624.79 -4.66153 5.59313 0
M  V30 4642 N 623.747 -3.71582 5.24027 0
M  V30 4643 C 622.712 -4.15133 4.44901 0
M  V30 4644 O 622.751 -5.32122 4.00336 0
M  V30 4645 N 621.7 -3.30554 4.15693 0
M  V30 4646 C 621.748 -2.04701 4.61105 0
M  V30 4647 C 622.844 -1.57111 5.38655 0
M  V30 4648 C 623.81 -2.44234 5.68454 0
M  V30 4649 H 624.822 -5.47604 4.85148 0
M  V30 4650 H 626.005 -2.8955 5.86187 0
M  V30 4651 H 627.489 -4.01995 7.36197 0
M  V30 4652 H 625.795 -5.81019 8.37003 0
M  V30 4653 H 625.604 -3.73517 9.52265 0
M  V30 4654 H 623.974 -3.97122 8.80267 0
M  V30 4655 H 622.892 -0.538464 5.72373 0
M  V30 4656 H 624.656 -2.11927 6.29377 0
M  V30 4657 H 626.71 -4.98352 4.09633 0
M  V30 4658 P 628.471 -5.75688 6.64379 0
M  V30 4659 O 629.872 -6.11991 7.09136 0
M  V30 4660 O 628.093 -4.30899 6.62018 0
M  V30 4661 O 628.148 -6.36965 5.19102 0
M  V30 4662 C 627.988 -7.83578 5.16515 0
M  V30 4663 C 628.528 -8.33307 3.82977 0
M  V30 4664 O 627.472 -8.0998 3.00999 0
M  V30 4665 C 629.745 -7.65514 3.2257 0
M  V30 4666 O 630.484 -8.4329 2.32297 0
M  V30 4667 C 629.078 -6.40075 2.62207 0
M  V30 4668 O 629.876 -5.92492 1.53687 0
M  V30 4669 C 627.74 -6.9454 2.18503 0
M  V30 4670 N 626.697 -5.95905 2.39948 0
M  V30 4671 C 625.662 -5.89764 1.49837 0
M  V30 4672 O 625.701 -6.64088 0.490975 0
M  V30 4673 N 624.65 -5.02821 1.70992 0
M  V30 4674 C 624.698 -4.21498 2.77236 0
M  V30 4675 C 625.794 -4.23389 3.68205 0
M  V30 4676 C 626.76 -5.12792 3.46171 0
M  V30 4677 H 627.772 -7.22964 1.12076 0
M  V30 4678 H 628.955 -5.60502 3.36589 0
M  V30 4679 H 630.439 -7.36197 4.01993 0
M  V30 4680 H 628.745 -9.41302 3.90009 0
M  V30 4681 H 628.554 -8.29056 5.99158 0
M  V30 4682 H 626.924 -8.09989 5.25828 0
M  V30 4683 H 625.842 -3.54747 4.52399 0
M  V30 4684 H 627.606 -5.18551 4.1489 0
M  V30 4685 H 629.66 -6.40705 0.751752 0
M  V30 4686 P 631.422 -8.4349 2.47671 0
M  V30 4687 O 632.844 -8.94167 2.5964 0
M  V30 4688 O 631.062 -7.1704 3.19006 0
M  V30 4689 O 631.099 -8.16596 0.923387 0
M  V30 4690 C 630.939 -9.38437 0.108857 0
M  V30 4691 C 631.479 -9.08175 -1.28353 0
M  V30 4692 O 630.423 -8.44229 -1.84713 0
M  V30 4693 C 632.697 -8.18386 -1.42505 0
M  V30 4694 O 633.435 -8.3501 -2.60497 0
M  V30 4695 C 632.028 -6.80225 -1.25468 0
M  V30 4696 O 632.827 -5.81621 -1.91066 0
M  V30 4697 C 630.691 -7.02416 -1.9168 0
M  V30 4698 H 630.723 -6.6888 -2.96621 0
M  V30 4699 H 631.906 -6.53617 -0.192223 0
M  V30 4700 H 633.39 -8.36622 -0.589963 0
M  V30 4701 H 631.696 -10.0291 -1.79807 0
M  V30 4702 H 631.506 -10.2138 0.558219 0
M  V30 4703 H 629.876 -9.6579 0.0444202 0
M  V30 4704 H 632.515 -5.69556 -2.79637 0
M  V30 4705 P 634.373 -8.4349 -2.47671 0
M  V30 4706 O 635.795 -8.92593 -2.65 0
M  V30 4707 O 634.013 -7.7568 -1.19296 0
M  V30 4708 O 634.05 -7.36886 -3.63805 0
M  V30 4709 C 633.89 -7.95349 -4.982 0
M  V30 4710 C 634.43 -6.94612 -5.98974 0
M  V30 4711 O 633.374 -6.10347 -6.11815 0
M  V30 4712 C 635.648 -6.11426 -5.62335 0
M  V30 4713 O 636.386 -5.6162 -6.70584 0
M  V30 4714 C 634.979 -5.04409 -4.73308 0
M  V30 4715 O 635.778 -3.85992 -4.75183 0
M  V30 4716 C 633.642 -4.8728 -5.41006 0
M  V30 4717 H 633.674 -4.02333 -6.11157 0
M  V30 4718 H 634.857 -5.39466 -3.69543 0
M  V30 4719 H 636.341 -6.71916 -5.01943 0
M  V30 4720 H 634.647 -7.4649 -6.93477 0
M  V30 4721 H 634.457 -8.89416 -5.05237 0
M  V30 4722 H 632.827 -8.14876 -5.18409 0
M  V30 4723 H 635.466 -3.27957 -5.4317 0
M  V30 4724 P 637.323 -5.75688 -6.64379 0
M  V30 4725 O 638.745 -6.07627 -7.05504 0
M  V30 4726 O 636.963 -5.88047 -5.19722 0
M  V30 4727 O 637 -4.2322 -7.04443 0
M  V30 4728 C 636.84 -3.99743 -8.4911 0
M  V30 4729 C 637.38 -2.60516 -8.79425 0
M  V30 4730 O 636.324 -1.82684 -8.4467 0
M  V30 4731 C 638.598 -2.10343 -8.03628 0
M  V30 4732 O 639.336 -1.09919 -8.67766 0
M  V30 4733 C 637.929 -1.68446 -6.70876 0
M  V30 4734 O 638.728 -0.678137 -6.08433 0
M  V30 4735 C 636.592 -1.17436 -7.18567 0
M  V30 4736 H 636.624 -0.0804732 -7.31656 0
M  V30 4737 H 637.807 -2.54037 -6.02537 0
M  V30 4738 H 639.291 -2.93881 -7.85526 0
M  V30 4739 H 637.597 -2.53065 -9.86973 0
M  V30 4740 H 637.407 -4.75072 -9.05887 0
M  V30 4741 H 635.777 -4.05244 -8.76668 0
M  V30 4742 H 638.416 0.177647 -6.34251 0
M  V30 4743 P 640.274 -1.25109 -8.70152 0
M  V30 4744 O 641.696 -1.29744 -9.22016 0
M  V30 4745 O 639.914 -2.13714 -7.55141 0
M  V30 4746 O 639.951 0.248149 -8.21425 0
M  V30 4747 C 639.791 1.22779 -9.30434 0
M  V30 4748 C 640.331 2.56293 -8.80664 0
M  V30 4749 O 639.275 3.02979 -8.09349 0
M  V30 4750 C 641.549 2.57523 -7.89775 0
M  V30 4751 O 642.287 3.7668 -7.89438 0
M  V30 4752 C 640.88 2.20997 -6.55446 0
M  V30 4753 O 641.679 2.71895 -5.48509 0
M  V30 4754 C 639.543 2.89693 -6.67988 0
M  V30 4755 H 639.575 3.88793 -6.19859 0
M  V30 4756 H 640.758 1.12046 -6.44229 0
M  V30 4757 H 642.242 1.7746 -8.19711 0
M  V30 4758 H 640.548 3.20706 -9.67112 0
M  V30 4759 H 640.358 0.901032 -10.1892 0
M  V30 4760 H 638.728 1.33049 -9.56592 0
M  V30 4761 H 641.367 3.57847 -5.23962 0
M  V30 4762 P 643.224 3.65191 -7.99657 0
M  V30 4763 O 644.645 3.89374 -8.45885 0
M  V30 4764 O 642.864 2.28472 -7.50807 0
M  V30 4765 O 642.901 4.64972 -6.77611 0
M  V30 4766 C 642.74 6.06383 -7.16428 0
M  V30 4767 C 643.281 6.91731 -6.02299 0
M  V30 4768 O 642.226 6.92369 -5.17005 0
M  V30 4769 C 644.499 6.43627 -5.25174 0
M  V30 4770 O 645.237 7.43686 -4.60469 0
M  V30 4771 C 643.831 5.40275 -4.31916 0
M  V30 4772 O 644.629 5.24878 -3.14911 0
M  V30 4773 C 642.493 6.04847 -4.05327 0
M  V30 4774 N 641.45 5.04166 -3.98114 0
M  V30 4775 C 641.619 3.84629 -4.59066 0
M  V30 4776 N 640.592 3.0363 -4.45343 0
M  V30 4777 C 639.707 3.76722 -3.68523 0
M  V30 4778 C 638.44 3.43528 -3.17088 0
M  V30 4779 N 637.875 4.44526 -2.44231 0
M  V30 4780 C 638.477 5.65243 -2.20146 0
M  V30 4781 N 639.654 6.00221 -2.65453 0
M  V30 4782 C 640.229 5.00564 -3.39083 0
M  V30 4783 H 643.708 4.42969 -4.80867 0
M  V30 4784 H 645.191 5.92458 -5.93643 0
M  V30 4785 H 643.497 7.93295 -6.39407 0
M  V30 4786 H 643.307 6.26671 -8.0846 0
M  V30 4787 H 641.677 6.29101 -7.32804 0
M  V30 4788 H 642.519 3.58193 -5.14248 0
M  V30 4789 H 644.317 5.84223 -2.47279 0
M  V30 4790 P 646.175 7.39546 -4.75277 0
M  V30 4791 O 647.597 7.84798 -5.01039 0
M  V30 4792 O 645.815 5.9812 -5.08098 0
M  V30 4793 O 645.852 7.57503 -3.1866 0
M  V30 4794 C 645.692 8.97357 -2.74833 0
M  V30 4795 C 646.232 9.07548 -1.32709 0
M  V30 4796 O 645.176 8.62072 -0.606159 0
M  V30 4797 C 647.45 8.25383 -0.938334 0
M  V30 4798 O 648.188 8.74577 0.146954 0
M  V30 4799 C 646.781 6.8802 -0.712559 0
M  V30 4800 O 647.58 6.1189 0.194655 0
M  V30 4801 C 645.444 7.27966 -0.139777 0
M  V30 4802 H 645.476 7.25354 0.961601 0
M  V30 4803 H 646.659 6.32557 -1.65702 0
M  V30 4804 H 648.143 8.19355 -1.79097 0
M  V30 4805 H 646.449 10.1294 -1.10029 0
M  V30 4806 H 646.259 9.64276 -3.41316 0
M  V30 4807 H 644.629 9.25417 -2.76357 0
M  V30 4808 H 647.268 6.25267 1.07847 0
M  V30 4809 P 649.125 8.791 4.45433e-12 0
M  V30 4810 O 650.547 9.31096 0.027933 0
M  V30 4811 O 648.765 7.77869 -1.04071 0
M  V30 4812 O 648.802 8.09533 1.41463 0
M  V30 4813 C 648.642 9.0349 2.53943 0
M  V30 4814 C 649.182 8.35226 3.79016 0
M  V30 4815 O 648.126 7.57992 4.15078 0
M  V30 4816 C 650.4 7.45087 3.67298 0
M  V30 4817 O 651.138 7.27796 4.85194 0
M  V30 4818 C 649.731 6.17323 3.12027 0
M  V30 4819 O 650.53 5.04231 3.47188 0
M  V30 4820 C 648.394 6.19961 3.81809 0
M  V30 4821 H 648.426 5.58218 4.73051 0
M  V30 4822 H 649.609 6.21726 2.02589 0
M  V30 4823 H 651.093 7.86112 2.9231 0
M  V30 4824 H 649.399 9.11627 4.55076 0
M  V30 4825 H 649.209 9.9573 2.34194 0
M  V30 4826 H 647.579 9.2792 2.67832 0
M  V30 4827 H 650.218 4.67702 4.28772 0
M  V30 4828 P 652.076 7.39546 4.75277 0
M  V30 4829 O 653.498 7.81777 5.05738 0
M  V30 4830 O 651.716 7.1065 3.32998 0
M  V30 4831 O 651.753 6.04542 5.56673 0
M  V30 4832 C 651.593 6.22772 7.02095 0
M  V30 4833 C 652.133 4.97725 7.70406 0
M  V30 4834 O 651.077 4.13256 7.58987 0
M  V30 4835 C 653.351 4.28231 7.11815 0
M  V30 4836 O 654.089 3.49945 8.01648 0
M  V30 4837 C 652.682 3.5063 5.96244 0
M  V30 4838 O 653.481 2.36482 5.64681 0
M  V30 4839 C 651.345 3.15122 6.56374 0
M  V30 4840 H 651.377 2.13853 6.99751 0
M  V30 4841 H 652.56 4.13501 5.06559 0
M  V30 4842 H 654.044 5.03285 6.70911 0
M  V30 4843 H 652.35 5.20877 8.75697 0
M  V30 4844 H 652.16 7.11046 7.35349 0
M  V30 4845 H 650.53 6.35815 7.26986 0
M  V30 4846 H 653.169 1.61644 6.13565 0
M  V30 4847 P 655.027 3.65191 7.99657 0
M  V30 4848 O 656.449 3.8425 8.48115 0
M  V30 4849 O 654.667 4.17805 6.64342 0
M  V30 4850 O 654.704 2.07613 7.95143 0
M  V30 4851 C 654.544 1.44328 9.27336 0
M  V30 4852 C 655.084 0.0220036 9.17197 0
M  V30 4853 O 654.028 -0.626867 8.61923 0
M  V30 4854 C 656.302 -0.24586 8.30336 0
M  V30 4855 O 657.04 -1.39011 8.63583 0
M  V30 4856 C 655.633 -0.273849 6.91158 0
M  V30 4857 O 656.432 -1.06348 6.02892 0
M  V30 4858 C 654.296 -0.897649 7.22545 0
M  V30 4859 H 654.328 -1.9841 7.04286 0
M  V30 4860 H 655.511 0.739928 6.497 0
M  V30 4861 H 656.995 0.60668 8.36503 0
M  V30 4862 H 655.301 -0.352479 10.1829 0
M  V30 4863 H 655.111 2.00611 10.0304 0
M  V30 4864 H 653.481 1.41843 9.55327 0
M  V30 4865 H 656.12 -1.95734 6.03555 0
M  V30 4866 P 657.977 -1.25109 8.70152 0
M  V30 4867 O 659.399 -1.35274 9.21221 0
M  V30 4868 O 657.617 -0.0769065 7.84762 0
M  V30 4869 O 657.654 -2.55232 7.81161 0
M  V30 4870 C 657.494 -3.79939 8.58154 0
M  V30 4871 C 658.034 -4.94023 7.72785 0
M  V30 4872 O 656.978 -5.18726 6.91205 0
M  V30 4873 C 659.252 -4.69597 6.85231 0
M  V30 4874 O 659.99 -5.83832 6.51337 0
M  V30 4875 C 658.583 -3.96706 5.66633 0
M  V30 4876 O 659.382 -4.15414 4.49689 0
M  V30 4877 C 657.246 -4.66153 5.59313 0
M  V30 4878 H 657.278 -5.47679 4.85214 0
M  V30 4879 H 658.461 -2.89008 5.86566 0
M  V30 4880 H 659.945 -4.0121 7.36511 0
M  V30 4881 H 658.251 -5.80182 8.37584 0
M  V30 4882 H 658.061 -3.73517 9.52265 0
M  V30 4883 H 656.431 -3.97163 8.80359 0
M  V30 4884 H 659.07 -4.90969 4.01921 0
M  V30 4885 P 660.928 -5.75688 6.64379 0
M  V30 4886 O 662.35 -6.11849 7.01846 0
M  V30 4887 O 660.568 -4.30744 6.56026 0
M  V30 4888 O 660.605 -6.37042 5.19165 0
M  V30 4889 C 660.445 -7.83578 5.16515 0
M  V30 4890 C 660.985 -8.33398 3.83019 0
M  V30 4891 O 659.929 -8.10074 3.01034 0
M  V30 4892 C 662.203 -7.65514 3.2257 0
M  V30 4893 O 662.941 -8.4329 2.32297 0
M  V30 4894 C 661.534 -6.40075 2.62207 0
M  V30 4895 O 662.333 -5.92589 1.53712 0
M  V30 4896 C 660.197 -6.9454 2.18503 0
M  V30 4897 H 660.229 -7.23063 1.12091 0
M  V30 4898 H 661.412 -5.6025 3.37201 0
M  V30 4899 H 662.896 -7.35707 4.02681 0
M  V30 4900 H 661.202 -9.40912 3.9095 0
M  V30 4901 H 661.012 -8.29056 5.99158 0
M  V30 4902 H 659.382 -8.10073 5.25882 0
M  V30 4903 H 662.021 -6.30324 0.726794 0
M  V30 4904 P 663.878 -8.4349 2.47671 0
M  V30 4905 O 665.299 -8.94263 2.59668 0
M  V30 4906 O 663.518 -7.1704 3.19006 0
M  V30 4907 O 663.555 -8.16596 0.923387 0
M  V30 4908 C 663.394 -9.38537 0.108869 0
M  V30 4909 C 663.935 -9.08175 -1.28353 0
M  V30 4910 O 662.88 -8.44131 -1.84692 0
M  V30 4911 C 665.153 -8.18386 -1.42505 0
M  V30 4912 O 665.891 -8.3501 -2.60497 0
M  V30 4913 C 664.485 -6.80225 -1.25468 0
M  V30 4914 O 665.283 -5.81716 -1.90454 0
M  V30 4915 C 663.147 -7.02416 -1.9168 0
M  V30 4916 N 662.104 -6.31033 -1.20314 0
M  V30 4917 C 662.273 -5.98817 0.0994088 0
M  V30 4918 N 661.246 -5.35403 0.621694 0
M  V30 4919 C 660.361 -5.25212 -0.43376 0
M  V30 4920 C 659.094 -4.64602 -0.519722 0
M  V30 4921 N 658.529 -4.7568 -1.76013 0
M  V30 4922 C 659.131 -5.3653 -2.83017 0
M  V30 4923 N 660.308 -5.93676 -2.79782 0
M  V30 4924 C 660.883 -5.84061 -1.56249 0
M  V30 4925 H 664.362 -6.53498 -0.198729 0
M  V30 4926 H 665.845 -8.36622 -0.589963 0
M  V30 4927 H 664.151 -10.0273 -1.8081 0
M  V30 4928 H 663.961 -10.2138 0.558219 0
M  V30 4929 H 662.331 -9.6579 0.0444202 0
M  V30 4930 H 663.173 -6.23209 0.660562 0
M  V30 4931 H 664.971 -5.69466 -2.79593 0
M  V30 4932 P 666.829 -8.4349 -2.47671 0
M  V30 4933 O 668.251 -8.92593 -2.65 0
M  V30 4934 O 666.469 -7.7568 -1.19296 0
M  V30 4935 O 666.506 -7.36886 -3.63805 0
M  V30 4936 C 666.346 -7.95349 -4.982 0
M  V30 4937 C 666.886 -6.94612 -5.98974 0
M  V30 4938 O 665.83 -6.10347 -6.11815 0
M  V30 4939 C 668.104 -6.11426 -5.62335 0
M  V30 4940 O 668.842 -5.6162 -6.70584 0
M  V30 4941 C 667.435 -5.04409 -4.73308 0
M  V30 4942 O 668.234 -3.85992 -4.75183 0
M  V30 4943 C 666.098 -4.8728 -5.41006 0
M  V30 4944 H 666.13 -4.02333 -6.11157 0
M  V30 4945 H 667.313 -5.39466 -3.69543 0
M  V30 4946 H 668.797 -6.71916 -5.01943 0
M  V30 4947 H 667.103 -7.4649 -6.93477 0
M  V30 4948 H 666.913 -8.89416 -5.05237 0
M  V30 4949 H 665.283 -8.14876 -5.18409 0
M  V30 4950 H 667.922 -3.27957 -5.4317 0
M  V30 4951 P 669.779 -5.75688 -6.64379 0
M  V30 4952 O 671.2 -6.07692 -7.0558 0
M  V30 4953 O 669.419 -5.88047 -5.19722 0
M  V30 4954 O 669.456 -4.2322 -7.04443 0
M  V30 4955 C 669.295 -3.99785 -8.49201 0
M  V30 4956 C 669.836 -2.60516 -8.79425 0
M  V30 4957 O 668.781 -1.82663 -8.44573 0
M  V30 4958 C 671.054 -2.10343 -8.03628 0
M  V30 4959 O 671.792 -1.09919 -8.67766 0
M  V30 4960 C 670.386 -1.68446 -6.70876 0
M  V30 4961 O 671.184 -0.684109 -6.08265 0
M  V30 4962 C 669.048 -1.17436 -7.18567 0
M  V30 4963 N 668.005 -1.52699 -6.23988 0
M  V30 4964 C 668.174 -2.578 -5.40574 0
M  V30 4965 N 667.147 -2.78966 -4.61193 0
M  V30 4966 C 666.262 -1.78725 -4.95769 0
M  V30 4967 C 664.995 -1.45727 -4.44207 0
M  V30 4968 N 664.43 -0.374977 -5.05812 0
M  V30 4969 C 665.032 0.345585 -6.05615 0
M  V30 4970 N 666.209 0.0787651 -6.56253 0
M  V30 4971 C 666.784 -1.00499 -5.96189 0
M  V30 4972 H 670.263 -2.53396 -6.02698 0
M  V30 4973 H 671.746 -2.93881 -7.85526 0
M  V30 4974 H 670.052 -2.52078 -9.87225 0
M  V30 4975 H 669.862 -4.75072 -9.05887 0
M  V30 4976 H 668.232 -4.05244 -8.76668 0
M  V30 4977 H 669.074 -3.18977 -5.3945 0
M  V30 4978 H 670.872 0.177619 -6.34151 0
M  V30 4979 P 672.73 -1.25109 -8.70152 0
M  V30 4980 O 674.152 -1.29744 -9.22016 0
M  V30 4981 O 672.37 -2.13714 -7.55141 0
M  V30 4982 O 672.407 0.248149 -8.21425 0
M  V30 4983 C 672.247 1.22779 -9.30434 0
M  V30 4984 C 672.787 2.56293 -8.80664 0
M  V30 4985 O 671.731 3.02979 -8.09349 0
M  V30 4986 C 674.005 2.57523 -7.89775 0
M  V30 4987 O 674.743 3.7668 -7.89438 0
M  V30 4988 C 673.336 2.20997 -6.55446 0
M  V30 4989 O 674.135 2.71895 -5.48509 0
M  V30 4990 C 671.999 2.89693 -6.67988 0
M  V30 4991 H 672.031 3.88793 -6.19859 0
M  V30 4992 H 673.214 1.12046 -6.44229 0
M  V30 4993 H 674.698 1.7746 -8.19711 0
M  V30 4994 H 673.004 3.20706 -9.67112 0
M  V30 4995 H 672.814 0.901032 -10.1892 0
M  V30 4996 H 671.184 1.33049 -9.56592 0
M  V30 4997 H 673.823 3.57847 -5.23962 0
M  V30 4998 P 675.681 3.65191 -7.99657 0
M  V30 4999 O 677.103 3.89332 -8.45794 0
M  V30 5000 O 675.321 2.28472 -7.50807 0
M  V30 5001 O 675.358 4.64972 -6.77611 0
M  V30 5002 C 675.198 6.06319 -7.16352 0
M  V30 5003 C 675.738 6.91731 -6.02299 0
M  V30 5004 O 674.682 6.92449 -5.17064 0
M  V30 5005 C 676.956 6.43627 -5.25174 0
M  V30 5006 O 677.694 7.43686 -4.60469 0
M  V30 5007 C 676.287 5.40275 -4.31916 0
M  V30 5008 O 677.086 5.25279 -3.14438 0
M  V30 5009 C 674.95 6.04847 -4.05327 0
M  V30 5010 H 674.982 6.62195 -3.11261 0
M  V30 5011 H 676.165 4.42556 -4.81383 0
M  V30 5012 H 677.649 5.92458 -5.93643 0
M  V30 5013 H 675.955 7.92655 -6.402 0
M  V30 5014 H 675.765 6.26671 -8.0846 0
M  V30 5015 H 674.135 6.29101 -7.32804 0
M  V30 5016 H 676.774 5.84315 -2.47318 0
M  V30 5017 P 678.631 7.39546 -4.75277 0
M  V30 5018 O 680.053 7.84798 -5.01039 0
M  V30 5019 O 678.271 5.9812 -5.08098 0
M  V30 5020 O 678.308 7.57503 -3.1866 0
M  V30 5021 C 678.148 8.97357 -2.74833 0
M  V30 5022 C 678.688 9.07548 -1.32709 0
M  V30 5023 O 677.632 8.62072 -0.606159 0
M  V30 5024 C 679.906 8.25383 -0.938334 0
M  V30 5025 O 680.644 8.74577 0.146954 0
M  V30 5026 C 679.237 6.8802 -0.712559 0
M  V30 5027 O 680.036 6.1189 0.194655 0
M  V30 5028 C 677.9 7.27966 -0.139777 0
M  V30 5029 H 677.932 7.25354 0.961601 0
M  V30 5030 H 679.115 6.32557 -1.65702 0
M  V30 5031 H 680.599 8.19355 -1.79097 0
M  V30 5032 H 678.905 10.1294 -1.10029 0
M  V30 5033 H 678.715 9.64276 -3.41316 0
M  V30 5034 H 677.085 9.25417 -2.76357 0
M  V30 5035 H 679.724 6.25267 1.07847 0
M  V30 5036 P 681.582 8.791 4.7645e-12 0
M  V30 5037 O 683.004 9.31096 0.027933 0
M  V30 5038 O 681.222 7.77869 -1.04071 0
M  V30 5039 O 681.259 8.09533 1.41463 0
M  V30 5040 C 681.099 9.0349 2.53943 0
M  V30 5041 C 681.639 8.35226 3.79016 0
M  V30 5042 O 680.583 7.57992 4.15078 0
M  V30 5043 C 682.857 7.45087 3.67298 0
M  V30 5044 O 683.595 7.27796 4.85194 0
M  V30 5045 C 682.188 6.17323 3.12027 0
M  V30 5046 O 682.987 5.04231 3.47188 0
M  V30 5047 C 680.851 6.19961 3.81809 0
M  V30 5048 H 680.883 5.58218 4.73051 0
M  V30 5049 H 682.066 6.21726 2.02589 0
M  V30 5050 H 683.55 7.86112 2.9231 0
M  V30 5051 H 681.856 9.11627 4.55076 0
M  V30 5052 H 681.666 9.9573 2.34194 0
M  V30 5053 H 680.036 9.2792 2.67832 0
M  V30 5054 H 682.675 4.67702 4.28772 0
M  V30 5055 P 684.532 7.39546 4.75277 0
M  V30 5056 O 685.954 7.81777 5.05738 0
M  V30 5057 O 684.172 7.1065 3.32998 0
M  V30 5058 O 684.209 6.04542 5.56673 0
M  V30 5059 C 684.049 6.22772 7.02095 0
M  V30 5060 C 684.589 4.97725 7.70406 0
M  V30 5061 O 683.533 4.13256 7.58987 0
M  V30 5062 C 685.807 4.28231 7.11815 0
M  V30 5063 O 686.545 3.49945 8.01648 0
M  V30 5064 C 685.138 3.5063 5.96244 0
M  V30 5065 O 685.937 2.36482 5.64681 0
M  V30 5066 C 683.801 3.15122 6.56374 0
M  V30 5067 H 683.833 2.13853 6.99751 0
M  V30 5068 H 685.016 4.13501 5.06559 0
M  V30 5069 H 686.5 5.03285 6.70911 0
M  V30 5070 H 684.806 5.20877 8.75697 0
M  V30 5071 H 684.616 7.11046 7.35349 0
M  V30 5072 H 682.986 6.35815 7.26986 0
M  V30 5073 H 685.625 1.61644 6.13565 0
M  V30 5074 P 687.483 3.65191 7.99657 0
M  V30 5075 O 688.905 3.84333 8.48297 0
M  V30 5076 O 687.123 4.17805 6.64342 0
M  V30 5077 O 687.16 2.07613 7.95143 0
M  V30 5078 C 687 1.44328 9.27336 0
M  V30 5079 C 687.54 0.0220012 9.17097 0
M  V30 5080 O 686.485 -0.626867 8.61923 0
M  V30 5081 C 688.758 -0.24586 8.30336 0
M  V30 5082 O 689.496 -1.39011 8.63583 0
M  V30 5083 C 688.09 -0.273849 6.91158 0
M  V30 5084 O 688.888 -1.06331 6.02794 0
M  V30 5085 C 686.752 -0.897649 7.22545 0
M  V30 5086 N 685.709 -0.292839 6.41732 0
M  V30 5087 C 685.771 1.00068 6.10757 0
M  V30 5088 N 684.726 1.36468 5.35794 0
M  V30 5089 C 683.992 0.258894 5.2366 0
M  V30 5090 C 682.686 0.0670682 4.65752 0
M  V30 5091 O 681.953 0.902443 4.10497 0
M  V30 5092 N 682.256 -1.2131 4.75881 0
M  V30 5093 C 683.005 -2.24934 5.37101 0
M  V30 5094 N 682.408 -3.48783 5.33984 0
M  V30 5095 N 684.158 -2.0844 5.95684 0
M  V30 5096 C 684.615 -0.81395 5.87791 0
M  V30 5097 H 686.784 -1.9841 7.04286 0
M  V30 5098 H 687.967 0.739815 6.49601 0
M  V30 5099 H 689.452 0.598315 8.36563 0
M  V30 5100 H 687.757 -0.352479 10.1829 0
M  V30 5101 H 687.567 2.00611 10.0304 0
M  V30 5102 H 685.936 1.41843 9.55327 0
M  V30 5103 H 681.36 -1.44434 4.37895 0
M  V30 5104 H 686.567 1.67697 6.42268 0
M  V30 5105 H 681.497 -3.60543 4.87699 0
M  V30 5106 H 682.873 -4.29232 5.7819 0
M  V30 5107 H 688.577 -1.95704 6.0346 0
M  V30 5108 P 690.433 -1.25109 8.70152 0
M  V30 5109 O 691.855 -1.35274 9.21221 0
M  V30 5110 O 690.073 -0.0769065 7.84762 0
M  V30 5111 O 690.11 -2.55232 7.81161 0
M  V30 5112 C 689.95 -3.79939 8.58154 0
M  V30 5113 C 690.49 -4.94023 7.72785 0
M  V30 5114 O 689.434 -5.18726 6.91205 0
M  V30 5115 C 691.708 -4.69597 6.85231 0
M  V30 5116 O 692.446 -5.83832 6.51337 0
M  V30 5117 C 691.039 -3.96706 5.66633 0
M  V30 5118 O 691.838 -4.15414 4.49689 0
M  V30 5119 C 689.702 -4.66153 5.59313 0
M  V30 5120 H 689.734 -5.47679 4.85214 0
M  V30 5121 H 690.917 -2.89008 5.86566 0
M  V30 5122 H 692.401 -4.0121 7.36511 0
M  V30 5123 H 690.707 -5.80182 8.37584 0
M  V30 5124 H 690.517 -3.73517 9.52265 0
M  V30 5125 H 688.887 -3.97163 8.80359 0
M  V30 5126 H 691.526 -4.90969 4.01921 0
M  V30 5127 P 693.384 -5.75688 6.64379 0
M  V30 5128 O 694.805 -6.11915 7.01921 0
M  V30 5129 O 693.024 -4.30744 6.56026 0
M  V30 5130 O 693.061 -6.37042 5.19165 0
M  V30 5131 C 692.9 -7.83662 5.1657 0
M  V30 5132 C 693.441 -8.33398 3.83019 0
M  V30 5133 O 692.386 -8.0998 3.00999 0
M  V30 5134 C 694.659 -7.65514 3.2257 0
M  V30 5135 O 695.397 -8.4329 2.32297 0
M  V30 5136 C 693.991 -6.40075 2.62207 0
M  V30 5137 O 694.789 -5.92338 1.5428 0
M  V30 5138 C 692.653 -6.9454 2.18503 0
M  V30 5139 N 691.61 -5.95905 2.39948 0
M  V30 5140 C 691.779 -4.98383 3.32108 0
M  V30 5141 N 690.752 -4.16798 3.41761 0
M  V30 5142 C 689.867 -4.65287 2.47461 0
M  V30 5143 C 688.6 -4.18946 2.07461 0
M  V30 5144 N 688.035 -4.95327 1.09101 0
M  V30 5145 C 688.637 -6.04369 0.519812 0
M  V30 5146 N 689.814 -6.50694 0.855982 0
M  V30 5147 C 690.389 -5.75818 1.84322 0
M  V30 5148 H 693.868 -5.60502 3.36589 0
M  V30 5149 H 695.351 -7.35707 4.02681 0
M  V30 5150 H 693.657 -9.41302 3.90009 0
M  V30 5151 H 693.467 -8.29056 5.99158 0
M  V30 5152 H 691.837 -8.10073 5.25882 0
M  V30 5153 H 692.679 -4.88564 3.92502 0
M  V30 5154 H 694.477 -6.30224 0.72668 0
M  V30 5155 P 696.335 -8.4349 2.47671 0
M  V30 5156 O 697.736 -8.98227 2.65696 0
M  V30 5157 O 695.957 -7.20409 3.23964 0
M  V30 5158 O 696.012 -8.16496 0.923275 0
M  V30 5159 C 695.852 -9.38437 0.108857 0
M  V30 5160 C 696.392 -9.08076 -1.28339 0
M  V30 5161 O 695.336 -8.44131 -1.84692 0
M  V30 5162 C 697.609 -8.18386 -1.42505 0
M  V30 5163 O 698.348 -8.3501 -2.60497 0
M  V30 5164 C 696.942 -6.80225 -1.25468 0
M  V30 5165 O 697.74 -5.81526 -1.91035 0
M  V30 5166 C 695.604 -7.02416 -1.9168 0
M  V30 5167 N 694.561 -6.31033 -1.20314 0
M  V30 5168 C 693.526 -5.77149 -1.928 0
M  V30 5169 O 693.565 -5.8521 -3.17729 0
M  V30 5170 N 692.514 -5.15445 -1.27997 0
M  V30 5171 C 692.562 -5.04472 0.0534726 0
M  V30 5172 C 693.658 -5.55244 0.808522 0
M  V30 5173 C 694.624 -6.18542 0.13981 0
M  V30 5174 H 695.636 -6.68789 -2.9658 0
M  V30 5175 H 696.819 -6.53498 -0.198729 0
M  V30 5176 H 698.303 -8.36663 -0.5984 0
M  V30 5177 H 696.609 -10.0273 -1.8081 0
M  V30 5178 H 696.418 -10.2138 0.558219 0
M  V30 5179 H 694.788 -9.6569 0.0444156 0
M  V30 5180 H 693.706 -5.43017 1.88792 0
M  V30 5181 H 695.47 -6.60539 0.686773 0
M  V30 5182 H 697.524 -5.79638 -2.8315 0
M  V30 5183 P 699.285 -8.4349 -2.47671 0
M  V30 5184 O 700.707 -8.92593 -2.65 0
M  V30 5185 O 698.925 -7.7568 -1.19296 0
M  V30 5186 O 698.962 -7.36886 -3.63805 0
M  V30 5187 C 698.802 -7.95349 -4.982 0
M  V30 5188 C 699.342 -6.94612 -5.98974 0
M  V30 5189 O 698.286 -6.10347 -6.11815 0
M  V30 5190 C 700.56 -6.11426 -5.62335 0
M  V30 5191 O 701.298 -5.6162 -6.70584 0
M  V30 5192 C 699.891 -5.04409 -4.73308 0
M  V30 5193 O 700.69 -3.85992 -4.75183 0
M  V30 5194 C 698.554 -4.8728 -5.41006 0
M  V30 5195 H 698.586 -4.02333 -6.11157 0
M  V30 5196 H 699.769 -5.39466 -3.69543 0
M  V30 5197 H 701.253 -6.71916 -5.01943 0
M  V30 5198 H 699.559 -7.4649 -6.93477 0
M  V30 5199 H 699.369 -8.89416 -5.05237 0
M  V30 5200 H 697.739 -8.14876 -5.18409 0
M  V30 5201 H 700.378 -3.27957 -5.4317 0
M  V30 5202 P 702.236 -5.75688 -6.64379 0
M  V30 5203 O 703.658 -6.07627 -7.05504 0
M  V30 5204 O 701.876 -5.88047 -5.19722 0
M  V30 5205 O 701.913 -4.2322 -7.04443 0
M  V30 5206 C 701.753 -3.99743 -8.4911 0
M  V30 5207 C 702.293 -2.60516 -8.79425 0
M  V30 5208 O 701.237 -1.82684 -8.4467 0
M  V30 5209 C 703.511 -2.10343 -8.03628 0
M  V30 5210 O 704.249 -1.09919 -8.67766 0
M  V30 5211 C 702.842 -1.68446 -6.70876 0
M  V30 5212 O 703.641 -0.678137 -6.08433 0
M  V30 5213 C 701.505 -1.17436 -7.18567 0
M  V30 5214 H 701.537 -0.0804732 -7.31656 0
M  V30 5215 H 702.72 -2.54037 -6.02537 0
M  V30 5216 H 704.204 -2.93881 -7.85526 0
M  V30 5217 H 702.51 -2.53065 -9.86973 0
M  V30 5218 H 702.32 -4.75072 -9.05887 0
M  V30 5219 H 700.69 -4.05244 -8.76668 0
M  V30 5220 H 703.329 0.177647 -6.34251 0
M  V30 5221 P 705.186 -1.25109 -8.70152 0
M  V30 5222 O 706.587 -1.3516 -9.26897 0
M  V30 5223 O 704.808 -2.18141 -7.59181 0
M  V30 5224 O 704.863 0.248118 -8.21325 0
M  V30 5225 C 704.703 1.22779 -9.30434 0
M  V30 5226 C 705.243 2.56265 -8.80568 0
M  V30 5227 O 704.187 3.02944 -8.09255 0
M  V30 5228 C 706.46 2.57523 -7.89775 0
M  V30 5229 O 707.199 3.7668 -7.89438 0
M  V30 5230 C 705.793 2.20997 -6.55446 0
M  V30 5231 O 706.591 2.71851 -5.48419 0
M  V30 5232 C 704.455 2.89693 -6.67988 0
M  V30 5233 N 703.412 2.08895 -6.07487 0
M  V30 5234 C 702.377 2.72974 -5.43836 0
M  V30 5235 O 702.416 3.97779 -5.34036 0
M  V30 5236 N 701.365 2.0005 -4.91983 0
M  V30 5237 C 701.413 0.66501 -5.00098 0
M  V30 5238 C 702.509 -0.0100979 -5.61099 0
M  V30 5239 C 703.475 0.74189 -6.14236 0
M  V30 5240 H 704.487 3.8874 -6.19774 0
M  V30 5241 H 705.67 1.12673 -6.44018 0
M  V30 5242 H 707.154 1.783 -8.19631 0
M  V30 5243 H 705.46 3.21673 -9.66791 0
M  V30 5244 H 705.269 0.901032 -10.1892 0
M  V30 5245 H 703.639 1.33036 -9.56493 0
M  V30 5246 H 702.557 -1.09591 -5.64358 0
M  V30 5247 H 704.321 0.260263 -6.6359 0
M  V30 5248 H 706.375 3.62759 -5.33442 0
M  V30 5249 P 708.137 3.65191 -7.99657 0
M  V30 5250 O 709.559 3.89332 -8.45794 0
M  V30 5251 O 707.777 2.28472 -7.50807 0
M  V30 5252 O 707.814 4.64972 -6.77611 0
M  V30 5253 C 707.654 6.06319 -7.16352 0
M  V30 5254 C 708.194 6.91731 -6.02299 0
M  V30 5255 O 707.138 6.92449 -5.17064 0
M  V30 5256 C 709.412 6.43627 -5.25174 0
M  V30 5257 O 710.15 7.43686 -4.60469 0
M  V30 5258 C 708.743 5.40275 -4.31916 0
M  V30 5259 O 709.542 5.25279 -3.14438 0
M  V30 5260 C 707.406 6.04847 -4.05327 0
M  V30 5261 H 707.438 6.62195 -3.11261 0
M  V30 5262 H 708.621 4.42556 -4.81383 0
M  V30 5263 H 710.105 5.92458 -5.93643 0
M  V30 5264 H 708.411 7.92655 -6.402 0
M  V30 5265 H 708.221 6.26671 -8.0846 0
M  V30 5266 H 706.591 6.29101 -7.32804 0
M  V30 5267 H 709.23 5.84315 -2.47318 0
M  V30 5268 P 711.087 7.39546 -4.75277 0
M  V30 5269 O 712.509 7.84798 -5.01039 0
M  V30 5270 O 710.727 5.9812 -5.08098 0
M  V30 5271 O 710.764 7.57503 -3.1866 0
M  V30 5272 C 710.604 8.97357 -2.74833 0
M  V30 5273 C 711.144 9.07548 -1.32709 0
M  V30 5274 O 710.088 8.62072 -0.606159 0
M  V30 5275 C 712.362 8.25383 -0.938334 0
M  V30 5276 O 713.1 8.74577 0.146954 0
M  V30 5277 C 711.693 6.8802 -0.712559 0
M  V30 5278 O 712.492 6.1189 0.194655 0
M  V30 5279 C 710.356 7.27966 -0.139777 0
M  V30 5280 H 710.388 7.25354 0.961601 0
M  V30 5281 H 711.571 6.32557 -1.65702 0
M  V30 5282 H 713.055 8.19355 -1.79097 0
M  V30 5283 H 711.361 10.1294 -1.10029 0
M  V30 5284 H 711.171 9.64276 -3.41316 0
M  V30 5285 H 709.541 9.25417 -2.76357 0
M  V30 5286 H 712.18 6.25267 1.07847 0
M  V30 5287 P 714.038 8.791 5.07466e-12 0
M  V30 5288 O 715.46 9.31096 0.027933 0
M  V30 5289 O 713.678 7.77869 -1.04071 0
M  V30 5290 O 713.715 8.09533 1.41463 0
M  V30 5291 C 713.555 9.0349 2.53943 0
M  V30 5292 C 714.095 8.35226 3.79016 0
M  V30 5293 O 713.039 7.57992 4.15078 0
M  V30 5294 C 715.313 7.45087 3.67298 0
M  V30 5295 O 716.051 7.27796 4.85194 0
M  V30 5296 C 714.644 6.17323 3.12027 0
M  V30 5297 O 715.443 5.04231 3.47188 0
M  V30 5298 C 713.307 6.19961 3.81809 0
M  V30 5299 H 713.339 5.58218 4.73051 0
M  V30 5300 H 714.522 6.21726 2.02589 0
M  V30 5301 H 716.006 7.86112 2.9231 0
M  V30 5302 H 714.312 9.11627 4.55076 0
M  V30 5303 H 714.122 9.9573 2.34194 0
M  V30 5304 H 712.492 9.2792 2.67832 0
M  V30 5305 H 715.131 4.67702 4.28772 0
M  V30 5306 P 716.989 7.39546 4.75277 0
M  V30 5307 O 718.411 7.81777 5.05738 0
M  V30 5308 O 716.629 7.1065 3.32998 0
M  V30 5309 O 716.666 6.04542 5.56673 0
M  V30 5310 C 716.506 6.22772 7.02095 0
M  V30 5311 C 717.046 4.97725 7.70406 0
M  V30 5312 O 715.99 4.13256 7.58987 0
M  V30 5313 C 718.264 4.28231 7.11815 0
M  V30 5314 O 719.002 3.49945 8.01648 0
M  V30 5315 C 717.595 3.5063 5.96244 0
M  V30 5316 O 718.394 2.36482 5.64681 0
M  V30 5317 C 716.258 3.15122 6.56374 0
M  V30 5318 H 716.29 2.13853 6.99751 0
M  V30 5319 H 717.473 4.13501 5.06559 0
M  V30 5320 H 718.957 5.03285 6.70911 0
M  V30 5321 H 717.263 5.20877 8.75697 0
M  V30 5322 H 717.073 7.11046 7.35349 0
M  V30 5323 H 715.443 6.35815 7.26986 0
M  V30 5324 H 718.082 1.61644 6.13565 0
M  V30 5325 P 719.939 3.65191 7.99657 0
M  V30 5326 O 721.361 3.84333 8.48297 0
M  V30 5327 O 719.579 4.17805 6.64342 0
M  V30 5328 O 719.616 2.07613 7.95143 0
M  V30 5329 C 719.456 1.44328 9.27336 0
M  V30 5330 C 719.996 0.0220012 9.17097 0
M  V30 5331 O 718.941 -0.626867 8.61923 0
M  V30 5332 C 721.214 -0.24586 8.30336 0
M  V30 5333 O 721.952 -1.39011 8.63583 0
M  V30 5334 C 720.546 -0.273849 6.91158 0
M  V30 5335 O 721.344 -1.06331 6.02794 0
M  V30 5336 C 719.208 -0.897649 7.22545 0
M  V30 5337 N 718.165 -0.292839 6.41732 0
M  V30 5338 C 718.227 1.00068 6.10757 0
M  V30 5339 N 717.182 1.36468 5.35794 0
M  V30 5340 C 716.448 0.258894 5.2366 0
M  V30 5341 C 715.142 0.0670682 4.65752 0
M  V30 5342 O 714.409 0.902443 4.10497 0
M  V30 5343 N 714.712 -1.2131 4.75881 0
M  V30 5344 C 715.461 -2.24934 5.37101 0
M  V30 5345 N 714.864 -3.48783 5.33984 0
M  V30 5346 N 716.614 -2.0844 5.95684 0
M  V30 5347 C 717.071 -0.81395 5.87791 0
M  V30 5348 H 719.24 -1.9841 7.04286 0
M  V30 5349 H 720.423 0.739815 6.49601 0
M  V30 5350 H 721.908 0.598315 8.36563 0
M  V30 5351 H 720.213 -0.352479 10.1829 0
M  V30 5352 H 720.023 2.00611 10.0304 0
M  V30 5353 H 718.392 1.41843 9.55327 0
M  V30 5354 H 713.816 -1.44434 4.37895 0
M  V30 5355 H 719.023 1.67697 6.42268 0
M  V30 5356 H 713.953 -3.60543 4.87699 0
M  V30 5357 H 715.329 -4.29232 5.7819 0
M  V30 5358 H 721.033 -1.95704 6.0346 0
M  V30 5359 P 722.89 -1.25109 8.70152 0
M  V30 5360 O 724.312 -1.35274 9.21221 0
M  V30 5361 O 722.53 -0.0769065 7.84762 0
M  V30 5362 O 722.567 -2.55232 7.81161 0
M  V30 5363 C 722.407 -3.79939 8.58154 0
M  V30 5364 C 722.947 -4.94023 7.72785 0
M  V30 5365 O 721.891 -5.18726 6.91205 0
M  V30 5366 C 724.165 -4.69597 6.85231 0
M  V30 5367 O 724.903 -5.83832 6.51337 0
M  V30 5368 C 723.496 -3.96706 5.66633 0
M  V30 5369 O 724.295 -4.15414 4.49689 0
M  V30 5370 C 722.159 -4.66153 5.59313 0
M  V30 5371 H 722.191 -5.47679 4.85214 0
M  V30 5372 H 723.374 -2.89008 5.86566 0
M  V30 5373 H 724.858 -4.0121 7.36511 0
M  V30 5374 H 723.164 -5.80182 8.37584 0
M  V30 5375 H 722.974 -3.73517 9.52265 0
M  V30 5376 H 721.344 -3.97163 8.80359 0
M  V30 5377 H 723.983 -4.90969 4.01921 0
M  V30 5378 P 725.84 -5.75688 6.64379 0
M  V30 5379 O 727.262 -6.11849 7.01846 0
M  V30 5380 O 725.48 -4.30744 6.56026 0
M  V30 5381 O 725.517 -6.37042 5.19165 0
M  V30 5382 C 725.357 -7.83578 5.16515 0
M  V30 5383 C 725.897 -8.33398 3.83019 0
M  V30 5384 O 724.841 -8.10074 3.01034 0
M  V30 5385 C 727.115 -7.65514 3.2257 0
M  V30 5386 O 727.853 -8.4329 2.32297 0
M  V30 5387 C 726.446 -6.40075 2.62207 0
M  V30 5388 O 727.245 -5.92589 1.53712 0
M  V30 5389 C 725.109 -6.9454 2.18503 0
M  V30 5390 H 725.141 -7.23063 1.12091 0
M  V30 5391 H 726.324 -5.6025 3.37201 0
M  V30 5392 H 727.808 -7.35707 4.02681 0
M  V30 5393 H 726.114 -9.40912 3.9095 0
M  V30 5394 H 725.924 -8.29056 5.99158 0
M  V30 5395 H 724.294 -8.10073 5.25882 0
M  V30 5396 H 726.933 -6.30324 0.726794 0
M  V30 5397 P 728.791 -8.4349 2.47671 0
M  V30 5398 O 730.192 -8.98227 2.65696 0
M  V30 5399 O 728.413 -7.20409 3.23964 0
M  V30 5400 O 728.468 -8.16496 0.923275 0
M  V30 5401 C 728.308 -9.38437 0.108857 0
M  V30 5402 C 728.848 -9.08076 -1.28339 0
M  V30 5403 O 727.792 -8.44131 -1.84692 0
M  V30 5404 C 730.065 -8.18386 -1.42505 0
M  V30 5405 O 730.804 -8.3501 -2.60497 0
M  V30 5406 C 729.398 -6.80225 -1.25468 0
M  V30 5407 O 730.196 -5.81526 -1.91035 0
M  V30 5408 C 728.06 -7.02416 -1.9168 0
M  V30 5409 N 727.017 -6.31033 -1.20314 0
M  V30 5410 C 725.982 -5.77149 -1.928 0
M  V30 5411 O 726.021 -5.8521 -3.17729 0
M  V30 5412 N 724.97 -5.15445 -1.27997 0
M  V30 5413 C 725.018 -5.04472 0.0534726 0
M  V30 5414 N 724.008 -4.44183 0.669496 0
M  V30 5415 C 726.114 -5.55244 0.808522 0
M  V30 5416 C 727.08 -6.18542 0.13981 0
M  V30 5417 H 728.092 -6.68789 -2.9658 0
M  V30 5418 H 729.275 -6.53498 -0.198729 0
M  V30 5419 H 730.759 -8.36663 -0.5984 0
M  V30 5420 H 729.065 -10.0273 -1.8081 0
M  V30 5421 H 728.874 -10.2138 0.558219 0
M  V30 5422 H 727.244 -9.6569 0.0444156 0
M  V30 5423 H 726.162 -5.43017 1.88792 0
M  V30 5424 H 727.926 -6.60539 0.686773 0
M  V30 5425 H 723.218 -4.07222 0.12057 0
M  V30 5426 H 724.013 -4.34288 1.69244 0
M  V30 5427 H 729.98 -5.79638 -2.8315 0
M  V30 5428 P 731.741 -8.4349 -2.47671 0
M  V30 5429 O 733.163 -8.92593 -2.65 0
M  V30 5430 O 731.381 -7.7568 -1.19296 0
M  V30 5431 O 731.418 -7.36886 -3.63805 0
M  V30 5432 C 731.258 -7.95349 -4.982 0
M  V30 5433 C 731.798 -6.94612 -5.98974 0
M  V30 5434 O 730.742 -6.10347 -6.11815 0
M  V30 5435 C 733.016 -6.11426 -5.62335 0
M  V30 5436 O 733.754 -5.6162 -6.70584 0
M  V30 5437 C 732.347 -5.04409 -4.73308 0
M  V30 5438 O 733.146 -3.85992 -4.75183 0
M  V30 5439 C 731.01 -4.8728 -5.41006 0
M  V30 5440 H 731.042 -4.02333 -6.11157 0
M  V30 5441 H 732.225 -5.39466 -3.69543 0
M  V30 5442 H 733.709 -6.71916 -5.01943 0
M  V30 5443 H 732.015 -7.4649 -6.93477 0
M  V30 5444 H 731.825 -8.89416 -5.05237 0
M  V30 5445 H 730.195 -8.14876 -5.18409 0
M  V30 5446 H 732.834 -3.27957 -5.4317 0
M  V30 5447 P 734.692 -5.75688 -6.64379 0
M  V30 5448 O 736.114 -6.07627 -7.05504 0
M  V30 5449 O 734.332 -5.88047 -5.19722 0
M  V30 5450 O 734.369 -4.2322 -7.04443 0
M  V30 5451 C 734.209 -3.99743 -8.4911 0
M  V30 5452 C 734.749 -2.60516 -8.79425 0
M  V30 5453 O 733.693 -1.82684 -8.4467 0
M  V30 5454 C 735.967 -2.10343 -8.03628 0
M  V30 5455 O 736.705 -1.09919 -8.67766 0
M  V30 5456 C 735.298 -1.68446 -6.70876 0
M  V30 5457 O 736.097 -0.678137 -6.08433 0
M  V30 5458 C 733.961 -1.17436 -7.18567 0
M  V30 5459 H 733.993 -0.0804732 -7.31656 0
M  V30 5460 H 735.176 -2.54037 -6.02537 0
M  V30 5461 H 736.66 -2.93881 -7.85526 0
M  V30 5462 H 734.966 -2.53065 -9.86973 0
M  V30 5463 H 734.776 -4.75072 -9.05887 0
M  V30 5464 H 733.146 -4.05244 -8.76668 0
M  V30 5465 H 735.785 0.177647 -6.34251 0
M  V30 5466 P 737.643 -1.25109 -8.70152 0
M  V30 5467 O 739.065 -1.29744 -9.22016 0
M  V30 5468 O 737.283 -2.13714 -7.55141 0
M  V30 5469 O 737.32 0.248149 -8.21425 0
M  V30 5470 C 737.16 1.22779 -9.30434 0
M  V30 5471 C 737.7 2.56293 -8.80664 0
M  V30 5472 O 736.644 3.02979 -8.09349 0
M  V30 5473 C 738.918 2.57523 -7.89775 0
M  V30 5474 O 739.656 3.7668 -7.89438 0
M  V30 5475 C 738.249 2.20997 -6.55446 0
M  V30 5476 O 739.048 2.71895 -5.48509 0
M  V30 5477 C 736.912 2.89693 -6.67988 0
M  V30 5478 H 736.944 3.88793 -6.19859 0
M  V30 5479 H 738.127 1.12046 -6.44229 0
M  V30 5480 H 739.611 1.7746 -8.19711 0
M  V30 5481 H 737.917 3.20706 -9.67112 0
M  V30 5482 H 737.726 0.901032 -10.1892 0
M  V30 5483 H 736.096 1.33049 -9.56592 0
M  V30 5484 H 738.736 3.57847 -5.23962 0
M  V30 5485 P 740.593 3.65191 -7.99657 0
M  V30 5486 O 742.015 3.89332 -8.45794 0
M  V30 5487 O 740.233 2.28472 -7.50807 0
M  V30 5488 O 740.27 4.64972 -6.77611 0
M  V30 5489 C 740.11 6.06319 -7.16352 0
M  V30 5490 C 740.65 6.91731 -6.02299 0
M  V30 5491 O 739.594 6.92449 -5.17064 0
M  V30 5492 C 741.868 6.43627 -5.25174 0
M  V30 5493 O 742.606 7.43686 -4.60469 0
M  V30 5494 C 741.199 5.40275 -4.31916 0
M  V30 5495 O 741.998 5.25279 -3.14438 0
M  V30 5496 C 739.862 6.04847 -4.05327 0
M  V30 5497 H 739.894 6.62195 -3.11261 0
M  V30 5498 H 741.077 4.42556 -4.81383 0
M  V30 5499 H 742.561 5.92458 -5.93643 0
M  V30 5500 H 740.867 7.92655 -6.402 0
M  V30 5501 H 740.677 6.26671 -8.0846 0
M  V30 5502 H 739.047 6.29101 -7.32804 0
M  V30 5503 H 741.686 5.84315 -2.47318 0
M  V30 5504 P 743.544 7.39546 -4.75277 0
M  V30 5505 O 744.965 7.84882 -5.01092 0
M  V30 5506 O 743.184 5.9812 -5.08098 0
M  V30 5507 O 743.221 7.57503 -3.1866 0
M  V30 5508 C 743.06 8.97452 -2.74862 0
M  V30 5509 C 743.601 9.07548 -1.32709 0
M  V30 5510 O 742.546 8.61972 -0.606089 0
M  V30 5511 C 744.819 8.25383 -0.938334 0
M  V30 5512 O 745.557 8.74577 0.146954 0
M  V30 5513 C 744.151 6.8802 -0.712559 0
M  V30 5514 O 744.949 6.1181 0.188505 0
M  V30 5515 C 742.813 7.27966 -0.139777 0
M  V30 5516 N 741.77 6.39368 -0.623421 0
M  V30 5517 C 741.939 5.71761 -1.78245 0
M  V30 5518 N 740.912 4.962 -2.10491 0
M  V30 5519 C 740.027 5.16158 -1.0635 0
M  V30 5520 C 738.76 4.60425 -0.810266 0
M  V30 5521 N 738.195 5.06 0.348685 0
M  V30 5522 C 738.797 5.94532 1.20395 0
M  V30 5523 N 739.974 6.48452 1.01191 0
M  V30 5524 C 740.549 6.04423 -0.146291 0
M  V30 5525 H 744.028 6.32625 -1.65044 0
M  V30 5526 H 745.511 8.19355 -1.79097 0
M  V30 5527 H 743.817 10.1305 -1.09016 0
M  V30 5528 H 743.627 9.64276 -3.41316 0
M  V30 5529 H 741.997 9.25417 -2.76357 0
M  V30 5530 H 742.839 5.79354 -2.38959 0
M  V30 5531 H 744.637 6.25169 1.0783 0
M  V30 5532 P 746.494 8.791 5.38483e-12 0
M  V30 5533 O 747.916 9.31096 0.027933 0
M  V30 5534 O 746.134 7.77869 -1.04071 0
M  V30 5535 O 746.171 8.09533 1.41463 0
M  V30 5536 C 746.011 9.0349 2.53943 0
M  V30 5537 C 746.551 8.35226 3.79016 0
M  V30 5538 O 745.495 7.57992 4.15078 0
M  V30 5539 C 747.769 7.45087 3.67298 0
M  V30 5540 O 748.507 7.27796 4.85194 0
M  V30 5541 C 747.1 6.17323 3.12027 0
M  V30 5542 O 747.899 5.04231 3.47188 0
M  V30 5543 C 745.763 6.19961 3.81809 0
M  V30 5544 H 745.795 5.58218 4.73051 0
M  V30 5545 H 746.978 6.21726 2.02589 0
M  V30 5546 H 748.462 7.86112 2.9231 0
M  V30 5547 H 746.768 9.11627 4.55076 0
M  V30 5548 H 746.578 9.9573 2.34194 0
M  V30 5549 H 744.948 9.2792 2.67832 0
M  V30 5550 H 747.587 4.67702 4.28772 0
M  V30 5551 P 749.445 7.39546 4.75277 0
M  V30 5552 O 750.867 7.81777 5.05738 0
M  V30 5553 O 749.085 7.1065 3.32998 0
M  V30 5554 O 749.122 6.04542 5.56673 0
M  V30 5555 C 748.962 6.22772 7.02095 0
M  V30 5556 C 749.502 4.97725 7.70406 0
M  V30 5557 O 748.446 4.13256 7.58987 0
M  V30 5558 C 750.72 4.28231 7.11815 0
M  V30 5559 O 751.458 3.49945 8.01648 0
M  V30 5560 C 750.051 3.5063 5.96244 0
M  V30 5561 O 750.85 2.36482 5.64681 0
M  V30 5562 C 748.714 3.15122 6.56374 0
M  V30 5563 H 748.746 2.13853 6.99751 0
M  V30 5564 H 749.929 4.13501 5.06559 0
M  V30 5565 H 751.413 5.03285 6.70911 0
M  V30 5566 H 749.719 5.20877 8.75697 0
M  V30 5567 H 749.529 7.11046 7.35349 0
M  V30 5568 H 747.899 6.35815 7.26986 0
M  V30 5569 H 750.538 1.61644 6.13565 0
M  V30 5570 P 752.395 3.65191 7.99657 0
M  V30 5571 O 753.817 3.84333 8.48297 0
M  V30 5572 O 752.035 4.17805 6.64342 0
M  V30 5573 O 752.072 2.07613 7.95143 0
M  V30 5574 C 751.912 1.44328 9.27336 0
M  V30 5575 C 752.452 0.0220012 9.17097 0
M  V30 5576 O 751.397 -0.626867 8.61923 0
M  V30 5577 C 753.67 -0.24586 8.30336 0
M  V30 5578 O 754.408 -1.39011 8.63583 0
M  V30 5579 C 753.002 -0.273849 6.91158 0
M  V30 5580 O 753.8 -1.06331 6.02794 0
M  V30 5581 C 751.664 -0.897649 7.22545 0
M  V30 5582 N 750.621 -0.292839 6.41732 0
M  V30 5583 C 750.683 1.00068 6.10757 0
M  V30 5584 N 749.638 1.36468 5.35794 0
M  V30 5585 C 748.904 0.258894 5.2366 0
M  V30 5586 C 747.598 0.0670682 4.65752 0
M  V30 5587 O 746.865 0.902443 4.10497 0
M  V30 5588 N 747.168 -1.2131 4.75881 0
M  V30 5589 C 747.917 -2.24934 5.37101 0
M  V30 5590 N 747.32 -3.48783 5.33984 0
M  V30 5591 N 749.07 -2.0844 5.95684 0
M  V30 5592 C 749.527 -0.81395 5.87791 0
M  V30 5593 H 751.696 -1.9841 7.04286 0
M  V30 5594 H 752.879 0.739815 6.49601 0
M  V30 5595 H 754.364 0.598315 8.36563 0
M  V30 5596 H 752.669 -0.352479 10.1829 0
M  V30 5597 H 752.479 2.00611 10.0304 0
M  V30 5598 H 750.848 1.41843 9.55327 0
M  V30 5599 H 746.272 -1.44434 4.37895 0
M  V30 5600 H 751.479 1.67697 6.42268 0
M  V30 5601 H 746.409 -3.60543 4.87699 0
M  V30 5602 H 747.785 -4.29232 5.7819 0
M  V30 5603 H 753.489 -1.95704 6.0346 0
M  V30 5604 P 755.346 -1.25109 8.70152 0
M  V30 5605 O 756.768 -1.35274 9.21221 0
M  V30 5606 O 754.986 -0.0769065 7.84762 0
M  V30 5607 O 755.023 -2.55232 7.81161 0
M  V30 5608 C 754.863 -3.79939 8.58154 0
M  V30 5609 C 755.403 -4.94023 7.72785 0
M  V30 5610 O 754.347 -5.18726 6.91205 0
M  V30 5611 C 756.621 -4.69597 6.85231 0
M  V30 5612 O 757.359 -5.83832 6.51337 0
M  V30 5613 C 755.952 -3.96706 5.66633 0
M  V30 5614 O 756.751 -4.15414 4.49689 0
M  V30 5615 C 754.615 -4.66153 5.59313 0
M  V30 5616 H 754.647 -5.47679 4.85214 0
M  V30 5617 H 755.83 -2.89008 5.86566 0
M  V30 5618 H 757.314 -4.0121 7.36511 0
M  V30 5619 H 755.62 -5.80182 8.37584 0
M  V30 5620 H 755.43 -3.73517 9.52265 0
M  V30 5621 H 753.8 -3.97163 8.80359 0
M  V30 5622 H 756.439 -4.90969 4.01921 0
M  V30 5623 P 758.296 -5.75688 6.64379 0
M  V30 5624 O 759.718 -6.11981 7.01997 0
M  V30 5625 O 757.936 -4.30744 6.56026 0
M  V30 5626 O 757.973 -6.37042 5.19165 0
M  V30 5627 C 757.813 -7.83578 5.16515 0
M  V30 5628 C 758.353 -8.33307 3.82977 0
M  V30 5629 O 757.298 -8.10074 3.01034 0
M  V30 5630 C 759.571 -7.65514 3.2257 0
M  V30 5631 O 760.309 -8.4329 2.32297 0
M  V30 5632 C 758.903 -6.40075 2.62207 0
M  V30 5633 O 759.701 -5.92492 1.53687 0
M  V30 5634 C 757.565 -6.9454 2.18503 0
M  V30 5635 N 756.522 -5.95905 2.39948 0
M  V30 5636 C 756.584 -5.13994 3.44742 0
M  V30 5637 N 755.539 -4.30684 3.46712 0
M  V30 5638 C 754.805 -4.65583 2.41086 0
M  V30 5639 C 753.499 -4.20877 1.99581 0
M  V30 5640 O 752.766 -3.35913 2.52616 0
M  V30 5641 N 753.069 -4.83271 0.873406 0
M  V30 5642 C 753.818 -5.82006 0.185129 0
M  V30 5643 N 753.221 -6.30619 -0.95439 0
M  V30 5644 N 754.971 -6.28443 0.578524 0
M  V30 5645 C 755.428 -5.68486 1.70138 0
M  V30 5646 H 757.597 -7.23063 1.12091 0
M  V30 5647 H 758.78 -5.60165 3.3715 0
M  V30 5648 H 760.265 -7.3611 4.01946 0
M  V30 5649 H 758.57 -9.40912 3.9095 0
M  V30 5650 H 758.38 -8.29056 5.99158 0
M  V30 5651 H 756.749 -8.10073 5.25882 0
M  V30 5652 H 752.173 -4.58323 0.505262 0
M  V30 5653 H 757.38 -5.14564 4.1935 0
M  V30 5654 H 752.31 -5.93402 -1.25364 0
M  V30 5655 H 753.686 -7.0425 -1.50254 0
M  V30 5656 H 759.39 -6.30224 0.72668 0
M  V30 5657 P 761.247 -8.4349 2.47671 0
M  V30 5658 O 762.669 -8.94167 2.5964 0
M  V30 5659 O 760.887 -7.1704 3.19006 0
M  V30 5660 O 760.924 -8.16596 0.923387 0
M  V30 5661 C 760.764 -9.38437 0.108857 0
M  V30 5662 C 761.304 -9.08175 -1.28353 0
M  V30 5663 O 760.248 -8.44229 -1.84713 0
M  V30 5664 C 762.522 -8.18386 -1.42505 0
M  V30 5665 O 763.26 -8.3501 -2.60497 0
M  V30 5666 C 761.853 -6.80225 -1.25468 0
M  V30 5667 O 762.652 -5.81621 -1.91066 0
M  V30 5668 C 760.516 -7.02416 -1.9168 0
M  V30 5669 H 760.548 -6.6888 -2.96621 0
M  V30 5670 H 761.731 -6.53617 -0.192223 0
M  V30 5671 H 763.215 -8.36622 -0.589963 0
M  V30 5672 H 761.521 -10.0291 -1.79807 0
M  V30 5673 H 761.331 -10.2138 0.558219 0
M  V30 5674 H 759.701 -9.6579 0.0444202 0
M  V30 5675 H 762.34 -5.69556 -2.79637 0
M  V30 5676 P 764.198 -8.4349 -2.47671 0
M  V30 5677 O 765.62 -8.92785 -2.65057 0
M  V30 5678 O 763.838 -7.7568 -1.19296 0
M  V30 5679 O 763.875 -7.36886 -3.63805 0
M  V30 5680 C 763.715 -7.95349 -4.982 0
M  V30 5681 C 764.255 -6.94537 -5.98908 0
M  V30 5682 O 763.2 -6.10347 -6.11815 0
M  V30 5683 C 765.473 -6.11426 -5.62335 0
M  V30 5684 O 766.211 -5.6162 -6.70584 0
M  V30 5685 C 764.805 -5.04409 -4.73308 0
M  V30 5686 O 765.603 -3.85929 -4.75106 0
M  V30 5687 C 763.467 -4.8728 -5.41006 0
M  V30 5688 N 762.424 -4.65812 -4.42377 0
M  V30 5689 C 762.486 -5.27109 -3.24335 0
M  V30 5690 N 761.441 -4.94293 -2.47735 0
M  V30 5691 C 760.707 -4.1271 -3.23359 0
M  V30 5692 C 759.401 -3.56384 -2.99934 0
M  V30 5693 O 758.668 -3.69331 -2.00616 0
M  V30 5694 N 758.971 -2.80206 -4.03316 0
M  V30 5695 C 759.72 -2.58614 -5.2172 0
M  V30 5696 N 759.123 -1.75154 -6.13278 0
M  V30 5697 N 760.873 -3.13689 -5.47619 0
M  V30 5698 C 761.33 -3.90921 -4.46436 0
M  V30 5699 H 763.499 -4.02333 -6.11157 0
M  V30 5700 H 764.682 -5.39383 -3.69487 0
M  V30 5701 H 766.167 -6.71414 -5.02615 0
M  V30 5702 H 764.472 -7.4649 -6.93477 0
M  V30 5703 H 764.282 -8.89416 -5.05237 0
M  V30 5704 H 762.651 -8.14876 -5.18409 0
M  V30 5705 H 758.075 -2.36355 -3.95916 0
M  V30 5706 H 763.282 -5.95212 -2.93859 0
M  V30 5707 H 758.212 -1.32473 -5.91856 0
M  V30 5708 H 759.588 -1.5588 -7.03026 0
M  V30 5709 H 765.292 -3.27906 -5.43085 0
M  V30 5710 P 767.148 -5.75688 -6.64379 0
M  V30 5711 O 768.57 -6.07627 -7.05504 0
M  V30 5712 O 766.788 -5.88047 -5.19722 0
M  V30 5713 O 766.825 -4.2322 -7.04443 0
M  V30 5714 C 766.665 -3.99743 -8.4911 0
M  V30 5715 C 767.205 -2.60516 -8.79425 0
M  V30 5716 O 766.149 -1.82684 -8.4467 0
M  V30 5717 C 768.423 -2.10343 -8.03628 0
M  V30 5718 O 769.161 -1.09919 -8.67766 0
M  V30 5719 C 767.754 -1.68446 -6.70876 0
M  V30 5720 O 768.553 -0.678137 -6.08433 0
M  V30 5721 C 766.417 -1.17436 -7.18567 0
M  V30 5722 H 766.449 -0.0804732 -7.31656 0
M  V30 5723 H 767.632 -2.54037 -6.02537 0
M  V30 5724 H 769.116 -2.93881 -7.85526 0
M  V30 5725 H 767.422 -2.53065 -9.86973 0
M  V30 5726 H 767.232 -4.75072 -9.05887 0
M  V30 5727 H 765.602 -4.05244 -8.76668 0
M  V30 5728 H 768.241 0.177647 -6.34251 0
M  V30 5729 P 770.099 -1.25109 -8.70152 0
M  V30 5730 O 771.521 -1.29744 -9.22016 0
M  V30 5731 O 769.739 -2.13714 -7.55141 0
M  V30 5732 O 769.776 0.248149 -8.21425 0
M  V30 5733 C 769.616 1.22779 -9.30434 0
M  V30 5734 C 770.156 2.56293 -8.80664 0
M  V30 5735 O 769.1 3.02979 -8.09349 0
M  V30 5736 C 771.374 2.57523 -7.89775 0
M  V30 5737 O 772.112 3.7668 -7.89438 0
M  V30 5738 C 770.705 2.20997 -6.55446 0
M  V30 5739 O 771.504 2.71895 -5.48509 0
M  V30 5740 C 769.368 2.89693 -6.67988 0
M  V30 5741 H 769.4 3.88793 -6.19859 0
M  V30 5742 H 770.583 1.12046 -6.44229 0
M  V30 5743 H 772.067 1.7746 -8.19711 0
M  V30 5744 H 770.373 3.20706 -9.67112 0
M  V30 5745 H 770.183 0.901032 -10.1892 0
M  V30 5746 H 768.553 1.33049 -9.56592 0
M  V30 5747 H 771.192 3.57847 -5.23962 0
M  V30 5748 P 773.049 3.65191 -7.99657 0
M  V30 5749 O 774.471 3.89332 -8.45794 0
M  V30 5750 O 772.689 2.28472 -7.50807 0
M  V30 5751 O 772.726 4.64972 -6.77611 0
M  V30 5752 C 772.566 6.06319 -7.16352 0
M  V30 5753 C 773.106 6.91731 -6.02299 0
M  V30 5754 O 772.05 6.92449 -5.17064 0
M  V30 5755 C 774.324 6.43627 -5.25174 0
M  V30 5756 O 775.062 7.43686 -4.60469 0
M  V30 5757 C 773.655 5.40275 -4.31916 0
M  V30 5758 O 774.454 5.25279 -3.14438 0
M  V30 5759 C 772.318 6.04847 -4.05327 0
M  V30 5760 H 772.35 6.62195 -3.11261 0
M  V30 5761 H 773.533 4.42556 -4.81383 0
M  V30 5762 H 775.017 5.92458 -5.93643 0
M  V30 5763 H 773.323 7.92655 -6.402 0
M  V30 5764 H 773.133 6.26671 -8.0846 0
M  V30 5765 H 771.503 6.29101 -7.32804 0
M  V30 5766 H 774.142 5.84315 -2.47318 0
M  V30 5767 P 776 7.39546 -4.75277 0
M  V30 5768 O 777.401 7.86988 -5.07993 0
M  V30 5769 O 775.622 5.99957 -5.13804 0
M  V30 5770 O 775.677 7.57411 -3.18621 0
M  V30 5771 C 775.517 8.97357 -2.74833 0
M  V30 5772 C 776.057 9.0745 -1.32694 0
M  V30 5773 O 775.001 8.61972 -0.606089 0
M  V30 5774 C 777.274 8.25383 -0.938334 0
M  V30 5775 O 778.013 8.74577 0.146954 0
M  V30 5776 C 776.607 6.8802 -0.712559 0
M  V30 5777 O 777.405 6.11791 0.194623 0
M  V30 5778 C 775.269 7.27966 -0.139777 0
M  V30 5779 N 774.226 6.39368 -0.623421 0
M  V30 5780 C 773.191 6.08088 0.223886 0
M  V30 5781 O 773.23 6.5102 1.39986 0
M  V30 5782 N 772.179 5.30627 -0.224051 0
M  V30 5783 C 772.227 4.82531 -1.47257 0
M  V30 5784 C 773.323 5.09974 -2.34008 0
M  V30 5785 C 774.289 5.89548 -1.87678 0
M  V30 5786 H 775.301 7.25255 0.961469 0
M  V30 5787 H 776.484 6.32625 -1.65044 0
M  V30 5788 H 777.968 8.19631 -1.78299 0
M  V30 5789 H 776.274 10.1305 -1.09016 0
M  V30 5790 H 776.083 9.64276 -3.41316 0
M  V30 5791 H 774.453 9.25321 -2.76328 0
M  V30 5792 H 773.371 4.67832 -3.3413 0
M  V30 5793 H 775.135 6.14434 -2.51991 0
M  V30 5794 H 777.189 6.35931 1.08377 0
M  V30 5795 P 778.95 8.791 5.69499e-12 0
M  V30 5796 O 780.372 9.31096 0.027933 0
M  V30 5797 O 778.59 7.77869 -1.04071 0
M  V30 5798 O 778.627 8.09533 1.41463 0
M  V30 5799 C 778.467 9.0349 2.53943 0
M  V30 5800 C 779.007 8.35226 3.79016 0
M  V30 5801 O 777.951 7.57992 4.15078 0
M  V30 5802 C 780.225 7.45087 3.67298 0
M  V30 5803 O 780.963 7.27796 4.85194 0
M  V30 5804 C 779.556 6.17323 3.12027 0
M  V30 5805 O 780.355 5.04231 3.47188 0
M  V30 5806 C 778.219 6.19961 3.81809 0
M  V30 5807 H 778.251 5.58218 4.73051 0
M  V30 5808 H 779.434 6.21726 2.02589 0
M  V30 5809 H 780.918 7.86112 2.9231 0
M  V30 5810 H 779.224 9.11627 4.55076 0
M  V30 5811 H 779.034 9.9573 2.34194 0
M  V30 5812 H 777.404 9.2792 2.67832 0
M  V30 5813 H 780.043 4.67702 4.28772 0
M  V30 5814 P 781.901 7.39546 4.75277 0
M  V30 5815 O 783.323 7.81777 5.05738 0
M  V30 5816 O 781.541 7.1065 3.32998 0
M  V30 5817 O 781.578 6.04542 5.56673 0
M  V30 5818 C 781.418 6.22772 7.02095 0
M  V30 5819 C 781.958 4.97725 7.70406 0
M  V30 5820 O 780.902 4.13256 7.58987 0
M  V30 5821 C 783.176 4.28231 7.11815 0
M  V30 5822 O 783.914 3.49945 8.01648 0
M  V30 5823 C 782.507 3.5063 5.96244 0
M  V30 5824 O 783.306 2.36482 5.64681 0
M  V30 5825 C 781.17 3.15122 6.56374 0
M  V30 5826 H 781.202 2.13853 6.99751 0
M  V30 5827 H 782.385 4.13501 5.06559 0
M  V30 5828 H 783.869 5.03285 6.70911 0
M  V30 5829 H 782.175 5.20877 8.75697 0
M  V30 5830 H 781.985 7.11046 7.35349 0
M  V30 5831 H 780.355 6.35815 7.26986 0
M  V30 5832 H 782.994 1.61644 6.13565 0
M  V30 5833 P 784.852 3.65191 7.99657 0
M  V30 5834 O 786.274 3.8425 8.48115 0
M  V30 5835 O 784.492 4.17805 6.64342 0
M  V30 5836 O 784.529 2.07613 7.95143 0
M  V30 5837 C 784.369 1.44328 9.27336 0
M  V30 5838 C 784.909 0.0220036 9.17197 0
M  V30 5839 O 783.853 -0.626867 8.61923 0
M  V30 5840 C 786.127 -0.24586 8.30336 0
M  V30 5841 O 786.865 -1.39011 8.63583 0
M  V30 5842 C 785.458 -0.273849 6.91158 0
M  V30 5843 O 786.257 -1.06348 6.02892 0
M  V30 5844 C 784.121 -0.897649 7.22545 0
M  V30 5845 H 784.153 -1.9841 7.04286 0
M  V30 5846 H 785.336 0.739928 6.497 0
M  V30 5847 H 786.82 0.60668 8.36503 0
M  V30 5848 H 785.126 -0.352479 10.1829 0
M  V30 5849 H 784.936 2.00611 10.0304 0
M  V30 5850 H 783.306 1.41843 9.55327 0
M  V30 5851 H 785.945 -1.95734 6.03555 0
M  V30 5852 P 787.802 -1.25109 8.70152 0
M  V30 5853 O 789.224 -1.35274 9.21221 0
M  V30 5854 O 787.442 -0.0769065 7.84762 0
M  V30 5855 O 787.479 -2.55232 7.81161 0
M  V30 5856 C 787.319 -3.79939 8.58154 0
M  V30 5857 C 787.859 -4.94023 7.72785 0
M  V30 5858 O 786.803 -5.18726 6.91205 0
M  V30 5859 C 789.077 -4.69597 6.85231 0
M  V30 5860 O 789.815 -5.83832 6.51337 0
M  V30 5861 C 788.408 -3.96706 5.66633 0
M  V30 5862 O 789.207 -4.15414 4.49689 0
M  V30 5863 C 787.071 -4.66153 5.59313 0
M  V30 5864 H 787.103 -5.47679 4.85214 0
M  V30 5865 H 788.286 -2.89008 5.86566 0
M  V30 5866 H 789.77 -4.0121 7.36511 0
M  V30 5867 H 788.076 -5.80182 8.37584 0
M  V30 5868 H 787.886 -3.73517 9.52265 0
M  V30 5869 H 786.256 -3.97163 8.80359 0
M  V30 5870 H 788.895 -4.90969 4.01921 0
M  V30 5871 P 790.753 -5.75688 6.64379 0
M  V30 5872 O 792.175 -6.11849 7.01846 0
M  V30 5873 O 790.393 -4.30744 6.56026 0
M  V30 5874 O 790.43 -6.37042 5.19165 0
M  V30 5875 C 790.27 -7.83578 5.16515 0
M  V30 5876 C 790.81 -8.33398 3.83019 0
M  V30 5877 O 789.754 -8.10074 3.01034 0
M  V30 5878 C 792.028 -7.65514 3.2257 0
M  V30 5879 O 792.766 -8.4329 2.32297 0
M  V30 5880 C 791.359 -6.40075 2.62207 0
M  V30 5881 O 792.158 -5.92589 1.53712 0
M  V30 5882 C 790.022 -6.9454 2.18503 0
M  V30 5883 H 790.054 -7.23063 1.12091 0
M  V30 5884 H 791.237 -5.6025 3.37201 0
M  V30 5885 H 792.721 -7.35707 4.02681 0
M  V30 5886 H 791.027 -9.40912 3.9095 0
M  V30 5887 H 790.837 -8.29056 5.99158 0
M  V30 5888 H 789.207 -8.10073 5.25882 0
M  V30 5889 H 791.846 -6.30324 0.726794 0
M  V30 5890 P 793.703 -8.4349 2.47671 0
M  V30 5891 O 795.125 -8.94167 2.5964 0
M  V30 5892 O 793.343 -7.1704 3.19006 0
M  V30 5893 O 793.38 -8.16596 0.923387 0
M  V30 5894 C 793.22 -9.38437 0.108857 0
M  V30 5895 C 793.76 -9.08175 -1.28353 0
M  V30 5896 O 792.704 -8.44229 -1.84713 0
M  V30 5897 C 794.978 -8.18386 -1.42505 0
M  V30 5898 O 795.716 -8.3501 -2.60497 0
M  V30 5899 C 794.309 -6.80225 -1.25468 0
M  V30 5900 O 795.108 -5.81621 -1.91066 0
M  V30 5901 C 792.972 -7.02416 -1.9168 0
M  V30 5902 H 793.004 -6.6888 -2.96621 0
M  V30 5903 H 794.187 -6.53617 -0.192223 0
M  V30 5904 H 795.671 -8.36622 -0.589963 0
M  V30 5905 H 793.977 -10.0291 -1.79807 0
M  V30 5906 H 793.787 -10.2138 0.558219 0
M  V30 5907 H 792.157 -9.6579 0.0444202 0
M  V30 5908 H 794.796 -5.69556 -2.79637 0
M  V30 5909 P 796.654 -8.4349 -2.47671 0
M  V30 5910 O 798.076 -8.92593 -2.65 0
M  V30 5911 O 796.294 -7.7568 -1.19296 0
M  V30 5912 O 796.331 -7.36886 -3.63805 0
M  V30 5913 C 796.171 -7.95349 -4.982 0
M  V30 5914 C 796.711 -6.94612 -5.98974 0
M  V30 5915 O 795.655 -6.10347 -6.11815 0
M  V30 5916 C 797.929 -6.11426 -5.62335 0
M  V30 5917 O 798.667 -5.6162 -6.70584 0
M  V30 5918 C 797.26 -5.04409 -4.73308 0
M  V30 5919 O 798.059 -3.85992 -4.75183 0
M  V30 5920 C 795.923 -4.8728 -5.41006 0
M  V30 5921 H 795.955 -4.02333 -6.11157 0
M  V30 5922 H 797.138 -5.39466 -3.69543 0
M  V30 5923 H 798.622 -6.71916 -5.01943 0
M  V30 5924 H 796.928 -7.4649 -6.93477 0
M  V30 5925 H 796.738 -8.89416 -5.05237 0
M  V30 5926 H 795.108 -8.14876 -5.18409 0
M  V30 5927 H 797.747 -3.27957 -5.4317 0
M  V30 5928 P 799.604 -5.75688 -6.64379 0
M  V30 5929 O 801.026 -6.07627 -7.05504 0
M  V30 5930 O 799.244 -5.88047 -5.19722 0
M  V30 5931 O 799.281 -4.2322 -7.04443 0
M  V30 5932 C 799.121 -3.99743 -8.4911 0
M  V30 5933 C 799.661 -2.60516 -8.79425 0
M  V30 5934 O 798.605 -1.82684 -8.4467 0
M  V30 5935 C 800.879 -2.10343 -8.03628 0
M  V30 5936 O 801.617 -1.09919 -8.67766 0
M  V30 5937 C 800.21 -1.68446 -6.70876 0
M  V30 5938 O 801.009 -0.678137 -6.08433 0
M  V30 5939 C 798.873 -1.17436 -7.18567 0
M  V30 5940 H 798.905 -0.0804732 -7.31656 0
M  V30 5941 H 800.088 -2.54037 -6.02537 0
M  V30 5942 H 801.572 -2.93881 -7.85526 0
M  V30 5943 H 799.878 -2.53065 -9.86973 0
M  V30 5944 H 799.688 -4.75072 -9.05887 0
M  V30 5945 H 798.058 -4.05244 -8.76668 0
M  V30 5946 H 800.697 0.177647 -6.34251 0
M  V30 5947 P 802.555 -1.25109 -8.70152 0
M  V30 5948 O 803.977 -1.29744 -9.22016 0
M  V30 5949 O 802.195 -2.13714 -7.55141 0
M  V30 5950 O 802.232 0.248149 -8.21425 0
M  V30 5951 C 802.072 1.22779 -9.30434 0
M  V30 5952 C 802.612 2.56293 -8.80664 0
M  V30 5953 O 801.556 3.02979 -8.09349 0
M  V30 5954 C 803.83 2.57523 -7.89775 0
M  V30 5955 O 804.568 3.7668 -7.89438 0
M  V30 5956 C 803.161 2.20997 -6.55446 0
M  V30 5957 O 803.96 2.71895 -5.48509 0
M  V30 5958 C 801.824 2.89693 -6.67988 0
M  V30 5959 H 801.856 3.88793 -6.19859 0
M  V30 5960 H 803.039 1.12046 -6.44229 0
M  V30 5961 H 804.523 1.7746 -8.19711 0
M  V30 5962 H 802.829 3.20706 -9.67112 0
M  V30 5963 H 802.639 0.901032 -10.1892 0
M  V30 5964 H 801.009 1.33049 -9.56592 0
M  V30 5965 H 803.648 3.57847 -5.23962 0
M  V30 5966 P 805.506 3.65191 -7.99657 0
M  V30 5967 O 806.928 3.89332 -8.45794 0
M  V30 5968 O 805.146 2.28472 -7.50807 0
M  V30 5969 O 805.183 4.64972 -6.77611 0
M  V30 5970 C 805.023 6.06319 -7.16352 0
M  V30 5971 C 805.563 6.91731 -6.02299 0
M  V30 5972 O 804.507 6.92449 -5.17064 0
M  V30 5973 C 806.781 6.43627 -5.25174 0
M  V30 5974 O 807.519 7.43686 -4.60469 0
M  V30 5975 C 806.112 5.40275 -4.31916 0
M  V30 5976 O 806.911 5.25279 -3.14438 0
M  V30 5977 C 804.775 6.04847 -4.05327 0
M  V30 5978 H 804.807 6.62195 -3.11261 0
M  V30 5979 H 805.99 4.42556 -4.81383 0
M  V30 5980 H 807.474 5.92458 -5.93643 0
M  V30 5981 H 805.78 7.92655 -6.402 0
M  V30 5982 H 805.59 6.26671 -8.0846 0
M  V30 5983 H 803.96 6.29101 -7.32804 0
M  V30 5984 H 806.599 5.84315 -2.47318 0
M  V30 5985 P 808.456 7.39546 -4.75277 0
M  V30 5986 O 809.857 7.86988 -5.07993 0
M  V30 5987 O 808.078 5.99957 -5.13804 0
M  V30 5988 O 808.133 7.57411 -3.18621 0
M  V30 5989 C 807.973 8.97357 -2.74833 0
M  V30 5990 C 808.513 9.0745 -1.32694 0
M  V30 5991 O 807.457 8.61972 -0.606089 0
M  V30 5992 C 809.73 8.25383 -0.938334 0
M  V30 5993 O 810.469 8.74577 0.146954 0
M  V30 5994 C 809.063 6.8802 -0.712559 0
M  V30 5995 O 809.861 6.11791 0.194623 0
M  V30 5996 C 807.725 7.27966 -0.139777 0
M  V30 5997 N 806.682 6.39368 -0.623421 0
M  V30 5998 C 805.647 6.08088 0.223886 0
M  V30 5999 O 805.686 6.5102 1.39986 0
M  V30 6000 N 804.635 5.30627 -0.224051 0
M  V30 6001 C 804.683 4.82531 -1.47257 0
M  V30 6002 C 805.779 5.09974 -2.34008 0
M  V30 6003 C 806.745 5.89548 -1.87678 0
M  V30 6004 H 807.757 7.25255 0.961469 0
M  V30 6005 H 808.94 6.32625 -1.65044 0
M  V30 6006 H 810.424 8.19631 -1.78299 0
M  V30 6007 H 808.73 10.1305 -1.09016 0
M  V30 6008 H 808.539 9.64276 -3.41316 0
M  V30 6009 H 806.909 9.25321 -2.76328 0
M  V30 6010 H 805.827 4.67832 -3.3413 0
M  V30 6011 H 807.591 6.14434 -2.51991 0
M  V30 6012 H 809.645 6.35931 1.08377 0
M  V30 6013 P 811.407 8.791 6.00516e-12 0
M  V30 6014 O 812.829 9.31096 0.027933 0
M  V30 6015 O 811.047 7.77869 -1.04071 0
M  V30 6016 O 811.084 8.09533 1.41463 0
M  V30 6017 C 810.924 9.0349 2.53943 0
M  V30 6018 C 811.464 8.35226 3.79016 0
M  V30 6019 O 810.408 7.57992 4.15078 0
M  V30 6020 C 812.682 7.45087 3.67298 0
M  V30 6021 O 813.42 7.27796 4.85194 0
M  V30 6022 C 812.013 6.17323 3.12027 0
M  V30 6023 O 812.812 5.04231 3.47188 0
M  V30 6024 C 810.676 6.19961 3.81809 0
M  V30 6025 H 810.708 5.58218 4.73051 0
M  V30 6026 H 811.891 6.21726 2.02589 0
M  V30 6027 H 813.375 7.86112 2.9231 0
M  V30 6028 H 811.681 9.11627 4.55076 0
M  V30 6029 H 811.491 9.9573 2.34194 0
M  V30 6030 H 809.861 9.2792 2.67832 0
M  V30 6031 H 812.5 4.67702 4.28772 0
M  V30 6032 P 814.357 7.39546 4.75277 0
M  V30 6033 O 815.779 7.81777 5.05738 0
M  V30 6034 O 813.997 7.1065 3.32998 0
M  V30 6035 O 814.034 6.04542 5.56673 0
M  V30 6036 C 813.874 6.22772 7.02095 0
M  V30 6037 C 814.414 4.97725 7.70406 0
M  V30 6038 O 813.358 4.13256 7.58987 0
M  V30 6039 C 815.632 4.28231 7.11815 0
M  V30 6040 O 816.37 3.49945 8.01648 0
M  V30 6041 C 814.963 3.5063 5.96244 0
M  V30 6042 O 815.762 2.36482 5.64681 0
M  V30 6043 C 813.626 3.15122 6.56374 0
M  V30 6044 H 813.658 2.13853 6.99751 0
M  V30 6045 H 814.841 4.13501 5.06559 0
M  V30 6046 H 816.325 5.03285 6.70911 0
M  V30 6047 H 814.631 5.20877 8.75697 0
M  V30 6048 H 814.441 7.11046 7.35349 0
M  V30 6049 H 812.811 6.35815 7.26986 0
M  V30 6050 H 815.45 1.61644 6.13565 0
M  V30 6051 P 817.308 3.65191 7.99657 0
M  V30 6052 O 818.73 3.8425 8.48115 0
M  V30 6053 O 816.948 4.17805 6.64342 0
M  V30 6054 O 816.985 2.07613 7.95143 0
M  V30 6055 C 816.825 1.44328 9.27336 0
M  V30 6056 C 817.365 0.0220036 9.17197 0
M  V30 6057 O 816.309 -0.626867 8.61923 0
M  V30 6058 C 818.583 -0.24586 8.30336 0
M  V30 6059 O 819.321 -1.39011 8.63583 0
M  V30 6060 C 817.914 -0.273849 6.91158 0
M  V30 6061 O 818.713 -1.06348 6.02892 0
M  V30 6062 C 816.577 -0.897649 7.22545 0
M  V30 6063 H 816.609 -1.9841 7.04286 0
M  V30 6064 H 817.792 0.739928 6.497 0
M  V30 6065 H 819.276 0.60668 8.36503 0
M  V30 6066 H 817.582 -0.352479 10.1829 0
M  V30 6067 H 817.392 2.00611 10.0304 0
M  V30 6068 H 815.762 1.41843 9.55327 0
M  V30 6069 H 818.401 -1.95734 6.03555 0
M  V30 6070 P 820.258 -1.25109 8.70152 0
M  V30 6071 O 821.68 -1.35274 9.21221 0
M  V30 6072 O 819.898 -0.0769065 7.84762 0
M  V30 6073 O 819.935 -2.55232 7.81161 0
M  V30 6074 C 819.775 -3.79939 8.58154 0
M  V30 6075 C 820.315 -4.94023 7.72785 0
M  V30 6076 O 819.259 -5.18726 6.91205 0
M  V30 6077 C 821.533 -4.69597 6.85231 0
M  V30 6078 O 822.271 -5.83832 6.51337 0
M  V30 6079 C 820.864 -3.96706 5.66633 0
M  V30 6080 O 821.663 -4.15414 4.49689 0
M  V30 6081 C 819.527 -4.66153 5.59313 0
M  V30 6082 H 819.559 -5.47679 4.85214 0
M  V30 6083 H 820.742 -2.89008 5.86566 0
M  V30 6084 H 822.226 -4.0121 7.36511 0
M  V30 6085 H 820.532 -5.80182 8.37584 0
M  V30 6086 H 820.342 -3.73517 9.52265 0
M  V30 6087 H 818.712 -3.97163 8.80359 0
M  V30 6088 H 821.351 -4.90969 4.01921 0
M  V30 6089 P 823.209 -5.75688 6.64379 0
M  V30 6090 O 824.631 -6.11849 7.01846 0
M  V30 6091 O 822.849 -4.30744 6.56026 0
M  V30 6092 O 822.886 -6.37042 5.19165 0
M  V30 6093 C 822.726 -7.83578 5.16515 0
M  V30 6094 C 823.266 -8.33398 3.83019 0
M  V30 6095 O 822.21 -8.10074 3.01034 0
M  V30 6096 C 824.484 -7.65514 3.2257 0
M  V30 6097 O 825.222 -8.4329 2.32297 0
M  V30 6098 C 823.815 -6.40075 2.62207 0
M  V30 6099 O 824.614 -5.92589 1.53712 0
M  V30 6100 C 822.478 -6.9454 2.18503 0
M  V30 6101 H 822.51 -7.23063 1.12091 0
M  V30 6102 H 823.693 -5.6025 3.37201 0
M  V30 6103 H 825.177 -7.35707 4.02681 0
M  V30 6104 H 823.483 -9.40912 3.9095 0
M  V30 6105 H 823.293 -8.29056 5.99158 0
M  V30 6106 H 821.663 -8.10073 5.25882 0
M  V30 6107 H 824.302 -6.30324 0.726794 0
M  V30 6108 P 826.16 -8.4349 2.47671 0
M  V30 6109 O 827.582 -8.94359 2.59696 0
M  V30 6110 O 825.8 -7.1704 3.19006 0
M  V30 6111 O 825.837 -8.16596 0.923387 0
M  V30 6112 C 825.677 -9.38437 0.108857 0
M  V30 6113 C 826.217 -9.08076 -1.28339 0
M  V30 6114 O 825.162 -8.44229 -1.84713 0
M  V30 6115 C 827.435 -8.18386 -1.42505 0
M  V30 6116 O 828.173 -8.3501 -2.60497 0
M  V30 6117 C 826.767 -6.80225 -1.25468 0
M  V30 6118 O 827.565 -5.81526 -1.91035 0
M  V30 6119 C 825.429 -7.02416 -1.9168 0
M  V30 6120 N 824.386 -6.31033 -1.20314 0
M  V30 6121 C 824.448 -6.18781 0.121293 0
M  V30 6122 N 823.403 -5.49762 0.588272 0
M  V30 6123 C 822.669 -5.22015 -0.488988 0
M  V30 6124 C 821.363 -4.61966 -0.596448 0
M  V30 6125 O 820.63 -4.19162 0.309059 0
M  V30 6126 N 820.933 -4.53773 -1.878 0
M  V30 6127 C 821.682 -4.99623 -2.99082 0
M  V30 6128 N 821.085 -4.78912 -4.21227 0
M  V30 6129 N 822.835 -5.59957 -2.91093 0
M  V30 6130 C 823.292 -5.70225 -1.64218 0
M  V30 6131 H 825.461 -6.6888 -2.96621 0
M  V30 6132 H 826.644 -6.53517 -0.192194 0
M  V30 6133 H 828.129 -8.36563 -0.598329 0
M  V30 6134 H 826.434 -10.0291 -1.79807 0
M  V30 6135 H 826.244 -10.2138 0.558219 0
M  V30 6136 H 824.613 -9.6579 0.0444202 0
M  V30 6137 H 820.037 -4.12883 -2.05283 0
M  V30 6138 H 825.244 -6.59596 0.745856 0
M  V30 6139 H 820.174 -4.31425 -4.2628 0
M  V30 6140 H 821.55 -5.11219 -5.07148 0
M  V30 6141 H 827.254 -5.69466 -2.79593 0
M  V30 6142 P 829.11 -8.4349 -2.47671 0
M  V30 6143 O 830.532 -8.92593 -2.65 0
M  V30 6144 O 828.75 -7.7568 -1.19296 0
M  V30 6145 O 828.787 -7.36886 -3.63805 0
M  V30 6146 C 828.627 -7.95349 -4.982 0
M  V30 6147 C 829.167 -6.94612 -5.98974 0
M  V30 6148 O 828.111 -6.10347 -6.11815 0
M  V30 6149 C 830.385 -6.11426 -5.62335 0
M  V30 6150 O 831.123 -5.6162 -6.70584 0
M  V30 6151 C 829.716 -5.04409 -4.73308 0
M  V30 6152 O 830.515 -3.85992 -4.75183 0
M  V30 6153 C 828.379 -4.8728 -5.41006 0
M  V30 6154 H 828.411 -4.02333 -6.11157 0
M  V30 6155 H 829.594 -5.39466 -3.69543 0
M  V30 6156 H 831.078 -6.71916 -5.01943 0
M  V30 6157 H 829.384 -7.4649 -6.93477 0
M  V30 6158 H 829.194 -8.89416 -5.05237 0
M  V30 6159 H 827.564 -8.14876 -5.18409 0
M  V30 6160 H 830.203 -3.27957 -5.4317 0
M  V30 6161 P 832.061 -5.75688 -6.64379 0
M  V30 6162 O 833.483 -6.07627 -7.05504 0
M  V30 6163 O 831.701 -5.88047 -5.19722 0
M  V30 6164 O 831.738 -4.2322 -7.04443 0
M  V30 6165 C 831.578 -3.99743 -8.4911 0
M  V30 6166 C 832.118 -2.60516 -8.79425 0
M  V30 6167 O 831.062 -1.82684 -8.4467 0
M  V30 6168 C 833.336 -2.10343 -8.03628 0
M  V30 6169 O 834.074 -1.09919 -8.67766 0
M  V30 6170 C 832.667 -1.68446 -6.70876 0
M  V30 6171 O 833.466 -0.678137 -6.08433 0
M  V30 6172 C 831.33 -1.17436 -7.18567 0
M  V30 6173 H 831.362 -0.0804732 -7.31656 0
M  V30 6174 H 832.545 -2.54037 -6.02537 0
M  V30 6175 H 834.029 -2.93881 -7.85526 0
M  V30 6176 H 832.335 -2.53065 -9.86973 0
M  V30 6177 H 832.145 -4.75072 -9.05887 0
M  V30 6178 H 830.515 -4.05244 -8.76668 0
M  V30 6179 H 833.154 0.177647 -6.34251 0
M  V30 6180 P 835.011 -1.25109 -8.70152 0
M  V30 6181 O 836.433 -1.29772 -9.22214 0
M  V30 6182 O 834.651 -2.13714 -7.55141 0
M  V30 6183 O 834.688 0.248149 -8.21425 0
M  V30 6184 C 834.528 1.22779 -9.30434 0
M  V30 6185 C 835.068 2.56265 -8.80568 0
M  V30 6186 O 834.013 3.02979 -8.09349 0
M  V30 6187 C 836.286 2.57523 -7.89775 0
M  V30 6188 O 837.024 3.7668 -7.89438 0
M  V30 6189 C 835.618 2.20997 -6.55446 0
M  V30 6190 O 836.416 2.71851 -5.48419 0
M  V30 6191 C 834.28 2.89693 -6.67988 0
M  V30 6192 N 833.237 2.08895 -6.07487 0
M  V30 6193 C 833.299 0.760559 -6.14209 0
M  V30 6194 N 832.254 0.200108 -5.52538 0
M  V30 6195 C 831.52 1.22692 -5.09742 0
M  V30 6196 C 830.214 1.24782 -4.48775 0
M  V30 6197 O 829.481 0.290617 -4.19294 0
M  V30 6198 N 829.784 2.50468 -4.22428 0
M  V30 6199 C 830.533 3.67142 -4.51974 0
M  V30 6200 N 829.936 4.85096 -4.14091 0
M  V30 6201 N 831.686 3.67821 -5.12831 0
M  V30 6202 C 832.143 2.43698 -5.4105 0
M  V30 6203 H 834.312 3.88793 -6.19859 0
M  V30 6204 H 835.495 1.12029 -6.4413 0
M  V30 6205 H 836.98 1.78279 -8.19533 0
M  V30 6206 H 835.285 3.20706 -9.67112 0
M  V30 6207 H 835.095 0.901032 -10.1892 0
M  V30 6208 H 833.464 1.33049 -9.56592 0
M  V30 6209 H 828.888 2.61953 -3.79465 0
M  V30 6210 H 834.095 0.200439 -6.63497 0
M  V30 6211 H 829.025 4.8334 -3.66367 0
M  V30 6212 H 830.401 5.7474 -4.33841 0
M  V30 6213 H 836.105 3.5779 -5.23879 0
M  V30 6214 P 837.962 3.65191 -7.99657 0
M  V30 6215 O 839.384 3.89332 -8.45794 0
M  V30 6216 O 837.602 2.28472 -7.50807 0
M  V30 6217 O 837.639 4.64972 -6.77611 0
M  V30 6218 C 837.479 6.06319 -7.16352 0
M  V30 6219 C 838.019 6.91731 -6.02299 0
M  V30 6220 O 836.963 6.92449 -5.17064 0
M  V30 6221 C 839.237 6.43627 -5.25174 0
M  V30 6222 O 839.975 7.43686 -4.60469 0
M  V30 6223 C 838.568 5.40275 -4.31916 0
M  V30 6224 O 839.367 5.25279 -3.14438 0
M  V30 6225 C 837.231 6.04847 -4.05327 0
M  V30 6226 H 837.263 6.62195 -3.11261 0
M  V30 6227 H 838.446 4.42556 -4.81383 0
M  V30 6228 H 839.93 5.92458 -5.93643 0
M  V30 6229 H 838.236 7.92655 -6.402 0
M  V30 6230 H 838.046 6.26671 -8.0846 0
M  V30 6231 H 836.416 6.29101 -7.32804 0
M  V30 6232 H 839.055 5.84315 -2.47318 0
M  V30 6233 P 840.912 7.39546 -4.75277 0
M  V30 6234 O 842.334 7.84798 -5.01039 0
M  V30 6235 O 840.552 5.9812 -5.08098 0
M  V30 6236 O 840.589 7.57503 -3.1866 0
M  V30 6237 C 840.429 8.97357 -2.74833 0
M  V30 6238 C 840.969 9.07548 -1.32709 0
M  V30 6239 O 839.913 8.62072 -0.606159 0
M  V30 6240 C 842.187 8.25383 -0.938334 0
M  V30 6241 O 842.925 8.74577 0.146954 0
M  V30 6242 C 841.518 6.8802 -0.712559 0
M  V30 6243 O 842.317 6.1189 0.194655 0
M  V30 6244 C 840.181 7.27966 -0.139777 0
M  V30 6245 H 840.213 7.25354 0.961601 0
M  V30 6246 H 841.396 6.32557 -1.65702 0
M  V30 6247 H 842.88 8.19355 -1.79097 0
M  V30 6248 H 841.186 10.1294 -1.10029 0
M  V30 6249 H 840.996 9.64276 -3.41316 0
M  V30 6250 H 839.366 9.25417 -2.76357 0
M  V30 6251 H 842.005 6.25267 1.07847 0
M  V30 6252 P 843.863 8.791 6.31533e-12 0
M  V30 6253 O 845.285 9.31096 0.027933 0
M  V30 6254 O 843.503 7.77869 -1.04071 0
M  V30 6255 O 843.54 8.09533 1.41463 0
M  V30 6256 C 843.38 9.0349 2.53943 0
M  V30 6257 C 843.92 8.35226 3.79016 0
M  V30 6258 O 842.864 7.57992 4.15078 0
M  V30 6259 C 845.138 7.45087 3.67298 0
M  V30 6260 O 845.876 7.27796 4.85194 0
M  V30 6261 C 844.469 6.17323 3.12027 0
M  V30 6262 O 845.268 5.04231 3.47188 0
M  V30 6263 C 843.132 6.19961 3.81809 0
M  V30 6264 H 843.164 5.58218 4.73051 0
M  V30 6265 H 844.347 6.21726 2.02589 0
M  V30 6266 H 845.831 7.86112 2.9231 0
M  V30 6267 H 844.137 9.11627 4.55076 0
M  V30 6268 H 843.947 9.9573 2.34194 0
M  V30 6269 H 842.317 9.2792 2.67832 0
M  V30 6270 H 844.956 4.67702 4.28772 0
M  V30 6271 P 846.814 7.39546 4.75277 0
M  V30 6272 O 848.236 7.81777 5.05738 0
M  V30 6273 O 846.454 7.1065 3.32998 0
M  V30 6274 O 846.491 6.04542 5.56673 0
M  V30 6275 C 846.331 6.22772 7.02095 0
M  V30 6276 C 846.871 4.97725 7.70406 0
M  V30 6277 O 845.815 4.13256 7.58987 0
M  V30 6278 C 848.089 4.28231 7.11815 0
M  V30 6279 O 848.827 3.49945 8.01648 0
M  V30 6280 C 847.42 3.5063 5.96244 0
M  V30 6281 O 848.219 2.36482 5.64681 0
M  V30 6282 C 846.083 3.15122 6.56374 0
M  V30 6283 H 846.115 2.13853 6.99751 0
M  V30 6284 H 847.298 4.13501 5.06559 0
M  V30 6285 H 848.782 5.03285 6.70911 0
M  V30 6286 H 847.088 5.20877 8.75697 0
M  V30 6287 H 846.898 7.11046 7.35349 0
M  V30 6288 H 845.268 6.35815 7.26986 0
M  V30 6289 H 847.907 1.61644 6.13565 0
M  V30 6290 P 849.764 3.65191 7.99657 0
M  V30 6291 O 851.186 3.8425 8.48115 0
M  V30 6292 O 849.404 4.17805 6.64342 0
M  V30 6293 O 849.441 2.07613 7.95143 0
M  V30 6294 C 849.281 1.44328 9.27336 0
M  V30 6295 C 849.821 0.0220036 9.17197 0
M  V30 6296 O 848.765 -0.626867 8.61923 0
M  V30 6297 C 851.039 -0.24586 8.30336 0
M  V30 6298 O 851.777 -1.39011 8.63583 0
M  V30 6299 C 850.37 -0.273849 6.91158 0
M  V30 6300 O 851.169 -1.06348 6.02892 0
M  V30 6301 C 849.033 -0.897649 7.22545 0
M  V30 6302 H 849.065 -1.9841 7.04286 0
M  V30 6303 H 850.248 0.739928 6.497 0
M  V30 6304 H 851.732 0.60668 8.36503 0
M  V30 6305 H 850.038 -0.352479 10.1829 0
M  V30 6306 H 849.848 2.00611 10.0304 0
M  V30 6307 H 848.218 1.41843 9.55327 0
M  V30 6308 H 850.857 -1.95734 6.03555 0
M  V30 6309 P 852.715 -1.25109 8.70152 0
M  V30 6310 O 854.137 -1.35274 9.21221 0
M  V30 6311 O 852.355 -0.0769065 7.84762 0
M  V30 6312 O 852.392 -2.55232 7.81161 0
M  V30 6313 C 852.232 -3.79939 8.58154 0
M  V30 6314 C 852.772 -4.94023 7.72785 0
M  V30 6315 O 851.716 -5.18726 6.91205 0
M  V30 6316 C 853.99 -4.69597 6.85231 0
M  V30 6317 O 854.728 -5.83832 6.51337 0
M  V30 6318 C 853.321 -3.96706 5.66633 0
M  V30 6319 O 854.12 -4.15414 4.49689 0
M  V30 6320 C 851.984 -4.66153 5.59313 0
M  V30 6321 H 852.016 -5.47679 4.85214 0
M  V30 6322 H 853.199 -2.89008 5.86566 0
M  V30 6323 H 854.683 -4.0121 7.36511 0
M  V30 6324 H 852.989 -5.80182 8.37584 0
M  V30 6325 H 852.799 -3.73517 9.52265 0
M  V30 6326 H 851.169 -3.97163 8.80359 0
M  V30 6327 H 853.808 -4.90969 4.01921 0
M  V30 6328 P 855.665 -5.75688 6.64379 0
M  V30 6329 O 857.086 -6.11915 7.01921 0
M  V30 6330 O 855.305 -4.30744 6.56026 0
M  V30 6331 O 855.342 -6.37042 5.19165 0
M  V30 6332 C 855.181 -7.83662 5.1657 0
M  V30 6333 C 855.722 -8.33398 3.83019 0
M  V30 6334 O 854.667 -8.0998 3.00999 0
M  V30 6335 C 856.94 -7.65514 3.2257 0
M  V30 6336 O 857.678 -8.4329 2.32297 0
M  V30 6337 C 856.272 -6.40075 2.62207 0
M  V30 6338 O 857.07 -5.92338 1.5428 0
M  V30 6339 C 854.934 -6.9454 2.18503 0
M  V30 6340 N 853.891 -5.95905 2.39948 0
M  V30 6341 C 854.06 -4.98383 3.32108 0
M  V30 6342 N 853.033 -4.16798 3.41761 0
M  V30 6343 C 852.148 -4.65287 2.47461 0
M  V30 6344 C 850.881 -4.18946 2.07461 0
M  V30 6345 N 850.282 -3.09661 2.60717 0
M  V30 6346 N 850.316 -4.95327 1.09101 0
M  V30 6347 C 850.918 -6.04369 0.519812 0
M  V30 6348 N 852.095 -6.50694 0.855982 0
M  V30 6349 C 852.67 -5.75818 1.84322 0
M  V30 6350 H 854.966 -7.22964 1.12076 0
M  V30 6351 H 856.149 -5.60502 3.36589 0
M  V30 6352 H 857.632 -7.35707 4.02681 0
M  V30 6353 H 855.938 -9.41302 3.90009 0
M  V30 6354 H 855.748 -8.29056 5.99158 0
M  V30 6355 H 854.118 -8.10073 5.25882 0
M  V30 6356 H 850.382 -6.55843 -0.270373 0
M  V30 6357 H 854.96 -4.88564 3.92502 0
M  V30 6358 H 849.352 -2.80523 2.27218 0
M  V30 6359 H 850.756 -2.55848 3.34465 0
M  V30 6360 H 856.758 -6.30224 0.72668 0
M  V30 6361 P 858.616 -8.4349 2.47671 0
M  V30 6362 O 860.037 -8.94263 2.59668 0
M  V30 6363 O 858.256 -7.1704 3.19006 0
M  V30 6364 O 858.293 -8.16596 0.923387 0
M  V30 6365 C 858.132 -9.38537 0.108869 0
M  V30 6366 C 858.673 -9.08175 -1.28353 0
M  V30 6367 O 857.618 -8.44131 -1.84692 0
M  V30 6368 C 859.891 -8.18386 -1.42505 0
M  V30 6369 O 860.629 -8.3501 -2.60497 0
M  V30 6370 C 859.223 -6.80225 -1.25468 0
M  V30 6371 O 860.021 -5.81716 -1.90454 0
M  V30 6372 C 857.885 -7.02416 -1.9168 0
M  V30 6373 N 856.842 -6.31033 -1.20314 0
M  V30 6374 C 857.011 -5.98817 0.0994088 0
M  V30 6375 N 855.984 -5.35403 0.621694 0
M  V30 6376 C 855.099 -5.25212 -0.43376 0
M  V30 6377 C 853.832 -4.64602 -0.519722 0
M  V30 6378 N 853.233 -4.01457 0.519136 0
M  V30 6379 N 853.267 -4.7568 -1.76013 0
M  V30 6380 C 853.869 -5.3653 -2.83017 0
M  V30 6381 N 855.046 -5.93676 -2.79782 0
M  V30 6382 C 855.621 -5.84061 -1.56249 0
M  V30 6383 H 857.917 -6.68789 -2.9658 0
M  V30 6384 H 859.1 -6.53498 -0.198729 0
M  V30 6385 H 860.583 -8.36622 -0.589963 0
M  V30 6386 H 858.889 -10.0273 -1.8081 0
M  V30 6387 H 858.699 -10.2138 0.558219 0
M  V30 6388 H 857.069 -9.6579 0.0444202 0
M  V30 6389 H 853.333 -5.37113 -3.77321 0
M  V30 6390 H 857.911 -6.23209 0.660562 0
M  V30 6391 H 852.303 -3.58834 0.394862 0
M  V30 6392 H 853.707 -3.96059 1.43048 0
M  V30 6393 H 859.709 -5.69466 -2.79593 0
M  V30 6394 P 861.566 -8.4349 -2.47671 0
M  V30 6395 O 862.988 -8.92593 -2.65 0
M  V30 6396 O 861.206 -7.7568 -1.19296 0
M  V30 6397 O 861.243 -7.36886 -3.63805 0
M  V30 6398 C 861.083 -7.95349 -4.982 0
M  V30 6399 C 861.623 -6.94612 -5.98974 0
M  V30 6400 O 860.567 -6.10347 -6.11815 0
M  V30 6401 C 862.841 -6.11426 -5.62335 0
M  V30 6402 O 863.579 -5.6162 -6.70584 0
M  V30 6403 C 862.172 -5.04409 -4.73308 0
M  V30 6404 O 862.971 -3.85992 -4.75183 0
M  V30 6405 C 860.835 -4.8728 -5.41006 0
M  V30 6406 H 860.867 -4.02333 -6.11157 0
M  V30 6407 H 862.05 -5.39466 -3.69543 0
M  V30 6408 H 863.534 -6.71916 -5.01943 0
M  V30 6409 H 861.84 -7.4649 -6.93477 0
M  V30 6410 H 861.65 -8.89416 -5.05237 0
M  V30 6411 H 860.02 -8.14876 -5.18409 0
M  V30 6412 H 862.659 -3.27957 -5.4317 0
M  V30 6413 P 864.517 -5.75688 -6.64379 0
M  V30 6414 O 865.939 -6.07627 -7.05504 0
M  V30 6415 O 864.157 -5.88047 -5.19722 0
M  V30 6416 O 864.194 -4.2322 -7.04443 0
M  V30 6417 C 864.034 -3.99743 -8.4911 0
M  V30 6418 C 864.574 -2.60516 -8.79425 0
M  V30 6419 O 863.518 -1.82684 -8.4467 0
M  V30 6420 C 865.792 -2.10343 -8.03628 0
M  V30 6421 O 866.53 -1.09919 -8.67766 0
M  V30 6422 C 865.123 -1.68446 -6.70876 0
M  V30 6423 O 865.922 -0.678137 -6.08433 0
M  V30 6424 C 863.786 -1.17436 -7.18567 0
M  V30 6425 H 863.818 -0.0804732 -7.31656 0
M  V30 6426 H 865.001 -2.54037 -6.02537 0
M  V30 6427 H 866.485 -2.93881 -7.85526 0
M  V30 6428 H 864.791 -2.53065 -9.86973 0
M  V30 6429 H 864.601 -4.75072 -9.05887 0
M  V30 6430 H 862.971 -4.05244 -8.76668 0
M  V30 6431 H 865.61 0.177647 -6.34251 0
M  V30 6432 P 867.468 -1.25109 -8.70152 0
M  V30 6433 O 868.889 -1.29758 -9.22115 0
M  V30 6434 O 867.108 -2.13714 -7.55141 0
M  V30 6435 O 867.145 0.248149 -8.21425 0
M  V30 6436 C 866.984 1.22792 -9.30533 0
M  V30 6437 C 867.525 2.56293 -8.80664 0
M  V30 6438 O 866.47 3.02944 -8.09255 0
M  V30 6439 C 868.743 2.57523 -7.89775 0
M  V30 6440 O 869.481 3.7668 -7.89438 0
M  V30 6441 C 868.075 2.20997 -6.55446 0
M  V30 6442 O 868.873 2.71302 -5.48691 0
M  V30 6443 C 866.737 2.89693 -6.67988 0
M  V30 6444 N 865.694 2.08895 -6.07487 0
M  V30 6445 C 865.863 0.753809 -5.94137 0
M  V30 6446 N 864.836 0.146592 -5.38801 0
M  V30 6447 C 863.951 1.1768 -5.13693 0
M  V30 6448 C 862.684 1.17563 -4.52477 0
M  V30 6449 N 862.119 2.41918 -4.45789 0
M  V30 6450 C 862.721 3.56493 -4.90792 0
M  V30 6451 N 863.898 3.61423 -5.47817 0
M  V30 6452 C 864.473 2.37779 -5.5588 0
M  V30 6453 H 867.952 1.12673 -6.44018 0
M  V30 6454 H 869.435 1.7746 -8.19711 0
M  V30 6455 H 867.741 3.21673 -9.66791 0
M  V30 6456 H 867.551 0.901032 -10.1892 0
M  V30 6457 H 865.921 1.33049 -9.56592 0
M  V30 6458 H 866.763 0.233081 -6.26266 0
M  V30 6459 H 868.561 3.5779 -5.23879 0
M  V30 6460 P 870.418 3.65191 -7.99657 0
M  V30 6461 O 871.84 3.89332 -8.45794 0
M  V30 6462 O 870.058 2.28472 -7.50807 0
M  V30 6463 O 870.095 4.64972 -6.77611 0
M  V30 6464 C 869.935 6.06319 -7.16352 0
M  V30 6465 C 870.475 6.91731 -6.02299 0
M  V30 6466 O 869.419 6.92449 -5.17064 0
M  V30 6467 C 871.693 6.43627 -5.25174 0
M  V30 6468 O 872.431 7.43686 -4.60469 0
M  V30 6469 C 871.024 5.40275 -4.31916 0
M  V30 6470 O 871.823 5.25279 -3.14438 0
M  V30 6471 C 869.687 6.04847 -4.05327 0
M  V30 6472 H 869.719 6.62195 -3.11261 0
M  V30 6473 H 870.902 4.42556 -4.81383 0
M  V30 6474 H 872.386 5.92458 -5.93643 0
M  V30 6475 H 870.692 7.92655 -6.402 0
M  V30 6476 H 870.502 6.26671 -8.0846 0
M  V30 6477 H 868.872 6.29101 -7.32804 0
M  V30 6478 H 871.511 5.84315 -2.47318 0
M  V30 6479 P 873.369 7.39546 -4.75277 0
M  V30 6480 O 874.791 7.84798 -5.01039 0
M  V30 6481 O 873.009 5.9812 -5.08098 0
M  V30 6482 O 873.046 7.57503 -3.1866 0
M  V30 6483 C 872.886 8.97357 -2.74833 0
M  V30 6484 C 873.426 9.07548 -1.32709 0
M  V30 6485 O 872.37 8.62072 -0.606159 0
M  V30 6486 C 874.644 8.25383 -0.938334 0
M  V30 6487 O 875.382 8.74577 0.146954 0
M  V30 6488 C 873.975 6.8802 -0.712559 0
M  V30 6489 O 874.774 6.1189 0.194655 0
M  V30 6490 C 872.638 7.27966 -0.139777 0
M  V30 6491 H 872.67 7.25354 0.961601 0
M  V30 6492 H 873.853 6.32557 -1.65702 0
M  V30 6493 H 875.337 8.19355 -1.79097 0
M  V30 6494 H 873.643 10.1294 -1.10029 0
M  V30 6495 H 873.453 9.64276 -3.41316 0
M  V30 6496 H 871.823 9.25417 -2.76357 0
M  V30 6497 H 874.462 6.25267 1.07847 0
M  V30 6498 P 876.319 8.791 6.62549e-12 0
M  V30 6499 O 877.741 9.31096 0.027933 0
M  V30 6500 O 875.959 7.77869 -1.04071 0
M  V30 6501 O 875.996 8.09533 1.41463 0
M  V30 6502 C 875.836 9.0349 2.53943 0
M  V30 6503 C 876.376 8.35226 3.79016 0
M  V30 6504 O 875.32 7.57992 4.15078 0
M  V30 6505 C 877.594 7.45087 3.67298 0
M  V30 6506 O 878.332 7.27796 4.85194 0
M  V30 6507 C 876.925 6.17323 3.12027 0
M  V30 6508 O 877.724 5.04231 3.47188 0
M  V30 6509 C 875.588 6.19961 3.81809 0
M  V30 6510 H 875.62 5.58218 4.73051 0
M  V30 6511 H 876.803 6.21726 2.02589 0
M  V30 6512 H 878.287 7.86112 2.9231 0
M  V30 6513 H 876.593 9.11627 4.55076 0
M  V30 6514 H 876.403 9.9573 2.34194 0
M  V30 6515 H 874.773 9.2792 2.67832 0
M  V30 6516 H 877.412 4.67702 4.28772 0
M  V30 6517 P 879.27 7.39546 4.75277 0
M  V30 6518 O 880.692 7.81777 5.05738 0
M  V30 6519 O 878.91 7.1065 3.32998 0
M  V30 6520 O 878.947 6.04542 5.56673 0
M  V30 6521 C 878.787 6.22772 7.02095 0
M  V30 6522 C 879.327 4.97725 7.70406 0
M  V30 6523 O 878.271 4.13256 7.58987 0
M  V30 6524 C 880.545 4.28231 7.11815 0
M  V30 6525 O 881.283 3.49945 8.01648 0
M  V30 6526 C 879.876 3.5063 5.96244 0
M  V30 6527 O 880.675 2.36482 5.64681 0
M  V30 6528 C 878.539 3.15122 6.56374 0
M  V30 6529 H 878.571 2.13853 6.99751 0
M  V30 6530 H 879.754 4.13501 5.06559 0
M  V30 6531 H 881.238 5.03285 6.70911 0
M  V30 6532 H 879.544 5.20877 8.75697 0
M  V30 6533 H 879.354 7.11046 7.35349 0
M  V30 6534 H 877.724 6.35815 7.26986 0
M  V30 6535 H 880.363 1.61644 6.13565 0
M  V30 6536 P 882.22 3.65191 7.99657 0
M  V30 6537 O 883.642 3.8425 8.48115 0
M  V30 6538 O 881.86 4.17805 6.64342 0
M  V30 6539 O 881.897 2.07613 7.95143 0
M  V30 6540 C 881.737 1.44328 9.27336 0
M  V30 6541 C 882.277 0.0220036 9.17197 0
M  V30 6542 O 881.221 -0.626867 8.61923 0
M  V30 6543 C 883.495 -0.24586 8.30336 0
M  V30 6544 O 884.233 -1.39011 8.63583 0
M  V30 6545 C 882.826 -0.273849 6.91158 0
M  V30 6546 O 883.625 -1.06348 6.02892 0
M  V30 6547 C 881.489 -0.897649 7.22545 0
M  V30 6548 H 881.521 -1.9841 7.04286 0
M  V30 6549 H 882.704 0.739928 6.497 0
M  V30 6550 H 884.188 0.60668 8.36503 0
M  V30 6551 H 882.494 -0.352479 10.1829 0
M  V30 6552 H 882.304 2.00611 10.0304 0
M  V30 6553 H 880.674 1.41843 9.55327 0
M  V30 6554 H 883.313 -1.95734 6.03555 0
M  V30 6555 P 885.171 -1.25109 8.70152 0
M  V30 6556 O 886.593 -1.35303 9.21419 0
M  V30 6557 O 884.811 -0.0769065 7.84762 0
M  V30 6558 O 884.848 -2.55232 7.81161 0
M  V30 6559 C 884.688 -3.79939 8.58154 0
M  V30 6560 C 885.228 -4.93969 7.72701 0
M  V30 6561 O 884.173 -5.18726 6.91205 0
M  V30 6562 C 886.446 -4.69597 6.85231 0
M  V30 6563 O 887.184 -5.83832 6.51337 0
M  V30 6564 C 885.778 -3.96706 5.66633 0
M  V30 6565 O 886.576 -4.15346 4.49615 0
M  V30 6566 C 884.44 -4.66153 5.59313 0
M  V30 6567 N 883.397 -3.71582 5.24027 0
M  V30 6568 C 883.459 -2.46018 5.67902 0
M  V30 6569 N 882.414 -1.74868 5.24518 0
M  V30 6570 C 881.68 -2.61333 4.54528 0
M  V30 6571 C 880.374 -2.46162 3.95441 0
M  V30 6572 O 879.641 -1.46013 3.94122 0
M  V30 6573 N 879.944 -3.59334 3.34752 0
M  V30 6574 C 880.693 -4.79605 3.3023 0
M  V30 6575 N 880.096 -5.82109 2.6065 0
M  V30 6576 N 881.846 -4.97402 3.8843 0
M  V30 6577 C 882.303 -3.86258 4.50476 0
M  V30 6578 H 884.472 -5.47679 4.85214 0
M  V30 6579 H 885.655 -2.88964 5.86476 0
M  V30 6580 H 887.14 -4.01947 7.36109 0
M  V30 6581 H 885.445 -5.80182 8.37584 0
M  V30 6582 H 885.255 -3.73517 9.52265 0
M  V30 6583 H 883.624 -3.97163 8.80359 0
M  V30 6584 H 879.048 -3.5825 2.90294 0
M  V30 6585 H 884.255 -2.06161 6.30974 0
M  V30 6586 H 879.185 -5.66979 2.15354 0
M  V30 6587 H 880.561 -6.73686 2.54344 0
M  V30 6588 H 886.265 -4.90891 4.01857 0
M  V30 6589 P 888.122 -5.75688 6.64379 0
M  V30 6590 O 889.544 -6.11849 7.01846 0
M  V30 6591 O 887.762 -4.30744 6.56026 0
M  V30 6592 O 887.799 -6.37042 5.19165 0
M  V30 6593 C 887.639 -7.83578 5.16515 0
M  V30 6594 C 888.179 -8.33398 3.83019 0
M  V30 6595 O 887.123 -8.10074 3.01034 0
M  V30 6596 C 889.397 -7.65514 3.2257 0
M  V30 6597 O 890.135 -8.4329 2.32297 0
M  V30 6598 C 888.728 -6.40075 2.62207 0
M  V30 6599 O 889.527 -5.92589 1.53712 0
M  V30 6600 C 887.391 -6.9454 2.18503 0
M  V30 6601 H 887.423 -7.23063 1.12091 0
M  V30 6602 H 888.606 -5.6025 3.37201 0
M  V30 6603 H 890.09 -7.35707 4.02681 0
M  V30 6604 H 888.396 -9.40912 3.9095 0
M  V30 6605 H 888.206 -8.29056 5.99158 0
M  V30 6606 H 886.576 -8.10073 5.25882 0
M  V30 6607 H 889.215 -6.30324 0.726794 0
M  V30 6608 P 891.072 -8.4349 2.47671 0
M  V30 6609 O 892.494 -8.94167 2.5964 0
M  V30 6610 O 890.712 -7.1704 3.19006 0
M  V30 6611 O 890.749 -8.16596 0.923387 0
M  V30 6612 C 890.589 -9.38437 0.108857 0
M  V30 6613 C 891.129 -9.08175 -1.28353 0
M  V30 6614 O 890.073 -8.44229 -1.84713 0
M  V30 6615 C 892.347 -8.18386 -1.42505 0
M  V30 6616 O 893.085 -8.3501 -2.60497 0
M  V30 6617 C 891.678 -6.80225 -1.25468 0
M  V30 6618 O 892.477 -5.81621 -1.91066 0
M  V30 6619 C 890.341 -7.02416 -1.9168 0
M  V30 6620 H 890.373 -6.6888 -2.96621 0
M  V30 6621 H 891.556 -6.53617 -0.192223 0
M  V30 6622 H 893.04 -8.36622 -0.589963 0
M  V30 6623 H 891.346 -10.0291 -1.79807 0
M  V30 6624 H 891.156 -10.2138 0.558219 0
M  V30 6625 H 889.526 -9.6579 0.0444202 0
M  V30 6626 H 892.165 -5.69556 -2.79637 0
M  V30 6627 P 894.023 -8.4349 -2.47671 0
M  V30 6628 O 895.445 -8.92593 -2.65 0
M  V30 6629 O 893.663 -7.7568 -1.19296 0
M  V30 6630 O 893.7 -7.36886 -3.63805 0
M  V30 6631 C 893.54 -7.95349 -4.982 0
M  V30 6632 C 894.08 -6.94612 -5.98974 0
M  V30 6633 O 893.024 -6.10347 -6.11815 0
M  V30 6634 C 895.298 -6.11426 -5.62335 0
M  V30 6635 O 896.036 -5.6162 -6.70584 0
M  V30 6636 C 894.629 -5.04409 -4.73308 0
M  V30 6637 O 895.428 -3.85992 -4.75183 0
M  V30 6638 C 893.292 -4.8728 -5.41006 0
M  V30 6639 H 893.324 -4.02333 -6.11157 0
M  V30 6640 H 894.507 -5.39466 -3.69543 0
M  V30 6641 H 895.991 -6.71916 -5.01943 0
M  V30 6642 H 894.297 -7.4649 -6.93477 0
M  V30 6643 H 894.107 -8.89416 -5.05237 0
M  V30 6644 H 892.477 -8.14876 -5.18409 0
M  V30 6645 H 895.116 -3.27957 -5.4317 0
M  V30 6646 P 896.973 -5.75688 -6.64379 0
M  V30 6647 O 898.374 -6.14823 -7.06682 0
M  V30 6648 O 896.595 -5.93957 -5.20728 0
M  V30 6649 O 896.65 -4.23169 -7.04357 0
M  V30 6650 C 896.49 -3.99743 -8.4911 0
M  V30 6651 C 897.03 -2.60487 -8.79329 0
M  V30 6652 O 895.974 -1.82663 -8.44573 0
M  V30 6653 C 898.247 -2.10343 -8.03628 0
M  V30 6654 O 898.986 -1.09919 -8.67766 0
M  V30 6655 C 897.58 -1.68446 -6.70876 0
M  V30 6656 O 898.378 -0.678026 -6.08333 0
M  V30 6657 C 896.242 -1.17436 -7.18567 0
M  V30 6658 N 895.199 -1.52699 -6.23988 0
M  V30 6659 C 894.164 -0.643793 -6.05085 0
M  V30 6660 O 894.203 0.459118 -6.64315 0
M  V30 6661 N 893.152 -0.976931 -5.22038 0
M  V30 6662 C 893.2 -2.14429 -4.56662 0
M  V30 6663 N 892.19 -2.4542 -3.76231 0
M  V30 6664 C 894.296 -3.04203 -4.71481 0
M  V30 6665 C 895.262 -2.69669 -5.56838 0
M  V30 6666 H 896.274 -0.0804622 -7.31556 0
M  V30 6667 H 897.457 -2.53396 -6.02698 0
M  V30 6668 H 898.941 -2.9313 -7.85914 0
M  V30 6669 H 897.247 -2.52078 -9.87225 0
M  V30 6670 H 897.056 -4.75072 -9.05887 0
M  V30 6671 H 895.426 -4.05202 -8.76577 0
M  V30 6672 H 894.344 -3.97309 -4.15519 0
M  V30 6673 H 896.108 -3.36869 -5.72318 0
M  V30 6674 H 891.4 -1.80133 -3.65413 0
M  V30 6675 H 892.195 -3.34359 -3.24736 0
M  V30 6676 H 898.162 0.167718 -6.44882 0
M  V30 6677 P 899.924 -1.25109 -8.70152 0
M  V30 6678 O 901.346 -1.29744 -9.22016 0
M  V30 6679 O 899.564 -2.13714 -7.55141 0
M  V30 6680 O 899.601 0.248149 -8.21425 0
M  V30 6681 C 899.441 1.22779 -9.30434 0
M  V30 6682 C 899.981 2.56293 -8.80664 0
M  V30 6683 O 898.925 3.02979 -8.09349 0
M  V30 6684 C 901.199 2.57523 -7.89775 0
M  V30 6685 O 901.937 3.7668 -7.89438 0
M  V30 6686 C 900.53 2.20997 -6.55446 0
M  V30 6687 O 901.329 2.71895 -5.48509 0
M  V30 6688 C 899.193 2.89693 -6.67988 0
M  V30 6689 H 899.225 3.88793 -6.19859 0
M  V30 6690 H 900.408 1.12046 -6.44229 0
M  V30 6691 H 901.892 1.7746 -8.19711 0
M  V30 6692 H 900.198 3.20706 -9.67112 0
M  V30 6693 H 900.008 0.901032 -10.1892 0
M  V30 6694 H 898.378 1.33049 -9.56592 0
M  V30 6695 H 901.017 3.57847 -5.23962 0
M  V30 6696 P 902.874 3.65191 -7.99657 0
M  V30 6697 O 904.296 3.89332 -8.45794 0
M  V30 6698 O 902.514 2.28472 -7.50807 0
M  V30 6699 O 902.551 4.64972 -6.77611 0
M  V30 6700 C 902.391 6.06319 -7.16352 0
M  V30 6701 C 902.931 6.91731 -6.02299 0
M  V30 6702 O 901.875 6.92449 -5.17064 0
M  V30 6703 C 904.149 6.43627 -5.25174 0
M  V30 6704 O 904.887 7.43686 -4.60469 0
M  V30 6705 C 903.48 5.40275 -4.31916 0
M  V30 6706 O 904.279 5.25279 -3.14438 0
M  V30 6707 C 902.143 6.04847 -4.05327 0
M  V30 6708 H 902.175 6.62195 -3.11261 0
M  V30 6709 H 903.358 4.42556 -4.81383 0
M  V30 6710 H 904.842 5.92458 -5.93643 0
M  V30 6711 H 903.148 7.92655 -6.402 0
M  V30 6712 H 902.958 6.26671 -8.0846 0
M  V30 6713 H 901.328 6.29101 -7.32804 0
M  V30 6714 H 903.967 5.84315 -2.47318 0
M  V30 6715 P 905.825 7.39546 -4.75277 0
M  V30 6716 O 907.246 7.84882 -5.01092 0
M  V30 6717 O 905.465 5.9812 -5.08098 0
M  V30 6718 O 905.502 7.57503 -3.1866 0
M  V30 6719 C 905.341 8.97452 -2.74862 0
M  V30 6720 C 905.882 9.07548 -1.32709 0
M  V30 6721 O 904.827 8.61972 -0.606089 0
M  V30 6722 C 907.1 8.25383 -0.938334 0
M  V30 6723 O 907.838 8.74577 0.146954 0
M  V30 6724 C 906.432 6.8802 -0.712559 0
M  V30 6725 O 907.23 6.1181 0.188505 0
M  V30 6726 C 905.094 7.27966 -0.139777 0
M  V30 6727 N 904.051 6.39368 -0.623421 0
M  V30 6728 C 904.22 5.71761 -1.78245 0
M  V30 6729 N 903.193 4.962 -2.10491 0
M  V30 6730 C 902.308 5.16158 -1.0635 0
M  V30 6731 C 901.041 4.60425 -0.810266 0
M  V30 6732 N 900.476 5.06 0.348685 0
M  V30 6733 C 901.078 5.94532 1.20395 0
M  V30 6734 N 902.255 6.48452 1.01191 0
M  V30 6735 C 902.83 6.04423 -0.146291 0
M  V30 6736 H 906.309 6.32625 -1.65044 0
M  V30 6737 H 907.792 8.19355 -1.79097 0
M  V30 6738 H 906.098 10.1305 -1.09016 0
M  V30 6739 H 905.908 9.64276 -3.41316 0
M  V30 6740 H 904.278 9.25417 -2.76357 0
M  V30 6741 H 905.12 5.79354 -2.38959 0
M  V30 6742 H 906.918 6.25169 1.0783 0
M  V30 6743 P 908.776 8.791 6.93566e-12 0
M  V30 6744 O 910.198 9.31096 0.027933 0
M  V30 6745 O 908.416 7.77869 -1.04071 0
M  V30 6746 O 908.453 8.09533 1.41463 0
M  V30 6747 C 908.293 9.0349 2.53943 0
M  V30 6748 C 908.833 8.35226 3.79016 0
M  V30 6749 O 907.777 7.57992 4.15078 0
M  V30 6750 C 910.051 7.45087 3.67298 0
M  V30 6751 O 910.789 7.27796 4.85194 0
M  V30 6752 C 909.382 6.17323 3.12027 0
M  V30 6753 O 910.181 5.04231 3.47188 0
M  V30 6754 C 908.045 6.19961 3.81809 0
M  V30 6755 H 908.077 5.58218 4.73051 0
M  V30 6756 H 909.26 6.21726 2.02589 0
M  V30 6757 H 910.744 7.86112 2.9231 0
M  V30 6758 H 909.05 9.11627 4.55076 0
M  V30 6759 H 908.86 9.9573 2.34194 0
M  V30 6760 H 907.23 9.2792 2.67832 0
M  V30 6761 H 909.869 4.67702 4.28772 0
M  V30 6762 P 911.726 7.39546 4.75277 0
M  V30 6763 O 913.148 7.81777 5.05738 0
M  V30 6764 O 911.366 7.1065 3.32998 0
M  V30 6765 O 911.403 6.04542 5.56673 0
M  V30 6766 C 911.243 6.22772 7.02095 0
M  V30 6767 C 911.783 4.97725 7.70406 0
M  V30 6768 O 910.727 4.13256 7.58987 0
M  V30 6769 C 913.001 4.28231 7.11815 0
M  V30 6770 O 913.739 3.49945 8.01648 0
M  V30 6771 C 912.332 3.5063 5.96244 0
M  V30 6772 O 913.131 2.36482 5.64681 0
M  V30 6773 C 910.995 3.15122 6.56374 0
M  V30 6774 H 911.027 2.13853 6.99751 0
M  V30 6775 H 912.21 4.13501 5.06559 0
M  V30 6776 H 913.694 5.03285 6.70911 0
M  V30 6777 H 912 5.20877 8.75697 0
M  V30 6778 H 911.81 7.11046 7.35349 0
M  V30 6779 H 910.18 6.35815 7.26986 0
M  V30 6780 H 912.819 1.61644 6.13565 0
M  V30 6781 P 914.677 3.65191 7.99657 0
M  V30 6782 O 916.099 3.8425 8.48115 0
M  V30 6783 O 914.317 4.17805 6.64342 0
M  V30 6784 O 914.354 2.07613 7.95143 0
M  V30 6785 C 914.194 1.44328 9.27336 0
M  V30 6786 C 914.734 0.0220036 9.17197 0
M  V30 6787 O 913.678 -0.626867 8.61923 0
M  V30 6788 C 915.952 -0.24586 8.30336 0
M  V30 6789 O 916.69 -1.39011 8.63583 0
M  V30 6790 C 915.283 -0.273849 6.91158 0
M  V30 6791 O 916.082 -1.06348 6.02892 0
M  V30 6792 C 913.946 -0.897649 7.22545 0
M  V30 6793 H 913.978 -1.9841 7.04286 0
M  V30 6794 H 915.161 0.739928 6.497 0
M  V30 6795 H 916.645 0.60668 8.36503 0
M  V30 6796 H 914.951 -0.352479 10.1829 0
M  V30 6797 H 914.761 2.00611 10.0304 0
M  V30 6798 H 913.131 1.41843 9.55327 0
M  V30 6799 H 915.77 -1.95734 6.03555 0
M  V30 6800 P 917.627 -1.25109 8.70152 0
M  V30 6801 O 919.049 -1.35274 9.21221 0
M  V30 6802 O 917.267 -0.0769065 7.84762 0
M  V30 6803 O 917.304 -2.55232 7.81161 0
M  V30 6804 C 917.144 -3.79939 8.58154 0
M  V30 6805 C 917.684 -4.94023 7.72785 0
M  V30 6806 O 916.628 -5.18726 6.91205 0
M  V30 6807 C 918.902 -4.69597 6.85231 0
M  V30 6808 O 919.64 -5.83832 6.51337 0
M  V30 6809 C 918.233 -3.96706 5.66633 0
M  V30 6810 O 919.032 -4.15414 4.49689 0
M  V30 6811 C 916.896 -4.66153 5.59313 0
M  V30 6812 H 916.928 -5.47679 4.85214 0
M  V30 6813 H 918.111 -2.89008 5.86566 0
M  V30 6814 H 919.595 -4.0121 7.36511 0
M  V30 6815 H 917.901 -5.80182 8.37584 0
M  V30 6816 H 917.711 -3.73517 9.52265 0
M  V30 6817 H 916.081 -3.97163 8.80359 0
M  V30 6818 H 918.72 -4.90969 4.01921 0
M  V30 6819 P 920.578 -5.75688 6.64379 0
M  V30 6820 O 921.979 -6.11991 7.09136 0
M  V30 6821 O 920.2 -4.30899 6.62018 0
M  V30 6822 O 920.255 -6.36965 5.19102 0
M  V30 6823 C 920.095 -7.83578 5.16515 0
M  V30 6824 C 920.635 -8.33307 3.82977 0
M  V30 6825 O 919.579 -8.0998 3.00999 0
M  V30 6826 C 921.852 -7.65514 3.2257 0
M  V30 6827 O 922.591 -8.4329 2.32297 0
M  V30 6828 C 921.185 -6.40075 2.62207 0
M  V30 6829 O 921.983 -5.92492 1.53687 0
M  V30 6830 C 919.847 -6.9454 2.18503 0
M  V30 6831 N 918.804 -5.95905 2.39948 0
M  V30 6832 C 917.769 -5.89764 1.49837 0
M  V30 6833 O 917.808 -6.64088 0.490975 0
M  V30 6834 N 916.757 -5.02821 1.70992 0
M  V30 6835 C 916.805 -4.21498 2.77236 0
M  V30 6836 C 917.901 -4.23389 3.68205 0
M  V30 6837 C 918.867 -5.12792 3.46171 0
M  V30 6838 H 919.879 -7.22964 1.12076 0
M  V30 6839 H 921.062 -5.60502 3.36589 0
M  V30 6840 H 922.546 -7.36197 4.01993 0
M  V30 6841 H 920.852 -9.41302 3.90009 0
M  V30 6842 H 920.661 -8.29056 5.99158 0
M  V30 6843 H 919.031 -8.09989 5.25828 0
M  V30 6844 H 917.949 -3.54747 4.52399 0
M  V30 6845 H 919.713 -5.18551 4.1489 0
M  V30 6846 H 921.767 -6.40705 0.751752 0
M  V30 6847 P 923.528 -8.4349 2.47671 0
M  V30 6848 O 924.95 -8.94167 2.5964 0
M  V30 6849 O 923.168 -7.1704 3.19006 0
M  V30 6850 O 923.205 -8.16596 0.923387 0
M  V30 6851 C 923.045 -9.38437 0.108857 0
M  V30 6852 C 923.585 -9.08175 -1.28353 0
M  V30 6853 O 922.529 -8.44229 -1.84713 0
M  V30 6854 C 924.803 -8.18386 -1.42505 0
M  V30 6855 O 925.541 -8.3501 -2.60497 0
M  V30 6856 C 924.134 -6.80225 -1.25468 0
M  V30 6857 O 924.933 -5.81621 -1.91066 0
M  V30 6858 C 922.797 -7.02416 -1.9168 0
M  V30 6859 H 922.829 -6.6888 -2.96621 0
M  V30 6860 H 924.012 -6.53617 -0.192223 0
M  V30 6861 H 925.496 -8.36622 -0.589963 0
M  V30 6862 H 923.802 -10.0291 -1.79807 0
M  V30 6863 H 923.612 -10.2138 0.558219 0
M  V30 6864 H 921.982 -9.6579 0.0444202 0
M  V30 6865 H 924.621 -5.69556 -2.79637 0
M  V30 6866 P 926.479 -8.4349 -2.47671 0
M  V30 6867 O 927.901 -8.92785 -2.65057 0
M  V30 6868 O 926.119 -7.7568 -1.19296 0
M  V30 6869 O 926.156 -7.36886 -3.63805 0
M  V30 6870 C 925.996 -7.95349 -4.982 0
M  V30 6871 C 926.536 -6.94537 -5.98908 0
M  V30 6872 O 925.481 -6.10347 -6.11815 0
M  V30 6873 C 927.754 -6.11426 -5.62335 0
M  V30 6874 O 928.492 -5.6162 -6.70584 0
M  V30 6875 C 927.086 -5.04409 -4.73308 0
M  V30 6876 O 927.884 -3.85929 -4.75106 0
M  V30 6877 C 925.748 -4.8728 -5.41006 0
M  V30 6878 N 924.705 -4.65812 -4.42377 0
M  V30 6879 C 924.767 -5.27109 -3.24335 0
M  V30 6880 N 923.722 -4.94293 -2.47735 0
M  V30 6881 C 922.988 -4.1271 -3.23359 0
M  V30 6882 C 921.682 -3.56384 -2.99934 0
M  V30 6883 O 920.949 -3.69331 -2.00616 0
M  V30 6884 N 921.252 -2.80206 -4.03316 0
M  V30 6885 C 922.001 -2.58614 -5.2172 0
M  V30 6886 N 921.404 -1.75154 -6.13278 0
M  V30 6887 N 923.154 -3.13689 -5.47619 0
M  V30 6888 C 923.611 -3.90921 -4.46436 0
M  V30 6889 H 925.78 -4.02333 -6.11157 0
M  V30 6890 H 926.963 -5.39383 -3.69487 0
M  V30 6891 H 928.448 -6.71414 -5.02615 0
M  V30 6892 H 926.753 -7.4649 -6.93477 0
M  V30 6893 H 926.563 -8.89416 -5.05237 0
M  V30 6894 H 924.932 -8.14876 -5.18409 0
M  V30 6895 H 920.356 -2.36355 -3.95916 0
M  V30 6896 H 925.563 -5.95212 -2.93859 0
M  V30 6897 H 920.493 -1.32473 -5.91856 0
M  V30 6898 H 921.869 -1.5588 -7.03026 0
M  V30 6899 H 927.573 -3.27906 -5.43085 0
M  V30 6900 P 929.43 -5.75688 -6.64379 0
M  V30 6901 O 930.852 -6.07627 -7.05504 0
M  V30 6902 O 929.07 -5.88047 -5.19722 0
M  V30 6903 O 929.107 -4.2322 -7.04443 0
M  V30 6904 C 928.947 -3.99743 -8.4911 0
M  V30 6905 C 929.487 -2.60516 -8.79425 0
M  V30 6906 O 928.431 -1.82684 -8.4467 0
M  V30 6907 C 930.705 -2.10343 -8.03628 0
M  V30 6908 O 931.443 -1.09919 -8.67766 0
M  V30 6909 C 930.036 -1.68446 -6.70876 0
M  V30 6910 O 930.835 -0.678137 -6.08433 0
M  V30 6911 C 928.699 -1.17436 -7.18567 0
M  V30 6912 H 928.731 -0.0804732 -7.31656 0
M  V30 6913 H 929.914 -2.54037 -6.02537 0
M  V30 6914 H 931.398 -2.93881 -7.85526 0
M  V30 6915 H 929.704 -2.53065 -9.86973 0
M  V30 6916 H 929.514 -4.75072 -9.05887 0
M  V30 6917 H 927.884 -4.05244 -8.76668 0
M  V30 6918 H 930.523 0.177647 -6.34251 0
M  V30 6919 P 932.38 -1.25109 -8.70152 0
M  V30 6920 O 933.802 -1.29744 -9.22016 0
M  V30 6921 O 932.02 -2.13714 -7.55141 0
M  V30 6922 O 932.057 0.248149 -8.21425 0
M  V30 6923 C 931.897 1.22779 -9.30434 0
M  V30 6924 C 932.437 2.56293 -8.80664 0
M  V30 6925 O 931.381 3.02979 -8.09349 0
M  V30 6926 C 933.655 2.57523 -7.89775 0
M  V30 6927 O 934.393 3.7668 -7.89438 0
M  V30 6928 C 932.986 2.20997 -6.55446 0
M  V30 6929 O 933.785 2.71895 -5.48509 0
M  V30 6930 C 931.649 2.89693 -6.67988 0
M  V30 6931 H 931.681 3.88793 -6.19859 0
M  V30 6932 H 932.864 1.12046 -6.44229 0
M  V30 6933 H 934.348 1.7746 -8.19711 0
M  V30 6934 H 932.654 3.20706 -9.67112 0
M  V30 6935 H 932.464 0.901032 -10.1892 0
M  V30 6936 H 930.834 1.33049 -9.56592 0
M  V30 6937 H 933.473 3.57847 -5.23962 0
M  V30 6938 P 935.331 3.65191 -7.99657 0
M  V30 6939 O 936.753 3.89332 -8.45794 0
M  V30 6940 O 934.971 2.28472 -7.50807 0
M  V30 6941 O 935.008 4.64972 -6.77611 0
M  V30 6942 C 934.848 6.06319 -7.16352 0
M  V30 6943 C 935.388 6.91731 -6.02299 0
M  V30 6944 O 934.332 6.92449 -5.17064 0
M  V30 6945 C 936.606 6.43627 -5.25174 0
M  V30 6946 O 937.344 7.43686 -4.60469 0
M  V30 6947 C 935.937 5.40275 -4.31916 0
M  V30 6948 O 936.736 5.25279 -3.14438 0
M  V30 6949 C 934.6 6.04847 -4.05327 0
M  V30 6950 H 934.632 6.62195 -3.11261 0
M  V30 6951 H 935.815 4.42556 -4.81383 0
M  V30 6952 H 937.299 5.92458 -5.93643 0
M  V30 6953 H 935.605 7.92655 -6.402 0
M  V30 6954 H 935.415 6.26671 -8.0846 0
M  V30 6955 H 933.785 6.29101 -7.32804 0
M  V30 6956 H 936.424 5.84315 -2.47318 0
M  V30 6957 P 938.281 7.39546 -4.75277 0
M  V30 6958 O 939.703 7.84798 -5.01039 0
M  V30 6959 O 937.921 5.9812 -5.08098 0
M  V30 6960 O 937.958 7.57503 -3.1866 0
M  V30 6961 C 937.798 8.97357 -2.74833 0
M  V30 6962 C 938.338 9.07548 -1.32709 0
M  V30 6963 O 937.282 8.62072 -0.606159 0
M  V30 6964 C 939.556 8.25383 -0.938334 0
M  V30 6965 O 940.294 8.74577 0.146954 0
M  V30 6966 C 938.887 6.8802 -0.712559 0
M  V30 6967 O 939.686 6.1189 0.194655 0
M  V30 6968 C 937.55 7.27966 -0.139777 0
M  V30 6969 H 937.582 7.25354 0.961601 0
M  V30 6970 H 938.765 6.32557 -1.65702 0
M  V30 6971 H 940.249 8.19355 -1.79097 0
M  V30 6972 H 938.555 10.1294 -1.10029 0
M  V30 6973 H 938.365 9.64276 -3.41316 0
M  V30 6974 H 936.735 9.25417 -2.76357 0
M  V30 6975 H 939.374 6.25267 1.07847 0
M  V30 6976 P 941.232 8.791 7.24582e-12 0
M  V30 6977 O 942.654 9.31096 0.027933 0
M  V30 6978 O 940.872 7.77869 -1.04071 0
M  V30 6979 O 940.909 8.09533 1.41463 0
M  V30 6980 C 940.749 9.0349 2.53943 0
M  V30 6981 C 941.289 8.35226 3.79016 0
M  V30 6982 O 940.233 7.57992 4.15078 0
M  V30 6983 C 942.507 7.45087 3.67298 0
M  V30 6984 O 943.245 7.27796 4.85194 0
M  V30 6985 C 941.838 6.17323 3.12027 0
M  V30 6986 O 942.637 5.04231 3.47188 0
M  V30 6987 C 940.501 6.19961 3.81809 0
M  V30 6988 H 940.533 5.58218 4.73051 0
M  V30 6989 H 941.716 6.21726 2.02589 0
M  V30 6990 H 943.2 7.86112 2.9231 0
M  V30 6991 H 941.506 9.11627 4.55076 0
M  V30 6992 H 941.316 9.9573 2.34194 0
M  V30 6993 H 939.686 9.2792 2.67832 0
M  V30 6994 H 942.325 4.67702 4.28772 0
M  V30 6995 P 944.182 7.39546 4.75277 0
M  V30 6996 O 945.604 7.81945 5.05847 0
M  V30 6997 O 943.822 7.1065 3.32998 0
M  V30 6998 O 943.859 6.04542 5.56673 0
M  V30 6999 C 943.699 6.22772 7.02095 0
M  V30 7000 C 944.239 4.97671 7.70322 0
M  V30 7001 O 943.184 4.13256 7.58987 0
M  V30 7002 C 945.457 4.28231 7.11815 0
M  V30 7003 O 946.195 3.49945 8.01648 0
M  V30 7004 C 944.789 3.5063 5.96244 0
M  V30 7005 O 945.587 2.36443 5.64589 0
M  V30 7006 C 943.451 3.15122 6.56374 0
M  V30 7007 N 942.408 3.22311 5.55692 0
M  V30 7008 C 942.47 4.14382 4.59701 0
M  V30 7009 N 941.425 4.04476 3.76958 0
M  V30 7010 C 940.691 3.04892 4.26534 0
M  V30 7011 C 939.385 2.57447 3.88189 0
M  V30 7012 O 938.652 2.9785 2.96543 0
M  V30 7013 N 938.955 1.55228 4.65922 0
M  V30 7014 C 939.704 1.01152 5.73447 0
M  V30 7015 N 939.107 -0.0472117 6.37783 0
M  V30 7016 N 940.857 1.467 6.13813 0
M  V30 7017 C 941.314 2.4931 5.38487 0
M  V30 7018 H 943.483 2.13853 6.99751 0
M  V30 7019 H 944.666 4.13438 5.06482 0
M  V30 7020 H 946.151 5.02614 6.71414 0
M  V30 7021 H 944.456 5.20877 8.75697 0
M  V30 7022 H 944.266 7.11046 7.35349 0
M  V30 7023 H 942.635 6.35815 7.26986 0
M  V30 7024 H 938.059 1.15238 4.46468 0
M  V30 7025 H 943.266 4.88312 4.49647 0
M  V30 7026 H 938.196 -0.396382 6.05203 0
M  V30 7027 H 939.572 -0.484997 7.18465 0
M  V30 7028 H 945.276 1.61619 6.13468 0
M  V30 7029 P 947.133 3.65191 7.99657 0
M  V30 7030 O 948.555 3.8425 8.48115 0
M  V30 7031 O 946.773 4.17805 6.64342 0
M  V30 7032 O 946.81 2.07613 7.95143 0
M  V30 7033 C 946.65 1.44328 9.27336 0
M  V30 7034 C 947.19 0.0220036 9.17197 0
M  V30 7035 O 946.134 -0.626867 8.61923 0
M  V30 7036 C 948.408 -0.24586 8.30336 0
M  V30 7037 O 949.146 -1.39011 8.63583 0
M  V30 7038 C 947.739 -0.273849 6.91158 0
M  V30 7039 O 948.538 -1.06348 6.02892 0
M  V30 7040 C 946.402 -0.897649 7.22545 0
M  V30 7041 H 946.434 -1.9841 7.04286 0
M  V30 7042 H 947.617 0.739928 6.497 0
M  V30 7043 H 949.101 0.60668 8.36503 0
M  V30 7044 H 947.407 -0.352479 10.1829 0
M  V30 7045 H 947.217 2.00611 10.0304 0
M  V30 7046 H 945.587 1.41843 9.55327 0
M  V30 7047 H 948.226 -1.95734 6.03555 0
M  V30 7048 P 950.084 -1.25109 8.70152 0
M  V30 7049 O 951.506 -1.35274 9.21221 0
M  V30 7050 O 949.724 -0.0769065 7.84762 0
M  V30 7051 O 949.761 -2.55232 7.81161 0
M  V30 7052 C 949.601 -3.79939 8.58154 0
M  V30 7053 C 950.141 -4.94023 7.72785 0
M  V30 7054 O 949.085 -5.18726 6.91205 0
M  V30 7055 C 951.359 -4.69597 6.85231 0
M  V30 7056 O 952.097 -5.83832 6.51337 0
M  V30 7057 C 950.69 -3.96706 5.66633 0
M  V30 7058 O 951.489 -4.15414 4.49689 0
M  V30 7059 C 949.353 -4.66153 5.59313 0
M  V30 7060 H 949.385 -5.47679 4.85214 0
M  V30 7061 H 950.568 -2.89008 5.86566 0
M  V30 7062 H 952.052 -4.0121 7.36511 0
M  V30 7063 H 950.358 -5.80182 8.37584 0
M  V30 7064 H 950.168 -3.73517 9.52265 0
M  V30 7065 H 948.538 -3.97163 8.80359 0
M  V30 7066 H 951.177 -4.90969 4.01921 0
M  V30 7067 P 953.034 -5.75688 6.64379 0
M  V30 7068 O 954.456 -6.11849 7.01846 0
M  V30 7069 O 952.674 -4.30744 6.56026 0
M  V30 7070 O 952.711 -6.37042 5.19165 0
M  V30 7071 C 952.551 -7.83578 5.16515 0
M  V30 7072 C 953.091 -8.33398 3.83019 0
M  V30 7073 O 952.035 -8.10074 3.01034 0
M  V30 7074 C 954.309 -7.65514 3.2257 0
M  V30 7075 O 955.047 -8.4329 2.32297 0
M  V30 7076 C 953.64 -6.40075 2.62207 0
M  V30 7077 O 954.439 -5.92589 1.53712 0
M  V30 7078 C 952.303 -6.9454 2.18503 0
M  V30 7079 H 952.335 -7.23063 1.12091 0
M  V30 7080 H 953.518 -5.6025 3.37201 0
M  V30 7081 H 955.002 -7.35707 4.02681 0
M  V30 7082 H 953.308 -9.40912 3.9095 0
M  V30 7083 H 953.118 -8.29056 5.99158 0
M  V30 7084 H 951.488 -8.10073 5.25882 0
M  V30 7085 H 954.127 -6.30324 0.726794 0
M  V30 7086 P 955.985 -8.4349 2.47671 0
M  V30 7087 O 957.407 -8.94167 2.5964 0
M  V30 7088 O 955.625 -7.1704 3.19006 0
M  V30 7089 O 955.662 -8.16596 0.923387 0
M  V30 7090 C 955.502 -9.38437 0.108857 0
M  V30 7091 C 956.042 -9.08175 -1.28353 0
M  V30 7092 O 954.986 -8.44229 -1.84713 0
M  V30 7093 C 957.26 -8.18386 -1.42505 0
M  V30 7094 O 957.998 -8.3501 -2.60497 0
M  V30 7095 C 956.591 -6.80225 -1.25468 0
M  V30 7096 O 957.39 -5.81621 -1.91066 0
M  V30 7097 C 955.254 -7.02416 -1.9168 0
M  V30 7098 H 955.286 -6.6888 -2.96621 0
M  V30 7099 H 956.469 -6.53617 -0.192223 0
M  V30 7100 H 957.953 -8.36622 -0.589963 0
M  V30 7101 H 956.259 -10.0291 -1.79807 0
M  V30 7102 H 956.069 -10.2138 0.558219 0
M  V30 7103 H 954.439 -9.6579 0.0444202 0
M  V30 7104 H 957.078 -5.69556 -2.79637 0
M  V30 7105 P 958.935 -8.4349 -2.47671 0
M  V30 7106 O 960.336 -8.99283 -2.62101 0
M  V30 7107 O 958.557 -7.81195 -1.16947 0
M  V30 7108 O 958.612 -7.36797 -3.63761 0
M  V30 7109 C 958.452 -7.95349 -4.982 0
M  V30 7110 C 958.992 -6.94537 -5.98908 0
M  V30 7111 O 957.936 -6.10277 -6.11744 0
M  V30 7112 C 960.209 -6.11426 -5.62335 0
M  V30 7113 O 960.948 -5.6162 -6.70584 0
M  V30 7114 C 959.542 -5.04409 -4.73308 0
M  V30 7115 O 960.34 -3.85929 -4.75106 0
M  V30 7116 C 958.204 -4.8728 -5.41006 0
M  V30 7117 N 957.161 -4.65812 -4.42377 0
M  V30 7118 C 956.126 -3.81293 -4.74224 0
M  V30 7119 O 956.165 -3.20533 -5.83679 0
M  V30 7120 N 955.114 -3.6442 -3.86349 0
M  V30 7121 C 955.162 -4.2728 -2.6824 0
M  V30 7122 N 954.152 -4.09866 -1.83822 0
M  V30 7123 C 956.258 -5.10813 -2.3217 0
M  V30 7124 C 957.224 -5.27909 -3.22647 0
M  V30 7125 H 958.236 -4.02278 -6.11074 0
M  V30 7126 H 959.419 -5.39013 -3.70026 0
M  V30 7127 H 960.903 -6.71494 -5.02675 0
M  V30 7128 H 959.209 -7.45796 -6.94223 0
M  V30 7129 H 959.018 -8.89416 -5.05237 0
M  V30 7130 H 957.388 -8.14791 -5.18355 0
M  V30 7131 H 956.306 -5.58884 -1.34755 0
M  V30 7132 H 958.07 -5.92811 -2.9934 0
M  V30 7133 H 953.362 -3.49095 -2.10018 0
M  V30 7134 H 954.157 -4.56846 -0.924167 0
M  V30 7135 H 960.124 -3.3454 -5.51577 0
M  V30 7136 P 961.886 -5.75688 -6.64379 0
M  V30 7137 O 963.308 -6.07627 -7.05504 0
M  V30 7138 O 961.526 -5.88047 -5.19722 0
M  V30 7139 O 961.563 -4.2322 -7.04443 0
M  V30 7140 C 961.403 -3.99743 -8.4911 0
M  V30 7141 C 961.943 -2.60516 -8.79425 0
M  V30 7142 O 960.887 -1.82684 -8.4467 0
M  V30 7143 C 963.161 -2.10343 -8.03628 0
M  V30 7144 O 963.899 -1.09919 -8.67766 0
M  V30 7145 C 962.492 -1.68446 -6.70876 0
M  V30 7146 O 963.291 -0.678137 -6.08433 0
M  V30 7147 C 961.155 -1.17436 -7.18567 0
M  V30 7148 H 961.187 -0.0804732 -7.31656 0
M  V30 7149 H 962.37 -2.54037 -6.02537 0
M  V30 7150 H 963.854 -2.93881 -7.85526 0
M  V30 7151 H 962.16 -2.53065 -9.86973 0
M  V30 7152 H 961.97 -4.75072 -9.05887 0
M  V30 7153 H 960.34 -4.05244 -8.76668 0
M  V30 7154 H 962.979 0.177647 -6.34251 0
M  V30 7155 P 964.836 -1.25109 -8.70152 0
M  V30 7156 O 966.258 -1.29744 -9.22016 0
M  V30 7157 O 964.476 -2.13714 -7.55141 0
M  V30 7158 O 964.513 0.248149 -8.21425 0
M  V30 7159 C 964.353 1.22779 -9.30434 0
M  V30 7160 C 964.893 2.56293 -8.80664 0
M  V30 7161 O 963.837 3.02979 -8.09349 0
M  V30 7162 C 966.111 2.57523 -7.89775 0
M  V30 7163 O 966.849 3.7668 -7.89438 0
M  V30 7164 C 965.442 2.20997 -6.55446 0
M  V30 7165 O 966.241 2.71895 -5.48509 0
M  V30 7166 C 964.105 2.89693 -6.67988 0
M  V30 7167 H 964.137 3.88793 -6.19859 0
M  V30 7168 H 965.32 1.12046 -6.44229 0
M  V30 7169 H 966.804 1.7746 -8.19711 0
M  V30 7170 H 965.11 3.20706 -9.67112 0
M  V30 7171 H 964.92 0.901032 -10.1892 0
M  V30 7172 H 963.29 1.33049 -9.56592 0
M  V30 7173 H 965.929 3.57847 -5.23962 0
M  V30 7174 P 967.787 3.65191 -7.99657 0
M  V30 7175 O 969.209 3.89332 -8.45794 0
M  V30 7176 O 967.427 2.28472 -7.50807 0
M  V30 7177 O 967.464 4.64972 -6.77611 0
M  V30 7178 C 967.304 6.06319 -7.16352 0
M  V30 7179 C 967.844 6.91731 -6.02299 0
M  V30 7180 O 966.788 6.92449 -5.17064 0
M  V30 7181 C 969.062 6.43627 -5.25174 0
M  V30 7182 O 969.8 7.43686 -4.60469 0
M  V30 7183 C 968.393 5.40275 -4.31916 0
M  V30 7184 O 969.192 5.25279 -3.14438 0
M  V30 7185 C 967.056 6.04847 -4.05327 0
M  V30 7186 H 967.088 6.62195 -3.11261 0
M  V30 7187 H 968.271 4.42556 -4.81383 0
M  V30 7188 H 969.755 5.92458 -5.93643 0
M  V30 7189 H 968.061 7.92655 -6.402 0
M  V30 7190 H 967.871 6.26671 -8.0846 0
M  V30 7191 H 966.241 6.29101 -7.32804 0
M  V30 7192 H 968.88 5.84315 -2.47318 0
M  V30 7193 P 970.738 7.39546 -4.75277 0
M  V30 7194 O 972.159 7.84882 -5.01092 0
M  V30 7195 O 970.378 5.9812 -5.08098 0
M  V30 7196 O 970.415 7.57503 -3.1866 0
M  V30 7197 C 970.254 8.97452 -2.74862 0
M  V30 7198 C 970.795 9.07548 -1.32709 0
M  V30 7199 O 969.74 8.61972 -0.606089 0
M  V30 7200 C 972.013 8.25383 -0.938334 0
M  V30 7201 O 972.751 8.74577 0.146954 0
M  V30 7202 C 971.345 6.8802 -0.712559 0
M  V30 7203 O 972.143 6.1181 0.188505 0
M  V30 7204 C 970.007 7.27966 -0.139777 0
M  V30 7205 N 968.964 6.39368 -0.623421 0
M  V30 7206 C 969.133 5.71761 -1.78245 0
M  V30 7207 N 968.106 4.962 -2.10491 0
M  V30 7208 C 967.221 5.16158 -1.0635 0
M  V30 7209 C 965.954 4.60425 -0.810266 0
M  V30 7210 N 965.355 3.7057 -1.62914 0
M  V30 7211 N 965.389 5.06 0.348685 0
M  V30 7212 C 965.991 5.94532 1.20395 0
M  V30 7213 N 967.168 6.48452 1.01191 0
M  V30 7214 C 967.743 6.04423 -0.146291 0
M  V30 7215 H 970.039 7.25255 0.961469 0
M  V30 7216 H 971.222 6.32625 -1.65044 0
M  V30 7217 H 972.705 8.19355 -1.79097 0
M  V30 7218 H 971.011 10.1305 -1.09016 0
M  V30 7219 H 970.821 9.64276 -3.41316 0
M  V30 7220 H 969.191 9.25417 -2.76357 0
M  V30 7221 H 965.455 6.21659 2.10714 0
M  V30 7222 H 970.033 5.79354 -2.38959 0
M  V30 7223 H 964.425 3.33174 -1.38982 0
M  V30 7224 H 965.829 3.39714 -2.48836 0
M  V30 7225 H 971.831 6.25169 1.0783 0
M  V30 7226 P 973.688 8.791 7.55599e-12 0
M  V30 7227 O 975.109 9.31196 0.027936 0
M  V30 7228 O 973.328 7.77869 -1.04071 0
M  V30 7229 O 973.365 8.09533 1.41463 0
M  V30 7230 C 973.204 9.03587 2.5397 0
M  V30 7231 C 973.745 8.35226 3.79016 0
M  V30 7232 O 972.69 7.57904 4.1503 0
M  V30 7233 C 974.963 7.45087 3.67298 0
M  V30 7234 O 975.701 7.27796 4.85194 0
M  V30 7235 C 974.295 6.17323 3.12027 0
M  V30 7236 O 975.093 5.04496 3.46627 0
M  V30 7237 C 972.957 6.19961 3.81809 0
M  V30 7238 N 971.914 5.71575 2.93223 0
M  V30 7239 C 972.083 5.77362 1.59168 0
M  V30 7240 N 971.056 5.3123 0.911893 0
M  V30 7241 C 970.171 4.91717 1.89588 0
M  V30 7242 C 968.904 4.3114 1.8076 0
M  V30 7243 N 968.305 3.99821 0.632928 0
M  V30 7244 N 968.339 4.06823 3.02898 0
M  V30 7245 C 968.941 4.35062 4.22711 0
M  V30 7246 N 970.118 4.90805 4.35707 0
M  V30 7247 C 970.693 5.16382 3.14469 0
M  V30 7248 H 972.989 5.58142 4.72986 0
M  V30 7249 H 974.172 6.21428 2.0318 0
M  V30 7250 H 975.655 7.86112 2.9231 0
M  V30 7251 H 973.961 9.11171 4.55987 0
M  V30 7252 H 973.771 9.9573 2.34194 0
M  V30 7253 H 972.141 9.2792 2.67832 0
M  V30 7254 H 968.405 4.09052 5.13359 0
M  V30 7255 H 972.983 6.16575 1.12198 0
M  V30 7256 H 967.375 3.55423 0.632085 0
M  V30 7257 H 968.779 4.20317 -0.256712 0
M  V30 7258 H 974.781 4.67628 4.28704 0
M  V30 7259 P 976.639 7.39546 4.75277 0
M  V30 7260 O 978.06 7.81861 5.05793 0
M  V30 7261 O 976.279 7.1065 3.32998 0
M  V30 7262 O 976.316 6.04542 5.56673 0
M  V30 7263 C 976.155 6.22839 7.02169 0
M  V30 7264 C 976.696 4.97725 7.70406 0
M  V30 7265 O 975.641 4.13208 7.58899 0
M  V30 7266 C 977.914 4.28231 7.11815 0
M  V30 7267 O 978.652 3.49945 8.01648 0
M  V30 7268 C 977.246 3.5063 5.96244 0
M  V30 7269 O 978.044 2.37008 5.64352 0
M  V30 7270 C 975.908 3.15122 6.56374 0
M  V30 7271 N 974.865 3.22311 5.55692 0
M  V30 7272 C 975.034 3.99655 4.46046 0
M  V30 7273 N 974.007 3.97599 3.63918 0
M  V30 7274 C 973.122 3.11159 4.25334 0
M  V30 7275 C 971.855 2.64972 3.85157 0
M  V30 7276 N 971.29 1.78482 4.74759 0
M  V30 7277 C 971.892 1.37463 5.90819 0
M  V30 7278 N 973.069 1.7733 6.31889 0
M  V30 7279 C 973.644 2.64393 5.43725 0
M  V30 7280 H 977.123 4.12931 5.06895 0
M  V30 7281 H 978.606 5.03285 6.70911 0
M  V30 7282 H 976.912 5.20001 8.76217 0
M  V30 7283 H 976.722 7.11046 7.35349 0
M  V30 7284 H 975.092 6.35815 7.26986 0
M  V30 7285 H 975.934 4.58037 4.27732 0
M  V30 7286 H 977.732 1.61619 6.13468 0
M  V30 7287 P 979.589 3.65191 7.99657 0
M  V30 7288 O 981.011 3.8425 8.48115 0
M  V30 7289 O 979.229 4.17805 6.64342 0
M  V30 7290 O 979.266 2.07613 7.95143 0
M  V30 7291 C 979.106 1.44328 9.27336 0
M  V30 7292 C 979.646 0.0220036 9.17197 0
M  V30 7293 O 978.59 -0.626867 8.61923 0
M  V30 7294 C 980.864 -0.24586 8.30336 0
M  V30 7295 O 981.602 -1.39011 8.63583 0
M  V30 7296 C 980.195 -0.273849 6.91158 0
M  V30 7297 O 980.994 -1.06348 6.02892 0
M  V30 7298 C 978.858 -0.897649 7.22545 0
M  V30 7299 H 978.89 -1.9841 7.04286 0
M  V30 7300 H 980.073 0.739928 6.497 0
M  V30 7301 H 981.557 0.60668 8.36503 0
M  V30 7302 H 979.863 -0.352479 10.1829 0
M  V30 7303 H 979.673 2.00611 10.0304 0
M  V30 7304 H 978.043 1.41843 9.55327 0
M  V30 7305 H 980.682 -1.95734 6.03555 0
M  V30 7306 P 982.54 -1.25109 8.70152 0
M  V30 7307 O 983.962 -1.35274 9.21221 0
M  V30 7308 O 982.18 -0.0769065 7.84762 0
M  V30 7309 O 982.217 -2.55232 7.81161 0
M  V30 7310 C 982.057 -3.79939 8.58154 0
M  V30 7311 C 982.597 -4.94023 7.72785 0
M  V30 7312 O 981.541 -5.18726 6.91205 0
M  V30 7313 C 983.815 -4.69597 6.85231 0
M  V30 7314 O 984.553 -5.83832 6.51337 0
M  V30 7315 C 983.146 -3.96706 5.66633 0
M  V30 7316 O 983.945 -4.15414 4.49689 0
M  V30 7317 C 981.809 -4.66153 5.59313 0
M  V30 7318 H 981.841 -5.47679 4.85214 0
M  V30 7319 H 983.024 -2.89008 5.86566 0
M  V30 7320 H 984.508 -4.0121 7.36511 0
M  V30 7321 H 982.814 -5.80182 8.37584 0
M  V30 7322 H 982.624 -3.73517 9.52265 0
M  V30 7323 H 980.994 -3.97163 8.80359 0
M  V30 7324 H 983.633 -4.90969 4.01921 0
M  V30 7325 P 985.49 -5.75688 6.64379 0
M  V30 7326 O 986.912 -6.11849 7.01846 0
M  V30 7327 O 985.13 -4.30744 6.56026 0
M  V30 7328 O 985.167 -6.37042 5.19165 0
M  V30 7329 C 985.007 -7.83578 5.16515 0
M  V30 7330 C 985.547 -8.33398 3.83019 0
M  V30 7331 O 984.491 -8.10074 3.01034 0
M  V30 7332 C 986.765 -7.65514 3.2257 0
M  V30 7333 O 987.503 -8.4329 2.32297 0
M  V30 7334 C 986.096 -6.40075 2.62207 0
M  V30 7335 O 986.895 -5.92589 1.53712 0
M  V30 7336 C 984.759 -6.9454 2.18503 0
M  V30 7337 H 984.791 -7.23063 1.12091 0
M  V30 7338 H 985.974 -5.6025 3.37201 0
M  V30 7339 H 987.458 -7.35707 4.02681 0
M  V30 7340 H 985.764 -9.40912 3.9095 0
M  V30 7341 H 985.574 -8.29056 5.99158 0
M  V30 7342 H 983.944 -8.10073 5.25882 0
M  V30 7343 H 986.583 -6.30324 0.726794 0
M  V30 7344 P 988.441 -8.4349 2.47671 0
M  V30 7345 O 989.842 -8.98227 2.65696 0
M  V30 7346 O 988.063 -7.20409 3.23964 0
M  V30 7347 O 988.118 -8.16496 0.923275 0
M  V30 7348 C 987.958 -9.38437 0.108857 0
M  V30 7349 C 988.498 -9.08076 -1.28339 0
M  V30 7350 O 987.442 -8.44131 -1.84692 0
M  V30 7351 C 989.715 -8.18386 -1.42505 0
M  V30 7352 O 990.454 -8.3501 -2.60497 0
M  V30 7353 C 989.048 -6.80225 -1.25468 0
M  V30 7354 O 989.846 -5.81526 -1.91035 0
M  V30 7355 C 987.71 -7.02416 -1.9168 0
M  V30 7356 N 986.667 -6.31033 -1.20314 0
M  V30 7357 C 985.632 -5.77149 -1.928 0
M  V30 7358 O 985.671 -5.8521 -3.17729 0
M  V30 7359 N 984.62 -5.15445 -1.27997 0
M  V30 7360 C 984.668 -5.04472 0.0534726 0
M  V30 7361 C 985.764 -5.55244 0.808522 0
M  V30 7362 C 986.73 -6.18542 0.13981 0
M  V30 7363 H 987.742 -6.68789 -2.9658 0
M  V30 7364 H 988.925 -6.53498 -0.198729 0
M  V30 7365 H 990.409 -8.36663 -0.5984 0
M  V30 7366 H 988.715 -10.0273 -1.8081 0
M  V30 7367 H 988.524 -10.2138 0.558219 0
M  V30 7368 H 986.894 -9.6569 0.0444156 0
M  V30 7369 H 985.812 -5.43017 1.88792 0
M  V30 7370 H 987.576 -6.60539 0.686773 0
M  V30 7371 H 989.63 -5.79638 -2.8315 0
M  V30 7372 P 991.392 -8.4349 -2.47671 0
M  V30 7373 O 992.814 -8.92593 -2.65 0
M  V30 7374 O 991.032 -7.7568 -1.19296 0
M  V30 7375 O 991.069 -7.36886 -3.63805 0
M  V30 7376 C 990.909 -7.95349 -4.982 0
M  V30 7377 C 991.449 -6.94612 -5.98974 0
M  V30 7378 O 990.393 -6.10347 -6.11815 0
M  V30 7379 C 992.667 -6.11426 -5.62335 0
M  V30 7380 O 993.405 -5.6162 -6.70584 0
M  V30 7381 C 991.998 -5.04409 -4.73308 0
M  V30 7382 O 992.797 -3.85992 -4.75183 0
M  V30 7383 C 990.661 -4.8728 -5.41006 0
M  V30 7384 H 990.693 -4.02333 -6.11157 0
M  V30 7385 H 991.876 -5.39466 -3.69543 0
M  V30 7386 H 993.36 -6.71916 -5.01943 0
M  V30 7387 H 991.666 -7.4649 -6.93477 0
M  V30 7388 H 991.476 -8.89416 -5.05237 0
M  V30 7389 H 989.846 -8.14876 -5.18409 0
M  V30 7390 H 992.485 -3.27957 -5.4317 0
M  V30 7391 P 994.342 -5.75688 -6.64379 0
M  V30 7392 O 995.764 -6.07758 -7.05656 0
M  V30 7393 O 993.982 -5.88047 -5.19722 0
M  V30 7394 O 994.019 -4.2322 -7.04443 0
M  V30 7395 C 993.859 -3.99743 -8.4911 0
M  V30 7396 C 994.399 -2.60487 -8.79329 0
M  V30 7397 O 993.344 -1.82684 -8.4467 0
M  V30 7398 C 995.617 -2.10343 -8.03628 0
M  V30 7399 O 996.355 -1.09919 -8.67766 0
M  V30 7400 C 994.949 -1.68446 -6.70876 0
M  V30 7401 O 995.747 -0.678026 -6.08333 0
M  V30 7402 C 993.611 -1.17436 -7.18567 0
M  V30 7403 N 992.568 -1.52699 -6.23988 0
M  V30 7404 C 992.63 -2.68084 -5.57824 0
M  V30 7405 N 991.585 -2.8189 -4.75643 0
M  V30 7406 C 990.851 -1.72373 -4.95155 0
M  V30 7407 C 989.545 -1.37653 -4.44996 0
M  V30 7408 O 988.812 -2.02239 -3.68445 0
M  V30 7409 N 989.115 -0.17675 -4.90782 0
M  V30 7410 C 989.864 0.645036 -5.78716 0
M  V30 7411 N 989.267 1.84214 -6.10618 0
M  V30 7412 N 991.017 0.321732 -6.30279 0
M  V30 7413 C 991.474 -0.87502 -5.86913 0
M  V30 7414 H 993.643 -0.0804732 -7.31656 0
M  V30 7415 H 994.826 -2.53998 -6.02444 0
M  V30 7416 H 996.311 -2.93095 -7.8582 0
M  V30 7417 H 994.616 -2.53065 -9.86973 0
M  V30 7418 H 994.426 -4.75072 -9.05887 0
M  V30 7419 H 992.795 -4.05244 -8.76668 0
M  V30 7420 H 988.219 0.152143 -4.60849 0
M  V30 7421 H 993.426 -3.41852 -5.69006 0
M  V30 7422 H 988.356 2.08538 -5.69521 0
M  V30 7423 H 989.732 2.4895 -6.75698 0
M  V30 7424 H 995.436 0.177619 -6.34151 0
M  V30 7425 P 997.293 -1.25109 -8.70152 0
M  V30 7426 O 998.715 -1.29744 -9.22016 0
M  V30 7427 O 996.933 -2.13714 -7.55141 0
M  V30 7428 O 996.97 0.248149 -8.21425 0
M  V30 7429 C 996.81 1.22779 -9.30434 0
M  V30 7430 C 997.35 2.56293 -8.80664 0
M  V30 7431 O 996.294 3.02979 -8.09349 0
M  V30 7432 C 998.568 2.57523 -7.89775 0
M  V30 7433 O 999.306 3.7668 -7.89438 0
M  V30 7434 C 997.899 2.20997 -6.55446 0
M  V30 7435 O 998.698 2.71895 -5.48509 0
M  V30 7436 C 996.562 2.89693 -6.67988 0
M  V30 7437 H 996.594 3.88793 -6.19859 0
M  V30 7438 H 997.777 1.12046 -6.44229 0
M  V30 7439 H 999.261 1.7746 -8.19711 0
M  V30 7440 H 997.567 3.20706 -9.67112 0
M  V30 7441 H 997.377 0.901032 -10.1892 0
M  V30 7442 H 995.747 1.33049 -9.56592 0
M  V30 7443 H 998.386 3.57847 -5.23962 0
M  V30 7444 P 1000.24 3.65191 -7.99657 0
M  V30 7445 O 1001.67 3.89332 -8.45794 0
M  V30 7446 O 999.883 2.28472 -7.50807 0
M  V30 7447 O 999.92 4.64972 -6.77611 0
M  V30 7448 C 999.76 6.06319 -7.16352 0
M  V30 7449 C 1000.3 6.91731 -6.02299 0
M  V30 7450 O 999.244 6.92449 -5.17064 0
M  V30 7451 C 1001.52 6.43627 -5.25174 0
M  V30 7452 O 1002.26 7.43686 -4.60469 0
M  V30 7453 C 1000.85 5.40275 -4.31916 0
M  V30 7454 O 1001.65 5.25279 -3.14438 0
M  V30 7455 C 999.512 6.04847 -4.05327 0
M  V30 7456 H 999.544 6.62195 -3.11261 0
M  V30 7457 H 1000.73 4.42556 -4.81383 0
M  V30 7458 H 1002.21 5.92458 -5.93643 0
M  V30 7459 H 1000.52 7.92655 -6.402 0
M  V30 7460 H 1000.33 6.26671 -8.0846 0
M  V30 7461 H 998.697 6.29101 -7.32804 0
M  V30 7462 H 1001.34 5.84315 -2.47318 0
M  V30 7463 P 1003.19 7.39546 -4.75277 0
M  V30 7464 O 1004.62 7.84798 -5.01039 0
M  V30 7465 O 1002.83 5.9812 -5.08098 0
M  V30 7466 O 1002.87 7.57503 -3.1866 0
M  V30 7467 C 1002.71 8.97357 -2.74833 0
M  V30 7468 C 1003.25 9.07548 -1.32709 0
M  V30 7469 O 1002.19 8.62072 -0.606159 0
M  V30 7470 C 1004.47 8.25383 -0.938334 0
M  V30 7471 O 1005.21 8.74577 0.146954 0
M  V30 7472 C 1003.8 6.8802 -0.712559 0
M  V30 7473 O 1004.6 6.1189 0.194655 0
M  V30 7474 C 1002.46 7.27966 -0.139777 0
M  V30 7475 H 1002.49 7.25354 0.961601 0
M  V30 7476 H 1003.68 6.32557 -1.65702 0
M  V30 7477 H 1005.16 8.19355 -1.79097 0
M  V30 7478 H 1003.47 10.1294 -1.10029 0
M  V30 7479 H 1003.28 9.64276 -3.41316 0
M  V30 7480 H 1001.65 9.25417 -2.76357 0
M  V30 7481 H 1004.29 6.25267 1.07847 0
M  V30 7482 P 1006.14 8.791 7.86616e-12 0
M  V30 7483 O 1007.57 9.31096 0.027933 0
M  V30 7484 O 1005.78 7.77869 -1.04071 0
M  V30 7485 O 1005.82 8.09533 1.41463 0
M  V30 7486 C 1005.66 9.0349 2.53943 0
M  V30 7487 C 1006.2 8.35226 3.79016 0
M  V30 7488 O 1005.15 7.57992 4.15078 0
M  V30 7489 C 1007.42 7.45087 3.67298 0
M  V30 7490 O 1008.16 7.27796 4.85194 0
M  V30 7491 C 1006.75 6.17323 3.12027 0
M  V30 7492 O 1007.55 5.04231 3.47188 0
M  V30 7493 C 1005.41 6.19961 3.81809 0
M  V30 7494 H 1005.45 5.58218 4.73051 0
M  V30 7495 H 1006.63 6.21726 2.02589 0
M  V30 7496 H 1008.11 7.86112 2.9231 0
M  V30 7497 H 1006.42 9.11627 4.55076 0
M  V30 7498 H 1006.23 9.9573 2.34194 0
M  V30 7499 H 1004.6 9.2792 2.67832 0
M  V30 7500 H 1007.24 4.67702 4.28772 0
M  V30 7501 P 1009.09 7.39546 4.75277 0
M  V30 7502 O 1010.52 7.81777 5.05738 0
M  V30 7503 O 1008.73 7.1065 3.32998 0
M  V30 7504 O 1008.77 6.04542 5.56673 0
M  V30 7505 C 1008.61 6.22772 7.02095 0
M  V30 7506 C 1009.15 4.97725 7.70406 0
M  V30 7507 O 1008.1 4.13256 7.58987 0
M  V30 7508 C 1010.37 4.28231 7.11815 0
M  V30 7509 O 1011.11 3.49945 8.01648 0
M  V30 7510 C 1009.7 3.5063 5.96244 0
M  V30 7511 O 1010.5 2.36482 5.64681 0
M  V30 7512 C 1008.36 3.15122 6.56374 0
M  V30 7513 H 1008.4 2.13853 6.99751 0
M  V30 7514 H 1009.58 4.13501 5.06559 0
M  V30 7515 H 1011.06 5.03285 6.70911 0
M  V30 7516 H 1009.37 5.20877 8.75697 0
M  V30 7517 H 1009.18 7.11046 7.35349 0
M  V30 7518 H 1007.55 6.35815 7.26986 0
M  V30 7519 H 1010.19 1.61644 6.13565 0
M  V30 7520 P 1012.05 3.65191 7.99657 0
M  V30 7521 O 1013.47 3.84333 8.48297 0
M  V30 7522 O 1011.69 4.17805 6.64342 0
M  V30 7523 O 1011.72 2.07613 7.95143 0
M  V30 7524 C 1011.56 1.44328 9.27336 0
M  V30 7525 C 1012.1 0.0220012 9.17097 0
M  V30 7526 O 1011.05 -0.626867 8.61923 0
M  V30 7527 C 1013.32 -0.24586 8.30336 0
M  V30 7528 O 1014.06 -1.39011 8.63583 0
M  V30 7529 C 1012.65 -0.273849 6.91158 0
M  V30 7530 O 1013.45 -1.06331 6.02794 0
M  V30 7531 C 1011.31 -0.897649 7.22545 0
M  V30 7532 N 1010.27 -0.292839 6.41732 0
M  V30 7533 C 1010.33 1.00068 6.10757 0
M  V30 7534 N 1009.29 1.36468 5.35794 0
M  V30 7535 C 1008.55 0.258894 5.2366 0
M  V30 7536 C 1007.25 0.0670682 4.65752 0
M  V30 7537 O 1006.52 0.902443 4.10497 0
M  V30 7538 N 1006.82 -1.2131 4.75881 0
M  V30 7539 C 1007.57 -2.24934 5.37101 0
M  V30 7540 N 1006.97 -3.48783 5.33984 0
M  V30 7541 N 1008.72 -2.0844 5.95684 0
M  V30 7542 C 1009.18 -0.81395 5.87791 0
M  V30 7543 H 1011.35 -1.9841 7.04286 0
M  V30 7544 H 1012.53 0.739815 6.49601 0
M  V30 7545 H 1014.01 0.598315 8.36563 0
M  V30 7546 H 1012.32 -0.352479 10.1829 0
M  V30 7547 H 1012.13 2.00611 10.0304 0
M  V30 7548 H 1010.5 1.41843 9.55327 0
M  V30 7549 H 1005.92 -1.44434 4.37895 0
M  V30 7550 H 1011.13 1.67697 6.42268 0
M  V30 7551 H 1006.06 -3.60543 4.87699 0
M  V30 7552 H 1007.44 -4.29232 5.7819 0
M  V30 7553 H 1013.14 -1.95704 6.0346 0
M  V30 7554 P 1015 -1.25109 8.70152 0
M  V30 7555 O 1016.42 -1.35274 9.21221 0
M  V30 7556 O 1014.64 -0.0769065 7.84762 0
M  V30 7557 O 1014.67 -2.55232 7.81161 0
M  V30 7558 C 1014.51 -3.79939 8.58154 0
M  V30 7559 C 1015.05 -4.94023 7.72785 0
M  V30 7560 O 1014 -5.18726 6.91205 0
M  V30 7561 C 1016.27 -4.69597 6.85231 0
M  V30 7562 O 1017.01 -5.83832 6.51337 0
M  V30 7563 C 1015.6 -3.96706 5.66633 0
M  V30 7564 O 1016.4 -4.15414 4.49689 0
M  V30 7565 C 1014.27 -4.66153 5.59313 0
M  V30 7566 H 1014.3 -5.47679 4.85214 0
M  V30 7567 H 1015.48 -2.89008 5.86566 0
M  V30 7568 H 1016.96 -4.0121 7.36511 0
M  V30 7569 H 1015.27 -5.80182 8.37584 0
M  V30 7570 H 1015.08 -3.73517 9.52265 0
M  V30 7571 H 1013.45 -3.97163 8.80359 0
M  V30 7572 H 1016.09 -4.90969 4.01921 0
M  V30 7573 P 1017.95 -5.75688 6.64379 0
M  V30 7574 O 1019.37 -6.11849 7.01846 0
M  V30 7575 O 1017.59 -4.30744 6.56026 0
M  V30 7576 O 1017.62 -6.37042 5.19165 0
M  V30 7577 C 1017.46 -7.83578 5.16515 0
M  V30 7578 C 1018 -8.33398 3.83019 0
M  V30 7579 O 1016.95 -8.10074 3.01034 0
M  V30 7580 C 1019.22 -7.65514 3.2257 0
M  V30 7581 O 1019.96 -8.4329 2.32297 0
M  V30 7582 C 1018.55 -6.40075 2.62207 0
M  V30 7583 O 1019.35 -5.92589 1.53712 0
M  V30 7584 C 1017.22 -6.9454 2.18503 0
M  V30 7585 H 1017.25 -7.23063 1.12091 0
M  V30 7586 H 1018.43 -5.6025 3.37201 0
M  V30 7587 H 1019.91 -7.35707 4.02681 0
M  V30 7588 H 1018.22 -9.40912 3.9095 0
M  V30 7589 H 1018.03 -8.29056 5.99158 0
M  V30 7590 H 1016.4 -8.10073 5.25882 0
M  V30 7591 H 1019.04 -6.30324 0.726794 0
M  V30 7592 P 1020.9 -8.4349 2.47671 0
M  V30 7593 O 1022.32 -8.94167 2.5964 0
M  V30 7594 O 1020.54 -7.1704 3.19006 0
M  V30 7595 O 1020.57 -8.16596 0.923387 0
M  V30 7596 C 1020.41 -9.38437 0.108857 0
M  V30 7597 C 1020.95 -9.08175 -1.28353 0
M  V30 7598 O 1019.9 -8.44229 -1.84713 0
M  V30 7599 C 1022.17 -8.18386 -1.42505 0
M  V30 7600 O 1022.91 -8.3501 -2.60497 0
M  V30 7601 C 1021.5 -6.80225 -1.25468 0
M  V30 7602 O 1022.3 -5.81621 -1.91066 0
M  V30 7603 C 1020.17 -7.02416 -1.9168 0
M  V30 7604 H 1020.2 -6.6888 -2.96621 0
M  V30 7605 H 1021.38 -6.53617 -0.192223 0
M  V30 7606 H 1022.87 -8.36622 -0.589963 0
M  V30 7607 H 1021.17 -10.0291 -1.79807 0
M  V30 7608 H 1020.98 -10.2138 0.558219 0
M  V30 7609 H 1019.35 -9.6579 0.0444202 0
M  V30 7610 H 1021.99 -5.69556 -2.79637 0
M  V30 7611 P 1023.85 -8.4349 -2.47671 0
M  V30 7612 O 1025.27 -8.92593 -2.65 0
M  V30 7613 O 1023.49 -7.7568 -1.19296 0
M  V30 7614 O 1023.52 -7.36886 -3.63805 0
M  V30 7615 C 1023.36 -7.95349 -4.982 0
M  V30 7616 C 1023.9 -6.94612 -5.98974 0
M  V30 7617 O 1022.85 -6.10347 -6.11815 0
M  V30 7618 C 1025.12 -6.11426 -5.62335 0
M  V30 7619 O 1025.86 -5.6162 -6.70584 0
M  V30 7620 C 1024.45 -5.04409 -4.73308 0
M  V30 7621 O 1025.25 -3.85992 -4.75183 0
M  V30 7622 C 1023.12 -4.8728 -5.41006 0
M  V30 7623 H 1023.15 -4.02333 -6.11157 0
M  V30 7624 H 1024.33 -5.39466 -3.69543 0
M  V30 7625 H 1025.82 -6.71916 -5.01943 0
M  V30 7626 H 1024.12 -7.4649 -6.93477 0
M  V30 7627 H 1023.93 -8.89416 -5.05237 0
M  V30 7628 H 1022.3 -8.14876 -5.18409 0
M  V30 7629 H 1024.94 -3.27957 -5.4317 0
M  V30 7630 P 1026.8 -5.75688 -6.64379 0
M  V30 7631 O 1028.22 -6.07627 -7.05504 0
M  V30 7632 O 1026.44 -5.88047 -5.19722 0
M  V30 7633 O 1026.48 -4.2322 -7.04443 0
M  V30 7634 C 1026.32 -3.99743 -8.4911 0
M  V30 7635 C 1026.86 -2.60516 -8.79425 0
M  V30 7636 O 1025.8 -1.82684 -8.4467 0
M  V30 7637 C 1028.07 -2.10343 -8.03628 0
M  V30 7638 O 1028.81 -1.09919 -8.67766 0
M  V30 7639 C 1027.4 -1.68446 -6.70876 0
M  V30 7640 O 1028.2 -0.678137 -6.08433 0
M  V30 7641 C 1026.07 -1.17436 -7.18567 0
M  V30 7642 H 1026.1 -0.0804732 -7.31656 0
M  V30 7643 H 1027.28 -2.54037 -6.02537 0
M  V30 7644 H 1028.77 -2.93881 -7.85526 0
M  V30 7645 H 1027.07 -2.53065 -9.86973 0
M  V30 7646 H 1026.88 -4.75072 -9.05887 0
M  V30 7647 H 1025.25 -4.05244 -8.76668 0
M  V30 7648 H 1027.89 0.177647 -6.34251 0
M  V30 7649 P 1029.75 -1.25109 -8.70152 0
M  V30 7650 O 1031.17 -1.29744 -9.22016 0
M  V30 7651 O 1029.39 -2.13714 -7.55141 0
M  V30 7652 O 1029.43 0.248149 -8.21425 0
M  V30 7653 C 1029.27 1.22779 -9.30434 0
M  V30 7654 C 1029.81 2.56293 -8.80664 0
M  V30 7655 O 1028.75 3.02979 -8.09349 0
M  V30 7656 C 1031.02 2.57523 -7.89775 0
M  V30 7657 O 1031.76 3.7668 -7.89438 0
M  V30 7658 C 1030.35 2.20997 -6.55446 0
M  V30 7659 O 1031.15 2.71895 -5.48509 0
M  V30 7660 C 1029.02 2.89693 -6.67988 0
M  V30 7661 H 1029.05 3.88793 -6.19859 0
M  V30 7662 H 1030.23 1.12046 -6.44229 0
M  V30 7663 H 1031.72 1.7746 -8.19711 0
M  V30 7664 H 1030.02 3.20706 -9.67112 0
M  V30 7665 H 1029.83 0.901032 -10.1892 0
M  V30 7666 H 1028.2 1.33049 -9.56592 0
M  V30 7667 H 1030.84 3.57847 -5.23962 0
M  V30 7668 P 1032.7 3.65191 -7.99657 0
M  V30 7669 O 1034.12 3.89332 -8.45794 0
M  V30 7670 O 1032.34 2.28472 -7.50807 0
M  V30 7671 O 1032.38 4.64972 -6.77611 0
M  V30 7672 C 1032.22 6.06319 -7.16352 0
M  V30 7673 C 1032.76 6.91731 -6.02299 0
M  V30 7674 O 1031.7 6.92449 -5.17064 0
M  V30 7675 C 1033.97 6.43627 -5.25174 0
M  V30 7676 O 1034.71 7.43686 -4.60469 0
M  V30 7677 C 1033.31 5.40275 -4.31916 0
M  V30 7678 O 1034.1 5.25279 -3.14438 0
M  V30 7679 C 1031.97 6.04847 -4.05327 0
M  V30 7680 H 1032 6.62195 -3.11261 0
M  V30 7681 H 1033.18 4.42556 -4.81383 0
M  V30 7682 H 1034.67 5.92458 -5.93643 0
M  V30 7683 H 1032.97 7.92655 -6.402 0
M  V30 7684 H 1032.78 6.26671 -8.0846 0
M  V30 7685 H 1031.15 6.29101 -7.32804 0
M  V30 7686 H 1033.79 5.84315 -2.47318 0
M  V30 7687 P 1035.65 7.39546 -4.75277 0
M  V30 7688 O 1037.07 7.84798 -5.01039 0
M  V30 7689 O 1035.29 5.9812 -5.08098 0
M  V30 7690 O 1035.33 7.57503 -3.1866 0
M  V30 7691 C 1035.17 8.97357 -2.74833 0
M  V30 7692 C 1035.71 9.07548 -1.32709 0
M  V30 7693 O 1034.65 8.62072 -0.606159 0
M  V30 7694 C 1036.93 8.25383 -0.938334 0
M  V30 7695 O 1037.66 8.74577 0.146954 0
M  V30 7696 C 1036.26 6.8802 -0.712559 0
M  V30 7697 O 1037.06 6.1189 0.194655 0
M  V30 7698 C 1034.92 7.27966 -0.139777 0
M  V30 7699 H 1034.95 7.25354 0.961601 0
M  V30 7700 H 1036.13 6.32557 -1.65702 0
M  V30 7701 H 1037.62 8.19355 -1.79097 0
M  V30 7702 H 1035.92 10.1294 -1.10029 0
M  V30 7703 H 1035.73 9.64276 -3.41316 0
M  V30 7704 H 1034.1 9.25417 -2.76357 0
M  V30 7705 H 1036.74 6.25267 1.07847 0
M  V30 7706 P 1038.6 8.791 8.17632e-12 0
M  V30 7707 O 1040.02 9.31096 0.027933 0
M  V30 7708 O 1038.24 7.77869 -1.04071 0
M  V30 7709 O 1038.28 8.09533 1.41463 0
M  V30 7710 C 1038.12 9.0349 2.53943 0
M  V30 7711 C 1038.66 8.35226 3.79016 0
M  V30 7712 O 1037.6 7.57992 4.15078 0
M  V30 7713 C 1039.88 7.45087 3.67298 0
M  V30 7714 O 1040.61 7.27796 4.85194 0
M  V30 7715 C 1039.21 6.17323 3.12027 0
M  V30 7716 O 1040.01 5.04231 3.47188 0
M  V30 7717 C 1037.87 6.19961 3.81809 0
M  V30 7718 H 1037.9 5.58218 4.73051 0
M  V30 7719 H 1039.08 6.21726 2.02589 0
M  V30 7720 H 1040.57 7.86112 2.9231 0
M  V30 7721 H 1038.87 9.11627 4.55076 0
M  V30 7722 H 1038.68 9.9573 2.34194 0
M  V30 7723 H 1037.05 9.2792 2.67832 0
M  V30 7724 H 1039.69 4.67702 4.28772 0
M  V30 7725 P 1041.55 7.39546 4.75277 0
M  V30 7726 O 1042.97 7.81945 5.05847 0
M  V30 7727 O 1041.19 7.1065 3.32998 0
M  V30 7728 O 1041.23 6.04542 5.56673 0
M  V30 7729 C 1041.07 6.22772 7.02095 0
M  V30 7730 C 1041.61 4.97671 7.70322 0
M  V30 7731 O 1040.55 4.13256 7.58987 0
M  V30 7732 C 1042.83 4.28231 7.11815 0
M  V30 7733 O 1043.56 3.49945 8.01648 0
M  V30 7734 C 1042.16 3.5063 5.96244 0
M  V30 7735 O 1042.96 2.36443 5.64589 0
M  V30 7736 C 1040.82 3.15122 6.56374 0
M  V30 7737 N 1039.78 3.22311 5.55692 0
M  V30 7738 C 1039.84 4.14382 4.59701 0
M  V30 7739 N 1038.79 4.04476 3.76958 0
M  V30 7740 C 1038.06 3.04892 4.26534 0
M  V30 7741 C 1036.75 2.57447 3.88189 0
M  V30 7742 O 1036.02 2.9785 2.96543 0
M  V30 7743 N 1036.32 1.55228 4.65922 0
M  V30 7744 C 1037.07 1.01152 5.73447 0
M  V30 7745 N 1036.48 -0.0472117 6.37783 0
M  V30 7746 N 1038.23 1.467 6.13813 0
M  V30 7747 C 1038.68 2.4931 5.38487 0
M  V30 7748 H 1040.85 2.13853 6.99751 0
M  V30 7749 H 1042.04 4.13438 5.06482 0
M  V30 7750 H 1043.52 5.02614 6.71414 0
M  V30 7751 H 1041.83 5.20877 8.75697 0
M  V30 7752 H 1041.64 7.11046 7.35349 0
M  V30 7753 H 1040 6.35815 7.26986 0
M  V30 7754 H 1035.43 1.15238 4.46468 0
M  V30 7755 H 1040.64 4.88312 4.49647 0
M  V30 7756 H 1035.57 -0.396382 6.05203 0
M  V30 7757 H 1036.94 -0.484997 7.18465 0
M  V30 7758 H 1042.65 1.61619 6.13468 0
M  V30 7759 P 1044.5 3.65191 7.99657 0
M  V30 7760 O 1045.92 3.8425 8.48115 0
M  V30 7761 O 1044.14 4.17805 6.64342 0
M  V30 7762 O 1044.18 2.07613 7.95143 0
M  V30 7763 C 1044.02 1.44328 9.27336 0
M  V30 7764 C 1044.56 0.0220036 9.17197 0
M  V30 7765 O 1043.5 -0.626867 8.61923 0
M  V30 7766 C 1045.78 -0.24586 8.30336 0
M  V30 7767 O 1046.51 -1.39011 8.63583 0
M  V30 7768 C 1045.11 -0.273849 6.91158 0
M  V30 7769 O 1045.91 -1.06348 6.02892 0
M  V30 7770 C 1043.77 -0.897649 7.22545 0
M  V30 7771 H 1043.8 -1.9841 7.04286 0
M  V30 7772 H 1044.99 0.739928 6.497 0
M  V30 7773 H 1046.47 0.60668 8.36503 0
M  V30 7774 H 1044.78 -0.352479 10.1829 0
M  V30 7775 H 1044.59 2.00611 10.0304 0
M  V30 7776 H 1042.96 1.41843 9.55327 0
M  V30 7777 H 1045.59 -1.95734 6.03555 0
M  V30 7778 P 1047.45 -1.25109 8.70152 0
M  V30 7779 O 1048.87 -1.35274 9.21221 0
M  V30 7780 O 1047.09 -0.0769065 7.84762 0
M  V30 7781 O 1047.13 -2.55232 7.81161 0
M  V30 7782 C 1046.97 -3.79939 8.58154 0
M  V30 7783 C 1047.51 -4.94023 7.72785 0
M  V30 7784 O 1046.45 -5.18726 6.91205 0
M  V30 7785 C 1048.73 -4.69597 6.85231 0
M  V30 7786 O 1049.47 -5.83832 6.51337 0
M  V30 7787 C 1048.06 -3.96706 5.66633 0
M  V30 7788 O 1048.86 -4.15414 4.49689 0
M  V30 7789 C 1046.72 -4.66153 5.59313 0
M  V30 7790 H 1046.75 -5.47679 4.85214 0
M  V30 7791 H 1047.94 -2.89008 5.86566 0
M  V30 7792 H 1049.42 -4.0121 7.36511 0
M  V30 7793 H 1047.73 -5.80182 8.37584 0
M  V30 7794 H 1047.54 -3.73517 9.52265 0
M  V30 7795 H 1045.91 -3.97163 8.80359 0
M  V30 7796 H 1048.55 -4.90969 4.01921 0
M  V30 7797 P 1050.4 -5.75688 6.64379 0
M  V30 7798 O 1051.82 -6.11849 7.01846 0
M  V30 7799 O 1050.04 -4.30744 6.56026 0
M  V30 7800 O 1050.08 -6.37042 5.19165 0
M  V30 7801 C 1049.92 -7.83578 5.16515 0
M  V30 7802 C 1050.46 -8.33398 3.83019 0
M  V30 7803 O 1049.4 -8.10074 3.01034 0
M  V30 7804 C 1051.68 -7.65514 3.2257 0
M  V30 7805 O 1052.42 -8.4329 2.32297 0
M  V30 7806 C 1051.01 -6.40075 2.62207 0
M  V30 7807 O 1051.81 -5.92589 1.53712 0
M  V30 7808 C 1049.67 -6.9454 2.18503 0
M  V30 7809 H 1049.7 -7.23063 1.12091 0
M  V30 7810 H 1050.89 -5.6025 3.37201 0
M  V30 7811 H 1052.37 -7.35707 4.02681 0
M  V30 7812 H 1050.68 -9.40912 3.9095 0
M  V30 7813 H 1050.49 -8.29056 5.99158 0
M  V30 7814 H 1048.86 -8.10073 5.25882 0
M  V30 7815 H 1051.5 -6.30324 0.726794 0
M  V30 7816 P 1053.35 -8.4349 2.47671 0
M  V30 7817 O 1054.78 -8.94167 2.5964 0
M  V30 7818 O 1052.99 -7.1704 3.19006 0
M  V30 7819 O 1053.03 -8.16596 0.923387 0
M  V30 7820 C 1052.87 -9.38437 0.108857 0
M  V30 7821 C 1053.41 -9.08175 -1.28353 0
M  V30 7822 O 1052.35 -8.44229 -1.84713 0
M  V30 7823 C 1054.63 -8.18386 -1.42505 0
M  V30 7824 O 1055.37 -8.3501 -2.60497 0
M  V30 7825 C 1053.96 -6.80225 -1.25468 0
M  V30 7826 O 1054.76 -5.81621 -1.91066 0
M  V30 7827 C 1052.62 -7.02416 -1.9168 0
M  V30 7828 H 1052.65 -6.6888 -2.96621 0
M  V30 7829 H 1053.84 -6.53617 -0.192223 0
M  V30 7830 H 1055.32 -8.36622 -0.589963 0
M  V30 7831 H 1053.63 -10.0291 -1.79807 0
M  V30 7832 H 1053.44 -10.2138 0.558219 0
M  V30 7833 H 1051.81 -9.6579 0.0444202 0
M  V30 7834 H 1054.45 -5.69556 -2.79637 0
M  V30 7835 P 1056.3 -8.4349 -2.47671 0
M  V30 7836 O 1057.73 -8.92785 -2.65057 0
M  V30 7837 O 1055.94 -7.7568 -1.19296 0
M  V30 7838 O 1055.98 -7.36886 -3.63805 0
M  V30 7839 C 1055.82 -7.95349 -4.982 0
M  V30 7840 C 1056.36 -6.94537 -5.98908 0
M  V30 7841 O 1055.31 -6.10347 -6.11815 0
M  V30 7842 C 1057.58 -6.11426 -5.62335 0
M  V30 7843 O 1058.32 -5.6162 -6.70584 0
M  V30 7844 C 1056.91 -5.04409 -4.73308 0
M  V30 7845 O 1057.71 -3.85929 -4.75106 0
M  V30 7846 C 1055.57 -4.8728 -5.41006 0
M  V30 7847 N 1054.53 -4.65812 -4.42377 0
M  V30 7848 C 1054.59 -5.27109 -3.24335 0
M  V30 7849 N 1053.55 -4.94293 -2.47735 0
M  V30 7850 C 1052.81 -4.1271 -3.23359 0
M  V30 7851 C 1051.51 -3.56384 -2.99934 0
M  V30 7852 O 1050.77 -3.69331 -2.00616 0
M  V30 7853 N 1051.08 -2.80206 -4.03316 0
M  V30 7854 C 1051.83 -2.58614 -5.2172 0
M  V30 7855 N 1051.23 -1.75154 -6.13278 0
M  V30 7856 N 1052.98 -3.13689 -5.47619 0
M  V30 7857 C 1053.44 -3.90921 -4.46436 0
M  V30 7858 H 1055.61 -4.02333 -6.11157 0
M  V30 7859 H 1056.79 -5.39383 -3.69487 0
M  V30 7860 H 1058.27 -6.71414 -5.02615 0
M  V30 7861 H 1056.58 -7.4649 -6.93477 0
M  V30 7862 H 1056.39 -8.89416 -5.05237 0
M  V30 7863 H 1054.76 -8.14876 -5.18409 0
M  V30 7864 H 1050.18 -2.36355 -3.95916 0
M  V30 7865 H 1055.39 -5.95212 -2.93859 0
M  V30 7866 H 1050.32 -1.32473 -5.91856 0
M  V30 7867 H 1051.69 -1.5588 -7.03026 0
M  V30 7868 H 1057.4 -3.27906 -5.43085 0
M  V30 7869 P 1059.25 -5.75688 -6.64379 0
M  V30 7870 O 1060.68 -6.07692 -7.0558 0
M  V30 7871 O 1058.89 -5.88047 -5.19722 0
M  V30 7872 O 1058.93 -4.2322 -7.04443 0
M  V30 7873 C 1058.77 -3.99785 -8.49201 0
M  V30 7874 C 1059.31 -2.60516 -8.79425 0
M  V30 7875 O 1058.26 -1.82663 -8.44573 0
M  V30 7876 C 1060.53 -2.10343 -8.03628 0
M  V30 7877 O 1061.27 -1.09919 -8.67766 0
M  V30 7878 C 1059.86 -1.68446 -6.70876 0
M  V30 7879 O 1060.66 -0.684109 -6.08265 0
M  V30 7880 C 1058.52 -1.17436 -7.18567 0
M  V30 7881 N 1057.48 -1.52699 -6.23988 0
M  V30 7882 C 1057.65 -2.578 -5.40574 0
M  V30 7883 N 1056.62 -2.78966 -4.61193 0
M  V30 7884 C 1055.74 -1.78725 -4.95769 0
M  V30 7885 C 1054.47 -1.45727 -4.44207 0
M  V30 7886 N 1053.87 -2.13994 -3.43613 0
M  V30 7887 N 1053.91 -0.374977 -5.05812 0
M  V30 7888 C 1054.51 0.345585 -6.05615 0
M  V30 7889 N 1055.68 0.0787651 -6.56253 0
M  V30 7890 C 1056.26 -1.00499 -5.96189 0
M  V30 7891 H 1058.56 -0.0804622 -7.31556 0
M  V30 7892 H 1059.74 -2.53396 -6.02698 0
M  V30 7893 H 1061.22 -2.93881 -7.85526 0
M  V30 7894 H 1059.53 -2.52078 -9.87225 0
M  V30 7895 H 1059.34 -4.75072 -9.05887 0
M  V30 7896 H 1057.71 -4.05244 -8.76668 0
M  V30 7897 H 1053.97 1.20098 -6.4532 0
M  V30 7898 H 1058.55 -3.18977 -5.3945 0
M  V30 7899 H 1052.94 -1.84983 -3.10004 0
M  V30 7900 H 1054.35 -2.9465 -3.00843 0
M  V30 7901 H 1060.35 0.177619 -6.34151 0
M  V30 7902 P 1062.21 -1.25109 -8.70152 0
M  V30 7903 O 1063.63 -1.29744 -9.22016 0
M  V30 7904 O 1061.85 -2.13714 -7.55141 0
M  V30 7905 O 1061.88 0.248149 -8.21425 0
M  V30 7906 C 1061.72 1.22779 -9.30434 0
M  V30 7907 C 1062.26 2.56293 -8.80664 0
M  V30 7908 O 1061.21 3.02979 -8.09349 0
M  V30 7909 C 1063.48 2.57523 -7.89775 0
M  V30 7910 O 1064.22 3.7668 -7.89438 0
M  V30 7911 C 1062.81 2.20997 -6.55446 0
M  V30 7912 O 1063.61 2.71895 -5.48509 0
M  V30 7913 C 1061.47 2.89693 -6.67988 0
M  V30 7914 H 1061.51 3.88793 -6.19859 0
M  V30 7915 H 1062.69 1.12046 -6.44229 0
M  V30 7916 H 1064.17 1.7746 -8.19711 0
M  V30 7917 H 1062.48 3.20706 -9.67112 0
M  V30 7918 H 1062.29 0.901032 -10.1892 0
M  V30 7919 H 1060.66 1.33049 -9.56592 0
M  V30 7920 H 1063.3 3.57847 -5.23962 0
M  V30 7921 P 1065.16 3.65191 -7.99657 0
M  V30 7922 O 1066.58 3.89332 -8.45794 0
M  V30 7923 O 1064.8 2.28472 -7.50807 0
M  V30 7924 O 1064.83 4.64972 -6.77611 0
M  V30 7925 C 1064.67 6.06319 -7.16352 0
M  V30 7926 C 1065.21 6.91731 -6.02299 0
M  V30 7927 O 1064.16 6.92449 -5.17064 0
M  V30 7928 C 1066.43 6.43627 -5.25174 0
M  V30 7929 O 1067.17 7.43686 -4.60469 0
M  V30 7930 C 1065.76 5.40275 -4.31916 0
M  V30 7931 O 1066.56 5.25279 -3.14438 0
M  V30 7932 C 1064.42 6.04847 -4.05327 0
M  V30 7933 H 1064.46 6.62195 -3.11261 0
M  V30 7934 H 1065.64 4.42556 -4.81383 0
M  V30 7935 H 1067.12 5.92458 -5.93643 0
M  V30 7936 H 1065.43 7.92655 -6.402 0
M  V30 7937 H 1065.24 6.26671 -8.0846 0
M  V30 7938 H 1063.61 6.29101 -7.32804 0
M  V30 7939 H 1066.25 5.84315 -2.47318 0
M  V30 7940 P 1068.11 7.39546 -4.75277 0
M  V30 7941 O 1069.53 7.84798 -5.01039 0
M  V30 7942 O 1067.75 5.9812 -5.08098 0
M  V30 7943 O 1067.78 7.57503 -3.1866 0
M  V30 7944 C 1067.62 8.97357 -2.74833 0
M  V30 7945 C 1068.16 9.07548 -1.32709 0
M  V30 7946 O 1067.11 8.62072 -0.606159 0
M  V30 7947 C 1069.38 8.25383 -0.938334 0
M  V30 7948 O 1070.12 8.74577 0.146954 0
M  V30 7949 C 1068.71 6.8802 -0.712559 0
M  V30 7950 O 1069.51 6.1189 0.194655 0
M  V30 7951 C 1067.38 7.27966 -0.139777 0
M  V30 7952 H 1067.41 7.25354 0.961601 0
M  V30 7953 H 1068.59 6.32557 -1.65702 0
M  V30 7954 H 1070.07 8.19355 -1.79097 0
M  V30 7955 H 1068.38 10.1294 -1.10029 0
M  V30 7956 H 1068.19 9.64276 -3.41316 0
M  V30 7957 H 1066.56 9.25417 -2.76357 0
M  V30 7958 H 1069.2 6.25267 1.07847 0
M  V30 7959 P 1071.06 8.791 8.48649e-12 0
M  V30 7960 O 1072.48 9.31196 0.027936 0
M  V30 7961 O 1070.7 7.77869 -1.04071 0
M  V30 7962 O 1070.73 8.09533 1.41463 0
M  V30 7963 C 1070.57 9.03587 2.5397 0
M  V30 7964 C 1071.11 8.35226 3.79016 0
M  V30 7965 O 1070.06 7.57904 4.1503 0
M  V30 7966 C 1072.33 7.45087 3.67298 0
M  V30 7967 O 1073.07 7.27796 4.85194 0
M  V30 7968 C 1071.66 6.17323 3.12027 0
M  V30 7969 O 1072.46 5.04496 3.46627 0
M  V30 7970 C 1070.33 6.19961 3.81809 0
M  V30 7971 N 1069.28 5.71575 2.93223 0
M  V30 7972 C 1069.45 5.77362 1.59168 0
M  V30 7973 N 1068.42 5.3123 0.911893 0
M  V30 7974 C 1067.54 4.91717 1.89588 0
M  V30 7975 C 1066.27 4.3114 1.8076 0
M  V30 7976 N 1065.67 3.99821 0.632928 0
M  V30 7977 N 1065.71 4.06823 3.02898 0
M  V30 7978 C 1066.31 4.35062 4.22711 0
M  V30 7979 N 1067.49 4.90805 4.35707 0
M  V30 7980 C 1068.06 5.16382 3.14469 0
M  V30 7981 H 1070.36 5.58142 4.72986 0
M  V30 7982 H 1071.54 6.21428 2.0318 0
M  V30 7983 H 1073.02 7.86112 2.9231 0
M  V30 7984 H 1071.33 9.11171 4.55987 0
M  V30 7985 H 1071.14 9.9573 2.34194 0
M  V30 7986 H 1069.51 9.2792 2.67832 0
M  V30 7987 H 1065.77 4.09052 5.13359 0
M  V30 7988 H 1070.35 6.16575 1.12198 0
M  V30 7989 H 1064.74 3.55423 0.632085 0
M  V30 7990 H 1066.15 4.20317 -0.256712 0
M  V30 7991 H 1072.15 4.67628 4.28704 0
M  V30 7992 P 1074.01 7.39546 4.75277 0
M  V30 7993 O 1075.43 7.81777 5.05738 0
M  V30 7994 O 1073.65 7.1065 3.32998 0
M  V30 7995 O 1073.68 6.04542 5.56673 0
M  V30 7996 C 1073.52 6.22772 7.02095 0
M  V30 7997 C 1074.06 4.97725 7.70406 0
M  V30 7998 O 1073.01 4.13256 7.58987 0
M  V30 7999 C 1075.28 4.28231 7.11815 0
M  V30 8000 O 1076.02 3.49945 8.01648 0
M  V30 8001 C 1074.61 3.5063 5.96244 0
M  V30 8002 O 1075.41 2.36482 5.64681 0
M  V30 8003 C 1073.28 3.15122 6.56374 0
M  V30 8004 H 1073.31 2.13853 6.99751 0
M  V30 8005 H 1074.49 4.13501 5.06559 0
M  V30 8006 H 1075.98 5.03285 6.70911 0
M  V30 8007 H 1074.28 5.20877 8.75697 0
M  V30 8008 H 1074.09 7.11046 7.35349 0
M  V30 8009 H 1072.46 6.35815 7.26986 0
M  V30 8010 H 1075.1 1.61644 6.13565 0
M  V30 8011 P 1076.96 3.65191 7.99657 0
M  V30 8012 O 1078.38 3.8425 8.48115 0
M  V30 8013 O 1076.6 4.17805 6.64342 0
M  V30 8014 O 1076.64 2.07613 7.95143 0
M  V30 8015 C 1076.48 1.44328 9.27336 0
M  V30 8016 C 1077.02 0.0220036 9.17197 0
M  V30 8017 O 1075.96 -0.626867 8.61923 0
M  V30 8018 C 1078.23 -0.24586 8.30336 0
M  V30 8019 O 1078.97 -1.39011 8.63583 0
M  V30 8020 C 1077.56 -0.273849 6.91158 0
M  V30 8021 O 1078.36 -1.06348 6.02892 0
M  V30 8022 C 1076.23 -0.897649 7.22545 0
M  V30 8023 H 1076.26 -1.9841 7.04286 0
M  V30 8024 H 1077.44 0.739928 6.497 0
M  V30 8025 H 1078.93 0.60668 8.36503 0
M  V30 8026 H 1077.23 -0.352479 10.1829 0
M  V30 8027 H 1077.04 2.00611 10.0304 0
M  V30 8028 H 1075.41 1.41843 9.55327 0
M  V30 8029 H 1078.05 -1.95734 6.03555 0
M  V30 8030 P 1079.91 -1.25109 8.70152 0
M  V30 8031 O 1081.33 -1.35274 9.21221 0
M  V30 8032 O 1079.55 -0.0769065 7.84762 0
M  V30 8033 O 1079.59 -2.55232 7.81161 0
M  V30 8034 C 1079.43 -3.79939 8.58154 0
M  V30 8035 C 1079.97 -4.94023 7.72785 0
M  V30 8036 O 1078.91 -5.18726 6.91205 0
M  V30 8037 C 1081.18 -4.69597 6.85231 0
M  V30 8038 O 1081.92 -5.83832 6.51337 0
M  V30 8039 C 1080.51 -3.96706 5.66633 0
M  V30 8040 O 1081.31 -4.15414 4.49689 0
M  V30 8041 C 1079.18 -4.66153 5.59313 0
M  V30 8042 H 1079.21 -5.47679 4.85214 0
M  V30 8043 H 1080.39 -2.89008 5.86566 0
M  V30 8044 H 1081.88 -4.0121 7.36511 0
M  V30 8045 H 1080.18 -5.80182 8.37584 0
M  V30 8046 H 1079.99 -3.73517 9.52265 0
M  V30 8047 H 1078.36 -3.97163 8.80359 0
M  V30 8048 H 1081 -4.90969 4.01921 0
M  V30 8049 P 1082.86 -5.75688 6.64379 0
M  V30 8050 O 1084.28 -6.11849 7.01846 0
M  V30 8051 O 1082.5 -4.30744 6.56026 0
M  V30 8052 O 1082.54 -6.37042 5.19165 0
M  V30 8053 C 1082.38 -7.83578 5.16515 0
M  V30 8054 C 1082.92 -8.33398 3.83019 0
M  V30 8055 O 1081.86 -8.10074 3.01034 0
M  V30 8056 C 1084.13 -7.65514 3.2257 0
M  V30 8057 O 1084.87 -8.4329 2.32297 0
M  V30 8058 C 1083.47 -6.40075 2.62207 0
M  V30 8059 O 1084.26 -5.92589 1.53712 0
M  V30 8060 C 1082.13 -6.9454 2.18503 0
M  V30 8061 H 1082.16 -7.23063 1.12091 0
M  V30 8062 H 1083.34 -5.6025 3.37201 0
M  V30 8063 H 1084.83 -7.35707 4.02681 0
M  V30 8064 H 1083.13 -9.40912 3.9095 0
M  V30 8065 H 1082.94 -8.29056 5.99158 0
M  V30 8066 H 1081.31 -8.10073 5.25882 0
M  V30 8067 H 1083.95 -6.30324 0.726794 0
M  V30 8068 P 1085.81 -8.4349 2.47671 0
M  V30 8069 O 1087.21 -8.98227 2.65696 0
M  V30 8070 O 1085.43 -7.20409 3.23964 0
M  V30 8071 O 1085.49 -8.16496 0.923275 0
M  V30 8072 C 1085.33 -9.38437 0.108857 0
M  V30 8073 C 1085.87 -9.08076 -1.28339 0
M  V30 8074 O 1084.81 -8.44131 -1.84692 0
M  V30 8075 C 1087.08 -8.18386 -1.42505 0
M  V30 8076 O 1087.82 -8.3501 -2.60497 0
M  V30 8077 C 1086.42 -6.80225 -1.25468 0
M  V30 8078 O 1087.21 -5.81526 -1.91035 0
M  V30 8079 C 1085.08 -7.02416 -1.9168 0
M  V30 8080 N 1084.04 -6.31033 -1.20314 0
M  V30 8081 C 1083 -5.77149 -1.928 0
M  V30 8082 O 1083.04 -5.8521 -3.17729 0
M  V30 8083 N 1081.99 -5.15445 -1.27997 0
M  V30 8084 C 1082.04 -5.04472 0.0534726 0
M  V30 8085 C 1083.13 -5.55244 0.808522 0
M  V30 8086 C 1084.1 -6.18542 0.13981 0
M  V30 8087 H 1085.11 -6.68789 -2.9658 0
M  V30 8088 H 1086.29 -6.53498 -0.198729 0
M  V30 8089 H 1087.78 -8.36663 -0.5984 0
M  V30 8090 H 1086.08 -10.0273 -1.8081 0
M  V30 8091 H 1085.89 -10.2138 0.558219 0
M  V30 8092 H 1084.26 -9.6569 0.0444156 0
M  V30 8093 H 1083.18 -5.43017 1.88792 0
M  V30 8094 H 1084.94 -6.60539 0.686773 0
M  V30 8095 H 1087 -5.79638 -2.8315 0
M  V30 8096 P 1088.76 -8.4349 -2.47671 0
M  V30 8097 O 1090.18 -8.92593 -2.65 0
M  V30 8098 O 1088.4 -7.7568 -1.19296 0
M  V30 8099 O 1088.44 -7.36886 -3.63805 0
M  V30 8100 C 1088.28 -7.95349 -4.982 0
M  V30 8101 C 1088.82 -6.94612 -5.98974 0
M  V30 8102 O 1087.76 -6.10347 -6.11815 0
M  V30 8103 C 1090.04 -6.11426 -5.62335 0
M  V30 8104 O 1090.77 -5.6162 -6.70584 0
M  V30 8105 C 1089.37 -5.04409 -4.73308 0
M  V30 8106 O 1090.17 -3.85992 -4.75183 0
M  V30 8107 C 1088.03 -4.8728 -5.41006 0
M  V30 8108 H 1088.06 -4.02333 -6.11157 0
M  V30 8109 H 1089.24 -5.39466 -3.69543 0
M  V30 8110 H 1090.73 -6.71916 -5.01943 0
M  V30 8111 H 1089.03 -7.4649 -6.93477 0
M  V30 8112 H 1088.84 -8.89416 -5.05237 0
M  V30 8113 H 1087.21 -8.14876 -5.18409 0
M  V30 8114 H 1089.85 -3.27957 -5.4317 0
M  V30 8115 P 1091.71 -5.75688 -6.64379 0
M  V30 8116 O 1093.13 -6.07627 -7.05504 0
M  V30 8117 O 1091.35 -5.88047 -5.19722 0
M  V30 8118 O 1091.39 -4.2322 -7.04443 0
M  V30 8119 C 1091.23 -3.99743 -8.4911 0
M  V30 8120 C 1091.77 -2.60516 -8.79425 0
M  V30 8121 O 1090.71 -1.82684 -8.4467 0
M  V30 8122 C 1092.99 -2.10343 -8.03628 0
M  V30 8123 O 1093.72 -1.09919 -8.67766 0
M  V30 8124 C 1092.32 -1.68446 -6.70876 0
M  V30 8125 O 1093.12 -0.678137 -6.08433 0
M  V30 8126 C 1090.98 -1.17436 -7.18567 0
M  V30 8127 H 1091.01 -0.0804732 -7.31656 0
M  V30 8128 H 1092.19 -2.54037 -6.02537 0
M  V30 8129 H 1093.68 -2.93881 -7.85526 0
M  V30 8130 H 1091.98 -2.53065 -9.86973 0
M  V30 8131 H 1091.79 -4.75072 -9.05887 0
M  V30 8132 H 1090.16 -4.05244 -8.76668 0
M  V30 8133 H 1092.8 0.177647 -6.34251 0
M  V30 8134 P 1094.66 -1.25109 -8.70152 0
M  V30 8135 O 1096.08 -1.29744 -9.22016 0
M  V30 8136 O 1094.3 -2.13714 -7.55141 0
M  V30 8137 O 1094.34 0.248149 -8.21425 0
M  V30 8138 C 1094.18 1.22779 -9.30434 0
M  V30 8139 C 1094.72 2.56293 -8.80664 0
M  V30 8140 O 1093.66 3.02979 -8.09349 0
M  V30 8141 C 1095.94 2.57523 -7.89775 0
M  V30 8142 O 1096.67 3.7668 -7.89438 0
M  V30 8143 C 1095.27 2.20997 -6.55446 0
M  V30 8144 O 1096.07 2.71895 -5.48509 0
M  V30 8145 C 1093.93 2.89693 -6.67988 0
M  V30 8146 H 1093.96 3.88793 -6.19859 0
M  V30 8147 H 1095.15 1.12046 -6.44229 0
M  V30 8148 H 1096.63 1.7746 -8.19711 0
M  V30 8149 H 1094.94 3.20706 -9.67112 0
M  V30 8150 H 1094.75 0.901032 -10.1892 0
M  V30 8151 H 1093.12 1.33049 -9.56592 0
M  V30 8152 H 1095.75 3.57847 -5.23962 0
M  V30 8153 P 1097.61 3.65191 -7.99657 0
M  V30 8154 O 1099.01 3.87414 -8.52829 0
M  V30 8155 O 1097.23 2.26932 -7.566 0
M  V30 8156 O 1097.29 4.64915 -6.77529 0
M  V30 8157 C 1097.13 6.06319 -7.16352 0
M  V30 8158 C 1097.67 6.91655 -6.02234 0
M  V30 8159 O 1096.61 6.92369 -5.17005 0
M  V30 8160 C 1098.89 6.43627 -5.25174 0
M  V30 8161 O 1099.63 7.43686 -4.60469 0
M  V30 8162 C 1098.22 5.40275 -4.31916 0
M  V30 8163 O 1099.02 5.25193 -3.14386 0
M  V30 8164 C 1096.88 6.04847 -4.05327 0
M  V30 8165 N 1095.84 5.04166 -3.98114 0
M  V30 8166 C 1094.8 5.2366 -3.09923 0
M  V30 8167 O 1094.84 6.23355 -2.34204 0
M  V30 8168 N 1093.79 4.34279 -3.05727 0
M  V30 8169 C 1093.84 3.26317 -3.84756 0
M  V30 8170 C 1094.94 3.02504 -4.72573 0
M  V30 8171 C 1095.9 3.94493 -4.76618 0
M  V30 8172 H 1096.91 6.62104 -3.11218 0
M  V30 8173 H 1098.1 4.42969 -4.80867 0
M  V30 8174 H 1099.58 5.93122 -5.93121 0
M  V30 8175 H 1097.89 7.93295 -6.39407 0
M  V30 8176 H 1097.7 6.26671 -8.0846 0
M  V30 8177 H 1096.07 6.29036 -7.32728 0
M  V30 8178 H 1094.98 2.12921 -5.34017 0
M  V30 8179 H 1096.75 3.80658 -5.44176 0
M  V30 8180 H 1098.8 5.93572 -2.52637 0
M  V30 8181 P 1100.56 7.39546 -4.75277 0
M  V30 8182 O 1101.98 7.84798 -5.01039 0
M  V30 8183 O 1100.2 5.9812 -5.08098 0
M  V30 8184 O 1100.24 7.57503 -3.1866 0
M  V30 8185 C 1100.08 8.97357 -2.74833 0
M  V30 8186 C 1100.62 9.07548 -1.32709 0
M  V30 8187 O 1099.56 8.62072 -0.606159 0
M  V30 8188 C 1101.84 8.25383 -0.938334 0
M  V30 8189 O 1102.58 8.74577 0.146954 0
M  V30 8190 C 1101.17 6.8802 -0.712559 0
M  V30 8191 O 1101.97 6.1189 0.194655 0
M  V30 8192 C 1099.83 7.27966 -0.139777 0
M  V30 8193 H 1099.86 7.25354 0.961601 0
M  V30 8194 H 1101.05 6.32557 -1.65702 0
M  V30 8195 H 1102.53 8.19355 -1.79097 0
M  V30 8196 H 1100.84 10.1294 -1.10029 0
M  V30 8197 H 1100.65 9.64276 -3.41316 0
M  V30 8198 H 1099.02 9.25417 -2.76357 0
M  V30 8199 H 1101.66 6.25267 1.07847 0
M  V30 8200 P 1103.51 8.791 8.79665e-12 0
M  V30 8201 O 1104.94 9.31096 0.027933 0
M  V30 8202 O 1103.15 7.77869 -1.04071 0
M  V30 8203 O 1103.19 8.09533 1.41463 0
M  V30 8204 C 1103.03 9.0349 2.53943 0
M  V30 8205 C 1103.57 8.35226 3.79016 0
M  V30 8206 O 1102.51 7.57992 4.15078 0
M  V30 8207 C 1104.79 7.45087 3.67298 0
M  V30 8208 O 1105.53 7.27796 4.85194 0
M  V30 8209 C 1104.12 6.17323 3.12027 0
M  V30 8210 O 1104.92 5.04231 3.47188 0
M  V30 8211 C 1102.78 6.19961 3.81809 0
M  V30 8212 H 1102.81 5.58218 4.73051 0
M  V30 8213 H 1104 6.21726 2.02589 0
M  V30 8214 H 1105.48 7.86112 2.9231 0
M  V30 8215 H 1103.79 9.11627 4.55076 0
M  V30 8216 H 1103.6 9.9573 2.34194 0
M  V30 8217 H 1101.97 9.2792 2.67832 0
M  V30 8218 H 1104.61 4.67702 4.28772 0
M  V30 8219 P 1106.46 7.39546 4.75277 0
M  V30 8220 O 1107.89 7.81777 5.05738 0
M  V30 8221 O 1106.1 7.1065 3.32998 0
M  V30 8222 O 1106.14 6.04542 5.56673 0
M  V30 8223 C 1105.98 6.22772 7.02095 0
M  V30 8224 C 1106.52 4.97725 7.70406 0
M  V30 8225 O 1105.46 4.13256 7.58987 0
M  V30 8226 C 1107.74 4.28231 7.11815 0
M  V30 8227 O 1108.48 3.49945 8.01648 0
M  V30 8228 C 1107.07 3.5063 5.96244 0
M  V30 8229 O 1107.87 2.36482 5.64681 0
M  V30 8230 C 1105.73 3.15122 6.56374 0
M  V30 8231 H 1105.76 2.13853 6.99751 0
M  V30 8232 H 1106.95 4.13501 5.06559 0
M  V30 8233 H 1108.43 5.03285 6.70911 0
M  V30 8234 H 1106.74 5.20877 8.75697 0
M  V30 8235 H 1106.55 7.11046 7.35349 0
M  V30 8236 H 1104.92 6.35815 7.26986 0
M  V30 8237 H 1107.56 1.61644 6.13565 0
M  V30 8238 P 1109.41 3.65191 7.99657 0
M  V30 8239 O 1110.84 3.8425 8.48115 0
M  V30 8240 O 1109.05 4.17805 6.64342 0
M  V30 8241 O 1109.09 2.07613 7.95143 0
M  V30 8242 C 1108.93 1.44328 9.27336 0
M  V30 8243 C 1109.47 0.0220036 9.17197 0
M  V30 8244 O 1108.42 -0.626867 8.61923 0
M  V30 8245 C 1110.69 -0.24586 8.30336 0
M  V30 8246 O 1111.43 -1.39011 8.63583 0
M  V30 8247 C 1110.02 -0.273849 6.91158 0
M  V30 8248 O 1110.82 -1.06348 6.02892 0
M  V30 8249 C 1108.68 -0.897649 7.22545 0
M  V30 8250 H 1108.72 -1.9841 7.04286 0
M  V30 8251 H 1109.9 0.739928 6.497 0
M  V30 8252 H 1111.38 0.60668 8.36503 0
M  V30 8253 H 1109.69 -0.352479 10.1829 0
M  V30 8254 H 1109.5 2.00611 10.0304 0
M  V30 8255 H 1107.87 1.41843 9.55327 0
M  V30 8256 H 1110.51 -1.95734 6.03555 0
M  V30 8257 P 1112.36 -1.25109 8.70152 0
M  V30 8258 O 1113.79 -1.35274 9.21221 0
M  V30 8259 O 1112 -0.0769065 7.84762 0
M  V30 8260 O 1112.04 -2.55232 7.81161 0
M  V30 8261 C 1111.88 -3.79939 8.58154 0
M  V30 8262 C 1112.42 -4.94023 7.72785 0
M  V30 8263 O 1111.37 -5.18726 6.91205 0
M  V30 8264 C 1113.64 -4.69597 6.85231 0
M  V30 8265 O 1114.38 -5.83832 6.51337 0
M  V30 8266 C 1112.97 -3.96706 5.66633 0
M  V30 8267 O 1113.77 -4.15414 4.49689 0
M  V30 8268 C 1111.63 -4.66153 5.59313 0
M  V30 8269 H 1111.67 -5.47679 4.85214 0
M  V30 8270 H 1112.85 -2.89008 5.86566 0
M  V30 8271 H 1114.33 -4.0121 7.36511 0
M  V30 8272 H 1112.64 -5.80182 8.37584 0
M  V30 8273 H 1112.45 -3.73517 9.52265 0
M  V30 8274 H 1110.82 -3.97163 8.80359 0
M  V30 8275 H 1113.46 -4.90969 4.01921 0
M  V30 8276 P 1115.32 -5.75688 6.64379 0
M  V30 8277 O 1116.74 -6.11849 7.01846 0
M  V30 8278 O 1114.96 -4.30744 6.56026 0
M  V30 8279 O 1114.99 -6.37042 5.19165 0
M  V30 8280 C 1114.83 -7.83578 5.16515 0
M  V30 8281 C 1115.37 -8.33398 3.83019 0
M  V30 8282 O 1114.32 -8.10074 3.01034 0
M  V30 8283 C 1116.59 -7.65514 3.2257 0
M  V30 8284 O 1117.33 -8.4329 2.32297 0
M  V30 8285 C 1115.92 -6.40075 2.62207 0
M  V30 8286 O 1116.72 -5.92589 1.53712 0
M  V30 8287 C 1114.58 -6.9454 2.18503 0
M  V30 8288 H 1114.62 -7.23063 1.12091 0
M  V30 8289 H 1115.8 -5.6025 3.37201 0
M  V30 8290 H 1117.28 -7.35707 4.02681 0
M  V30 8291 H 1115.59 -9.40912 3.9095 0
M  V30 8292 H 1115.4 -8.29056 5.99158 0
M  V30 8293 H 1113.77 -8.10073 5.25882 0
M  V30 8294 H 1116.41 -6.30324 0.726794 0
M  V30 8295 P 1118.27 -8.4349 2.47671 0
M  V30 8296 O 1119.69 -8.94167 2.5964 0
M  V30 8297 O 1117.91 -7.1704 3.19006 0
M  V30 8298 O 1117.94 -8.16596 0.923387 0
M  V30 8299 C 1117.78 -9.38437 0.108857 0
M  V30 8300 C 1118.32 -9.08175 -1.28353 0
M  V30 8301 O 1117.27 -8.44229 -1.84713 0
M  V30 8302 C 1119.54 -8.18386 -1.42505 0
M  V30 8303 O 1120.28 -8.3501 -2.60497 0
M  V30 8304 C 1118.87 -6.80225 -1.25468 0
M  V30 8305 O 1119.67 -5.81621 -1.91066 0
M  V30 8306 C 1117.54 -7.02416 -1.9168 0
M  V30 8307 H 1117.57 -6.6888 -2.96621 0
M  V30 8308 H 1118.75 -6.53617 -0.192223 0
M  V30 8309 H 1120.23 -8.36622 -0.589963 0
M  V30 8310 H 1118.54 -10.0291 -1.79807 0
M  V30 8311 H 1118.35 -10.2138 0.558219 0
M  V30 8312 H 1116.72 -9.6579 0.0444202 0
M  V30 8313 H 1119.36 -5.69556 -2.79637 0
M  V30 8314 P 1121.22 -8.4349 -2.47671 0
M  V30 8315 O 1122.64 -8.92593 -2.65 0
M  V30 8316 O 1120.86 -7.7568 -1.19296 0
M  V30 8317 O 1120.89 -7.36886 -3.63805 0
M  V30 8318 C 1120.73 -7.95349 -4.982 0
M  V30 8319 C 1121.27 -6.94612 -5.98974 0
M  V30 8320 O 1120.22 -6.10347 -6.11815 0
M  V30 8321 C 1122.49 -6.11426 -5.62335 0
M  V30 8322 O 1123.23 -5.6162 -6.70584 0
M  V30 8323 C 1121.82 -5.04409 -4.73308 0
M  V30 8324 O 1122.62 -3.85992 -4.75183 0
M  V30 8325 C 1120.49 -4.8728 -5.41006 0
M  V30 8326 H 1120.52 -4.02333 -6.11157 0
M  V30 8327 H 1121.7 -5.39466 -3.69543 0
M  V30 8328 H 1123.18 -6.71916 -5.01943 0
M  V30 8329 H 1121.49 -7.4649 -6.93477 0
M  V30 8330 H 1121.3 -8.89416 -5.05237 0
M  V30 8331 H 1119.67 -8.14876 -5.18409 0
M  V30 8332 H 1122.31 -3.27957 -5.4317 0
M  V30 8333 P 1124.17 -5.75688 -6.64379 0
M  V30 8334 O 1125.59 -6.07627 -7.05504 0
M  V30 8335 O 1123.81 -5.88047 -5.19722 0
M  V30 8336 O 1123.84 -4.2322 -7.04443 0
M  V30 8337 C 1123.68 -3.99743 -8.4911 0
M  V30 8338 C 1124.22 -2.60516 -8.79425 0
M  V30 8339 O 1123.17 -1.82684 -8.4467 0
M  V30 8340 C 1125.44 -2.10343 -8.03628 0
M  V30 8341 O 1126.18 -1.09919 -8.67766 0
M  V30 8342 C 1124.77 -1.68446 -6.70876 0
M  V30 8343 O 1125.57 -0.678137 -6.08433 0
M  V30 8344 C 1123.44 -1.17436 -7.18567 0
M  V30 8345 H 1123.47 -0.0804732 -7.31656 0
M  V30 8346 H 1124.65 -2.54037 -6.02537 0
M  V30 8347 H 1126.14 -2.93881 -7.85526 0
M  V30 8348 H 1124.44 -2.53065 -9.86973 0
M  V30 8349 H 1124.25 -4.75072 -9.05887 0
M  V30 8350 H 1122.62 -4.05244 -8.76668 0
M  V30 8351 H 1125.26 0.177647 -6.34251 0
M  V30 8352 P 1127.12 -1.25109 -8.70152 0
M  V30 8353 O 1128.54 -1.29744 -9.22016 0
M  V30 8354 O 1126.76 -2.13714 -7.55141 0
M  V30 8355 O 1126.79 0.248149 -8.21425 0
M  V30 8356 C 1126.63 1.22779 -9.30434 0
M  V30 8357 C 1127.17 2.56293 -8.80664 0
M  V30 8358 O 1126.12 3.02979 -8.09349 0
M  V30 8359 C 1128.39 2.57523 -7.89775 0
M  V30 8360 O 1129.13 3.7668 -7.89438 0
M  V30 8361 C 1127.72 2.20997 -6.55446 0
M  V30 8362 O 1128.52 2.71895 -5.48509 0
M  V30 8363 C 1126.39 2.89693 -6.67988 0
M  V30 8364 H 1126.42 3.88793 -6.19859 0
M  V30 8365 H 1127.6 1.12046 -6.44229 0
M  V30 8366 H 1129.09 1.7746 -8.19711 0
M  V30 8367 H 1127.39 3.20706 -9.67112 0
M  V30 8368 H 1127.2 0.901032 -10.1892 0
M  V30 8369 H 1125.57 1.33049 -9.56592 0
M  V30 8370 H 1128.21 3.57847 -5.23962 0
M  V30 8371 P 1130.07 3.65191 -7.99657 0
M  V30 8372 O 1131.49 3.89332 -8.45794 0
M  V30 8373 O 1129.71 2.28472 -7.50807 0
M  V30 8374 O 1129.75 4.64972 -6.77611 0
M  V30 8375 C 1129.59 6.06319 -7.16352 0
M  V30 8376 C 1130.13 6.91731 -6.02299 0
M  V30 8377 O 1129.07 6.92449 -5.17064 0
M  V30 8378 C 1131.34 6.43627 -5.25174 0
M  V30 8379 O 1132.08 7.43686 -4.60469 0
M  V30 8380 C 1130.67 5.40275 -4.31916 0
M  V30 8381 O 1131.47 5.25279 -3.14438 0
M  V30 8382 C 1129.34 6.04847 -4.05327 0
M  V30 8383 H 1129.37 6.62195 -3.11261 0
M  V30 8384 H 1130.55 4.42556 -4.81383 0
M  V30 8385 H 1132.04 5.92458 -5.93643 0
M  V30 8386 H 1130.34 7.92655 -6.402 0
M  V30 8387 H 1130.15 6.26671 -8.0846 0
M  V30 8388 H 1128.52 6.29101 -7.32804 0
M  V30 8389 H 1131.16 5.84315 -2.47318 0
M  V30 8390 P 1133.02 7.39546 -4.75277 0
M  V30 8391 O 1134.44 7.84966 -5.01146 0
M  V30 8392 O 1132.66 5.9812 -5.08098 0
M  V30 8393 O 1132.7 7.57503 -3.1866 0
M  V30 8394 C 1132.54 8.97357 -2.74833 0
M  V30 8395 C 1133.08 9.0745 -1.32694 0
M  V30 8396 O 1132.02 8.62072 -0.606159 0
M  V30 8397 C 1134.29 8.25383 -0.938334 0
M  V30 8398 O 1135.03 8.74577 0.146954 0
M  V30 8399 C 1133.63 6.8802 -0.712559 0
M  V30 8400 O 1134.42 6.11791 0.194623 0
M  V30 8401 C 1132.29 7.27966 -0.139777 0
M  V30 8402 N 1131.24 6.39368 -0.623421 0
M  V30 8403 C 1131.31 5.90299 -1.85969 0
M  V30 8404 N 1130.26 5.10919 -2.1133 0
M  V30 8405 C 1129.53 5.14646 -1.0015 0
M  V30 8406 C 1128.22 4.60057 -0.729219 0
M  V30 8407 O 1127.49 3.93476 -1.47746 0
M  V30 8408 N 1127.79 4.88302 0.523505 0
M  V30 8409 C 1128.54 5.63646 1.46207 0
M  V30 8410 N 1127.94 5.78186 2.69239 0
M  V30 8411 N 1129.69 6.19285 1.21544 0
M  V30 8412 C 1130.15 5.93392 -0.0308487 0
M  V30 8413 H 1132.32 7.25354 0.961601 0
M  V30 8414 H 1133.5 6.3246 -1.65676 0
M  V30 8415 H 1134.99 8.19533 -1.78278 0
M  V30 8416 H 1133.29 10.1294 -1.10029 0
M  V30 8417 H 1133.1 9.64276 -3.41316 0
M  V30 8418 H 1131.47 9.25417 -2.76357 0
M  V30 8419 H 1126.9 4.53993 0.806451 0
M  V30 8420 H 1132.1 6.11865 -2.57394 0
M  V30 8421 H 1127.03 5.34046 2.87467 0
M  V30 8422 H 1128.41 6.33391 3.42578 0
M  V30 8423 H 1134.11 6.25169 1.0783 0
M  V30 8424 P 1135.97 8.791 9.10682e-12 0
M  V30 8425 O 1137.39 9.31096 0.027933 0
M  V30 8426 O 1135.61 7.77869 -1.04071 0
M  V30 8427 O 1135.65 8.09533 1.41463 0
M  V30 8428 C 1135.49 9.0349 2.53943 0
M  V30 8429 C 1136.03 8.35226 3.79016 0
M  V30 8430 O 1134.97 7.57992 4.15078 0
M  V30 8431 C 1137.24 7.45087 3.67298 0
M  V30 8432 O 1137.98 7.27796 4.85194 0
M  V30 8433 C 1136.58 6.17323 3.12027 0
M  V30 8434 O 1137.37 5.04231 3.47188 0
M  V30 8435 C 1135.24 6.19961 3.81809 0
M  V30 8436 H 1135.27 5.58218 4.73051 0
M  V30 8437 H 1136.45 6.21726 2.02589 0
M  V30 8438 H 1137.94 7.86112 2.9231 0
M  V30 8439 H 1136.24 9.11627 4.55076 0
M  V30 8440 H 1136.05 9.9573 2.34194 0
M  V30 8441 H 1134.42 9.2792 2.67832 0
M  V30 8442 H 1137.06 4.67702 4.28772 0
M  V30 8443 P 1138.92 7.39546 4.75277 0
M  V30 8444 O 1140.34 7.81945 5.05847 0
M  V30 8445 O 1138.56 7.1065 3.32998 0
M  V30 8446 O 1138.6 6.04542 5.56673 0
M  V30 8447 C 1138.44 6.22772 7.02095 0
M  V30 8448 C 1138.98 4.97671 7.70322 0
M  V30 8449 O 1137.92 4.13256 7.58987 0
M  V30 8450 C 1140.2 4.28231 7.11815 0
M  V30 8451 O 1140.93 3.49945 8.01648 0
M  V30 8452 C 1139.53 3.5063 5.96244 0
M  V30 8453 O 1140.33 2.36443 5.64589 0
M  V30 8454 C 1138.19 3.15122 6.56374 0
M  V30 8455 N 1137.15 3.22311 5.55692 0
M  V30 8456 C 1137.21 4.14382 4.59701 0
M  V30 8457 N 1136.16 4.04476 3.76958 0
M  V30 8458 C 1135.43 3.04892 4.26534 0
M  V30 8459 C 1134.12 2.57447 3.88189 0
M  V30 8460 O 1133.39 2.9785 2.96543 0
M  V30 8461 N 1133.69 1.55228 4.65922 0
M  V30 8462 C 1134.44 1.01152 5.73447 0
M  V30 8463 N 1133.85 -0.0472117 6.37783 0
M  V30 8464 N 1135.6 1.467 6.13813 0
M  V30 8465 C 1136.05 2.4931 5.38487 0
M  V30 8466 H 1138.22 2.13853 6.99751 0
M  V30 8467 H 1139.4 4.13438 5.06482 0
M  V30 8468 H 1140.89 5.02614 6.71414 0
M  V30 8469 H 1139.19 5.20877 8.75697 0
M  V30 8470 H 1139 7.11046 7.35349 0
M  V30 8471 H 1137.37 6.35815 7.26986 0
M  V30 8472 H 1132.8 1.15238 4.46468 0
M  V30 8473 H 1138 4.88312 4.49647 0
M  V30 8474 H 1132.93 -0.396382 6.05203 0
M  V30 8475 H 1134.31 -0.484997 7.18465 0
M  V30 8476 H 1140.01 1.61619 6.13468 0
M  V30 8477 P 1141.87 3.65191 7.99657 0
M  V30 8478 O 1143.29 3.8425 8.48115 0
M  V30 8479 O 1141.51 4.17805 6.64342 0
M  V30 8480 O 1141.55 2.07613 7.95143 0
M  V30 8481 C 1141.39 1.44328 9.27336 0
M  V30 8482 C 1141.93 0.0220036 9.17197 0
M  V30 8483 O 1140.87 -0.626867 8.61923 0
M  V30 8484 C 1143.15 -0.24586 8.30336 0
M  V30 8485 O 1143.88 -1.39011 8.63583 0
M  V30 8486 C 1142.48 -0.273849 6.91158 0
M  V30 8487 O 1143.28 -1.06348 6.02892 0
M  V30 8488 C 1141.14 -0.897649 7.22545 0
M  V30 8489 H 1141.17 -1.9841 7.04286 0
M  V30 8490 H 1142.35 0.739928 6.497 0
M  V30 8491 H 1143.84 0.60668 8.36503 0
M  V30 8492 H 1142.14 -0.352479 10.1829 0
M  V30 8493 H 1141.95 2.00611 10.0304 0
M  V30 8494 H 1140.32 1.41843 9.55327 0
M  V30 8495 H 1142.96 -1.95734 6.03555 0
M  V30 8496 P 1144.82 -1.25109 8.70152 0
M  V30 8497 O 1146.24 -1.35274 9.21221 0
M  V30 8498 O 1144.46 -0.0769065 7.84762 0
M  V30 8499 O 1144.5 -2.55232 7.81161 0
M  V30 8500 C 1144.34 -3.79939 8.58154 0
M  V30 8501 C 1144.88 -4.94023 7.72785 0
M  V30 8502 O 1143.82 -5.18726 6.91205 0
M  V30 8503 C 1146.1 -4.69597 6.85231 0
M  V30 8504 O 1146.83 -5.83832 6.51337 0
M  V30 8505 C 1145.43 -3.96706 5.66633 0
M  V30 8506 O 1146.23 -4.15414 4.49689 0
M  V30 8507 C 1144.09 -4.66153 5.59313 0
M  V30 8508 H 1144.12 -5.47679 4.85214 0
M  V30 8509 H 1145.31 -2.89008 5.86566 0
M  V30 8510 H 1146.79 -4.0121 7.36511 0
M  V30 8511 H 1145.1 -5.80182 8.37584 0
M  V30 8512 H 1144.91 -3.73517 9.52265 0
M  V30 8513 H 1143.28 -3.97163 8.80359 0
M  V30 8514 H 1145.91 -4.90969 4.01921 0
M  V30 8515 P 1147.77 -5.75688 6.64379 0
M  V30 8516 O 1149.19 -6.11849 7.01846 0
M  V30 8517 O 1147.41 -4.30744 6.56026 0
M  V30 8518 O 1147.45 -6.37042 5.19165 0
M  V30 8519 C 1147.29 -7.83578 5.16515 0
M  V30 8520 C 1147.83 -8.33398 3.83019 0
M  V30 8521 O 1146.77 -8.10074 3.01034 0
M  V30 8522 C 1149.05 -7.65514 3.2257 0
M  V30 8523 O 1149.78 -8.4329 2.32297 0
M  V30 8524 C 1148.38 -6.40075 2.62207 0
M  V30 8525 O 1149.18 -5.92589 1.53712 0
M  V30 8526 C 1147.04 -6.9454 2.18503 0
M  V30 8527 H 1147.07 -7.23063 1.12091 0
M  V30 8528 H 1148.26 -5.6025 3.37201 0
M  V30 8529 H 1149.74 -7.35707 4.02681 0
M  V30 8530 H 1148.05 -9.40912 3.9095 0
M  V30 8531 H 1147.86 -8.29056 5.99158 0
M  V30 8532 H 1146.23 -8.10073 5.25882 0
M  V30 8533 H 1148.86 -6.30324 0.726794 0
M  V30 8534 P 1150.72 -8.4349 2.47671 0
M  V30 8535 O 1152.14 -8.94167 2.5964 0
M  V30 8536 O 1150.36 -7.1704 3.19006 0
M  V30 8537 O 1150.4 -8.16596 0.923387 0
M  V30 8538 C 1150.24 -9.38437 0.108857 0
M  V30 8539 C 1150.78 -9.08175 -1.28353 0
M  V30 8540 O 1149.72 -8.44229 -1.84713 0
M  V30 8541 C 1152 -8.18386 -1.42505 0
M  V30 8542 O 1152.74 -8.3501 -2.60497 0
M  V30 8543 C 1151.33 -6.80225 -1.25468 0
M  V30 8544 O 1152.13 -5.81621 -1.91066 0
M  V30 8545 C 1149.99 -7.02416 -1.9168 0
M  V30 8546 H 1150.02 -6.6888 -2.96621 0
M  V30 8547 H 1151.21 -6.53617 -0.192223 0
M  V30 8548 H 1152.69 -8.36622 -0.589963 0
M  V30 8549 H 1151 -10.0291 -1.79807 0
M  V30 8550 H 1150.81 -10.2138 0.558219 0
M  V30 8551 H 1149.18 -9.6579 0.0444202 0
M  V30 8552 H 1151.82 -5.69556 -2.79637 0
M  V30 8553 P 1153.67 -8.4349 -2.47671 0
M  V30 8554 O 1155.09 -8.92593 -2.65 0
M  V30 8555 O 1153.31 -7.7568 -1.19296 0
M  V30 8556 O 1153.35 -7.36886 -3.63805 0
M  V30 8557 C 1153.19 -7.95349 -4.982 0
M  V30 8558 C 1153.73 -6.94612 -5.98974 0
M  V30 8559 O 1152.67 -6.10347 -6.11815 0
M  V30 8560 C 1154.95 -6.11426 -5.62335 0
M  V30 8561 O 1155.69 -5.6162 -6.70584 0
M  V30 8562 C 1154.28 -5.04409 -4.73308 0
M  V30 8563 O 1155.08 -3.85992 -4.75183 0
M  V30 8564 C 1152.94 -4.8728 -5.41006 0
M  V30 8565 H 1152.97 -4.02333 -6.11157 0
M  V30 8566 H 1154.16 -5.39466 -3.69543 0
M  V30 8567 H 1155.64 -6.71916 -5.01943 0
M  V30 8568 H 1153.95 -7.4649 -6.93477 0
M  V30 8569 H 1153.76 -8.89416 -5.05237 0
M  V30 8570 H 1152.13 -8.14876 -5.18409 0
M  V30 8571 H 1154.77 -3.27957 -5.4317 0
M  V30 8572 P 1156.62 -5.75688 -6.64379 0
M  V30 8573 O 1158.05 -6.07627 -7.05504 0
M  V30 8574 O 1156.26 -5.88047 -5.19722 0
M  V30 8575 O 1156.3 -4.2322 -7.04443 0
M  V30 8576 C 1156.14 -3.99743 -8.4911 0
M  V30 8577 C 1156.68 -2.60516 -8.79425 0
M  V30 8578 O 1155.62 -1.82684 -8.4467 0
M  V30 8579 C 1157.9 -2.10343 -8.03628 0
M  V30 8580 O 1158.64 -1.09919 -8.67766 0
M  V30 8581 C 1157.23 -1.68446 -6.70876 0
M  V30 8582 O 1158.03 -0.678137 -6.08433 0
M  V30 8583 C 1155.89 -1.17436 -7.18567 0
M  V30 8584 H 1155.92 -0.0804732 -7.31656 0
M  V30 8585 H 1157.11 -2.54037 -6.02537 0
M  V30 8586 H 1158.59 -2.93881 -7.85526 0
M  V30 8587 H 1156.9 -2.53065 -9.86973 0
M  V30 8588 H 1156.71 -4.75072 -9.05887 0
M  V30 8589 H 1155.08 -4.05244 -8.76668 0
M  V30 8590 H 1157.72 0.177647 -6.34251 0
M  V30 8591 P 1159.57 -1.25109 -8.70152 0
M  V30 8592 O 1161 -1.29744 -9.22016 0
M  V30 8593 O 1159.21 -2.13714 -7.55141 0
M  V30 8594 O 1159.25 0.248149 -8.21425 0
M  V30 8595 C 1159.09 1.22779 -9.30434 0
M  V30 8596 C 1159.63 2.56293 -8.80664 0
M  V30 8597 O 1158.58 3.02979 -8.09349 0
M  V30 8598 C 1160.85 2.57523 -7.89775 0
M  V30 8599 O 1161.59 3.7668 -7.89438 0
M  V30 8600 C 1160.18 2.20997 -6.55446 0
M  V30 8601 O 1160.98 2.71895 -5.48509 0
M  V30 8602 C 1158.84 2.89693 -6.67988 0
M  V30 8603 H 1158.88 3.88793 -6.19859 0
M  V30 8604 H 1160.06 1.12046 -6.44229 0
M  V30 8605 H 1161.54 1.7746 -8.19711 0
M  V30 8606 H 1159.85 3.20706 -9.67112 0
M  V30 8607 H 1159.66 0.901032 -10.1892 0
M  V30 8608 H 1158.03 1.33049 -9.56592 0
M  V30 8609 H 1160.67 3.57847 -5.23962 0
M  V30 8610 P 1162.52 3.65191 -7.99657 0
M  V30 8611 O 1163.95 3.89332 -8.45794 0
M  V30 8612 O 1162.16 2.28472 -7.50807 0
M  V30 8613 O 1162.2 4.64972 -6.77611 0
M  V30 8614 C 1162.04 6.06319 -7.16352 0
M  V30 8615 C 1162.58 6.91731 -6.02299 0
M  V30 8616 O 1161.53 6.92449 -5.17064 0
M  V30 8617 C 1163.8 6.43627 -5.25174 0
M  V30 8618 O 1164.54 7.43686 -4.60469 0
M  V30 8619 C 1163.13 5.40275 -4.31916 0
M  V30 8620 O 1163.93 5.25279 -3.14438 0
M  V30 8621 C 1161.79 6.04847 -4.05327 0
M  V30 8622 H 1161.83 6.62195 -3.11261 0
M  V30 8623 H 1163.01 4.42556 -4.81383 0
M  V30 8624 H 1164.49 5.92458 -5.93643 0
M  V30 8625 H 1162.8 7.92655 -6.402 0
M  V30 8626 H 1162.61 6.26671 -8.0846 0
M  V30 8627 H 1160.98 6.29101 -7.32804 0
M  V30 8628 H 1163.62 5.84315 -2.47318 0
M  V30 8629 P 1165.48 7.39546 -4.75277 0
M  V30 8630 O 1166.9 7.84798 -5.01039 0
M  V30 8631 O 1165.12 5.9812 -5.08098 0
M  V30 8632 O 1165.15 7.57503 -3.1866 0
M  V30 8633 C 1164.99 8.97357 -2.74833 0
M  V30 8634 C 1165.53 9.07548 -1.32709 0
M  V30 8635 O 1164.48 8.62072 -0.606159 0
M  V30 8636 C 1166.75 8.25383 -0.938334 0
M  V30 8637 O 1167.49 8.74577 0.146954 0
M  V30 8638 C 1166.08 6.8802 -0.712559 0
M  V30 8639 O 1166.88 6.1189 0.194655 0
M  V30 8640 C 1164.74 7.27966 -0.139777 0
M  V30 8641 H 1164.78 7.25354 0.961601 0
M  V30 8642 H 1165.96 6.32557 -1.65702 0
M  V30 8643 H 1167.44 8.19355 -1.79097 0
M  V30 8644 H 1165.75 10.1294 -1.10029 0
M  V30 8645 H 1165.56 9.64276 -3.41316 0
M  V30 8646 H 1163.93 9.25417 -2.76357 0
M  V30 8647 H 1166.57 6.25267 1.07847 0
M  V30 8648 P 1168.43 8.791 9.41699e-12 0
M  V30 8649 O 1169.85 9.31096 0.027933 0
M  V30 8650 O 1168.07 7.77869 -1.04071 0
M  V30 8651 O 1168.1 8.09533 1.41463 0
M  V30 8652 C 1167.94 9.0349 2.53943 0
M  V30 8653 C 1168.48 8.35226 3.79016 0
M  V30 8654 O 1167.43 7.57992 4.15078 0
M  V30 8655 C 1169.7 7.45087 3.67298 0
M  V30 8656 O 1170.44 7.27796 4.85194 0
M  V30 8657 C 1169.03 6.17323 3.12027 0
M  V30 8658 O 1169.83 5.04231 3.47188 0
M  V30 8659 C 1167.69 6.19961 3.81809 0
M  V30 8660 H 1167.73 5.58218 4.73051 0
M  V30 8661 H 1168.91 6.21726 2.02589 0
M  V30 8662 H 1170.39 7.86112 2.9231 0
M  V30 8663 H 1168.7 9.11627 4.55076 0
M  V30 8664 H 1168.51 9.9573 2.34194 0
M  V30 8665 H 1166.88 9.2792 2.67832 0
M  V30 8666 H 1169.52 4.67702 4.28772 0
M  V30 8667 P 1171.38 7.39546 4.75277 0
M  V30 8668 O 1172.8 7.81777 5.05738 0
M  V30 8669 O 1171.02 7.1065 3.32998 0
M  V30 8670 O 1171.05 6.04542 5.56673 0
M  V30 8671 C 1170.89 6.22772 7.02095 0
M  V30 8672 C 1171.43 4.97725 7.70406 0
M  V30 8673 O 1170.38 4.13256 7.58987 0
M  V30 8674 C 1172.65 4.28231 7.11815 0
M  V30 8675 O 1173.39 3.49945 8.01648 0
M  V30 8676 C 1171.98 3.5063 5.96244 0
M  V30 8677 O 1172.78 2.36482 5.64681 0
M  V30 8678 C 1170.65 3.15122 6.56374 0
M  V30 8679 H 1170.68 2.13853 6.99751 0
M  V30 8680 H 1171.86 4.13501 5.06559 0
M  V30 8681 H 1173.34 5.03285 6.70911 0
M  V30 8682 H 1171.65 5.20877 8.75697 0
M  V30 8683 H 1171.46 7.11046 7.35349 0
M  V30 8684 H 1169.83 6.35815 7.26986 0
M  V30 8685 H 1172.47 1.61644 6.13565 0
M  V30 8686 P 1174.33 3.65191 7.99657 0
M  V30 8687 O 1175.75 3.8425 8.48115 0
M  V30 8688 O 1173.97 4.17805 6.64342 0
M  V30 8689 O 1174 2.07613 7.95143 0
M  V30 8690 C 1173.84 1.44328 9.27336 0
M  V30 8691 C 1174.38 0.0220036 9.17197 0
M  V30 8692 O 1173.33 -0.626867 8.61923 0
M  V30 8693 C 1175.6 -0.24586 8.30336 0
M  V30 8694 O 1176.34 -1.39011 8.63583 0
M  V30 8695 C 1174.93 -0.273849 6.91158 0
M  V30 8696 O 1175.73 -1.06348 6.02892 0
M  V30 8697 C 1173.6 -0.897649 7.22545 0
M  V30 8698 H 1173.63 -1.9841 7.04286 0
M  V30 8699 H 1174.81 0.739928 6.497 0
M  V30 8700 H 1176.29 0.60668 8.36503 0
M  V30 8701 H 1174.6 -0.352479 10.1829 0
M  V30 8702 H 1174.41 2.00611 10.0304 0
M  V30 8703 H 1172.78 1.41843 9.55327 0
M  V30 8704 H 1175.42 -1.95734 6.03555 0
M  V30 8705 P 1177.28 -1.25109 8.70152 0
M  V30 8706 O 1178.7 -1.35274 9.21221 0
M  V30 8707 O 1176.92 -0.0769065 7.84762 0
M  V30 8708 O 1176.95 -2.55232 7.81161 0
M  V30 8709 C 1176.79 -3.79939 8.58154 0
M  V30 8710 C 1177.33 -4.94023 7.72785 0
M  V30 8711 O 1176.28 -5.18726 6.91205 0
M  V30 8712 C 1178.55 -4.69597 6.85231 0
M  V30 8713 O 1179.29 -5.83832 6.51337 0
M  V30 8714 C 1177.88 -3.96706 5.66633 0
M  V30 8715 O 1178.68 -4.15414 4.49689 0
M  V30 8716 C 1176.55 -4.66153 5.59313 0
M  V30 8717 H 1176.58 -5.47679 4.85214 0
M  V30 8718 H 1177.76 -2.89008 5.86566 0
M  V30 8719 H 1179.25 -4.0121 7.36511 0
M  V30 8720 H 1177.55 -5.80182 8.37584 0
M  V30 8721 H 1177.36 -3.73517 9.52265 0
M  V30 8722 H 1175.73 -3.97163 8.80359 0
M  V30 8723 H 1178.37 -4.90969 4.01921 0
M  V30 8724 P 1180.23 -5.75688 6.64379 0
M  V30 8725 O 1181.65 -6.11915 7.01921 0
M  V30 8726 O 1179.87 -4.30744 6.56026 0
M  V30 8727 O 1179.9 -6.37042 5.19165 0
M  V30 8728 C 1179.74 -7.83662 5.1657 0
M  V30 8729 C 1180.28 -8.33398 3.83019 0
M  V30 8730 O 1179.23 -8.0998 3.00999 0
M  V30 8731 C 1181.5 -7.65514 3.2257 0
M  V30 8732 O 1182.24 -8.4329 2.32297 0
M  V30 8733 C 1180.83 -6.40075 2.62207 0
M  V30 8734 O 1181.63 -5.92338 1.5428 0
M  V30 8735 C 1179.5 -6.9454 2.18503 0
M  V30 8736 N 1178.45 -5.95905 2.39948 0
M  V30 8737 C 1178.62 -4.98383 3.32108 0
M  V30 8738 N 1177.6 -4.16798 3.41761 0
M  V30 8739 C 1176.71 -4.65287 2.47461 0
M  V30 8740 C 1175.44 -4.18946 2.07461 0
M  V30 8741 N 1174.84 -3.09661 2.60717 0
M  V30 8742 N 1174.88 -4.95327 1.09101 0
M  V30 8743 C 1175.48 -6.04369 0.519812 0
M  V30 8744 N 1176.66 -6.50694 0.855982 0
M  V30 8745 C 1177.23 -5.75818 1.84322 0
M  V30 8746 H 1179.53 -7.22964 1.12076 0
M  V30 8747 H 1180.71 -5.60502 3.36589 0
M  V30 8748 H 1182.19 -7.35707 4.02681 0
M  V30 8749 H 1180.5 -9.41302 3.90009 0
M  V30 8750 H 1180.31 -8.29056 5.99158 0
M  V30 8751 H 1178.68 -8.10073 5.25882 0
M  V30 8752 H 1174.94 -6.55843 -0.270373 0
M  V30 8753 H 1179.52 -4.88564 3.92502 0
M  V30 8754 H 1173.91 -2.80523 2.27218 0
M  V30 8755 H 1175.32 -2.55848 3.34465 0
M  V30 8756 H 1181.32 -6.30224 0.72668 0
M  V30 8757 P 1183.18 -8.4349 2.47671 0
M  V30 8758 O 1184.6 -8.94263 2.59668 0
M  V30 8759 O 1182.82 -7.1704 3.19006 0
M  V30 8760 O 1182.86 -8.16596 0.923387 0
M  V30 8761 C 1182.69 -9.38537 0.108869 0
M  V30 8762 C 1183.24 -9.08175 -1.28353 0
M  V30 8763 O 1182.18 -8.44131 -1.84692 0
M  V30 8764 C 1184.45 -8.18386 -1.42505 0
M  V30 8765 O 1185.19 -8.3501 -2.60497 0
M  V30 8766 C 1183.79 -6.80225 -1.25468 0
M  V30 8767 O 1184.58 -5.81716 -1.90454 0
M  V30 8768 C 1182.45 -7.02416 -1.9168 0
M  V30 8769 N 1181.4 -6.31033 -1.20314 0
M  V30 8770 C 1181.57 -5.98817 0.0994088 0
M  V30 8771 N 1180.55 -5.35403 0.621694 0
M  V30 8772 C 1179.66 -5.25212 -0.43376 0
M  V30 8773 C 1178.39 -4.64602 -0.519722 0
M  V30 8774 N 1177.8 -4.01457 0.519136 0
M  V30 8775 N 1177.83 -4.7568 -1.76013 0
M  V30 8776 C 1178.43 -5.3653 -2.83017 0
M  V30 8777 N 1179.61 -5.93676 -2.79782 0
M  V30 8778 C 1180.18 -5.84061 -1.56249 0
M  V30 8779 H 1182.48 -6.68789 -2.9658 0
M  V30 8780 H 1183.66 -6.53498 -0.198729 0
M  V30 8781 H 1185.15 -8.36622 -0.589963 0
M  V30 8782 H 1183.45 -10.0273 -1.8081 0
M  V30 8783 H 1183.26 -10.2138 0.558219 0
M  V30 8784 H 1181.63 -9.6579 0.0444202 0
M  V30 8785 H 1177.9 -5.37113 -3.77321 0
M  V30 8786 H 1182.47 -6.23209 0.660562 0
M  V30 8787 H 1176.87 -3.58834 0.394862 0
M  V30 8788 H 1178.27 -3.96059 1.43048 0
M  V30 8789 H 1184.27 -5.69466 -2.79593 0
M  V30 8790 P 1186.13 -8.4349 -2.47671 0
M  V30 8791 O 1187.55 -8.92593 -2.65 0
M  V30 8792 O 1185.77 -7.7568 -1.19296 0
M  V30 8793 O 1185.81 -7.36886 -3.63805 0
M  V30 8794 C 1185.65 -7.95349 -4.982 0
M  V30 8795 C 1186.19 -6.94612 -5.98974 0
M  V30 8796 O 1185.13 -6.10347 -6.11815 0
M  V30 8797 C 1187.4 -6.11426 -5.62335 0
M  V30 8798 O 1188.14 -5.6162 -6.70584 0
M  V30 8799 C 1186.74 -5.04409 -4.73308 0
M  V30 8800 O 1187.53 -3.85992 -4.75183 0
M  V30 8801 C 1185.4 -4.8728 -5.41006 0
M  V30 8802 H 1185.43 -4.02333 -6.11157 0
M  V30 8803 H 1186.61 -5.39466 -3.69543 0
M  V30 8804 H 1188.1 -6.71916 -5.01943 0
M  V30 8805 H 1186.4 -7.4649 -6.93477 0
M  V30 8806 H 1186.21 -8.89416 -5.05237 0
M  V30 8807 H 1184.58 -8.14876 -5.18409 0
M  V30 8808 H 1187.22 -3.27957 -5.4317 0
M  V30 8809 P 1189.08 -5.75688 -6.64379 0
M  V30 8810 O 1190.5 -6.07692 -7.0558 0
M  V30 8811 O 1188.72 -5.88047 -5.19722 0
M  V30 8812 O 1188.76 -4.2322 -7.04443 0
M  V30 8813 C 1188.6 -3.99785 -8.49201 0
M  V30 8814 C 1189.14 -2.60516 -8.79425 0
M  V30 8815 O 1188.08 -1.82663 -8.44573 0
M  V30 8816 C 1190.35 -2.10343 -8.03628 0
M  V30 8817 O 1191.09 -1.09919 -8.67766 0
M  V30 8818 C 1189.69 -1.68446 -6.70876 0
M  V30 8819 O 1190.48 -0.684109 -6.08265 0
M  V30 8820 C 1188.35 -1.17436 -7.18567 0
M  V30 8821 N 1187.31 -1.52699 -6.23988 0
M  V30 8822 C 1187.47 -2.578 -5.40574 0
M  V30 8823 N 1186.45 -2.78966 -4.61193 0
M  V30 8824 C 1185.56 -1.78725 -4.95769 0
M  V30 8825 C 1184.3 -1.45727 -4.44207 0
M  V30 8826 N 1183.73 -0.374977 -5.05812 0
M  V30 8827 C 1184.33 0.345585 -6.05615 0
M  V30 8828 N 1185.51 0.0787651 -6.56253 0
M  V30 8829 C 1186.08 -1.00499 -5.96189 0
M  V30 8830 H 1189.56 -2.53396 -6.02698 0
M  V30 8831 H 1191.05 -2.93881 -7.85526 0
M  V30 8832 H 1189.35 -2.52078 -9.87225 0
M  V30 8833 H 1189.16 -4.75072 -9.05887 0
M  V30 8834 H 1187.53 -4.05244 -8.76668 0
M  V30 8835 H 1188.37 -3.18977 -5.3945 0
M  V30 8836 H 1190.17 0.177619 -6.34151 0
M  V30 8837 P 1192.03 -1.25109 -8.70152 0
M  V30 8838 O 1193.45 -1.29744 -9.22016 0
M  V30 8839 O 1191.67 -2.13714 -7.55141 0
M  V30 8840 O 1191.71 0.248149 -8.21425 0
M  V30 8841 C 1191.55 1.22779 -9.30434 0
M  V30 8842 C 1192.09 2.56293 -8.80664 0
M  V30 8843 O 1191.03 3.02979 -8.09349 0
M  V30 8844 C 1193.31 2.57523 -7.89775 0
M  V30 8845 O 1194.04 3.7668 -7.89438 0
M  V30 8846 C 1192.64 2.20997 -6.55446 0
M  V30 8847 O 1193.44 2.71895 -5.48509 0
M  V30 8848 C 1191.3 2.89693 -6.67988 0
M  V30 8849 H 1191.33 3.88793 -6.19859 0
M  V30 8850 H 1192.51 1.12046 -6.44229 0
M  V30 8851 H 1194 1.7746 -8.19711 0
M  V30 8852 H 1192.3 3.20706 -9.67112 0
M  V30 8853 H 1192.11 0.901032 -10.1892 0
M  V30 8854 H 1190.48 1.33049 -9.56592 0
M  V30 8855 H 1193.12 3.57847 -5.23962 0
M  V30 8856 P 1194.98 3.65191 -7.99657 0
M  V30 8857 O 1196.4 3.89332 -8.45794 0
M  V30 8858 O 1194.62 2.28472 -7.50807 0
M  V30 8859 O 1194.66 4.64972 -6.77611 0
M  V30 8860 C 1194.5 6.06319 -7.16352 0
M  V30 8861 C 1195.04 6.91731 -6.02299 0
M  V30 8862 O 1193.98 6.92449 -5.17064 0
M  V30 8863 C 1196.26 6.43627 -5.25174 0
M  V30 8864 O 1196.99 7.43686 -4.60469 0
M  V30 8865 C 1195.59 5.40275 -4.31916 0
M  V30 8866 O 1196.39 5.25279 -3.14438 0
M  V30 8867 C 1194.25 6.04847 -4.05327 0
M  V30 8868 H 1194.28 6.62195 -3.11261 0
M  V30 8869 H 1195.46 4.42556 -4.81383 0
M  V30 8870 H 1196.95 5.92458 -5.93643 0
M  V30 8871 H 1195.25 7.92655 -6.402 0
M  V30 8872 H 1195.06 6.26671 -8.0846 0
M  V30 8873 H 1193.43 6.29101 -7.32804 0
M  V30 8874 H 1196.07 5.84315 -2.47318 0
M  V30 8875 P 1197.93 7.39546 -4.75277 0
M  V30 8876 O 1199.35 7.84798 -5.01039 0
M  V30 8877 O 1197.57 5.9812 -5.08098 0
M  V30 8878 O 1197.61 7.57503 -3.1866 0
M  V30 8879 C 1197.45 8.97357 -2.74833 0
M  V30 8880 C 1197.99 9.07548 -1.32709 0
M  V30 8881 O 1196.93 8.62072 -0.606159 0
M  V30 8882 C 1199.21 8.25383 -0.938334 0
M  V30 8883 O 1199.94 8.74577 0.146954 0
M  V30 8884 C 1198.54 6.8802 -0.712559 0
M  V30 8885 O 1199.34 6.1189 0.194655 0
M  V30 8886 C 1197.2 7.27966 -0.139777 0
M  V30 8887 H 1197.23 7.25354 0.961601 0
M  V30 8888 H 1198.42 6.32557 -1.65702 0
M  V30 8889 H 1199.9 8.19355 -1.79097 0
M  V30 8890 H 1198.21 10.1294 -1.10029 0
M  V30 8891 H 1198.02 9.64276 -3.41316 0
M  V30 8892 H 1196.39 9.25417 -2.76357 0
M  V30 8893 H 1199.02 6.25267 1.07847 0
M  V30 8894 P 1200.88 8.791 9.72715e-12 0
M  V30 8895 O 1202.3 9.31096 0.027933 0
M  V30 8896 O 1200.52 7.77869 -1.04071 0
M  V30 8897 O 1200.56 8.09533 1.41463 0
M  V30 8898 C 1200.4 9.0349 2.53943 0
M  V30 8899 C 1200.94 8.35226 3.79016 0
M  V30 8900 O 1199.88 7.57992 4.15078 0
M  V30 8901 C 1202.16 7.45087 3.67298 0
M  V30 8902 O 1202.89 7.27796 4.85194 0
M  V30 8903 C 1201.49 6.17323 3.12027 0
M  V30 8904 O 1202.29 5.04231 3.47188 0
M  V30 8905 C 1200.15 6.19961 3.81809 0
M  V30 8906 H 1200.18 5.58218 4.73051 0
M  V30 8907 H 1201.37 6.21726 2.02589 0
M  V30 8908 H 1202.85 7.86112 2.9231 0
M  V30 8909 H 1201.16 9.11627 4.55076 0
M  V30 8910 H 1200.97 9.9573 2.34194 0
M  V30 8911 H 1199.34 9.2792 2.67832 0
M  V30 8912 H 1201.97 4.67702 4.28772 0
M  V30 8913 P 1203.83 7.39546 4.75277 0
M  V30 8914 O 1205.25 7.81777 5.05738 0
M  V30 8915 O 1203.47 7.1065 3.32998 0
M  V30 8916 O 1203.51 6.04542 5.56673 0
M  V30 8917 C 1203.35 6.22772 7.02095 0
M  V30 8918 C 1203.89 4.97725 7.70406 0
M  V30 8919 O 1202.83 4.13256 7.58987 0
M  V30 8920 C 1205.11 4.28231 7.11815 0
M  V30 8921 O 1205.85 3.49945 8.01648 0
M  V30 8922 C 1204.44 3.5063 5.96244 0
M  V30 8923 O 1205.24 2.36482 5.64681 0
M  V30 8924 C 1203.1 3.15122 6.56374 0
M  V30 8925 H 1203.13 2.13853 6.99751 0
M  V30 8926 H 1204.32 4.13501 5.06559 0
M  V30 8927 H 1205.8 5.03285 6.70911 0
M  V30 8928 H 1204.11 5.20877 8.75697 0
M  V30 8929 H 1203.92 7.11046 7.35349 0
M  V30 8930 H 1202.29 6.35815 7.26986 0
M  V30 8931 H 1204.93 1.61644 6.13565 0
M  V30 8932 P 1206.78 3.65191 7.99657 0
M  V30 8933 O 1208.21 3.8425 8.48115 0
M  V30 8934 O 1206.42 4.17805 6.64342 0
M  V30 8935 O 1206.46 2.07613 7.95143 0
M  V30 8936 C 1206.3 1.44328 9.27336 0
M  V30 8937 C 1206.84 0.0220036 9.17197 0
M  V30 8938 O 1205.78 -0.626867 8.61923 0
M  V30 8939 C 1208.06 -0.24586 8.30336 0
M  V30 8940 O 1208.8 -1.39011 8.63583 0
M  V30 8941 C 1207.39 -0.273849 6.91158 0
M  V30 8942 O 1208.19 -1.06348 6.02892 0
M  V30 8943 C 1206.05 -0.897649 7.22545 0
M  V30 8944 H 1206.08 -1.9841 7.04286 0
M  V30 8945 H 1207.27 0.739928 6.497 0
M  V30 8946 H 1208.75 0.60668 8.36503 0
M  V30 8947 H 1207.06 -0.352479 10.1829 0
M  V30 8948 H 1206.87 2.00611 10.0304 0
M  V30 8949 H 1205.24 1.41843 9.55327 0
M  V30 8950 H 1207.88 -1.95734 6.03555 0
M  V30 8951 P 1209.73 -1.25109 8.70152 0
M  V30 8952 O 1211.15 -1.35288 9.2132 0
M  V30 8953 O 1209.37 -0.0769065 7.84762 0
M  V30 8954 O 1209.41 -2.55232 7.81161 0
M  V30 8955 C 1209.25 -3.79979 8.58246 0
M  V30 8956 C 1209.79 -4.94023 7.72785 0
M  V30 8957 O 1208.74 -5.18666 6.91125 0
M  V30 8958 C 1211.01 -4.69597 6.85231 0
M  V30 8959 O 1211.75 -5.83832 6.51337 0
M  V30 8960 C 1210.34 -3.96706 5.66633 0
M  V30 8961 O 1211.14 -4.14896 4.5003 0
M  V30 8962 C 1209 -4.66153 5.59313 0
M  V30 8963 N 1207.96 -3.71582 5.24027 0
M  V30 8964 C 1208.13 -2.39715 5.48833 0
M  V30 8965 N 1207.1 -1.65863 5.12845 0
M  V30 8966 C 1206.22 -2.57637 4.5973 0
M  V30 8967 C 1204.95 -2.40278 4.01027 0
M  V30 8968 N 1204.35 -1.19549 3.86744 0
M  V30 8969 N 1204.38 -3.57711 3.59575 0
M  V30 8970 C 1204.99 -4.80324 3.70476 0
M  V30 8971 N 1206.16 -5.01121 4.23801 0
M  V30 8972 C 1206.74 -3.84757 4.66372 0
M  V30 8973 H 1209.03 -5.47604 4.85148 0
M  V30 8974 H 1210.22 -2.8955 5.86187 0
M  V30 8975 H 1211.7 -4.0121 7.36511 0
M  V30 8976 H 1210.01 -5.81019 8.37003 0
M  V30 8977 H 1209.82 -3.73517 9.52265 0
M  V30 8978 H 1208.19 -3.97163 8.80359 0
M  V30 8979 H 1204.45 -5.66348 3.3183 0
M  V30 8980 H 1209.03 -1.98804 5.94332 0
M  V30 8981 H 1203.42 -1.13147 3.4281 0
M  V30 8982 H 1204.82 -0.344074 4.19692 0
M  V30 8983 H 1210.83 -4.90891 4.01857 0
M  V30 8984 P 1212.68 -5.75688 6.64379 0
M  V30 8985 O 1214.11 -6.11849 7.01846 0
M  V30 8986 O 1212.32 -4.30744 6.56026 0
M  V30 8987 O 1212.36 -6.37042 5.19165 0
M  V30 8988 C 1212.2 -7.83578 5.16515 0
M  V30 8989 C 1212.74 -8.33398 3.83019 0
M  V30 8990 O 1211.69 -8.10074 3.01034 0
M  V30 8991 C 1213.96 -7.65514 3.2257 0
M  V30 8992 O 1214.7 -8.4329 2.32297 0
M  V30 8993 C 1213.29 -6.40075 2.62207 0
M  V30 8994 O 1214.09 -5.92589 1.53712 0
M  V30 8995 C 1211.95 -6.9454 2.18503 0
M  V30 8996 H 1211.99 -7.23063 1.12091 0
M  V30 8997 H 1213.17 -5.6025 3.37201 0
M  V30 8998 H 1214.65 -7.35707 4.02681 0
M  V30 8999 H 1212.96 -9.40912 3.9095 0
M  V30 9000 H 1212.77 -8.29056 5.99158 0
M  V30 9001 H 1211.14 -8.10073 5.25882 0
M  V30 9002 H 1213.78 -6.30324 0.726794 0
M  V30 9003 P 1215.63 -8.4349 2.47671 0
M  V30 9004 O 1217.06 -8.94263 2.59668 0
M  V30 9005 O 1215.27 -7.1704 3.19006 0
M  V30 9006 O 1215.31 -8.16596 0.923387 0
M  V30 9007 C 1215.15 -9.38537 0.108869 0
M  V30 9008 C 1215.69 -9.08175 -1.28353 0
M  V30 9009 O 1214.64 -8.44131 -1.84692 0
M  V30 9010 C 1216.91 -8.18386 -1.42505 0
M  V30 9011 O 1217.65 -8.3501 -2.60497 0
M  V30 9012 C 1216.24 -6.80225 -1.25468 0
M  V30 9013 O 1217.04 -5.81716 -1.90454 0
M  V30 9014 C 1214.9 -7.02416 -1.9168 0
M  V30 9015 N 1213.86 -6.31033 -1.20314 0
M  V30 9016 C 1214.03 -5.98817 0.0994088 0
M  V30 9017 N 1213 -5.35403 0.621694 0
M  V30 9018 C 1212.12 -5.25212 -0.43376 0
M  V30 9019 C 1210.85 -4.64602 -0.519722 0
M  V30 9020 N 1210.29 -4.7568 -1.76013 0
M  V30 9021 C 1210.89 -5.3653 -2.83017 0
M  V30 9022 N 1212.06 -5.93676 -2.79782 0
M  V30 9023 C 1212.64 -5.84061 -1.56249 0
M  V30 9024 H 1216.12 -6.53498 -0.198729 0
M  V30 9025 H 1217.6 -8.36622 -0.589963 0
M  V30 9026 H 1215.91 -10.0273 -1.8081 0
M  V30 9027 H 1215.72 -10.2138 0.558219 0
M  V30 9028 H 1214.09 -9.6579 0.0444202 0
M  V30 9029 H 1214.93 -6.23209 0.660562 0
M  V30 9030 H 1216.73 -5.69466 -2.79593 0
M  V30 9031 P 1218.59 -8.4349 -2.47671 0
M  V30 9032 O 1220.01 -8.92689 -2.65029 0
M  V30 9033 O 1218.23 -7.7568 -1.19296 0
M  V30 9034 O 1218.26 -7.36886 -3.63805 0
M  V30 9035 C 1218.1 -7.95433 -4.98253 0
M  V30 9036 C 1218.64 -6.94612 -5.98974 0
M  V30 9037 O 1217.59 -6.10277 -6.11744 0
M  V30 9038 C 1219.86 -6.11426 -5.62335 0
M  V30 9039 O 1220.6 -5.6162 -6.70584 0
M  V30 9040 C 1219.19 -5.04409 -4.73308 0
M  V30 9041 O 1219.99 -3.86404 -4.74719 0
M  V30 9042 C 1217.85 -4.8728 -5.41006 0
M  V30 9043 N 1216.81 -4.65812 -4.42377 0
M  V30 9044 C 1216.98 -5.09132 -3.15382 0
M  V30 9045 N 1215.95 -4.84021 -2.3716 0
M  V30 9046 C 1215.07 -4.18386 -3.20441 0
M  V30 9047 C 1213.8 -3.6275 -2.94905 0
M  V30 9048 N 1213.2 -3.65794 -1.73372 0
M  V30 9049 N 1213.24 -3.05008 -4.05243 0
M  V30 9050 C 1213.84 -2.98348 -5.28159 0
M  V30 9051 N 1215.02 -3.48171 -5.56333 0
M  V30 9052 C 1215.59 -4.06869 -4.47212 0
M  V30 9053 H 1217.89 -4.02278 -6.11074 0
M  V30 9054 H 1219.07 -5.39013 -3.70026 0
M  V30 9055 H 1220.55 -6.71916 -5.01943 0
M  V30 9056 H 1218.86 -7.45796 -6.94223 0
M  V30 9057 H 1218.67 -8.89416 -5.05237 0
M  V30 9058 H 1217.04 -8.14876 -5.18409 0
M  V30 9059 H 1213.3 -2.47853 -6.07807 0
M  V30 9060 H 1217.88 -5.59989 -2.81362 0
M  V30 9061 H 1212.27 -3.23218 -1.60782 0
M  V30 9062 H 1213.68 -4.10523 -0.937856 0
M  V30 9063 H 1219.68 -3.27906 -5.43085 0
M  V30 9064 P 1221.54 -5.75688 -6.64379 0
M  V30 9065 O 1222.96 -6.07627 -7.05504 0
M  V30 9066 O 1221.18 -5.88047 -5.19722 0
M  V30 9067 O 1221.21 -4.2322 -7.04443 0
M  V30 9068 C 1221.05 -3.99743 -8.4911 0
M  V30 9069 C 1221.59 -2.60516 -8.79425 0
M  V30 9070 O 1220.54 -1.82684 -8.4467 0
M  V30 9071 C 1222.81 -2.10343 -8.03628 0
M  V30 9072 O 1223.55 -1.09919 -8.67766 0
M  V30 9073 C 1222.14 -1.68446 -6.70876 0
M  V30 9074 O 1222.94 -0.678137 -6.08433 0
M  V30 9075 C 1220.8 -1.17436 -7.18567 0
M  V30 9076 H 1220.84 -0.0804732 -7.31656 0
M  V30 9077 H 1222.02 -2.54037 -6.02537 0
M  V30 9078 H 1223.5 -2.93881 -7.85526 0
M  V30 9079 H 1221.81 -2.53065 -9.86973 0
M  V30 9080 H 1221.62 -4.75072 -9.05887 0
M  V30 9081 H 1219.99 -4.05244 -8.76668 0
M  V30 9082 H 1222.63 0.177647 -6.34251 0
M  V30 9083 P 1224.49 -1.25109 -8.70152 0
M  V30 9084 O 1225.89 -1.3516 -9.26897 0
M  V30 9085 O 1224.11 -2.18141 -7.59181 0
M  V30 9086 O 1224.16 0.248118 -8.21325 0
M  V30 9087 C 1224 1.22779 -9.30434 0
M  V30 9088 C 1224.54 2.56265 -8.80568 0
M  V30 9089 O 1223.49 3.02944 -8.09255 0
M  V30 9090 C 1225.76 2.57523 -7.89775 0
M  V30 9091 O 1226.5 3.7668 -7.89438 0
M  V30 9092 C 1225.09 2.20997 -6.55446 0
M  V30 9093 O 1225.89 2.71851 -5.48419 0
M  V30 9094 C 1223.76 2.89693 -6.67988 0
M  V30 9095 N 1222.71 2.08895 -6.07487 0
M  V30 9096 C 1221.68 2.72974 -5.43836 0
M  V30 9097 O 1221.72 3.97779 -5.34036 0
M  V30 9098 N 1220.67 2.0005 -4.91983 0
M  V30 9099 C 1220.71 0.66501 -5.00098 0
M  V30 9100 C 1221.81 -0.0100979 -5.61099 0
M  V30 9101 C 1222.78 0.74189 -6.14236 0
M  V30 9102 H 1223.79 3.8874 -6.19774 0
M  V30 9103 H 1224.97 1.12673 -6.44018 0
M  V30 9104 H 1226.45 1.783 -8.19631 0
M  V30 9105 H 1224.76 3.21673 -9.66791 0
M  V30 9106 H 1224.57 0.901032 -10.1892 0
M  V30 9107 H 1222.94 1.33036 -9.56493 0
M  V30 9108 H 1221.86 -1.09591 -5.64358 0
M  V30 9109 H 1223.62 0.260263 -6.6359 0
M  V30 9110 H 1225.68 3.62759 -5.33442 0
M  V30 9111 P 1227.44 3.65191 -7.99657 0
M  V30 9112 O 1228.86 3.89416 -8.45976 0
M  V30 9113 O 1227.08 2.28472 -7.50807 0
M  V30 9114 O 1227.11 4.64972 -6.77611 0
M  V30 9115 C 1226.95 6.06319 -7.16352 0
M  V30 9116 C 1227.49 6.91655 -6.02234 0
M  V30 9117 O 1226.44 6.92449 -5.17064 0
M  V30 9118 C 1228.71 6.43627 -5.25174 0
M  V30 9119 O 1229.45 7.43686 -4.60469 0
M  V30 9120 C 1228.04 5.40275 -4.31916 0
M  V30 9121 O 1228.84 5.25193 -3.14386 0
M  V30 9122 C 1226.71 6.04847 -4.05327 0
M  V30 9123 N 1225.66 5.04166 -3.98114 0
M  V30 9124 C 1225.73 3.96049 -4.75587 0
M  V30 9125 N 1224.68 3.15559 -4.54006 0
M  V30 9126 C 1223.95 3.78802 -3.62491 0
M  V30 9127 C 1222.64 3.476 -3.10071 0
M  V30 9128 O 1221.91 2.51136 -3.37021 0
M  V30 9129 N 1222.21 4.39088 -2.19956 0
M  V30 9130 C 1222.96 5.53215 -1.81733 0
M  V30 9131 N 1222.36 6.31963 -0.860928 0
M  V30 9132 N 1224.11 5.86688 -2.32562 0
M  V30 9133 C 1224.57 4.97525 -3.23407 0
M  V30 9134 H 1226.74 6.62195 -3.11261 0
M  V30 9135 H 1227.92 4.42488 -4.8131 0
M  V30 9136 H 1229.41 5.93051 -5.9305 0
M  V30 9137 H 1227.71 7.92655 -6.402 0
M  V30 9138 H 1227.52 6.26671 -8.0846 0
M  V30 9139 H 1225.89 6.29101 -7.32804 0
M  V30 9140 H 1221.31 4.25523 -1.77604 0
M  V30 9141 H 1226.52 3.75576 -5.47333 0
M  V30 9142 H 1221.45 6.04684 -0.468946 0
M  V30 9143 H 1222.83 7.18054 -0.542422 0
M  V30 9144 H 1228.53 5.84223 -2.47279 0
M  V30 9145 P 1230.39 7.39546 -4.75277 0
M  V30 9146 O 1231.81 7.84798 -5.01039 0
M  V30 9147 O 1230.03 5.9812 -5.08098 0
M  V30 9148 O 1230.06 7.57503 -3.1866 0
M  V30 9149 C 1229.9 8.97357 -2.74833 0
M  V30 9150 C 1230.44 9.07548 -1.32709 0
M  V30 9151 O 1229.39 8.62072 -0.606159 0
M  V30 9152 C 1231.66 8.25383 -0.938334 0
M  V30 9153 O 1232.4 8.74577 0.146954 0
M  V30 9154 C 1230.99 6.8802 -0.712559 0
M  V30 9155 O 1231.79 6.1189 0.194655 0
M  V30 9156 C 1229.66 7.27966 -0.139777 0
M  V30 9157 H 1229.69 7.25354 0.961601 0
M  V30 9158 H 1230.87 6.32557 -1.65702 0
M  V30 9159 H 1232.36 8.19355 -1.79097 0
M  V30 9160 H 1230.66 10.1294 -1.10029 0
M  V30 9161 H 1230.47 9.64276 -3.41316 0
M  V30 9162 H 1228.84 9.25417 -2.76357 0
M  V30 9163 H 1231.48 6.25267 1.07847 0
M  V30 9164 P 1233.34 8.791 1.00373e-11 0
M  V30 9165 O 1234.76 9.31196 0.027936 0
M  V30 9166 O 1232.98 7.77869 -1.04071 0
M  V30 9167 O 1233.02 8.09533 1.41463 0
M  V30 9168 C 1232.85 9.03587 2.5397 0
M  V30 9169 C 1233.4 8.35226 3.79016 0
M  V30 9170 O 1232.34 7.57904 4.1503 0
M  V30 9171 C 1234.61 7.45087 3.67298 0
M  V30 9172 O 1235.35 7.27796 4.85194 0
M  V30 9173 C 1233.95 6.17323 3.12027 0
M  V30 9174 O 1234.74 5.04496 3.46627 0
M  V30 9175 C 1232.61 6.19961 3.81809 0
M  V30 9176 N 1231.56 5.71575 2.93223 0
M  V30 9177 C 1231.73 5.77362 1.59168 0
M  V30 9178 N 1230.71 5.3123 0.911893 0
M  V30 9179 C 1229.82 4.91717 1.89588 0
M  V30 9180 C 1228.55 4.3114 1.8076 0
M  V30 9181 N 1227.99 4.06823 3.02898 0
M  V30 9182 C 1228.59 4.35062 4.22711 0
M  V30 9183 N 1229.77 4.90805 4.35707 0
M  V30 9184 C 1230.34 5.16382 3.14469 0
M  V30 9185 H 1233.82 6.21428 2.0318 0
M  V30 9186 H 1235.31 7.86112 2.9231 0
M  V30 9187 H 1233.61 9.11171 4.55987 0
M  V30 9188 H 1233.42 9.9573 2.34194 0
M  V30 9189 H 1231.79 9.2792 2.67832 0
M  V30 9190 H 1232.63 6.16575 1.12198 0
M  V30 9191 H 1234.43 4.67628 4.28704 0
M  V30 9192 P 1236.29 7.39546 4.75277 0
M  V30 9193 O 1237.71 7.81777 5.05738 0
M  V30 9194 O 1235.93 7.1065 3.32998 0
M  V30 9195 O 1235.97 6.04542 5.56673 0
M  V30 9196 C 1235.81 6.22772 7.02095 0
M  V30 9197 C 1236.35 4.97725 7.70406 0
M  V30 9198 O 1235.29 4.13256 7.58987 0
M  V30 9199 C 1237.56 4.28231 7.11815 0
M  V30 9200 O 1238.3 3.49945 8.01648 0
M  V30 9201 C 1236.89 3.5063 5.96244 0
M  V30 9202 O 1237.69 2.36482 5.64681 0
M  V30 9203 C 1235.56 3.15122 6.56374 0
M  V30 9204 H 1235.59 2.13853 6.99751 0
M  V30 9205 H 1236.77 4.13501 5.06559 0
M  V30 9206 H 1238.26 5.03285 6.70911 0
M  V30 9207 H 1236.56 5.20877 8.75697 0
M  V30 9208 H 1236.37 7.11046 7.35349 0
M  V30 9209 H 1234.74 6.35815 7.26986 0
M  V30 9210 H 1237.38 1.61644 6.13565 0
M  V30 9211 P 1239.24 3.65191 7.99657 0
M  V30 9212 O 1240.66 3.8425 8.48115 0
M  V30 9213 O 1238.88 4.17805 6.64342 0
M  V30 9214 O 1238.92 2.07613 7.95143 0
M  V30 9215 C 1238.76 1.44328 9.27336 0
M  V30 9216 C 1239.3 0.0220036 9.17197 0
M  V30 9217 O 1238.24 -0.626867 8.61923 0
M  V30 9218 C 1240.51 -0.24586 8.30336 0
M  V30 9219 O 1241.25 -1.39011 8.63583 0
M  V30 9220 C 1239.85 -0.273849 6.91158 0
M  V30 9221 O 1240.64 -1.06348 6.02892 0
M  V30 9222 C 1238.51 -0.897649 7.22545 0
M  V30 9223 H 1238.54 -1.9841 7.04286 0
M  V30 9224 H 1239.72 0.739928 6.497 0
M  V30 9225 H 1241.21 0.60668 8.36503 0
M  V30 9226 H 1239.51 -0.352479 10.1829 0
M  V30 9227 H 1239.32 2.00611 10.0304 0
M  V30 9228 H 1237.69 1.41843 9.55327 0
M  V30 9229 H 1240.33 -1.95734 6.03555 0
M  V30 9230 P 1242.19 -1.25109 8.70152 0
M  V30 9231 O 1243.61 -1.35274 9.21221 0
M  V30 9232 O 1241.83 -0.0769065 7.84762 0
M  V30 9233 O 1241.87 -2.55232 7.81161 0
M  V30 9234 C 1241.71 -3.79939 8.58154 0
M  V30 9235 C 1242.25 -4.94023 7.72785 0
M  V30 9236 O 1241.19 -5.18726 6.91205 0
M  V30 9237 C 1243.46 -4.69597 6.85231 0
M  V30 9238 O 1244.2 -5.83832 6.51337 0
M  V30 9239 C 1242.8 -3.96706 5.66633 0
M  V30 9240 O 1243.59 -4.15414 4.49689 0
M  V30 9241 C 1241.46 -4.66153 5.59313 0
M  V30 9242 H 1241.49 -5.47679 4.85214 0
M  V30 9243 H 1242.67 -2.89008 5.86566 0
M  V30 9244 H 1244.16 -4.0121 7.36511 0
M  V30 9245 H 1242.46 -5.80182 8.37584 0
M  V30 9246 H 1242.27 -3.73517 9.52265 0
M  V30 9247 H 1240.64 -3.97163 8.80359 0
M  V30 9248 H 1243.28 -4.90969 4.01921 0
M  V30 9249 P 1245.14 -5.75688 6.64379 0
M  V30 9250 O 1246.56 -6.11849 7.01846 0
M  V30 9251 O 1244.78 -4.30744 6.56026 0
M  V30 9252 O 1244.82 -6.37042 5.19165 0
M  V30 9253 C 1244.66 -7.83578 5.16515 0
M  V30 9254 C 1245.2 -8.33398 3.83019 0
M  V30 9255 O 1244.14 -8.10074 3.01034 0
M  V30 9256 C 1246.42 -7.65514 3.2257 0
M  V30 9257 O 1247.15 -8.4329 2.32297 0
M  V30 9258 C 1245.75 -6.40075 2.62207 0
M  V30 9259 O 1246.55 -5.92589 1.53712 0
M  V30 9260 C 1244.41 -6.9454 2.18503 0
M  V30 9261 H 1244.44 -7.23063 1.12091 0
M  V30 9262 H 1245.62 -5.6025 3.37201 0
M  V30 9263 H 1247.11 -7.35707 4.02681 0
M  V30 9264 H 1245.41 -9.40912 3.9095 0
M  V30 9265 H 1245.22 -8.29056 5.99158 0
M  V30 9266 H 1243.59 -8.10073 5.25882 0
M  V30 9267 H 1246.23 -6.30324 0.726794 0
M  V30 9268 P 1248.09 -8.4349 2.47671 0
M  V30 9269 O 1249.51 -8.94167 2.5964 0
M  V30 9270 O 1247.73 -7.1704 3.19006 0
M  V30 9271 O 1247.77 -8.16596 0.923387 0
M  V30 9272 C 1247.61 -9.38437 0.108857 0
M  V30 9273 C 1248.15 -9.08175 -1.28353 0
M  V30 9274 O 1247.09 -8.44229 -1.84713 0
M  V30 9275 C 1249.37 -8.18386 -1.42505 0
M  V30 9276 O 1250.1 -8.3501 -2.60497 0
M  V30 9277 C 1248.7 -6.80225 -1.25468 0
M  V30 9278 O 1249.5 -5.81621 -1.91066 0
M  V30 9279 C 1247.36 -7.02416 -1.9168 0
M  V30 9280 H 1247.39 -6.6888 -2.96621 0
M  V30 9281 H 1248.58 -6.53617 -0.192223 0
M  V30 9282 H 1250.06 -8.36622 -0.589963 0
M  V30 9283 H 1248.37 -10.0291 -1.79807 0
M  V30 9284 H 1248.18 -10.2138 0.558219 0
M  V30 9285 H 1246.55 -9.6579 0.0444202 0
M  V30 9286 H 1249.18 -5.69556 -2.79637 0
M  V30 9287 P 1251.04 -8.4349 -2.47671 0
M  V30 9288 O 1252.46 -8.92593 -2.65 0
M  V30 9289 O 1250.68 -7.7568 -1.19296 0
M  V30 9290 O 1250.72 -7.36886 -3.63805 0
M  V30 9291 C 1250.56 -7.95349 -4.982 0
M  V30 9292 C 1251.1 -6.94612 -5.98974 0
M  V30 9293 O 1250.04 -6.10347 -6.11815 0
M  V30 9294 C 1252.32 -6.11426 -5.62335 0
M  V30 9295 O 1253.05 -5.6162 -6.70584 0
M  V30 9296 C 1251.65 -5.04409 -4.73308 0
M  V30 9297 O 1252.45 -3.85992 -4.75183 0
M  V30 9298 C 1250.31 -4.8728 -5.41006 0
M  V30 9299 H 1250.34 -4.02333 -6.11157 0
M  V30 9300 H 1251.53 -5.39466 -3.69543 0
M  V30 9301 H 1253.01 -6.71916 -5.01943 0
M  V30 9302 H 1251.32 -7.4649 -6.93477 0
M  V30 9303 H 1251.13 -8.89416 -5.05237 0
M  V30 9304 H 1249.5 -8.14876 -5.18409 0
M  V30 9305 H 1252.13 -3.27957 -5.4317 0
M  V30 9306 P 1253.99 -5.75688 -6.64379 0
M  V30 9307 O 1255.41 -6.07627 -7.05504 0
M  V30 9308 O 1253.63 -5.88047 -5.19722 0
M  V30 9309 O 1253.67 -4.2322 -7.04443 0
M  V30 9310 C 1253.51 -3.99743 -8.4911 0
M  V30 9311 C 1254.05 -2.60516 -8.79425 0
M  V30 9312 O 1252.99 -1.82684 -8.4467 0
M  V30 9313 C 1255.27 -2.10343 -8.03628 0
M  V30 9314 O 1256.01 -1.09919 -8.67766 0
M  V30 9315 C 1254.6 -1.68446 -6.70876 0
M  V30 9316 O 1255.4 -0.678137 -6.08433 0
M  V30 9317 C 1253.26 -1.17436 -7.18567 0
M  V30 9318 H 1253.29 -0.0804732 -7.31656 0
M  V30 9319 H 1254.48 -2.54037 -6.02537 0
M  V30 9320 H 1255.96 -2.93881 -7.85526 0
M  V30 9321 H 1254.27 -2.53065 -9.86973 0
M  V30 9322 H 1254.08 -4.75072 -9.05887 0
M  V30 9323 H 1252.45 -4.05244 -8.76668 0
M  V30 9324 H 1255.09 0.177647 -6.34251 0
M  V30 9325 P 1256.94 -1.25109 -8.70152 0
M  V30 9326 O 1258.36 -1.29744 -9.22016 0
M  V30 9327 O 1256.58 -2.13714 -7.55141 0
M  V30 9328 O 1256.62 0.248149 -8.21425 0
M  V30 9329 C 1256.46 1.22779 -9.30434 0
M  V30 9330 C 1257 2.56293 -8.80664 0
M  V30 9331 O 1255.94 3.02979 -8.09349 0
M  V30 9332 C 1258.22 2.57523 -7.89775 0
M  V30 9333 O 1258.96 3.7668 -7.89438 0
M  V30 9334 C 1257.55 2.20997 -6.55446 0
M  V30 9335 O 1258.35 2.71895 -5.48509 0
M  V30 9336 C 1256.21 2.89693 -6.67988 0
M  V30 9337 H 1256.24 3.88793 -6.19859 0
M  V30 9338 H 1257.43 1.12046 -6.44229 0
M  V30 9339 H 1258.91 1.7746 -8.19711 0
M  V30 9340 H 1257.22 3.20706 -9.67112 0
M  V30 9341 H 1257.03 0.901032 -10.1892 0
M  V30 9342 H 1255.4 1.33049 -9.56592 0
M  V30 9343 H 1258.04 3.57847 -5.23962 0
M  V30 9344 P 1259.89 3.65191 -7.99657 0
M  V30 9345 O 1261.32 3.89332 -8.45794 0
M  V30 9346 O 1259.53 2.28472 -7.50807 0
M  V30 9347 O 1259.57 4.64972 -6.77611 0
M  V30 9348 C 1259.41 6.06319 -7.16352 0
M  V30 9349 C 1259.95 6.91731 -6.02299 0
M  V30 9350 O 1258.89 6.92449 -5.17064 0
M  V30 9351 C 1261.17 6.43627 -5.25174 0
M  V30 9352 O 1261.91 7.43686 -4.60469 0
M  V30 9353 C 1260.5 5.40275 -4.31916 0
M  V30 9354 O 1261.3 5.25279 -3.14438 0
M  V30 9355 C 1259.16 6.04847 -4.05327 0
M  V30 9356 H 1259.19 6.62195 -3.11261 0
M  V30 9357 H 1260.38 4.42556 -4.81383 0
M  V30 9358 H 1261.86 5.92458 -5.93643 0
M  V30 9359 H 1260.17 7.92655 -6.402 0
M  V30 9360 H 1259.98 6.26671 -8.0846 0
M  V30 9361 H 1258.35 6.29101 -7.32804 0
M  V30 9362 H 1260.99 5.84315 -2.47318 0
M  V30 9363 P 1262.84 7.39546 -4.75277 0
M  V30 9364 O 1264.27 7.84798 -5.01039 0
M  V30 9365 O 1262.48 5.9812 -5.08098 0
M  V30 9366 O 1262.52 7.57503 -3.1866 0
M  V30 9367 C 1262.36 8.97357 -2.74833 0
M  V30 9368 C 1262.9 9.07548 -1.32709 0
M  V30 9369 O 1261.84 8.62072 -0.606159 0
M  V30 9370 C 1264.12 8.25383 -0.938334 0
M  V30 9371 O 1264.86 8.74577 0.146954 0
M  V30 9372 C 1263.45 6.8802 -0.712559 0
M  V30 9373 O 1264.25 6.1189 0.194655 0
M  V30 9374 C 1262.11 7.27966 -0.139777 0
M  V30 9375 H 1262.14 7.25354 0.961601 0
M  V30 9376 H 1263.33 6.32557 -1.65702 0
M  V30 9377 H 1264.81 8.19355 -1.79097 0
M  V30 9378 H 1263.12 10.1294 -1.10029 0
M  V30 9379 H 1262.93 9.64276 -3.41316 0
M  V30 9380 H 1261.3 9.25417 -2.76357 0
M  V30 9381 H 1263.94 6.25267 1.07847 0
M  V30 9382 P 1265.79 8.791 1.03475e-11 0
M  V30 9383 O 1267.22 9.31096 0.027933 0
M  V30 9384 O 1265.43 7.77869 -1.04071 0
M  V30 9385 O 1265.47 8.09533 1.41463 0
M  V30 9386 C 1265.31 9.0349 2.53943 0
M  V30 9387 C 1265.85 8.35226 3.79016 0
M  V30 9388 O 1264.8 7.57992 4.15078 0
M  V30 9389 C 1267.07 7.45087 3.67298 0
M  V30 9390 O 1267.81 7.27796 4.85194 0
M  V30 9391 C 1266.4 6.17323 3.12027 0
M  V30 9392 O 1267.2 5.04231 3.47188 0
M  V30 9393 C 1265.06 6.19961 3.81809 0
M  V30 9394 H 1265.1 5.58218 4.73051 0
M  V30 9395 H 1266.28 6.21726 2.02589 0
M  V30 9396 H 1267.76 7.86112 2.9231 0
M  V30 9397 H 1266.07 9.11627 4.55076 0
M  V30 9398 H 1265.88 9.9573 2.34194 0
M  V30 9399 H 1264.25 9.2792 2.67832 0
M  V30 9400 H 1266.89 4.67702 4.28772 0
M  V30 9401 P 1268.75 7.39546 4.75277 0
M  V30 9402 O 1270.17 7.81777 5.05738 0
M  V30 9403 O 1268.39 7.1065 3.32998 0
M  V30 9404 O 1268.42 6.04542 5.56673 0
M  V30 9405 C 1268.26 6.22772 7.02095 0
M  V30 9406 C 1268.8 4.97725 7.70406 0
M  V30 9407 O 1267.75 4.13256 7.58987 0
M  V30 9408 C 1270.02 4.28231 7.11815 0
M  V30 9409 O 1270.76 3.49945 8.01648 0
M  V30 9410 C 1269.35 3.5063 5.96244 0
M  V30 9411 O 1270.15 2.36482 5.64681 0
M  V30 9412 C 1268.01 3.15122 6.56374 0
M  V30 9413 H 1268.05 2.13853 6.99751 0
M  V30 9414 H 1269.23 4.13501 5.06559 0
M  V30 9415 H 1270.71 5.03285 6.70911 0
M  V30 9416 H 1269.02 5.20877 8.75697 0
M  V30 9417 H 1268.83 7.11046 7.35349 0
M  V30 9418 H 1267.2 6.35815 7.26986 0
M  V30 9419 H 1269.84 1.61644 6.13565 0
M  V30 9420 P 1271.7 3.65191 7.99657 0
M  V30 9421 O 1273.12 3.8425 8.48115 0
M  V30 9422 O 1271.34 4.17805 6.64342 0
M  V30 9423 O 1271.37 2.07613 7.95143 0
M  V30 9424 C 1271.21 1.44328 9.27336 0
M  V30 9425 C 1271.75 0.0220036 9.17197 0
M  V30 9426 O 1270.7 -0.626867 8.61923 0
M  V30 9427 C 1272.97 -0.24586 8.30336 0
M  V30 9428 O 1273.71 -1.39011 8.63583 0
M  V30 9429 C 1272.3 -0.273849 6.91158 0
M  V30 9430 O 1273.1 -1.06348 6.02892 0
M  V30 9431 C 1270.96 -0.897649 7.22545 0
M  V30 9432 H 1271 -1.9841 7.04286 0
M  V30 9433 H 1272.18 0.739928 6.497 0
M  V30 9434 H 1273.66 0.60668 8.36503 0
M  V30 9435 H 1271.97 -0.352479 10.1829 0
M  V30 9436 H 1271.78 2.00611 10.0304 0
M  V30 9437 H 1270.15 1.41843 9.55327 0
M  V30 9438 H 1272.79 -1.95734 6.03555 0
M  V30 9439 P 1274.65 -1.25109 8.70152 0
M  V30 9440 O 1276.07 -1.35274 9.21221 0
M  V30 9441 O 1274.29 -0.0769065 7.84762 0
M  V30 9442 O 1274.32 -2.55232 7.81161 0
M  V30 9443 C 1274.16 -3.79939 8.58154 0
M  V30 9444 C 1274.7 -4.94023 7.72785 0
M  V30 9445 O 1273.65 -5.18726 6.91205 0
M  V30 9446 C 1275.92 -4.69597 6.85231 0
M  V30 9447 O 1276.66 -5.83832 6.51337 0
M  V30 9448 C 1275.25 -3.96706 5.66633 0
M  V30 9449 O 1276.05 -4.15414 4.49689 0
M  V30 9450 C 1273.92 -4.66153 5.59313 0
M  V30 9451 H 1273.95 -5.47679 4.85214 0
M  V30 9452 H 1275.13 -2.89008 5.86566 0
M  V30 9453 H 1276.61 -4.0121 7.36511 0
M  V30 9454 H 1274.92 -5.80182 8.37584 0
M  V30 9455 H 1274.73 -3.73517 9.52265 0
M  V30 9456 H 1273.1 -3.97163 8.80359 0
M  V30 9457 H 1275.74 -4.90969 4.01921 0
M  V30 9458 P 1277.6 -5.75688 6.64379 0
M  V30 9459 O 1279.02 -6.11849 7.01846 0
M  V30 9460 O 1277.24 -4.30744 6.56026 0
M  V30 9461 O 1277.27 -6.37042 5.19165 0
M  V30 9462 C 1277.11 -7.83578 5.16515 0
M  V30 9463 C 1277.65 -8.33398 3.83019 0
M  V30 9464 O 1276.6 -8.10074 3.01034 0
M  V30 9465 C 1278.87 -7.65514 3.2257 0
M  V30 9466 O 1279.61 -8.4329 2.32297 0
M  V30 9467 C 1278.2 -6.40075 2.62207 0
M  V30 9468 O 1279 -5.92589 1.53712 0
M  V30 9469 C 1276.87 -6.9454 2.18503 0
M  V30 9470 H 1276.9 -7.23063 1.12091 0
M  V30 9471 H 1278.08 -5.6025 3.37201 0
M  V30 9472 H 1279.56 -7.35707 4.02681 0
M  V30 9473 H 1277.87 -9.40912 3.9095 0
M  V30 9474 H 1277.68 -8.29056 5.99158 0
M  V30 9475 H 1276.05 -8.10073 5.25882 0
M  V30 9476 H 1278.69 -6.30324 0.726794 0
M  V30 9477 P 1280.55 -8.4349 2.47671 0
M  V30 9478 O 1281.97 -8.94167 2.5964 0
M  V30 9479 O 1280.19 -7.1704 3.19006 0
M  V30 9480 O 1280.22 -8.16596 0.923387 0
M  V30 9481 C 1280.06 -9.38437 0.108857 0
M  V30 9482 C 1280.6 -9.08175 -1.28353 0
M  V30 9483 O 1279.55 -8.44229 -1.84713 0
M  V30 9484 C 1281.82 -8.18386 -1.42505 0
M  V30 9485 O 1282.56 -8.3501 -2.60497 0
M  V30 9486 C 1281.15 -6.80225 -1.25468 0
M  V30 9487 O 1281.95 -5.81621 -1.91066 0
M  V30 9488 C 1279.82 -7.02416 -1.9168 0
M  V30 9489 H 1279.85 -6.6888 -2.96621 0
M  V30 9490 H 1281.03 -6.53617 -0.192223 0
M  V30 9491 H 1282.52 -8.36622 -0.589963 0
M  V30 9492 H 1280.82 -10.0291 -1.79807 0
M  V30 9493 H 1280.63 -10.2138 0.558219 0
M  V30 9494 H 1279 -9.6579 0.0444202 0
M  V30 9495 H 1281.64 -5.69556 -2.79637 0
M  V30 9496 P 1283.5 -8.4349 -2.47671 0
M  V30 9497 O 1284.92 -8.92785 -2.65057 0
M  V30 9498 O 1283.14 -7.7568 -1.19296 0
M  V30 9499 O 1283.17 -7.36886 -3.63805 0
M  V30 9500 C 1283.01 -7.95349 -4.982 0
M  V30 9501 C 1283.55 -6.94537 -5.98908 0
M  V30 9502 O 1282.5 -6.10347 -6.11815 0
M  V30 9503 C 1284.77 -6.11426 -5.62335 0
M  V30 9504 O 1285.51 -5.6162 -6.70584 0
M  V30 9505 C 1284.1 -5.04409 -4.73308 0
M  V30 9506 O 1284.9 -3.85929 -4.75106 0
M  V30 9507 C 1282.77 -4.8728 -5.41006 0
M  V30 9508 N 1281.72 -4.65812 -4.42377 0
M  V30 9509 C 1281.79 -5.27109 -3.24335 0
M  V30 9510 N 1280.74 -4.94293 -2.47735 0
M  V30 9511 C 1280.01 -4.1271 -3.23359 0
M  V30 9512 C 1278.7 -3.56384 -2.99934 0
M  V30 9513 O 1277.97 -3.69331 -2.00616 0
M  V30 9514 N 1278.27 -2.80206 -4.03316 0
M  V30 9515 C 1279.02 -2.58614 -5.2172 0
M  V30 9516 N 1278.42 -1.75154 -6.13278 0
M  V30 9517 N 1280.17 -3.13689 -5.47619 0
M  V30 9518 C 1280.63 -3.90921 -4.46436 0
M  V30 9519 H 1282.8 -4.02333 -6.11157 0
M  V30 9520 H 1283.98 -5.39383 -3.69487 0
M  V30 9521 H 1285.47 -6.71414 -5.02615 0
M  V30 9522 H 1283.77 -7.4649 -6.93477 0
M  V30 9523 H 1283.58 -8.89416 -5.05237 0
M  V30 9524 H 1281.95 -8.14876 -5.18409 0
M  V30 9525 H 1277.37 -2.36355 -3.95916 0
M  V30 9526 H 1282.58 -5.95212 -2.93859 0
M  V30 9527 H 1277.51 -1.32473 -5.91856 0
M  V30 9528 H 1278.89 -1.5588 -7.03026 0
M  V30 9529 H 1284.59 -3.27906 -5.43085 0
M  V30 9530 P 1286.45 -5.75688 -6.64379 0
M  V30 9531 O 1287.87 -6.07627 -7.05504 0
M  V30 9532 O 1286.09 -5.88047 -5.19722 0
M  V30 9533 O 1286.13 -4.2322 -7.04443 0
M  V30 9534 C 1285.97 -3.99743 -8.4911 0
M  V30 9535 C 1286.51 -2.60516 -8.79425 0
M  V30 9536 O 1285.45 -1.82684 -8.4467 0
M  V30 9537 C 1287.72 -2.10343 -8.03628 0
M  V30 9538 O 1288.46 -1.09919 -8.67766 0
M  V30 9539 C 1287.05 -1.68446 -6.70876 0
M  V30 9540 O 1287.85 -0.678137 -6.08433 0
M  V30 9541 C 1285.72 -1.17436 -7.18567 0
M  V30 9542 H 1285.75 -0.0804732 -7.31656 0
M  V30 9543 H 1286.93 -2.54037 -6.02537 0
M  V30 9544 H 1288.42 -2.93881 -7.85526 0
M  V30 9545 H 1286.72 -2.53065 -9.86973 0
M  V30 9546 H 1286.53 -4.75072 -9.05887 0
M  V30 9547 H 1284.9 -4.05244 -8.76668 0
M  V30 9548 H 1287.54 0.177647 -6.34251 0
M  V30 9549 P 1289.4 -1.25109 -8.70152 0
M  V30 9550 O 1290.82 -1.29772 -9.22214 0
M  V30 9551 O 1289.04 -2.13714 -7.55141 0
M  V30 9552 O 1289.08 0.248149 -8.21425 0
M  V30 9553 C 1288.92 1.22779 -9.30434 0
M  V30 9554 C 1289.46 2.56265 -8.80568 0
M  V30 9555 O 1288.4 3.02979 -8.09349 0
M  V30 9556 C 1290.67 2.57523 -7.89775 0
M  V30 9557 O 1291.41 3.7668 -7.89438 0
M  V30 9558 C 1290.01 2.20997 -6.55446 0
M  V30 9559 O 1290.8 2.71851 -5.48419 0
M  V30 9560 C 1288.67 2.89693 -6.67988 0
M  V30 9561 N 1287.63 2.08895 -6.07487 0
M  V30 9562 C 1287.69 0.760559 -6.14209 0
M  V30 9563 N 1286.64 0.200108 -5.52538 0
M  V30 9564 C 1285.91 1.22692 -5.09742 0
M  V30 9565 C 1284.6 1.24782 -4.48775 0
M  V30 9566 O 1283.87 0.290617 -4.19294 0
M  V30 9567 N 1284.17 2.50468 -4.22428 0
M  V30 9568 C 1284.92 3.67142 -4.51974 0
M  V30 9569 N 1284.32 4.85096 -4.14091 0
M  V30 9570 N 1286.07 3.67821 -5.12831 0
M  V30 9571 C 1286.53 2.43698 -5.4105 0
M  V30 9572 H 1288.7 3.88793 -6.19859 0
M  V30 9573 H 1289.88 1.12029 -6.4413 0
M  V30 9574 H 1291.37 1.78279 -8.19533 0
M  V30 9575 H 1289.67 3.20706 -9.67112 0
M  V30 9576 H 1289.48 0.901032 -10.1892 0
M  V30 9577 H 1287.85 1.33049 -9.56592 0
M  V30 9578 H 1283.28 2.61953 -3.79465 0
M  V30 9579 H 1288.48 0.200439 -6.63497 0
M  V30 9580 H 1283.41 4.8334 -3.66367 0
M  V30 9581 H 1284.79 5.7474 -4.33841 0
M  V30 9582 H 1290.49 3.5779 -5.23879 0
M  V30 9583 P 1292.35 3.65191 -7.99657 0
M  V30 9584 O 1293.77 3.89332 -8.45794 0
M  V30 9585 O 1291.99 2.28472 -7.50807 0
M  V30 9586 O 1292.03 4.64972 -6.77611 0
M  V30 9587 C 1291.87 6.06319 -7.16352 0
M  V30 9588 C 1292.41 6.91731 -6.02299 0
M  V30 9589 O 1291.35 6.92449 -5.17064 0
M  V30 9590 C 1293.62 6.43627 -5.25174 0
M  V30 9591 O 1294.36 7.43686 -4.60469 0
M  V30 9592 C 1292.96 5.40275 -4.31916 0
M  V30 9593 O 1293.75 5.25279 -3.14438 0
M  V30 9594 C 1291.62 6.04847 -4.05327 0
M  V30 9595 H 1291.65 6.62195 -3.11261 0
M  V30 9596 H 1292.83 4.42556 -4.81383 0
M  V30 9597 H 1294.32 5.92458 -5.93643 0
M  V30 9598 H 1292.62 7.92655 -6.402 0
M  V30 9599 H 1292.43 6.26671 -8.0846 0
M  V30 9600 H 1290.8 6.29101 -7.32804 0
M  V30 9601 H 1293.44 5.84315 -2.47318 0
M  V30 9602 P 1295.3 7.39546 -4.75277 0
M  V30 9603 O 1296.72 7.84798 -5.01039 0
M  V30 9604 O 1294.94 5.9812 -5.08098 0
M  V30 9605 O 1294.98 7.57503 -3.1866 0
M  V30 9606 C 1294.82 8.97357 -2.74833 0
M  V30 9607 C 1295.36 9.07548 -1.32709 0
M  V30 9608 O 1294.3 8.62072 -0.606159 0
M  V30 9609 C 1296.58 8.25383 -0.938334 0
M  V30 9610 O 1297.31 8.74577 0.146954 0
M  V30 9611 C 1295.91 6.8802 -0.712559 0
M  V30 9612 O 1296.71 6.1189 0.194655 0
M  V30 9613 C 1294.57 7.27966 -0.139777 0
M  V30 9614 H 1294.6 7.25354 0.961601 0
M  V30 9615 H 1295.78 6.32557 -1.65702 0
M  V30 9616 H 1297.27 8.19355 -1.79097 0
M  V30 9617 H 1295.57 10.1294 -1.10029 0
M  V30 9618 H 1295.38 9.64276 -3.41316 0
M  V30 9619 H 1293.75 9.25417 -2.76357 0
M  V30 9620 H 1296.39 6.25267 1.07847 0
M  V30 9621 P 1298.25 8.791 1.06576e-11 0
M  V30 9622 O 1299.67 9.31096 0.027933 0
M  V30 9623 O 1297.89 7.77869 -1.04071 0
M  V30 9624 O 1297.93 8.09533 1.41463 0
M  V30 9625 C 1297.77 9.0349 2.53943 0
M  V30 9626 C 1298.31 8.35226 3.79016 0
M  V30 9627 O 1297.25 7.57992 4.15078 0
M  V30 9628 C 1299.53 7.45087 3.67298 0
M  V30 9629 O 1300.26 7.27796 4.85194 0
M  V30 9630 C 1298.86 6.17323 3.12027 0
M  V30 9631 O 1299.66 5.04231 3.47188 0
M  V30 9632 C 1297.52 6.19961 3.81809 0
M  V30 9633 H 1297.55 5.58218 4.73051 0
M  V30 9634 H 1298.73 6.21726 2.02589 0
M  V30 9635 H 1300.22 7.86112 2.9231 0
M  V30 9636 H 1298.52 9.11627 4.55076 0
M  V30 9637 H 1298.33 9.9573 2.34194 0
M  V30 9638 H 1296.7 9.2792 2.67832 0
M  V30 9639 H 1299.34 4.67702 4.28772 0
M  V30 9640 P 1301.2 7.39546 4.75277 0
M  V30 9641 O 1302.62 7.81861 5.05793 0
M  V30 9642 O 1300.84 7.1065 3.32998 0
M  V30 9643 O 1300.88 6.04542 5.56673 0
M  V30 9644 C 1300.72 6.22839 7.02169 0
M  V30 9645 C 1301.26 4.97725 7.70406 0
M  V30 9646 O 1300.2 4.13208 7.58899 0
M  V30 9647 C 1302.48 4.28231 7.11815 0
M  V30 9648 O 1303.21 3.49945 8.01648 0
M  V30 9649 C 1301.81 3.5063 5.96244 0
M  V30 9650 O 1302.61 2.37008 5.64352 0
M  V30 9651 C 1300.47 3.15122 6.56374 0
M  V30 9652 N 1299.43 3.22311 5.55692 0
M  V30 9653 C 1299.6 3.99655 4.46046 0
M  V30 9654 N 1298.57 3.97599 3.63918 0
M  V30 9655 C 1297.68 3.11159 4.25334 0
M  V30 9656 C 1296.42 2.64972 3.85157 0
M  V30 9657 N 1295.82 3.02132 2.69405 0
M  V30 9658 N 1295.85 1.78482 4.74759 0
M  V30 9659 C 1296.45 1.37463 5.90819 0
M  V30 9660 N 1297.63 1.7733 6.31889 0
M  V30 9661 C 1298.21 2.64393 5.43725 0
M  V30 9662 H 1300.5 2.13823 6.99656 0
M  V30 9663 H 1301.69 4.12931 5.06895 0
M  V30 9664 H 1303.17 5.03285 6.70911 0
M  V30 9665 H 1301.47 5.20001 8.76217 0
M  V30 9666 H 1301.28 7.11046 7.35349 0
M  V30 9667 H 1299.65 6.35815 7.26986 0
M  V30 9668 H 1295.92 0.66574 6.53015 0
M  V30 9669 H 1300.5 4.58037 4.27732 0
M  V30 9670 H 1294.89 2.64828 2.45331 0
M  V30 9671 H 1296.29 3.67472 2.05644 0
M  V30 9672 H 1302.29 1.61619 6.13468 0
M  V30 9673 P 1304.15 3.65191 7.99657 0
M  V30 9674 O 1305.57 3.8425 8.48115 0
M  V30 9675 O 1303.79 4.17805 6.64342 0
M  V30 9676 O 1303.83 2.07613 7.95143 0
M  V30 9677 C 1303.67 1.44328 9.27336 0
M  V30 9678 C 1304.21 0.0220036 9.17197 0
M  V30 9679 O 1303.15 -0.626867 8.61923 0
M  V30 9680 C 1305.43 -0.24586 8.30336 0
M  V30 9681 O 1306.16 -1.39011 8.63583 0
M  V30 9682 C 1304.76 -0.273849 6.91158 0
M  V30 9683 O 1305.56 -1.06348 6.02892 0
M  V30 9684 C 1303.42 -0.897649 7.22545 0
M  V30 9685 H 1303.45 -1.9841 7.04286 0
M  V30 9686 H 1304.64 0.739928 6.497 0
M  V30 9687 H 1306.12 0.60668 8.36503 0
M  V30 9688 H 1304.43 -0.352479 10.1829 0
M  V30 9689 H 1304.24 2.00611 10.0304 0
M  V30 9690 H 1302.61 1.41843 9.55327 0
M  V30 9691 H 1305.24 -1.95734 6.03555 0
M  V30 9692 P 1307.1 -1.25109 8.70152 0
M  V30 9693 O 1308.52 -1.35274 9.21221 0
M  V30 9694 O 1306.74 -0.0769065 7.84762 0
M  V30 9695 O 1306.78 -2.55232 7.81161 0
M  V30 9696 C 1306.62 -3.79939 8.58154 0
M  V30 9697 C 1307.16 -4.94023 7.72785 0
M  V30 9698 O 1306.1 -5.18726 6.91205 0
M  V30 9699 C 1308.38 -4.69597 6.85231 0
M  V30 9700 O 1309.12 -5.83832 6.51337 0
M  V30 9701 C 1307.71 -3.96706 5.66633 0
M  V30 9702 O 1308.51 -4.15414 4.49689 0
M  V30 9703 C 1306.37 -4.66153 5.59313 0
M  V30 9704 H 1306.4 -5.47679 4.85214 0
M  V30 9705 H 1307.59 -2.89008 5.86566 0
M  V30 9706 H 1309.07 -4.0121 7.36511 0
M  V30 9707 H 1307.38 -5.80182 8.37584 0
M  V30 9708 H 1307.19 -3.73517 9.52265 0
M  V30 9709 H 1305.56 -3.97163 8.80359 0
M  V30 9710 H 1308.2 -4.90969 4.01921 0
M  V30 9711 P 1310.05 -5.75688 6.64379 0
M  V30 9712 O 1311.48 -6.11849 7.01846 0
M  V30 9713 O 1309.69 -4.30744 6.56026 0
M  V30 9714 O 1309.73 -6.37042 5.19165 0
M  V30 9715 C 1309.57 -7.83578 5.16515 0
M  V30 9716 C 1310.11 -8.33398 3.83019 0
M  V30 9717 O 1309.05 -8.10074 3.01034 0
M  V30 9718 C 1311.33 -7.65514 3.2257 0
M  V30 9719 O 1312.07 -8.4329 2.32297 0
M  V30 9720 C 1310.66 -6.40075 2.62207 0
M  V30 9721 O 1311.46 -5.92589 1.53712 0
M  V30 9722 C 1309.32 -6.9454 2.18503 0
M  V30 9723 H 1309.35 -7.23063 1.12091 0
M  V30 9724 H 1310.54 -5.6025 3.37201 0
M  V30 9725 H 1312.02 -7.35707 4.02681 0
M  V30 9726 H 1310.33 -9.40912 3.9095 0
M  V30 9727 H 1310.14 -8.29056 5.99158 0
M  V30 9728 H 1308.51 -8.10073 5.25882 0
M  V30 9729 H 1311.15 -6.30324 0.726794 0
M  V30 9730 P 1313 -8.4349 2.47671 0
M  V30 9731 O 1314.4 -8.98227 2.65696 0
M  V30 9732 O 1312.63 -7.20409 3.23964 0
M  V30 9733 O 1312.68 -8.16496 0.923275 0
M  V30 9734 C 1312.52 -9.38437 0.108857 0
M  V30 9735 C 1313.06 -9.08076 -1.28339 0
M  V30 9736 O 1312 -8.44131 -1.84692 0
M  V30 9737 C 1314.28 -8.18386 -1.42505 0
M  V30 9738 O 1315.02 -8.3501 -2.60497 0
M  V30 9739 C 1313.61 -6.80225 -1.25468 0
M  V30 9740 O 1314.41 -5.81526 -1.91035 0
M  V30 9741 C 1312.27 -7.02416 -1.9168 0
M  V30 9742 N 1311.23 -6.31033 -1.20314 0
M  V30 9743 C 1310.19 -5.77149 -1.928 0
M  V30 9744 O 1310.23 -5.8521 -3.17729 0
M  V30 9745 N 1309.18 -5.15445 -1.27997 0
M  V30 9746 C 1309.23 -5.04472 0.0534726 0
M  V30 9747 N 1308.22 -4.44183 0.669496 0
M  V30 9748 C 1310.33 -5.55244 0.808522 0
M  V30 9749 C 1311.29 -6.18542 0.13981 0
M  V30 9750 H 1312.3 -6.68789 -2.9658 0
M  V30 9751 H 1313.49 -6.53498 -0.198729 0
M  V30 9752 H 1314.97 -8.36663 -0.5984 0
M  V30 9753 H 1313.28 -10.0273 -1.8081 0
M  V30 9754 H 1313.09 -10.2138 0.558219 0
M  V30 9755 H 1311.46 -9.6569 0.0444156 0
M  V30 9756 H 1310.37 -5.43017 1.88792 0
M  V30 9757 H 1312.14 -6.60539 0.686773 0
M  V30 9758 H 1307.43 -4.07222 0.12057 0
M  V30 9759 H 1308.23 -4.34288 1.69244 0
M  V30 9760 H 1314.19 -5.79638 -2.8315 0
M  V30 9761 P 1315.95 -8.4349 -2.47671 0
M  V30 9762 O 1317.38 -8.92593 -2.65 0
M  V30 9763 O 1315.59 -7.7568 -1.19296 0
M  V30 9764 O 1315.63 -7.36886 -3.63805 0
M  V30 9765 C 1315.47 -7.95349 -4.982 0
M  V30 9766 C 1316.01 -6.94612 -5.98974 0
M  V30 9767 O 1314.96 -6.10347 -6.11815 0
M  V30 9768 C 1317.23 -6.11426 -5.62335 0
M  V30 9769 O 1317.97 -5.6162 -6.70584 0
M  V30 9770 C 1316.56 -5.04409 -4.73308 0
M  V30 9771 O 1317.36 -3.85992 -4.75183 0
M  V30 9772 C 1315.22 -4.8728 -5.41006 0
M  V30 9773 H 1315.26 -4.02333 -6.11157 0
M  V30 9774 H 1316.44 -5.39466 -3.69543 0
M  V30 9775 H 1317.92 -6.71916 -5.01943 0
M  V30 9776 H 1316.23 -7.4649 -6.93477 0
M  V30 9777 H 1316.04 -8.89416 -5.05237 0
M  V30 9778 H 1314.41 -8.14876 -5.18409 0
M  V30 9779 H 1317.05 -3.27957 -5.4317 0
M  V30 9780 P 1318.9 -5.75688 -6.64379 0
M  V30 9781 O 1320.33 -6.07627 -7.05504 0
M  V30 9782 O 1318.54 -5.88047 -5.19722 0
M  V30 9783 O 1318.58 -4.2322 -7.04443 0
M  V30 9784 C 1318.42 -3.99743 -8.4911 0
M  V30 9785 C 1318.96 -2.60516 -8.79425 0
M  V30 9786 O 1317.91 -1.82684 -8.4467 0
M  V30 9787 C 1320.18 -2.10343 -8.03628 0
M  V30 9788 O 1320.92 -1.09919 -8.67766 0
M  V30 9789 C 1319.51 -1.68446 -6.70876 0
M  V30 9790 O 1320.31 -0.678137 -6.08433 0
M  V30 9791 C 1318.17 -1.17436 -7.18567 0
M  V30 9792 H 1318.21 -0.0804732 -7.31656 0
M  V30 9793 H 1319.39 -2.54037 -6.02537 0
M  V30 9794 H 1320.87 -2.93881 -7.85526 0
M  V30 9795 H 1319.18 -2.53065 -9.86973 0
M  V30 9796 H 1318.99 -4.75072 -9.05887 0
M  V30 9797 H 1317.36 -4.05244 -8.76668 0
M  V30 9798 H 1320 0.177647 -6.34251 0
M  V30 9799 P 1321.86 -1.25109 -8.70152 0
M  V30 9800 O 1323.28 -1.29744 -9.22016 0
M  V30 9801 O 1321.5 -2.13714 -7.55141 0
M  V30 9802 O 1321.53 0.248149 -8.21425 0
M  V30 9803 C 1321.37 1.22779 -9.30434 0
M  V30 9804 C 1321.91 2.56293 -8.80664 0
M  V30 9805 O 1320.86 3.02979 -8.09349 0
M  V30 9806 C 1323.13 2.57523 -7.89775 0
M  V30 9807 O 1323.87 3.7668 -7.89438 0
M  V30 9808 C 1322.46 2.20997 -6.55446 0
M  V30 9809 O 1323.26 2.71895 -5.48509 0
M  V30 9810 C 1321.12 2.89693 -6.67988 0
M  V30 9811 H 1321.16 3.88793 -6.19859 0
M  V30 9812 H 1322.34 1.12046 -6.44229 0
M  V30 9813 H 1323.82 1.7746 -8.19711 0
M  V30 9814 H 1322.13 3.20706 -9.67112 0
M  V30 9815 H 1321.94 0.901032 -10.1892 0
M  V30 9816 H 1320.31 1.33049 -9.56592 0
M  V30 9817 H 1322.95 3.57847 -5.23962 0
M  V30 9818 P 1324.81 3.65191 -7.99657 0
M  V30 9819 O 1326.23 3.89332 -8.45794 0
M  V30 9820 O 1324.45 2.28472 -7.50807 0
M  V30 9821 O 1324.48 4.64972 -6.77611 0
M  V30 9822 C 1324.32 6.06319 -7.16352 0
M  V30 9823 C 1324.86 6.91731 -6.02299 0
M  V30 9824 O 1323.81 6.92449 -5.17064 0
M  V30 9825 C 1326.08 6.43627 -5.25174 0
M  V30 9826 O 1326.82 7.43686 -4.60469 0
M  V30 9827 C 1325.41 5.40275 -4.31916 0
M  V30 9828 O 1326.21 5.25279 -3.14438 0
M  V30 9829 C 1324.07 6.04847 -4.05327 0
M  V30 9830 H 1324.11 6.62195 -3.11261 0
M  V30 9831 H 1325.29 4.42556 -4.81383 0
M  V30 9832 H 1326.77 5.92458 -5.93643 0
M  V30 9833 H 1325.08 7.92655 -6.402 0
M  V30 9834 H 1324.89 6.26671 -8.0846 0
M  V30 9835 H 1323.26 6.29101 -7.32804 0
M  V30 9836 H 1325.9 5.84315 -2.47318 0
M  V30 9837 P 1327.76 7.39546 -4.75277 0
M  V30 9838 O 1329.18 7.84798 -5.01039 0
M  V30 9839 O 1327.4 5.9812 -5.08098 0
M  V30 9840 O 1327.43 7.57503 -3.1866 0
M  V30 9841 C 1327.27 8.97357 -2.74833 0
M  V30 9842 C 1327.81 9.07548 -1.32709 0
M  V30 9843 O 1326.76 8.62072 -0.606159 0
M  V30 9844 C 1329.03 8.25383 -0.938334 0
M  V30 9845 O 1329.77 8.74577 0.146954 0
M  V30 9846 C 1328.36 6.8802 -0.712559 0
M  V30 9847 O 1329.16 6.1189 0.194655 0
M  V30 9848 C 1327.03 7.27966 -0.139777 0
M  V30 9849 H 1327.06 7.25354 0.961601 0
M  V30 9850 H 1328.24 6.32557 -1.65702 0
M  V30 9851 H 1329.72 8.19355 -1.79097 0
M  V30 9852 H 1328.03 10.1294 -1.10029 0
M  V30 9853 H 1327.84 9.64276 -3.41316 0
M  V30 9854 H 1326.21 9.25417 -2.76357 0
M  V30 9855 H 1328.85 6.25267 1.07847 0
M  V30 9856 P 1330.71 8.791 1.0718e-11 0
M  V30 9857 O 1332.13 9.31096 0.027933 0
M  V30 9858 O 1330.35 7.77869 -1.04071 0
M  V30 9859 O 1330.38 8.09533 1.41463 0
M  V30 9860 C 1330.22 9.0349 2.53943 0
M  V30 9861 C 1330.76 8.35226 3.79016 0
M  V30 9862 O 1329.71 7.57992 4.15078 0
M  V30 9863 C 1331.98 7.45087 3.67298 0
M  V30 9864 O 1332.72 7.27796 4.85194 0
M  V30 9865 C 1331.31 6.17323 3.12027 0
M  V30 9866 O 1332.11 5.04231 3.47188 0
M  V30 9867 C 1329.98 6.19961 3.81809 0
M  V30 9868 H 1330.01 5.58218 4.73051 0
M  V30 9869 H 1331.19 6.21726 2.02589 0
M  V30 9870 H 1332.68 7.86112 2.9231 0
M  V30 9871 H 1330.98 9.11627 4.55076 0
M  V30 9872 H 1330.79 9.9573 2.34194 0
M  V30 9873 H 1329.16 9.2792 2.67832 0
M  V30 9874 H 1331.8 4.67702 4.28772 0
M  V30 9875 P 1333.66 7.39546 4.75277 0
M  V30 9876 O 1335.08 7.81777 5.05738 0
M  V30 9877 O 1333.3 7.1065 3.32998 0
M  V30 9878 O 1333.33 6.04542 5.56673 0
M  V30 9879 C 1333.17 6.22772 7.02095 0
M  V30 9880 C 1333.71 4.97725 7.70406 0
M  V30 9881 O 1332.66 4.13256 7.58987 0
M  V30 9882 C 1334.93 4.28231 7.11815 0
M  V30 9883 O 1335.67 3.49945 8.01648 0
M  V30 9884 C 1334.26 3.5063 5.96244 0
M  V30 9885 O 1335.06 2.36482 5.64681 0
M  V30 9886 C 1332.93 3.15122 6.56374 0
M  V30 9887 H 1332.96 2.13853 6.99751 0
M  V30 9888 H 1334.14 4.13501 5.06559 0
M  V30 9889 H 1335.63 5.03285 6.70911 0
M  V30 9890 H 1333.93 5.20877 8.75697 0
M  V30 9891 H 1333.74 7.11046 7.35349 0
M  V30 9892 H 1332.11 6.35815 7.26986 0
M  V30 9893 H 1334.75 1.61644 6.13565 0
M  V30 9894 P 1336.61 3.65191 7.99657 0
M  V30 9895 O 1338.03 3.8425 8.48115 0
M  V30 9896 O 1336.25 4.17805 6.64342 0
M  V30 9897 O 1336.29 2.07613 7.95143 0
M  V30 9898 C 1336.13 1.44328 9.27336 0
M  V30 9899 C 1336.67 0.0220036 9.17197 0
M  V30 9900 O 1335.61 -0.626867 8.61923 0
M  V30 9901 C 1337.88 -0.24586 8.30336 0
M  V30 9902 O 1338.62 -1.39011 8.63583 0
M  V30 9903 C 1337.21 -0.273849 6.91158 0
M  V30 9904 O 1338.01 -1.06348 6.02892 0
M  V30 9905 C 1335.88 -0.897649 7.22545 0
M  V30 9906 H 1335.91 -1.9841 7.04286 0
M  V30 9907 H 1337.09 0.739928 6.497 0
M  V30 9908 H 1338.58 0.60668 8.36503 0
M  V30 9909 H 1336.88 -0.352479 10.1829 0
M  V30 9910 H 1336.69 2.00611 10.0304 0
M  V30 9911 H 1335.06 1.41843 9.55327 0
M  V30 9912 H 1337.7 -1.95734 6.03555 0
M  V30 9913 P 1339.56 -1.25109 8.70152 0
M  V30 9914 O 1340.98 -1.35274 9.21221 0
M  V30 9915 O 1339.2 -0.0769065 7.84762 0
M  V30 9916 O 1339.24 -2.55232 7.81161 0
M  V30 9917 C 1339.08 -3.79939 8.58154 0
M  V30 9918 C 1339.62 -4.94023 7.72785 0
M  V30 9919 O 1338.56 -5.18726 6.91205 0
M  V30 9920 C 1340.83 -4.69597 6.85231 0
M  V30 9921 O 1341.57 -5.83832 6.51337 0
M  V30 9922 C 1340.16 -3.96706 5.66633 0
M  V30 9923 O 1340.96 -4.15414 4.49689 0
M  V30 9924 C 1338.83 -4.66153 5.59313 0
M  V30 9925 H 1338.86 -5.47679 4.85214 0
M  V30 9926 H 1340.04 -2.89008 5.86566 0
M  V30 9927 H 1341.53 -4.0121 7.36511 0
M  V30 9928 H 1339.83 -5.80182 8.37584 0
M  V30 9929 H 1339.64 -3.73517 9.52265 0
M  V30 9930 H 1338.01 -3.97163 8.80359 0
M  V30 9931 H 1340.65 -4.90969 4.01921 0
M  V30 9932 P 1342.51 -5.75688 6.64379 0
M  V30 9933 O 1343.93 -6.11849 7.01846 0
M  V30 9934 O 1342.15 -4.30744 6.56026 0
M  V30 9935 O 1342.19 -6.37042 5.19165 0
M  V30 9936 C 1342.03 -7.83578 5.16515 0
M  V30 9937 C 1342.57 -8.33398 3.83019 0
M  V30 9938 O 1341.51 -8.10074 3.01034 0
M  V30 9939 C 1343.78 -7.65514 3.2257 0
M  V30 9940 O 1344.52 -8.4329 2.32297 0
M  V30 9941 C 1343.12 -6.40075 2.62207 0
M  V30 9942 O 1343.91 -5.92589 1.53712 0
M  V30 9943 C 1341.78 -6.9454 2.18503 0
M  V30 9944 H 1341.81 -7.23063 1.12091 0
M  V30 9945 H 1342.99 -5.6025 3.37201 0
M  V30 9946 H 1344.48 -7.35707 4.02681 0
M  V30 9947 H 1342.78 -9.40912 3.9095 0
M  V30 9948 H 1342.59 -8.29056 5.99158 0
M  V30 9949 H 1340.96 -8.10073 5.25882 0
M  V30 9950 H 1343.6 -6.30324 0.726794 0
M  V30 9951 P 1345.46 -8.4349 2.47671 0
M  V30 9952 O 1346.88 -8.94263 2.59668 0
M  V30 9953 O 1345.1 -7.1704 3.19006 0
M  V30 9954 O 1345.14 -8.16596 0.923387 0
M  V30 9955 C 1344.98 -9.38537 0.108869 0
M  V30 9956 C 1345.52 -9.08175 -1.28353 0
M  V30 9957 O 1344.46 -8.44131 -1.84692 0
M  V30 9958 C 1346.73 -8.18386 -1.42505 0
M  V30 9959 O 1347.47 -8.3501 -2.60497 0
M  V30 9960 C 1346.07 -6.80225 -1.25468 0
M  V30 9961 O 1346.86 -5.81716 -1.90454 0
M  V30 9962 C 1344.73 -7.02416 -1.9168 0
M  V30 9963 N 1343.69 -6.31033 -1.20314 0
M  V30 9964 C 1343.85 -5.98817 0.0994088 0
M  V30 9965 N 1342.83 -5.35403 0.621694 0
M  V30 9966 C 1341.94 -5.25212 -0.43376 0
M  V30 9967 C 1340.68 -4.64602 -0.519722 0
M  V30 9968 N 1340.11 -4.7568 -1.76013 0
M  V30 9969 C 1340.71 -5.3653 -2.83017 0
M  V30 9970 N 1341.89 -5.93676 -2.79782 0
M  V30 9971 C 1342.46 -5.84061 -1.56249 0
M  V30 9972 H 1345.94 -6.53498 -0.198729 0
M  V30 9973 H 1347.43 -8.36622 -0.589963 0
M  V30 9974 H 1345.73 -10.0273 -1.8081 0
M  V30 9975 H 1345.54 -10.2138 0.558219 0
M  V30 9976 H 1343.91 -9.6579 0.0444202 0
M  V30 9977 H 1344.75 -6.23209 0.660562 0
M  V30 9978 H 1346.55 -5.69466 -2.79593 0
M  V30 9979 P 1348.41 -8.4349 -2.47671 0
M  V30 9980 O 1349.83 -8.92593 -2.65 0
M  V30 9981 O 1348.05 -7.7568 -1.19296 0
M  V30 9982 O 1348.09 -7.36886 -3.63805 0
M  V30 9983 C 1347.93 -7.95349 -4.982 0
M  V30 9984 C 1348.47 -6.94612 -5.98974 0
M  V30 9985 O 1347.41 -6.10347 -6.11815 0
M  V30 9986 C 1349.69 -6.11426 -5.62335 0
M  V30 9987 O 1350.42 -5.6162 -6.70584 0
M  V30 9988 C 1349.02 -5.04409 -4.73308 0
M  V30 9989 O 1349.82 -3.85992 -4.75183 0
M  V30 9990 C 1347.68 -4.8728 -5.41006 0
M  V30 9991 H 1347.71 -4.02333 -6.11157 0
M  V30 9992 H 1348.89 -5.39466 -3.69543 0
M  V30 9993 H 1350.38 -6.71916 -5.01943 0
M  V30 9994 H 1348.68 -7.4649 -6.93477 0
M  V30 9995 H 1348.49 -8.89416 -5.05237 0
M  V30 9996 H 1346.86 -8.14876 -5.18409 0
M  V30 9997 H 1349.5 -3.27957 -5.4317 0
M  V30 9998 P 1351.36 -5.75688 -6.64379 0
M  V30 9999 O 1352.78 -6.07627 -7.05504 0
M  V30 10000 O 1351 -5.88047 -5.19722 0
M  V30 10001 O 1351.04 -4.2322 -7.04443 0
M  V30 10002 C 1350.88 -3.99743 -8.4911 0
M  V30 10003 C 1351.42 -2.60516 -8.79425 0
M  V30 10004 O 1350.36 -1.82684 -8.4467 0
M  V30 10005 C 1352.64 -2.10343 -8.03628 0
M  V30 10006 O 1353.37 -1.09919 -8.67766 0
M  V30 10007 C 1351.97 -1.68446 -6.70876 0
M  V30 10008 O 1352.77 -0.678137 -6.08433 0
M  V30 10009 C 1350.63 -1.17436 -7.18567 0
M  V30 10010 H 1350.66 -0.0804732 -7.31656 0
M  V30 10011 H 1351.85 -2.54037 -6.02537 0
M  V30 10012 H 1353.33 -2.93881 -7.85526 0
M  V30 10013 H 1351.64 -2.53065 -9.86973 0
M  V30 10014 H 1351.45 -4.75072 -9.05887 0
M  V30 10015 H 1349.82 -4.05244 -8.76668 0
M  V30 10016 H 1352.45 0.177647 -6.34251 0
M  V30 10017 P 1354.31 -1.25109 -8.70152 0
M  V30 10018 O 1355.73 -1.29744 -9.22016 0
M  V30 10019 O 1353.95 -2.13714 -7.55141 0
M  V30 10020 O 1353.99 0.248149 -8.21425 0
M  V30 10021 C 1353.83 1.22779 -9.30434 0
M  V30 10022 C 1354.37 2.56293 -8.80664 0
M  V30 10023 O 1353.31 3.02979 -8.09349 0
M  V30 10024 C 1355.59 2.57523 -7.89775 0
M  V30 10025 O 1356.32 3.7668 -7.89438 0
M  V30 10026 C 1354.92 2.20997 -6.55446 0
M  V30 10027 O 1355.72 2.71895 -5.48509 0
M  V30 10028 C 1353.58 2.89693 -6.67988 0
M  V30 10029 H 1353.61 3.88793 -6.19859 0
M  V30 10030 H 1354.8 1.12046 -6.44229 0
M  V30 10031 H 1356.28 1.7746 -8.19711 0
M  V30 10032 H 1354.59 3.20706 -9.67112 0
M  V30 10033 H 1354.4 0.901032 -10.1892 0
M  V30 10034 H 1352.77 1.33049 -9.56592 0
M  V30 10035 H 1355.4 3.57847 -5.23962 0
M  V30 10036 P 1357.26 3.65191 -7.99657 0
M  V30 10037 O 1358.68 3.89374 -8.45885 0
M  V30 10038 O 1356.9 2.28472 -7.50807 0
M  V30 10039 O 1356.94 4.64972 -6.77611 0
M  V30 10040 C 1356.78 6.06383 -7.16428 0
M  V30 10041 C 1357.32 6.91731 -6.02299 0
M  V30 10042 O 1356.26 6.92369 -5.17005 0
M  V30 10043 C 1358.54 6.43627 -5.25174 0
M  V30 10044 O 1359.28 7.43686 -4.60469 0
M  V30 10045 C 1357.87 5.40275 -4.31916 0
M  V30 10046 O 1358.67 5.24878 -3.14911 0
M  V30 10047 C 1356.53 6.04847 -4.05327 0
M  V30 10048 N 1355.49 5.04166 -3.98114 0
M  V30 10049 C 1355.66 3.84629 -4.59066 0
M  V30 10050 N 1354.63 3.0363 -4.45343 0
M  V30 10051 C 1353.75 3.76722 -3.68523 0
M  V30 10052 C 1352.48 3.43528 -3.17088 0
M  V30 10053 N 1351.88 2.23665 -3.37397 0
M  V30 10054 N 1351.91 4.44526 -2.44231 0
M  V30 10055 C 1352.52 5.65243 -2.20146 0
M  V30 10056 N 1353.69 6.00221 -2.65453 0
M  V30 10057 C 1354.27 5.00564 -3.39083 0
M  V30 10058 H 1356.56 6.62104 -3.11218 0
M  V30 10059 H 1357.75 4.42969 -4.80867 0
M  V30 10060 H 1359.23 5.92458 -5.93643 0
M  V30 10061 H 1357.54 7.93295 -6.39407 0
M  V30 10062 H 1357.35 6.26671 -8.0846 0
M  V30 10063 H 1355.72 6.29101 -7.32804 0
M  V30 10064 H 1351.98 6.36894 -1.5883 0
M  V30 10065 H 1356.56 3.58193 -5.14248 0
M  V30 10066 H 1350.95 2.05145 -2.97047 0
M  V30 10067 H 1352.35 1.51255 -3.92998 0
M  V30 10068 H 1358.36 5.84223 -2.47279 0
M  V30 10069 P 1360.21 7.39546 -4.75277 0
M  V30 10070 O 1361.63 7.84798 -5.01039 0
M  V30 10071 O 1359.85 5.9812 -5.08098 0
M  V30 10072 O 1359.89 7.57503 -3.1866 0
M  V30 10073 C 1359.73 8.97357 -2.74833 0
M  V30 10074 C 1360.27 9.07548 -1.32709 0
M  V30 10075 O 1359.21 8.62072 -0.606159 0
M  V30 10076 C 1361.49 8.25383 -0.938334 0
M  V30 10077 O 1362.23 8.74577 0.146954 0
M  V30 10078 C 1360.82 6.8802 -0.712559 0
M  V30 10079 O 1361.62 6.1189 0.194655 0
M  V30 10080 C 1359.48 7.27966 -0.139777 0
M  V30 10081 H 1359.51 7.25354 0.961601 0
M  V30 10082 H 1360.7 6.32557 -1.65702 0
M  V30 10083 H 1362.18 8.19355 -1.79097 0
M  V30 10084 H 1360.49 10.1294 -1.10029 0
M  V30 10085 H 1360.3 9.64276 -3.41316 0
M  V30 10086 H 1358.67 9.25417 -2.76357 0
M  V30 10087 H 1361.31 6.25267 1.07847 0
M  V30 10088 P 1363.16 8.791 1.10281e-11 0
M  V30 10089 O 1364.58 9.31196 0.027936 0
M  V30 10090 O 1362.8 7.77869 -1.04071 0
M  V30 10091 O 1362.84 8.09533 1.41463 0
M  V30 10092 C 1362.68 9.03587 2.5397 0
M  V30 10093 C 1363.22 8.35226 3.79016 0
M  V30 10094 O 1362.17 7.57904 4.1503 0
M  V30 10095 C 1364.44 7.45087 3.67298 0
M  V30 10096 O 1365.18 7.27796 4.85194 0
M  V30 10097 C 1363.77 6.17323 3.12027 0
M  V30 10098 O 1364.57 5.04496 3.46627 0
M  V30 10099 C 1362.43 6.19961 3.81809 0
M  V30 10100 N 1361.39 5.71575 2.93223 0
M  V30 10101 C 1361.56 5.77362 1.59168 0
M  V30 10102 N 1360.53 5.3123 0.911893 0
M  V30 10103 C 1359.65 4.91717 1.89588 0
M  V30 10104 C 1358.38 4.3114 1.8076 0
M  V30 10105 N 1357.78 3.99821 0.632928 0
M  V30 10106 N 1357.81 4.06823 3.02898 0
M  V30 10107 C 1358.42 4.35062 4.22711 0
M  V30 10108 N 1359.59 4.90805 4.35707 0
M  V30 10109 C 1360.17 5.16382 3.14469 0
M  V30 10110 H 1362.46 5.58142 4.72986 0
M  V30 10111 H 1363.65 6.21428 2.0318 0
M  V30 10112 H 1365.13 7.86112 2.9231 0
M  V30 10113 H 1363.44 9.11171 4.55987 0
M  V30 10114 H 1363.25 9.9573 2.34194 0
M  V30 10115 H 1361.62 9.2792 2.67832 0
M  V30 10116 H 1357.88 4.09052 5.13359 0
M  V30 10117 H 1362.46 6.16575 1.12198 0
M  V30 10118 H 1356.85 3.55423 0.632085 0
M  V30 10119 H 1358.25 4.20317 -0.256712 0
M  V30 10120 H 1364.26 4.67628 4.28704 0
M  V30 10121 P 1366.11 7.39546 4.75277 0
M  V30 10122 O 1367.54 7.81777 5.05738 0
M  V30 10123 O 1365.75 7.1065 3.32998 0
M  V30 10124 O 1365.79 6.04542 5.56673 0
M  V30 10125 C 1365.63 6.22772 7.02095 0
M  V30 10126 C 1366.17 4.97725 7.70406 0
M  V30 10127 O 1365.11 4.13256 7.58987 0
M  V30 10128 C 1367.39 4.28231 7.11815 0
M  V30 10129 O 1368.13 3.49945 8.01648 0
M  V30 10130 C 1366.72 3.5063 5.96244 0
M  V30 10131 O 1367.52 2.36482 5.64681 0
M  V30 10132 C 1365.38 3.15122 6.56374 0
M  V30 10133 H 1365.41 2.13853 6.99751 0
M  V30 10134 H 1366.6 4.13501 5.06559 0
M  V30 10135 H 1368.08 5.03285 6.70911 0
M  V30 10136 H 1366.39 5.20877 8.75697 0
M  V30 10137 H 1366.2 7.11046 7.35349 0
M  V30 10138 H 1364.57 6.35815 7.26986 0
M  V30 10139 H 1367.21 1.61644 6.13565 0
M  V30 10140 P 1369.06 3.65191 7.99657 0
M  V30 10141 O 1370.49 3.8425 8.48115 0
M  V30 10142 O 1368.7 4.17805 6.64342 0
M  V30 10143 O 1368.74 2.07613 7.95143 0
M  V30 10144 C 1368.58 1.44328 9.27336 0
M  V30 10145 C 1369.12 0.0220036 9.17197 0
M  V30 10146 O 1368.07 -0.626867 8.61923 0
M  V30 10147 C 1370.34 -0.24586 8.30336 0
M  V30 10148 O 1371.08 -1.39011 8.63583 0
M  V30 10149 C 1369.67 -0.273849 6.91158 0
M  V30 10150 O 1370.47 -1.06348 6.02892 0
M  V30 10151 C 1368.33 -0.897649 7.22545 0
M  V30 10152 H 1368.37 -1.9841 7.04286 0
M  V30 10153 H 1369.55 0.739928 6.497 0
M  V30 10154 H 1371.03 0.60668 8.36503 0
M  V30 10155 H 1369.34 -0.352479 10.1829 0
M  V30 10156 H 1369.15 2.00611 10.0304 0
M  V30 10157 H 1367.52 1.41843 9.55327 0
M  V30 10158 H 1370.16 -1.95734 6.03555 0
M  V30 10159 P 1372.02 -1.25109 8.70152 0
M  V30 10160 O 1373.44 -1.35274 9.21221 0
M  V30 10161 O 1371.66 -0.0769065 7.84762 0
M  V30 10162 O 1371.69 -2.55232 7.81161 0
M  V30 10163 C 1371.53 -3.79939 8.58154 0
M  V30 10164 C 1372.07 -4.94023 7.72785 0
M  V30 10165 O 1371.02 -5.18726 6.91205 0
M  V30 10166 C 1373.29 -4.69597 6.85231 0
M  V30 10167 O 1374.03 -5.83832 6.51337 0
M  V30 10168 C 1372.62 -3.96706 5.66633 0
M  V30 10169 O 1373.42 -4.15414 4.49689 0
M  V30 10170 C 1371.28 -4.66153 5.59313 0
M  V30 10171 H 1371.32 -5.47679 4.85214 0
M  V30 10172 H 1372.5 -2.89008 5.86566 0
M  V30 10173 H 1373.98 -4.0121 7.36511 0
M  V30 10174 H 1372.29 -5.80182 8.37584 0
M  V30 10175 H 1372.1 -3.73517 9.52265 0
M  V30 10176 H 1370.47 -3.97163 8.80359 0
M  V30 10177 H 1373.11 -4.90969 4.01921 0
M  V30 10178 P 1374.97 -5.75688 6.64379 0
M  V30 10179 O 1376.39 -6.11849 7.01846 0
M  V30 10180 O 1374.61 -4.30744 6.56026 0
M  V30 10181 O 1374.64 -6.37042 5.19165 0
M  V30 10182 C 1374.48 -7.83578 5.16515 0
M  V30 10183 C 1375.02 -8.33398 3.83019 0
M  V30 10184 O 1373.97 -8.10074 3.01034 0
M  V30 10185 C 1376.24 -7.65514 3.2257 0
M  V30 10186 O 1376.98 -8.4329 2.32297 0
M  V30 10187 C 1375.57 -6.40075 2.62207 0
M  V30 10188 O 1376.37 -5.92589 1.53712 0
M  V30 10189 C 1374.23 -6.9454 2.18503 0
M  V30 10190 H 1374.27 -7.23063 1.12091 0
M  V30 10191 H 1375.45 -5.6025 3.37201 0
M  V30 10192 H 1376.93 -7.35707 4.02681 0
M  V30 10193 H 1375.24 -9.40912 3.9095 0
M  V30 10194 H 1375.05 -8.29056 5.99158 0
M  V30 10195 H 1373.42 -8.10073 5.25882 0
M  V30 10196 H 1376.06 -6.30324 0.726794 0
M  V30 10197 P 1377.92 -8.4349 2.47671 0
M  V30 10198 O 1379.32 -8.98227 2.65696 0
M  V30 10199 O 1377.54 -7.20409 3.23964 0
M  V30 10200 O 1377.59 -8.16496 0.923275 0
M  V30 10201 C 1377.43 -9.38437 0.108857 0
M  V30 10202 C 1377.97 -9.08076 -1.28339 0
M  V30 10203 O 1376.92 -8.44131 -1.84692 0
M  V30 10204 C 1379.19 -8.18386 -1.42505 0
M  V30 10205 O 1379.93 -8.3501 -2.60497 0
M  V30 10206 C 1378.52 -6.80225 -1.25468 0
M  V30 10207 O 1379.32 -5.81526 -1.91035 0
M  V30 10208 C 1377.19 -7.02416 -1.9168 0
M  V30 10209 N 1376.14 -6.31033 -1.20314 0
M  V30 10210 C 1375.11 -5.77149 -1.928 0
M  V30 10211 O 1375.15 -5.8521 -3.17729 0
M  V30 10212 N 1374.1 -5.15445 -1.27997 0
M  V30 10213 C 1374.14 -5.04472 0.0534726 0
M  V30 10214 C 1375.24 -5.55244 0.808522 0
M  V30 10215 C 1376.21 -6.18542 0.13981 0
M  V30 10216 H 1377.22 -6.68789 -2.9658 0
M  V30 10217 H 1378.4 -6.53498 -0.198729 0
M  V30 10218 H 1379.88 -8.36663 -0.5984 0
M  V30 10219 H 1378.19 -10.0273 -1.8081 0
M  V30 10220 H 1378 -10.2138 0.558219 0
M  V30 10221 H 1376.37 -9.6569 0.0444156 0
M  V30 10222 H 1375.29 -5.43017 1.88792 0
M  V30 10223 H 1377.05 -6.60539 0.686773 0
M  V30 10224 H 1379.11 -5.79638 -2.8315 0
M  V30 10225 P 1380.87 -8.4349 -2.47671 0
M  V30 10226 O 1382.29 -8.92593 -2.65 0
M  V30 10227 O 1380.51 -7.7568 -1.19296 0
M  V30 10228 O 1380.54 -7.36886 -3.63805 0
M  V30 10229 C 1380.38 -7.95349 -4.982 0
M  V30 10230 C 1380.92 -6.94612 -5.98974 0
M  V30 10231 O 1379.87 -6.10347 -6.11815 0
M  V30 10232 C 1382.14 -6.11426 -5.62335 0
M  V30 10233 O 1382.88 -5.6162 -6.70584 0
M  V30 10234 C 1381.47 -5.04409 -4.73308 0
M  V30 10235 O 1382.27 -3.85992 -4.75183 0
M  V30 10236 C 1380.14 -4.8728 -5.41006 0
M  V30 10237 H 1380.17 -4.02333 -6.11157 0
M  V30 10238 H 1381.35 -5.39466 -3.69543 0
M  V30 10239 H 1382.83 -6.71916 -5.01943 0
M  V30 10240 H 1381.14 -7.4649 -6.93477 0
M  V30 10241 H 1380.95 -8.89416 -5.05237 0
M  V30 10242 H 1379.32 -8.14876 -5.18409 0
M  V30 10243 H 1381.96 -3.27957 -5.4317 0
M  V30 10244 P 1383.82 -5.75688 -6.64379 0
M  V30 10245 O 1385.24 -6.07627 -7.05504 0
M  V30 10246 O 1383.46 -5.88047 -5.19722 0
M  V30 10247 O 1383.49 -4.2322 -7.04443 0
M  V30 10248 C 1383.33 -3.99743 -8.4911 0
M  V30 10249 C 1383.87 -2.60516 -8.79425 0
M  V30 10250 O 1382.82 -1.82684 -8.4467 0
M  V30 10251 C 1385.09 -2.10343 -8.03628 0
M  V30 10252 O 1385.83 -1.09919 -8.67766 0
M  V30 10253 C 1384.42 -1.68446 -6.70876 0
M  V30 10254 O 1385.22 -0.678137 -6.08433 0
M  V30 10255 C 1383.09 -1.17436 -7.18567 0
M  V30 10256 H 1383.12 -0.0804732 -7.31656 0
M  V30 10257 H 1384.3 -2.54037 -6.02537 0
M  V30 10258 H 1385.79 -2.93881 -7.85526 0
M  V30 10259 H 1384.09 -2.53065 -9.86973 0
M  V30 10260 H 1383.9 -4.75072 -9.05887 0
M  V30 10261 H 1382.27 -4.05244 -8.76668 0
M  V30 10262 H 1384.91 0.177647 -6.34251 0
M  V30 10263 P 1386.77 -1.25109 -8.70152 0
M  V30 10264 O 1388.19 -1.29772 -9.22214 0
M  V30 10265 O 1386.41 -2.13714 -7.55141 0
M  V30 10266 O 1386.44 0.248149 -8.21425 0
M  V30 10267 C 1386.28 1.22779 -9.30434 0
M  V30 10268 C 1386.82 2.56265 -8.80568 0
M  V30 10269 O 1385.77 3.02979 -8.09349 0
M  V30 10270 C 1388.04 2.57523 -7.89775 0
M  V30 10271 O 1388.78 3.7668 -7.89438 0
M  V30 10272 C 1387.37 2.20997 -6.55446 0
M  V30 10273 O 1388.17 2.71851 -5.48419 0
M  V30 10274 C 1386.04 2.89693 -6.67988 0
M  V30 10275 N 1384.99 2.08895 -6.07487 0
M  V30 10276 C 1385.06 0.760559 -6.14209 0
M  V30 10277 N 1384.01 0.200108 -5.52538 0
M  V30 10278 C 1383.28 1.22692 -5.09742 0
M  V30 10279 C 1381.97 1.24782 -4.48775 0
M  V30 10280 O 1381.24 0.290617 -4.19294 0
M  V30 10281 N 1381.54 2.50468 -4.22428 0
M  V30 10282 C 1382.29 3.67142 -4.51974 0
M  V30 10283 N 1381.69 4.85096 -4.14091 0
M  V30 10284 N 1383.44 3.67821 -5.12831 0
M  V30 10285 C 1383.9 2.43698 -5.4105 0
M  V30 10286 H 1386.07 3.88793 -6.19859 0
M  V30 10287 H 1387.25 1.12029 -6.4413 0
M  V30 10288 H 1388.74 1.78279 -8.19533 0
M  V30 10289 H 1387.04 3.20706 -9.67112 0
M  V30 10290 H 1386.85 0.901032 -10.1892 0
M  V30 10291 H 1385.22 1.33049 -9.56592 0
M  V30 10292 H 1380.64 2.61953 -3.79465 0
M  V30 10293 H 1385.85 0.200439 -6.63497 0
M  V30 10294 H 1380.78 4.8334 -3.66367 0
M  V30 10295 H 1382.16 5.7474 -4.33841 0
M  V30 10296 H 1387.86 3.5779 -5.23879 0
M  V30 10297 P 1389.72 3.65191 -7.99657 0
M  V30 10298 O 1391.14 3.89332 -8.45794 0
M  V30 10299 O 1389.36 2.28472 -7.50807 0
M  V30 10300 O 1389.4 4.64972 -6.77611 0
M  V30 10301 C 1389.24 6.06319 -7.16352 0
M  V30 10302 C 1389.78 6.91731 -6.02299 0
M  V30 10303 O 1388.72 6.92449 -5.17064 0
M  V30 10304 C 1390.99 6.43627 -5.25174 0
M  V30 10305 O 1391.73 7.43686 -4.60469 0
M  V30 10306 C 1390.32 5.40275 -4.31916 0
M  V30 10307 O 1391.12 5.25279 -3.14438 0
M  V30 10308 C 1388.99 6.04847 -4.05327 0
M  V30 10309 H 1389.02 6.62195 -3.11261 0
M  V30 10310 H 1390.2 4.42556 -4.81383 0
M  V30 10311 H 1391.69 5.92458 -5.93643 0
M  V30 10312 H 1389.99 7.92655 -6.402 0
M  V30 10313 H 1389.8 6.26671 -8.0846 0
M  V30 10314 H 1388.17 6.29101 -7.32804 0
M  V30 10315 H 1390.81 5.84315 -2.47318 0
M  V30 10316 P 1392.67 7.39546 -4.75277 0
M  V30 10317 O 1394.07 7.86988 -5.07993 0
M  V30 10318 O 1392.29 5.99957 -5.13804 0
M  V30 10319 O 1392.35 7.57411 -3.18621 0
M  V30 10320 C 1392.19 8.97357 -2.74833 0
M  V30 10321 C 1392.73 9.0745 -1.32694 0
M  V30 10322 O 1391.67 8.61972 -0.606089 0
M  V30 10323 C 1393.94 8.25383 -0.938334 0
M  V30 10324 O 1394.68 8.74577 0.146954 0
M  V30 10325 C 1393.28 6.8802 -0.712559 0
M  V30 10326 O 1394.07 6.11791 0.194623 0
M  V30 10327 C 1391.94 7.27966 -0.139777 0
M  V30 10328 N 1390.9 6.39368 -0.623421 0
M  V30 10329 C 1389.86 6.08088 0.223886 0
M  V30 10330 O 1389.9 6.5102 1.39986 0
M  V30 10331 N 1388.85 5.30627 -0.224051 0
M  V30 10332 C 1388.9 4.82531 -1.47257 0
M  V30 10333 C 1389.99 5.09974 -2.34008 0
M  V30 10334 C 1390.96 5.89548 -1.87678 0
M  V30 10335 H 1391.97 7.25255 0.961469 0
M  V30 10336 H 1393.15 6.32625 -1.65044 0
M  V30 10337 H 1394.64 8.19631 -1.78299 0
M  V30 10338 H 1392.94 10.1305 -1.09016 0
M  V30 10339 H 1392.75 9.64276 -3.41316 0
M  V30 10340 H 1391.12 9.25321 -2.76328 0
M  V30 10341 H 1390.04 4.67832 -3.3413 0
M  V30 10342 H 1391.8 6.14434 -2.51991 0
M  V30 10343 H 1393.86 6.35931 1.08377 0
M  V30 10344 P 1395.62 8.791 1.13383e-11 0
M  V30 10345 O 1397.04 9.31096 0.027933 0
M  V30 10346 O 1395.26 7.77869 -1.04071 0
M  V30 10347 O 1395.3 8.09533 1.41463 0
M  V30 10348 C 1395.14 9.0349 2.53943 0
M  V30 10349 C 1395.68 8.35226 3.79016 0
M  V30 10350 O 1394.62 7.57992 4.15078 0
M  V30 10351 C 1396.89 7.45087 3.67298 0
M  V30 10352 O 1397.63 7.27796 4.85194 0
M  V30 10353 C 1396.23 6.17323 3.12027 0
M  V30 10354 O 1397.02 5.04231 3.47188 0
M  V30 10355 C 1394.89 6.19961 3.81809 0
M  V30 10356 H 1394.92 5.58218 4.73051 0
M  V30 10357 H 1396.1 6.21726 2.02589 0
M  V30 10358 H 1397.59 7.86112 2.9231 0
M  V30 10359 H 1395.89 9.11627 4.55076 0
M  V30 10360 H 1395.7 9.9573 2.34194 0
M  V30 10361 H 1394.07 9.2792 2.67832 0
M  V30 10362 H 1396.71 4.67702 4.28772 0
M  V30 10363 P 1398.57 7.39546 4.75277 0
M  V30 10364 O 1399.99 7.81945 5.05847 0
M  V30 10365 O 1398.21 7.1065 3.32998 0
M  V30 10366 O 1398.25 6.04542 5.56673 0
M  V30 10367 C 1398.09 6.22772 7.02095 0
M  V30 10368 C 1398.63 4.97671 7.70322 0
M  V30 10369 O 1397.57 4.13256 7.58987 0
M  V30 10370 C 1399.85 4.28231 7.11815 0
M  V30 10371 O 1400.58 3.49945 8.01648 0
M  V30 10372 C 1399.18 3.5063 5.96244 0
M  V30 10373 O 1399.98 2.36443 5.64589 0
M  V30 10374 C 1397.84 3.15122 6.56374 0
M  V30 10375 N 1396.8 3.22311 5.55692 0
M  V30 10376 C 1396.86 4.14382 4.59701 0
M  V30 10377 N 1395.81 4.04476 3.76958 0
M  V30 10378 C 1395.08 3.04892 4.26534 0
M  V30 10379 C 1393.77 2.57447 3.88189 0
M  V30 10380 O 1393.04 2.9785 2.96543 0
M  V30 10381 N 1393.34 1.55228 4.65922 0
M  V30 10382 C 1394.09 1.01152 5.73447 0
M  V30 10383 N 1393.5 -0.0472117 6.37783 0
M  V30 10384 N 1395.25 1.467 6.13813 0
M  V30 10385 C 1395.7 2.4931 5.38487 0
M  V30 10386 H 1397.87 2.13853 6.99751 0
M  V30 10387 H 1399.05 4.13438 5.06482 0
M  V30 10388 H 1400.54 5.02614 6.71414 0
M  V30 10389 H 1398.84 5.20877 8.75697 0
M  V30 10390 H 1398.65 7.11046 7.35349 0
M  V30 10391 H 1397.02 6.35815 7.26986 0
M  V30 10392 H 1392.45 1.15238 4.46468 0
M  V30 10393 H 1397.65 4.88312 4.49647 0
M  V30 10394 H 1392.58 -0.396382 6.05203 0
M  V30 10395 H 1393.96 -0.484997 7.18465 0
M  V30 10396 H 1399.66 1.61619 6.13468 0
M  V30 10397 P 1401.52 3.65191 7.99657 0
M  V30 10398 O 1402.94 3.8425 8.48115 0
M  V30 10399 O 1401.16 4.17805 6.64342 0
M  V30 10400 O 1401.2 2.07613 7.95143 0
M  V30 10401 C 1401.04 1.44328 9.27336 0
M  V30 10402 C 1401.58 0.0220036 9.17197 0
M  V30 10403 O 1400.52 -0.626867 8.61923 0
M  V30 10404 C 1402.8 -0.24586 8.30336 0
M  V30 10405 O 1403.53 -1.39011 8.63583 0
M  V30 10406 C 1402.13 -0.273849 6.91158 0
M  V30 10407 O 1402.93 -1.06348 6.02892 0
M  V30 10408 C 1400.79 -0.897649 7.22545 0
M  V30 10409 H 1400.82 -1.9841 7.04286 0
M  V30 10410 H 1402 0.739928 6.497 0
M  V30 10411 H 1403.49 0.60668 8.36503 0
M  V30 10412 H 1401.79 -0.352479 10.1829 0
M  V30 10413 H 1401.6 2.00611 10.0304 0
M  V30 10414 H 1399.97 1.41843 9.55327 0
M  V30 10415 H 1402.61 -1.95734 6.03555 0
M  V30 10416 P 1404.47 -1.25109 8.70152 0
M  V30 10417 O 1405.89 -1.35274 9.21221 0
M  V30 10418 O 1404.11 -0.0769065 7.84762 0
M  V30 10419 O 1404.15 -2.55232 7.81161 0
M  V30 10420 C 1403.99 -3.79939 8.58154 0
M  V30 10421 C 1404.53 -4.94023 7.72785 0
M  V30 10422 O 1403.47 -5.18726 6.91205 0
M  V30 10423 C 1405.75 -4.69597 6.85231 0
M  V30 10424 O 1406.48 -5.83832 6.51337 0
M  V30 10425 C 1405.08 -3.96706 5.66633 0
M  V30 10426 O 1405.88 -4.15414 4.49689 0
M  V30 10427 C 1403.74 -4.66153 5.59313 0
M  V30 10428 H 1403.77 -5.47679 4.85214 0
M  V30 10429 H 1404.96 -2.89008 5.86566 0
M  V30 10430 H 1406.44 -4.0121 7.36511 0
M  V30 10431 H 1404.75 -5.80182 8.37584 0
M  V30 10432 H 1404.56 -3.73517 9.52265 0
M  V30 10433 H 1402.93 -3.97163 8.80359 0
M  V30 10434 H 1405.56 -4.90969 4.01921 0
M  V30 10435 P 1407.42 -5.75688 6.64379 0
M  V30 10436 O 1408.84 -6.11849 7.01846 0
M  V30 10437 O 1407.06 -4.30744 6.56026 0
M  V30 10438 O 1407.1 -6.37042 5.19165 0
M  V30 10439 C 1406.94 -7.83578 5.16515 0
M  V30 10440 C 1407.48 -8.33398 3.83019 0
M  V30 10441 O 1406.42 -8.10074 3.01034 0
M  V30 10442 C 1408.7 -7.65514 3.2257 0
M  V30 10443 O 1409.43 -8.4329 2.32297 0
M  V30 10444 C 1408.03 -6.40075 2.62207 0
M  V30 10445 O 1408.83 -5.92589 1.53712 0
M  V30 10446 C 1406.69 -6.9454 2.18503 0
M  V30 10447 H 1406.72 -7.23063 1.12091 0
M  V30 10448 H 1407.91 -5.6025 3.37201 0
M  V30 10449 H 1409.39 -7.35707 4.02681 0
M  V30 10450 H 1407.7 -9.40912 3.9095 0
M  V30 10451 H 1407.51 -8.29056 5.99158 0
M  V30 10452 H 1405.88 -8.10073 5.25882 0
M  V30 10453 H 1408.51 -6.30324 0.726794 0
M  V30 10454 P 1410.37 -8.4349 2.47671 0
M  V30 10455 O 1411.79 -8.94167 2.5964 0
M  V30 10456 O 1410.01 -7.1704 3.19006 0
M  V30 10457 O 1410.05 -8.16596 0.923387 0
M  V30 10458 C 1409.89 -9.38437 0.108857 0
M  V30 10459 C 1410.43 -9.08175 -1.28353 0
M  V30 10460 O 1409.37 -8.44229 -1.84713 0
M  V30 10461 C 1411.65 -8.18386 -1.42505 0
M  V30 10462 O 1412.39 -8.3501 -2.60497 0
M  V30 10463 C 1410.98 -6.80225 -1.25468 0
M  V30 10464 O 1411.78 -5.81621 -1.91066 0
M  V30 10465 C 1409.64 -7.02416 -1.9168 0
M  V30 10466 H 1409.67 -6.6888 -2.96621 0
M  V30 10467 H 1410.86 -6.53617 -0.192223 0
M  V30 10468 H 1412.34 -8.36622 -0.589963 0
M  V30 10469 H 1410.65 -10.0291 -1.79807 0
M  V30 10470 H 1410.46 -10.2138 0.558219 0
M  V30 10471 H 1408.83 -9.6579 0.0444202 0
M  V30 10472 H 1411.47 -5.69556 -2.79637 0
M  V30 10473 P 1413.32 -8.4349 -2.47671 0
M  V30 10474 O 1414.75 -8.92593 -2.65 0
M  V30 10475 O 1412.96 -7.7568 -1.19296 0
M  V30 10476 O 1413 -7.36886 -3.63805 0
M  V30 10477 C 1412.84 -7.95349 -4.982 0
M  V30 10478 C 1413.38 -6.94612 -5.98974 0
M  V30 10479 O 1412.32 -6.10347 -6.11815 0
M  V30 10480 C 1414.6 -6.11426 -5.62335 0
M  V30 10481 O 1415.34 -5.6162 -6.70584 0
M  V30 10482 C 1413.93 -5.04409 -4.73308 0
M  V30 10483 O 1414.73 -3.85992 -4.75183 0
M  V30 10484 C 1412.59 -4.8728 -5.41006 0
M  V30 10485 H 1412.62 -4.02333 -6.11157 0
M  V30 10486 H 1413.81 -5.39466 -3.69543 0
M  V30 10487 H 1415.29 -6.71916 -5.01943 0
M  V30 10488 H 1413.6 -7.4649 -6.93477 0
M  V30 10489 H 1413.41 -8.89416 -5.05237 0
M  V30 10490 H 1411.78 -8.14876 -5.18409 0
M  V30 10491 H 1414.42 -3.27957 -5.4317 0
M  V30 10492 P 1416.27 -5.75688 -6.64379 0
M  V30 10493 O 1417.7 -6.07758 -7.05656 0
M  V30 10494 O 1415.91 -5.88047 -5.19722 0
M  V30 10495 O 1415.95 -4.2322 -7.04443 0
M  V30 10496 C 1415.79 -3.99743 -8.4911 0
M  V30 10497 C 1416.33 -2.60487 -8.79329 0
M  V30 10498 O 1415.28 -1.82684 -8.4467 0
M  V30 10499 C 1417.55 -2.10343 -8.03628 0
M  V30 10500 O 1418.29 -1.09919 -8.67766 0
M  V30 10501 C 1416.88 -1.68446 -6.70876 0
M  V30 10502 O 1417.68 -0.678026 -6.08333 0
M  V30 10503 C 1415.54 -1.17436 -7.18567 0
M  V30 10504 N 1414.5 -1.52699 -6.23988 0
M  V30 10505 C 1414.56 -2.68084 -5.57824 0
M  V30 10506 N 1413.52 -2.8189 -4.75643 0
M  V30 10507 C 1412.78 -1.72373 -4.95155 0
M  V30 10508 C 1411.48 -1.37653 -4.44996 0
M  V30 10509 O 1410.74 -2.02239 -3.68445 0
M  V30 10510 N 1411.05 -0.17675 -4.90782 0
M  V30 10511 C 1411.8 0.645036 -5.78716 0
M  V30 10512 N 1411.2 1.84214 -6.10618 0
M  V30 10513 N 1412.95 0.321732 -6.30279 0
M  V30 10514 C 1413.41 -0.87502 -5.86913 0
M  V30 10515 H 1415.57 -0.0804732 -7.31656 0
M  V30 10516 H 1416.76 -2.53998 -6.02444 0
M  V30 10517 H 1418.24 -2.93095 -7.8582 0
M  V30 10518 H 1416.55 -2.53065 -9.86973 0
M  V30 10519 H 1416.36 -4.75072 -9.05887 0
M  V30 10520 H 1414.73 -4.05244 -8.76668 0
M  V30 10521 H 1410.15 0.152143 -4.60849 0
M  V30 10522 H 1415.36 -3.41852 -5.69006 0
M  V30 10523 H 1410.29 2.08538 -5.69521 0
M  V30 10524 H 1411.66 2.4895 -6.75698 0
M  V30 10525 H 1417.37 0.177619 -6.34151 0
M  V30 10526 P 1419.22 -1.25109 -8.70152 0
M  V30 10527 O 1420.65 -1.29744 -9.22016 0
M  V30 10528 O 1418.86 -2.13714 -7.55141 0
M  V30 10529 O 1418.9 0.248149 -8.21425 0
M  V30 10530 C 1418.74 1.22779 -9.30434 0
M  V30 10531 C 1419.28 2.56293 -8.80664 0
M  V30 10532 O 1418.23 3.02979 -8.09349 0
M  V30 10533 C 1420.5 2.57523 -7.89775 0
M  V30 10534 O 1421.24 3.7668 -7.89438 0
M  V30 10535 C 1419.83 2.20997 -6.55446 0
M  V30 10536 O 1420.63 2.71895 -5.48509 0
M  V30 10537 C 1418.49 2.89693 -6.67988 0
M  V30 10538 H 1418.53 3.88793 -6.19859 0
M  V30 10539 H 1419.71 1.12046 -6.44229 0
M  V30 10540 H 1421.19 1.7746 -8.19711 0
M  V30 10541 H 1419.5 3.20706 -9.67112 0
M  V30 10542 H 1419.31 0.901032 -10.1892 0
M  V30 10543 H 1417.68 1.33049 -9.56592 0
M  V30 10544 H 1420.32 3.57847 -5.23962 0
M  V30 10545 P 1422.17 3.65191 -7.99657 0
M  V30 10546 O 1423.6 3.89332 -8.45794 0
M  V30 10547 O 1421.81 2.28472 -7.50807 0
M  V30 10548 O 1421.85 4.64972 -6.77611 0
M  V30 10549 C 1421.69 6.06319 -7.16352 0
M  V30 10550 C 1422.23 6.91731 -6.02299 0
M  V30 10551 O 1421.18 6.92449 -5.17064 0
M  V30 10552 C 1423.45 6.43627 -5.25174 0
M  V30 10553 O 1424.19 7.43686 -4.60469 0
M  V30 10554 C 1422.78 5.40275 -4.31916 0
M  V30 10555 O 1423.58 5.25279 -3.14438 0
M  V30 10556 C 1421.44 6.04847 -4.05327 0
M  V30 10557 H 1421.48 6.62195 -3.11261 0
M  V30 10558 H 1422.66 4.42556 -4.81383 0
M  V30 10559 H 1424.14 5.92458 -5.93643 0
M  V30 10560 H 1422.45 7.92655 -6.402 0
M  V30 10561 H 1422.26 6.26671 -8.0846 0
M  V30 10562 H 1420.63 6.29101 -7.32804 0
M  V30 10563 H 1423.27 5.84315 -2.47318 0
M  V30 10564 P 1425.13 7.39546 -4.75277 0
M  V30 10565 O 1426.55 7.84966 -5.01146 0
M  V30 10566 O 1424.77 5.9812 -5.08098 0
M  V30 10567 O 1424.8 7.57503 -3.1866 0
M  V30 10568 C 1424.64 8.97357 -2.74833 0
M  V30 10569 C 1425.18 9.0745 -1.32694 0
M  V30 10570 O 1424.13 8.62072 -0.606159 0
M  V30 10571 C 1426.4 8.25383 -0.938334 0
M  V30 10572 O 1427.14 8.74577 0.146954 0
M  V30 10573 C 1425.73 6.8802 -0.712559 0
M  V30 10574 O 1426.53 6.11791 0.194623 0
M  V30 10575 C 1424.39 7.27966 -0.139777 0
M  V30 10576 N 1423.35 6.39368 -0.623421 0
M  V30 10577 C 1423.41 5.90299 -1.85969 0
M  V30 10578 N 1422.37 5.10919 -2.1133 0
M  V30 10579 C 1421.63 5.14646 -1.0015 0
M  V30 10580 C 1420.33 4.60057 -0.729219 0
M  V30 10581 O 1419.6 3.93476 -1.47746 0
M  V30 10582 N 1419.9 4.88302 0.523505 0
M  V30 10583 C 1420.65 5.63646 1.46207 0
M  V30 10584 N 1420.05 5.78186 2.69239 0
M  V30 10585 N 1421.8 6.19285 1.21544 0
M  V30 10586 C 1422.26 5.93392 -0.0308487 0
M  V30 10587 H 1424.43 7.25354 0.961601 0
M  V30 10588 H 1425.61 6.3246 -1.65676 0
M  V30 10589 H 1427.09 8.19533 -1.78278 0
M  V30 10590 H 1425.4 10.1294 -1.10029 0
M  V30 10591 H 1425.21 9.64276 -3.41316 0
M  V30 10592 H 1423.58 9.25417 -2.76357 0
M  V30 10593 H 1419 4.53993 0.806451 0
M  V30 10594 H 1424.21 6.11865 -2.57394 0
M  V30 10595 H 1419.14 5.34046 2.87467 0
M  V30 10596 H 1420.52 6.33391 3.42578 0
M  V30 10597 H 1426.22 6.25169 1.0783 0
M  V30 10598 P 1428.08 8.791 1.16485e-11 0
M  V30 10599 O 1429.5 9.31096 0.027933 0
M  V30 10600 O 1427.72 7.77869 -1.04071 0
M  V30 10601 O 1427.75 8.09533 1.41463 0
M  V30 10602 C 1427.59 9.0349 2.53943 0
M  V30 10603 C 1428.13 8.35226 3.79016 0
M  V30 10604 O 1427.08 7.57992 4.15078 0
M  V30 10605 C 1429.35 7.45087 3.67298 0
M  V30 10606 O 1430.09 7.27796 4.85194 0
M  V30 10607 C 1428.68 6.17323 3.12027 0
M  V30 10608 O 1429.48 5.04231 3.47188 0
M  V30 10609 C 1427.34 6.19961 3.81809 0
M  V30 10610 H 1427.38 5.58218 4.73051 0
M  V30 10611 H 1428.56 6.21726 2.02589 0
M  V30 10612 H 1430.04 7.86112 2.9231 0
M  V30 10613 H 1428.35 9.11627 4.55076 0
M  V30 10614 H 1428.16 9.9573 2.34194 0
M  V30 10615 H 1426.53 9.2792 2.67832 0
M  V30 10616 H 1429.17 4.67702 4.28772 0
M  V30 10617 P 1431.03 7.39546 4.75277 0
M  V30 10618 O 1432.45 7.81777 5.05738 0
M  V30 10619 O 1430.67 7.1065 3.32998 0
M  V30 10620 O 1430.7 6.04542 5.56673 0
M  V30 10621 C 1430.54 6.22772 7.02095 0
M  V30 10622 C 1431.08 4.97725 7.70406 0
M  V30 10623 O 1430.03 4.13256 7.58987 0
M  V30 10624 C 1432.3 4.28231 7.11815 0
M  V30 10625 O 1433.04 3.49945 8.01648 0
M  V30 10626 C 1431.63 3.5063 5.96244 0
M  V30 10627 O 1432.43 2.36482 5.64681 0
M  V30 10628 C 1430.3 3.15122 6.56374 0
M  V30 10629 H 1430.33 2.13853 6.99751 0
M  V30 10630 H 1431.51 4.13501 5.06559 0
M  V30 10631 H 1432.99 5.03285 6.70911 0
M  V30 10632 H 1431.3 5.20877 8.75697 0
M  V30 10633 H 1431.11 7.11046 7.35349 0
M  V30 10634 H 1429.48 6.35815 7.26986 0
M  V30 10635 H 1432.12 1.61644 6.13565 0
M  V30 10636 P 1433.98 3.65191 7.99657 0
M  V30 10637 O 1435.4 3.8425 8.48115 0
M  V30 10638 O 1433.62 4.17805 6.64342 0
M  V30 10639 O 1433.65 2.07613 7.95143 0
M  V30 10640 C 1433.49 1.44328 9.27336 0
M  V30 10641 C 1434.03 0.0220036 9.17197 0
M  V30 10642 O 1432.98 -0.626867 8.61923 0
M  V30 10643 C 1435.25 -0.24586 8.30336 0
M  V30 10644 O 1435.99 -1.39011 8.63583 0
M  V30 10645 C 1434.58 -0.273849 6.91158 0
M  V30 10646 O 1435.38 -1.06348 6.02892 0
M  V30 10647 C 1433.25 -0.897649 7.22545 0
M  V30 10648 H 1433.28 -1.9841 7.04286 0
M  V30 10649 H 1434.46 0.739928 6.497 0
M  V30 10650 H 1435.95 0.60668 8.36503 0
M  V30 10651 H 1434.25 -0.352479 10.1829 0
M  V30 10652 H 1434.06 2.00611 10.0304 0
M  V30 10653 H 1432.43 1.41843 9.55327 0
M  V30 10654 H 1435.07 -1.95734 6.03555 0
M  V30 10655 P 1436.93 -1.25109 8.70152 0
M  V30 10656 O 1438.35 -1.35274 9.21221 0
M  V30 10657 O 1436.57 -0.0769065 7.84762 0
M  V30 10658 O 1436.6 -2.55232 7.81161 0
M  V30 10659 C 1436.44 -3.79939 8.58154 0
M  V30 10660 C 1436.98 -4.94023 7.72785 0
M  V30 10661 O 1435.93 -5.18726 6.91205 0
M  V30 10662 C 1438.2 -4.69597 6.85231 0
M  V30 10663 O 1438.94 -5.83832 6.51337 0
M  V30 10664 C 1437.53 -3.96706 5.66633 0
M  V30 10665 O 1438.33 -4.15414 4.49689 0
M  V30 10666 C 1436.2 -4.66153 5.59313 0
M  V30 10667 H 1436.23 -5.47679 4.85214 0
M  V30 10668 H 1437.41 -2.89008 5.86566 0
M  V30 10669 H 1438.9 -4.0121 7.36511 0
M  V30 10670 H 1437.2 -5.80182 8.37584 0
M  V30 10671 H 1437.01 -3.73517 9.52265 0
M  V30 10672 H 1435.38 -3.97163 8.80359 0
M  V30 10673 H 1438.02 -4.90969 4.01921 0
M  V30 10674 P 1439.88 -5.75688 6.64379 0
M  V30 10675 O 1441.3 -6.11849 7.01846 0
M  V30 10676 O 1439.52 -4.30744 6.56026 0
M  V30 10677 O 1439.56 -6.37042 5.19165 0
M  V30 10678 C 1439.4 -7.83578 5.16515 0
M  V30 10679 C 1439.94 -8.33398 3.83019 0
M  V30 10680 O 1438.88 -8.10074 3.01034 0
M  V30 10681 C 1441.15 -7.65514 3.2257 0
M  V30 10682 O 1441.89 -8.4329 2.32297 0
M  V30 10683 C 1440.48 -6.40075 2.62207 0
M  V30 10684 O 1441.28 -5.92589 1.53712 0
M  V30 10685 C 1439.15 -6.9454 2.18503 0
M  V30 10686 H 1439.18 -7.23063 1.12091 0
M  V30 10687 H 1440.36 -5.6025 3.37201 0
M  V30 10688 H 1441.85 -7.35707 4.02681 0
M  V30 10689 H 1440.15 -9.40912 3.9095 0
M  V30 10690 H 1439.96 -8.29056 5.99158 0
M  V30 10691 H 1438.33 -8.10073 5.25882 0
M  V30 10692 H 1440.97 -6.30324 0.726794 0
M  V30 10693 P 1442.83 -8.4349 2.47671 0
M  V30 10694 O 1444.25 -8.94167 2.5964 0
M  V30 10695 O 1442.47 -7.1704 3.19006 0
M  V30 10696 O 1442.51 -8.16596 0.923387 0
M  V30 10697 C 1442.35 -9.38437 0.108857 0
M  V30 10698 C 1442.89 -9.08175 -1.28353 0
M  V30 10699 O 1441.83 -8.44229 -1.84713 0
M  V30 10700 C 1444.1 -8.18386 -1.42505 0
M  V30 10701 O 1444.84 -8.3501 -2.60497 0
M  V30 10702 C 1443.43 -6.80225 -1.25468 0
M  V30 10703 O 1444.23 -5.81621 -1.91066 0
M  V30 10704 C 1442.1 -7.02416 -1.9168 0
M  V30 10705 H 1442.13 -6.6888 -2.96621 0
M  V30 10706 H 1443.31 -6.53617 -0.192223 0
M  V30 10707 H 1444.8 -8.36622 -0.589963 0
M  V30 10708 H 1443.1 -10.0291 -1.79807 0
M  V30 10709 H 1442.91 -10.2138 0.558219 0
M  V30 10710 H 1441.28 -9.6579 0.0444202 0
M  V30 10711 H 1443.92 -5.69556 -2.79637 0
M  V30 10712 P 1445.78 -8.4349 -2.47671 0
M  V30 10713 O 1447.2 -8.92593 -2.65 0
M  V30 10714 O 1445.42 -7.7568 -1.19296 0
M  V30 10715 O 1445.46 -7.36886 -3.63805 0
M  V30 10716 C 1445.3 -7.95349 -4.982 0
M  V30 10717 C 1445.84 -6.94612 -5.98974 0
M  V30 10718 O 1444.78 -6.10347 -6.11815 0
M  V30 10719 C 1447.05 -6.11426 -5.62335 0
M  V30 10720 O 1447.79 -5.6162 -6.70584 0
M  V30 10721 C 1446.39 -5.04409 -4.73308 0
M  V30 10722 O 1447.18 -3.85992 -4.75183 0
M  V30 10723 C 1445.05 -4.8728 -5.41006 0
M  V30 10724 H 1445.08 -4.02333 -6.11157 0
M  V30 10725 H 1446.26 -5.39466 -3.69543 0
M  V30 10726 H 1447.75 -6.71916 -5.01943 0
M  V30 10727 H 1446.05 -7.4649 -6.93477 0
M  V30 10728 H 1445.86 -8.89416 -5.05237 0
M  V30 10729 H 1444.23 -8.14876 -5.18409 0
M  V30 10730 H 1446.87 -3.27957 -5.4317 0
M  V30 10731 P 1448.73 -5.75688 -6.64379 0
M  V30 10732 O 1450.15 -6.07627 -7.05504 0
M  V30 10733 O 1448.37 -5.88047 -5.19722 0
M  V30 10734 O 1448.41 -4.2322 -7.04443 0
M  V30 10735 C 1448.25 -3.99743 -8.4911 0
M  V30 10736 C 1448.79 -2.60516 -8.79425 0
M  V30 10737 O 1447.73 -1.82684 -8.4467 0
M  V30 10738 C 1450 -2.10343 -8.03628 0
M  V30 10739 O 1450.74 -1.09919 -8.67766 0
M  V30 10740 C 1449.34 -1.68446 -6.70876 0
M  V30 10741 O 1450.13 -0.678137 -6.08433 0
M  V30 10742 C 1448 -1.17436 -7.18567 0
M  V30 10743 H 1448.03 -0.0804732 -7.31656 0
M  V30 10744 H 1449.21 -2.54037 -6.02537 0
M  V30 10745 H 1450.7 -2.93881 -7.85526 0
M  V30 10746 H 1449 -2.53065 -9.86973 0
M  V30 10747 H 1448.81 -4.75072 -9.05887 0
M  V30 10748 H 1447.18 -4.05244 -8.76668 0
M  V30 10749 H 1449.82 0.177647 -6.34251 0
M  V30 10750 P 1451.68 -1.25109 -8.70152 0
M  V30 10751 O 1453.1 -1.29744 -9.22016 0
M  V30 10752 O 1451.32 -2.13714 -7.55141 0
M  V30 10753 O 1451.36 0.248149 -8.21425 0
M  V30 10754 C 1451.2 1.22779 -9.30434 0
M  V30 10755 C 1451.74 2.56293 -8.80664 0
M  V30 10756 O 1450.68 3.02979 -8.09349 0
M  V30 10757 C 1452.96 2.57523 -7.89775 0
M  V30 10758 O 1453.69 3.7668 -7.89438 0
M  V30 10759 C 1452.29 2.20997 -6.55446 0
M  V30 10760 O 1453.09 2.71895 -5.48509 0
M  V30 10761 C 1450.95 2.89693 -6.67988 0
M  V30 10762 H 1450.98 3.88793 -6.19859 0
M  V30 10763 H 1452.16 1.12046 -6.44229 0
M  V30 10764 H 1453.65 1.7746 -8.19711 0
M  V30 10765 H 1451.95 3.20706 -9.67112 0
M  V30 10766 H 1451.76 0.901032 -10.1892 0
M  V30 10767 H 1450.13 1.33049 -9.56592 0
M  V30 10768 H 1452.77 3.57847 -5.23962 0
M  V30 10769 P 1454.63 3.65191 -7.99657 0
M  V30 10770 O 1456.05 3.89332 -8.45794 0
M  V30 10771 O 1454.27 2.28472 -7.50807 0
M  V30 10772 O 1454.31 4.64972 -6.77611 0
M  V30 10773 C 1454.15 6.06319 -7.16352 0
M  V30 10774 C 1454.69 6.91731 -6.02299 0
M  V30 10775 O 1453.63 6.92449 -5.17064 0
M  V30 10776 C 1455.91 6.43627 -5.25174 0
M  V30 10777 O 1456.64 7.43686 -4.60469 0
M  V30 10778 C 1455.24 5.40275 -4.31916 0
M  V30 10779 O 1456.04 5.25279 -3.14438 0
M  V30 10780 C 1453.9 6.04847 -4.05327 0
M  V30 10781 H 1453.93 6.62195 -3.11261 0
M  V30 10782 H 1455.12 4.42556 -4.81383 0
M  V30 10783 H 1456.6 5.92458 -5.93643 0
M  V30 10784 H 1454.91 7.92655 -6.402 0
M  V30 10785 H 1454.72 6.26671 -8.0846 0
M  V30 10786 H 1453.09 6.29101 -7.32804 0
M  V30 10787 H 1455.72 5.84315 -2.47318 0
M  V30 10788 P 1457.58 7.39546 -4.75277 0
M  V30 10789 O 1459 7.84798 -5.01039 0
M  V30 10790 O 1457.22 5.9812 -5.08098 0
M  V30 10791 O 1457.26 7.57503 -3.1866 0
M  V30 10792 C 1457.1 8.97357 -2.74833 0
M  V30 10793 C 1457.64 9.07548 -1.32709 0
M  V30 10794 O 1456.58 8.62072 -0.606159 0
M  V30 10795 C 1458.86 8.25383 -0.938334 0
M  V30 10796 O 1459.59 8.74577 0.146954 0
M  V30 10797 C 1458.19 6.8802 -0.712559 0
M  V30 10798 O 1458.99 6.1189 0.194655 0
M  V30 10799 C 1456.85 7.27966 -0.139777 0
M  V30 10800 H 1456.88 7.25354 0.961601 0
M  V30 10801 H 1458.07 6.32557 -1.65702 0
M  V30 10802 H 1459.55 8.19355 -1.79097 0
M  V30 10803 H 1457.86 10.1294 -1.10029 0
M  V30 10804 H 1457.67 9.64276 -3.41316 0
M  V30 10805 H 1456.04 9.25417 -2.76357 0
M  V30 10806 H 1458.67 6.25267 1.07847 0
M  V30 10807 P 1460.53 8.791 1.19586e-11 0
M  V30 10808 O 1461.95 9.31096 0.027933 0
M  V30 10809 O 1460.17 7.77869 -1.04071 0
M  V30 10810 O 1460.21 8.09533 1.41463 0
M  V30 10811 C 1460.05 9.0349 2.53943 0
M  V30 10812 C 1460.59 8.35226 3.79016 0
M  V30 10813 O 1459.53 7.57992 4.15078 0
M  V30 10814 C 1461.81 7.45087 3.67298 0
M  V30 10815 O 1462.55 7.27796 4.85194 0
M  V30 10816 C 1461.14 6.17323 3.12027 0
M  V30 10817 O 1461.94 5.04231 3.47188 0
M  V30 10818 C 1459.8 6.19961 3.81809 0
M  V30 10819 H 1459.83 5.58218 4.73051 0
M  V30 10820 H 1461.02 6.21726 2.02589 0
M  V30 10821 H 1462.5 7.86112 2.9231 0
M  V30 10822 H 1460.81 9.11627 4.55076 0
M  V30 10823 H 1460.62 9.9573 2.34194 0
M  V30 10824 H 1458.99 9.2792 2.67832 0
M  V30 10825 H 1461.63 4.67702 4.28772 0
M  V30 10826 P 1463.48 7.39546 4.75277 0
M  V30 10827 O 1464.9 7.81777 5.05738 0
M  V30 10828 O 1463.12 7.1065 3.32998 0
M  V30 10829 O 1463.16 6.04542 5.56673 0
M  V30 10830 C 1463 6.22772 7.02095 0
M  V30 10831 C 1463.54 4.97725 7.70406 0
M  V30 10832 O 1462.48 4.13256 7.58987 0
M  V30 10833 C 1464.76 4.28231 7.11815 0
M  V30 10834 O 1465.5 3.49945 8.01648 0
M  V30 10835 C 1464.09 3.5063 5.96244 0
M  V30 10836 O 1464.89 2.36482 5.64681 0
M  V30 10837 C 1462.75 3.15122 6.56374 0
M  V30 10838 H 1462.78 2.13853 6.99751 0
M  V30 10839 H 1463.97 4.13501 5.06559 0
M  V30 10840 H 1465.45 5.03285 6.70911 0
M  V30 10841 H 1463.76 5.20877 8.75697 0
M  V30 10842 H 1463.57 7.11046 7.35349 0
M  V30 10843 H 1461.94 6.35815 7.26986 0
M  V30 10844 H 1464.58 1.61644 6.13565 0
M  V30 10845 P 1466.43 3.65191 7.99657 0
M  V30 10846 O 1467.86 3.8425 8.48115 0
M  V30 10847 O 1466.07 4.17805 6.64342 0
M  V30 10848 O 1466.11 2.07613 7.95143 0
M  V30 10849 C 1465.95 1.44328 9.27336 0
M  V30 10850 C 1466.49 0.0220036 9.17197 0
M  V30 10851 O 1465.43 -0.626867 8.61923 0
M  V30 10852 C 1467.71 -0.24586 8.30336 0
M  V30 10853 O 1468.45 -1.39011 8.63583 0
M  V30 10854 C 1467.04 -0.273849 6.91158 0
M  V30 10855 O 1467.84 -1.06348 6.02892 0
M  V30 10856 C 1465.7 -0.897649 7.22545 0
M  V30 10857 H 1465.73 -1.9841 7.04286 0
M  V30 10858 H 1466.92 0.739928 6.497 0
M  V30 10859 H 1468.4 0.60668 8.36503 0
M  V30 10860 H 1466.71 -0.352479 10.1829 0
M  V30 10861 H 1466.52 2.00611 10.0304 0
M  V30 10862 H 1464.89 1.41843 9.55327 0
M  V30 10863 H 1467.53 -1.95734 6.03555 0
M  V30 10864 P 1469.38 -1.25109 8.70152 0
M  V30 10865 O 1470.81 -1.35274 9.21221 0
M  V30 10866 O 1469.02 -0.0769065 7.84762 0
M  V30 10867 O 1469.06 -2.55232 7.81161 0
M  V30 10868 C 1468.9 -3.79939 8.58154 0
M  V30 10869 C 1469.44 -4.94023 7.72785 0
M  V30 10870 O 1468.38 -5.18726 6.91205 0
M  V30 10871 C 1470.66 -4.69597 6.85231 0
M  V30 10872 O 1471.4 -5.83832 6.51337 0
M  V30 10873 C 1469.99 -3.96706 5.66633 0
M  V30 10874 O 1470.79 -4.15414 4.49689 0
M  V30 10875 C 1468.65 -4.66153 5.59313 0
M  V30 10876 H 1468.68 -5.47679 4.85214 0
M  V30 10877 H 1469.87 -2.89008 5.86566 0
M  V30 10878 H 1471.35 -4.0121 7.36511 0
M  V30 10879 H 1469.66 -5.80182 8.37584 0
M  V30 10880 H 1469.47 -3.73517 9.52265 0
M  V30 10881 H 1467.84 -3.97163 8.80359 0
M  V30 10882 H 1470.48 -4.90969 4.01921 0
M  V30 10883 P 1472.33 -5.75688 6.64379 0
M  V30 10884 O 1473.76 -6.11849 7.01846 0
M  V30 10885 O 1471.97 -4.30744 6.56026 0
M  V30 10886 O 1472.01 -6.37042 5.19165 0
M  V30 10887 C 1471.85 -7.83578 5.16515 0
M  V30 10888 C 1472.39 -8.33398 3.83019 0
M  V30 10889 O 1471.34 -8.10074 3.01034 0
M  V30 10890 C 1473.61 -7.65514 3.2257 0
M  V30 10891 O 1474.35 -8.4329 2.32297 0
M  V30 10892 C 1472.94 -6.40075 2.62207 0
M  V30 10893 O 1473.74 -5.92589 1.53712 0
M  V30 10894 C 1471.6 -6.9454 2.18503 0
M  V30 10895 H 1471.64 -7.23063 1.12091 0
M  V30 10896 H 1472.82 -5.6025 3.37201 0
M  V30 10897 H 1474.3 -7.35707 4.02681 0
M  V30 10898 H 1472.61 -9.40912 3.9095 0
M  V30 10899 H 1472.42 -8.29056 5.99158 0
M  V30 10900 H 1470.79 -8.10073 5.25882 0
M  V30 10901 H 1473.43 -6.30324 0.726794 0
M  V30 10902 P 1475.28 -8.4349 2.47671 0
M  V30 10903 O 1476.71 -8.94263 2.59668 0
M  V30 10904 O 1474.92 -7.1704 3.19006 0
M  V30 10905 O 1474.96 -8.16596 0.923387 0
M  V30 10906 C 1474.8 -9.38537 0.108869 0
M  V30 10907 C 1475.34 -9.08175 -1.28353 0
M  V30 10908 O 1474.29 -8.44131 -1.84692 0
M  V30 10909 C 1476.56 -8.18386 -1.42505 0
M  V30 10910 O 1477.3 -8.3501 -2.60497 0
M  V30 10911 C 1475.89 -6.80225 -1.25468 0
M  V30 10912 O 1476.69 -5.81716 -1.90454 0
M  V30 10913 C 1474.55 -7.02416 -1.9168 0
M  V30 10914 N 1473.51 -6.31033 -1.20314 0
M  V30 10915 C 1473.68 -5.98817 0.0994088 0
M  V30 10916 N 1472.65 -5.35403 0.621694 0
M  V30 10917 C 1471.77 -5.25212 -0.43376 0
M  V30 10918 C 1470.5 -4.64602 -0.519722 0
M  V30 10919 N 1469.9 -4.01457 0.519136 0
M  V30 10920 N 1469.94 -4.7568 -1.76013 0
M  V30 10921 C 1470.54 -5.3653 -2.83017 0
M  V30 10922 N 1471.71 -5.93676 -2.79782 0
M  V30 10923 C 1472.29 -5.84061 -1.56249 0
M  V30 10924 H 1474.59 -6.68789 -2.9658 0
M  V30 10925 H 1475.77 -6.53498 -0.198729 0
M  V30 10926 H 1477.25 -8.36622 -0.589963 0
M  V30 10927 H 1475.56 -10.0273 -1.8081 0
M  V30 10928 H 1475.37 -10.2138 0.558219 0
M  V30 10929 H 1473.74 -9.6579 0.0444202 0
M  V30 10930 H 1470 -5.37113 -3.77321 0
M  V30 10931 H 1474.58 -6.23209 0.660562 0
M  V30 10932 H 1468.97 -3.58834 0.394862 0
M  V30 10933 H 1470.38 -3.96059 1.43048 0
M  V30 10934 H 1476.38 -5.69466 -2.79593 0
M  V30 10935 P 1478.24 -8.4349 -2.47671 0
M  V30 10936 O 1479.66 -8.92785 -2.65057 0
M  V30 10937 O 1477.88 -7.7568 -1.19296 0
M  V30 10938 O 1477.91 -7.36886 -3.63805 0
M  V30 10939 C 1477.75 -7.95349 -4.982 0
M  V30 10940 C 1478.29 -6.94537 -5.98908 0
M  V30 10941 O 1477.24 -6.10347 -6.11815 0
M  V30 10942 C 1479.51 -6.11426 -5.62335 0
M  V30 10943 O 1480.25 -5.6162 -6.70584 0
M  V30 10944 C 1478.84 -5.04409 -4.73308 0
M  V30 10945 O 1479.64 -3.85929 -4.75106 0
M  V30 10946 C 1477.5 -4.8728 -5.41006 0
M  V30 10947 N 1476.46 -4.65812 -4.42377 0
M  V30 10948 C 1476.52 -5.27109 -3.24335 0
M  V30 10949 N 1475.48 -4.94293 -2.47735 0
M  V30 10950 C 1474.74 -4.1271 -3.23359 0
M  V30 10951 C 1473.44 -3.56384 -2.99934 0
M  V30 10952 O 1472.71 -3.69331 -2.00616 0
M  V30 10953 N 1473.01 -2.80206 -4.03316 0
M  V30 10954 C 1473.76 -2.58614 -5.2172 0
M  V30 10955 N 1473.16 -1.75154 -6.13278 0
M  V30 10956 N 1474.91 -3.13689 -5.47619 0
M  V30 10957 C 1475.37 -3.90921 -4.46436 0
M  V30 10958 H 1477.54 -4.02333 -6.11157 0
M  V30 10959 H 1478.72 -5.39383 -3.69487 0
M  V30 10960 H 1480.2 -6.71414 -5.02615 0
M  V30 10961 H 1478.51 -7.4649 -6.93477 0
M  V30 10962 H 1478.32 -8.89416 -5.05237 0
M  V30 10963 H 1476.69 -8.14876 -5.18409 0
M  V30 10964 H 1472.11 -2.36355 -3.95916 0
M  V30 10965 H 1477.32 -5.95212 -2.93859 0
M  V30 10966 H 1472.25 -1.32473 -5.91856 0
M  V30 10967 H 1473.63 -1.5588 -7.03026 0
M  V30 10968 H 1479.33 -3.27906 -5.43085 0
M  V30 10969 P 1481.19 -5.75688 -6.64379 0
M  V30 10970 O 1482.61 -6.07627 -7.05504 0
M  V30 10971 O 1480.83 -5.88047 -5.19722 0
M  V30 10972 O 1480.86 -4.2322 -7.04443 0
M  V30 10973 C 1480.7 -3.99743 -8.4911 0
M  V30 10974 C 1481.24 -2.60516 -8.79425 0
M  V30 10975 O 1480.19 -1.82684 -8.4467 0
M  V30 10976 C 1482.46 -2.10343 -8.03628 0
M  V30 10977 O 1483.2 -1.09919 -8.67766 0
M  V30 10978 C 1481.79 -1.68446 -6.70876 0
M  V30 10979 O 1482.59 -0.678137 -6.08433 0
M  V30 10980 C 1480.46 -1.17436 -7.18567 0
M  V30 10981 H 1480.49 -0.0804732 -7.31656 0
M  V30 10982 H 1481.67 -2.54037 -6.02537 0
M  V30 10983 H 1483.15 -2.93881 -7.85526 0
M  V30 10984 H 1481.46 -2.53065 -9.86973 0
M  V30 10985 H 1481.27 -4.75072 -9.05887 0
M  V30 10986 H 1479.64 -4.05244 -8.76668 0
M  V30 10987 H 1482.28 0.177647 -6.34251 0
M  V30 10988 P 1484.14 -1.25109 -8.70152 0
M  V30 10989 O 1485.56 -1.29758 -9.22115 0
M  V30 10990 O 1483.78 -2.13714 -7.55141 0
M  V30 10991 O 1483.81 0.248149 -8.21425 0
M  V30 10992 C 1483.65 1.22792 -9.30533 0
M  V30 10993 C 1484.19 2.56293 -8.80664 0
M  V30 10994 O 1483.14 3.02944 -8.09255 0
M  V30 10995 C 1485.41 2.57523 -7.89775 0
M  V30 10996 O 1486.15 3.7668 -7.89438 0
M  V30 10997 C 1484.74 2.20997 -6.55446 0
M  V30 10998 O 1485.54 2.71302 -5.48691 0
M  V30 10999 C 1483.41 2.89693 -6.67988 0
M  V30 11000 N 1482.36 2.08895 -6.07487 0
M  V30 11001 C 1482.53 0.753809 -5.94137 0
M  V30 11002 N 1481.5 0.146592 -5.38801 0
M  V30 11003 C 1480.62 1.1768 -5.13693 0
M  V30 11004 C 1479.35 1.17563 -4.52477 0
M  V30 11005 N 1478.75 0.057481 -4.04759 0
M  V30 11006 N 1478.79 2.41918 -4.45789 0
M  V30 11007 C 1479.39 3.56493 -4.90792 0
M  V30 11008 N 1480.57 3.61423 -5.47817 0
M  V30 11009 C 1481.14 2.37779 -5.5588 0
M  V30 11010 H 1483.44 3.8874 -6.19774 0
M  V30 11011 H 1484.62 1.12673 -6.44018 0
M  V30 11012 H 1486.1 1.7746 -8.19711 0
M  V30 11013 H 1484.41 3.21673 -9.66791 0
M  V30 11014 H 1484.22 0.901032 -10.1892 0
M  V30 11015 H 1482.59 1.33049 -9.56592 0
M  V30 11016 H 1478.85 4.49919 -4.77947 0
M  V30 11017 H 1483.43 0.233081 -6.26266 0
M  V30 11018 H 1477.82 0.119831 -3.60801 0
M  V30 11019 H 1479.23 -0.852272 -4.12385 0
M  V30 11020 H 1485.23 3.5779 -5.23879 0
M  V30 11021 P 1487.09 3.65191 -7.99657 0
M  V30 11022 O 1488.51 3.89332 -8.45794 0
M  V30 11023 O 1486.73 2.28472 -7.50807 0
M  V30 11024 O 1486.76 4.64972 -6.77611 0
M  V30 11025 C 1486.6 6.06319 -7.16352 0
M  V30 11026 C 1487.14 6.91731 -6.02299 0
M  V30 11027 O 1486.09 6.92449 -5.17064 0
M  V30 11028 C 1488.36 6.43627 -5.25174 0
M  V30 11029 O 1489.1 7.43686 -4.60469 0
M  V30 11030 C 1487.69 5.40275 -4.31916 0
M  V30 11031 O 1488.49 5.25279 -3.14438 0
M  V30 11032 C 1486.36 6.04847 -4.05327 0
M  V30 11033 H 1486.39 6.62195 -3.11261 0
M  V30 11034 H 1487.57 4.42556 -4.81383 0
M  V30 11035 H 1489.06 5.92458 -5.93643 0
M  V30 11036 H 1487.36 7.92655 -6.402 0
M  V30 11037 H 1487.17 6.26671 -8.0846 0
M  V30 11038 H 1485.54 6.29101 -7.32804 0
M  V30 11039 H 1488.18 5.84315 -2.47318 0
M  V30 11040 P 1490.04 7.39546 -4.75277 0
M  V30 11041 O 1491.46 7.84798 -5.01039 0
M  V30 11042 O 1489.68 5.9812 -5.08098 0
M  V30 11043 O 1489.71 7.57503 -3.1866 0
M  V30 11044 C 1489.55 8.97357 -2.74833 0
M  V30 11045 C 1490.09 9.07548 -1.32709 0
M  V30 11046 O 1489.04 8.62072 -0.606159 0
M  V30 11047 C 1491.31 8.25383 -0.938334 0
M  V30 11048 O 1492.05 8.74577 0.146954 0
M  V30 11049 C 1490.64 6.8802 -0.712559 0
M  V30 11050 O 1491.44 6.1189 0.194655 0
M  V30 11051 C 1489.31 7.27966 -0.139777 0
M  V30 11052 H 1489.34 7.25354 0.961601 0
M  V30 11053 H 1490.52 6.32557 -1.65702 0
M  V30 11054 H 1492.01 8.19355 -1.79097 0
M  V30 11055 H 1490.31 10.1294 -1.10029 0
M  V30 11056 H 1490.12 9.64276 -3.41316 0
M  V30 11057 H 1488.49 9.25417 -2.76357 0
M  V30 11058 H 1491.13 6.25267 1.07847 0
M  V30 11059 P 1492.99 8.791 1.22688e-11 0
M  V30 11060 O 1494.39 9.36698 -0.018734 0
M  V30 11061 O 1492.61 7.82499 -1.07878 0
M  V30 11062 O 1492.67 8.09434 1.41446 0
M  V30 11063 C 1492.51 9.0349 2.53943 0
M  V30 11064 C 1493.05 8.35135 3.78975 0
M  V30 11065 O 1491.99 7.57904 4.1503 0
M  V30 11066 C 1494.26 7.45087 3.67298 0
M  V30 11067 O 1495 7.27796 4.85194 0
M  V30 11068 C 1493.6 6.17323 3.12027 0
M  V30 11069 O 1494.39 5.04149 3.47132 0
M  V30 11070 C 1492.26 6.19961 3.81809 0
M  V30 11071 N 1491.21 5.71575 2.93223 0
M  V30 11072 C 1490.18 4.99452 3.47592 0
M  V30 11073 O 1490.22 4.7199 4.69732 0
M  V30 11074 N 1489.17 4.58505 2.6803 0
M  V30 11075 C 1489.22 4.85544 1.36995 0
M  V30 11076 C 1490.31 5.55532 0.788532 0
M  V30 11077 C 1491.28 5.97426 1.60849 0
M  V30 11078 H 1492.29 5.58142 4.72986 0
M  V30 11079 H 1493.47 6.21428 2.0318 0
M  V30 11080 H 1494.96 7.85913 2.93131 0
M  V30 11081 H 1493.26 9.11171 4.55987 0
M  V30 11082 H 1493.07 9.9573 2.34194 0
M  V30 11083 H 1491.44 9.27824 2.67805 0
M  V30 11084 H 1490.36 5.7421 -0.281588 0
M  V30 11085 H 1492.12 6.53132 1.202 0
M  V30 11086 H 1494.18 4.76386 4.34983 0
M  V30 11087 P 1495.94 7.39546 4.75277 0
M  V30 11088 O 1497.36 7.81777 5.05738 0
M  V30 11089 O 1495.58 7.1065 3.32998 0
M  V30 11090 O 1495.62 6.04542 5.56673 0
M  V30 11091 C 1495.46 6.22772 7.02095 0
M  V30 11092 C 1496 4.97725 7.70406 0
M  V30 11093 O 1494.94 4.13256 7.58987 0
M  V30 11094 C 1497.21 4.28231 7.11815 0
M  V30 11095 O 1497.95 3.49945 8.01648 0
M  V30 11096 C 1496.54 3.5063 5.96244 0
M  V30 11097 O 1497.34 2.36482 5.64681 0
M  V30 11098 C 1495.21 3.15122 6.56374 0
M  V30 11099 H 1495.24 2.13853 6.99751 0
M  V30 11100 H 1496.42 4.13501 5.06559 0
M  V30 11101 H 1497.91 5.03285 6.70911 0
M  V30 11102 H 1496.21 5.20877 8.75697 0
M  V30 11103 H 1496.02 7.11046 7.35349 0
M  V30 11104 H 1494.39 6.35815 7.26986 0
M  V30 11105 H 1497.03 1.61644 6.13565 0
M  V30 11106 P 1498.89 3.65191 7.99657 0
M  V30 11107 O 1500.31 3.8425 8.48115 0
M  V30 11108 O 1498.53 4.17805 6.64342 0
M  V30 11109 O 1498.57 2.07613 7.95143 0
M  V30 11110 C 1498.41 1.44328 9.27336 0
M  V30 11111 C 1498.95 0.0220036 9.17197 0
M  V30 11112 O 1497.89 -0.626867 8.61923 0
M  V30 11113 C 1500.16 -0.24586 8.30336 0
M  V30 11114 O 1500.9 -1.39011 8.63583 0
M  V30 11115 C 1499.5 -0.273849 6.91158 0
M  V30 11116 O 1500.29 -1.06348 6.02892 0
M  V30 11117 C 1498.16 -0.897649 7.22545 0
M  V30 11118 H 1498.19 -1.9841 7.04286 0
M  V30 11119 H 1499.37 0.739928 6.497 0
M  V30 11120 H 1500.86 0.60668 8.36503 0
M  V30 11121 H 1499.16 -0.352479 10.1829 0
M  V30 11122 H 1498.97 2.00611 10.0304 0
M  V30 11123 H 1497.34 1.41843 9.55327 0
M  V30 11124 H 1499.98 -1.95734 6.03555 0
M  V30 11125 P 1501.84 -1.25109 8.70152 0
M  V30 11126 O 1503.26 -1.35274 9.21221 0
M  V30 11127 O 1501.48 -0.0769065 7.84762 0
M  V30 11128 O 1501.52 -2.55232 7.81161 0
M  V30 11129 C 1501.36 -3.79939 8.58154 0
M  V30 11130 C 1501.9 -4.94023 7.72785 0
M  V30 11131 O 1500.84 -5.18726 6.91205 0
M  V30 11132 C 1503.12 -4.69597 6.85231 0
M  V30 11133 O 1503.85 -5.83832 6.51337 0
M  V30 11134 C 1502.45 -3.96706 5.66633 0
M  V30 11135 O 1503.25 -4.15414 4.49689 0
M  V30 11136 C 1501.11 -4.66153 5.59313 0
M  V30 11137 H 1501.14 -5.47679 4.85214 0
M  V30 11138 H 1502.32 -2.89008 5.86566 0
M  V30 11139 H 1503.81 -4.0121 7.36511 0
M  V30 11140 H 1502.11 -5.80182 8.37584 0
M  V30 11141 H 1501.92 -3.73517 9.52265 0
M  V30 11142 H 1500.29 -3.97163 8.80359 0
M  V30 11143 H 1502.93 -4.90969 4.01921 0
M  V30 11144 P 1504.79 -5.75688 6.64379 0
M  V30 11145 O 1506.21 -6.11849 7.01846 0
M  V30 11146 O 1504.43 -4.30744 6.56026 0
M  V30 11147 O 1504.47 -6.37042 5.19165 0
M  V30 11148 C 1504.31 -7.83578 5.16515 0
M  V30 11149 C 1504.85 -8.33398 3.83019 0
M  V30 11150 O 1503.79 -8.10074 3.01034 0
M  V30 11151 C 1506.07 -7.65514 3.2257 0
M  V30 11152 O 1506.8 -8.4329 2.32297 0
M  V30 11153 C 1505.4 -6.40075 2.62207 0
M  V30 11154 O 1506.2 -5.92589 1.53712 0
M  V30 11155 C 1504.06 -6.9454 2.18503 0
M  V30 11156 H 1504.09 -7.23063 1.12091 0
M  V30 11157 H 1505.27 -5.6025 3.37201 0
M  V30 11158 H 1506.76 -7.35707 4.02681 0
M  V30 11159 H 1505.06 -9.40912 3.9095 0
M  V30 11160 H 1504.87 -8.29056 5.99158 0
M  V30 11161 H 1503.24 -8.10073 5.25882 0
M  V30 11162 H 1505.88 -6.30324 0.726794 0
M  V30 11163 P 1507.74 -8.4349 2.47671 0
M  V30 11164 O 1509.16 -8.94167 2.5964 0
M  V30 11165 O 1507.38 -7.1704 3.19006 0
M  V30 11166 O 1507.42 -8.16596 0.923387 0
M  V30 11167 C 1507.26 -9.38437 0.108857 0
M  V30 11168 C 1507.8 -9.08175 -1.28353 0
M  V30 11169 O 1506.74 -8.44229 -1.84713 0
M  V30 11170 C 1509.02 -8.18386 -1.42505 0
M  V30 11171 O 1509.75 -8.3501 -2.60497 0
M  V30 11172 C 1508.35 -6.80225 -1.25468 0
M  V30 11173 O 1509.15 -5.81621 -1.91066 0
M  V30 11174 C 1507.01 -7.02416 -1.9168 0
M  V30 11175 H 1507.04 -6.6888 -2.96621 0
M  V30 11176 H 1508.23 -6.53617 -0.192223 0
M  V30 11177 H 1509.71 -8.36622 -0.589963 0
M  V30 11178 H 1508.02 -10.0291 -1.79807 0
M  V30 11179 H 1507.83 -10.2138 0.558219 0
M  V30 11180 H 1506.2 -9.6579 0.0444202 0
M  V30 11181 H 1508.83 -5.69556 -2.79637 0
M  V30 11182 P 1510.69 -8.4349 -2.47671 0
M  V30 11183 O 1512.11 -8.92593 -2.65 0
M  V30 11184 O 1510.33 -7.7568 -1.19296 0
M  V30 11185 O 1510.37 -7.36886 -3.63805 0
M  V30 11186 C 1510.21 -7.95349 -4.982 0
M  V30 11187 C 1510.75 -6.94612 -5.98974 0
M  V30 11188 O 1509.69 -6.10347 -6.11815 0
M  V30 11189 C 1511.97 -6.11426 -5.62335 0
M  V30 11190 O 1512.7 -5.6162 -6.70584 0
M  V30 11191 C 1511.3 -5.04409 -4.73308 0
M  V30 11192 O 1512.1 -3.85992 -4.75183 0
M  V30 11193 C 1509.96 -4.8728 -5.41006 0
M  V30 11194 H 1509.99 -4.02333 -6.11157 0
M  V30 11195 H 1511.18 -5.39466 -3.69543 0
M  V30 11196 H 1512.66 -6.71916 -5.01943 0
M  V30 11197 H 1510.97 -7.4649 -6.93477 0
M  V30 11198 H 1510.78 -8.89416 -5.05237 0
M  V30 11199 H 1509.15 -8.14876 -5.18409 0
M  V30 11200 H 1511.78 -3.27957 -5.4317 0
M  V30 11201 P 1513.64 -5.75688 -6.64379 0
M  V30 11202 O 1515.06 -6.07627 -7.05504 0
M  V30 11203 O 1513.28 -5.88047 -5.19722 0
M  V30 11204 O 1513.32 -4.2322 -7.04443 0
M  V30 11205 C 1513.16 -3.99743 -8.4911 0
M  V30 11206 C 1513.7 -2.60516 -8.79425 0
M  V30 11207 O 1512.64 -1.82684 -8.4467 0
M  V30 11208 C 1514.92 -2.10343 -8.03628 0
M  V30 11209 O 1515.66 -1.09919 -8.67766 0
M  V30 11210 C 1514.25 -1.68446 -6.70876 0
M  V30 11211 O 1515.05 -0.678137 -6.08433 0
M  V30 11212 C 1512.91 -1.17436 -7.18567 0
M  V30 11213 H 1512.94 -0.0804732 -7.31656 0
M  V30 11214 H 1514.13 -2.54037 -6.02537 0
M  V30 11215 H 1515.61 -2.93881 -7.85526 0
M  V30 11216 H 1513.92 -2.53065 -9.86973 0
M  V30 11217 H 1513.73 -4.75072 -9.05887 0
M  V30 11218 H 1512.1 -4.05244 -8.76668 0
M  V30 11219 H 1514.74 0.177647 -6.34251 0
M  V30 11220 P 1516.59 -1.25109 -8.70152 0
M  V30 11221 O 1518.01 -1.29744 -9.22016 0
M  V30 11222 O 1516.23 -2.13714 -7.55141 0
M  V30 11223 O 1516.27 0.248149 -8.21425 0
M  V30 11224 C 1516.11 1.22779 -9.30434 0
M  V30 11225 C 1516.65 2.56293 -8.80664 0
M  V30 11226 O 1515.59 3.02979 -8.09349 0
M  V30 11227 C 1517.87 2.57523 -7.89775 0
M  V30 11228 O 1518.61 3.7668 -7.89438 0
M  V30 11229 C 1517.2 2.20997 -6.55446 0
M  V30 11230 O 1518 2.71895 -5.48509 0
M  V30 11231 C 1515.86 2.89693 -6.67988 0
M  V30 11232 H 1515.89 3.88793 -6.19859 0
M  V30 11233 H 1517.08 1.12046 -6.44229 0
M  V30 11234 H 1518.56 1.7746 -8.19711 0
M  V30 11235 H 1516.87 3.20706 -9.67112 0
M  V30 11236 H 1516.68 0.901032 -10.1892 0
M  V30 11237 H 1515.05 1.33049 -9.56592 0
M  V30 11238 H 1517.69 3.57847 -5.23962 0
M  V30 11239 P 1519.54 3.65191 -7.99657 0
M  V30 11240 O 1520.97 3.89332 -8.45794 0
M  V30 11241 O 1519.18 2.28472 -7.50807 0
M  V30 11242 O 1519.22 4.64972 -6.77611 0
M  V30 11243 C 1519.06 6.06319 -7.16352 0
M  V30 11244 C 1519.6 6.91731 -6.02299 0
M  V30 11245 O 1518.54 6.92449 -5.17064 0
M  V30 11246 C 1520.82 6.43627 -5.25174 0
M  V30 11247 O 1521.56 7.43686 -4.60469 0
M  V30 11248 C 1520.15 5.40275 -4.31916 0
M  V30 11249 O 1520.95 5.25279 -3.14438 0
M  V30 11250 C 1518.81 6.04847 -4.05327 0
M  V30 11251 H 1518.84 6.62195 -3.11261 0
M  V30 11252 H 1520.03 4.42556 -4.81383 0
M  V30 11253 H 1521.51 5.92458 -5.93643 0
M  V30 11254 H 1519.82 7.92655 -6.402 0
M  V30 11255 H 1519.63 6.26671 -8.0846 0
M  V30 11256 H 1518 6.29101 -7.32804 0
M  V30 11257 H 1520.64 5.84315 -2.47318 0
M  V30 11258 P 1522.49 7.39546 -4.75277 0
M  V30 11259 O 1523.92 7.84882 -5.01092 0
M  V30 11260 O 1522.13 5.9812 -5.08098 0
M  V30 11261 O 1522.17 7.57503 -3.1866 0
M  V30 11262 C 1522.01 8.97452 -2.74862 0
M  V30 11263 C 1522.55 9.07548 -1.32709 0
M  V30 11264 O 1521.5 8.61972 -0.606089 0
M  V30 11265 C 1523.77 8.25383 -0.938334 0
M  V30 11266 O 1524.51 8.74577 0.146954 0
M  V30 11267 C 1523.1 6.8802 -0.712559 0
M  V30 11268 O 1523.9 6.1181 0.188505 0
M  V30 11269 C 1521.76 7.27966 -0.139777 0
M  V30 11270 N 1520.72 6.39368 -0.623421 0
M  V30 11271 C 1520.89 5.71761 -1.78245 0
M  V30 11272 N 1519.86 4.962 -2.10491 0
M  V30 11273 C 1518.98 5.16158 -1.0635 0
M  V30 11274 C 1517.71 4.60425 -0.810266 0
M  V30 11275 N 1517.15 5.06 0.348685 0
M  V30 11276 C 1517.75 5.94532 1.20395 0
M  V30 11277 N 1518.92 6.48452 1.01191 0
M  V30 11278 C 1519.5 6.04423 -0.146291 0
M  V30 11279 H 1522.98 6.32625 -1.65044 0
M  V30 11280 H 1524.46 8.19355 -1.79097 0
M  V30 11281 H 1522.77 10.1305 -1.09016 0
M  V30 11282 H 1522.58 9.64276 -3.41316 0
M  V30 11283 H 1520.95 9.25417 -2.76357 0
M  V30 11284 H 1521.79 5.79354 -2.38959 0
M  V30 11285 H 1523.59 6.25169 1.0783 0
M  V30 11286 P 1525.44 8.791 1.2579e-11 0
M  V30 11287 O 1526.87 9.31096 0.027933 0
M  V30 11288 O 1525.08 7.77869 -1.04071 0
M  V30 11289 O 1525.12 8.09533 1.41463 0
M  V30 11290 C 1524.96 9.0349 2.53943 0
M  V30 11291 C 1525.5 8.35226 3.79016 0
M  V30 11292 O 1524.45 7.57992 4.15078 0
M  V30 11293 C 1526.72 7.45087 3.67298 0
M  V30 11294 O 1527.46 7.27796 4.85194 0
M  V30 11295 C 1526.05 6.17323 3.12027 0
M  V30 11296 O 1526.85 5.04231 3.47188 0
M  V30 11297 C 1524.71 6.19961 3.81809 0
M  V30 11298 H 1524.75 5.58218 4.73051 0
M  V30 11299 H 1525.93 6.21726 2.02589 0
M  V30 11300 H 1527.41 7.86112 2.9231 0
M  V30 11301 H 1525.72 9.11627 4.55076 0
M  V30 11302 H 1525.53 9.9573 2.34194 0
M  V30 11303 H 1523.9 9.2792 2.67832 0
M  V30 11304 H 1526.54 4.67702 4.28772 0
M  V30 11305 P 1528.4 7.39546 4.75277 0
M  V30 11306 O 1529.82 7.81777 5.05738 0
M  V30 11307 O 1528.04 7.1065 3.32998 0
M  V30 11308 O 1528.07 6.04542 5.56673 0
M  V30 11309 C 1527.91 6.22772 7.02095 0
M  V30 11310 C 1528.45 4.97725 7.70406 0
M  V30 11311 O 1527.4 4.13256 7.58987 0
M  V30 11312 C 1529.67 4.28231 7.11815 0
M  V30 11313 O 1530.41 3.49945 8.01648 0
M  V30 11314 C 1529 3.5063 5.96244 0
M  V30 11315 O 1529.8 2.36482 5.64681 0
M  V30 11316 C 1527.66 3.15122 6.56374 0
M  V30 11317 H 1527.7 2.13853 6.99751 0
M  V30 11318 H 1528.88 4.13501 5.06559 0
M  V30 11319 H 1530.36 5.03285 6.70911 0
M  V30 11320 H 1528.67 5.20877 8.75697 0
M  V30 11321 H 1528.48 7.11046 7.35349 0
M  V30 11322 H 1526.85 6.35815 7.26986 0
M  V30 11323 H 1529.49 1.61644 6.13565 0
M  V30 11324 P 1531.35 3.65191 7.99657 0
M  V30 11325 O 1532.77 3.8425 8.48115 0
M  V30 11326 O 1530.99 4.17805 6.64342 0
M  V30 11327 O 1531.02 2.07613 7.95143 0
M  V30 11328 C 1530.86 1.44328 9.27336 0
M  V30 11329 C 1531.4 0.0220036 9.17197 0
M  V30 11330 O 1530.35 -0.626867 8.61923 0
M  V30 11331 C 1532.62 -0.24586 8.30336 0
M  V30 11332 O 1533.36 -1.39011 8.63583 0
M  V30 11333 C 1531.95 -0.273849 6.91158 0
M  V30 11334 O 1532.75 -1.06348 6.02892 0
M  V30 11335 C 1530.61 -0.897649 7.22545 0
M  V30 11336 H 1530.65 -1.9841 7.04286 0
M  V30 11337 H 1531.83 0.739928 6.497 0
M  V30 11338 H 1533.31 0.60668 8.36503 0
M  V30 11339 H 1531.62 -0.352479 10.1829 0
M  V30 11340 H 1531.43 2.00611 10.0304 0
M  V30 11341 H 1529.8 1.41843 9.55327 0
M  V30 11342 H 1532.44 -1.95734 6.03555 0
M  V30 11343 P 1534.3 -1.25109 8.70152 0
M  V30 11344 O 1535.72 -1.35274 9.21221 0
M  V30 11345 O 1533.94 -0.0769065 7.84762 0
M  V30 11346 O 1533.97 -2.55232 7.81161 0
M  V30 11347 C 1533.81 -3.79939 8.58154 0
M  V30 11348 C 1534.35 -4.94023 7.72785 0
M  V30 11349 O 1533.3 -5.18726 6.91205 0
M  V30 11350 C 1535.57 -4.69597 6.85231 0
M  V30 11351 O 1536.31 -5.83832 6.51337 0
M  V30 11352 C 1534.9 -3.96706 5.66633 0
M  V30 11353 O 1535.7 -4.15414 4.49689 0
M  V30 11354 C 1533.57 -4.66153 5.59313 0
M  V30 11355 H 1533.6 -5.47679 4.85214 0
M  V30 11356 H 1534.78 -2.89008 5.86566 0
M  V30 11357 H 1536.26 -4.0121 7.36511 0
M  V30 11358 H 1534.57 -5.80182 8.37584 0
M  V30 11359 H 1534.38 -3.73517 9.52265 0
M  V30 11360 H 1532.75 -3.97163 8.80359 0
M  V30 11361 H 1535.39 -4.90969 4.01921 0
M  V30 11362 P 1537.25 -5.75688 6.64379 0
M  V30 11363 O 1538.65 -6.11991 7.09136 0
M  V30 11364 O 1536.87 -4.30899 6.62018 0
M  V30 11365 O 1536.92 -6.36965 5.19102 0
M  V30 11366 C 1536.76 -7.83578 5.16515 0
M  V30 11367 C 1537.3 -8.33307 3.82977 0
M  V30 11368 O 1536.25 -8.0998 3.00999 0
M  V30 11369 C 1538.52 -7.65514 3.2257 0
M  V30 11370 O 1539.26 -8.4329 2.32297 0
M  V30 11371 C 1537.85 -6.40075 2.62207 0
M  V30 11372 O 1538.65 -5.92492 1.53687 0
M  V30 11373 C 1536.52 -6.9454 2.18503 0
M  V30 11374 N 1535.47 -5.95905 2.39948 0
M  V30 11375 C 1534.44 -5.89764 1.49837 0
M  V30 11376 O 1534.48 -6.64088 0.490975 0
M  V30 11377 N 1533.43 -5.02821 1.70992 0
M  V30 11378 C 1533.47 -4.21498 2.77236 0
M  V30 11379 N 1532.46 -3.37475 2.96465 0
M  V30 11380 C 1534.57 -4.23389 3.68205 0
M  V30 11381 C 1535.54 -5.12792 3.46171 0
M  V30 11382 H 1536.55 -7.22964 1.12076 0
M  V30 11383 H 1537.73 -5.60502 3.36589 0
M  V30 11384 H 1539.21 -7.36197 4.01993 0
M  V30 11385 H 1537.52 -9.41302 3.90009 0
M  V30 11386 H 1537.33 -8.29056 5.99158 0
M  V30 11387 H 1535.7 -8.09989 5.25828 0
M  V30 11388 H 1534.62 -3.54747 4.52399 0
M  V30 11389 H 1536.38 -5.18551 4.1489 0
M  V30 11390 H 1531.67 -3.36058 2.30304 0
M  V30 11391 H 1532.47 -2.73846 3.77171 0
M  V30 11392 H 1538.44 -6.40705 0.751752 0
M  V30 11393 P 1540.2 -8.4349 2.47671 0
M  V30 11394 O 1541.62 -8.94167 2.5964 0
M  V30 11395 O 1539.84 -7.1704 3.19006 0
M  V30 11396 O 1539.87 -8.16596 0.923387 0
M  V30 11397 C 1539.71 -9.38437 0.108857 0
M  V30 11398 C 1540.25 -9.08175 -1.28353 0
M  V30 11399 O 1539.2 -8.44229 -1.84713 0
M  V30 11400 C 1541.47 -8.18386 -1.42505 0
M  V30 11401 O 1542.21 -8.3501 -2.60497 0
M  V30 11402 C 1540.8 -6.80225 -1.25468 0
M  V30 11403 O 1541.6 -5.81621 -1.91066 0
M  V30 11404 C 1539.47 -7.02416 -1.9168 0
M  V30 11405 H 1539.5 -6.6888 -2.96621 0
M  V30 11406 H 1540.68 -6.53617 -0.192223 0
M  V30 11407 H 1542.17 -8.36622 -0.589963 0
M  V30 11408 H 1540.47 -10.0291 -1.79807 0
M  V30 11409 H 1540.28 -10.2138 0.558219 0
M  V30 11410 H 1538.65 -9.6579 0.0444202 0
M  V30 11411 H 1541.29 -5.69556 -2.79637 0
M  V30 11412 P 1543.15 -8.4349 -2.47671 0
M  V30 11413 O 1544.57 -8.92593 -2.65 0
M  V30 11414 O 1542.79 -7.7568 -1.19296 0
M  V30 11415 O 1542.83 -7.36886 -3.63805 0
M  V30 11416 C 1542.67 -7.95349 -4.982 0
M  V30 11417 C 1543.21 -6.94612 -5.98974 0
M  V30 11418 O 1542.15 -6.10347 -6.11815 0
M  V30 11419 C 1544.42 -6.11426 -5.62335 0
M  V30 11420 O 1545.16 -5.6162 -6.70584 0
M  V30 11421 C 1543.75 -5.04409 -4.73308 0
M  V30 11422 O 1544.55 -3.85992 -4.75183 0
M  V30 11423 C 1542.42 -4.8728 -5.41006 0
M  V30 11424 H 1542.45 -4.02333 -6.11157 0
M  V30 11425 H 1543.63 -5.39466 -3.69543 0
M  V30 11426 H 1545.12 -6.71916 -5.01943 0
M  V30 11427 H 1543.42 -7.4649 -6.93477 0
M  V30 11428 H 1543.23 -8.89416 -5.05237 0
M  V30 11429 H 1541.6 -8.14876 -5.18409 0
M  V30 11430 H 1544.24 -3.27957 -5.4317 0
M  V30 11431 P 1546.1 -5.75688 -6.64379 0
M  V30 11432 O 1547.52 -6.07692 -7.0558 0
M  V30 11433 O 1545.74 -5.88047 -5.19722 0
M  V30 11434 O 1545.78 -4.2322 -7.04443 0
M  V30 11435 C 1545.61 -3.99785 -8.49201 0
M  V30 11436 C 1546.16 -2.60516 -8.79425 0
M  V30 11437 O 1545.1 -1.82663 -8.44573 0
M  V30 11438 C 1547.37 -2.10343 -8.03628 0
M  V30 11439 O 1548.11 -1.09919 -8.67766 0
M  V30 11440 C 1546.71 -1.68446 -6.70876 0
M  V30 11441 O 1547.5 -0.684109 -6.08265 0
M  V30 11442 C 1545.37 -1.17436 -7.18567 0
M  V30 11443 N 1544.32 -1.52699 -6.23988 0
M  V30 11444 C 1544.49 -2.578 -5.40574 0
M  V30 11445 N 1543.47 -2.78966 -4.61193 0
M  V30 11446 C 1542.58 -1.78725 -4.95769 0
M  V30 11447 C 1541.31 -1.45727 -4.44207 0
M  V30 11448 N 1540.72 -2.13994 -3.43613 0
M  V30 11449 N 1540.75 -0.374977 -5.05812 0
M  V30 11450 C 1541.35 0.345585 -6.05615 0
M  V30 11451 N 1542.53 0.0787651 -6.56253 0
M  V30 11452 C 1543.1 -1.00499 -5.96189 0
M  V30 11453 H 1545.4 -0.0804622 -7.31556 0
M  V30 11454 H 1546.58 -2.53396 -6.02698 0
M  V30 11455 H 1548.07 -2.93881 -7.85526 0
M  V30 11456 H 1546.37 -2.52078 -9.87225 0
M  V30 11457 H 1546.18 -4.75072 -9.05887 0
M  V30 11458 H 1544.55 -4.05244 -8.76668 0
M  V30 11459 H 1540.82 1.20098 -6.4532 0
M  V30 11460 H 1545.39 -3.18977 -5.3945 0
M  V30 11461 H 1539.79 -1.84983 -3.10004 0
M  V30 11462 H 1541.19 -2.9465 -3.00843 0
M  V30 11463 H 1547.19 0.177619 -6.34151 0
M  V30 11464 P 1549.05 -1.25109 -8.70152 0
M  V30 11465 O 1550.47 -1.29744 -9.22016 0
M  V30 11466 O 1548.69 -2.13714 -7.55141 0
M  V30 11467 O 1548.73 0.248149 -8.21425 0
M  V30 11468 C 1548.57 1.22779 -9.30434 0
M  V30 11469 C 1549.11 2.56293 -8.80664 0
M  V30 11470 O 1548.05 3.02979 -8.09349 0
M  V30 11471 C 1550.32 2.57523 -7.89775 0
M  V30 11472 O 1551.06 3.7668 -7.89438 0
M  V30 11473 C 1549.66 2.20997 -6.55446 0
M  V30 11474 O 1550.45 2.71895 -5.48509 0
M  V30 11475 C 1548.32 2.89693 -6.67988 0
M  V30 11476 H 1548.35 3.88793 -6.19859 0
M  V30 11477 H 1549.53 1.12046 -6.44229 0
M  V30 11478 H 1551.02 1.7746 -8.19711 0
M  V30 11479 H 1549.32 3.20706 -9.67112 0
M  V30 11480 H 1549.13 0.901032 -10.1892 0
M  V30 11481 H 1547.5 1.33049 -9.56592 0
M  V30 11482 H 1550.14 3.57847 -5.23962 0
M  V30 11483 P 1552 3.65191 -7.99657 0
M  V30 11484 O 1553.4 3.87414 -8.52829 0
M  V30 11485 O 1551.62 2.26932 -7.566 0
M  V30 11486 O 1551.68 4.64915 -6.77529 0
M  V30 11487 C 1551.52 6.06319 -7.16352 0
M  V30 11488 C 1552.06 6.91655 -6.02234 0
M  V30 11489 O 1551 6.92369 -5.17005 0
M  V30 11490 C 1553.27 6.43627 -5.25174 0
M  V30 11491 O 1554.01 7.43686 -4.60469 0
M  V30 11492 C 1552.61 5.40275 -4.31916 0
M  V30 11493 O 1553.4 5.25193 -3.14386 0
M  V30 11494 C 1551.27 6.04847 -4.05327 0
M  V30 11495 N 1550.23 5.04166 -3.98114 0
M  V30 11496 C 1549.19 5.2366 -3.09923 0
M  V30 11497 O 1549.23 6.23355 -2.34204 0
M  V30 11498 N 1548.18 4.34279 -3.05727 0
M  V30 11499 C 1548.23 3.26317 -3.84756 0
M  V30 11500 N 1547.22 2.40281 -3.79534 0
M  V30 11501 C 1549.32 3.02504 -4.72573 0
M  V30 11502 C 1550.29 3.94493 -4.76618 0
M  V30 11503 H 1551.3 6.62104 -3.11218 0
M  V30 11504 H 1552.48 4.42969 -4.80867 0
M  V30 11505 H 1553.97 5.93122 -5.93121 0
M  V30 11506 H 1552.27 7.93295 -6.39407 0
M  V30 11507 H 1552.08 6.26671 -8.0846 0
M  V30 11508 H 1550.45 6.29036 -7.32728 0
M  V30 11509 H 1549.37 2.12921 -5.34017 0
M  V30 11510 H 1551.13 3.80658 -5.44176 0
M  V30 11511 H 1546.43 2.57561 -3.15653 0
M  V30 11512 H 1547.22 1.56492 -4.39044 0
M  V30 11513 H 1553.19 5.93572 -2.52637 0
M  V30 11514 P 1554.95 7.39546 -4.75277 0
M  V30 11515 O 1556.37 7.84798 -5.01039 0
M  V30 11516 O 1554.59 5.9812 -5.08098 0
M  V30 11517 O 1554.63 7.57503 -3.1866 0
M  V30 11518 C 1554.47 8.97357 -2.74833 0
M  V30 11519 C 1555.01 9.07548 -1.32709 0
M  V30 11520 O 1553.95 8.62072 -0.606159 0
M  V30 11521 C 1556.23 8.25383 -0.938334 0
M  V30 11522 O 1556.96 8.74577 0.146954 0
M  V30 11523 C 1555.56 6.8802 -0.712559 0
M  V30 11524 O 1556.36 6.1189 0.194655 0
M  V30 11525 C 1554.22 7.27966 -0.139777 0
M  V30 11526 H 1554.25 7.25354 0.961601 0
M  V30 11527 H 1555.43 6.32557 -1.65702 0
M  V30 11528 H 1556.92 8.19355 -1.79097 0
M  V30 11529 H 1555.22 10.1294 -1.10029 0
M  V30 11530 H 1555.03 9.64276 -3.41316 0
M  V30 11531 H 1553.4 9.25417 -2.76357 0
M  V30 11532 H 1556.04 6.25267 1.07847 0
M  V30 11533 P 1557.9 8.791 1.28891e-11 0
M  V30 11534 O 1559.32 9.31096 0.027933 0
M  V30 11535 O 1557.54 7.77869 -1.04071 0
M  V30 11536 O 1557.58 8.09533 1.41463 0
M  V30 11537 C 1557.42 9.0349 2.53943 0
M  V30 11538 C 1557.96 8.35226 3.79016 0
M  V30 11539 O 1556.9 7.57992 4.15078 0
M  V30 11540 C 1559.18 7.45087 3.67298 0
M  V30 11541 O 1559.91 7.27796 4.85194 0
M  V30 11542 C 1558.51 6.17323 3.12027 0
M  V30 11543 O 1559.31 5.04231 3.47188 0
M  V30 11544 C 1557.17 6.19961 3.81809 0
M  V30 11545 H 1557.2 5.58218 4.73051 0
M  V30 11546 H 1558.38 6.21726 2.02589 0
M  V30 11547 H 1559.87 7.86112 2.9231 0
M  V30 11548 H 1558.17 9.11627 4.55076 0
M  V30 11549 H 1557.98 9.9573 2.34194 0
M  V30 11550 H 1556.35 9.2792 2.67832 0
M  V30 11551 H 1558.99 4.67702 4.28772 0
M  V30 11552 P 1560.85 7.39546 4.75277 0
M  V30 11553 O 1562.27 7.81777 5.05738 0
M  V30 11554 O 1560.49 7.1065 3.32998 0
M  V30 11555 O 1560.53 6.04542 5.56673 0
M  V30 11556 C 1560.37 6.22772 7.02095 0
M  V30 11557 C 1560.91 4.97725 7.70406 0
M  V30 11558 O 1559.85 4.13256 7.58987 0
M  V30 11559 C 1562.13 4.28231 7.11815 0
M  V30 11560 O 1562.86 3.49945 8.01648 0
M  V30 11561 C 1561.46 3.5063 5.96244 0
M  V30 11562 O 1562.26 2.36482 5.64681 0
M  V30 11563 C 1560.12 3.15122 6.56374 0
M  V30 11564 H 1560.15 2.13853 6.99751 0
M  V30 11565 H 1561.34 4.13501 5.06559 0
M  V30 11566 H 1562.82 5.03285 6.70911 0
M  V30 11567 H 1561.13 5.20877 8.75697 0
M  V30 11568 H 1560.94 7.11046 7.35349 0
M  V30 11569 H 1559.31 6.35815 7.26986 0
M  V30 11570 H 1561.94 1.61644 6.13565 0
M  V30 11571 P 1563.8 3.65191 7.99657 0
M  V30 11572 O 1565.2 3.90823 8.51272 0
M  V30 11573 O 1563.42 4.23191 6.66972 0
M  V30 11574 O 1563.48 2.07587 7.95046 0
M  V30 11575 C 1563.32 1.44328 9.27336 0
M  V30 11576 C 1563.86 0.0220012 9.17097 0
M  V30 11577 O 1562.8 -0.626794 8.61824 0
M  V30 11578 C 1565.08 -0.24586 8.30336 0
M  V30 11579 O 1565.82 -1.39011 8.63583 0
M  V30 11580 C 1564.41 -0.273849 6.91158 0
M  V30 11581 O 1565.21 -1.06331 6.02794 0
M  V30 11582 C 1563.07 -0.897649 7.22545 0
M  V30 11583 N 1562.03 -0.292839 6.41732 0
M  V30 11584 C 1560.99 -1.08701 5.98712 0
M  V30 11585 O 1561.03 -2.31211 6.24471 0
M  V30 11586 N 1559.98 -0.533391 5.28415 0
M  V30 11587 C 1560.03 0.770866 4.98576 0
M  V30 11588 C 1561.13 1.59049 5.38086 0
M  V30 11589 C 1562.09 1.01866 6.10256 0
M  V30 11590 H 1563.1 -1.98383 7.04189 0
M  V30 11591 H 1564.29 0.733318 6.49674 0
M  V30 11592 H 1565.77 0.598386 8.36663 0
M  V30 11593 H 1564.08 -0.362662 10.1825 0
M  V30 11594 H 1563.89 2.00611 10.0304 0
M  V30 11595 H 1562.26 1.41828 9.55228 0
M  V30 11596 H 1561.17 2.6415 5.10622 0
M  V30 11597 H 1562.94 1.61983 6.44042 0
M  V30 11598 H 1564.99 -1.97777 6.14035 0
M  V30 11599 P 1566.75 -1.25109 8.70152 0
M  V30 11600 O 1568.17 -1.35274 9.21221 0
M  V30 11601 O 1566.39 -0.0769065 7.84762 0
M  V30 11602 O 1566.43 -2.55232 7.81161 0
M  V30 11603 C 1566.27 -3.79939 8.58154 0
M  V30 11604 C 1566.81 -4.94023 7.72785 0
M  V30 11605 O 1565.75 -5.18726 6.91205 0
M  V30 11606 C 1568.03 -4.69597 6.85231 0
M  V30 11607 O 1568.77 -5.83832 6.51337 0
M  V30 11608 C 1567.36 -3.96706 5.66633 0
M  V30 11609 O 1568.16 -4.15414 4.49689 0
M  V30 11610 C 1566.02 -4.66153 5.59313 0
M  V30 11611 H 1566.05 -5.47679 4.85214 0
M  V30 11612 H 1567.24 -2.89008 5.86566 0
M  V30 11613 H 1568.72 -4.0121 7.36511 0
M  V30 11614 H 1567.03 -5.80182 8.37584 0
M  V30 11615 H 1566.84 -3.73517 9.52265 0
M  V30 11616 H 1565.21 -3.97163 8.80359 0
M  V30 11617 H 1567.85 -4.90969 4.01921 0
M  V30 11618 P 1569.7 -5.75688 6.64379 0
M  V30 11619 O 1571.13 -6.11849 7.01846 0
M  V30 11620 O 1569.34 -4.30744 6.56026 0
M  V30 11621 O 1569.38 -6.37042 5.19165 0
M  V30 11622 C 1569.22 -7.83578 5.16515 0
M  V30 11623 C 1569.76 -8.33398 3.83019 0
M  V30 11624 O 1568.7 -8.10074 3.01034 0
M  V30 11625 C 1570.98 -7.65514 3.2257 0
M  V30 11626 O 1571.72 -8.4329 2.32297 0
M  V30 11627 C 1570.31 -6.40075 2.62207 0
M  V30 11628 O 1571.11 -5.92589 1.53712 0
M  V30 11629 C 1568.97 -6.9454 2.18503 0
M  V30 11630 H 1569 -7.23063 1.12091 0
M  V30 11631 H 1570.19 -5.6025 3.37201 0
M  V30 11632 H 1571.67 -7.35707 4.02681 0
M  V30 11633 H 1569.98 -9.40912 3.9095 0
M  V30 11634 H 1569.79 -8.29056 5.99158 0
M  V30 11635 H 1568.16 -8.10073 5.25882 0
M  V30 11636 H 1570.8 -6.30324 0.726794 0
M  V30 11637 P 1572.65 -8.4349 2.47671 0
M  V30 11638 O 1574.05 -8.98227 2.65696 0
M  V30 11639 O 1572.28 -7.20409 3.23964 0
M  V30 11640 O 1572.33 -8.16496 0.923275 0
M  V30 11641 C 1572.17 -9.38437 0.108857 0
M  V30 11642 C 1572.71 -9.08076 -1.28339 0
M  V30 11643 O 1571.65 -8.44131 -1.84692 0
M  V30 11644 C 1573.93 -8.18386 -1.42505 0
M  V30 11645 O 1574.67 -8.3501 -2.60497 0
M  V30 11646 C 1573.26 -6.80225 -1.25468 0
M  V30 11647 O 1574.06 -5.81526 -1.91035 0
M  V30 11648 C 1571.92 -7.02416 -1.9168 0
M  V30 11649 N 1570.88 -6.31033 -1.20314 0
M  V30 11650 C 1569.84 -5.77149 -1.928 0
M  V30 11651 O 1569.88 -5.8521 -3.17729 0
M  V30 11652 N 1568.83 -5.15445 -1.27997 0
M  V30 11653 C 1568.88 -5.04472 0.0534726 0
M  V30 11654 C 1569.98 -5.55244 0.808522 0
M  V30 11655 C 1570.94 -6.18542 0.13981 0
M  V30 11656 H 1571.95 -6.68789 -2.9658 0
M  V30 11657 H 1573.14 -6.53498 -0.198729 0
M  V30 11658 H 1574.62 -8.36663 -0.5984 0
M  V30 11659 H 1572.93 -10.0273 -1.8081 0
M  V30 11660 H 1572.74 -10.2138 0.558219 0
M  V30 11661 H 1571.11 -9.6569 0.0444156 0
M  V30 11662 H 1570.02 -5.43017 1.88792 0
M  V30 11663 H 1571.79 -6.60539 0.686773 0
M  V30 11664 H 1573.84 -5.79638 -2.8315 0
M  V30 11665 P 1575.6 -8.4349 -2.47671 0
M  V30 11666 O 1577.03 -8.92785 -2.65057 0
M  V30 11667 O 1575.24 -7.7568 -1.19296 0
M  V30 11668 O 1575.28 -7.36886 -3.63805 0
M  V30 11669 C 1575.12 -7.95349 -4.982 0
M  V30 11670 C 1575.66 -6.94537 -5.98908 0
M  V30 11671 O 1574.61 -6.10347 -6.11815 0
M  V30 11672 C 1576.88 -6.11426 -5.62335 0
M  V30 11673 O 1577.62 -5.6162 -6.70584 0
M  V30 11674 C 1576.21 -5.04409 -4.73308 0
M  V30 11675 O 1577.01 -3.85929 -4.75106 0
M  V30 11676 C 1574.87 -4.8728 -5.41006 0
M  V30 11677 N 1573.83 -4.65812 -4.42377 0
M  V30 11678 C 1573.89 -5.27109 -3.24335 0
M  V30 11679 N 1572.85 -4.94293 -2.47735 0
M  V30 11680 C 1572.11 -4.1271 -3.23359 0
M  V30 11681 C 1570.81 -3.56384 -2.99934 0
M  V30 11682 O 1570.07 -3.69331 -2.00616 0
M  V30 11683 N 1570.38 -2.80206 -4.03316 0
M  V30 11684 C 1571.13 -2.58614 -5.2172 0
M  V30 11685 N 1570.53 -1.75154 -6.13278 0
M  V30 11686 N 1572.28 -3.13689 -5.47619 0
M  V30 11687 C 1572.74 -3.90921 -4.46436 0
M  V30 11688 H 1574.91 -4.02333 -6.11157 0
M  V30 11689 H 1576.09 -5.39383 -3.69487 0
M  V30 11690 H 1577.57 -6.71414 -5.02615 0
M  V30 11691 H 1575.88 -7.4649 -6.93477 0
M  V30 11692 H 1575.69 -8.89416 -5.05237 0
M  V30 11693 H 1574.06 -8.14876 -5.18409 0
M  V30 11694 H 1569.48 -2.36355 -3.95916 0
M  V30 11695 H 1574.69 -5.95212 -2.93859 0
M  V30 11696 H 1569.62 -1.32473 -5.91856 0
M  V30 11697 H 1570.99 -1.5588 -7.03026 0
M  V30 11698 H 1576.7 -3.27906 -5.43085 0
M  V30 11699 P 1578.55 -5.75688 -6.64379 0
M  V30 11700 O 1579.98 -6.07627 -7.05504 0
M  V30 11701 O 1578.19 -5.88047 -5.19722 0
M  V30 11702 O 1578.23 -4.2322 -7.04443 0
M  V30 11703 C 1578.07 -3.99743 -8.4911 0
M  V30 11704 C 1578.61 -2.60516 -8.79425 0
M  V30 11705 O 1577.56 -1.82684 -8.4467 0
M  V30 11706 C 1579.83 -2.10343 -8.03628 0
M  V30 11707 O 1580.57 -1.09919 -8.67766 0
M  V30 11708 C 1579.16 -1.68446 -6.70876 0
M  V30 11709 O 1579.96 -0.678137 -6.08433 0
M  V30 11710 C 1577.82 -1.17436 -7.18567 0
M  V30 11711 H 1577.86 -0.0804732 -7.31656 0
M  V30 11712 H 1579.04 -2.54037 -6.02537 0
M  V30 11713 H 1580.52 -2.93881 -7.85526 0
M  V30 11714 H 1578.83 -2.53065 -9.86973 0
M  V30 11715 H 1578.64 -4.75072 -9.05887 0
M  V30 11716 H 1577.01 -4.05244 -8.76668 0
M  V30 11717 H 1579.65 0.177647 -6.34251 0
M  V30 11718 P 1581.51 -1.25109 -8.70152 0
M  V30 11719 O 1582.93 -1.29744 -9.22016 0
M  V30 11720 O 1581.15 -2.13714 -7.55141 0
M  V30 11721 O 1581.18 0.248149 -8.21425 0
M  V30 11722 C 1581.02 1.22779 -9.30434 0
M  V30 11723 C 1581.56 2.56293 -8.80664 0
M  V30 11724 O 1580.51 3.02979 -8.09349 0
M  V30 11725 C 1582.78 2.57523 -7.89775 0
M  V30 11726 O 1583.52 3.7668 -7.89438 0
M  V30 11727 C 1582.11 2.20997 -6.55446 0
M  V30 11728 O 1582.91 2.71895 -5.48509 0
M  V30 11729 C 1580.77 2.89693 -6.67988 0
M  V30 11730 H 1580.81 3.88793 -6.19859 0
M  V30 11731 H 1581.99 1.12046 -6.44229 0
M  V30 11732 H 1583.47 1.7746 -8.19711 0
M  V30 11733 H 1581.78 3.20706 -9.67112 0
M  V30 11734 H 1581.59 0.901032 -10.1892 0
M  V30 11735 H 1579.96 1.33049 -9.56592 0
M  V30 11736 H 1582.6 3.57847 -5.23962 0
M  V30 11737 P 1584.46 3.65191 -7.99657 0
M  V30 11738 O 1585.88 3.89332 -8.45794 0
M  V30 11739 O 1584.1 2.28472 -7.50807 0
M  V30 11740 O 1584.13 4.64972 -6.77611 0
M  V30 11741 C 1583.97 6.06319 -7.16352 0
M  V30 11742 C 1584.51 6.91731 -6.02299 0
M  V30 11743 O 1583.46 6.92449 -5.17064 0
M  V30 11744 C 1585.73 6.43627 -5.25174 0
M  V30 11745 O 1586.47 7.43686 -4.60469 0
M  V30 11746 C 1585.06 5.40275 -4.31916 0
M  V30 11747 O 1585.86 5.25279 -3.14438 0
M  V30 11748 C 1583.73 6.04847 -4.05327 0
M  V30 11749 H 1583.76 6.62195 -3.11261 0
M  V30 11750 H 1584.94 4.42556 -4.81383 0
M  V30 11751 H 1586.42 5.92458 -5.93643 0
M  V30 11752 H 1584.73 7.92655 -6.402 0
M  V30 11753 H 1584.54 6.26671 -8.0846 0
M  V30 11754 H 1582.91 6.29101 -7.32804 0
M  V30 11755 H 1585.55 5.84315 -2.47318 0
M  V30 11756 P 1587.41 7.39546 -4.75277 0
M  V30 11757 O 1588.83 7.84798 -5.01039 0
M  V30 11758 O 1587.05 5.9812 -5.08098 0
M  V30 11759 O 1587.08 7.57503 -3.1866 0
M  V30 11760 C 1586.92 8.97357 -2.74833 0
M  V30 11761 C 1587.46 9.07548 -1.32709 0
M  V30 11762 O 1586.41 8.62072 -0.606159 0
M  V30 11763 C 1588.68 8.25383 -0.938334 0
M  V30 11764 O 1589.42 8.74577 0.146954 0
M  V30 11765 C 1588.01 6.8802 -0.712559 0
M  V30 11766 O 1588.81 6.1189 0.194655 0
M  V30 11767 C 1586.68 7.27966 -0.139777 0
M  V30 11768 H 1586.71 7.25354 0.961601 0
M  V30 11769 H 1587.89 6.32557 -1.65702 0
M  V30 11770 H 1589.37 8.19355 -1.79097 0
M  V30 11771 H 1587.68 10.1294 -1.10029 0
M  V30 11772 H 1587.49 9.64276 -3.41316 0
M  V30 11773 H 1585.86 9.25417 -2.76357 0
M  V30 11774 H 1588.5 6.25267 1.07847 0
M  V30 11775 P 1590.36 8.791 1.31993e-11 0
M  V30 11776 O 1591.78 9.31096 0.027933 0
M  V30 11777 O 1590 7.77869 -1.04071 0
M  V30 11778 O 1590.03 8.09533 1.41463 0
M  V30 11779 C 1589.87 9.0349 2.53943 0
M  V30 11780 C 1590.41 8.35226 3.79016 0
M  V30 11781 O 1589.36 7.57992 4.15078 0
M  V30 11782 C 1591.63 7.45087 3.67298 0
M  V30 11783 O 1592.37 7.27796 4.85194 0
M  V30 11784 C 1590.96 6.17323 3.12027 0
M  V30 11785 O 1591.76 5.04231 3.47188 0
M  V30 11786 C 1589.63 6.19961 3.81809 0
M  V30 11787 H 1589.66 5.58218 4.73051 0
M  V30 11788 H 1590.84 6.21726 2.02589 0
M  V30 11789 H 1592.33 7.86112 2.9231 0
M  V30 11790 H 1590.63 9.11627 4.55076 0
M  V30 11791 H 1590.44 9.9573 2.34194 0
M  V30 11792 H 1588.81 9.2792 2.67832 0
M  V30 11793 H 1591.45 4.67702 4.28772 0
M  V30 11794 P 1593.31 7.39546 4.75277 0
M  V30 11795 O 1594.73 7.81777 5.05738 0
M  V30 11796 O 1592.95 7.1065 3.32998 0
M  V30 11797 O 1592.98 6.04542 5.56673 0
M  V30 11798 C 1592.82 6.22772 7.02095 0
M  V30 11799 C 1593.36 4.97725 7.70406 0
M  V30 11800 O 1592.31 4.13256 7.58987 0
M  V30 11801 C 1594.58 4.28231 7.11815 0
M  V30 11802 O 1595.32 3.49945 8.01648 0
M  V30 11803 C 1593.91 3.5063 5.96244 0
M  V30 11804 O 1594.71 2.36482 5.64681 0
M  V30 11805 C 1592.58 3.15122 6.56374 0
M  V30 11806 H 1592.61 2.13853 6.99751 0
M  V30 11807 H 1593.79 4.13501 5.06559 0
M  V30 11808 H 1595.28 5.03285 6.70911 0
M  V30 11809 H 1593.58 5.20877 8.75697 0
M  V30 11810 H 1593.39 7.11046 7.35349 0
M  V30 11811 H 1591.76 6.35815 7.26986 0
M  V30 11812 H 1594.4 1.61644 6.13565 0
M  V30 11813 P 1596.26 3.65191 7.99657 0
M  V30 11814 O 1597.68 3.8425 8.48115 0
M  V30 11815 O 1595.9 4.17805 6.64342 0
M  V30 11816 O 1595.94 2.07613 7.95143 0
M  V30 11817 C 1595.78 1.44328 9.27336 0
M  V30 11818 C 1596.32 0.0220036 9.17197 0
M  V30 11819 O 1595.26 -0.626867 8.61923 0
M  V30 11820 C 1597.53 -0.24586 8.30336 0
M  V30 11821 O 1598.27 -1.39011 8.63583 0
M  V30 11822 C 1596.86 -0.273849 6.91158 0
M  V30 11823 O 1597.66 -1.06348 6.02892 0
M  V30 11824 C 1595.53 -0.897649 7.22545 0
M  V30 11825 H 1595.56 -1.9841 7.04286 0
M  V30 11826 H 1596.74 0.739928 6.497 0
M  V30 11827 H 1598.23 0.60668 8.36503 0
M  V30 11828 H 1596.53 -0.352479 10.1829 0
M  V30 11829 H 1596.34 2.00611 10.0304 0
M  V30 11830 H 1594.71 1.41843 9.55327 0
M  V30 11831 H 1597.35 -1.95734 6.03555 0
M  V30 11832 P 1599.21 -1.25109 8.70152 0
M  V30 11833 O 1600.63 -1.35274 9.21221 0
M  V30 11834 O 1598.85 -0.0769065 7.84762 0
M  V30 11835 O 1598.89 -2.55232 7.81161 0
M  V30 11836 C 1598.73 -3.79939 8.58154 0
M  V30 11837 C 1599.27 -4.94023 7.72785 0
M  V30 11838 O 1598.21 -5.18726 6.91205 0
M  V30 11839 C 1600.48 -4.69597 6.85231 0
M  V30 11840 O 1601.22 -5.83832 6.51337 0
M  V30 11841 C 1599.81 -3.96706 5.66633 0
M  V30 11842 O 1600.61 -4.15414 4.49689 0
M  V30 11843 C 1598.48 -4.66153 5.59313 0
M  V30 11844 H 1598.51 -5.47679 4.85214 0
M  V30 11845 H 1599.69 -2.89008 5.86566 0
M  V30 11846 H 1601.18 -4.0121 7.36511 0
M  V30 11847 H 1599.48 -5.80182 8.37584 0
M  V30 11848 H 1599.29 -3.73517 9.52265 0
M  V30 11849 H 1597.66 -3.97163 8.80359 0
M  V30 11850 H 1600.3 -4.90969 4.01921 0
M  V30 11851 P 1602.16 -5.75688 6.64379 0
M  V30 11852 O 1603.58 -6.11849 7.01846 0
M  V30 11853 O 1601.8 -4.30744 6.56026 0
M  V30 11854 O 1601.84 -6.37042 5.19165 0
M  V30 11855 C 1601.68 -7.83578 5.16515 0
M  V30 11856 C 1602.22 -8.33398 3.83019 0
M  V30 11857 O 1601.16 -8.10074 3.01034 0
M  V30 11858 C 1603.43 -7.65514 3.2257 0
M  V30 11859 O 1604.17 -8.4329 2.32297 0
M  V30 11860 C 1602.77 -6.40075 2.62207 0
M  V30 11861 O 1603.56 -5.92589 1.53712 0
M  V30 11862 C 1601.43 -6.9454 2.18503 0
M  V30 11863 H 1601.46 -7.23063 1.12091 0
M  V30 11864 H 1602.64 -5.6025 3.37201 0
M  V30 11865 H 1604.13 -7.35707 4.02681 0
M  V30 11866 H 1602.43 -9.40912 3.9095 0
M  V30 11867 H 1602.24 -8.29056 5.99158 0
M  V30 11868 H 1600.61 -8.10073 5.25882 0
M  V30 11869 H 1603.25 -6.30324 0.726794 0
M  V30 11870 P 1605.11 -8.4349 2.47671 0
M  V30 11871 O 1606.53 -8.94167 2.5964 0
M  V30 11872 O 1604.75 -7.1704 3.19006 0
M  V30 11873 O 1604.79 -8.16596 0.923387 0
M  V30 11874 C 1604.63 -9.38437 0.108857 0
M  V30 11875 C 1605.17 -9.08175 -1.28353 0
M  V30 11876 O 1604.11 -8.44229 -1.84713 0
M  V30 11877 C 1606.39 -8.18386 -1.42505 0
M  V30 11878 O 1607.12 -8.3501 -2.60497 0
M  V30 11879 C 1605.72 -6.80225 -1.25468 0
M  V30 11880 O 1606.52 -5.81621 -1.91066 0
M  V30 11881 C 1604.38 -7.02416 -1.9168 0
M  V30 11882 H 1604.41 -6.6888 -2.96621 0
M  V30 11883 H 1605.59 -6.53617 -0.192223 0
M  V30 11884 H 1607.08 -8.36622 -0.589963 0
M  V30 11885 H 1605.38 -10.0291 -1.79807 0
M  V30 11886 H 1605.19 -10.2138 0.558219 0
M  V30 11887 H 1603.56 -9.6579 0.0444202 0
M  V30 11888 H 1606.2 -5.69556 -2.79637 0
M  V30 11889 P 1608.06 -8.4349 -2.47671 0
M  V30 11890 O 1609.46 -8.99283 -2.62101 0
M  V30 11891 O 1607.68 -7.81195 -1.16947 0
M  V30 11892 O 1607.74 -7.36797 -3.63761 0
M  V30 11893 C 1607.58 -7.95349 -4.982 0
M  V30 11894 C 1608.12 -6.94537 -5.98908 0
M  V30 11895 O 1607.06 -6.10277 -6.11744 0
M  V30 11896 C 1609.33 -6.11426 -5.62335 0
M  V30 11897 O 1610.07 -5.6162 -6.70584 0
M  V30 11898 C 1608.67 -5.04409 -4.73308 0
M  V30 11899 O 1609.47 -3.85929 -4.75106 0
M  V30 11900 C 1607.33 -4.8728 -5.41006 0
M  V30 11901 N 1606.29 -4.65812 -4.42377 0
M  V30 11902 C 1605.25 -3.81293 -4.74224 0
M  V30 11903 O 1605.29 -3.20533 -5.83679 0
M  V30 11904 N 1604.24 -3.6442 -3.86349 0
M  V30 11905 C 1604.29 -4.2728 -2.6824 0
M  V30 11906 N 1603.28 -4.09866 -1.83822 0
M  V30 11907 C 1605.38 -5.10813 -2.3217 0
M  V30 11908 C 1606.35 -5.27909 -3.22647 0
M  V30 11909 H 1607.36 -4.02278 -6.11074 0
M  V30 11910 H 1608.54 -5.39013 -3.70026 0
M  V30 11911 H 1610.03 -6.71494 -5.02675 0
M  V30 11912 H 1608.33 -7.45796 -6.94223 0
M  V30 11913 H 1608.14 -8.89416 -5.05237 0
M  V30 11914 H 1606.51 -8.14791 -5.18355 0
M  V30 11915 H 1605.43 -5.58884 -1.34755 0
M  V30 11916 H 1607.2 -5.92811 -2.9934 0
M  V30 11917 H 1602.49 -3.49095 -2.10018 0
M  V30 11918 H 1603.28 -4.56846 -0.924167 0
M  V30 11919 H 1609.25 -3.3454 -5.51577 0
M  V30 11920 P 1611.01 -5.75688 -6.64379 0
M  V30 11921 O 1612.43 -6.07627 -7.05504 0
M  V30 11922 O 1610.65 -5.88047 -5.19722 0
M  V30 11923 O 1610.69 -4.2322 -7.04443 0
M  V30 11924 C 1610.53 -3.99743 -8.4911 0
M  V30 11925 C 1611.07 -2.60516 -8.79425 0
M  V30 11926 O 1610.01 -1.82684 -8.4467 0
M  V30 11927 C 1612.29 -2.10343 -8.03628 0
M  V30 11928 O 1613.02 -1.09919 -8.67766 0
M  V30 11929 C 1611.62 -1.68446 -6.70876 0
M  V30 11930 O 1612.42 -0.678137 -6.08433 0
M  V30 11931 C 1610.28 -1.17436 -7.18567 0
M  V30 11932 H 1610.31 -0.0804732 -7.31656 0
M  V30 11933 H 1611.5 -2.54037 -6.02537 0
M  V30 11934 H 1612.98 -2.93881 -7.85526 0
M  V30 11935 H 1611.29 -2.53065 -9.86973 0
M  V30 11936 H 1611.1 -4.75072 -9.05887 0
M  V30 11937 H 1609.47 -4.05244 -8.76668 0
M  V30 11938 H 1612.1 0.177647 -6.34251 0
M  V30 11939 P 1613.96 -1.25109 -8.70152 0
M  V30 11940 O 1615.38 -1.29744 -9.22016 0
M  V30 11941 O 1613.6 -2.13714 -7.55141 0
M  V30 11942 O 1613.64 0.248149 -8.21425 0
M  V30 11943 C 1613.48 1.22779 -9.30434 0
M  V30 11944 C 1614.02 2.56293 -8.80664 0
M  V30 11945 O 1612.96 3.02979 -8.09349 0
M  V30 11946 C 1615.24 2.57523 -7.89775 0
M  V30 11947 O 1615.97 3.7668 -7.89438 0
M  V30 11948 C 1614.57 2.20997 -6.55446 0
M  V30 11949 O 1615.37 2.71895 -5.48509 0
M  V30 11950 C 1613.23 2.89693 -6.67988 0
M  V30 11951 H 1613.26 3.88793 -6.19859 0
M  V30 11952 H 1614.45 1.12046 -6.44229 0
M  V30 11953 H 1615.93 1.7746 -8.19711 0
M  V30 11954 H 1614.24 3.20706 -9.67112 0
M  V30 11955 H 1614.05 0.901032 -10.1892 0
M  V30 11956 H 1612.42 1.33049 -9.56592 0
M  V30 11957 H 1615.05 3.57847 -5.23962 0
M  V30 11958 P 1616.91 3.65191 -7.99657 0
M  V30 11959 O 1618.33 3.89332 -8.45794 0
M  V30 11960 O 1616.55 2.28472 -7.50807 0
M  V30 11961 O 1616.59 4.64972 -6.77611 0
M  V30 11962 C 1616.43 6.06319 -7.16352 0
M  V30 11963 C 1616.97 6.91731 -6.02299 0
M  V30 11964 O 1615.91 6.92449 -5.17064 0
M  V30 11965 C 1618.19 6.43627 -5.25174 0
M  V30 11966 O 1618.93 7.43686 -4.60469 0
M  V30 11967 C 1617.52 5.40275 -4.31916 0
M  V30 11968 O 1618.32 5.25279 -3.14438 0
M  V30 11969 C 1616.18 6.04847 -4.05327 0
M  V30 11970 H 1616.21 6.62195 -3.11261 0
M  V30 11971 H 1617.4 4.42556 -4.81383 0
M  V30 11972 H 1618.88 5.92458 -5.93643 0
M  V30 11973 H 1617.19 7.92655 -6.402 0
M  V30 11974 H 1617 6.26671 -8.0846 0
M  V30 11975 H 1615.37 6.29101 -7.32804 0
M  V30 11976 H 1618.01 5.84315 -2.47318 0
M  V30 11977 P 1619.86 7.39546 -4.75277 0
M  V30 11978 O 1621.28 7.84798 -5.01039 0
M  V30 11979 O 1619.5 5.9812 -5.08098 0
M  V30 11980 O 1619.54 7.57503 -3.1866 0
M  V30 11981 C 1619.38 8.97357 -2.74833 0
M  V30 11982 C 1619.92 9.07548 -1.32709 0
M  V30 11983 O 1618.86 8.62072 -0.606159 0
M  V30 11984 C 1621.14 8.25383 -0.938334 0
M  V30 11985 O 1621.88 8.74577 0.146954 0
M  V30 11986 C 1620.47 6.8802 -0.712559 0
M  V30 11987 O 1621.27 6.1189 0.194655 0
M  V30 11988 C 1619.13 7.27966 -0.139777 0
M  V30 11989 H 1619.16 7.25354 0.961601 0
M  V30 11990 H 1620.35 6.32557 -1.65702 0
M  V30 11991 H 1621.83 8.19355 -1.79097 0
M  V30 11992 H 1620.14 10.1294 -1.10029 0
M  V30 11993 H 1619.95 9.64276 -3.41316 0
M  V30 11994 H 1618.32 9.25417 -2.76357 0
M  V30 11995 H 1620.96 6.25267 1.07847 0
M  V30 11996 P 1622.81 8.791 1.35095e-11 0
M  V30 11997 O 1624.24 9.31096 0.027933 0
M  V30 11998 O 1622.45 7.77869 -1.04071 0
M  V30 11999 O 1622.49 8.09533 1.41463 0
M  V30 12000 C 1622.33 9.0349 2.53943 0
M  V30 12001 C 1622.87 8.35226 3.79016 0
M  V30 12002 O 1621.81 7.57992 4.15078 0
M  V30 12003 C 1624.09 7.45087 3.67298 0
M  V30 12004 O 1624.83 7.27796 4.85194 0
M  V30 12005 C 1623.42 6.17323 3.12027 0
M  V30 12006 O 1624.22 5.04231 3.47188 0
M  V30 12007 C 1622.08 6.19961 3.81809 0
M  V30 12008 H 1622.11 5.58218 4.73051 0
M  V30 12009 H 1623.3 6.21726 2.02589 0
M  V30 12010 H 1624.78 7.86112 2.9231 0
M  V30 12011 H 1623.09 9.11627 4.55076 0
M  V30 12012 H 1622.9 9.9573 2.34194 0
M  V30 12013 H 1621.27 9.2792 2.67832 0
M  V30 12014 H 1623.91 4.67702 4.28772 0
M  V30 12015 P 1625.76 7.39546 4.75277 0
M  V30 12016 O 1627.19 7.81777 5.05738 0
M  V30 12017 O 1625.4 7.1065 3.32998 0
M  V30 12018 O 1625.44 6.04542 5.56673 0
M  V30 12019 C 1625.28 6.22772 7.02095 0
M  V30 12020 C 1625.82 4.97725 7.70406 0
M  V30 12021 O 1624.77 4.13256 7.58987 0
M  V30 12022 C 1627.04 4.28231 7.11815 0
M  V30 12023 O 1627.78 3.49945 8.01648 0
M  V30 12024 C 1626.37 3.5063 5.96244 0
M  V30 12025 O 1627.17 2.36482 5.64681 0
M  V30 12026 C 1625.03 3.15122 6.56374 0
M  V30 12027 H 1625.07 2.13853 6.99751 0
M  V30 12028 H 1626.25 4.13501 5.06559 0
M  V30 12029 H 1627.73 5.03285 6.70911 0
M  V30 12030 H 1626.04 5.20877 8.75697 0
M  V30 12031 H 1625.85 7.11046 7.35349 0
M  V30 12032 H 1624.22 6.35815 7.26986 0
M  V30 12033 H 1626.86 1.61644 6.13565 0
M  V30 12034 P 1628.71 3.65191 7.99657 0
M  V30 12035 O 1630.14 3.8425 8.48115 0
M  V30 12036 O 1628.35 4.17805 6.64342 0
M  V30 12037 O 1628.39 2.07613 7.95143 0
M  V30 12038 C 1628.23 1.44328 9.27336 0
M  V30 12039 C 1628.77 0.0220036 9.17197 0
M  V30 12040 O 1627.72 -0.626867 8.61923 0
M  V30 12041 C 1629.99 -0.24586 8.30336 0
M  V30 12042 O 1630.73 -1.39011 8.63583 0
M  V30 12043 C 1629.32 -0.273849 6.91158 0
M  V30 12044 O 1630.12 -1.06348 6.02892 0
M  V30 12045 C 1627.98 -0.897649 7.22545 0
M  V30 12046 H 1628.02 -1.9841 7.04286 0
M  V30 12047 H 1629.2 0.739928 6.497 0
M  V30 12048 H 1630.68 0.60668 8.36503 0
M  V30 12049 H 1628.99 -0.352479 10.1829 0
M  V30 12050 H 1628.8 2.00611 10.0304 0
M  V30 12051 H 1627.17 1.41843 9.55327 0
M  V30 12052 H 1629.81 -1.95734 6.03555 0
M  V30 12053 P 1631.67 -1.25109 8.70152 0
M  V30 12054 O 1633.07 -1.31452 9.27431 0
M  V30 12055 O 1631.29 -0.0458113 7.89887 0
M  V30 12056 O 1631.34 -2.55201 7.81066 0
M  V30 12057 C 1631.18 -3.79939 8.58154 0
M  V30 12058 C 1631.72 -4.93969 7.72701 0
M  V30 12059 O 1630.67 -5.18666 6.91125 0
M  V30 12060 C 1632.94 -4.69597 6.85231 0
M  V30 12061 O 1633.68 -5.83832 6.51337 0
M  V30 12062 C 1632.27 -3.96706 5.66633 0
M  V30 12063 O 1633.07 -4.15346 4.49615 0
M  V30 12064 C 1630.93 -4.66153 5.59313 0
M  V30 12065 N 1629.89 -3.71582 5.24027 0
M  V30 12066 C 1628.86 -4.15133 4.44901 0
M  V30 12067 O 1628.9 -5.32122 4.00336 0
M  V30 12068 N 1627.84 -3.30554 4.15693 0
M  V30 12069 C 1627.89 -2.04701 4.61105 0
M  V30 12070 N 1626.88 -1.23621 4.31855 0
M  V30 12071 C 1628.99 -1.57111 5.38655 0
M  V30 12072 C 1629.95 -2.44234 5.68454 0
M  V30 12073 H 1630.97 -5.47604 4.85148 0
M  V30 12074 H 1632.15 -2.8955 5.86187 0
M  V30 12075 H 1633.63 -4.01995 7.36197 0
M  V30 12076 H 1631.94 -5.81019 8.37003 0
M  V30 12077 H 1631.75 -3.73517 9.52265 0
M  V30 12078 H 1630.12 -3.97122 8.80267 0
M  V30 12079 H 1629.04 -0.538464 5.72373 0
M  V30 12080 H 1630.8 -2.11927 6.29377 0
M  V30 12081 H 1626.09 -1.58199 3.7543 0
M  V30 12082 H 1626.89 -0.264601 4.65348 0
M  V30 12083 H 1632.85 -4.98352 4.09633 0
M  V30 12084 P 1634.62 -5.75688 6.64379 0
M  V30 12085 O 1636.04 -6.11849 7.01846 0
M  V30 12086 O 1634.26 -4.30744 6.56026 0
M  V30 12087 O 1634.29 -6.37042 5.19165 0
M  V30 12088 C 1634.13 -7.83578 5.16515 0
M  V30 12089 C 1634.67 -8.33398 3.83019 0
M  V30 12090 O 1633.62 -8.10074 3.01034 0
M  V30 12091 C 1635.89 -7.65514 3.2257 0
M  V30 12092 O 1636.63 -8.4329 2.32297 0
M  V30 12093 C 1635.22 -6.40075 2.62207 0
M  V30 12094 O 1636.02 -5.92589 1.53712 0
M  V30 12095 C 1633.88 -6.9454 2.18503 0
M  V30 12096 H 1633.92 -7.23063 1.12091 0
M  V30 12097 H 1635.1 -5.6025 3.37201 0
M  V30 12098 H 1636.58 -7.35707 4.02681 0
M  V30 12099 H 1634.89 -9.40912 3.9095 0
M  V30 12100 H 1634.7 -8.29056 5.99158 0
M  V30 12101 H 1633.07 -8.10073 5.25882 0
M  V30 12102 H 1635.71 -6.30324 0.726794 0
M  V30 12103 P 1637.57 -8.4349 2.47671 0
M  V30 12104 O 1638.99 -8.94167 2.5964 0
M  V30 12105 O 1637.21 -7.1704 3.19006 0
M  V30 12106 O 1637.24 -8.16596 0.923387 0
M  V30 12107 C 1637.08 -9.38437 0.108857 0
M  V30 12108 C 1637.62 -9.08175 -1.28353 0
M  V30 12109 O 1636.57 -8.44229 -1.84713 0
M  V30 12110 C 1638.84 -8.18386 -1.42505 0
M  V30 12111 O 1639.58 -8.3501 -2.60497 0
M  V30 12112 C 1638.17 -6.80225 -1.25468 0
M  V30 12113 O 1638.97 -5.81621 -1.91066 0
M  V30 12114 C 1636.84 -7.02416 -1.9168 0
M  V30 12115 H 1636.87 -6.6888 -2.96621 0
M  V30 12116 H 1638.05 -6.53617 -0.192223 0
M  V30 12117 H 1639.53 -8.36622 -0.589963 0
M  V30 12118 H 1637.84 -10.0291 -1.79807 0
M  V30 12119 H 1637.65 -10.2138 0.558219 0
M  V30 12120 H 1636.02 -9.6579 0.0444202 0
M  V30 12121 H 1638.66 -5.69556 -2.79637 0
M  V30 12122 P 1640.52 -8.4349 -2.47671 0
M  V30 12123 O 1641.94 -8.92593 -2.65 0
M  V30 12124 O 1640.16 -7.7568 -1.19296 0
M  V30 12125 O 1640.19 -7.36886 -3.63805 0
M  V30 12126 C 1640.03 -7.95349 -4.982 0
M  V30 12127 C 1640.57 -6.94612 -5.98974 0
M  V30 12128 O 1639.52 -6.10347 -6.11815 0
M  V30 12129 C 1641.79 -6.11426 -5.62335 0
M  V30 12130 O 1642.53 -5.6162 -6.70584 0
M  V30 12131 C 1641.12 -5.04409 -4.73308 0
M  V30 12132 O 1641.92 -3.85992 -4.75183 0
M  V30 12133 C 1639.79 -4.8728 -5.41006 0
M  V30 12134 H 1639.82 -4.02333 -6.11157 0
M  V30 12135 H 1641 -5.39466 -3.69543 0
M  V30 12136 H 1642.48 -6.71916 -5.01943 0
M  V30 12137 H 1640.79 -7.4649 -6.93477 0
M  V30 12138 H 1640.6 -8.89416 -5.05237 0
M  V30 12139 H 1638.97 -8.14876 -5.18409 0
M  V30 12140 H 1641.61 -3.27957 -5.4317 0
M  V30 12141 P 1643.47 -5.75688 -6.64379 0
M  V30 12142 O 1644.89 -6.07692 -7.0558 0
M  V30 12143 O 1643.11 -5.88047 -5.19722 0
M  V30 12144 O 1643.14 -4.2322 -7.04443 0
M  V30 12145 C 1642.98 -3.99785 -8.49201 0
M  V30 12146 C 1643.52 -2.60516 -8.79425 0
M  V30 12147 O 1642.47 -1.82663 -8.44573 0
M  V30 12148 C 1644.74 -2.10343 -8.03628 0
M  V30 12149 O 1645.48 -1.09919 -8.67766 0
M  V30 12150 C 1644.07 -1.68446 -6.70876 0
M  V30 12151 O 1644.87 -0.684109 -6.08265 0
M  V30 12152 C 1642.74 -1.17436 -7.18567 0
M  V30 12153 N 1641.69 -1.52699 -6.23988 0
M  V30 12154 C 1641.86 -2.578 -5.40574 0
M  V30 12155 N 1640.84 -2.78966 -4.61193 0
M  V30 12156 C 1639.95 -1.78725 -4.95769 0
M  V30 12157 C 1638.68 -1.45727 -4.44207 0
M  V30 12158 N 1638.12 -0.374977 -5.05812 0
M  V30 12159 C 1638.72 0.345585 -6.05615 0
M  V30 12160 N 1639.9 0.0787651 -6.56253 0
M  V30 12161 C 1640.47 -1.00499 -5.96189 0
M  V30 12162 H 1643.95 -2.53396 -6.02698 0
M  V30 12163 H 1645.43 -2.93881 -7.85526 0
M  V30 12164 H 1643.74 -2.52078 -9.87225 0
M  V30 12165 H 1643.55 -4.75072 -9.05887 0
M  V30 12166 H 1641.92 -4.05244 -8.76668 0
M  V30 12167 H 1642.76 -3.18977 -5.3945 0
M  V30 12168 H 1644.56 0.177619 -6.34151 0
M  V30 12169 P 1646.42 -1.25109 -8.70152 0
M  V30 12170 O 1647.84 -1.29758 -9.22115 0
M  V30 12171 O 1646.06 -2.13714 -7.55141 0
M  V30 12172 O 1646.1 0.248149 -8.21425 0
M  V30 12173 C 1645.93 1.22792 -9.30533 0
M  V30 12174 C 1646.48 2.56293 -8.80664 0
M  V30 12175 O 1645.42 3.02944 -8.09255 0
M  V30 12176 C 1647.69 2.57523 -7.89775 0
M  V30 12177 O 1648.43 3.7668 -7.89438 0
M  V30 12178 C 1647.03 2.20997 -6.55446 0
M  V30 12179 O 1647.82 2.71302 -5.48691 0
M  V30 12180 C 1645.69 2.89693 -6.67988 0
M  V30 12181 N 1644.64 2.08895 -6.07487 0
M  V30 12182 C 1644.81 0.753809 -5.94137 0
M  V30 12183 N 1643.79 0.146592 -5.38801 0
M  V30 12184 C 1642.9 1.1768 -5.13693 0
M  V30 12185 C 1641.63 1.17563 -4.52477 0
M  V30 12186 N 1641.07 2.41918 -4.45789 0
M  V30 12187 C 1641.67 3.56493 -4.90792 0
M  V30 12188 N 1642.85 3.61423 -5.47817 0
M  V30 12189 C 1643.42 2.37779 -5.5588 0
M  V30 12190 H 1646.9 1.12673 -6.44018 0
M  V30 12191 H 1648.39 1.7746 -8.19711 0
M  V30 12192 H 1646.69 3.21673 -9.66791 0
M  V30 12193 H 1646.5 0.901032 -10.1892 0
M  V30 12194 H 1644.87 1.33049 -9.56592 0
M  V30 12195 H 1645.71 0.233081 -6.26266 0
M  V30 12196 H 1647.51 3.5779 -5.23879 0
M  V30 12197 P 1649.37 3.65191 -7.99657 0
M  V30 12198 O 1650.79 3.89332 -8.45794 0
M  V30 12199 O 1649.01 2.28472 -7.50807 0
M  V30 12200 O 1649.05 4.64972 -6.77611 0
M  V30 12201 C 1648.89 6.06319 -7.16352 0
M  V30 12202 C 1649.43 6.91731 -6.02299 0
M  V30 12203 O 1648.37 6.92449 -5.17064 0
M  V30 12204 C 1650.64 6.43627 -5.25174 0
M  V30 12205 O 1651.38 7.43686 -4.60469 0
M  V30 12206 C 1649.97 5.40275 -4.31916 0
M  V30 12207 O 1650.77 5.25279 -3.14438 0
M  V30 12208 C 1648.64 6.04847 -4.05327 0
M  V30 12209 H 1648.67 6.62195 -3.11261 0
M  V30 12210 H 1649.85 4.42556 -4.81383 0
M  V30 12211 H 1651.34 5.92458 -5.93643 0
M  V30 12212 H 1649.64 7.92655 -6.402 0
M  V30 12213 H 1649.45 6.26671 -8.0846 0
M  V30 12214 H 1647.82 6.29101 -7.32804 0
M  V30 12215 H 1650.46 5.84315 -2.47318 0
M  V30 12216 P 1652.32 7.39546 -4.75277 0
M  V30 12217 O 1653.74 7.84798 -5.01039 0
M  V30 12218 O 1651.96 5.9812 -5.08098 0
M  V30 12219 O 1652 7.57503 -3.1866 0
M  V30 12220 C 1651.84 8.97357 -2.74833 0
M  V30 12221 C 1652.38 9.07548 -1.32709 0
M  V30 12222 O 1651.32 8.62072 -0.606159 0
M  V30 12223 C 1653.59 8.25383 -0.938334 0
M  V30 12224 O 1654.33 8.74577 0.146954 0
M  V30 12225 C 1652.93 6.8802 -0.712559 0
M  V30 12226 O 1653.72 6.1189 0.194655 0
M  V30 12227 C 1651.59 7.27966 -0.139777 0
M  V30 12228 H 1651.62 7.25354 0.961601 0
M  V30 12229 H 1652.8 6.32557 -1.65702 0
M  V30 12230 H 1654.29 8.19355 -1.79097 0
M  V30 12231 H 1652.59 10.1294 -1.10029 0
M  V30 12232 H 1652.4 9.64276 -3.41316 0
M  V30 12233 H 1650.77 9.25417 -2.76357 0
M  V30 12234 H 1653.41 6.25267 1.07847 0
M  V30 12235 P 1655.27 8.791 1.38196e-11 0
M  V30 12236 O 1656.69 9.31096 0.027933 0
M  V30 12237 O 1654.91 7.77869 -1.04071 0
M  V30 12238 O 1654.95 8.09533 1.41463 0
M  V30 12239 C 1654.79 9.0349 2.53943 0
M  V30 12240 C 1655.33 8.35226 3.79016 0
M  V30 12241 O 1654.27 7.57992 4.15078 0
M  V30 12242 C 1656.54 7.45087 3.67298 0
M  V30 12243 O 1657.28 7.27796 4.85194 0
M  V30 12244 C 1655.88 6.17323 3.12027 0
M  V30 12245 O 1656.67 5.04231 3.47188 0
M  V30 12246 C 1654.54 6.19961 3.81809 0
M  V30 12247 H 1654.57 5.58218 4.73051 0
M  V30 12248 H 1655.75 6.21726 2.02589 0
M  V30 12249 H 1657.24 7.86112 2.9231 0
M  V30 12250 H 1655.54 9.11627 4.55076 0
M  V30 12251 H 1655.35 9.9573 2.34194 0
M  V30 12252 H 1653.72 9.2792 2.67832 0
M  V30 12253 H 1656.36 4.67702 4.28772 0
M  V30 12254 P 1658.22 7.39546 4.75277 0
M  V30 12255 O 1659.64 7.81861 5.05793 0
M  V30 12256 O 1657.86 7.1065 3.32998 0
M  V30 12257 O 1657.9 6.04542 5.56673 0
M  V30 12258 C 1657.74 6.22839 7.02169 0
M  V30 12259 C 1658.28 4.97725 7.70406 0
M  V30 12260 O 1657.22 4.13208 7.58899 0
M  V30 12261 C 1659.5 4.28231 7.11815 0
M  V30 12262 O 1660.23 3.49945 8.01648 0
M  V30 12263 C 1658.83 3.5063 5.96244 0
M  V30 12264 O 1659.63 2.37008 5.64352 0
M  V30 12265 C 1657.49 3.15122 6.56374 0
M  V30 12266 N 1656.45 3.22311 5.55692 0
M  V30 12267 C 1656.62 3.99655 4.46046 0
M  V30 12268 N 1655.59 3.97599 3.63918 0
M  V30 12269 C 1654.7 3.11159 4.25334 0
M  V30 12270 C 1653.44 2.64972 3.85157 0
M  V30 12271 N 1652.84 3.02132 2.69405 0
M  V30 12272 N 1652.87 1.78482 4.74759 0
M  V30 12273 C 1653.47 1.37463 5.90819 0
M  V30 12274 N 1654.65 1.7733 6.31889 0
M  V30 12275 C 1655.23 2.64393 5.43725 0
M  V30 12276 H 1657.52 2.13823 6.99656 0
M  V30 12277 H 1658.7 4.12931 5.06895 0
M  V30 12278 H 1660.19 5.03285 6.70911 0
M  V30 12279 H 1658.49 5.20001 8.76217 0
M  V30 12280 H 1658.3 7.11046 7.35349 0
M  V30 12281 H 1656.67 6.35815 7.26986 0
M  V30 12282 H 1652.94 0.66574 6.53015 0
M  V30 12283 H 1657.52 4.58037 4.27732 0
M  V30 12284 H 1651.91 2.64828 2.45331 0
M  V30 12285 H 1653.31 3.67472 2.05644 0
M  V30 12286 H 1659.31 1.61619 6.13468 0
M  V30 12287 P 1661.17 3.65191 7.99657 0
M  V30 12288 O 1662.59 3.8425 8.48115 0
M  V30 12289 O 1660.81 4.17805 6.64342 0
M  V30 12290 O 1660.85 2.07613 7.95143 0
M  V30 12291 C 1660.69 1.44328 9.27336 0
M  V30 12292 C 1661.23 0.0220036 9.17197 0
M  V30 12293 O 1660.17 -0.626867 8.61923 0
M  V30 12294 C 1662.45 -0.24586 8.30336 0
M  V30 12295 O 1663.18 -1.39011 8.63583 0
M  V30 12296 C 1661.78 -0.273849 6.91158 0
M  V30 12297 O 1662.58 -1.06348 6.02892 0
M  V30 12298 C 1660.44 -0.897649 7.22545 0
M  V30 12299 H 1660.47 -1.9841 7.04286 0
M  V30 12300 H 1661.65 0.739928 6.497 0
M  V30 12301 H 1663.14 0.60668 8.36503 0
M  V30 12302 H 1661.44 -0.352479 10.1829 0
M  V30 12303 H 1661.25 2.00611 10.0304 0
M  V30 12304 H 1659.62 1.41843 9.55327 0
M  V30 12305 H 1662.26 -1.95734 6.03555 0
M  V30 12306 P 1664.12 -1.25109 8.70152 0
M  V30 12307 O 1665.54 -1.35274 9.21221 0
M  V30 12308 O 1663.76 -0.0769065 7.84762 0
M  V30 12309 O 1663.8 -2.55232 7.81161 0
M  V30 12310 C 1663.64 -3.79939 8.58154 0
M  V30 12311 C 1664.18 -4.94023 7.72785 0
M  V30 12312 O 1663.12 -5.18726 6.91205 0
M  V30 12313 C 1665.4 -4.69597 6.85231 0
M  V30 12314 O 1666.13 -5.83832 6.51337 0
M  V30 12315 C 1664.73 -3.96706 5.66633 0
M  V30 12316 O 1665.53 -4.15414 4.49689 0
M  V30 12317 C 1663.39 -4.66153 5.59313 0
M  V30 12318 H 1663.42 -5.47679 4.85214 0
M  V30 12319 H 1664.61 -2.89008 5.86566 0
M  V30 12320 H 1666.09 -4.0121 7.36511 0
M  V30 12321 H 1664.4 -5.80182 8.37584 0
M  V30 12322 H 1664.21 -3.73517 9.52265 0
M  V30 12323 H 1662.58 -3.97163 8.80359 0
M  V30 12324 H 1665.21 -4.90969 4.01921 0
M  V30 12325 P 1667.07 -5.75688 6.64379 0
M  V30 12326 O 1668.49 -6.11981 7.01997 0
M  V30 12327 O 1666.71 -4.30744 6.56026 0
M  V30 12328 O 1666.75 -6.37042 5.19165 0
M  V30 12329 C 1666.59 -7.83578 5.16515 0
M  V30 12330 C 1667.13 -8.33307 3.82977 0
M  V30 12331 O 1666.07 -8.10074 3.01034 0
M  V30 12332 C 1668.35 -7.65514 3.2257 0
M  V30 12333 O 1669.09 -8.4329 2.32297 0
M  V30 12334 C 1667.68 -6.40075 2.62207 0
M  V30 12335 O 1668.48 -5.92492 1.53687 0
M  V30 12336 C 1666.34 -6.9454 2.18503 0
M  V30 12337 N 1665.3 -5.95905 2.39948 0
M  V30 12338 C 1665.36 -5.13994 3.44742 0
M  V30 12339 N 1664.32 -4.30684 3.46712 0
M  V30 12340 C 1663.58 -4.65583 2.41086 0
M  V30 12341 C 1662.28 -4.20877 1.99581 0
M  V30 12342 O 1661.54 -3.35913 2.52616 0
M  V30 12343 N 1661.85 -4.83271 0.873406 0
M  V30 12344 C 1662.59 -5.82006 0.185129 0
M  V30 12345 N 1662 -6.30619 -0.95439 0
M  V30 12346 N 1663.75 -6.28443 0.578524 0
M  V30 12347 C 1664.2 -5.68486 1.70138 0
M  V30 12348 H 1666.37 -7.23063 1.12091 0
M  V30 12349 H 1667.56 -5.60165 3.3715 0
M  V30 12350 H 1669.04 -7.3611 4.01946 0
M  V30 12351 H 1667.35 -9.40912 3.9095 0
M  V30 12352 H 1667.16 -8.29056 5.99158 0
M  V30 12353 H 1665.53 -8.10073 5.25882 0
M  V30 12354 H 1660.95 -4.58323 0.505262 0
M  V30 12355 H 1666.16 -5.14564 4.1935 0
M  V30 12356 H 1661.09 -5.93402 -1.25364 0
M  V30 12357 H 1662.46 -7.0425 -1.50254 0
M  V30 12358 H 1668.17 -6.30224 0.72668 0
M  V30 12359 P 1670.02 -8.4349 2.47671 0
M  V30 12360 O 1671.44 -8.94167 2.5964 0
M  V30 12361 O 1669.66 -7.1704 3.19006 0
M  V30 12362 O 1669.7 -8.16596 0.923387 0
M  V30 12363 C 1669.54 -9.38437 0.108857 0
M  V30 12364 C 1670.08 -9.08175 -1.28353 0
M  V30 12365 O 1669.02 -8.44229 -1.84713 0
M  V30 12366 C 1671.3 -8.18386 -1.42505 0
M  V30 12367 O 1672.04 -8.3501 -2.60497 0
M  V30 12368 C 1670.63 -6.80225 -1.25468 0
M  V30 12369 O 1671.43 -5.81621 -1.91066 0
M  V30 12370 C 1669.29 -7.02416 -1.9168 0
M  V30 12371 H 1669.32 -6.6888 -2.96621 0
M  V30 12372 H 1670.51 -6.53617 -0.192223 0
M  V30 12373 H 1671.99 -8.36622 -0.589963 0
M  V30 12374 H 1670.3 -10.0291 -1.79807 0
M  V30 12375 H 1670.11 -10.2138 0.558219 0
M  V30 12376 H 1668.48 -9.6579 0.0444202 0
M  V30 12377 H 1671.12 -5.69556 -2.79637 0
M  V30 12378 P 1672.97 -8.4349 -2.47671 0
M  V30 12379 O 1674.4 -8.92593 -2.65 0
M  V30 12380 O 1672.61 -7.7568 -1.19296 0
M  V30 12381 O 1672.65 -7.36886 -3.63805 0
M  V30 12382 C 1672.49 -7.95349 -4.982 0
M  V30 12383 C 1673.03 -6.94612 -5.98974 0
M  V30 12384 O 1671.97 -6.10347 -6.11815 0
M  V30 12385 C 1674.25 -6.11426 -5.62335 0
M  V30 12386 O 1674.99 -5.6162 -6.70584 0
M  V30 12387 C 1673.58 -5.04409 -4.73308 0
M  V30 12388 O 1674.38 -3.85992 -4.75183 0
M  V30 12389 C 1672.24 -4.8728 -5.41006 0
M  V30 12390 H 1672.27 -4.02333 -6.11157 0
M  V30 12391 H 1673.46 -5.39466 -3.69543 0
M  V30 12392 H 1674.94 -6.71916 -5.01943 0
M  V30 12393 H 1673.25 -7.4649 -6.93477 0
M  V30 12394 H 1673.06 -8.89416 -5.05237 0
M  V30 12395 H 1671.43 -8.14876 -5.18409 0
M  V30 12396 H 1674.07 -3.27957 -5.4317 0
M  V30 12397 P 1675.92 -5.75688 -6.64379 0
M  V30 12398 O 1677.35 -6.07627 -7.05504 0
M  V30 12399 O 1675.56 -5.88047 -5.19722 0
M  V30 12400 O 1675.6 -4.2322 -7.04443 0
M  V30 12401 C 1675.44 -3.99743 -8.4911 0
M  V30 12402 C 1675.98 -2.60516 -8.79425 0
M  V30 12403 O 1674.92 -1.82684 -8.4467 0
M  V30 12404 C 1677.2 -2.10343 -8.03628 0
M  V30 12405 O 1677.94 -1.09919 -8.67766 0
M  V30 12406 C 1676.53 -1.68446 -6.70876 0
M  V30 12407 O 1677.33 -0.678137 -6.08433 0
M  V30 12408 C 1675.19 -1.17436 -7.18567 0
M  V30 12409 H 1675.22 -0.0804732 -7.31656 0
M  V30 12410 H 1676.41 -2.54037 -6.02537 0
M  V30 12411 H 1677.89 -2.93881 -7.85526 0
M  V30 12412 H 1676.2 -2.53065 -9.86973 0
M  V30 12413 H 1676.01 -4.75072 -9.05887 0
M  V30 12414 H 1674.38 -4.05244 -8.76668 0
M  V30 12415 H 1677.02 0.177647 -6.34251 0
M  V30 12416 P 1678.87 -1.25109 -8.70152 0
M  V30 12417 O 1680.3 -1.29744 -9.22016 0
M  V30 12418 O 1678.51 -2.13714 -7.55141 0
M  V30 12419 O 1678.55 0.248149 -8.21425 0
M  V30 12420 C 1678.39 1.22779 -9.30434 0
M  V30 12421 C 1678.93 2.56293 -8.80664 0
M  V30 12422 O 1677.88 3.02979 -8.09349 0
M  V30 12423 C 1680.15 2.57523 -7.89775 0
M  V30 12424 O 1680.89 3.7668 -7.89438 0
M  V30 12425 C 1679.48 2.20997 -6.55446 0
M  V30 12426 O 1680.28 2.71895 -5.48509 0
M  V30 12427 C 1678.14 2.89693 -6.67988 0
M  V30 12428 H 1678.18 3.88793 -6.19859 0
M  V30 12429 H 1679.36 1.12046 -6.44229 0
M  V30 12430 H 1680.84 1.7746 -8.19711 0
M  V30 12431 H 1679.15 3.20706 -9.67112 0
M  V30 12432 H 1678.96 0.901032 -10.1892 0
M  V30 12433 H 1677.33 1.33049 -9.56592 0
M  V30 12434 H 1679.97 3.57847 -5.23962 0
M  V30 12435 P 1681.82 3.65191 -7.99657 0
M  V30 12436 O 1683.25 3.89332 -8.45794 0
M  V30 12437 O 1681.46 2.28472 -7.50807 0
M  V30 12438 O 1681.5 4.64972 -6.77611 0
M  V30 12439 C 1681.34 6.06319 -7.16352 0
M  V30 12440 C 1681.88 6.91731 -6.02299 0
M  V30 12441 O 1680.83 6.92449 -5.17064 0
M  V30 12442 C 1683.1 6.43627 -5.25174 0
M  V30 12443 O 1683.84 7.43686 -4.60469 0
M  V30 12444 C 1682.43 5.40275 -4.31916 0
M  V30 12445 O 1683.23 5.25279 -3.14438 0
M  V30 12446 C 1681.09 6.04847 -4.05327 0
M  V30 12447 H 1681.13 6.62195 -3.11261 0
M  V30 12448 H 1682.31 4.42556 -4.81383 0
M  V30 12449 H 1683.79 5.92458 -5.93643 0
M  V30 12450 H 1682.1 7.92655 -6.402 0
M  V30 12451 H 1681.91 6.26671 -8.0846 0
M  V30 12452 H 1680.28 6.29101 -7.32804 0
M  V30 12453 H 1682.92 5.84315 -2.47318 0
M  V30 12454 P 1684.78 7.39546 -4.75277 0
M  V30 12455 O 1686.2 7.84882 -5.01092 0
M  V30 12456 O 1684.42 5.9812 -5.08098 0
M  V30 12457 O 1684.45 7.57503 -3.1866 0
M  V30 12458 C 1684.29 8.97452 -2.74862 0
M  V30 12459 C 1684.83 9.07548 -1.32709 0
M  V30 12460 O 1683.78 8.61972 -0.606089 0
M  V30 12461 C 1686.05 8.25383 -0.938334 0
M  V30 12462 O 1686.79 8.74577 0.146954 0
M  V30 12463 C 1685.38 6.8802 -0.712559 0
M  V30 12464 O 1686.18 6.1181 0.188505 0
M  V30 12465 C 1684.04 7.27966 -0.139777 0
M  V30 12466 N 1683 6.39368 -0.623421 0
M  V30 12467 C 1683.17 5.71761 -1.78245 0
M  V30 12468 N 1682.14 4.962 -2.10491 0
M  V30 12469 C 1681.26 5.16158 -1.0635 0
M  V30 12470 C 1679.99 4.60425 -0.810266 0
M  V30 12471 N 1679.39 3.7057 -1.62914 0
M  V30 12472 N 1679.43 5.06 0.348685 0
M  V30 12473 C 1680.03 5.94532 1.20395 0
M  V30 12474 N 1681.21 6.48452 1.01191 0
M  V30 12475 C 1681.78 6.04423 -0.146291 0
M  V30 12476 H 1684.08 7.25255 0.961469 0
M  V30 12477 H 1685.26 6.32625 -1.65044 0
M  V30 12478 H 1686.74 8.19355 -1.79097 0
M  V30 12479 H 1685.05 10.1305 -1.09016 0
M  V30 12480 H 1684.86 9.64276 -3.41316 0
M  V30 12481 H 1683.23 9.25417 -2.76357 0
M  V30 12482 H 1679.49 6.21659 2.10714 0
M  V30 12483 H 1684.07 5.79354 -2.38959 0
M  V30 12484 H 1678.46 3.33174 -1.38982 0
M  V30 12485 H 1679.87 3.39714 -2.48836 0
M  V30 12486 H 1685.87 6.25169 1.0783 0
M  V30 12487 P 1687.73 8.791 1.41298e-11 0
M  V30 12488 O 1689.13 9.36698 -0.018734 0
M  V30 12489 O 1687.35 7.82499 -1.07878 0
M  V30 12490 O 1687.4 8.09434 1.41446 0
M  V30 12491 C 1687.24 9.0349 2.53943 0
M  V30 12492 C 1687.78 8.35135 3.78975 0
M  V30 12493 O 1686.73 7.57904 4.1503 0
M  V30 12494 C 1689 7.45087 3.67298 0
M  V30 12495 O 1689.74 7.27796 4.85194 0
M  V30 12496 C 1688.33 6.17323 3.12027 0
M  V30 12497 O 1689.13 5.04149 3.47132 0
M  V30 12498 C 1687 6.19961 3.81809 0
M  V30 12499 N 1685.95 5.71575 2.93223 0
M  V30 12500 C 1684.92 4.99452 3.47592 0
M  V30 12501 O 1684.96 4.7199 4.69732 0
M  V30 12502 N 1683.91 4.58505 2.6803 0
M  V30 12503 C 1683.95 4.85544 1.36995 0
M  V30 12504 N 1682.94 4.45052 0.609031 0
M  V30 12505 C 1685.05 5.55532 0.788532 0
M  V30 12506 C 1686.02 5.97426 1.60849 0
M  V30 12507 H 1687.03 5.58142 4.72986 0
M  V30 12508 H 1688.21 6.21428 2.0318 0
M  V30 12509 H 1689.69 7.85913 2.93131 0
M  V30 12510 H 1688 9.11171 4.55987 0
M  V30 12511 H 1687.81 9.9573 2.34194 0
M  V30 12512 H 1686.18 9.27824 2.67805 0
M  V30 12513 H 1685.1 5.7421 -0.281588 0
M  V30 12514 H 1686.86 6.53132 1.202 0
M  V30 12515 H 1682.15 3.94123 1.03159 0
M  V30 12516 H 1682.95 4.64377 -0.400352 0
M  V30 12517 H 1688.92 4.76386 4.34983 0
M  V30 12518 P 1690.68 7.39546 4.75277 0
M  V30 12519 O 1692.1 7.81777 5.05738 0
M  V30 12520 O 1690.32 7.1065 3.32998 0
M  V30 12521 O 1690.35 6.04542 5.56673 0
M  V30 12522 C 1690.19 6.22772 7.02095 0
M  V30 12523 C 1690.73 4.97725 7.70406 0
M  V30 12524 O 1689.68 4.13256 7.58987 0
M  V30 12525 C 1691.95 4.28231 7.11815 0
M  V30 12526 O 1692.69 3.49945 8.01648 0
M  V30 12527 C 1691.28 3.5063 5.96244 0
M  V30 12528 O 1692.08 2.36482 5.64681 0
M  V30 12529 C 1689.95 3.15122 6.56374 0
M  V30 12530 H 1689.98 2.13853 6.99751 0
M  V30 12531 H 1691.16 4.13501 5.06559 0
M  V30 12532 H 1692.64 5.03285 6.70911 0
M  V30 12533 H 1690.95 5.20877 8.75697 0
M  V30 12534 H 1690.76 7.11046 7.35349 0
M  V30 12535 H 1689.13 6.35815 7.26986 0
M  V30 12536 H 1691.77 1.61644 6.13565 0
M  V30 12537 P 1693.63 3.65191 7.99657 0
M  V30 12538 O 1695.05 3.84292 8.48206 0
M  V30 12539 O 1693.27 4.17805 6.64342 0
M  V30 12540 O 1693.3 2.07613 7.95143 0
M  V30 12541 C 1693.14 1.44344 9.27435 0
M  V30 12542 C 1693.68 0.0220036 9.17197 0
M  V30 12543 O 1692.63 -0.626794 8.61824 0
M  V30 12544 C 1694.9 -0.24586 8.30336 0
M  V30 12545 O 1695.64 -1.39011 8.63583 0
M  V30 12546 C 1694.23 -0.273849 6.91158 0
M  V30 12547 O 1695.03 -1.05728 6.029 0
M  V30 12548 C 1692.9 -0.897649 7.22545 0
M  V30 12549 N 1691.85 -0.292839 6.41732 0
M  V30 12550 C 1692.02 0.950603 5.91308 0
M  V30 12551 N 1691 1.37732 5.21105 0
M  V30 12552 C 1690.11 0.318109 5.26039 0
M  V30 12553 C 1688.84 0.146766 4.6727 0
M  V30 12554 N 1688.28 -1.06525 4.95887 0
M  V30 12555 C 1688.88 -2.0378 5.71347 0
M  V30 12556 N 1690.06 -1.92445 6.27451 0
M  V30 12557 C 1690.63 -0.715382 6.00353 0
M  V30 12558 H 1694.11 0.733318 6.49674 0
M  V30 12559 H 1695.59 0.60668 8.36503 0
M  V30 12560 H 1693.9 -0.362662 10.1825 0
M  V30 12561 H 1693.71 2.00611 10.0304 0
M  V30 12562 H 1692.08 1.41843 9.55327 0
M  V30 12563 H 1692.92 1.54076 6.07465 0
M  V30 12564 H 1694.72 -1.95704 6.0346 0
M  V30 12565 P 1696.58 -1.25109 8.70152 0
M  V30 12566 O 1698 -1.35274 9.21221 0
M  V30 12567 O 1696.22 -0.0769065 7.84762 0
M  V30 12568 O 1696.25 -2.55232 7.81161 0
M  V30 12569 C 1696.09 -3.79939 8.58154 0
M  V30 12570 C 1696.63 -4.94023 7.72785 0
M  V30 12571 O 1695.58 -5.18726 6.91205 0
M  V30 12572 C 1697.85 -4.69597 6.85231 0
M  V30 12573 O 1698.59 -5.83832 6.51337 0
M  V30 12574 C 1697.18 -3.96706 5.66633 0
M  V30 12575 O 1697.98 -4.15414 4.49689 0
M  V30 12576 C 1695.85 -4.66153 5.59313 0
M  V30 12577 H 1695.88 -5.47679 4.85214 0
M  V30 12578 H 1697.06 -2.89008 5.86566 0
M  V30 12579 H 1698.55 -4.0121 7.36511 0
M  V30 12580 H 1696.85 -5.80182 8.37584 0
M  V30 12581 H 1696.66 -3.73517 9.52265 0
M  V30 12582 H 1695.03 -3.97163 8.80359 0
M  V30 12583 H 1697.67 -4.90969 4.01921 0
M  V30 12584 P 1699.53 -5.75688 6.64379 0
M  V30 12585 O 1700.93 -6.11991 7.09136 0
M  V30 12586 O 1699.15 -4.30899 6.62018 0
M  V30 12587 O 1699.21 -6.36965 5.19102 0
M  V30 12588 C 1699.05 -7.83578 5.16515 0
M  V30 12589 C 1699.59 -8.33307 3.82977 0
M  V30 12590 O 1698.53 -8.0998 3.00999 0
M  V30 12591 C 1700.8 -7.65514 3.2257 0
M  V30 12592 O 1701.54 -8.4329 2.32297 0
M  V30 12593 C 1700.14 -6.40075 2.62207 0
M  V30 12594 O 1700.93 -5.92492 1.53687 0
M  V30 12595 C 1698.8 -6.9454 2.18503 0
M  V30 12596 N 1697.75 -5.95905 2.39948 0
M  V30 12597 C 1696.72 -5.89764 1.49837 0
M  V30 12598 O 1696.76 -6.64088 0.490975 0
M  V30 12599 N 1695.71 -5.02821 1.70992 0
M  V30 12600 C 1695.76 -4.21498 2.77236 0
M  V30 12601 C 1696.85 -4.23389 3.68205 0
M  V30 12602 C 1697.82 -5.12792 3.46171 0
M  V30 12603 H 1698.83 -7.22964 1.12076 0
M  V30 12604 H 1700.01 -5.60502 3.36589 0
M  V30 12605 H 1701.5 -7.36197 4.01993 0
M  V30 12606 H 1699.8 -9.41302 3.90009 0
M  V30 12607 H 1699.61 -8.29056 5.99158 0
M  V30 12608 H 1697.98 -8.09989 5.25828 0
M  V30 12609 H 1696.9 -3.54747 4.52399 0
M  V30 12610 H 1698.66 -5.18551 4.1489 0
M  V30 12611 H 1700.72 -6.40705 0.751752 0
M  V30 12612 P 1702.48 -8.4349 2.47671 0
M  V30 12613 O 1703.9 -8.94359 2.59696 0
M  V30 12614 O 1702.12 -7.1704 3.19006 0
M  V30 12615 O 1702.16 -8.16596 0.923387 0
M  V30 12616 C 1702 -9.38437 0.108857 0
M  V30 12617 C 1702.54 -9.08076 -1.28339 0
M  V30 12618 O 1701.48 -8.44229 -1.84713 0
M  V30 12619 C 1703.75 -8.18386 -1.42505 0
M  V30 12620 O 1704.49 -8.3501 -2.60497 0
M  V30 12621 C 1703.09 -6.80225 -1.25468 0
M  V30 12622 O 1703.88 -5.81526 -1.91035 0
M  V30 12623 C 1701.75 -7.02416 -1.9168 0
M  V30 12624 N 1700.7 -6.31033 -1.20314 0
M  V30 12625 C 1700.77 -6.18781 0.121293 0
M  V30 12626 N 1699.72 -5.49762 0.588272 0
M  V30 12627 C 1698.99 -5.22015 -0.488988 0
M  V30 12628 C 1697.68 -4.61966 -0.596448 0
M  V30 12629 O 1696.95 -4.19162 0.309059 0
M  V30 12630 N 1697.25 -4.53773 -1.878 0
M  V30 12631 C 1698 -4.99623 -2.99082 0
M  V30 12632 N 1697.4 -4.78912 -4.21227 0
M  V30 12633 N 1699.15 -5.59957 -2.91093 0
M  V30 12634 C 1699.61 -5.70225 -1.64218 0
M  V30 12635 H 1701.78 -6.6888 -2.96621 0
M  V30 12636 H 1702.96 -6.53517 -0.192194 0
M  V30 12637 H 1704.45 -8.36563 -0.598329 0
M  V30 12638 H 1702.75 -10.0291 -1.79807 0
M  V30 12639 H 1702.56 -10.2138 0.558219 0
M  V30 12640 H 1700.93 -9.6579 0.0444202 0
M  V30 12641 H 1696.36 -4.12883 -2.05283 0
M  V30 12642 H 1701.56 -6.59596 0.745856 0
M  V30 12643 H 1696.49 -4.31425 -4.2628 0
M  V30 12644 H 1697.87 -5.11219 -5.07148 0
M  V30 12645 H 1703.57 -5.69466 -2.79593 0
M  V30 12646 P 1705.43 -8.4349 -2.47671 0
M  V30 12647 O 1706.85 -8.92593 -2.65 0
M  V30 12648 O 1705.07 -7.7568 -1.19296 0
M  V30 12649 O 1705.11 -7.36886 -3.63805 0
M  V30 12650 C 1704.95 -7.95349 -4.982 0
M  V30 12651 C 1705.49 -6.94612 -5.98974 0
M  V30 12652 O 1704.43 -6.10347 -6.11815 0
M  V30 12653 C 1706.7 -6.11426 -5.62335 0
M  V30 12654 O 1707.44 -5.6162 -6.70584 0
M  V30 12655 C 1706.04 -5.04409 -4.73308 0
M  V30 12656 O 1706.83 -3.85992 -4.75183 0
M  V30 12657 C 1704.7 -4.8728 -5.41006 0
M  V30 12658 H 1704.73 -4.02333 -6.11157 0
M  V30 12659 H 1705.91 -5.39466 -3.69543 0
M  V30 12660 H 1707.4 -6.71916 -5.01943 0
M  V30 12661 H 1705.7 -7.4649 -6.93477 0
M  V30 12662 H 1705.51 -8.89416 -5.05237 0
M  V30 12663 H 1703.88 -8.14876 -5.18409 0
M  V30 12664 H 1706.52 -3.27957 -5.4317 0
M  V30 12665 P 1708.38 -5.75688 -6.64379 0
M  V30 12666 O 1709.8 -6.07758 -7.05656 0
M  V30 12667 O 1708.02 -5.88047 -5.19722 0
M  V30 12668 O 1708.06 -4.2322 -7.04443 0
M  V30 12669 C 1707.9 -3.99743 -8.4911 0
M  V30 12670 C 1708.44 -2.60487 -8.79329 0
M  V30 12671 O 1707.38 -1.82684 -8.4467 0
M  V30 12672 C 1709.66 -2.10343 -8.03628 0
M  V30 12673 O 1710.39 -1.09919 -8.67766 0
M  V30 12674 C 1708.99 -1.68446 -6.70876 0
M  V30 12675 O 1709.79 -0.678026 -6.08333 0
M  V30 12676 C 1707.65 -1.17436 -7.18567 0
M  V30 12677 N 1706.61 -1.52699 -6.23988 0
M  V30 12678 C 1706.67 -2.68084 -5.57824 0
M  V30 12679 N 1705.62 -2.8189 -4.75643 0
M  V30 12680 C 1704.89 -1.72373 -4.95155 0
M  V30 12681 C 1703.58 -1.37653 -4.44996 0
M  V30 12682 O 1702.85 -2.02239 -3.68445 0
M  V30 12683 N 1703.15 -0.17675 -4.90782 0
M  V30 12684 C 1703.9 0.645036 -5.78716 0
M  V30 12685 N 1703.31 1.84214 -6.10618 0
M  V30 12686 N 1705.06 0.321732 -6.30279 0
M  V30 12687 C 1705.51 -0.87502 -5.86913 0
M  V30 12688 H 1707.68 -0.0804732 -7.31656 0
M  V30 12689 H 1708.86 -2.53998 -6.02444 0
M  V30 12690 H 1710.35 -2.93095 -7.8582 0
M  V30 12691 H 1708.65 -2.53065 -9.86973 0
M  V30 12692 H 1708.46 -4.75072 -9.05887 0
M  V30 12693 H 1706.83 -4.05244 -8.76668 0
M  V30 12694 H 1702.26 0.152143 -4.60849 0
M  V30 12695 H 1707.46 -3.41852 -5.69006 0
M  V30 12696 H 1702.39 2.08538 -5.69521 0
M  V30 12697 H 1703.77 2.4895 -6.75698 0
M  V30 12698 H 1709.47 0.177619 -6.34151 0
M  V30 12699 P 1711.33 -1.25109 -8.70152 0
M  V30 12700 O 1712.75 -1.29744 -9.22016 0
M  V30 12701 O 1710.97 -2.13714 -7.55141 0
M  V30 12702 O 1711.01 0.248149 -8.21425 0
M  V30 12703 C 1710.85 1.22779 -9.30434 0
M  V30 12704 C 1711.39 2.56293 -8.80664 0
M  V30 12705 O 1710.33 3.02979 -8.09349 0
M  V30 12706 C 1712.61 2.57523 -7.89775 0
M  V30 12707 O 1713.34 3.7668 -7.89438 0
M  V30 12708 C 1711.94 2.20997 -6.55446 0
M  V30 12709 O 1712.74 2.71895 -5.48509 0
M  V30 12710 C 1710.6 2.89693 -6.67988 0
M  V30 12711 H 1710.63 3.88793 -6.19859 0
M  V30 12712 H 1711.81 1.12046 -6.44229 0
M  V30 12713 H 1713.3 1.7746 -8.19711 0
M  V30 12714 H 1711.6 3.20706 -9.67112 0
M  V30 12715 H 1711.41 0.901032 -10.1892 0
M  V30 12716 H 1709.78 1.33049 -9.56592 0
M  V30 12717 H 1712.42 3.57847 -5.23962 0
M  V30 12718 P 1714.28 3.65191 -7.99657 0
M  V30 12719 O 1715.7 3.89332 -8.45794 0
M  V30 12720 O 1713.92 2.28472 -7.50807 0
M  V30 12721 O 1713.96 4.64972 -6.77611 0
M  V30 12722 C 1713.8 6.06319 -7.16352 0
M  V30 12723 C 1714.34 6.91731 -6.02299 0
M  V30 12724 O 1713.28 6.92449 -5.17064 0
M  V30 12725 C 1715.56 6.43627 -5.25174 0
M  V30 12726 O 1716.29 7.43686 -4.60469 0
M  V30 12727 C 1714.89 5.40275 -4.31916 0
M  V30 12728 O 1715.69 5.25279 -3.14438 0
M  V30 12729 C 1713.55 6.04847 -4.05327 0
M  V30 12730 H 1713.58 6.62195 -3.11261 0
M  V30 12731 H 1714.77 4.42556 -4.81383 0
M  V30 12732 H 1716.25 5.92458 -5.93643 0
M  V30 12733 H 1714.56 7.92655 -6.402 0
M  V30 12734 H 1714.37 6.26671 -8.0846 0
M  V30 12735 H 1712.74 6.29101 -7.32804 0
M  V30 12736 H 1715.37 5.84315 -2.47318 0
M  V30 12737 P 1717.23 7.39546 -4.75277 0
M  V30 12738 O 1718.65 7.84798 -5.01039 0
M  V30 12739 O 1716.87 5.9812 -5.08098 0
M  V30 12740 O 1716.91 7.57503 -3.1866 0
M  V30 12741 C 1716.75 8.97357 -2.74833 0
M  V30 12742 C 1717.29 9.07548 -1.32709 0
M  V30 12743 O 1716.23 8.62072 -0.606159 0
M  V30 12744 C 1718.51 8.25383 -0.938334 0
M  V30 12745 O 1719.24 8.74577 0.146954 0
M  V30 12746 C 1717.84 6.8802 -0.712559 0
M  V30 12747 O 1718.64 6.1189 0.194655 0
M  V30 12748 C 1716.5 7.27966 -0.139777 0
M  V30 12749 H 1716.53 7.25354 0.961601 0
M  V30 12750 H 1717.72 6.32557 -1.65702 0
M  V30 12751 H 1719.2 8.19355 -1.79097 0
M  V30 12752 H 1717.51 10.1294 -1.10029 0
M  V30 12753 H 1717.32 9.64276 -3.41316 0
M  V30 12754 H 1715.69 9.25417 -2.76357 0
M  V30 12755 H 1718.32 6.25267 1.07847 0
M  V30 12756 P 1720.18 8.791 1.44399e-11 0
M  V30 12757 O 1721.6 9.31096 0.027933 0
M  V30 12758 O 1719.82 7.77869 -1.04071 0
M  V30 12759 O 1719.86 8.09533 1.41463 0
M  V30 12760 C 1719.7 9.0349 2.53943 0
M  V30 12761 C 1720.24 8.35226 3.79016 0
M  V30 12762 O 1719.18 7.57992 4.15078 0
M  V30 12763 C 1721.46 7.45087 3.67298 0
M  V30 12764 O 1722.2 7.27796 4.85194 0
M  V30 12765 C 1720.79 6.17323 3.12027 0
M  V30 12766 O 1721.59 5.04231 3.47188 0
M  V30 12767 C 1719.45 6.19961 3.81809 0
M  V30 12768 H 1719.48 5.58218 4.73051 0
M  V30 12769 H 1720.67 6.21726 2.02589 0
M  V30 12770 H 1722.15 7.86112 2.9231 0
M  V30 12771 H 1720.46 9.11627 4.55076 0
M  V30 12772 H 1720.27 9.9573 2.34194 0
M  V30 12773 H 1718.64 9.2792 2.67832 0
M  V30 12774 H 1721.28 4.67702 4.28772 0
M  V30 12775 P 1723.13 7.39546 4.75277 0
M  V30 12776 O 1724.55 7.81777 5.05738 0
M  V30 12777 O 1722.77 7.1065 3.32998 0
M  V30 12778 O 1722.81 6.04542 5.56673 0
M  V30 12779 C 1722.65 6.22772 7.02095 0
M  V30 12780 C 1723.19 4.97725 7.70406 0
M  V30 12781 O 1722.13 4.13256 7.58987 0
M  V30 12782 C 1724.41 4.28231 7.11815 0
M  V30 12783 O 1725.15 3.49945 8.01648 0
M  V30 12784 C 1723.74 3.5063 5.96244 0
M  V30 12785 O 1724.54 2.36482 5.64681 0
M  V30 12786 C 1722.4 3.15122 6.56374 0
M  V30 12787 H 1722.43 2.13853 6.99751 0
M  V30 12788 H 1723.62 4.13501 5.06559 0
M  V30 12789 H 1725.1 5.03285 6.70911 0
M  V30 12790 H 1723.41 5.20877 8.75697 0
M  V30 12791 H 1723.22 7.11046 7.35349 0
M  V30 12792 H 1721.59 6.35815 7.26986 0
M  V30 12793 H 1724.23 1.61644 6.13565 0
M  V30 12794 P 1726.08 3.65191 7.99657 0
M  V30 12795 O 1727.51 3.8425 8.48115 0
M  V30 12796 O 1725.72 4.17805 6.64342 0
M  V30 12797 O 1725.76 2.07613 7.95143 0
M  V30 12798 C 1725.6 1.44328 9.27336 0
M  V30 12799 C 1726.14 0.0220036 9.17197 0
M  V30 12800 O 1725.08 -0.626867 8.61923 0
M  V30 12801 C 1727.36 -0.24586 8.30336 0
M  V30 12802 O 1728.1 -1.39011 8.63583 0
M  V30 12803 C 1726.69 -0.273849 6.91158 0
M  V30 12804 O 1727.49 -1.06348 6.02892 0
M  V30 12805 C 1725.35 -0.897649 7.22545 0
M  V30 12806 H 1725.38 -1.9841 7.04286 0
M  V30 12807 H 1726.57 0.739928 6.497 0
M  V30 12808 H 1728.05 0.60668 8.36503 0
M  V30 12809 H 1726.36 -0.352479 10.1829 0
M  V30 12810 H 1726.17 2.00611 10.0304 0
M  V30 12811 H 1724.54 1.41843 9.55327 0
M  V30 12812 H 1727.18 -1.95734 6.03555 0
M  V30 12813 P 1729.03 -1.25109 8.70152 0
M  V30 12814 O 1730.46 -1.35274 9.21221 0
M  V30 12815 O 1728.67 -0.0769065 7.84762 0
M  V30 12816 O 1728.71 -2.55232 7.81161 0
M  V30 12817 C 1728.55 -3.79939 8.58154 0
M  V30 12818 C 1729.09 -4.94023 7.72785 0
M  V30 12819 O 1728.04 -5.18726 6.91205 0
M  V30 12820 C 1730.31 -4.69597 6.85231 0
M  V30 12821 O 1731.05 -5.83832 6.51337 0
M  V30 12822 C 1729.64 -3.96706 5.66633 0
M  V30 12823 O 1730.44 -4.15414 4.49689 0
M  V30 12824 C 1728.3 -4.66153 5.59313 0
M  V30 12825 H 1728.34 -5.47679 4.85214 0
M  V30 12826 H 1729.52 -2.89008 5.86566 0
M  V30 12827 H 1731 -4.0121 7.36511 0
M  V30 12828 H 1729.31 -5.80182 8.37584 0
M  V30 12829 H 1729.12 -3.73517 9.52265 0
M  V30 12830 H 1727.49 -3.97163 8.80359 0
M  V30 12831 H 1730.13 -4.90969 4.01921 0
M  V30 12832 P 1731.98 -5.75688 6.64379 0
M  V30 12833 O 1733.41 -6.11849 7.01846 0
M  V30 12834 O 1731.62 -4.30744 6.56026 0
M  V30 12835 O 1731.66 -6.37042 5.19165 0
M  V30 12836 C 1731.5 -7.83578 5.16515 0
M  V30 12837 C 1732.04 -8.33398 3.83019 0
M  V30 12838 O 1730.99 -8.10074 3.01034 0
M  V30 12839 C 1733.26 -7.65514 3.2257 0
M  V30 12840 O 1734 -8.4329 2.32297 0
M  V30 12841 C 1732.59 -6.40075 2.62207 0
M  V30 12842 O 1733.39 -5.92589 1.53712 0
M  V30 12843 C 1731.25 -6.9454 2.18503 0
M  V30 12844 H 1731.29 -7.23063 1.12091 0
M  V30 12845 H 1732.47 -5.6025 3.37201 0
M  V30 12846 H 1733.95 -7.35707 4.02681 0
M  V30 12847 H 1732.26 -9.40912 3.9095 0
M  V30 12848 H 1732.07 -8.29056 5.99158 0
M  V30 12849 H 1730.44 -8.10073 5.25882 0
M  V30 12850 H 1733.08 -6.30324 0.726794 0
M  V30 12851 P 1734.94 -8.4349 2.47671 0
M  V30 12852 O 1736.36 -8.94167 2.5964 0
M  V30 12853 O 1734.58 -7.1704 3.19006 0
M  V30 12854 O 1734.61 -8.16596 0.923387 0
M  V30 12855 C 1734.45 -9.38437 0.108857 0
M  V30 12856 C 1734.99 -9.08175 -1.28353 0
M  V30 12857 O 1733.94 -8.44229 -1.84713 0
M  V30 12858 C 1736.21 -8.18386 -1.42505 0
M  V30 12859 O 1736.95 -8.3501 -2.60497 0
M  V30 12860 C 1735.54 -6.80225 -1.25468 0
M  V30 12861 O 1736.34 -5.81621 -1.91066 0
M  V30 12862 C 1734.2 -7.02416 -1.9168 0
M  V30 12863 H 1734.24 -6.6888 -2.96621 0
M  V30 12864 H 1735.42 -6.53617 -0.192223 0
M  V30 12865 H 1736.9 -8.36622 -0.589963 0
M  V30 12866 H 1735.21 -10.0291 -1.79807 0
M  V30 12867 H 1735.02 -10.2138 0.558219 0
M  V30 12868 H 1733.39 -9.6579 0.0444202 0
M  V30 12869 H 1736.03 -5.69556 -2.79637 0
M  V30 12870 P 1737.89 -8.4349 -2.47671 0
M  V30 12871 O 1739.31 -8.92593 -2.65 0
M  V30 12872 O 1737.53 -7.7568 -1.19296 0
M  V30 12873 O 1737.56 -7.36886 -3.63805 0
M  V30 12874 C 1737.4 -7.95349 -4.982 0
M  V30 12875 C 1737.94 -6.94612 -5.98974 0
M  V30 12876 O 1736.89 -6.10347 -6.11815 0
M  V30 12877 C 1739.16 -6.11426 -5.62335 0
M  V30 12878 O 1739.9 -5.6162 -6.70584 0
M  V30 12879 C 1738.49 -5.04409 -4.73308 0
M  V30 12880 O 1739.29 -3.85992 -4.75183 0
M  V30 12881 C 1737.15 -4.8728 -5.41006 0
M  V30 12882 H 1737.19 -4.02333 -6.11157 0
M  V30 12883 H 1738.37 -5.39466 -3.69543 0
M  V30 12884 H 1739.85 -6.71916 -5.01943 0
M  V30 12885 H 1738.16 -7.4649 -6.93477 0
M  V30 12886 H 1737.97 -8.89416 -5.05237 0
M  V30 12887 H 1736.34 -8.14876 -5.18409 0
M  V30 12888 H 1738.98 -3.27957 -5.4317 0
M  V30 12889 P 1740.84 -5.75688 -6.64379 0
M  V30 12890 O 1742.26 -6.07627 -7.05504 0
M  V30 12891 O 1740.48 -5.88047 -5.19722 0
M  V30 12892 O 1740.51 -4.2322 -7.04443 0
M  V30 12893 C 1740.35 -3.99743 -8.4911 0
M  V30 12894 C 1740.89 -2.60516 -8.79425 0
M  V30 12895 O 1739.84 -1.82684 -8.4467 0
M  V30 12896 C 1742.11 -2.10343 -8.03628 0
M  V30 12897 O 1742.85 -1.09919 -8.67766 0
M  V30 12898 C 1741.44 -1.68446 -6.70876 0
M  V30 12899 O 1742.24 -0.678137 -6.08433 0
M  V30 12900 C 1740.11 -1.17436 -7.18567 0
M  V30 12901 H 1740.14 -0.0804732 -7.31656 0
M  V30 12902 H 1741.32 -2.54037 -6.02537 0
M  V30 12903 H 1742.8 -2.93881 -7.85526 0
M  V30 12904 H 1741.11 -2.53065 -9.86973 0
M  V30 12905 H 1740.92 -4.75072 -9.05887 0
M  V30 12906 H 1739.29 -4.05244 -8.76668 0
M  V30 12907 H 1741.93 0.177647 -6.34251 0
M  V30 12908 P 1743.79 -1.25109 -8.70152 0
M  V30 12909 O 1745.21 -1.29744 -9.22016 0
M  V30 12910 O 1743.43 -2.13714 -7.55141 0
M  V30 12911 O 1743.46 0.248149 -8.21425 0
M  V30 12912 C 1743.3 1.22779 -9.30434 0
M  V30 12913 C 1743.84 2.56293 -8.80664 0
M  V30 12914 O 1742.79 3.02979 -8.09349 0
M  V30 12915 C 1745.06 2.57523 -7.89775 0
M  V30 12916 O 1745.8 3.7668 -7.89438 0
M  V30 12917 C 1744.39 2.20997 -6.55446 0
M  V30 12918 O 1745.19 2.71895 -5.48509 0
M  V30 12919 C 1743.06 2.89693 -6.67988 0
M  V30 12920 H 1743.09 3.88793 -6.19859 0
M  V30 12921 H 1744.27 1.12046 -6.44229 0
M  V30 12922 H 1745.75 1.7746 -8.19711 0
M  V30 12923 H 1744.06 3.20706 -9.67112 0
M  V30 12924 H 1743.87 0.901032 -10.1892 0
M  V30 12925 H 1742.24 1.33049 -9.56592 0
M  V30 12926 H 1744.88 3.57847 -5.23962 0
M  V30 12927 P 1746.74 3.65191 -7.99657 0
M  V30 12928 O 1748.16 3.89332 -8.45794 0
M  V30 12929 O 1746.38 2.28472 -7.50807 0
M  V30 12930 O 1746.41 4.64972 -6.77611 0
M  V30 12931 C 1746.25 6.06319 -7.16352 0
M  V30 12932 C 1746.79 6.91731 -6.02299 0
M  V30 12933 O 1745.74 6.92449 -5.17064 0
M  V30 12934 C 1748.01 6.43627 -5.25174 0
M  V30 12935 O 1748.75 7.43686 -4.60469 0
M  V30 12936 C 1747.34 5.40275 -4.31916 0
M  V30 12937 O 1748.14 5.25279 -3.14438 0
M  V30 12938 C 1746.01 6.04847 -4.05327 0
M  V30 12939 H 1746.04 6.62195 -3.11261 0
M  V30 12940 H 1747.22 4.42556 -4.81383 0
M  V30 12941 H 1748.71 5.92458 -5.93643 0
M  V30 12942 H 1747.01 7.92655 -6.402 0
M  V30 12943 H 1746.82 6.26671 -8.0846 0
M  V30 12944 H 1745.19 6.29101 -7.32804 0
M  V30 12945 H 1747.83 5.84315 -2.47318 0
M  V30 12946 P 1749.69 7.39546 -4.75277 0
M  V30 12947 O 1751.11 7.84798 -5.01039 0
M  V30 12948 O 1749.33 5.9812 -5.08098 0
M  V30 12949 O 1749.37 7.57503 -3.1866 0
M  V30 12950 C 1749.21 8.97357 -2.74833 0
M  V30 12951 C 1749.75 9.07548 -1.32709 0
M  V30 12952 O 1748.69 8.62072 -0.606159 0
M  V30 12953 C 1750.96 8.25383 -0.938334 0
M  V30 12954 O 1751.7 8.74577 0.146954 0
M  V30 12955 C 1750.29 6.8802 -0.712559 0
M  V30 12956 O 1751.09 6.1189 0.194655 0
M  V30 12957 C 1748.96 7.27966 -0.139777 0
M  V30 12958 H 1748.99 7.25354 0.961601 0
M  V30 12959 H 1750.17 6.32557 -1.65702 0
M  V30 12960 H 1751.66 8.19355 -1.79097 0
M  V30 12961 H 1749.96 10.1294 -1.10029 0
M  V30 12962 H 1749.77 9.64276 -3.41316 0
M  V30 12963 H 1748.14 9.25417 -2.76357 0
M  V30 12964 H 1750.78 6.25267 1.07847 0
M  V30 12965 P 1752.64 8.791 1.47501e-11 0
M  V30 12966 O 1754.06 9.31096 0.027933 0
M  V30 12967 O 1752.28 7.77869 -1.04071 0
M  V30 12968 O 1752.32 8.09533 1.41463 0
M  V30 12969 C 1752.16 9.0349 2.53943 0
M  V30 12970 C 1752.7 8.35226 3.79016 0
M  V30 12971 O 1751.64 7.57992 4.15078 0
M  V30 12972 C 1753.91 7.45087 3.67298 0
M  V30 12973 O 1754.65 7.27796 4.85194 0
M  V30 12974 C 1753.24 6.17323 3.12027 0
M  V30 12975 O 1754.04 5.04231 3.47188 0
M  V30 12976 C 1751.91 6.19961 3.81809 0
M  V30 12977 H 1751.94 5.58218 4.73051 0
M  V30 12978 H 1753.12 6.21726 2.02589 0
M  V30 12979 H 1754.61 7.86112 2.9231 0
M  V30 12980 H 1752.91 9.11627 4.55076 0
M  V30 12981 H 1752.72 9.9573 2.34194 0
M  V30 12982 H 1751.09 9.2792 2.67832 0
M  V30 12983 H 1753.73 4.67702 4.28772 0
M  V30 12984 P 1755.59 7.39546 4.75277 0
M  V30 12985 O 1757.01 7.81777 5.05738 0
M  V30 12986 O 1755.23 7.1065 3.32998 0
M  V30 12987 O 1755.27 6.04542 5.56673 0
M  V30 12988 C 1755.11 6.22772 7.02095 0
M  V30 12989 C 1755.65 4.97725 7.70406 0
M  V30 12990 O 1754.59 4.13256 7.58987 0
M  V30 12991 C 1756.86 4.28231 7.11815 0
M  V30 12992 O 1757.6 3.49945 8.01648 0
M  V30 12993 C 1756.2 3.5063 5.96244 0
M  V30 12994 O 1756.99 2.36482 5.64681 0
M  V30 12995 C 1754.86 3.15122 6.56374 0
M  V30 12996 H 1754.89 2.13853 6.99751 0
M  V30 12997 H 1756.07 4.13501 5.06559 0
M  V30 12998 H 1757.56 5.03285 6.70911 0
M  V30 12999 H 1755.86 5.20877 8.75697 0
M  V30 13000 H 1755.67 7.11046 7.35349 0
M  V30 13001 H 1754.04 6.35815 7.26986 0
M  V30 13002 H 1756.68 1.61644 6.13565 0
M  V30 13003 P 1758.54 3.65191 7.99657 0
M  V30 13004 O 1759.96 3.8425 8.48115 0
M  V30 13005 O 1758.18 4.17805 6.64342 0
M  V30 13006 O 1758.22 2.07613 7.95143 0
M  V30 13007 C 1758.06 1.44328 9.27336 0
M  V30 13008 C 1758.6 0.0220036 9.17197 0
M  V30 13009 O 1757.54 -0.626867 8.61923 0
M  V30 13010 C 1759.81 -0.24586 8.30336 0
M  V30 13011 O 1760.55 -1.39011 8.63583 0
M  V30 13012 C 1759.15 -0.273849 6.91158 0
M  V30 13013 O 1759.94 -1.06348 6.02892 0
M  V30 13014 C 1757.81 -0.897649 7.22545 0
M  V30 13015 H 1757.84 -1.9841 7.04286 0
M  V30 13016 H 1759.02 0.739928 6.497 0
M  V30 13017 H 1760.51 0.60668 8.36503 0
M  V30 13018 H 1758.81 -0.352479 10.1829 0
M  V30 13019 H 1758.62 2.00611 10.0304 0
M  V30 13020 H 1756.99 1.41843 9.55327 0
M  V30 13021 H 1759.63 -1.95734 6.03555 0
M  V30 13022 P 1761.49 -1.25109 8.70152 0
M  V30 13023 O 1762.91 -1.35274 9.21221 0
M  V30 13024 O 1761.13 -0.0769065 7.84762 0
M  V30 13025 O 1761.17 -2.55232 7.81161 0
M  V30 13026 C 1761.01 -3.79939 8.58154 0
M  V30 13027 C 1761.55 -4.94023 7.72785 0
M  V30 13028 O 1760.49 -5.18726 6.91205 0
M  V30 13029 C 1762.77 -4.69597 6.85231 0
M  V30 13030 O 1763.5 -5.83832 6.51337 0
M  V30 13031 C 1762.1 -3.96706 5.66633 0
M  V30 13032 O 1762.9 -4.15414 4.49689 0
M  V30 13033 C 1760.76 -4.66153 5.59313 0
M  V30 13034 H 1760.79 -5.47679 4.85214 0
M  V30 13035 H 1761.97 -2.89008 5.86566 0
M  V30 13036 H 1763.46 -4.0121 7.36511 0
M  V30 13037 H 1761.76 -5.80182 8.37584 0
M  V30 13038 H 1761.57 -3.73517 9.52265 0
M  V30 13039 H 1759.94 -3.97163 8.80359 0
M  V30 13040 H 1762.58 -4.90969 4.01921 0
M  V30 13041 P 1764.44 -5.75688 6.64379 0
M  V30 13042 O 1765.86 -6.11849 7.01846 0
M  V30 13043 O 1764.08 -4.30744 6.56026 0
M  V30 13044 O 1764.12 -6.37042 5.19165 0
M  V30 13045 C 1763.96 -7.83578 5.16515 0
M  V30 13046 C 1764.5 -8.33398 3.83019 0
M  V30 13047 O 1763.44 -8.10074 3.01034 0
M  V30 13048 C 1765.72 -7.65514 3.2257 0
M  V30 13049 O 1766.45 -8.4329 2.32297 0
M  V30 13050 C 1765.05 -6.40075 2.62207 0
M  V30 13051 O 1765.85 -5.92589 1.53712 0
M  V30 13052 C 1763.71 -6.9454 2.18503 0
M  V30 13053 H 1763.74 -7.23063 1.12091 0
M  V30 13054 H 1764.92 -5.6025 3.37201 0
M  V30 13055 H 1766.41 -7.35707 4.02681 0
M  V30 13056 H 1764.71 -9.40912 3.9095 0
M  V30 13057 H 1764.52 -8.29056 5.99158 0
M  V30 13058 H 1762.89 -8.10073 5.25882 0
M  V30 13059 H 1765.53 -6.30324 0.726794 0
M  V30 13060 P 1767.39 -8.4349 2.47671 0
M  V30 13061 O 1768.79 -8.98227 2.65696 0
M  V30 13062 O 1767.01 -7.20409 3.23964 0
M  V30 13063 O 1767.07 -8.16496 0.923275 0
M  V30 13064 C 1766.91 -9.38437 0.108857 0
M  V30 13065 C 1767.45 -9.08076 -1.28339 0
M  V30 13066 O 1766.39 -8.44131 -1.84692 0
M  V30 13067 C 1768.67 -8.18386 -1.42505 0
M  V30 13068 O 1769.4 -8.3501 -2.60497 0
M  V30 13069 C 1768 -6.80225 -1.25468 0
M  V30 13070 O 1768.8 -5.81526 -1.91035 0
M  V30 13071 C 1766.66 -7.02416 -1.9168 0
M  V30 13072 N 1765.62 -6.31033 -1.20314 0
M  V30 13073 C 1764.58 -5.77149 -1.928 0
M  V30 13074 O 1764.62 -5.8521 -3.17729 0
M  V30 13075 N 1763.57 -5.15445 -1.27997 0
M  V30 13076 C 1763.62 -5.04472 0.0534726 0
M  V30 13077 C 1764.71 -5.55244 0.808522 0
M  V30 13078 C 1765.68 -6.18542 0.13981 0
M  V30 13079 H 1766.69 -6.68789 -2.9658 0
M  V30 13080 H 1767.88 -6.53498 -0.198729 0
M  V30 13081 H 1769.36 -8.36663 -0.5984 0
M  V30 13082 H 1767.67 -10.0273 -1.8081 0
M  V30 13083 H 1767.47 -10.2138 0.558219 0
M  V30 13084 H 1765.84 -9.6569 0.0444156 0
M  V30 13085 H 1764.76 -5.43017 1.88792 0
M  V30 13086 H 1766.53 -6.60539 0.686773 0
M  V30 13087 H 1768.58 -5.79638 -2.8315 0
M  V30 13088 P 1770.34 -8.4349 -2.47671 0
M  V30 13089 O 1771.76 -8.92593 -2.65 0
M  V30 13090 O 1769.98 -7.7568 -1.19296 0
M  V30 13091 O 1770.02 -7.36886 -3.63805 0
M  V30 13092 C 1769.86 -7.95349 -4.982 0
M  V30 13093 C 1770.4 -6.94612 -5.98974 0
M  V30 13094 O 1769.34 -6.10347 -6.11815 0
M  V30 13095 C 1771.62 -6.11426 -5.62335 0
M  V30 13096 O 1772.35 -5.6162 -6.70584 0
M  V30 13097 C 1770.95 -5.04409 -4.73308 0
M  V30 13098 O 1771.75 -3.85992 -4.75183 0
M  V30 13099 C 1769.61 -4.8728 -5.41006 0
M  V30 13100 H 1769.64 -4.02333 -6.11157 0
M  V30 13101 H 1770.83 -5.39466 -3.69543 0
M  V30 13102 H 1772.31 -6.71916 -5.01943 0
M  V30 13103 H 1770.62 -7.4649 -6.93477 0
M  V30 13104 H 1770.43 -8.89416 -5.05237 0
M  V30 13105 H 1768.8 -8.14876 -5.18409 0
M  V30 13106 H 1771.43 -3.27957 -5.4317 0
M  V30 13107 P 1773.29 -5.75688 -6.64379 0
M  V30 13108 O 1774.71 -6.07692 -7.0558 0
M  V30 13109 O 1772.93 -5.88047 -5.19722 0
M  V30 13110 O 1772.97 -4.2322 -7.04443 0
M  V30 13111 C 1772.81 -3.99785 -8.49201 0
M  V30 13112 C 1773.35 -2.60516 -8.79425 0
M  V30 13113 O 1772.29 -1.82663 -8.44573 0
M  V30 13114 C 1774.57 -2.10343 -8.03628 0
M  V30 13115 O 1775.31 -1.09919 -8.67766 0
M  V30 13116 C 1773.9 -1.68446 -6.70876 0
M  V30 13117 O 1774.7 -0.684109 -6.08265 0
M  V30 13118 C 1772.56 -1.17436 -7.18567 0
M  V30 13119 N 1771.52 -1.52699 -6.23988 0
M  V30 13120 C 1771.69 -2.578 -5.40574 0
M  V30 13121 N 1770.66 -2.78966 -4.61193 0
M  V30 13122 C 1769.78 -1.78725 -4.95769 0
M  V30 13123 C 1768.51 -1.45727 -4.44207 0
M  V30 13124 N 1767.91 -2.13994 -3.43613 0
M  V30 13125 N 1767.94 -0.374977 -5.05812 0
M  V30 13126 C 1768.55 0.345585 -6.05615 0
M  V30 13127 N 1769.72 0.0787651 -6.56253 0
M  V30 13128 C 1770.3 -1.00499 -5.96189 0
M  V30 13129 H 1772.59 -0.0804622 -7.31556 0
M  V30 13130 H 1773.78 -2.53396 -6.02698 0
M  V30 13131 H 1775.26 -2.93881 -7.85526 0
M  V30 13132 H 1773.57 -2.52078 -9.87225 0
M  V30 13133 H 1773.38 -4.75072 -9.05887 0
M  V30 13134 H 1771.75 -4.05244 -8.76668 0
M  V30 13135 H 1768.01 1.20098 -6.4532 0
M  V30 13136 H 1772.59 -3.18977 -5.3945 0
M  V30 13137 H 1766.98 -1.84983 -3.10004 0
M  V30 13138 H 1768.38 -2.9465 -3.00843 0
M  V30 13139 H 1774.39 0.177619 -6.34151 0
M  V30 13140 P 1776.24 -1.25109 -8.70152 0
M  V30 13141 O 1777.67 -1.29744 -9.22016 0
M  V30 13142 O 1775.88 -2.13714 -7.55141 0
M  V30 13143 O 1775.92 0.248149 -8.21425 0
M  V30 13144 C 1775.76 1.22779 -9.30434 0
M  V30 13145 C 1776.3 2.56293 -8.80664 0
M  V30 13146 O 1775.24 3.02979 -8.09349 0
M  V30 13147 C 1777.52 2.57523 -7.89775 0
M  V30 13148 O 1778.26 3.7668 -7.89438 0
M  V30 13149 C 1776.85 2.20997 -6.55446 0
M  V30 13150 O 1777.65 2.71895 -5.48509 0
M  V30 13151 C 1775.51 2.89693 -6.67988 0
M  V30 13152 H 1775.54 3.88793 -6.19859 0
M  V30 13153 H 1776.73 1.12046 -6.44229 0
M  V30 13154 H 1778.21 1.7746 -8.19711 0
M  V30 13155 H 1776.52 3.20706 -9.67112 0
M  V30 13156 H 1776.33 0.901032 -10.1892 0
M  V30 13157 H 1774.7 1.33049 -9.56592 0
M  V30 13158 H 1777.34 3.57847 -5.23962 0
M  V30 13159 P 1779.19 3.65191 -7.99657 0
M  V30 13160 O 1780.59 3.87414 -8.52829 0
M  V30 13161 O 1778.82 2.26932 -7.566 0
M  V30 13162 O 1778.87 4.64915 -6.77529 0
M  V30 13163 C 1778.71 6.06319 -7.16352 0
M  V30 13164 C 1779.25 6.91655 -6.02234 0
M  V30 13165 O 1778.19 6.92369 -5.17005 0
M  V30 13166 C 1780.47 6.43627 -5.25174 0
M  V30 13167 O 1781.21 7.43686 -4.60469 0
M  V30 13168 C 1779.8 5.40275 -4.31916 0
M  V30 13169 O 1780.6 5.25193 -3.14386 0
M  V30 13170 C 1778.46 6.04847 -4.05327 0
M  V30 13171 N 1777.42 5.04166 -3.98114 0
M  V30 13172 C 1776.38 5.2366 -3.09923 0
M  V30 13173 O 1776.42 6.23355 -2.34204 0
M  V30 13174 N 1775.37 4.34279 -3.05727 0
M  V30 13175 C 1775.42 3.26317 -3.84756 0
M  V30 13176 C 1776.52 3.02504 -4.72573 0
M  V30 13177 C 1777.48 3.94493 -4.76618 0
M  V30 13178 H 1778.49 6.62104 -3.11218 0
M  V30 13179 H 1779.68 4.42969 -4.80867 0
M  V30 13180 H 1781.16 5.93122 -5.93121 0
M  V30 13181 H 1779.47 7.93295 -6.39407 0
M  V30 13182 H 1779.28 6.26671 -8.0846 0
M  V30 13183 H 1777.65 6.29036 -7.32728 0
M  V30 13184 H 1776.56 2.12921 -5.34017 0
M  V30 13185 H 1778.33 3.80658 -5.44176 0
M  V30 13186 H 1780.38 5.93572 -2.52637 0
M  V30 13187 P 1782.14 7.39546 -4.75277 0
M  V30 13188 O 1783.57 7.84798 -5.01039 0
M  V30 13189 O 1781.78 5.9812 -5.08098 0
M  V30 13190 O 1781.82 7.57503 -3.1866 0
M  V30 13191 C 1781.66 8.97357 -2.74833 0
M  V30 13192 C 1782.2 9.07548 -1.32709 0
M  V30 13193 O 1781.15 8.62072 -0.606159 0
M  V30 13194 C 1783.42 8.25383 -0.938334 0
M  V30 13195 O 1784.16 8.74577 0.146954 0
M  V30 13196 C 1782.75 6.8802 -0.712559 0
M  V30 13197 O 1783.55 6.1189 0.194655 0
M  V30 13198 C 1781.41 7.27966 -0.139777 0
M  V30 13199 H 1781.45 7.25354 0.961601 0
M  V30 13200 H 1782.63 6.32557 -1.65702 0
M  V30 13201 H 1784.11 8.19355 -1.79097 0
M  V30 13202 H 1782.42 10.1294 -1.10029 0
M  V30 13203 H 1782.23 9.64276 -3.41316 0
M  V30 13204 H 1780.6 9.25417 -2.76357 0
M  V30 13205 H 1783.24 6.25267 1.07847 0
M  V30 13206 P 1785.09 8.791 1.50603e-11 0
M  V30 13207 O 1786.52 9.31096 0.027933 0
M  V30 13208 O 1784.73 7.77869 -1.04071 0
M  V30 13209 O 1784.77 8.09533 1.41463 0
M  V30 13210 C 1784.61 9.0349 2.53943 0
M  V30 13211 C 1785.15 8.35226 3.79016 0
M  V30 13212 O 1784.1 7.57992 4.15078 0
M  V30 13213 C 1786.37 7.45087 3.67298 0
M  V30 13214 O 1787.11 7.27796 4.85194 0
M  V30 13215 C 1785.7 6.17323 3.12027 0
M  V30 13216 O 1786.5 5.04231 3.47188 0
M  V30 13217 C 1784.36 6.19961 3.81809 0
M  V30 13218 H 1784.4 5.58218 4.73051 0
M  V30 13219 H 1785.58 6.21726 2.02589 0
M  V30 13220 H 1787.06 7.86112 2.9231 0
M  V30 13221 H 1785.37 9.11627 4.55076 0
M  V30 13222 H 1785.18 9.9573 2.34194 0
M  V30 13223 H 1783.55 9.2792 2.67832 0
M  V30 13224 H 1786.19 4.67702 4.28772 0
M  V30 13225 P 1788.05 7.39546 4.75277 0
M  V30 13226 O 1789.47 7.81861 5.05793 0
M  V30 13227 O 1787.69 7.1065 3.32998 0
M  V30 13228 O 1787.72 6.04542 5.56673 0
M  V30 13229 C 1787.56 6.22839 7.02169 0
M  V30 13230 C 1788.1 4.97725 7.70406 0
M  V30 13231 O 1787.05 4.13208 7.58899 0
M  V30 13232 C 1789.32 4.28231 7.11815 0
M  V30 13233 O 1790.06 3.49945 8.01648 0
M  V30 13234 C 1788.65 3.5063 5.96244 0
M  V30 13235 O 1789.45 2.37008 5.64352 0
M  V30 13236 C 1787.31 3.15122 6.56374 0
M  V30 13237 N 1786.27 3.22311 5.55692 0
M  V30 13238 C 1786.44 3.99655 4.46046 0
M  V30 13239 N 1785.41 3.97599 3.63918 0
M  V30 13240 C 1784.53 3.11159 4.25334 0
M  V30 13241 C 1783.26 2.64972 3.85157 0
M  V30 13242 N 1782.66 3.02132 2.69405 0
M  V30 13243 N 1782.7 1.78482 4.74759 0
M  V30 13244 C 1783.3 1.37463 5.90819 0
M  V30 13245 N 1784.48 1.7733 6.31889 0
M  V30 13246 C 1785.05 2.64393 5.43725 0
M  V30 13247 H 1787.35 2.13823 6.99656 0
M  V30 13248 H 1788.53 4.12931 5.06895 0
M  V30 13249 H 1790.01 5.03285 6.70911 0
M  V30 13250 H 1788.32 5.20001 8.76217 0
M  V30 13251 H 1788.13 7.11046 7.35349 0
M  V30 13252 H 1786.5 6.35815 7.26986 0
M  V30 13253 H 1782.76 0.66574 6.53015 0
M  V30 13254 H 1787.34 4.58037 4.27732 0
M  V30 13255 H 1781.73 2.64828 2.45331 0
M  V30 13256 H 1783.14 3.67472 2.05644 0
M  V30 13257 H 1789.14 1.61619 6.13468 0
M  V30 13258 P 1791 3.65191 7.99657 0
M  V30 13259 O 1792.42 3.8425 8.48115 0
M  V30 13260 O 1790.64 4.17805 6.64342 0
M  V30 13261 O 1790.67 2.07613 7.95143 0
M  V30 13262 C 1790.51 1.44328 9.27336 0
M  V30 13263 C 1791.05 0.0220036 9.17197 0
M  V30 13264 O 1790 -0.626867 8.61923 0
M  V30 13265 C 1792.27 -0.24586 8.30336 0
M  V30 13266 O 1793.01 -1.39011 8.63583 0
M  V30 13267 C 1791.6 -0.273849 6.91158 0
M  V30 13268 O 1792.4 -1.06348 6.02892 0
M  V30 13269 C 1790.26 -0.897649 7.22545 0
M  V30 13270 H 1790.3 -1.9841 7.04286 0
M  V30 13271 H 1791.48 0.739928 6.497 0
M  V30 13272 H 1792.96 0.60668 8.36503 0
M  V30 13273 H 1791.27 -0.352479 10.1829 0
M  V30 13274 H 1791.08 2.00611 10.0304 0
M  V30 13275 H 1789.45 1.41843 9.55327 0
M  V30 13276 H 1792.09 -1.95734 6.03555 0
M  V30 13277 P 1793.95 -1.25109 8.70152 0
M  V30 13278 O 1795.37 -1.35274 9.21221 0
M  V30 13279 O 1793.59 -0.0769065 7.84762 0
M  V30 13280 O 1793.62 -2.55232 7.81161 0
M  V30 13281 C 1793.46 -3.79939 8.58154 0
M  V30 13282 C 1794 -4.94023 7.72785 0
M  V30 13283 O 1792.95 -5.18726 6.91205 0
M  V30 13284 C 1795.22 -4.69597 6.85231 0
M  V30 13285 O 1795.96 -5.83832 6.51337 0
M  V30 13286 C 1794.55 -3.96706 5.66633 0
M  V30 13287 O 1795.35 -4.15414 4.49689 0
M  V30 13288 C 1793.22 -4.66153 5.59313 0
M  V30 13289 H 1793.25 -5.47679 4.85214 0
M  V30 13290 H 1794.43 -2.89008 5.86566 0
M  V30 13291 H 1795.91 -4.0121 7.36511 0
M  V30 13292 H 1794.22 -5.80182 8.37584 0
M  V30 13293 H 1794.03 -3.73517 9.52265 0
M  V30 13294 H 1792.4 -3.97163 8.80359 0
M  V30 13295 H 1795.04 -4.90969 4.01921 0
M  V30 13296 P 1796.9 -5.75688 6.64379 0
M  V30 13297 O 1798.32 -6.11849 7.01846 0
M  V30 13298 O 1796.54 -4.30744 6.56026 0
M  V30 13299 O 1796.57 -6.37042 5.19165 0
M  V30 13300 C 1796.41 -7.83578 5.16515 0
M  V30 13301 C 1796.95 -8.33398 3.83019 0
M  V30 13302 O 1795.9 -8.10074 3.01034 0
M  V30 13303 C 1798.17 -7.65514 3.2257 0
M  V30 13304 O 1798.91 -8.4329 2.32297 0
M  V30 13305 C 1797.5 -6.40075 2.62207 0
M  V30 13306 O 1798.3 -5.92589 1.53712 0
M  V30 13307 C 1796.17 -6.9454 2.18503 0
M  V30 13308 H 1796.2 -7.23063 1.12091 0
M  V30 13309 H 1797.38 -5.6025 3.37201 0
M  V30 13310 H 1798.87 -7.35707 4.02681 0
M  V30 13311 H 1797.17 -9.40912 3.9095 0
M  V30 13312 H 1796.98 -8.29056 5.99158 0
M  V30 13313 H 1795.35 -8.10073 5.25882 0
M  V30 13314 H 1797.99 -6.30324 0.726794 0
M  V30 13315 P 1799.85 -8.4349 2.47671 0
M  V30 13316 O 1801.27 -8.94167 2.5964 0
M  V30 13317 O 1799.49 -7.1704 3.19006 0
M  V30 13318 O 1799.52 -8.16596 0.923387 0
M  V30 13319 C 1799.36 -9.38437 0.108857 0
M  V30 13320 C 1799.9 -9.08175 -1.28353 0
M  V30 13321 O 1798.85 -8.44229 -1.84713 0
M  V30 13322 C 1801.12 -8.18386 -1.42505 0
M  V30 13323 O 1801.86 -8.3501 -2.60497 0
M  V30 13324 C 1800.45 -6.80225 -1.25468 0
M  V30 13325 O 1801.25 -5.81621 -1.91066 0
M  V30 13326 C 1799.12 -7.02416 -1.9168 0
M  V30 13327 H 1799.15 -6.6888 -2.96621 0
M  V30 13328 H 1800.33 -6.53617 -0.192223 0
M  V30 13329 H 1801.82 -8.36622 -0.589963 0
M  V30 13330 H 1800.12 -10.0291 -1.79807 0
M  V30 13331 H 1799.93 -10.2138 0.558219 0
M  V30 13332 H 1798.3 -9.6579 0.0444202 0
M  V30 13333 H 1800.94 -5.69556 -2.79637 0
M  V30 13334 P 1802.8 -8.4349 -2.47671 0
M  V30 13335 O 1804.22 -8.92785 -2.65057 0
M  V30 13336 O 1802.44 -7.7568 -1.19296 0
M  V30 13337 O 1802.48 -7.36886 -3.63805 0
M  V30 13338 C 1802.32 -7.95349 -4.982 0
M  V30 13339 C 1802.86 -6.94537 -5.98908 0
M  V30 13340 O 1801.8 -6.10347 -6.11815 0
M  V30 13341 C 1804.07 -6.11426 -5.62335 0
M  V30 13342 O 1804.81 -5.6162 -6.70584 0
M  V30 13343 C 1803.41 -5.04409 -4.73308 0
M  V30 13344 O 1804.2 -3.85929 -4.75106 0
M  V30 13345 C 1802.07 -4.8728 -5.41006 0
M  V30 13346 N 1801.02 -4.65812 -4.42377 0
M  V30 13347 C 1801.09 -5.27109 -3.24335 0
M  V30 13348 N 1800.04 -4.94293 -2.47735 0
M  V30 13349 C 1799.31 -4.1271 -3.23359 0
M  V30 13350 C 1798 -3.56384 -2.99934 0
M  V30 13351 O 1797.27 -3.69331 -2.00616 0
M  V30 13352 N 1797.57 -2.80206 -4.03316 0
M  V30 13353 C 1798.32 -2.58614 -5.2172 0
M  V30 13354 N 1797.72 -1.75154 -6.13278 0
M  V30 13355 N 1799.47 -3.13689 -5.47619 0
M  V30 13356 C 1799.93 -3.90921 -4.46436 0
M  V30 13357 H 1802.1 -4.02333 -6.11157 0
M  V30 13358 H 1803.28 -5.39383 -3.69487 0
M  V30 13359 H 1804.77 -6.71414 -5.02615 0
M  V30 13360 H 1803.07 -7.4649 -6.93477 0
M  V30 13361 H 1802.88 -8.89416 -5.05237 0
M  V30 13362 H 1801.25 -8.14876 -5.18409 0
M  V30 13363 H 1796.68 -2.36355 -3.95916 0
M  V30 13364 H 1801.88 -5.95212 -2.93859 0
M  V30 13365 H 1796.81 -1.32473 -5.91856 0
M  V30 13366 H 1798.19 -1.5588 -7.03026 0
M  V30 13367 H 1803.89 -3.27906 -5.43085 0
M  V30 13368 P 1805.75 -5.75688 -6.64379 0
M  V30 13369 O 1807.17 -6.07758 -7.05656 0
M  V30 13370 O 1805.39 -5.88047 -5.19722 0
M  V30 13371 O 1805.43 -4.2322 -7.04443 0
M  V30 13372 C 1805.27 -3.99743 -8.4911 0
M  V30 13373 C 1805.81 -2.60487 -8.79329 0
M  V30 13374 O 1804.75 -1.82684 -8.4467 0
M  V30 13375 C 1807.02 -2.10343 -8.03628 0
M  V30 13376 O 1807.76 -1.09919 -8.67766 0
M  V30 13377 C 1806.36 -1.68446 -6.70876 0
M  V30 13378 O 1807.15 -0.678026 -6.08333 0
M  V30 13379 C 1805.02 -1.17436 -7.18567 0
M  V30 13380 N 1803.97 -1.52699 -6.23988 0
M  V30 13381 C 1804.04 -2.68084 -5.57824 0
M  V30 13382 N 1802.99 -2.8189 -4.75643 0
M  V30 13383 C 1802.26 -1.72373 -4.95155 0
M  V30 13384 C 1800.95 -1.37653 -4.44996 0
M  V30 13385 O 1800.22 -2.02239 -3.68445 0
M  V30 13386 N 1800.52 -0.17675 -4.90782 0
M  V30 13387 C 1801.27 0.645036 -5.78716 0
M  V30 13388 N 1800.67 1.84214 -6.10618 0
M  V30 13389 N 1802.42 0.321732 -6.30279 0
M  V30 13390 C 1802.88 -0.87502 -5.86913 0
M  V30 13391 H 1805.05 -0.0804732 -7.31656 0
M  V30 13392 H 1806.23 -2.53998 -6.02444 0
M  V30 13393 H 1807.72 -2.93095 -7.8582 0
M  V30 13394 H 1806.02 -2.53065 -9.86973 0
M  V30 13395 H 1805.83 -4.75072 -9.05887 0
M  V30 13396 H 1804.2 -4.05244 -8.76668 0
M  V30 13397 H 1799.63 0.152143 -4.60849 0
M  V30 13398 H 1804.83 -3.41852 -5.69006 0
M  V30 13399 H 1799.76 2.08538 -5.69521 0
M  V30 13400 H 1801.14 2.4895 -6.75698 0
M  V30 13401 H 1806.84 0.177619 -6.34151 0
M  V30 13402 P 1808.7 -1.25109 -8.70152 0
M  V30 13403 O 1810.12 -1.29744 -9.22016 0
M  V30 13404 O 1808.34 -2.13714 -7.55141 0
M  V30 13405 O 1808.38 0.248149 -8.21425 0
M  V30 13406 C 1808.22 1.22779 -9.30434 0
M  V30 13407 C 1808.76 2.56293 -8.80664 0
M  V30 13408 O 1807.7 3.02979 -8.09349 0
M  V30 13409 C 1809.97 2.57523 -7.89775 0
M  V30 13410 O 1810.71 3.7668 -7.89438 0
M  V30 13411 C 1809.31 2.20997 -6.55446 0
M  V30 13412 O 1810.1 2.71895 -5.48509 0
M  V30 13413 C 1807.97 2.89693 -6.67988 0
M  V30 13414 H 1808 3.88793 -6.19859 0
M  V30 13415 H 1809.18 1.12046 -6.44229 0
M  V30 13416 H 1810.67 1.7746 -8.19711 0
M  V30 13417 H 1808.97 3.20706 -9.67112 0
M  V30 13418 H 1808.78 0.901032 -10.1892 0
M  V30 13419 H 1807.15 1.33049 -9.56592 0
M  V30 13420 H 1809.79 3.57847 -5.23962 0
M  V30 13421 P 1811.65 3.65191 -7.99657 0
M  V30 13422 O 1813.07 3.89332 -8.45794 0
M  V30 13423 O 1811.29 2.28472 -7.50807 0
M  V30 13424 O 1811.33 4.64972 -6.77611 0
M  V30 13425 C 1811.17 6.06319 -7.16352 0
M  V30 13426 C 1811.71 6.91731 -6.02299 0
M  V30 13427 O 1810.65 6.92449 -5.17064 0
M  V30 13428 C 1812.92 6.43627 -5.25174 0
M  V30 13429 O 1813.66 7.43686 -4.60469 0
M  V30 13430 C 1812.26 5.40275 -4.31916 0
M  V30 13431 O 1813.05 5.25279 -3.14438 0
M  V30 13432 C 1810.92 6.04847 -4.05327 0
M  V30 13433 H 1810.95 6.62195 -3.11261 0
M  V30 13434 H 1812.13 4.42556 -4.81383 0
M  V30 13435 H 1813.62 5.92458 -5.93643 0
M  V30 13436 H 1811.92 7.92655 -6.402 0
M  V30 13437 H 1811.73 6.26671 -8.0846 0
M  V30 13438 H 1810.1 6.29101 -7.32804 0
M  V30 13439 H 1812.74 5.84315 -2.47318 0
M  V30 13440 P 1814.6 7.39546 -4.75277 0
M  V30 13441 O 1816.02 7.84798 -5.01039 0
M  V30 13442 O 1814.24 5.9812 -5.08098 0
M  V30 13443 O 1814.28 7.57503 -3.1866 0
M  V30 13444 C 1814.12 8.97357 -2.74833 0
M  V30 13445 C 1814.66 9.07548 -1.32709 0
M  V30 13446 O 1813.6 8.62072 -0.606159 0
M  V30 13447 C 1815.88 8.25383 -0.938334 0
M  V30 13448 O 1816.61 8.74577 0.146954 0
M  V30 13449 C 1815.21 6.8802 -0.712559 0
M  V30 13450 O 1816.01 6.1189 0.194655 0
M  V30 13451 C 1813.87 7.27966 -0.139777 0
M  V30 13452 H 1813.9 7.25354 0.961601 0
M  V30 13453 H 1815.08 6.32557 -1.65702 0
M  V30 13454 H 1816.57 8.19355 -1.79097 0
M  V30 13455 H 1814.87 10.1294 -1.10029 0
M  V30 13456 H 1814.68 9.64276 -3.41316 0
M  V30 13457 H 1813.05 9.25417 -2.76357 0
M  V30 13458 H 1815.69 6.25267 1.07847 0
M  V30 13459 P 1817.55 8.791 1.53704e-11 0
M  V30 13460 O 1818.97 9.31296 0.027939 0
M  V30 13461 O 1817.19 7.77869 -1.04071 0
M  V30 13462 O 1817.23 8.09533 1.41463 0
M  V30 13463 C 1817.07 9.0349 2.53943 0
M  V30 13464 C 1817.61 8.35135 3.78975 0
M  V30 13465 O 1816.55 7.57992 4.15078 0
M  V30 13466 C 1818.83 7.45087 3.67298 0
M  V30 13467 O 1819.56 7.27796 4.85194 0
M  V30 13468 C 1818.16 6.17323 3.12027 0
M  V30 13469 O 1818.96 5.04149 3.47132 0
M  V30 13470 C 1816.82 6.19961 3.81809 0
M  V30 13471 N 1815.78 5.71575 2.93223 0
M  V30 13472 C 1815.84 5.97133 1.62693 0
M  V30 13473 N 1814.79 5.44066 0.984414 0
M  V30 13474 C 1814.06 4.87093 1.93987 0
M  V30 13475 C 1812.75 4.26449 1.8738 0
M  V30 13476 O 1812.02 4.1089 0.884377 0
M  V30 13477 N 1812.32 3.82483 3.08036 0
M  V30 13478 C 1813.07 3.95124 4.27727 0
M  V30 13479 N 1812.48 3.4084 5.39089 0
M  V30 13480 N 1814.23 4.55264 4.3706 0
M  V30 13481 C 1814.68 5.00861 3.18217 0
M  V30 13482 H 1816.85 5.58218 4.73051 0
M  V30 13483 H 1818.04 6.21631 2.02558 0
M  V30 13484 H 1819.52 7.85819 2.93096 0
M  V30 13485 H 1817.83 9.11627 4.55076 0
M  V30 13486 H 1817.64 9.9573 2.34194 0
M  V30 13487 H 1816 9.2792 2.67832 0
M  V30 13488 H 1811.43 3.38323 3.1329 0
M  V30 13489 H 1816.64 6.53891 1.14265 0
M  V30 13490 H 1811.57 2.93852 5.30559 0
M  V30 13491 H 1812.94 3.47631 6.30632 0
M  V30 13492 H 1818.65 4.67628 4.28704 0
M  V30 13493 P 1820.5 7.39546 4.75277 0
M  V30 13494 O 1821.92 7.81777 5.05738 0
M  V30 13495 O 1820.14 7.1065 3.32998 0
M  V30 13496 O 1820.18 6.04542 5.56673 0
M  V30 13497 C 1820.02 6.22772 7.02095 0
M  V30 13498 C 1820.56 4.97725 7.70406 0
M  V30 13499 O 1819.5 4.13256 7.58987 0
M  V30 13500 C 1821.78 4.28231 7.11815 0
M  V30 13501 O 1822.51 3.49945 8.01648 0
M  V30 13502 C 1821.11 3.5063 5.96244 0
M  V30 13503 O 1821.91 2.36482 5.64681 0
M  V30 13504 C 1819.77 3.15122 6.56374 0
M  V30 13505 H 1819.8 2.13853 6.99751 0
M  V30 13506 H 1820.99 4.13501 5.06559 0
M  V30 13507 H 1822.47 5.03285 6.70911 0
M  V30 13508 H 1820.78 5.20877 8.75697 0
M  V30 13509 H 1820.59 7.11046 7.35349 0
M  V30 13510 H 1818.96 6.35815 7.26986 0
M  V30 13511 H 1821.59 1.61644 6.13565 0
M  V30 13512 P 1823.45 3.65191 7.99657 0
M  V30 13513 O 1824.87 3.84292 8.48206 0
M  V30 13514 O 1823.09 4.17805 6.64342 0
M  V30 13515 O 1823.13 2.07613 7.95143 0
M  V30 13516 C 1822.97 1.44344 9.27435 0
M  V30 13517 C 1823.51 0.0220036 9.17197 0
M  V30 13518 O 1822.45 -0.626794 8.61824 0
M  V30 13519 C 1824.73 -0.24586 8.30336 0
M  V30 13520 O 1825.47 -1.39011 8.63583 0
M  V30 13521 C 1824.06 -0.273849 6.91158 0
M  V30 13522 O 1824.86 -1.05728 6.029 0
M  V30 13523 C 1822.72 -0.897649 7.22545 0
M  V30 13524 N 1821.68 -0.292839 6.41732 0
M  V30 13525 C 1821.85 0.950603 5.91308 0
M  V30 13526 N 1820.82 1.37732 5.21105 0
M  V30 13527 C 1819.94 0.318109 5.26039 0
M  V30 13528 C 1818.67 0.146766 4.6727 0
M  V30 13529 N 1818.07 1.08519 3.89983 0
M  V30 13530 N 1818.1 -1.06525 4.95887 0
M  V30 13531 C 1818.71 -2.0378 5.71347 0
M  V30 13532 N 1819.88 -1.92445 6.27451 0
M  V30 13533 C 1820.46 -0.715382 6.00353 0
M  V30 13534 H 1822.75 -1.98383 7.04189 0
M  V30 13535 H 1823.94 0.733318 6.49674 0
M  V30 13536 H 1825.42 0.60668 8.36503 0
M  V30 13537 H 1823.73 -0.362662 10.1825 0
M  V30 13538 H 1823.54 2.00611 10.0304 0
M  V30 13539 H 1821.91 1.41843 9.55327 0
M  V30 13540 H 1818.17 -2.97041 5.85344 0
M  V30 13541 H 1822.75 1.54076 6.07465 0
M  V30 13542 H 1817.14 0.901517 3.49562 0
M  V30 13543 H 1818.54 1.97957 3.71669 0
M  V30 13544 H 1824.55 -1.95704 6.0346 0
M  V30 13545 P 1826.4 -1.25109 8.70152 0
M  V30 13546 O 1827.82 -1.35274 9.21221 0
M  V30 13547 O 1826.04 -0.0769065 7.84762 0
M  V30 13548 O 1826.08 -2.55232 7.81161 0
M  V30 13549 C 1825.92 -3.79939 8.58154 0
M  V30 13550 C 1826.46 -4.94023 7.72785 0
M  V30 13551 O 1825.4 -5.18726 6.91205 0
M  V30 13552 C 1827.68 -4.69597 6.85231 0
M  V30 13553 O 1828.42 -5.83832 6.51337 0
M  V30 13554 C 1827.01 -3.96706 5.66633 0
M  V30 13555 O 1827.81 -4.15414 4.49689 0
M  V30 13556 C 1825.67 -4.66153 5.59313 0
M  V30 13557 H 1825.7 -5.47679 4.85214 0
M  V30 13558 H 1826.89 -2.89008 5.86566 0
M  V30 13559 H 1828.37 -4.0121 7.36511 0
M  V30 13560 H 1826.68 -5.80182 8.37584 0
M  V30 13561 H 1826.49 -3.73517 9.52265 0
M  V30 13562 H 1824.86 -3.97163 8.80359 0
M  V30 13563 H 1827.5 -4.90969 4.01921 0
M  V30 13564 P 1829.35 -5.75688 6.64379 0
M  V30 13565 O 1830.78 -6.11849 7.01846 0
M  V30 13566 O 1828.99 -4.30744 6.56026 0
M  V30 13567 O 1829.03 -6.37042 5.19165 0
M  V30 13568 C 1828.87 -7.83578 5.16515 0
M  V30 13569 C 1829.41 -8.33398 3.83019 0
M  V30 13570 O 1828.35 -8.10074 3.01034 0
M  V30 13571 C 1830.63 -7.65514 3.2257 0
M  V30 13572 O 1831.37 -8.4329 2.32297 0
M  V30 13573 C 1829.96 -6.40075 2.62207 0
M  V30 13574 O 1830.76 -5.92589 1.53712 0
M  V30 13575 C 1828.62 -6.9454 2.18503 0
M  V30 13576 H 1828.65 -7.23063 1.12091 0
M  V30 13577 H 1829.84 -5.6025 3.37201 0
M  V30 13578 H 1831.32 -7.35707 4.02681 0
M  V30 13579 H 1829.63 -9.40912 3.9095 0
M  V30 13580 H 1829.44 -8.29056 5.99158 0
M  V30 13581 H 1827.81 -8.10073 5.25882 0
M  V30 13582 H 1830.45 -6.30324 0.726794 0
M  V30 13583 P 1832.3 -8.4349 2.47671 0
M  V30 13584 O 1833.73 -8.94167 2.5964 0
M  V30 13585 O 1831.94 -7.1704 3.19006 0
M  V30 13586 O 1831.98 -8.16596 0.923387 0
M  V30 13587 C 1831.82 -9.38437 0.108857 0
M  V30 13588 C 1832.36 -9.08175 -1.28353 0
M  V30 13589 O 1831.3 -8.44229 -1.84713 0
M  V30 13590 C 1833.58 -8.18386 -1.42505 0
M  V30 13591 O 1834.32 -8.3501 -2.60497 0
M  V30 13592 C 1832.91 -6.80225 -1.25468 0
M  V30 13593 O 1833.71 -5.81621 -1.91066 0
M  V30 13594 C 1831.57 -7.02416 -1.9168 0
M  V30 13595 H 1831.6 -6.6888 -2.96621 0
M  V30 13596 H 1832.79 -6.53617 -0.192223 0
M  V30 13597 H 1834.27 -8.36622 -0.589963 0
M  V30 13598 H 1832.58 -10.0291 -1.79807 0
M  V30 13599 H 1832.39 -10.2138 0.558219 0
M  V30 13600 H 1830.76 -9.6579 0.0444202 0
M  V30 13601 H 1833.4 -5.69556 -2.79637 0
M  V30 13602 P 1835.25 -8.4349 -2.47671 0
M  V30 13603 O 1836.68 -8.92593 -2.65 0
M  V30 13604 O 1834.89 -7.7568 -1.19296 0
M  V30 13605 O 1834.93 -7.36886 -3.63805 0
M  V30 13606 C 1834.77 -7.95349 -4.982 0
M  V30 13607 C 1835.31 -6.94612 -5.98974 0
M  V30 13608 O 1834.26 -6.10347 -6.11815 0
M  V30 13609 C 1836.53 -6.11426 -5.62335 0
M  V30 13610 O 1837.27 -5.6162 -6.70584 0
M  V30 13611 C 1835.86 -5.04409 -4.73308 0
M  V30 13612 O 1836.66 -3.85992 -4.75183 0
M  V30 13613 C 1834.52 -4.8728 -5.41006 0
M  V30 13614 H 1834.56 -4.02333 -6.11157 0
M  V30 13615 H 1835.74 -5.39466 -3.69543 0
M  V30 13616 H 1837.22 -6.71916 -5.01943 0
M  V30 13617 H 1835.53 -7.4649 -6.93477 0
M  V30 13618 H 1835.34 -8.89416 -5.05237 0
M  V30 13619 H 1833.71 -8.14876 -5.18409 0
M  V30 13620 H 1836.35 -3.27957 -5.4317 0
M  V30 13621 P 1838.21 -5.75688 -6.64379 0
M  V30 13622 O 1839.63 -6.07758 -7.05656 0
M  V30 13623 O 1837.85 -5.88047 -5.19722 0
M  V30 13624 O 1837.88 -4.2322 -7.04443 0
M  V30 13625 C 1837.72 -3.99743 -8.4911 0
M  V30 13626 C 1838.26 -2.60487 -8.79329 0
M  V30 13627 O 1837.21 -1.82684 -8.4467 0
M  V30 13628 C 1839.48 -2.10343 -8.03628 0
M  V30 13629 O 1840.22 -1.09919 -8.67766 0
M  V30 13630 C 1838.81 -1.68446 -6.70876 0
M  V30 13631 O 1839.61 -0.678026 -6.08333 0
M  V30 13632 C 1837.47 -1.17436 -7.18567 0
M  V30 13633 N 1836.43 -1.52699 -6.23988 0
M  V30 13634 C 1836.49 -2.68084 -5.57824 0
M  V30 13635 N 1835.45 -2.8189 -4.75643 0
M  V30 13636 C 1834.71 -1.72373 -4.95155 0
M  V30 13637 C 1833.41 -1.37653 -4.44996 0
M  V30 13638 O 1832.68 -2.02239 -3.68445 0
M  V30 13639 N 1832.98 -0.17675 -4.90782 0
M  V30 13640 C 1833.73 0.645036 -5.78716 0
M  V30 13641 N 1833.13 1.84214 -6.10618 0
M  V30 13642 N 1834.88 0.321732 -6.30279 0
M  V30 13643 C 1835.34 -0.87502 -5.86913 0
M  V30 13644 H 1837.51 -0.0804732 -7.31656 0
M  V30 13645 H 1838.69 -2.53998 -6.02444 0
M  V30 13646 H 1840.17 -2.93095 -7.8582 0
M  V30 13647 H 1838.48 -2.53065 -9.86973 0
M  V30 13648 H 1838.29 -4.75072 -9.05887 0
M  V30 13649 H 1836.66 -4.05244 -8.76668 0
M  V30 13650 H 1832.08 0.152143 -4.60849 0
M  V30 13651 H 1837.29 -3.41852 -5.69006 0
M  V30 13652 H 1832.22 2.08538 -5.69521 0
M  V30 13653 H 1833.6 2.4895 -6.75698 0
M  V30 13654 H 1839.3 0.177619 -6.34151 0
M  V30 13655 P 1841.16 -1.25109 -8.70152 0
M  V30 13656 O 1842.58 -1.29744 -9.22016 0
M  V30 13657 O 1840.8 -2.13714 -7.55141 0
M  V30 13658 O 1840.83 0.248149 -8.21425 0
M  V30 13659 C 1840.67 1.22779 -9.30434 0
M  V30 13660 C 1841.21 2.56293 -8.80664 0
M  V30 13661 O 1840.16 3.02979 -8.09349 0
M  V30 13662 C 1842.43 2.57523 -7.89775 0
M  V30 13663 O 1843.17 3.7668 -7.89438 0
M  V30 13664 C 1841.76 2.20997 -6.55446 0
M  V30 13665 O 1842.56 2.71895 -5.48509 0
M  V30 13666 C 1840.42 2.89693 -6.67988 0
M  V30 13667 H 1840.46 3.88793 -6.19859 0
M  V30 13668 H 1841.64 1.12046 -6.44229 0
M  V30 13669 H 1843.12 1.7746 -8.19711 0
M  V30 13670 H 1841.43 3.20706 -9.67112 0
M  V30 13671 H 1841.24 0.901032 -10.1892 0
M  V30 13672 H 1839.61 1.33049 -9.56592 0
M  V30 13673 H 1842.25 3.57847 -5.23962 0
M  V30 13674 P 1844.11 3.65191 -7.99657 0
M  V30 13675 O 1845.53 3.89374 -8.45885 0
M  V30 13676 O 1843.75 2.28472 -7.50807 0
M  V30 13677 O 1843.78 4.64972 -6.77611 0
M  V30 13678 C 1843.62 6.06383 -7.16428 0
M  V30 13679 C 1844.16 6.91731 -6.02299 0
M  V30 13680 O 1843.11 6.92369 -5.17005 0
M  V30 13681 C 1845.38 6.43627 -5.25174 0
M  V30 13682 O 1846.12 7.43686 -4.60469 0
M  V30 13683 C 1844.71 5.40275 -4.31916 0
M  V30 13684 O 1845.51 5.24878 -3.14911 0
M  V30 13685 C 1843.38 6.04847 -4.05327 0
M  V30 13686 N 1842.33 5.04166 -3.98114 0
M  V30 13687 C 1842.5 3.84629 -4.59066 0
M  V30 13688 N 1841.47 3.0363 -4.45343 0
M  V30 13689 C 1840.59 3.76722 -3.68523 0
M  V30 13690 C 1839.32 3.43528 -3.17088 0
M  V30 13691 N 1838.76 4.44526 -2.44231 0
M  V30 13692 C 1839.36 5.65243 -2.20146 0
M  V30 13693 N 1840.54 6.00221 -2.65453 0
M  V30 13694 C 1841.11 5.00564 -3.39083 0
M  V30 13695 H 1844.59 4.42969 -4.80867 0
M  V30 13696 H 1846.07 5.92458 -5.93643 0
M  V30 13697 H 1844.38 7.93295 -6.39407 0
M  V30 13698 H 1844.19 6.26671 -8.0846 0
M  V30 13699 H 1842.56 6.29101 -7.32804 0
M  V30 13700 H 1843.4 3.58193 -5.14248 0
M  V30 13701 H 1845.2 5.84223 -2.47279 0
M  V30 13702 P 1847.06 7.39546 -4.75277 0
M  V30 13703 O 1848.48 7.84798 -5.01039 0
M  V30 13704 O 1846.7 5.9812 -5.08098 0
M  V30 13705 O 1846.73 7.57503 -3.1866 0
M  V30 13706 C 1846.57 8.97357 -2.74833 0
M  V30 13707 C 1847.11 9.07548 -1.32709 0
M  V30 13708 O 1846.06 8.62072 -0.606159 0
M  V30 13709 C 1848.33 8.25383 -0.938334 0
M  V30 13710 O 1849.07 8.74577 0.146954 0
M  V30 13711 C 1847.66 6.8802 -0.712559 0
M  V30 13712 O 1848.46 6.1189 0.194655 0
M  V30 13713 C 1846.33 7.27966 -0.139777 0
M  V30 13714 H 1846.36 7.25354 0.961601 0
M  V30 13715 H 1847.54 6.32557 -1.65702 0
M  V30 13716 H 1849.02 8.19355 -1.79097 0
M  V30 13717 H 1847.33 10.1294 -1.10029 0
M  V30 13718 H 1847.14 9.64276 -3.41316 0
M  V30 13719 H 1845.51 9.25417 -2.76357 0
M  V30 13720 H 1848.15 6.25267 1.07847 0
M  V30 13721 P 1850.01 8.791 1.56806e-11 0
M  V30 13722 O 1851.43 9.31096 0.027933 0
M  V30 13723 O 1849.65 7.77869 -1.04071 0
M  V30 13724 O 1849.68 8.09533 1.41463 0
M  V30 13725 C 1849.52 9.0349 2.53943 0
M  V30 13726 C 1850.06 8.35226 3.79016 0
M  V30 13727 O 1849.01 7.57992 4.15078 0
M  V30 13728 C 1851.28 7.45087 3.67298 0
M  V30 13729 O 1852.02 7.27796 4.85194 0
M  V30 13730 C 1850.61 6.17323 3.12027 0
M  V30 13731 O 1851.41 5.04231 3.47188 0
M  V30 13732 C 1849.28 6.19961 3.81809 0
M  V30 13733 H 1849.31 5.58218 4.73051 0
M  V30 13734 H 1850.49 6.21726 2.02589 0
M  V30 13735 H 1851.98 7.86112 2.9231 0
M  V30 13736 H 1850.28 9.11627 4.55076 0
M  V30 13737 H 1850.09 9.9573 2.34194 0
M  V30 13738 H 1848.46 9.2792 2.67832 0
M  V30 13739 H 1851.1 4.67702 4.28772 0
M  V30 13740 P 1852.96 7.39546 4.75277 0
M  V30 13741 O 1854.38 7.81777 5.05738 0
M  V30 13742 O 1852.6 7.1065 3.32998 0
M  V30 13743 O 1852.63 6.04542 5.56673 0
M  V30 13744 C 1852.47 6.22772 7.02095 0
M  V30 13745 C 1853.01 4.97725 7.70406 0
M  V30 13746 O 1851.96 4.13256 7.58987 0
M  V30 13747 C 1854.23 4.28231 7.11815 0
M  V30 13748 O 1854.97 3.49945 8.01648 0
M  V30 13749 C 1853.56 3.5063 5.96244 0
M  V30 13750 O 1854.36 2.36482 5.64681 0
M  V30 13751 C 1852.23 3.15122 6.56374 0
M  V30 13752 H 1852.26 2.13853 6.99751 0
M  V30 13753 H 1853.44 4.13501 5.06559 0
M  V30 13754 H 1854.93 5.03285 6.70911 0
M  V30 13755 H 1853.23 5.20877 8.75697 0
M  V30 13756 H 1853.04 7.11046 7.35349 0
M  V30 13757 H 1851.41 6.35815 7.26986 0
M  V30 13758 H 1854.05 1.61644 6.13565 0
M  V30 13759 P 1855.91 3.65191 7.99657 0
M  V30 13760 O 1857.33 3.8425 8.48115 0
M  V30 13761 O 1855.55 4.17805 6.64342 0
M  V30 13762 O 1855.59 2.07613 7.95143 0
M  V30 13763 C 1855.43 1.44328 9.27336 0
M  V30 13764 C 1855.97 0.0220036 9.17197 0
M  V30 13765 O 1854.91 -0.626867 8.61923 0
M  V30 13766 C 1857.18 -0.24586 8.30336 0
M  V30 13767 O 1857.92 -1.39011 8.63583 0
M  V30 13768 C 1856.51 -0.273849 6.91158 0
M  V30 13769 O 1857.31 -1.06348 6.02892 0
M  V30 13770 C 1855.18 -0.897649 7.22545 0
M  V30 13771 H 1855.21 -1.9841 7.04286 0
M  V30 13772 H 1856.39 0.739928 6.497 0
M  V30 13773 H 1857.88 0.60668 8.36503 0
M  V30 13774 H 1856.18 -0.352479 10.1829 0
M  V30 13775 H 1855.99 2.00611 10.0304 0
M  V30 13776 H 1854.36 1.41843 9.55327 0
M  V30 13777 H 1857 -1.95734 6.03555 0
M  V30 13778 P 1858.86 -1.25109 8.70152 0
M  V30 13779 O 1860.28 -1.35274 9.21221 0
M  V30 13780 O 1858.5 -0.0769065 7.84762 0
M  V30 13781 O 1858.54 -2.55232 7.81161 0
M  V30 13782 C 1858.38 -3.79939 8.58154 0
M  V30 13783 C 1858.92 -4.94023 7.72785 0
M  V30 13784 O 1857.86 -5.18726 6.91205 0
M  V30 13785 C 1860.13 -4.69597 6.85231 0
M  V30 13786 O 1860.87 -5.83832 6.51337 0
M  V30 13787 C 1859.47 -3.96706 5.66633 0
M  V30 13788 O 1860.26 -4.15414 4.49689 0
M  V30 13789 C 1858.13 -4.66153 5.59313 0
M  V30 13790 H 1858.16 -5.47679 4.85214 0
M  V30 13791 H 1859.34 -2.89008 5.86566 0
M  V30 13792 H 1860.83 -4.0121 7.36511 0
M  V30 13793 H 1859.13 -5.80182 8.37584 0
M  V30 13794 H 1858.94 -3.73517 9.52265 0
M  V30 13795 H 1857.31 -3.97163 8.80359 0
M  V30 13796 H 1859.95 -4.90969 4.01921 0
M  V30 13797 P 1861.81 -5.75688 6.64379 0
M  V30 13798 O 1863.23 -6.11849 7.01846 0
M  V30 13799 O 1861.45 -4.30744 6.56026 0
M  V30 13800 O 1861.49 -6.37042 5.19165 0
M  V30 13801 C 1861.33 -7.83578 5.16515 0
M  V30 13802 C 1861.87 -8.33398 3.83019 0
M  V30 13803 O 1860.81 -8.10074 3.01034 0
M  V30 13804 C 1863.08 -7.65514 3.2257 0
M  V30 13805 O 1863.82 -8.4329 2.32297 0
M  V30 13806 C 1862.42 -6.40075 2.62207 0
M  V30 13807 O 1863.21 -5.92589 1.53712 0
M  V30 13808 C 1861.08 -6.9454 2.18503 0
M  V30 13809 H 1861.11 -7.23063 1.12091 0
M  V30 13810 H 1862.29 -5.6025 3.37201 0
M  V30 13811 H 1863.78 -7.35707 4.02681 0
M  V30 13812 H 1862.08 -9.40912 3.9095 0
M  V30 13813 H 1861.89 -8.29056 5.99158 0
M  V30 13814 H 1860.26 -8.10073 5.25882 0
M  V30 13815 H 1862.9 -6.30324 0.726794 0
M  V30 13816 P 1864.76 -8.4349 2.47671 0
M  V30 13817 O 1866.18 -8.94167 2.5964 0
M  V30 13818 O 1864.4 -7.1704 3.19006 0
M  V30 13819 O 1864.44 -8.16596 0.923387 0
M  V30 13820 C 1864.28 -9.38437 0.108857 0
M  V30 13821 C 1864.82 -9.08175 -1.28353 0
M  V30 13822 O 1863.76 -8.44229 -1.84713 0
M  V30 13823 C 1866.04 -8.18386 -1.42505 0
M  V30 13824 O 1866.77 -8.3501 -2.60497 0
M  V30 13825 C 1865.37 -6.80225 -1.25468 0
M  V30 13826 O 1866.17 -5.81621 -1.91066 0
M  V30 13827 C 1864.03 -7.02416 -1.9168 0
M  V30 13828 H 1864.06 -6.6888 -2.96621 0
M  V30 13829 H 1865.24 -6.53617 -0.192223 0
M  V30 13830 H 1866.73 -8.36622 -0.589963 0
M  V30 13831 H 1865.03 -10.0291 -1.79807 0
M  V30 13832 H 1864.84 -10.2138 0.558219 0
M  V30 13833 H 1863.21 -9.6579 0.0444202 0
M  V30 13834 H 1865.85 -5.69556 -2.79637 0
M  V30 13835 P 1867.71 -8.4349 -2.47671 0
M  V30 13836 O 1869.13 -8.92593 -2.65 0
M  V30 13837 O 1867.35 -7.7568 -1.19296 0
M  V30 13838 O 1867.39 -7.36886 -3.63805 0
M  V30 13839 C 1867.23 -7.95349 -4.982 0
M  V30 13840 C 1867.77 -6.94612 -5.98974 0
M  V30 13841 O 1866.71 -6.10347 -6.11815 0
M  V30 13842 C 1868.99 -6.11426 -5.62335 0
M  V30 13843 O 1869.72 -5.6162 -6.70584 0
M  V30 13844 C 1868.32 -5.04409 -4.73308 0
M  V30 13845 O 1869.12 -3.85992 -4.75183 0
M  V30 13846 C 1866.98 -4.8728 -5.41006 0
M  V30 13847 H 1867.01 -4.02333 -6.11157 0
M  V30 13848 H 1868.19 -5.39466 -3.69543 0
M  V30 13849 H 1869.68 -6.71916 -5.01943 0
M  V30 13850 H 1867.98 -7.4649 -6.93477 0
M  V30 13851 H 1867.79 -8.89416 -5.05237 0
M  V30 13852 H 1866.16 -8.14876 -5.18409 0
M  V30 13853 H 1868.8 -3.27957 -5.4317 0
M  V30 13854 P 1870.66 -5.75688 -6.64379 0
M  V30 13855 O 1872.08 -6.07627 -7.05504 0
M  V30 13856 O 1870.3 -5.88047 -5.19722 0
M  V30 13857 O 1870.34 -4.2322 -7.04443 0
M  V30 13858 C 1870.18 -3.99743 -8.4911 0
M  V30 13859 C 1870.72 -2.60516 -8.79425 0
M  V30 13860 O 1869.66 -1.82684 -8.4467 0
M  V30 13861 C 1871.94 -2.10343 -8.03628 0
M  V30 13862 O 1872.67 -1.09919 -8.67766 0
M  V30 13863 C 1871.27 -1.68446 -6.70876 0
M  V30 13864 O 1872.07 -0.678137 -6.08433 0
M  V30 13865 C 1869.93 -1.17436 -7.18567 0
M  V30 13866 H 1869.96 -0.0804732 -7.31656 0
M  V30 13867 H 1871.15 -2.54037 -6.02537 0
M  V30 13868 H 1872.63 -2.93881 -7.85526 0
M  V30 13869 H 1870.94 -2.53065 -9.86973 0
M  V30 13870 H 1870.75 -4.75072 -9.05887 0
M  V30 13871 H 1869.12 -4.05244 -8.76668 0
M  V30 13872 H 1871.75 0.177647 -6.34251 0
M  V30 13873 P 1873.61 -1.25109 -8.70152 0
M  V30 13874 O 1875.03 -1.29744 -9.22016 0
M  V30 13875 O 1873.25 -2.13714 -7.55141 0
M  V30 13876 O 1873.29 0.248149 -8.21425 0
M  V30 13877 C 1873.13 1.22779 -9.30434 0
M  V30 13878 C 1873.67 2.56293 -8.80664 0
M  V30 13879 O 1872.61 3.02979 -8.09349 0
M  V30 13880 C 1874.89 2.57523 -7.89775 0
M  V30 13881 O 1875.62 3.7668 -7.89438 0
M  V30 13882 C 1874.22 2.20997 -6.55446 0
M  V30 13883 O 1875.02 2.71895 -5.48509 0
M  V30 13884 C 1872.88 2.89693 -6.67988 0
M  V30 13885 H 1872.91 3.88793 -6.19859 0
M  V30 13886 H 1874.1 1.12046 -6.44229 0
M  V30 13887 H 1875.58 1.7746 -8.19711 0
M  V30 13888 H 1873.89 3.20706 -9.67112 0
M  V30 13889 H 1873.7 0.901032 -10.1892 0
M  V30 13890 H 1872.07 1.33049 -9.56592 0
M  V30 13891 H 1874.7 3.57847 -5.23962 0
M  V30 13892 P 1876.56 3.65191 -7.99657 0
M  V30 13893 O 1877.96 3.87414 -8.52829 0
M  V30 13894 O 1876.18 2.26932 -7.566 0
M  V30 13895 O 1876.24 4.64915 -6.77529 0
M  V30 13896 C 1876.08 6.06319 -7.16352 0
M  V30 13897 C 1876.62 6.91655 -6.02234 0
M  V30 13898 O 1875.56 6.92369 -5.17005 0
M  V30 13899 C 1877.84 6.43627 -5.25174 0
M  V30 13900 O 1878.58 7.43686 -4.60469 0
M  V30 13901 C 1877.17 5.40275 -4.31916 0
M  V30 13902 O 1877.97 5.25193 -3.14386 0
M  V30 13903 C 1875.83 6.04847 -4.05327 0
M  V30 13904 N 1874.79 5.04166 -3.98114 0
M  V30 13905 C 1873.75 5.2366 -3.09923 0
M  V30 13906 O 1873.79 6.23355 -2.34204 0
M  V30 13907 N 1872.74 4.34279 -3.05727 0
M  V30 13908 C 1872.79 3.26317 -3.84756 0
M  V30 13909 C 1873.89 3.02504 -4.72573 0
M  V30 13910 C 1874.85 3.94493 -4.76618 0
M  V30 13911 H 1875.86 6.62104 -3.11218 0
M  V30 13912 H 1877.05 4.42969 -4.80867 0
M  V30 13913 H 1878.53 5.93122 -5.93121 0
M  V30 13914 H 1876.84 7.93295 -6.39407 0
M  V30 13915 H 1876.65 6.26671 -8.0846 0
M  V30 13916 H 1875.02 6.29036 -7.32728 0
M  V30 13917 H 1873.93 2.12921 -5.34017 0
M  V30 13918 H 1875.7 3.80658 -5.44176 0
M  V30 13919 H 1877.75 5.93572 -2.52637 0
M  V30 13920 P 1879.51 7.39546 -4.75277 0
M  V30 13921 O 1880.94 7.84798 -5.01039 0
M  V30 13922 O 1879.15 5.9812 -5.08098 0
M  V30 13923 O 1879.19 7.57503 -3.1866 0
M  V30 13924 C 1879.03 8.97357 -2.74833 0
M  V30 13925 C 1879.57 9.07548 -1.32709 0
M  V30 13926 O 1878.51 8.62072 -0.606159 0
M  V30 13927 C 1880.79 8.25383 -0.938334 0
M  V30 13928 O 1881.53 8.74577 0.146954 0
M  V30 13929 C 1880.12 6.8802 -0.712559 0
M  V30 13930 O 1880.92 6.1189 0.194655 0
M  V30 13931 C 1878.78 7.27966 -0.139777 0
M  V30 13932 H 1878.81 7.25354 0.961601 0
M  V30 13933 H 1880 6.32557 -1.65702 0
M  V30 13934 H 1881.48 8.19355 -1.79097 0
M  V30 13935 H 1879.79 10.1294 -1.10029 0
M  V30 13936 H 1879.6 9.64276 -3.41316 0
M  V30 13937 H 1877.97 9.25417 -2.76357 0
M  V30 13938 H 1880.61 6.25267 1.07847 0
M  V30 13939 P 1882.46 8.791 1.59908e-11 0
M  V30 13940 O 1883.89 9.31096 0.027933 0
M  V30 13941 O 1882.1 7.77869 -1.04071 0
M  V30 13942 O 1882.14 8.09533 1.41463 0
M  V30 13943 C 1881.98 9.0349 2.53943 0
M  V30 13944 C 1882.52 8.35226 3.79016 0
M  V30 13945 O 1881.46 7.57992 4.15078 0
M  V30 13946 C 1883.74 7.45087 3.67298 0
M  V30 13947 O 1884.48 7.27796 4.85194 0
M  V30 13948 C 1883.07 6.17323 3.12027 0
M  V30 13949 O 1883.87 5.04231 3.47188 0
M  V30 13950 C 1881.73 6.19961 3.81809 0
M  V30 13951 H 1881.76 5.58218 4.73051 0
M  V30 13952 H 1882.95 6.21726 2.02589 0
M  V30 13953 H 1884.43 7.86112 2.9231 0
M  V30 13954 H 1882.74 9.11627 4.55076 0
M  V30 13955 H 1882.55 9.9573 2.34194 0
M  V30 13956 H 1880.92 9.2792 2.67832 0
M  V30 13957 H 1883.56 4.67702 4.28772 0
M  V30 13958 P 1885.41 7.39546 4.75277 0
M  V30 13959 O 1886.84 7.81777 5.05738 0
M  V30 13960 O 1885.05 7.1065 3.32998 0
M  V30 13961 O 1885.09 6.04542 5.56673 0
M  V30 13962 C 1884.93 6.22772 7.02095 0
M  V30 13963 C 1885.47 4.97725 7.70406 0
M  V30 13964 O 1884.42 4.13256 7.58987 0
M  V30 13965 C 1886.69 4.28231 7.11815 0
M  V30 13966 O 1887.43 3.49945 8.01648 0
M  V30 13967 C 1886.02 3.5063 5.96244 0
M  V30 13968 O 1886.82 2.36482 5.64681 0
M  V30 13969 C 1884.68 3.15122 6.56374 0
M  V30 13970 H 1884.72 2.13853 6.99751 0
M  V30 13971 H 1885.9 4.13501 5.06559 0
M  V30 13972 H 1887.38 5.03285 6.70911 0
M  V30 13973 H 1885.69 5.20877 8.75697 0
M  V30 13974 H 1885.5 7.11046 7.35349 0
M  V30 13975 H 1883.87 6.35815 7.26986 0
M  V30 13976 H 1886.51 1.61644 6.13565 0
M  V30 13977 P 1888.36 3.65191 7.99657 0
M  V30 13978 O 1889.79 3.8425 8.48115 0
M  V30 13979 O 1888 4.17805 6.64342 0
M  V30 13980 O 1888.04 2.07613 7.95143 0
M  V30 13981 C 1887.88 1.44328 9.27336 0
M  V30 13982 C 1888.42 0.0220036 9.17197 0
M  V30 13983 O 1887.37 -0.626867 8.61923 0
M  V30 13984 C 1889.64 -0.24586 8.30336 0
M  V30 13985 O 1890.38 -1.39011 8.63583 0
M  V30 13986 C 1888.97 -0.273849 6.91158 0
M  V30 13987 O 1889.77 -1.06348 6.02892 0
M  V30 13988 C 1887.63 -0.897649 7.22545 0
M  V30 13989 H 1887.67 -1.9841 7.04286 0
M  V30 13990 H 1888.85 0.739928 6.497 0
M  V30 13991 H 1890.33 0.60668 8.36503 0
M  V30 13992 H 1888.64 -0.352479 10.1829 0
M  V30 13993 H 1888.45 2.00611 10.0304 0
M  V30 13994 H 1886.82 1.41843 9.55327 0
M  V30 13995 H 1889.46 -1.95734 6.03555 0
M  V30 13996 P 1891.32 -1.25109 8.70152 0
M  V30 13997 O 1892.74 -1.35274 9.21221 0
M  V30 13998 O 1890.96 -0.0769065 7.84762 0
M  V30 13999 O 1890.99 -2.55232 7.81161 0
M  V30 14000 C 1890.83 -3.79939 8.58154 0
M  V30 14001 C 1891.37 -4.94023 7.72785 0
M  V30 14002 O 1890.32 -5.18726 6.91205 0
M  V30 14003 C 1892.59 -4.69597 6.85231 0
M  V30 14004 O 1893.33 -5.83832 6.51337 0
M  V30 14005 C 1891.92 -3.96706 5.66633 0
M  V30 14006 O 1892.72 -4.15414 4.49689 0
M  V30 14007 C 1890.58 -4.66153 5.59313 0
M  V30 14008 H 1890.62 -5.47679 4.85214 0
M  V30 14009 H 1891.8 -2.89008 5.86566 0
M  V30 14010 H 1893.28 -4.0121 7.36511 0
M  V30 14011 H 1891.59 -5.80182 8.37584 0
M  V30 14012 H 1891.4 -3.73517 9.52265 0
M  V30 14013 H 1889.77 -3.97163 8.80359 0
M  V30 14014 H 1892.41 -4.90969 4.01921 0
M  V30 14015 P 1894.27 -5.75688 6.64379 0
M  V30 14016 O 1895.69 -6.11915 7.01921 0
M  V30 14017 O 1893.91 -4.30744 6.56026 0
M  V30 14018 O 1893.94 -6.37042 5.19165 0
M  V30 14019 C 1893.78 -7.83662 5.1657 0
M  V30 14020 C 1894.32 -8.33398 3.83019 0
M  V30 14021 O 1893.27 -8.0998 3.00999 0
M  V30 14022 C 1895.54 -7.65514 3.2257 0
M  V30 14023 O 1896.28 -8.4329 2.32297 0
M  V30 14024 C 1894.87 -6.40075 2.62207 0
M  V30 14025 O 1895.67 -5.92338 1.5428 0
M  V30 14026 C 1893.53 -6.9454 2.18503 0
M  V30 14027 N 1892.49 -5.95905 2.39948 0
M  V30 14028 C 1892.66 -4.98383 3.32108 0
M  V30 14029 N 1891.63 -4.16798 3.41761 0
M  V30 14030 C 1890.75 -4.65287 2.47461 0
M  V30 14031 C 1889.48 -4.18946 2.07461 0
M  V30 14032 N 1888.88 -3.09661 2.60717 0
M  V30 14033 N 1888.92 -4.95327 1.09101 0
M  V30 14034 C 1889.52 -6.04369 0.519812 0
M  V30 14035 N 1890.7 -6.50694 0.855982 0
M  V30 14036 C 1891.27 -5.75818 1.84322 0
M  V30 14037 H 1893.57 -7.22964 1.12076 0
M  V30 14038 H 1894.75 -5.60502 3.36589 0
M  V30 14039 H 1896.23 -7.35707 4.02681 0
M  V30 14040 H 1894.54 -9.41302 3.90009 0
M  V30 14041 H 1894.35 -8.29056 5.99158 0
M  V30 14042 H 1892.72 -8.10073 5.25882 0
M  V30 14043 H 1888.98 -6.55843 -0.270373 0
M  V30 14044 H 1893.56 -4.88564 3.92502 0
M  V30 14045 H 1887.95 -2.80523 2.27218 0
M  V30 14046 H 1889.36 -2.55848 3.34465 0
M  V30 14047 H 1895.36 -6.30224 0.72668 0
M  V30 14048 P 1897.22 -8.4349 2.47671 0
M  V30 14049 O 1898.64 -8.94167 2.5964 0
M  V30 14050 O 1896.86 -7.1704 3.19006 0
M  V30 14051 O 1896.89 -8.16596 0.923387 0
M  V30 14052 C 1896.73 -9.38437 0.108857 0
M  V30 14053 C 1897.27 -9.08175 -1.28353 0
M  V30 14054 O 1896.22 -8.44229 -1.84713 0
M  V30 14055 C 1898.49 -8.18386 -1.42505 0
M  V30 14056 O 1899.23 -8.3501 -2.60497 0
M  V30 14057 C 1897.82 -6.80225 -1.25468 0
M  V30 14058 O 1898.62 -5.81621 -1.91066 0
M  V30 14059 C 1896.49 -7.02416 -1.9168 0
M  V30 14060 H 1896.52 -6.6888 -2.96621 0
M  V30 14061 H 1897.7 -6.53617 -0.192223 0
M  V30 14062 H 1899.18 -8.36622 -0.589963 0
M  V30 14063 H 1897.49 -10.0291 -1.79807 0
M  V30 14064 H 1897.3 -10.2138 0.558219 0
M  V30 14065 H 1895.67 -9.6579 0.0444202 0
M  V30 14066 H 1898.31 -5.69556 -2.79637 0
M  V30 14067 P 1900.17 -8.4349 -2.47671 0
M  V30 14068 O 1901.59 -8.92593 -2.65 0
M  V30 14069 O 1899.81 -7.7568 -1.19296 0
M  V30 14070 O 1899.84 -7.36886 -3.63805 0
M  V30 14071 C 1899.68 -7.95349 -4.982 0
M  V30 14072 C 1900.22 -6.94612 -5.98974 0
M  V30 14073 O 1899.17 -6.10347 -6.11815 0
M  V30 14074 C 1901.44 -6.11426 -5.62335 0
M  V30 14075 O 1902.18 -5.6162 -6.70584 0
M  V30 14076 C 1900.77 -5.04409 -4.73308 0
M  V30 14077 O 1901.57 -3.85992 -4.75183 0
M  V30 14078 C 1899.44 -4.8728 -5.41006 0
M  V30 14079 H 1899.47 -4.02333 -6.11157 0
M  V30 14080 H 1900.65 -5.39466 -3.69543 0
M  V30 14081 H 1902.14 -6.71916 -5.01943 0
M  V30 14082 H 1900.44 -7.4649 -6.93477 0
M  V30 14083 H 1900.25 -8.89416 -5.05237 0
M  V30 14084 H 1898.62 -8.14876 -5.18409 0
M  V30 14085 H 1901.26 -3.27957 -5.4317 0
M  V30 14086 P 1903.12 -5.75688 -6.64379 0
M  V30 14087 O 1904.54 -6.07627 -7.05504 0
M  V30 14088 O 1902.76 -5.88047 -5.19722 0
M  V30 14089 O 1902.79 -4.2322 -7.04443 0
M  V30 14090 C 1902.63 -3.99743 -8.4911 0
M  V30 14091 C 1903.17 -2.60516 -8.79425 0
M  V30 14092 O 1902.12 -1.82684 -8.4467 0
M  V30 14093 C 1904.39 -2.10343 -8.03628 0
M  V30 14094 O 1905.13 -1.09919 -8.67766 0
M  V30 14095 C 1903.72 -1.68446 -6.70876 0
M  V30 14096 O 1904.52 -0.678137 -6.08433 0
M  V30 14097 C 1902.39 -1.17436 -7.18567 0
M  V30 14098 H 1902.42 -0.0804732 -7.31656 0
M  V30 14099 H 1903.6 -2.54037 -6.02537 0
M  V30 14100 H 1905.09 -2.93881 -7.85526 0
M  V30 14101 H 1903.39 -2.53065 -9.86973 0
M  V30 14102 H 1903.2 -4.75072 -9.05887 0
M  V30 14103 H 1901.57 -4.05244 -8.76668 0
M  V30 14104 H 1904.21 0.177647 -6.34251 0
M  V30 14105 P 1906.07 -1.25109 -8.70152 0
M  V30 14106 O 1907.49 -1.29744 -9.22016 0
M  V30 14107 O 1905.71 -2.13714 -7.55141 0
M  V30 14108 O 1905.75 0.248149 -8.21425 0
M  V30 14109 C 1905.59 1.22779 -9.30434 0
M  V30 14110 C 1906.13 2.56293 -8.80664 0
M  V30 14111 O 1905.07 3.02979 -8.09349 0
M  V30 14112 C 1907.34 2.57523 -7.89775 0
M  V30 14113 O 1908.08 3.7668 -7.89438 0
M  V30 14114 C 1906.67 2.20997 -6.55446 0
M  V30 14115 O 1907.47 2.71895 -5.48509 0
M  V30 14116 C 1905.34 2.89693 -6.67988 0
M  V30 14117 H 1905.37 3.88793 -6.19859 0
M  V30 14118 H 1906.55 1.12046 -6.44229 0
M  V30 14119 H 1908.04 1.7746 -8.19711 0
M  V30 14120 H 1906.34 3.20706 -9.67112 0
M  V30 14121 H 1906.15 0.901032 -10.1892 0
M  V30 14122 H 1904.52 1.33049 -9.56592 0
M  V30 14123 H 1907.16 3.57847 -5.23962 0
M  V30 14124 P 1909.02 3.65191 -7.99657 0
M  V30 14125 O 1910.44 3.89332 -8.45794 0
M  V30 14126 O 1908.66 2.28472 -7.50807 0
M  V30 14127 O 1908.7 4.64972 -6.77611 0
M  V30 14128 C 1908.54 6.06319 -7.16352 0
M  V30 14129 C 1909.08 6.91731 -6.02299 0
M  V30 14130 O 1908.02 6.92449 -5.17064 0
M  V30 14131 C 1910.29 6.43627 -5.25174 0
M  V30 14132 O 1911.03 7.43686 -4.60469 0
M  V30 14133 C 1909.62 5.40275 -4.31916 0
M  V30 14134 O 1910.42 5.25279 -3.14438 0
M  V30 14135 C 1908.29 6.04847 -4.05327 0
M  V30 14136 H 1908.32 6.62195 -3.11261 0
M  V30 14137 H 1909.5 4.42556 -4.81383 0
M  V30 14138 H 1910.99 5.92458 -5.93643 0
M  V30 14139 H 1909.29 7.92655 -6.402 0
M  V30 14140 H 1909.1 6.26671 -8.0846 0
M  V30 14141 H 1907.47 6.29101 -7.32804 0
M  V30 14142 H 1910.11 5.84315 -2.47318 0
M  V30 14143 P 1911.97 7.39546 -4.75277 0
M  V30 14144 O 1913.39 7.84798 -5.01039 0
M  V30 14145 O 1911.61 5.9812 -5.08098 0
M  V30 14146 O 1911.65 7.57503 -3.1866 0
M  V30 14147 C 1911.49 8.97357 -2.74833 0
M  V30 14148 C 1912.03 9.07548 -1.32709 0
M  V30 14149 O 1910.97 8.62072 -0.606159 0
M  V30 14150 C 1913.24 8.25383 -0.938334 0
M  V30 14151 O 1913.98 8.74577 0.146954 0
M  V30 14152 C 1912.58 6.8802 -0.712559 0
M  V30 14153 O 1913.37 6.1189 0.194655 0
M  V30 14154 C 1911.24 7.27966 -0.139777 0
M  V30 14155 H 1911.27 7.25354 0.961601 0
M  V30 14156 H 1912.45 6.32557 -1.65702 0
M  V30 14157 H 1913.94 8.19355 -1.79097 0
M  V30 14158 H 1912.24 10.1294 -1.10029 0
M  V30 14159 H 1912.05 9.64276 -3.41316 0
M  V30 14160 H 1910.42 9.25417 -2.76357 0
M  V30 14161 H 1913.06 6.25267 1.07847 0
M  V30 14162 P 1914.92 8.791 1.63009e-11 0
M  V30 14163 O 1916.34 9.31096 0.027933 0
M  V30 14164 O 1914.56 7.77869 -1.04071 0
M  V30 14165 O 1914.6 8.09533 1.41463 0
M  V30 14166 C 1914.44 9.0349 2.53943 0
M  V30 14167 C 1914.98 8.35226 3.79016 0
M  V30 14168 O 1913.92 7.57992 4.15078 0
M  V30 14169 C 1916.19 7.45087 3.67298 0
M  V30 14170 O 1916.93 7.27796 4.85194 0
M  V30 14171 C 1915.53 6.17323 3.12027 0
M  V30 14172 O 1916.32 5.04231 3.47188 0
M  V30 14173 C 1914.19 6.19961 3.81809 0
M  V30 14174 H 1914.22 5.58218 4.73051 0
M  V30 14175 H 1915.4 6.21726 2.02589 0
M  V30 14176 H 1916.89 7.86112 2.9231 0
M  V30 14177 H 1915.19 9.11627 4.55076 0
M  V30 14178 H 1915 9.9573 2.34194 0
M  V30 14179 H 1913.37 9.2792 2.67832 0
M  V30 14180 H 1916.01 4.67702 4.28772 0
M  V30 14181 P 1917.87 7.39546 4.75277 0
M  V30 14182 O 1919.29 7.81861 5.05793 0
M  V30 14183 O 1917.51 7.1065 3.32998 0
M  V30 14184 O 1917.55 6.04542 5.56673 0
M  V30 14185 C 1917.39 6.22839 7.02169 0
M  V30 14186 C 1917.93 4.97725 7.70406 0
M  V30 14187 O 1916.87 4.13208 7.58899 0
M  V30 14188 C 1919.15 4.28231 7.11815 0
M  V30 14189 O 1919.88 3.49945 8.01648 0
M  V30 14190 C 1918.48 3.5063 5.96244 0
M  V30 14191 O 1919.28 2.37008 5.64352 0
M  V30 14192 C 1917.14 3.15122 6.56374 0
M  V30 14193 N 1916.1 3.22311 5.55692 0
M  V30 14194 C 1916.27 3.99655 4.46046 0
M  V30 14195 N 1915.24 3.97599 3.63918 0
M  V30 14196 C 1914.35 3.11159 4.25334 0
M  V30 14197 C 1913.09 2.64972 3.85157 0
M  V30 14198 N 1912.49 3.02132 2.69405 0
M  V30 14199 N 1912.52 1.78482 4.74759 0
M  V30 14200 C 1913.12 1.37463 5.90819 0
M  V30 14201 N 1914.3 1.7733 6.31889 0
M  V30 14202 C 1914.88 2.64393 5.43725 0
M  V30 14203 H 1917.17 2.13823 6.99656 0
M  V30 14204 H 1918.35 4.12931 5.06895 0
M  V30 14205 H 1919.84 5.03285 6.70911 0
M  V30 14206 H 1918.14 5.20001 8.76217 0
M  V30 14207 H 1917.95 7.11046 7.35349 0
M  V30 14208 H 1916.32 6.35815 7.26986 0
M  V30 14209 H 1912.59 0.66574 6.53015 0
M  V30 14210 H 1917.17 4.58037 4.27732 0
M  V30 14211 H 1911.56 2.64828 2.45331 0
M  V30 14212 H 1912.96 3.67472 2.05644 0
M  V30 14213 H 1918.96 1.61619 6.13468 0
M  V30 14214 P 1920.82 3.65191 7.99657 0
M  V30 14215 O 1922.24 3.8425 8.48115 0
M  V30 14216 O 1920.46 4.17805 6.64342 0
M  V30 14217 O 1920.5 2.07613 7.95143 0
M  V30 14218 C 1920.34 1.44328 9.27336 0
M  V30 14219 C 1920.88 0.0220036 9.17197 0
M  V30 14220 O 1919.82 -0.626867 8.61923 0
M  V30 14221 C 1922.1 -0.24586 8.30336 0
M  V30 14222 O 1922.83 -1.39011 8.63583 0
M  V30 14223 C 1921.43 -0.273849 6.91158 0
M  V30 14224 O 1922.23 -1.06348 6.02892 0
M  V30 14225 C 1920.09 -0.897649 7.22545 0
M  V30 14226 H 1920.12 -1.9841 7.04286 0
M  V30 14227 H 1921.31 0.739928 6.497 0
M  V30 14228 H 1922.79 0.60668 8.36503 0
M  V30 14229 H 1921.1 -0.352479 10.1829 0
M  V30 14230 H 1920.91 2.00611 10.0304 0
M  V30 14231 H 1919.28 1.41843 9.55327 0
M  V30 14232 H 1921.91 -1.95734 6.03555 0
M  V30 14233 P 1923.77 -1.25109 8.70152 0
M  V30 14234 O 1925.19 -1.35274 9.21221 0
M  V30 14235 O 1923.41 -0.0769065 7.84762 0
M  V30 14236 O 1923.45 -2.55232 7.81161 0
M  V30 14237 C 1923.29 -3.79939 8.58154 0
M  V30 14238 C 1923.83 -4.94023 7.72785 0
M  V30 14239 O 1922.77 -5.18726 6.91205 0
M  V30 14240 C 1925.05 -4.69597 6.85231 0
M  V30 14241 O 1925.78 -5.83832 6.51337 0
M  V30 14242 C 1924.38 -3.96706 5.66633 0
M  V30 14243 O 1925.18 -4.15414 4.49689 0
M  V30 14244 C 1923.04 -4.66153 5.59313 0
M  V30 14245 H 1923.07 -5.47679 4.85214 0
M  V30 14246 H 1924.26 -2.89008 5.86566 0
M  V30 14247 H 1925.74 -4.0121 7.36511 0
M  V30 14248 H 1924.05 -5.80182 8.37584 0
M  V30 14249 H 1923.86 -3.73517 9.52265 0
M  V30 14250 H 1922.23 -3.97163 8.80359 0
M  V30 14251 H 1924.86 -4.90969 4.01921 0
M  V30 14252 P 1926.72 -5.75688 6.64379 0
M  V30 14253 O 1928.14 -6.11849 7.01846 0
M  V30 14254 O 1926.36 -4.30744 6.56026 0
M  V30 14255 O 1926.4 -6.37042 5.19165 0
M  V30 14256 C 1926.24 -7.83578 5.16515 0
M  V30 14257 C 1926.78 -8.33398 3.83019 0
M  V30 14258 O 1925.72 -8.10074 3.01034 0
M  V30 14259 C 1928 -7.65514 3.2257 0
M  V30 14260 O 1928.74 -8.4329 2.32297 0
M  V30 14261 C 1927.33 -6.40075 2.62207 0
M  V30 14262 O 1928.13 -5.92589 1.53712 0
M  V30 14263 C 1925.99 -6.9454 2.18503 0
M  V30 14264 H 1926.02 -7.23063 1.12091 0
M  V30 14265 H 1927.21 -5.6025 3.37201 0
M  V30 14266 H 1928.69 -7.35707 4.02681 0
M  V30 14267 H 1927 -9.40912 3.9095 0
M  V30 14268 H 1926.81 -8.29056 5.99158 0
M  V30 14269 H 1925.18 -8.10073 5.25882 0
M  V30 14270 H 1927.82 -6.30324 0.726794 0
M  V30 14271 P 1929.67 -8.4349 2.47671 0
M  V30 14272 O 1931.09 -8.94167 2.5964 0
M  V30 14273 O 1929.31 -7.1704 3.19006 0
M  V30 14274 O 1929.35 -8.16596 0.923387 0
M  V30 14275 C 1929.19 -9.38437 0.108857 0
M  V30 14276 C 1929.73 -9.08175 -1.28353 0
M  V30 14277 O 1928.67 -8.44229 -1.84713 0
M  V30 14278 C 1930.95 -8.18386 -1.42505 0
M  V30 14279 O 1931.69 -8.3501 -2.60497 0
M  V30 14280 C 1930.28 -6.80225 -1.25468 0
M  V30 14281 O 1931.08 -5.81621 -1.91066 0
M  V30 14282 C 1928.94 -7.02416 -1.9168 0
M  V30 14283 H 1928.97 -6.6888 -2.96621 0
M  V30 14284 H 1930.16 -6.53617 -0.192223 0
M  V30 14285 H 1931.64 -8.36622 -0.589963 0
M  V30 14286 H 1929.95 -10.0291 -1.79807 0
M  V30 14287 H 1929.76 -10.2138 0.558219 0
M  V30 14288 H 1928.13 -9.6579 0.0444202 0
M  V30 14289 H 1930.77 -5.69556 -2.79637 0
M  V30 14290 P 1932.62 -8.4349 -2.47671 0
M  V30 14291 O 1934.05 -8.92593 -2.65 0
M  V30 14292 O 1932.26 -7.7568 -1.19296 0
M  V30 14293 O 1932.3 -7.36886 -3.63805 0
M  V30 14294 C 1932.14 -7.95349 -4.982 0
M  V30 14295 C 1932.68 -6.94612 -5.98974 0
M  V30 14296 O 1931.62 -6.10347 -6.11815 0
M  V30 14297 C 1933.9 -6.11426 -5.62335 0
M  V30 14298 O 1934.64 -5.6162 -6.70584 0
M  V30 14299 C 1933.23 -5.04409 -4.73308 0
M  V30 14300 O 1934.03 -3.85992 -4.75183 0
M  V30 14301 C 1931.89 -4.8728 -5.41006 0
M  V30 14302 H 1931.92 -4.02333 -6.11157 0
M  V30 14303 H 1933.11 -5.39466 -3.69543 0
M  V30 14304 H 1934.59 -6.71916 -5.01943 0
M  V30 14305 H 1932.9 -7.4649 -6.93477 0
M  V30 14306 H 1932.71 -8.89416 -5.05237 0
M  V30 14307 H 1931.08 -8.14876 -5.18409 0
M  V30 14308 H 1933.72 -3.27957 -5.4317 0
M  V30 14309 P 1935.57 -5.75688 -6.64379 0
M  V30 14310 O 1937 -6.07627 -7.05504 0
M  V30 14311 O 1935.21 -5.88047 -5.19722 0
M  V30 14312 O 1935.25 -4.2322 -7.04443 0
M  V30 14313 C 1935.09 -3.99743 -8.4911 0
M  V30 14314 C 1935.63 -2.60516 -8.79425 0
M  V30 14315 O 1934.57 -1.82684 -8.4467 0
M  V30 14316 C 1936.85 -2.10343 -8.03628 0
M  V30 14317 O 1937.59 -1.09919 -8.67766 0
M  V30 14318 C 1936.18 -1.68446 -6.70876 0
M  V30 14319 O 1936.98 -0.678137 -6.08433 0
M  V30 14320 C 1934.84 -1.17436 -7.18567 0
M  V30 14321 H 1934.87 -0.0804732 -7.31656 0
M  V30 14322 H 1936.06 -2.54037 -6.02537 0
M  V30 14323 H 1937.54 -2.93881 -7.85526 0
M  V30 14324 H 1935.85 -2.53065 -9.86973 0
M  V30 14325 H 1935.66 -4.75072 -9.05887 0
M  V30 14326 H 1934.03 -4.05244 -8.76668 0
M  V30 14327 H 1936.67 0.177647 -6.34251 0
M  V30 14328 P 1938.52 -1.25109 -8.70152 0
M  V30 14329 O 1939.95 -1.29744 -9.22016 0
M  V30 14330 O 1938.16 -2.13714 -7.55141 0
M  V30 14331 O 1938.2 0.248149 -8.21425 0
M  V30 14332 C 1938.04 1.22779 -9.30434 0
M  V30 14333 C 1938.58 2.56293 -8.80664 0
M  V30 14334 O 1937.53 3.02979 -8.09349 0
M  V30 14335 C 1939.8 2.57523 -7.89775 0
M  V30 14336 O 1940.54 3.7668 -7.89438 0
M  V30 14337 C 1939.13 2.20997 -6.55446 0
M  V30 14338 O 1939.93 2.71895 -5.48509 0
M  V30 14339 C 1937.79 2.89693 -6.67988 0
M  V30 14340 H 1937.83 3.88793 -6.19859 0
M  V30 14341 H 1939.01 1.12046 -6.44229 0
M  V30 14342 H 1940.49 1.7746 -8.19711 0
M  V30 14343 H 1938.8 3.20706 -9.67112 0
M  V30 14344 H 1938.61 0.901032 -10.1892 0
M  V30 14345 H 1936.98 1.33049 -9.56592 0
M  V30 14346 H 1939.62 3.57847 -5.23962 0
M  V30 14347 P 1941.48 3.65191 -7.99657 0
M  V30 14348 O 1942.9 3.89332 -8.45794 0
M  V30 14349 O 1941.12 2.28472 -7.50807 0
M  V30 14350 O 1941.15 4.64972 -6.77611 0
M  V30 14351 C 1940.99 6.06319 -7.16352 0
M  V30 14352 C 1941.53 6.91731 -6.02299 0
M  V30 14353 O 1940.48 6.92449 -5.17064 0
M  V30 14354 C 1942.75 6.43627 -5.25174 0
M  V30 14355 O 1943.49 7.43686 -4.60469 0
M  V30 14356 C 1942.08 5.40275 -4.31916 0
M  V30 14357 O 1942.88 5.25279 -3.14438 0
M  V30 14358 C 1940.74 6.04847 -4.05327 0
M  V30 14359 H 1940.78 6.62195 -3.11261 0
M  V30 14360 H 1941.96 4.42556 -4.81383 0
M  V30 14361 H 1943.44 5.92458 -5.93643 0
M  V30 14362 H 1941.75 7.92655 -6.402 0
M  V30 14363 H 1941.56 6.26671 -8.0846 0
M  V30 14364 H 1939.93 6.29101 -7.32804 0
M  V30 14365 H 1942.57 5.84315 -2.47318 0
M  V30 14366 P 1944.43 7.39546 -4.75277 0
M  V30 14367 O 1945.85 7.84798 -5.01039 0
M  V30 14368 O 1944.07 5.9812 -5.08098 0
M  V30 14369 O 1944.1 7.57503 -3.1866 0
M  V30 14370 C 1943.94 8.97357 -2.74833 0
M  V30 14371 C 1944.48 9.07548 -1.32709 0
M  V30 14372 O 1943.43 8.62072 -0.606159 0
M  V30 14373 C 1945.7 8.25383 -0.938334 0
M  V30 14374 O 1946.44 8.74577 0.146954 0
M  V30 14375 C 1945.03 6.8802 -0.712559 0
M  V30 14376 O 1945.83 6.1189 0.194655 0
M  V30 14377 C 1943.69 7.27966 -0.139777 0
M  V30 14378 H 1943.73 7.25354 0.961601 0
M  V30 14379 H 1944.91 6.32557 -1.65702 0
M  V30 14380 H 1946.39 8.19355 -1.79097 0
M  V30 14381 H 1944.7 10.1294 -1.10029 0
M  V30 14382 H 1944.51 9.64276 -3.41316 0
M  V30 14383 H 1942.88 9.25417 -2.76357 0
M  V30 14384 H 1945.52 6.25267 1.07847 0
M  V30 14385 P 1947.38 8.791 1.66111e-11 0
M  V30 14386 O 1948.8 9.31096 0.027933 0
M  V30 14387 O 1947.02 7.77869 -1.04071 0
M  V30 14388 O 1947.05 8.09533 1.41463 0
M  V30 14389 C 1946.89 9.0349 2.53943 0
M  V30 14390 C 1947.43 8.35226 3.79016 0
M  V30 14391 O 1946.38 7.57992 4.15078 0
M  V30 14392 C 1948.65 7.45087 3.67298 0
M  V30 14393 O 1949.39 7.27796 4.85194 0
M  V30 14394 C 1947.98 6.17323 3.12027 0
M  V30 14395 O 1948.78 5.04231 3.47188 0
M  V30 14396 C 1946.65 6.19961 3.81809 0
M  V30 14397 H 1946.68 5.58218 4.73051 0
M  V30 14398 H 1947.86 6.21726 2.02589 0
M  V30 14399 H 1949.34 7.86112 2.9231 0
M  V30 14400 H 1947.65 9.11627 4.55076 0
M  V30 14401 H 1947.46 9.9573 2.34194 0
M  V30 14402 H 1945.83 9.2792 2.67832 0
M  V30 14403 H 1948.47 4.67702 4.28772 0
M  V30 14404 P 1950.33 7.39546 4.75277 0
M  V30 14405 O 1951.75 7.81777 5.05738 0
M  V30 14406 O 1949.97 7.1065 3.32998 0
M  V30 14407 O 1950 6.04542 5.56673 0
M  V30 14408 C 1949.84 6.22772 7.02095 0
M  V30 14409 C 1950.38 4.97725 7.70406 0
M  V30 14410 O 1949.33 4.13256 7.58987 0
M  V30 14411 C 1951.6 4.28231 7.11815 0
M  V30 14412 O 1952.34 3.49945 8.01648 0
M  V30 14413 C 1950.93 3.5063 5.96244 0
M  V30 14414 O 1951.73 2.36482 5.64681 0
M  V30 14415 C 1949.6 3.15122 6.56374 0
M  V30 14416 H 1949.63 2.13853 6.99751 0
M  V30 14417 H 1950.81 4.13501 5.06559 0
M  V30 14418 H 1952.29 5.03285 6.70911 0
M  V30 14419 H 1950.6 5.20877 8.75697 0
M  V30 14420 H 1950.41 7.11046 7.35349 0
M  V30 14421 H 1948.78 6.35815 7.26986 0
M  V30 14422 H 1951.42 1.61644 6.13565 0
M  V30 14423 P 1953.28 3.65191 7.99657 0
M  V30 14424 O 1954.7 3.8425 8.48115 0
M  V30 14425 O 1952.92 4.17805 6.64342 0
M  V30 14426 O 1952.95 2.07613 7.95143 0
M  V30 14427 C 1952.79 1.44328 9.27336 0
M  V30 14428 C 1953.33 0.0220036 9.17197 0
M  V30 14429 O 1952.28 -0.626867 8.61923 0
M  V30 14430 C 1954.55 -0.24586 8.30336 0
M  V30 14431 O 1955.29 -1.39011 8.63583 0
M  V30 14432 C 1953.88 -0.273849 6.91158 0
M  V30 14433 O 1954.68 -1.06348 6.02892 0
M  V30 14434 C 1952.55 -0.897649 7.22545 0
M  V30 14435 H 1952.58 -1.9841 7.04286 0
M  V30 14436 H 1953.76 0.739928 6.497 0
M  V30 14437 H 1955.25 0.60668 8.36503 0
M  V30 14438 H 1953.55 -0.352479 10.1829 0
M  V30 14439 H 1953.36 2.00611 10.0304 0
M  V30 14440 H 1951.73 1.41843 9.55327 0
M  V30 14441 H 1954.37 -1.95734 6.03555 0
M  V30 14442 P 1956.23 -1.25109 8.70152 0
M  V30 14443 O 1957.65 -1.35274 9.21221 0
M  V30 14444 O 1955.87 -0.0769065 7.84762 0
M  V30 14445 O 1955.9 -2.55232 7.81161 0
M  V30 14446 C 1955.74 -3.79939 8.58154 0
M  V30 14447 C 1956.28 -4.94023 7.72785 0
M  V30 14448 O 1955.23 -5.18726 6.91205 0
M  V30 14449 C 1957.5 -4.69597 6.85231 0
M  V30 14450 O 1958.24 -5.83832 6.51337 0
M  V30 14451 C 1956.83 -3.96706 5.66633 0
M  V30 14452 O 1957.63 -4.15414 4.49689 0
M  V30 14453 C 1955.5 -4.66153 5.59313 0
M  V30 14454 H 1955.53 -5.47679 4.85214 0
M  V30 14455 H 1956.71 -2.89008 5.86566 0
M  V30 14456 H 1958.2 -4.0121 7.36511 0
M  V30 14457 H 1956.5 -5.80182 8.37584 0
M  V30 14458 H 1956.31 -3.73517 9.52265 0
M  V30 14459 H 1954.68 -3.97163 8.80359 0
M  V30 14460 H 1957.32 -4.90969 4.01921 0
M  V30 14461 P 1959.18 -5.75688 6.64379 0
M  V30 14462 O 1960.6 -6.11849 7.01846 0
M  V30 14463 O 1958.82 -4.30744 6.56026 0
M  V30 14464 O 1958.86 -6.37042 5.19165 0
M  V30 14465 C 1958.7 -7.83578 5.16515 0
M  V30 14466 C 1959.24 -8.33398 3.83019 0
M  V30 14467 O 1958.18 -8.10074 3.01034 0
M  V30 14468 C 1960.45 -7.65514 3.2257 0
M  V30 14469 O 1961.19 -8.4329 2.32297 0
M  V30 14470 C 1959.78 -6.40075 2.62207 0
M  V30 14471 O 1960.58 -5.92589 1.53712 0
M  V30 14472 C 1958.45 -6.9454 2.18503 0
M  V30 14473 H 1958.48 -7.23063 1.12091 0
M  V30 14474 H 1959.66 -5.6025 3.37201 0
M  V30 14475 H 1961.15 -7.35707 4.02681 0
M  V30 14476 H 1959.45 -9.40912 3.9095 0
M  V30 14477 H 1959.26 -8.29056 5.99158 0
M  V30 14478 H 1957.63 -8.10073 5.25882 0
M  V30 14479 H 1960.27 -6.30324 0.726794 0
M  V30 14480 P 1962.13 -8.4349 2.47671 0
M  V30 14481 O 1963.53 -8.98227 2.65696 0
M  V30 14482 O 1961.75 -7.20409 3.23964 0
M  V30 14483 O 1961.81 -8.16496 0.923275 0
M  V30 14484 C 1961.65 -9.38437 0.108857 0
M  V30 14485 C 1962.19 -9.08076 -1.28339 0
M  V30 14486 O 1961.13 -8.44131 -1.84692 0
M  V30 14487 C 1963.4 -8.18386 -1.42505 0
M  V30 14488 O 1964.14 -8.3501 -2.60497 0
M  V30 14489 C 1962.74 -6.80225 -1.25468 0
M  V30 14490 O 1963.53 -5.81526 -1.91035 0
M  V30 14491 C 1961.4 -7.02416 -1.9168 0
M  V30 14492 N 1960.36 -6.31033 -1.20314 0
M  V30 14493 C 1959.32 -5.77149 -1.928 0
M  V30 14494 O 1959.36 -5.8521 -3.17729 0
M  V30 14495 N 1958.31 -5.15445 -1.27997 0
M  V30 14496 C 1958.36 -5.04472 0.0534726 0
M  V30 14497 C 1959.45 -5.55244 0.808522 0
M  V30 14498 C 1960.42 -6.18542 0.13981 0
M  V30 14499 H 1961.43 -6.68789 -2.9658 0
M  V30 14500 H 1962.61 -6.53498 -0.198729 0
M  V30 14501 H 1964.1 -8.36663 -0.5984 0
M  V30 14502 H 1962.4 -10.0273 -1.8081 0
M  V30 14503 H 1962.21 -10.2138 0.558219 0
M  V30 14504 H 1960.58 -9.6569 0.0444156 0
M  V30 14505 H 1959.5 -5.43017 1.88792 0
M  V30 14506 H 1961.26 -6.60539 0.686773 0
M  V30 14507 H 1963.32 -5.79638 -2.8315 0
M  V30 14508 P 1965.08 -8.4349 -2.47671 0
M  V30 14509 O 1966.5 -8.92593 -2.65 0
M  V30 14510 O 1964.72 -7.7568 -1.19296 0
M  V30 14511 O 1964.76 -7.36886 -3.63805 0
M  V30 14512 C 1964.6 -7.95349 -4.982 0
M  V30 14513 C 1965.14 -6.94612 -5.98974 0
M  V30 14514 O 1964.08 -6.10347 -6.11815 0
M  V30 14515 C 1966.35 -6.11426 -5.62335 0
M  V30 14516 O 1967.09 -5.6162 -6.70584 0
M  V30 14517 C 1965.69 -5.04409 -4.73308 0
M  V30 14518 O 1966.48 -3.85992 -4.75183 0
M  V30 14519 C 1964.35 -4.8728 -5.41006 0
M  V30 14520 H 1964.38 -4.02333 -6.11157 0
M  V30 14521 H 1965.56 -5.39466 -3.69543 0
M  V30 14522 H 1967.05 -6.71916 -5.01943 0
M  V30 14523 H 1965.35 -7.4649 -6.93477 0
M  V30 14524 H 1965.16 -8.89416 -5.05237 0
M  V30 14525 H 1963.53 -8.14876 -5.18409 0
M  V30 14526 H 1966.17 -3.27957 -5.4317 0
M  V30 14527 P 1968.03 -5.75688 -6.64379 0
M  V30 14528 O 1969.45 -6.07627 -7.05504 0
M  V30 14529 O 1967.67 -5.88047 -5.19722 0
M  V30 14530 O 1967.71 -4.2322 -7.04443 0
M  V30 14531 C 1967.55 -3.99743 -8.4911 0
M  V30 14532 C 1968.09 -2.60516 -8.79425 0
M  V30 14533 O 1967.03 -1.82684 -8.4467 0
M  V30 14534 C 1969.31 -2.10343 -8.03628 0
M  V30 14535 O 1970.04 -1.09919 -8.67766 0
M  V30 14536 C 1968.64 -1.68446 -6.70876 0
M  V30 14537 O 1969.44 -0.678137 -6.08433 0
M  V30 14538 C 1967.3 -1.17436 -7.18567 0
M  V30 14539 H 1967.33 -0.0804732 -7.31656 0
M  V30 14540 H 1968.51 -2.54037 -6.02537 0
M  V30 14541 H 1970 -2.93881 -7.85526 0
M  V30 14542 H 1968.3 -2.53065 -9.86973 0
M  V30 14543 H 1968.11 -4.75072 -9.05887 0
M  V30 14544 H 1966.48 -4.05244 -8.76668 0
M  V30 14545 H 1969.12 0.177647 -6.34251 0
M  V30 14546 P 1970.98 -1.25109 -8.70152 0
M  V30 14547 O 1972.4 -1.29744 -9.22016 0
M  V30 14548 O 1970.62 -2.13714 -7.55141 0
M  V30 14549 O 1970.66 0.248149 -8.21425 0
M  V30 14550 C 1970.5 1.22779 -9.30434 0
M  V30 14551 C 1971.04 2.56293 -8.80664 0
M  V30 14552 O 1969.98 3.02979 -8.09349 0
M  V30 14553 C 1972.26 2.57523 -7.89775 0
M  V30 14554 O 1972.99 3.7668 -7.89438 0
M  V30 14555 C 1971.59 2.20997 -6.55446 0
M  V30 14556 O 1972.39 2.71895 -5.48509 0
M  V30 14557 C 1970.25 2.89693 -6.67988 0
M  V30 14558 H 1970.28 3.88793 -6.19859 0
M  V30 14559 H 1971.46 1.12046 -6.44229 0
M  V30 14560 H 1972.95 1.7746 -8.19711 0
M  V30 14561 H 1971.25 3.20706 -9.67112 0
M  V30 14562 H 1971.06 0.901032 -10.1892 0
M  V30 14563 H 1969.43 1.33049 -9.56592 0
M  V30 14564 H 1972.07 3.57847 -5.23962 0
M  V30 14565 P 1973.93 3.65191 -7.99657 0
M  V30 14566 O 1975.35 3.89332 -8.45794 0
M  V30 14567 O 1973.57 2.28472 -7.50807 0
M  V30 14568 O 1973.61 4.64972 -6.77611 0
M  V30 14569 C 1973.45 6.06319 -7.16352 0
M  V30 14570 C 1973.99 6.91731 -6.02299 0
M  V30 14571 O 1972.93 6.92449 -5.17064 0
M  V30 14572 C 1975.21 6.43627 -5.25174 0
M  V30 14573 O 1975.94 7.43686 -4.60469 0
M  V30 14574 C 1974.54 5.40275 -4.31916 0
M  V30 14575 O 1975.34 5.25279 -3.14438 0
M  V30 14576 C 1973.2 6.04847 -4.05327 0
M  V30 14577 H 1973.23 6.62195 -3.11261 0
M  V30 14578 H 1974.42 4.42556 -4.81383 0
M  V30 14579 H 1975.9 5.92458 -5.93643 0
M  V30 14580 H 1974.21 7.92655 -6.402 0
M  V30 14581 H 1974.02 6.26671 -8.0846 0
M  V30 14582 H 1972.39 6.29101 -7.32804 0
M  V30 14583 H 1975.02 5.84315 -2.47318 0
M  V30 14584 P 1976.88 7.39546 -4.75277 0
M  V30 14585 O 1978.3 7.84882 -5.01092 0
M  V30 14586 O 1976.52 5.9812 -5.08098 0
M  V30 14587 O 1976.56 7.57503 -3.1866 0
M  V30 14588 C 1976.4 8.97452 -2.74862 0
M  V30 14589 C 1976.94 9.07548 -1.32709 0
M  V30 14590 O 1975.88 8.61972 -0.606089 0
M  V30 14591 C 1978.16 8.25383 -0.938334 0
M  V30 14592 O 1978.89 8.74577 0.146954 0
M  V30 14593 C 1977.49 6.8802 -0.712559 0
M  V30 14594 O 1978.29 6.1181 0.188505 0
M  V30 14595 C 1976.15 7.27966 -0.139777 0
M  V30 14596 N 1975.11 6.39368 -0.623421 0
M  V30 14597 C 1975.28 5.71761 -1.78245 0
M  V30 14598 N 1974.25 4.962 -2.10491 0
M  V30 14599 C 1973.36 5.16158 -1.0635 0
M  V30 14600 C 1972.1 4.60425 -0.810266 0
M  V30 14601 N 1971.53 5.06 0.348685 0
M  V30 14602 C 1972.13 5.94532 1.20395 0
M  V30 14603 N 1973.31 6.48452 1.01191 0
M  V30 14604 C 1973.89 6.04423 -0.146291 0
M  V30 14605 H 1977.37 6.32625 -1.65044 0
M  V30 14606 H 1978.85 8.19355 -1.79097 0
M  V30 14607 H 1977.15 10.1305 -1.09016 0
M  V30 14608 H 1976.96 9.64276 -3.41316 0
M  V30 14609 H 1975.33 9.25417 -2.76357 0
M  V30 14610 H 1976.18 5.79354 -2.38959 0
M  V30 14611 H 1977.97 6.25169 1.0783 0
M  V30 14612 P 1979.83 8.791 1.69213e-11 0
M  V30 14613 O 1981.25 9.31096 0.027933 0
M  V30 14614 O 1979.47 7.77869 -1.04071 0
M  V30 14615 O 1979.51 8.09533 1.41463 0
M  V30 14616 C 1979.35 9.0349 2.53943 0
M  V30 14617 C 1979.89 8.35226 3.79016 0
M  V30 14618 O 1978.83 7.57992 4.15078 0
M  V30 14619 C 1981.11 7.45087 3.67298 0
M  V30 14620 O 1981.85 7.27796 4.85194 0
M  V30 14621 C 1980.44 6.17323 3.12027 0
M  V30 14622 O 1981.24 5.04231 3.47188 0
M  V30 14623 C 1979.1 6.19961 3.81809 0
M  V30 14624 H 1979.13 5.58218 4.73051 0
M  V30 14625 H 1980.32 6.21726 2.02589 0
M  V30 14626 H 1981.8 7.86112 2.9231 0
M  V30 14627 H 1980.11 9.11627 4.55076 0
M  V30 14628 H 1979.92 9.9573 2.34194 0
M  V30 14629 H 1978.29 9.2792 2.67832 0
M  V30 14630 H 1980.93 4.67702 4.28772 0
M  V30 14631 P 1982.78 7.39546 4.75277 0
M  V30 14632 O 1984.21 7.81777 5.05738 0
M  V30 14633 O 1982.42 7.1065 3.32998 0
M  V30 14634 O 1982.46 6.04542 5.56673 0
M  V30 14635 C 1982.3 6.22772 7.02095 0
M  V30 14636 C 1982.84 4.97725 7.70406 0
M  V30 14637 O 1981.78 4.13256 7.58987 0
M  V30 14638 C 1984.06 4.28231 7.11815 0
M  V30 14639 O 1984.8 3.49945 8.01648 0
M  V30 14640 C 1983.39 3.5063 5.96244 0
M  V30 14641 O 1984.19 2.36482 5.64681 0
M  V30 14642 C 1982.05 3.15122 6.56374 0
M  V30 14643 H 1982.08 2.13853 6.99751 0
M  V30 14644 H 1983.27 4.13501 5.06559 0
M  V30 14645 H 1984.75 5.03285 6.70911 0
M  V30 14646 H 1983.06 5.20877 8.75697 0
M  V30 14647 H 1982.87 7.11046 7.35349 0
M  V30 14648 H 1981.24 6.35815 7.26986 0
M  V30 14649 H 1983.88 1.61644 6.13565 0
M  V30 14650 P 1985.73 3.65191 7.99657 0
M  V30 14651 O 1987.16 3.84333 8.48297 0
M  V30 14652 O 1985.37 4.17805 6.64342 0
M  V30 14653 O 1985.41 2.07613 7.95143 0
M  V30 14654 C 1985.25 1.44328 9.27336 0
M  V30 14655 C 1985.79 0.0220012 9.17097 0
M  V30 14656 O 1984.74 -0.626867 8.61923 0
M  V30 14657 C 1987.01 -0.24586 8.30336 0
M  V30 14658 O 1987.75 -1.39011 8.63583 0
M  V30 14659 C 1986.34 -0.273849 6.91158 0
M  V30 14660 O 1987.14 -1.06331 6.02794 0
M  V30 14661 C 1985 -0.897649 7.22545 0
M  V30 14662 N 1983.96 -0.292839 6.41732 0
M  V30 14663 C 1984.02 1.00068 6.10757 0
M  V30 14664 N 1982.98 1.36468 5.35794 0
M  V30 14665 C 1982.24 0.258894 5.2366 0
M  V30 14666 C 1980.94 0.0670682 4.65752 0
M  V30 14667 O 1980.2 0.902443 4.10497 0
M  V30 14668 N 1980.51 -1.2131 4.75881 0
M  V30 14669 C 1981.26 -2.24934 5.37101 0
M  V30 14670 N 1980.66 -3.48783 5.33984 0
M  V30 14671 N 1982.41 -2.0844 5.95684 0
M  V30 14672 C 1982.87 -0.81395 5.87791 0
M  V30 14673 H 1985.03 -1.9841 7.04286 0
M  V30 14674 H 1986.22 0.739815 6.49601 0
M  V30 14675 H 1987.7 0.598315 8.36563 0
M  V30 14676 H 1986.01 -0.352479 10.1829 0
M  V30 14677 H 1985.82 2.00611 10.0304 0
M  V30 14678 H 1984.19 1.41843 9.55327 0
M  V30 14679 H 1979.61 -1.44434 4.37895 0
M  V30 14680 H 1984.82 1.67697 6.42268 0
M  V30 14681 H 1979.75 -3.60543 4.87699 0
M  V30 14682 H 1981.12 -4.29232 5.7819 0
M  V30 14683 H 1986.83 -1.95704 6.0346 0
M  V30 14684 P 1988.68 -1.25109 8.70152 0
M  V30 14685 O 1990.11 -1.35274 9.21221 0
M  V30 14686 O 1988.32 -0.0769065 7.84762 0
M  V30 14687 O 1988.36 -2.55232 7.81161 0
M  V30 14688 C 1988.2 -3.79939 8.58154 0
M  V30 14689 C 1988.74 -4.94023 7.72785 0
M  V30 14690 O 1987.69 -5.18726 6.91205 0
M  V30 14691 C 1989.96 -4.69597 6.85231 0
M  V30 14692 O 1990.7 -5.83832 6.51337 0
M  V30 14693 C 1989.29 -3.96706 5.66633 0
M  V30 14694 O 1990.09 -4.15414 4.49689 0
M  V30 14695 C 1987.95 -4.66153 5.59313 0
M  V30 14696 H 1987.99 -5.47679 4.85214 0
M  V30 14697 H 1989.17 -2.89008 5.86566 0
M  V30 14698 H 1990.65 -4.0121 7.36511 0
M  V30 14699 H 1988.96 -5.80182 8.37584 0
M  V30 14700 H 1988.77 -3.73517 9.52265 0
M  V30 14701 H 1987.14 -3.97163 8.80359 0
M  V30 14702 H 1989.78 -4.90969 4.01921 0
M  V30 14703 P 1991.63 -5.75688 6.64379 0
M  V30 14704 O 1993.06 -6.11849 7.01846 0
M  V30 14705 O 1991.27 -4.30744 6.56026 0
M  V30 14706 O 1991.31 -6.37042 5.19165 0
M  V30 14707 C 1991.15 -7.83578 5.16515 0
M  V30 14708 C 1991.69 -8.33398 3.83019 0
M  V30 14709 O 1990.64 -8.10074 3.01034 0
M  V30 14710 C 1992.91 -7.65514 3.2257 0
M  V30 14711 O 1993.65 -8.4329 2.32297 0
M  V30 14712 C 1992.24 -6.40075 2.62207 0
M  V30 14713 O 1993.04 -5.92589 1.53712 0
M  V30 14714 C 1990.9 -6.9454 2.18503 0
M  V30 14715 H 1990.94 -7.23063 1.12091 0
M  V30 14716 H 1992.12 -5.6025 3.37201 0
M  V30 14717 H 1993.6 -7.35707 4.02681 0
M  V30 14718 H 1991.91 -9.40912 3.9095 0
M  V30 14719 H 1991.72 -8.29056 5.99158 0
M  V30 14720 H 1990.09 -8.10073 5.25882 0
M  V30 14721 H 1992.73 -6.30324 0.726794 0
M  V30 14722 P 1994.59 -8.4349 2.47671 0
M  V30 14723 O 1996.01 -8.94167 2.5964 0
M  V30 14724 O 1994.23 -7.1704 3.19006 0
M  V30 14725 O 1994.26 -8.16596 0.923387 0
M  V30 14726 C 1994.1 -9.38437 0.108857 0
M  V30 14727 C 1994.64 -9.08175 -1.28353 0
M  V30 14728 O 1993.59 -8.44229 -1.84713 0
M  V30 14729 C 1995.86 -8.18386 -1.42505 0
M  V30 14730 O 1996.6 -8.3501 -2.60497 0
M  V30 14731 C 1995.19 -6.80225 -1.25468 0
M  V30 14732 O 1995.99 -5.81621 -1.91066 0
M  V30 14733 C 1993.85 -7.02416 -1.9168 0
M  V30 14734 H 1993.89 -6.6888 -2.96621 0
M  V30 14735 H 1995.07 -6.53617 -0.192223 0
M  V30 14736 H 1996.55 -8.36622 -0.589963 0
M  V30 14737 H 1994.86 -10.0291 -1.79807 0
M  V30 14738 H 1994.67 -10.2138 0.558219 0
M  V30 14739 H 1993.04 -9.6579 0.0444202 0
M  V30 14740 H 1995.68 -5.69556 -2.79637 0
M  V30 14741 P 1997.54 -8.4349 -2.47671 0
M  V30 14742 O 1998.96 -8.92593 -2.65 0
M  V30 14743 O 1997.18 -7.7568 -1.19296 0
M  V30 14744 O 1997.21 -7.36886 -3.63805 0
M  V30 14745 C 1997.05 -7.95349 -4.982 0
M  V30 14746 C 1997.59 -6.94612 -5.98974 0
M  V30 14747 O 1996.54 -6.10347 -6.11815 0
M  V30 14748 C 1998.81 -6.11426 -5.62335 0
M  V30 14749 O 1999.55 -5.6162 -6.70584 0
M  V30 14750 C 1998.14 -5.04409 -4.73308 0
M  V30 14751 O 1998.94 -3.85992 -4.75183 0
M  V30 14752 C 1996.8 -4.8728 -5.41006 0
M  V30 14753 H 1996.84 -4.02333 -6.11157 0
M  V30 14754 H 1998.02 -5.39466 -3.69543 0
M  V30 14755 H 1999.5 -6.71916 -5.01943 0
M  V30 14756 H 1997.81 -7.4649 -6.93477 0
M  V30 14757 H 1997.62 -8.89416 -5.05237 0
M  V30 14758 H 1995.99 -8.14876 -5.18409 0
M  V30 14759 H 1998.63 -3.27957 -5.4317 0
M  V30 14760 P 2000.49 -5.75688 -6.64379 0
M  V30 14761 O 2001.91 -6.07627 -7.05504 0
M  V30 14762 O 2000.13 -5.88047 -5.19722 0
M  V30 14763 O 2000.16 -4.2322 -7.04443 0
M  V30 14764 C 2000 -3.99743 -8.4911 0
M  V30 14765 C 2000.54 -2.60516 -8.79425 0
M  V30 14766 O 1999.49 -1.82684 -8.4467 0
M  V30 14767 C 2001.76 -2.10343 -8.03628 0
M  V30 14768 O 2002.5 -1.09919 -8.67766 0
M  V30 14769 C 2001.09 -1.68446 -6.70876 0
M  V30 14770 O 2001.89 -0.678137 -6.08433 0
M  V30 14771 C 1999.76 -1.17436 -7.18567 0
M  V30 14772 H 1999.79 -0.0804732 -7.31656 0
M  V30 14773 H 2000.97 -2.54037 -6.02537 0
M  V30 14774 H 2002.45 -2.93881 -7.85526 0
M  V30 14775 H 2000.76 -2.53065 -9.86973 0
M  V30 14776 H 2000.57 -4.75072 -9.05887 0
M  V30 14777 H 1998.94 -4.05244 -8.76668 0
M  V30 14778 H 2001.58 0.177647 -6.34251 0
M  V30 14779 P 2003.44 -1.25109 -8.70152 0
M  V30 14780 O 2004.86 -1.29744 -9.22016 0
M  V30 14781 O 2003.08 -2.13714 -7.55141 0
M  V30 14782 O 2003.11 0.248149 -8.21425 0
M  V30 14783 C 2002.95 1.22779 -9.30434 0
M  V30 14784 C 2003.49 2.56293 -8.80664 0
M  V30 14785 O 2002.44 3.02979 -8.09349 0
M  V30 14786 C 2004.71 2.57523 -7.89775 0
M  V30 14787 O 2005.45 3.7668 -7.89438 0
M  V30 14788 C 2004.04 2.20997 -6.55446 0
M  V30 14789 O 2004.84 2.71895 -5.48509 0
M  V30 14790 C 2002.71 2.89693 -6.67988 0
M  V30 14791 H 2002.74 3.88793 -6.19859 0
M  V30 14792 H 2003.92 1.12046 -6.44229 0
M  V30 14793 H 2005.41 1.7746 -8.19711 0
M  V30 14794 H 2003.71 3.20706 -9.67112 0
M  V30 14795 H 2003.52 0.901032 -10.1892 0
M  V30 14796 H 2001.89 1.33049 -9.56592 0
M  V30 14797 H 2004.53 3.57847 -5.23962 0
M  V30 14798 P 2006.39 3.65191 -7.99657 0
M  V30 14799 O 2007.81 3.89332 -8.45794 0
M  V30 14800 O 2006.03 2.28472 -7.50807 0
M  V30 14801 O 2006.06 4.64972 -6.77611 0
M  V30 14802 C 2005.9 6.06319 -7.16352 0
M  V30 14803 C 2006.44 6.91731 -6.02299 0
M  V30 14804 O 2005.39 6.92449 -5.17064 0
M  V30 14805 C 2007.66 6.43627 -5.25174 0
M  V30 14806 O 2008.4 7.43686 -4.60469 0
M  V30 14807 C 2006.99 5.40275 -4.31916 0
M  V30 14808 O 2007.79 5.25279 -3.14438 0
M  V30 14809 C 2005.66 6.04847 -4.05327 0
M  V30 14810 H 2005.69 6.62195 -3.11261 0
M  V30 14811 H 2006.87 4.42556 -4.81383 0
M  V30 14812 H 2008.36 5.92458 -5.93643 0
M  V30 14813 H 2006.66 7.92655 -6.402 0
M  V30 14814 H 2006.47 6.26671 -8.0846 0
M  V30 14815 H 2004.84 6.29101 -7.32804 0
M  V30 14816 H 2007.48 5.84315 -2.47318 0
M  V30 14817 P 2009.34 7.39546 -4.75277 0
M  V30 14818 O 2010.76 7.84798 -5.01039 0
M  V30 14819 O 2008.98 5.9812 -5.08098 0
M  V30 14820 O 2009.02 7.57503 -3.1866 0
M  V30 14821 C 2008.86 8.97357 -2.74833 0
M  V30 14822 C 2009.4 9.07548 -1.32709 0
M  V30 14823 O 2008.34 8.62072 -0.606159 0
M  V30 14824 C 2010.61 8.25383 -0.938334 0
M  V30 14825 O 2011.35 8.74577 0.146954 0
M  V30 14826 C 2009.94 6.8802 -0.712559 0
M  V30 14827 O 2010.74 6.1189 0.194655 0
M  V30 14828 C 2008.61 7.27966 -0.139777 0
M  V30 14829 H 2008.64 7.25354 0.961601 0
M  V30 14830 H 2009.82 6.32557 -1.65702 0
M  V30 14831 H 2011.31 8.19355 -1.79097 0
M  V30 14832 H 2009.61 10.1294 -1.10029 0
M  V30 14833 H 2009.42 9.64276 -3.41316 0
M  V30 14834 H 2007.79 9.25417 -2.76357 0
M  V30 14835 H 2010.43 6.25267 1.07847 0
M  V30 14836 P 2012.29 8.791 1.72314e-11 0
M  V30 14837 O 2013.71 9.31096 0.027933 0
M  V30 14838 O 2011.93 7.77869 -1.04071 0
M  V30 14839 O 2011.97 8.09533 1.41463 0
M  V30 14840 C 2011.81 9.0349 2.53943 0
M  V30 14841 C 2012.35 8.35226 3.79016 0
M  V30 14842 O 2011.29 7.57992 4.15078 0
M  V30 14843 C 2013.56 7.45087 3.67298 0
M  V30 14844 O 2014.3 7.27796 4.85194 0
M  V30 14845 C 2012.89 6.17323 3.12027 0
M  V30 14846 O 2013.69 5.04231 3.47188 0
M  V30 14847 C 2011.56 6.19961 3.81809 0
M  V30 14848 H 2011.59 5.58218 4.73051 0
M  V30 14849 H 2012.77 6.21726 2.02589 0
M  V30 14850 H 2014.26 7.86112 2.9231 0
M  V30 14851 H 2012.56 9.11627 4.55076 0
M  V30 14852 H 2012.37 9.9573 2.34194 0
M  V30 14853 H 2010.74 9.2792 2.67832 0
M  V30 14854 H 2013.38 4.67702 4.28772 0
M  V30 14855 P 2015.24 7.39546 4.75277 0
M  V30 14856 O 2016.64 7.89013 5.04841 0
M  V30 14857 O 2014.86 7.16603 3.32298 0
M  V30 14858 O 2014.92 6.04468 5.56605 0
M  V30 14859 C 2014.76 6.22772 7.02095 0
M  V30 14860 C 2015.3 4.97671 7.70322 0
M  V30 14861 O 2014.24 4.13208 7.58899 0
M  V30 14862 C 2016.51 4.28231 7.11815 0
M  V30 14863 O 2017.25 3.49945 8.01648 0
M  V30 14864 C 2015.85 3.5063 5.96244 0
M  V30 14865 O 2016.64 2.36443 5.64589 0
M  V30 14866 C 2014.51 3.15122 6.56374 0
M  V30 14867 N 2013.47 3.22311 5.55692 0
M  V30 14868 C 2012.43 2.32244 5.62437 0
M  V30 14869 O 2012.47 1.43107 6.50341 0
M  V30 14870 N 2011.42 2.40811 4.73368 0
M  V30 14871 C 2011.47 3.344 3.77753 0
M  V30 14872 C 2012.56 4.24712 3.66679 0
M  V30 14873 C 2013.53 4.15625 4.58307 0
M  V30 14874 H 2014.54 2.13823 6.99656 0
M  V30 14875 H 2015.72 4.12931 5.06895 0
M  V30 14876 H 2017.21 5.02674 6.71494 0
M  V30 14877 H 2015.51 5.20001 8.76217 0
M  V30 14878 H 2015.32 7.11046 7.35349 0
M  V30 14879 H 2013.69 6.35749 7.26911 0
M  V30 14880 H 2012.61 4.9828 2.86753 0
M  V30 14881 H 2014.37 4.84464 4.54228 0
M  V30 14882 H 2016.43 1.65592 6.23485 0
M  V30 14883 P 2018.19 3.65191 7.99657 0
M  V30 14884 O 2019.59 3.90823 8.51272 0
M  V30 14885 O 2017.81 4.23191 6.66972 0
M  V30 14886 O 2017.87 2.07587 7.95046 0
M  V30 14887 C 2017.71 1.44328 9.27336 0
M  V30 14888 C 2018.25 0.0220012 9.17097 0
M  V30 14889 O 2017.19 -0.626794 8.61824 0
M  V30 14890 C 2019.46 -0.24586 8.30336 0
M  V30 14891 O 2020.2 -1.39011 8.63583 0
M  V30 14892 C 2018.8 -0.273849 6.91158 0
M  V30 14893 O 2019.59 -1.06331 6.02794 0
M  V30 14894 C 2017.46 -0.897649 7.22545 0
M  V30 14895 N 2016.42 -0.292839 6.41732 0
M  V30 14896 C 2015.38 -1.08701 5.98712 0
M  V30 14897 O 2015.42 -2.31211 6.24471 0
M  V30 14898 N 2014.37 -0.533391 5.28415 0
M  V30 14899 C 2014.42 0.770866 4.98576 0
M  V30 14900 C 2015.51 1.59049 5.38086 0
M  V30 14901 C 2016.48 1.01866 6.10256 0
M  V30 14902 H 2017.49 -1.98383 7.04189 0
M  V30 14903 H 2018.67 0.733318 6.49674 0
M  V30 14904 H 2020.16 0.598386 8.36663 0
M  V30 14905 H 2018.46 -0.362662 10.1825 0
M  V30 14906 H 2018.27 2.00611 10.0304 0
M  V30 14907 H 2016.64 1.41828 9.55228 0
M  V30 14908 H 2015.56 2.6415 5.10622 0
M  V30 14909 H 2017.32 1.61983 6.44042 0
M  V30 14910 H 2019.38 -1.97777 6.14035 0
M  V30 14911 P 2021.14 -1.25109 8.70152 0
M  V30 14912 O 2022.56 -1.35274 9.21221 0
M  V30 14913 O 2020.78 -0.0769065 7.84762 0
M  V30 14914 O 2020.82 -2.55232 7.81161 0
M  V30 14915 C 2020.66 -3.79939 8.58154 0
M  V30 14916 C 2021.2 -4.94023 7.72785 0
M  V30 14917 O 2020.14 -5.18726 6.91205 0
M  V30 14918 C 2022.42 -4.69597 6.85231 0
M  V30 14919 O 2023.15 -5.83832 6.51337 0
M  V30 14920 C 2021.75 -3.96706 5.66633 0
M  V30 14921 O 2022.55 -4.15414 4.49689 0
M  V30 14922 C 2020.41 -4.66153 5.59313 0
M  V30 14923 H 2020.44 -5.47679 4.85214 0
M  V30 14924 H 2021.62 -2.89008 5.86566 0
M  V30 14925 H 2023.11 -4.0121 7.36511 0
M  V30 14926 H 2021.41 -5.80182 8.37584 0
M  V30 14927 H 2021.22 -3.73517 9.52265 0
M  V30 14928 H 2019.59 -3.97163 8.80359 0
M  V30 14929 H 2022.23 -4.90969 4.01921 0
M  V30 14930 P 2024.09 -5.75688 6.64379 0
M  V30 14931 O 2025.49 -6.11991 7.09136 0
M  V30 14932 O 2023.71 -4.30899 6.62018 0
M  V30 14933 O 2023.77 -6.36965 5.19102 0
M  V30 14934 C 2023.61 -7.83578 5.16515 0
M  V30 14935 C 2024.15 -8.33307 3.82977 0
M  V30 14936 O 2023.09 -8.0998 3.00999 0
M  V30 14937 C 2025.37 -7.65514 3.2257 0
M  V30 14938 O 2026.1 -8.4329 2.32297 0
M  V30 14939 C 2024.7 -6.40075 2.62207 0
M  V30 14940 O 2025.5 -5.92492 1.53687 0
M  V30 14941 C 2023.36 -6.9454 2.18503 0
M  V30 14942 N 2022.32 -5.95905 2.39948 0
M  V30 14943 C 2021.28 -5.89764 1.49837 0
M  V30 14944 O 2021.32 -6.64088 0.490975 0
M  V30 14945 N 2020.27 -5.02821 1.70992 0
M  V30 14946 C 2020.32 -4.21498 2.77236 0
M  V30 14947 C 2021.41 -4.23389 3.68205 0
M  V30 14948 C 2022.38 -5.12792 3.46171 0
M  V30 14949 H 2023.39 -7.22964 1.12076 0
M  V30 14950 H 2024.58 -5.60502 3.36589 0
M  V30 14951 H 2026.06 -7.36197 4.01993 0
M  V30 14952 H 2024.37 -9.41302 3.90009 0
M  V30 14953 H 2024.17 -8.29056 5.99158 0
M  V30 14954 H 2022.54 -8.09989 5.25828 0
M  V30 14955 H 2021.46 -3.54747 4.52399 0
M  V30 14956 H 2023.23 -5.18551 4.1489 0
M  V30 14957 H 2025.28 -6.40705 0.751752 0
M  V30 14958 P 2027.04 -8.4349 2.47671 0
M  V30 14959 O 2028.46 -8.94167 2.5964 0
M  V30 14960 O 2026.68 -7.1704 3.19006 0
M  V30 14961 O 2026.72 -8.16596 0.923387 0
M  V30 14962 C 2026.56 -9.38437 0.108857 0
M  V30 14963 C 2027.1 -9.08175 -1.28353 0
M  V30 14964 O 2026.04 -8.44229 -1.84713 0
M  V30 14965 C 2028.32 -8.18386 -1.42505 0
M  V30 14966 O 2029.05 -8.3501 -2.60497 0
M  V30 14967 C 2027.65 -6.80225 -1.25468 0
M  V30 14968 O 2028.45 -5.81621 -1.91066 0
M  V30 14969 C 2026.31 -7.02416 -1.9168 0
M  V30 14970 H 2026.34 -6.6888 -2.96621 0
M  V30 14971 H 2027.53 -6.53617 -0.192223 0
M  V30 14972 H 2029.01 -8.36622 -0.589963 0
M  V30 14973 H 2027.32 -10.0291 -1.79807 0
M  V30 14974 H 2027.13 -10.2138 0.558219 0
M  V30 14975 H 2025.5 -9.6579 0.0444202 0
M  V30 14976 H 2028.13 -5.69556 -2.79637 0
M  V30 14977 P 2029.99 -8.4349 -2.47671 0
M  V30 14978 O 2031.41 -8.92593 -2.65 0
M  V30 14979 O 2029.63 -7.7568 -1.19296 0
M  V30 14980 O 2029.67 -7.36886 -3.63805 0
M  V30 14981 C 2029.51 -7.95349 -4.982 0
M  V30 14982 C 2030.05 -6.94612 -5.98974 0
M  V30 14983 O 2028.99 -6.10347 -6.11815 0
M  V30 14984 C 2031.27 -6.11426 -5.62335 0
M  V30 14985 O 2032.01 -5.6162 -6.70584 0
M  V30 14986 C 2030.6 -5.04409 -4.73308 0
M  V30 14987 O 2031.4 -3.85992 -4.75183 0
M  V30 14988 C 2029.26 -4.8728 -5.41006 0
M  V30 14989 H 2029.29 -4.02333 -6.11157 0
M  V30 14990 H 2030.48 -5.39466 -3.69543 0
M  V30 14991 H 2031.96 -6.71916 -5.01943 0
M  V30 14992 H 2030.27 -7.4649 -6.93477 0
M  V30 14993 H 2030.08 -8.89416 -5.05237 0
M  V30 14994 H 2028.45 -8.14876 -5.18409 0
M  V30 14995 H 2031.09 -3.27957 -5.4317 0
M  V30 14996 P 2032.94 -5.75688 -6.64379 0
M  V30 14997 O 2034.36 -6.07627 -7.05504 0
M  V30 14998 O 2032.58 -5.88047 -5.19722 0
M  V30 14999 O 2032.62 -4.2322 -7.04443 0
M  V30 15000 C 2032.46 -3.99743 -8.4911 0
M  V30 15001 C 2033 -2.60516 -8.79425 0
M  V30 15002 O 2031.94 -1.82684 -8.4467 0
M  V30 15003 C 2034.22 -2.10343 -8.03628 0
M  V30 15004 O 2034.96 -1.09919 -8.67766 0
M  V30 15005 C 2033.55 -1.68446 -6.70876 0
M  V30 15006 O 2034.35 -0.678137 -6.08433 0
M  V30 15007 C 2032.21 -1.17436 -7.18567 0
M  V30 15008 H 2032.24 -0.0804732 -7.31656 0
M  V30 15009 H 2033.43 -2.54037 -6.02537 0
M  V30 15010 H 2034.91 -2.93881 -7.85526 0
M  V30 15011 H 2033.22 -2.53065 -9.86973 0
M  V30 15012 H 2033.03 -4.75072 -9.05887 0
M  V30 15013 H 2031.4 -4.05244 -8.76668 0
M  V30 15014 H 2034.04 0.177647 -6.34251 0
M  V30 15015 P 2035.89 -1.25109 -8.70152 0
M  V30 15016 O 2037.31 -1.29758 -9.22115 0
M  V30 15017 O 2035.53 -2.13714 -7.55141 0
M  V30 15018 O 2035.57 0.248149 -8.21425 0
M  V30 15019 C 2035.41 1.22792 -9.30533 0
M  V30 15020 C 2035.95 2.56293 -8.80664 0
M  V30 15021 O 2034.9 3.02944 -8.09255 0
M  V30 15022 C 2037.17 2.57523 -7.89775 0
M  V30 15023 O 2037.91 3.7668 -7.89438 0
M  V30 15024 C 2036.5 2.20997 -6.55446 0
M  V30 15025 O 2037.3 2.71302 -5.48691 0
M  V30 15026 C 2035.16 2.89693 -6.67988 0
M  V30 15027 N 2034.12 2.08895 -6.07487 0
M  V30 15028 C 2034.29 0.753809 -5.94137 0
M  V30 15029 N 2033.26 0.146592 -5.38801 0
M  V30 15030 C 2032.38 1.1768 -5.13693 0
M  V30 15031 C 2031.11 1.17563 -4.52477 0
M  V30 15032 N 2030.51 0.057481 -4.04759 0
M  V30 15033 N 2030.54 2.41918 -4.45789 0
M  V30 15034 C 2031.15 3.56493 -4.90792 0
M  V30 15035 N 2032.32 3.61423 -5.47817 0
M  V30 15036 C 2032.9 2.37779 -5.5588 0
M  V30 15037 H 2035.19 3.8874 -6.19774 0
M  V30 15038 H 2036.38 1.12673 -6.44018 0
M  V30 15039 H 2037.86 1.7746 -8.19711 0
M  V30 15040 H 2036.17 3.21673 -9.66791 0
M  V30 15041 H 2035.98 0.901032 -10.1892 0
M  V30 15042 H 2034.35 1.33049 -9.56592 0
M  V30 15043 H 2030.61 4.49919 -4.77947 0
M  V30 15044 H 2035.19 0.233081 -6.26266 0
M  V30 15045 H 2029.58 0.119831 -3.60801 0
M  V30 15046 H 2030.98 -0.852272 -4.12385 0
M  V30 15047 H 2036.99 3.5779 -5.23879 0
M  V30 15048 P 2038.84 3.65191 -7.99657 0
M  V30 15049 O 2040.27 3.89332 -8.45794 0
M  V30 15050 O 2038.48 2.28472 -7.50807 0
M  V30 15051 O 2038.52 4.64972 -6.77611 0
M  V30 15052 C 2038.36 6.06319 -7.16352 0
M  V30 15053 C 2038.9 6.91731 -6.02299 0
M  V30 15054 O 2037.84 6.92449 -5.17064 0
M  V30 15055 C 2040.12 6.43627 -5.25174 0
M  V30 15056 O 2040.86 7.43686 -4.60469 0
M  V30 15057 C 2039.45 5.40275 -4.31916 0
M  V30 15058 O 2040.25 5.25279 -3.14438 0
M  V30 15059 C 2038.11 6.04847 -4.05327 0
M  V30 15060 H 2038.14 6.62195 -3.11261 0
M  V30 15061 H 2039.33 4.42556 -4.81383 0
M  V30 15062 H 2040.81 5.92458 -5.93643 0
M  V30 15063 H 2039.12 7.92655 -6.402 0
M  V30 15064 H 2038.93 6.26671 -8.0846 0
M  V30 15065 H 2037.3 6.29101 -7.32804 0
M  V30 15066 H 2039.94 5.84315 -2.47318 0
M  V30 15067 P 2041.79 7.39546 -4.75277 0
M  V30 15068 O 2043.22 7.84798 -5.01039 0
M  V30 15069 O 2041.43 5.9812 -5.08098 0
M  V30 15070 O 2041.47 7.57503 -3.1866 0
M  V30 15071 C 2041.31 8.97357 -2.74833 0
M  V30 15072 C 2041.85 9.07548 -1.32709 0
M  V30 15073 O 2040.8 8.62072 -0.606159 0
M  V30 15074 C 2043.07 8.25383 -0.938334 0
M  V30 15075 O 2043.81 8.74577 0.146954 0
M  V30 15076 C 2042.4 6.8802 -0.712559 0
M  V30 15077 O 2043.2 6.1189 0.194655 0
M  V30 15078 C 2041.06 7.27966 -0.139777 0
M  V30 15079 H 2041.1 7.25354 0.961601 0
M  V30 15080 H 2042.28 6.32557 -1.65702 0
M  V30 15081 H 2043.76 8.19355 -1.79097 0
M  V30 15082 H 2042.07 10.1294 -1.10029 0
M  V30 15083 H 2041.88 9.64276 -3.41316 0
M  V30 15084 H 2040.25 9.25417 -2.76357 0
M  V30 15085 H 2042.89 6.25267 1.07847 0
M  V30 15086 P 2044.75 8.791 1.75416e-11 0
M  V30 15087 O 2046.17 9.31096 0.027933 0
M  V30 15088 O 2044.39 7.77869 -1.04071 0
M  V30 15089 O 2044.42 8.09533 1.41463 0
M  V30 15090 C 2044.26 9.0349 2.53943 0
M  V30 15091 C 2044.8 8.35226 3.79016 0
M  V30 15092 O 2043.75 7.57992 4.15078 0
M  V30 15093 C 2046.02 7.45087 3.67298 0
M  V30 15094 O 2046.76 7.27796 4.85194 0
M  V30 15095 C 2045.35 6.17323 3.12027 0
M  V30 15096 O 2046.15 5.04231 3.47188 0
M  V30 15097 C 2044.01 6.19961 3.81809 0
M  V30 15098 H 2044.05 5.58218 4.73051 0
M  V30 15099 H 2045.23 6.21726 2.02589 0
M  V30 15100 H 2046.71 7.86112 2.9231 0
M  V30 15101 H 2045.02 9.11627 4.55076 0
M  V30 15102 H 2044.83 9.9573 2.34194 0
M  V30 15103 H 2043.2 9.2792 2.67832 0
M  V30 15104 H 2045.84 4.67702 4.28772 0
M  V30 15105 P 2047.7 7.39546 4.75277 0
M  V30 15106 O 2049.12 7.81777 5.05738 0
M  V30 15107 O 2047.34 7.1065 3.32998 0
M  V30 15108 O 2047.37 6.04542 5.56673 0
M  V30 15109 C 2047.21 6.22772 7.02095 0
M  V30 15110 C 2047.75 4.97725 7.70406 0
M  V30 15111 O 2046.7 4.13256 7.58987 0
M  V30 15112 C 2048.97 4.28231 7.11815 0
M  V30 15113 O 2049.71 3.49945 8.01648 0
M  V30 15114 C 2048.3 3.5063 5.96244 0
M  V30 15115 O 2049.1 2.36482 5.64681 0
M  V30 15116 C 2046.96 3.15122 6.56374 0
M  V30 15117 H 2047 2.13853 6.99751 0
M  V30 15118 H 2048.18 4.13501 5.06559 0
M  V30 15119 H 2049.66 5.03285 6.70911 0
M  V30 15120 H 2047.97 5.20877 8.75697 0
M  V30 15121 H 2047.78 7.11046 7.35349 0
M  V30 15122 H 2046.15 6.35815 7.26986 0
M  V30 15123 H 2048.79 1.61644 6.13565 0
M  V30 15124 P 2050.65 3.65191 7.99657 0
M  V30 15125 O 2052.07 3.8425 8.48115 0
M  V30 15126 O 2050.29 4.17805 6.64342 0
M  V30 15127 O 2050.32 2.07613 7.95143 0
M  V30 15128 C 2050.16 1.44328 9.27336 0
M  V30 15129 C 2050.7 0.0220036 9.17197 0
M  V30 15130 O 2049.65 -0.626867 8.61923 0
M  V30 15131 C 2051.92 -0.24586 8.30336 0
M  V30 15132 O 2052.66 -1.39011 8.63583 0
M  V30 15133 C 2051.25 -0.273849 6.91158 0
M  V30 15134 O 2052.05 -1.06348 6.02892 0
M  V30 15135 C 2049.92 -0.897649 7.22545 0
M  V30 15136 H 2049.95 -1.9841 7.04286 0
M  V30 15137 H 2051.13 0.739928 6.497 0
M  V30 15138 H 2052.61 0.60668 8.36503 0
M  V30 15139 H 2050.92 -0.352479 10.1829 0
M  V30 15140 H 2050.73 2.00611 10.0304 0
M  V30 15141 H 2049.1 1.41843 9.55327 0
M  V30 15142 H 2051.74 -1.95734 6.03555 0
M  V30 15143 P 2053.6 -1.25109 8.70152 0
M  V30 15144 O 2055.02 -1.35274 9.21221 0
M  V30 15145 O 2053.24 -0.0769065 7.84762 0
M  V30 15146 O 2053.27 -2.55232 7.81161 0
M  V30 15147 C 2053.11 -3.79939 8.58154 0
M  V30 15148 C 2053.65 -4.94023 7.72785 0
M  V30 15149 O 2052.6 -5.18726 6.91205 0
M  V30 15150 C 2054.87 -4.69597 6.85231 0
M  V30 15151 O 2055.61 -5.83832 6.51337 0
M  V30 15152 C 2054.2 -3.96706 5.66633 0
M  V30 15153 O 2055 -4.15414 4.49689 0
M  V30 15154 C 2052.87 -4.66153 5.59313 0
M  V30 15155 H 2052.9 -5.47679 4.85214 0
M  V30 15156 H 2054.08 -2.89008 5.86566 0
M  V30 15157 H 2055.56 -4.0121 7.36511 0
M  V30 15158 H 2053.87 -5.80182 8.37584 0
M  V30 15159 H 2053.68 -3.73517 9.52265 0
M  V30 15160 H 2052.05 -3.97163 8.80359 0
M  V30 15161 H 2054.69 -4.90969 4.01921 0
M  V30 15162 P 2056.55 -5.75688 6.64379 0
M  V30 15163 O 2057.97 -6.11849 7.01846 0
M  V30 15164 O 2056.19 -4.30744 6.56026 0
M  V30 15165 O 2056.22 -6.37042 5.19165 0
M  V30 15166 C 2056.06 -7.83578 5.16515 0
M  V30 15167 C 2056.6 -8.33398 3.83019 0
M  V30 15168 O 2055.55 -8.10074 3.01034 0
M  V30 15169 C 2057.82 -7.65514 3.2257 0
M  V30 15170 O 2058.56 -8.4329 2.32297 0
M  V30 15171 C 2057.15 -6.40075 2.62207 0
M  V30 15172 O 2057.95 -5.92589 1.53712 0
M  V30 15173 C 2055.82 -6.9454 2.18503 0
M  V30 15174 H 2055.85 -7.23063 1.12091 0
M  V30 15175 H 2057.03 -5.6025 3.37201 0
M  V30 15176 H 2058.52 -7.35707 4.02681 0
M  V30 15177 H 2056.82 -9.40912 3.9095 0
M  V30 15178 H 2056.63 -8.29056 5.99158 0
M  V30 15179 H 2055 -8.10073 5.25882 0
M  V30 15180 H 2057.64 -6.30324 0.726794 0
M  V30 15181 P 2059.5 -8.4349 2.47671 0
M  V30 15182 O 2060.92 -8.94167 2.5964 0
M  V30 15183 O 2059.14 -7.1704 3.19006 0
M  V30 15184 O 2059.17 -8.16596 0.923387 0
M  V30 15185 C 2059.01 -9.38437 0.108857 0
M  V30 15186 C 2059.55 -9.08175 -1.28353 0
M  V30 15187 O 2058.5 -8.44229 -1.84713 0
M  V30 15188 C 2060.77 -8.18386 -1.42505 0
M  V30 15189 O 2061.51 -8.3501 -2.60497 0
M  V30 15190 C 2060.1 -6.80225 -1.25468 0
M  V30 15191 O 2060.9 -5.81621 -1.91066 0
M  V30 15192 C 2058.77 -7.02416 -1.9168 0
M  V30 15193 H 2058.8 -6.6888 -2.96621 0
M  V30 15194 H 2059.98 -6.53617 -0.192223 0
M  V30 15195 H 2061.47 -8.36622 -0.589963 0
M  V30 15196 H 2059.77 -10.0291 -1.79807 0
M  V30 15197 H 2059.58 -10.2138 0.558219 0
M  V30 15198 H 2057.95 -9.6579 0.0444202 0
M  V30 15199 H 2060.59 -5.69556 -2.79637 0
M  V30 15200 P 2062.45 -8.4349 -2.47671 0
M  V30 15201 O 2063.87 -8.92593 -2.65 0
M  V30 15202 O 2062.09 -7.7568 -1.19296 0
M  V30 15203 O 2062.13 -7.36886 -3.63805 0
M  V30 15204 C 2061.97 -7.95349 -4.982 0
M  V30 15205 C 2062.51 -6.94612 -5.98974 0
M  V30 15206 O 2061.45 -6.10347 -6.11815 0
M  V30 15207 C 2063.72 -6.11426 -5.62335 0
M  V30 15208 O 2064.46 -5.6162 -6.70584 0
M  V30 15209 C 2063.05 -5.04409 -4.73308 0
M  V30 15210 O 2063.85 -3.85992 -4.75183 0
M  V30 15211 C 2061.72 -4.8728 -5.41006 0
M  V30 15212 H 2061.75 -4.02333 -6.11157 0
M  V30 15213 H 2062.93 -5.39466 -3.69543 0
M  V30 15214 H 2064.42 -6.71916 -5.01943 0
M  V30 15215 H 2062.72 -7.4649 -6.93477 0
M  V30 15216 H 2062.53 -8.89416 -5.05237 0
M  V30 15217 H 2060.9 -8.14876 -5.18409 0
M  V30 15218 H 2063.54 -3.27957 -5.4317 0
M  V30 15219 P 2065.4 -5.75688 -6.64379 0
M  V30 15220 O 2066.82 -6.07627 -7.05504 0
M  V30 15221 O 2065.04 -5.88047 -5.19722 0
M  V30 15222 O 2065.08 -4.2322 -7.04443 0
M  V30 15223 C 2064.92 -3.99743 -8.4911 0
M  V30 15224 C 2065.46 -2.60516 -8.79425 0
M  V30 15225 O 2064.4 -1.82684 -8.4467 0
M  V30 15226 C 2066.67 -2.10343 -8.03628 0
M  V30 15227 O 2067.41 -1.09919 -8.67766 0
M  V30 15228 C 2066 -1.68446 -6.70876 0
M  V30 15229 O 2066.8 -0.678137 -6.08433 0
M  V30 15230 C 2064.67 -1.17436 -7.18567 0
M  V30 15231 H 2064.7 -0.0804732 -7.31656 0
M  V30 15232 H 2065.88 -2.54037 -6.02537 0
M  V30 15233 H 2067.37 -2.93881 -7.85526 0
M  V30 15234 H 2065.67 -2.53065 -9.86973 0
M  V30 15235 H 2065.48 -4.75072 -9.05887 0
M  V30 15236 H 2063.85 -4.05244 -8.76668 0
M  V30 15237 H 2066.49 0.177647 -6.34251 0
M  V30 15238 P 2068.35 -1.25109 -8.70152 0
M  V30 15239 O 2069.77 -1.29744 -9.22016 0
M  V30 15240 O 2067.99 -2.13714 -7.55141 0
M  V30 15241 O 2068.03 0.248149 -8.21425 0
M  V30 15242 C 2067.87 1.22779 -9.30434 0
M  V30 15243 C 2068.41 2.56293 -8.80664 0
M  V30 15244 O 2067.35 3.02979 -8.09349 0
M  V30 15245 C 2069.62 2.57523 -7.89775 0
M  V30 15246 O 2070.36 3.7668 -7.89438 0
M  V30 15247 C 2068.96 2.20997 -6.55446 0
M  V30 15248 O 2069.75 2.71895 -5.48509 0
M  V30 15249 C 2067.62 2.89693 -6.67988 0
M  V30 15250 H 2067.65 3.88793 -6.19859 0
M  V30 15251 H 2068.83 1.12046 -6.44229 0
M  V30 15252 H 2070.32 1.7746 -8.19711 0
M  V30 15253 H 2068.62 3.20706 -9.67112 0
M  V30 15254 H 2068.43 0.901032 -10.1892 0
M  V30 15255 H 2066.8 1.33049 -9.56592 0
M  V30 15256 H 2069.44 3.57847 -5.23962 0
M  V30 15257 P 2071.3 3.65191 -7.99657 0
M  V30 15258 O 2072.72 3.89374 -8.45885 0
M  V30 15259 O 2070.94 2.28472 -7.50807 0
M  V30 15260 O 2070.98 4.64972 -6.77611 0
M  V30 15261 C 2070.82 6.06383 -7.16428 0
M  V30 15262 C 2071.36 6.91731 -6.02299 0
M  V30 15263 O 2070.3 6.92369 -5.17005 0
M  V30 15264 C 2072.58 6.43627 -5.25174 0
M  V30 15265 O 2073.31 7.43686 -4.60469 0
M  V30 15266 C 2071.91 5.40275 -4.31916 0
M  V30 15267 O 2072.71 5.24878 -3.14911 0
M  V30 15268 C 2070.57 6.04847 -4.05327 0
M  V30 15269 N 2069.53 5.04166 -3.98114 0
M  V30 15270 C 2069.7 3.84629 -4.59066 0
M  V30 15271 N 2068.67 3.0363 -4.45343 0
M  V30 15272 C 2067.78 3.76722 -3.68523 0
M  V30 15273 C 2066.52 3.43528 -3.17088 0
M  V30 15274 N 2065.92 2.23665 -3.37397 0
M  V30 15275 N 2065.95 4.44526 -2.44231 0
M  V30 15276 C 2066.55 5.65243 -2.20146 0
M  V30 15277 N 2067.73 6.00221 -2.65453 0
M  V30 15278 C 2068.31 5.00564 -3.39083 0
M  V30 15279 H 2070.6 6.62104 -3.11218 0
M  V30 15280 H 2071.78 4.42969 -4.80867 0
M  V30 15281 H 2073.27 5.92458 -5.93643 0
M  V30 15282 H 2071.57 7.93295 -6.39407 0
M  V30 15283 H 2071.38 6.26671 -8.0846 0
M  V30 15284 H 2069.75 6.29101 -7.32804 0
M  V30 15285 H 2066.02 6.36894 -1.5883 0
M  V30 15286 H 2070.6 3.58193 -5.14248 0
M  V30 15287 H 2064.99 2.05145 -2.97047 0
M  V30 15288 H 2066.39 1.51255 -3.92998 0
M  V30 15289 H 2072.39 5.84223 -2.47279 0
M  V30 15290 P 2074.25 7.39546 -4.75277 0
M  V30 15291 O 2075.67 7.84798 -5.01039 0
M  V30 15292 O 2073.89 5.9812 -5.08098 0
M  V30 15293 O 2073.93 7.57503 -3.1866 0
M  V30 15294 C 2073.77 8.97357 -2.74833 0
M  V30 15295 C 2074.31 9.07548 -1.32709 0
M  V30 15296 O 2073.25 8.62072 -0.606159 0
M  V30 15297 C 2075.53 8.25383 -0.938334 0
M  V30 15298 O 2076.26 8.74577 0.146954 0
M  V30 15299 C 2074.86 6.8802 -0.712559 0
M  V30 15300 O 2075.66 6.1189 0.194655 0
M  V30 15301 C 2073.52 7.27966 -0.139777 0
M  V30 15302 H 2073.55 7.25354 0.961601 0
M  V30 15303 H 2074.73 6.32557 -1.65702 0
M  V30 15304 H 2076.22 8.19355 -1.79097 0
M  V30 15305 H 2074.52 10.1294 -1.10029 0
M  V30 15306 H 2074.33 9.64276 -3.41316 0
M  V30 15307 H 2072.7 9.25417 -2.76357 0
M  V30 15308 H 2075.34 6.25267 1.07847 0
M  V30 15309 P 2077.2 8.791 1.78518e-11 0
M  V30 15310 O 2078.62 9.31196 0.027936 0
M  V30 15311 O 2076.84 7.77869 -1.04071 0
M  V30 15312 O 2076.88 8.09533 1.41463 0
M  V30 15313 C 2076.72 9.03587 2.5397 0
M  V30 15314 C 2077.26 8.35226 3.79016 0
M  V30 15315 O 2076.2 7.57904 4.1503 0
M  V30 15316 C 2078.48 7.45087 3.67298 0
M  V30 15317 O 2079.21 7.27796 4.85194 0
M  V30 15318 C 2077.81 6.17323 3.12027 0
M  V30 15319 O 2078.61 5.04496 3.46627 0
M  V30 15320 C 2076.47 6.19961 3.81809 0
M  V30 15321 N 2075.43 5.71575 2.93223 0
M  V30 15322 C 2075.6 5.77362 1.59168 0
M  V30 15323 N 2074.57 5.3123 0.911893 0
M  V30 15324 C 2073.68 4.91717 1.89588 0
M  V30 15325 C 2072.42 4.3114 1.8076 0
M  V30 15326 N 2071.85 4.06823 3.02898 0
M  V30 15327 C 2072.45 4.35062 4.22711 0
M  V30 15328 N 2073.63 4.90805 4.35707 0
M  V30 15329 C 2074.21 5.16382 3.14469 0
M  V30 15330 H 2077.69 6.21428 2.0318 0
M  V30 15331 H 2079.17 7.86112 2.9231 0
M  V30 15332 H 2077.47 9.11171 4.55987 0
M  V30 15333 H 2077.28 9.9573 2.34194 0
M  V30 15334 H 2075.65 9.2792 2.67832 0
M  V30 15335 H 2076.5 6.16575 1.12198 0
M  V30 15336 H 2078.29 4.67628 4.28704 0
M  V30 15337 P 2080.15 7.39546 4.75277 0
M  V30 15338 O 2081.57 7.81861 5.05793 0
M  V30 15339 O 2079.79 7.1065 3.32998 0
M  V30 15340 O 2079.83 6.04542 5.56673 0
M  V30 15341 C 2079.67 6.22839 7.02169 0
M  V30 15342 C 2080.21 4.97725 7.70406 0
M  V30 15343 O 2079.15 4.13208 7.58899 0
M  V30 15344 C 2081.43 4.28231 7.11815 0
M  V30 15345 O 2082.16 3.49945 8.01648 0
M  V30 15346 C 2080.76 3.5063 5.96244 0
M  V30 15347 O 2081.56 2.37008 5.64352 0
M  V30 15348 C 2079.42 3.15122 6.56374 0
M  V30 15349 N 2078.38 3.22311 5.55692 0
M  V30 15350 C 2078.55 3.99655 4.46046 0
M  V30 15351 N 2077.52 3.97599 3.63918 0
M  V30 15352 C 2076.63 3.11159 4.25334 0
M  V30 15353 C 2075.37 2.64972 3.85157 0
M  V30 15354 N 2074.77 3.02132 2.69405 0
M  V30 15355 N 2074.8 1.78482 4.74759 0
M  V30 15356 C 2075.4 1.37463 5.90819 0
M  V30 15357 N 2076.58 1.7733 6.31889 0
M  V30 15358 C 2077.16 2.64393 5.43725 0
M  V30 15359 H 2079.45 2.13823 6.99656 0
M  V30 15360 H 2080.64 4.12931 5.06895 0
M  V30 15361 H 2082.12 5.03285 6.70911 0
M  V30 15362 H 2080.42 5.20001 8.76217 0
M  V30 15363 H 2080.23 7.11046 7.35349 0
M  V30 15364 H 2078.6 6.35815 7.26986 0
M  V30 15365 H 2074.87 0.66574 6.53015 0
M  V30 15366 H 2079.45 4.58037 4.27732 0
M  V30 15367 H 2073.84 2.64828 2.45331 0
M  V30 15368 H 2075.24 3.67472 2.05644 0
M  V30 15369 H 2081.24 1.61619 6.13468 0
M  V30 15370 P 2083.1 3.65191 7.99657 0
M  V30 15371 O 2084.52 3.8425 8.48115 0
M  V30 15372 O 2082.74 4.17805 6.64342 0
M  V30 15373 O 2082.78 2.07613 7.95143 0
M  V30 15374 C 2082.62 1.44328 9.27336 0
M  V30 15375 C 2083.16 0.0220036 9.17197 0
M  V30 15376 O 2082.1 -0.626867 8.61923 0
M  V30 15377 C 2084.38 -0.24586 8.30336 0
M  V30 15378 O 2085.12 -1.39011 8.63583 0
M  V30 15379 C 2083.71 -0.273849 6.91158 0
M  V30 15380 O 2084.51 -1.06348 6.02892 0
M  V30 15381 C 2082.37 -0.897649 7.22545 0
M  V30 15382 H 2082.4 -1.9841 7.04286 0
M  V30 15383 H 2083.59 0.739928 6.497 0
M  V30 15384 H 2085.07 0.60668 8.36503 0
M  V30 15385 H 2083.38 -0.352479 10.1829 0
M  V30 15386 H 2083.19 2.00611 10.0304 0
M  V30 15387 H 2081.56 1.41843 9.55327 0
M  V30 15388 H 2084.2 -1.95734 6.03555 0
M  V30 15389 P 2086.05 -1.25109 8.70152 0
M  V30 15390 O 2087.47 -1.35303 9.21419 0
M  V30 15391 O 2085.69 -0.0769065 7.84762 0
M  V30 15392 O 2085.73 -2.55232 7.81161 0
M  V30 15393 C 2085.57 -3.79939 8.58154 0
M  V30 15394 C 2086.11 -4.93969 7.72701 0
M  V30 15395 O 2085.05 -5.18726 6.91205 0
M  V30 15396 C 2087.33 -4.69597 6.85231 0
M  V30 15397 O 2088.07 -5.83832 6.51337 0
M  V30 15398 C 2086.66 -3.96706 5.66633 0
M  V30 15399 O 2087.46 -4.15346 4.49615 0
M  V30 15400 C 2085.32 -4.66153 5.59313 0
M  V30 15401 N 2084.28 -3.71582 5.24027 0
M  V30 15402 C 2084.34 -2.46018 5.67902 0
M  V30 15403 N 2083.3 -1.74868 5.24518 0
M  V30 15404 C 2082.56 -2.61333 4.54528 0
M  V30 15405 C 2081.26 -2.46162 3.95441 0
M  V30 15406 O 2080.52 -1.46013 3.94122 0
M  V30 15407 N 2080.83 -3.59334 3.34752 0
M  V30 15408 C 2081.57 -4.79605 3.3023 0
M  V30 15409 N 2080.98 -5.82109 2.6065 0
M  V30 15410 N 2082.73 -4.97402 3.8843 0
M  V30 15411 C 2083.18 -3.86258 4.50476 0
M  V30 15412 H 2085.35 -5.47679 4.85214 0
M  V30 15413 H 2086.54 -2.88964 5.86476 0
M  V30 15414 H 2088.02 -4.01947 7.36109 0
M  V30 15415 H 2086.33 -5.80182 8.37584 0
M  V30 15416 H 2086.14 -3.73517 9.52265 0
M  V30 15417 H 2084.51 -3.97163 8.80359 0
M  V30 15418 H 2079.93 -3.5825 2.90294 0
M  V30 15419 H 2085.14 -2.06161 6.30974 0
M  V30 15420 H 2080.07 -5.66979 2.15354 0
M  V30 15421 H 2081.44 -6.73686 2.54344 0
M  V30 15422 H 2087.15 -4.90891 4.01857 0
M  V30 15423 P 2089 -5.75688 6.64379 0
M  V30 15424 O 2090.43 -6.11849 7.01846 0
M  V30 15425 O 2088.64 -4.30744 6.56026 0
M  V30 15426 O 2088.68 -6.37042 5.19165 0
M  V30 15427 C 2088.52 -7.83578 5.16515 0
M  V30 15428 C 2089.06 -8.33398 3.83019 0
M  V30 15429 O 2088 -8.10074 3.01034 0
M  V30 15430 C 2090.28 -7.65514 3.2257 0
M  V30 15431 O 2091.02 -8.4329 2.32297 0
M  V30 15432 C 2089.61 -6.40075 2.62207 0
M  V30 15433 O 2090.41 -5.92589 1.53712 0
M  V30 15434 C 2088.27 -6.9454 2.18503 0
M  V30 15435 H 2088.3 -7.23063 1.12091 0
M  V30 15436 H 2089.49 -5.6025 3.37201 0
M  V30 15437 H 2090.97 -7.35707 4.02681 0
M  V30 15438 H 2089.28 -9.40912 3.9095 0
M  V30 15439 H 2089.09 -8.29056 5.99158 0
M  V30 15440 H 2087.46 -8.10073 5.25882 0
M  V30 15441 H 2090.1 -6.30324 0.726794 0
M  V30 15442 P 2091.95 -8.4349 2.47671 0
M  V30 15443 O 2093.38 -8.94167 2.5964 0
M  V30 15444 O 2091.59 -7.1704 3.19006 0
M  V30 15445 O 2091.63 -8.16596 0.923387 0
M  V30 15446 C 2091.47 -9.38437 0.108857 0
M  V30 15447 C 2092.01 -9.08175 -1.28353 0
M  V30 15448 O 2090.96 -8.44229 -1.84713 0
M  V30 15449 C 2093.23 -8.18386 -1.42505 0
M  V30 15450 O 2093.97 -8.3501 -2.60497 0
M  V30 15451 C 2092.56 -6.80225 -1.25468 0
M  V30 15452 O 2093.36 -5.81621 -1.91066 0
M  V30 15453 C 2091.22 -7.02416 -1.9168 0
M  V30 15454 H 2091.26 -6.6888 -2.96621 0
M  V30 15455 H 2092.44 -6.53617 -0.192223 0
M  V30 15456 H 2093.92 -8.36622 -0.589963 0
M  V30 15457 H 2092.23 -10.0291 -1.79807 0
M  V30 15458 H 2092.04 -10.2138 0.558219 0
M  V30 15459 H 2090.41 -9.6579 0.0444202 0
M  V30 15460 H 2093.05 -5.69556 -2.79637 0
M  V30 15461 P 2094.9 -8.4349 -2.47671 0
M  V30 15462 O 2096.33 -8.92593 -2.65 0
M  V30 15463 O 2094.54 -7.7568 -1.19296 0
M  V30 15464 O 2094.58 -7.36886 -3.63805 0
M  V30 15465 C 2094.42 -7.95349 -4.982 0
M  V30 15466 C 2094.96 -6.94612 -5.98974 0
M  V30 15467 O 2093.91 -6.10347 -6.11815 0
M  V30 15468 C 2096.18 -6.11426 -5.62335 0
M  V30 15469 O 2096.92 -5.6162 -6.70584 0
M  V30 15470 C 2095.51 -5.04409 -4.73308 0
M  V30 15471 O 2096.31 -3.85992 -4.75183 0
M  V30 15472 C 2094.17 -4.8728 -5.41006 0
M  V30 15473 H 2094.21 -4.02333 -6.11157 0
M  V30 15474 H 2095.39 -5.39466 -3.69543 0
M  V30 15475 H 2096.87 -6.71916 -5.01943 0
M  V30 15476 H 2095.18 -7.4649 -6.93477 0
M  V30 15477 H 2094.99 -8.89416 -5.05237 0
M  V30 15478 H 2093.36 -8.14876 -5.18409 0
M  V30 15479 H 2096 -3.27957 -5.4317 0
M  V30 15480 P 2097.86 -5.75688 -6.64379 0
M  V30 15481 O 2099.28 -6.07627 -7.05504 0
M  V30 15482 O 2097.5 -5.88047 -5.19722 0
M  V30 15483 O 2097.53 -4.2322 -7.04443 0
M  V30 15484 C 2097.37 -3.99743 -8.4911 0
M  V30 15485 C 2097.91 -2.60516 -8.79425 0
M  V30 15486 O 2096.86 -1.82684 -8.4467 0
M  V30 15487 C 2099.13 -2.10343 -8.03628 0
M  V30 15488 O 2099.87 -1.09919 -8.67766 0
M  V30 15489 C 2098.46 -1.68446 -6.70876 0
M  V30 15490 O 2099.26 -0.678137 -6.08433 0
M  V30 15491 C 2097.12 -1.17436 -7.18567 0
M  V30 15492 H 2097.16 -0.0804732 -7.31656 0
M  V30 15493 H 2098.34 -2.54037 -6.02537 0
M  V30 15494 H 2099.82 -2.93881 -7.85526 0
M  V30 15495 H 2098.13 -2.53065 -9.86973 0
M  V30 15496 H 2097.94 -4.75072 -9.05887 0
M  V30 15497 H 2096.31 -4.05244 -8.76668 0
M  V30 15498 H 2098.95 0.177647 -6.34251 0
M  V30 15499 P 2100.81 -1.25109 -8.70152 0
M  V30 15500 O 2102.23 -1.29744 -9.22016 0
M  V30 15501 O 2100.45 -2.13714 -7.55141 0
M  V30 15502 O 2100.48 0.248149 -8.21425 0
M  V30 15503 C 2100.32 1.22779 -9.30434 0
M  V30 15504 C 2100.86 2.56293 -8.80664 0
M  V30 15505 O 2099.81 3.02979 -8.09349 0
M  V30 15506 C 2102.08 2.57523 -7.89775 0
M  V30 15507 O 2102.82 3.7668 -7.89438 0
M  V30 15508 C 2101.41 2.20997 -6.55446 0
M  V30 15509 O 2102.21 2.71895 -5.48509 0
M  V30 15510 C 2100.07 2.89693 -6.67988 0
M  V30 15511 H 2100.11 3.88793 -6.19859 0
M  V30 15512 H 2101.29 1.12046 -6.44229 0
M  V30 15513 H 2102.77 1.7746 -8.19711 0
M  V30 15514 H 2101.08 3.20706 -9.67112 0
M  V30 15515 H 2100.89 0.901032 -10.1892 0
M  V30 15516 H 2099.26 1.33049 -9.56592 0
M  V30 15517 H 2101.9 3.57847 -5.23962 0
M  V30 15518 P 2103.76 3.65191 -7.99657 0
M  V30 15519 O 2105.18 3.89332 -8.45794 0
M  V30 15520 O 2103.4 2.28472 -7.50807 0
M  V30 15521 O 2103.43 4.64972 -6.77611 0
M  V30 15522 C 2103.27 6.06319 -7.16352 0
M  V30 15523 C 2103.81 6.91731 -6.02299 0
M  V30 15524 O 2102.76 6.92449 -5.17064 0
M  V30 15525 C 2105.03 6.43627 -5.25174 0
M  V30 15526 O 2105.77 7.43686 -4.60469 0
M  V30 15527 C 2104.36 5.40275 -4.31916 0
M  V30 15528 O 2105.16 5.25279 -3.14438 0
M  V30 15529 C 2103.03 6.04847 -4.05327 0
M  V30 15530 H 2103.06 6.62195 -3.11261 0
M  V30 15531 H 2104.24 4.42556 -4.81383 0
M  V30 15532 H 2105.72 5.92458 -5.93643 0
M  V30 15533 H 2104.03 7.92655 -6.402 0
M  V30 15534 H 2103.84 6.26671 -8.0846 0
M  V30 15535 H 2102.21 6.29101 -7.32804 0
M  V30 15536 H 2104.85 5.84315 -2.47318 0
M  V30 15537 P 2106.71 7.39546 -4.75277 0
M  V30 15538 O 2108.13 7.84798 -5.01039 0
M  V30 15539 O 2106.35 5.9812 -5.08098 0
M  V30 15540 O 2106.38 7.57503 -3.1866 0
M  V30 15541 C 2106.22 8.97357 -2.74833 0
M  V30 15542 C 2106.76 9.07548 -1.32709 0
M  V30 15543 O 2105.71 8.62072 -0.606159 0
M  V30 15544 C 2107.98 8.25383 -0.938334 0
M  V30 15545 O 2108.72 8.74577 0.146954 0
M  V30 15546 C 2107.31 6.8802 -0.712559 0
M  V30 15547 O 2108.11 6.1189 0.194655 0
M  V30 15548 C 2105.98 7.27966 -0.139777 0
M  V30 15549 H 2106.01 7.25354 0.961601 0
M  V30 15550 H 2107.19 6.32557 -1.65702 0
M  V30 15551 H 2108.67 8.19355 -1.79097 0
M  V30 15552 H 2106.98 10.1294 -1.10029 0
M  V30 15553 H 2106.79 9.64276 -3.41316 0
M  V30 15554 H 2105.16 9.25417 -2.76357 0
M  V30 15555 H 2107.8 6.25267 1.07847 0
M  V30 15556 P 2109.66 8.791 1.81619e-11 0
M  V30 15557 O 2111.08 9.31096 0.027933 0
M  V30 15558 O 2109.3 7.77869 -1.04071 0
M  V30 15559 O 2109.33 8.09533 1.41463 0
M  V30 15560 C 2109.17 9.0349 2.53943 0
M  V30 15561 C 2109.71 8.35226 3.79016 0
M  V30 15562 O 2108.66 7.57992 4.15078 0
M  V30 15563 C 2110.93 7.45087 3.67298 0
M  V30 15564 O 2111.67 7.27796 4.85194 0
M  V30 15565 C 2110.26 6.17323 3.12027 0
M  V30 15566 O 2111.06 5.04231 3.47188 0
M  V30 15567 C 2108.93 6.19961 3.81809 0
M  V30 15568 H 2108.96 5.58218 4.73051 0
M  V30 15569 H 2110.14 6.21726 2.02589 0
M  V30 15570 H 2111.63 7.86112 2.9231 0
M  V30 15571 H 2109.93 9.11627 4.55076 0
M  V30 15572 H 2109.74 9.9573 2.34194 0
M  V30 15573 H 2108.11 9.2792 2.67832 0
M  V30 15574 H 2110.75 4.67702 4.28772 0
M  V30 15575 P 2112.61 7.39546 4.75277 0
M  V30 15576 O 2114.03 7.81777 5.05738 0
M  V30 15577 O 2112.25 7.1065 3.32998 0
M  V30 15578 O 2112.29 6.04542 5.56673 0
M  V30 15579 C 2112.13 6.22772 7.02095 0
M  V30 15580 C 2112.67 4.97725 7.70406 0
M  V30 15581 O 2111.61 4.13256 7.58987 0
M  V30 15582 C 2113.88 4.28231 7.11815 0
M  V30 15583 O 2114.62 3.49945 8.01648 0
M  V30 15584 C 2113.21 3.5063 5.96244 0
M  V30 15585 O 2114.01 2.36482 5.64681 0
M  V30 15586 C 2111.88 3.15122 6.56374 0
M  V30 15587 H 2111.91 2.13853 6.99751 0
M  V30 15588 H 2113.09 4.13501 5.06559 0
M  V30 15589 H 2114.58 5.03285 6.70911 0
M  V30 15590 H 2112.88 5.20877 8.75697 0
M  V30 15591 H 2112.69 7.11046 7.35349 0
M  V30 15592 H 2111.06 6.35815 7.26986 0
M  V30 15593 H 2113.7 1.61644 6.13565 0
M  V30 15594 P 2115.56 3.65191 7.99657 0
M  V30 15595 O 2116.98 3.8425 8.48115 0
M  V30 15596 O 2115.2 4.17805 6.64342 0
M  V30 15597 O 2115.24 2.07613 7.95143 0
M  V30 15598 C 2115.08 1.44328 9.27336 0
M  V30 15599 C 2115.62 0.0220036 9.17197 0
M  V30 15600 O 2114.56 -0.626867 8.61923 0
M  V30 15601 C 2116.83 -0.24586 8.30336 0
M  V30 15602 O 2117.57 -1.39011 8.63583 0
M  V30 15603 C 2116.16 -0.273849 6.91158 0
M  V30 15604 O 2116.96 -1.06348 6.02892 0
M  V30 15605 C 2114.83 -0.897649 7.22545 0
M  V30 15606 H 2114.86 -1.9841 7.04286 0
M  V30 15607 H 2116.04 0.739928 6.497 0
M  V30 15608 H 2117.53 0.60668 8.36503 0
M  V30 15609 H 2115.83 -0.352479 10.1829 0
M  V30 15610 H 2115.64 2.00611 10.0304 0
M  V30 15611 H 2114.01 1.41843 9.55327 0
M  V30 15612 H 2116.65 -1.95734 6.03555 0
M  V30 15613 P 2118.51 -1.25109 8.70152 0
M  V30 15614 O 2119.93 -1.35274 9.21221 0
M  V30 15615 O 2118.15 -0.0769065 7.84762 0
M  V30 15616 O 2118.19 -2.55232 7.81161 0
M  V30 15617 C 2118.03 -3.79939 8.58154 0
M  V30 15618 C 2118.57 -4.94023 7.72785 0
M  V30 15619 O 2117.51 -5.18726 6.91205 0
M  V30 15620 C 2119.78 -4.69597 6.85231 0
M  V30 15621 O 2120.52 -5.83832 6.51337 0
M  V30 15622 C 2119.12 -3.96706 5.66633 0
M  V30 15623 O 2119.91 -4.15414 4.49689 0
M  V30 15624 C 2117.78 -4.66153 5.59313 0
M  V30 15625 H 2117.81 -5.47679 4.85214 0
M  V30 15626 H 2118.99 -2.89008 5.86566 0
M  V30 15627 H 2120.48 -4.0121 7.36511 0
M  V30 15628 H 2118.78 -5.80182 8.37584 0
M  V30 15629 H 2118.59 -3.73517 9.52265 0
M  V30 15630 H 2116.96 -3.97163 8.80359 0
M  V30 15631 H 2119.6 -4.90969 4.01921 0
M  V30 15632 P 2121.46 -5.75688 6.64379 0
M  V30 15633 O 2122.88 -6.11849 7.01846 0
M  V30 15634 O 2121.1 -4.30744 6.56026 0
M  V30 15635 O 2121.14 -6.37042 5.19165 0
M  V30 15636 C 2120.98 -7.83578 5.16515 0
M  V30 15637 C 2121.52 -8.33398 3.83019 0
M  V30 15638 O 2120.46 -8.10074 3.01034 0
M  V30 15639 C 2122.73 -7.65514 3.2257 0
M  V30 15640 O 2123.47 -8.4329 2.32297 0
M  V30 15641 C 2122.07 -6.40075 2.62207 0
M  V30 15642 O 2122.86 -5.92589 1.53712 0
M  V30 15643 C 2120.73 -6.9454 2.18503 0
M  V30 15644 H 2120.76 -7.23063 1.12091 0
M  V30 15645 H 2121.94 -5.6025 3.37201 0
M  V30 15646 H 2123.43 -7.35707 4.02681 0
M  V30 15647 H 2121.73 -9.40912 3.9095 0
M  V30 15648 H 2121.54 -8.29056 5.99158 0
M  V30 15649 H 2119.91 -8.10073 5.25882 0
M  V30 15650 H 2122.55 -6.30324 0.726794 0
M  V30 15651 P 2124.41 -8.4349 2.47671 0
M  V30 15652 O 2125.83 -8.94167 2.5964 0
M  V30 15653 O 2124.05 -7.1704 3.19006 0
M  V30 15654 O 2124.09 -8.16596 0.923387 0
M  V30 15655 C 2123.93 -9.38437 0.108857 0
M  V30 15656 C 2124.47 -9.08175 -1.28353 0
M  V30 15657 O 2123.41 -8.44229 -1.84713 0
M  V30 15658 C 2125.69 -8.18386 -1.42505 0
M  V30 15659 O 2126.42 -8.3501 -2.60497 0
M  V30 15660 C 2125.02 -6.80225 -1.25468 0
M  V30 15661 O 2125.82 -5.81621 -1.91066 0
M  V30 15662 C 2123.68 -7.02416 -1.9168 0
M  V30 15663 H 2123.71 -6.6888 -2.96621 0
M  V30 15664 H 2124.89 -6.53617 -0.192223 0
M  V30 15665 H 2126.38 -8.36622 -0.589963 0
M  V30 15666 H 2124.68 -10.0291 -1.79807 0
M  V30 15667 H 2124.49 -10.2138 0.558219 0
M  V30 15668 H 2122.86 -9.6579 0.0444202 0
M  V30 15669 H 2125.5 -5.69556 -2.79637 0
M  V30 15670 P 2127.36 -8.4349 -2.47671 0
M  V30 15671 O 2128.78 -8.92785 -2.65057 0
M  V30 15672 O 2127 -7.7568 -1.19296 0
M  V30 15673 O 2127.04 -7.36886 -3.63805 0
M  V30 15674 C 2126.88 -7.95349 -4.982 0
M  V30 15675 C 2127.42 -6.94537 -5.98908 0
M  V30 15676 O 2126.36 -6.10347 -6.11815 0
M  V30 15677 C 2128.64 -6.11426 -5.62335 0
M  V30 15678 O 2129.37 -5.6162 -6.70584 0
M  V30 15679 C 2127.97 -5.04409 -4.73308 0
M  V30 15680 O 2128.77 -3.85929 -4.75106 0
M  V30 15681 C 2126.63 -4.8728 -5.41006 0
M  V30 15682 N 2125.59 -4.65812 -4.42377 0
M  V30 15683 C 2125.65 -5.27109 -3.24335 0
M  V30 15684 N 2124.6 -4.94293 -2.47735 0
M  V30 15685 C 2123.87 -4.1271 -3.23359 0
M  V30 15686 C 2122.56 -3.56384 -2.99934 0
M  V30 15687 O 2121.83 -3.69331 -2.00616 0
M  V30 15688 N 2122.13 -2.80206 -4.03316 0
M  V30 15689 C 2122.88 -2.58614 -5.2172 0
M  V30 15690 N 2122.29 -1.75154 -6.13278 0
M  V30 15691 N 2124.04 -3.13689 -5.47619 0
M  V30 15692 C 2124.49 -3.90921 -4.46436 0
M  V30 15693 H 2126.66 -4.02333 -6.11157 0
M  V30 15694 H 2127.84 -5.39383 -3.69487 0
M  V30 15695 H 2129.33 -6.71414 -5.02615 0
M  V30 15696 H 2127.63 -7.4649 -6.93477 0
M  V30 15697 H 2127.44 -8.89416 -5.05237 0
M  V30 15698 H 2125.81 -8.14876 -5.18409 0
M  V30 15699 H 2121.24 -2.36355 -3.95916 0
M  V30 15700 H 2126.44 -5.95212 -2.93859 0
M  V30 15701 H 2121.37 -1.32473 -5.91856 0
M  V30 15702 H 2122.75 -1.5588 -7.03026 0
M  V30 15703 H 2128.45 -3.27906 -5.43085 0
M  V30 15704 P 2130.31 -5.75688 -6.64379 0
M  V30 15705 O 2131.73 -6.07627 -7.05504 0
M  V30 15706 O 2129.95 -5.88047 -5.19722 0
M  V30 15707 O 2129.99 -4.2322 -7.04443 0
M  V30 15708 C 2129.83 -3.99743 -8.4911 0
M  V30 15709 C 2130.37 -2.60516 -8.79425 0
M  V30 15710 O 2129.31 -1.82684 -8.4467 0
M  V30 15711 C 2131.59 -2.10343 -8.03628 0
M  V30 15712 O 2132.32 -1.09919 -8.67766 0
M  V30 15713 C 2130.92 -1.68446 -6.70876 0
M  V30 15714 O 2131.72 -0.678137 -6.08433 0
M  V30 15715 C 2129.58 -1.17436 -7.18567 0
M  V30 15716 H 2129.61 -0.0804732 -7.31656 0
M  V30 15717 H 2130.8 -2.54037 -6.02537 0
M  V30 15718 H 2132.28 -2.93881 -7.85526 0
M  V30 15719 H 2130.59 -2.53065 -9.86973 0
M  V30 15720 H 2130.4 -4.75072 -9.05887 0
M  V30 15721 H 2128.77 -4.05244 -8.76668 0
M  V30 15722 H 2131.4 0.177647 -6.34251 0
M  V30 15723 P 2133.26 -1.25109 -8.70152 0
M  V30 15724 O 2134.68 -1.29744 -9.22016 0
M  V30 15725 O 2132.9 -2.13714 -7.55141 0
M  V30 15726 O 2132.94 0.248149 -8.21425 0
M  V30 15727 C 2132.78 1.22779 -9.30434 0
M  V30 15728 C 2133.32 2.56293 -8.80664 0
M  V30 15729 O 2132.26 3.02979 -8.09349 0
M  V30 15730 C 2134.54 2.57523 -7.89775 0
M  V30 15731 O 2135.28 3.7668 -7.89438 0
M  V30 15732 C 2133.87 2.20997 -6.55446 0
M  V30 15733 O 2134.67 2.71895 -5.48509 0
M  V30 15734 C 2132.53 2.89693 -6.67988 0
M  V30 15735 H 2132.56 3.88793 -6.19859 0
M  V30 15736 H 2133.75 1.12046 -6.44229 0
M  V30 15737 H 2135.23 1.7746 -8.19711 0
M  V30 15738 H 2133.54 3.20706 -9.67112 0
M  V30 15739 H 2133.35 0.901032 -10.1892 0
M  V30 15740 H 2131.72 1.33049 -9.56592 0
M  V30 15741 H 2134.36 3.57847 -5.23962 0
M  V30 15742 P 2136.21 3.65191 -7.99657 0
M  V30 15743 O 2137.63 3.89332 -8.45794 0
M  V30 15744 O 2135.85 2.28472 -7.50807 0
M  V30 15745 O 2135.89 4.64972 -6.77611 0
M  V30 15746 C 2135.73 6.06319 -7.16352 0
M  V30 15747 C 2136.27 6.91731 -6.02299 0
M  V30 15748 O 2135.21 6.92449 -5.17064 0
M  V30 15749 C 2137.49 6.43627 -5.25174 0
M  V30 15750 O 2138.23 7.43686 -4.60469 0
M  V30 15751 C 2136.82 5.40275 -4.31916 0
M  V30 15752 O 2137.62 5.25279 -3.14438 0
M  V30 15753 C 2135.48 6.04847 -4.05327 0
M  V30 15754 H 2135.51 6.62195 -3.11261 0
M  V30 15755 H 2136.7 4.42556 -4.81383 0
M  V30 15756 H 2138.18 5.92458 -5.93643 0
M  V30 15757 H 2136.49 7.92655 -6.402 0
M  V30 15758 H 2136.3 6.26671 -8.0846 0
M  V30 15759 H 2134.67 6.29101 -7.32804 0
M  V30 15760 H 2137.31 5.84315 -2.47318 0
M  V30 15761 P 2139.16 7.39546 -4.75277 0
M  V30 15762 O 2140.59 7.84798 -5.01039 0
M  V30 15763 O 2138.8 5.9812 -5.08098 0
M  V30 15764 O 2138.84 7.57503 -3.1866 0
M  V30 15765 C 2138.68 8.97357 -2.74833 0
M  V30 15766 C 2139.22 9.07548 -1.32709 0
M  V30 15767 O 2138.16 8.62072 -0.606159 0
M  V30 15768 C 2140.44 8.25383 -0.938334 0
M  V30 15769 O 2141.18 8.74577 0.146954 0
M  V30 15770 C 2139.77 6.8802 -0.712559 0
M  V30 15771 O 2140.57 6.1189 0.194655 0
M  V30 15772 C 2138.43 7.27966 -0.139777 0
M  V30 15773 H 2138.46 7.25354 0.961601 0
M  V30 15774 H 2139.65 6.32557 -1.65702 0
M  V30 15775 H 2141.13 8.19355 -1.79097 0
M  V30 15776 H 2139.44 10.1294 -1.10029 0
M  V30 15777 H 2139.25 9.64276 -3.41316 0
M  V30 15778 H 2137.62 9.25417 -2.76357 0
M  V30 15779 H 2140.26 6.25267 1.07847 0
M  V30 15780 P 2142.11 8.791 1.84721e-11 0
M  V30 15781 O 2143.54 9.31096 0.027933 0
M  V30 15782 O 2141.75 7.77869 -1.04071 0
M  V30 15783 O 2141.79 8.09533 1.41463 0
M  V30 15784 C 2141.63 9.0349 2.53943 0
M  V30 15785 C 2142.17 8.35226 3.79016 0
M  V30 15786 O 2141.11 7.57992 4.15078 0
M  V30 15787 C 2143.39 7.45087 3.67298 0
M  V30 15788 O 2144.13 7.27796 4.85194 0
M  V30 15789 C 2142.72 6.17323 3.12027 0
M  V30 15790 O 2143.52 5.04231 3.47188 0
M  V30 15791 C 2141.38 6.19961 3.81809 0
M  V30 15792 H 2141.41 5.58218 4.73051 0
M  V30 15793 H 2142.6 6.21726 2.02589 0
M  V30 15794 H 2144.08 7.86112 2.9231 0
M  V30 15795 H 2142.39 9.11627 4.55076 0
M  V30 15796 H 2142.2 9.9573 2.34194 0
M  V30 15797 H 2140.57 9.2792 2.67832 0
M  V30 15798 H 2143.21 4.67702 4.28772 0
M  V30 15799 P 2145.06 7.39546 4.75277 0
M  V30 15800 O 2146.49 7.81777 5.05738 0
M  V30 15801 O 2144.7 7.1065 3.32998 0
M  V30 15802 O 2144.74 6.04542 5.56673 0
M  V30 15803 C 2144.58 6.22772 7.02095 0
M  V30 15804 C 2145.12 4.97725 7.70406 0
M  V30 15805 O 2144.07 4.13256 7.58987 0
M  V30 15806 C 2146.34 4.28231 7.11815 0
M  V30 15807 O 2147.08 3.49945 8.01648 0
M  V30 15808 C 2145.67 3.5063 5.96244 0
M  V30 15809 O 2146.47 2.36482 5.64681 0
M  V30 15810 C 2144.33 3.15122 6.56374 0
M  V30 15811 H 2144.37 2.13853 6.99751 0
M  V30 15812 H 2145.55 4.13501 5.06559 0
M  V30 15813 H 2147.03 5.03285 6.70911 0
M  V30 15814 H 2145.34 5.20877 8.75697 0
M  V30 15815 H 2145.15 7.11046 7.35349 0
M  V30 15816 H 2143.52 6.35815 7.26986 0
M  V30 15817 H 2146.16 1.61644 6.13565 0
M  V30 15818 P 2148.01 3.65191 7.99657 0
M  V30 15819 O 2149.44 3.8425 8.48115 0
M  V30 15820 O 2147.65 4.17805 6.64342 0
M  V30 15821 O 2147.69 2.07613 7.95143 0
M  V30 15822 C 2147.53 1.44328 9.27336 0
M  V30 15823 C 2148.07 0.0220036 9.17197 0
M  V30 15824 O 2147.02 -0.626867 8.61923 0
M  V30 15825 C 2149.29 -0.24586 8.30336 0
M  V30 15826 O 2150.03 -1.39011 8.63583 0
M  V30 15827 C 2148.62 -0.273849 6.91158 0
M  V30 15828 O 2149.42 -1.06348 6.02892 0
M  V30 15829 C 2147.28 -0.897649 7.22545 0
M  V30 15830 H 2147.32 -1.9841 7.04286 0
M  V30 15831 H 2148.5 0.739928 6.497 0
M  V30 15832 H 2149.98 0.60668 8.36503 0
M  V30 15833 H 2148.29 -0.352479 10.1829 0
M  V30 15834 H 2148.1 2.00611 10.0304 0
M  V30 15835 H 2146.47 1.41843 9.55327 0
M  V30 15836 H 2149.11 -1.95734 6.03555 0
M  V30 15837 P 2150.97 -1.25109 8.70152 0
M  V30 15838 O 2152.39 -1.35288 9.2132 0
M  V30 15839 O 2150.61 -0.0769065 7.84762 0
M  V30 15840 O 2150.64 -2.55232 7.81161 0
M  V30 15841 C 2150.48 -3.79979 8.58246 0
M  V30 15842 C 2151.02 -4.94023 7.72785 0
M  V30 15843 O 2149.97 -5.18666 6.91125 0
M  V30 15844 C 2152.24 -4.69597 6.85231 0
M  V30 15845 O 2152.98 -5.83832 6.51337 0
M  V30 15846 C 2151.57 -3.96706 5.66633 0
M  V30 15847 O 2152.37 -4.14896 4.5003 0
M  V30 15848 C 2150.23 -4.66153 5.59313 0
M  V30 15849 N 2149.19 -3.71582 5.24027 0
M  V30 15850 C 2149.36 -2.39715 5.48833 0
M  V30 15851 N 2148.33 -1.65863 5.12845 0
M  V30 15852 C 2147.45 -2.57637 4.5973 0
M  V30 15853 C 2146.18 -2.40278 4.01027 0
M  V30 15854 N 2145.58 -1.19549 3.86744 0
M  V30 15855 N 2145.62 -3.57711 3.59575 0
M  V30 15856 C 2146.22 -4.80324 3.70476 0
M  V30 15857 N 2147.4 -5.01121 4.23801 0
M  V30 15858 C 2147.97 -3.84757 4.66372 0
M  V30 15859 H 2150.27 -5.47604 4.85148 0
M  V30 15860 H 2151.45 -2.8955 5.86187 0
M  V30 15861 H 2152.93 -4.0121 7.36511 0
M  V30 15862 H 2151.24 -5.81019 8.37003 0
M  V30 15863 H 2151.05 -3.73517 9.52265 0
M  V30 15864 H 2149.42 -3.97163 8.80359 0
M  V30 15865 H 2145.68 -5.66348 3.3183 0
M  V30 15866 H 2150.26 -1.98804 5.94332 0
M  V30 15867 H 2144.65 -1.13147 3.4281 0
M  V30 15868 H 2146.06 -0.344074 4.19692 0
M  V30 15869 H 2152.06 -4.90891 4.01857 0
M  V30 15870 P 2153.92 -5.75688 6.64379 0
M  V30 15871 O 2155.34 -6.11849 7.01846 0
M  V30 15872 O 2153.56 -4.30744 6.56026 0
M  V30 15873 O 2153.59 -6.37042 5.19165 0
M  V30 15874 C 2153.43 -7.83578 5.16515 0
M  V30 15875 C 2153.97 -8.33398 3.83019 0
M  V30 15876 O 2152.92 -8.10074 3.01034 0
M  V30 15877 C 2155.19 -7.65514 3.2257 0
M  V30 15878 O 2155.93 -8.4329 2.32297 0
M  V30 15879 C 2154.52 -6.40075 2.62207 0
M  V30 15880 O 2155.32 -5.92589 1.53712 0
M  V30 15881 C 2153.19 -6.9454 2.18503 0
M  V30 15882 H 2153.22 -7.23063 1.12091 0
M  V30 15883 H 2154.4 -5.6025 3.37201 0
M  V30 15884 H 2155.88 -7.35707 4.02681 0
M  V30 15885 H 2154.19 -9.40912 3.9095 0
M  V30 15886 H 2154 -8.29056 5.99158 0
M  V30 15887 H 2152.37 -8.10073 5.25882 0
M  V30 15888 H 2155.01 -6.30324 0.726794 0
M  V30 15889 P 2156.87 -8.4349 2.47671 0
M  V30 15890 O 2158.29 -8.94167 2.5964 0
M  V30 15891 O 2156.51 -7.1704 3.19006 0
M  V30 15892 O 2156.54 -8.16596 0.923387 0
M  V30 15893 C 2156.38 -9.38437 0.108857 0
M  V30 15894 C 2156.92 -9.08175 -1.28353 0
M  V30 15895 O 2155.87 -8.44229 -1.84713 0
M  V30 15896 C 2158.14 -8.18386 -1.42505 0
M  V30 15897 O 2158.88 -8.3501 -2.60497 0
M  V30 15898 C 2157.47 -6.80225 -1.25468 0
M  V30 15899 O 2158.27 -5.81621 -1.91066 0
M  V30 15900 C 2156.14 -7.02416 -1.9168 0
M  V30 15901 H 2156.17 -6.6888 -2.96621 0
M  V30 15902 H 2157.35 -6.53617 -0.192223 0
M  V30 15903 H 2158.83 -8.36622 -0.589963 0
M  V30 15904 H 2157.14 -10.0291 -1.79807 0
M  V30 15905 H 2156.95 -10.2138 0.558219 0
M  V30 15906 H 2155.32 -9.6579 0.0444202 0
M  V30 15907 H 2157.96 -5.69556 -2.79637 0
M  V30 15908 P 2159.82 -8.4349 -2.47671 0
M  V30 15909 O 2161.24 -8.92593 -2.65 0
M  V30 15910 O 2159.46 -7.7568 -1.19296 0
M  V30 15911 O 2159.49 -7.36886 -3.63805 0
M  V30 15912 C 2159.33 -7.95349 -4.982 0
M  V30 15913 C 2159.87 -6.94612 -5.98974 0
M  V30 15914 O 2158.82 -6.10347 -6.11815 0
M  V30 15915 C 2161.09 -6.11426 -5.62335 0
M  V30 15916 O 2161.83 -5.6162 -6.70584 0
M  V30 15917 C 2160.42 -5.04409 -4.73308 0
M  V30 15918 O 2161.22 -3.85992 -4.75183 0
M  V30 15919 C 2159.09 -4.8728 -5.41006 0
M  V30 15920 H 2159.12 -4.02333 -6.11157 0
M  V30 15921 H 2160.3 -5.39466 -3.69543 0
M  V30 15922 H 2161.79 -6.71916 -5.01943 0
M  V30 15923 H 2160.09 -7.4649 -6.93477 0
M  V30 15924 H 2159.9 -8.89416 -5.05237 0
M  V30 15925 H 2158.27 -8.14876 -5.18409 0
M  V30 15926 H 2160.91 -3.27957 -5.4317 0
M  V30 15927 P 2162.77 -5.75688 -6.64379 0
M  V30 15928 O 2164.19 -6.07627 -7.05504 0
M  V30 15929 O 2162.41 -5.88047 -5.19722 0
M  V30 15930 O 2162.44 -4.2322 -7.04443 0
M  V30 15931 C 2162.28 -3.99743 -8.4911 0
M  V30 15932 C 2162.82 -2.60516 -8.79425 0
M  V30 15933 O 2161.77 -1.82684 -8.4467 0
M  V30 15934 C 2164.04 -2.10343 -8.03628 0
M  V30 15935 O 2164.78 -1.09919 -8.67766 0
M  V30 15936 C 2163.37 -1.68446 -6.70876 0
M  V30 15937 O 2164.17 -0.678137 -6.08433 0
M  V30 15938 C 2162.04 -1.17436 -7.18567 0
M  V30 15939 H 2162.07 -0.0804732 -7.31656 0
M  V30 15940 H 2163.25 -2.54037 -6.02537 0
M  V30 15941 H 2164.74 -2.93881 -7.85526 0
M  V30 15942 H 2163.04 -2.53065 -9.86973 0
M  V30 15943 H 2162.85 -4.75072 -9.05887 0
M  V30 15944 H 2161.22 -4.05244 -8.76668 0
M  V30 15945 H 2163.86 0.177647 -6.34251 0
M  V30 15946 P 2165.72 -1.25109 -8.70152 0
M  V30 15947 O 2167.14 -1.29744 -9.22016 0
M  V30 15948 O 2165.36 -2.13714 -7.55141 0
M  V30 15949 O 2165.4 0.248149 -8.21425 0
M  V30 15950 C 2165.24 1.22779 -9.30434 0
M  V30 15951 C 2165.78 2.56293 -8.80664 0
M  V30 15952 O 2164.72 3.02979 -8.09349 0
M  V30 15953 C 2166.99 2.57523 -7.89775 0
M  V30 15954 O 2167.73 3.7668 -7.89438 0
M  V30 15955 C 2166.32 2.20997 -6.55446 0
M  V30 15956 O 2167.12 2.71895 -5.48509 0
M  V30 15957 C 2164.99 2.89693 -6.67988 0
M  V30 15958 H 2165.02 3.88793 -6.19859 0
M  V30 15959 H 2166.2 1.12046 -6.44229 0
M  V30 15960 H 2167.69 1.7746 -8.19711 0
M  V30 15961 H 2165.99 3.20706 -9.67112 0
M  V30 15962 H 2165.8 0.901032 -10.1892 0
M  V30 15963 H 2164.17 1.33049 -9.56592 0
M  V30 15964 H 2166.81 3.57847 -5.23962 0
M  V30 15965 P 2168.67 3.65191 -7.99657 0
M  V30 15966 O 2170.09 3.89374 -8.45885 0
M  V30 15967 O 2168.31 2.28472 -7.50807 0
M  V30 15968 O 2168.35 4.64972 -6.77611 0
M  V30 15969 C 2168.18 6.06383 -7.16428 0
M  V30 15970 C 2168.73 6.91731 -6.02299 0
M  V30 15971 O 2167.67 6.92369 -5.17005 0
M  V30 15972 C 2169.94 6.43627 -5.25174 0
M  V30 15973 O 2170.68 7.43686 -4.60469 0
M  V30 15974 C 2169.28 5.40275 -4.31916 0
M  V30 15975 O 2170.07 5.24878 -3.14911 0
M  V30 15976 C 2167.94 6.04847 -4.05327 0
M  V30 15977 N 2166.89 5.04166 -3.98114 0
M  V30 15978 C 2167.06 3.84629 -4.59066 0
M  V30 15979 N 2166.04 3.0363 -4.45343 0
M  V30 15980 C 2165.15 3.76722 -3.68523 0
M  V30 15981 C 2163.88 3.43528 -3.17088 0
M  V30 15982 N 2163.29 2.23665 -3.37397 0
M  V30 15983 N 2163.32 4.44526 -2.44231 0
M  V30 15984 C 2163.92 5.65243 -2.20146 0
M  V30 15985 N 2165.1 6.00221 -2.65453 0
M  V30 15986 C 2165.67 5.00564 -3.39083 0
M  V30 15987 H 2167.97 6.62104 -3.11218 0
M  V30 15988 H 2169.15 4.42969 -4.80867 0
M  V30 15989 H 2170.64 5.92458 -5.93643 0
M  V30 15990 H 2168.94 7.93295 -6.39407 0
M  V30 15991 H 2168.75 6.26671 -8.0846 0
M  V30 15992 H 2167.12 6.29101 -7.32804 0
M  V30 15993 H 2163.39 6.36894 -1.5883 0
M  V30 15994 H 2167.96 3.58193 -5.14248 0
M  V30 15995 H 2162.36 2.05145 -2.97047 0
M  V30 15996 H 2163.76 1.51255 -3.92998 0
M  V30 15997 H 2169.76 5.84223 -2.47279 0
M  V30 15998 P 2171.62 7.39546 -4.75277 0
M  V30 15999 O 2173.04 7.84798 -5.01039 0
M  V30 16000 O 2171.26 5.9812 -5.08098 0
M  V30 16001 O 2171.3 7.57503 -3.1866 0
M  V30 16002 C 2171.14 8.97357 -2.74833 0
M  V30 16003 C 2171.68 9.07548 -1.32709 0
M  V30 16004 O 2170.62 8.62072 -0.606159 0
M  V30 16005 C 2172.89 8.25383 -0.938334 0
M  V30 16006 O 2173.63 8.74577 0.146954 0
M  V30 16007 C 2172.23 6.8802 -0.712559 0
M  V30 16008 O 2173.02 6.1189 0.194655 0
M  V30 16009 C 2170.89 7.27966 -0.139777 0
M  V30 16010 H 2170.92 7.25354 0.961601 0
M  V30 16011 H 2172.1 6.32557 -1.65702 0
M  V30 16012 H 2173.59 8.19355 -1.79097 0
M  V30 16013 H 2171.89 10.1294 -1.10029 0
M  V30 16014 H 2171.7 9.64276 -3.41316 0
M  V30 16015 H 2170.07 9.25417 -2.76357 0
M  V30 16016 H 2172.71 6.25267 1.07847 0
M  V30 16017 P 2174.57 8.791 1.87823e-11 0
M  V30 16018 O 2175.99 9.31296 0.027939 0
M  V30 16019 O 2174.21 7.77869 -1.04071 0
M  V30 16020 O 2174.25 8.09533 1.41463 0
M  V30 16021 C 2174.09 9.0349 2.53943 0
M  V30 16022 C 2174.63 8.35135 3.78975 0
M  V30 16023 O 2173.57 7.57992 4.15078 0
M  V30 16024 C 2175.85 7.45087 3.67298 0
M  V30 16025 O 2176.58 7.27796 4.85194 0
M  V30 16026 C 2175.18 6.17323 3.12027 0
M  V30 16027 O 2175.98 5.04149 3.47132 0
M  V30 16028 C 2173.84 6.19961 3.81809 0
M  V30 16029 N 2172.8 5.71575 2.93223 0
M  V30 16030 C 2172.86 5.97133 1.62693 0
M  V30 16031 N 2171.81 5.44066 0.984414 0
M  V30 16032 C 2171.08 4.87093 1.93987 0
M  V30 16033 C 2169.77 4.26449 1.8738 0
M  V30 16034 O 2169.04 4.1089 0.884377 0
M  V30 16035 N 2169.34 3.82483 3.08036 0
M  V30 16036 C 2170.09 3.95124 4.27727 0
M  V30 16037 N 2169.5 3.4084 5.39089 0
M  V30 16038 N 2171.25 4.55264 4.3706 0
M  V30 16039 C 2171.7 5.00861 3.18217 0
M  V30 16040 H 2173.87 5.58218 4.73051 0
M  V30 16041 H 2175.05 6.21631 2.02558 0
M  V30 16042 H 2176.54 7.85819 2.93096 0
M  V30 16043 H 2174.84 9.11627 4.55076 0
M  V30 16044 H 2174.65 9.9573 2.34194 0
M  V30 16045 H 2173.02 9.2792 2.67832 0
M  V30 16046 H 2168.45 3.38323 3.1329 0
M  V30 16047 H 2173.65 6.53891 1.14265 0
M  V30 16048 H 2168.58 2.93852 5.30559 0
M  V30 16049 H 2169.96 3.47631 6.30632 0
M  V30 16050 H 2175.66 4.67628 4.28704 0
M  V30 16051 P 2177.52 7.39546 4.75277 0
M  V30 16052 O 2178.94 7.81777 5.05738 0
M  V30 16053 O 2177.16 7.1065 3.32998 0
M  V30 16054 O 2177.2 6.04542 5.56673 0
M  V30 16055 C 2177.04 6.22772 7.02095 0
M  V30 16056 C 2177.58 4.97725 7.70406 0
M  V30 16057 O 2176.52 4.13256 7.58987 0
M  V30 16058 C 2178.8 4.28231 7.11815 0
M  V30 16059 O 2179.53 3.49945 8.01648 0
M  V30 16060 C 2178.13 3.5063 5.96244 0
M  V30 16061 O 2178.93 2.36482 5.64681 0
M  V30 16062 C 2176.79 3.15122 6.56374 0
M  V30 16063 H 2176.82 2.13853 6.99751 0
M  V30 16064 H 2178 4.13501 5.06559 0
M  V30 16065 H 2179.49 5.03285 6.70911 0
M  V30 16066 H 2177.79 5.20877 8.75697 0
M  V30 16067 H 2177.6 7.11046 7.35349 0
M  V30 16068 H 2175.97 6.35815 7.26986 0
M  V30 16069 H 2178.61 1.61644 6.13565 0
M  V30 16070 P 2180.47 3.65191 7.99657 0
M  V30 16071 O 2181.89 3.84292 8.48206 0
M  V30 16072 O 2180.11 4.17805 6.64342 0
M  V30 16073 O 2180.15 2.07613 7.95143 0
M  V30 16074 C 2179.99 1.44344 9.27435 0
M  V30 16075 C 2180.53 0.0220036 9.17197 0
M  V30 16076 O 2179.47 -0.626794 8.61824 0
M  V30 16077 C 2181.75 -0.24586 8.30336 0
M  V30 16078 O 2182.48 -1.39011 8.63583 0
M  V30 16079 C 2181.08 -0.273849 6.91158 0
M  V30 16080 O 2181.88 -1.05728 6.029 0
M  V30 16081 C 2179.74 -0.897649 7.22545 0
M  V30 16082 N 2178.7 -0.292839 6.41732 0
M  V30 16083 C 2178.87 0.950603 5.91308 0
M  V30 16084 N 2177.84 1.37732 5.21105 0
M  V30 16085 C 2176.95 0.318109 5.26039 0
M  V30 16086 C 2175.69 0.146766 4.6727 0
M  V30 16087 N 2175.12 -1.06525 4.95887 0
M  V30 16088 C 2175.72 -2.0378 5.71347 0
M  V30 16089 N 2176.9 -1.92445 6.27451 0
M  V30 16090 C 2177.48 -0.715382 6.00353 0
M  V30 16091 H 2180.96 0.733318 6.49674 0
M  V30 16092 H 2182.44 0.60668 8.36503 0
M  V30 16093 H 2180.74 -0.362662 10.1825 0
M  V30 16094 H 2180.55 2.00611 10.0304 0
M  V30 16095 H 2178.92 1.41843 9.55327 0
M  V30 16096 H 2179.77 1.54076 6.07465 0
M  V30 16097 H 2181.56 -1.95704 6.0346 0
M  V30 16098 P 2183.42 -1.25109 8.70152 0
M  V30 16099 O 2184.84 -1.35274 9.21221 0
M  V30 16100 O 2183.06 -0.0769065 7.84762 0
M  V30 16101 O 2183.1 -2.55232 7.81161 0
M  V30 16102 C 2182.94 -3.79939 8.58154 0
M  V30 16103 C 2183.48 -4.94023 7.72785 0
M  V30 16104 O 2182.42 -5.18726 6.91205 0
M  V30 16105 C 2184.7 -4.69597 6.85231 0
M  V30 16106 O 2185.43 -5.83832 6.51337 0
M  V30 16107 C 2184.03 -3.96706 5.66633 0
M  V30 16108 O 2184.83 -4.15414 4.49689 0
M  V30 16109 C 2182.69 -4.66153 5.59313 0
M  V30 16110 H 2182.72 -5.47679 4.85214 0
M  V30 16111 H 2183.91 -2.89008 5.86566 0
M  V30 16112 H 2185.39 -4.0121 7.36511 0
M  V30 16113 H 2183.7 -5.80182 8.37584 0
M  V30 16114 H 2183.51 -3.73517 9.52265 0
M  V30 16115 H 2181.88 -3.97163 8.80359 0
M  V30 16116 H 2184.51 -4.90969 4.01921 0
M  V30 16117 P 2186.37 -5.75688 6.64379 0
M  V30 16118 O 2187.79 -6.11915 7.01921 0
M  V30 16119 O 2186.01 -4.30744 6.56026 0
M  V30 16120 O 2186.05 -6.37042 5.19165 0
M  V30 16121 C 2185.89 -7.83662 5.1657 0
M  V30 16122 C 2186.43 -8.33398 3.83019 0
M  V30 16123 O 2185.37 -8.0998 3.00999 0
M  V30 16124 C 2187.65 -7.65514 3.2257 0
M  V30 16125 O 2188.39 -8.4329 2.32297 0
M  V30 16126 C 2186.98 -6.40075 2.62207 0
M  V30 16127 O 2187.78 -5.92338 1.5428 0
M  V30 16128 C 2185.64 -6.9454 2.18503 0
M  V30 16129 N 2184.6 -5.95905 2.39948 0
M  V30 16130 C 2184.77 -4.98383 3.32108 0
M  V30 16131 N 2183.74 -4.16798 3.41761 0
M  V30 16132 C 2182.86 -4.65287 2.47461 0
M  V30 16133 C 2181.59 -4.18946 2.07461 0
M  V30 16134 N 2180.99 -3.09661 2.60717 0
M  V30 16135 N 2181.02 -4.95327 1.09101 0
M  V30 16136 C 2181.63 -6.04369 0.519812 0
M  V30 16137 N 2182.8 -6.50694 0.855982 0
M  V30 16138 C 2183.38 -5.75818 1.84322 0
M  V30 16139 H 2185.67 -7.22964 1.12076 0
M  V30 16140 H 2186.86 -5.60502 3.36589 0
M  V30 16141 H 2188.34 -7.35707 4.02681 0
M  V30 16142 H 2186.65 -9.41302 3.90009 0
M  V30 16143 H 2186.46 -8.29056 5.99158 0
M  V30 16144 H 2184.83 -8.10073 5.25882 0
M  V30 16145 H 2181.09 -6.55843 -0.270373 0
M  V30 16146 H 2185.67 -4.88564 3.92502 0
M  V30 16147 H 2180.06 -2.80523 2.27218 0
M  V30 16148 H 2181.46 -2.55848 3.34465 0
M  V30 16149 H 2187.47 -6.30224 0.72668 0
M  V30 16150 P 2189.32 -8.4349 2.47671 0
M  V30 16151 O 2190.74 -8.94167 2.5964 0
M  V30 16152 O 2188.96 -7.1704 3.19006 0
M  V30 16153 O 2189 -8.16596 0.923387 0
M  V30 16154 C 2188.84 -9.38437 0.108857 0
M  V30 16155 C 2189.38 -9.08175 -1.28353 0
M  V30 16156 O 2188.32 -8.44229 -1.84713 0
M  V30 16157 C 2190.6 -8.18386 -1.42505 0
M  V30 16158 O 2191.34 -8.3501 -2.60497 0
M  V30 16159 C 2189.93 -6.80225 -1.25468 0
M  V30 16160 O 2190.73 -5.81621 -1.91066 0
M  V30 16161 C 2188.59 -7.02416 -1.9168 0
M  V30 16162 H 2188.62 -6.6888 -2.96621 0
M  V30 16163 H 2189.81 -6.53617 -0.192223 0
M  V30 16164 H 2191.29 -8.36622 -0.589963 0
M  V30 16165 H 2189.6 -10.0291 -1.79807 0
M  V30 16166 H 2189.41 -10.2138 0.558219 0
M  V30 16167 H 2187.78 -9.6579 0.0444202 0
M  V30 16168 H 2190.42 -5.69556 -2.79637 0
M  V30 16169 P 2192.27 -8.4349 -2.47671 0
M  V30 16170 O 2193.69 -8.92689 -2.65029 0
M  V30 16171 O 2191.91 -7.7568 -1.19296 0
M  V30 16172 O 2191.95 -7.36886 -3.63805 0
M  V30 16173 C 2191.79 -7.95433 -4.98253 0
M  V30 16174 C 2192.33 -6.94612 -5.98974 0
M  V30 16175 O 2191.28 -6.10277 -6.11744 0
M  V30 16176 C 2193.55 -6.11426 -5.62335 0
M  V30 16177 O 2194.29 -5.6162 -6.70584 0
M  V30 16178 C 2192.88 -5.04409 -4.73308 0
M  V30 16179 O 2193.68 -3.86404 -4.74719 0
M  V30 16180 C 2191.54 -4.8728 -5.41006 0
M  V30 16181 N 2190.5 -4.65812 -4.42377 0
M  V30 16182 C 2190.67 -5.09132 -3.15382 0
M  V30 16183 N 2189.64 -4.84021 -2.3716 0
M  V30 16184 C 2188.76 -4.18386 -3.20441 0
M  V30 16185 C 2187.49 -3.6275 -2.94905 0
M  V30 16186 N 2186.89 -3.65794 -1.73372 0
M  V30 16187 N 2186.92 -3.05008 -4.05243 0
M  V30 16188 C 2187.53 -2.98348 -5.28159 0
M  V30 16189 N 2188.7 -3.48171 -5.56333 0
M  V30 16190 C 2189.28 -4.06869 -4.47212 0
M  V30 16191 H 2191.57 -4.02278 -6.11074 0
M  V30 16192 H 2192.76 -5.39013 -3.70026 0
M  V30 16193 H 2194.24 -6.71916 -5.01943 0
M  V30 16194 H 2192.55 -7.45796 -6.94223 0
M  V30 16195 H 2192.36 -8.89416 -5.05237 0
M  V30 16196 H 2190.73 -8.14876 -5.18409 0
M  V30 16197 H 2186.99 -2.47853 -6.07807 0
M  V30 16198 H 2191.57 -5.59989 -2.81362 0
M  V30 16199 H 2185.96 -3.23218 -1.60782 0
M  V30 16200 H 2187.36 -4.10523 -0.937856 0
M  V30 16201 H 2193.37 -3.27906 -5.43085 0
M  V30 16202 P 2195.22 -5.75688 -6.64379 0
M  V30 16203 O 2196.65 -6.07627 -7.05504 0
M  V30 16204 O 2194.86 -5.88047 -5.19722 0
M  V30 16205 O 2194.9 -4.2322 -7.04443 0
M  V30 16206 C 2194.74 -3.99743 -8.4911 0
M  V30 16207 C 2195.28 -2.60516 -8.79425 0
M  V30 16208 O 2194.23 -1.82684 -8.4467 0
M  V30 16209 C 2196.5 -2.10343 -8.03628 0
M  V30 16210 O 2197.24 -1.09919 -8.67766 0
M  V30 16211 C 2195.83 -1.68446 -6.70876 0
M  V30 16212 O 2196.63 -0.678137 -6.08433 0
M  V30 16213 C 2194.49 -1.17436 -7.18567 0
M  V30 16214 H 2194.53 -0.0804732 -7.31656 0
M  V30 16215 H 2195.71 -2.54037 -6.02537 0
M  V30 16216 H 2197.19 -2.93881 -7.85526 0
M  V30 16217 H 2195.5 -2.53065 -9.86973 0
M  V30 16218 H 2195.31 -4.75072 -9.05887 0
M  V30 16219 H 2193.68 -4.05244 -8.76668 0
M  V30 16220 H 2196.32 0.177647 -6.34251 0
M  V30 16221 P 2198.17 -1.25109 -8.70152 0
M  V30 16222 O 2199.6 -1.29758 -9.22115 0
M  V30 16223 O 2197.81 -2.13714 -7.55141 0
M  V30 16224 O 2197.85 0.248149 -8.21425 0
M  V30 16225 C 2197.69 1.22792 -9.30533 0
M  V30 16226 C 2198.23 2.56293 -8.80664 0
M  V30 16227 O 2197.18 3.02944 -8.09255 0
M  V30 16228 C 2199.45 2.57523 -7.89775 0
M  V30 16229 O 2200.19 3.7668 -7.89438 0
M  V30 16230 C 2198.78 2.20997 -6.55446 0
M  V30 16231 O 2199.58 2.71302 -5.48691 0
M  V30 16232 C 2197.44 2.89693 -6.67988 0
M  V30 16233 N 2196.4 2.08895 -6.07487 0
M  V30 16234 C 2196.57 0.753809 -5.94137 0
M  V30 16235 N 2195.54 0.146592 -5.38801 0
M  V30 16236 C 2194.66 1.1768 -5.13693 0
M  V30 16237 C 2193.39 1.17563 -4.52477 0
M  V30 16238 N 2192.79 0.057481 -4.04759 0
M  V30 16239 N 2192.83 2.41918 -4.45789 0
M  V30 16240 C 2193.43 3.56493 -4.90792 0
M  V30 16241 N 2194.6 3.61423 -5.47817 0
M  V30 16242 C 2195.18 2.37779 -5.5588 0
M  V30 16243 H 2197.48 3.8874 -6.19774 0
M  V30 16244 H 2198.66 1.12673 -6.44018 0
M  V30 16245 H 2200.14 1.7746 -8.19711 0
M  V30 16246 H 2198.45 3.21673 -9.66791 0
M  V30 16247 H 2198.26 0.901032 -10.1892 0
M  V30 16248 H 2196.63 1.33049 -9.56592 0
M  V30 16249 H 2192.89 4.49919 -4.77947 0
M  V30 16250 H 2197.47 0.233081 -6.26266 0
M  V30 16251 H 2191.86 0.119831 -3.60801 0
M  V30 16252 H 2193.27 -0.852272 -4.12385 0
M  V30 16253 H 2199.27 3.5779 -5.23879 0
M  V30 16254 P 2201.13 3.65191 -7.99657 0
M  V30 16255 O 2202.55 3.89416 -8.45976 0
M  V30 16256 O 2200.77 2.28472 -7.50807 0
M  V30 16257 O 2200.8 4.64972 -6.77611 0
M  V30 16258 C 2200.64 6.06319 -7.16352 0
M  V30 16259 C 2201.18 6.91655 -6.02234 0
M  V30 16260 O 2200.13 6.92449 -5.17064 0
M  V30 16261 C 2202.4 6.43627 -5.25174 0
M  V30 16262 O 2203.14 7.43686 -4.60469 0
M  V30 16263 C 2201.73 5.40275 -4.31916 0
M  V30 16264 O 2202.53 5.25193 -3.14386 0
M  V30 16265 C 2200.39 6.04847 -4.05327 0
M  V30 16266 N 2199.35 5.04166 -3.98114 0
M  V30 16267 C 2199.41 3.96049 -4.75587 0
M  V30 16268 N 2198.37 3.15559 -4.54006 0
M  V30 16269 C 2197.63 3.78802 -3.62491 0
M  V30 16270 C 2196.33 3.476 -3.10071 0
M  V30 16271 O 2195.6 2.51136 -3.37021 0
M  V30 16272 N 2195.9 4.39088 -2.19956 0
M  V30 16273 C 2196.65 5.53215 -1.81733 0
M  V30 16274 N 2196.05 6.31963 -0.860928 0
M  V30 16275 N 2197.8 5.86688 -2.32562 0
M  V30 16276 C 2198.26 4.97525 -3.23407 0
M  V30 16277 H 2200.43 6.62195 -3.11261 0
M  V30 16278 H 2201.61 4.42488 -4.8131 0
M  V30 16279 H 2203.09 5.93051 -5.9305 0
M  V30 16280 H 2201.4 7.92655 -6.402 0
M  V30 16281 H 2201.21 6.26671 -8.0846 0
M  V30 16282 H 2199.58 6.29101 -7.32804 0
M  V30 16283 H 2195 4.25523 -1.77604 0
M  V30 16284 H 2200.21 3.75576 -5.47333 0
M  V30 16285 H 2195.14 6.04684 -0.468946 0
M  V30 16286 H 2196.52 7.18054 -0.542422 0
M  V30 16287 H 2202.22 5.84223 -2.47279 0
M  V30 16288 P 2204.08 7.39546 -4.75277 0
M  V30 16289 O 2205.5 7.84798 -5.01039 0
M  V30 16290 O 2203.72 5.9812 -5.08098 0
M  V30 16291 O 2203.75 7.57503 -3.1866 0
M  V30 16292 C 2203.59 8.97357 -2.74833 0
M  V30 16293 C 2204.13 9.07548 -1.32709 0
M  V30 16294 O 2203.08 8.62072 -0.606159 0
M  V30 16295 C 2205.35 8.25383 -0.938334 0
M  V30 16296 O 2206.09 8.74577 0.146954 0
M  V30 16297 C 2204.68 6.8802 -0.712559 0
M  V30 16298 O 2205.48 6.1189 0.194655 0
M  V30 16299 C 2203.34 7.27966 -0.139777 0
M  V30 16300 H 2203.38 7.25354 0.961601 0
M  V30 16301 H 2204.56 6.32557 -1.65702 0
M  V30 16302 H 2206.04 8.19355 -1.79097 0
M  V30 16303 H 2204.35 10.1294 -1.10029 0
M  V30 16304 H 2204.16 9.64276 -3.41316 0
M  V30 16305 H 2202.53 9.25417 -2.76357 0
M  V30 16306 H 2205.17 6.25267 1.07847 0
M  V30 16307 P 2207.03 8.791 1.90924e-11 0
M  V30 16308 O 2208.45 9.31096 0.027933 0
M  V30 16309 O 2206.67 7.77869 -1.04071 0
M  V30 16310 O 2206.7 8.09533 1.41463 0
M  V30 16311 C 2206.54 9.0349 2.53943 0
M  V30 16312 C 2207.08 8.35226 3.79016 0
M  V30 16313 O 2206.03 7.57992 4.15078 0
M  V30 16314 C 2208.3 7.45087 3.67298 0
M  V30 16315 O 2209.04 7.27796 4.85194 0
M  V30 16316 C 2207.63 6.17323 3.12027 0
M  V30 16317 O 2208.43 5.04231 3.47188 0
M  V30 16318 C 2206.3 6.19961 3.81809 0
M  V30 16319 H 2206.33 5.58218 4.73051 0
M  V30 16320 H 2207.51 6.21726 2.02589 0
M  V30 16321 H 2208.99 7.86112 2.9231 0
M  V30 16322 H 2207.3 9.11627 4.55076 0
M  V30 16323 H 2207.11 9.9573 2.34194 0
M  V30 16324 H 2205.48 9.2792 2.67832 0
M  V30 16325 H 2208.12 4.67702 4.28772 0
M  V30 16326 P 2209.98 7.39546 4.75277 0
M  V30 16327 O 2211.4 7.81777 5.05738 0
M  V30 16328 O 2209.62 7.1065 3.32998 0
M  V30 16329 O 2209.65 6.04542 5.56673 0
M  V30 16330 C 2209.49 6.22772 7.02095 0
M  V30 16331 C 2210.03 4.97725 7.70406 0
M  V30 16332 O 2208.98 4.13256 7.58987 0
M  V30 16333 C 2211.25 4.28231 7.11815 0
M  V30 16334 O 2211.99 3.49945 8.01648 0
M  V30 16335 C 2210.58 3.5063 5.96244 0
M  V30 16336 O 2211.38 2.36482 5.64681 0
M  V30 16337 C 2209.25 3.15122 6.56374 0
M  V30 16338 H 2209.28 2.13853 6.99751 0
M  V30 16339 H 2210.46 4.13501 5.06559 0
M  V30 16340 H 2211.94 5.03285 6.70911 0
M  V30 16341 H 2210.25 5.20877 8.75697 0
M  V30 16342 H 2210.06 7.11046 7.35349 0
M  V30 16343 H 2208.43 6.35815 7.26986 0
M  V30 16344 H 2211.07 1.61644 6.13565 0
M  V30 16345 P 2212.93 3.65191 7.99657 0
M  V30 16346 O 2214.35 3.8425 8.48115 0
M  V30 16347 O 2212.57 4.17805 6.64342 0
M  V30 16348 O 2212.6 2.07613 7.95143 0
M  V30 16349 C 2212.44 1.44328 9.27336 0
M  V30 16350 C 2212.98 0.0220036 9.17197 0
M  V30 16351 O 2211.93 -0.626867 8.61923 0
M  V30 16352 C 2214.2 -0.24586 8.30336 0
M  V30 16353 O 2214.94 -1.39011 8.63583 0
M  V30 16354 C 2213.53 -0.273849 6.91158 0
M  V30 16355 O 2214.33 -1.06348 6.02892 0
M  V30 16356 C 2212.2 -0.897649 7.22545 0
M  V30 16357 H 2212.23 -1.9841 7.04286 0
M  V30 16358 H 2213.41 0.739928 6.497 0
M  V30 16359 H 2214.9 0.60668 8.36503 0
M  V30 16360 H 2213.2 -0.352479 10.1829 0
M  V30 16361 H 2213.01 2.00611 10.0304 0
M  V30 16362 H 2211.38 1.41843 9.55327 0
M  V30 16363 H 2214.02 -1.95734 6.03555 0
M  V30 16364 P 2215.88 -1.25109 8.70152 0
M  V30 16365 O 2217.3 -1.35274 9.21221 0
M  V30 16366 O 2215.52 -0.0769065 7.84762 0
M  V30 16367 O 2215.56 -2.55232 7.81161 0
M  V30 16368 C 2215.4 -3.79939 8.58154 0
M  V30 16369 C 2215.94 -4.94023 7.72785 0
M  V30 16370 O 2214.88 -5.18726 6.91205 0
M  V30 16371 C 2217.15 -4.69597 6.85231 0
M  V30 16372 O 2217.89 -5.83832 6.51337 0
M  V30 16373 C 2216.48 -3.96706 5.66633 0
M  V30 16374 O 2217.28 -4.15414 4.49689 0
M  V30 16375 C 2215.15 -4.66153 5.59313 0
M  V30 16376 H 2215.18 -5.47679 4.85214 0
M  V30 16377 H 2216.36 -2.89008 5.86566 0
M  V30 16378 H 2217.85 -4.0121 7.36511 0
M  V30 16379 H 2216.15 -5.80182 8.37584 0
M  V30 16380 H 2215.96 -3.73517 9.52265 0
M  V30 16381 H 2214.33 -3.97163 8.80359 0
M  V30 16382 H 2216.97 -4.90969 4.01921 0
M  V30 16383 P 2218.83 -5.75688 6.64379 0
M  V30 16384 O 2220.25 -6.11915 7.01921 0
M  V30 16385 O 2218.47 -4.30744 6.56026 0
M  V30 16386 O 2218.51 -6.37042 5.19165 0
M  V30 16387 C 2218.34 -7.83662 5.1657 0
M  V30 16388 C 2218.89 -8.33398 3.83019 0
M  V30 16389 O 2217.83 -8.0998 3.00999 0
M  V30 16390 C 2220.1 -7.65514 3.2257 0
M  V30 16391 O 2220.84 -8.4329 2.32297 0
M  V30 16392 C 2219.44 -6.40075 2.62207 0
M  V30 16393 O 2220.23 -5.92338 1.5428 0
M  V30 16394 C 2218.1 -6.9454 2.18503 0
M  V30 16395 N 2217.05 -5.95905 2.39948 0
M  V30 16396 C 2217.22 -4.98383 3.32108 0
M  V30 16397 N 2216.2 -4.16798 3.41761 0
M  V30 16398 C 2215.31 -4.65287 2.47461 0
M  V30 16399 C 2214.04 -4.18946 2.07461 0
M  V30 16400 N 2213.45 -3.09661 2.60717 0
M  V30 16401 N 2213.48 -4.95327 1.09101 0
M  V30 16402 C 2214.08 -6.04369 0.519812 0
M  V30 16403 N 2215.26 -6.50694 0.855982 0
M  V30 16404 C 2215.83 -5.75818 1.84322 0
M  V30 16405 H 2218.13 -7.22964 1.12076 0
M  V30 16406 H 2219.31 -5.60502 3.36589 0
M  V30 16407 H 2220.8 -7.35707 4.02681 0
M  V30 16408 H 2219.1 -9.41302 3.90009 0
M  V30 16409 H 2218.91 -8.29056 5.99158 0
M  V30 16410 H 2217.28 -8.10073 5.25882 0
M  V30 16411 H 2213.55 -6.55843 -0.270373 0
M  V30 16412 H 2218.12 -4.88564 3.92502 0
M  V30 16413 H 2212.52 -2.80523 2.27218 0
M  V30 16414 H 2213.92 -2.55848 3.34465 0
M  V30 16415 H 2219.92 -6.30224 0.72668 0
M  V30 16416 P 2221.78 -8.4349 2.47671 0
M  V30 16417 O 2223.2 -8.94167 2.5964 0
M  V30 16418 O 2221.42 -7.1704 3.19006 0
M  V30 16419 O 2221.46 -8.16596 0.923387 0
M  V30 16420 C 2221.3 -9.38437 0.108857 0
M  V30 16421 C 2221.84 -9.08175 -1.28353 0
M  V30 16422 O 2220.78 -8.44229 -1.84713 0
M  V30 16423 C 2223.05 -8.18386 -1.42505 0
M  V30 16424 O 2223.79 -8.3501 -2.60497 0
M  V30 16425 C 2222.39 -6.80225 -1.25468 0
M  V30 16426 O 2223.18 -5.81621 -1.91066 0
M  V30 16427 C 2221.05 -7.02416 -1.9168 0
M  V30 16428 H 2221.08 -6.6888 -2.96621 0
M  V30 16429 H 2222.26 -6.53617 -0.192223 0
M  V30 16430 H 2223.75 -8.36622 -0.589963 0
M  V30 16431 H 2222.05 -10.0291 -1.79807 0
M  V30 16432 H 2221.86 -10.2138 0.558219 0
M  V30 16433 H 2220.23 -9.6579 0.0444202 0
M  V30 16434 H 2222.87 -5.69556 -2.79637 0
M  V30 16435 P 2224.73 -8.4349 -2.47671 0
M  V30 16436 O 2226.15 -8.92593 -2.65 0
M  V30 16437 O 2224.37 -7.7568 -1.19296 0
M  V30 16438 O 2224.41 -7.36886 -3.63805 0
M  V30 16439 C 2224.25 -7.95349 -4.982 0
M  V30 16440 C 2224.79 -6.94612 -5.98974 0
M  V30 16441 O 2223.73 -6.10347 -6.11815 0
M  V30 16442 C 2226 -6.11426 -5.62335 0
M  V30 16443 O 2226.74 -5.6162 -6.70584 0
M  V30 16444 C 2225.34 -5.04409 -4.73308 0
M  V30 16445 O 2226.13 -3.85992 -4.75183 0
M  V30 16446 C 2224 -4.8728 -5.41006 0
M  V30 16447 H 2224.03 -4.02333 -6.11157 0
M  V30 16448 H 2225.21 -5.39466 -3.69543 0
M  V30 16449 H 2226.7 -6.71916 -5.01943 0
M  V30 16450 H 2225 -7.4649 -6.93477 0
M  V30 16451 H 2224.81 -8.89416 -5.05237 0
M  V30 16452 H 2223.18 -8.14876 -5.18409 0
M  V30 16453 H 2225.82 -3.27957 -5.4317 0
M  V30 16454 P 2227.68 -5.75688 -6.64379 0
M  V30 16455 O 2229.1 -6.07627 -7.05504 0
M  V30 16456 O 2227.32 -5.88047 -5.19722 0
M  V30 16457 O 2227.36 -4.2322 -7.04443 0
M  V30 16458 C 2227.2 -3.99743 -8.4911 0
M  V30 16459 C 2227.74 -2.60516 -8.79425 0
M  V30 16460 O 2226.68 -1.82684 -8.4467 0
M  V30 16461 C 2228.96 -2.10343 -8.03628 0
M  V30 16462 O 2229.69 -1.09919 -8.67766 0
M  V30 16463 C 2228.29 -1.68446 -6.70876 0
M  V30 16464 O 2229.09 -0.678137 -6.08433 0
M  V30 16465 C 2226.95 -1.17436 -7.18567 0
M  V30 16466 H 2226.98 -0.0804732 -7.31656 0
M  V30 16467 H 2228.16 -2.54037 -6.02537 0
M  V30 16468 H 2229.65 -2.93881 -7.85526 0
M  V30 16469 H 2227.95 -2.53065 -9.86973 0
M  V30 16470 H 2227.76 -4.75072 -9.05887 0
M  V30 16471 H 2226.13 -4.05244 -8.76668 0
M  V30 16472 H 2228.77 0.177647 -6.34251 0
M  V30 16473 P 2230.63 -1.25109 -8.70152 0
M  V30 16474 O 2232.05 -1.29744 -9.22016 0
M  V30 16475 O 2230.27 -2.13714 -7.55141 0
M  V30 16476 O 2230.31 0.248149 -8.21425 0
M  V30 16477 C 2230.15 1.22779 -9.30434 0
M  V30 16478 C 2230.69 2.56293 -8.80664 0
M  V30 16479 O 2229.63 3.02979 -8.09349 0
M  V30 16480 C 2231.91 2.57523 -7.89775 0
M  V30 16481 O 2232.64 3.7668 -7.89438 0
M  V30 16482 C 2231.24 2.20997 -6.55446 0
M  V30 16483 O 2232.04 2.71895 -5.48509 0
M  V30 16484 C 2229.9 2.89693 -6.67988 0
M  V30 16485 H 2229.93 3.88793 -6.19859 0
M  V30 16486 H 2231.11 1.12046 -6.44229 0
M  V30 16487 H 2232.6 1.7746 -8.19711 0
M  V30 16488 H 2230.9 3.20706 -9.67112 0
M  V30 16489 H 2230.71 0.901032 -10.1892 0
M  V30 16490 H 2229.08 1.33049 -9.56592 0
M  V30 16491 H 2231.72 3.57847 -5.23962 0
M  V30 16492 P 2233.58 3.65191 -7.99657 0
M  V30 16493 O 2235 3.89374 -8.45885 0
M  V30 16494 O 2233.22 2.28472 -7.50807 0
M  V30 16495 O 2233.26 4.64972 -6.77611 0
M  V30 16496 C 2233.1 6.06383 -7.16428 0
M  V30 16497 C 2233.64 6.91731 -6.02299 0
M  V30 16498 O 2232.58 6.92369 -5.17005 0
M  V30 16499 C 2234.86 6.43627 -5.25174 0
M  V30 16500 O 2235.59 7.43686 -4.60469 0
M  V30 16501 C 2234.19 5.40275 -4.31916 0
M  V30 16502 O 2234.99 5.24878 -3.14911 0
M  V30 16503 C 2232.85 6.04847 -4.05327 0
M  V30 16504 N 2231.81 5.04166 -3.98114 0
M  V30 16505 C 2231.98 3.84629 -4.59066 0
M  V30 16506 N 2230.95 3.0363 -4.45343 0
M  V30 16507 C 2230.06 3.76722 -3.68523 0
M  V30 16508 C 2228.8 3.43528 -3.17088 0
M  V30 16509 N 2228.2 2.23665 -3.37397 0
M  V30 16510 N 2228.23 4.44526 -2.44231 0
M  V30 16511 C 2228.83 5.65243 -2.20146 0
M  V30 16512 N 2230.01 6.00221 -2.65453 0
M  V30 16513 C 2230.59 5.00564 -3.39083 0
M  V30 16514 H 2232.88 6.62104 -3.11218 0
M  V30 16515 H 2234.07 4.42969 -4.80867 0
M  V30 16516 H 2235.55 5.92458 -5.93643 0
M  V30 16517 H 2233.85 7.93295 -6.39407 0
M  V30 16518 H 2233.66 6.26671 -8.0846 0
M  V30 16519 H 2232.03 6.29101 -7.32804 0
M  V30 16520 H 2228.3 6.36894 -1.5883 0
M  V30 16521 H 2232.88 3.58193 -5.14248 0
M  V30 16522 H 2227.27 2.05145 -2.97047 0
M  V30 16523 H 2228.67 1.51255 -3.92998 0
M  V30 16524 H 2234.67 5.84223 -2.47279 0
M  V30 16525 P 2236.53 7.39546 -4.75277 0
M  V30 16526 O 2237.95 7.84798 -5.01039 0
M  V30 16527 O 2236.17 5.9812 -5.08098 0
M  V30 16528 O 2236.21 7.57503 -3.1866 0
M  V30 16529 C 2236.05 8.97357 -2.74833 0
M  V30 16530 C 2236.59 9.07548 -1.32709 0
M  V30 16531 O 2235.53 8.62072 -0.606159 0
M  V30 16532 C 2237.81 8.25383 -0.938334 0
M  V30 16533 O 2238.55 8.74577 0.146954 0
M  V30 16534 C 2237.14 6.8802 -0.712559 0
M  V30 16535 O 2237.94 6.1189 0.194655 0
M  V30 16536 C 2235.8 7.27966 -0.139777 0
M  V30 16537 H 2235.83 7.25354 0.961601 0
M  V30 16538 H 2237.02 6.32557 -1.65702 0
M  V30 16539 H 2238.5 8.19355 -1.79097 0
M  V30 16540 H 2236.81 10.1294 -1.10029 0
M  V30 16541 H 2236.62 9.64276 -3.41316 0
M  V30 16542 H 2234.99 9.25417 -2.76357 0
M  V30 16543 H 2237.63 6.25267 1.07847 0
M  V30 16544 P 2239.48 8.791 1.94026e-11 0
M  V30 16545 O 2240.9 9.31196 0.027936 0
M  V30 16546 O 2239.12 7.77869 -1.04071 0
M  V30 16547 O 2239.16 8.09533 1.41463 0
M  V30 16548 C 2239 9.03587 2.5397 0
M  V30 16549 C 2239.54 8.35226 3.79016 0
M  V30 16550 O 2238.48 7.57904 4.1503 0
M  V30 16551 C 2240.76 7.45087 3.67298 0
M  V30 16552 O 2241.5 7.27796 4.85194 0
M  V30 16553 C 2240.09 6.17323 3.12027 0
M  V30 16554 O 2240.89 5.04496 3.46627 0
M  V30 16555 C 2238.75 6.19961 3.81809 0
M  V30 16556 N 2237.71 5.71575 2.93223 0
M  V30 16557 C 2237.88 5.77362 1.59168 0
M  V30 16558 N 2236.85 5.3123 0.911893 0
M  V30 16559 C 2235.97 4.91717 1.89588 0
M  V30 16560 C 2234.7 4.3114 1.8076 0
M  V30 16561 N 2234.1 3.99821 0.632928 0
M  V30 16562 N 2234.13 4.06823 3.02898 0
M  V30 16563 C 2234.74 4.35062 4.22711 0
M  V30 16564 N 2235.91 4.90805 4.35707 0
M  V30 16565 C 2236.49 5.16382 3.14469 0
M  V30 16566 H 2238.78 5.58142 4.72986 0
M  V30 16567 H 2239.97 6.21428 2.0318 0
M  V30 16568 H 2241.45 7.86112 2.9231 0
M  V30 16569 H 2239.76 9.11171 4.55987 0
M  V30 16570 H 2239.57 9.9573 2.34194 0
M  V30 16571 H 2237.94 9.2792 2.67832 0
M  V30 16572 H 2234.2 4.09052 5.13359 0
M  V30 16573 H 2238.78 6.16575 1.12198 0
M  V30 16574 H 2233.17 3.55423 0.632085 0
M  V30 16575 H 2234.57 4.20317 -0.256712 0
M  V30 16576 H 2240.58 4.67628 4.28704 0
M  V30 16577 P 2242.43 7.39546 4.75277 0
M  V30 16578 O 2243.86 7.81777 5.05738 0
M  V30 16579 O 2242.07 7.1065 3.32998 0
M  V30 16580 O 2242.11 6.04542 5.56673 0
M  V30 16581 C 2241.95 6.22772 7.02095 0
M  V30 16582 C 2242.49 4.97725 7.70406 0
M  V30 16583 O 2241.43 4.13256 7.58987 0
M  V30 16584 C 2243.71 4.28231 7.11815 0
M  V30 16585 O 2244.45 3.49945 8.01648 0
M  V30 16586 C 2243.04 3.5063 5.96244 0
M  V30 16587 O 2243.84 2.36482 5.64681 0
M  V30 16588 C 2241.7 3.15122 6.56374 0
M  V30 16589 H 2241.73 2.13853 6.99751 0
M  V30 16590 H 2242.92 4.13501 5.06559 0
M  V30 16591 H 2244.4 5.03285 6.70911 0
M  V30 16592 H 2242.71 5.20877 8.75697 0
M  V30 16593 H 2242.52 7.11046 7.35349 0
M  V30 16594 H 2240.89 6.35815 7.26986 0
M  V30 16595 H 2243.53 1.61644 6.13565 0
M  V30 16596 P 2245.38 3.65191 7.99657 0
M  V30 16597 O 2246.8 3.84292 8.48206 0
M  V30 16598 O 2245.02 4.17805 6.64342 0
M  V30 16599 O 2245.06 2.07613 7.95143 0
M  V30 16600 C 2244.9 1.44344 9.27435 0
M  V30 16601 C 2245.44 0.0220036 9.17197 0
M  V30 16602 O 2244.39 -0.626794 8.61824 0
M  V30 16603 C 2246.66 -0.24586 8.30336 0
M  V30 16604 O 2247.4 -1.39011 8.63583 0
M  V30 16605 C 2245.99 -0.273849 6.91158 0
M  V30 16606 O 2246.79 -1.05728 6.029 0
M  V30 16607 C 2244.65 -0.897649 7.22545 0
M  V30 16608 N 2243.61 -0.292839 6.41732 0
M  V30 16609 C 2243.78 0.950603 5.91308 0
M  V30 16610 N 2242.75 1.37732 5.21105 0
M  V30 16611 C 2241.87 0.318109 5.26039 0
M  V30 16612 C 2240.6 0.146766 4.6727 0
M  V30 16613 N 2240 1.08519 3.89983 0
M  V30 16614 N 2240.03 -1.06525 4.95887 0
M  V30 16615 C 2240.64 -2.0378 5.71347 0
M  V30 16616 N 2241.81 -1.92445 6.27451 0
M  V30 16617 C 2242.39 -0.715382 6.00353 0
M  V30 16618 H 2244.68 -1.98383 7.04189 0
M  V30 16619 H 2245.87 0.733318 6.49674 0
M  V30 16620 H 2247.35 0.60668 8.36503 0
M  V30 16621 H 2245.66 -0.362662 10.1825 0
M  V30 16622 H 2245.47 2.00611 10.0304 0
M  V30 16623 H 2243.84 1.41843 9.55327 0
M  V30 16624 H 2240.1 -2.97041 5.85344 0
M  V30 16625 H 2244.68 1.54076 6.07465 0
M  V30 16626 H 2239.07 0.901517 3.49562 0
M  V30 16627 H 2240.47 1.97957 3.71669 0
M  V30 16628 H 2246.48 -1.95704 6.0346 0
M  V30 16629 P 2248.33 -1.25109 8.70152 0
M  V30 16630 O 2249.76 -1.35303 9.21419 0
M  V30 16631 O 2247.97 -0.0769065 7.84762 0
M  V30 16632 O 2248.01 -2.55232 7.81161 0
M  V30 16633 C 2247.85 -3.79939 8.58154 0
M  V30 16634 C 2248.39 -4.93969 7.72701 0
M  V30 16635 O 2247.34 -5.18726 6.91205 0
M  V30 16636 C 2249.61 -4.69597 6.85231 0
M  V30 16637 O 2250.35 -5.83832 6.51337 0
M  V30 16638 C 2248.94 -3.96706 5.66633 0
M  V30 16639 O 2249.74 -4.15346 4.49615 0
M  V30 16640 C 2247.6 -4.66153 5.59313 0
M  V30 16641 N 2246.56 -3.71582 5.24027 0
M  V30 16642 C 2246.62 -2.46018 5.67902 0
M  V30 16643 N 2245.58 -1.74868 5.24518 0
M  V30 16644 C 2244.84 -2.61333 4.54528 0
M  V30 16645 C 2243.54 -2.46162 3.95441 0
M  V30 16646 O 2242.8 -1.46013 3.94122 0
M  V30 16647 N 2243.11 -3.59334 3.34752 0
M  V30 16648 C 2243.86 -4.79605 3.3023 0
M  V30 16649 N 2243.26 -5.82109 2.6065 0
M  V30 16650 N 2245.01 -4.97402 3.8843 0
M  V30 16651 C 2245.47 -3.86258 4.50476 0
M  V30 16652 H 2247.64 -5.47679 4.85214 0
M  V30 16653 H 2248.82 -2.88964 5.86476 0
M  V30 16654 H 2250.3 -4.01947 7.36109 0
M  V30 16655 H 2248.61 -5.80182 8.37584 0
M  V30 16656 H 2248.42 -3.73517 9.52265 0
M  V30 16657 H 2246.79 -3.97163 8.80359 0
M  V30 16658 H 2242.21 -3.5825 2.90294 0
M  V30 16659 H 2247.42 -2.06161 6.30974 0
M  V30 16660 H 2242.35 -5.66979 2.15354 0
M  V30 16661 H 2243.72 -6.73686 2.54344 0
M  V30 16662 H 2249.43 -4.90891 4.01857 0
M  V30 16663 P 2251.28 -5.75688 6.64379 0
M  V30 16664 O 2252.71 -6.11849 7.01846 0
M  V30 16665 O 2250.92 -4.30744 6.56026 0
M  V30 16666 O 2250.96 -6.37042 5.19165 0
M  V30 16667 C 2250.8 -7.83578 5.16515 0
M  V30 16668 C 2251.34 -8.33398 3.83019 0
M  V30 16669 O 2250.29 -8.10074 3.01034 0
M  V30 16670 C 2252.56 -7.65514 3.2257 0
M  V30 16671 O 2253.3 -8.4329 2.32297 0
M  V30 16672 C 2251.89 -6.40075 2.62207 0
M  V30 16673 O 2252.69 -5.92589 1.53712 0
M  V30 16674 C 2250.55 -6.9454 2.18503 0
M  V30 16675 H 2250.59 -7.23063 1.12091 0
M  V30 16676 H 2251.77 -5.6025 3.37201 0
M  V30 16677 H 2253.25 -7.35707 4.02681 0
M  V30 16678 H 2251.56 -9.40912 3.9095 0
M  V30 16679 H 2251.37 -8.29056 5.99158 0
M  V30 16680 H 2249.74 -8.10073 5.25882 0
M  V30 16681 H 2252.38 -6.30324 0.726794 0
M  V30 16682 P 2254.24 -8.4349 2.47671 0
M  V30 16683 O 2255.66 -8.94167 2.5964 0
M  V30 16684 O 2253.88 -7.1704 3.19006 0
M  V30 16685 O 2253.91 -8.16596 0.923387 0
M  V30 16686 C 2253.75 -9.38437 0.108857 0
M  V30 16687 C 2254.29 -9.08175 -1.28353 0
M  V30 16688 O 2253.24 -8.44229 -1.84713 0
M  V30 16689 C 2255.51 -8.18386 -1.42505 0
M  V30 16690 O 2256.25 -8.3501 -2.60497 0
M  V30 16691 C 2254.84 -6.80225 -1.25468 0
M  V30 16692 O 2255.64 -5.81621 -1.91066 0
M  V30 16693 C 2253.5 -7.02416 -1.9168 0
M  V30 16694 H 2253.54 -6.6888 -2.96621 0
M  V30 16695 H 2254.72 -6.53617 -0.192223 0
M  V30 16696 H 2256.2 -8.36622 -0.589963 0
M  V30 16697 H 2254.51 -10.0291 -1.79807 0
M  V30 16698 H 2254.32 -10.2138 0.558219 0
M  V30 16699 H 2252.69 -9.6579 0.0444202 0
M  V30 16700 H 2255.33 -5.69556 -2.79637 0
M  V30 16701 P 2257.19 -8.4349 -2.47671 0
M  V30 16702 O 2258.61 -8.92689 -2.65029 0
M  V30 16703 O 2256.83 -7.7568 -1.19296 0
M  V30 16704 O 2256.86 -7.36886 -3.63805 0
M  V30 16705 C 2256.7 -7.95433 -4.98253 0
M  V30 16706 C 2257.24 -6.94612 -5.98974 0
M  V30 16707 O 2256.19 -6.10277 -6.11744 0
M  V30 16708 C 2258.46 -6.11426 -5.62335 0
M  V30 16709 O 2259.2 -5.6162 -6.70584 0
M  V30 16710 C 2257.79 -5.04409 -4.73308 0
M  V30 16711 O 2258.59 -3.86404 -4.74719 0
M  V30 16712 C 2256.46 -4.8728 -5.41006 0
M  V30 16713 N 2255.41 -4.65812 -4.42377 0
M  V30 16714 C 2255.58 -5.09132 -3.15382 0
M  V30 16715 N 2254.55 -4.84021 -2.3716 0
M  V30 16716 C 2253.67 -4.18386 -3.20441 0
M  V30 16717 C 2252.4 -3.6275 -2.94905 0
M  V30 16718 N 2251.84 -3.05008 -4.05243 0
M  V30 16719 C 2252.44 -2.98348 -5.28159 0
M  V30 16720 N 2253.62 -3.48171 -5.56333 0
M  V30 16721 C 2254.19 -4.06869 -4.47212 0
M  V30 16722 H 2257.67 -5.39013 -3.70026 0
M  V30 16723 H 2259.15 -6.71916 -5.01943 0
M  V30 16724 H 2257.46 -7.45796 -6.94223 0
M  V30 16725 H 2257.27 -8.89416 -5.05237 0
M  V30 16726 H 2255.64 -8.14876 -5.18409 0
M  V30 16727 H 2256.48 -5.59989 -2.81362 0
M  V30 16728 H 2258.28 -3.27906 -5.43085 0
M  V30 16729 P 2260.14 -5.75688 -6.64379 0
M  V30 16730 O 2261.56 -6.07627 -7.05504 0
M  V30 16731 O 2259.78 -5.88047 -5.19722 0
M  V30 16732 O 2259.81 -4.2322 -7.04443 0
M  V30 16733 C 2259.65 -3.99743 -8.4911 0
M  V30 16734 C 2260.19 -2.60516 -8.79425 0
M  V30 16735 O 2259.14 -1.82684 -8.4467 0
M  V30 16736 C 2261.41 -2.10343 -8.03628 0
M  V30 16737 O 2262.15 -1.09919 -8.67766 0
M  V30 16738 C 2260.74 -1.68446 -6.70876 0
M  V30 16739 O 2261.54 -0.678137 -6.08433 0
M  V30 16740 C 2259.41 -1.17436 -7.18567 0
M  V30 16741 H 2259.44 -0.0804732 -7.31656 0
M  V30 16742 H 2260.62 -2.54037 -6.02537 0
M  V30 16743 H 2262.1 -2.93881 -7.85526 0
M  V30 16744 H 2260.41 -2.53065 -9.86973 0
M  V30 16745 H 2260.22 -4.75072 -9.05887 0
M  V30 16746 H 2258.59 -4.05244 -8.76668 0
M  V30 16747 H 2261.23 0.177647 -6.34251 0
M  V30 16748 P 2263.09 -1.25109 -8.70152 0
M  V30 16749 O 2264.49 -1.3516 -9.26897 0
M  V30 16750 O 2262.71 -2.18141 -7.59181 0
M  V30 16751 O 2262.76 0.248118 -8.21325 0
M  V30 16752 C 2262.6 1.22779 -9.30434 0
M  V30 16753 C 2263.14 2.56265 -8.80568 0
M  V30 16754 O 2262.09 3.02944 -8.09255 0
M  V30 16755 C 2264.36 2.57523 -7.89775 0
M  V30 16756 O 2265.1 3.7668 -7.89438 0
M  V30 16757 C 2263.69 2.20997 -6.55446 0
M  V30 16758 O 2264.49 2.71851 -5.48419 0
M  V30 16759 C 2262.36 2.89693 -6.67988 0
M  V30 16760 N 2261.31 2.08895 -6.07487 0
M  V30 16761 C 2260.28 2.72974 -5.43836 0
M  V30 16762 O 2260.32 3.97779 -5.34036 0
M  V30 16763 N 2259.27 2.0005 -4.91983 0
M  V30 16764 C 2259.31 0.66501 -5.00098 0
M  V30 16765 C 2260.41 -0.0100979 -5.61099 0
M  V30 16766 C 2261.38 0.74189 -6.14236 0
M  V30 16767 H 2262.39 3.8874 -6.19774 0
M  V30 16768 H 2263.57 1.12673 -6.44018 0
M  V30 16769 H 2265.06 1.783 -8.19631 0
M  V30 16770 H 2263.36 3.21673 -9.66791 0
M  V30 16771 H 2263.17 0.901032 -10.1892 0
M  V30 16772 H 2261.54 1.33036 -9.56493 0
M  V30 16773 H 2260.46 -1.09591 -5.64358 0
M  V30 16774 H 2262.22 0.260263 -6.6359 0
M  V30 16775 H 2264.28 3.62759 -5.33442 0
M  V30 16776 P 2266.04 3.65191 -7.99657 0
M  V30 16777 O 2267.46 3.89332 -8.45794 0
M  V30 16778 O 2265.68 2.28472 -7.50807 0
M  V30 16779 O 2265.71 4.64972 -6.77611 0
M  V30 16780 C 2265.55 6.06319 -7.16352 0
M  V30 16781 C 2266.09 6.91731 -6.02299 0
M  V30 16782 O 2265.04 6.92449 -5.17064 0
M  V30 16783 C 2267.31 6.43627 -5.25174 0
M  V30 16784 O 2268.05 7.43686 -4.60469 0
M  V30 16785 C 2266.64 5.40275 -4.31916 0
M  V30 16786 O 2267.44 5.25279 -3.14438 0
M  V30 16787 C 2265.31 6.04847 -4.05327 0
M  V30 16788 H 2265.34 6.62195 -3.11261 0
M  V30 16789 H 2266.52 4.42556 -4.81383 0
M  V30 16790 H 2268.01 5.92458 -5.93643 0
M  V30 16791 H 2266.31 7.92655 -6.402 0
M  V30 16792 H 2266.12 6.26671 -8.0846 0
M  V30 16793 H 2264.49 6.29101 -7.32804 0
M  V30 16794 H 2267.13 5.84315 -2.47318 0
M  V30 16795 P 2268.99 7.39546 -4.75277 0
M  V30 16796 O 2270.41 7.84798 -5.01039 0
M  V30 16797 O 2268.63 5.9812 -5.08098 0
M  V30 16798 O 2268.67 7.57503 -3.1866 0
M  V30 16799 C 2268.51 8.97357 -2.74833 0
M  V30 16800 C 2269.05 9.07548 -1.32709 0
M  V30 16801 O 2267.99 8.62072 -0.606159 0
M  V30 16802 C 2270.26 8.25383 -0.938334 0
M  V30 16803 O 2271 8.74577 0.146954 0
M  V30 16804 C 2269.59 6.8802 -0.712559 0
M  V30 16805 O 2270.39 6.1189 0.194655 0
M  V30 16806 C 2268.26 7.27966 -0.139777 0
M  V30 16807 H 2268.29 7.25354 0.961601 0
M  V30 16808 H 2269.47 6.32557 -1.65702 0
M  V30 16809 H 2270.96 8.19355 -1.79097 0
M  V30 16810 H 2269.26 10.1294 -1.10029 0
M  V30 16811 H 2269.07 9.64276 -3.41316 0
M  V30 16812 H 2267.44 9.25417 -2.76357 0
M  V30 16813 H 2270.08 6.25267 1.07847 0
M  V30 16814 P 2271.94 8.791 1.97128e-11 0
M  V30 16815 O 2273.36 9.31096 0.027933 0
M  V30 16816 O 2271.58 7.77869 -1.04071 0
M  V30 16817 O 2271.62 8.09533 1.41463 0
M  V30 16818 C 2271.46 9.0349 2.53943 0
M  V30 16819 C 2272 8.35226 3.79016 0
M  V30 16820 O 2270.94 7.57992 4.15078 0
M  V30 16821 C 2273.21 7.45087 3.67298 0
M  V30 16822 O 2273.95 7.27796 4.85194 0
M  V30 16823 C 2272.54 6.17323 3.12027 0
M  V30 16824 O 2273.34 5.04231 3.47188 0
M  V30 16825 C 2271.21 6.19961 3.81809 0
M  V30 16826 H 2271.24 5.58218 4.73051 0
M  V30 16827 H 2272.42 6.21726 2.02589 0
M  V30 16828 H 2273.91 7.86112 2.9231 0
M  V30 16829 H 2272.21 9.11627 4.55076 0
M  V30 16830 H 2272.02 9.9573 2.34194 0
M  V30 16831 H 2270.39 9.2792 2.67832 0
M  V30 16832 H 2273.03 4.67702 4.28772 0
M  V30 16833 P 2274.89 7.39546 4.75277 0
M  V30 16834 O 2276.31 7.81777 5.05738 0
M  V30 16835 O 2274.53 7.1065 3.32998 0
M  V30 16836 O 2274.57 6.04542 5.56673 0
M  V30 16837 C 2274.41 6.22772 7.02095 0
M  V30 16838 C 2274.95 4.97725 7.70406 0
M  V30 16839 O 2273.89 4.13256 7.58987 0
M  V30 16840 C 2276.16 4.28231 7.11815 0
M  V30 16841 O 2276.9 3.49945 8.01648 0
M  V30 16842 C 2275.5 3.5063 5.96244 0
M  V30 16843 O 2276.29 2.36482 5.64681 0
M  V30 16844 C 2274.16 3.15122 6.56374 0
M  V30 16845 H 2274.19 2.13853 6.99751 0
M  V30 16846 H 2275.37 4.13501 5.06559 0
M  V30 16847 H 2276.86 5.03285 6.70911 0
M  V30 16848 H 2275.16 5.20877 8.75697 0
M  V30 16849 H 2274.97 7.11046 7.35349 0
M  V30 16850 H 2273.34 6.35815 7.26986 0
M  V30 16851 H 2275.98 1.61644 6.13565 0
M  V30 16852 P 2277.84 3.65191 7.99657 0
M  V30 16853 O 2279.26 3.8425 8.48115 0
M  V30 16854 O 2277.48 4.17805 6.64342 0
M  V30 16855 O 2277.52 2.07613 7.95143 0
M  V30 16856 C 2277.36 1.44328 9.27336 0
M  V30 16857 C 2277.9 0.0220036 9.17197 0
M  V30 16858 O 2276.84 -0.626867 8.61923 0
M  V30 16859 C 2279.12 -0.24586 8.30336 0
M  V30 16860 O 2279.85 -1.39011 8.63583 0
M  V30 16861 C 2278.45 -0.273849 6.91158 0
M  V30 16862 O 2279.25 -1.06348 6.02892 0
M  V30 16863 C 2277.11 -0.897649 7.22545 0
M  V30 16864 H 2277.14 -1.9841 7.04286 0
M  V30 16865 H 2278.32 0.739928 6.497 0
M  V30 16866 H 2279.81 0.60668 8.36503 0
M  V30 16867 H 2278.11 -0.352479 10.1829 0
M  V30 16868 H 2277.92 2.00611 10.0304 0
M  V30 16869 H 2276.29 1.41843 9.55327 0
M  V30 16870 H 2278.93 -1.95734 6.03555 0
M  V30 16871 P 2280.79 -1.25109 8.70152 0
M  V30 16872 O 2282.21 -1.35274 9.21221 0
M  V30 16873 O 2280.43 -0.0769065 7.84762 0
M  V30 16874 O 2280.47 -2.55232 7.81161 0
M  V30 16875 C 2280.31 -3.79939 8.58154 0
M  V30 16876 C 2280.85 -4.94023 7.72785 0
M  V30 16877 O 2279.79 -5.18726 6.91205 0
M  V30 16878 C 2282.07 -4.69597 6.85231 0
M  V30 16879 O 2282.8 -5.83832 6.51337 0
M  V30 16880 C 2281.4 -3.96706 5.66633 0
M  V30 16881 O 2282.2 -4.15414 4.49689 0
M  V30 16882 C 2280.06 -4.66153 5.59313 0
M  V30 16883 H 2280.09 -5.47679 4.85214 0
M  V30 16884 H 2281.27 -2.89008 5.86566 0
M  V30 16885 H 2282.76 -4.0121 7.36511 0
M  V30 16886 H 2281.06 -5.80182 8.37584 0
M  V30 16887 H 2280.87 -3.73517 9.52265 0
M  V30 16888 H 2279.24 -3.97163 8.80359 0
M  V30 16889 H 2281.88 -4.90969 4.01921 0
M  V30 16890 P 2283.74 -5.75688 6.64379 0
M  V30 16891 O 2285.16 -6.11849 7.01846 0
M  V30 16892 O 2283.38 -4.30744 6.56026 0
M  V30 16893 O 2283.42 -6.37042 5.19165 0
M  V30 16894 C 2283.26 -7.83578 5.16515 0
M  V30 16895 C 2283.8 -8.33398 3.83019 0
M  V30 16896 O 2282.74 -8.10074 3.01034 0
M  V30 16897 C 2285.02 -7.65514 3.2257 0
M  V30 16898 O 2285.75 -8.4329 2.32297 0
M  V30 16899 C 2284.35 -6.40075 2.62207 0
M  V30 16900 O 2285.15 -5.92589 1.53712 0
M  V30 16901 C 2283.01 -6.9454 2.18503 0
M  V30 16902 H 2283.04 -7.23063 1.12091 0
M  V30 16903 H 2284.23 -5.6025 3.37201 0
M  V30 16904 H 2285.71 -7.35707 4.02681 0
M  V30 16905 H 2284.02 -9.40912 3.9095 0
M  V30 16906 H 2283.83 -8.29056 5.99158 0
M  V30 16907 H 2282.2 -8.10073 5.25882 0
M  V30 16908 H 2284.83 -6.30324 0.726794 0
M  V30 16909 P 2286.69 -8.4349 2.47671 0
M  V30 16910 O 2288.11 -8.94167 2.5964 0
M  V30 16911 O 2286.33 -7.1704 3.19006 0
M  V30 16912 O 2286.37 -8.16596 0.923387 0
M  V30 16913 C 2286.21 -9.38437 0.108857 0
M  V30 16914 C 2286.75 -9.08175 -1.28353 0
M  V30 16915 O 2285.69 -8.44229 -1.84713 0
M  V30 16916 C 2287.97 -8.18386 -1.42505 0
M  V30 16917 O 2288.7 -8.3501 -2.60497 0
M  V30 16918 C 2287.3 -6.80225 -1.25468 0
M  V30 16919 O 2288.1 -5.81621 -1.91066 0
M  V30 16920 C 2285.96 -7.02416 -1.9168 0
M  V30 16921 H 2285.99 -6.6888 -2.96621 0
M  V30 16922 H 2287.18 -6.53617 -0.192223 0
M  V30 16923 H 2288.66 -8.36622 -0.589963 0
M  V30 16924 H 2286.97 -10.0291 -1.79807 0
M  V30 16925 H 2286.78 -10.2138 0.558219 0
M  V30 16926 H 2285.15 -9.6579 0.0444202 0
M  V30 16927 H 2287.78 -5.69556 -2.79637 0
M  V30 16928 P 2289.64 -8.4349 -2.47671 0
M  V30 16929 O 2291.06 -8.92593 -2.65 0
M  V30 16930 O 2289.28 -7.7568 -1.19296 0
M  V30 16931 O 2289.32 -7.36886 -3.63805 0
M  V30 16932 C 2289.16 -7.95349 -4.982 0
M  V30 16933 C 2289.7 -6.94612 -5.98974 0
M  V30 16934 O 2288.64 -6.10347 -6.11815 0
M  V30 16935 C 2290.92 -6.11426 -5.62335 0
M  V30 16936 O 2291.66 -5.6162 -6.70584 0
M  V30 16937 C 2290.25 -5.04409 -4.73308 0
M  V30 16938 O 2291.05 -3.85992 -4.75183 0
M  V30 16939 C 2288.91 -4.8728 -5.41006 0
M  V30 16940 H 2288.94 -4.02333 -6.11157 0
M  V30 16941 H 2290.13 -5.39466 -3.69543 0
M  V30 16942 H 2291.61 -6.71916 -5.01943 0
M  V30 16943 H 2289.92 -7.4649 -6.93477 0
M  V30 16944 H 2289.73 -8.89416 -5.05237 0
M  V30 16945 H 2288.1 -8.14876 -5.18409 0
M  V30 16946 H 2290.74 -3.27957 -5.4317 0
M  V30 16947 P 2292.59 -5.75688 -6.64379 0
M  V30 16948 O 2294.01 -6.07627 -7.05504 0
M  V30 16949 O 2292.23 -5.88047 -5.19722 0
M  V30 16950 O 2292.27 -4.2322 -7.04443 0
M  V30 16951 C 2292.11 -3.99743 -8.4911 0
M  V30 16952 C 2292.65 -2.60516 -8.79425 0
M  V30 16953 O 2291.59 -1.82684 -8.4467 0
M  V30 16954 C 2293.87 -2.10343 -8.03628 0
M  V30 16955 O 2294.61 -1.09919 -8.67766 0
M  V30 16956 C 2293.2 -1.68446 -6.70876 0
M  V30 16957 O 2294 -0.678137 -6.08433 0
M  V30 16958 C 2291.86 -1.17436 -7.18567 0
M  V30 16959 H 2291.89 -0.0804732 -7.31656 0
M  V30 16960 H 2293.08 -2.54037 -6.02537 0
M  V30 16961 H 2294.56 -2.93881 -7.85526 0
M  V30 16962 H 2292.87 -2.53065 -9.86973 0
M  V30 16963 H 2292.68 -4.75072 -9.05887 0
M  V30 16964 H 2291.05 -4.05244 -8.76668 0
M  V30 16965 H 2293.69 0.177647 -6.34251 0
M  V30 16966 P 2295.54 -1.25109 -8.70152 0
M  V30 16967 O 2296.96 -1.29758 -9.22115 0
M  V30 16968 O 2295.18 -2.13714 -7.55141 0
M  V30 16969 O 2295.22 0.248149 -8.21425 0
M  V30 16970 C 2295.06 1.22792 -9.30533 0
M  V30 16971 C 2295.6 2.56293 -8.80664 0
M  V30 16972 O 2294.55 3.02944 -8.09255 0
M  V30 16973 C 2296.82 2.57523 -7.89775 0
M  V30 16974 O 2297.56 3.7668 -7.89438 0
M  V30 16975 C 2296.15 2.20997 -6.55446 0
M  V30 16976 O 2296.95 2.71302 -5.48691 0
M  V30 16977 C 2294.81 2.89693 -6.67988 0
M  V30 16978 N 2293.77 2.08895 -6.07487 0
M  V30 16979 C 2293.94 0.753809 -5.94137 0
M  V30 16980 N 2292.91 0.146592 -5.38801 0
M  V30 16981 C 2292.03 1.1768 -5.13693 0
M  V30 16982 C 2290.76 1.17563 -4.52477 0
M  V30 16983 N 2290.16 0.057481 -4.04759 0
M  V30 16984 N 2290.19 2.41918 -4.45789 0
M  V30 16985 C 2290.8 3.56493 -4.90792 0
M  V30 16986 N 2291.97 3.61423 -5.47817 0
M  V30 16987 C 2292.55 2.37779 -5.5588 0
M  V30 16988 H 2294.84 3.8874 -6.19774 0
M  V30 16989 H 2296.03 1.12673 -6.44018 0
M  V30 16990 H 2297.51 1.7746 -8.19711 0
M  V30 16991 H 2295.82 3.21673 -9.66791 0
M  V30 16992 H 2295.63 0.901032 -10.1892 0
M  V30 16993 H 2294 1.33049 -9.56592 0
M  V30 16994 H 2290.26 4.49919 -4.77947 0
M  V30 16995 H 2294.84 0.233081 -6.26266 0
M  V30 16996 H 2289.23 0.119831 -3.60801 0
M  V30 16997 H 2290.63 -0.852272 -4.12385 0
M  V30 16998 H 2296.64 3.5779 -5.23879 0
M  V30 16999 P 2298.49 3.65191 -7.99657 0
M  V30 17000 O 2299.92 3.89332 -8.45794 0
M  V30 17001 O 2298.13 2.28472 -7.50807 0
M  V30 17002 O 2298.17 4.64972 -6.77611 0
M  V30 17003 C 2298.01 6.06319 -7.16352 0
M  V30 17004 C 2298.55 6.91731 -6.02299 0
M  V30 17005 O 2297.5 6.92449 -5.17064 0
M  V30 17006 C 2299.77 6.43627 -5.25174 0
M  V30 17007 O 2300.51 7.43686 -4.60469 0
M  V30 17008 C 2299.1 5.40275 -4.31916 0
M  V30 17009 O 2299.9 5.25279 -3.14438 0
M  V30 17010 C 2297.76 6.04847 -4.05327 0
M  V30 17011 H 2297.8 6.62195 -3.11261 0
M  V30 17012 H 2298.98 4.42556 -4.81383 0
M  V30 17013 H 2300.46 5.92458 -5.93643 0
M  V30 17014 H 2298.77 7.92655 -6.402 0
M  V30 17015 H 2298.58 6.26671 -8.0846 0
M  V30 17016 H 2296.95 6.29101 -7.32804 0
M  V30 17017 H 2299.59 5.84315 -2.47318 0
M  V30 17018 P 2301.44 7.39546 -4.75277 0
M  V30 17019 O 2302.87 7.84798 -5.01039 0
M  V30 17020 O 2301.08 5.9812 -5.08098 0
M  V30 17021 O 2301.12 7.57503 -3.1866 0
M  V30 17022 C 2300.96 8.97357 -2.74833 0
M  V30 17023 C 2301.5 9.07548 -1.32709 0
M  V30 17024 O 2300.45 8.62072 -0.606159 0
M  V30 17025 C 2302.72 8.25383 -0.938334 0
M  V30 17026 O 2303.46 8.74577 0.146954 0
M  V30 17027 C 2302.05 6.8802 -0.712559 0
M  V30 17028 O 2302.85 6.1189 0.194655 0
M  V30 17029 C 2300.71 7.27966 -0.139777 0
M  V30 17030 H 2300.75 7.25354 0.961601 0
M  V30 17031 H 2301.93 6.32557 -1.65702 0
M  V30 17032 H 2303.41 8.19355 -1.79097 0
M  V30 17033 H 2301.72 10.1294 -1.10029 0
M  V30 17034 H 2301.53 9.64276 -3.41316 0
M  V30 17035 H 2299.9 9.25417 -2.76357 0
M  V30 17036 H 2302.54 6.25267 1.07847 0
M  V30 17037 P 2304.4 8.791 2.00229e-11 0
M  V30 17038 O 2305.82 9.31096 0.027933 0
M  V30 17039 O 2304.04 7.77869 -1.04071 0
M  V30 17040 O 2304.07 8.09533 1.41463 0
M  V30 17041 C 2303.91 9.0349 2.53943 0
M  V30 17042 C 2304.45 8.35226 3.79016 0
M  V30 17043 O 2303.4 7.57992 4.15078 0
M  V30 17044 C 2305.67 7.45087 3.67298 0
M  V30 17045 O 2306.41 7.27796 4.85194 0
M  V30 17046 C 2305 6.17323 3.12027 0
M  V30 17047 O 2305.8 5.04231 3.47188 0
M  V30 17048 C 2303.66 6.19961 3.81809 0
M  V30 17049 H 2303.7 5.58218 4.73051 0
M  V30 17050 H 2304.88 6.21726 2.02589 0
M  V30 17051 H 2306.36 7.86112 2.9231 0
M  V30 17052 H 2304.67 9.11627 4.55076 0
M  V30 17053 H 2304.48 9.9573 2.34194 0
M  V30 17054 H 2302.85 9.2792 2.67832 0
M  V30 17055 H 2305.49 4.67702 4.28772 0
M  V30 17056 P 2307.35 7.39546 4.75277 0
M  V30 17057 O 2308.77 7.81777 5.05738 0
M  V30 17058 O 2306.99 7.1065 3.32998 0
M  V30 17059 O 2307.02 6.04542 5.56673 0
M  V30 17060 C 2306.86 6.22772 7.02095 0
M  V30 17061 C 2307.4 4.97725 7.70406 0
M  V30 17062 O 2306.35 4.13256 7.58987 0
M  V30 17063 C 2308.62 4.28231 7.11815 0
M  V30 17064 O 2309.36 3.49945 8.01648 0
M  V30 17065 C 2307.95 3.5063 5.96244 0
M  V30 17066 O 2308.75 2.36482 5.64681 0
M  V30 17067 C 2306.61 3.15122 6.56374 0
M  V30 17068 H 2306.65 2.13853 6.99751 0
M  V30 17069 H 2307.83 4.13501 5.06559 0
M  V30 17070 H 2309.31 5.03285 6.70911 0
M  V30 17071 H 2307.62 5.20877 8.75697 0
M  V30 17072 H 2307.43 7.11046 7.35349 0
M  V30 17073 H 2305.8 6.35815 7.26986 0
M  V30 17074 H 2308.44 1.61644 6.13565 0
M  V30 17075 P 2310.3 3.65191 7.99657 0
M  V30 17076 O 2311.72 3.8425 8.48115 0
M  V30 17077 O 2309.94 4.17805 6.64342 0
M  V30 17078 O 2309.97 2.07613 7.95143 0
M  V30 17079 C 2309.81 1.44328 9.27336 0
M  V30 17080 C 2310.35 0.0220036 9.17197 0
M  V30 17081 O 2309.3 -0.626867 8.61923 0
M  V30 17082 C 2311.57 -0.24586 8.30336 0
M  V30 17083 O 2312.31 -1.39011 8.63583 0
M  V30 17084 C 2310.9 -0.273849 6.91158 0
M  V30 17085 O 2311.7 -1.06348 6.02892 0
M  V30 17086 C 2309.57 -0.897649 7.22545 0
M  V30 17087 H 2309.6 -1.9841 7.04286 0
M  V30 17088 H 2310.78 0.739928 6.497 0
M  V30 17089 H 2312.26 0.60668 8.36503 0
M  V30 17090 H 2310.57 -0.352479 10.1829 0
M  V30 17091 H 2310.38 2.00611 10.0304 0
M  V30 17092 H 2308.75 1.41843 9.55327 0
M  V30 17093 H 2311.39 -1.95734 6.03555 0
M  V30 17094 P 2313.25 -1.25109 8.70152 0
M  V30 17095 O 2314.67 -1.35288 9.2132 0
M  V30 17096 O 2312.89 -0.0769065 7.84762 0
M  V30 17097 O 2312.92 -2.55232 7.81161 0
M  V30 17098 C 2312.76 -3.79979 8.58246 0
M  V30 17099 C 2313.3 -4.94023 7.72785 0
M  V30 17100 O 2312.25 -5.18666 6.91125 0
M  V30 17101 C 2314.52 -4.69597 6.85231 0
M  V30 17102 O 2315.26 -5.83832 6.51337 0
M  V30 17103 C 2313.85 -3.96706 5.66633 0
M  V30 17104 O 2314.65 -4.14896 4.5003 0
M  V30 17105 C 2312.52 -4.66153 5.59313 0
M  V30 17106 N 2311.47 -3.71582 5.24027 0
M  V30 17107 C 2311.64 -2.39715 5.48833 0
M  V30 17108 N 2310.61 -1.65863 5.12845 0
M  V30 17109 C 2309.73 -2.57637 4.5973 0
M  V30 17110 C 2308.46 -2.40278 4.01027 0
M  V30 17111 N 2307.9 -3.57711 3.59575 0
M  V30 17112 C 2308.5 -4.80324 3.70476 0
M  V30 17113 N 2309.68 -5.01121 4.23801 0
M  V30 17114 C 2310.25 -3.84757 4.66372 0
M  V30 17115 H 2313.73 -2.8955 5.86187 0
M  V30 17116 H 2315.21 -4.0121 7.36511 0
M  V30 17117 H 2313.52 -5.81019 8.37003 0
M  V30 17118 H 2313.33 -3.73517 9.52265 0
M  V30 17119 H 2311.7 -3.97163 8.80359 0
M  V30 17120 H 2312.54 -1.98804 5.94332 0
M  V30 17121 H 2314.34 -4.90891 4.01857 0
M  V30 17122 P 2316.2 -5.75688 6.64379 0
M  V30 17123 O 2317.62 -6.11849 7.01846 0
M  V30 17124 O 2315.84 -4.30744 6.56026 0
M  V30 17125 O 2315.87 -6.37042 5.19165 0
M  V30 17126 C 2315.71 -7.83578 5.16515 0
M  V30 17127 C 2316.25 -8.33398 3.83019 0
M  V30 17128 O 2315.2 -8.10074 3.01034 0
M  V30 17129 C 2317.47 -7.65514 3.2257 0
M  V30 17130 O 2318.21 -8.4329 2.32297 0
M  V30 17131 C 2316.8 -6.40075 2.62207 0
M  V30 17132 O 2317.6 -5.92589 1.53712 0
M  V30 17133 C 2315.47 -6.9454 2.18503 0
M  V30 17134 H 2315.5 -7.23063 1.12091 0
M  V30 17135 H 2316.68 -5.6025 3.37201 0
M  V30 17136 H 2318.17 -7.35707 4.02681 0
M  V30 17137 H 2316.47 -9.40912 3.9095 0
M  V30 17138 H 2316.28 -8.29056 5.99158 0
M  V30 17139 H 2314.65 -8.10073 5.25882 0
M  V30 17140 H 2317.29 -6.30324 0.726794 0
M  V30 17141 P 2319.15 -8.4349 2.47671 0
M  V30 17142 O 2320.57 -8.94359 2.59696 0
M  V30 17143 O 2318.79 -7.1704 3.19006 0
M  V30 17144 O 2318.83 -8.16596 0.923387 0
M  V30 17145 C 2318.67 -9.38437 0.108857 0
M  V30 17146 C 2319.21 -9.08076 -1.28339 0
M  V30 17147 O 2318.15 -8.44229 -1.84713 0
M  V30 17148 C 2320.42 -8.18386 -1.42505 0
M  V30 17149 O 2321.16 -8.3501 -2.60497 0
M  V30 17150 C 2319.76 -6.80225 -1.25468 0
M  V30 17151 O 2320.55 -5.81526 -1.91035 0
M  V30 17152 C 2318.42 -7.02416 -1.9168 0
M  V30 17153 N 2317.37 -6.31033 -1.20314 0
M  V30 17154 C 2317.44 -6.18781 0.121293 0
M  V30 17155 N 2316.39 -5.49762 0.588272 0
M  V30 17156 C 2315.66 -5.22015 -0.488988 0
M  V30 17157 C 2314.35 -4.61966 -0.596448 0
M  V30 17158 O 2313.62 -4.19162 0.309059 0
M  V30 17159 N 2313.92 -4.53773 -1.878 0
M  V30 17160 C 2314.67 -4.99623 -2.99082 0
M  V30 17161 N 2314.07 -4.78912 -4.21227 0
M  V30 17162 N 2315.82 -5.59957 -2.91093 0
M  V30 17163 C 2316.28 -5.70225 -1.64218 0
M  V30 17164 H 2318.45 -6.6888 -2.96621 0
M  V30 17165 H 2319.63 -6.53517 -0.192194 0
M  V30 17166 H 2321.12 -8.36563 -0.598329 0
M  V30 17167 H 2319.42 -10.0291 -1.79807 0
M  V30 17168 H 2319.23 -10.2138 0.558219 0
M  V30 17169 H 2317.6 -9.6579 0.0444202 0
M  V30 17170 H 2313.03 -4.12883 -2.05283 0
M  V30 17171 H 2318.23 -6.59596 0.745856 0
M  V30 17172 H 2313.16 -4.31425 -4.2628 0
M  V30 17173 H 2314.54 -5.11219 -5.07148 0
M  V30 17174 H 2320.24 -5.69466 -2.79593 0
M  V30 17175 P 2322.1 -8.4349 -2.47671 0
M  V30 17176 O 2323.52 -8.92593 -2.65 0
M  V30 17177 O 2321.74 -7.7568 -1.19296 0
M  V30 17178 O 2321.78 -7.36886 -3.63805 0
M  V30 17179 C 2321.62 -7.95349 -4.982 0
M  V30 17180 C 2322.16 -6.94612 -5.98974 0
M  V30 17181 O 2321.1 -6.10347 -6.11815 0
M  V30 17182 C 2323.37 -6.11426 -5.62335 0
M  V30 17183 O 2324.11 -5.6162 -6.70584 0
M  V30 17184 C 2322.7 -5.04409 -4.73308 0
M  V30 17185 O 2323.5 -3.85992 -4.75183 0
M  V30 17186 C 2321.37 -4.8728 -5.41006 0
M  V30 17187 H 2321.4 -4.02333 -6.11157 0
M  V30 17188 H 2322.58 -5.39466 -3.69543 0
M  V30 17189 H 2324.07 -6.71916 -5.01943 0
M  V30 17190 H 2322.37 -7.4649 -6.93477 0
M  V30 17191 H 2322.18 -8.89416 -5.05237 0
M  V30 17192 H 2320.55 -8.14876 -5.18409 0
M  V30 17193 H 2323.19 -3.27957 -5.4317 0
M  V30 17194 P 2325.05 -5.75688 -6.64379 0
M  V30 17195 O 2326.47 -6.07692 -7.0558 0
M  V30 17196 O 2324.69 -5.88047 -5.19722 0
M  V30 17197 O 2324.73 -4.2322 -7.04443 0
M  V30 17198 C 2324.57 -3.99785 -8.49201 0
M  V30 17199 C 2325.11 -2.60516 -8.79425 0
M  V30 17200 O 2324.05 -1.82663 -8.44573 0
M  V30 17201 C 2326.32 -2.10343 -8.03628 0
M  V30 17202 O 2327.06 -1.09919 -8.67766 0
M  V30 17203 C 2325.66 -1.68446 -6.70876 0
M  V30 17204 O 2326.45 -0.684109 -6.08265 0
M  V30 17205 C 2324.32 -1.17436 -7.18567 0
M  V30 17206 N 2323.28 -1.52699 -6.23988 0
M  V30 17207 C 2323.44 -2.578 -5.40574 0
M  V30 17208 N 2322.42 -2.78966 -4.61193 0
M  V30 17209 C 2321.53 -1.78725 -4.95769 0
M  V30 17210 C 2320.27 -1.45727 -4.44207 0
M  V30 17211 N 2319.67 -2.13994 -3.43613 0
M  V30 17212 N 2319.7 -0.374977 -5.05812 0
M  V30 17213 C 2320.3 0.345585 -6.05615 0
M  V30 17214 N 2321.48 0.0787651 -6.56253 0
M  V30 17215 C 2322.05 -1.00499 -5.96189 0
M  V30 17216 H 2324.35 -0.0804622 -7.31556 0
M  V30 17217 H 2325.53 -2.53396 -6.02698 0
M  V30 17218 H 2327.02 -2.93881 -7.85526 0
M  V30 17219 H 2325.32 -2.52078 -9.87225 0
M  V30 17220 H 2325.13 -4.75072 -9.05887 0
M  V30 17221 H 2323.5 -4.05244 -8.76668 0
M  V30 17222 H 2319.77 1.20098 -6.4532 0
M  V30 17223 H 2324.34 -3.18977 -5.3945 0
M  V30 17224 H 2318.74 -1.84983 -3.10004 0
M  V30 17225 H 2320.14 -2.9465 -3.00843 0
M  V30 17226 H 2326.14 0.177619 -6.34151 0
M  V30 17227 P 2328 -1.25109 -8.70152 0
M  V30 17228 O 2329.42 -1.29744 -9.22016 0
M  V30 17229 O 2327.64 -2.13714 -7.55141 0
M  V30 17230 O 2327.68 0.248149 -8.21425 0
M  V30 17231 C 2327.52 1.22779 -9.30434 0
M  V30 17232 C 2328.06 2.56293 -8.80664 0
M  V30 17233 O 2327 3.02979 -8.09349 0
M  V30 17234 C 2329.27 2.57523 -7.89775 0
M  V30 17235 O 2330.01 3.7668 -7.89438 0
M  V30 17236 C 2328.61 2.20997 -6.55446 0
M  V30 17237 O 2329.4 2.71895 -5.48509 0
M  V30 17238 C 2327.27 2.89693 -6.67988 0
M  V30 17239 H 2327.3 3.88793 -6.19859 0
M  V30 17240 H 2328.48 1.12046 -6.44229 0
M  V30 17241 H 2329.97 1.7746 -8.19711 0
M  V30 17242 H 2328.27 3.20706 -9.67112 0
M  V30 17243 H 2328.08 0.901032 -10.1892 0
M  V30 17244 H 2326.45 1.33049 -9.56592 0
M  V30 17245 H 2329.09 3.57847 -5.23962 0
M  V30 17246 P 2330.95 3.65191 -7.99657 0
M  V30 17247 O 2332.37 3.89332 -8.45794 0
M  V30 17248 O 2330.59 2.28472 -7.50807 0
M  V30 17249 O 2330.63 4.64972 -6.77611 0
M  V30 17250 C 2330.47 6.06319 -7.16352 0
M  V30 17251 C 2331.01 6.91731 -6.02299 0
M  V30 17252 O 2329.95 6.92449 -5.17064 0
M  V30 17253 C 2332.23 6.43627 -5.25174 0
M  V30 17254 O 2332.96 7.43686 -4.60469 0
M  V30 17255 C 2331.56 5.40275 -4.31916 0
M  V30 17256 O 2332.36 5.25279 -3.14438 0
M  V30 17257 C 2330.22 6.04847 -4.05327 0
M  V30 17258 H 2330.25 6.62195 -3.11261 0
M  V30 17259 H 2331.43 4.42556 -4.81383 0
M  V30 17260 H 2332.92 5.92458 -5.93643 0
M  V30 17261 H 2331.22 7.92655 -6.402 0
M  V30 17262 H 2331.03 6.26671 -8.0846 0
M  V30 17263 H 2329.4 6.29101 -7.32804 0
M  V30 17264 H 2332.04 5.84315 -2.47318 0
M  V30 17265 P 2333.9 7.39546 -4.75277 0
M  V30 17266 O 2335.32 7.84798 -5.01039 0
M  V30 17267 O 2333.54 5.9812 -5.08098 0
M  V30 17268 O 2333.58 7.57503 -3.1866 0
M  V30 17269 C 2333.42 8.97357 -2.74833 0
M  V30 17270 C 2333.96 9.07548 -1.32709 0
M  V30 17271 O 2332.9 8.62072 -0.606159 0
M  V30 17272 C 2335.18 8.25383 -0.938334 0
M  V30 17273 O 2335.91 8.74577 0.146954 0
M  V30 17274 C 2334.51 6.8802 -0.712559 0
M  V30 17275 O 2335.31 6.1189 0.194655 0
M  V30 17276 C 2333.17 7.27966 -0.139777 0
M  V30 17277 H 2333.2 7.25354 0.961601 0
M  V30 17278 H 2334.38 6.32557 -1.65702 0
M  V30 17279 H 2335.87 8.19355 -1.79097 0
M  V30 17280 H 2334.17 10.1294 -1.10029 0
M  V30 17281 H 2333.98 9.64276 -3.41316 0
M  V30 17282 H 2332.35 9.25417 -2.76357 0
M  V30 17283 H 2334.99 6.25267 1.07847 0
M  V30 17284 P 2336.85 8.791 2.03331e-11 0
M  V30 17285 O 2338.27 9.31096 0.027933 0
M  V30 17286 O 2336.49 7.77869 -1.04071 0
M  V30 17287 O 2336.53 8.09533 1.41463 0
M  V30 17288 C 2336.37 9.0349 2.53943 0
M  V30 17289 C 2336.91 8.35226 3.79016 0
M  V30 17290 O 2335.85 7.57992 4.15078 0
M  V30 17291 C 2338.13 7.45087 3.67298 0
M  V30 17292 O 2338.86 7.27796 4.85194 0
M  V30 17293 C 2337.46 6.17323 3.12027 0
M  V30 17294 O 2338.26 5.04231 3.47188 0
M  V30 17295 C 2336.12 6.19961 3.81809 0
M  V30 17296 H 2336.15 5.58218 4.73051 0
M  V30 17297 H 2337.34 6.21726 2.02589 0
M  V30 17298 H 2338.82 7.86112 2.9231 0
M  V30 17299 H 2337.13 9.11627 4.55076 0
M  V30 17300 H 2336.94 9.9573 2.34194 0
M  V30 17301 H 2335.31 9.2792 2.67832 0
M  V30 17302 H 2337.94 4.67702 4.28772 0
M  V30 17303 P 2339.8 7.39546 4.75277 0
M  V30 17304 O 2341.22 7.81777 5.05738 0
M  V30 17305 O 2339.44 7.1065 3.32998 0
M  V30 17306 O 2339.48 6.04542 5.56673 0
M  V30 17307 C 2339.32 6.22772 7.02095 0
M  V30 17308 C 2339.86 4.97725 7.70406 0
M  V30 17309 O 2338.8 4.13256 7.58987 0
M  V30 17310 C 2341.08 4.28231 7.11815 0
M  V30 17311 O 2341.82 3.49945 8.01648 0
M  V30 17312 C 2340.41 3.5063 5.96244 0
M  V30 17313 O 2341.21 2.36482 5.64681 0
M  V30 17314 C 2339.07 3.15122 6.56374 0
M  V30 17315 H 2339.1 2.13853 6.99751 0
M  V30 17316 H 2340.29 4.13501 5.06559 0
M  V30 17317 H 2341.77 5.03285 6.70911 0
M  V30 17318 H 2340.08 5.20877 8.75697 0
M  V30 17319 H 2339.89 7.11046 7.35349 0
M  V30 17320 H 2338.26 6.35815 7.26986 0
M  V30 17321 H 2340.9 1.61644 6.13565 0
M  V30 17322 P 2342.75 3.65191 7.99657 0
M  V30 17323 O 2344.17 3.84292 8.48206 0
M  V30 17324 O 2342.39 4.17805 6.64342 0
M  V30 17325 O 2342.43 2.07613 7.95143 0
M  V30 17326 C 2342.27 1.44344 9.27435 0
M  V30 17327 C 2342.81 0.0220036 9.17197 0
M  V30 17328 O 2341.75 -0.626794 8.61824 0
M  V30 17329 C 2344.03 -0.24586 8.30336 0
M  V30 17330 O 2344.77 -1.39011 8.63583 0
M  V30 17331 C 2343.36 -0.273849 6.91158 0
M  V30 17332 O 2344.16 -1.05728 6.029 0
M  V30 17333 C 2342.02 -0.897649 7.22545 0
M  V30 17334 N 2340.98 -0.292839 6.41732 0
M  V30 17335 C 2341.15 0.950603 5.91308 0
M  V30 17336 N 2340.12 1.37732 5.21105 0
M  V30 17337 C 2339.24 0.318109 5.26039 0
M  V30 17338 C 2337.97 0.146766 4.6727 0
M  V30 17339 N 2337.4 -1.06525 4.95887 0
M  V30 17340 C 2338.01 -2.0378 5.71347 0
M  V30 17341 N 2339.18 -1.92445 6.27451 0
M  V30 17342 C 2339.76 -0.715382 6.00353 0
M  V30 17343 H 2343.24 0.733318 6.49674 0
M  V30 17344 H 2344.72 0.60668 8.36503 0
M  V30 17345 H 2343.03 -0.362662 10.1825 0
M  V30 17346 H 2342.84 2.00611 10.0304 0
M  V30 17347 H 2341.21 1.41843 9.55327 0
M  V30 17348 H 2342.05 1.54076 6.07465 0
M  V30 17349 H 2343.85 -1.95704 6.0346 0
M  V30 17350 P 2345.7 -1.25109 8.70152 0
M  V30 17351 O 2347.13 -1.35274 9.21221 0
M  V30 17352 O 2345.34 -0.0769065 7.84762 0
M  V30 17353 O 2345.38 -2.55232 7.81161 0
M  V30 17354 C 2345.22 -3.79939 8.58154 0
M  V30 17355 C 2345.76 -4.94023 7.72785 0
M  V30 17356 O 2344.7 -5.18726 6.91205 0
M  V30 17357 C 2346.98 -4.69597 6.85231 0
M  V30 17358 O 2347.72 -5.83832 6.51337 0
M  V30 17359 C 2346.31 -3.96706 5.66633 0
M  V30 17360 O 2347.11 -4.15414 4.49689 0
M  V30 17361 C 2344.97 -4.66153 5.59313 0
M  V30 17362 H 2345 -5.47679 4.85214 0
M  V30 17363 H 2346.19 -2.89008 5.86566 0
M  V30 17364 H 2347.67 -4.0121 7.36511 0
M  V30 17365 H 2345.98 -5.80182 8.37584 0
M  V30 17366 H 2345.79 -3.73517 9.52265 0
M  V30 17367 H 2344.16 -3.97163 8.80359 0
M  V30 17368 H 2346.8 -4.90969 4.01921 0
M  V30 17369 P 2348.65 -5.75688 6.64379 0
M  V30 17370 O 2350.08 -6.11849 7.01846 0
M  V30 17371 O 2348.29 -4.30744 6.56026 0
M  V30 17372 O 2348.33 -6.37042 5.19165 0
M  V30 17373 C 2348.17 -7.83578 5.16515 0
M  V30 17374 C 2348.71 -8.33398 3.83019 0
M  V30 17375 O 2347.65 -8.10074 3.01034 0
M  V30 17376 C 2349.93 -7.65514 3.2257 0
M  V30 17377 O 2350.67 -8.4329 2.32297 0
M  V30 17378 C 2349.26 -6.40075 2.62207 0
M  V30 17379 O 2350.06 -5.92589 1.53712 0
M  V30 17380 C 2347.92 -6.9454 2.18503 0
M  V30 17381 H 2347.95 -7.23063 1.12091 0
M  V30 17382 H 2349.14 -5.6025 3.37201 0
M  V30 17383 H 2350.62 -7.35707 4.02681 0
M  V30 17384 H 2348.93 -9.40912 3.9095 0
M  V30 17385 H 2348.74 -8.29056 5.99158 0
M  V30 17386 H 2347.11 -8.10073 5.25882 0
M  V30 17387 H 2349.75 -6.30324 0.726794 0
M  V30 17388 P 2351.6 -8.4349 2.47671 0
M  V30 17389 O 2353.03 -8.94263 2.59668 0
M  V30 17390 O 2351.24 -7.1704 3.19006 0
M  V30 17391 O 2351.28 -8.16596 0.923387 0
M  V30 17392 C 2351.12 -9.38537 0.108869 0
M  V30 17393 C 2351.66 -9.08175 -1.28353 0
M  V30 17394 O 2350.61 -8.44131 -1.84692 0
M  V30 17395 C 2352.88 -8.18386 -1.42505 0
M  V30 17396 O 2353.62 -8.3501 -2.60497 0
M  V30 17397 C 2352.21 -6.80225 -1.25468 0
M  V30 17398 O 2353.01 -5.81716 -1.90454 0
M  V30 17399 C 2350.87 -7.02416 -1.9168 0
M  V30 17400 N 2349.83 -6.31033 -1.20314 0
M  V30 17401 C 2350 -5.98817 0.0994088 0
M  V30 17402 N 2348.97 -5.35403 0.621694 0
M  V30 17403 C 2348.09 -5.25212 -0.43376 0
M  V30 17404 C 2346.82 -4.64602 -0.519722 0
M  V30 17405 N 2346.22 -4.01457 0.519136 0
M  V30 17406 N 2346.26 -4.7568 -1.76013 0
M  V30 17407 C 2346.86 -5.3653 -2.83017 0
M  V30 17408 N 2348.03 -5.93676 -2.79782 0
M  V30 17409 C 2348.61 -5.84061 -1.56249 0
M  V30 17410 H 2350.91 -6.68789 -2.9658 0
M  V30 17411 H 2352.09 -6.53498 -0.198729 0
M  V30 17412 H 2353.57 -8.36622 -0.589963 0
M  V30 17413 H 2351.88 -10.0273 -1.8081 0
M  V30 17414 H 2351.69 -10.2138 0.558219 0
M  V30 17415 H 2350.06 -9.6579 0.0444202 0
M  V30 17416 H 2346.32 -5.37113 -3.77321 0
M  V30 17417 H 2350.9 -6.23209 0.660562 0
M  V30 17418 H 2345.29 -3.58834 0.394862 0
M  V30 17419 H 2346.7 -3.96059 1.43048 0
M  V30 17420 H 2352.7 -5.69466 -2.79593 0
M  V30 17421 P 2354.55 -8.4349 -2.47671 0
M  V30 17422 O 2355.98 -8.92593 -2.65 0
M  V30 17423 O 2354.19 -7.7568 -1.19296 0
M  V30 17424 O 2354.23 -7.36886 -3.63805 0
M  V30 17425 C 2354.07 -7.95349 -4.982 0
M  V30 17426 C 2354.61 -6.94612 -5.98974 0
M  V30 17427 O 2353.56 -6.10347 -6.11815 0
M  V30 17428 C 2355.83 -6.11426 -5.62335 0
M  V30 17429 O 2356.57 -5.6162 -6.70584 0
M  V30 17430 C 2355.16 -5.04409 -4.73308 0
M  V30 17431 O 2355.96 -3.85992 -4.75183 0
M  V30 17432 C 2353.82 -4.8728 -5.41006 0
M  V30 17433 H 2353.86 -4.02333 -6.11157 0
M  V30 17434 H 2355.04 -5.39466 -3.69543 0
M  V30 17435 H 2356.52 -6.71916 -5.01943 0
M  V30 17436 H 2354.83 -7.4649 -6.93477 0
M  V30 17437 H 2354.64 -8.89416 -5.05237 0
M  V30 17438 H 2353.01 -8.14876 -5.18409 0
M  V30 17439 H 2355.65 -3.27957 -5.4317 0
M  V30 17440 P 2357.51 -5.75688 -6.64379 0
M  V30 17441 O 2358.93 -6.07627 -7.05504 0
M  V30 17442 O 2357.15 -5.88047 -5.19722 0
M  V30 17443 O 2357.18 -4.2322 -7.04443 0
M  V30 17444 C 2357.02 -3.99743 -8.4911 0
M  V30 17445 C 2357.56 -2.60516 -8.79425 0
M  V30 17446 O 2356.51 -1.82684 -8.4467 0
M  V30 17447 C 2358.78 -2.10343 -8.03628 0
M  V30 17448 O 2359.52 -1.09919 -8.67766 0
M  V30 17449 C 2358.11 -1.68446 -6.70876 0
M  V30 17450 O 2358.91 -0.678137 -6.08433 0
M  V30 17451 C 2356.77 -1.17436 -7.18567 0
M  V30 17452 H 2356.81 -0.0804732 -7.31656 0
M  V30 17453 H 2357.99 -2.54037 -6.02537 0
M  V30 17454 H 2359.47 -2.93881 -7.85526 0
M  V30 17455 H 2357.78 -2.53065 -9.86973 0
M  V30 17456 H 2357.59 -4.75072 -9.05887 0
M  V30 17457 H 2355.96 -4.05244 -8.76668 0
M  V30 17458 H 2358.6 0.177647 -6.34251 0
M  V30 17459 P 2360.46 -1.25109 -8.70152 0
M  V30 17460 O 2361.88 -1.29744 -9.22016 0
M  V30 17461 O 2360.1 -2.13714 -7.55141 0
M  V30 17462 O 2360.13 0.248149 -8.21425 0
M  V30 17463 C 2359.97 1.22779 -9.30434 0
M  V30 17464 C 2360.51 2.56293 -8.80664 0
M  V30 17465 O 2359.46 3.02979 -8.09349 0
M  V30 17466 C 2361.73 2.57523 -7.89775 0
M  V30 17467 O 2362.47 3.7668 -7.89438 0
M  V30 17468 C 2361.06 2.20997 -6.55446 0
M  V30 17469 O 2361.86 2.71895 -5.48509 0
M  V30 17470 C 2359.72 2.89693 -6.67988 0
M  V30 17471 H 2359.76 3.88793 -6.19859 0
M  V30 17472 H 2360.94 1.12046 -6.44229 0
M  V30 17473 H 2362.42 1.7746 -8.19711 0
M  V30 17474 H 2360.73 3.20706 -9.67112 0
M  V30 17475 H 2360.54 0.901032 -10.1892 0
M  V30 17476 H 2358.91 1.33049 -9.56592 0
M  V30 17477 H 2361.55 3.57847 -5.23962 0
M  V30 17478 P 2363.41 3.65191 -7.99657 0
M  V30 17479 O 2364.83 3.89332 -8.45794 0
M  V30 17480 O 2363.05 2.28472 -7.50807 0
M  V30 17481 O 2363.08 4.64972 -6.77611 0
M  V30 17482 C 2362.92 6.06319 -7.16352 0
M  V30 17483 C 2363.46 6.91731 -6.02299 0
M  V30 17484 O 2362.41 6.92449 -5.17064 0
M  V30 17485 C 2364.68 6.43627 -5.25174 0
M  V30 17486 O 2365.42 7.43686 -4.60469 0
M  V30 17487 C 2364.01 5.40275 -4.31916 0
M  V30 17488 O 2364.81 5.25279 -3.14438 0
M  V30 17489 C 2362.68 6.04847 -4.05327 0
M  V30 17490 H 2362.71 6.62195 -3.11261 0
M  V30 17491 H 2363.89 4.42556 -4.81383 0
M  V30 17492 H 2365.37 5.92458 -5.93643 0
M  V30 17493 H 2363.68 7.92655 -6.402 0
M  V30 17494 H 2363.49 6.26671 -8.0846 0
M  V30 17495 H 2361.86 6.29101 -7.32804 0
M  V30 17496 H 2364.5 5.84315 -2.47318 0
M  V30 17497 P 2366.36 7.39546 -4.75277 0
M  V30 17498 O 2367.78 7.84882 -5.01092 0
M  V30 17499 O 2366 5.9812 -5.08098 0
M  V30 17500 O 2366.03 7.57503 -3.1866 0
M  V30 17501 C 2365.87 8.97452 -2.74862 0
M  V30 17502 C 2366.41 9.07548 -1.32709 0
M  V30 17503 O 2365.36 8.61972 -0.606089 0
M  V30 17504 C 2367.63 8.25383 -0.938334 0
M  V30 17505 O 2368.37 8.74577 0.146954 0
M  V30 17506 C 2366.96 6.8802 -0.712559 0
M  V30 17507 O 2367.76 6.1181 0.188505 0
M  V30 17508 C 2365.63 7.27966 -0.139777 0
M  V30 17509 N 2364.58 6.39368 -0.623421 0
M  V30 17510 C 2364.75 5.71761 -1.78245 0
M  V30 17511 N 2363.73 4.962 -2.10491 0
M  V30 17512 C 2362.84 5.16158 -1.0635 0
M  V30 17513 C 2361.57 4.60425 -0.810266 0
M  V30 17514 N 2360.97 3.7057 -1.62914 0
M  V30 17515 N 2361.01 5.06 0.348685 0
M  V30 17516 C 2361.61 5.94532 1.20395 0
M  V30 17517 N 2362.79 6.48452 1.01191 0
M  V30 17518 C 2363.36 6.04423 -0.146291 0
M  V30 17519 H 2365.66 7.25255 0.961469 0
M  V30 17520 H 2366.84 6.32625 -1.65044 0
M  V30 17521 H 2368.32 8.19355 -1.79097 0
M  V30 17522 H 2366.63 10.1305 -1.09016 0
M  V30 17523 H 2366.44 9.64276 -3.41316 0
M  V30 17524 H 2364.81 9.25417 -2.76357 0
M  V30 17525 H 2361.07 6.21659 2.10714 0
M  V30 17526 H 2365.65 5.79354 -2.38959 0
M  V30 17527 H 2360.04 3.33174 -1.38982 0
M  V30 17528 H 2361.45 3.39714 -2.48836 0
M  V30 17529 H 2367.45 6.25169 1.0783 0
M  V30 17530 P 2369.31 8.791 2.06433e-11 0
M  V30 17531 O 2370.73 9.31296 0.027939 0
M  V30 17532 O 2368.95 7.77869 -1.04071 0
M  V30 17533 O 2368.98 8.09533 1.41463 0
M  V30 17534 C 2368.82 9.0349 2.53943 0
M  V30 17535 C 2369.36 8.35135 3.78975 0
M  V30 17536 O 2368.31 7.57992 4.15078 0
M  V30 17537 C 2370.58 7.45087 3.67298 0
M  V30 17538 O 2371.32 7.27796 4.85194 0
M  V30 17539 C 2369.91 6.17323 3.12027 0
M  V30 17540 O 2370.71 5.04149 3.47132 0
M  V30 17541 C 2368.58 6.19961 3.81809 0
M  V30 17542 N 2367.53 5.71575 2.93223 0
M  V30 17543 C 2367.6 5.97133 1.62693 0
M  V30 17544 N 2366.55 5.44066 0.984414 0
M  V30 17545 C 2365.82 4.87093 1.93987 0
M  V30 17546 C 2364.51 4.26449 1.8738 0
M  V30 17547 O 2363.78 4.1089 0.884377 0
M  V30 17548 N 2364.08 3.82483 3.08036 0
M  V30 17549 C 2364.83 3.95124 4.27727 0
M  V30 17550 N 2364.23 3.4084 5.39089 0
M  V30 17551 N 2365.98 4.55264 4.3706 0
M  V30 17552 C 2366.44 5.00861 3.18217 0
M  V30 17553 H 2368.61 5.58218 4.73051 0
M  V30 17554 H 2369.79 6.21631 2.02558 0
M  V30 17555 H 2371.28 7.85819 2.93096 0
M  V30 17556 H 2369.58 9.11627 4.55076 0
M  V30 17557 H 2369.39 9.9573 2.34194 0
M  V30 17558 H 2367.76 9.2792 2.67832 0
M  V30 17559 H 2363.18 3.38323 3.1329 0
M  V30 17560 H 2368.39 6.53891 1.14265 0
M  V30 17561 H 2363.32 2.93852 5.30559 0
M  V30 17562 H 2364.7 3.47631 6.30632 0
M  V30 17563 H 2370.4 4.67628 4.28704 0
M  V30 17564 P 2372.26 7.39546 4.75277 0
M  V30 17565 O 2373.68 7.81777 5.05738 0
M  V30 17566 O 2371.9 7.1065 3.32998 0
M  V30 17567 O 2371.94 6.04542 5.56673 0
M  V30 17568 C 2371.78 6.22772 7.02095 0
M  V30 17569 C 2372.32 4.97725 7.70406 0
M  V30 17570 O 2371.26 4.13256 7.58987 0
M  V30 17571 C 2373.53 4.28231 7.11815 0
M  V30 17572 O 2374.27 3.49945 8.01648 0
M  V30 17573 C 2372.86 3.5063 5.96244 0
M  V30 17574 O 2373.66 2.36482 5.64681 0
M  V30 17575 C 2371.53 3.15122 6.56374 0
M  V30 17576 H 2371.56 2.13853 6.99751 0
M  V30 17577 H 2372.74 4.13501 5.06559 0
M  V30 17578 H 2374.23 5.03285 6.70911 0
M  V30 17579 H 2372.53 5.20877 8.75697 0
M  V30 17580 H 2372.34 7.11046 7.35349 0
M  V30 17581 H 2370.71 6.35815 7.26986 0
M  V30 17582 H 2373.35 1.61644 6.13565 0
M  V30 17583 P 2375.21 3.65191 7.99657 0
M  V30 17584 O 2376.63 3.8425 8.48115 0
M  V30 17585 O 2374.85 4.17805 6.64342 0
M  V30 17586 O 2374.89 2.07613 7.95143 0
M  V30 17587 C 2374.73 1.44328 9.27336 0
M  V30 17588 C 2375.27 0.0220036 9.17197 0
M  V30 17589 O 2374.21 -0.626867 8.61923 0
M  V30 17590 C 2376.48 -0.24586 8.30336 0
M  V30 17591 O 2377.22 -1.39011 8.63583 0
M  V30 17592 C 2375.81 -0.273849 6.91158 0
M  V30 17593 O 2376.61 -1.06348 6.02892 0
M  V30 17594 C 2374.48 -0.897649 7.22545 0
M  V30 17595 H 2374.51 -1.9841 7.04286 0
M  V30 17596 H 2375.69 0.739928 6.497 0
M  V30 17597 H 2377.18 0.60668 8.36503 0
M  V30 17598 H 2375.48 -0.352479 10.1829 0
M  V30 17599 H 2375.29 2.00611 10.0304 0
M  V30 17600 H 2373.66 1.41843 9.55327 0
M  V30 17601 H 2376.3 -1.95734 6.03555 0
M  V30 17602 P 2378.16 -1.25109 8.70152 0
M  V30 17603 O 2379.58 -1.35274 9.21221 0
M  V30 17604 O 2377.8 -0.0769065 7.84762 0
M  V30 17605 O 2377.84 -2.55232 7.81161 0
M  V30 17606 C 2377.68 -3.79939 8.58154 0
M  V30 17607 C 2378.22 -4.94023 7.72785 0
M  V30 17608 O 2377.16 -5.18726 6.91205 0
M  V30 17609 C 2379.43 -4.69597 6.85231 0
M  V30 17610 O 2380.17 -5.83832 6.51337 0
M  V30 17611 C 2378.77 -3.96706 5.66633 0
M  V30 17612 O 2379.56 -4.15414 4.49689 0
M  V30 17613 C 2377.43 -4.66153 5.59313 0
M  V30 17614 H 2377.46 -5.47679 4.85214 0
M  V30 17615 H 2378.64 -2.89008 5.86566 0
M  V30 17616 H 2380.13 -4.0121 7.36511 0
M  V30 17617 H 2378.43 -5.80182 8.37584 0
M  V30 17618 H 2378.24 -3.73517 9.52265 0
M  V30 17619 H 2376.61 -3.97163 8.80359 0
M  V30 17620 H 2379.25 -4.90969 4.01921 0
M  V30 17621 P 2381.11 -5.75688 6.64379 0
M  V30 17622 O 2382.53 -6.11849 7.01846 0
M  V30 17623 O 2380.75 -4.30744 6.56026 0
M  V30 17624 O 2380.79 -6.37042 5.19165 0
M  V30 17625 C 2380.63 -7.83578 5.16515 0
M  V30 17626 C 2381.17 -8.33398 3.83019 0
M  V30 17627 O 2380.11 -8.10074 3.01034 0
M  V30 17628 C 2382.38 -7.65514 3.2257 0
M  V30 17629 O 2383.12 -8.4329 2.32297 0
M  V30 17630 C 2381.72 -6.40075 2.62207 0
M  V30 17631 O 2382.51 -5.92589 1.53712 0
M  V30 17632 C 2380.38 -6.9454 2.18503 0
M  V30 17633 H 2380.41 -7.23063 1.12091 0
M  V30 17634 H 2381.59 -5.6025 3.37201 0
M  V30 17635 H 2383.08 -7.35707 4.02681 0
M  V30 17636 H 2381.38 -9.40912 3.9095 0
M  V30 17637 H 2381.19 -8.29056 5.99158 0
M  V30 17638 H 2379.56 -8.10073 5.25882 0
M  V30 17639 H 2382.2 -6.30324 0.726794 0
M  V30 17640 P 2384.06 -8.4349 2.47671 0
M  V30 17641 O 2385.48 -8.94167 2.5964 0
M  V30 17642 O 2383.7 -7.1704 3.19006 0
M  V30 17643 O 2383.74 -8.16596 0.923387 0
M  V30 17644 C 2383.58 -9.38437 0.108857 0
M  V30 17645 C 2384.12 -9.08175 -1.28353 0
M  V30 17646 O 2383.06 -8.44229 -1.84713 0
M  V30 17647 C 2385.34 -8.18386 -1.42505 0
M  V30 17648 O 2386.07 -8.3501 -2.60497 0
M  V30 17649 C 2384.67 -6.80225 -1.25468 0
M  V30 17650 O 2385.47 -5.81621 -1.91066 0
M  V30 17651 C 2383.33 -7.02416 -1.9168 0
M  V30 17652 H 2383.36 -6.6888 -2.96621 0
M  V30 17653 H 2384.54 -6.53617 -0.192223 0
M  V30 17654 H 2386.03 -8.36622 -0.589963 0
M  V30 17655 H 2384.33 -10.0291 -1.79807 0
M  V30 17656 H 2384.14 -10.2138 0.558219 0
M  V30 17657 H 2382.51 -9.6579 0.0444202 0
M  V30 17658 H 2385.15 -5.69556 -2.79637 0
M  V30 17659 P 2387.01 -8.4349 -2.47671 0
M  V30 17660 O 2388.43 -8.92593 -2.65 0
M  V30 17661 O 2386.65 -7.7568 -1.19296 0
M  V30 17662 O 2386.69 -7.36886 -3.63805 0
M  V30 17663 C 2386.53 -7.95349 -4.982 0
M  V30 17664 C 2387.07 -6.94612 -5.98974 0
M  V30 17665 O 2386.01 -6.10347 -6.11815 0
M  V30 17666 C 2388.29 -6.11426 -5.62335 0
M  V30 17667 O 2389.02 -5.6162 -6.70584 0
M  V30 17668 C 2387.62 -5.04409 -4.73308 0
M  V30 17669 O 2388.42 -3.85992 -4.75183 0
M  V30 17670 C 2386.28 -4.8728 -5.41006 0
M  V30 17671 H 2386.31 -4.02333 -6.11157 0
M  V30 17672 H 2387.5 -5.39466 -3.69543 0
M  V30 17673 H 2388.98 -6.71916 -5.01943 0
M  V30 17674 H 2387.29 -7.4649 -6.93477 0
M  V30 17675 H 2387.1 -8.89416 -5.05237 0
M  V30 17676 H 2385.47 -8.14876 -5.18409 0
M  V30 17677 H 2388.1 -3.27957 -5.4317 0
M  V30 17678 P 2389.96 -5.75688 -6.64379 0
M  V30 17679 O 2391.38 -6.07627 -7.05504 0
M  V30 17680 O 2389.6 -5.88047 -5.19722 0
M  V30 17681 O 2389.64 -4.2322 -7.04443 0
M  V30 17682 C 2389.48 -3.99743 -8.4911 0
M  V30 17683 C 2390.02 -2.60516 -8.79425 0
M  V30 17684 O 2388.96 -1.82684 -8.4467 0
M  V30 17685 C 2391.24 -2.10343 -8.03628 0
M  V30 17686 O 2391.97 -1.09919 -8.67766 0
M  V30 17687 C 2390.57 -1.68446 -6.70876 0
M  V30 17688 O 2391.37 -0.678137 -6.08433 0
M  V30 17689 C 2389.23 -1.17436 -7.18567 0
M  V30 17690 H 2389.26 -0.0804732 -7.31656 0
M  V30 17691 H 2390.45 -2.54037 -6.02537 0
M  V30 17692 H 2391.93 -2.93881 -7.85526 0
M  V30 17693 H 2390.24 -2.53065 -9.86973 0
M  V30 17694 H 2390.05 -4.75072 -9.05887 0
M  V30 17695 H 2388.42 -4.05244 -8.76668 0
M  V30 17696 H 2391.05 0.177647 -6.34251 0
M  V30 17697 P 2392.91 -1.25109 -8.70152 0
M  V30 17698 O 2394.31 -1.3516 -9.26897 0
M  V30 17699 O 2392.53 -2.18141 -7.59181 0
M  V30 17700 O 2392.59 0.248118 -8.21325 0
M  V30 17701 C 2392.43 1.22779 -9.30434 0
M  V30 17702 C 2392.97 2.56265 -8.80568 0
M  V30 17703 O 2391.91 3.02944 -8.09255 0
M  V30 17704 C 2394.19 2.57523 -7.89775 0
M  V30 17705 O 2394.93 3.7668 -7.89438 0
M  V30 17706 C 2393.52 2.20997 -6.55446 0
M  V30 17707 O 2394.32 2.71851 -5.48419 0
M  V30 17708 C 2392.18 2.89693 -6.67988 0
M  V30 17709 N 2391.14 2.08895 -6.07487 0
M  V30 17710 C 2390.1 2.72974 -5.43836 0
M  V30 17711 O 2390.14 3.97779 -5.34036 0
M  V30 17712 N 2389.09 2.0005 -4.91983 0
M  V30 17713 C 2389.14 0.66501 -5.00098 0
M  V30 17714 C 2390.24 -0.0100979 -5.61099 0
M  V30 17715 C 2391.2 0.74189 -6.14236 0
M  V30 17716 H 2392.21 3.8874 -6.19774 0
M  V30 17717 H 2393.4 1.12673 -6.44018 0
M  V30 17718 H 2394.88 1.783 -8.19631 0
M  V30 17719 H 2393.19 3.21673 -9.66791 0
M  V30 17720 H 2393 0.901032 -10.1892 0
M  V30 17721 H 2391.37 1.33036 -9.56493 0
M  V30 17722 H 2390.28 -1.09591 -5.64358 0
M  V30 17723 H 2392.05 0.260263 -6.6359 0
M  V30 17724 H 2394.1 3.62759 -5.33442 0
M  V30 17725 P 2395.86 3.65191 -7.99657 0
M  V30 17726 O 2397.28 3.89332 -8.45794 0
M  V30 17727 O 2395.5 2.28472 -7.50807 0
M  V30 17728 O 2395.54 4.64972 -6.77611 0
M  V30 17729 C 2395.38 6.06319 -7.16352 0
M  V30 17730 C 2395.92 6.91731 -6.02299 0
M  V30 17731 O 2394.86 6.92449 -5.17064 0
M  V30 17732 C 2397.14 6.43627 -5.25174 0
M  V30 17733 O 2397.88 7.43686 -4.60469 0
M  V30 17734 C 2396.47 5.40275 -4.31916 0
M  V30 17735 O 2397.27 5.25279 -3.14438 0
M  V30 17736 C 2395.13 6.04847 -4.05327 0
M  V30 17737 H 2395.16 6.62195 -3.11261 0
M  V30 17738 H 2396.35 4.42556 -4.81383 0
M  V30 17739 H 2397.83 5.92458 -5.93643 0
M  V30 17740 H 2396.14 7.92655 -6.402 0
M  V30 17741 H 2395.95 6.26671 -8.0846 0
M  V30 17742 H 2394.32 6.29101 -7.32804 0
M  V30 17743 H 2396.96 5.84315 -2.47318 0
M  V30 17744 P 2398.81 7.39546 -4.75277 0
M  V30 17745 O 2400.24 7.84798 -5.01039 0
M  V30 17746 O 2398.45 5.9812 -5.08098 0
M  V30 17747 O 2398.49 7.57503 -3.1866 0
M  V30 17748 C 2398.33 8.97357 -2.74833 0
M  V30 17749 C 2398.87 9.07548 -1.32709 0
M  V30 17750 O 2397.81 8.62072 -0.606159 0
M  V30 17751 C 2400.09 8.25383 -0.938334 0
M  V30 17752 O 2400.83 8.74577 0.146954 0
M  V30 17753 C 2399.42 6.8802 -0.712559 0
M  V30 17754 O 2400.22 6.1189 0.194655 0
M  V30 17755 C 2398.08 7.27966 -0.139777 0
M  V30 17756 H 2398.11 7.25354 0.961601 0
M  V30 17757 H 2399.3 6.32557 -1.65702 0
M  V30 17758 H 2400.78 8.19355 -1.79097 0
M  V30 17759 H 2399.09 10.1294 -1.10029 0
M  V30 17760 H 2398.9 9.64276 -3.41316 0
M  V30 17761 H 2397.27 9.25417 -2.76357 0
M  V30 17762 H 2399.91 6.25267 1.07847 0
M  V30 17763 P 2401.76 8.791 2.09534e-11 0
M  V30 17764 O 2403.19 9.31096 0.027933 0
M  V30 17765 O 2401.4 7.77869 -1.04071 0
M  V30 17766 O 2401.44 8.09533 1.41463 0
M  V30 17767 C 2401.28 9.0349 2.53943 0
M  V30 17768 C 2401.82 8.35226 3.79016 0
M  V30 17769 O 2400.76 7.57992 4.15078 0
M  V30 17770 C 2403.04 7.45087 3.67298 0
M  V30 17771 O 2403.78 7.27796 4.85194 0
M  V30 17772 C 2402.37 6.17323 3.12027 0
M  V30 17773 O 2403.17 5.04231 3.47188 0
M  V30 17774 C 2401.03 6.19961 3.81809 0
M  V30 17775 H 2401.06 5.58218 4.73051 0
M  V30 17776 H 2402.25 6.21726 2.02589 0
M  V30 17777 H 2403.73 7.86112 2.9231 0
M  V30 17778 H 2402.04 9.11627 4.55076 0
M  V30 17779 H 2401.85 9.9573 2.34194 0
M  V30 17780 H 2400.22 9.2792 2.67832 0
M  V30 17781 H 2402.86 4.67702 4.28772 0
M  V30 17782 P 2404.71 7.39546 4.75277 0
M  V30 17783 O 2406.14 7.81777 5.05738 0
M  V30 17784 O 2404.35 7.1065 3.32998 0
M  V30 17785 O 2404.39 6.04542 5.56673 0
M  V30 17786 C 2404.23 6.22772 7.02095 0
M  V30 17787 C 2404.77 4.97725 7.70406 0
M  V30 17788 O 2403.72 4.13256 7.58987 0
M  V30 17789 C 2405.99 4.28231 7.11815 0
M  V30 17790 O 2406.73 3.49945 8.01648 0
M  V30 17791 C 2405.32 3.5063 5.96244 0
M  V30 17792 O 2406.12 2.36482 5.64681 0
M  V30 17793 C 2403.98 3.15122 6.56374 0
M  V30 17794 H 2404.02 2.13853 6.99751 0
M  V30 17795 H 2405.2 4.13501 5.06559 0
M  V30 17796 H 2406.68 5.03285 6.70911 0
M  V30 17797 H 2404.99 5.20877 8.75697 0
M  V30 17798 H 2404.8 7.11046 7.35349 0
M  V30 17799 H 2403.17 6.35815 7.26986 0
M  V30 17800 H 2405.81 1.61644 6.13565 0
M  V30 17801 P 2407.67 3.65191 7.99657 0
M  V30 17802 O 2409.09 3.8425 8.48115 0
M  V30 17803 O 2407.31 4.17805 6.64342 0
M  V30 17804 O 2407.34 2.07613 7.95143 0
M  V30 17805 C 2407.18 1.44328 9.27336 0
M  V30 17806 C 2407.72 0.0220036 9.17197 0
M  V30 17807 O 2406.67 -0.626867 8.61923 0
M  V30 17808 C 2408.94 -0.24586 8.30336 0
M  V30 17809 O 2409.68 -1.39011 8.63583 0
M  V30 17810 C 2408.27 -0.273849 6.91158 0
M  V30 17811 O 2409.07 -1.06348 6.02892 0
M  V30 17812 C 2406.93 -0.897649 7.22545 0
M  V30 17813 H 2406.97 -1.9841 7.04286 0
M  V30 17814 H 2408.15 0.739928 6.497 0
M  V30 17815 H 2409.63 0.60668 8.36503 0
M  V30 17816 H 2407.94 -0.352479 10.1829 0
M  V30 17817 H 2407.75 2.00611 10.0304 0
M  V30 17818 H 2406.12 1.41843 9.55327 0
M  V30 17819 H 2408.76 -1.95734 6.03555 0
M  V30 17820 P 2410.62 -1.25109 8.70152 0
M  V30 17821 O 2412.04 -1.35274 9.21221 0
M  V30 17822 O 2410.26 -0.0769065 7.84762 0
M  V30 17823 O 2410.29 -2.55232 7.81161 0
M  V30 17824 C 2410.13 -3.79939 8.58154 0
M  V30 17825 C 2410.67 -4.94023 7.72785 0
M  V30 17826 O 2409.62 -5.18726 6.91205 0
M  V30 17827 C 2411.89 -4.69597 6.85231 0
M  V30 17828 O 2412.63 -5.83832 6.51337 0
M  V30 17829 C 2411.22 -3.96706 5.66633 0
M  V30 17830 O 2412.02 -4.15414 4.49689 0
M  V30 17831 C 2409.88 -4.66153 5.59313 0
M  V30 17832 H 2409.92 -5.47679 4.85214 0
M  V30 17833 H 2411.1 -2.89008 5.86566 0
M  V30 17834 H 2412.58 -4.0121 7.36511 0
M  V30 17835 H 2410.89 -5.80182 8.37584 0
M  V30 17836 H 2410.7 -3.73517 9.52265 0
M  V30 17837 H 2409.07 -3.97163 8.80359 0
M  V30 17838 H 2411.71 -4.90969 4.01921 0
M  V30 17839 P 2413.57 -5.75688 6.64379 0
M  V30 17840 O 2414.99 -6.11849 7.01846 0
M  V30 17841 O 2413.21 -4.30744 6.56026 0
M  V30 17842 O 2413.24 -6.37042 5.19165 0
M  V30 17843 C 2413.08 -7.83578 5.16515 0
M  V30 17844 C 2413.62 -8.33398 3.83019 0
M  V30 17845 O 2412.57 -8.10074 3.01034 0
M  V30 17846 C 2414.84 -7.65514 3.2257 0
M  V30 17847 O 2415.58 -8.4329 2.32297 0
M  V30 17848 C 2414.17 -6.40075 2.62207 0
M  V30 17849 O 2414.97 -5.92589 1.53712 0
M  V30 17850 C 2412.84 -6.9454 2.18503 0
M  V30 17851 H 2412.87 -7.23063 1.12091 0
M  V30 17852 H 2414.05 -5.6025 3.37201 0
M  V30 17853 H 2415.53 -7.35707 4.02681 0
M  V30 17854 H 2413.84 -9.40912 3.9095 0
M  V30 17855 H 2413.65 -8.29056 5.99158 0
M  V30 17856 H 2412.02 -8.10073 5.25882 0
M  V30 17857 H 2414.66 -6.30324 0.726794 0
M  V30 17858 P 2416.52 -8.4349 2.47671 0
M  V30 17859 O 2417.94 -8.94263 2.59668 0
M  V30 17860 O 2416.16 -7.1704 3.19006 0
M  V30 17861 O 2416.19 -8.16596 0.923387 0
M  V30 17862 C 2416.03 -9.38537 0.108869 0
M  V30 17863 C 2416.57 -9.08175 -1.28353 0
M  V30 17864 O 2415.52 -8.44131 -1.84692 0
M  V30 17865 C 2417.79 -8.18386 -1.42505 0
M  V30 17866 O 2418.53 -8.3501 -2.60497 0
M  V30 17867 C 2417.12 -6.80225 -1.25468 0
M  V30 17868 O 2417.92 -5.81716 -1.90454 0
M  V30 17869 C 2415.79 -7.02416 -1.9168 0
M  V30 17870 N 2414.74 -6.31033 -1.20314 0
M  V30 17871 C 2414.91 -5.98817 0.0994088 0
M  V30 17872 N 2413.88 -5.35403 0.621694 0
M  V30 17873 C 2413 -5.25212 -0.43376 0
M  V30 17874 C 2411.73 -4.64602 -0.519722 0
M  V30 17875 N 2411.13 -4.01457 0.519136 0
M  V30 17876 N 2411.17 -4.7568 -1.76013 0
M  V30 17877 C 2411.77 -5.3653 -2.83017 0
M  V30 17878 N 2412.95 -5.93676 -2.79782 0
M  V30 17879 C 2413.52 -5.84061 -1.56249 0
M  V30 17880 H 2415.82 -6.68789 -2.9658 0
M  V30 17881 H 2417 -6.53498 -0.198729 0
M  V30 17882 H 2418.48 -8.36622 -0.589963 0
M  V30 17883 H 2416.79 -10.0273 -1.8081 0
M  V30 17884 H 2416.6 -10.2138 0.558219 0
M  V30 17885 H 2414.97 -9.6579 0.0444202 0
M  V30 17886 H 2411.23 -5.37113 -3.77321 0
M  V30 17887 H 2415.81 -6.23209 0.660562 0
M  V30 17888 H 2410.2 -3.58834 0.394862 0
M  V30 17889 H 2411.61 -3.96059 1.43048 0
M  V30 17890 H 2417.61 -5.69466 -2.79593 0
M  V30 17891 P 2419.47 -8.4349 -2.47671 0
M  V30 17892 O 2420.89 -8.92593 -2.65 0
M  V30 17893 O 2419.11 -7.7568 -1.19296 0
M  V30 17894 O 2419.14 -7.36886 -3.63805 0
M  V30 17895 C 2418.98 -7.95349 -4.982 0
M  V30 17896 C 2419.52 -6.94612 -5.98974 0
M  V30 17897 O 2418.47 -6.10347 -6.11815 0
M  V30 17898 C 2420.74 -6.11426 -5.62335 0
M  V30 17899 O 2421.48 -5.6162 -6.70584 0
M  V30 17900 C 2420.07 -5.04409 -4.73308 0
M  V30 17901 O 2420.87 -3.85992 -4.75183 0
M  V30 17902 C 2418.74 -4.8728 -5.41006 0
M  V30 17903 H 2418.77 -4.02333 -6.11157 0
M  V30 17904 H 2419.95 -5.39466 -3.69543 0
M  V30 17905 H 2421.44 -6.71916 -5.01943 0
M  V30 17906 H 2419.74 -7.4649 -6.93477 0
M  V30 17907 H 2419.55 -8.89416 -5.05237 0
M  V30 17908 H 2417.92 -8.14876 -5.18409 0
M  V30 17909 H 2420.56 -3.27957 -5.4317 0
M  V30 17910 P 2422.42 -5.75688 -6.64379 0
M  V30 17911 O 2423.84 -6.07627 -7.05504 0
M  V30 17912 O 2422.06 -5.88047 -5.19722 0
M  V30 17913 O 2422.09 -4.2322 -7.04443 0
M  V30 17914 C 2421.93 -3.99743 -8.4911 0
M  V30 17915 C 2422.47 -2.60516 -8.79425 0
M  V30 17916 O 2421.42 -1.82684 -8.4467 0
M  V30 17917 C 2423.69 -2.10343 -8.03628 0
M  V30 17918 O 2424.43 -1.09919 -8.67766 0
M  V30 17919 C 2423.02 -1.68446 -6.70876 0
M  V30 17920 O 2423.82 -0.678137 -6.08433 0
M  V30 17921 C 2421.69 -1.17436 -7.18567 0
M  V30 17922 H 2421.72 -0.0804732 -7.31656 0
M  V30 17923 H 2422.9 -2.54037 -6.02537 0
M  V30 17924 H 2424.39 -2.93881 -7.85526 0
M  V30 17925 H 2422.69 -2.53065 -9.86973 0
M  V30 17926 H 2422.5 -4.75072 -9.05887 0
M  V30 17927 H 2420.87 -4.05244 -8.76668 0
M  V30 17928 H 2423.51 0.177647 -6.34251 0
M  V30 17929 P 2425.37 -1.25109 -8.70152 0
M  V30 17930 O 2426.79 -1.29744 -9.22016 0
M  V30 17931 O 2425.01 -2.13714 -7.55141 0
M  V30 17932 O 2425.05 0.248149 -8.21425 0
M  V30 17933 C 2424.89 1.22779 -9.30434 0
M  V30 17934 C 2425.43 2.56293 -8.80664 0
M  V30 17935 O 2424.37 3.02979 -8.09349 0
M  V30 17936 C 2426.64 2.57523 -7.89775 0
M  V30 17937 O 2427.38 3.7668 -7.89438 0
M  V30 17938 C 2425.97 2.20997 -6.55446 0
M  V30 17939 O 2426.77 2.71895 -5.48509 0
M  V30 17940 C 2424.64 2.89693 -6.67988 0
M  V30 17941 H 2424.67 3.88793 -6.19859 0
M  V30 17942 H 2425.85 1.12046 -6.44229 0
M  V30 17943 H 2427.34 1.7746 -8.19711 0
M  V30 17944 H 2425.64 3.20706 -9.67112 0
M  V30 17945 H 2425.45 0.901032 -10.1892 0
M  V30 17946 H 2423.82 1.33049 -9.56592 0
M  V30 17947 H 2426.46 3.57847 -5.23962 0
M  V30 17948 P 2428.32 3.65191 -7.99657 0
M  V30 17949 O 2429.74 3.89416 -8.45976 0
M  V30 17950 O 2427.96 2.28472 -7.50807 0
M  V30 17951 O 2428 4.64972 -6.77611 0
M  V30 17952 C 2427.84 6.06319 -7.16352 0
M  V30 17953 C 2428.38 6.91655 -6.02234 0
M  V30 17954 O 2427.32 6.92449 -5.17064 0
M  V30 17955 C 2429.59 6.43627 -5.25174 0
M  V30 17956 O 2430.33 7.43686 -4.60469 0
M  V30 17957 C 2428.93 5.40275 -4.31916 0
M  V30 17958 O 2429.72 5.25193 -3.14386 0
M  V30 17959 C 2427.59 6.04847 -4.05327 0
M  V30 17960 N 2426.55 5.04166 -3.98114 0
M  V30 17961 C 2426.61 3.96049 -4.75587 0
M  V30 17962 N 2425.56 3.15559 -4.54006 0
M  V30 17963 C 2424.83 3.78802 -3.62491 0
M  V30 17964 C 2423.52 3.476 -3.10071 0
M  V30 17965 O 2422.79 2.51136 -3.37021 0
M  V30 17966 N 2423.09 4.39088 -2.19956 0
M  V30 17967 C 2423.84 5.53215 -1.81733 0
M  V30 17968 N 2423.24 6.31963 -0.860928 0
M  V30 17969 N 2424.99 5.86688 -2.32562 0
M  V30 17970 C 2425.45 4.97525 -3.23407 0
M  V30 17971 H 2427.62 6.62195 -3.11261 0
M  V30 17972 H 2428.8 4.42488 -4.8131 0
M  V30 17973 H 2430.29 5.93051 -5.9305 0
M  V30 17974 H 2428.59 7.92655 -6.402 0
M  V30 17975 H 2428.4 6.26671 -8.0846 0
M  V30 17976 H 2426.77 6.29101 -7.32804 0
M  V30 17977 H 2422.2 4.25523 -1.77604 0
M  V30 17978 H 2427.4 3.75576 -5.47333 0
M  V30 17979 H 2422.33 6.04684 -0.468946 0
M  V30 17980 H 2423.71 7.18054 -0.542422 0
M  V30 17981 H 2429.41 5.84223 -2.47279 0
M  V30 17982 P 2431.27 7.39546 -4.75277 0
M  V30 17983 O 2432.69 7.84798 -5.01039 0
M  V30 17984 O 2430.91 5.9812 -5.08098 0
M  V30 17985 O 2430.95 7.57503 -3.1866 0
M  V30 17986 C 2430.79 8.97357 -2.74833 0
M  V30 17987 C 2431.33 9.07548 -1.32709 0
M  V30 17988 O 2430.27 8.62072 -0.606159 0
M  V30 17989 C 2432.54 8.25383 -0.938334 0
M  V30 17990 O 2433.28 8.74577 0.146954 0
M  V30 17991 C 2431.88 6.8802 -0.712559 0
M  V30 17992 O 2432.67 6.1189 0.194655 0
M  V30 17993 C 2430.54 7.27966 -0.139777 0
M  V30 17994 H 2430.57 7.25354 0.961601 0
M  V30 17995 H 2431.75 6.32557 -1.65702 0
M  V30 17996 H 2433.24 8.19355 -1.79097 0
M  V30 17997 H 2431.54 10.1294 -1.10029 0
M  V30 17998 H 2431.35 9.64276 -3.41316 0
M  V30 17999 H 2429.72 9.25417 -2.76357 0
M  V30 18000 H 2432.36 6.25267 1.07847 0
M  V30 18001 P 2434.22 8.791 2.12636e-11 0
M  V30 18002 O 2435.64 9.31096 0.027933 0
M  V30 18003 O 2433.86 7.77869 -1.04071 0
M  V30 18004 O 2433.9 8.09533 1.41463 0
M  V30 18005 C 2433.74 9.0349 2.53943 0
M  V30 18006 C 2434.28 8.35226 3.79016 0
M  V30 18007 O 2433.22 7.57992 4.15078 0
M  V30 18008 C 2435.5 7.45087 3.67298 0
M  V30 18009 O 2436.23 7.27796 4.85194 0
M  V30 18010 C 2434.83 6.17323 3.12027 0
M  V30 18011 O 2435.63 5.04231 3.47188 0
M  V30 18012 C 2433.49 6.19961 3.81809 0
M  V30 18013 H 2433.52 5.58218 4.73051 0
M  V30 18014 H 2434.7 6.21726 2.02589 0
M  V30 18015 H 2436.19 7.86112 2.9231 0
M  V30 18016 H 2434.49 9.11627 4.55076 0
M  V30 18017 H 2434.3 9.9573 2.34194 0
M  V30 18018 H 2432.67 9.2792 2.67832 0
M  V30 18019 H 2435.31 4.67702 4.28772 0
M  V30 18020 P 2437.17 7.39546 4.75277 0
M  V30 18021 O 2438.59 7.81777 5.05738 0
M  V30 18022 O 2436.81 7.1065 3.32998 0
M  V30 18023 O 2436.85 6.04542 5.56673 0
M  V30 18024 C 2436.69 6.22772 7.02095 0
M  V30 18025 C 2437.23 4.97725 7.70406 0
M  V30 18026 O 2436.17 4.13256 7.58987 0
M  V30 18027 C 2438.45 4.28231 7.11815 0
M  V30 18028 O 2439.18 3.49945 8.01648 0
M  V30 18029 C 2437.78 3.5063 5.96244 0
M  V30 18030 O 2438.58 2.36482 5.64681 0
M  V30 18031 C 2436.44 3.15122 6.56374 0
M  V30 18032 H 2436.47 2.13853 6.99751 0
M  V30 18033 H 2437.65 4.13501 5.06559 0
M  V30 18034 H 2439.14 5.03285 6.70911 0
M  V30 18035 H 2437.44 5.20877 8.75697 0
M  V30 18036 H 2437.25 7.11046 7.35349 0
M  V30 18037 H 2435.62 6.35815 7.26986 0
M  V30 18038 H 2438.26 1.61644 6.13565 0
M  V30 18039 P 2440.12 3.65191 7.99657 0
M  V30 18040 O 2441.54 3.8425 8.48115 0
M  V30 18041 O 2439.76 4.17805 6.64342 0
M  V30 18042 O 2439.8 2.07613 7.95143 0
M  V30 18043 C 2439.64 1.44328 9.27336 0
M  V30 18044 C 2440.18 0.0220036 9.17197 0
M  V30 18045 O 2439.12 -0.626867 8.61923 0
M  V30 18046 C 2441.4 -0.24586 8.30336 0
M  V30 18047 O 2442.13 -1.39011 8.63583 0
M  V30 18048 C 2440.73 -0.273849 6.91158 0
M  V30 18049 O 2441.53 -1.06348 6.02892 0
M  V30 18050 C 2439.39 -0.897649 7.22545 0
M  V30 18051 H 2439.42 -1.9841 7.04286 0
M  V30 18052 H 2440.61 0.739928 6.497 0
M  V30 18053 H 2442.09 0.60668 8.36503 0
M  V30 18054 H 2440.4 -0.352479 10.1829 0
M  V30 18055 H 2440.21 2.00611 10.0304 0
M  V30 18056 H 2438.58 1.41843 9.55327 0
M  V30 18057 H 2441.21 -1.95734 6.03555 0
M  V30 18058 P 2443.07 -1.25109 8.70152 0
M  V30 18059 O 2444.49 -1.35274 9.21221 0
M  V30 18060 O 2442.71 -0.0769065 7.84762 0
M  V30 18061 O 2442.75 -2.55232 7.81161 0
M  V30 18062 C 2442.59 -3.79939 8.58154 0
M  V30 18063 C 2443.13 -4.94023 7.72785 0
M  V30 18064 O 2442.07 -5.18726 6.91205 0
M  V30 18065 C 2444.35 -4.69597 6.85231 0
M  V30 18066 O 2445.08 -5.83832 6.51337 0
M  V30 18067 C 2443.68 -3.96706 5.66633 0
M  V30 18068 O 2444.48 -4.15414 4.49689 0
M  V30 18069 C 2442.34 -4.66153 5.59313 0
M  V30 18070 H 2442.37 -5.47679 4.85214 0
M  V30 18071 H 2443.56 -2.89008 5.86566 0
M  V30 18072 H 2445.04 -4.0121 7.36511 0
M  V30 18073 H 2443.35 -5.80182 8.37584 0
M  V30 18074 H 2443.16 -3.73517 9.52265 0
M  V30 18075 H 2441.53 -3.97163 8.80359 0
M  V30 18076 H 2444.16 -4.90969 4.01921 0
M  V30 18077 P 2446.02 -5.75688 6.64379 0
M  V30 18078 O 2447.44 -6.11915 7.01921 0
M  V30 18079 O 2445.66 -4.30744 6.56026 0
M  V30 18080 O 2445.7 -6.37042 5.19165 0
M  V30 18081 C 2445.54 -7.83662 5.1657 0
M  V30 18082 C 2446.08 -8.33398 3.83019 0
M  V30 18083 O 2445.02 -8.0998 3.00999 0
M  V30 18084 C 2447.3 -7.65514 3.2257 0
M  V30 18085 O 2448.04 -8.4329 2.32297 0
M  V30 18086 C 2446.63 -6.40075 2.62207 0
M  V30 18087 O 2447.43 -5.92338 1.5428 0
M  V30 18088 C 2445.29 -6.9454 2.18503 0
M  V30 18089 N 2444.25 -5.95905 2.39948 0
M  V30 18090 C 2444.42 -4.98383 3.32108 0
M  V30 18091 N 2443.39 -4.16798 3.41761 0
M  V30 18092 C 2442.51 -4.65287 2.47461 0
M  V30 18093 C 2441.24 -4.18946 2.07461 0
M  V30 18094 N 2440.64 -3.09661 2.60717 0
M  V30 18095 N 2440.67 -4.95327 1.09101 0
M  V30 18096 C 2441.28 -6.04369 0.519812 0
M  V30 18097 N 2442.45 -6.50694 0.855982 0
M  V30 18098 C 2443.03 -5.75818 1.84322 0
M  V30 18099 H 2445.32 -7.22964 1.12076 0
M  V30 18100 H 2446.51 -5.60502 3.36589 0
M  V30 18101 H 2447.99 -7.35707 4.02681 0
M  V30 18102 H 2446.3 -9.41302 3.90009 0
M  V30 18103 H 2446.11 -8.29056 5.99158 0
M  V30 18104 H 2444.48 -8.10073 5.25882 0
M  V30 18105 H 2440.74 -6.55843 -0.270373 0
M  V30 18106 H 2445.32 -4.88564 3.92502 0
M  V30 18107 H 2439.71 -2.80523 2.27218 0
M  V30 18108 H 2441.11 -2.55848 3.34465 0
M  V30 18109 H 2447.12 -6.30224 0.72668 0
M  V30 18110 P 2448.97 -8.4349 2.47671 0
M  V30 18111 O 2450.39 -8.94263 2.59668 0
M  V30 18112 O 2448.61 -7.1704 3.19006 0
M  V30 18113 O 2448.65 -8.16596 0.923387 0
M  V30 18114 C 2448.49 -9.38537 0.108869 0
M  V30 18115 C 2449.03 -9.08175 -1.28353 0
M  V30 18116 O 2447.98 -8.44131 -1.84692 0
M  V30 18117 C 2450.25 -8.18386 -1.42505 0
M  V30 18118 O 2450.99 -8.3501 -2.60497 0
M  V30 18119 C 2449.58 -6.80225 -1.25468 0
M  V30 18120 O 2450.38 -5.81716 -1.90454 0
M  V30 18121 C 2448.24 -7.02416 -1.9168 0
M  V30 18122 N 2447.2 -6.31033 -1.20314 0
M  V30 18123 C 2447.37 -5.98817 0.0994088 0
M  V30 18124 N 2446.34 -5.35403 0.621694 0
M  V30 18125 C 2445.46 -5.25212 -0.43376 0
M  V30 18126 C 2444.19 -4.64602 -0.519722 0
M  V30 18127 N 2443.59 -4.01457 0.519136 0
M  V30 18128 N 2443.62 -4.7568 -1.76013 0
M  V30 18129 C 2444.23 -5.3653 -2.83017 0
M  V30 18130 N 2445.4 -5.93676 -2.79782 0
M  V30 18131 C 2445.98 -5.84061 -1.56249 0
M  V30 18132 H 2448.27 -6.68789 -2.9658 0
M  V30 18133 H 2449.46 -6.53498 -0.198729 0
M  V30 18134 H 2450.94 -8.36622 -0.589963 0
M  V30 18135 H 2449.25 -10.0273 -1.8081 0
M  V30 18136 H 2449.06 -10.2138 0.558219 0
M  V30 18137 H 2447.43 -9.6579 0.0444202 0
M  V30 18138 H 2443.69 -5.37113 -3.77321 0
M  V30 18139 H 2448.27 -6.23209 0.660562 0
M  V30 18140 H 2442.66 -3.58834 0.394862 0
M  V30 18141 H 2444.06 -3.96059 1.43048 0
M  V30 18142 H 2450.07 -5.69466 -2.79593 0
M  V30 18143 P 2451.92 -8.4349 -2.47671 0
M  V30 18144 O 2453.35 -8.92593 -2.65 0
M  V30 18145 O 2451.56 -7.7568 -1.19296 0
M  V30 18146 O 2451.6 -7.36886 -3.63805 0
M  V30 18147 C 2451.44 -7.95349 -4.982 0
M  V30 18148 C 2451.98 -6.94612 -5.98974 0
M  V30 18149 O 2450.92 -6.10347 -6.11815 0
M  V30 18150 C 2453.2 -6.11426 -5.62335 0
M  V30 18151 O 2453.94 -5.6162 -6.70584 0
M  V30 18152 C 2452.53 -5.04409 -4.73308 0
M  V30 18153 O 2453.33 -3.85992 -4.75183 0
M  V30 18154 C 2451.19 -4.8728 -5.41006 0
M  V30 18155 H 2451.22 -4.02333 -6.11157 0
M  V30 18156 H 2452.41 -5.39466 -3.69543 0
M  V30 18157 H 2453.89 -6.71916 -5.01943 0
M  V30 18158 H 2452.2 -7.4649 -6.93477 0
M  V30 18159 H 2452.01 -8.89416 -5.05237 0
M  V30 18160 H 2450.38 -8.14876 -5.18409 0
M  V30 18161 H 2453.02 -3.27957 -5.4317 0
M  V30 18162 P 2454.87 -5.75688 -6.64379 0
M  V30 18163 O 2456.3 -6.07627 -7.05504 0
M  V30 18164 O 2454.51 -5.88047 -5.19722 0
M  V30 18165 O 2454.55 -4.2322 -7.04443 0
M  V30 18166 C 2454.39 -3.99743 -8.4911 0
M  V30 18167 C 2454.93 -2.60516 -8.79425 0
M  V30 18168 O 2453.88 -1.82684 -8.4467 0
M  V30 18169 C 2456.15 -2.10343 -8.03628 0
M  V30 18170 O 2456.89 -1.09919 -8.67766 0
M  V30 18171 C 2455.48 -1.68446 -6.70876 0
M  V30 18172 O 2456.28 -0.678137 -6.08433 0
M  V30 18173 C 2454.14 -1.17436 -7.18567 0
M  V30 18174 H 2454.18 -0.0804732 -7.31656 0
M  V30 18175 H 2455.36 -2.54037 -6.02537 0
M  V30 18176 H 2456.84 -2.93881 -7.85526 0
M  V30 18177 H 2455.15 -2.53065 -9.86973 0
M  V30 18178 H 2454.96 -4.75072 -9.05887 0
M  V30 18179 H 2453.33 -4.05244 -8.76668 0
M  V30 18180 H 2455.97 0.177647 -6.34251 0
M  V30 18181 P 2457.82 -1.25109 -8.70152 0
M  V30 18182 O 2459.25 -1.29744 -9.22016 0
M  V30 18183 O 2457.46 -2.13714 -7.55141 0
M  V30 18184 O 2457.5 0.248149 -8.21425 0
M  V30 18185 C 2457.34 1.22779 -9.30434 0
M  V30 18186 C 2457.88 2.56293 -8.80664 0
M  V30 18187 O 2456.83 3.02979 -8.09349 0
M  V30 18188 C 2459.1 2.57523 -7.89775 0
M  V30 18189 O 2459.84 3.7668 -7.89438 0
M  V30 18190 C 2458.43 2.20997 -6.55446 0
M  V30 18191 O 2459.23 2.71895 -5.48509 0
M  V30 18192 C 2457.09 2.89693 -6.67988 0
M  V30 18193 H 2457.13 3.88793 -6.19859 0
M  V30 18194 H 2458.31 1.12046 -6.44229 0
M  V30 18195 H 2459.79 1.7746 -8.19711 0
M  V30 18196 H 2458.1 3.20706 -9.67112 0
M  V30 18197 H 2457.91 0.901032 -10.1892 0
M  V30 18198 H 2456.28 1.33049 -9.56592 0
M  V30 18199 H 2458.92 3.57847 -5.23962 0
M  V30 18200 P 2460.78 3.65191 -7.99657 0
M  V30 18201 O 2462.18 3.87414 -8.52829 0
M  V30 18202 O 2460.4 2.26932 -7.566 0
M  V30 18203 O 2460.45 4.64915 -6.77529 0
M  V30 18204 C 2460.29 6.06319 -7.16352 0
M  V30 18205 C 2460.83 6.91655 -6.02234 0
M  V30 18206 O 2459.78 6.92369 -5.17005 0
M  V30 18207 C 2462.05 6.43627 -5.25174 0
M  V30 18208 O 2462.79 7.43686 -4.60469 0
M  V30 18209 C 2461.38 5.40275 -4.31916 0
M  V30 18210 O 2462.18 5.25193 -3.14386 0
M  V30 18211 C 2460.04 6.04847 -4.05327 0
M  V30 18212 N 2459 5.04166 -3.98114 0
M  V30 18213 C 2457.97 5.2366 -3.09923 0
M  V30 18214 O 2458.01 6.23355 -2.34204 0
M  V30 18215 N 2456.95 4.34279 -3.05727 0
M  V30 18216 C 2457 3.26317 -3.84756 0
M  V30 18217 C 2458.1 3.02504 -4.72573 0
M  V30 18218 C 2459.06 3.94493 -4.76618 0
M  V30 18219 H 2460.08 6.62104 -3.11218 0
M  V30 18220 H 2461.26 4.42969 -4.80867 0
M  V30 18221 H 2462.74 5.93122 -5.93121 0
M  V30 18222 H 2461.05 7.93295 -6.39407 0
M  V30 18223 H 2460.86 6.26671 -8.0846 0
M  V30 18224 H 2459.23 6.29036 -7.32728 0
M  V30 18225 H 2458.15 2.12921 -5.34017 0
M  V30 18226 H 2459.91 3.80658 -5.44176 0
M  V30 18227 H 2461.96 5.93572 -2.52637 0
M  V30 18228 P 2463.73 7.39546 -4.75277 0
M  V30 18229 O 2465.15 7.84882 -5.01092 0
M  V30 18230 O 2463.37 5.9812 -5.08098 0
M  V30 18231 O 2463.4 7.57503 -3.1866 0
M  V30 18232 C 2463.24 8.97452 -2.74862 0
M  V30 18233 C 2463.78 9.07548 -1.32709 0
M  V30 18234 O 2462.73 8.61972 -0.606089 0
M  V30 18235 C 2465 8.25383 -0.938334 0
M  V30 18236 O 2465.74 8.74577 0.146954 0
M  V30 18237 C 2464.33 6.8802 -0.712559 0
M  V30 18238 O 2465.13 6.1181 0.188505 0
M  V30 18239 C 2462.99 7.27966 -0.139777 0
M  V30 18240 N 2461.95 6.39368 -0.623421 0
M  V30 18241 C 2462.12 5.71761 -1.78245 0
M  V30 18242 N 2461.09 4.962 -2.10491 0
M  V30 18243 C 2460.21 5.16158 -1.0635 0
M  V30 18244 C 2458.94 4.60425 -0.810266 0
M  V30 18245 N 2458.38 5.06 0.348685 0
M  V30 18246 C 2458.98 5.94532 1.20395 0
M  V30 18247 N 2460.16 6.48452 1.01191 0
M  V30 18248 C 2460.73 6.04423 -0.146291 0
M  V30 18249 H 2464.21 6.32625 -1.65044 0
M  V30 18250 H 2465.69 8.19355 -1.79097 0
M  V30 18251 H 2464 10.1305 -1.09016 0
M  V30 18252 H 2463.81 9.64276 -3.41316 0
M  V30 18253 H 2462.18 9.25417 -2.76357 0
M  V30 18254 H 2463.02 5.79354 -2.38959 0
M  V30 18255 H 2464.82 6.25169 1.0783 0
M  V30 18256 P 2466.68 8.791 2.15738e-11 0
M  V30 18257 O 2468.1 9.31096 0.027933 0
M  V30 18258 O 2466.32 7.77869 -1.04071 0
M  V30 18259 O 2466.35 8.09533 1.41463 0
M  V30 18260 C 2466.19 9.0349 2.53943 0
M  V30 18261 C 2466.73 8.35226 3.79016 0
M  V30 18262 O 2465.68 7.57992 4.15078 0
M  V30 18263 C 2467.95 7.45087 3.67298 0
M  V30 18264 O 2468.69 7.27796 4.85194 0
M  V30 18265 C 2467.28 6.17323 3.12027 0
M  V30 18266 O 2468.08 5.04231 3.47188 0
M  V30 18267 C 2465.95 6.19961 3.81809 0
M  V30 18268 H 2465.98 5.58218 4.73051 0
M  V30 18269 H 2467.16 6.21726 2.02589 0
M  V30 18270 H 2468.64 7.86112 2.9231 0
M  V30 18271 H 2466.95 9.11627 4.55076 0
M  V30 18272 H 2466.76 9.9573 2.34194 0
M  V30 18273 H 2465.13 9.2792 2.67832 0
M  V30 18274 H 2467.77 4.67702 4.28772 0
M  V30 18275 P 2469.63 7.39546 4.75277 0
M  V30 18276 O 2471.05 7.81777 5.05738 0
M  V30 18277 O 2469.27 7.1065 3.32998 0
M  V30 18278 O 2469.3 6.04542 5.56673 0
M  V30 18279 C 2469.14 6.22772 7.02095 0
M  V30 18280 C 2469.68 4.97725 7.70406 0
M  V30 18281 O 2468.63 4.13256 7.58987 0
M  V30 18282 C 2470.9 4.28231 7.11815 0
M  V30 18283 O 2471.64 3.49945 8.01648 0
M  V30 18284 C 2470.23 3.5063 5.96244 0
M  V30 18285 O 2471.03 2.36482 5.64681 0
M  V30 18286 C 2468.9 3.15122 6.56374 0
M  V30 18287 H 2468.93 2.13853 6.99751 0
M  V30 18288 H 2470.11 4.13501 5.06559 0
M  V30 18289 H 2471.6 5.03285 6.70911 0
M  V30 18290 H 2469.9 5.20877 8.75697 0
M  V30 18291 H 2469.71 7.11046 7.35349 0
M  V30 18292 H 2468.08 6.35815 7.26986 0
M  V30 18293 H 2470.72 1.61644 6.13565 0
M  V30 18294 P 2472.58 3.65191 7.99657 0
M  V30 18295 O 2474 3.84292 8.48206 0
M  V30 18296 O 2472.22 4.17805 6.64342 0
M  V30 18297 O 2472.25 2.07613 7.95143 0
M  V30 18298 C 2472.09 1.44344 9.27435 0
M  V30 18299 C 2472.63 0.0220036 9.17197 0
M  V30 18300 O 2471.58 -0.626794 8.61824 0
M  V30 18301 C 2473.85 -0.24586 8.30336 0
M  V30 18302 O 2474.59 -1.39011 8.63583 0
M  V30 18303 C 2473.18 -0.273849 6.91158 0
M  V30 18304 O 2473.98 -1.05728 6.029 0
M  V30 18305 C 2471.85 -0.897649 7.22545 0
M  V30 18306 N 2470.8 -0.292839 6.41732 0
M  V30 18307 C 2470.97 0.950603 5.91308 0
M  V30 18308 N 2469.95 1.37732 5.21105 0
M  V30 18309 C 2469.06 0.318109 5.26039 0
M  V30 18310 C 2467.79 0.146766 4.6727 0
M  V30 18311 N 2467.19 1.08519 3.89983 0
M  V30 18312 N 2467.23 -1.06525 4.95887 0
M  V30 18313 C 2467.83 -2.0378 5.71347 0
M  V30 18314 N 2469.01 -1.92445 6.27451 0
M  V30 18315 C 2469.58 -0.715382 6.00353 0
M  V30 18316 H 2471.88 -1.98383 7.04189 0
M  V30 18317 H 2473.06 0.733318 6.49674 0
M  V30 18318 H 2474.54 0.60668 8.36503 0
M  V30 18319 H 2472.85 -0.362662 10.1825 0
M  V30 18320 H 2472.66 2.00611 10.0304 0
M  V30 18321 H 2471.03 1.41843 9.55327 0
M  V30 18322 H 2467.29 -2.97041 5.85344 0
M  V30 18323 H 2471.87 1.54076 6.07465 0
M  V30 18324 H 2466.26 0.901517 3.49562 0
M  V30 18325 H 2467.67 1.97957 3.71669 0
M  V30 18326 H 2473.67 -1.95704 6.0346 0
M  V30 18327 P 2475.53 -1.25109 8.70152 0
M  V30 18328 O 2476.95 -1.35274 9.21221 0
M  V30 18329 O 2475.17 -0.0769065 7.84762 0
M  V30 18330 O 2475.21 -2.55232 7.81161 0
M  V30 18331 C 2475.05 -3.79939 8.58154 0
M  V30 18332 C 2475.59 -4.94023 7.72785 0
M  V30 18333 O 2474.53 -5.18726 6.91205 0
M  V30 18334 C 2476.8 -4.69597 6.85231 0
M  V30 18335 O 2477.54 -5.83832 6.51337 0
M  V30 18336 C 2476.13 -3.96706 5.66633 0
M  V30 18337 O 2476.93 -4.15414 4.49689 0
M  V30 18338 C 2474.8 -4.66153 5.59313 0
M  V30 18339 H 2474.83 -5.47679 4.85214 0
M  V30 18340 H 2476.01 -2.89008 5.86566 0
M  V30 18341 H 2477.5 -4.0121 7.36511 0
M  V30 18342 H 2475.8 -5.80182 8.37584 0
M  V30 18343 H 2475.61 -3.73517 9.52265 0
M  V30 18344 H 2473.98 -3.97163 8.80359 0
M  V30 18345 H 2476.62 -4.90969 4.01921 0
M  V30 18346 P 2478.48 -5.75688 6.64379 0
M  V30 18347 O 2479.9 -6.11849 7.01846 0
M  V30 18348 O 2478.12 -4.30744 6.56026 0
M  V30 18349 O 2478.16 -6.37042 5.19165 0
M  V30 18350 C 2478 -7.83578 5.16515 0
M  V30 18351 C 2478.54 -8.33398 3.83019 0
M  V30 18352 O 2477.48 -8.10074 3.01034 0
M  V30 18353 C 2479.75 -7.65514 3.2257 0
M  V30 18354 O 2480.49 -8.4329 2.32297 0
M  V30 18355 C 2479.08 -6.40075 2.62207 0
M  V30 18356 O 2479.88 -5.92589 1.53712 0
M  V30 18357 C 2477.75 -6.9454 2.18503 0
M  V30 18358 H 2477.78 -7.23063 1.12091 0
M  V30 18359 H 2478.96 -5.6025 3.37201 0
M  V30 18360 H 2480.45 -7.35707 4.02681 0
M  V30 18361 H 2478.75 -9.40912 3.9095 0
M  V30 18362 H 2478.56 -8.29056 5.99158 0
M  V30 18363 H 2476.93 -8.10073 5.25882 0
M  V30 18364 H 2479.57 -6.30324 0.726794 0
M  V30 18365 P 2481.43 -8.4349 2.47671 0
M  V30 18366 O 2482.85 -8.94359 2.59696 0
M  V30 18367 O 2481.07 -7.1704 3.19006 0
M  V30 18368 O 2481.11 -8.16596 0.923387 0
M  V30 18369 C 2480.95 -9.38437 0.108857 0
M  V30 18370 C 2481.49 -9.08076 -1.28339 0
M  V30 18371 O 2480.43 -8.44229 -1.84713 0
M  V30 18372 C 2482.7 -8.18386 -1.42505 0
M  V30 18373 O 2483.44 -8.3501 -2.60497 0
M  V30 18374 C 2482.04 -6.80225 -1.25468 0
M  V30 18375 O 2482.83 -5.81526 -1.91035 0
M  V30 18376 C 2480.7 -7.02416 -1.9168 0
M  V30 18377 N 2479.66 -6.31033 -1.20314 0
M  V30 18378 C 2479.72 -6.18781 0.121293 0
M  V30 18379 N 2478.67 -5.49762 0.588272 0
M  V30 18380 C 2477.94 -5.22015 -0.488988 0
M  V30 18381 C 2476.63 -4.61966 -0.596448 0
M  V30 18382 O 2475.9 -4.19162 0.309059 0
M  V30 18383 N 2476.2 -4.53773 -1.878 0
M  V30 18384 C 2476.95 -4.99623 -2.99082 0
M  V30 18385 N 2476.35 -4.78912 -4.21227 0
M  V30 18386 N 2478.1 -5.59957 -2.91093 0
M  V30 18387 C 2478.56 -5.70225 -1.64218 0
M  V30 18388 H 2480.73 -6.6888 -2.96621 0
M  V30 18389 H 2481.91 -6.53517 -0.192194 0
M  V30 18390 H 2483.4 -8.36563 -0.598329 0
M  V30 18391 H 2481.7 -10.0291 -1.79807 0
M  V30 18392 H 2481.51 -10.2138 0.558219 0
M  V30 18393 H 2479.88 -9.6579 0.0444202 0
M  V30 18394 H 2475.31 -4.12883 -2.05283 0
M  V30 18395 H 2480.51 -6.59596 0.745856 0
M  V30 18396 H 2475.44 -4.31425 -4.2628 0
M  V30 18397 H 2476.82 -5.11219 -5.07148 0
M  V30 18398 H 2482.52 -5.69466 -2.79593 0
M  V30 18399 P 2484.38 -8.4349 -2.47671 0
M  V30 18400 O 2485.8 -8.92593 -2.65 0
M  V30 18401 O 2484.02 -7.7568 -1.19296 0
M  V30 18402 O 2484.06 -7.36886 -3.63805 0
M  V30 18403 C 2483.9 -7.95349 -4.982 0
M  V30 18404 C 2484.44 -6.94612 -5.98974 0
M  V30 18405 O 2483.38 -6.10347 -6.11815 0
M  V30 18406 C 2485.65 -6.11426 -5.62335 0
M  V30 18407 O 2486.39 -5.6162 -6.70584 0
M  V30 18408 C 2484.99 -5.04409 -4.73308 0
M  V30 18409 O 2485.78 -3.85992 -4.75183 0
M  V30 18410 C 2483.65 -4.8728 -5.41006 0
M  V30 18411 H 2483.68 -4.02333 -6.11157 0
M  V30 18412 H 2484.86 -5.39466 -3.69543 0
M  V30 18413 H 2486.35 -6.71916 -5.01943 0
M  V30 18414 H 2484.65 -7.4649 -6.93477 0
M  V30 18415 H 2484.46 -8.89416 -5.05237 0
M  V30 18416 H 2482.83 -8.14876 -5.18409 0
M  V30 18417 H 2485.47 -3.27957 -5.4317 0
M  V30 18418 P 2487.33 -5.75688 -6.64379 0
M  V30 18419 O 2488.75 -6.07627 -7.05504 0
M  V30 18420 O 2486.97 -5.88047 -5.19722 0
M  V30 18421 O 2487.01 -4.2322 -7.04443 0
M  V30 18422 C 2486.85 -3.99743 -8.4911 0
M  V30 18423 C 2487.39 -2.60516 -8.79425 0
M  V30 18424 O 2486.33 -1.82684 -8.4467 0
M  V30 18425 C 2488.61 -2.10343 -8.03628 0
M  V30 18426 O 2489.34 -1.09919 -8.67766 0
M  V30 18427 C 2487.94 -1.68446 -6.70876 0
M  V30 18428 O 2488.74 -0.678137 -6.08433 0
M  V30 18429 C 2486.6 -1.17436 -7.18567 0
M  V30 18430 H 2486.63 -0.0804732 -7.31656 0
M  V30 18431 H 2487.81 -2.54037 -6.02537 0
M  V30 18432 H 2489.3 -2.93881 -7.85526 0
M  V30 18433 H 2487.6 -2.53065 -9.86973 0
M  V30 18434 H 2487.41 -4.75072 -9.05887 0
M  V30 18435 H 2485.78 -4.05244 -8.76668 0
M  V30 18436 H 2488.42 0.177647 -6.34251 0
M  V30 18437 P 2490.28 -1.25109 -8.70152 0
M  V30 18438 O 2491.7 -1.29758 -9.22115 0
M  V30 18439 O 2489.92 -2.13714 -7.55141 0
M  V30 18440 O 2489.96 0.248149 -8.21425 0
M  V30 18441 C 2489.8 1.22792 -9.30533 0
M  V30 18442 C 2490.34 2.56293 -8.80664 0
M  V30 18443 O 2489.28 3.02944 -8.09255 0
M  V30 18444 C 2491.56 2.57523 -7.89775 0
M  V30 18445 O 2492.29 3.7668 -7.89438 0
M  V30 18446 C 2490.89 2.20997 -6.55446 0
M  V30 18447 O 2491.69 2.71302 -5.48691 0
M  V30 18448 C 2489.55 2.89693 -6.67988 0
M  V30 18449 N 2488.51 2.08895 -6.07487 0
M  V30 18450 C 2488.68 0.753809 -5.94137 0
M  V30 18451 N 2487.65 0.146592 -5.38801 0
M  V30 18452 C 2486.76 1.1768 -5.13693 0
M  V30 18453 C 2485.5 1.17563 -4.52477 0
M  V30 18454 N 2484.93 2.41918 -4.45789 0
M  V30 18455 C 2485.53 3.56493 -4.90792 0
M  V30 18456 N 2486.71 3.61423 -5.47817 0
M  V30 18457 C 2487.29 2.37779 -5.5588 0
M  V30 18458 H 2490.77 1.12673 -6.44018 0
M  V30 18459 H 2492.25 1.7746 -8.19711 0
M  V30 18460 H 2490.55 3.21673 -9.66791 0
M  V30 18461 H 2490.36 0.901032 -10.1892 0
M  V30 18462 H 2488.73 1.33049 -9.56592 0
M  V30 18463 H 2489.58 0.233081 -6.26266 0
M  V30 18464 H 2491.37 3.5779 -5.23879 0
M  V30 18465 P 2493.23 3.65191 -7.99657 0
M  V30 18466 O 2494.65 3.89332 -8.45794 0
M  V30 18467 O 2492.87 2.28472 -7.50807 0
M  V30 18468 O 2492.91 4.64972 -6.77611 0
M  V30 18469 C 2492.75 6.06319 -7.16352 0
M  V30 18470 C 2493.29 6.91731 -6.02299 0
M  V30 18471 O 2492.23 6.92449 -5.17064 0
M  V30 18472 C 2494.51 6.43627 -5.25174 0
M  V30 18473 O 2495.24 7.43686 -4.60469 0
M  V30 18474 C 2493.84 5.40275 -4.31916 0
M  V30 18475 O 2494.64 5.25279 -3.14438 0
M  V30 18476 C 2492.5 6.04847 -4.05327 0
M  V30 18477 H 2492.53 6.62195 -3.11261 0
M  V30 18478 H 2493.72 4.42556 -4.81383 0
M  V30 18479 H 2495.2 5.92458 -5.93643 0
M  V30 18480 H 2493.51 7.92655 -6.402 0
M  V30 18481 H 2493.32 6.26671 -8.0846 0
M  V30 18482 H 2491.69 6.29101 -7.32804 0
M  V30 18483 H 2494.32 5.84315 -2.47318 0
M  V30 18484 P 2496.18 7.39546 -4.75277 0
M  V30 18485 O 2497.6 7.84798 -5.01039 0
M  V30 18486 O 2495.82 5.9812 -5.08098 0
M  V30 18487 O 2495.86 7.57503 -3.1866 0
M  V30 18488 C 2495.7 8.97357 -2.74833 0
M  V30 18489 C 2496.24 9.07548 -1.32709 0
M  V30 18490 O 2495.18 8.62072 -0.606159 0
M  V30 18491 C 2497.46 8.25383 -0.938334 0
M  V30 18492 O 2498.2 8.74577 0.146954 0
M  V30 18493 C 2496.79 6.8802 -0.712559 0
M  V30 18494 O 2497.59 6.1189 0.194655 0
M  V30 18495 C 2495.45 7.27966 -0.139777 0
M  V30 18496 H 2495.48 7.25354 0.961601 0
M  V30 18497 H 2496.67 6.32557 -1.65702 0
M  V30 18498 H 2498.15 8.19355 -1.79097 0
M  V30 18499 H 2496.46 10.1294 -1.10029 0
M  V30 18500 H 2496.27 9.64276 -3.41316 0
M  V30 18501 H 2494.64 9.25417 -2.76357 0
M  V30 18502 H 2497.28 6.25267 1.07847 0
M  V30 18503 P 2499.13 8.791 2.18839e-11 0
M  V30 18504 O 2500.55 9.31096 0.027933 0
M  V30 18505 O 2498.77 7.77869 -1.04071 0
M  V30 18506 O 2498.81 8.09533 1.41463 0
M  V30 18507 C 2498.65 9.0349 2.53943 0
M  V30 18508 C 2499.19 8.35226 3.79016 0
M  V30 18509 O 2498.13 7.57992 4.15078 0
M  V30 18510 C 2500.41 7.45087 3.67298 0
M  V30 18511 O 2501.15 7.27796 4.85194 0
M  V30 18512 C 2499.74 6.17323 3.12027 0
M  V30 18513 O 2500.54 5.04231 3.47188 0
M  V30 18514 C 2498.4 6.19961 3.81809 0
M  V30 18515 H 2498.43 5.58218 4.73051 0
M  V30 18516 H 2499.62 6.21726 2.02589 0
M  V30 18517 H 2501.1 7.86112 2.9231 0
M  V30 18518 H 2499.41 9.11627 4.55076 0
M  V30 18519 H 2499.22 9.9573 2.34194 0
M  V30 18520 H 2497.59 9.2792 2.67832 0
M  V30 18521 H 2500.23 4.67702 4.28772 0
M  V30 18522 P 2502.08 7.39546 4.75277 0
M  V30 18523 O 2503.51 7.81777 5.05738 0
M  V30 18524 O 2501.72 7.1065 3.32998 0
M  V30 18525 O 2501.76 6.04542 5.56673 0
M  V30 18526 C 2501.6 6.22772 7.02095 0
M  V30 18527 C 2502.14 4.97725 7.70406 0
M  V30 18528 O 2501.08 4.13256 7.58987 0
M  V30 18529 C 2503.36 4.28231 7.11815 0
M  V30 18530 O 2504.1 3.49945 8.01648 0
M  V30 18531 C 2502.69 3.5063 5.96244 0
M  V30 18532 O 2503.49 2.36482 5.64681 0
M  V30 18533 C 2501.35 3.15122 6.56374 0
M  V30 18534 H 2501.38 2.13853 6.99751 0
M  V30 18535 H 2502.57 4.13501 5.06559 0
M  V30 18536 H 2504.05 5.03285 6.70911 0
M  V30 18537 H 2502.36 5.20877 8.75697 0
M  V30 18538 H 2502.17 7.11046 7.35349 0
M  V30 18539 H 2500.54 6.35815 7.26986 0
M  V30 18540 H 2503.18 1.61644 6.13565 0
M  V30 18541 P 2505.03 3.65191 7.99657 0
M  V30 18542 O 2506.45 3.84292 8.48206 0
M  V30 18543 O 2504.67 4.17805 6.64342 0
M  V30 18544 O 2504.71 2.07613 7.95143 0
M  V30 18545 C 2504.55 1.44344 9.27435 0
M  V30 18546 C 2505.09 0.0220036 9.17197 0
M  V30 18547 O 2504.04 -0.626794 8.61824 0
M  V30 18548 C 2506.31 -0.24586 8.30336 0
M  V30 18549 O 2507.05 -1.39011 8.63583 0
M  V30 18550 C 2505.64 -0.273849 6.91158 0
M  V30 18551 O 2506.44 -1.05728 6.029 0
M  V30 18552 C 2504.3 -0.897649 7.22545 0
M  V30 18553 N 2503.26 -0.292839 6.41732 0
M  V30 18554 C 2503.43 0.950603 5.91308 0
M  V30 18555 N 2502.4 1.37732 5.21105 0
M  V30 18556 C 2501.52 0.318109 5.26039 0
M  V30 18557 C 2500.25 0.146766 4.6727 0
M  V30 18558 N 2499.68 -1.06525 4.95887 0
M  V30 18559 C 2500.29 -2.0378 5.71347 0
M  V30 18560 N 2501.46 -1.92445 6.27451 0
M  V30 18561 C 2502.04 -0.715382 6.00353 0
M  V30 18562 H 2505.52 0.733318 6.49674 0
M  V30 18563 H 2507 0.60668 8.36503 0
M  V30 18564 H 2505.31 -0.362662 10.1825 0
M  V30 18565 H 2505.12 2.00611 10.0304 0
M  V30 18566 H 2503.49 1.41843 9.55327 0
M  V30 18567 H 2504.33 1.54076 6.07465 0
M  V30 18568 H 2506.13 -1.95704 6.0346 0
M  V30 18569 P 2507.98 -1.25109 8.70152 0
M  V30 18570 O 2509.41 -1.35274 9.21221 0
M  V30 18571 O 2507.62 -0.0769065 7.84762 0
M  V30 18572 O 2507.66 -2.55232 7.81161 0
M  V30 18573 C 2507.5 -3.79939 8.58154 0
M  V30 18574 C 2508.04 -4.94023 7.72785 0
M  V30 18575 O 2506.99 -5.18726 6.91205 0
M  V30 18576 C 2509.26 -4.69597 6.85231 0
M  V30 18577 O 2510 -5.83832 6.51337 0
M  V30 18578 C 2508.59 -3.96706 5.66633 0
M  V30 18579 O 2509.39 -4.15414 4.49689 0
M  V30 18580 C 2507.25 -4.66153 5.59313 0
M  V30 18581 H 2507.29 -5.47679 4.85214 0
M  V30 18582 H 2508.47 -2.89008 5.86566 0
M  V30 18583 H 2509.95 -4.0121 7.36511 0
M  V30 18584 H 2508.26 -5.80182 8.37584 0
M  V30 18585 H 2508.07 -3.73517 9.52265 0
M  V30 18586 H 2506.44 -3.97163 8.80359 0
M  V30 18587 H 2509.08 -4.90969 4.01921 0
M  V30 18588 P 2510.94 -5.75688 6.64379 0
M  V30 18589 O 2512.36 -6.11849 7.01846 0
M  V30 18590 O 2510.58 -4.30744 6.56026 0
M  V30 18591 O 2510.61 -6.37042 5.19165 0
M  V30 18592 C 2510.45 -7.83578 5.16515 0
M  V30 18593 C 2510.99 -8.33398 3.83019 0
M  V30 18594 O 2509.94 -8.10074 3.01034 0
M  V30 18595 C 2512.21 -7.65514 3.2257 0
M  V30 18596 O 2512.95 -8.4329 2.32297 0
M  V30 18597 C 2511.54 -6.40075 2.62207 0
M  V30 18598 O 2512.34 -5.92589 1.53712 0
M  V30 18599 C 2510.2 -6.9454 2.18503 0
M  V30 18600 H 2510.24 -7.23063 1.12091 0
M  V30 18601 H 2511.42 -5.6025 3.37201 0
M  V30 18602 H 2512.9 -7.35707 4.02681 0
M  V30 18603 H 2511.21 -9.40912 3.9095 0
M  V30 18604 H 2511.02 -8.29056 5.99158 0
M  V30 18605 H 2509.39 -8.10073 5.25882 0
M  V30 18606 H 2512.03 -6.30324 0.726794 0
M  V30 18607 P 2513.89 -8.4349 2.47671 0
M  V30 18608 O 2515.31 -8.94167 2.5964 0
M  V30 18609 O 2513.53 -7.1704 3.19006 0
M  V30 18610 O 2513.56 -8.16596 0.923387 0
M  V30 18611 C 2513.4 -9.38437 0.108857 0
M  V30 18612 C 2513.94 -9.08175 -1.28353 0
M  V30 18613 O 2512.89 -8.44229 -1.84713 0
M  V30 18614 C 2515.16 -8.18386 -1.42505 0
M  V30 18615 O 2515.9 -8.3501 -2.60497 0
M  V30 18616 C 2514.49 -6.80225 -1.25468 0
M  V30 18617 O 2515.29 -5.81621 -1.91066 0
M  V30 18618 C 2513.15 -7.02416 -1.9168 0
M  V30 18619 H 2513.19 -6.6888 -2.96621 0
M  V30 18620 H 2514.37 -6.53617 -0.192223 0
M  V30 18621 H 2515.85 -8.36622 -0.589963 0
M  V30 18622 H 2514.16 -10.0291 -1.79807 0
M  V30 18623 H 2513.97 -10.2138 0.558219 0
M  V30 18624 H 2512.34 -9.6579 0.0444202 0
M  V30 18625 H 2514.98 -5.69556 -2.79637 0
M  V30 18626 P 2516.84 -8.4349 -2.47671 0
M  V30 18627 O 2518.26 -8.92593 -2.65 0
M  V30 18628 O 2516.48 -7.7568 -1.19296 0
M  V30 18629 O 2516.51 -7.36886 -3.63805 0
M  V30 18630 C 2516.35 -7.95349 -4.982 0
M  V30 18631 C 2516.89 -6.94612 -5.98974 0
M  V30 18632 O 2515.84 -6.10347 -6.11815 0
M  V30 18633 C 2518.11 -6.11426 -5.62335 0
M  V30 18634 O 2518.85 -5.6162 -6.70584 0
M  V30 18635 C 2517.44 -5.04409 -4.73308 0
M  V30 18636 O 2518.24 -3.85992 -4.75183 0
M  V30 18637 C 2516.11 -4.8728 -5.41006 0
M  V30 18638 H 2516.14 -4.02333 -6.11157 0
M  V30 18639 H 2517.32 -5.39466 -3.69543 0
M  V30 18640 H 2518.8 -6.71916 -5.01943 0
M  V30 18641 H 2517.11 -7.4649 -6.93477 0
M  V30 18642 H 2516.92 -8.89416 -5.05237 0
M  V30 18643 H 2515.29 -8.14876 -5.18409 0
M  V30 18644 H 2517.93 -3.27957 -5.4317 0
M  V30 18645 P 2519.79 -5.75688 -6.64379 0
M  V30 18646 O 2521.21 -6.07627 -7.05504 0
M  V30 18647 O 2519.43 -5.88047 -5.19722 0
M  V30 18648 O 2519.46 -4.2322 -7.04443 0
M  V30 18649 C 2519.3 -3.99743 -8.4911 0
M  V30 18650 C 2519.84 -2.60516 -8.79425 0
M  V30 18651 O 2518.79 -1.82684 -8.4467 0
M  V30 18652 C 2521.06 -2.10343 -8.03628 0
M  V30 18653 O 2521.8 -1.09919 -8.67766 0
M  V30 18654 C 2520.39 -1.68446 -6.70876 0
M  V30 18655 O 2521.19 -0.678137 -6.08433 0
M  V30 18656 C 2519.06 -1.17436 -7.18567 0
M  V30 18657 H 2519.09 -0.0804732 -7.31656 0
M  V30 18658 H 2520.27 -2.54037 -6.02537 0
M  V30 18659 H 2521.75 -2.93881 -7.85526 0
M  V30 18660 H 2520.06 -2.53065 -9.86973 0
M  V30 18661 H 2519.87 -4.75072 -9.05887 0
M  V30 18662 H 2518.24 -4.05244 -8.76668 0
M  V30 18663 H 2520.88 0.177647 -6.34251 0
M  V30 18664 P 2522.74 -1.25109 -8.70152 0
M  V30 18665 O 2524.16 -1.29744 -9.22016 0
M  V30 18666 O 2522.38 -2.13714 -7.55141 0
M  V30 18667 O 2522.41 0.248149 -8.21425 0
M  V30 18668 C 2522.25 1.22779 -9.30434 0
M  V30 18669 C 2522.79 2.56293 -8.80664 0
M  V30 18670 O 2521.74 3.02979 -8.09349 0
M  V30 18671 C 2524.01 2.57523 -7.89775 0
M  V30 18672 O 2524.75 3.7668 -7.89438 0
M  V30 18673 C 2523.34 2.20997 -6.55446 0
M  V30 18674 O 2524.14 2.71895 -5.48509 0
M  V30 18675 C 2522.01 2.89693 -6.67988 0
M  V30 18676 H 2522.04 3.88793 -6.19859 0
M  V30 18677 H 2523.22 1.12046 -6.44229 0
M  V30 18678 H 2524.71 1.7746 -8.19711 0
M  V30 18679 H 2523.01 3.20706 -9.67112 0
M  V30 18680 H 2522.82 0.901032 -10.1892 0
M  V30 18681 H 2521.19 1.33049 -9.56592 0
M  V30 18682 H 2523.83 3.57847 -5.23962 0
M  V30 18683 P 2525.69 3.65191 -7.99657 0
M  V30 18684 O 2527.11 3.89332 -8.45794 0
M  V30 18685 O 2525.33 2.28472 -7.50807 0
M  V30 18686 O 2525.36 4.64972 -6.77611 0
M  V30 18687 C 2525.2 6.06319 -7.16352 0
M  V30 18688 C 2525.74 6.91731 -6.02299 0
M  V30 18689 O 2524.69 6.92449 -5.17064 0
M  V30 18690 C 2526.96 6.43627 -5.25174 0
M  V30 18691 O 2527.7 7.43686 -4.60469 0
M  V30 18692 C 2526.29 5.40275 -4.31916 0
M  V30 18693 O 2527.09 5.25279 -3.14438 0
M  V30 18694 C 2524.96 6.04847 -4.05327 0
M  V30 18695 H 2524.99 6.62195 -3.11261 0
M  V30 18696 H 2526.17 4.42556 -4.81383 0
M  V30 18697 H 2527.66 5.92458 -5.93643 0
M  V30 18698 H 2525.96 7.92655 -6.402 0
M  V30 18699 H 2525.77 6.26671 -8.0846 0
M  V30 18700 H 2524.14 6.29101 -7.32804 0
M  V30 18701 H 2526.78 5.84315 -2.47318 0
M  V30 18702 P 2528.64 7.39546 -4.75277 0
M  V30 18703 O 2530.06 7.84798 -5.01039 0
M  V30 18704 O 2528.28 5.9812 -5.08098 0
M  V30 18705 O 2528.32 7.57503 -3.1866 0
M  V30 18706 C 2528.16 8.97357 -2.74833 0
M  V30 18707 C 2528.7 9.07548 -1.32709 0
M  V30 18708 O 2527.64 8.62072 -0.606159 0
M  V30 18709 C 2529.91 8.25383 -0.938334 0
M  V30 18710 O 2530.65 8.74577 0.146954 0
M  V30 18711 C 2529.24 6.8802 -0.712559 0
M  V30 18712 O 2530.04 6.1189 0.194655 0
M  V30 18713 C 2527.91 7.27966 -0.139777 0
M  V30 18714 H 2527.94 7.25354 0.961601 0
M  V30 18715 H 2529.12 6.32557 -1.65702 0
M  V30 18716 H 2530.61 8.19355 -1.79097 0
M  V30 18717 H 2528.91 10.1294 -1.10029 0
M  V30 18718 H 2528.72 9.64276 -3.41316 0
M  V30 18719 H 2527.09 9.25417 -2.76357 0
M  V30 18720 H 2529.73 6.25267 1.07847 0
M  V30 18721 P 2531.59 8.791 2.21941e-11 0
M  V30 18722 O 2533.01 9.31096 0.027933 0
M  V30 18723 O 2531.23 7.77869 -1.04071 0
M  V30 18724 O 2531.27 8.09533 1.41463 0
M  V30 18725 C 2531.11 9.0349 2.53943 0
M  V30 18726 C 2531.65 8.35226 3.79016 0
M  V30 18727 O 2530.59 7.57992 4.15078 0
M  V30 18728 C 2532.86 7.45087 3.67298 0
M  V30 18729 O 2533.6 7.27796 4.85194 0
M  V30 18730 C 2532.2 6.17323 3.12027 0
M  V30 18731 O 2532.99 5.04231 3.47188 0
M  V30 18732 C 2530.86 6.19961 3.81809 0
M  V30 18733 H 2530.89 5.58218 4.73051 0
M  V30 18734 H 2532.07 6.21726 2.02589 0
M  V30 18735 H 2533.56 7.86112 2.9231 0
M  V30 18736 H 2531.86 9.11627 4.55076 0
M  V30 18737 H 2531.67 9.9573 2.34194 0
M  V30 18738 H 2530.04 9.2792 2.67832 0
M  V30 18739 H 2532.68 4.67702 4.28772 0
M  V30 18740 P 2534.54 7.39546 4.75277 0
M  V30 18741 O 2535.96 7.81861 5.05793 0
M  V30 18742 O 2534.18 7.1065 3.32998 0
M  V30 18743 O 2534.22 6.04542 5.56673 0
M  V30 18744 C 2534.06 6.22839 7.02169 0
M  V30 18745 C 2534.6 4.97725 7.70406 0
M  V30 18746 O 2533.54 4.13208 7.58899 0
M  V30 18747 C 2535.81 4.28231 7.11815 0
M  V30 18748 O 2536.55 3.49945 8.01648 0
M  V30 18749 C 2535.15 3.5063 5.96244 0
M  V30 18750 O 2535.94 2.37008 5.64352 0
M  V30 18751 C 2533.81 3.15122 6.56374 0
M  V30 18752 N 2532.77 3.22311 5.55692 0
M  V30 18753 C 2532.93 3.99655 4.46046 0
M  V30 18754 N 2531.91 3.97599 3.63918 0
M  V30 18755 C 2531.02 3.11159 4.25334 0
M  V30 18756 C 2529.76 2.64972 3.85157 0
M  V30 18757 N 2529.16 3.02132 2.69405 0
M  V30 18758 N 2529.19 1.78482 4.74759 0
M  V30 18759 C 2529.79 1.37463 5.90819 0
M  V30 18760 N 2530.97 1.7733 6.31889 0
M  V30 18761 C 2531.54 2.64393 5.43725 0
M  V30 18762 H 2533.84 2.13823 6.99656 0
M  V30 18763 H 2535.02 4.12931 5.06895 0
M  V30 18764 H 2536.51 5.03285 6.70911 0
M  V30 18765 H 2534.81 5.20001 8.76217 0
M  V30 18766 H 2534.62 7.11046 7.35349 0
M  V30 18767 H 2532.99 6.35815 7.26986 0
M  V30 18768 H 2529.26 0.66574 6.53015 0
M  V30 18769 H 2533.83 4.58037 4.27732 0
M  V30 18770 H 2528.23 2.64828 2.45331 0
M  V30 18771 H 2529.63 3.67472 2.05644 0
M  V30 18772 H 2535.63 1.61619 6.13468 0
M  V30 18773 P 2537.49 3.65191 7.99657 0
M  V30 18774 O 2538.91 3.8425 8.48115 0
M  V30 18775 O 2537.13 4.17805 6.64342 0
M  V30 18776 O 2537.17 2.07613 7.95143 0
M  V30 18777 C 2537.01 1.44328 9.27336 0
M  V30 18778 C 2537.55 0.0220036 9.17197 0
M  V30 18779 O 2536.49 -0.626867 8.61923 0
M  V30 18780 C 2538.77 -0.24586 8.30336 0
M  V30 18781 O 2539.5 -1.39011 8.63583 0
M  V30 18782 C 2538.1 -0.273849 6.91158 0
M  V30 18783 O 2538.9 -1.06348 6.02892 0
M  V30 18784 C 2536.76 -0.897649 7.22545 0
M  V30 18785 H 2536.79 -1.9841 7.04286 0
M  V30 18786 H 2537.97 0.739928 6.497 0
M  V30 18787 H 2539.46 0.60668 8.36503 0
M  V30 18788 H 2537.76 -0.352479 10.1829 0
M  V30 18789 H 2537.57 2.00611 10.0304 0
M  V30 18790 H 2535.94 1.41843 9.55327 0
M  V30 18791 H 2538.58 -1.95734 6.03555 0
M  V30 18792 P 2540.44 -1.25109 8.70152 0
M  V30 18793 O 2541.86 -1.35274 9.21221 0
M  V30 18794 O 2540.08 -0.0769065 7.84762 0
M  V30 18795 O 2540.12 -2.55232 7.81161 0
M  V30 18796 C 2539.96 -3.79939 8.58154 0
M  V30 18797 C 2540.5 -4.94023 7.72785 0
M  V30 18798 O 2539.44 -5.18726 6.91205 0
M  V30 18799 C 2541.72 -4.69597 6.85231 0
M  V30 18800 O 2542.45 -5.83832 6.51337 0
M  V30 18801 C 2541.05 -3.96706 5.66633 0
M  V30 18802 O 2541.85 -4.15414 4.49689 0
M  V30 18803 C 2539.71 -4.66153 5.59313 0
M  V30 18804 H 2539.74 -5.47679 4.85214 0
M  V30 18805 H 2540.92 -2.89008 5.86566 0
M  V30 18806 H 2542.41 -4.0121 7.36511 0
M  V30 18807 H 2540.71 -5.80182 8.37584 0
M  V30 18808 H 2540.52 -3.73517 9.52265 0
M  V30 18809 H 2538.89 -3.97163 8.80359 0
M  V30 18810 H 2541.53 -4.90969 4.01921 0
M  V30 18811 P 2543.39 -5.75688 6.64379 0
M  V30 18812 O 2544.79 -6.11991 7.09136 0
M  V30 18813 O 2543.01 -4.30899 6.62018 0
M  V30 18814 O 2543.07 -6.36965 5.19102 0
M  V30 18815 C 2542.91 -7.83578 5.16515 0
M  V30 18816 C 2543.45 -8.33307 3.82977 0
M  V30 18817 O 2542.39 -8.0998 3.00999 0
M  V30 18818 C 2544.67 -7.65514 3.2257 0
M  V30 18819 O 2545.4 -8.4329 2.32297 0
M  V30 18820 C 2544 -6.40075 2.62207 0
M  V30 18821 O 2544.8 -5.92492 1.53687 0
M  V30 18822 C 2542.66 -6.9454 2.18503 0
M  V30 18823 N 2541.62 -5.95905 2.39948 0
M  V30 18824 C 2540.58 -5.89764 1.49837 0
M  V30 18825 O 2540.62 -6.64088 0.490975 0
M  V30 18826 N 2539.57 -5.02821 1.70992 0
M  V30 18827 C 2539.62 -4.21498 2.77236 0
M  V30 18828 N 2538.61 -3.37475 2.96465 0
M  V30 18829 C 2540.71 -4.23389 3.68205 0
M  V30 18830 C 2541.68 -5.12792 3.46171 0
M  V30 18831 H 2542.69 -7.22964 1.12076 0
M  V30 18832 H 2543.88 -5.60502 3.36589 0
M  V30 18833 H 2545.36 -7.36197 4.01993 0
M  V30 18834 H 2543.67 -9.41302 3.90009 0
M  V30 18835 H 2543.47 -8.29056 5.99158 0
M  V30 18836 H 2541.84 -8.09989 5.25828 0
M  V30 18837 H 2540.76 -3.54747 4.52399 0
M  V30 18838 H 2542.53 -5.18551 4.1489 0
M  V30 18839 H 2537.82 -3.36058 2.30304 0
M  V30 18840 H 2538.61 -2.73846 3.77171 0
M  V30 18841 H 2544.58 -6.40705 0.751752 0
M  V30 18842 P 2546.34 -8.4349 2.47671 0
M  V30 18843 O 2547.76 -8.94167 2.5964 0
M  V30 18844 O 2545.98 -7.1704 3.19006 0
M  V30 18845 O 2546.02 -8.16596 0.923387 0
M  V30 18846 C 2545.86 -9.38437 0.108857 0
M  V30 18847 C 2546.4 -9.08175 -1.28353 0
M  V30 18848 O 2545.34 -8.44229 -1.84713 0
M  V30 18849 C 2547.62 -8.18386 -1.42505 0
M  V30 18850 O 2548.35 -8.3501 -2.60497 0
M  V30 18851 C 2546.95 -6.80225 -1.25468 0
M  V30 18852 O 2547.75 -5.81621 -1.91066 0
M  V30 18853 C 2545.61 -7.02416 -1.9168 0
M  V30 18854 H 2545.64 -6.6888 -2.96621 0
M  V30 18855 H 2546.83 -6.53617 -0.192223 0
M  V30 18856 H 2548.31 -8.36622 -0.589963 0
M  V30 18857 H 2546.62 -10.0291 -1.79807 0
M  V30 18858 H 2546.43 -10.2138 0.558219 0
M  V30 18859 H 2544.8 -9.6579 0.0444202 0
M  V30 18860 H 2547.43 -5.69556 -2.79637 0
M  V30 18861 P 2549.29 -8.4349 -2.47671 0
M  V30 18862 O 2550.71 -8.92593 -2.65 0
M  V30 18863 O 2548.93 -7.7568 -1.19296 0
M  V30 18864 O 2548.97 -7.36886 -3.63805 0
M  V30 18865 C 2548.81 -7.95349 -4.982 0
M  V30 18866 C 2549.35 -6.94612 -5.98974 0
M  V30 18867 O 2548.29 -6.10347 -6.11815 0
M  V30 18868 C 2550.57 -6.11426 -5.62335 0
M  V30 18869 O 2551.31 -5.6162 -6.70584 0
M  V30 18870 C 2549.9 -5.04409 -4.73308 0
M  V30 18871 O 2550.7 -3.85992 -4.75183 0
M  V30 18872 C 2548.56 -4.8728 -5.41006 0
M  V30 18873 H 2548.59 -4.02333 -6.11157 0
M  V30 18874 H 2549.78 -5.39466 -3.69543 0
M  V30 18875 H 2551.26 -6.71916 -5.01943 0
M  V30 18876 H 2549.57 -7.4649 -6.93477 0
M  V30 18877 H 2549.38 -8.89416 -5.05237 0
M  V30 18878 H 2547.75 -8.14876 -5.18409 0
M  V30 18879 H 2550.39 -3.27957 -5.4317 0
M  V30 18880 P 2552.24 -5.75688 -6.64379 0
M  V30 18881 O 2553.67 -6.07627 -7.05504 0
M  V30 18882 O 2551.88 -5.88047 -5.19722 0
M  V30 18883 O 2551.92 -4.2322 -7.04443 0
M  V30 18884 C 2551.76 -3.99743 -8.4911 0
M  V30 18885 C 2552.3 -2.60516 -8.79425 0
M  V30 18886 O 2551.24 -1.82684 -8.4467 0
M  V30 18887 C 2553.52 -2.10343 -8.03628 0
M  V30 18888 O 2554.26 -1.09919 -8.67766 0
M  V30 18889 C 2552.85 -1.68446 -6.70876 0
M  V30 18890 O 2553.65 -0.678137 -6.08433 0
M  V30 18891 C 2551.51 -1.17436 -7.18567 0
M  V30 18892 H 2551.54 -0.0804732 -7.31656 0
M  V30 18893 H 2552.73 -2.54037 -6.02537 0
M  V30 18894 H 2554.21 -2.93881 -7.85526 0
M  V30 18895 H 2552.52 -2.53065 -9.86973 0
M  V30 18896 H 2552.33 -4.75072 -9.05887 0
M  V30 18897 H 2550.7 -4.05244 -8.76668 0
M  V30 18898 H 2553.34 0.177647 -6.34251 0
M  V30 18899 P 2555.19 -1.25109 -8.70152 0
M  V30 18900 O 2556.59 -1.3516 -9.26897 0
M  V30 18901 O 2554.82 -2.18141 -7.59181 0
M  V30 18902 O 2554.87 0.248118 -8.21325 0
M  V30 18903 C 2554.71 1.22779 -9.30434 0
M  V30 18904 C 2555.25 2.56265 -8.80568 0
M  V30 18905 O 2554.19 3.02944 -8.09255 0
M  V30 18906 C 2556.47 2.57523 -7.89775 0
M  V30 18907 O 2557.21 3.7668 -7.89438 0
M  V30 18908 C 2555.8 2.20997 -6.55446 0
M  V30 18909 O 2556.6 2.71851 -5.48419 0
M  V30 18910 C 2554.46 2.89693 -6.67988 0
M  V30 18911 N 2553.42 2.08895 -6.07487 0
M  V30 18912 C 2552.38 2.72974 -5.43836 0
M  V30 18913 O 2552.42 3.97779 -5.34036 0
M  V30 18914 N 2551.37 2.0005 -4.91983 0
M  V30 18915 C 2551.42 0.66501 -5.00098 0
M  V30 18916 N 2550.41 -0.0305439 -4.4919 0
M  V30 18917 C 2552.52 -0.0100979 -5.61099 0
M  V30 18918 C 2553.48 0.74189 -6.14236 0
M  V30 18919 H 2554.49 3.8874 -6.19774 0
M  V30 18920 H 2555.68 1.12673 -6.44018 0
M  V30 18921 H 2557.16 1.783 -8.19631 0
M  V30 18922 H 2555.47 3.21673 -9.66791 0
M  V30 18923 H 2555.28 0.901032 -10.1892 0
M  V30 18924 H 2553.65 1.33036 -9.56493 0
M  V30 18925 H 2552.56 -1.09591 -5.64358 0
M  V30 18926 H 2554.33 0.260263 -6.6359 0
M  V30 18927 H 2549.62 0.460194 -4.04793 0
M  V30 18928 H 2550.42 -1.05716 -4.53953 0
M  V30 18929 H 2556.38 3.62759 -5.33442 0
M  V30 18930 P 2558.14 3.65191 -7.99657 0
M  V30 18931 O 2559.57 3.89332 -8.45794 0
M  V30 18932 O 2557.78 2.28472 -7.50807 0
M  V30 18933 O 2557.82 4.64972 -6.77611 0
M  V30 18934 C 2557.66 6.06319 -7.16352 0
M  V30 18935 C 2558.2 6.91731 -6.02299 0
M  V30 18936 O 2557.15 6.92449 -5.17064 0
M  V30 18937 C 2559.42 6.43627 -5.25174 0
M  V30 18938 O 2560.16 7.43686 -4.60469 0
M  V30 18939 C 2558.75 5.40275 -4.31916 0
M  V30 18940 O 2559.55 5.25279 -3.14438 0
M  V30 18941 C 2557.41 6.04847 -4.05327 0
M  V30 18942 H 2557.45 6.62195 -3.11261 0
M  V30 18943 H 2558.63 4.42556 -4.81383 0
M  V30 18944 H 2560.11 5.92458 -5.93643 0
M  V30 18945 H 2558.42 7.92655 -6.402 0
M  V30 18946 H 2558.23 6.26671 -8.0846 0
M  V30 18947 H 2556.6 6.29101 -7.32804 0
M  V30 18948 H 2559.24 5.84315 -2.47318 0
M  V30 18949 P 2561.09 7.39546 -4.75277 0
M  V30 18950 O 2562.52 7.84798 -5.01039 0
M  V30 18951 O 2560.73 5.9812 -5.08098 0
M  V30 18952 O 2560.77 7.57503 -3.1866 0
M  V30 18953 C 2560.61 8.97357 -2.74833 0
M  V30 18954 C 2561.15 9.07548 -1.32709 0
M  V30 18955 O 2560.1 8.62072 -0.606159 0
M  V30 18956 C 2562.37 8.25383 -0.938334 0
M  V30 18957 O 2563.11 8.74577 0.146954 0
M  V30 18958 C 2561.7 6.8802 -0.712559 0
M  V30 18959 O 2562.5 6.1189 0.194655 0
M  V30 18960 C 2560.36 7.27966 -0.139777 0
M  V30 18961 H 2560.4 7.25354 0.961601 0
M  V30 18962 H 2561.58 6.32557 -1.65702 0
M  V30 18963 H 2563.06 8.19355 -1.79097 0
M  V30 18964 H 2561.37 10.1294 -1.10029 0
M  V30 18965 H 2561.18 9.64276 -3.41316 0
M  V30 18966 H 2559.55 9.25417 -2.76357 0
M  V30 18967 H 2562.19 6.25267 1.07847 0
M  V30 18968 P 2564.05 8.791 2.25043e-11 0
M  V30 18969 O 2565.47 9.31096 0.027933 0
M  V30 18970 O 2563.69 7.77869 -1.04071 0
M  V30 18971 O 2563.72 8.09533 1.41463 0
M  V30 18972 C 2563.56 9.0349 2.53943 0
M  V30 18973 C 2564.1 8.35226 3.79016 0
M  V30 18974 O 2563.05 7.57992 4.15078 0
M  V30 18975 C 2565.32 7.45087 3.67298 0
M  V30 18976 O 2566.06 7.27796 4.85194 0
M  V30 18977 C 2564.65 6.17323 3.12027 0
M  V30 18978 O 2565.45 5.04231 3.47188 0
M  V30 18979 C 2563.31 6.19961 3.81809 0
M  V30 18980 H 2563.35 5.58218 4.73051 0
M  V30 18981 H 2564.53 6.21726 2.02589 0
M  V30 18982 H 2566.01 7.86112 2.9231 0
M  V30 18983 H 2564.32 9.11627 4.55076 0
M  V30 18984 H 2564.13 9.9573 2.34194 0
M  V30 18985 H 2562.5 9.2792 2.67832 0
M  V30 18986 H 2565.14 4.67702 4.28772 0
M  V30 18987 P 2567 7.39546 4.75277 0
M  V30 18988 O 2568.42 7.81777 5.05738 0
M  V30 18989 O 2566.64 7.1065 3.32998 0
M  V30 18990 O 2566.67 6.04542 5.56673 0
M  V30 18991 C 2566.51 6.22772 7.02095 0
M  V30 18992 C 2567.05 4.97725 7.70406 0
M  V30 18993 O 2566 4.13256 7.58987 0
M  V30 18994 C 2568.27 4.28231 7.11815 0
M  V30 18995 O 2569.01 3.49945 8.01648 0
M  V30 18996 C 2567.6 3.5063 5.96244 0
M  V30 18997 O 2568.4 2.36482 5.64681 0
M  V30 18998 C 2566.26 3.15122 6.56374 0
M  V30 18999 H 2566.3 2.13853 6.99751 0
M  V30 19000 H 2567.48 4.13501 5.06559 0
M  V30 19001 H 2568.96 5.03285 6.70911 0
M  V30 19002 H 2567.27 5.20877 8.75697 0
M  V30 19003 H 2567.08 7.11046 7.35349 0
M  V30 19004 H 2565.45 6.35815 7.26986 0
M  V30 19005 H 2568.09 1.61644 6.13565 0
M  V30 19006 P 2569.95 3.65191 7.99657 0
M  V30 19007 O 2571.37 3.8425 8.48115 0
M  V30 19008 O 2569.59 4.17805 6.64342 0
M  V30 19009 O 2569.62 2.07613 7.95143 0
M  V30 19010 C 2569.46 1.44328 9.27336 0
M  V30 19011 C 2570 0.0220036 9.17197 0
M  V30 19012 O 2568.95 -0.626867 8.61923 0
M  V30 19013 C 2571.22 -0.24586 8.30336 0
M  V30 19014 O 2571.96 -1.39011 8.63583 0
M  V30 19015 C 2570.55 -0.273849 6.91158 0
M  V30 19016 O 2571.35 -1.06348 6.02892 0
M  V30 19017 C 2569.22 -0.897649 7.22545 0
M  V30 19018 H 2569.25 -1.9841 7.04286 0
M  V30 19019 H 2570.43 0.739928 6.497 0
M  V30 19020 H 2571.91 0.60668 8.36503 0
M  V30 19021 H 2570.22 -0.352479 10.1829 0
M  V30 19022 H 2570.03 2.00611 10.0304 0
M  V30 19023 H 2568.4 1.41843 9.55327 0
M  V30 19024 H 2571.04 -1.95734 6.03555 0
M  V30 19025 P 2572.9 -1.25109 8.70152 0
M  V30 19026 O 2574.32 -1.35274 9.21221 0
M  V30 19027 O 2572.54 -0.0769065 7.84762 0
M  V30 19028 O 2572.57 -2.55232 7.81161 0
M  V30 19029 C 2572.41 -3.79939 8.58154 0
M  V30 19030 C 2572.95 -4.94023 7.72785 0
M  V30 19031 O 2571.9 -5.18726 6.91205 0
M  V30 19032 C 2574.17 -4.69597 6.85231 0
M  V30 19033 O 2574.91 -5.83832 6.51337 0
M  V30 19034 C 2573.5 -3.96706 5.66633 0
M  V30 19035 O 2574.3 -4.15414 4.49689 0
M  V30 19036 C 2572.17 -4.66153 5.59313 0
M  V30 19037 H 2572.2 -5.47679 4.85214 0
M  V30 19038 H 2573.38 -2.89008 5.86566 0
M  V30 19039 H 2574.87 -4.0121 7.36511 0
M  V30 19040 H 2573.17 -5.80182 8.37584 0
M  V30 19041 H 2572.98 -3.73517 9.52265 0
M  V30 19042 H 2571.35 -3.97163 8.80359 0
M  V30 19043 H 2573.99 -4.90969 4.01921 0
M  V30 19044 P 2575.85 -5.75688 6.64379 0
M  V30 19045 O 2577.27 -6.11849 7.01846 0
M  V30 19046 O 2575.49 -4.30744 6.56026 0
M  V30 19047 O 2575.52 -6.37042 5.19165 0
M  V30 19048 C 2575.36 -7.83578 5.16515 0
M  V30 19049 C 2575.9 -8.33398 3.83019 0
M  V30 19050 O 2574.85 -8.10074 3.01034 0
M  V30 19051 C 2577.12 -7.65514 3.2257 0
M  V30 19052 O 2577.86 -8.4329 2.32297 0
M  V30 19053 C 2576.45 -6.40075 2.62207 0
M  V30 19054 O 2577.25 -5.92589 1.53712 0
M  V30 19055 C 2575.12 -6.9454 2.18503 0
M  V30 19056 H 2575.15 -7.23063 1.12091 0
M  V30 19057 H 2576.33 -5.6025 3.37201 0
M  V30 19058 H 2577.82 -7.35707 4.02681 0
M  V30 19059 H 2576.12 -9.40912 3.9095 0
M  V30 19060 H 2575.93 -8.29056 5.99158 0
M  V30 19061 H 2574.3 -8.10073 5.25882 0
M  V30 19062 H 2576.94 -6.30324 0.726794 0
M  V30 19063 P 2578.8 -8.4349 2.47671 0
M  V30 19064 O 2580.22 -8.94359 2.59696 0
M  V30 19065 O 2578.44 -7.1704 3.19006 0
M  V30 19066 O 2578.48 -8.16596 0.923387 0
M  V30 19067 C 2578.32 -9.38437 0.108857 0
M  V30 19068 C 2578.86 -9.08076 -1.28339 0
M  V30 19069 O 2577.8 -8.44229 -1.84713 0
M  V30 19070 C 2580.07 -8.18386 -1.42505 0
M  V30 19071 O 2580.81 -8.3501 -2.60497 0
M  V30 19072 C 2579.41 -6.80225 -1.25468 0
M  V30 19073 O 2580.2 -5.81526 -1.91035 0
M  V30 19074 C 2578.07 -7.02416 -1.9168 0
M  V30 19075 N 2577.02 -6.31033 -1.20314 0
M  V30 19076 C 2577.09 -6.18781 0.121293 0
M  V30 19077 N 2576.04 -5.49762 0.588272 0
M  V30 19078 C 2575.31 -5.22015 -0.488988 0
M  V30 19079 C 2574 -4.61966 -0.596448 0
M  V30 19080 O 2573.27 -4.19162 0.309059 0
M  V30 19081 N 2573.57 -4.53773 -1.878 0
M  V30 19082 C 2574.32 -4.99623 -2.99082 0
M  V30 19083 N 2573.72 -4.78912 -4.21227 0
M  V30 19084 N 2575.47 -5.59957 -2.91093 0
M  V30 19085 C 2575.93 -5.70225 -1.64218 0
M  V30 19086 H 2578.1 -6.6888 -2.96621 0
M  V30 19087 H 2579.28 -6.53517 -0.192194 0
M  V30 19088 H 2580.77 -8.36563 -0.598329 0
M  V30 19089 H 2579.07 -10.0291 -1.79807 0
M  V30 19090 H 2578.88 -10.2138 0.558219 0
M  V30 19091 H 2577.25 -9.6579 0.0444202 0
M  V30 19092 H 2572.68 -4.12883 -2.05283 0
M  V30 19093 H 2577.88 -6.59596 0.745856 0
M  V30 19094 H 2572.81 -4.31425 -4.2628 0
M  V30 19095 H 2574.19 -5.11219 -5.07148 0
M  V30 19096 H 2579.89 -5.69466 -2.79593 0
M  V30 19097 P 2581.75 -8.4349 -2.47671 0
M  V30 19098 O 2583.17 -8.92593 -2.65 0
M  V30 19099 O 2581.39 -7.7568 -1.19296 0
M  V30 19100 O 2581.43 -7.36886 -3.63805 0
M  V30 19101 C 2581.27 -7.95349 -4.982 0
M  V30 19102 C 2581.81 -6.94612 -5.98974 0
M  V30 19103 O 2580.75 -6.10347 -6.11815 0
M  V30 19104 C 2583.02 -6.11426 -5.62335 0
M  V30 19105 O 2583.76 -5.6162 -6.70584 0
M  V30 19106 C 2582.35 -5.04409 -4.73308 0
M  V30 19107 O 2583.15 -3.85992 -4.75183 0
M  V30 19108 C 2581.02 -4.8728 -5.41006 0
M  V30 19109 H 2581.05 -4.02333 -6.11157 0
M  V30 19110 H 2582.23 -5.39466 -3.69543 0
M  V30 19111 H 2583.72 -6.71916 -5.01943 0
M  V30 19112 H 2582.02 -7.4649 -6.93477 0
M  V30 19113 H 2581.83 -8.89416 -5.05237 0
M  V30 19114 H 2580.2 -8.14876 -5.18409 0
M  V30 19115 H 2582.84 -3.27957 -5.4317 0
M  V30 19116 P 2584.7 -5.75688 -6.64379 0
M  V30 19117 O 2586.12 -6.07627 -7.05504 0
M  V30 19118 O 2584.34 -5.88047 -5.19722 0
M  V30 19119 O 2584.38 -4.2322 -7.04443 0
M  V30 19120 C 2584.22 -3.99743 -8.4911 0
M  V30 19121 C 2584.76 -2.60516 -8.79425 0
M  V30 19122 O 2583.7 -1.82684 -8.4467 0
M  V30 19123 C 2585.97 -2.10343 -8.03628 0
M  V30 19124 O 2586.71 -1.09919 -8.67766 0
M  V30 19125 C 2585.31 -1.68446 -6.70876 0
M  V30 19126 O 2586.1 -0.678137 -6.08433 0
M  V30 19127 C 2583.97 -1.17436 -7.18567 0
M  V30 19128 H 2584 -0.0804732 -7.31656 0
M  V30 19129 H 2585.18 -2.54037 -6.02537 0
M  V30 19130 H 2586.67 -2.93881 -7.85526 0
M  V30 19131 H 2584.97 -2.53065 -9.86973 0
M  V30 19132 H 2584.78 -4.75072 -9.05887 0
M  V30 19133 H 2583.15 -4.05244 -8.76668 0
M  V30 19134 H 2585.79 0.177647 -6.34251 0
M  V30 19135 P 2587.65 -1.25109 -8.70152 0
M  V30 19136 O 2589.07 -1.29744 -9.22016 0
M  V30 19137 O 2587.29 -2.13714 -7.55141 0
M  V30 19138 O 2587.33 0.248149 -8.21425 0
M  V30 19139 C 2587.17 1.22779 -9.30434 0
M  V30 19140 C 2587.71 2.56293 -8.80664 0
M  V30 19141 O 2586.65 3.02979 -8.09349 0
M  V30 19142 C 2588.92 2.57523 -7.89775 0
M  V30 19143 O 2589.66 3.7668 -7.89438 0
M  V30 19144 C 2588.26 2.20997 -6.55446 0
M  V30 19145 O 2589.05 2.71895 -5.48509 0
M  V30 19146 C 2586.92 2.89693 -6.67988 0
M  V30 19147 H 2586.95 3.88793 -6.19859 0
M  V30 19148 H 2588.13 1.12046 -6.44229 0
M  V30 19149 H 2589.62 1.7746 -8.19711 0
M  V30 19150 H 2587.92 3.20706 -9.67112 0
M  V30 19151 H 2587.73 0.901032 -10.1892 0
M  V30 19152 H 2586.1 1.33049 -9.56592 0
M  V30 19153 H 2588.74 3.57847 -5.23962 0
M  V30 19154 P 2590.6 3.65191 -7.99657 0
M  V30 19155 O 2592.02 3.89332 -8.45794 0
M  V30 19156 O 2590.24 2.28472 -7.50807 0
M  V30 19157 O 2590.28 4.64972 -6.77611 0
M  V30 19158 C 2590.12 6.06319 -7.16352 0
M  V30 19159 C 2590.66 6.91731 -6.02299 0
M  V30 19160 O 2589.6 6.92449 -5.17064 0
M  V30 19161 C 2591.88 6.43627 -5.25174 0
M  V30 19162 O 2592.61 7.43686 -4.60469 0
M  V30 19163 C 2591.21 5.40275 -4.31916 0
M  V30 19164 O 2592.01 5.25279 -3.14438 0
M  V30 19165 C 2589.87 6.04847 -4.05327 0
M  V30 19166 H 2589.9 6.62195 -3.11261 0
M  V30 19167 H 2591.08 4.42556 -4.81383 0
M  V30 19168 H 2592.57 5.92458 -5.93643 0
M  V30 19169 H 2590.87 7.92655 -6.402 0
M  V30 19170 H 2590.68 6.26671 -8.0846 0
M  V30 19171 H 2589.05 6.29101 -7.32804 0
M  V30 19172 H 2591.69 5.84315 -2.47318 0
M  V30 19173 P 2593.55 7.39546 -4.75277 0
M  V30 19174 O 2594.97 7.84798 -5.01039 0
M  V30 19175 O 2593.19 5.9812 -5.08098 0
M  V30 19176 O 2593.23 7.57503 -3.1866 0
M  V30 19177 C 2593.07 8.97357 -2.74833 0
M  V30 19178 C 2593.61 9.07548 -1.32709 0
M  V30 19179 O 2592.55 8.62072 -0.606159 0
M  V30 19180 C 2594.83 8.25383 -0.938334 0
M  V30 19181 O 2595.56 8.74577 0.146954 0
M  V30 19182 C 2594.16 6.8802 -0.712559 0
M  V30 19183 O 2594.96 6.1189 0.194655 0
M  V30 19184 C 2592.82 7.27966 -0.139777 0
M  V30 19185 H 2592.85 7.25354 0.961601 0
M  V30 19186 H 2594.04 6.32557 -1.65702 0
M  V30 19187 H 2595.52 8.19355 -1.79097 0
M  V30 19188 H 2593.83 10.1294 -1.10029 0
M  V30 19189 H 2593.64 9.64276 -3.41316 0
M  V30 19190 H 2592.01 9.25417 -2.76357 0
M  V30 19191 H 2594.64 6.25267 1.07847 0
M  V30 19192 P 2596.5 8.791 2.28144e-11 0
M  V30 19193 O 2597.92 9.31096 0.027933 0
M  V30 19194 O 2596.14 7.77869 -1.04071 0
M  V30 19195 O 2596.18 8.09533 1.41463 0
M  V30 19196 C 2596.02 9.0349 2.53943 0
M  V30 19197 C 2596.56 8.35226 3.79016 0
M  V30 19198 O 2595.5 7.57992 4.15078 0
M  V30 19199 C 2597.78 7.45087 3.67298 0
M  V30 19200 O 2598.51 7.27796 4.85194 0
M  V30 19201 C 2597.11 6.17323 3.12027 0
M  V30 19202 O 2597.91 5.04231 3.47188 0
M  V30 19203 C 2595.77 6.19961 3.81809 0
M  V30 19204 H 2595.8 5.58218 4.73051 0
M  V30 19205 H 2596.99 6.21726 2.02589 0
M  V30 19206 H 2598.47 7.86112 2.9231 0
M  V30 19207 H 2596.78 9.11627 4.55076 0
M  V30 19208 H 2596.59 9.9573 2.34194 0
M  V30 19209 H 2594.96 9.2792 2.67832 0
M  V30 19210 H 2597.59 4.67702 4.28772 0
M  V30 19211 P 2599.45 7.39546 4.75277 0
M  V30 19212 O 2600.87 7.81777 5.05738 0
M  V30 19213 O 2599.09 7.1065 3.32998 0
M  V30 19214 O 2599.13 6.04542 5.56673 0
M  V30 19215 C 2598.97 6.22772 7.02095 0
M  V30 19216 C 2599.51 4.97725 7.70406 0
M  V30 19217 O 2598.45 4.13256 7.58987 0
M  V30 19218 C 2600.73 4.28231 7.11815 0
M  V30 19219 O 2601.47 3.49945 8.01648 0
M  V30 19220 C 2600.06 3.5063 5.96244 0
M  V30 19221 O 2600.86 2.36482 5.64681 0
M  V30 19222 C 2598.72 3.15122 6.56374 0
M  V30 19223 H 2598.75 2.13853 6.99751 0
M  V30 19224 H 2599.94 4.13501 5.06559 0
M  V30 19225 H 2601.42 5.03285 6.70911 0
M  V30 19226 H 2599.73 5.20877 8.75697 0
M  V30 19227 H 2599.54 7.11046 7.35349 0
M  V30 19228 H 2597.91 6.35815 7.26986 0
M  V30 19229 H 2600.55 1.61644 6.13565 0
M  V30 19230 P 2602.4 3.65191 7.99657 0
M  V30 19231 O 2603.82 3.84292 8.48206 0
M  V30 19232 O 2602.04 4.17805 6.64342 0
M  V30 19233 O 2602.08 2.07613 7.95143 0
M  V30 19234 C 2601.92 1.44344 9.27435 0
M  V30 19235 C 2602.46 0.0220036 9.17197 0
M  V30 19236 O 2601.4 -0.626794 8.61824 0
M  V30 19237 C 2603.68 -0.24586 8.30336 0
M  V30 19238 O 2604.42 -1.39011 8.63583 0
M  V30 19239 C 2603.01 -0.273849 6.91158 0
M  V30 19240 O 2603.81 -1.05728 6.029 0
M  V30 19241 C 2601.67 -0.897649 7.22545 0
M  V30 19242 N 2600.63 -0.292839 6.41732 0
M  V30 19243 C 2600.8 0.950603 5.91308 0
M  V30 19244 N 2599.77 1.37732 5.21105 0
M  V30 19245 C 2598.89 0.318109 5.26039 0
M  V30 19246 C 2597.62 0.146766 4.6727 0
M  V30 19247 N 2597.02 1.08519 3.89983 0
M  V30 19248 N 2597.05 -1.06525 4.95887 0
M  V30 19249 C 2597.66 -2.0378 5.71347 0
M  V30 19250 N 2598.83 -1.92445 6.27451 0
M  V30 19251 C 2599.41 -0.715382 6.00353 0
M  V30 19252 H 2601.7 -1.98383 7.04189 0
M  V30 19253 H 2602.89 0.733318 6.49674 0
M  V30 19254 H 2604.37 0.60668 8.36503 0
M  V30 19255 H 2602.68 -0.362662 10.1825 0
M  V30 19256 H 2602.49 2.00611 10.0304 0
M  V30 19257 H 2600.86 1.41843 9.55327 0
M  V30 19258 H 2597.12 -2.97041 5.85344 0
M  V30 19259 H 2601.7 1.54076 6.07465 0
M  V30 19260 H 2596.09 0.901517 3.49562 0
M  V30 19261 H 2597.49 1.97957 3.71669 0
M  V30 19262 H 2603.5 -1.95704 6.0346 0
M  V30 19263 P 2605.35 -1.25109 8.70152 0
M  V30 19264 O 2606.78 -1.35274 9.21221 0
M  V30 19265 O 2604.99 -0.0769065 7.84762 0
M  V30 19266 O 2605.03 -2.55232 7.81161 0
M  V30 19267 C 2604.87 -3.79939 8.58154 0
M  V30 19268 C 2605.41 -4.94023 7.72785 0
M  V30 19269 O 2604.35 -5.18726 6.91205 0
M  V30 19270 C 2606.63 -4.69597 6.85231 0
M  V30 19271 O 2607.37 -5.83832 6.51337 0
M  V30 19272 C 2605.96 -3.96706 5.66633 0
M  V30 19273 O 2606.76 -4.15414 4.49689 0
M  V30 19274 C 2604.62 -4.66153 5.59313 0
M  V30 19275 H 2604.65 -5.47679 4.85214 0
M  V30 19276 H 2605.84 -2.89008 5.86566 0
M  V30 19277 H 2607.32 -4.0121 7.36511 0
M  V30 19278 H 2605.63 -5.80182 8.37584 0
M  V30 19279 H 2605.44 -3.73517 9.52265 0
M  V30 19280 H 2603.81 -3.97163 8.80359 0
M  V30 19281 H 2606.45 -4.90969 4.01921 0
M  V30 19282 P 2608.3 -5.75688 6.64379 0
M  V30 19283 O 2609.73 -6.11849 7.01846 0
M  V30 19284 O 2607.94 -4.30744 6.56026 0
M  V30 19285 O 2607.98 -6.37042 5.19165 0
M  V30 19286 C 2607.82 -7.83578 5.16515 0
M  V30 19287 C 2608.36 -8.33398 3.83019 0
M  V30 19288 O 2607.3 -8.10074 3.01034 0
M  V30 19289 C 2609.58 -7.65514 3.2257 0
M  V30 19290 O 2610.32 -8.4329 2.32297 0
M  V30 19291 C 2608.91 -6.40075 2.62207 0
M  V30 19292 O 2609.71 -5.92589 1.53712 0
M  V30 19293 C 2607.57 -6.9454 2.18503 0
M  V30 19294 H 2607.6 -7.23063 1.12091 0
M  V30 19295 H 2608.79 -5.6025 3.37201 0
M  V30 19296 H 2610.27 -7.35707 4.02681 0
M  V30 19297 H 2608.58 -9.40912 3.9095 0
M  V30 19298 H 2608.39 -8.29056 5.99158 0
M  V30 19299 H 2606.76 -8.10073 5.25882 0
M  V30 19300 H 2609.4 -6.30324 0.726794 0
M  V30 19301 P 2611.25 -8.4349 2.47671 0
M  V30 19302 O 2612.68 -8.94167 2.5964 0
M  V30 19303 O 2610.89 -7.1704 3.19006 0
M  V30 19304 O 2610.93 -8.16596 0.923387 0
M  V30 19305 C 2610.77 -9.38437 0.108857 0
M  V30 19306 C 2611.31 -9.08175 -1.28353 0
M  V30 19307 O 2610.26 -8.44229 -1.84713 0
M  V30 19308 C 2612.53 -8.18386 -1.42505 0
M  V30 19309 O 2613.27 -8.3501 -2.60497 0
M  V30 19310 C 2611.86 -6.80225 -1.25468 0
M  V30 19311 O 2612.66 -5.81621 -1.91066 0
M  V30 19312 C 2610.52 -7.02416 -1.9168 0
M  V30 19313 H 2610.56 -6.6888 -2.96621 0
M  V30 19314 H 2611.74 -6.53617 -0.192223 0
M  V30 19315 H 2613.22 -8.36622 -0.589963 0
M  V30 19316 H 2611.53 -10.0291 -1.79807 0
M  V30 19317 H 2611.34 -10.2138 0.558219 0
M  V30 19318 H 2609.71 -9.6579 0.0444202 0
M  V30 19319 H 2612.35 -5.69556 -2.79637 0
M  V30 19320 P 2614.21 -8.4349 -2.47671 0
M  V30 19321 O 2615.63 -8.92593 -2.65 0
M  V30 19322 O 2613.85 -7.7568 -1.19296 0
M  V30 19323 O 2613.88 -7.36886 -3.63805 0
M  V30 19324 C 2613.72 -7.95349 -4.982 0
M  V30 19325 C 2614.26 -6.94612 -5.98974 0
M  V30 19326 O 2613.21 -6.10347 -6.11815 0
M  V30 19327 C 2615.48 -6.11426 -5.62335 0
M  V30 19328 O 2616.22 -5.6162 -6.70584 0
M  V30 19329 C 2614.81 -5.04409 -4.73308 0
M  V30 19330 O 2615.61 -3.85992 -4.75183 0
M  V30 19331 C 2613.47 -4.8728 -5.41006 0
M  V30 19332 H 2613.51 -4.02333 -6.11157 0
M  V30 19333 H 2614.69 -5.39466 -3.69543 0
M  V30 19334 H 2616.17 -6.71916 -5.01943 0
M  V30 19335 H 2614.48 -7.4649 -6.93477 0
M  V30 19336 H 2614.29 -8.89416 -5.05237 0
M  V30 19337 H 2612.66 -8.14876 -5.18409 0
M  V30 19338 H 2615.3 -3.27957 -5.4317 0
M  V30 19339 P 2617.16 -5.75688 -6.64379 0
M  V30 19340 O 2618.58 -6.07692 -7.0558 0
M  V30 19341 O 2616.8 -5.88047 -5.19722 0
M  V30 19342 O 2616.83 -4.2322 -7.04443 0
M  V30 19343 C 2616.67 -3.99785 -8.49201 0
M  V30 19344 C 2617.21 -2.60516 -8.79425 0
M  V30 19345 O 2616.16 -1.82663 -8.44573 0
M  V30 19346 C 2618.43 -2.10343 -8.03628 0
M  V30 19347 O 2619.17 -1.09919 -8.67766 0
M  V30 19348 C 2617.76 -1.68446 -6.70876 0
M  V30 19349 O 2618.56 -0.684109 -6.08265 0
M  V30 19350 C 2616.42 -1.17436 -7.18567 0
M  V30 19351 N 2615.38 -1.52699 -6.23988 0
M  V30 19352 C 2615.55 -2.578 -5.40574 0
M  V30 19353 N 2614.52 -2.78966 -4.61193 0
M  V30 19354 C 2613.64 -1.78725 -4.95769 0
M  V30 19355 C 2612.37 -1.45727 -4.44207 0
M  V30 19356 N 2611.77 -2.13994 -3.43613 0
M  V30 19357 N 2611.81 -0.374977 -5.05812 0
M  V30 19358 C 2612.41 0.345585 -6.05615 0
M  V30 19359 N 2613.59 0.0787651 -6.56253 0
M  V30 19360 C 2614.16 -1.00499 -5.96189 0
M  V30 19361 H 2616.46 -0.0804622 -7.31556 0
M  V30 19362 H 2617.64 -2.53396 -6.02698 0
M  V30 19363 H 2619.12 -2.93881 -7.85526 0
M  V30 19364 H 2617.43 -2.52078 -9.87225 0
M  V30 19365 H 2617.24 -4.75072 -9.05887 0
M  V30 19366 H 2615.61 -4.05244 -8.76668 0
M  V30 19367 H 2611.87 1.20098 -6.4532 0
M  V30 19368 H 2616.45 -3.18977 -5.3945 0
M  V30 19369 H 2610.84 -1.84983 -3.10004 0
M  V30 19370 H 2612.25 -2.9465 -3.00843 0
M  V30 19371 H 2618.25 0.177619 -6.34151 0
M  V30 19372 P 2620.11 -1.25109 -8.70152 0
M  V30 19373 O 2621.53 -1.29772 -9.22214 0
M  V30 19374 O 2619.75 -2.13714 -7.55141 0
M  V30 19375 O 2619.78 0.248149 -8.21425 0
M  V30 19376 C 2619.62 1.22779 -9.30434 0
M  V30 19377 C 2620.16 2.56265 -8.80568 0
M  V30 19378 O 2619.11 3.02979 -8.09349 0
M  V30 19379 C 2621.38 2.57523 -7.89775 0
M  V30 19380 O 2622.12 3.7668 -7.89438 0
M  V30 19381 C 2620.71 2.20997 -6.55446 0
M  V30 19382 O 2621.51 2.71851 -5.48419 0
M  V30 19383 C 2619.38 2.89693 -6.67988 0
M  V30 19384 N 2618.33 2.08895 -6.07487 0
M  V30 19385 C 2618.39 0.760559 -6.14209 0
M  V30 19386 N 2617.35 0.200108 -5.52538 0
M  V30 19387 C 2616.62 1.22692 -5.09742 0
M  V30 19388 C 2615.31 1.24782 -4.48775 0
M  V30 19389 O 2614.58 0.290617 -4.19294 0
M  V30 19390 N 2614.88 2.50468 -4.22428 0
M  V30 19391 C 2615.63 3.67142 -4.51974 0
M  V30 19392 N 2615.03 4.85096 -4.14091 0
M  V30 19393 N 2616.78 3.67821 -5.12831 0
M  V30 19394 C 2617.24 2.43698 -5.4105 0
M  V30 19395 H 2619.41 3.88793 -6.19859 0
M  V30 19396 H 2620.59 1.12029 -6.4413 0
M  V30 19397 H 2622.08 1.78279 -8.19533 0
M  V30 19398 H 2620.38 3.20706 -9.67112 0
M  V30 19399 H 2620.19 0.901032 -10.1892 0
M  V30 19400 H 2618.56 1.33049 -9.56592 0
M  V30 19401 H 2613.98 2.61953 -3.79465 0
M  V30 19402 H 2619.19 0.200439 -6.63497 0
M  V30 19403 H 2614.12 4.8334 -3.66367 0
M  V30 19404 H 2615.5 5.7474 -4.33841 0
M  V30 19405 H 2621.2 3.5779 -5.23879 0
M  V30 19406 P 2623.06 3.65191 -7.99657 0
M  V30 19407 O 2624.48 3.89332 -8.45794 0
M  V30 19408 O 2622.7 2.28472 -7.50807 0
M  V30 19409 O 2622.73 4.64972 -6.77611 0
M  V30 19410 C 2622.57 6.06319 -7.16352 0
M  V30 19411 C 2623.11 6.91731 -6.02299 0
M  V30 19412 O 2622.06 6.92449 -5.17064 0
M  V30 19413 C 2624.33 6.43627 -5.25174 0
M  V30 19414 O 2625.07 7.43686 -4.60469 0
M  V30 19415 C 2623.66 5.40275 -4.31916 0
M  V30 19416 O 2624.46 5.25279 -3.14438 0
M  V30 19417 C 2622.33 6.04847 -4.05327 0
M  V30 19418 H 2622.36 6.62195 -3.11261 0
M  V30 19419 H 2623.54 4.42556 -4.81383 0
M  V30 19420 H 2625.02 5.92458 -5.93643 0
M  V30 19421 H 2623.33 7.92655 -6.402 0
M  V30 19422 H 2623.14 6.26671 -8.0846 0
M  V30 19423 H 2621.51 6.29101 -7.32804 0
M  V30 19424 H 2624.15 5.84315 -2.47318 0
M  V30 19425 P 2626.01 7.39546 -4.75277 0
M  V30 19426 O 2627.43 7.84798 -5.01039 0
M  V30 19427 O 2625.65 5.9812 -5.08098 0
M  V30 19428 O 2625.68 7.57503 -3.1866 0
M  V30 19429 C 2625.52 8.97357 -2.74833 0
M  V30 19430 C 2626.06 9.07548 -1.32709 0
M  V30 19431 O 2625.01 8.62072 -0.606159 0
M  V30 19432 C 2627.28 8.25383 -0.938334 0
M  V30 19433 O 2628.02 8.74577 0.146954 0
M  V30 19434 C 2626.61 6.8802 -0.712559 0
M  V30 19435 O 2627.41 6.1189 0.194655 0
M  V30 19436 C 2625.28 7.27966 -0.139777 0
M  V30 19437 H 2625.31 7.25354 0.961601 0
M  V30 19438 H 2626.49 6.32557 -1.65702 0
M  V30 19439 H 2627.98 8.19355 -1.79097 0
M  V30 19440 H 2626.28 10.1294 -1.10029 0
M  V30 19441 H 2626.09 9.64276 -3.41316 0
M  V30 19442 H 2624.46 9.25417 -2.76357 0
M  V30 19443 H 2627.1 6.25267 1.07847 0
M  V30 19444 P 2628.96 8.791 2.31246e-11 0
M  V30 19445 O 2630.38 9.31096 0.027933 0
M  V30 19446 O 2628.6 7.77869 -1.04071 0
M  V30 19447 O 2628.63 8.09533 1.41463 0
M  V30 19448 C 2628.47 9.0349 2.53943 0
M  V30 19449 C 2629.01 8.35226 3.79016 0
M  V30 19450 O 2627.96 7.57992 4.15078 0
M  V30 19451 C 2630.23 7.45087 3.67298 0
M  V30 19452 O 2630.97 7.27796 4.85194 0
M  V30 19453 C 2629.56 6.17323 3.12027 0
M  V30 19454 O 2630.36 5.04231 3.47188 0
M  V30 19455 C 2628.23 6.19961 3.81809 0
M  V30 19456 H 2628.26 5.58218 4.73051 0
M  V30 19457 H 2629.44 6.21726 2.02589 0
M  V30 19458 H 2630.93 7.86112 2.9231 0
M  V30 19459 H 2629.23 9.11627 4.55076 0
M  V30 19460 H 2629.04 9.9573 2.34194 0
M  V30 19461 H 2627.41 9.2792 2.67832 0
M  V30 19462 H 2630.05 4.67702 4.28772 0
M  V30 19463 P 2631.91 7.39546 4.75277 0
M  V30 19464 O 2633.33 7.81777 5.05738 0
M  V30 19465 O 2631.55 7.1065 3.32998 0
M  V30 19466 O 2631.59 6.04542 5.56673 0
M  V30 19467 C 2631.43 6.22772 7.02095 0
M  V30 19468 C 2631.97 4.97725 7.70406 0
M  V30 19469 O 2630.91 4.13256 7.58987 0
M  V30 19470 C 2633.18 4.28231 7.11815 0
M  V30 19471 O 2633.92 3.49945 8.01648 0
M  V30 19472 C 2632.51 3.5063 5.96244 0
M  V30 19473 O 2633.31 2.36482 5.64681 0
M  V30 19474 C 2631.18 3.15122 6.56374 0
M  V30 19475 H 2631.21 2.13853 6.99751 0
M  V30 19476 H 2632.39 4.13501 5.06559 0
M  V30 19477 H 2633.88 5.03285 6.70911 0
M  V30 19478 H 2632.18 5.20877 8.75697 0
M  V30 19479 H 2631.99 7.11046 7.35349 0
M  V30 19480 H 2630.36 6.35815 7.26986 0
M  V30 19481 H 2633 1.61644 6.13565 0
M  V30 19482 P 2634.86 3.65191 7.99657 0
M  V30 19483 O 2636.28 3.8425 8.48115 0
M  V30 19484 O 2634.5 4.17805 6.64342 0
M  V30 19485 O 2634.54 2.07613 7.95143 0
M  V30 19486 C 2634.38 1.44328 9.27336 0
M  V30 19487 C 2634.92 0.0220036 9.17197 0
M  V30 19488 O 2633.86 -0.626867 8.61923 0
M  V30 19489 C 2636.13 -0.24586 8.30336 0
M  V30 19490 O 2636.87 -1.39011 8.63583 0
M  V30 19491 C 2635.47 -0.273849 6.91158 0
M  V30 19492 O 2636.26 -1.06348 6.02892 0
M  V30 19493 C 2634.13 -0.897649 7.22545 0
M  V30 19494 H 2634.16 -1.9841 7.04286 0
M  V30 19495 H 2635.34 0.739928 6.497 0
M  V30 19496 H 2636.83 0.60668 8.36503 0
M  V30 19497 H 2635.13 -0.352479 10.1829 0
M  V30 19498 H 2634.94 2.00611 10.0304 0
M  V30 19499 H 2633.31 1.41843 9.55327 0
M  V30 19500 H 2635.95 -1.95734 6.03555 0
M  V30 19501 P 2637.81 -1.25109 8.70152 0
M  V30 19502 O 2639.23 -1.35274 9.21221 0
M  V30 19503 O 2637.45 -0.0769065 7.84762 0
M  V30 19504 O 2637.49 -2.55232 7.81161 0
M  V30 19505 C 2637.33 -3.79939 8.58154 0
M  V30 19506 C 2637.87 -4.94023 7.72785 0
M  V30 19507 O 2636.81 -5.18726 6.91205 0
M  V30 19508 C 2639.08 -4.69597 6.85231 0
M  V30 19509 O 2639.82 -5.83832 6.51337 0
M  V30 19510 C 2638.42 -3.96706 5.66633 0
M  V30 19511 O 2639.21 -4.15414 4.49689 0
M  V30 19512 C 2637.08 -4.66153 5.59313 0
M  V30 19513 H 2637.11 -5.47679 4.85214 0
M  V30 19514 H 2638.29 -2.89008 5.86566 0
M  V30 19515 H 2639.78 -4.0121 7.36511 0
M  V30 19516 H 2638.08 -5.80182 8.37584 0
M  V30 19517 H 2637.89 -3.73517 9.52265 0
M  V30 19518 H 2636.26 -3.97163 8.80359 0
M  V30 19519 H 2638.9 -4.90969 4.01921 0
M  V30 19520 P 2640.76 -5.75688 6.64379 0
M  V30 19521 O 2642.18 -6.11849 7.01846 0
M  V30 19522 O 2640.4 -4.30744 6.56026 0
M  V30 19523 O 2640.44 -6.37042 5.19165 0
M  V30 19524 C 2640.28 -7.83578 5.16515 0
M  V30 19525 C 2640.82 -8.33398 3.83019 0
M  V30 19526 O 2639.76 -8.10074 3.01034 0
M  V30 19527 C 2642.04 -7.65514 3.2257 0
M  V30 19528 O 2642.77 -8.4329 2.32297 0
M  V30 19529 C 2641.37 -6.40075 2.62207 0
M  V30 19530 O 2642.17 -5.92589 1.53712 0
M  V30 19531 C 2640.03 -6.9454 2.18503 0
M  V30 19532 H 2640.06 -7.23063 1.12091 0
M  V30 19533 H 2641.24 -5.6025 3.37201 0
M  V30 19534 H 2642.73 -7.35707 4.02681 0
M  V30 19535 H 2641.03 -9.40912 3.9095 0
M  V30 19536 H 2640.84 -8.29056 5.99158 0
M  V30 19537 H 2639.21 -8.10073 5.25882 0
M  V30 19538 H 2641.85 -6.30324 0.726794 0
M  V30 19539 P 2643.71 -8.4349 2.47671 0
M  V30 19540 O 2645.13 -8.94167 2.5964 0
M  V30 19541 O 2643.35 -7.1704 3.19006 0
M  V30 19542 O 2643.39 -8.16596 0.923387 0
M  V30 19543 C 2643.23 -9.38437 0.108857 0
M  V30 19544 C 2643.77 -9.08175 -1.28353 0
M  V30 19545 O 2642.71 -8.44229 -1.84713 0
M  V30 19546 C 2644.99 -8.18386 -1.42505 0
M  V30 19547 O 2645.72 -8.3501 -2.60497 0
M  V30 19548 C 2644.32 -6.80225 -1.25468 0
M  V30 19549 O 2645.12 -5.81621 -1.91066 0
M  V30 19550 C 2642.98 -7.02416 -1.9168 0
M  V30 19551 H 2643.01 -6.6888 -2.96621 0
M  V30 19552 H 2644.19 -6.53617 -0.192223 0
M  V30 19553 H 2645.68 -8.36622 -0.589963 0
M  V30 19554 H 2643.98 -10.0291 -1.79807 0
M  V30 19555 H 2643.79 -10.2138 0.558219 0
M  V30 19556 H 2642.16 -9.6579 0.0444202 0
M  V30 19557 H 2644.8 -5.69556 -2.79637 0
M  V30 19558 P 2646.66 -8.4349 -2.47671 0
M  V30 19559 O 2648.08 -8.92593 -2.65 0
M  V30 19560 O 2646.3 -7.7568 -1.19296 0
M  V30 19561 O 2646.34 -7.36886 -3.63805 0
M  V30 19562 C 2646.18 -7.95349 -4.982 0
M  V30 19563 C 2646.72 -6.94612 -5.98974 0
M  V30 19564 O 2645.66 -6.10347 -6.11815 0
M  V30 19565 C 2647.94 -6.11426 -5.62335 0
M  V30 19566 O 2648.67 -5.6162 -6.70584 0
M  V30 19567 C 2647.27 -5.04409 -4.73308 0
M  V30 19568 O 2648.07 -3.85992 -4.75183 0
M  V30 19569 C 2645.93 -4.8728 -5.41006 0
M  V30 19570 H 2645.96 -4.02333 -6.11157 0
M  V30 19571 H 2647.15 -5.39466 -3.69543 0
M  V30 19572 H 2648.63 -6.71916 -5.01943 0
M  V30 19573 H 2646.94 -7.4649 -6.93477 0
M  V30 19574 H 2646.75 -8.89416 -5.05237 0
M  V30 19575 H 2645.12 -8.14876 -5.18409 0
M  V30 19576 H 2647.75 -3.27957 -5.4317 0
M  V30 19577 P 2649.61 -5.75688 -6.64379 0
M  V30 19578 O 2651.03 -6.07627 -7.05504 0
M  V30 19579 O 2649.25 -5.88047 -5.19722 0
M  V30 19580 O 2649.29 -4.2322 -7.04443 0
M  V30 19581 C 2649.13 -3.99743 -8.4911 0
M  V30 19582 C 2649.67 -2.60516 -8.79425 0
M  V30 19583 O 2648.61 -1.82684 -8.4467 0
M  V30 19584 C 2650.89 -2.10343 -8.03628 0
M  V30 19585 O 2651.62 -1.09919 -8.67766 0
M  V30 19586 C 2650.22 -1.68446 -6.70876 0
M  V30 19587 O 2651.02 -0.678137 -6.08433 0
M  V30 19588 C 2648.88 -1.17436 -7.18567 0
M  V30 19589 H 2648.91 -0.0804732 -7.31656 0
M  V30 19590 H 2650.1 -2.54037 -6.02537 0
M  V30 19591 H 2651.58 -2.93881 -7.85526 0
M  V30 19592 H 2649.89 -2.53065 -9.86973 0
M  V30 19593 H 2649.7 -4.75072 -9.05887 0
M  V30 19594 H 2648.07 -4.05244 -8.76668 0
M  V30 19595 H 2650.7 0.177647 -6.34251 0
M  V30 19596 P 2652.56 -1.25109 -8.70152 0
M  V30 19597 O 2653.98 -1.29744 -9.22016 0
M  V30 19598 O 2652.2 -2.13714 -7.55141 0
M  V30 19599 O 2652.24 0.248149 -8.21425 0
M  V30 19600 C 2652.08 1.22779 -9.30434 0
M  V30 19601 C 2652.62 2.56293 -8.80664 0
M  V30 19602 O 2651.56 3.02979 -8.09349 0
M  V30 19603 C 2653.84 2.57523 -7.89775 0
M  V30 19604 O 2654.58 3.7668 -7.89438 0
M  V30 19605 C 2653.17 2.20997 -6.55446 0
M  V30 19606 O 2653.97 2.71895 -5.48509 0
M  V30 19607 C 2651.83 2.89693 -6.67988 0
M  V30 19608 H 2651.86 3.88793 -6.19859 0
M  V30 19609 H 2653.05 1.12046 -6.44229 0
M  V30 19610 H 2654.53 1.7746 -8.19711 0
M  V30 19611 H 2652.84 3.20706 -9.67112 0
M  V30 19612 H 2652.65 0.901032 -10.1892 0
M  V30 19613 H 2651.02 1.33049 -9.56592 0
M  V30 19614 H 2653.66 3.57847 -5.23962 0
M  V30 19615 P 2655.51 3.65191 -7.99657 0
M  V30 19616 O 2656.91 3.87414 -8.52829 0
M  V30 19617 O 2655.13 2.26932 -7.566 0
M  V30 19618 O 2655.19 4.64915 -6.77529 0
M  V30 19619 C 2655.03 6.06319 -7.16352 0
M  V30 19620 C 2655.57 6.91655 -6.02234 0
M  V30 19621 O 2654.51 6.92369 -5.17005 0
M  V30 19622 C 2656.79 6.43627 -5.25174 0
M  V30 19623 O 2657.53 7.43686 -4.60469 0
M  V30 19624 C 2656.12 5.40275 -4.31916 0
M  V30 19625 O 2656.92 5.25193 -3.14386 0
M  V30 19626 C 2654.78 6.04847 -4.05327 0
M  V30 19627 N 2653.74 5.04166 -3.98114 0
M  V30 19628 C 2652.7 5.2366 -3.09923 0
M  V30 19629 O 2652.74 6.23355 -2.34204 0
M  V30 19630 N 2651.69 4.34279 -3.05727 0
M  V30 19631 C 2651.74 3.26317 -3.84756 0
M  V30 19632 C 2652.84 3.02504 -4.72573 0
M  V30 19633 C 2653.8 3.94493 -4.76618 0
M  V30 19634 H 2654.81 6.62104 -3.11218 0
M  V30 19635 H 2656 4.42969 -4.80867 0
M  V30 19636 H 2657.48 5.93122 -5.93121 0
M  V30 19637 H 2655.79 7.93295 -6.39407 0
M  V30 19638 H 2655.6 6.26671 -8.0846 0
M  V30 19639 H 2653.97 6.29036 -7.32728 0
M  V30 19640 H 2652.88 2.12921 -5.34017 0
M  V30 19641 H 2654.65 3.80658 -5.44176 0
M  V30 19642 H 2656.7 5.93572 -2.52637 0
M  V30 19643 P 2658.46 7.39546 -4.75277 0
M  V30 19644 O 2659.89 7.84798 -5.01039 0
M  V30 19645 O 2658.1 5.9812 -5.08098 0
M  V30 19646 O 2658.14 7.57503 -3.1866 0
M  V30 19647 C 2657.98 8.97357 -2.74833 0
M  V30 19648 C 2658.52 9.07548 -1.32709 0
M  V30 19649 O 2657.46 8.62072 -0.606159 0
M  V30 19650 C 2659.74 8.25383 -0.938334 0
M  V30 19651 O 2660.48 8.74577 0.146954 0
M  V30 19652 C 2659.07 6.8802 -0.712559 0
M  V30 19653 O 2659.87 6.1189 0.194655 0
M  V30 19654 C 2657.73 7.27966 -0.139777 0
M  V30 19655 H 2657.76 7.25354 0.961601 0
M  V30 19656 H 2658.95 6.32557 -1.65702 0
M  V30 19657 H 2660.43 8.19355 -1.79097 0
M  V30 19658 H 2658.74 10.1294 -1.10029 0
M  V30 19659 H 2658.55 9.64276 -3.41316 0
M  V30 19660 H 2656.92 9.25417 -2.76357 0
M  V30 19661 H 2659.56 6.25267 1.07847 0
M  V30 19662 P 2661.41 8.791 2.04365e-11 0
M  V30 19663 O 2662.84 9.31096 0.027933 0
M  V30 19664 O 2661.05 7.77869 -1.04071 0
M  V30 19665 O 2661.09 8.09533 1.41463 0
M  V30 19666 C 2660.93 9.0349 2.53943 0
M  V30 19667 C 2661.47 8.35226 3.79016 0
M  V30 19668 O 2660.42 7.57992 4.15078 0
M  V30 19669 C 2662.69 7.45087 3.67298 0
M  V30 19670 O 2663.43 7.27796 4.85194 0
M  V30 19671 C 2662.02 6.17323 3.12027 0
M  V30 19672 O 2662.82 5.04231 3.47188 0
M  V30 19673 C 2660.68 6.19961 3.81809 0
M  V30 19674 H 2660.72 5.58218 4.73051 0
M  V30 19675 H 2661.9 6.21726 2.02589 0
M  V30 19676 H 2663.38 7.86112 2.9231 0
M  V30 19677 H 2661.69 9.11627 4.55076 0
M  V30 19678 H 2661.5 9.9573 2.34194 0
M  V30 19679 H 2659.87 9.2792 2.67832 0
M  V30 19680 H 2662.51 4.67702 4.28772 0
M  V30 19681 P 2664.36 7.39546 4.75277 0
M  V30 19682 O 2665.79 7.81777 5.05738 0
M  V30 19683 O 2664 7.1065 3.32998 0
M  V30 19684 O 2664.04 6.04542 5.56673 0
M  V30 19685 C 2663.88 6.22772 7.02095 0
M  V30 19686 C 2664.42 4.97725 7.70406 0
M  V30 19687 O 2663.37 4.13256 7.58987 0
M  V30 19688 C 2665.64 4.28231 7.11815 0
M  V30 19689 O 2666.38 3.49945 8.01648 0
M  V30 19690 C 2664.97 3.5063 5.96244 0
M  V30 19691 O 2665.77 2.36482 5.64681 0
M  V30 19692 C 2663.63 3.15122 6.56374 0
M  V30 19693 H 2663.67 2.13853 6.99751 0
M  V30 19694 H 2664.85 4.13501 5.06559 0
M  V30 19695 H 2666.33 5.03285 6.70911 0
M  V30 19696 H 2664.64 5.20877 8.75697 0
M  V30 19697 H 2664.45 7.11046 7.35349 0
M  V30 19698 H 2662.82 6.35815 7.26986 0
M  V30 19699 H 2665.46 1.61644 6.13565 0
M  V30 19700 P 2667.32 3.65191 7.99657 0
M  V30 19701 O 2668.74 3.8425 8.48115 0
M  V30 19702 O 2666.96 4.17805 6.64342 0
M  V30 19703 O 2666.99 2.07613 7.95143 0
M  V30 19704 C 2666.83 1.44328 9.27336 0
M  V30 19705 C 2667.37 0.0220036 9.17197 0
M  V30 19706 O 2666.32 -0.626867 8.61923 0
M  V30 19707 C 2668.59 -0.24586 8.30336 0
M  V30 19708 O 2669.33 -1.39011 8.63583 0
M  V30 19709 C 2667.92 -0.273849 6.91158 0
M  V30 19710 O 2668.72 -1.06348 6.02892 0
M  V30 19711 C 2666.58 -0.897649 7.22545 0
M  V30 19712 H 2666.62 -1.9841 7.04286 0
M  V30 19713 H 2667.8 0.739928 6.497 0
M  V30 19714 H 2669.28 0.60668 8.36503 0
M  V30 19715 H 2667.59 -0.352479 10.1829 0
M  V30 19716 H 2667.4 2.00611 10.0304 0
M  V30 19717 H 2665.77 1.41843 9.55327 0
M  V30 19718 H 2668.41 -1.95734 6.03555 0
M  V30 19719 P 2670.27 -1.25109 8.70152 0
M  V30 19720 O 2671.69 -1.35274 9.21221 0
M  V30 19721 O 2669.91 -0.0769065 7.84762 0
M  V30 19722 O 2669.94 -2.55232 7.81161 0
M  V30 19723 C 2669.78 -3.79939 8.58154 0
M  V30 19724 C 2670.32 -4.94023 7.72785 0
M  V30 19725 O 2669.27 -5.18726 6.91205 0
M  V30 19726 C 2671.54 -4.69597 6.85231 0
M  V30 19727 O 2672.28 -5.83832 6.51337 0
M  V30 19728 C 2670.87 -3.96706 5.66633 0
M  V30 19729 O 2671.67 -4.15414 4.49689 0
M  V30 19730 C 2669.53 -4.66153 5.59313 0
M  V30 19731 H 2669.57 -5.47679 4.85214 0
M  V30 19732 H 2670.75 -2.89008 5.86566 0
M  V30 19733 H 2672.23 -4.0121 7.36511 0
M  V30 19734 H 2670.54 -5.80182 8.37584 0
M  V30 19735 H 2670.35 -3.73517 9.52265 0
M  V30 19736 H 2668.72 -3.97163 8.80359 0
M  V30 19737 H 2671.36 -4.90969 4.01921 0
M  V30 19738 P 2673.22 -5.75688 6.64379 0
M  V30 19739 O 2674.64 -6.11849 7.01846 0
M  V30 19740 O 2672.86 -4.30744 6.56026 0
M  V30 19741 O 2672.89 -6.37042 5.19165 0
M  V30 19742 C 2672.73 -7.83578 5.16515 0
M  V30 19743 C 2673.27 -8.33398 3.83019 0
M  V30 19744 O 2672.22 -8.10074 3.01034 0
M  V30 19745 C 2674.49 -7.65514 3.2257 0
M  V30 19746 O 2675.23 -8.4329 2.32297 0
M  V30 19747 C 2673.82 -6.40075 2.62207 0
M  V30 19748 O 2674.62 -5.92589 1.53712 0
M  V30 19749 C 2672.49 -6.9454 2.18503 0
M  V30 19750 H 2672.52 -7.23063 1.12091 0
M  V30 19751 H 2673.7 -5.6025 3.37201 0
M  V30 19752 H 2675.18 -7.35707 4.02681 0
M  V30 19753 H 2673.49 -9.40912 3.9095 0
M  V30 19754 H 2673.3 -8.29056 5.99158 0
M  V30 19755 H 2671.67 -8.10073 5.25882 0
M  V30 19756 H 2674.31 -6.30324 0.726794 0
M  V30 19757 P 2676.17 -8.4349 2.47671 0
M  V30 19758 O 2677.59 -8.94167 2.5964 0
M  V30 19759 O 2675.81 -7.1704 3.19006 0
M  V30 19760 O 2675.84 -8.16596 0.923387 0
M  V30 19761 C 2675.68 -9.38437 0.108857 0
M  V30 19762 C 2676.22 -9.08175 -1.28353 0
M  V30 19763 O 2675.17 -8.44229 -1.84713 0
M  V30 19764 C 2677.44 -8.18386 -1.42505 0
M  V30 19765 O 2678.18 -8.3501 -2.60497 0
M  V30 19766 C 2676.77 -6.80225 -1.25468 0
M  V30 19767 O 2677.57 -5.81621 -1.91066 0
M  V30 19768 C 2675.44 -7.02416 -1.9168 0
M  V30 19769 H 2675.47 -6.6888 -2.96621 0
M  V30 19770 H 2676.65 -6.53617 -0.192223 0
M  V30 19771 H 2678.13 -8.36622 -0.589963 0
M  V30 19772 H 2676.44 -10.0291 -1.79807 0
M  V30 19773 H 2676.25 -10.2138 0.558219 0
M  V30 19774 H 2674.62 -9.6579 0.0444202 0
M  V30 19775 H 2677.26 -5.69556 -2.79637 0
M  V30 19776 P 2679.12 -8.4349 -2.47671 0
M  V30 19777 O 2680.54 -8.92593 -2.65 0
M  V30 19778 O 2678.76 -7.7568 -1.19296 0
M  V30 19779 O 2678.79 -7.36886 -3.63805 0
M  V30 19780 C 2678.63 -7.95349 -4.982 0
M  V30 19781 C 2679.17 -6.94612 -5.98974 0
M  V30 19782 O 2678.12 -6.10347 -6.11815 0
M  V30 19783 C 2680.39 -6.11426 -5.62335 0
M  V30 19784 O 2681.13 -5.6162 -6.70584 0
M  V30 19785 C 2679.72 -5.04409 -4.73308 0
M  V30 19786 O 2680.52 -3.85992 -4.75183 0
M  V30 19787 C 2678.39 -4.8728 -5.41006 0
M  V30 19788 H 2678.42 -4.02333 -6.11157 0
M  V30 19789 H 2679.6 -5.39466 -3.69543 0
M  V30 19790 H 2681.09 -6.71916 -5.01943 0
M  V30 19791 H 2679.39 -7.4649 -6.93477 0
M  V30 19792 H 2679.2 -8.89416 -5.05237 0
M  V30 19793 H 2677.57 -8.14876 -5.18409 0
M  V30 19794 H 2680.21 -3.27957 -5.4317 0
M  V30 19795 P 2682.07 -5.75688 -6.64379 0
M  V30 19796 O 2683.49 -6.07692 -7.0558 0
M  V30 19797 O 2681.71 -5.88047 -5.19722 0
M  V30 19798 O 2681.75 -4.2322 -7.04443 0
M  V30 19799 C 2681.58 -3.99785 -8.49201 0
M  V30 19800 C 2682.13 -2.60516 -8.79425 0
M  V30 19801 O 2681.07 -1.82663 -8.44573 0
M  V30 19802 C 2683.34 -2.10343 -8.03628 0
M  V30 19803 O 2684.08 -1.09919 -8.67766 0
M  V30 19804 C 2682.68 -1.68446 -6.70876 0
M  V30 19805 O 2683.47 -0.684109 -6.08265 0
M  V30 19806 C 2681.34 -1.17436 -7.18567 0
M  V30 19807 N 2680.29 -1.52699 -6.23988 0
M  V30 19808 C 2680.46 -2.578 -5.40574 0
M  V30 19809 N 2679.44 -2.78966 -4.61193 0
M  V30 19810 C 2678.55 -1.78725 -4.95769 0
M  V30 19811 C 2677.28 -1.45727 -4.44207 0
M  V30 19812 N 2676.72 -0.374977 -5.05812 0
M  V30 19813 C 2677.32 0.345585 -6.05615 0
M  V30 19814 N 2678.5 0.0787651 -6.56253 0
M  V30 19815 C 2679.07 -1.00499 -5.96189 0
M  V30 19816 H 2682.55 -2.53396 -6.02698 0
M  V30 19817 H 2684.04 -2.93881 -7.85526 0
M  V30 19818 H 2682.34 -2.52078 -9.87225 0
M  V30 19819 H 2682.15 -4.75072 -9.05887 0
M  V30 19820 H 2680.52 -4.05244 -8.76668 0
M  V30 19821 H 2681.36 -3.18977 -5.3945 0
M  V30 19822 H 2683.16 0.177619 -6.34151 0
M  V30 19823 P 2685.02 -1.25109 -8.70152 0
M  V30 19824 O 2686.44 -1.29744 -9.22016 0
M  V30 19825 O 2684.66 -2.13714 -7.55141 0
M  V30 19826 O 2684.7 0.248149 -8.21425 0
M  V30 19827 C 2684.54 1.22779 -9.30434 0
M  V30 19828 C 2685.08 2.56293 -8.80664 0
M  V30 19829 O 2684.02 3.02979 -8.09349 0
M  V30 19830 C 2686.29 2.57523 -7.89775 0
M  V30 19831 O 2687.03 3.7668 -7.89438 0
M  V30 19832 C 2685.62 2.20997 -6.55446 0
M  V30 19833 O 2686.42 2.71895 -5.48509 0
M  V30 19834 C 2684.29 2.89693 -6.67988 0
M  V30 19835 H 2684.32 3.88793 -6.19859 0
M  V30 19836 H 2685.5 1.12046 -6.44229 0
M  V30 19837 H 2686.99 1.7746 -8.19711 0
M  V30 19838 H 2685.29 3.20706 -9.67112 0
M  V30 19839 H 2685.1 0.901032 -10.1892 0
M  V30 19840 H 2683.47 1.33049 -9.56592 0
M  V30 19841 H 2686.11 3.57847 -5.23962 0
M  V30 19842 P 2687.97 3.65191 -7.99657 0
M  V30 19843 O 2689.39 3.89374 -8.45885 0
M  V30 19844 O 2687.61 2.28472 -7.50807 0
M  V30 19845 O 2687.65 4.64972 -6.77611 0
M  V30 19846 C 2687.49 6.06383 -7.16428 0
M  V30 19847 C 2688.03 6.91731 -6.02299 0
M  V30 19848 O 2686.97 6.92369 -5.17005 0
M  V30 19849 C 2689.24 6.43627 -5.25174 0
M  V30 19850 O 2689.98 7.43686 -4.60469 0
M  V30 19851 C 2688.58 5.40275 -4.31916 0
M  V30 19852 O 2689.37 5.24878 -3.14911 0
M  V30 19853 C 2687.24 6.04847 -4.05327 0
M  V30 19854 N 2686.2 5.04166 -3.98114 0
M  V30 19855 C 2686.36 3.84629 -4.59066 0
M  V30 19856 N 2685.34 3.0363 -4.45343 0
M  V30 19857 C 2684.45 3.76722 -3.68523 0
M  V30 19858 C 2683.19 3.43528 -3.17088 0
M  V30 19859 N 2682.62 4.44526 -2.44231 0
M  V30 19860 C 2683.22 5.65243 -2.20146 0
M  V30 19861 N 2684.4 6.00221 -2.65453 0
M  V30 19862 C 2684.97 5.00564 -3.39083 0
M  V30 19863 H 2688.45 4.42969 -4.80867 0
M  V30 19864 H 2689.94 5.92458 -5.93643 0
M  V30 19865 H 2688.24 7.93295 -6.39407 0
M  V30 19866 H 2688.05 6.26671 -8.0846 0
M  V30 19867 H 2686.42 6.29101 -7.32804 0
M  V30 19868 H 2687.26 3.58193 -5.14248 0
M  V30 19869 H 2689.06 5.84223 -2.47279 0
M  V30 19870 P 2690.92 7.39546 -4.75277 0
M  V30 19871 O 2692.34 7.84798 -5.01039 0
M  V30 19872 O 2690.56 5.9812 -5.08098 0
M  V30 19873 O 2690.6 7.57503 -3.1866 0
M  V30 19874 C 2690.44 8.97357 -2.74833 0
M  V30 19875 C 2690.98 9.07548 -1.32709 0
M  V30 19876 O 2689.92 8.62072 -0.606159 0
M  V30 19877 C 2692.19 8.25383 -0.938334 0
M  V30 19878 O 2692.93 8.74577 0.146954 0
M  V30 19879 C 2691.53 6.8802 -0.712559 0
M  V30 19880 O 2692.32 6.1189 0.194655 0
M  V30 19881 C 2690.19 7.27966 -0.139777 0
M  V30 19882 H 2690.22 7.25354 0.961601 0
M  V30 19883 H 2691.4 6.32557 -1.65702 0
M  V30 19884 H 2692.89 8.19355 -1.79097 0
M  V30 19885 H 2691.19 10.1294 -1.10029 0
M  V30 19886 H 2691 9.64276 -3.41316 0
M  V30 19887 H 2689.37 9.25417 -2.76357 0
M  V30 19888 H 2692.01 6.25267 1.07847 0
M  V30 19889 P 2693.87 8.791 1.52498e-11 0
M  V30 19890 O 2695.29 9.31096 0.027933 0
M  V30 19891 O 2693.51 7.77869 -1.04071 0
M  V30 19892 O 2693.55 8.09533 1.41463 0
M  V30 19893 C 2693.39 9.0349 2.53943 0
M  V30 19894 C 2693.93 8.35226 3.79016 0
M  V30 19895 O 2692.87 7.57992 4.15078 0
M  V30 19896 C 2695.15 7.45087 3.67298 0
M  V30 19897 O 2695.88 7.27796 4.85194 0
M  V30 19898 C 2694.48 6.17323 3.12027 0
M  V30 19899 O 2695.28 5.04231 3.47188 0
M  V30 19900 C 2693.14 6.19961 3.81809 0
M  V30 19901 H 2693.17 5.58218 4.73051 0
M  V30 19902 H 2694.35 6.21726 2.02589 0
M  V30 19903 H 2695.84 7.86112 2.9231 0
M  V30 19904 H 2694.14 9.11627 4.55076 0
M  V30 19905 H 2693.95 9.9573 2.34194 0
M  V30 19906 H 2692.32 9.2792 2.67832 0
M  V30 19907 H 2694.96 4.67702 4.28772 0
M  V30 19908 P 2696.82 7.39546 4.75277 0
M  V30 19909 O 2698.24 7.81777 5.05738 0
M  V30 19910 O 2696.46 7.1065 3.32998 0
M  V30 19911 O 2696.5 6.04542 5.56673 0
M  V30 19912 C 2696.34 6.22772 7.02095 0
M  V30 19913 C 2696.88 4.97725 7.70406 0
M  V30 19914 O 2695.82 4.13256 7.58987 0
M  V30 19915 C 2698.1 4.28231 7.11815 0
M  V30 19916 O 2698.83 3.49945 8.01648 0
M  V30 19917 C 2697.43 3.5063 5.96244 0
M  V30 19918 O 2698.23 2.36482 5.64681 0
M  V30 19919 C 2696.09 3.15122 6.56374 0
M  V30 19920 H 2696.12 2.13853 6.99751 0
M  V30 19921 H 2697.3 4.13501 5.06559 0
M  V30 19922 H 2698.79 5.03285 6.70911 0
M  V30 19923 H 2697.09 5.20877 8.75697 0
M  V30 19924 H 2696.9 7.11046 7.35349 0
M  V30 19925 H 2695.27 6.35815 7.26986 0
M  V30 19926 H 2697.91 1.61644 6.13565 0
M  V30 19927 P 2699.77 3.65191 7.99657 0
M  V30 19928 O 2701.17 3.90823 8.51272 0
M  V30 19929 O 2699.39 4.23191 6.66972 0
M  V30 19930 O 2699.45 2.07587 7.95046 0
M  V30 19931 C 2699.29 1.44328 9.27336 0
M  V30 19932 C 2699.83 0.0220012 9.17097 0
M  V30 19933 O 2698.77 -0.626794 8.61824 0
M  V30 19934 C 2701.05 -0.24586 8.30336 0
M  V30 19935 O 2701.78 -1.39011 8.63583 0
M  V30 19936 C 2700.38 -0.273849 6.91158 0
M  V30 19937 O 2701.18 -1.06331 6.02794 0
M  V30 19938 C 2699.04 -0.897649 7.22545 0
M  V30 19939 N 2698 -0.292839 6.41732 0
M  V30 19940 C 2696.96 -1.08701 5.98712 0
M  V30 19941 O 2697 -2.31211 6.24471 0
M  V30 19942 N 2695.95 -0.533391 5.28415 0
M  V30 19943 C 2696 0.770866 4.98576 0
M  V30 19944 C 2697.09 1.59049 5.38086 0
M  V30 19945 C 2698.06 1.01866 6.10256 0
M  V30 19946 H 2699.07 -1.98383 7.04189 0
M  V30 19947 H 2700.26 0.733318 6.49674 0
M  V30 19948 H 2701.74 0.598386 8.36663 0
M  V30 19949 H 2700.05 -0.362662 10.1825 0
M  V30 19950 H 2699.85 2.00611 10.0304 0
M  V30 19951 H 2698.22 1.41828 9.55228 0
M  V30 19952 H 2697.14 2.6415 5.10622 0
M  V30 19953 H 2698.91 1.61983 6.44042 0
M  V30 19954 H 2700.96 -1.97777 6.14035 0
M  V30 19955 P 2702.72 -1.25109 8.70152 0
M  V30 19956 O 2704.14 -1.35274 9.21221 0
M  V30 19957 O 2702.36 -0.0769065 7.84762 0
M  V30 19958 O 2702.4 -2.55232 7.81161 0
M  V30 19959 C 2702.24 -3.79939 8.58154 0
M  V30 19960 C 2702.78 -4.94023 7.72785 0
M  V30 19961 O 2701.72 -5.18726 6.91205 0
M  V30 19962 C 2704 -4.69597 6.85231 0
M  V30 19963 O 2704.74 -5.83832 6.51337 0
M  V30 19964 C 2703.33 -3.96706 5.66633 0
M  V30 19965 O 2704.13 -4.15414 4.49689 0
M  V30 19966 C 2701.99 -4.66153 5.59313 0
M  V30 19967 H 2702.02 -5.47679 4.85214 0
M  V30 19968 H 2703.21 -2.89008 5.86566 0
M  V30 19969 H 2704.69 -4.0121 7.36511 0
M  V30 19970 H 2703 -5.80182 8.37584 0
M  V30 19971 H 2702.81 -3.73517 9.52265 0
M  V30 19972 H 2701.18 -3.97163 8.80359 0
M  V30 19973 H 2703.82 -4.90969 4.01921 0
M  V30 19974 P 2705.67 -5.75688 6.64379 0
M  V30 19975 O 2707.09 -6.11849 7.01846 0
M  V30 19976 O 2705.31 -4.30744 6.56026 0
M  V30 19977 O 2705.35 -6.37042 5.19165 0
M  V30 19978 C 2705.19 -7.83578 5.16515 0
M  V30 19979 C 2705.73 -8.33398 3.83019 0
M  V30 19980 O 2704.67 -8.10074 3.01034 0
M  V30 19981 C 2706.95 -7.65514 3.2257 0
M  V30 19982 O 2707.69 -8.4329 2.32297 0
M  V30 19983 C 2706.28 -6.40075 2.62207 0
M  V30 19984 O 2707.08 -5.92589 1.53712 0
M  V30 19985 C 2704.94 -6.9454 2.18503 0
M  V30 19986 H 2704.97 -7.23063 1.12091 0
M  V30 19987 H 2706.16 -5.6025 3.37201 0
M  V30 19988 H 2707.64 -7.35707 4.02681 0
M  V30 19989 H 2705.95 -9.40912 3.9095 0
M  V30 19990 H 2705.76 -8.29056 5.99158 0
M  V30 19991 H 2704.13 -8.10073 5.25882 0
M  V30 19992 H 2706.77 -6.30324 0.726794 0
M  V30 19993 P 2708.62 -8.4349 2.47671 0
M  V30 19994 O 2710.05 -8.94167 2.5964 0
M  V30 19995 O 2708.26 -7.1704 3.19006 0
M  V30 19996 O 2708.3 -8.16596 0.923387 0
M  V30 19997 C 2708.14 -9.38437 0.108857 0
M  V30 19998 C 2708.68 -9.08175 -1.28353 0
M  V30 19999 O 2707.62 -8.44229 -1.84713 0
M  V30 20000 C 2709.9 -8.18386 -1.42505 0
M  V30 20001 O 2710.64 -8.3501 -2.60497 0
M  V30 20002 C 2709.23 -6.80225 -1.25468 0
M  V30 20003 O 2710.03 -5.81621 -1.91066 0
M  V30 20004 C 2707.89 -7.02416 -1.9168 0
M  V30 20005 H 2707.92 -6.6888 -2.96621 0
M  V30 20006 H 2709.11 -6.53617 -0.192223 0
M  V30 20007 H 2710.59 -8.36622 -0.589963 0
M  V30 20008 H 2708.9 -10.0291 -1.79807 0
M  V30 20009 H 2708.71 -10.2138 0.558219 0
M  V30 20010 H 2707.08 -9.6579 0.0444202 0
M  V30 20011 H 2709.72 -5.69556 -2.79637 0
M  V30 20012 P 2711.57 -8.4349 -2.47671 0
M  V30 20013 O 2712.99 -8.92689 -2.65029 0
M  V30 20014 O 2711.21 -7.7568 -1.19296 0
M  V30 20015 O 2711.25 -7.36886 -3.63805 0
M  V30 20016 C 2711.09 -7.95433 -4.98253 0
M  V30 20017 C 2711.63 -6.94612 -5.98974 0
M  V30 20018 O 2710.58 -6.10277 -6.11744 0
M  V30 20019 C 2712.85 -6.11426 -5.62335 0
M  V30 20020 O 2713.59 -5.6162 -6.70584 0
M  V30 20021 C 2712.18 -5.04409 -4.73308 0
M  V30 20022 O 2712.98 -3.86404 -4.74719 0
M  V30 20023 C 2710.84 -4.8728 -5.41006 0
M  V30 20024 N 2709.8 -4.65812 -4.42377 0
M  V30 20025 C 2709.97 -5.09132 -3.15382 0
M  V30 20026 N 2708.94 -4.84021 -2.3716 0
M  V30 20027 C 2708.06 -4.18386 -3.20441 0
M  V30 20028 C 2706.79 -3.6275 -2.94905 0
M  V30 20029 N 2706.19 -3.65794 -1.73372 0
M  V30 20030 N 2706.22 -3.05008 -4.05243 0
M  V30 20031 C 2706.83 -2.98348 -5.28159 0
M  V30 20032 N 2708 -3.48171 -5.56333 0
M  V30 20033 C 2708.58 -4.06869 -4.47212 0
M  V30 20034 H 2710.87 -4.02278 -6.11074 0
M  V30 20035 H 2712.06 -5.39013 -3.70026 0
M  V30 20036 H 2713.54 -6.71916 -5.01943 0
M  V30 20037 H 2711.85 -7.45796 -6.94223 0
M  V30 20038 H 2711.66 -8.89416 -5.05237 0
M  V30 20039 H 2710.03 -8.14876 -5.18409 0
M  V30 20040 H 2706.29 -2.47853 -6.07807 0
M  V30 20041 H 2710.87 -5.59989 -2.81362 0
M  V30 20042 H 2705.26 -3.23218 -1.60782 0
M  V30 20043 H 2706.66 -4.10523 -0.937856 0
M  V30 20044 H 2712.67 -3.27906 -5.43085 0
M  V30 20045 P 2714.52 -5.75688 -6.64379 0
M  V30 20046 O 2715.95 -6.07627 -7.05504 0
M  V30 20047 O 2714.16 -5.88047 -5.19722 0
M  V30 20048 O 2714.2 -4.2322 -7.04443 0
M  V30 20049 C 2714.04 -3.99743 -8.4911 0
M  V30 20050 C 2714.58 -2.60516 -8.79425 0
M  V30 20051 O 2713.53 -1.82684 -8.4467 0
M  V30 20052 C 2715.8 -2.10343 -8.03628 0
M  V30 20053 O 2716.54 -1.09919 -8.67766 0
M  V30 20054 C 2715.13 -1.68446 -6.70876 0
M  V30 20055 O 2715.93 -0.678137 -6.08433 0
M  V30 20056 C 2713.79 -1.17436 -7.18567 0
M  V30 20057 H 2713.83 -0.0804732 -7.31656 0
M  V30 20058 H 2715.01 -2.54037 -6.02537 0
M  V30 20059 H 2716.49 -2.93881 -7.85526 0
M  V30 20060 H 2714.8 -2.53065 -9.86973 0
M  V30 20061 H 2714.61 -4.75072 -9.05887 0
M  V30 20062 H 2712.98 -4.05244 -8.76668 0
M  V30 20063 H 2715.62 0.177647 -6.34251 0
M  V30 20064 P 2717.47 -1.25109 -8.70152 0
M  V30 20065 O 2718.9 -1.29772 -9.22214 0
M  V30 20066 O 2717.11 -2.13714 -7.55141 0
M  V30 20067 O 2717.15 0.248149 -8.21425 0
M  V30 20068 C 2716.99 1.22779 -9.30434 0
M  V30 20069 C 2717.53 2.56265 -8.80568 0
M  V30 20070 O 2716.48 3.02979 -8.09349 0
M  V30 20071 C 2718.75 2.57523 -7.89775 0
M  V30 20072 O 2719.49 3.7668 -7.89438 0
M  V30 20073 C 2718.08 2.20997 -6.55446 0
M  V30 20074 O 2718.88 2.71851 -5.48419 0
M  V30 20075 C 2716.74 2.89693 -6.67988 0
M  V30 20076 N 2715.7 2.08895 -6.07487 0
M  V30 20077 C 2715.76 0.760559 -6.14209 0
M  V30 20078 N 2714.72 0.200108 -5.52538 0
M  V30 20079 C 2713.98 1.22692 -5.09742 0
M  V30 20080 C 2712.68 1.24782 -4.48775 0
M  V30 20081 O 2711.94 0.290617 -4.19294 0
M  V30 20082 N 2712.25 2.50468 -4.22428 0
M  V30 20083 C 2713 3.67142 -4.51974 0
M  V30 20084 N 2712.4 4.85096 -4.14091 0
M  V30 20085 N 2714.15 3.67821 -5.12831 0
M  V30 20086 C 2714.61 2.43698 -5.4105 0
M  V30 20087 H 2716.78 3.88793 -6.19859 0
M  V30 20088 H 2717.96 1.12029 -6.4413 0
M  V30 20089 H 2719.44 1.78279 -8.19533 0
M  V30 20090 H 2717.75 3.20706 -9.67112 0
M  V30 20091 H 2717.56 0.901032 -10.1892 0
M  V30 20092 H 2715.93 1.33049 -9.56592 0
M  V30 20093 H 2711.35 2.61953 -3.79465 0
M  V30 20094 H 2716.56 0.200439 -6.63497 0
M  V30 20095 H 2711.49 4.8334 -3.66367 0
M  V30 20096 H 2712.86 5.7474 -4.33841 0
M  V30 20097 H 2718.57 3.5779 -5.23879 0
M  V30 20098 P 2720.43 3.65191 -7.99657 0
M  V30 20099 O 2721.85 3.89332 -8.45794 0
M  V30 20100 O 2720.07 2.28472 -7.50807 0
M  V30 20101 O 2720.1 4.64972 -6.77611 0
M  V30 20102 C 2719.94 6.06319 -7.16352 0
M  V30 20103 C 2720.48 6.91731 -6.02299 0
M  V30 20104 O 2719.43 6.92449 -5.17064 0
M  V30 20105 C 2721.7 6.43627 -5.25174 0
M  V30 20106 O 2722.44 7.43686 -4.60469 0
M  V30 20107 C 2721.03 5.40275 -4.31916 0
M  V30 20108 O 2721.83 5.25279 -3.14438 0
M  V30 20109 C 2719.69 6.04847 -4.05327 0
M  V30 20110 H 2719.73 6.62195 -3.11261 0
M  V30 20111 H 2720.91 4.42556 -4.81383 0
M  V30 20112 H 2722.39 5.92458 -5.93643 0
M  V30 20113 H 2720.7 7.92655 -6.402 0
M  V30 20114 H 2720.51 6.26671 -8.0846 0
M  V30 20115 H 2718.88 6.29101 -7.32804 0
M  V30 20116 H 2721.52 5.84315 -2.47318 0
M  V30 20117 P 2723.38 7.39546 -4.75277 0
M  V30 20118 O 2724.8 7.84798 -5.01039 0
M  V30 20119 O 2723.02 5.9812 -5.08098 0
M  V30 20120 O 2723.05 7.57503 -3.1866 0
M  V30 20121 C 2722.89 8.97357 -2.74833 0
M  V30 20122 C 2723.43 9.07548 -1.32709 0
M  V30 20123 O 2722.38 8.62072 -0.606159 0
M  V30 20124 C 2724.65 8.25383 -0.938334 0
M  V30 20125 O 2725.39 8.74577 0.146954 0
M  V30 20126 C 2723.98 6.8802 -0.712559 0
M  V30 20127 O 2724.78 6.1189 0.194655 0
M  V30 20128 C 2722.65 7.27966 -0.139777 0
M  V30 20129 H 2722.68 7.25354 0.961601 0
M  V30 20130 H 2723.86 6.32557 -1.65702 0
M  V30 20131 H 2725.34 8.19355 -1.79097 0
M  V30 20132 H 2723.65 10.1294 -1.10029 0
M  V30 20133 H 2723.46 9.64276 -3.41316 0
M  V30 20134 H 2721.83 9.25417 -2.76357 0
M  V30 20135 H 2724.47 6.25267 1.07847 0
M  V30 20136 P 2726.33 8.791 1.00632e-11 0
M  V30 20137 O 2727.75 9.31096 0.027933 0
M  V30 20138 O 2725.97 7.77869 -1.04071 0
M  V30 20139 O 2726 8.09533 1.41463 0
M  V30 20140 C 2725.84 9.0349 2.53943 0
M  V30 20141 C 2726.38 8.35226 3.79016 0
M  V30 20142 O 2725.33 7.57992 4.15078 0
M  V30 20143 C 2727.6 7.45087 3.67298 0
M  V30 20144 O 2728.34 7.27796 4.85194 0
M  V30 20145 C 2726.93 6.17323 3.12027 0
M  V30 20146 O 2727.73 5.04231 3.47188 0
M  V30 20147 C 2725.6 6.19961 3.81809 0
M  V30 20148 H 2725.63 5.58218 4.73051 0
M  V30 20149 H 2726.81 6.21726 2.02589 0
M  V30 20150 H 2728.29 7.86112 2.9231 0
M  V30 20151 H 2726.6 9.11627 4.55076 0
M  V30 20152 H 2726.41 9.9573 2.34194 0
M  V30 20153 H 2724.78 9.2792 2.67832 0
M  V30 20154 H 2727.42 4.67702 4.28772 0
M  V30 20155 P 2729.28 7.39546 4.75277 0
M  V30 20156 O 2730.7 7.81777 5.05738 0
M  V30 20157 O 2728.92 7.1065 3.32998 0
M  V30 20158 O 2728.95 6.04542 5.56673 0
M  V30 20159 C 2728.79 6.22772 7.02095 0
M  V30 20160 C 2729.33 4.97725 7.70406 0
M  V30 20161 O 2728.28 4.13256 7.58987 0
M  V30 20162 C 2730.55 4.28231 7.11815 0
M  V30 20163 O 2731.29 3.49945 8.01648 0
M  V30 20164 C 2729.88 3.5063 5.96244 0
M  V30 20165 O 2730.68 2.36482 5.64681 0
M  V30 20166 C 2728.55 3.15122 6.56374 0
M  V30 20167 H 2728.58 2.13853 6.99751 0
M  V30 20168 H 2729.76 4.13501 5.06559 0
M  V30 20169 H 2731.25 5.03285 6.70911 0
M  V30 20170 H 2729.55 5.20877 8.75697 0
M  V30 20171 H 2729.36 7.11046 7.35349 0
M  V30 20172 H 2727.73 6.35815 7.26986 0
M  V30 20173 H 2730.37 1.61644 6.13565 0
M  V30 20174 P 2732.23 3.65191 7.99657 0
M  V30 20175 O 2733.65 3.8425 8.48115 0
M  V30 20176 O 2731.87 4.17805 6.64342 0
M  V30 20177 O 2731.9 2.07613 7.95143 0
M  V30 20178 C 2731.74 1.44328 9.27336 0
M  V30 20179 C 2732.28 0.0220036 9.17197 0
M  V30 20180 O 2731.23 -0.626867 8.61923 0
M  V30 20181 C 2733.5 -0.24586 8.30336 0
M  V30 20182 O 2734.24 -1.39011 8.63583 0
M  V30 20183 C 2732.83 -0.273849 6.91158 0
M  V30 20184 O 2733.63 -1.06348 6.02892 0
M  V30 20185 C 2731.5 -0.897649 7.22545 0
M  V30 20186 H 2731.53 -1.9841 7.04286 0
M  V30 20187 H 2732.71 0.739928 6.497 0
M  V30 20188 H 2734.2 0.60668 8.36503 0
M  V30 20189 H 2732.5 -0.352479 10.1829 0
M  V30 20190 H 2732.31 2.00611 10.0304 0
M  V30 20191 H 2730.68 1.41843 9.55327 0
M  V30 20192 H 2733.32 -1.95734 6.03555 0
M  V30 20193 P 2735.18 -1.25109 8.70152 0
M  V30 20194 O 2736.6 -1.35274 9.21221 0
M  V30 20195 O 2734.82 -0.0769065 7.84762 0
M  V30 20196 O 2734.86 -2.55232 7.81161 0
M  V30 20197 C 2734.7 -3.79939 8.58154 0
M  V30 20198 C 2735.24 -4.94023 7.72785 0
M  V30 20199 O 2734.18 -5.18726 6.91205 0
M  V30 20200 C 2736.45 -4.69597 6.85231 0
M  V30 20201 O 2737.19 -5.83832 6.51337 0
M  V30 20202 C 2735.78 -3.96706 5.66633 0
M  V30 20203 O 2736.58 -4.15414 4.49689 0
M  V30 20204 C 2734.45 -4.66153 5.59313 0
M  V30 20205 H 2734.48 -5.47679 4.85214 0
M  V30 20206 H 2735.66 -2.89008 5.86566 0
M  V30 20207 H 2737.15 -4.0121 7.36511 0
M  V30 20208 H 2735.45 -5.80182 8.37584 0
M  V30 20209 H 2735.26 -3.73517 9.52265 0
M  V30 20210 H 2733.63 -3.97163 8.80359 0
M  V30 20211 H 2736.27 -4.90969 4.01921 0
M  V30 20212 P 2738.13 -5.75688 6.64379 0
M  V30 20213 O 2739.55 -6.11849 7.01846 0
M  V30 20214 O 2737.77 -4.30744 6.56026 0
M  V30 20215 O 2737.81 -6.37042 5.19165 0
M  V30 20216 C 2737.65 -7.83578 5.16515 0
M  V30 20217 C 2738.19 -8.33398 3.83019 0
M  V30 20218 O 2737.13 -8.10074 3.01034 0
M  V30 20219 C 2739.4 -7.65514 3.2257 0
M  V30 20220 O 2740.14 -8.4329 2.32297 0
M  V30 20221 C 2738.73 -6.40075 2.62207 0
M  V30 20222 O 2739.53 -5.92589 1.53712 0
M  V30 20223 C 2737.4 -6.9454 2.18503 0
M  V30 20224 H 2737.43 -7.23063 1.12091 0
M  V30 20225 H 2738.61 -5.6025 3.37201 0
M  V30 20226 H 2740.1 -7.35707 4.02681 0
M  V30 20227 H 2738.4 -9.40912 3.9095 0
M  V30 20228 H 2738.21 -8.29056 5.99158 0
M  V30 20229 H 2736.58 -8.10073 5.25882 0
M  V30 20230 H 2739.22 -6.30324 0.726794 0
M  V30 20231 P 2741.08 -8.4349 2.47671 0
M  V30 20232 O 2742.5 -8.94167 2.5964 0
M  V30 20233 O 2740.72 -7.1704 3.19006 0
M  V30 20234 O 2740.76 -8.16596 0.923387 0
M  V30 20235 C 2740.6 -9.38437 0.108857 0
M  V30 20236 C 2741.14 -9.08175 -1.28353 0
M  V30 20237 O 2740.08 -8.44229 -1.84713 0
M  V30 20238 C 2742.35 -8.18386 -1.42505 0
M  V30 20239 O 2743.09 -8.3501 -2.60497 0
M  V30 20240 C 2741.69 -6.80225 -1.25468 0
M  V30 20241 O 2742.48 -5.81621 -1.91066 0
M  V30 20242 C 2740.35 -7.02416 -1.9168 0
M  V30 20243 H 2740.38 -6.6888 -2.96621 0
M  V30 20244 H 2741.56 -6.53617 -0.192223 0
M  V30 20245 H 2743.05 -8.36622 -0.589963 0
M  V30 20246 H 2741.35 -10.0291 -1.79807 0
M  V30 20247 H 2741.16 -10.2138 0.558219 0
M  V30 20248 H 2739.53 -9.6579 0.0444202 0
M  V30 20249 H 2742.17 -5.69556 -2.79637 0
M  V30 20250 P 2744.03 -8.4349 -2.47671 0
M  V30 20251 O 2745.45 -8.92593 -2.65 0
M  V30 20252 O 2743.67 -7.7568 -1.19296 0
M  V30 20253 O 2743.71 -7.36886 -3.63805 0
M  V30 20254 C 2743.55 -7.95349 -4.982 0
M  V30 20255 C 2744.09 -6.94612 -5.98974 0
M  V30 20256 O 2743.03 -6.10347 -6.11815 0
M  V30 20257 C 2745.31 -6.11426 -5.62335 0
M  V30 20258 O 2746.04 -5.6162 -6.70584 0
M  V30 20259 C 2744.64 -5.04409 -4.73308 0
M  V30 20260 O 2745.44 -3.85992 -4.75183 0
M  V30 20261 C 2743.3 -4.8728 -5.41006 0
M  V30 20262 H 2743.33 -4.02333 -6.11157 0
M  V30 20263 H 2744.51 -5.39466 -3.69543 0
M  V30 20264 H 2746 -6.71916 -5.01943 0
M  V30 20265 H 2744.3 -7.4649 -6.93477 0
M  V30 20266 H 2744.11 -8.89416 -5.05237 0
M  V30 20267 H 2742.48 -8.14876 -5.18409 0
M  V30 20268 H 2745.12 -3.27957 -5.4317 0
M  V30 20269 P 2746.98 -5.75688 -6.64379 0
M  V30 20270 O 2748.4 -6.07627 -7.05504 0
M  V30 20271 O 2746.62 -5.88047 -5.19722 0
M  V30 20272 O 2746.66 -4.2322 -7.04443 0
M  V30 20273 C 2746.5 -3.99743 -8.4911 0
M  V30 20274 C 2747.04 -2.60516 -8.79425 0
M  V30 20275 O 2745.98 -1.82684 -8.4467 0
M  V30 20276 C 2748.26 -2.10343 -8.03628 0
M  V30 20277 O 2748.99 -1.09919 -8.67766 0
M  V30 20278 C 2747.59 -1.68446 -6.70876 0
M  V30 20279 O 2748.39 -0.678137 -6.08433 0
M  V30 20280 C 2746.25 -1.17436 -7.18567 0
M  V30 20281 H 2746.28 -0.0804732 -7.31656 0
M  V30 20282 H 2747.46 -2.54037 -6.02537 0
M  V30 20283 H 2748.95 -2.93881 -7.85526 0
M  V30 20284 H 2747.25 -2.53065 -9.86973 0
M  V30 20285 H 2747.06 -4.75072 -9.05887 0
M  V30 20286 H 2745.43 -4.05244 -8.76668 0
M  V30 20287 H 2748.07 0.177647 -6.34251 0
M  V30 20288 P 2749.93 -1.25109 -8.70152 0
M  V30 20289 O 2751.35 -1.29744 -9.22016 0
M  V30 20290 O 2749.57 -2.13714 -7.55141 0
M  V30 20291 O 2749.61 0.248149 -8.21425 0
M  V30 20292 C 2749.45 1.22779 -9.30434 0
M  V30 20293 C 2749.99 2.56293 -8.80664 0
M  V30 20294 O 2748.93 3.02979 -8.09349 0
M  V30 20295 C 2751.21 2.57523 -7.89775 0
M  V30 20296 O 2751.94 3.7668 -7.89438 0
M  V30 20297 C 2750.54 2.20997 -6.55446 0
M  V30 20298 O 2751.34 2.71895 -5.48509 0
M  V30 20299 C 2749.2 2.89693 -6.67988 0
M  V30 20300 H 2749.23 3.88793 -6.19859 0
M  V30 20301 H 2750.42 1.12046 -6.44229 0
M  V30 20302 H 2751.9 1.7746 -8.19711 0
M  V30 20303 H 2750.21 3.20706 -9.67112 0
M  V30 20304 H 2750.02 0.901032 -10.1892 0
M  V30 20305 H 2748.39 1.33049 -9.56592 0
M  V30 20306 H 2751.02 3.57847 -5.23962 0
M  V30 20307 P 2752.88 3.65191 -7.99657 0
M  V30 20308 O 2754.3 3.89332 -8.45794 0
M  V30 20309 O 2752.52 2.28472 -7.50807 0
M  V30 20310 O 2752.56 4.64972 -6.77611 0
M  V30 20311 C 2752.4 6.06319 -7.16352 0
M  V30 20312 C 2752.94 6.91731 -6.02299 0
M  V30 20313 O 2751.88 6.92449 -5.17064 0
M  V30 20314 C 2754.16 6.43627 -5.25174 0
M  V30 20315 O 2754.89 7.43686 -4.60469 0
M  V30 20316 C 2753.49 5.40275 -4.31916 0
M  V30 20317 O 2754.29 5.25279 -3.14438 0
M  V30 20318 C 2752.15 6.04847 -4.05327 0
M  V30 20319 H 2752.18 6.62195 -3.11261 0
M  V30 20320 H 2753.37 4.42556 -4.81383 0
M  V30 20321 H 2754.85 5.92458 -5.93643 0
M  V30 20322 H 2753.16 7.92655 -6.402 0
M  V30 20323 H 2752.97 6.26671 -8.0846 0
M  V30 20324 H 2751.34 6.29101 -7.32804 0
M  V30 20325 H 2753.97 5.84315 -2.47318 0
M  V30 20326 P 2755.83 7.39546 -4.75277 0
M  V30 20327 O 2757.25 7.84798 -5.01039 0
M  V30 20328 O 2755.47 5.9812 -5.08098 0
M  V30 20329 O 2755.51 7.57503 -3.1866 0
M  V30 20330 C 2755.35 8.97357 -2.74833 0
M  V30 20331 C 2755.89 9.07548 -1.32709 0
M  V30 20332 O 2754.83 8.62072 -0.606159 0
M  V30 20333 C 2757.11 8.25383 -0.938334 0
M  V30 20334 O 2757.85 8.74577 0.146954 0
M  V30 20335 C 2756.44 6.8802 -0.712559 0
M  V30 20336 O 2757.24 6.1189 0.194655 0
M  V30 20337 C 2755.1 7.27966 -0.139777 0
M  V30 20338 H 2755.13 7.25354 0.961601 0
M  V30 20339 H 2756.32 6.32557 -1.65702 0
M  V30 20340 H 2757.8 8.19355 -1.79097 0
M  V30 20341 H 2756.11 10.1294 -1.10029 0
M  V30 20342 H 2755.92 9.64276 -3.41316 0
M  V30 20343 H 2754.29 9.25417 -2.76357 0
M  V30 20344 H 2756.93 6.25267 1.07847 0
M  V30 20345 P 2758.78 8.791 4.87655e-12 0
M  V30 20346 O 2760.18 9.36698 -0.018734 0
M  V30 20347 O 2758.4 7.82499 -1.07878 0
M  V30 20348 O 2758.46 8.09434 1.41446 0
M  V30 20349 C 2758.3 9.0349 2.53943 0
M  V30 20350 C 2758.84 8.35135 3.78975 0
M  V30 20351 O 2757.78 7.57904 4.1503 0
M  V30 20352 C 2760.06 7.45087 3.67298 0
M  V30 20353 O 2760.8 7.27796 4.85194 0
M  V30 20354 C 2759.39 6.17323 3.12027 0
M  V30 20355 O 2760.19 5.04149 3.47132 0
M  V30 20356 C 2758.05 6.19961 3.81809 0
M  V30 20357 N 2757.01 5.71575 2.93223 0
M  V30 20358 C 2755.97 4.99452 3.47592 0
M  V30 20359 O 2756.01 4.7199 4.69732 0
M  V30 20360 N 2754.96 4.58505 2.6803 0
M  V30 20361 C 2755.01 4.85544 1.36995 0
M  V30 20362 N 2754 4.45052 0.609031 0
M  V30 20363 C 2756.11 5.55532 0.788532 0
M  V30 20364 C 2757.07 5.97426 1.60849 0
M  V30 20365 H 2758.08 5.58142 4.72986 0
M  V30 20366 H 2759.27 6.21428 2.0318 0
M  V30 20367 H 2760.75 7.85913 2.93131 0
M  V30 20368 H 2759.06 9.11171 4.55987 0
M  V30 20369 H 2758.87 9.9573 2.34194 0
M  V30 20370 H 2757.24 9.27824 2.67805 0
M  V30 20371 H 2756.15 5.7421 -0.281588 0
M  V30 20372 H 2757.92 6.53132 1.202 0
M  V30 20373 H 2753.21 3.94123 1.03159 0
M  V30 20374 H 2754 4.64377 -0.400352 0
M  V30 20375 H 2759.97 4.76386 4.34983 0
M  V30 20376 P 2761.73 7.39546 4.75277 0
M  V30 20377 O 2763.16 7.81777 5.05738 0
M  V30 20378 O 2761.37 7.1065 3.32998 0
M  V30 20379 O 2761.41 6.04542 5.56673 0
M  V30 20380 C 2761.25 6.22772 7.02095 0
M  V30 20381 C 2761.79 4.97725 7.70406 0
M  V30 20382 O 2760.73 4.13256 7.58987 0
M  V30 20383 C 2763.01 4.28231 7.11815 0
M  V30 20384 O 2763.75 3.49945 8.01648 0
M  V30 20385 C 2762.34 3.5063 5.96244 0
M  V30 20386 O 2763.14 2.36482 5.64681 0
M  V30 20387 C 2761 3.15122 6.56374 0
M  V30 20388 H 2761.03 2.13853 6.99751 0
M  V30 20389 H 2762.22 4.13501 5.06559 0
M  V30 20390 H 2763.7 5.03285 6.70911 0
M  V30 20391 H 2762.01 5.20877 8.75697 0
M  V30 20392 H 2761.82 7.11046 7.35349 0
M  V30 20393 H 2760.19 6.35815 7.26986 0
M  V30 20394 H 2762.83 1.61644 6.13565 0
M  V30 20395 P 2764.68 3.65191 7.99657 0
M  V30 20396 O 2766.11 3.8425 8.48115 0
M  V30 20397 O 2764.32 4.17805 6.64342 0
M  V30 20398 O 2764.36 2.07613 7.95143 0
M  V30 20399 C 2764.2 1.44328 9.27336 0
M  V30 20400 C 2764.74 0.0220036 9.17197 0
M  V30 20401 O 2763.69 -0.626867 8.61923 0
M  V30 20402 C 2765.96 -0.24586 8.30336 0
M  V30 20403 O 2766.7 -1.39011 8.63583 0
M  V30 20404 C 2765.29 -0.273849 6.91158 0
M  V30 20405 O 2766.09 -1.06348 6.02892 0
M  V30 20406 C 2763.95 -0.897649 7.22545 0
M  V30 20407 H 2763.99 -1.9841 7.04286 0
M  V30 20408 H 2765.17 0.739928 6.497 0
M  V30 20409 H 2766.65 0.60668 8.36503 0
M  V30 20410 H 2764.96 -0.352479 10.1829 0
M  V30 20411 H 2764.77 2.00611 10.0304 0
M  V30 20412 H 2763.14 1.41843 9.55327 0
M  V30 20413 H 2765.78 -1.95734 6.03555 0
M  V30 20414 P 2767.63 -1.25109 8.70152 0
M  V30 20415 O 2769.04 -1.31452 9.27431 0
M  V30 20416 O 2767.26 -0.0458113 7.89887 0
M  V30 20417 O 2767.31 -2.55201 7.81066 0
M  V30 20418 C 2767.15 -3.79939 8.58154 0
M  V30 20419 C 2767.69 -4.93969 7.72701 0
M  V30 20420 O 2766.64 -5.18666 6.91125 0
M  V30 20421 C 2768.91 -4.69597 6.85231 0
M  V30 20422 O 2769.65 -5.83832 6.51337 0
M  V30 20423 C 2768.24 -3.96706 5.66633 0
M  V30 20424 O 2769.04 -4.15346 4.49615 0
M  V30 20425 C 2766.9 -4.66153 5.59313 0
M  V30 20426 N 2765.86 -3.71582 5.24027 0
M  V30 20427 C 2764.83 -4.15133 4.44901 0
M  V30 20428 O 2764.86 -5.32122 4.00336 0
M  V30 20429 N 2763.81 -3.30554 4.15693 0
M  V30 20430 C 2763.86 -2.04701 4.61105 0
M  V30 20431 C 2764.96 -1.57111 5.38655 0
M  V30 20432 C 2765.92 -2.44234 5.68454 0
M  V30 20433 H 2766.94 -5.47604 4.85148 0
M  V30 20434 H 2768.12 -2.8955 5.86187 0
M  V30 20435 H 2769.6 -4.01995 7.36197 0
M  V30 20436 H 2767.91 -5.81019 8.37003 0
M  V30 20437 H 2767.72 -3.73517 9.52265 0
M  V30 20438 H 2766.09 -3.97122 8.80267 0
M  V30 20439 H 2765.01 -0.538464 5.72373 0
M  V30 20440 H 2766.77 -2.11927 6.29377 0
M  V30 20441 H 2768.82 -4.98352 4.09633 0
M  V30 20442 P 2770.59 -5.75688 6.64379 0
M  V30 20443 O 2772.01 -6.11849 7.01846 0
M  V30 20444 O 2770.23 -4.30744 6.56026 0
M  V30 20445 O 2770.26 -6.37042 5.19165 0
M  V30 20446 C 2770.1 -7.83578 5.16515 0
M  V30 20447 C 2770.64 -8.33398 3.83019 0
M  V30 20448 O 2769.59 -8.10074 3.01034 0
M  V30 20449 C 2771.86 -7.65514 3.2257 0
M  V30 20450 O 2772.6 -8.4329 2.32297 0
M  V30 20451 C 2771.19 -6.40075 2.62207 0
M  V30 20452 O 2771.99 -5.92589 1.53712 0
M  V30 20453 C 2769.85 -6.9454 2.18503 0
M  V30 20454 H 2769.89 -7.23063 1.12091 0
M  V30 20455 H 2771.07 -5.6025 3.37201 0
M  V30 20456 H 2772.55 -7.35707 4.02681 0
M  V30 20457 H 2770.86 -9.40912 3.9095 0
M  V30 20458 H 2770.67 -8.29056 5.99158 0
M  V30 20459 H 2769.04 -8.10073 5.25882 0
M  V30 20460 H 2771.68 -6.30324 0.726794 0
M  V30 20461 P 2773.54 -8.4349 2.47671 0
M  V30 20462 O 2774.96 -8.94263 2.59668 0
M  V30 20463 O 2773.18 -7.1704 3.19006 0
M  V30 20464 O 2773.21 -8.16596 0.923387 0
M  V30 20465 C 2773.05 -9.38537 0.108869 0
M  V30 20466 C 2773.59 -9.08175 -1.28353 0
M  V30 20467 O 2772.54 -8.44131 -1.84692 0
M  V30 20468 C 2774.81 -8.18386 -1.42505 0
M  V30 20469 O 2775.55 -8.3501 -2.60497 0
M  V30 20470 C 2774.14 -6.80225 -1.25468 0
M  V30 20471 O 2774.94 -5.81716 -1.90454 0
M  V30 20472 C 2772.8 -7.02416 -1.9168 0
M  V30 20473 N 2771.76 -6.31033 -1.20314 0
M  V30 20474 C 2771.93 -5.98817 0.0994088 0
M  V30 20475 N 2770.9 -5.35403 0.621694 0
M  V30 20476 C 2770.02 -5.25212 -0.43376 0
M  V30 20477 C 2768.75 -4.64602 -0.519722 0
M  V30 20478 N 2768.15 -4.01457 0.519136 0
M  V30 20479 N 2768.19 -4.7568 -1.76013 0
M  V30 20480 C 2768.79 -5.3653 -2.83017 0
M  V30 20481 N 2769.97 -5.93676 -2.79782 0
M  V30 20482 C 2770.54 -5.84061 -1.56249 0
M  V30 20483 H 2772.84 -6.68789 -2.9658 0
M  V30 20484 H 2774.02 -6.53498 -0.198729 0
M  V30 20485 H 2775.5 -8.36622 -0.589963 0
M  V30 20486 H 2773.81 -10.0273 -1.8081 0
M  V30 20487 H 2773.62 -10.2138 0.558219 0
M  V30 20488 H 2771.99 -9.6579 0.0444202 0
M  V30 20489 H 2768.25 -5.37113 -3.77321 0
M  V30 20490 H 2772.83 -6.23209 0.660562 0
M  V30 20491 H 2767.22 -3.58834 0.394862 0
M  V30 20492 H 2768.63 -3.96059 1.43048 0
M  V30 20493 H 2774.63 -5.69466 -2.79593 0
M  V30 20494 P 2776.49 -8.4349 -2.47671 0
M  V30 20495 O 2777.91 -8.92593 -2.65 0
M  V30 20496 O 2776.13 -7.7568 -1.19296 0
M  V30 20497 O 2776.16 -7.36886 -3.63805 0
M  V30 20498 C 2776 -7.95349 -4.982 0
M  V30 20499 C 2776.54 -6.94612 -5.98974 0
M  V30 20500 O 2775.49 -6.10347 -6.11815 0
M  V30 20501 C 2777.76 -6.11426 -5.62335 0
M  V30 20502 O 2778.5 -5.6162 -6.70584 0
M  V30 20503 C 2777.09 -5.04409 -4.73308 0
M  V30 20504 O 2777.89 -3.85992 -4.75183 0
M  V30 20505 C 2775.76 -4.8728 -5.41006 0
M  V30 20506 H 2775.79 -4.02333 -6.11157 0
M  V30 20507 H 2776.97 -5.39466 -3.69543 0
M  V30 20508 H 2778.45 -6.71916 -5.01943 0
M  V30 20509 H 2776.76 -7.4649 -6.93477 0
M  V30 20510 H 2776.57 -8.89416 -5.05237 0
M  V30 20511 H 2774.94 -8.14876 -5.18409 0
M  V30 20512 H 2777.58 -3.27957 -5.4317 0
M  V30 20513 P 2779.44 -5.75688 -6.64379 0
M  V30 20514 O 2780.86 -6.07627 -7.05504 0
M  V30 20515 O 2779.08 -5.88047 -5.19722 0
M  V30 20516 O 2779.11 -4.2322 -7.04443 0
M  V30 20517 C 2778.95 -3.99743 -8.4911 0
M  V30 20518 C 2779.49 -2.60516 -8.79425 0
M  V30 20519 O 2778.44 -1.82684 -8.4467 0
M  V30 20520 C 2780.71 -2.10343 -8.03628 0
M  V30 20521 O 2781.45 -1.09919 -8.67766 0
M  V30 20522 C 2780.04 -1.68446 -6.70876 0
M  V30 20523 O 2780.84 -0.678137 -6.08433 0
M  V30 20524 C 2778.71 -1.17436 -7.18567 0
M  V30 20525 H 2778.74 -0.0804732 -7.31656 0
M  V30 20526 H 2779.92 -2.54037 -6.02537 0
M  V30 20527 H 2781.4 -2.93881 -7.85526 0
M  V30 20528 H 2779.71 -2.53065 -9.86973 0
M  V30 20529 H 2779.52 -4.75072 -9.05887 0
M  V30 20530 H 2777.89 -4.05244 -8.76668 0
M  V30 20531 H 2780.53 0.177647 -6.34251 0
M  V30 20532 P 2782.39 -1.25109 -8.70152 0
M  V30 20533 O 2783.79 -1.3516 -9.26897 0
M  V30 20534 O 2782.01 -2.18141 -7.59181 0
M  V30 20535 O 2782.06 0.248118 -8.21325 0
M  V30 20536 C 2781.9 1.22779 -9.30434 0
M  V30 20537 C 2782.44 2.56265 -8.80568 0
M  V30 20538 O 2781.39 3.02944 -8.09255 0
M  V30 20539 C 2783.66 2.57523 -7.89775 0
M  V30 20540 O 2784.4 3.7668 -7.89438 0
M  V30 20541 C 2782.99 2.20997 -6.55446 0
M  V30 20542 O 2783.79 2.71851 -5.48419 0
M  V30 20543 C 2781.66 2.89693 -6.67988 0
M  V30 20544 N 2780.61 2.08895 -6.07487 0
M  V30 20545 C 2779.58 2.72974 -5.43836 0
M  V30 20546 O 2779.62 3.97779 -5.34036 0
M  V30 20547 N 2778.57 2.0005 -4.91983 0
M  V30 20548 C 2778.61 0.66501 -5.00098 0
M  V30 20549 C 2779.71 -0.0100979 -5.61099 0
M  V30 20550 C 2780.68 0.74189 -6.14236 0
M  V30 20551 H 2781.69 3.8874 -6.19774 0
M  V30 20552 H 2782.87 1.12673 -6.44018 0
M  V30 20553 H 2784.36 1.783 -8.19631 0
M  V30 20554 H 2782.66 3.21673 -9.66791 0
M  V30 20555 H 2782.47 0.901032 -10.1892 0
M  V30 20556 H 2780.84 1.33036 -9.56493 0
M  V30 20557 H 2779.76 -1.09591 -5.64358 0
M  V30 20558 H 2781.52 0.260263 -6.6359 0
M  V30 20559 H 2783.58 3.62759 -5.33442 0
M  V30 20560 P 2785.34 3.65191 -7.99657 0
M  V30 20561 O 2786.76 3.89332 -8.45794 0
M  V30 20562 O 2784.98 2.28472 -7.50807 0
M  V30 20563 O 2785.02 4.64972 -6.77611 0
M  V30 20564 C 2784.86 6.06319 -7.16352 0
M  V30 20565 C 2785.4 6.91731 -6.02299 0
M  V30 20566 O 2784.34 6.92449 -5.17064 0
M  V30 20567 C 2786.61 6.43627 -5.25174 0
M  V30 20568 O 2787.35 7.43686 -4.60469 0
M  V30 20569 C 2785.94 5.40275 -4.31916 0
M  V30 20570 O 2786.74 5.25279 -3.14438 0
M  V30 20571 C 2784.61 6.04847 -4.05327 0
M  V30 20572 H 2784.64 6.62195 -3.11261 0
M  V30 20573 H 2785.82 4.42556 -4.81383 0
M  V30 20574 H 2787.31 5.92458 -5.93643 0
M  V30 20575 H 2785.61 7.92655 -6.402 0
M  V30 20576 H 2785.42 6.26671 -8.0846 0
M  V30 20577 H 2783.79 6.29101 -7.32804 0
M  V30 20578 H 2786.43 5.84315 -2.47318 0
M  V30 20579 P 2788.29 7.39546 -4.75277 0
M  V30 20580 O 2789.71 7.84798 -5.01039 0
M  V30 20581 O 2787.93 5.9812 -5.08098 0
M  V30 20582 O 2787.97 7.57503 -3.1866 0
M  V30 20583 C 2787.81 8.97357 -2.74833 0
M  V30 20584 C 2788.35 9.07548 -1.32709 0
M  V30 20585 O 2787.29 8.62072 -0.606159 0
M  V30 20586 C 2789.56 8.25383 -0.938334 0
M  V30 20587 O 2790.3 8.74577 0.146954 0
M  V30 20588 C 2788.89 6.8802 -0.712559 0
M  V30 20589 O 2789.69 6.1189 0.194655 0
M  V30 20590 C 2787.56 7.27966 -0.139777 0
M  V30 20591 H 2787.59 7.25354 0.961601 0
M  V30 20592 H 2788.77 6.32557 -1.65702 0
M  V30 20593 H 2790.26 8.19355 -1.79097 0
M  V30 20594 H 2788.56 10.1294 -1.10029 0
M  V30 20595 H 2788.37 9.64276 -3.41316 0
M  V30 20596 H 2786.74 9.25417 -2.76357 0
M  V30 20597 H 2789.38 6.25267 1.07847 0
M  V30 20598 P 2791.24 8.791 -3.10101e-13 0
M  V30 20599 O 2792.66 9.31096 0.027933 0
M  V30 20600 O 2790.88 7.77869 -1.04071 0
M  V30 20601 O 2790.92 8.09533 1.41463 0
M  V30 20602 C 2790.76 9.0349 2.53943 0
M  V30 20603 C 2791.3 8.35226 3.79016 0
M  V30 20604 O 2790.24 7.57992 4.15078 0
M  V30 20605 C 2792.51 7.45087 3.67298 0
M  V30 20606 O 2793.25 7.27796 4.85194 0
M  V30 20607 C 2791.85 6.17323 3.12027 0
M  V30 20608 O 2792.64 5.04231 3.47188 0
M  V30 20609 C 2790.51 6.19961 3.81809 0
M  V30 20610 H 2790.54 5.58218 4.73051 0
M  V30 20611 H 2791.72 6.21726 2.02589 0
M  V30 20612 H 2793.21 7.86112 2.9231 0
M  V30 20613 H 2791.51 9.11627 4.55076 0
M  V30 20614 H 2791.32 9.9573 2.34194 0
M  V30 20615 H 2789.69 9.2792 2.67832 0
M  V30 20616 H 2792.33 4.67702 4.28772 0
M  V30 20617 P 2794.19 7.39546 4.75277 0
M  V30 20618 O 2795.61 7.81777 5.05738 0
M  V30 20619 O 2793.83 7.1065 3.32998 0
M  V30 20620 O 2793.87 6.04542 5.56673 0
M  V30 20621 C 2793.71 6.22772 7.02095 0
M  V30 20622 C 2794.25 4.97725 7.70406 0
M  V30 20623 O 2793.19 4.13256 7.58987 0
M  V30 20624 C 2795.46 4.28231 7.11815 0
M  V30 20625 O 2796.2 3.49945 8.01648 0
M  V30 20626 C 2794.8 3.5063 5.96244 0
M  V30 20627 O 2795.59 2.36482 5.64681 0
M  V30 20628 C 2793.46 3.15122 6.56374 0
M  V30 20629 H 2793.49 2.13853 6.99751 0
M  V30 20630 H 2794.67 4.13501 5.06559 0
M  V30 20631 H 2796.16 5.03285 6.70911 0
M  V30 20632 H 2794.46 5.20877 8.75697 0
M  V30 20633 H 2794.27 7.11046 7.35349 0
M  V30 20634 H 2792.64 6.35815 7.26986 0
M  V30 20635 H 2795.28 1.61644 6.13565 0
M  V30 20636 P 2797.14 3.65191 7.99657 0
M  V30 20637 O 2798.56 3.8425 8.48115 0
M  V30 20638 O 2796.78 4.17805 6.64342 0
M  V30 20639 O 2796.82 2.07613 7.95143 0
M  V30 20640 C 2796.66 1.44328 9.27336 0
M  V30 20641 C 2797.2 0.0220036 9.17197 0
M  V30 20642 O 2796.14 -0.626867 8.61923 0
M  V30 20643 C 2798.42 -0.24586 8.30336 0
M  V30 20644 O 2799.15 -1.39011 8.63583 0
M  V30 20645 C 2797.75 -0.273849 6.91158 0
M  V30 20646 O 2798.55 -1.06348 6.02892 0
M  V30 20647 C 2796.41 -0.897649 7.22545 0
M  V30 20648 H 2796.44 -1.9841 7.04286 0
M  V30 20649 H 2797.62 0.739928 6.497 0
M  V30 20650 H 2799.11 0.60668 8.36503 0
M  V30 20651 H 2797.41 -0.352479 10.1829 0
M  V30 20652 H 2797.22 2.00611 10.0304 0
M  V30 20653 H 2795.59 1.41843 9.55327 0
M  V30 20654 H 2798.23 -1.95734 6.03555 0
M  V30 20655 P 2800.09 -1.25109 8.70152 0
M  V30 20656 O 2801.51 -1.35274 9.21221 0
M  V30 20657 O 2799.73 -0.0769065 7.84762 0
M  V30 20658 O 2799.77 -2.55232 7.81161 0
M  V30 20659 C 2799.61 -3.79939 8.58154 0
M  V30 20660 C 2800.15 -4.94023 7.72785 0
M  V30 20661 O 2799.09 -5.18726 6.91205 0
M  V30 20662 C 2801.37 -4.69597 6.85231 0
M  V30 20663 O 2802.1 -5.83832 6.51337 0
M  V30 20664 C 2800.7 -3.96706 5.66633 0
M  V30 20665 O 2801.5 -4.15414 4.49689 0
M  V30 20666 C 2799.36 -4.66153 5.59313 0
M  V30 20667 H 2799.39 -5.47679 4.85214 0
M  V30 20668 H 2800.57 -2.89008 5.86566 0
M  V30 20669 H 2802.06 -4.0121 7.36511 0
M  V30 20670 H 2800.36 -5.80182 8.37584 0
M  V30 20671 H 2800.17 -3.73517 9.52265 0
M  V30 20672 H 2798.54 -3.97163 8.80359 0
M  V30 20673 H 2801.18 -4.90969 4.01921 0
M  V30 20674 P 2803.04 -5.75688 6.64379 0
M  V30 20675 O 2804.46 -6.11849 7.01846 0
M  V30 20676 O 2802.68 -4.30744 6.56026 0
M  V30 20677 O 2802.72 -6.37042 5.19165 0
M  V30 20678 C 2802.56 -7.83578 5.16515 0
M  V30 20679 C 2803.1 -8.33398 3.83019 0
M  V30 20680 O 2802.04 -8.10074 3.01034 0
M  V30 20681 C 2804.32 -7.65514 3.2257 0
M  V30 20682 O 2805.05 -8.4329 2.32297 0
M  V30 20683 C 2803.65 -6.40075 2.62207 0
M  V30 20684 O 2804.45 -5.92589 1.53712 0
M  V30 20685 C 2802.31 -6.9454 2.18503 0
M  V30 20686 H 2802.34 -7.23063 1.12091 0
M  V30 20687 H 2803.53 -5.6025 3.37201 0
M  V30 20688 H 2805.01 -7.35707 4.02681 0
M  V30 20689 H 2803.32 -9.40912 3.9095 0
M  V30 20690 H 2803.13 -8.29056 5.99158 0
M  V30 20691 H 2801.5 -8.10073 5.25882 0
M  V30 20692 H 2804.13 -6.30324 0.726794 0
M  V30 20693 P 2805.99 -8.4349 2.47671 0
M  V30 20694 O 2807.41 -8.94167 2.5964 0
M  V30 20695 O 2805.63 -7.1704 3.19006 0
M  V30 20696 O 2805.67 -8.16596 0.923387 0
M  V30 20697 C 2805.51 -9.38437 0.108857 0
M  V30 20698 C 2806.05 -9.08175 -1.28353 0
M  V30 20699 O 2804.99 -8.44229 -1.84713 0
M  V30 20700 C 2807.27 -8.18386 -1.42505 0
M  V30 20701 O 2808.01 -8.3501 -2.60497 0
M  V30 20702 C 2806.6 -6.80225 -1.25468 0
M  V30 20703 O 2807.4 -5.81621 -1.91066 0
M  V30 20704 C 2805.26 -7.02416 -1.9168 0
M  V30 20705 H 2805.29 -6.6888 -2.96621 0
M  V30 20706 H 2806.48 -6.53617 -0.192223 0
M  V30 20707 H 2807.96 -8.36622 -0.589963 0
M  V30 20708 H 2806.27 -10.0291 -1.79807 0
M  V30 20709 H 2806.08 -10.2138 0.558219 0
M  V30 20710 H 2804.45 -9.6579 0.0444202 0
M  V30 20711 H 2807.09 -5.69556 -2.79637 0
M  V30 20712 P 2808.94 -8.4349 -2.47671 0
M  V30 20713 O 2810.36 -8.92593 -2.65 0
M  V30 20714 O 2808.58 -7.7568 -1.19296 0
M  V30 20715 O 2808.62 -7.36886 -3.63805 0
M  V30 20716 C 2808.46 -7.95349 -4.982 0
M  V30 20717 C 2809 -6.94612 -5.98974 0
M  V30 20718 O 2807.94 -6.10347 -6.11815 0
M  V30 20719 C 2810.22 -6.11426 -5.62335 0
M  V30 20720 O 2810.96 -5.6162 -6.70584 0
M  V30 20721 C 2809.55 -5.04409 -4.73308 0
M  V30 20722 O 2810.35 -3.85992 -4.75183 0
M  V30 20723 C 2808.21 -4.8728 -5.41006 0
M  V30 20724 H 2808.24 -4.02333 -6.11157 0
M  V30 20725 H 2809.43 -5.39466 -3.69543 0
M  V30 20726 H 2810.91 -6.71916 -5.01943 0
M  V30 20727 H 2809.22 -7.4649 -6.93477 0
M  V30 20728 H 2809.03 -8.89416 -5.05237 0
M  V30 20729 H 2807.4 -8.14876 -5.18409 0
M  V30 20730 H 2810.04 -3.27957 -5.4317 0
M  V30 20731 P 2811.89 -5.75688 -6.64379 0
M  V30 20732 O 2813.32 -6.07627 -7.05504 0
M  V30 20733 O 2811.53 -5.88047 -5.19722 0
M  V30 20734 O 2811.57 -4.2322 -7.04443 0
M  V30 20735 C 2811.41 -3.99743 -8.4911 0
M  V30 20736 C 2811.95 -2.60516 -8.79425 0
M  V30 20737 O 2810.89 -1.82684 -8.4467 0
M  V30 20738 C 2813.17 -2.10343 -8.03628 0
M  V30 20739 O 2813.91 -1.09919 -8.67766 0
M  V30 20740 C 2812.5 -1.68446 -6.70876 0
M  V30 20741 O 2813.3 -0.678137 -6.08433 0
M  V30 20742 C 2811.16 -1.17436 -7.18567 0
M  V30 20743 H 2811.19 -0.0804732 -7.31656 0
M  V30 20744 H 2812.38 -2.54037 -6.02537 0
M  V30 20745 H 2813.86 -2.93881 -7.85526 0
M  V30 20746 H 2812.17 -2.53065 -9.86973 0
M  V30 20747 H 2811.98 -4.75072 -9.05887 0
M  V30 20748 H 2810.35 -4.05244 -8.76668 0
M  V30 20749 H 2812.99 0.177647 -6.34251 0
M  V30 20750 P 2814.84 -1.25109 -8.70152 0
M  V30 20751 O 2816.27 -1.29744 -9.22016 0
M  V30 20752 O 2814.48 -2.13714 -7.55141 0
M  V30 20753 O 2814.52 0.248149 -8.21425 0
M  V30 20754 C 2814.36 1.22779 -9.30434 0
M  V30 20755 C 2814.9 2.56293 -8.80664 0
M  V30 20756 O 2813.84 3.02979 -8.09349 0
M  V30 20757 C 2816.12 2.57523 -7.89775 0
M  V30 20758 O 2816.86 3.7668 -7.89438 0
M  V30 20759 C 2815.45 2.20997 -6.55446 0
M  V30 20760 O 2816.25 2.71895 -5.48509 0
M  V30 20761 C 2814.11 2.89693 -6.67988 0
M  V30 20762 H 2814.14 3.88793 -6.19859 0
M  V30 20763 H 2815.33 1.12046 -6.44229 0
M  V30 20764 H 2816.81 1.7746 -8.19711 0
M  V30 20765 H 2815.12 3.20706 -9.67112 0
M  V30 20766 H 2814.93 0.901032 -10.1892 0
M  V30 20767 H 2813.3 1.33049 -9.56592 0
M  V30 20768 H 2815.94 3.57847 -5.23962 0
M  V30 20769 P 2817.79 3.65191 -7.99657 0
M  V30 20770 O 2819.22 3.89374 -8.45885 0
M  V30 20771 O 2817.43 2.28472 -7.50807 0
M  V30 20772 O 2817.47 4.64972 -6.77611 0
M  V30 20773 C 2817.31 6.06383 -7.16428 0
M  V30 20774 C 2817.85 6.91731 -6.02299 0
M  V30 20775 O 2816.8 6.92369 -5.17005 0
M  V30 20776 C 2819.07 6.43627 -5.25174 0
M  V30 20777 O 2819.81 7.43686 -4.60469 0
M  V30 20778 C 2818.4 5.40275 -4.31916 0
M  V30 20779 O 2819.2 5.24878 -3.14911 0
M  V30 20780 C 2817.06 6.04847 -4.05327 0
M  V30 20781 N 2816.02 5.04166 -3.98114 0
M  V30 20782 C 2816.19 3.84629 -4.59066 0
M  V30 20783 N 2815.16 3.0363 -4.45343 0
M  V30 20784 C 2814.28 3.76722 -3.68523 0
M  V30 20785 C 2813.01 3.43528 -3.17088 0
M  V30 20786 N 2812.45 4.44526 -2.44231 0
M  V30 20787 C 2813.05 5.65243 -2.20146 0
M  V30 20788 N 2814.22 6.00221 -2.65453 0
M  V30 20789 C 2814.8 5.00564 -3.39083 0
M  V30 20790 H 2818.28 4.42969 -4.80867 0
M  V30 20791 H 2819.76 5.92458 -5.93643 0
M  V30 20792 H 2818.07 7.93295 -6.39407 0
M  V30 20793 H 2817.88 6.26671 -8.0846 0
M  V30 20794 H 2816.25 6.29101 -7.32804 0
M  V30 20795 H 2817.09 3.58193 -5.14248 0
M  V30 20796 H 2818.89 5.84223 -2.47279 0
M  V30 20797 P 2820.74 7.39546 -4.75277 0
M  V30 20798 O 2822.17 7.84798 -5.01039 0
M  V30 20799 O 2820.38 5.9812 -5.08098 0
M  V30 20800 O 2820.42 7.57503 -3.1866 0
M  V30 20801 C 2820.26 8.97357 -2.74833 0
M  V30 20802 C 2820.8 9.07548 -1.32709 0
M  V30 20803 O 2819.75 8.62072 -0.606159 0
M  V30 20804 C 2822.02 8.25383 -0.938334 0
M  V30 20805 O 2822.76 8.74577 0.146954 0
M  V30 20806 C 2821.35 6.8802 -0.712559 0
M  V30 20807 O 2822.15 6.1189 0.194655 0
M  V30 20808 C 2820.01 7.27966 -0.139777 0
M  V30 20809 H 2820.05 7.25354 0.961601 0
M  V30 20810 H 2821.23 6.32557 -1.65702 0
M  V30 20811 H 2822.71 8.19355 -1.79097 0
M  V30 20812 H 2821.02 10.1294 -1.10029 0
M  V30 20813 H 2820.83 9.64276 -3.41316 0
M  V30 20814 H 2819.2 9.25417 -2.76357 0
M  V30 20815 H 2821.84 6.25267 1.07847 0
M  V30 20816 P 2823.7 8.791 -5.49675e-12 0
M  V30 20817 O 2825.12 9.31096 0.027933 0
M  V30 20818 O 2823.34 7.77869 -1.04071 0
M  V30 20819 O 2823.37 8.09533 1.41463 0
M  V30 20820 C 2823.21 9.0349 2.53943 0
M  V30 20821 C 2823.75 8.35226 3.79016 0
M  V30 20822 O 2822.7 7.57992 4.15078 0
M  V30 20823 C 2824.97 7.45087 3.67298 0
M  V30 20824 O 2825.71 7.27796 4.85194 0
M  V30 20825 C 2824.3 6.17323 3.12027 0
M  V30 20826 O 2825.1 5.04231 3.47188 0
M  V30 20827 C 2822.96 6.19961 3.81809 0
M  V30 20828 H 2823 5.58218 4.73051 0
M  V30 20829 H 2824.18 6.21726 2.02589 0
M  V30 20830 H 2825.66 7.86112 2.9231 0
M  V30 20831 H 2823.97 9.11627 4.55076 0
M  V30 20832 H 2823.78 9.9573 2.34194 0
M  V30 20833 H 2822.15 9.2792 2.67832 0
M  V30 20834 H 2824.79 4.67702 4.28772 0
M  V30 20835 P 2826.65 7.39546 4.75277 0
M  V30 20836 O 2828.07 7.81777 5.05738 0
M  V30 20837 O 2826.29 7.1065 3.32998 0
M  V30 20838 O 2826.32 6.04542 5.56673 0
M  V30 20839 C 2826.16 6.22772 7.02095 0
M  V30 20840 C 2826.7 4.97725 7.70406 0
M  V30 20841 O 2825.65 4.13256 7.58987 0
M  V30 20842 C 2827.92 4.28231 7.11815 0
M  V30 20843 O 2828.66 3.49945 8.01648 0
M  V30 20844 C 2827.25 3.5063 5.96244 0
M  V30 20845 O 2828.05 2.36482 5.64681 0
M  V30 20846 C 2825.92 3.15122 6.56374 0
M  V30 20847 H 2825.95 2.13853 6.99751 0
M  V30 20848 H 2827.13 4.13501 5.06559 0
M  V30 20849 H 2828.61 5.03285 6.70911 0
M  V30 20850 H 2826.92 5.20877 8.75697 0
M  V30 20851 H 2826.73 7.11046 7.35349 0
M  V30 20852 H 2825.1 6.35815 7.26986 0
M  V30 20853 H 2827.74 1.61644 6.13565 0
M  V30 20854 P 2829.6 3.65191 7.99657 0
M  V30 20855 O 2831.02 3.8425 8.48115 0
M  V30 20856 O 2829.24 4.17805 6.64342 0
M  V30 20857 O 2829.27 2.07613 7.95143 0
M  V30 20858 C 2829.11 1.44328 9.27336 0
M  V30 20859 C 2829.65 0.0220036 9.17197 0
M  V30 20860 O 2828.6 -0.626867 8.61923 0
M  V30 20861 C 2830.87 -0.24586 8.30336 0
M  V30 20862 O 2831.61 -1.39011 8.63583 0
M  V30 20863 C 2830.2 -0.273849 6.91158 0
M  V30 20864 O 2831 -1.06348 6.02892 0
M  V30 20865 C 2828.87 -0.897649 7.22545 0
M  V30 20866 H 2828.9 -1.9841 7.04286 0
M  V30 20867 H 2830.08 0.739928 6.497 0
M  V30 20868 H 2831.56 0.60668 8.36503 0
M  V30 20869 H 2829.87 -0.352479 10.1829 0
M  V30 20870 H 2829.68 2.00611 10.0304 0
M  V30 20871 H 2828.05 1.41843 9.55327 0
M  V30 20872 H 2830.69 -1.95734 6.03555 0
M  V30 20873 P 2832.55 -1.25109 8.70152 0
M  V30 20874 O 2833.97 -1.35288 9.2132 0
M  V30 20875 O 2832.19 -0.0769065 7.84762 0
M  V30 20876 O 2832.22 -2.55232 7.81161 0
M  V30 20877 C 2832.06 -3.79979 8.58246 0
M  V30 20878 C 2832.6 -4.94023 7.72785 0
M  V30 20879 O 2831.55 -5.18666 6.91125 0
M  V30 20880 C 2833.82 -4.69597 6.85231 0
M  V30 20881 O 2834.56 -5.83832 6.51337 0
M  V30 20882 C 2833.15 -3.96706 5.66633 0
M  V30 20883 O 2833.95 -4.14896 4.5003 0
M  V30 20884 C 2831.82 -4.66153 5.59313 0
M  V30 20885 N 2830.77 -3.71582 5.24027 0
M  V30 20886 C 2830.94 -2.39715 5.48833 0
M  V30 20887 N 2829.92 -1.65863 5.12845 0
M  V30 20888 C 2829.03 -2.57637 4.5973 0
M  V30 20889 C 2827.76 -2.40278 4.01027 0
M  V30 20890 N 2827.16 -1.19549 3.86744 0
M  V30 20891 N 2827.2 -3.57711 3.59575 0
M  V30 20892 C 2827.8 -4.80324 3.70476 0
M  V30 20893 N 2828.98 -5.01121 4.23801 0
M  V30 20894 C 2829.55 -3.84757 4.66372 0
M  V30 20895 H 2831.85 -5.47604 4.85148 0
M  V30 20896 H 2833.03 -2.8955 5.86187 0
M  V30 20897 H 2834.51 -4.0121 7.36511 0
M  V30 20898 H 2832.82 -5.81019 8.37003 0
M  V30 20899 H 2832.63 -3.73517 9.52265 0
M  V30 20900 H 2831 -3.97163 8.80359 0
M  V30 20901 H 2827.26 -5.66348 3.3183 0
M  V30 20902 H 2831.84 -1.98804 5.94332 0
M  V30 20903 H 2826.23 -1.13147 3.4281 0
M  V30 20904 H 2827.64 -0.344074 4.19692 0
M  V30 20905 H 2833.64 -4.90891 4.01857 0
M  V30 20906 P 2835.5 -5.75688 6.64379 0
M  V30 20907 O 2836.92 -6.11849 7.01846 0
M  V30 20908 O 2835.14 -4.30744 6.56026 0
M  V30 20909 O 2835.17 -6.37042 5.19165 0
M  V30 20910 C 2835.01 -7.83578 5.16515 0
M  V30 20911 C 2835.55 -8.33398 3.83019 0
M  V30 20912 O 2834.5 -8.10074 3.01034 0
M  V30 20913 C 2836.77 -7.65514 3.2257 0
M  V30 20914 O 2837.51 -8.4329 2.32297 0
M  V30 20915 C 2836.1 -6.40075 2.62207 0
M  V30 20916 O 2836.9 -5.92589 1.53712 0
M  V30 20917 C 2834.77 -6.9454 2.18503 0
M  V30 20918 H 2834.8 -7.23063 1.12091 0
M  V30 20919 H 2835.98 -5.6025 3.37201 0
M  V30 20920 H 2837.47 -7.35707 4.02681 0
M  V30 20921 H 2835.77 -9.40912 3.9095 0
M  V30 20922 H 2835.58 -8.29056 5.99158 0
M  V30 20923 H 2833.95 -8.10073 5.25882 0
M  V30 20924 H 2836.59 -6.30324 0.726794 0
M  V30 20925 P 2838.45 -8.4349 2.47671 0
M  V30 20926 O 2839.87 -8.94167 2.5964 0
M  V30 20927 O 2838.09 -7.1704 3.19006 0
M  V30 20928 O 2838.13 -8.16596 0.923387 0
M  V30 20929 C 2837.97 -9.38437 0.108857 0
M  V30 20930 C 2838.51 -9.08175 -1.28353 0
M  V30 20931 O 2837.45 -8.44229 -1.84713 0
M  V30 20932 C 2839.72 -8.18386 -1.42505 0
M  V30 20933 O 2840.46 -8.3501 -2.60497 0
M  V30 20934 C 2839.05 -6.80225 -1.25468 0
M  V30 20935 O 2839.85 -5.81621 -1.91066 0
M  V30 20936 C 2837.72 -7.02416 -1.9168 0
M  V30 20937 H 2837.75 -6.6888 -2.96621 0
M  V30 20938 H 2838.93 -6.53617 -0.192223 0
M  V30 20939 H 2840.42 -8.36622 -0.589963 0
M  V30 20940 H 2838.72 -10.0291 -1.79807 0
M  V30 20941 H 2838.53 -10.2138 0.558219 0
M  V30 20942 H 2836.9 -9.6579 0.0444202 0
M  V30 20943 H 2839.54 -5.69556 -2.79637 0
M  V30 20944 P 2841.4 -8.4349 -2.47671 0
M  V30 20945 O 2842.82 -8.92785 -2.65057 0
M  V30 20946 O 2841.04 -7.7568 -1.19296 0
M  V30 20947 O 2841.08 -7.36886 -3.63805 0
M  V30 20948 C 2840.92 -7.95349 -4.982 0
M  V30 20949 C 2841.46 -6.94537 -5.98908 0
M  V30 20950 O 2840.4 -6.10347 -6.11815 0
M  V30 20951 C 2842.67 -6.11426 -5.62335 0
M  V30 20952 O 2843.41 -5.6162 -6.70584 0
M  V30 20953 C 2842.01 -5.04409 -4.73308 0
M  V30 20954 O 2842.8 -3.85929 -4.75106 0
M  V30 20955 C 2840.67 -4.8728 -5.41006 0
M  V30 20956 N 2839.62 -4.65812 -4.42377 0
M  V30 20957 C 2839.69 -5.27109 -3.24335 0
M  V30 20958 N 2838.64 -4.94293 -2.47735 0
M  V30 20959 C 2837.91 -4.1271 -3.23359 0
M  V30 20960 C 2836.6 -3.56384 -2.99934 0
M  V30 20961 O 2835.87 -3.69331 -2.00616 0
M  V30 20962 N 2836.17 -2.80206 -4.03316 0
M  V30 20963 C 2836.92 -2.58614 -5.2172 0
M  V30 20964 N 2836.32 -1.75154 -6.13278 0
M  V30 20965 N 2838.07 -3.13689 -5.47619 0
M  V30 20966 C 2838.53 -3.90921 -4.46436 0
M  V30 20967 H 2840.7 -4.02333 -6.11157 0
M  V30 20968 H 2841.88 -5.39383 -3.69487 0
M  V30 20969 H 2843.37 -6.71414 -5.02615 0
M  V30 20970 H 2841.67 -7.4649 -6.93477 0
M  V30 20971 H 2841.48 -8.89416 -5.05237 0
M  V30 20972 H 2839.85 -8.14876 -5.18409 0
M  V30 20973 H 2835.28 -2.36355 -3.95916 0
M  V30 20974 H 2840.48 -5.95212 -2.93859 0
M  V30 20975 H 2835.41 -1.32473 -5.91856 0
M  V30 20976 H 2836.79 -1.5588 -7.03026 0
M  V30 20977 H 2842.49 -3.27906 -5.43085 0
M  V30 20978 P 2844.35 -5.75688 -6.64379 0
M  V30 20979 O 2845.77 -6.07627 -7.05504 0
M  V30 20980 O 2843.99 -5.88047 -5.19722 0
M  V30 20981 O 2844.03 -4.2322 -7.04443 0
M  V30 20982 C 2843.87 -3.99743 -8.4911 0
M  V30 20983 C 2844.41 -2.60516 -8.79425 0
M  V30 20984 O 2843.35 -1.82684 -8.4467 0
M  V30 20985 C 2845.62 -2.10343 -8.03628 0
M  V30 20986 O 2846.36 -1.09919 -8.67766 0
M  V30 20987 C 2844.96 -1.68446 -6.70876 0
M  V30 20988 O 2845.75 -0.678137 -6.08433 0
M  V30 20989 C 2843.62 -1.17436 -7.18567 0
M  V30 20990 H 2843.65 -0.0804732 -7.31656 0
M  V30 20991 H 2844.83 -2.54037 -6.02537 0
M  V30 20992 H 2846.32 -2.93881 -7.85526 0
M  V30 20993 H 2844.62 -2.53065 -9.86973 0
M  V30 20994 H 2844.43 -4.75072 -9.05887 0
M  V30 20995 H 2842.8 -4.05244 -8.76668 0
M  V30 20996 H 2845.44 0.177647 -6.34251 0
M  V30 20997 P 2847.3 -1.25109 -8.70152 0
M  V30 20998 O 2848.72 -1.29744 -9.22016 0
M  V30 20999 O 2846.94 -2.13714 -7.55141 0
M  V30 21000 O 2846.98 0.248149 -8.21425 0
M  V30 21001 C 2846.82 1.22779 -9.30434 0
M  V30 21002 C 2847.36 2.56293 -8.80664 0
M  V30 21003 O 2846.3 3.02979 -8.09349 0
M  V30 21004 C 2848.58 2.57523 -7.89775 0
M  V30 21005 O 2849.31 3.7668 -7.89438 0
M  V30 21006 C 2847.91 2.20997 -6.55446 0
M  V30 21007 O 2848.71 2.71895 -5.48509 0
M  V30 21008 C 2846.57 2.89693 -6.67988 0
M  V30 21009 H 2846.6 3.88793 -6.19859 0
M  V30 21010 H 2847.78 1.12046 -6.44229 0
M  V30 21011 H 2849.27 1.7746 -8.19711 0
M  V30 21012 H 2847.57 3.20706 -9.67112 0
M  V30 21013 H 2847.38 0.901032 -10.1892 0
M  V30 21014 H 2845.75 1.33049 -9.56592 0
M  V30 21015 H 2848.39 3.57847 -5.23962 0
M  V30 21016 P 2850.25 3.65191 -7.99657 0
M  V30 21017 O 2851.67 3.89332 -8.45794 0
M  V30 21018 O 2849.89 2.28472 -7.50807 0
M  V30 21019 O 2849.93 4.64972 -6.77611 0
M  V30 21020 C 2849.77 6.06319 -7.16352 0
M  V30 21021 C 2850.31 6.91731 -6.02299 0
M  V30 21022 O 2849.25 6.92449 -5.17064 0
M  V30 21023 C 2851.53 6.43627 -5.25174 0
M  V30 21024 O 2852.26 7.43686 -4.60469 0
M  V30 21025 C 2850.86 5.40275 -4.31916 0
M  V30 21026 O 2851.66 5.25279 -3.14438 0
M  V30 21027 C 2849.52 6.04847 -4.05327 0
M  V30 21028 H 2849.55 6.62195 -3.11261 0
M  V30 21029 H 2850.73 4.42556 -4.81383 0
M  V30 21030 H 2852.22 5.92458 -5.93643 0
M  V30 21031 H 2850.52 7.92655 -6.402 0
M  V30 21032 H 2850.33 6.26671 -8.0846 0
M  V30 21033 H 2848.7 6.29101 -7.32804 0
M  V30 21034 H 2851.34 5.84315 -2.47318 0
M  V30 21035 P 2853.2 7.39546 -4.75277 0
M  V30 21036 O 2854.62 7.84798 -5.01039 0
M  V30 21037 O 2852.84 5.9812 -5.08098 0
M  V30 21038 O 2852.88 7.57503 -3.1866 0
M  V30 21039 C 2852.72 8.97357 -2.74833 0
M  V30 21040 C 2853.26 9.07548 -1.32709 0
M  V30 21041 O 2852.2 8.62072 -0.606159 0
M  V30 21042 C 2854.48 8.25383 -0.938334 0
M  V30 21043 O 2855.21 8.74577 0.146954 0
M  V30 21044 C 2853.81 6.8802 -0.712559 0
M  V30 21045 O 2854.61 6.1189 0.194655 0
M  V30 21046 C 2852.47 7.27966 -0.139777 0
M  V30 21047 H 2852.5 7.25354 0.961601 0
M  V30 21048 H 2853.69 6.32557 -1.65702 0
M  V30 21049 H 2855.17 8.19355 -1.79097 0
M  V30 21050 H 2853.48 10.1294 -1.10029 0
M  V30 21051 H 2853.29 9.64276 -3.41316 0
M  V30 21052 H 2851.66 9.25417 -2.76357 0
M  V30 21053 H 2854.29 6.25267 1.07847 0
M  V30 21054 P 2856.15 8.791 -1.06834e-11 0
M  V30 21055 O 2857.57 9.31096 0.027933 0
M  V30 21056 O 2855.79 7.77869 -1.04071 0
M  V30 21057 O 2855.83 8.09533 1.41463 0
M  V30 21058 C 2855.67 9.0349 2.53943 0
M  V30 21059 C 2856.21 8.35226 3.79016 0
M  V30 21060 O 2855.15 7.57992 4.15078 0
M  V30 21061 C 2857.43 7.45087 3.67298 0
M  V30 21062 O 2858.16 7.27796 4.85194 0
M  V30 21063 C 2856.76 6.17323 3.12027 0
M  V30 21064 O 2857.56 5.04231 3.47188 0
M  V30 21065 C 2855.42 6.19961 3.81809 0
M  V30 21066 H 2855.45 5.58218 4.73051 0
M  V30 21067 H 2856.64 6.21726 2.02589 0
M  V30 21068 H 2858.12 7.86112 2.9231 0
M  V30 21069 H 2856.43 9.11627 4.55076 0
M  V30 21070 H 2856.24 9.9573 2.34194 0
M  V30 21071 H 2854.61 9.2792 2.67832 0
M  V30 21072 H 2857.24 4.67702 4.28772 0
M  V30 21073 P 2859.1 7.39546 4.75277 0
M  V30 21074 O 2860.52 7.81777 5.05738 0
M  V30 21075 O 2858.74 7.1065 3.32998 0
M  V30 21076 O 2858.78 6.04542 5.56673 0
M  V30 21077 C 2858.62 6.22772 7.02095 0
M  V30 21078 C 2859.16 4.97725 7.70406 0
M  V30 21079 O 2858.1 4.13256 7.58987 0
M  V30 21080 C 2860.38 4.28231 7.11815 0
M  V30 21081 O 2861.12 3.49945 8.01648 0
M  V30 21082 C 2859.71 3.5063 5.96244 0
M  V30 21083 O 2860.51 2.36482 5.64681 0
M  V30 21084 C 2858.37 3.15122 6.56374 0
M  V30 21085 H 2858.4 2.13853 6.99751 0
M  V30 21086 H 2859.59 4.13501 5.06559 0
M  V30 21087 H 2861.07 5.03285 6.70911 0
M  V30 21088 H 2859.38 5.20877 8.75697 0
M  V30 21089 H 2859.19 7.11046 7.35349 0
M  V30 21090 H 2857.56 6.35815 7.26986 0
M  V30 21091 H 2860.2 1.61644 6.13565 0
M  V30 21092 P 2862.05 3.65191 7.99657 0
M  V30 21093 O 2863.47 3.8425 8.48115 0
M  V30 21094 O 2861.69 4.17805 6.64342 0
M  V30 21095 O 2861.73 2.07613 7.95143 0
M  V30 21096 C 2861.57 1.44328 9.27336 0
M  V30 21097 C 2862.11 0.0220036 9.17197 0
M  V30 21098 O 2861.05 -0.626867 8.61923 0
M  V30 21099 C 2863.33 -0.24586 8.30336 0
M  V30 21100 O 2864.07 -1.39011 8.63583 0
M  V30 21101 C 2862.66 -0.273849 6.91158 0
M  V30 21102 O 2863.46 -1.06348 6.02892 0
M  V30 21103 C 2861.32 -0.897649 7.22545 0
M  V30 21104 H 2861.35 -1.9841 7.04286 0
M  V30 21105 H 2862.54 0.739928 6.497 0
M  V30 21106 H 2864.02 0.60668 8.36503 0
M  V30 21107 H 2862.33 -0.352479 10.1829 0
M  V30 21108 H 2862.14 2.00611 10.0304 0
M  V30 21109 H 2860.51 1.41843 9.55327 0
M  V30 21110 H 2863.15 -1.95734 6.03555 0
M  V30 21111 P 2865 -1.25109 8.70152 0
M  V30 21112 O 2866.43 -1.35274 9.21221 0
M  V30 21113 O 2864.64 -0.0769065 7.84762 0
M  V30 21114 O 2864.68 -2.55232 7.81161 0
M  V30 21115 C 2864.52 -3.79939 8.58154 0
M  V30 21116 C 2865.06 -4.94023 7.72785 0
M  V30 21117 O 2864 -5.18726 6.91205 0
M  V30 21118 C 2866.28 -4.69597 6.85231 0
M  V30 21119 O 2867.02 -5.83832 6.51337 0
M  V30 21120 C 2865.61 -3.96706 5.66633 0
M  V30 21121 O 2866.41 -4.15414 4.49689 0
M  V30 21122 C 2864.27 -4.66153 5.59313 0
M  V30 21123 H 2864.3 -5.47679 4.85214 0
M  V30 21124 H 2865.49 -2.89008 5.86566 0
M  V30 21125 H 2866.97 -4.0121 7.36511 0
M  V30 21126 H 2865.28 -5.80182 8.37584 0
M  V30 21127 H 2865.09 -3.73517 9.52265 0
M  V30 21128 H 2863.46 -3.97163 8.80359 0
M  V30 21129 H 2866.1 -4.90969 4.01921 0
M  V30 21130 P 2867.95 -5.75688 6.64379 0
M  V30 21131 O 2869.38 -6.11915 7.01921 0
M  V30 21132 O 2867.59 -4.30744 6.56026 0
M  V30 21133 O 2867.63 -6.37042 5.19165 0
M  V30 21134 C 2867.47 -7.83662 5.1657 0
M  V30 21135 C 2868.01 -8.33398 3.83019 0
M  V30 21136 O 2866.96 -8.0998 3.00999 0
M  V30 21137 C 2869.23 -7.65514 3.2257 0
M  V30 21138 O 2869.97 -8.4329 2.32297 0
M  V30 21139 C 2868.56 -6.40075 2.62207 0
M  V30 21140 O 2869.36 -5.92338 1.5428 0
M  V30 21141 C 2867.22 -6.9454 2.18503 0
M  V30 21142 N 2866.18 -5.95905 2.39948 0
M  V30 21143 C 2866.35 -4.98383 3.32108 0
M  V30 21144 N 2865.32 -4.16798 3.41761 0
M  V30 21145 C 2864.44 -4.65287 2.47461 0
M  V30 21146 C 2863.17 -4.18946 2.07461 0
M  V30 21147 N 2862.57 -3.09661 2.60717 0
M  V30 21148 N 2862.61 -4.95327 1.09101 0
M  V30 21149 C 2863.21 -6.04369 0.519812 0
M  V30 21150 N 2864.38 -6.50694 0.855982 0
M  V30 21151 C 2864.96 -5.75818 1.84322 0
M  V30 21152 H 2867.26 -7.22964 1.12076 0
M  V30 21153 H 2868.44 -5.60502 3.36589 0
M  V30 21154 H 2869.92 -7.35707 4.02681 0
M  V30 21155 H 2868.23 -9.41302 3.90009 0
M  V30 21156 H 2868.04 -8.29056 5.99158 0
M  V30 21157 H 2866.41 -8.10073 5.25882 0
M  V30 21158 H 2862.67 -6.55843 -0.270373 0
M  V30 21159 H 2867.25 -4.88564 3.92502 0
M  V30 21160 H 2861.64 -2.80523 2.27218 0
M  V30 21161 H 2863.05 -2.55848 3.34465 0
M  V30 21162 H 2869.05 -6.30224 0.72668 0
M  V30 21163 P 2870.9 -8.4349 2.47671 0
M  V30 21164 O 2872.33 -8.94167 2.5964 0
M  V30 21165 O 2870.54 -7.1704 3.19006 0
M  V30 21166 O 2870.58 -8.16596 0.923387 0
M  V30 21167 C 2870.42 -9.38437 0.108857 0
M  V30 21168 C 2870.96 -9.08175 -1.28353 0
M  V30 21169 O 2869.91 -8.44229 -1.84713 0
M  V30 21170 C 2872.18 -8.18386 -1.42505 0
M  V30 21171 O 2872.92 -8.3501 -2.60497 0
M  V30 21172 C 2871.51 -6.80225 -1.25468 0
M  V30 21173 O 2872.31 -5.81621 -1.91066 0
M  V30 21174 C 2870.17 -7.02416 -1.9168 0
M  V30 21175 H 2870.21 -6.6888 -2.96621 0
M  V30 21176 H 2871.39 -6.53617 -0.192223 0
M  V30 21177 H 2872.87 -8.36622 -0.589963 0
M  V30 21178 H 2871.18 -10.0291 -1.79807 0
M  V30 21179 H 2870.99 -10.2138 0.558219 0
M  V30 21180 H 2869.36 -9.6579 0.0444202 0
M  V30 21181 H 2872 -5.69556 -2.79637 0
M  V30 21182 P 2873.86 -8.4349 -2.47671 0
M  V30 21183 O 2875.28 -8.92593 -2.65 0
M  V30 21184 O 2873.5 -7.7568 -1.19296 0
M  V30 21185 O 2873.53 -7.36886 -3.63805 0
M  V30 21186 C 2873.37 -7.95349 -4.982 0
M  V30 21187 C 2873.91 -6.94612 -5.98974 0
M  V30 21188 O 2872.86 -6.10347 -6.11815 0
M  V30 21189 C 2875.13 -6.11426 -5.62335 0
M  V30 21190 O 2875.87 -5.6162 -6.70584 0
M  V30 21191 C 2874.46 -5.04409 -4.73308 0
M  V30 21192 O 2875.26 -3.85992 -4.75183 0
M  V30 21193 C 2873.12 -4.8728 -5.41006 0
M  V30 21194 H 2873.16 -4.02333 -6.11157 0
M  V30 21195 H 2874.34 -5.39466 -3.69543 0
M  V30 21196 H 2875.82 -6.71916 -5.01943 0
M  V30 21197 H 2874.13 -7.4649 -6.93477 0
M  V30 21198 H 2873.94 -8.89416 -5.05237 0
M  V30 21199 H 2872.31 -8.14876 -5.18409 0
M  V30 21200 H 2874.95 -3.27957 -5.4317 0
M  V30 21201 P 2876.81 -5.75688 -6.64379 0
M  V30 21202 O 2878.23 -6.07627 -7.05504 0
M  V30 21203 O 2876.45 -5.88047 -5.19722 0
M  V30 21204 O 2876.48 -4.2322 -7.04443 0
M  V30 21205 C 2876.32 -3.99743 -8.4911 0
M  V30 21206 C 2876.86 -2.60516 -8.79425 0
M  V30 21207 O 2875.81 -1.82684 -8.4467 0
M  V30 21208 C 2878.08 -2.10343 -8.03628 0
M  V30 21209 O 2878.82 -1.09919 -8.67766 0
M  V30 21210 C 2877.41 -1.68446 -6.70876 0
M  V30 21211 O 2878.21 -0.678137 -6.08433 0
M  V30 21212 C 2876.07 -1.17436 -7.18567 0
M  V30 21213 H 2876.11 -0.0804732 -7.31656 0
M  V30 21214 H 2877.29 -2.54037 -6.02537 0
M  V30 21215 H 2878.77 -2.93881 -7.85526 0
M  V30 21216 H 2877.08 -2.53065 -9.86973 0
M  V30 21217 H 2876.89 -4.75072 -9.05887 0
M  V30 21218 H 2875.26 -4.05244 -8.76668 0
M  V30 21219 H 2877.9 0.177647 -6.34251 0
M  V30 21220 P 2879.76 -1.25109 -8.70152 0
M  V30 21221 O 2881.18 -1.29772 -9.22214 0
M  V30 21222 O 2879.4 -2.13714 -7.55141 0
M  V30 21223 O 2879.43 0.248149 -8.21425 0
M  V30 21224 C 2879.27 1.22779 -9.30434 0
M  V30 21225 C 2879.81 2.56265 -8.80568 0
M  V30 21226 O 2878.76 3.02979 -8.09349 0
M  V30 21227 C 2881.03 2.57523 -7.89775 0
M  V30 21228 O 2881.77 3.7668 -7.89438 0
M  V30 21229 C 2880.36 2.20997 -6.55446 0
M  V30 21230 O 2881.16 2.71851 -5.48419 0
M  V30 21231 C 2879.03 2.89693 -6.67988 0
M  V30 21232 N 2877.98 2.08895 -6.07487 0
M  V30 21233 C 2878.04 0.760559 -6.14209 0
M  V30 21234 N 2877 0.200108 -5.52538 0
M  V30 21235 C 2876.27 1.22692 -5.09742 0
M  V30 21236 C 2874.96 1.24782 -4.48775 0
M  V30 21237 O 2874.23 0.290617 -4.19294 0
M  V30 21238 N 2874.53 2.50468 -4.22428 0
M  V30 21239 C 2875.28 3.67142 -4.51974 0
M  V30 21240 N 2874.68 4.85096 -4.14091 0
M  V30 21241 N 2876.43 3.67821 -5.12831 0
M  V30 21242 C 2876.89 2.43698 -5.4105 0
M  V30 21243 H 2879.06 3.88793 -6.19859 0
M  V30 21244 H 2880.24 1.12029 -6.4413 0
M  V30 21245 H 2881.73 1.78279 -8.19533 0
M  V30 21246 H 2880.03 3.20706 -9.67112 0
M  V30 21247 H 2879.84 0.901032 -10.1892 0
M  V30 21248 H 2878.21 1.33049 -9.56592 0
M  V30 21249 H 2873.63 2.61953 -3.79465 0
M  V30 21250 H 2878.84 0.200439 -6.63497 0
M  V30 21251 H 2873.77 4.8334 -3.66367 0
M  V30 21252 H 2875.15 5.7474 -4.33841 0
M  V30 21253 H 2880.85 3.5779 -5.23879 0
M  V30 21254 P 2882.71 3.65191 -7.99657 0
M  V30 21255 O 2884.13 3.89332 -8.45794 0
M  V30 21256 O 2882.35 2.28472 -7.50807 0
M  V30 21257 O 2882.38 4.64972 -6.77611 0
M  V30 21258 C 2882.22 6.06319 -7.16352 0
M  V30 21259 C 2882.76 6.91731 -6.02299 0
M  V30 21260 O 2881.71 6.92449 -5.17064 0
M  V30 21261 C 2883.98 6.43627 -5.25174 0
M  V30 21262 O 2884.72 7.43686 -4.60469 0
M  V30 21263 C 2883.31 5.40275 -4.31916 0
M  V30 21264 O 2884.11 5.25279 -3.14438 0
M  V30 21265 C 2881.98 6.04847 -4.05327 0
M  V30 21266 H 2882.01 6.62195 -3.11261 0
M  V30 21267 H 2883.19 4.42556 -4.81383 0
M  V30 21268 H 2884.67 5.92458 -5.93643 0
M  V30 21269 H 2882.98 7.92655 -6.402 0
M  V30 21270 H 2882.79 6.26671 -8.0846 0
M  V30 21271 H 2881.16 6.29101 -7.32804 0
M  V30 21272 H 2883.8 5.84315 -2.47318 0
M  V30 21273 P 2885.66 7.39546 -4.75277 0
M  V30 21274 O 2887.08 7.84798 -5.01039 0
M  V30 21275 O 2885.3 5.9812 -5.08098 0
M  V30 21276 O 2885.33 7.57503 -3.1866 0
M  V30 21277 C 2885.17 8.97357 -2.74833 0
M  V30 21278 C 2885.71 9.07548 -1.32709 0
M  V30 21279 O 2884.66 8.62072 -0.606159 0
M  V30 21280 C 2886.93 8.25383 -0.938334 0
M  V30 21281 O 2887.67 8.74577 0.146954 0
M  V30 21282 C 2886.26 6.8802 -0.712559 0
M  V30 21283 O 2887.06 6.1189 0.194655 0
M  V30 21284 C 2884.93 7.27966 -0.139777 0
M  V30 21285 H 2884.96 7.25354 0.961601 0
M  V30 21286 H 2886.14 6.32557 -1.65702 0
M  V30 21287 H 2887.63 8.19355 -1.79097 0
M  V30 21288 H 2885.93 10.1294 -1.10029 0
M  V30 21289 H 2885.74 9.64276 -3.41316 0
M  V30 21290 H 2884.11 9.25417 -2.76357 0
M  V30 21291 H 2886.75 6.25267 1.07847 0
M  V30 21292 P 2888.61 8.791 -1.587e-11 0
M  V30 21293 O 2890.03 9.31096 0.027933 0
M  V30 21294 O 2888.25 7.77869 -1.04071 0
M  V30 21295 O 2888.29 8.09533 1.41463 0
M  V30 21296 C 2888.13 9.0349 2.53943 0
M  V30 21297 C 2888.67 8.35226 3.79016 0
M  V30 21298 O 2887.61 7.57992 4.15078 0
M  V30 21299 C 2889.88 7.45087 3.67298 0
M  V30 21300 O 2890.62 7.27796 4.85194 0
M  V30 21301 C 2889.21 6.17323 3.12027 0
M  V30 21302 O 2890.01 5.04231 3.47188 0
M  V30 21303 C 2887.88 6.19961 3.81809 0
M  V30 21304 H 2887.91 5.58218 4.73051 0
M  V30 21305 H 2889.09 6.21726 2.02589 0
M  V30 21306 H 2890.58 7.86112 2.9231 0
M  V30 21307 H 2888.88 9.11627 4.55076 0
M  V30 21308 H 2888.69 9.9573 2.34194 0
M  V30 21309 H 2887.06 9.2792 2.67832 0
M  V30 21310 H 2889.7 4.67702 4.28772 0
M  V30 21311 P 2891.56 7.39546 4.75277 0
M  V30 21312 O 2892.98 7.81777 5.05738 0
M  V30 21313 O 2891.2 7.1065 3.32998 0
M  V30 21314 O 2891.24 6.04542 5.56673 0
M  V30 21315 C 2891.08 6.22772 7.02095 0
M  V30 21316 C 2891.62 4.97725 7.70406 0
M  V30 21317 O 2890.56 4.13256 7.58987 0
M  V30 21318 C 2892.83 4.28231 7.11815 0
M  V30 21319 O 2893.57 3.49945 8.01648 0
M  V30 21320 C 2892.16 3.5063 5.96244 0
M  V30 21321 O 2892.96 2.36482 5.64681 0
M  V30 21322 C 2890.83 3.15122 6.56374 0
M  V30 21323 H 2890.86 2.13853 6.99751 0
M  V30 21324 H 2892.04 4.13501 5.06559 0
M  V30 21325 H 2893.53 5.03285 6.70911 0
M  V30 21326 H 2891.83 5.20877 8.75697 0
M  V30 21327 H 2891.64 7.11046 7.35349 0
M  V30 21328 H 2890.01 6.35815 7.26986 0
M  V30 21329 H 2892.65 1.61644 6.13565 0
M  V30 21330 P 2894.51 3.65191 7.99657 0
M  V30 21331 O 2895.93 3.8425 8.48115 0
M  V30 21332 O 2894.15 4.17805 6.64342 0
M  V30 21333 O 2894.19 2.07613 7.95143 0
M  V30 21334 C 2894.03 1.44328 9.27336 0
M  V30 21335 C 2894.57 0.0220036 9.17197 0
M  V30 21336 O 2893.51 -0.626867 8.61923 0
M  V30 21337 C 2895.78 -0.24586 8.30336 0
M  V30 21338 O 2896.52 -1.39011 8.63583 0
M  V30 21339 C 2895.12 -0.273849 6.91158 0
M  V30 21340 O 2895.91 -1.06348 6.02892 0
M  V30 21341 C 2893.78 -0.897649 7.22545 0
M  V30 21342 H 2893.81 -1.9841 7.04286 0
M  V30 21343 H 2894.99 0.739928 6.497 0
M  V30 21344 H 2896.48 0.60668 8.36503 0
M  V30 21345 H 2894.78 -0.352479 10.1829 0
M  V30 21346 H 2894.59 2.00611 10.0304 0
M  V30 21347 H 2892.96 1.41843 9.55327 0
M  V30 21348 H 2895.6 -1.95734 6.03555 0
M  V30 21349 P 2897.46 -1.25109 8.70152 0
M  V30 21350 O 2898.88 -1.35274 9.21221 0
M  V30 21351 O 2897.1 -0.0769065 7.84762 0
M  V30 21352 O 2897.14 -2.55232 7.81161 0
M  V30 21353 C 2896.98 -3.79939 8.58154 0
M  V30 21354 C 2897.52 -4.94023 7.72785 0
M  V30 21355 O 2896.46 -5.18726 6.91205 0
M  V30 21356 C 2898.73 -4.69597 6.85231 0
M  V30 21357 O 2899.47 -5.83832 6.51337 0
M  V30 21358 C 2898.07 -3.96706 5.66633 0
M  V30 21359 O 2898.86 -4.15414 4.49689 0
M  V30 21360 C 2896.73 -4.66153 5.59313 0
M  V30 21361 H 2896.76 -5.47679 4.85214 0
M  V30 21362 H 2897.94 -2.89008 5.86566 0
M  V30 21363 H 2899.43 -4.0121 7.36511 0
M  V30 21364 H 2897.73 -5.80182 8.37584 0
M  V30 21365 H 2897.54 -3.73517 9.52265 0
M  V30 21366 H 2895.91 -3.97163 8.80359 0
M  V30 21367 H 2898.55 -4.90969 4.01921 0
M  V30 21368 P 2900.41 -5.75688 6.64379 0
M  V30 21369 O 2901.83 -6.11849 7.01846 0
M  V30 21370 O 2900.05 -4.30744 6.56026 0
M  V30 21371 O 2900.09 -6.37042 5.19165 0
M  V30 21372 C 2899.93 -7.83578 5.16515 0
M  V30 21373 C 2900.47 -8.33398 3.83019 0
M  V30 21374 O 2899.41 -8.10074 3.01034 0
M  V30 21375 C 2901.69 -7.65514 3.2257 0
M  V30 21376 O 2902.42 -8.4329 2.32297 0
M  V30 21377 C 2901.02 -6.40075 2.62207 0
M  V30 21378 O 2901.82 -5.92589 1.53712 0
M  V30 21379 C 2899.68 -6.9454 2.18503 0
M  V30 21380 H 2899.71 -7.23063 1.12091 0
M  V30 21381 H 2900.89 -5.6025 3.37201 0
M  V30 21382 H 2902.38 -7.35707 4.02681 0
M  V30 21383 H 2900.68 -9.40912 3.9095 0
M  V30 21384 H 2900.49 -8.29056 5.99158 0
M  V30 21385 H 2898.86 -8.10073 5.25882 0
M  V30 21386 H 2901.5 -6.30324 0.726794 0
M  V30 21387 P 2903.36 -8.4349 2.47671 0
M  V30 21388 O 2904.76 -8.98227 2.65696 0
M  V30 21389 O 2902.98 -7.20409 3.23964 0
M  V30 21390 O 2903.04 -8.16496 0.923275 0
M  V30 21391 C 2902.88 -9.38437 0.108857 0
M  V30 21392 C 2903.42 -9.08076 -1.28339 0
M  V30 21393 O 2902.36 -8.44131 -1.84692 0
M  V30 21394 C 2904.63 -8.18386 -1.42505 0
M  V30 21395 O 2905.37 -8.3501 -2.60497 0
M  V30 21396 C 2903.97 -6.80225 -1.25468 0
M  V30 21397 O 2904.77 -5.81526 -1.91035 0
M  V30 21398 C 2902.63 -7.02416 -1.9168 0
M  V30 21399 N 2901.59 -6.31033 -1.20314 0
M  V30 21400 C 2900.55 -5.77149 -1.928 0
M  V30 21401 O 2900.59 -5.8521 -3.17729 0
M  V30 21402 N 2899.54 -5.15445 -1.27997 0
M  V30 21403 C 2899.59 -5.04472 0.0534726 0
M  V30 21404 C 2900.68 -5.55244 0.808522 0
M  V30 21405 C 2901.65 -6.18542 0.13981 0
M  V30 21406 H 2902.66 -6.68789 -2.9658 0
M  V30 21407 H 2903.84 -6.53498 -0.198729 0
M  V30 21408 H 2905.33 -8.36663 -0.5984 0
M  V30 21409 H 2903.63 -10.0273 -1.8081 0
M  V30 21410 H 2903.44 -10.2138 0.558219 0
M  V30 21411 H 2901.81 -9.6569 0.0444156 0
M  V30 21412 H 2900.73 -5.43017 1.88792 0
M  V30 21413 H 2902.5 -6.60539 0.686773 0
M  V30 21414 H 2904.55 -5.79638 -2.8315 0
M  V30 21415 P 2906.31 -8.4349 -2.47671 0
M  V30 21416 O 2907.73 -8.92593 -2.65 0
M  V30 21417 O 2905.95 -7.7568 -1.19296 0
M  V30 21418 O 2905.99 -7.36886 -3.63805 0
M  V30 21419 C 2905.83 -7.95349 -4.982 0
M  V30 21420 C 2906.37 -6.94612 -5.98974 0
M  V30 21421 O 2905.31 -6.10347 -6.11815 0
M  V30 21422 C 2907.59 -6.11426 -5.62335 0
M  V30 21423 O 2908.32 -5.6162 -6.70584 0
M  V30 21424 C 2906.92 -5.04409 -4.73308 0
M  V30 21425 O 2907.72 -3.85992 -4.75183 0
M  V30 21426 C 2905.58 -4.8728 -5.41006 0
M  V30 21427 H 2905.61 -4.02333 -6.11157 0
M  V30 21428 H 2906.8 -5.39466 -3.69543 0
M  V30 21429 H 2908.28 -6.71916 -5.01943 0
M  V30 21430 H 2906.59 -7.4649 -6.93477 0
M  V30 21431 H 2906.4 -8.89416 -5.05237 0
M  V30 21432 H 2904.77 -8.14876 -5.18409 0
M  V30 21433 H 2907.4 -3.27957 -5.4317 0
M  V30 21434 P 2909.26 -5.75688 -6.64379 0
M  V30 21435 O 2910.68 -6.07627 -7.05504 0
M  V30 21436 O 2908.9 -5.88047 -5.19722 0
M  V30 21437 O 2908.94 -4.2322 -7.04443 0
M  V30 21438 C 2908.78 -3.99743 -8.4911 0
M  V30 21439 C 2909.32 -2.60516 -8.79425 0
M  V30 21440 O 2908.26 -1.82684 -8.4467 0
M  V30 21441 C 2910.54 -2.10343 -8.03628 0
M  V30 21442 O 2911.28 -1.09919 -8.67766 0
M  V30 21443 C 2909.87 -1.68446 -6.70876 0
M  V30 21444 O 2910.67 -0.678137 -6.08433 0
M  V30 21445 C 2908.53 -1.17436 -7.18567 0
M  V30 21446 H 2908.56 -0.0804732 -7.31656 0
M  V30 21447 H 2909.75 -2.54037 -6.02537 0
M  V30 21448 H 2911.23 -2.93881 -7.85526 0
M  V30 21449 H 2909.54 -2.53065 -9.86973 0
M  V30 21450 H 2909.35 -4.75072 -9.05887 0
M  V30 21451 H 2907.72 -4.05244 -8.76668 0
M  V30 21452 H 2910.36 0.177647 -6.34251 0
M  V30 21453 P 2912.21 -1.25109 -8.70152 0
M  V30 21454 O 2913.63 -1.29744 -9.22016 0
M  V30 21455 O 2911.85 -2.13714 -7.55141 0
M  V30 21456 O 2911.89 0.248149 -8.21425 0
M  V30 21457 C 2911.73 1.22779 -9.30434 0
M  V30 21458 C 2912.27 2.56293 -8.80664 0
M  V30 21459 O 2911.21 3.02979 -8.09349 0
M  V30 21460 C 2913.49 2.57523 -7.89775 0
M  V30 21461 O 2914.23 3.7668 -7.89438 0
M  V30 21462 C 2912.82 2.20997 -6.55446 0
M  V30 21463 O 2913.62 2.71895 -5.48509 0
M  V30 21464 C 2911.48 2.89693 -6.67988 0
M  V30 21465 H 2911.51 3.88793 -6.19859 0
M  V30 21466 H 2912.7 1.12046 -6.44229 0
M  V30 21467 H 2914.18 1.7746 -8.19711 0
M  V30 21468 H 2912.49 3.20706 -9.67112 0
M  V30 21469 H 2912.3 0.901032 -10.1892 0
M  V30 21470 H 2910.67 1.33049 -9.56592 0
M  V30 21471 H 2913.31 3.57847 -5.23962 0
M  V30 21472 P 2915.16 3.65191 -7.99657 0
M  V30 21473 O 2916.59 3.89332 -8.45794 0
M  V30 21474 O 2914.8 2.28472 -7.50807 0
M  V30 21475 O 2914.84 4.64972 -6.77611 0
M  V30 21476 C 2914.68 6.06319 -7.16352 0
M  V30 21477 C 2915.22 6.91731 -6.02299 0
M  V30 21478 O 2914.16 6.92449 -5.17064 0
M  V30 21479 C 2916.44 6.43627 -5.25174 0
M  V30 21480 O 2917.18 7.43686 -4.60469 0
M  V30 21481 C 2915.77 5.40275 -4.31916 0
M  V30 21482 O 2916.57 5.25279 -3.14438 0
M  V30 21483 C 2914.43 6.04847 -4.05327 0
M  V30 21484 H 2914.46 6.62195 -3.11261 0
M  V30 21485 H 2915.65 4.42556 -4.81383 0
M  V30 21486 H 2917.13 5.92458 -5.93643 0
M  V30 21487 H 2915.44 7.92655 -6.402 0
M  V30 21488 H 2915.25 6.26671 -8.0846 0
M  V30 21489 H 2913.62 6.29101 -7.32804 0
M  V30 21490 H 2916.26 5.84315 -2.47318 0
M  V30 21491 P 2918.11 7.39546 -4.75277 0
M  V30 21492 O 2919.54 7.84798 -5.01039 0
M  V30 21493 O 2917.75 5.9812 -5.08098 0
M  V30 21494 O 2917.79 7.57503 -3.1866 0
M  V30 21495 C 2917.63 8.97357 -2.74833 0
M  V30 21496 C 2918.17 9.07548 -1.32709 0
M  V30 21497 O 2917.11 8.62072 -0.606159 0
M  V30 21498 C 2919.39 8.25383 -0.938334 0
M  V30 21499 O 2920.13 8.74577 0.146954 0
M  V30 21500 C 2918.72 6.8802 -0.712559 0
M  V30 21501 O 2919.52 6.1189 0.194655 0
M  V30 21502 C 2917.38 7.27966 -0.139777 0
M  V30 21503 H 2917.41 7.25354 0.961601 0
M  V30 21504 H 2918.6 6.32557 -1.65702 0
M  V30 21505 H 2920.08 8.19355 -1.79097 0
M  V30 21506 H 2918.39 10.1294 -1.10029 0
M  V30 21507 H 2918.2 9.64276 -3.41316 0
M  V30 21508 H 2916.57 9.25417 -2.76357 0
M  V30 21509 H 2919.21 6.25267 1.07847 0
M  V30 21510 P 2921.06 8.791 -2.10567e-11 0
M  V30 21511 O 2922.49 9.31096 0.027933 0
M  V30 21512 O 2920.7 7.77869 -1.04071 0
M  V30 21513 O 2920.74 8.09533 1.41463 0
M  V30 21514 C 2920.58 9.0349 2.53943 0
M  V30 21515 C 2921.12 8.35226 3.79016 0
M  V30 21516 O 2920.07 7.57992 4.15078 0
M  V30 21517 C 2922.34 7.45087 3.67298 0
M  V30 21518 O 2923.08 7.27796 4.85194 0
M  V30 21519 C 2921.67 6.17323 3.12027 0
M  V30 21520 O 2922.47 5.04231 3.47188 0
M  V30 21521 C 2920.33 6.19961 3.81809 0
M  V30 21522 H 2920.37 5.58218 4.73051 0
M  V30 21523 H 2921.55 6.21726 2.02589 0
M  V30 21524 H 2923.03 7.86112 2.9231 0
M  V30 21525 H 2921.34 9.11627 4.55076 0
M  V30 21526 H 2921.15 9.9573 2.34194 0
M  V30 21527 H 2919.52 9.2792 2.67832 0
M  V30 21528 H 2922.16 4.67702 4.28772 0
M  V30 21529 P 2924.01 7.39546 4.75277 0
M  V30 21530 O 2925.44 7.81777 5.05738 0
M  V30 21531 O 2923.65 7.1065 3.32998 0
M  V30 21532 O 2923.69 6.04542 5.56673 0
M  V30 21533 C 2923.53 6.22772 7.02095 0
M  V30 21534 C 2924.07 4.97725 7.70406 0
M  V30 21535 O 2923.02 4.13256 7.58987 0
M  V30 21536 C 2925.29 4.28231 7.11815 0
M  V30 21537 O 2926.03 3.49945 8.01648 0
M  V30 21538 C 2924.62 3.5063 5.96244 0
M  V30 21539 O 2925.42 2.36482 5.64681 0
M  V30 21540 C 2923.28 3.15122 6.56374 0
M  V30 21541 H 2923.32 2.13853 6.99751 0
M  V30 21542 H 2924.5 4.13501 5.06559 0
M  V30 21543 H 2925.98 5.03285 6.70911 0
M  V30 21544 H 2924.29 5.20877 8.75697 0
M  V30 21545 H 2924.1 7.11046 7.35349 0
M  V30 21546 H 2922.47 6.35815 7.26986 0
M  V30 21547 H 2925.11 1.61644 6.13565 0
M  V30 21548 P 2926.97 3.65191 7.99657 0
M  V30 21549 O 2928.39 3.8425 8.48115 0
M  V30 21550 O 2926.61 4.17805 6.64342 0
M  V30 21551 O 2926.64 2.07613 7.95143 0
M  V30 21552 C 2926.48 1.44328 9.27336 0
M  V30 21553 C 2927.02 0.0220036 9.17197 0
M  V30 21554 O 2925.97 -0.626867 8.61923 0
M  V30 21555 C 2928.24 -0.24586 8.30336 0
M  V30 21556 O 2928.98 -1.39011 8.63583 0
M  V30 21557 C 2927.57 -0.273849 6.91158 0
M  V30 21558 O 2928.37 -1.06348 6.02892 0
M  V30 21559 C 2926.23 -0.897649 7.22545 0
M  V30 21560 H 2926.27 -1.9841 7.04286 0
M  V30 21561 H 2927.45 0.739928 6.497 0
M  V30 21562 H 2928.93 0.60668 8.36503 0
M  V30 21563 H 2927.24 -0.352479 10.1829 0
M  V30 21564 H 2927.05 2.00611 10.0304 0
M  V30 21565 H 2925.42 1.41843 9.55327 0
M  V30 21566 H 2928.06 -1.95734 6.03555 0
M  V30 21567 P 2929.92 -1.25109 8.70152 0
M  V30 21568 O 2931.34 -1.35288 9.2132 0
M  V30 21569 O 2929.56 -0.0769065 7.84762 0
M  V30 21570 O 2929.59 -2.55232 7.81161 0
M  V30 21571 C 2929.43 -3.79979 8.58246 0
M  V30 21572 C 2929.97 -4.94023 7.72785 0
M  V30 21573 O 2928.92 -5.18666 6.91125 0
M  V30 21574 C 2931.19 -4.69597 6.85231 0
M  V30 21575 O 2931.93 -5.83832 6.51337 0
M  V30 21576 C 2930.52 -3.96706 5.66633 0
M  V30 21577 O 2931.32 -4.14896 4.5003 0
M  V30 21578 C 2929.19 -4.66153 5.59313 0
M  V30 21579 N 2928.14 -3.71582 5.24027 0
M  V30 21580 C 2928.31 -2.39715 5.48833 0
M  V30 21581 N 2927.28 -1.65863 5.12845 0
M  V30 21582 C 2926.4 -2.57637 4.5973 0
M  V30 21583 C 2925.13 -2.40278 4.01027 0
M  V30 21584 N 2924.53 -1.19549 3.86744 0
M  V30 21585 N 2924.57 -3.57711 3.59575 0
M  V30 21586 C 2925.17 -4.80324 3.70476 0
M  V30 21587 N 2926.35 -5.01121 4.23801 0
M  V30 21588 C 2926.92 -3.84757 4.66372 0
M  V30 21589 H 2929.22 -5.47604 4.85148 0
M  V30 21590 H 2930.4 -2.8955 5.86187 0
M  V30 21591 H 2931.88 -4.0121 7.36511 0
M  V30 21592 H 2930.19 -5.81019 8.37003 0
M  V30 21593 H 2930 -3.73517 9.52265 0
M  V30 21594 H 2928.37 -3.97163 8.80359 0
M  V30 21595 H 2924.63 -5.66348 3.3183 0
M  V30 21596 H 2929.21 -1.98804 5.94332 0
M  V30 21597 H 2923.6 -1.13147 3.4281 0
M  V30 21598 H 2925.01 -0.344074 4.19692 0
M  V30 21599 H 2931.01 -4.90891 4.01857 0
M  V30 21600 P 2932.87 -5.75688 6.64379 0
M  V30 21601 O 2934.29 -6.11849 7.01846 0
M  V30 21602 O 2932.51 -4.30744 6.56026 0
M  V30 21603 O 2932.54 -6.37042 5.19165 0
M  V30 21604 C 2932.38 -7.83578 5.16515 0
M  V30 21605 C 2932.92 -8.33398 3.83019 0
M  V30 21606 O 2931.87 -8.10074 3.01034 0
M  V30 21607 C 2934.14 -7.65514 3.2257 0
M  V30 21608 O 2934.88 -8.4329 2.32297 0
M  V30 21609 C 2933.47 -6.40075 2.62207 0
M  V30 21610 O 2934.27 -5.92589 1.53712 0
M  V30 21611 C 2932.14 -6.9454 2.18503 0
M  V30 21612 H 2932.17 -7.23063 1.12091 0
M  V30 21613 H 2933.35 -5.6025 3.37201 0
M  V30 21614 H 2934.83 -7.35707 4.02681 0
M  V30 21615 H 2933.14 -9.40912 3.9095 0
M  V30 21616 H 2932.95 -8.29056 5.99158 0
M  V30 21617 H 2931.32 -8.10073 5.25882 0
M  V30 21618 H 2933.96 -6.30324 0.726794 0
M  V30 21619 P 2935.82 -8.4349 2.47671 0
M  V30 21620 O 2937.24 -8.94167 2.5964 0
M  V30 21621 O 2935.46 -7.1704 3.19006 0
M  V30 21622 O 2935.49 -8.16596 0.923387 0
M  V30 21623 C 2935.33 -9.38437 0.108857 0
M  V30 21624 C 2935.87 -9.08175 -1.28353 0
M  V30 21625 O 2934.82 -8.44229 -1.84713 0
M  V30 21626 C 2937.09 -8.18386 -1.42505 0
M  V30 21627 O 2937.83 -8.3501 -2.60497 0
M  V30 21628 C 2936.42 -6.80225 -1.25468 0
M  V30 21629 O 2937.22 -5.81621 -1.91066 0
M  V30 21630 C 2935.09 -7.02416 -1.9168 0
M  V30 21631 H 2935.12 -6.6888 -2.96621 0
M  V30 21632 H 2936.3 -6.53617 -0.192223 0
M  V30 21633 H 2937.79 -8.36622 -0.589963 0
M  V30 21634 H 2936.09 -10.0291 -1.79807 0
M  V30 21635 H 2935.9 -10.2138 0.558219 0
M  V30 21636 H 2934.27 -9.6579 0.0444202 0
M  V30 21637 H 2936.91 -5.69556 -2.79637 0
M  V30 21638 P 2938.77 -8.4349 -2.47671 0
M  V30 21639 O 2940.19 -8.92593 -2.65 0
M  V30 21640 O 2938.41 -7.7568 -1.19296 0
M  V30 21641 O 2938.44 -7.36886 -3.63805 0
M  V30 21642 C 2938.28 -7.95349 -4.982 0
M  V30 21643 C 2938.82 -6.94612 -5.98974 0
M  V30 21644 O 2937.77 -6.10347 -6.11815 0
M  V30 21645 C 2940.04 -6.11426 -5.62335 0
M  V30 21646 O 2940.78 -5.6162 -6.70584 0
M  V30 21647 C 2939.37 -5.04409 -4.73308 0
M  V30 21648 O 2940.17 -3.85992 -4.75183 0
M  V30 21649 C 2938.04 -4.8728 -5.41006 0
M  V30 21650 H 2938.07 -4.02333 -6.11157 0
M  V30 21651 H 2939.25 -5.39466 -3.69543 0
M  V30 21652 H 2940.74 -6.71916 -5.01943 0
M  V30 21653 H 2939.04 -7.4649 -6.93477 0
M  V30 21654 H 2938.85 -8.89416 -5.05237 0
M  V30 21655 H 2937.22 -8.14876 -5.18409 0
M  V30 21656 H 2939.86 -3.27957 -5.4317 0
M  V30 21657 P 2941.72 -5.75688 -6.64379 0
M  V30 21658 O 2943.14 -6.07627 -7.05504 0
M  V30 21659 O 2941.36 -5.88047 -5.19722 0
M  V30 21660 O 2941.4 -4.2322 -7.04443 0
M  V30 21661 C 2941.24 -3.99743 -8.4911 0
M  V30 21662 C 2941.78 -2.60516 -8.79425 0
M  V30 21663 O 2940.72 -1.82684 -8.4467 0
M  V30 21664 C 2942.99 -2.10343 -8.03628 0
M  V30 21665 O 2943.73 -1.09919 -8.67766 0
M  V30 21666 C 2942.32 -1.68446 -6.70876 0
M  V30 21667 O 2943.12 -0.678137 -6.08433 0
M  V30 21668 C 2940.99 -1.17436 -7.18567 0
M  V30 21669 H 2941.02 -0.0804732 -7.31656 0
M  V30 21670 H 2942.2 -2.54037 -6.02537 0
M  V30 21671 H 2943.69 -2.93881 -7.85526 0
M  V30 21672 H 2941.99 -2.53065 -9.86973 0
M  V30 21673 H 2941.8 -4.75072 -9.05887 0
M  V30 21674 H 2940.17 -4.05244 -8.76668 0
M  V30 21675 H 2942.81 0.177647 -6.34251 0
M  V30 21676 P 2944.67 -1.25109 -8.70152 0
M  V30 21677 O 2946.09 -1.29744 -9.22016 0
M  V30 21678 O 2944.31 -2.13714 -7.55141 0
M  V30 21679 O 2944.35 0.248149 -8.21425 0
M  V30 21680 C 2944.19 1.22779 -9.30434 0
M  V30 21681 C 2944.73 2.56293 -8.80664 0
M  V30 21682 O 2943.67 3.02979 -8.09349 0
M  V30 21683 C 2945.94 2.57523 -7.89775 0
M  V30 21684 O 2946.68 3.7668 -7.89438 0
M  V30 21685 C 2945.27 2.20997 -6.55446 0
M  V30 21686 O 2946.07 2.71895 -5.48509 0
M  V30 21687 C 2943.94 2.89693 -6.67988 0
M  V30 21688 H 2943.97 3.88793 -6.19859 0
M  V30 21689 H 2945.15 1.12046 -6.44229 0
M  V30 21690 H 2946.64 1.7746 -8.19711 0
M  V30 21691 H 2944.94 3.20706 -9.67112 0
M  V30 21692 H 2944.75 0.901032 -10.1892 0
M  V30 21693 H 2943.12 1.33049 -9.56592 0
M  V30 21694 H 2945.76 3.57847 -5.23962 0
M  V30 21695 P 2947.62 3.65191 -7.99657 0
M  V30 21696 O 2949.04 3.89332 -8.45794 0
M  V30 21697 O 2947.26 2.28472 -7.50807 0
M  V30 21698 O 2947.3 4.64972 -6.77611 0
M  V30 21699 C 2947.14 6.06319 -7.16352 0
M  V30 21700 C 2947.68 6.91731 -6.02299 0
M  V30 21701 O 2946.62 6.92449 -5.17064 0
M  V30 21702 C 2948.89 6.43627 -5.25174 0
M  V30 21703 O 2949.63 7.43686 -4.60469 0
M  V30 21704 C 2948.23 5.40275 -4.31916 0
M  V30 21705 O 2949.02 5.25279 -3.14438 0
M  V30 21706 C 2946.89 6.04847 -4.05327 0
M  V30 21707 H 2946.92 6.62195 -3.11261 0
M  V30 21708 H 2948.1 4.42556 -4.81383 0
M  V30 21709 H 2949.59 5.92458 -5.93643 0
M  V30 21710 H 2947.89 7.92655 -6.402 0
M  V30 21711 H 2947.7 6.26671 -8.0846 0
M  V30 21712 H 2946.07 6.29101 -7.32804 0
M  V30 21713 H 2948.71 5.84315 -2.47318 0
M  V30 21714 P 2950.57 7.39546 -4.75277 0
M  V30 21715 O 2951.99 7.84798 -5.01039 0
M  V30 21716 O 2950.21 5.9812 -5.08098 0
M  V30 21717 O 2950.25 7.57503 -3.1866 0
M  V30 21718 C 2950.09 8.97357 -2.74833 0
M  V30 21719 C 2950.63 9.07548 -1.32709 0
M  V30 21720 O 2949.57 8.62072 -0.606159 0
M  V30 21721 C 2951.84 8.25383 -0.938334 0
M  V30 21722 O 2952.58 8.74577 0.146954 0
M  V30 21723 C 2951.18 6.8802 -0.712559 0
M  V30 21724 O 2951.97 6.1189 0.194655 0
M  V30 21725 C 2949.84 7.27966 -0.139777 0
M  V30 21726 H 2949.87 7.25354 0.961601 0
M  V30 21727 H 2951.05 6.32557 -1.65702 0
M  V30 21728 H 2952.54 8.19355 -1.79097 0
M  V30 21729 H 2950.84 10.1294 -1.10029 0
M  V30 21730 H 2950.65 9.64276 -3.41316 0
M  V30 21731 H 2949.02 9.25417 -2.76357 0
M  V30 21732 H 2951.66 6.25267 1.07847 0
M  V30 21733 P 2953.52 8.791 -2.62433e-11 0
M  V30 21734 O 2954.94 9.31096 0.027933 0
M  V30 21735 O 2953.16 7.77869 -1.04071 0
M  V30 21736 O 2953.2 8.09533 1.41463 0
M  V30 21737 C 2953.04 9.0349 2.53943 0
M  V30 21738 C 2953.58 8.35226 3.79016 0
M  V30 21739 O 2952.52 7.57992 4.15078 0
M  V30 21740 C 2954.8 7.45087 3.67298 0
M  V30 21741 O 2955.53 7.27796 4.85194 0
M  V30 21742 C 2954.13 6.17323 3.12027 0
M  V30 21743 O 2954.93 5.04231 3.47188 0
M  V30 21744 C 2952.79 6.19961 3.81809 0
M  V30 21745 H 2952.82 5.58218 4.73051 0
M  V30 21746 H 2954 6.21726 2.02589 0
M  V30 21747 H 2955.49 7.86112 2.9231 0
M  V30 21748 H 2953.79 9.11627 4.55076 0
M  V30 21749 H 2953.6 9.9573 2.34194 0
M  V30 21750 H 2951.97 9.2792 2.67832 0
M  V30 21751 H 2954.61 4.67702 4.28772 0
M  V30 21752 P 2956.47 7.39546 4.75277 0
M  V30 21753 O 2957.89 7.81777 5.05738 0
M  V30 21754 O 2956.11 7.1065 3.32998 0
M  V30 21755 O 2956.15 6.04542 5.56673 0
M  V30 21756 C 2955.99 6.22772 7.02095 0
M  V30 21757 C 2956.53 4.97725 7.70406 0
M  V30 21758 O 2955.47 4.13256 7.58987 0
M  V30 21759 C 2957.75 4.28231 7.11815 0
M  V30 21760 O 2958.48 3.49945 8.01648 0
M  V30 21761 C 2957.08 3.5063 5.96244 0
M  V30 21762 O 2957.88 2.36482 5.64681 0
M  V30 21763 C 2955.74 3.15122 6.56374 0
M  V30 21764 H 2955.77 2.13853 6.99751 0
M  V30 21765 H 2956.96 4.13501 5.06559 0
M  V30 21766 H 2958.44 5.03285 6.70911 0
M  V30 21767 H 2956.75 5.20877 8.75697 0
M  V30 21768 H 2956.56 7.11046 7.35349 0
M  V30 21769 H 2954.93 6.35815 7.26986 0
M  V30 21770 H 2957.56 1.61644 6.13565 0
M  V30 21771 P 2959.42 3.65191 7.99657 0
M  V30 21772 O 2960.84 3.84333 8.48297 0
M  V30 21773 O 2959.06 4.17805 6.64342 0
M  V30 21774 O 2959.1 2.07613 7.95143 0
M  V30 21775 C 2958.94 1.44328 9.27336 0
M  V30 21776 C 2959.48 0.0220012 9.17097 0
M  V30 21777 O 2958.42 -0.626867 8.61923 0
M  V30 21778 C 2960.7 -0.24586 8.30336 0
M  V30 21779 O 2961.43 -1.39011 8.63583 0
M  V30 21780 C 2960.03 -0.273849 6.91158 0
M  V30 21781 O 2960.83 -1.06331 6.02794 0
M  V30 21782 C 2958.69 -0.897649 7.22545 0
M  V30 21783 N 2957.65 -0.292839 6.41732 0
M  V30 21784 C 2957.71 1.00068 6.10757 0
M  V30 21785 N 2956.66 1.36468 5.35794 0
M  V30 21786 C 2955.93 0.258894 5.2366 0
M  V30 21787 C 2954.62 0.0670682 4.65752 0
M  V30 21788 O 2953.89 0.902443 4.10497 0
M  V30 21789 N 2954.19 -1.2131 4.75881 0
M  V30 21790 C 2954.94 -2.24934 5.37101 0
M  V30 21791 N 2954.35 -3.48783 5.33984 0
M  V30 21792 N 2956.1 -2.0844 5.95684 0
M  V30 21793 C 2956.55 -0.81395 5.87791 0
M  V30 21794 H 2958.72 -1.9841 7.04286 0
M  V30 21795 H 2959.91 0.739815 6.49601 0
M  V30 21796 H 2961.39 0.598315 8.36563 0
M  V30 21797 H 2959.7 -0.352479 10.1829 0
M  V30 21798 H 2959.51 2.00611 10.0304 0
M  V30 21799 H 2957.87 1.41843 9.55327 0
M  V30 21800 H 2953.3 -1.44434 4.37895 0
M  V30 21801 H 2958.51 1.67697 6.42268 0
M  V30 21802 H 2953.44 -3.60543 4.87699 0
M  V30 21803 H 2954.81 -4.29232 5.7819 0
M  V30 21804 H 2960.52 -1.95704 6.0346 0
M  V30 21805 P 2962.37 -1.25109 8.70152 0
M  V30 21806 O 2963.79 -1.35274 9.21221 0
M  V30 21807 O 2962.01 -0.0769065 7.84762 0
M  V30 21808 O 2962.05 -2.55232 7.81161 0
M  V30 21809 C 2961.89 -3.79939 8.58154 0
M  V30 21810 C 2962.43 -4.94023 7.72785 0
M  V30 21811 O 2961.37 -5.18726 6.91205 0
M  V30 21812 C 2963.65 -4.69597 6.85231 0
M  V30 21813 O 2964.39 -5.83832 6.51337 0
M  V30 21814 C 2962.98 -3.96706 5.66633 0
M  V30 21815 O 2963.78 -4.15414 4.49689 0
M  V30 21816 C 2961.64 -4.66153 5.59313 0
M  V30 21817 H 2961.67 -5.47679 4.85214 0
M  V30 21818 H 2962.86 -2.89008 5.86566 0
M  V30 21819 H 2964.34 -4.0121 7.36511 0
M  V30 21820 H 2962.65 -5.80182 8.37584 0
M  V30 21821 H 2962.46 -3.73517 9.52265 0
M  V30 21822 H 2960.83 -3.97163 8.80359 0
M  V30 21823 H 2963.47 -4.90969 4.01921 0
M  V30 21824 P 2965.32 -5.75688 6.64379 0
M  V30 21825 O 2966.74 -6.11915 7.01921 0
M  V30 21826 O 2964.96 -4.30744 6.56026 0
M  V30 21827 O 2965 -6.37042 5.19165 0
M  V30 21828 C 2964.84 -7.83662 5.1657 0
M  V30 21829 C 2965.38 -8.33398 3.83019 0
M  V30 21830 O 2964.32 -8.0998 3.00999 0
M  V30 21831 C 2966.6 -7.65514 3.2257 0
M  V30 21832 O 2967.34 -8.4329 2.32297 0
M  V30 21833 C 2965.93 -6.40075 2.62207 0
M  V30 21834 O 2966.73 -5.92338 1.5428 0
M  V30 21835 C 2964.59 -6.9454 2.18503 0
M  V30 21836 N 2963.55 -5.95905 2.39948 0
M  V30 21837 C 2963.72 -4.98383 3.32108 0
M  V30 21838 N 2962.69 -4.16798 3.41761 0
M  V30 21839 C 2961.81 -4.65287 2.47461 0
M  V30 21840 C 2960.54 -4.18946 2.07461 0
M  V30 21841 N 2959.97 -4.95327 1.09101 0
M  V30 21842 C 2960.58 -6.04369 0.519812 0
M  V30 21843 N 2961.75 -6.50694 0.855982 0
M  V30 21844 C 2962.33 -5.75818 1.84322 0
M  V30 21845 H 2965.81 -5.60502 3.36589 0
M  V30 21846 H 2967.29 -7.35707 4.02681 0
M  V30 21847 H 2965.6 -9.41302 3.90009 0
M  V30 21848 H 2965.41 -8.29056 5.99158 0
M  V30 21849 H 2963.78 -8.10073 5.25882 0
M  V30 21850 H 2964.62 -4.88564 3.92502 0
M  V30 21851 H 2966.42 -6.30224 0.72668 0
M  V30 21852 P 2968.27 -8.4349 2.47671 0
M  V30 21853 O 2969.7 -8.94167 2.5964 0
M  V30 21854 O 2967.91 -7.1704 3.19006 0
M  V30 21855 O 2967.95 -8.16596 0.923387 0
M  V30 21856 C 2967.79 -9.38437 0.108857 0
M  V30 21857 C 2968.33 -9.08175 -1.28353 0
M  V30 21858 O 2967.27 -8.44229 -1.84713 0
M  V30 21859 C 2969.55 -8.18386 -1.42505 0
M  V30 21860 O 2970.29 -8.3501 -2.60497 0
M  V30 21861 C 2968.88 -6.80225 -1.25468 0
M  V30 21862 O 2969.68 -5.81621 -1.91066 0
M  V30 21863 C 2967.54 -7.02416 -1.9168 0
M  V30 21864 H 2967.57 -6.6888 -2.96621 0
M  V30 21865 H 2968.76 -6.53617 -0.192223 0
M  V30 21866 H 2970.24 -8.36622 -0.589963 0
M  V30 21867 H 2968.55 -10.0291 -1.79807 0
M  V30 21868 H 2968.36 -10.2138 0.558219 0
M  V30 21869 H 2966.73 -9.6579 0.0444202 0
M  V30 21870 H 2969.37 -5.69556 -2.79637 0
M  V30 21871 P 2971.22 -8.4349 -2.47671 0
M  V30 21872 O 2972.65 -8.92593 -2.65 0
M  V30 21873 O 2970.86 -7.7568 -1.19296 0
M  V30 21874 O 2970.9 -7.36886 -3.63805 0
M  V30 21875 C 2970.74 -7.95349 -4.982 0
M  V30 21876 C 2971.28 -6.94612 -5.98974 0
M  V30 21877 O 2970.22 -6.10347 -6.11815 0
M  V30 21878 C 2972.5 -6.11426 -5.62335 0
M  V30 21879 O 2973.24 -5.6162 -6.70584 0
M  V30 21880 C 2971.83 -5.04409 -4.73308 0
M  V30 21881 O 2972.63 -3.85992 -4.75183 0
M  V30 21882 C 2970.49 -4.8728 -5.41006 0
M  V30 21883 H 2970.52 -4.02333 -6.11157 0
M  V30 21884 H 2971.71 -5.39466 -3.69543 0
M  V30 21885 H 2973.19 -6.71916 -5.01943 0
M  V30 21886 H 2971.5 -7.4649 -6.93477 0
M  V30 21887 H 2971.31 -8.89416 -5.05237 0
M  V30 21888 H 2969.68 -8.14876 -5.18409 0
M  V30 21889 H 2972.32 -3.27957 -5.4317 0
M  V30 21890 P 2974.17 -5.75688 -6.64379 0
M  V30 21891 O 2975.6 -6.07627 -7.05504 0
M  V30 21892 O 2973.81 -5.88047 -5.19722 0
M  V30 21893 O 2973.85 -4.2322 -7.04443 0
M  V30 21894 C 2973.69 -3.99743 -8.4911 0
M  V30 21895 C 2974.23 -2.60516 -8.79425 0
M  V30 21896 O 2973.18 -1.82684 -8.4467 0
M  V30 21897 C 2975.45 -2.10343 -8.03628 0
M  V30 21898 O 2976.19 -1.09919 -8.67766 0
M  V30 21899 C 2974.78 -1.68446 -6.70876 0
M  V30 21900 O 2975.58 -0.678137 -6.08433 0
M  V30 21901 C 2973.44 -1.17436 -7.18567 0
M  V30 21902 H 2973.48 -0.0804732 -7.31656 0
M  V30 21903 H 2974.66 -2.54037 -6.02537 0
M  V30 21904 H 2976.14 -2.93881 -7.85526 0
M  V30 21905 H 2974.45 -2.53065 -9.86973 0
M  V30 21906 H 2974.26 -4.75072 -9.05887 0
M  V30 21907 H 2972.63 -4.05244 -8.76668 0
M  V30 21908 H 2975.27 0.177647 -6.34251 0
M  V30 21909 P 2977.13 -1.25109 -8.70152 0
M  V30 21910 O 2978.55 -1.29744 -9.22016 0
M  V30 21911 O 2976.77 -2.13714 -7.55141 0
M  V30 21912 O 2976.8 0.248149 -8.21425 0
M  V30 21913 C 2976.64 1.22779 -9.30434 0
M  V30 21914 C 2977.18 2.56293 -8.80664 0
M  V30 21915 O 2976.13 3.02979 -8.09349 0
M  V30 21916 C 2978.4 2.57523 -7.89775 0
M  V30 21917 O 2979.14 3.7668 -7.89438 0
M  V30 21918 C 2977.73 2.20997 -6.55446 0
M  V30 21919 O 2978.53 2.71895 -5.48509 0
M  V30 21920 C 2976.39 2.89693 -6.67988 0
M  V30 21921 H 2976.43 3.88793 -6.19859 0
M  V30 21922 H 2977.61 1.12046 -6.44229 0
M  V30 21923 H 2979.09 1.7746 -8.19711 0
M  V30 21924 H 2977.4 3.20706 -9.67112 0
M  V30 21925 H 2977.21 0.901032 -10.1892 0
M  V30 21926 H 2975.58 1.33049 -9.56592 0
M  V30 21927 H 2978.22 3.57847 -5.23962 0
M  V30 21928 P 2980.08 3.65191 -7.99657 0
M  V30 21929 O 2981.5 3.89332 -8.45794 0
M  V30 21930 O 2979.72 2.28472 -7.50807 0
M  V30 21931 O 2979.75 4.64972 -6.77611 0
M  V30 21932 C 2979.59 6.06319 -7.16352 0
M  V30 21933 C 2980.13 6.91731 -6.02299 0
M  V30 21934 O 2979.08 6.92449 -5.17064 0
M  V30 21935 C 2981.35 6.43627 -5.25174 0
M  V30 21936 O 2982.09 7.43686 -4.60469 0
M  V30 21937 C 2980.68 5.40275 -4.31916 0
M  V30 21938 O 2981.48 5.25279 -3.14438 0
M  V30 21939 C 2979.34 6.04847 -4.05327 0
M  V30 21940 H 2979.38 6.62195 -3.11261 0
M  V30 21941 H 2980.56 4.42556 -4.81383 0
M  V30 21942 H 2982.04 5.92458 -5.93643 0
M  V30 21943 H 2980.35 7.92655 -6.402 0
M  V30 21944 H 2980.16 6.26671 -8.0846 0
M  V30 21945 H 2978.53 6.29101 -7.32804 0
M  V30 21946 H 2981.17 5.84315 -2.47318 0
M  V30 21947 P 2983.03 7.39546 -4.75277 0
M  V30 21948 O 2984.45 7.84798 -5.01039 0
M  V30 21949 O 2982.67 5.9812 -5.08098 0
M  V30 21950 O 2982.7 7.57503 -3.1866 0
M  V30 21951 C 2982.54 8.97357 -2.74833 0
M  V30 21952 C 2983.08 9.07548 -1.32709 0
M  V30 21953 O 2982.03 8.62072 -0.606159 0
M  V30 21954 C 2984.3 8.25383 -0.938334 0
M  V30 21955 O 2985.04 8.74577 0.146954 0
M  V30 21956 C 2983.63 6.8802 -0.712559 0
M  V30 21957 O 2984.43 6.1189 0.194655 0
M  V30 21958 C 2982.3 7.27966 -0.139777 0
M  V30 21959 H 2982.33 7.25354 0.961601 0
M  V30 21960 H 2983.51 6.32557 -1.65702 0
M  V30 21961 H 2984.99 8.19355 -1.79097 0
M  V30 21962 H 2983.3 10.1294 -1.10029 0
M  V30 21963 H 2983.11 9.64276 -3.41316 0
M  V30 21964 H 2981.48 9.25417 -2.76357 0
M  V30 21965 H 2984.12 6.25267 1.07847 0
M  V30 21966 P 2985.98 8.791 -3.143e-11 0
M  V30 21967 O 2987.4 9.31096 0.027933 0
M  V30 21968 O 2985.62 7.77869 -1.04071 0
M  V30 21969 O 2985.65 8.09533 1.41463 0
M  V30 21970 C 2985.49 9.0349 2.53943 0
M  V30 21971 C 2986.03 8.35226 3.79016 0
M  V30 21972 O 2984.98 7.57992 4.15078 0
M  V30 21973 C 2987.25 7.45087 3.67298 0
M  V30 21974 O 2987.99 7.27796 4.85194 0
M  V30 21975 C 2986.58 6.17323 3.12027 0
M  V30 21976 O 2987.38 5.04231 3.47188 0
M  V30 21977 C 2985.25 6.19961 3.81809 0
M  V30 21978 H 2985.28 5.58218 4.73051 0
M  V30 21979 H 2986.46 6.21726 2.02589 0
M  V30 21980 H 2987.94 7.86112 2.9231 0
M  V30 21981 H 2986.25 9.11627 4.55076 0
M  V30 21982 H 2986.06 9.9573 2.34194 0
M  V30 21983 H 2984.43 9.2792 2.67832 0
M  V30 21984 H 2987.07 4.67702 4.28772 0
M  V30 21985 P 2988.93 7.39546 4.75277 0
M  V30 21986 O 2990.35 7.81777 5.05738 0
M  V30 21987 O 2988.57 7.1065 3.32998 0
M  V30 21988 O 2988.6 6.04542 5.56673 0
M  V30 21989 C 2988.44 6.22772 7.02095 0
M  V30 21990 C 2988.98 4.97725 7.70406 0
M  V30 21991 O 2987.93 4.13256 7.58987 0
M  V30 21992 C 2990.2 4.28231 7.11815 0
M  V30 21993 O 2990.94 3.49945 8.01648 0
M  V30 21994 C 2989.53 3.5063 5.96244 0
M  V30 21995 O 2990.33 2.36482 5.64681 0
M  V30 21996 C 2988.2 3.15122 6.56374 0
M  V30 21997 H 2988.23 2.13853 6.99751 0
M  V30 21998 H 2989.41 4.13501 5.06559 0
M  V30 21999 H 2990.9 5.03285 6.70911 0
M  V30 22000 H 2989.2 5.20877 8.75697 0
M  V30 22001 H 2989.01 7.11046 7.35349 0
M  V30 22002 H 2987.38 6.35815 7.26986 0
M  V30 22003 H 2990.02 1.61644 6.13565 0
M  V30 22004 P 2991.88 3.65191 7.99657 0
M  V30 22005 O 2993.3 3.8425 8.48115 0
M  V30 22006 O 2991.52 4.17805 6.64342 0
M  V30 22007 O 2991.55 2.07613 7.95143 0
M  V30 22008 C 2991.39 1.44328 9.27336 0
M  V30 22009 C 2991.93 0.0220036 9.17197 0
M  V30 22010 O 2990.88 -0.626867 8.61923 0
M  V30 22011 C 2993.15 -0.24586 8.30336 0
M  V30 22012 O 2993.89 -1.39011 8.63583 0
M  V30 22013 C 2992.48 -0.273849 6.91158 0
M  V30 22014 O 2993.28 -1.06348 6.02892 0
M  V30 22015 C 2991.15 -0.897649 7.22545 0
M  V30 22016 H 2991.18 -1.9841 7.04286 0
M  V30 22017 H 2992.36 0.739928 6.497 0
M  V30 22018 H 2993.85 0.60668 8.36503 0
M  V30 22019 H 2992.15 -0.352479 10.1829 0
M  V30 22020 H 2991.96 2.00611 10.0304 0
M  V30 22021 H 2990.33 1.41843 9.55327 0
M  V30 22022 H 2992.97 -1.95734 6.03555 0
M  V30 22023 P 2994.83 -1.25109 8.70152 0
M  V30 22024 O 2996.25 -1.35274 9.21221 0
M  V30 22025 O 2994.47 -0.0769065 7.84762 0
M  V30 22026 O 2994.51 -2.55232 7.81161 0
M  V30 22027 C 2994.35 -3.79939 8.58154 0
M  V30 22028 C 2994.89 -4.94023 7.72785 0
M  V30 22029 O 2993.83 -5.18726 6.91205 0
M  V30 22030 C 2996.1 -4.69597 6.85231 0
M  V30 22031 O 2996.84 -5.83832 6.51337 0
M  V30 22032 C 2995.43 -3.96706 5.66633 0
M  V30 22033 O 2996.23 -4.15414 4.49689 0
M  V30 22034 C 2994.1 -4.66153 5.59313 0
M  V30 22035 H 2994.13 -5.47679 4.85214 0
M  V30 22036 H 2995.31 -2.89008 5.86566 0
M  V30 22037 H 2996.8 -4.0121 7.36511 0
M  V30 22038 H 2995.1 -5.80182 8.37584 0
M  V30 22039 H 2994.91 -3.73517 9.52265 0
M  V30 22040 H 2993.28 -3.97163 8.80359 0
M  V30 22041 H 2995.92 -4.90969 4.01921 0
M  V30 22042 P 2997.78 -5.75688 6.64379 0
M  V30 22043 O 2999.2 -6.11849 7.01846 0
M  V30 22044 O 2997.42 -4.30744 6.56026 0
M  V30 22045 O 2997.46 -6.37042 5.19165 0
M  V30 22046 C 2997.3 -7.83578 5.16515 0
M  V30 22047 C 2997.84 -8.33398 3.83019 0
M  V30 22048 O 2996.78 -8.10074 3.01034 0
M  V30 22049 C 2999.05 -7.65514 3.2257 0
M  V30 22050 O 2999.79 -8.4329 2.32297 0
M  V30 22051 C 2998.39 -6.40075 2.62207 0
M  V30 22052 O 2999.18 -5.92589 1.53712 0
M  V30 22053 C 2997.05 -6.9454 2.18503 0
M  V30 22054 H 2997.08 -7.23063 1.12091 0
M  V30 22055 H 2998.26 -5.6025 3.37201 0
M  V30 22056 H 2999.75 -7.35707 4.02681 0
M  V30 22057 H 2998.05 -9.40912 3.9095 0
M  V30 22058 H 2997.86 -8.29056 5.99158 0
M  V30 22059 H 2996.23 -8.10073 5.25882 0
M  V30 22060 H 2998.87 -6.30324 0.726794 0
M  V30 22061 P 3000.73 -8.4349 2.47671 0
M  V30 22062 O 3002.15 -8.94263 2.59668 0
M  V30 22063 O 3000.37 -7.1704 3.19006 0
M  V30 22064 O 3000.41 -8.16596 0.923387 0
M  V30 22065 C 3000.25 -9.38537 0.108869 0
M  V30 22066 C 3000.79 -9.08175 -1.28353 0
M  V30 22067 O 2999.73 -8.44131 -1.84692 0
M  V30 22068 C 3002 -8.18386 -1.42505 0
M  V30 22069 O 3002.74 -8.3501 -2.60497 0
M  V30 22070 C 3001.34 -6.80225 -1.25468 0
M  V30 22071 O 3002.13 -5.81716 -1.90454 0
M  V30 22072 C 3000 -7.02416 -1.9168 0
M  V30 22073 N 2998.96 -6.31033 -1.20314 0
M  V30 22074 C 2999.12 -5.98817 0.0994088 0
M  V30 22075 N 2998.1 -5.35403 0.621694 0
M  V30 22076 C 2997.21 -5.25212 -0.43376 0
M  V30 22077 C 2995.95 -4.64602 -0.519722 0
M  V30 22078 N 2995.35 -4.01457 0.519136 0
M  V30 22079 N 2995.38 -4.7568 -1.76013 0
M  V30 22080 C 2995.98 -5.3653 -2.83017 0
M  V30 22081 N 2997.16 -5.93676 -2.79782 0
M  V30 22082 C 2997.73 -5.84061 -1.56249 0
M  V30 22083 H 3000.03 -6.68789 -2.9658 0
M  V30 22084 H 3001.21 -6.53498 -0.198729 0
M  V30 22085 H 3002.7 -8.36622 -0.589963 0
M  V30 22086 H 3001 -10.0273 -1.8081 0
M  V30 22087 H 3000.81 -10.2138 0.558219 0
M  V30 22088 H 2999.18 -9.6579 0.0444202 0
M  V30 22089 H 2995.45 -5.37113 -3.77321 0
M  V30 22090 H 3000.02 -6.23209 0.660562 0
M  V30 22091 H 2994.42 -3.58834 0.394862 0
M  V30 22092 H 2995.82 -3.96059 1.43048 0
M  V30 22093 H 3001.82 -5.69466 -2.79593 0
M  V30 22094 P 3003.68 -8.4349 -2.47671 0
M  V30 22095 O 3005.1 -8.92593 -2.65 0
M  V30 22096 O 3003.32 -7.7568 -1.19296 0
M  V30 22097 O 3003.36 -7.36886 -3.63805 0
M  V30 22098 C 3003.2 -7.95349 -4.982 0
M  V30 22099 C 3003.74 -6.94612 -5.98974 0
M  V30 22100 O 3002.68 -6.10347 -6.11815 0
M  V30 22101 C 3004.96 -6.11426 -5.62335 0
M  V30 22102 O 3005.69 -5.6162 -6.70584 0
M  V30 22103 C 3004.29 -5.04409 -4.73308 0
M  V30 22104 O 3005.09 -3.85992 -4.75183 0
M  V30 22105 C 3002.95 -4.8728 -5.41006 0
M  V30 22106 H 3002.98 -4.02333 -6.11157 0
M  V30 22107 H 3004.16 -5.39466 -3.69543 0
M  V30 22108 H 3005.65 -6.71916 -5.01943 0
M  V30 22109 H 3003.95 -7.4649 -6.93477 0
M  V30 22110 H 3003.76 -8.89416 -5.05237 0
M  V30 22111 H 3002.13 -8.14876 -5.18409 0
M  V30 22112 H 3004.77 -3.27957 -5.4317 0
M  V30 22113 P 3006.63 -5.75688 -6.64379 0
M  V30 22114 O 3008.05 -6.07627 -7.05504 0
M  V30 22115 O 3006.27 -5.88047 -5.19722 0
M  V30 22116 O 3006.31 -4.2322 -7.04443 0
M  V30 22117 C 3006.15 -3.99743 -8.4911 0
M  V30 22118 C 3006.69 -2.60516 -8.79425 0
M  V30 22119 O 3005.63 -1.82684 -8.4467 0
M  V30 22120 C 3007.91 -2.10343 -8.03628 0
M  V30 22121 O 3008.64 -1.09919 -8.67766 0
M  V30 22122 C 3007.24 -1.68446 -6.70876 0
M  V30 22123 O 3008.04 -0.678137 -6.08433 0
M  V30 22124 C 3005.9 -1.17436 -7.18567 0
M  V30 22125 H 3005.93 -0.0804732 -7.31656 0
M  V30 22126 H 3007.11 -2.54037 -6.02537 0
M  V30 22127 H 3008.6 -2.93881 -7.85526 0
M  V30 22128 H 3006.9 -2.53065 -9.86973 0
M  V30 22129 H 3006.71 -4.75072 -9.05887 0
M  V30 22130 H 3005.08 -4.05244 -8.76668 0
M  V30 22131 H 3007.72 0.177647 -6.34251 0
M  V30 22132 P 3009.58 -1.25109 -8.70152 0
M  V30 22133 O 3011 -1.29744 -9.22016 0
M  V30 22134 O 3009.22 -2.13714 -7.55141 0
M  V30 22135 O 3009.26 0.248149 -8.21425 0
M  V30 22136 C 3009.1 1.22779 -9.30434 0
M  V30 22137 C 3009.64 2.56293 -8.80664 0
M  V30 22138 O 3008.58 3.02979 -8.09349 0
M  V30 22139 C 3010.86 2.57523 -7.89775 0
M  V30 22140 O 3011.59 3.7668 -7.89438 0
M  V30 22141 C 3010.19 2.20997 -6.55446 0
M  V30 22142 O 3010.99 2.71895 -5.48509 0
M  V30 22143 C 3008.85 2.89693 -6.67988 0
M  V30 22144 H 3008.88 3.88793 -6.19859 0
M  V30 22145 H 3010.07 1.12046 -6.44229 0
M  V30 22146 H 3011.55 1.7746 -8.19711 0
M  V30 22147 H 3009.86 3.20706 -9.67112 0
M  V30 22148 H 3009.67 0.901032 -10.1892 0
M  V30 22149 H 3008.04 1.33049 -9.56592 0
M  V30 22150 H 3010.67 3.57847 -5.23962 0
M  V30 22151 P 3012.53 3.65191 -7.99657 0
M  V30 22152 O 3013.95 3.89332 -8.45794 0
M  V30 22153 O 3012.17 2.28472 -7.50807 0
M  V30 22154 O 3012.21 4.64972 -6.77611 0
M  V30 22155 C 3012.05 6.06319 -7.16352 0
M  V30 22156 C 3012.59 6.91731 -6.02299 0
M  V30 22157 O 3011.53 6.92449 -5.17064 0
M  V30 22158 C 3013.81 6.43627 -5.25174 0
M  V30 22159 O 3014.54 7.43686 -4.60469 0
M  V30 22160 C 3013.14 5.40275 -4.31916 0
M  V30 22161 O 3013.94 5.25279 -3.14438 0
M  V30 22162 C 3011.8 6.04847 -4.05327 0
M  V30 22163 H 3011.83 6.62195 -3.11261 0
M  V30 22164 H 3013.02 4.42556 -4.81383 0
M  V30 22165 H 3014.5 5.92458 -5.93643 0
M  V30 22166 H 3012.81 7.92655 -6.402 0
M  V30 22167 H 3012.62 6.26671 -8.0846 0
M  V30 22168 H 3010.99 6.29101 -7.32804 0
M  V30 22169 H 3013.62 5.84315 -2.47318 0
M  V30 22170 P 3015.48 7.39546 -4.75277 0
M  V30 22171 O 3016.9 7.84798 -5.01039 0
M  V30 22172 O 3015.12 5.9812 -5.08098 0
M  V30 22173 O 3015.16 7.57503 -3.1866 0
M  V30 22174 C 3015 8.97357 -2.74833 0
M  V30 22175 C 3015.54 9.07548 -1.32709 0
M  V30 22176 O 3014.48 8.62072 -0.606159 0
M  V30 22177 C 3016.76 8.25383 -0.938334 0
M  V30 22178 O 3017.5 8.74577 0.146954 0
M  V30 22179 C 3016.09 6.8802 -0.712559 0
M  V30 22180 O 3016.89 6.1189 0.194655 0
M  V30 22181 C 3014.75 7.27966 -0.139777 0
M  V30 22182 H 3014.78 7.25354 0.961601 0
M  V30 22183 H 3015.97 6.32557 -1.65702 0
M  V30 22184 H 3017.45 8.19355 -1.79097 0
M  V30 22185 H 3015.76 10.1294 -1.10029 0
M  V30 22186 H 3015.57 9.64276 -3.41316 0
M  V30 22187 H 3013.94 9.25417 -2.76357 0
M  V30 22188 H 3016.58 6.25267 1.07847 0
M  V30 22189 P 3018.43 8.791 -3.66166e-11 0
M  V30 22190 O 3019.86 9.31096 0.027933 0
M  V30 22191 O 3018.07 7.77869 -1.04071 0
M  V30 22192 O 3018.11 8.09533 1.41463 0
M  V30 22193 C 3017.95 9.0349 2.53943 0
M  V30 22194 C 3018.49 8.35226 3.79016 0
M  V30 22195 O 3017.43 7.57992 4.15078 0
M  V30 22196 C 3019.71 7.45087 3.67298 0
M  V30 22197 O 3020.45 7.27796 4.85194 0
M  V30 22198 C 3019.04 6.17323 3.12027 0
M  V30 22199 O 3019.84 5.04231 3.47188 0
M  V30 22200 C 3017.7 6.19961 3.81809 0
M  V30 22201 H 3017.73 5.58218 4.73051 0
M  V30 22202 H 3018.92 6.21726 2.02589 0
M  V30 22203 H 3020.4 7.86112 2.9231 0
M  V30 22204 H 3018.71 9.11627 4.55076 0
M  V30 22205 H 3018.52 9.9573 2.34194 0
M  V30 22206 H 3016.89 9.2792 2.67832 0
M  V30 22207 H 3019.53 4.67702 4.28772 0
M  V30 22208 P 3021.38 7.39546 4.75277 0
M  V30 22209 O 3022.81 7.81777 5.05738 0
M  V30 22210 O 3021.02 7.1065 3.32998 0
M  V30 22211 O 3021.06 6.04542 5.56673 0
M  V30 22212 C 3020.9 6.22772 7.02095 0
M  V30 22213 C 3021.44 4.97725 7.70406 0
M  V30 22214 O 3020.38 4.13256 7.58987 0
M  V30 22215 C 3022.66 4.28231 7.11815 0
M  V30 22216 O 3023.4 3.49945 8.01648 0
M  V30 22217 C 3021.99 3.5063 5.96244 0
M  V30 22218 O 3022.79 2.36482 5.64681 0
M  V30 22219 C 3020.65 3.15122 6.56374 0
M  V30 22220 H 3020.68 2.13853 6.99751 0
M  V30 22221 H 3021.87 4.13501 5.06559 0
M  V30 22222 H 3023.35 5.03285 6.70911 0
M  V30 22223 H 3021.66 5.20877 8.75697 0
M  V30 22224 H 3021.47 7.11046 7.35349 0
M  V30 22225 H 3019.84 6.35815 7.26986 0
M  V30 22226 H 3022.48 1.61644 6.13565 0
M  V30 22227 P 3024.33 3.65191 7.99657 0
M  V30 22228 O 3025.74 3.90823 8.51272 0
M  V30 22229 O 3023.96 4.23191 6.66972 0
M  V30 22230 O 3024.01 2.07587 7.95046 0
M  V30 22231 C 3023.85 1.44328 9.27336 0
M  V30 22232 C 3024.39 0.0220012 9.17097 0
M  V30 22233 O 3023.34 -0.626794 8.61824 0
M  V30 22234 C 3025.61 -0.24586 8.30336 0
M  V30 22235 O 3026.35 -1.39011 8.63583 0
M  V30 22236 C 3024.94 -0.273849 6.91158 0
M  V30 22237 O 3025.74 -1.06331 6.02794 0
M  V30 22238 C 3023.6 -0.897649 7.22545 0
M  V30 22239 N 3022.56 -0.292839 6.41732 0
M  V30 22240 C 3021.53 -1.08701 5.98712 0
M  V30 22241 O 3021.56 -2.31211 6.24471 0
M  V30 22242 N 3020.51 -0.533391 5.28415 0
M  V30 22243 C 3020.56 0.770866 4.98576 0
M  V30 22244 C 3021.66 1.59049 5.38086 0
M  V30 22245 C 3022.62 1.01866 6.10256 0
M  V30 22246 H 3023.64 -1.98383 7.04189 0
M  V30 22247 H 3024.82 0.733318 6.49674 0
M  V30 22248 H 3026.3 0.598386 8.36663 0
M  V30 22249 H 3024.61 -0.362662 10.1825 0
M  V30 22250 H 3024.42 2.00611 10.0304 0
M  V30 22251 H 3022.79 1.41828 9.55228 0
M  V30 22252 H 3021.71 2.6415 5.10622 0
M  V30 22253 H 3023.47 1.61983 6.44042 0
M  V30 22254 H 3025.52 -1.97777 6.14035 0
M  V30 22255 P 3027.28 -1.25109 8.70152 0
M  V30 22256 O 3028.71 -1.35274 9.21221 0
M  V30 22257 O 3026.92 -0.0769065 7.84762 0
M  V30 22258 O 3026.96 -2.55232 7.81161 0
M  V30 22259 C 3026.8 -3.79939 8.58154 0
M  V30 22260 C 3027.34 -4.94023 7.72785 0
M  V30 22261 O 3026.29 -5.18726 6.91205 0
M  V30 22262 C 3028.56 -4.69597 6.85231 0
M  V30 22263 O 3029.3 -5.83832 6.51337 0
M  V30 22264 C 3027.89 -3.96706 5.66633 0
M  V30 22265 O 3028.69 -4.15414 4.49689 0
M  V30 22266 C 3026.55 -4.66153 5.59313 0
M  V30 22267 H 3026.59 -5.47679 4.85214 0
M  V30 22268 H 3027.77 -2.89008 5.86566 0
M  V30 22269 H 3029.25 -4.0121 7.36511 0
M  V30 22270 H 3027.56 -5.80182 8.37584 0
M  V30 22271 H 3027.37 -3.73517 9.52265 0
M  V30 22272 H 3025.74 -3.97163 8.80359 0
M  V30 22273 H 3028.38 -4.90969 4.01921 0
M  V30 22274 P 3030.24 -5.75688 6.64379 0
M  V30 22275 O 3031.66 -6.11849 7.01846 0
M  V30 22276 O 3029.88 -4.30744 6.56026 0
M  V30 22277 O 3029.91 -6.37042 5.19165 0
M  V30 22278 C 3029.75 -7.83578 5.16515 0
M  V30 22279 C 3030.29 -8.33398 3.83019 0
M  V30 22280 O 3029.24 -8.10074 3.01034 0
M  V30 22281 C 3031.51 -7.65514 3.2257 0
M  V30 22282 O 3032.25 -8.4329 2.32297 0
M  V30 22283 C 3030.84 -6.40075 2.62207 0
M  V30 22284 O 3031.64 -5.92589 1.53712 0
M  V30 22285 C 3029.5 -6.9454 2.18503 0
M  V30 22286 H 3029.54 -7.23063 1.12091 0
M  V30 22287 H 3030.72 -5.6025 3.37201 0
M  V30 22288 H 3032.2 -7.35707 4.02681 0
M  V30 22289 H 3030.51 -9.40912 3.9095 0
M  V30 22290 H 3030.32 -8.29056 5.99158 0
M  V30 22291 H 3028.69 -8.10073 5.25882 0
M  V30 22292 H 3031.33 -6.30324 0.726794 0
M  V30 22293 P 3033.19 -8.4349 2.47671 0
M  V30 22294 O 3034.61 -8.94167 2.5964 0
M  V30 22295 O 3032.83 -7.1704 3.19006 0
M  V30 22296 O 3032.86 -8.16596 0.923387 0
M  V30 22297 C 3032.7 -9.38437 0.108857 0
M  V30 22298 C 3033.24 -9.08175 -1.28353 0
M  V30 22299 O 3032.19 -8.44229 -1.84713 0
M  V30 22300 C 3034.46 -8.18386 -1.42505 0
M  V30 22301 O 3035.2 -8.3501 -2.60497 0
M  V30 22302 C 3033.79 -6.80225 -1.25468 0
M  V30 22303 O 3034.59 -5.81621 -1.91066 0
M  V30 22304 C 3032.45 -7.02416 -1.9168 0
M  V30 22305 H 3032.49 -6.6888 -2.96621 0
M  V30 22306 H 3033.67 -6.53617 -0.192223 0
M  V30 22307 H 3035.15 -8.36622 -0.589963 0
M  V30 22308 H 3033.46 -10.0291 -1.79807 0
M  V30 22309 H 3033.27 -10.2138 0.558219 0
M  V30 22310 H 3031.64 -9.6579 0.0444202 0
M  V30 22311 H 3034.28 -5.69556 -2.79637 0
M  V30 22312 P 3036.14 -8.4349 -2.47671 0
M  V30 22313 O 3037.56 -8.92593 -2.65 0
M  V30 22314 O 3035.78 -7.7568 -1.19296 0
M  V30 22315 O 3035.81 -7.36886 -3.63805 0
M  V30 22316 C 3035.65 -7.95349 -4.982 0
M  V30 22317 C 3036.19 -6.94612 -5.98974 0
M  V30 22318 O 3035.14 -6.10347 -6.11815 0
M  V30 22319 C 3037.41 -6.11426 -5.62335 0
M  V30 22320 O 3038.15 -5.6162 -6.70584 0
M  V30 22321 C 3036.74 -5.04409 -4.73308 0
M  V30 22322 O 3037.54 -3.85992 -4.75183 0
M  V30 22323 C 3035.41 -4.8728 -5.41006 0
M  V30 22324 H 3035.44 -4.02333 -6.11157 0
M  V30 22325 H 3036.62 -5.39466 -3.69543 0
M  V30 22326 H 3038.1 -6.71916 -5.01943 0
M  V30 22327 H 3036.41 -7.4649 -6.93477 0
M  V30 22328 H 3036.22 -8.89416 -5.05237 0
M  V30 22329 H 3034.59 -8.14876 -5.18409 0
M  V30 22330 H 3037.23 -3.27957 -5.4317 0
M  V30 22331 P 3039.09 -5.75688 -6.64379 0
M  V30 22332 O 3040.51 -6.07627 -7.05504 0
M  V30 22333 O 3038.73 -5.88047 -5.19722 0
M  V30 22334 O 3038.76 -4.2322 -7.04443 0
M  V30 22335 C 3038.6 -3.99743 -8.4911 0
M  V30 22336 C 3039.14 -2.60516 -8.79425 0
M  V30 22337 O 3038.09 -1.82684 -8.4467 0
M  V30 22338 C 3040.36 -2.10343 -8.03628 0
M  V30 22339 O 3041.1 -1.09919 -8.67766 0
M  V30 22340 C 3039.69 -1.68446 -6.70876 0
M  V30 22341 O 3040.49 -0.678137 -6.08433 0
M  V30 22342 C 3038.36 -1.17436 -7.18567 0
M  V30 22343 H 3038.39 -0.0804732 -7.31656 0
M  V30 22344 H 3039.57 -2.54037 -6.02537 0
M  V30 22345 H 3041.06 -2.93881 -7.85526 0
M  V30 22346 H 3039.36 -2.53065 -9.86973 0
M  V30 22347 H 3039.17 -4.75072 -9.05887 0
M  V30 22348 H 3037.54 -4.05244 -8.76668 0
M  V30 22349 H 3040.18 0.177647 -6.34251 0
M  V30 22350 P 3042.04 -1.25109 -8.70152 0
M  V30 22351 O 3043.46 -1.29744 -9.22016 0
M  V30 22352 O 3041.68 -2.13714 -7.55141 0
M  V30 22353 O 3041.71 0.248149 -8.21425 0
M  V30 22354 C 3041.55 1.22779 -9.30434 0
M  V30 22355 C 3042.09 2.56293 -8.80664 0
M  V30 22356 O 3041.04 3.02979 -8.09349 0
M  V30 22357 C 3043.31 2.57523 -7.89775 0
M  V30 22358 O 3044.05 3.7668 -7.89438 0
M  V30 22359 C 3042.64 2.20997 -6.55446 0
M  V30 22360 O 3043.44 2.71895 -5.48509 0
M  V30 22361 C 3041.31 2.89693 -6.67988 0
M  V30 22362 H 3041.34 3.88793 -6.19859 0
M  V30 22363 H 3042.52 1.12046 -6.44229 0
M  V30 22364 H 3044.01 1.7746 -8.19711 0
M  V30 22365 H 3042.31 3.20706 -9.67112 0
M  V30 22366 H 3042.12 0.901032 -10.1892 0
M  V30 22367 H 3040.49 1.33049 -9.56592 0
M  V30 22368 H 3043.13 3.57847 -5.23962 0
M  V30 22369 P 3044.99 3.65191 -7.99657 0
M  V30 22370 O 3046.41 3.89332 -8.45794 0
M  V30 22371 O 3044.63 2.28472 -7.50807 0
M  V30 22372 O 3044.67 4.64972 -6.77611 0
M  V30 22373 C 3044.51 6.06319 -7.16352 0
M  V30 22374 C 3045.05 6.91731 -6.02299 0
M  V30 22375 O 3043.99 6.92449 -5.17064 0
M  V30 22376 C 3046.26 6.43627 -5.25174 0
M  V30 22377 O 3047 7.43686 -4.60469 0
M  V30 22378 C 3045.59 5.40275 -4.31916 0
M  V30 22379 O 3046.39 5.25279 -3.14438 0
M  V30 22380 C 3044.26 6.04847 -4.05327 0
M  V30 22381 H 3044.29 6.62195 -3.11261 0
M  V30 22382 H 3045.47 4.42556 -4.81383 0
M  V30 22383 H 3046.96 5.92458 -5.93643 0
M  V30 22384 H 3045.26 7.92655 -6.402 0
M  V30 22385 H 3045.07 6.26671 -8.0846 0
M  V30 22386 H 3043.44 6.29101 -7.32804 0
M  V30 22387 H 3046.08 5.84315 -2.47318 0
M  V30 22388 P 3047.94 7.39546 -4.75277 0
M  V30 22389 O 3049.36 7.84798 -5.01039 0
M  V30 22390 O 3047.58 5.9812 -5.08098 0
M  V30 22391 O 3047.62 7.57503 -3.1866 0
M  V30 22392 C 3047.46 8.97357 -2.74833 0
M  V30 22393 C 3048 9.07548 -1.32709 0
M  V30 22394 O 3046.94 8.62072 -0.606159 0
M  V30 22395 C 3049.21 8.25383 -0.938334 0
M  V30 22396 O 3049.95 8.74577 0.146954 0
M  V30 22397 C 3048.54 6.8802 -0.712559 0
M  V30 22398 O 3049.34 6.1189 0.194655 0
M  V30 22399 C 3047.21 7.27966 -0.139777 0
M  V30 22400 H 3047.24 7.25354 0.961601 0
M  V30 22401 H 3048.42 6.32557 -1.65702 0
M  V30 22402 H 3049.91 8.19355 -1.79097 0
M  V30 22403 H 3048.21 10.1294 -1.10029 0
M  V30 22404 H 3048.02 9.64276 -3.41316 0
M  V30 22405 H 3046.39 9.25417 -2.76357 0
M  V30 22406 H 3049.03 6.25267 1.07847 0
M  V30 22407 P 3050.89 8.791 -4.18033e-11 0
M  V30 22408 O 3052.31 9.31096 0.027933 0
M  V30 22409 O 3050.53 7.77869 -1.04071 0
M  V30 22410 O 3050.57 8.09533 1.41463 0
M  V30 22411 C 3050.41 9.0349 2.53943 0
M  V30 22412 C 3050.95 8.35226 3.79016 0
M  V30 22413 O 3049.89 7.57992 4.15078 0
M  V30 22414 C 3052.16 7.45087 3.67298 0
M  V30 22415 O 3052.9 7.27796 4.85194 0
M  V30 22416 C 3051.5 6.17323 3.12027 0
M  V30 22417 O 3052.29 5.04231 3.47188 0
M  V30 22418 C 3050.16 6.19961 3.81809 0
M  V30 22419 H 3050.19 5.58218 4.73051 0
M  V30 22420 H 3051.37 6.21726 2.02589 0
M  V30 22421 H 3052.86 7.86112 2.9231 0
M  V30 22422 H 3051.16 9.11627 4.55076 0
M  V30 22423 H 3050.97 9.9573 2.34194 0
M  V30 22424 H 3049.34 9.2792 2.67832 0
M  V30 22425 H 3051.98 4.67702 4.28772 0
M  V30 22426 P 3053.84 7.39546 4.75277 0
M  V30 22427 O 3055.26 7.81777 5.05738 0
M  V30 22428 O 3053.48 7.1065 3.32998 0
M  V30 22429 O 3053.52 6.04542 5.56673 0
M  V30 22430 C 3053.36 6.22772 7.02095 0
M  V30 22431 C 3053.9 4.97725 7.70406 0
M  V30 22432 O 3052.84 4.13256 7.58987 0
M  V30 22433 C 3055.11 4.28231 7.11815 0
M  V30 22434 O 3055.85 3.49945 8.01648 0
M  V30 22435 C 3054.45 3.5063 5.96244 0
M  V30 22436 O 3055.24 2.36482 5.64681 0
M  V30 22437 C 3053.11 3.15122 6.56374 0
M  V30 22438 H 3053.14 2.13853 6.99751 0
M  V30 22439 H 3054.32 4.13501 5.06559 0
M  V30 22440 H 3055.81 5.03285 6.70911 0
M  V30 22441 H 3054.11 5.20877 8.75697 0
M  V30 22442 H 3053.92 7.11046 7.35349 0
M  V30 22443 H 3052.29 6.35815 7.26986 0
M  V30 22444 H 3054.93 1.61644 6.13565 0
M  V30 22445 P 3056.79 3.65191 7.99657 0
M  V30 22446 O 3058.21 3.8425 8.48115 0
M  V30 22447 O 3056.43 4.17805 6.64342 0
M  V30 22448 O 3056.47 2.07613 7.95143 0
M  V30 22449 C 3056.31 1.44328 9.27336 0
M  V30 22450 C 3056.85 0.0220036 9.17197 0
M  V30 22451 O 3055.79 -0.626867 8.61923 0
M  V30 22452 C 3058.07 -0.24586 8.30336 0
M  V30 22453 O 3058.8 -1.39011 8.63583 0
M  V30 22454 C 3057.4 -0.273849 6.91158 0
M  V30 22455 O 3058.2 -1.06348 6.02892 0
M  V30 22456 C 3056.06 -0.897649 7.22545 0
M  V30 22457 H 3056.09 -1.9841 7.04286 0
M  V30 22458 H 3057.27 0.739928 6.497 0
M  V30 22459 H 3058.76 0.60668 8.36503 0
M  V30 22460 H 3057.06 -0.352479 10.1829 0
M  V30 22461 H 3056.87 2.00611 10.0304 0
M  V30 22462 H 3055.24 1.41843 9.55327 0
M  V30 22463 H 3057.88 -1.95734 6.03555 0
M  V30 22464 P 3059.74 -1.25109 8.70152 0
M  V30 22465 O 3061.16 -1.35274 9.21221 0
M  V30 22466 O 3059.38 -0.0769065 7.84762 0
M  V30 22467 O 3059.42 -2.55232 7.81161 0
M  V30 22468 C 3059.26 -3.79939 8.58154 0
M  V30 22469 C 3059.8 -4.94023 7.72785 0
M  V30 22470 O 3058.74 -5.18726 6.91205 0
M  V30 22471 C 3061.02 -4.69597 6.85231 0
M  V30 22472 O 3061.75 -5.83832 6.51337 0
M  V30 22473 C 3060.35 -3.96706 5.66633 0
M  V30 22474 O 3061.15 -4.15414 4.49689 0
M  V30 22475 C 3059.01 -4.66153 5.59313 0
M  V30 22476 H 3059.04 -5.47679 4.85214 0
M  V30 22477 H 3060.23 -2.89008 5.86566 0
M  V30 22478 H 3061.71 -4.0121 7.36511 0
M  V30 22479 H 3060.02 -5.80182 8.37584 0
M  V30 22480 H 3059.83 -3.73517 9.52265 0
M  V30 22481 H 3058.2 -3.97163 8.80359 0
M  V30 22482 H 3060.83 -4.90969 4.01921 0
M  V30 22483 P 3062.69 -5.75688 6.64379 0
M  V30 22484 O 3064.11 -6.11849 7.01846 0
M  V30 22485 O 3062.33 -4.30744 6.56026 0
M  V30 22486 O 3062.37 -6.37042 5.19165 0
M  V30 22487 C 3062.21 -7.83578 5.16515 0
M  V30 22488 C 3062.75 -8.33398 3.83019 0
M  V30 22489 O 3061.69 -8.10074 3.01034 0
M  V30 22490 C 3063.97 -7.65514 3.2257 0
M  V30 22491 O 3064.7 -8.4329 2.32297 0
M  V30 22492 C 3063.3 -6.40075 2.62207 0
M  V30 22493 O 3064.1 -5.92589 1.53712 0
M  V30 22494 C 3061.96 -6.9454 2.18503 0
M  V30 22495 H 3061.99 -7.23063 1.12091 0
M  V30 22496 H 3063.18 -5.6025 3.37201 0
M  V30 22497 H 3064.66 -7.35707 4.02681 0
M  V30 22498 H 3062.97 -9.40912 3.9095 0
M  V30 22499 H 3062.78 -8.29056 5.99158 0
M  V30 22500 H 3061.15 -8.10073 5.25882 0
M  V30 22501 H 3063.78 -6.30324 0.726794 0
M  V30 22502 P 3065.64 -8.4349 2.47671 0
M  V30 22503 O 3067.06 -8.94167 2.5964 0
M  V30 22504 O 3065.28 -7.1704 3.19006 0
M  V30 22505 O 3065.32 -8.16596 0.923387 0
M  V30 22506 C 3065.16 -9.38437 0.108857 0
M  V30 22507 C 3065.7 -9.08175 -1.28353 0
M  V30 22508 O 3064.64 -8.44229 -1.84713 0
M  V30 22509 C 3066.92 -8.18386 -1.42505 0
M  V30 22510 O 3067.66 -8.3501 -2.60497 0
M  V30 22511 C 3066.25 -6.80225 -1.25468 0
M  V30 22512 O 3067.05 -5.81621 -1.91066 0
M  V30 22513 C 3064.91 -7.02416 -1.9168 0
M  V30 22514 H 3064.94 -6.6888 -2.96621 0
M  V30 22515 H 3066.13 -6.53617 -0.192223 0
M  V30 22516 H 3067.61 -8.36622 -0.589963 0
M  V30 22517 H 3065.92 -10.0291 -1.79807 0
M  V30 22518 H 3065.73 -10.2138 0.558219 0
M  V30 22519 H 3064.1 -9.6579 0.0444202 0
M  V30 22520 H 3066.74 -5.69556 -2.79637 0
M  V30 22521 P 3068.59 -8.4349 -2.47671 0
M  V30 22522 O 3070.01 -8.92689 -2.65029 0
M  V30 22523 O 3068.23 -7.7568 -1.19296 0
M  V30 22524 O 3068.27 -7.36886 -3.63805 0
M  V30 22525 C 3068.11 -7.95433 -4.98253 0
M  V30 22526 C 3068.65 -6.94612 -5.98974 0
M  V30 22527 O 3067.59 -6.10277 -6.11744 0
M  V30 22528 C 3069.87 -6.11426 -5.62335 0
M  V30 22529 O 3070.61 -5.6162 -6.70584 0
M  V30 22530 C 3069.2 -5.04409 -4.73308 0
M  V30 22531 O 3070 -3.86404 -4.74719 0
M  V30 22532 C 3067.86 -4.8728 -5.41006 0
M  V30 22533 N 3066.82 -4.65812 -4.42377 0
M  V30 22534 C 3066.99 -5.09132 -3.15382 0
M  V30 22535 N 3065.96 -4.84021 -2.3716 0
M  V30 22536 C 3065.08 -4.18386 -3.20441 0
M  V30 22537 C 3063.81 -3.6275 -2.94905 0
M  V30 22538 N 3063.21 -3.65794 -1.73372 0
M  V30 22539 N 3063.24 -3.05008 -4.05243 0
M  V30 22540 C 3063.85 -2.98348 -5.28159 0
M  V30 22541 N 3065.02 -3.48171 -5.56333 0
M  V30 22542 C 3065.6 -4.06869 -4.47212 0
M  V30 22543 H 3067.89 -4.02278 -6.11074 0
M  V30 22544 H 3069.08 -5.39013 -3.70026 0
M  V30 22545 H 3070.56 -6.71916 -5.01943 0
M  V30 22546 H 3068.87 -7.45796 -6.94223 0
M  V30 22547 H 3068.68 -8.89416 -5.05237 0
M  V30 22548 H 3067.05 -8.14876 -5.18409 0
M  V30 22549 H 3063.31 -2.47853 -6.07807 0
M  V30 22550 H 3067.89 -5.59989 -2.81362 0
M  V30 22551 H 3062.28 -3.23218 -1.60782 0
M  V30 22552 H 3063.68 -4.10523 -0.937856 0
M  V30 22553 H 3069.69 -3.27906 -5.43085 0
M  V30 22554 P 3071.54 -5.75688 -6.64379 0
M  V30 22555 O 3072.97 -6.07627 -7.05504 0
M  V30 22556 O 3071.18 -5.88047 -5.19722 0
M  V30 22557 O 3071.22 -4.2322 -7.04443 0
M  V30 22558 C 3071.06 -3.99743 -8.4911 0
M  V30 22559 C 3071.6 -2.60516 -8.79425 0
M  V30 22560 O 3070.54 -1.82684 -8.4467 0
M  V30 22561 C 3072.82 -2.10343 -8.03628 0
M  V30 22562 O 3073.56 -1.09919 -8.67766 0
M  V30 22563 C 3072.15 -1.68446 -6.70876 0
M  V30 22564 O 3072.95 -0.678137 -6.08433 0
M  V30 22565 C 3070.81 -1.17436 -7.18567 0
M  V30 22566 H 3070.84 -0.0804732 -7.31656 0
M  V30 22567 H 3072.03 -2.54037 -6.02537 0
M  V30 22568 H 3073.51 -2.93881 -7.85526 0
M  V30 22569 H 3071.82 -2.53065 -9.86973 0
M  V30 22570 H 3071.63 -4.75072 -9.05887 0
M  V30 22571 H 3070 -4.05244 -8.76668 0
M  V30 22572 H 3072.64 0.177647 -6.34251 0
M  V30 22573 P 3074.49 -1.25109 -8.70152 0
M  V30 22574 O 3075.92 -1.29744 -9.22016 0
M  V30 22575 O 3074.13 -2.13714 -7.55141 0
M  V30 22576 O 3074.17 0.248149 -8.21425 0
M  V30 22577 C 3074.01 1.22779 -9.30434 0
M  V30 22578 C 3074.55 2.56293 -8.80664 0
M  V30 22579 O 3073.49 3.02979 -8.09349 0
M  V30 22580 C 3075.77 2.57523 -7.89775 0
M  V30 22581 O 3076.51 3.7668 -7.89438 0
M  V30 22582 C 3075.1 2.20997 -6.55446 0
M  V30 22583 O 3075.9 2.71895 -5.48509 0
M  V30 22584 C 3073.76 2.89693 -6.67988 0
M  V30 22585 H 3073.79 3.88793 -6.19859 0
M  V30 22586 H 3074.98 1.12046 -6.44229 0
M  V30 22587 H 3076.46 1.7746 -8.19711 0
M  V30 22588 H 3074.77 3.20706 -9.67112 0
M  V30 22589 H 3074.58 0.901032 -10.1892 0
M  V30 22590 H 3072.95 1.33049 -9.56592 0
M  V30 22591 H 3075.59 3.57847 -5.23962 0
M  V30 22592 P 3077.44 3.65191 -7.99657 0
M  V30 22593 O 3078.87 3.89374 -8.45885 0
M  V30 22594 O 3077.08 2.28472 -7.50807 0
M  V30 22595 O 3077.12 4.64972 -6.77611 0
M  V30 22596 C 3076.96 6.06383 -7.16428 0
M  V30 22597 C 3077.5 6.91731 -6.02299 0
M  V30 22598 O 3076.45 6.92369 -5.17005 0
M  V30 22599 C 3078.72 6.43627 -5.25174 0
M  V30 22600 O 3079.46 7.43686 -4.60469 0
M  V30 22601 C 3078.05 5.40275 -4.31916 0
M  V30 22602 O 3078.85 5.24878 -3.14911 0
M  V30 22603 C 3076.71 6.04847 -4.05327 0
M  V30 22604 N 3075.67 5.04166 -3.98114 0
M  V30 22605 C 3075.84 3.84629 -4.59066 0
M  V30 22606 N 3074.81 3.0363 -4.45343 0
M  V30 22607 C 3073.93 3.76722 -3.68523 0
M  V30 22608 C 3072.66 3.43528 -3.17088 0
M  V30 22609 N 3072.06 2.23665 -3.37397 0
M  V30 22610 N 3072.1 4.44526 -2.44231 0
M  V30 22611 C 3072.7 5.65243 -2.20146 0
M  V30 22612 N 3073.87 6.00221 -2.65453 0
M  V30 22613 C 3074.45 5.00564 -3.39083 0
M  V30 22614 H 3076.75 6.62104 -3.11218 0
M  V30 22615 H 3077.93 4.42969 -4.80867 0
M  V30 22616 H 3079.41 5.92458 -5.93643 0
M  V30 22617 H 3077.72 7.93295 -6.39407 0
M  V30 22618 H 3077.53 6.26671 -8.0846 0
M  V30 22619 H 3075.9 6.29101 -7.32804 0
M  V30 22620 H 3072.16 6.36894 -1.5883 0
M  V30 22621 H 3076.74 3.58193 -5.14248 0
M  V30 22622 H 3071.13 2.05145 -2.97047 0
M  V30 22623 H 3072.54 1.51255 -3.92998 0
M  V30 22624 H 3078.54 5.84223 -2.47279 0
M  V30 22625 P 3080.4 7.39546 -4.75277 0
M  V30 22626 O 3081.82 7.84798 -5.01039 0
M  V30 22627 O 3080.04 5.9812 -5.08098 0
M  V30 22628 O 3080.07 7.57503 -3.1866 0
M  V30 22629 C 3079.91 8.97357 -2.74833 0
M  V30 22630 C 3080.45 9.07548 -1.32709 0
M  V30 22631 O 3079.4 8.62072 -0.606159 0
M  V30 22632 C 3081.67 8.25383 -0.938334 0
M  V30 22633 O 3082.41 8.74577 0.146954 0
M  V30 22634 C 3081 6.8802 -0.712559 0
M  V30 22635 O 3081.8 6.1189 0.194655 0
M  V30 22636 C 3079.66 7.27966 -0.139777 0
M  V30 22637 H 3079.7 7.25354 0.961601 0
M  V30 22638 H 3080.88 6.32557 -1.65702 0
M  V30 22639 H 3082.36 8.19355 -1.79097 0
M  V30 22640 H 3080.67 10.1294 -1.10029 0
M  V30 22641 H 3080.48 9.64276 -3.41316 0
M  V30 22642 H 3078.85 9.25417 -2.76357 0
M  V30 22643 H 3081.49 6.25267 1.07847 0
M  V30 22644 P 3083.35 8.791 -4.69899e-11 0
M  V30 22645 O 3084.77 9.31096 0.027933 0
M  V30 22646 O 3082.99 7.77869 -1.04071 0
M  V30 22647 O 3083.02 8.09533 1.41463 0
M  V30 22648 C 3082.86 9.0349 2.53943 0
M  V30 22649 C 3083.4 8.35226 3.79016 0
M  V30 22650 O 3082.35 7.57992 4.15078 0
M  V30 22651 C 3084.62 7.45087 3.67298 0
M  V30 22652 O 3085.36 7.27796 4.85194 0
M  V30 22653 C 3083.95 6.17323 3.12027 0
M  V30 22654 O 3084.75 5.04231 3.47188 0
M  V30 22655 C 3082.61 6.19961 3.81809 0
M  V30 22656 H 3082.65 5.58218 4.73051 0
M  V30 22657 H 3083.83 6.21726 2.02589 0
M  V30 22658 H 3085.31 7.86112 2.9231 0
M  V30 22659 H 3083.62 9.11627 4.55076 0
M  V30 22660 H 3083.43 9.9573 2.34194 0
M  V30 22661 H 3081.8 9.2792 2.67832 0
M  V30 22662 H 3084.44 4.67702 4.28772 0
M  V30 22663 P 3086.3 7.39546 4.75277 0
M  V30 22664 O 3087.72 7.81777 5.05738 0
M  V30 22665 O 3085.94 7.1065 3.32998 0
M  V30 22666 O 3085.97 6.04542 5.56673 0
M  V30 22667 C 3085.81 6.22772 7.02095 0
M  V30 22668 C 3086.35 4.97725 7.70406 0
M  V30 22669 O 3085.3 4.13256 7.58987 0
M  V30 22670 C 3087.57 4.28231 7.11815 0
M  V30 22671 O 3088.31 3.49945 8.01648 0
M  V30 22672 C 3086.9 3.5063 5.96244 0
M  V30 22673 O 3087.7 2.36482 5.64681 0
M  V30 22674 C 3085.57 3.15122 6.56374 0
M  V30 22675 H 3085.6 2.13853 6.99751 0
M  V30 22676 H 3086.78 4.13501 5.06559 0
M  V30 22677 H 3088.26 5.03285 6.70911 0
M  V30 22678 H 3086.57 5.20877 8.75697 0
M  V30 22679 H 3086.38 7.11046 7.35349 0
M  V30 22680 H 3084.75 6.35815 7.26986 0
M  V30 22681 H 3087.39 1.61644 6.13565 0
M  V30 22682 P 3089.25 3.65191 7.99657 0
M  V30 22683 O 3090.67 3.8425 8.48115 0
M  V30 22684 O 3088.89 4.17805 6.64342 0
M  V30 22685 O 3088.92 2.07613 7.95143 0
M  V30 22686 C 3088.76 1.44328 9.27336 0
M  V30 22687 C 3089.3 0.0220036 9.17197 0
M  V30 22688 O 3088.25 -0.626867 8.61923 0
M  V30 22689 C 3090.52 -0.24586 8.30336 0
M  V30 22690 O 3091.26 -1.39011 8.63583 0
M  V30 22691 C 3089.85 -0.273849 6.91158 0
M  V30 22692 O 3090.65 -1.06348 6.02892 0
M  V30 22693 C 3088.52 -0.897649 7.22545 0
M  V30 22694 H 3088.55 -1.9841 7.04286 0
M  V30 22695 H 3089.73 0.739928 6.497 0
M  V30 22696 H 3091.21 0.60668 8.36503 0
M  V30 22697 H 3089.52 -0.352479 10.1829 0
M  V30 22698 H 3089.33 2.00611 10.0304 0
M  V30 22699 H 3087.7 1.41843 9.55327 0
M  V30 22700 H 3090.34 -1.95734 6.03555 0
M  V30 22701 P 3092.2 -1.25109 8.70152 0
M  V30 22702 O 3093.62 -1.35288 9.2132 0
M  V30 22703 O 3091.84 -0.0769065 7.84762 0
M  V30 22704 O 3091.87 -2.55232 7.81161 0
M  V30 22705 C 3091.71 -3.79979 8.58246 0
M  V30 22706 C 3092.25 -4.94023 7.72785 0
M  V30 22707 O 3091.2 -5.18666 6.91125 0
M  V30 22708 C 3093.47 -4.69597 6.85231 0
M  V30 22709 O 3094.21 -5.83832 6.51337 0
M  V30 22710 C 3092.8 -3.96706 5.66633 0
M  V30 22711 O 3093.6 -4.14896 4.5003 0
M  V30 22712 C 3091.47 -4.66153 5.59313 0
M  V30 22713 N 3090.42 -3.71582 5.24027 0
M  V30 22714 C 3090.59 -2.39715 5.48833 0
M  V30 22715 N 3089.57 -1.65863 5.12845 0
M  V30 22716 C 3088.68 -2.57637 4.5973 0
M  V30 22717 C 3087.41 -2.40278 4.01027 0
M  V30 22718 N 3086.85 -3.57711 3.59575 0
M  V30 22719 C 3087.45 -4.80324 3.70476 0
M  V30 22720 N 3088.63 -5.01121 4.23801 0
M  V30 22721 C 3089.2 -3.84757 4.66372 0
M  V30 22722 H 3092.68 -2.8955 5.86187 0
M  V30 22723 H 3094.16 -4.0121 7.36511 0
M  V30 22724 H 3092.47 -5.81019 8.37003 0
M  V30 22725 H 3092.28 -3.73517 9.52265 0
M  V30 22726 H 3090.65 -3.97163 8.80359 0
M  V30 22727 H 3091.49 -1.98804 5.94332 0
M  V30 22728 H 3093.29 -4.90891 4.01857 0
M  V30 22729 P 3095.15 -5.75688 6.64379 0
M  V30 22730 O 3096.57 -6.11849 7.01846 0
M  V30 22731 O 3094.79 -4.30744 6.56026 0
M  V30 22732 O 3094.82 -6.37042 5.19165 0
M  V30 22733 C 3094.66 -7.83578 5.16515 0
M  V30 22734 C 3095.2 -8.33398 3.83019 0
M  V30 22735 O 3094.15 -8.10074 3.01034 0
M  V30 22736 C 3096.42 -7.65514 3.2257 0
M  V30 22737 O 3097.16 -8.4329 2.32297 0
M  V30 22738 C 3095.75 -6.40075 2.62207 0
M  V30 22739 O 3096.55 -5.92589 1.53712 0
M  V30 22740 C 3094.42 -6.9454 2.18503 0
M  V30 22741 H 3094.45 -7.23063 1.12091 0
M  V30 22742 H 3095.63 -5.6025 3.37201 0
M  V30 22743 H 3097.12 -7.35707 4.02681 0
M  V30 22744 H 3095.42 -9.40912 3.9095 0
M  V30 22745 H 3095.23 -8.29056 5.99158 0
M  V30 22746 H 3093.6 -8.10073 5.25882 0
M  V30 22747 H 3096.24 -6.30324 0.726794 0
M  V30 22748 P 3098.1 -8.4349 2.47671 0
M  V30 22749 O 3099.52 -8.94167 2.5964 0
M  V30 22750 O 3097.74 -7.1704 3.19006 0
M  V30 22751 O 3097.78 -8.16596 0.923387 0
M  V30 22752 C 3097.62 -9.38437 0.108857 0
M  V30 22753 C 3098.16 -9.08175 -1.28353 0
M  V30 22754 O 3097.1 -8.44229 -1.84713 0
M  V30 22755 C 3099.37 -8.18386 -1.42505 0
M  V30 22756 O 3100.11 -8.3501 -2.60497 0
M  V30 22757 C 3098.7 -6.80225 -1.25468 0
M  V30 22758 O 3099.5 -5.81621 -1.91066 0
M  V30 22759 C 3097.37 -7.02416 -1.9168 0
M  V30 22760 H 3097.4 -6.6888 -2.96621 0
M  V30 22761 H 3098.58 -6.53617 -0.192223 0
M  V30 22762 H 3100.07 -8.36622 -0.589963 0
M  V30 22763 H 3098.37 -10.0291 -1.79807 0
M  V30 22764 H 3098.18 -10.2138 0.558219 0
M  V30 22765 H 3096.55 -9.6579 0.0444202 0
M  V30 22766 H 3099.19 -5.69556 -2.79637 0
M  V30 22767 P 3101.05 -8.4349 -2.47671 0
M  V30 22768 O 3102.45 -8.99283 -2.62101 0
M  V30 22769 O 3100.67 -7.81195 -1.16947 0
M  V30 22770 O 3100.73 -7.36797 -3.63761 0
M  V30 22771 C 3100.57 -7.95349 -4.982 0
M  V30 22772 C 3101.11 -6.94537 -5.98908 0
M  V30 22773 O 3100.05 -6.10277 -6.11744 0
M  V30 22774 C 3102.32 -6.11426 -5.62335 0
M  V30 22775 O 3103.06 -5.6162 -6.70584 0
M  V30 22776 C 3101.66 -5.04409 -4.73308 0
M  V30 22777 O 3102.45 -3.85929 -4.75106 0
M  V30 22778 C 3100.32 -4.8728 -5.41006 0
M  V30 22779 N 3099.28 -4.65812 -4.42377 0
M  V30 22780 C 3098.24 -3.81293 -4.74224 0
M  V30 22781 O 3098.28 -3.20533 -5.83679 0
M  V30 22782 N 3097.23 -3.6442 -3.86349 0
M  V30 22783 C 3097.28 -4.2728 -2.6824 0
M  V30 22784 N 3096.27 -4.09866 -1.83822 0
M  V30 22785 C 3098.37 -5.10813 -2.3217 0
M  V30 22786 C 3099.34 -5.27909 -3.22647 0
M  V30 22787 H 3100.35 -4.02278 -6.11074 0
M  V30 22788 H 3101.53 -5.39013 -3.70026 0
M  V30 22789 H 3103.02 -6.71494 -5.02675 0
M  V30 22790 H 3101.32 -7.45796 -6.94223 0
M  V30 22791 H 3101.13 -8.89416 -5.05237 0
M  V30 22792 H 3099.5 -8.14791 -5.18355 0
M  V30 22793 H 3098.42 -5.58884 -1.34755 0
M  V30 22794 H 3100.18 -5.92811 -2.9934 0
M  V30 22795 H 3095.48 -3.49095 -2.10018 0
M  V30 22796 H 3096.27 -4.56846 -0.924167 0
M  V30 22797 H 3102.24 -3.3454 -5.51577 0
M  V30 22798 P 3104 -5.75688 -6.64379 0
M  V30 22799 O 3105.4 -6.14823 -7.06682 0
M  V30 22800 O 3103.62 -5.93957 -5.20728 0
M  V30 22801 O 3103.68 -4.23169 -7.04357 0
M  V30 22802 C 3103.52 -3.99743 -8.4911 0
M  V30 22803 C 3104.06 -2.60487 -8.79329 0
M  V30 22804 O 3103 -1.82663 -8.44573 0
M  V30 22805 C 3105.27 -2.10343 -8.03628 0
M  V30 22806 O 3106.01 -1.09919 -8.67766 0
M  V30 22807 C 3104.61 -1.68446 -6.70876 0
M  V30 22808 O 3105.4 -0.678026 -6.08333 0
M  V30 22809 C 3103.27 -1.17436 -7.18567 0
M  V30 22810 N 3102.23 -1.52699 -6.23988 0
M  V30 22811 C 3101.19 -0.643793 -6.05085 0
M  V30 22812 O 3101.23 0.459118 -6.64315 0
M  V30 22813 N 3100.18 -0.976931 -5.22038 0
M  V30 22814 C 3100.23 -2.14429 -4.56662 0
M  V30 22815 N 3099.22 -2.4542 -3.76231 0
M  V30 22816 C 3101.32 -3.04203 -4.71481 0
M  V30 22817 C 3102.29 -2.69669 -5.56838 0
M  V30 22818 H 3103.3 -0.0804622 -7.31556 0
M  V30 22819 H 3104.48 -2.53396 -6.02698 0
M  V30 22820 H 3105.97 -2.9313 -7.85914 0
M  V30 22821 H 3104.27 -2.52078 -9.87225 0
M  V30 22822 H 3104.08 -4.75072 -9.05887 0
M  V30 22823 H 3102.45 -4.05202 -8.76577 0
M  V30 22824 H 3101.37 -3.97309 -4.15519 0
M  V30 22825 H 3103.13 -3.36869 -5.72318 0
M  V30 22826 H 3098.43 -1.80133 -3.65413 0
M  V30 22827 H 3099.22 -3.34359 -3.24736 0
M  V30 22828 H 3105.19 0.167718 -6.44882 0
M  V30 22829 P 3106.95 -1.25109 -8.70152 0
M  V30 22830 O 3108.37 -1.29744 -9.22016 0
M  V30 22831 O 3106.59 -2.13714 -7.55141 0
M  V30 22832 O 3106.63 0.248149 -8.21425 0
M  V30 22833 C 3106.47 1.22779 -9.30434 0
M  V30 22834 C 3107.01 2.56293 -8.80664 0
M  V30 22835 O 3105.95 3.02979 -8.09349 0
M  V30 22836 C 3108.23 2.57523 -7.89775 0
M  V30 22837 O 3108.96 3.7668 -7.89438 0
M  V30 22838 C 3107.56 2.20997 -6.55446 0
M  V30 22839 O 3108.36 2.71895 -5.48509 0
M  V30 22840 C 3106.22 2.89693 -6.67988 0
M  V30 22841 H 3106.25 3.88793 -6.19859 0
M  V30 22842 H 3107.43 1.12046 -6.44229 0
M  V30 22843 H 3108.92 1.7746 -8.19711 0
M  V30 22844 H 3107.22 3.20706 -9.67112 0
M  V30 22845 H 3107.03 0.901032 -10.1892 0
M  V30 22846 H 3105.4 1.33049 -9.56592 0
M  V30 22847 H 3108.04 3.57847 -5.23962 0
M  V30 22848 P 3109.9 3.65191 -7.99657 0
M  V30 22849 O 3111.32 3.89416 -8.45976 0
M  V30 22850 O 3109.54 2.28472 -7.50807 0
M  V30 22851 O 3109.58 4.64972 -6.77611 0
M  V30 22852 C 3109.42 6.06319 -7.16352 0
M  V30 22853 C 3109.96 6.91655 -6.02234 0
M  V30 22854 O 3108.9 6.92449 -5.17064 0
M  V30 22855 C 3111.18 6.43627 -5.25174 0
M  V30 22856 O 3111.91 7.43686 -4.60469 0
M  V30 22857 C 3110.51 5.40275 -4.31916 0
M  V30 22858 O 3111.31 5.25193 -3.14386 0
M  V30 22859 C 3109.17 6.04847 -4.05327 0
M  V30 22860 N 3108.13 5.04166 -3.98114 0
M  V30 22861 C 3108.19 3.96049 -4.75587 0
M  V30 22862 N 3107.14 3.15559 -4.54006 0
M  V30 22863 C 3106.41 3.78802 -3.62491 0
M  V30 22864 C 3105.1 3.476 -3.10071 0
M  V30 22865 O 3104.37 2.51136 -3.37021 0
M  V30 22866 N 3104.67 4.39088 -2.19956 0
M  V30 22867 C 3105.42 5.53215 -1.81733 0
M  V30 22868 N 3104.83 6.31963 -0.860928 0
M  V30 22869 N 3106.58 5.86688 -2.32562 0
M  V30 22870 C 3107.03 4.97525 -3.23407 0
M  V30 22871 H 3109.2 6.62195 -3.11261 0
M  V30 22872 H 3110.38 4.42488 -4.8131 0
M  V30 22873 H 3111.87 5.93051 -5.9305 0
M  V30 22874 H 3110.17 7.92655 -6.402 0
M  V30 22875 H 3109.98 6.26671 -8.0846 0
M  V30 22876 H 3108.35 6.29101 -7.32804 0
M  V30 22877 H 3103.78 4.25523 -1.77604 0
M  V30 22878 H 3108.98 3.75576 -5.47333 0
M  V30 22879 H 3103.91 6.04684 -0.468946 0
M  V30 22880 H 3105.29 7.18054 -0.542422 0
M  V30 22881 H 3110.99 5.84223 -2.47279 0
M  V30 22882 P 3112.85 7.39546 -4.75277 0
M  V30 22883 O 3114.27 7.84798 -5.01039 0
M  V30 22884 O 3112.49 5.9812 -5.08098 0
M  V30 22885 O 3112.53 7.57503 -3.1866 0
M  V30 22886 C 3112.37 8.97357 -2.74833 0
M  V30 22887 C 3112.91 9.07548 -1.32709 0
M  V30 22888 O 3111.85 8.62072 -0.606159 0
M  V30 22889 C 3114.13 8.25383 -0.938334 0
M  V30 22890 O 3114.86 8.74577 0.146954 0
M  V30 22891 C 3113.46 6.8802 -0.712559 0
M  V30 22892 O 3114.26 6.1189 0.194655 0
M  V30 22893 C 3112.12 7.27966 -0.139777 0
M  V30 22894 H 3112.15 7.25354 0.961601 0
M  V30 22895 H 3113.34 6.32557 -1.65702 0
M  V30 22896 H 3114.82 8.19355 -1.79097 0
M  V30 22897 H 3113.13 10.1294 -1.10029 0
M  V30 22898 H 3112.94 9.64276 -3.41316 0
M  V30 22899 H 3111.31 9.25417 -2.76357 0
M  V30 22900 H 3113.94 6.25267 1.07847 0
M  V30 22901 P 3115.8 8.791 -5.21766e-11 0
M  V30 22902 O 3117.22 9.31096 0.027933 0
M  V30 22903 O 3115.44 7.77869 -1.04071 0
M  V30 22904 O 3115.48 8.09533 1.41463 0
M  V30 22905 C 3115.32 9.0349 2.53943 0
M  V30 22906 C 3115.86 8.35226 3.79016 0
M  V30 22907 O 3114.8 7.57992 4.15078 0
M  V30 22908 C 3117.08 7.45087 3.67298 0
M  V30 22909 O 3117.81 7.27796 4.85194 0
M  V30 22910 C 3116.41 6.17323 3.12027 0
M  V30 22911 O 3117.21 5.04231 3.47188 0
M  V30 22912 C 3115.07 6.19961 3.81809 0
M  V30 22913 H 3115.1 5.58218 4.73051 0
M  V30 22914 H 3116.29 6.21726 2.02589 0
M  V30 22915 H 3117.77 7.86112 2.9231 0
M  V30 22916 H 3116.08 9.11627 4.55076 0
M  V30 22917 H 3115.89 9.9573 2.34194 0
M  V30 22918 H 3114.26 9.2792 2.67832 0
M  V30 22919 H 3116.89 4.67702 4.28772 0
M  V30 22920 P 3118.75 7.39546 4.75277 0
M  V30 22921 O 3120.17 7.81777 5.05738 0
M  V30 22922 O 3118.39 7.1065 3.32998 0
M  V30 22923 O 3118.43 6.04542 5.56673 0
M  V30 22924 C 3118.27 6.22772 7.02095 0
M  V30 22925 C 3118.81 4.97725 7.70406 0
M  V30 22926 O 3117.75 4.13256 7.58987 0
M  V30 22927 C 3120.03 4.28231 7.11815 0
M  V30 22928 O 3120.77 3.49945 8.01648 0
M  V30 22929 C 3119.36 3.5063 5.96244 0
M  V30 22930 O 3120.16 2.36482 5.64681 0
M  V30 22931 C 3118.02 3.15122 6.56374 0
M  V30 22932 H 3118.05 2.13853 6.99751 0
M  V30 22933 H 3119.24 4.13501 5.06559 0
M  V30 22934 H 3120.72 5.03285 6.70911 0
M  V30 22935 H 3119.03 5.20877 8.75697 0
M  V30 22936 H 3118.84 7.11046 7.35349 0
M  V30 22937 H 3117.21 6.35815 7.26986 0
M  V30 22938 H 3119.85 1.61644 6.13565 0
M  V30 22939 P 3121.7 3.65191 7.99657 0
M  V30 22940 O 3123.13 3.8425 8.48115 0
M  V30 22941 O 3121.34 4.17805 6.64342 0
M  V30 22942 O 3121.38 2.07613 7.95143 0
M  V30 22943 C 3121.22 1.44328 9.27336 0
M  V30 22944 C 3121.76 0.0220036 9.17197 0
M  V30 22945 O 3120.7 -0.626867 8.61923 0
M  V30 22946 C 3122.98 -0.24586 8.30336 0
M  V30 22947 O 3123.72 -1.39011 8.63583 0
M  V30 22948 C 3122.31 -0.273849 6.91158 0
M  V30 22949 O 3123.11 -1.06348 6.02892 0
M  V30 22950 C 3120.97 -0.897649 7.22545 0
M  V30 22951 H 3121 -1.9841 7.04286 0
M  V30 22952 H 3122.19 0.739928 6.497 0
M  V30 22953 H 3123.67 0.60668 8.36503 0
M  V30 22954 H 3121.98 -0.352479 10.1829 0
M  V30 22955 H 3121.79 2.00611 10.0304 0
M  V30 22956 H 3120.16 1.41843 9.55327 0
M  V30 22957 H 3122.8 -1.95734 6.03555 0
M  V30 22958 P 3124.65 -1.25109 8.70152 0
M  V30 22959 O 3126.08 -1.35274 9.21221 0
M  V30 22960 O 3124.29 -0.0769065 7.84762 0
M  V30 22961 O 3124.33 -2.55232 7.81161 0
M  V30 22962 C 3124.17 -3.79939 8.58154 0
M  V30 22963 C 3124.71 -4.94023 7.72785 0
M  V30 22964 O 3123.65 -5.18726 6.91205 0
M  V30 22965 C 3125.93 -4.69597 6.85231 0
M  V30 22966 O 3126.67 -5.83832 6.51337 0
M  V30 22967 C 3125.26 -3.96706 5.66633 0
M  V30 22968 O 3126.06 -4.15414 4.49689 0
M  V30 22969 C 3123.92 -4.66153 5.59313 0
M  V30 22970 H 3123.95 -5.47679 4.85214 0
M  V30 22971 H 3125.14 -2.89008 5.86566 0
M  V30 22972 H 3126.62 -4.0121 7.36511 0
M  V30 22973 H 3124.93 -5.80182 8.37584 0
M  V30 22974 H 3124.74 -3.73517 9.52265 0
M  V30 22975 H 3123.11 -3.97163 8.80359 0
M  V30 22976 H 3125.75 -4.90969 4.01921 0
M  V30 22977 P 3127.6 -5.75688 6.64379 0
M  V30 22978 O 3129.03 -6.11849 7.01846 0
M  V30 22979 O 3127.24 -4.30744 6.56026 0
M  V30 22980 O 3127.28 -6.37042 5.19165 0
M  V30 22981 C 3127.12 -7.83578 5.16515 0
M  V30 22982 C 3127.66 -8.33398 3.83019 0
M  V30 22983 O 3126.61 -8.10074 3.01034 0
M  V30 22984 C 3128.88 -7.65514 3.2257 0
M  V30 22985 O 3129.62 -8.4329 2.32297 0
M  V30 22986 C 3128.21 -6.40075 2.62207 0
M  V30 22987 O 3129.01 -5.92589 1.53712 0
M  V30 22988 C 3126.87 -6.9454 2.18503 0
M  V30 22989 H 3126.91 -7.23063 1.12091 0
M  V30 22990 H 3128.09 -5.6025 3.37201 0
M  V30 22991 H 3129.57 -7.35707 4.02681 0
M  V30 22992 H 3127.88 -9.40912 3.9095 0
M  V30 22993 H 3127.69 -8.29056 5.99158 0
M  V30 22994 H 3126.06 -8.10073 5.25882 0
M  V30 22995 H 3128.7 -6.30324 0.726794 0
M  V30 22996 P 3130.55 -8.4349 2.47671 0
M  V30 22997 O 3131.98 -8.94263 2.59668 0
M  V30 22998 O 3130.19 -7.1704 3.19006 0
M  V30 22999 O 3130.23 -8.16596 0.923387 0
M  V30 23000 C 3130.07 -9.38537 0.108869 0
M  V30 23001 C 3130.61 -9.08175 -1.28353 0
M  V30 23002 O 3129.56 -8.44131 -1.84692 0
M  V30 23003 C 3131.83 -8.18386 -1.42505 0
M  V30 23004 O 3132.57 -8.3501 -2.60497 0
M  V30 23005 C 3131.16 -6.80225 -1.25468 0
M  V30 23006 O 3131.96 -5.81716 -1.90454 0
M  V30 23007 C 3129.82 -7.02416 -1.9168 0
M  V30 23008 N 3128.78 -6.31033 -1.20314 0
M  V30 23009 C 3128.95 -5.98817 0.0994088 0
M  V30 23010 N 3127.92 -5.35403 0.621694 0
M  V30 23011 C 3127.04 -5.25212 -0.43376 0
M  V30 23012 C 3125.77 -4.64602 -0.519722 0
M  V30 23013 N 3125.21 -4.7568 -1.76013 0
M  V30 23014 C 3125.81 -5.3653 -2.83017 0
M  V30 23015 N 3126.98 -5.93676 -2.79782 0
M  V30 23016 C 3127.56 -5.84061 -1.56249 0
M  V30 23017 H 3131.04 -6.53498 -0.198729 0
M  V30 23018 H 3132.52 -8.36622 -0.589963 0
M  V30 23019 H 3130.83 -10.0273 -1.8081 0
M  V30 23020 H 3130.64 -10.2138 0.558219 0
M  V30 23021 H 3129.01 -9.6579 0.0444202 0
M  V30 23022 H 3129.85 -6.23209 0.660562 0
M  V30 23023 H 3131.65 -5.69466 -2.79593 0
M  V30 23024 P 3133.51 -8.4349 -2.47671 0
M  V30 23025 O 3134.93 -8.92593 -2.65 0
M  V30 23026 O 3133.15 -7.7568 -1.19296 0
M  V30 23027 O 3133.18 -7.36886 -3.63805 0
M  V30 23028 C 3133.02 -7.95349 -4.982 0
M  V30 23029 C 3133.56 -6.94612 -5.98974 0
M  V30 23030 O 3132.51 -6.10347 -6.11815 0
M  V30 23031 C 3134.78 -6.11426 -5.62335 0
M  V30 23032 O 3135.52 -5.6162 -6.70584 0
M  V30 23033 C 3134.11 -5.04409 -4.73308 0
M  V30 23034 O 3134.91 -3.85992 -4.75183 0
M  V30 23035 C 3132.77 -4.8728 -5.41006 0
M  V30 23036 H 3132.81 -4.02333 -6.11157 0
M  V30 23037 H 3133.99 -5.39466 -3.69543 0
M  V30 23038 H 3135.47 -6.71916 -5.01943 0
M  V30 23039 H 3133.78 -7.4649 -6.93477 0
M  V30 23040 H 3133.59 -8.89416 -5.05237 0
M  V30 23041 H 3131.96 -8.14876 -5.18409 0
M  V30 23042 H 3134.6 -3.27957 -5.4317 0
M  V30 23043 P 3136.46 -5.75688 -6.64379 0
M  V30 23044 O 3137.88 -6.07627 -7.05504 0
M  V30 23045 O 3136.1 -5.88047 -5.19722 0
M  V30 23046 O 3136.13 -4.2322 -7.04443 0
M  V30 23047 C 3135.97 -3.99743 -8.4911 0
M  V30 23048 C 3136.51 -2.60516 -8.79425 0
M  V30 23049 O 3135.46 -1.82684 -8.4467 0
M  V30 23050 C 3137.73 -2.10343 -8.03628 0
M  V30 23051 O 3138.47 -1.09919 -8.67766 0
M  V30 23052 C 3137.06 -1.68446 -6.70876 0
M  V30 23053 O 3137.86 -0.678137 -6.08433 0
M  V30 23054 C 3135.72 -1.17436 -7.18567 0
M  V30 23055 H 3135.76 -0.0804732 -7.31656 0
M  V30 23056 H 3136.94 -2.54037 -6.02537 0
M  V30 23057 H 3138.42 -2.93881 -7.85526 0
M  V30 23058 H 3136.73 -2.53065 -9.86973 0
M  V30 23059 H 3136.54 -4.75072 -9.05887 0
M  V30 23060 H 3134.91 -4.05244 -8.76668 0
M  V30 23061 H 3137.55 0.177647 -6.34251 0
M  V30 23062 P 3139.41 -1.25109 -8.70152 0
M  V30 23063 O 3140.83 -1.29744 -9.22016 0
M  V30 23064 O 3139.05 -2.13714 -7.55141 0
M  V30 23065 O 3139.08 0.248149 -8.21425 0
M  V30 23066 C 3138.92 1.22779 -9.30434 0
M  V30 23067 C 3139.46 2.56293 -8.80664 0
M  V30 23068 O 3138.41 3.02979 -8.09349 0
M  V30 23069 C 3140.68 2.57523 -7.89775 0
M  V30 23070 O 3141.42 3.7668 -7.89438 0
M  V30 23071 C 3140.01 2.20997 -6.55446 0
M  V30 23072 O 3140.81 2.71895 -5.48509 0
M  V30 23073 C 3138.68 2.89693 -6.67988 0
M  V30 23074 H 3138.71 3.88793 -6.19859 0
M  V30 23075 H 3139.89 1.12046 -6.44229 0
M  V30 23076 H 3141.37 1.7746 -8.19711 0
M  V30 23077 H 3139.68 3.20706 -9.67112 0
M  V30 23078 H 3139.49 0.901032 -10.1892 0
M  V30 23079 H 3137.86 1.33049 -9.56592 0
M  V30 23080 H 3140.5 3.57847 -5.23962 0
M  V30 23081 P 3142.36 3.65191 -7.99657 0
M  V30 23082 O 3143.78 3.89416 -8.45976 0
M  V30 23083 O 3142 2.28472 -7.50807 0
M  V30 23084 O 3142.03 4.64972 -6.77611 0
M  V30 23085 C 3141.87 6.06319 -7.16352 0
M  V30 23086 C 3142.41 6.91655 -6.02234 0
M  V30 23087 O 3141.36 6.92449 -5.17064 0
M  V30 23088 C 3143.63 6.43627 -5.25174 0
M  V30 23089 O 3144.37 7.43686 -4.60469 0
M  V30 23090 C 3142.96 5.40275 -4.31916 0
M  V30 23091 O 3143.76 5.25193 -3.14386 0
M  V30 23092 C 3141.63 6.04847 -4.05327 0
M  V30 23093 N 3140.58 5.04166 -3.98114 0
M  V30 23094 C 3140.65 3.96049 -4.75587 0
M  V30 23095 N 3139.6 3.15559 -4.54006 0
M  V30 23096 C 3138.87 3.78802 -3.62491 0
M  V30 23097 C 3137.56 3.476 -3.10071 0
M  V30 23098 O 3136.83 2.51136 -3.37021 0
M  V30 23099 N 3137.13 4.39088 -2.19956 0
M  V30 23100 C 3137.88 5.53215 -1.81733 0
M  V30 23101 N 3137.28 6.31963 -0.860928 0
M  V30 23102 N 3139.03 5.86688 -2.32562 0
M  V30 23103 C 3139.49 4.97525 -3.23407 0
M  V30 23104 H 3141.66 6.62195 -3.11261 0
M  V30 23105 H 3142.84 4.42488 -4.8131 0
M  V30 23106 H 3144.33 5.93051 -5.9305 0
M  V30 23107 H 3142.63 7.92655 -6.402 0
M  V30 23108 H 3142.44 6.26671 -8.0846 0
M  V30 23109 H 3140.81 6.29101 -7.32804 0
M  V30 23110 H 3136.23 4.25523 -1.77604 0
M  V30 23111 H 3141.44 3.75576 -5.47333 0
M  V30 23112 H 3136.37 6.04684 -0.468946 0
M  V30 23113 H 3137.75 7.18054 -0.542422 0
M  V30 23114 H 3143.45 5.84223 -2.47279 0
M  V30 23115 P 3145.31 7.39546 -4.75277 0
M  V30 23116 O 3146.73 7.84798 -5.01039 0
M  V30 23117 O 3144.95 5.9812 -5.08098 0
M  V30 23118 O 3144.98 7.57503 -3.1866 0
M  V30 23119 C 3144.82 8.97357 -2.74833 0
M  V30 23120 C 3145.36 9.07548 -1.32709 0
M  V30 23121 O 3144.31 8.62072 -0.606159 0
M  V30 23122 C 3146.58 8.25383 -0.938334 0
M  V30 23123 O 3147.32 8.74577 0.146954 0
M  V30 23124 C 3145.91 6.8802 -0.712559 0
M  V30 23125 O 3146.71 6.1189 0.194655 0
M  V30 23126 C 3144.58 7.27966 -0.139777 0
M  V30 23127 H 3144.61 7.25354 0.961601 0
M  V30 23128 H 3145.79 6.32557 -1.65702 0
M  V30 23129 H 3147.28 8.19355 -1.79097 0
M  V30 23130 H 3145.58 10.1294 -1.10029 0
M  V30 23131 H 3145.39 9.64276 -3.41316 0
M  V30 23132 H 3143.76 9.25417 -2.76357 0
M  V30 23133 H 3146.4 6.25267 1.07847 0
M  V30 23134 P 3148.26 8.791 -5.73632e-11 0
M  V30 23135 O 3149.68 9.31096 0.027933 0
M  V30 23136 O 3147.9 7.77869 -1.04071 0
M  V30 23137 O 3147.94 8.09533 1.41463 0
M  V30 23138 C 3147.78 9.0349 2.53943 0
M  V30 23139 C 3148.32 8.35226 3.79016 0
M  V30 23140 O 3147.26 7.57992 4.15078 0
M  V30 23141 C 3149.53 7.45087 3.67298 0
M  V30 23142 O 3150.27 7.27796 4.85194 0
M  V30 23143 C 3148.86 6.17323 3.12027 0
M  V30 23144 O 3149.66 5.04231 3.47188 0
M  V30 23145 C 3147.53 6.19961 3.81809 0
M  V30 23146 H 3147.56 5.58218 4.73051 0
M  V30 23147 H 3148.74 6.21726 2.02589 0
M  V30 23148 H 3150.23 7.86112 2.9231 0
M  V30 23149 H 3148.53 9.11627 4.55076 0
M  V30 23150 H 3148.34 9.9573 2.34194 0
M  V30 23151 H 3146.71 9.2792 2.67832 0
M  V30 23152 H 3149.35 4.67702 4.28772 0
M  V30 23153 P 3151.21 7.39546 4.75277 0
M  V30 23154 O 3152.63 7.81777 5.05738 0
M  V30 23155 O 3150.85 7.1065 3.32998 0
M  V30 23156 O 3150.89 6.04542 5.56673 0
M  V30 23157 C 3150.73 6.22772 7.02095 0
M  V30 23158 C 3151.27 4.97725 7.70406 0
M  V30 23159 O 3150.21 4.13256 7.58987 0
M  V30 23160 C 3152.48 4.28231 7.11815 0
M  V30 23161 O 3153.22 3.49945 8.01648 0
M  V30 23162 C 3151.81 3.5063 5.96244 0
M  V30 23163 O 3152.61 2.36482 5.64681 0
M  V30 23164 C 3150.48 3.15122 6.56374 0
M  V30 23165 H 3150.51 2.13853 6.99751 0
M  V30 23166 H 3151.69 4.13501 5.06559 0
M  V30 23167 H 3153.18 5.03285 6.70911 0
M  V30 23168 H 3151.48 5.20877 8.75697 0
M  V30 23169 H 3151.29 7.11046 7.35349 0
M  V30 23170 H 3149.66 6.35815 7.26986 0
M  V30 23171 H 3152.3 1.61644 6.13565 0
M  V30 23172 P 3154.16 3.65191 7.99657 0
M  V30 23173 O 3155.58 3.8425 8.48115 0
M  V30 23174 O 3153.8 4.17805 6.64342 0
M  V30 23175 O 3153.84 2.07613 7.95143 0
M  V30 23176 C 3153.68 1.44328 9.27336 0
M  V30 23177 C 3154.22 0.0220036 9.17197 0
M  V30 23178 O 3153.16 -0.626867 8.61923 0
M  V30 23179 C 3155.43 -0.24586 8.30336 0
M  V30 23180 O 3156.17 -1.39011 8.63583 0
M  V30 23181 C 3154.77 -0.273849 6.91158 0
M  V30 23182 O 3155.56 -1.06348 6.02892 0
M  V30 23183 C 3153.43 -0.897649 7.22545 0
M  V30 23184 H 3153.46 -1.9841 7.04286 0
M  V30 23185 H 3154.64 0.739928 6.497 0
M  V30 23186 H 3156.13 0.60668 8.36503 0
M  V30 23187 H 3154.43 -0.352479 10.1829 0
M  V30 23188 H 3154.24 2.00611 10.0304 0
M  V30 23189 H 3152.61 1.41843 9.55327 0
M  V30 23190 H 3155.25 -1.95734 6.03555 0
M  V30 23191 P 3157.11 -1.25109 8.70152 0
M  V30 23192 O 3158.53 -1.35274 9.21221 0
M  V30 23193 O 3156.75 -0.0769065 7.84762 0
M  V30 23194 O 3156.79 -2.55232 7.81161 0
M  V30 23195 C 3156.63 -3.79939 8.58154 0
M  V30 23196 C 3157.17 -4.94023 7.72785 0
M  V30 23197 O 3156.11 -5.18726 6.91205 0
M  V30 23198 C 3158.38 -4.69597 6.85231 0
M  V30 23199 O 3159.12 -5.83832 6.51337 0
M  V30 23200 C 3157.72 -3.96706 5.66633 0
M  V30 23201 O 3158.51 -4.15414 4.49689 0
M  V30 23202 C 3156.38 -4.66153 5.59313 0
M  V30 23203 H 3156.41 -5.47679 4.85214 0
M  V30 23204 H 3157.59 -2.89008 5.86566 0
M  V30 23205 H 3159.08 -4.0121 7.36511 0
M  V30 23206 H 3157.38 -5.80182 8.37584 0
M  V30 23207 H 3157.19 -3.73517 9.52265 0
M  V30 23208 H 3155.56 -3.97163 8.80359 0
M  V30 23209 H 3158.2 -4.90969 4.01921 0
M  V30 23210 P 3160.06 -5.75688 6.64379 0
M  V30 23211 O 3161.48 -6.11849 7.01846 0
M  V30 23212 O 3159.7 -4.30744 6.56026 0
M  V30 23213 O 3159.74 -6.37042 5.19165 0
M  V30 23214 C 3159.58 -7.83578 5.16515 0
M  V30 23215 C 3160.12 -8.33398 3.83019 0
M  V30 23216 O 3159.06 -8.10074 3.01034 0
M  V30 23217 C 3161.34 -7.65514 3.2257 0
M  V30 23218 O 3162.07 -8.4329 2.32297 0
M  V30 23219 C 3160.67 -6.40075 2.62207 0
M  V30 23220 O 3161.47 -5.92589 1.53712 0
M  V30 23221 C 3159.33 -6.9454 2.18503 0
M  V30 23222 H 3159.36 -7.23063 1.12091 0
M  V30 23223 H 3160.54 -5.6025 3.37201 0
M  V30 23224 H 3162.03 -7.35707 4.02681 0
M  V30 23225 H 3160.33 -9.40912 3.9095 0
M  V30 23226 H 3160.14 -8.29056 5.99158 0
M  V30 23227 H 3158.51 -8.10073 5.25882 0
M  V30 23228 H 3161.15 -6.30324 0.726794 0
M  V30 23229 P 3163.01 -8.4349 2.47671 0
M  V30 23230 O 3164.43 -8.94167 2.5964 0
M  V30 23231 O 3162.65 -7.1704 3.19006 0
M  V30 23232 O 3162.69 -8.16596 0.923387 0
M  V30 23233 C 3162.53 -9.38437 0.108857 0
M  V30 23234 C 3163.07 -9.08175 -1.28353 0
M  V30 23235 O 3162.01 -8.44229 -1.84713 0
M  V30 23236 C 3164.29 -8.18386 -1.42505 0
M  V30 23237 O 3165.02 -8.3501 -2.60497 0
M  V30 23238 C 3163.62 -6.80225 -1.25468 0
M  V30 23239 O 3164.42 -5.81621 -1.91066 0
M  V30 23240 C 3162.28 -7.02416 -1.9168 0
M  V30 23241 H 3162.31 -6.6888 -2.96621 0
M  V30 23242 H 3163.5 -6.53617 -0.192223 0
M  V30 23243 H 3164.98 -8.36622 -0.589963 0
M  V30 23244 H 3163.29 -10.0291 -1.79807 0
M  V30 23245 H 3163.1 -10.2138 0.558219 0
M  V30 23246 H 3161.47 -9.6579 0.0444202 0
M  V30 23247 H 3164.1 -5.69556 -2.79637 0
M  V30 23248 P 3165.96 -8.4349 -2.47671 0
M  V30 23249 O 3167.38 -8.92593 -2.65 0
M  V30 23250 O 3165.6 -7.7568 -1.19296 0
M  V30 23251 O 3165.64 -7.36886 -3.63805 0
M  V30 23252 C 3165.48 -7.95349 -4.982 0
M  V30 23253 C 3166.02 -6.94612 -5.98974 0
M  V30 23254 O 3164.96 -6.10347 -6.11815 0
M  V30 23255 C 3167.24 -6.11426 -5.62335 0
M  V30 23256 O 3167.97 -5.6162 -6.70584 0
M  V30 23257 C 3166.57 -5.04409 -4.73308 0
M  V30 23258 O 3167.37 -3.85992 -4.75183 0
M  V30 23259 C 3165.23 -4.8728 -5.41006 0
M  V30 23260 H 3165.26 -4.02333 -6.11157 0
M  V30 23261 H 3166.45 -5.39466 -3.69543 0
M  V30 23262 H 3167.93 -6.71916 -5.01943 0
M  V30 23263 H 3166.24 -7.4649 -6.93477 0
M  V30 23264 H 3166.05 -8.89416 -5.05237 0
M  V30 23265 H 3164.42 -8.14876 -5.18409 0
M  V30 23266 H 3167.05 -3.27957 -5.4317 0
M  V30 23267 P 3168.91 -5.75688 -6.64379 0
M  V30 23268 O 3170.33 -6.07627 -7.05504 0
M  V30 23269 O 3168.55 -5.88047 -5.19722 0
M  V30 23270 O 3168.59 -4.2322 -7.04443 0
M  V30 23271 C 3168.43 -3.99743 -8.4911 0
M  V30 23272 C 3168.97 -2.60516 -8.79425 0
M  V30 23273 O 3167.91 -1.82684 -8.4467 0
M  V30 23274 C 3170.19 -2.10343 -8.03628 0
M  V30 23275 O 3170.93 -1.09919 -8.67766 0
M  V30 23276 C 3169.52 -1.68446 -6.70876 0
M  V30 23277 O 3170.32 -0.678137 -6.08433 0
M  V30 23278 C 3168.18 -1.17436 -7.18567 0
M  V30 23279 H 3168.21 -0.0804732 -7.31656 0
M  V30 23280 H 3169.4 -2.54037 -6.02537 0
M  V30 23281 H 3170.88 -2.93881 -7.85526 0
M  V30 23282 H 3169.19 -2.53065 -9.86973 0
M  V30 23283 H 3169 -4.75072 -9.05887 0
M  V30 23284 H 3167.37 -4.05244 -8.76668 0
M  V30 23285 H 3170.01 0.177647 -6.34251 0
M  V30 23286 P 3171.86 -1.25109 -8.70152 0
M  V30 23287 O 3173.28 -1.29744 -9.22016 0
M  V30 23288 O 3171.5 -2.13714 -7.55141 0
M  V30 23289 O 3171.54 0.248149 -8.21425 0
M  V30 23290 C 3171.38 1.22779 -9.30434 0
M  V30 23291 C 3171.92 2.56293 -8.80664 0
M  V30 23292 O 3170.86 3.02979 -8.09349 0
M  V30 23293 C 3173.14 2.57523 -7.89775 0
M  V30 23294 O 3173.88 3.7668 -7.89438 0
M  V30 23295 C 3172.47 2.20997 -6.55446 0
M  V30 23296 O 3173.27 2.71895 -5.48509 0
M  V30 23297 C 3171.13 2.89693 -6.67988 0
M  V30 23298 H 3171.16 3.88793 -6.19859 0
M  V30 23299 H 3172.35 1.12046 -6.44229 0
M  V30 23300 H 3173.83 1.7746 -8.19711 0
M  V30 23301 H 3172.14 3.20706 -9.67112 0
M  V30 23302 H 3171.95 0.901032 -10.1892 0
M  V30 23303 H 3170.32 1.33049 -9.56592 0
M  V30 23304 H 3172.96 3.57847 -5.23962 0
M  V30 23305 P 3174.81 3.65191 -7.99657 0
M  V30 23306 O 3176.24 3.89332 -8.45794 0
M  V30 23307 O 3174.45 2.28472 -7.50807 0
M  V30 23308 O 3174.49 4.64972 -6.77611 0
M  V30 23309 C 3174.33 6.06319 -7.16352 0
M  V30 23310 C 3174.87 6.91731 -6.02299 0
M  V30 23311 O 3173.81 6.92449 -5.17064 0
M  V30 23312 C 3176.09 6.43627 -5.25174 0
M  V30 23313 O 3176.83 7.43686 -4.60469 0
M  V30 23314 C 3175.42 5.40275 -4.31916 0
M  V30 23315 O 3176.22 5.25279 -3.14438 0
M  V30 23316 C 3174.08 6.04847 -4.05327 0
M  V30 23317 H 3174.11 6.62195 -3.11261 0
M  V30 23318 H 3175.3 4.42556 -4.81383 0
M  V30 23319 H 3176.78 5.92458 -5.93643 0
M  V30 23320 H 3175.09 7.92655 -6.402 0
M  V30 23321 H 3174.9 6.26671 -8.0846 0
M  V30 23322 H 3173.27 6.29101 -7.32804 0
M  V30 23323 H 3175.91 5.84315 -2.47318 0
M  V30 23324 P 3177.76 7.39546 -4.75277 0
M  V30 23325 O 3179.19 7.84798 -5.01039 0
M  V30 23326 O 3177.4 5.9812 -5.08098 0
M  V30 23327 O 3177.44 7.57503 -3.1866 0
M  V30 23328 C 3177.28 8.97357 -2.74833 0
M  V30 23329 C 3177.82 9.07548 -1.32709 0
M  V30 23330 O 3176.76 8.62072 -0.606159 0
M  V30 23331 C 3179.04 8.25383 -0.938334 0
M  V30 23332 O 3179.78 8.74577 0.146954 0
M  V30 23333 C 3178.37 6.8802 -0.712559 0
M  V30 23334 O 3179.17 6.1189 0.194655 0
M  V30 23335 C 3177.03 7.27966 -0.139777 0
M  V30 23336 H 3177.06 7.25354 0.961601 0
M  V30 23337 H 3178.25 6.32557 -1.65702 0
M  V30 23338 H 3179.73 8.19355 -1.79097 0
M  V30 23339 H 3178.04 10.1294 -1.10029 0
M  V30 23340 H 3177.85 9.64276 -3.41316 0
M  V30 23341 H 3176.22 9.25417 -2.76357 0
M  V30 23342 H 3178.86 6.25267 1.07847 0
M  V30 23343 P 3180.71 8.791 -6.25499e-11 0
M  V30 23344 O 3182.14 9.31296 0.027939 0
M  V30 23345 O 3180.35 7.77869 -1.04071 0
M  V30 23346 O 3180.39 8.09533 1.41463 0
M  V30 23347 C 3180.23 9.0349 2.53943 0
M  V30 23348 C 3180.77 8.35135 3.78975 0
M  V30 23349 O 3179.72 7.57992 4.15078 0
M  V30 23350 C 3181.99 7.45087 3.67298 0
M  V30 23351 O 3182.73 7.27796 4.85194 0
M  V30 23352 C 3181.32 6.17323 3.12027 0
M  V30 23353 O 3182.12 5.04149 3.47132 0
M  V30 23354 C 3179.98 6.19961 3.81809 0
M  V30 23355 N 3178.94 5.71575 2.93223 0
M  V30 23356 C 3179 5.97133 1.62693 0
M  V30 23357 N 3177.96 5.44066 0.984414 0
M  V30 23358 C 3177.22 4.87093 1.93987 0
M  V30 23359 C 3175.92 4.26449 1.8738 0
M  V30 23360 O 3175.18 4.1089 0.884377 0
M  V30 23361 N 3175.49 3.82483 3.08036 0
M  V30 23362 C 3176.24 3.95124 4.27727 0
M  V30 23363 N 3175.64 3.4084 5.39089 0
M  V30 23364 N 3177.39 4.55264 4.3706 0
M  V30 23365 C 3177.85 5.00861 3.18217 0
M  V30 23366 H 3180.02 5.58218 4.73051 0
M  V30 23367 H 3181.2 6.21631 2.02558 0
M  V30 23368 H 3182.68 7.85819 2.93096 0
M  V30 23369 H 3180.99 9.11627 4.55076 0
M  V30 23370 H 3180.8 9.9573 2.34194 0
M  V30 23371 H 3179.17 9.2792 2.67832 0
M  V30 23372 H 3174.59 3.38323 3.1329 0
M  V30 23373 H 3179.8 6.53891 1.14265 0
M  V30 23374 H 3174.73 2.93852 5.30559 0
M  V30 23375 H 3176.1 3.47631 6.30632 0
M  V30 23376 H 3181.81 4.67628 4.28704 0
M  V30 23377 P 3183.67 7.39546 4.75277 0
M  V30 23378 O 3185.09 7.81777 5.05738 0
M  V30 23379 O 3183.31 7.1065 3.32998 0
M  V30 23380 O 3183.34 6.04542 5.56673 0
M  V30 23381 C 3183.18 6.22772 7.02095 0
M  V30 23382 C 3183.72 4.97725 7.70406 0
M  V30 23383 O 3182.67 4.13256 7.58987 0
M  V30 23384 C 3184.94 4.28231 7.11815 0
M  V30 23385 O 3185.68 3.49945 8.01648 0
M  V30 23386 C 3184.27 3.5063 5.96244 0
M  V30 23387 O 3185.07 2.36482 5.64681 0
M  V30 23388 C 3182.93 3.15122 6.56374 0
M  V30 23389 H 3182.97 2.13853 6.99751 0
M  V30 23390 H 3184.15 4.13501 5.06559 0
M  V30 23391 H 3185.63 5.03285 6.70911 0
M  V30 23392 H 3183.94 5.20877 8.75697 0
M  V30 23393 H 3183.75 7.11046 7.35349 0
M  V30 23394 H 3182.12 6.35815 7.26986 0
M  V30 23395 H 3184.76 1.61644 6.13565 0
M  V30 23396 P 3186.62 3.65191 7.99657 0
M  V30 23397 O 3188.04 3.8425 8.48115 0
M  V30 23398 O 3186.26 4.17805 6.64342 0
M  V30 23399 O 3186.29 2.07613 7.95143 0
M  V30 23400 C 3186.13 1.44328 9.27336 0
M  V30 23401 C 3186.67 0.0220036 9.17197 0
M  V30 23402 O 3185.62 -0.626867 8.61923 0
M  V30 23403 C 3187.89 -0.24586 8.30336 0
M  V30 23404 O 3188.63 -1.39011 8.63583 0
M  V30 23405 C 3187.22 -0.273849 6.91158 0
M  V30 23406 O 3188.02 -1.06348 6.02892 0
M  V30 23407 C 3185.88 -0.897649 7.22545 0
M  V30 23408 H 3185.92 -1.9841 7.04286 0
M  V30 23409 H 3187.1 0.739928 6.497 0
M  V30 23410 H 3188.58 0.60668 8.36503 0
M  V30 23411 H 3186.89 -0.352479 10.1829 0
M  V30 23412 H 3186.7 2.00611 10.0304 0
M  V30 23413 H 3185.07 1.41843 9.55327 0
M  V30 23414 H 3187.71 -1.95734 6.03555 0
M  V30 23415 P 3189.57 -1.25109 8.70152 0
M  V30 23416 O 3190.99 -1.35274 9.21221 0
M  V30 23417 O 3189.21 -0.0769065 7.84762 0
M  V30 23418 O 3189.24 -2.55232 7.81161 0
M  V30 23419 C 3189.08 -3.79939 8.58154 0
M  V30 23420 C 3189.62 -4.94023 7.72785 0
M  V30 23421 O 3188.57 -5.18726 6.91205 0
M  V30 23422 C 3190.84 -4.69597 6.85231 0
M  V30 23423 O 3191.58 -5.83832 6.51337 0
M  V30 23424 C 3190.17 -3.96706 5.66633 0
M  V30 23425 O 3190.97 -4.15414 4.49689 0
M  V30 23426 C 3188.84 -4.66153 5.59313 0
M  V30 23427 H 3188.87 -5.47679 4.85214 0
M  V30 23428 H 3190.05 -2.89008 5.86566 0
M  V30 23429 H 3191.53 -4.0121 7.36511 0
M  V30 23430 H 3189.84 -5.80182 8.37584 0
M  V30 23431 H 3189.65 -3.73517 9.52265 0
M  V30 23432 H 3188.02 -3.97163 8.80359 0
M  V30 23433 H 3190.66 -4.90969 4.01921 0
M  V30 23434 P 3192.52 -5.75688 6.64379 0
M  V30 23435 O 3193.94 -6.11849 7.01846 0
M  V30 23436 O 3192.16 -4.30744 6.56026 0
M  V30 23437 O 3192.19 -6.37042 5.19165 0
M  V30 23438 C 3192.03 -7.83578 5.16515 0
M  V30 23439 C 3192.57 -8.33398 3.83019 0
M  V30 23440 O 3191.52 -8.10074 3.01034 0
M  V30 23441 C 3193.79 -7.65514 3.2257 0
M  V30 23442 O 3194.53 -8.4329 2.32297 0
M  V30 23443 C 3193.12 -6.40075 2.62207 0
M  V30 23444 O 3193.92 -5.92589 1.53712 0
M  V30 23445 C 3191.79 -6.9454 2.18503 0
M  V30 23446 H 3191.82 -7.23063 1.12091 0
M  V30 23447 H 3193 -5.6025 3.37201 0
M  V30 23448 H 3194.48 -7.35707 4.02681 0
M  V30 23449 H 3192.79 -9.40912 3.9095 0
M  V30 23450 H 3192.6 -8.29056 5.99158 0
M  V30 23451 H 3190.97 -8.10073 5.25882 0
M  V30 23452 H 3193.61 -6.30324 0.726794 0
M  V30 23453 P 3195.47 -8.4349 2.47671 0
M  V30 23454 O 3196.89 -8.94167 2.5964 0
M  V30 23455 O 3195.11 -7.1704 3.19006 0
M  V30 23456 O 3195.14 -8.16596 0.923387 0
M  V30 23457 C 3194.98 -9.38437 0.108857 0
M  V30 23458 C 3195.52 -9.08175 -1.28353 0
M  V30 23459 O 3194.47 -8.44229 -1.84713 0
M  V30 23460 C 3196.74 -8.18386 -1.42505 0
M  V30 23461 O 3197.48 -8.3501 -2.60497 0
M  V30 23462 C 3196.07 -6.80225 -1.25468 0
M  V30 23463 O 3196.87 -5.81621 -1.91066 0
M  V30 23464 C 3194.74 -7.02416 -1.9168 0
M  V30 23465 H 3194.77 -6.6888 -2.96621 0
M  V30 23466 H 3195.95 -6.53617 -0.192223 0
M  V30 23467 H 3197.44 -8.36622 -0.589963 0
M  V30 23468 H 3195.74 -10.0291 -1.79807 0
M  V30 23469 H 3195.55 -10.2138 0.558219 0
M  V30 23470 H 3193.92 -9.6579 0.0444202 0
M  V30 23471 H 3196.56 -5.69556 -2.79637 0
M  V30 23472 P 3198.42 -8.4349 -2.47671 0
M  V30 23473 O 3199.84 -8.92593 -2.65 0
M  V30 23474 O 3198.06 -7.7568 -1.19296 0
M  V30 23475 O 3198.09 -7.36886 -3.63805 0
M  V30 23476 C 3197.93 -7.95349 -4.982 0
M  V30 23477 C 3198.47 -6.94612 -5.98974 0
M  V30 23478 O 3197.42 -6.10347 -6.11815 0
M  V30 23479 C 3199.69 -6.11426 -5.62335 0
M  V30 23480 O 3200.43 -5.6162 -6.70584 0
M  V30 23481 C 3199.02 -5.04409 -4.73308 0
M  V30 23482 O 3199.82 -3.85992 -4.75183 0
M  V30 23483 C 3197.69 -4.8728 -5.41006 0
M  V30 23484 H 3197.72 -4.02333 -6.11157 0
M  V30 23485 H 3198.9 -5.39466 -3.69543 0
M  V30 23486 H 3200.39 -6.71916 -5.01943 0
M  V30 23487 H 3198.69 -7.4649 -6.93477 0
M  V30 23488 H 3198.5 -8.89416 -5.05237 0
M  V30 23489 H 3196.87 -8.14876 -5.18409 0
M  V30 23490 H 3199.51 -3.27957 -5.4317 0
M  V30 23491 P 3201.37 -5.75688 -6.64379 0
M  V30 23492 O 3202.79 -6.07627 -7.05504 0
M  V30 23493 O 3201.01 -5.88047 -5.19722 0
M  V30 23494 O 3201.05 -4.2322 -7.04443 0
M  V30 23495 C 3200.89 -3.99743 -8.4911 0
M  V30 23496 C 3201.43 -2.60516 -8.79425 0
M  V30 23497 O 3200.37 -1.82684 -8.4467 0
M  V30 23498 C 3202.64 -2.10343 -8.03628 0
M  V30 23499 O 3203.38 -1.09919 -8.67766 0
M  V30 23500 C 3201.97 -1.68446 -6.70876 0
M  V30 23501 O 3202.77 -0.678137 -6.08433 0
M  V30 23502 C 3200.64 -1.17436 -7.18567 0
M  V30 23503 H 3200.67 -0.0804732 -7.31656 0
M  V30 23504 H 3201.85 -2.54037 -6.02537 0
M  V30 23505 H 3203.34 -2.93881 -7.85526 0
M  V30 23506 H 3201.64 -2.53065 -9.86973 0
M  V30 23507 H 3201.45 -4.75072 -9.05887 0
M  V30 23508 H 3199.82 -4.05244 -8.76668 0
M  V30 23509 H 3202.46 0.177647 -6.34251 0
M  V30 23510 P 3204.32 -1.25109 -8.70152 0
M  V30 23511 O 3205.74 -1.29744 -9.22016 0
M  V30 23512 O 3203.96 -2.13714 -7.55141 0
M  V30 23513 O 3204 0.248149 -8.21425 0
M  V30 23514 C 3203.84 1.22779 -9.30434 0
M  V30 23515 C 3204.38 2.56293 -8.80664 0
M  V30 23516 O 3203.32 3.02979 -8.09349 0
M  V30 23517 C 3205.59 2.57523 -7.89775 0
M  V30 23518 O 3206.33 3.7668 -7.89438 0
M  V30 23519 C 3204.93 2.20997 -6.55446 0
M  V30 23520 O 3205.72 2.71895 -5.48509 0
M  V30 23521 C 3203.59 2.89693 -6.67988 0
M  V30 23522 H 3203.62 3.88793 -6.19859 0
M  V30 23523 H 3204.8 1.12046 -6.44229 0
M  V30 23524 H 3206.29 1.7746 -8.19711 0
M  V30 23525 H 3204.59 3.20706 -9.67112 0
M  V30 23526 H 3204.4 0.901032 -10.1892 0
M  V30 23527 H 3202.77 1.33049 -9.56592 0
M  V30 23528 H 3205.41 3.57847 -5.23962 0
M  V30 23529 P 3207.27 3.65191 -7.99657 0
M  V30 23530 O 3208.69 3.89374 -8.45885 0
M  V30 23531 O 3206.91 2.28472 -7.50807 0
M  V30 23532 O 3206.95 4.64972 -6.77611 0
M  V30 23533 C 3206.79 6.06383 -7.16428 0
M  V30 23534 C 3207.33 6.91731 -6.02299 0
M  V30 23535 O 3206.27 6.92369 -5.17005 0
M  V30 23536 C 3208.54 6.43627 -5.25174 0
M  V30 23537 O 3209.28 7.43686 -4.60469 0
M  V30 23538 C 3207.88 5.40275 -4.31916 0
M  V30 23539 O 3208.67 5.24878 -3.14911 0
M  V30 23540 C 3206.54 6.04847 -4.05327 0
M  V30 23541 N 3205.5 5.04166 -3.98114 0
M  V30 23542 C 3205.66 3.84629 -4.59066 0
M  V30 23543 N 3204.64 3.0363 -4.45343 0
M  V30 23544 C 3203.75 3.76722 -3.68523 0
M  V30 23545 C 3202.49 3.43528 -3.17088 0
M  V30 23546 N 3201.92 4.44526 -2.44231 0
M  V30 23547 C 3202.52 5.65243 -2.20146 0
M  V30 23548 N 3203.7 6.00221 -2.65453 0
M  V30 23549 C 3204.27 5.00564 -3.39083 0
M  V30 23550 H 3207.75 4.42969 -4.80867 0
M  V30 23551 H 3209.24 5.92458 -5.93643 0
M  V30 23552 H 3207.54 7.93295 -6.39407 0
M  V30 23553 H 3207.35 6.26671 -8.0846 0
M  V30 23554 H 3205.72 6.29101 -7.32804 0
M  V30 23555 H 3206.56 3.58193 -5.14248 0
M  V30 23556 H 3208.36 5.84223 -2.47279 0
M  V30 23557 P 3210.22 7.39546 -4.75277 0
M  V30 23558 O 3211.64 7.84798 -5.01039 0
M  V30 23559 O 3209.86 5.9812 -5.08098 0
M  V30 23560 O 3209.9 7.57503 -3.1866 0
M  V30 23561 C 3209.74 8.97357 -2.74833 0
M  V30 23562 C 3210.28 9.07548 -1.32709 0
M  V30 23563 O 3209.22 8.62072 -0.606159 0
M  V30 23564 C 3211.5 8.25383 -0.938334 0
M  V30 23565 O 3212.23 8.74577 0.146954 0
M  V30 23566 C 3210.83 6.8802 -0.712559 0
M  V30 23567 O 3211.63 6.1189 0.194655 0
M  V30 23568 C 3209.49 7.27966 -0.139777 0
M  V30 23569 H 3209.52 7.25354 0.961601 0
M  V30 23570 H 3210.7 6.32557 -1.65702 0
M  V30 23571 H 3212.19 8.19355 -1.79097 0
M  V30 23572 H 3210.49 10.1294 -1.10029 0
M  V30 23573 H 3210.3 9.64276 -3.41316 0
M  V30 23574 H 3208.67 9.25417 -2.76357 0
M  V30 23575 H 3211.31 6.25267 1.07847 0
M  V30 23576 P 3213.17 8.791 -6.77365e-11 0
M  V30 23577 O 3214.59 9.31296 0.027939 0
M  V30 23578 O 3212.81 7.77869 -1.04071 0
M  V30 23579 O 3212.85 8.09533 1.41463 0
M  V30 23580 C 3212.69 9.0349 2.53943 0
M  V30 23581 C 3213.23 8.35135 3.78975 0
M  V30 23582 O 3212.17 7.57992 4.15078 0
M  V30 23583 C 3214.45 7.45087 3.67298 0
M  V30 23584 O 3215.18 7.27796 4.85194 0
M  V30 23585 C 3213.78 6.17323 3.12027 0
M  V30 23586 O 3214.58 5.04149 3.47132 0
M  V30 23587 C 3212.44 6.19961 3.81809 0
M  V30 23588 N 3211.4 5.71575 2.93223 0
M  V30 23589 C 3211.46 5.97133 1.62693 0
M  V30 23590 N 3210.41 5.44066 0.984414 0
M  V30 23591 C 3209.68 4.87093 1.93987 0
M  V30 23592 C 3208.37 4.26449 1.8738 0
M  V30 23593 O 3207.64 4.1089 0.884377 0
M  V30 23594 N 3207.94 3.82483 3.08036 0
M  V30 23595 C 3208.69 3.95124 4.27727 0
M  V30 23596 N 3208.1 3.4084 5.39089 0
M  V30 23597 N 3209.85 4.55264 4.3706 0
M  V30 23598 C 3210.3 5.00861 3.18217 0
M  V30 23599 H 3212.47 5.58218 4.73051 0
M  V30 23600 H 3213.65 6.21631 2.02558 0
M  V30 23601 H 3215.14 7.85819 2.93096 0
M  V30 23602 H 3213.44 9.11627 4.55076 0
M  V30 23603 H 3213.25 9.9573 2.34194 0
M  V30 23604 H 3211.62 9.2792 2.67832 0
M  V30 23605 H 3207.05 3.38323 3.1329 0
M  V30 23606 H 3212.25 6.53891 1.14265 0
M  V30 23607 H 3207.18 2.93852 5.30559 0
M  V30 23608 H 3208.56 3.47631 6.30632 0
M  V30 23609 H 3214.26 4.67628 4.28704 0
M  V30 23610 P 3216.12 7.39546 4.75277 0
M  V30 23611 O 3217.54 7.81777 5.05738 0
M  V30 23612 O 3215.76 7.1065 3.32998 0
M  V30 23613 O 3215.8 6.04542 5.56673 0
M  V30 23614 C 3215.64 6.22772 7.02095 0
M  V30 23615 C 3216.18 4.97725 7.70406 0
M  V30 23616 O 3215.12 4.13256 7.58987 0
M  V30 23617 C 3217.4 4.28231 7.11815 0
M  V30 23618 O 3218.13 3.49945 8.01648 0
M  V30 23619 C 3216.73 3.5063 5.96244 0
M  V30 23620 O 3217.53 2.36482 5.64681 0
M  V30 23621 C 3215.39 3.15122 6.56374 0
M  V30 23622 H 3215.42 2.13853 6.99751 0
M  V30 23623 H 3216.61 4.13501 5.06559 0
M  V30 23624 H 3218.09 5.03285 6.70911 0
M  V30 23625 H 3216.4 5.20877 8.75697 0
M  V30 23626 H 3216.21 7.11046 7.35349 0
M  V30 23627 H 3214.58 6.35815 7.26986 0
M  V30 23628 H 3217.21 1.61644 6.13565 0
M  V30 23629 P 3219.07 3.65191 7.99657 0
M  V30 23630 O 3220.49 3.8425 8.48115 0
M  V30 23631 O 3218.71 4.17805 6.64342 0
M  V30 23632 O 3218.75 2.07613 7.95143 0
M  V30 23633 C 3218.59 1.44328 9.27336 0
M  V30 23634 C 3219.13 0.0220036 9.17197 0
M  V30 23635 O 3218.07 -0.626867 8.61923 0
M  V30 23636 C 3220.35 -0.24586 8.30336 0
M  V30 23637 O 3221.08 -1.39011 8.63583 0
M  V30 23638 C 3219.68 -0.273849 6.91158 0
M  V30 23639 O 3220.48 -1.06348 6.02892 0
M  V30 23640 C 3218.34 -0.897649 7.22545 0
M  V30 23641 H 3218.37 -1.9841 7.04286 0
M  V30 23642 H 3219.56 0.739928 6.497 0
M  V30 23643 H 3221.04 0.60668 8.36503 0
M  V30 23644 H 3219.35 -0.352479 10.1829 0
M  V30 23645 H 3219.16 2.00611 10.0304 0
M  V30 23646 H 3217.53 1.41843 9.55327 0
M  V30 23647 H 3220.16 -1.95734 6.03555 0
M  V30 23648 P 3222.02 -1.25109 8.70152 0
M  V30 23649 O 3223.42 -1.31452 9.27431 0
M  V30 23650 O 3221.64 -0.0458113 7.89887 0
M  V30 23651 O 3221.7 -2.55201 7.81066 0
M  V30 23652 C 3221.54 -3.79939 8.58154 0
M  V30 23653 C 3222.08 -4.93969 7.72701 0
M  V30 23654 O 3221.02 -5.18666 6.91125 0
M  V30 23655 C 3223.3 -4.69597 6.85231 0
M  V30 23656 O 3224.04 -5.83832 6.51337 0
M  V30 23657 C 3222.63 -3.96706 5.66633 0
M  V30 23658 O 3223.43 -4.15346 4.49615 0
M  V30 23659 C 3221.29 -4.66153 5.59313 0
M  V30 23660 N 3220.25 -3.71582 5.24027 0
M  V30 23661 C 3219.21 -4.15133 4.44901 0
M  V30 23662 O 3219.25 -5.32122 4.00336 0
M  V30 23663 N 3218.2 -3.30554 4.15693 0
M  V30 23664 C 3218.25 -2.04701 4.61105 0
M  V30 23665 N 3217.24 -1.23621 4.31855 0
M  V30 23666 C 3219.35 -1.57111 5.38655 0
M  V30 23667 C 3220.31 -2.44234 5.68454 0
M  V30 23668 H 3221.32 -5.47604 4.85148 0
M  V30 23669 H 3222.51 -2.8955 5.86187 0
M  V30 23670 H 3223.99 -4.01995 7.36197 0
M  V30 23671 H 3222.3 -5.81019 8.37003 0
M  V30 23672 H 3222.11 -3.73517 9.52265 0
M  V30 23673 H 3220.48 -3.97122 8.80267 0
M  V30 23674 H 3219.39 -0.538464 5.72373 0
M  V30 23675 H 3221.16 -2.11927 6.29377 0
M  V30 23676 H 3216.45 -1.58199 3.7543 0
M  V30 23677 H 3217.24 -0.264601 4.65348 0
M  V30 23678 H 3223.21 -4.98352 4.09633 0
M  V30 23679 P 3224.97 -5.75688 6.64379 0
M  V30 23680 O 3226.4 -6.11849 7.01846 0
M  V30 23681 O 3224.61 -4.30744 6.56026 0
M  V30 23682 O 3224.65 -6.37042 5.19165 0
M  V30 23683 C 3224.49 -7.83578 5.16515 0
M  V30 23684 C 3225.03 -8.33398 3.83019 0
M  V30 23685 O 3223.97 -8.10074 3.01034 0
M  V30 23686 C 3226.25 -7.65514 3.2257 0
M  V30 23687 O 3226.99 -8.4329 2.32297 0
M  V30 23688 C 3225.58 -6.40075 2.62207 0
M  V30 23689 O 3226.38 -5.92589 1.53712 0
M  V30 23690 C 3224.24 -6.9454 2.18503 0
M  V30 23691 H 3224.27 -7.23063 1.12091 0
M  V30 23692 H 3225.46 -5.6025 3.37201 0
M  V30 23693 H 3226.94 -7.35707 4.02681 0
M  V30 23694 H 3225.25 -9.40912 3.9095 0
M  V30 23695 H 3225.06 -8.29056 5.99158 0
M  V30 23696 H 3223.43 -8.10073 5.25882 0
M  V30 23697 H 3226.07 -6.30324 0.726794 0
M  V30 23698 P 3227.92 -8.4349 2.47671 0
M  V30 23699 O 3229.35 -8.94167 2.5964 0
M  V30 23700 O 3227.56 -7.1704 3.19006 0
M  V30 23701 O 3227.6 -8.16596 0.923387 0
M  V30 23702 C 3227.44 -9.38437 0.108857 0
M  V30 23703 C 3227.98 -9.08175 -1.28353 0
M  V30 23704 O 3226.92 -8.44229 -1.84713 0
M  V30 23705 C 3229.2 -8.18386 -1.42505 0
M  V30 23706 O 3229.94 -8.3501 -2.60497 0
M  V30 23707 C 3228.53 -6.80225 -1.25468 0
M  V30 23708 O 3229.33 -5.81621 -1.91066 0
M  V30 23709 C 3227.19 -7.02416 -1.9168 0
M  V30 23710 H 3227.22 -6.6888 -2.96621 0
M  V30 23711 H 3228.41 -6.53617 -0.192223 0
M  V30 23712 H 3229.89 -8.36622 -0.589963 0
M  V30 23713 H 3228.2 -10.0291 -1.79807 0
M  V30 23714 H 3228.01 -10.2138 0.558219 0
M  V30 23715 H 3226.38 -9.6579 0.0444202 0
M  V30 23716 H 3229.02 -5.69556 -2.79637 0
M  V30 23717 P 3230.87 -8.4349 -2.47671 0
M  V30 23718 O 3232.3 -8.92593 -2.65 0
M  V30 23719 O 3230.51 -7.7568 -1.19296 0
M  V30 23720 O 3230.55 -7.36886 -3.63805 0
M  V30 23721 C 3230.39 -7.95349 -4.982 0
M  V30 23722 C 3230.93 -6.94612 -5.98974 0
M  V30 23723 O 3229.88 -6.10347 -6.11815 0
M  V30 23724 C 3232.15 -6.11426 -5.62335 0
M  V30 23725 O 3232.89 -5.6162 -6.70584 0
M  V30 23726 C 3231.48 -5.04409 -4.73308 0
M  V30 23727 O 3232.28 -3.85992 -4.75183 0
M  V30 23728 C 3230.14 -4.8728 -5.41006 0
M  V30 23729 H 3230.18 -4.02333 -6.11157 0
M  V30 23730 H 3231.36 -5.39466 -3.69543 0
M  V30 23731 H 3232.84 -6.71916 -5.01943 0
M  V30 23732 H 3231.15 -7.4649 -6.93477 0
M  V30 23733 H 3230.96 -8.89416 -5.05237 0
M  V30 23734 H 3229.33 -8.14876 -5.18409 0
M  V30 23735 H 3231.97 -3.27957 -5.4317 0
M  V30 23736 P 3233.82 -5.75688 -6.64379 0
M  V30 23737 O 3235.25 -6.07627 -7.05504 0
M  V30 23738 O 3233.46 -5.88047 -5.19722 0
M  V30 23739 O 3233.5 -4.2322 -7.04443 0
M  V30 23740 C 3233.34 -3.99743 -8.4911 0
M  V30 23741 C 3233.88 -2.60516 -8.79425 0
M  V30 23742 O 3232.83 -1.82684 -8.4467 0
M  V30 23743 C 3235.1 -2.10343 -8.03628 0
M  V30 23744 O 3235.84 -1.09919 -8.67766 0
M  V30 23745 C 3234.43 -1.68446 -6.70876 0
M  V30 23746 O 3235.23 -0.678137 -6.08433 0
M  V30 23747 C 3233.09 -1.17436 -7.18567 0
M  V30 23748 H 3233.13 -0.0804732 -7.31656 0
M  V30 23749 H 3234.31 -2.54037 -6.02537 0
M  V30 23750 H 3235.79 -2.93881 -7.85526 0
M  V30 23751 H 3234.1 -2.53065 -9.86973 0
M  V30 23752 H 3233.91 -4.75072 -9.05887 0
M  V30 23753 H 3232.28 -4.05244 -8.76668 0
M  V30 23754 H 3234.92 0.177647 -6.34251 0
M  V30 23755 P 3236.78 -1.25109 -8.70152 0
M  V30 23756 O 3238.2 -1.29758 -9.22115 0
M  V30 23757 O 3236.42 -2.13714 -7.55141 0
M  V30 23758 O 3236.45 0.248149 -8.21425 0
M  V30 23759 C 3236.29 1.22792 -9.30533 0
M  V30 23760 C 3236.83 2.56293 -8.80664 0
M  V30 23761 O 3235.78 3.02944 -8.09255 0
M  V30 23762 C 3238.05 2.57523 -7.89775 0
M  V30 23763 O 3238.79 3.7668 -7.89438 0
M  V30 23764 C 3237.38 2.20997 -6.55446 0
M  V30 23765 O 3238.18 2.71302 -5.48691 0
M  V30 23766 C 3236.04 2.89693 -6.67988 0
M  V30 23767 N 3235 2.08895 -6.07487 0
M  V30 23768 C 3235.17 0.753809 -5.94137 0
M  V30 23769 N 3234.14 0.146592 -5.38801 0
M  V30 23770 C 3233.26 1.1768 -5.13693 0
M  V30 23771 C 3231.99 1.17563 -4.52477 0
M  V30 23772 N 3231.43 2.41918 -4.45789 0
M  V30 23773 C 3232.03 3.56493 -4.90792 0
M  V30 23774 N 3233.21 3.61423 -5.47817 0
M  V30 23775 C 3233.78 2.37779 -5.5588 0
M  V30 23776 H 3237.26 1.12673 -6.44018 0
M  V30 23777 H 3238.74 1.7746 -8.19711 0
M  V30 23778 H 3237.05 3.21673 -9.66791 0
M  V30 23779 H 3236.86 0.901032 -10.1892 0
M  V30 23780 H 3235.23 1.33049 -9.56592 0
M  V30 23781 H 3236.07 0.233081 -6.26266 0
M  V30 23782 H 3237.87 3.5779 -5.23879 0
M  V30 23783 P 3239.73 3.65191 -7.99657 0
M  V30 23784 O 3241.15 3.89374 -8.45885 0
M  V30 23785 O 3239.37 2.28472 -7.50807 0
M  V30 23786 O 3239.4 4.64972 -6.77611 0
M  V30 23787 C 3239.24 6.06383 -7.16428 0
M  V30 23788 C 3239.78 6.91731 -6.02299 0
M  V30 23789 O 3238.73 6.92369 -5.17005 0
M  V30 23790 C 3241 6.43627 -5.25174 0
M  V30 23791 O 3241.74 7.43686 -4.60469 0
M  V30 23792 C 3240.33 5.40275 -4.31916 0
M  V30 23793 O 3241.13 5.24878 -3.14911 0
M  V30 23794 C 3238.99 6.04847 -4.05327 0
M  V30 23795 N 3237.95 5.04166 -3.98114 0
M  V30 23796 C 3238.12 3.84629 -4.59066 0
M  V30 23797 N 3237.09 3.0363 -4.45343 0
M  V30 23798 C 3236.21 3.76722 -3.68523 0
M  V30 23799 C 3234.94 3.43528 -3.17088 0
M  V30 23800 N 3234.38 4.44526 -2.44231 0
M  V30 23801 C 3234.98 5.65243 -2.20146 0
M  V30 23802 N 3236.16 6.00221 -2.65453 0
M  V30 23803 C 3236.73 5.00564 -3.39083 0
M  V30 23804 H 3240.21 4.42969 -4.80867 0
M  V30 23805 H 3241.69 5.92458 -5.93643 0
M  V30 23806 H 3240 7.93295 -6.39407 0
M  V30 23807 H 3239.81 6.26671 -8.0846 0
M  V30 23808 H 3238.18 6.29101 -7.32804 0
M  V30 23809 H 3239.02 3.58193 -5.14248 0
M  V30 23810 H 3240.82 5.84223 -2.47279 0
M  V30 23811 P 3242.68 7.39546 -4.75277 0
M  V30 23812 O 3244.1 7.84798 -5.01039 0
M  V30 23813 O 3242.32 5.9812 -5.08098 0
M  V30 23814 O 3242.35 7.57503 -3.1866 0
M  V30 23815 C 3242.19 8.97357 -2.74833 0
M  V30 23816 C 3242.73 9.07548 -1.32709 0
M  V30 23817 O 3241.68 8.62072 -0.606159 0
M  V30 23818 C 3243.95 8.25383 -0.938334 0
M  V30 23819 O 3244.69 8.74577 0.146954 0
M  V30 23820 C 3243.28 6.8802 -0.712559 0
M  V30 23821 O 3244.08 6.1189 0.194655 0
M  V30 23822 C 3241.95 7.27966 -0.139777 0
M  V30 23823 H 3241.98 7.25354 0.961601 0
M  V30 23824 H 3243.16 6.32557 -1.65702 0
M  V30 23825 H 3244.64 8.19355 -1.79097 0
M  V30 23826 H 3242.95 10.1294 -1.10029 0
M  V30 23827 H 3242.76 9.64276 -3.41316 0
M  V30 23828 H 3241.13 9.25417 -2.76357 0
M  V30 23829 H 3243.77 6.25267 1.07847 0
M  V30 23830 P 3245.63 8.791 -7.29232e-11 0
M  V30 23831 O 3247.05 9.31096 0.027933 0
M  V30 23832 O 3245.27 7.77869 -1.04071 0
M  V30 23833 O 3245.3 8.09533 1.41463 0
M  V30 23834 C 3245.14 9.0349 2.53943 0
M  V30 23835 C 3245.68 8.35226 3.79016 0
M  V30 23836 O 3244.63 7.57992 4.15078 0
M  V30 23837 C 3246.9 7.45087 3.67298 0
M  V30 23838 O 3247.64 7.27796 4.85194 0
M  V30 23839 C 3246.23 6.17323 3.12027 0
M  V30 23840 O 3247.03 5.04231 3.47188 0
M  V30 23841 C 3244.9 6.19961 3.81809 0
M  V30 23842 H 3244.93 5.58218 4.73051 0
M  V30 23843 H 3246.11 6.21726 2.02589 0
M  V30 23844 H 3247.59 7.86112 2.9231 0
M  V30 23845 H 3245.9 9.11627 4.55076 0
M  V30 23846 H 3245.71 9.9573 2.34194 0
M  V30 23847 H 3244.08 9.2792 2.67832 0
M  V30 23848 H 3246.72 4.67702 4.28772 0
M  V30 23849 P 3248.58 7.39546 4.75277 0
M  V30 23850 O 3250 7.81777 5.05738 0
M  V30 23851 O 3248.22 7.1065 3.32998 0
M  V30 23852 O 3248.25 6.04542 5.56673 0
M  V30 23853 C 3248.09 6.22772 7.02095 0
M  V30 23854 C 3248.63 4.97725 7.70406 0
M  V30 23855 O 3247.58 4.13256 7.58987 0
M  V30 23856 C 3249.85 4.28231 7.11815 0
M  V30 23857 O 3250.59 3.49945 8.01648 0
M  V30 23858 C 3249.18 3.5063 5.96244 0
M  V30 23859 O 3249.98 2.36482 5.64681 0
M  V30 23860 C 3247.85 3.15122 6.56374 0
M  V30 23861 H 3247.88 2.13853 6.99751 0
M  V30 23862 H 3249.06 4.13501 5.06559 0
M  V30 23863 H 3250.55 5.03285 6.70911 0
M  V30 23864 H 3248.85 5.20877 8.75697 0
M  V30 23865 H 3248.66 7.11046 7.35349 0
M  V30 23866 H 3247.03 6.35815 7.26986 0
M  V30 23867 H 3249.67 1.61644 6.13565 0
M  V30 23868 P 3251.53 3.65191 7.99657 0
M  V30 23869 O 3252.95 3.8425 8.48115 0
M  V30 23870 O 3251.17 4.17805 6.64342 0
M  V30 23871 O 3251.21 2.07613 7.95143 0
M  V30 23872 C 3251.05 1.44328 9.27336 0
M  V30 23873 C 3251.59 0.0220036 9.17197 0
M  V30 23874 O 3250.53 -0.626867 8.61923 0
M  V30 23875 C 3252.8 -0.24586 8.30336 0
M  V30 23876 O 3253.54 -1.39011 8.63583 0
M  V30 23877 C 3252.13 -0.273849 6.91158 0
M  V30 23878 O 3252.93 -1.06348 6.02892 0
M  V30 23879 C 3250.8 -0.897649 7.22545 0
M  V30 23880 H 3250.83 -1.9841 7.04286 0
M  V30 23881 H 3252.01 0.739928 6.497 0
M  V30 23882 H 3253.5 0.60668 8.36503 0
M  V30 23883 H 3251.8 -0.352479 10.1829 0
M  V30 23884 H 3251.61 2.00611 10.0304 0
M  V30 23885 H 3249.98 1.41843 9.55327 0
M  V30 23886 H 3252.62 -1.95734 6.03555 0
M  V30 23887 P 3254.48 -1.25109 8.70152 0
M  V30 23888 O 3255.9 -1.35274 9.21221 0
M  V30 23889 O 3254.12 -0.0769065 7.84762 0
M  V30 23890 O 3254.16 -2.55232 7.81161 0
M  V30 23891 C 3254 -3.79939 8.58154 0
M  V30 23892 C 3254.54 -4.94023 7.72785 0
M  V30 23893 O 3253.48 -5.18726 6.91205 0
M  V30 23894 C 3255.75 -4.69597 6.85231 0
M  V30 23895 O 3256.49 -5.83832 6.51337 0
M  V30 23896 C 3255.08 -3.96706 5.66633 0
M  V30 23897 O 3255.88 -4.15414 4.49689 0
M  V30 23898 C 3253.75 -4.66153 5.59313 0
M  V30 23899 H 3253.78 -5.47679 4.85214 0
M  V30 23900 H 3254.96 -2.89008 5.86566 0
M  V30 23901 H 3256.45 -4.0121 7.36511 0
M  V30 23902 H 3254.75 -5.80182 8.37584 0
M  V30 23903 H 3254.56 -3.73517 9.52265 0
M  V30 23904 H 3252.93 -3.97163 8.80359 0
M  V30 23905 H 3255.57 -4.90969 4.01921 0
M  V30 23906 P 3257.43 -5.75688 6.64379 0
M  V30 23907 O 3258.85 -6.11915 7.01921 0
M  V30 23908 O 3257.07 -4.30744 6.56026 0
M  V30 23909 O 3257.11 -6.37042 5.19165 0
M  V30 23910 C 3256.95 -7.83662 5.1657 0
M  V30 23911 C 3257.49 -8.33398 3.83019 0
M  V30 23912 O 3256.43 -8.0998 3.00999 0
M  V30 23913 C 3258.7 -7.65514 3.2257 0
M  V30 23914 O 3259.44 -8.4329 2.32297 0
M  V30 23915 C 3258.04 -6.40075 2.62207 0
M  V30 23916 O 3258.83 -5.92338 1.5428 0
M  V30 23917 C 3256.7 -6.9454 2.18503 0
M  V30 23918 N 3255.66 -5.95905 2.39948 0
M  V30 23919 C 3255.82 -4.98383 3.32108 0
M  V30 23920 N 3254.8 -4.16798 3.41761 0
M  V30 23921 C 3253.91 -4.65287 2.47461 0
M  V30 23922 C 3252.65 -4.18946 2.07461 0
M  V30 23923 N 3252.08 -4.95327 1.09101 0
M  V30 23924 C 3252.68 -6.04369 0.519812 0
M  V30 23925 N 3253.86 -6.50694 0.855982 0
M  V30 23926 C 3254.43 -5.75818 1.84322 0
M  V30 23927 H 3257.91 -5.60502 3.36589 0
M  V30 23928 H 3259.4 -7.35707 4.02681 0
M  V30 23929 H 3257.7 -9.41302 3.90009 0
M  V30 23930 H 3257.51 -8.29056 5.99158 0
M  V30 23931 H 3255.88 -8.10073 5.25882 0
M  V30 23932 H 3256.72 -4.88564 3.92502 0
M  V30 23933 H 3258.52 -6.30224 0.72668 0
M  V30 23934 P 3260.38 -8.4349 2.47671 0
M  V30 23935 O 3261.8 -8.94359 2.59696 0
M  V30 23936 O 3260.02 -7.1704 3.19006 0
M  V30 23937 O 3260.06 -8.16596 0.923387 0
M  V30 23938 C 3259.9 -9.38437 0.108857 0
M  V30 23939 C 3260.44 -9.08076 -1.28339 0
M  V30 23940 O 3259.38 -8.44229 -1.84713 0
M  V30 23941 C 3261.65 -8.18386 -1.42505 0
M  V30 23942 O 3262.39 -8.3501 -2.60497 0
M  V30 23943 C 3260.99 -6.80225 -1.25468 0
M  V30 23944 O 3261.78 -5.81526 -1.91035 0
M  V30 23945 C 3259.65 -7.02416 -1.9168 0
M  V30 23946 N 3258.61 -6.31033 -1.20314 0
M  V30 23947 C 3258.67 -6.18781 0.121293 0
M  V30 23948 N 3257.62 -5.49762 0.588272 0
M  V30 23949 C 3256.89 -5.22015 -0.488988 0
M  V30 23950 C 3255.58 -4.61966 -0.596448 0
M  V30 23951 O 3254.85 -4.19162 0.309059 0
M  V30 23952 N 3255.15 -4.53773 -1.878 0
M  V30 23953 C 3255.9 -4.99623 -2.99082 0
M  V30 23954 N 3255.3 -4.78912 -4.21227 0
M  V30 23955 N 3257.05 -5.59957 -2.91093 0
M  V30 23956 C 3257.51 -5.70225 -1.64218 0
M  V30 23957 H 3259.68 -6.6888 -2.96621 0
M  V30 23958 H 3260.86 -6.53517 -0.192194 0
M  V30 23959 H 3262.35 -8.36563 -0.598329 0
M  V30 23960 H 3260.65 -10.0291 -1.79807 0
M  V30 23961 H 3260.46 -10.2138 0.558219 0
M  V30 23962 H 3258.83 -9.6579 0.0444202 0
M  V30 23963 H 3254.26 -4.12883 -2.05283 0
M  V30 23964 H 3259.46 -6.59596 0.745856 0
M  V30 23965 H 3254.39 -4.31425 -4.2628 0
M  V30 23966 H 3255.77 -5.11219 -5.07148 0
M  V30 23967 H 3261.47 -5.69466 -2.79593 0
M  V30 23968 P 3263.33 -8.4349 -2.47671 0
M  V30 23969 O 3264.75 -8.92593 -2.65 0
M  V30 23970 O 3262.97 -7.7568 -1.19296 0
M  V30 23971 O 3263.01 -7.36886 -3.63805 0
M  V30 23972 C 3262.85 -7.95349 -4.982 0
M  V30 23973 C 3263.39 -6.94612 -5.98974 0
M  V30 23974 O 3262.33 -6.10347 -6.11815 0
M  V30 23975 C 3264.61 -6.11426 -5.62335 0
M  V30 23976 O 3265.34 -5.6162 -6.70584 0
M  V30 23977 C 3263.94 -5.04409 -4.73308 0
M  V30 23978 O 3264.74 -3.85992 -4.75183 0
M  V30 23979 C 3262.6 -4.8728 -5.41006 0
M  V30 23980 H 3262.63 -4.02333 -6.11157 0
M  V30 23981 H 3263.81 -5.39466 -3.69543 0
M  V30 23982 H 3265.3 -6.71916 -5.01943 0
M  V30 23983 H 3263.6 -7.4649 -6.93477 0
M  V30 23984 H 3263.41 -8.89416 -5.05237 0
M  V30 23985 H 3261.78 -8.14876 -5.18409 0
M  V30 23986 H 3264.42 -3.27957 -5.4317 0
M  V30 23987 P 3266.28 -5.75688 -6.64379 0
M  V30 23988 O 3267.7 -6.07627 -7.05504 0
M  V30 23989 O 3265.92 -5.88047 -5.19722 0
M  V30 23990 O 3265.96 -4.2322 -7.04443 0
M  V30 23991 C 3265.8 -3.99743 -8.4911 0
M  V30 23992 C 3266.34 -2.60516 -8.79425 0
M  V30 23993 O 3265.28 -1.82684 -8.4467 0
M  V30 23994 C 3267.56 -2.10343 -8.03628 0
M  V30 23995 O 3268.29 -1.09919 -8.67766 0
M  V30 23996 C 3266.89 -1.68446 -6.70876 0
M  V30 23997 O 3267.69 -0.678137 -6.08433 0
M  V30 23998 C 3265.55 -1.17436 -7.18567 0
M  V30 23999 H 3265.58 -0.0804732 -7.31656 0
M  V30 24000 H 3266.76 -2.54037 -6.02537 0
M  V30 24001 H 3268.25 -2.93881 -7.85526 0
M  V30 24002 H 3266.55 -2.53065 -9.86973 0
M  V30 24003 H 3266.36 -4.75072 -9.05887 0
M  V30 24004 H 3264.73 -4.05244 -8.76668 0
M  V30 24005 H 3267.37 0.177647 -6.34251 0
M  V30 24006 P 3269.23 -1.25109 -8.70152 0
M  V30 24007 O 3270.65 -1.29744 -9.22016 0
M  V30 24008 O 3268.87 -2.13714 -7.55141 0
M  V30 24009 O 3268.91 0.248149 -8.21425 0
M  V30 24010 C 3268.75 1.22779 -9.30434 0
M  V30 24011 C 3269.29 2.56293 -8.80664 0
M  V30 24012 O 3268.23 3.02979 -8.09349 0
M  V30 24013 C 3270.51 2.57523 -7.89775 0
M  V30 24014 O 3271.24 3.7668 -7.89438 0
M  V30 24015 C 3269.84 2.20997 -6.55446 0
M  V30 24016 O 3270.64 2.71895 -5.48509 0
M  V30 24017 C 3268.5 2.89693 -6.67988 0
M  V30 24018 H 3268.53 3.88793 -6.19859 0
M  V30 24019 H 3269.72 1.12046 -6.44229 0
M  V30 24020 H 3271.2 1.7746 -8.19711 0
M  V30 24021 H 3269.51 3.20706 -9.67112 0
M  V30 24022 H 3269.32 0.901032 -10.1892 0
M  V30 24023 H 3267.69 1.33049 -9.56592 0
M  V30 24024 H 3270.32 3.57847 -5.23962 0
M  V30 24025 P 3272.18 3.65191 -7.99657 0
M  V30 24026 O 3273.6 3.89332 -8.45794 0
M  V30 24027 O 3271.82 2.28472 -7.50807 0
M  V30 24028 O 3271.86 4.64972 -6.77611 0
M  V30 24029 C 3271.7 6.06319 -7.16352 0
M  V30 24030 C 3272.24 6.91731 -6.02299 0
M  V30 24031 O 3271.18 6.92449 -5.17064 0
M  V30 24032 C 3273.46 6.43627 -5.25174 0
M  V30 24033 O 3274.2 7.43686 -4.60469 0
M  V30 24034 C 3272.79 5.40275 -4.31916 0
M  V30 24035 O 3273.59 5.25279 -3.14438 0
M  V30 24036 C 3271.45 6.04847 -4.05327 0
M  V30 24037 H 3271.48 6.62195 -3.11261 0
M  V30 24038 H 3272.67 4.42556 -4.81383 0
M  V30 24039 H 3274.15 5.92458 -5.93643 0
M  V30 24040 H 3272.46 7.92655 -6.402 0
M  V30 24041 H 3272.27 6.26671 -8.0846 0
M  V30 24042 H 3270.64 6.29101 -7.32804 0
M  V30 24043 H 3273.28 5.84315 -2.47318 0
M  V30 24044 P 3275.13 7.39546 -4.75277 0
M  V30 24045 O 3276.55 7.84798 -5.01039 0
M  V30 24046 O 3274.77 5.9812 -5.08098 0
M  V30 24047 O 3274.81 7.57503 -3.1866 0
M  V30 24048 C 3274.65 8.97357 -2.74833 0
M  V30 24049 C 3275.19 9.07548 -1.32709 0
M  V30 24050 O 3274.13 8.62072 -0.606159 0
M  V30 24051 C 3276.41 8.25383 -0.938334 0
M  V30 24052 O 3277.15 8.74577 0.146954 0
M  V30 24053 C 3275.74 6.8802 -0.712559 0
M  V30 24054 O 3276.54 6.1189 0.194655 0
M  V30 24055 C 3274.4 7.27966 -0.139777 0
M  V30 24056 H 3274.43 7.25354 0.961601 0
M  V30 24057 H 3275.62 6.32557 -1.65702 0
M  V30 24058 H 3277.1 8.19355 -1.79097 0
M  V30 24059 H 3275.41 10.1294 -1.10029 0
M  V30 24060 H 3275.22 9.64276 -3.41316 0
M  V30 24061 H 3273.59 9.25417 -2.76357 0
M  V30 24062 H 3276.23 6.25267 1.07847 0
M  V30 24063 P 3278.08 8.791 -7.81098e-11 0
M  V30 24064 O 3279.51 9.31096 0.027933 0
M  V30 24065 O 3277.72 7.77869 -1.04071 0
M  V30 24066 O 3277.76 8.09533 1.41463 0
M  V30 24067 C 3277.6 9.0349 2.53943 0
M  V30 24068 C 3278.14 8.35226 3.79016 0
M  V30 24069 O 3277.08 7.57992 4.15078 0
M  V30 24070 C 3279.36 7.45087 3.67298 0
M  V30 24071 O 3280.1 7.27796 4.85194 0
M  V30 24072 C 3278.69 6.17323 3.12027 0
M  V30 24073 O 3279.49 5.04231 3.47188 0
M  V30 24074 C 3277.35 6.19961 3.81809 0
M  V30 24075 H 3277.38 5.58218 4.73051 0
M  V30 24076 H 3278.57 6.21726 2.02589 0
M  V30 24077 H 3280.05 7.86112 2.9231 0
M  V30 24078 H 3278.36 9.11627 4.55076 0
M  V30 24079 H 3278.17 9.9573 2.34194 0
M  V30 24080 H 3276.54 9.2792 2.67832 0
M  V30 24081 H 3279.18 4.67702 4.28772 0
M  V30 24082 P 3281.03 7.39546 4.75277 0
M  V30 24083 O 3282.46 7.81777 5.05738 0
M  V30 24084 O 3280.67 7.1065 3.32998 0
M  V30 24085 O 3280.71 6.04542 5.56673 0
M  V30 24086 C 3280.55 6.22772 7.02095 0
M  V30 24087 C 3281.09 4.97725 7.70406 0
M  V30 24088 O 3280.03 4.13256 7.58987 0
M  V30 24089 C 3282.31 4.28231 7.11815 0
M  V30 24090 O 3283.05 3.49945 8.01648 0
M  V30 24091 C 3281.64 3.5063 5.96244 0
M  V30 24092 O 3282.44 2.36482 5.64681 0
M  V30 24093 C 3280.3 3.15122 6.56374 0
M  V30 24094 H 3280.33 2.13853 6.99751 0
M  V30 24095 H 3281.52 4.13501 5.06559 0
M  V30 24096 H 3283 5.03285 6.70911 0
M  V30 24097 H 3281.31 5.20877 8.75697 0
M  V30 24098 H 3281.12 7.11046 7.35349 0
M  V30 24099 H 3279.49 6.35815 7.26986 0
M  V30 24100 H 3282.13 1.61644 6.13565 0
M  V30 24101 P 3283.98 3.65191 7.99657 0
M  V30 24102 O 3285.41 3.8425 8.48115 0
M  V30 24103 O 3283.62 4.17805 6.64342 0
M  V30 24104 O 3283.66 2.07613 7.95143 0
M  V30 24105 C 3283.5 1.44328 9.27336 0
M  V30 24106 C 3284.04 0.0220036 9.17197 0
M  V30 24107 O 3282.99 -0.626867 8.61923 0
M  V30 24108 C 3285.26 -0.24586 8.30336 0
M  V30 24109 O 3286 -1.39011 8.63583 0
M  V30 24110 C 3284.59 -0.273849 6.91158 0
M  V30 24111 O 3285.39 -1.06348 6.02892 0
M  V30 24112 C 3283.25 -0.897649 7.22545 0
M  V30 24113 H 3283.29 -1.9841 7.04286 0
M  V30 24114 H 3284.47 0.739928 6.497 0
M  V30 24115 H 3285.95 0.60668 8.36503 0
M  V30 24116 H 3284.26 -0.352479 10.1829 0
M  V30 24117 H 3284.07 2.00611 10.0304 0
M  V30 24118 H 3282.44 1.41843 9.55327 0
M  V30 24119 H 3285.08 -1.95734 6.03555 0
M  V30 24120 P 3286.93 -1.25109 8.70152 0
M  V30 24121 O 3288.36 -1.35274 9.21221 0
M  V30 24122 O 3286.57 -0.0769065 7.84762 0
M  V30 24123 O 3286.61 -2.55232 7.81161 0
M  V30 24124 C 3286.45 -3.79939 8.58154 0
M  V30 24125 C 3286.99 -4.94023 7.72785 0
M  V30 24126 O 3285.94 -5.18726 6.91205 0
M  V30 24127 C 3288.21 -4.69597 6.85231 0
M  V30 24128 O 3288.95 -5.83832 6.51337 0
M  V30 24129 C 3287.54 -3.96706 5.66633 0
M  V30 24130 O 3288.34 -4.15414 4.49689 0
M  V30 24131 C 3286.2 -4.66153 5.59313 0
M  V30 24132 H 3286.24 -5.47679 4.85214 0
M  V30 24133 H 3287.42 -2.89008 5.86566 0
M  V30 24134 H 3288.9 -4.0121 7.36511 0
M  V30 24135 H 3287.21 -5.80182 8.37584 0
M  V30 24136 H 3287.02 -3.73517 9.52265 0
M  V30 24137 H 3285.39 -3.97163 8.80359 0
M  V30 24138 H 3288.03 -4.90969 4.01921 0
M  V30 24139 P 3289.89 -5.75688 6.64379 0
M  V30 24140 O 3291.31 -6.11849 7.01846 0
M  V30 24141 O 3289.53 -4.30744 6.56026 0
M  V30 24142 O 3289.56 -6.37042 5.19165 0
M  V30 24143 C 3289.4 -7.83578 5.16515 0
M  V30 24144 C 3289.94 -8.33398 3.83019 0
M  V30 24145 O 3288.89 -8.10074 3.01034 0
M  V30 24146 C 3291.16 -7.65514 3.2257 0
M  V30 24147 O 3291.9 -8.4329 2.32297 0
M  V30 24148 C 3290.49 -6.40075 2.62207 0
M  V30 24149 O 3291.29 -5.92589 1.53712 0
M  V30 24150 C 3289.15 -6.9454 2.18503 0
M  V30 24151 H 3289.19 -7.23063 1.12091 0
M  V30 24152 H 3290.37 -5.6025 3.37201 0
M  V30 24153 H 3291.85 -7.35707 4.02681 0
M  V30 24154 H 3290.16 -9.40912 3.9095 0
M  V30 24155 H 3289.97 -8.29056 5.99158 0
M  V30 24156 H 3288.34 -8.10073 5.25882 0
M  V30 24157 H 3290.98 -6.30324 0.726794 0
M  V30 24158 P 3292.84 -8.4349 2.47671 0
M  V30 24159 O 3294.26 -8.94263 2.59668 0
M  V30 24160 O 3292.48 -7.1704 3.19006 0
M  V30 24161 O 3292.51 -8.16596 0.923387 0
M  V30 24162 C 3292.35 -9.38537 0.108869 0
M  V30 24163 C 3292.89 -9.08175 -1.28353 0
M  V30 24164 O 3291.84 -8.44131 -1.84692 0
M  V30 24165 C 3294.11 -8.18386 -1.42505 0
M  V30 24166 O 3294.85 -8.3501 -2.60497 0
M  V30 24167 C 3293.44 -6.80225 -1.25468 0
M  V30 24168 O 3294.24 -5.81716 -1.90454 0
M  V30 24169 C 3292.11 -7.02416 -1.9168 0
M  V30 24170 N 3291.06 -6.31033 -1.20314 0
M  V30 24171 C 3291.23 -5.98817 0.0994088 0
M  V30 24172 N 3290.2 -5.35403 0.621694 0
M  V30 24173 C 3289.32 -5.25212 -0.43376 0
M  V30 24174 C 3288.05 -4.64602 -0.519722 0
M  V30 24175 N 3287.49 -4.7568 -1.76013 0
M  V30 24176 C 3288.09 -5.3653 -2.83017 0
M  V30 24177 N 3289.27 -5.93676 -2.79782 0
M  V30 24178 C 3289.84 -5.84061 -1.56249 0
M  V30 24179 H 3293.32 -6.53498 -0.198729 0
M  V30 24180 H 3294.8 -8.36622 -0.589963 0
M  V30 24181 H 3293.11 -10.0273 -1.8081 0
M  V30 24182 H 3292.92 -10.2138 0.558219 0
M  V30 24183 H 3291.29 -9.6579 0.0444202 0
M  V30 24184 H 3292.13 -6.23209 0.660562 0
M  V30 24185 H 3293.93 -5.69466 -2.79593 0
M  V30 24186 P 3295.79 -8.4349 -2.47671 0
M  V30 24187 O 3297.21 -8.92593 -2.65 0
M  V30 24188 O 3295.43 -7.7568 -1.19296 0
M  V30 24189 O 3295.46 -7.36886 -3.63805 0
M  V30 24190 C 3295.3 -7.95349 -4.982 0
M  V30 24191 C 3295.84 -6.94612 -5.98974 0
M  V30 24192 O 3294.79 -6.10347 -6.11815 0
M  V30 24193 C 3297.06 -6.11426 -5.62335 0
M  V30 24194 O 3297.8 -5.6162 -6.70584 0
M  V30 24195 C 3296.39 -5.04409 -4.73308 0
M  V30 24196 O 3297.19 -3.85992 -4.75183 0
M  V30 24197 C 3295.06 -4.8728 -5.41006 0
M  V30 24198 H 3295.09 -4.02333 -6.11157 0
M  V30 24199 H 3296.27 -5.39466 -3.69543 0
M  V30 24200 H 3297.75 -6.71916 -5.01943 0
M  V30 24201 H 3296.06 -7.4649 -6.93477 0
M  V30 24202 H 3295.87 -8.89416 -5.05237 0
M  V30 24203 H 3294.24 -8.14876 -5.18409 0
M  V30 24204 H 3296.88 -3.27957 -5.4317 0
M  V30 24205 P 3298.74 -5.75688 -6.64379 0
M  V30 24206 O 3300.16 -6.07627 -7.05504 0
M  V30 24207 O 3298.38 -5.88047 -5.19722 0
M  V30 24208 O 3298.41 -4.2322 -7.04443 0
M  V30 24209 C 3298.25 -3.99743 -8.4911 0
M  V30 24210 C 3298.79 -2.60516 -8.79425 0
M  V30 24211 O 3297.74 -1.82684 -8.4467 0
M  V30 24212 C 3300.01 -2.10343 -8.03628 0
M  V30 24213 O 3300.75 -1.09919 -8.67766 0
M  V30 24214 C 3299.34 -1.68446 -6.70876 0
M  V30 24215 O 3300.14 -0.678137 -6.08433 0
M  V30 24216 C 3298.01 -1.17436 -7.18567 0
M  V30 24217 H 3298.04 -0.0804732 -7.31656 0
M  V30 24218 H 3299.22 -2.54037 -6.02537 0
M  V30 24219 H 3300.71 -2.93881 -7.85526 0
M  V30 24220 H 3299.01 -2.53065 -9.86973 0
M  V30 24221 H 3298.82 -4.75072 -9.05887 0
M  V30 24222 H 3297.19 -4.05244 -8.76668 0
M  V30 24223 H 3299.83 0.177647 -6.34251 0
M  V30 24224 P 3301.69 -1.25109 -8.70152 0
M  V30 24225 O 3303.11 -1.29744 -9.22016 0
M  V30 24226 O 3301.33 -2.13714 -7.55141 0
M  V30 24227 O 3301.36 0.248149 -8.21425 0
M  V30 24228 C 3301.2 1.22779 -9.30434 0
M  V30 24229 C 3301.74 2.56293 -8.80664 0
M  V30 24230 O 3300.69 3.02979 -8.09349 0
M  V30 24231 C 3302.96 2.57523 -7.89775 0
M  V30 24232 O 3303.7 3.7668 -7.89438 0
M  V30 24233 C 3302.29 2.20997 -6.55446 0
M  V30 24234 O 3303.09 2.71895 -5.48509 0
M  V30 24235 C 3300.96 2.89693 -6.67988 0
M  V30 24236 H 3300.99 3.88793 -6.19859 0
M  V30 24237 H 3302.17 1.12046 -6.44229 0
M  V30 24238 H 3303.66 1.7746 -8.19711 0
M  V30 24239 H 3301.96 3.20706 -9.67112 0
M  V30 24240 H 3301.77 0.901032 -10.1892 0
M  V30 24241 H 3300.14 1.33049 -9.56592 0
M  V30 24242 H 3302.78 3.57847 -5.23962 0
M  V30 24243 P 3304.64 3.65191 -7.99657 0
M  V30 24244 O 3306.06 3.89332 -8.45794 0
M  V30 24245 O 3304.28 2.28472 -7.50807 0
M  V30 24246 O 3304.32 4.64972 -6.77611 0
M  V30 24247 C 3304.16 6.06319 -7.16352 0
M  V30 24248 C 3304.7 6.91731 -6.02299 0
M  V30 24249 O 3303.64 6.92449 -5.17064 0
M  V30 24250 C 3305.91 6.43627 -5.25174 0
M  V30 24251 O 3306.65 7.43686 -4.60469 0
M  V30 24252 C 3305.24 5.40275 -4.31916 0
M  V30 24253 O 3306.04 5.25279 -3.14438 0
M  V30 24254 C 3303.91 6.04847 -4.05327 0
M  V30 24255 H 3303.94 6.62195 -3.11261 0
M  V30 24256 H 3305.12 4.42556 -4.81383 0
M  V30 24257 H 3306.61 5.92458 -5.93643 0
M  V30 24258 H 3304.91 7.92655 -6.402 0
M  V30 24259 H 3304.72 6.26671 -8.0846 0
M  V30 24260 H 3303.09 6.29101 -7.32804 0
M  V30 24261 H 3305.73 5.84315 -2.47318 0
M  V30 24262 P 3307.59 7.39546 -4.75277 0
M  V30 24263 O 3309.01 7.84798 -5.01039 0
M  V30 24264 O 3307.23 5.9812 -5.08098 0
M  V30 24265 O 3307.27 7.57503 -3.1866 0
M  V30 24266 C 3307.11 8.97357 -2.74833 0
M  V30 24267 C 3307.65 9.07548 -1.32709 0
M  V30 24268 O 3306.59 8.62072 -0.606159 0
M  V30 24269 C 3308.86 8.25383 -0.938334 0
M  V30 24270 O 3309.6 8.74577 0.146954 0
M  V30 24271 C 3308.19 6.8802 -0.712559 0
M  V30 24272 O 3308.99 6.1189 0.194655 0
M  V30 24273 C 3306.86 7.27966 -0.139777 0
M  V30 24274 H 3306.89 7.25354 0.961601 0
M  V30 24275 H 3308.07 6.32557 -1.65702 0
M  V30 24276 H 3309.56 8.19355 -1.79097 0
M  V30 24277 H 3307.86 10.1294 -1.10029 0
M  V30 24278 H 3307.67 9.64276 -3.41316 0
M  V30 24279 H 3306.04 9.25417 -2.76357 0
M  V30 24280 H 3308.68 6.25267 1.07847 0
M  V30 24281 P 3310.54 8.791 -8.32965e-11 0
M  V30 24282 O 3311.96 9.31096 0.027933 0
M  V30 24283 O 3310.18 7.77869 -1.04071 0
M  V30 24284 O 3310.22 8.09533 1.41463 0
M  V30 24285 C 3310.06 9.0349 2.53943 0
M  V30 24286 C 3310.6 8.35226 3.79016 0
M  V30 24287 O 3309.54 7.57992 4.15078 0
M  V30 24288 C 3311.81 7.45087 3.67298 0
M  V30 24289 O 3312.55 7.27796 4.85194 0
M  V30 24290 C 3311.15 6.17323 3.12027 0
M  V30 24291 O 3311.94 5.04231 3.47188 0
M  V30 24292 C 3309.81 6.19961 3.81809 0
M  V30 24293 H 3309.84 5.58218 4.73051 0
M  V30 24294 H 3311.02 6.21726 2.02589 0
M  V30 24295 H 3312.51 7.86112 2.9231 0
M  V30 24296 H 3310.81 9.11627 4.55076 0
M  V30 24297 H 3310.62 9.9573 2.34194 0
M  V30 24298 H 3308.99 9.2792 2.67832 0
M  V30 24299 H 3311.63 4.67702 4.28772 0
M  V30 24300 P 3313.49 7.39546 4.75277 0
M  V30 24301 O 3314.91 7.81945 5.05847 0
M  V30 24302 O 3313.13 7.1065 3.32998 0
M  V30 24303 O 3313.17 6.04542 5.56673 0
M  V30 24304 C 3313.01 6.22772 7.02095 0
M  V30 24305 C 3313.55 4.97671 7.70322 0
M  V30 24306 O 3312.49 4.13256 7.58987 0
M  V30 24307 C 3314.77 4.28231 7.11815 0
M  V30 24308 O 3315.5 3.49945 8.01648 0
M  V30 24309 C 3314.1 3.5063 5.96244 0
M  V30 24310 O 3314.9 2.36443 5.64589 0
M  V30 24311 C 3312.76 3.15122 6.56374 0
M  V30 24312 N 3311.72 3.22311 5.55692 0
M  V30 24313 C 3311.78 4.14382 4.59701 0
M  V30 24314 N 3310.73 4.04476 3.76958 0
M  V30 24315 C 3310 3.04892 4.26534 0
M  V30 24316 C 3308.69 2.57447 3.88189 0
M  V30 24317 O 3307.96 2.9785 2.96543 0
M  V30 24318 N 3308.26 1.55228 4.65922 0
M  V30 24319 C 3309.01 1.01152 5.73447 0
M  V30 24320 N 3308.42 -0.0472117 6.37783 0
M  V30 24321 N 3310.17 1.467 6.13813 0
M  V30 24322 C 3310.62 2.4931 5.38487 0
M  V30 24323 H 3312.79 2.13853 6.99751 0
M  V30 24324 H 3313.97 4.13438 5.06482 0
M  V30 24325 H 3315.46 5.02614 6.71414 0
M  V30 24326 H 3313.76 5.20877 8.75697 0
M  V30 24327 H 3313.57 7.11046 7.35349 0
M  V30 24328 H 3311.94 6.35815 7.26986 0
M  V30 24329 H 3307.37 1.15238 4.46468 0
M  V30 24330 H 3312.57 4.88312 4.49647 0
M  V30 24331 H 3307.5 -0.396382 6.05203 0
M  V30 24332 H 3308.88 -0.484997 7.18465 0
M  V30 24333 H 3314.58 1.61619 6.13468 0
M  V30 24334 P 3316.44 3.65191 7.99657 0
M  V30 24335 O 3317.86 3.8425 8.48115 0
M  V30 24336 O 3316.08 4.17805 6.64342 0
M  V30 24337 O 3316.12 2.07613 7.95143 0
M  V30 24338 C 3315.96 1.44328 9.27336 0
M  V30 24339 C 3316.5 0.0220036 9.17197 0
M  V30 24340 O 3315.44 -0.626867 8.61923 0
M  V30 24341 C 3317.72 -0.24586 8.30336 0
M  V30 24342 O 3318.45 -1.39011 8.63583 0
M  V30 24343 C 3317.05 -0.273849 6.91158 0
M  V30 24344 O 3317.85 -1.06348 6.02892 0
M  V30 24345 C 3315.71 -0.897649 7.22545 0
M  V30 24346 H 3315.74 -1.9841 7.04286 0
M  V30 24347 H 3316.92 0.739928 6.497 0
M  V30 24348 H 3318.41 0.60668 8.36503 0
M  V30 24349 H 3316.71 -0.352479 10.1829 0
M  V30 24350 H 3316.52 2.00611 10.0304 0
M  V30 24351 H 3314.89 1.41843 9.55327 0
M  V30 24352 H 3317.53 -1.95734 6.03555 0
M  V30 24353 P 3319.39 -1.25109 8.70152 0
M  V30 24354 O 3320.81 -1.35288 9.2132 0
M  V30 24355 O 3319.03 -0.0769065 7.84762 0
M  V30 24356 O 3319.07 -2.55232 7.81161 0
M  V30 24357 C 3318.91 -3.79979 8.58246 0
M  V30 24358 C 3319.45 -4.94023 7.72785 0
M  V30 24359 O 3318.39 -5.18666 6.91125 0
M  V30 24360 C 3320.67 -4.69597 6.85231 0
M  V30 24361 O 3321.4 -5.83832 6.51337 0
M  V30 24362 C 3320 -3.96706 5.66633 0
M  V30 24363 O 3320.8 -4.14896 4.5003 0
M  V30 24364 C 3318.66 -4.66153 5.59313 0
M  V30 24365 N 3317.62 -3.71582 5.24027 0
M  V30 24366 C 3317.79 -2.39715 5.48833 0
M  V30 24367 N 3316.76 -1.65863 5.12845 0
M  V30 24368 C 3315.87 -2.57637 4.5973 0
M  V30 24369 C 3314.61 -2.40278 4.01027 0
M  V30 24370 N 3314.04 -3.57711 3.59575 0
M  V30 24371 C 3314.64 -4.80324 3.70476 0
M  V30 24372 N 3315.82 -5.01121 4.23801 0
M  V30 24373 C 3316.4 -3.84757 4.66372 0
M  V30 24374 H 3319.88 -2.8955 5.86187 0
M  V30 24375 H 3321.36 -4.0121 7.36511 0
M  V30 24376 H 3319.66 -5.81019 8.37003 0
M  V30 24377 H 3319.47 -3.73517 9.52265 0
M  V30 24378 H 3317.84 -3.97163 8.80359 0
M  V30 24379 H 3318.69 -1.98804 5.94332 0
M  V30 24380 H 3320.48 -4.90891 4.01857 0
M  V30 24381 P 3322.34 -5.75688 6.64379 0
M  V30 24382 O 3323.76 -6.11915 7.01921 0
M  V30 24383 O 3321.98 -4.30744 6.56026 0
M  V30 24384 O 3322.02 -6.37042 5.19165 0
M  V30 24385 C 3321.86 -7.83662 5.1657 0
M  V30 24386 C 3322.4 -8.33398 3.83019 0
M  V30 24387 O 3321.34 -8.0998 3.00999 0
M  V30 24388 C 3323.62 -7.65514 3.2257 0
M  V30 24389 O 3324.35 -8.4329 2.32297 0
M  V30 24390 C 3322.95 -6.40075 2.62207 0
M  V30 24391 O 3323.75 -5.92338 1.5428 0
M  V30 24392 C 3321.61 -6.9454 2.18503 0
M  V30 24393 N 3320.57 -5.95905 2.39948 0
M  V30 24394 C 3320.74 -4.98383 3.32108 0
M  V30 24395 N 3319.71 -4.16798 3.41761 0
M  V30 24396 C 3318.82 -4.65287 2.47461 0
M  V30 24397 C 3317.56 -4.18946 2.07461 0
M  V30 24398 N 3316.99 -4.95327 1.09101 0
M  V30 24399 C 3317.59 -6.04369 0.519812 0
M  V30 24400 N 3318.77 -6.50694 0.855982 0
M  V30 24401 C 3319.35 -5.75818 1.84322 0
M  V30 24402 H 3322.83 -5.60502 3.36589 0
M  V30 24403 H 3324.31 -7.35707 4.02681 0
M  V30 24404 H 3322.61 -9.41302 3.90009 0
M  V30 24405 H 3322.42 -8.29056 5.99158 0
M  V30 24406 H 3320.79 -8.10073 5.25882 0
M  V30 24407 H 3321.64 -4.88564 3.92502 0
M  V30 24408 H 3323.43 -6.30224 0.72668 0
M  V30 24409 P 3325.29 -8.4349 2.47671 0
M  V30 24410 O 3326.71 -8.94167 2.5964 0
M  V30 24411 O 3324.93 -7.1704 3.19006 0
M  V30 24412 O 3324.97 -8.16596 0.923387 0
M  V30 24413 C 3324.81 -9.38437 0.108857 0
M  V30 24414 C 3325.35 -9.08175 -1.28353 0
M  V30 24415 O 3324.29 -8.44229 -1.84713 0
M  V30 24416 C 3326.57 -8.18386 -1.42505 0
M  V30 24417 O 3327.31 -8.3501 -2.60497 0
M  V30 24418 C 3325.9 -6.80225 -1.25468 0
M  V30 24419 O 3326.7 -5.81621 -1.91066 0
M  V30 24420 C 3324.56 -7.02416 -1.9168 0
M  V30 24421 H 3324.59 -6.6888 -2.96621 0
M  V30 24422 H 3325.78 -6.53617 -0.192223 0
M  V30 24423 H 3327.26 -8.36622 -0.589963 0
M  V30 24424 H 3325.57 -10.0291 -1.79807 0
M  V30 24425 H 3325.38 -10.2138 0.558219 0
M  V30 24426 H 3323.75 -9.6579 0.0444202 0
M  V30 24427 H 3326.39 -5.69556 -2.79637 0
M  V30 24428 P 3328.24 -8.4349 -2.47671 0
M  V30 24429 O 3329.66 -8.92593 -2.65 0
M  V30 24430 O 3327.88 -7.7568 -1.19296 0
M  V30 24431 O 3327.92 -7.36886 -3.63805 0
M  V30 24432 C 3327.76 -7.95349 -4.982 0
M  V30 24433 C 3328.3 -6.94612 -5.98974 0
M  V30 24434 O 3327.24 -6.10347 -6.11815 0
M  V30 24435 C 3329.52 -6.11426 -5.62335 0
M  V30 24436 O 3330.26 -5.6162 -6.70584 0
M  V30 24437 C 3328.85 -5.04409 -4.73308 0
M  V30 24438 O 3329.65 -3.85992 -4.75183 0
M  V30 24439 C 3327.51 -4.8728 -5.41006 0
M  V30 24440 H 3327.54 -4.02333 -6.11157 0
M  V30 24441 H 3328.73 -5.39466 -3.69543 0
M  V30 24442 H 3330.21 -6.71916 -5.01943 0
M  V30 24443 H 3328.52 -7.4649 -6.93477 0
M  V30 24444 H 3328.33 -8.89416 -5.05237 0
M  V30 24445 H 3326.7 -8.14876 -5.18409 0
M  V30 24446 H 3329.34 -3.27957 -5.4317 0
M  V30 24447 P 3331.19 -5.75688 -6.64379 0
M  V30 24448 O 3332.62 -6.07627 -7.05504 0
M  V30 24449 O 3330.83 -5.88047 -5.19722 0
M  V30 24450 O 3330.87 -4.2322 -7.04443 0
M  V30 24451 C 3330.71 -3.99743 -8.4911 0
M  V30 24452 C 3331.25 -2.60516 -8.79425 0
M  V30 24453 O 3330.19 -1.82684 -8.4467 0
M  V30 24454 C 3332.47 -2.10343 -8.03628 0
M  V30 24455 O 3333.21 -1.09919 -8.67766 0
M  V30 24456 C 3331.8 -1.68446 -6.70876 0
M  V30 24457 O 3332.6 -0.678137 -6.08433 0
M  V30 24458 C 3330.46 -1.17436 -7.18567 0
M  V30 24459 H 3330.49 -0.0804732 -7.31656 0
M  V30 24460 H 3331.68 -2.54037 -6.02537 0
M  V30 24461 H 3333.16 -2.93881 -7.85526 0
M  V30 24462 H 3331.47 -2.53065 -9.86973 0
M  V30 24463 H 3331.28 -4.75072 -9.05887 0
M  V30 24464 H 3329.65 -4.05244 -8.76668 0
M  V30 24465 H 3332.29 0.177647 -6.34251 0
M  V30 24466 P 3334.14 -1.25109 -8.70152 0
M  V30 24467 O 3335.57 -1.29744 -9.22016 0
M  V30 24468 O 3333.78 -2.13714 -7.55141 0
M  V30 24469 O 3333.82 0.248149 -8.21425 0
M  V30 24470 C 3333.66 1.22779 -9.30434 0
M  V30 24471 C 3334.2 2.56293 -8.80664 0
M  V30 24472 O 3333.15 3.02979 -8.09349 0
M  V30 24473 C 3335.42 2.57523 -7.89775 0
M  V30 24474 O 3336.16 3.7668 -7.89438 0
M  V30 24475 C 3334.75 2.20997 -6.55446 0
M  V30 24476 O 3335.55 2.71895 -5.48509 0
M  V30 24477 C 3333.41 2.89693 -6.67988 0
M  V30 24478 H 3333.45 3.88793 -6.19859 0
M  V30 24479 H 3334.63 1.12046 -6.44229 0
M  V30 24480 H 3336.11 1.7746 -8.19711 0
M  V30 24481 H 3334.42 3.20706 -9.67112 0
M  V30 24482 H 3334.23 0.901032 -10.1892 0
M  V30 24483 H 3332.6 1.33049 -9.56592 0
M  V30 24484 H 3335.24 3.57847 -5.23962 0
M  V30 24485 P 3337.09 3.65191 -7.99657 0
M  V30 24486 O 3338.52 3.89416 -8.45976 0
M  V30 24487 O 3336.73 2.28472 -7.50807 0
M  V30 24488 O 3336.77 4.64972 -6.77611 0
M  V30 24489 C 3336.61 6.06319 -7.16352 0
M  V30 24490 C 3337.15 6.91655 -6.02234 0
M  V30 24491 O 3336.1 6.92449 -5.17064 0
M  V30 24492 C 3338.37 6.43627 -5.25174 0
M  V30 24493 O 3339.11 7.43686 -4.60469 0
M  V30 24494 C 3337.7 5.40275 -4.31916 0
M  V30 24495 O 3338.5 5.25193 -3.14386 0
M  V30 24496 C 3336.36 6.04847 -4.05327 0
M  V30 24497 N 3335.32 5.04166 -3.98114 0
M  V30 24498 C 3335.38 3.96049 -4.75587 0
M  V30 24499 N 3334.34 3.15559 -4.54006 0
M  V30 24500 C 3333.6 3.78802 -3.62491 0
M  V30 24501 C 3332.3 3.476 -3.10071 0
M  V30 24502 O 3331.56 2.51136 -3.37021 0
M  V30 24503 N 3331.87 4.39088 -2.19956 0
M  V30 24504 C 3332.62 5.53215 -1.81733 0
M  V30 24505 N 3332.02 6.31963 -0.860928 0
M  V30 24506 N 3333.77 5.86688 -2.32562 0
M  V30 24507 C 3334.23 4.97525 -3.23407 0
M  V30 24508 H 3336.4 6.62195 -3.11261 0
M  V30 24509 H 3337.58 4.42488 -4.8131 0
M  V30 24510 H 3339.06 5.93051 -5.9305 0
M  V30 24511 H 3337.37 7.92655 -6.402 0
M  V30 24512 H 3337.18 6.26671 -8.0846 0
M  V30 24513 H 3335.55 6.29101 -7.32804 0
M  V30 24514 H 3330.97 4.25523 -1.77604 0
M  V30 24515 H 3336.18 3.75576 -5.47333 0
M  V30 24516 H 3331.11 6.04684 -0.468946 0
M  V30 24517 H 3332.48 7.18054 -0.542422 0
M  V30 24518 H 3338.19 5.84223 -2.47279 0
M  V30 24519 P 3340.05 7.39546 -4.75277 0
M  V30 24520 O 3341.47 7.84798 -5.01039 0
M  V30 24521 O 3339.69 5.9812 -5.08098 0
M  V30 24522 O 3339.72 7.57503 -3.1866 0
M  V30 24523 C 3339.56 8.97357 -2.74833 0
M  V30 24524 C 3340.1 9.07548 -1.32709 0
M  V30 24525 O 3339.05 8.62072 -0.606159 0
M  V30 24526 C 3341.32 8.25383 -0.938334 0
M  V30 24527 O 3342.06 8.74577 0.146954 0
M  V30 24528 C 3340.65 6.8802 -0.712559 0
M  V30 24529 O 3341.45 6.1189 0.194655 0
M  V30 24530 C 3339.31 7.27966 -0.139777 0
M  V30 24531 H 3339.35 7.25354 0.961601 0
M  V30 24532 H 3340.53 6.32557 -1.65702 0
M  V30 24533 H 3342.01 8.19355 -1.79097 0
M  V30 24534 H 3340.32 10.1294 -1.10029 0
M  V30 24535 H 3340.13 9.64276 -3.41316 0
M  V30 24536 H 3338.5 9.25417 -2.76357 0
M  V30 24537 H 3341.14 6.25267 1.07847 0
M  V30 24538 P 3343 8.791 -8.84831e-11 0
M  V30 24539 O 3344.42 9.31096 0.027933 0
M  V30 24540 O 3342.64 7.77869 -1.04071 0
M  V30 24541 O 3342.67 8.09533 1.41463 0
M  V30 24542 C 3342.51 9.0349 2.53943 0
M  V30 24543 C 3343.05 8.35226 3.79016 0
M  V30 24544 O 3342 7.57992 4.15078 0
M  V30 24545 C 3344.27 7.45087 3.67298 0
M  V30 24546 O 3345.01 7.27796 4.85194 0
M  V30 24547 C 3343.6 6.17323 3.12027 0
M  V30 24548 O 3344.4 5.04231 3.47188 0
M  V30 24549 C 3342.26 6.19961 3.81809 0
M  V30 24550 H 3342.3 5.58218 4.73051 0
M  V30 24551 H 3343.48 6.21726 2.02589 0
M  V30 24552 H 3344.96 7.86112 2.9231 0
M  V30 24553 H 3343.27 9.11627 4.55076 0
M  V30 24554 H 3343.08 9.9573 2.34194 0
M  V30 24555 H 3341.45 9.2792 2.67832 0
M  V30 24556 H 3344.09 4.67702 4.28772 0
M  V30 24557 P 3345.95 7.39546 4.75277 0
M  V30 24558 O 3347.35 7.89013 5.04841 0
M  V30 24559 O 3345.57 7.16603 3.32298 0
M  V30 24560 O 3345.62 6.04468 5.56605 0
M  V30 24561 C 3345.46 6.22772 7.02095 0
M  V30 24562 C 3346 4.97671 7.70322 0
M  V30 24563 O 3344.95 4.13208 7.58899 0
M  V30 24564 C 3347.22 4.28231 7.11815 0
M  V30 24565 O 3347.96 3.49945 8.01648 0
M  V30 24566 C 3346.55 3.5063 5.96244 0
M  V30 24567 O 3347.35 2.36443 5.64589 0
M  V30 24568 C 3345.22 3.15122 6.56374 0
M  V30 24569 N 3344.17 3.22311 5.55692 0
M  V30 24570 C 3343.14 2.32244 5.62437 0
M  V30 24571 O 3343.18 1.43107 6.50341 0
M  V30 24572 N 3342.13 2.40811 4.73368 0
M  V30 24573 C 3342.17 3.344 3.77753 0
M  V30 24574 C 3343.27 4.24712 3.66679 0
M  V30 24575 C 3344.24 4.15625 4.58307 0
M  V30 24576 H 3345.25 2.13823 6.99656 0
M  V30 24577 H 3346.43 4.12931 5.06895 0
M  V30 24578 H 3347.91 5.02674 6.71494 0
M  V30 24579 H 3346.22 5.20001 8.76217 0
M  V30 24580 H 3346.03 7.11046 7.35349 0
M  V30 24581 H 3344.4 6.35749 7.26911 0
M  V30 24582 H 3343.32 4.9828 2.86753 0
M  V30 24583 H 3345.08 4.84464 4.54228 0
M  V30 24584 H 3347.14 1.65592 6.23485 0
M  V30 24585 P 3348.9 3.65191 7.99657 0
M  V30 24586 O 3350.32 3.8425 8.48115 0
M  V30 24587 O 3348.54 4.17805 6.64342 0
M  V30 24588 O 3348.57 2.07613 7.95143 0
M  V30 24589 C 3348.41 1.44328 9.27336 0
M  V30 24590 C 3348.95 0.0220036 9.17197 0
M  V30 24591 O 3347.9 -0.626867 8.61923 0
M  V30 24592 C 3350.17 -0.24586 8.30336 0
M  V30 24593 O 3350.91 -1.39011 8.63583 0
M  V30 24594 C 3349.5 -0.273849 6.91158 0
M  V30 24595 O 3350.3 -1.06348 6.02892 0
M  V30 24596 C 3348.17 -0.897649 7.22545 0
M  V30 24597 H 3348.2 -1.9841 7.04286 0
M  V30 24598 H 3349.38 0.739928 6.497 0
M  V30 24599 H 3350.86 0.60668 8.36503 0
M  V30 24600 H 3349.17 -0.352479 10.1829 0
M  V30 24601 H 3348.98 2.00611 10.0304 0
M  V30 24602 H 3347.35 1.41843 9.55327 0
M  V30 24603 H 3349.99 -1.95734 6.03555 0
M  V30 24604 P 3351.85 -1.25109 8.70152 0
M  V30 24605 O 3353.27 -1.35274 9.21221 0
M  V30 24606 O 3351.49 -0.0769065 7.84762 0
M  V30 24607 O 3351.52 -2.55232 7.81161 0
M  V30 24608 C 3351.36 -3.79939 8.58154 0
M  V30 24609 C 3351.9 -4.94023 7.72785 0
M  V30 24610 O 3350.85 -5.18726 6.91205 0
M  V30 24611 C 3353.12 -4.69597 6.85231 0
M  V30 24612 O 3353.86 -5.83832 6.51337 0
M  V30 24613 C 3352.45 -3.96706 5.66633 0
M  V30 24614 O 3353.25 -4.15414 4.49689 0
M  V30 24615 C 3351.12 -4.66153 5.59313 0
M  V30 24616 H 3351.15 -5.47679 4.85214 0
M  V30 24617 H 3352.33 -2.89008 5.86566 0
M  V30 24618 H 3353.82 -4.0121 7.36511 0
M  V30 24619 H 3352.12 -5.80182 8.37584 0
M  V30 24620 H 3351.93 -3.73517 9.52265 0
M  V30 24621 H 3350.3 -3.97163 8.80359 0
M  V30 24622 H 3352.94 -4.90969 4.01921 0
M  V30 24623 P 3354.8 -5.75688 6.64379 0
M  V30 24624 O 3356.22 -6.11849 7.01846 0
M  V30 24625 O 3354.44 -4.30744 6.56026 0
M  V30 24626 O 3354.48 -6.37042 5.19165 0
M  V30 24627 C 3354.32 -7.83578 5.16515 0
M  V30 24628 C 3354.86 -8.33398 3.83019 0
M  V30 24629 O 3353.8 -8.10074 3.01034 0
M  V30 24630 C 3356.07 -7.65514 3.2257 0
M  V30 24631 O 3356.81 -8.4329 2.32297 0
M  V30 24632 C 3355.4 -6.40075 2.62207 0
M  V30 24633 O 3356.2 -5.92589 1.53712 0
M  V30 24634 C 3354.07 -6.9454 2.18503 0
M  V30 24635 H 3354.1 -7.23063 1.12091 0
M  V30 24636 H 3355.28 -5.6025 3.37201 0
M  V30 24637 H 3356.77 -7.35707 4.02681 0
M  V30 24638 H 3355.07 -9.40912 3.9095 0
M  V30 24639 H 3354.88 -8.29056 5.99158 0
M  V30 24640 H 3353.25 -8.10073 5.25882 0
M  V30 24641 H 3355.89 -6.30324 0.726794 0
M  V30 24642 P 3357.75 -8.4349 2.47671 0
M  V30 24643 O 3359.17 -8.94167 2.5964 0
M  V30 24644 O 3357.39 -7.1704 3.19006 0
M  V30 24645 O 3357.43 -8.16596 0.923387 0
M  V30 24646 C 3357.27 -9.38437 0.108857 0
M  V30 24647 C 3357.81 -9.08175 -1.28353 0
M  V30 24648 O 3356.75 -8.44229 -1.84713 0
M  V30 24649 C 3359.02 -8.18386 -1.42505 0
M  V30 24650 O 3359.76 -8.3501 -2.60497 0
M  V30 24651 C 3358.35 -6.80225 -1.25468 0
M  V30 24652 O 3359.15 -5.81621 -1.91066 0
M  V30 24653 C 3357.02 -7.02416 -1.9168 0
M  V30 24654 H 3357.05 -6.6888 -2.96621 0
M  V30 24655 H 3358.23 -6.53617 -0.192223 0
M  V30 24656 H 3359.72 -8.36622 -0.589963 0
M  V30 24657 H 3358.02 -10.0291 -1.79807 0
M  V30 24658 H 3357.83 -10.2138 0.558219 0
M  V30 24659 H 3356.2 -9.6579 0.0444202 0
M  V30 24660 H 3358.84 -5.69556 -2.79637 0
M  V30 24661 P 3360.7 -8.4349 -2.47671 0
M  V30 24662 O 3362.12 -8.92593 -2.65 0
M  V30 24663 O 3360.34 -7.7568 -1.19296 0
M  V30 24664 O 3360.38 -7.36886 -3.63805 0
M  V30 24665 C 3360.22 -7.95349 -4.982 0
M  V30 24666 C 3360.76 -6.94612 -5.98974 0
M  V30 24667 O 3359.7 -6.10347 -6.11815 0
M  V30 24668 C 3361.97 -6.11426 -5.62335 0
M  V30 24669 O 3362.71 -5.6162 -6.70584 0
M  V30 24670 C 3361.31 -5.04409 -4.73308 0
M  V30 24671 O 3362.1 -3.85992 -4.75183 0
M  V30 24672 C 3359.97 -4.8728 -5.41006 0
M  V30 24673 H 3360 -4.02333 -6.11157 0
M  V30 24674 H 3361.18 -5.39466 -3.69543 0
M  V30 24675 H 3362.67 -6.71916 -5.01943 0
M  V30 24676 H 3360.97 -7.4649 -6.93477 0
M  V30 24677 H 3360.78 -8.89416 -5.05237 0
M  V30 24678 H 3359.15 -8.14876 -5.18409 0
M  V30 24679 H 3361.79 -3.27957 -5.4317 0
M  V30 24680 P 3363.65 -5.75688 -6.64379 0
M  V30 24681 O 3365.07 -6.07627 -7.05504 0
M  V30 24682 O 3363.29 -5.88047 -5.19722 0
M  V30 24683 O 3363.33 -4.2322 -7.04443 0
M  V30 24684 C 3363.17 -3.99743 -8.4911 0
M  V30 24685 C 3363.71 -2.60516 -8.79425 0
M  V30 24686 O 3362.65 -1.82684 -8.4467 0
M  V30 24687 C 3364.92 -2.10343 -8.03628 0
M  V30 24688 O 3365.66 -1.09919 -8.67766 0
M  V30 24689 C 3364.26 -1.68446 -6.70876 0
M  V30 24690 O 3365.05 -0.678137 -6.08433 0
M  V30 24691 C 3362.92 -1.17436 -7.18567 0
M  V30 24692 H 3362.95 -0.0804732 -7.31656 0
M  V30 24693 H 3364.13 -2.54037 -6.02537 0
M  V30 24694 H 3365.62 -2.93881 -7.85526 0
M  V30 24695 H 3363.92 -2.53065 -9.86973 0
M  V30 24696 H 3363.73 -4.75072 -9.05887 0
M  V30 24697 H 3362.1 -4.05244 -8.76668 0
M  V30 24698 H 3364.74 0.177647 -6.34251 0
M  V30 24699 P 3366.6 -1.25109 -8.70152 0
M  V30 24700 O 3368.02 -1.29744 -9.22016 0
M  V30 24701 O 3366.24 -2.13714 -7.55141 0
M  V30 24702 O 3366.28 0.248149 -8.21425 0
M  V30 24703 C 3366.12 1.22779 -9.30434 0
M  V30 24704 C 3366.66 2.56293 -8.80664 0
M  V30 24705 O 3365.6 3.02979 -8.09349 0
M  V30 24706 C 3367.88 2.57523 -7.89775 0
M  V30 24707 O 3368.61 3.7668 -7.89438 0
M  V30 24708 C 3367.21 2.20997 -6.55446 0
M  V30 24709 O 3368.01 2.71895 -5.48509 0
M  V30 24710 C 3365.87 2.89693 -6.67988 0
M  V30 24711 H 3365.9 3.88793 -6.19859 0
M  V30 24712 H 3367.08 1.12046 -6.44229 0
M  V30 24713 H 3368.57 1.7746 -8.19711 0
M  V30 24714 H 3366.87 3.20706 -9.67112 0
M  V30 24715 H 3366.68 0.901032 -10.1892 0
M  V30 24716 H 3365.05 1.33049 -9.56592 0
M  V30 24717 H 3367.69 3.57847 -5.23962 0
M  V30 24718 P 3369.55 3.65191 -7.99657 0
M  V30 24719 O 3370.97 3.89332 -8.45794 0
M  V30 24720 O 3369.19 2.28472 -7.50807 0
M  V30 24721 O 3369.23 4.64972 -6.77611 0
M  V30 24722 C 3369.07 6.06319 -7.16352 0
M  V30 24723 C 3369.61 6.91731 -6.02299 0
M  V30 24724 O 3368.55 6.92449 -5.17064 0
M  V30 24725 C 3370.83 6.43627 -5.25174 0
M  V30 24726 O 3371.56 7.43686 -4.60469 0
M  V30 24727 C 3370.16 5.40275 -4.31916 0
M  V30 24728 O 3370.96 5.25279 -3.14438 0
M  V30 24729 C 3368.82 6.04847 -4.05327 0
M  V30 24730 H 3368.85 6.62195 -3.11261 0
M  V30 24731 H 3370.03 4.42556 -4.81383 0
M  V30 24732 H 3371.52 5.92458 -5.93643 0
M  V30 24733 H 3369.82 7.92655 -6.402 0
M  V30 24734 H 3369.63 6.26671 -8.0846 0
M  V30 24735 H 3368 6.29101 -7.32804 0
M  V30 24736 H 3370.64 5.84315 -2.47318 0
M  V30 24737 P 3372.5 7.39546 -4.75277 0
M  V30 24738 O 3373.92 7.84798 -5.01039 0
M  V30 24739 O 3372.14 5.9812 -5.08098 0
M  V30 24740 O 3372.18 7.57503 -3.1866 0
M  V30 24741 C 3372.02 8.97357 -2.74833 0
M  V30 24742 C 3372.56 9.07548 -1.32709 0
M  V30 24743 O 3371.5 8.62072 -0.606159 0
M  V30 24744 C 3373.78 8.25383 -0.938334 0
M  V30 24745 O 3374.51 8.74577 0.146954 0
M  V30 24746 C 3373.11 6.8802 -0.712559 0
M  V30 24747 O 3373.91 6.1189 0.194655 0
M  V30 24748 C 3371.77 7.27966 -0.139777 0
M  V30 24749 H 3371.8 7.25354 0.961601 0
M  V30 24750 H 3372.99 6.32557 -1.65702 0
M  V30 24751 H 3374.47 8.19355 -1.79097 0
M  V30 24752 H 3372.78 10.1294 -1.10029 0
M  V30 24753 H 3372.59 9.64276 -3.41316 0
M  V30 24754 H 3370.96 9.25417 -2.76357 0
M  V30 24755 H 3373.59 6.25267 1.07847 0
M  V30 24756 P 3375.45 8.791 -9.36698e-11 0
M  V30 24757 O 3376.87 9.31196 0.027936 0
M  V30 24758 O 3375.09 7.77869 -1.04071 0
M  V30 24759 O 3375.13 8.09533 1.41463 0
M  V30 24760 C 3374.97 9.03587 2.5397 0
M  V30 24761 C 3375.51 8.35226 3.79016 0
M  V30 24762 O 3374.45 7.57904 4.1503 0
M  V30 24763 C 3376.73 7.45087 3.67298 0
M  V30 24764 O 3377.47 7.27796 4.85194 0
M  V30 24765 C 3376.06 6.17323 3.12027 0
M  V30 24766 O 3376.86 5.04496 3.46627 0
M  V30 24767 C 3374.72 6.19961 3.81809 0
M  V30 24768 N 3373.68 5.71575 2.93223 0
M  V30 24769 C 3373.85 5.77362 1.59168 0
M  V30 24770 N 3372.82 5.3123 0.911893 0
M  V30 24771 C 3371.94 4.91717 1.89588 0
M  V30 24772 C 3370.67 4.3114 1.8076 0
M  V30 24773 N 3370.07 3.99821 0.632928 0
M  V30 24774 N 3370.1 4.06823 3.02898 0
M  V30 24775 C 3370.71 4.35062 4.22711 0
M  V30 24776 N 3371.88 4.90805 4.35707 0
M  V30 24777 C 3372.46 5.16382 3.14469 0
M  V30 24778 H 3374.75 5.58142 4.72986 0
M  V30 24779 H 3375.94 6.21428 2.0318 0
M  V30 24780 H 3377.42 7.86112 2.9231 0
M  V30 24781 H 3375.73 9.11171 4.55987 0
M  V30 24782 H 3375.54 9.9573 2.34194 0
M  V30 24783 H 3373.91 9.2792 2.67832 0
M  V30 24784 H 3370.17 4.09052 5.13359 0
M  V30 24785 H 3374.75 6.16575 1.12198 0
M  V30 24786 H 3369.14 3.55423 0.632085 0
M  V30 24787 H 3370.54 4.20317 -0.256712 0
M  V30 24788 H 3376.55 4.67628 4.28704 0
M  V30 24789 P 3378.4 7.39546 4.75277 0
M  V30 24790 O 3379.82 7.81777 5.05738 0
M  V30 24791 O 3378.04 7.1065 3.32998 0
M  V30 24792 O 3378.08 6.04542 5.56673 0
M  V30 24793 C 3377.92 6.22772 7.02095 0
M  V30 24794 C 3378.46 4.97725 7.70406 0
M  V30 24795 O 3377.4 4.13256 7.58987 0
M  V30 24796 C 3379.68 4.28231 7.11815 0
M  V30 24797 O 3380.42 3.49945 8.01648 0
M  V30 24798 C 3379.01 3.5063 5.96244 0
M  V30 24799 O 3379.81 2.36482 5.64681 0
M  V30 24800 C 3377.67 3.15122 6.56374 0
M  V30 24801 H 3377.7 2.13853 6.99751 0
M  V30 24802 H 3378.89 4.13501 5.06559 0
M  V30 24803 H 3380.37 5.03285 6.70911 0
M  V30 24804 H 3378.68 5.20877 8.75697 0
M  V30 24805 H 3378.49 7.11046 7.35349 0
M  V30 24806 H 3376.86 6.35815 7.26986 0
M  V30 24807 H 3379.5 1.61644 6.13565 0
M  V30 24808 P 3381.35 3.65191 7.99657 0
M  V30 24809 O 3382.78 3.8425 8.48115 0
M  V30 24810 O 3380.99 4.17805 6.64342 0
M  V30 24811 O 3381.03 2.07613 7.95143 0
M  V30 24812 C 3380.87 1.44328 9.27336 0
M  V30 24813 C 3381.41 0.0220036 9.17197 0
M  V30 24814 O 3380.35 -0.626867 8.61923 0
M  V30 24815 C 3382.63 -0.24586 8.30336 0
M  V30 24816 O 3383.37 -1.39011 8.63583 0
M  V30 24817 C 3381.96 -0.273849 6.91158 0
M  V30 24818 O 3382.76 -1.06348 6.02892 0
M  V30 24819 C 3380.62 -0.897649 7.22545 0
M  V30 24820 H 3380.65 -1.9841 7.04286 0
M  V30 24821 H 3381.84 0.739928 6.497 0
M  V30 24822 H 3383.32 0.60668 8.36503 0
M  V30 24823 H 3381.63 -0.352479 10.1829 0
M  V30 24824 H 3381.44 2.00611 10.0304 0
M  V30 24825 H 3379.81 1.41843 9.55327 0
M  V30 24826 H 3382.45 -1.95734 6.03555 0
M  V30 24827 P 3384.3 -1.25109 8.70152 0
M  V30 24828 O 3385.73 -1.35274 9.21221 0
M  V30 24829 O 3383.94 -0.0769065 7.84762 0
M  V30 24830 O 3383.98 -2.55232 7.81161 0
M  V30 24831 C 3383.82 -3.79939 8.58154 0
M  V30 24832 C 3384.36 -4.94023 7.72785 0
M  V30 24833 O 3383.3 -5.18726 6.91205 0
M  V30 24834 C 3385.58 -4.69597 6.85231 0
M  V30 24835 O 3386.32 -5.83832 6.51337 0
M  V30 24836 C 3384.91 -3.96706 5.66633 0
M  V30 24837 O 3385.71 -4.15414 4.49689 0
M  V30 24838 C 3383.57 -4.66153 5.59313 0
M  V30 24839 H 3383.6 -5.47679 4.85214 0
M  V30 24840 H 3384.79 -2.89008 5.86566 0
M  V30 24841 H 3386.27 -4.0121 7.36511 0
M  V30 24842 H 3384.58 -5.80182 8.37584 0
M  V30 24843 H 3384.39 -3.73517 9.52265 0
M  V30 24844 H 3382.76 -3.97163 8.80359 0
M  V30 24845 H 3385.4 -4.90969 4.01921 0
M  V30 24846 P 3387.25 -5.75688 6.64379 0
M  V30 24847 O 3388.68 -6.11849 7.01846 0
M  V30 24848 O 3386.89 -4.30744 6.56026 0
M  V30 24849 O 3386.93 -6.37042 5.19165 0
M  V30 24850 C 3386.77 -7.83578 5.16515 0
M  V30 24851 C 3387.31 -8.33398 3.83019 0
M  V30 24852 O 3386.26 -8.10074 3.01034 0
M  V30 24853 C 3388.53 -7.65514 3.2257 0
M  V30 24854 O 3389.27 -8.4329 2.32297 0
M  V30 24855 C 3387.86 -6.40075 2.62207 0
M  V30 24856 O 3388.66 -5.92589 1.53712 0
M  V30 24857 C 3386.52 -6.9454 2.18503 0
M  V30 24858 H 3386.56 -7.23063 1.12091 0
M  V30 24859 H 3387.74 -5.6025 3.37201 0
M  V30 24860 H 3389.22 -7.35707 4.02681 0
M  V30 24861 H 3387.53 -9.40912 3.9095 0
M  V30 24862 H 3387.34 -8.29056 5.99158 0
M  V30 24863 H 3385.71 -8.10073 5.25882 0
M  V30 24864 H 3388.35 -6.30324 0.726794 0
M  V30 24865 P 3390.2 -8.4349 2.47671 0
M  V30 24866 O 3391.63 -8.94167 2.5964 0
M  V30 24867 O 3389.84 -7.1704 3.19006 0
M  V30 24868 O 3389.88 -8.16596 0.923387 0
M  V30 24869 C 3389.72 -9.38437 0.108857 0
M  V30 24870 C 3390.26 -9.08175 -1.28353 0
M  V30 24871 O 3389.21 -8.44229 -1.84713 0
M  V30 24872 C 3391.48 -8.18386 -1.42505 0
M  V30 24873 O 3392.22 -8.3501 -2.60497 0
M  V30 24874 C 3390.81 -6.80225 -1.25468 0
M  V30 24875 O 3391.61 -5.81621 -1.91066 0
M  V30 24876 C 3389.47 -7.02416 -1.9168 0
M  V30 24877 H 3389.51 -6.6888 -2.96621 0
M  V30 24878 H 3390.69 -6.53617 -0.192223 0
M  V30 24879 H 3392.17 -8.36622 -0.589963 0
M  V30 24880 H 3390.48 -10.0291 -1.79807 0
M  V30 24881 H 3390.29 -10.2138 0.558219 0
M  V30 24882 H 3388.66 -9.6579 0.0444202 0
M  V30 24883 H 3391.3 -5.69556 -2.79637 0
M  V30 24884 P 3393.16 -8.4349 -2.47671 0
M  V30 24885 O 3394.58 -8.92593 -2.65 0
M  V30 24886 O 3392.8 -7.7568 -1.19296 0
M  V30 24887 O 3392.83 -7.36886 -3.63805 0
M  V30 24888 C 3392.67 -7.95349 -4.982 0
M  V30 24889 C 3393.21 -6.94612 -5.98974 0
M  V30 24890 O 3392.16 -6.10347 -6.11815 0
M  V30 24891 C 3394.43 -6.11426 -5.62335 0
M  V30 24892 O 3395.17 -5.6162 -6.70584 0
M  V30 24893 C 3393.76 -5.04409 -4.73308 0
M  V30 24894 O 3394.56 -3.85992 -4.75183 0
M  V30 24895 C 3392.42 -4.8728 -5.41006 0
M  V30 24896 H 3392.46 -4.02333 -6.11157 0
M  V30 24897 H 3393.64 -5.39466 -3.69543 0
M  V30 24898 H 3395.12 -6.71916 -5.01943 0
M  V30 24899 H 3393.43 -7.4649 -6.93477 0
M  V30 24900 H 3393.24 -8.89416 -5.05237 0
M  V30 24901 H 3391.61 -8.14876 -5.18409 0
M  V30 24902 H 3394.25 -3.27957 -5.4317 0
M  V30 24903 P 3396.11 -5.75688 -6.64379 0
M  V30 24904 O 3397.53 -6.07627 -7.05504 0
M  V30 24905 O 3395.75 -5.88047 -5.19722 0
M  V30 24906 O 3395.78 -4.2322 -7.04443 0
M  V30 24907 C 3395.62 -3.99743 -8.4911 0
M  V30 24908 C 3396.16 -2.60516 -8.79425 0
M  V30 24909 O 3395.11 -1.82684 -8.4467 0
M  V30 24910 C 3397.38 -2.10343 -8.03628 0
M  V30 24911 O 3398.12 -1.09919 -8.67766 0
M  V30 24912 C 3396.71 -1.68446 -6.70876 0
M  V30 24913 O 3397.51 -0.678137 -6.08433 0
M  V30 24914 C 3395.38 -1.17436 -7.18567 0
M  V30 24915 H 3395.41 -0.0804732 -7.31656 0
M  V30 24916 H 3396.59 -2.54037 -6.02537 0
M  V30 24917 H 3398.07 -2.93881 -7.85526 0
M  V30 24918 H 3396.38 -2.53065 -9.86973 0
M  V30 24919 H 3396.19 -4.75072 -9.05887 0
M  V30 24920 H 3394.56 -4.05244 -8.76668 0
M  V30 24921 H 3397.2 0.177647 -6.34251 0
M  V30 24922 P 3399.06 -1.25109 -8.70152 0
M  V30 24923 O 3400.48 -1.29744 -9.22016 0
M  V30 24924 O 3398.7 -2.13714 -7.55141 0
M  V30 24925 O 3398.73 0.248149 -8.21425 0
M  V30 24926 C 3398.57 1.22779 -9.30434 0
M  V30 24927 C 3399.11 2.56293 -8.80664 0
M  V30 24928 O 3398.06 3.02979 -8.09349 0
M  V30 24929 C 3400.33 2.57523 -7.89775 0
M  V30 24930 O 3401.07 3.7668 -7.89438 0
M  V30 24931 C 3399.66 2.20997 -6.55446 0
M  V30 24932 O 3400.46 2.71895 -5.48509 0
M  V30 24933 C 3398.33 2.89693 -6.67988 0
M  V30 24934 H 3398.36 3.88793 -6.19859 0
M  V30 24935 H 3399.54 1.12046 -6.44229 0
M  V30 24936 H 3401.02 1.7746 -8.19711 0
M  V30 24937 H 3399.33 3.20706 -9.67112 0
M  V30 24938 H 3399.14 0.901032 -10.1892 0
M  V30 24939 H 3397.51 1.33049 -9.56592 0
M  V30 24940 H 3400.15 3.57847 -5.23962 0
M  V30 24941 P 3402.01 3.65191 -7.99657 0
M  V30 24942 O 3403.43 3.89332 -8.45794 0
M  V30 24943 O 3401.65 2.28472 -7.50807 0
M  V30 24944 O 3401.68 4.64972 -6.77611 0
M  V30 24945 C 3401.52 6.06319 -7.16352 0
M  V30 24946 C 3402.06 6.91731 -6.02299 0
M  V30 24947 O 3401.01 6.92449 -5.17064 0
M  V30 24948 C 3403.28 6.43627 -5.25174 0
M  V30 24949 O 3404.02 7.43686 -4.60469 0
M  V30 24950 C 3402.61 5.40275 -4.31916 0
M  V30 24951 O 3403.41 5.25279 -3.14438 0
M  V30 24952 C 3401.28 6.04847 -4.05327 0
M  V30 24953 H 3401.31 6.62195 -3.11261 0
M  V30 24954 H 3402.49 4.42556 -4.81383 0
M  V30 24955 H 3403.98 5.92458 -5.93643 0
M  V30 24956 H 3402.28 7.92655 -6.402 0
M  V30 24957 H 3402.09 6.26671 -8.0846 0
M  V30 24958 H 3400.46 6.29101 -7.32804 0
M  V30 24959 H 3403.1 5.84315 -2.47318 0
M  V30 24960 P 3404.96 7.39546 -4.75277 0
M  V30 24961 O 3406.38 7.84798 -5.01039 0
M  V30 24962 O 3404.6 5.9812 -5.08098 0
M  V30 24963 O 3404.63 7.57503 -3.1866 0
M  V30 24964 C 3404.47 8.97357 -2.74833 0
M  V30 24965 C 3405.01 9.07548 -1.32709 0
M  V30 24966 O 3403.96 8.62072 -0.606159 0
M  V30 24967 C 3406.23 8.25383 -0.938334 0
M  V30 24968 O 3406.97 8.74577 0.146954 0
M  V30 24969 C 3405.56 6.8802 -0.712559 0
M  V30 24970 O 3406.36 6.1189 0.194655 0
M  V30 24971 C 3404.23 7.27966 -0.139777 0
M  V30 24972 H 3404.26 7.25354 0.961601 0
M  V30 24973 H 3405.44 6.32557 -1.65702 0
M  V30 24974 H 3406.93 8.19355 -1.79097 0
M  V30 24975 H 3405.23 10.1294 -1.10029 0
M  V30 24976 H 3405.04 9.64276 -3.41316 0
M  V30 24977 H 3403.41 9.25417 -2.76357 0
M  V30 24978 H 3406.05 6.25267 1.07847 0
M  V30 24979 P 3407.91 8.791 -9.88564e-11 0
M  V30 24980 O 3409.33 9.31096 0.027933 0
M  V30 24981 O 3407.55 7.77869 -1.04071 0
M  V30 24982 O 3407.59 8.09533 1.41463 0
M  V30 24983 C 3407.43 9.0349 2.53943 0
M  V30 24984 C 3407.97 8.35226 3.79016 0
M  V30 24985 O 3406.91 7.57992 4.15078 0
M  V30 24986 C 3409.18 7.45087 3.67298 0
M  V30 24987 O 3409.92 7.27796 4.85194 0
M  V30 24988 C 3408.51 6.17323 3.12027 0
M  V30 24989 O 3409.31 5.04231 3.47188 0
M  V30 24990 C 3407.18 6.19961 3.81809 0
M  V30 24991 H 3407.21 5.58218 4.73051 0
M  V30 24992 H 3408.39 6.21726 2.02589 0
M  V30 24993 H 3409.88 7.86112 2.9231 0
M  V30 24994 H 3408.18 9.11627 4.55076 0
M  V30 24995 H 3407.99 9.9573 2.34194 0
M  V30 24996 H 3406.36 9.2792 2.67832 0
M  V30 24997 H 3409 4.67702 4.28772 0
M  V30 24998 P 3410.86 7.39546 4.75277 0
M  V30 24999 O 3412.28 7.81777 5.05738 0
M  V30 25000 O 3410.5 7.1065 3.32998 0
M  V30 25001 O 3410.54 6.04542 5.56673 0
M  V30 25002 C 3410.38 6.22772 7.02095 0
M  V30 25003 C 3410.92 4.97725 7.70406 0
M  V30 25004 O 3409.86 4.13256 7.58987 0
M  V30 25005 C 3412.13 4.28231 7.11815 0
M  V30 25006 O 3412.87 3.49945 8.01648 0
M  V30 25007 C 3411.46 3.5063 5.96244 0
M  V30 25008 O 3412.26 2.36482 5.64681 0
M  V30 25009 C 3410.13 3.15122 6.56374 0
M  V30 25010 H 3410.16 2.13853 6.99751 0
M  V30 25011 H 3411.34 4.13501 5.06559 0
M  V30 25012 H 3412.83 5.03285 6.70911 0
M  V30 25013 H 3411.13 5.20877 8.75697 0
M  V30 25014 H 3410.94 7.11046 7.35349 0
M  V30 25015 H 3409.31 6.35815 7.26986 0
M  V30 25016 H 3411.95 1.61644 6.13565 0
M  V30 25017 P 3413.81 3.65191 7.99657 0
M  V30 25018 O 3415.23 3.8425 8.48115 0
M  V30 25019 O 3413.45 4.17805 6.64342 0
M  V30 25020 O 3413.49 2.07613 7.95143 0
M  V30 25021 C 3413.33 1.44328 9.27336 0
M  V30 25022 C 3413.87 0.0220036 9.17197 0
M  V30 25023 O 3412.81 -0.626867 8.61923 0
M  V30 25024 C 3415.08 -0.24586 8.30336 0
M  V30 25025 O 3415.82 -1.39011 8.63583 0
M  V30 25026 C 3414.42 -0.273849 6.91158 0
M  V30 25027 O 3415.21 -1.06348 6.02892 0
M  V30 25028 C 3413.08 -0.897649 7.22545 0
M  V30 25029 H 3413.11 -1.9841 7.04286 0
M  V30 25030 H 3414.29 0.739928 6.497 0
M  V30 25031 H 3415.78 0.60668 8.36503 0
M  V30 25032 H 3414.08 -0.352479 10.1829 0
M  V30 25033 H 3413.89 2.00611 10.0304 0
M  V30 25034 H 3412.26 1.41843 9.55327 0
M  V30 25035 H 3414.9 -1.95734 6.03555 0
M  V30 25036 P 3416.76 -1.25109 8.70152 0
M  V30 25037 O 3418.18 -1.35274 9.21221 0
M  V30 25038 O 3416.4 -0.0769065 7.84762 0
M  V30 25039 O 3416.44 -2.55232 7.81161 0
M  V30 25040 C 3416.28 -3.79939 8.58154 0
M  V30 25041 C 3416.82 -4.94023 7.72785 0
M  V30 25042 O 3415.76 -5.18726 6.91205 0
M  V30 25043 C 3418.04 -4.69597 6.85231 0
M  V30 25044 O 3418.77 -5.83832 6.51337 0
M  V30 25045 C 3417.37 -3.96706 5.66633 0
M  V30 25046 O 3418.17 -4.15414 4.49689 0
M  V30 25047 C 3416.03 -4.66153 5.59313 0
M  V30 25048 H 3416.06 -5.47679 4.85214 0
M  V30 25049 H 3417.24 -2.89008 5.86566 0
M  V30 25050 H 3418.73 -4.0121 7.36511 0
M  V30 25051 H 3417.03 -5.80182 8.37584 0
M  V30 25052 H 3416.84 -3.73517 9.52265 0
M  V30 25053 H 3415.21 -3.97163 8.80359 0
M  V30 25054 H 3417.85 -4.90969 4.01921 0
M  V30 25055 P 3419.71 -5.75688 6.64379 0
M  V30 25056 O 3421.13 -6.11849 7.01846 0
M  V30 25057 O 3419.35 -4.30744 6.56026 0
M  V30 25058 O 3419.39 -6.37042 5.19165 0
M  V30 25059 C 3419.23 -7.83578 5.16515 0
M  V30 25060 C 3419.77 -8.33398 3.83019 0
M  V30 25061 O 3418.71 -8.10074 3.01034 0
M  V30 25062 C 3420.99 -7.65514 3.2257 0
M  V30 25063 O 3421.72 -8.4329 2.32297 0
M  V30 25064 C 3420.32 -6.40075 2.62207 0
M  V30 25065 O 3421.12 -5.92589 1.53712 0
M  V30 25066 C 3418.98 -6.9454 2.18503 0
M  V30 25067 H 3419.01 -7.23063 1.12091 0
M  V30 25068 H 3420.19 -5.6025 3.37201 0
M  V30 25069 H 3421.68 -7.35707 4.02681 0
M  V30 25070 H 3419.98 -9.40912 3.9095 0
M  V30 25071 H 3419.79 -8.29056 5.99158 0
M  V30 25072 H 3418.16 -8.10073 5.25882 0
M  V30 25073 H 3420.8 -6.30324 0.726794 0
M  V30 25074 P 3422.66 -8.4349 2.47671 0
M  V30 25075 O 3424.08 -8.94167 2.5964 0
M  V30 25076 O 3422.3 -7.1704 3.19006 0
M  V30 25077 O 3422.34 -8.16596 0.923387 0
M  V30 25078 C 3422.18 -9.38437 0.108857 0
M  V30 25079 C 3422.72 -9.08175 -1.28353 0
M  V30 25080 O 3421.66 -8.44229 -1.84713 0
M  V30 25081 C 3423.94 -8.18386 -1.42505 0
M  V30 25082 O 3424.67 -8.3501 -2.60497 0
M  V30 25083 C 3423.27 -6.80225 -1.25468 0
M  V30 25084 O 3424.07 -5.81621 -1.91066 0
M  V30 25085 C 3421.93 -7.02416 -1.9168 0
M  V30 25086 H 3421.96 -6.6888 -2.96621 0
M  V30 25087 H 3423.15 -6.53617 -0.192223 0
M  V30 25088 H 3424.63 -8.36622 -0.589963 0
M  V30 25089 H 3422.94 -10.0291 -1.79807 0
M  V30 25090 H 3422.75 -10.2138 0.558219 0
M  V30 25091 H 3421.12 -9.6579 0.0444202 0
M  V30 25092 H 3423.75 -5.69556 -2.79637 0
M  V30 25093 P 3425.61 -8.4349 -2.47671 0
M  V30 25094 O 3427.03 -8.92785 -2.65057 0
M  V30 25095 O 3425.25 -7.7568 -1.19296 0
M  V30 25096 O 3425.29 -7.36886 -3.63805 0
M  V30 25097 C 3425.13 -7.95349 -4.982 0
M  V30 25098 C 3425.67 -6.94537 -5.98908 0
M  V30 25099 O 3424.61 -6.10347 -6.11815 0
M  V30 25100 C 3426.89 -6.11426 -5.62335 0
M  V30 25101 O 3427.62 -5.6162 -6.70584 0
M  V30 25102 C 3426.22 -5.04409 -4.73308 0
M  V30 25103 O 3427.02 -3.85929 -4.75106 0
M  V30 25104 C 3424.88 -4.8728 -5.41006 0
M  V30 25105 N 3423.84 -4.65812 -4.42377 0
M  V30 25106 C 3423.9 -5.27109 -3.24335 0
M  V30 25107 N 3422.85 -4.94293 -2.47735 0
M  V30 25108 C 3422.12 -4.1271 -3.23359 0
M  V30 25109 C 3420.81 -3.56384 -2.99934 0
M  V30 25110 O 3420.08 -3.69331 -2.00616 0
M  V30 25111 N 3420.38 -2.80206 -4.03316 0
M  V30 25112 C 3421.13 -2.58614 -5.2172 0
M  V30 25113 N 3420.54 -1.75154 -6.13278 0
M  V30 25114 N 3422.29 -3.13689 -5.47619 0
M  V30 25115 C 3422.74 -3.90921 -4.46436 0
M  V30 25116 H 3424.91 -4.02333 -6.11157 0
M  V30 25117 H 3426.1 -5.39383 -3.69487 0
M  V30 25118 H 3427.58 -6.71414 -5.02615 0
M  V30 25119 H 3425.89 -7.4649 -6.93477 0
M  V30 25120 H 3425.7 -8.89416 -5.05237 0
M  V30 25121 H 3424.06 -8.14876 -5.18409 0
M  V30 25122 H 3419.49 -2.36355 -3.95916 0
M  V30 25123 H 3424.7 -5.95212 -2.93859 0
M  V30 25124 H 3419.63 -1.32473 -5.91856 0
M  V30 25125 H 3421 -1.5588 -7.03026 0
M  V30 25126 H 3426.71 -3.27906 -5.43085 0
M  V30 25127 P 3428.56 -5.75688 -6.64379 0
M  V30 25128 O 3429.98 -6.07627 -7.05504 0
M  V30 25129 O 3428.2 -5.88047 -5.19722 0
M  V30 25130 O 3428.24 -4.2322 -7.04443 0
M  V30 25131 C 3428.08 -3.99743 -8.4911 0
M  V30 25132 C 3428.62 -2.60516 -8.79425 0
M  V30 25133 O 3427.56 -1.82684 -8.4467 0
M  V30 25134 C 3429.84 -2.10343 -8.03628 0
M  V30 25135 O 3430.58 -1.09919 -8.67766 0
M  V30 25136 C 3429.17 -1.68446 -6.70876 0
M  V30 25137 O 3429.97 -0.678137 -6.08433 0
M  V30 25138 C 3427.83 -1.17436 -7.18567 0
M  V30 25139 H 3427.86 -0.0804732 -7.31656 0
M  V30 25140 H 3429.05 -2.54037 -6.02537 0
M  V30 25141 H 3430.53 -2.93881 -7.85526 0
M  V30 25142 H 3428.84 -2.53065 -9.86973 0
M  V30 25143 H 3428.65 -4.75072 -9.05887 0
M  V30 25144 H 3427.02 -4.05244 -8.76668 0
M  V30 25145 H 3429.66 0.177647 -6.34251 0
M  V30 25146 P 3431.51 -1.25109 -8.70152 0
M  V30 25147 O 3432.93 -1.29758 -9.22115 0
M  V30 25148 O 3431.15 -2.13714 -7.55141 0
M  V30 25149 O 3431.19 0.248149 -8.21425 0
M  V30 25150 C 3431.03 1.22792 -9.30533 0
M  V30 25151 C 3431.57 2.56293 -8.80664 0
M  V30 25152 O 3430.51 3.02944 -8.09255 0
M  V30 25153 C 3432.79 2.57523 -7.89775 0
M  V30 25154 O 3433.53 3.7668 -7.89438 0
M  V30 25155 C 3432.12 2.20997 -6.55446 0
M  V30 25156 O 3432.92 2.71302 -5.48691 0
M  V30 25157 C 3430.78 2.89693 -6.67988 0
M  V30 25158 N 3429.74 2.08895 -6.07487 0
M  V30 25159 C 3429.91 0.753809 -5.94137 0
M  V30 25160 N 3428.88 0.146592 -5.38801 0
M  V30 25161 C 3428 1.1768 -5.13693 0
M  V30 25162 C 3426.73 1.17563 -4.52477 0
M  V30 25163 N 3426.16 2.41918 -4.45789 0
M  V30 25164 C 3426.77 3.56493 -4.90792 0
M  V30 25165 N 3427.94 3.61423 -5.47817 0
M  V30 25166 C 3428.52 2.37779 -5.5588 0
M  V30 25167 H 3432 1.12673 -6.44018 0
M  V30 25168 H 3433.48 1.7746 -8.19711 0
M  V30 25169 H 3431.79 3.21673 -9.66791 0
M  V30 25170 H 3431.6 0.901032 -10.1892 0
M  V30 25171 H 3429.97 1.33049 -9.56592 0
M  V30 25172 H 3430.81 0.233081 -6.26266 0
M  V30 25173 H 3432.61 3.5779 -5.23879 0
M  V30 25174 P 3434.46 3.65191 -7.99657 0
M  V30 25175 O 3435.89 3.89332 -8.45794 0
M  V30 25176 O 3434.1 2.28472 -7.50807 0
M  V30 25177 O 3434.14 4.64972 -6.77611 0
M  V30 25178 C 3433.98 6.06319 -7.16352 0
M  V30 25179 C 3434.52 6.91731 -6.02299 0
M  V30 25180 O 3433.46 6.92449 -5.17064 0
M  V30 25181 C 3435.74 6.43627 -5.25174 0
M  V30 25182 O 3436.48 7.43686 -4.60469 0
M  V30 25183 C 3435.07 5.40275 -4.31916 0
M  V30 25184 O 3435.87 5.25279 -3.14438 0
M  V30 25185 C 3433.73 6.04847 -4.05327 0
M  V30 25186 H 3433.76 6.62195 -3.11261 0
M  V30 25187 H 3434.95 4.42556 -4.81383 0
M  V30 25188 H 3436.43 5.92458 -5.93643 0
M  V30 25189 H 3434.74 7.92655 -6.402 0
M  V30 25190 H 3434.55 6.26671 -8.0846 0
M  V30 25191 H 3432.92 6.29101 -7.32804 0
M  V30 25192 H 3435.56 5.84315 -2.47318 0
M  V30 25193 P 3437.41 7.39546 -4.75277 0
M  V30 25194 O 3438.84 7.84798 -5.01039 0
M  V30 25195 O 3437.05 5.9812 -5.08098 0
M  V30 25196 O 3437.09 7.57503 -3.1866 0
M  V30 25197 C 3436.93 8.97357 -2.74833 0
M  V30 25198 C 3437.47 9.07548 -1.32709 0
M  V30 25199 O 3436.42 8.62072 -0.606159 0
M  V30 25200 C 3438.69 8.25383 -0.938334 0
M  V30 25201 O 3439.43 8.74577 0.146954 0
M  V30 25202 C 3438.02 6.8802 -0.712559 0
M  V30 25203 O 3438.82 6.1189 0.194655 0
M  V30 25204 C 3436.68 7.27966 -0.139777 0
M  V30 25205 H 3436.72 7.25354 0.961601 0
M  V30 25206 H 3437.9 6.32557 -1.65702 0
M  V30 25207 H 3439.38 8.19355 -1.79097 0
M  V30 25208 H 3437.69 10.1294 -1.10029 0
M  V30 25209 H 3437.5 9.64276 -3.41316 0
M  V30 25210 H 3435.87 9.25417 -2.76357 0
M  V30 25211 H 3438.51 6.25267 1.07847 0
M  V30 25212 P 3440.36 8.791 -1.04043e-10 0
M  V30 25213 O 3441.79 9.31096 0.027933 0
M  V30 25214 O 3440 7.77869 -1.04071 0
M  V30 25215 O 3440.04 8.09533 1.41463 0
M  V30 25216 C 3439.88 9.0349 2.53943 0
M  V30 25217 C 3440.42 8.35226 3.79016 0
M  V30 25218 O 3439.37 7.57992 4.15078 0
M  V30 25219 C 3441.64 7.45087 3.67298 0
M  V30 25220 O 3442.38 7.27796 4.85194 0
M  V30 25221 C 3440.97 6.17323 3.12027 0
M  V30 25222 O 3441.77 5.04231 3.47188 0
M  V30 25223 C 3439.63 6.19961 3.81809 0
M  V30 25224 H 3439.67 5.58218 4.73051 0
M  V30 25225 H 3440.85 6.21726 2.02589 0
M  V30 25226 H 3442.33 7.86112 2.9231 0
M  V30 25227 H 3440.64 9.11627 4.55076 0
M  V30 25228 H 3440.45 9.9573 2.34194 0
M  V30 25229 H 3438.82 9.2792 2.67832 0
M  V30 25230 H 3441.46 4.67702 4.28772 0
M  V30 25231 P 3443.32 7.39546 4.75277 0
M  V30 25232 O 3444.74 7.81945 5.05847 0
M  V30 25233 O 3442.96 7.1065 3.32998 0
M  V30 25234 O 3442.99 6.04542 5.56673 0
M  V30 25235 C 3442.83 6.22772 7.02095 0
M  V30 25236 C 3443.37 4.97671 7.70322 0
M  V30 25237 O 3442.32 4.13256 7.58987 0
M  V30 25238 C 3444.59 4.28231 7.11815 0
M  V30 25239 O 3445.33 3.49945 8.01648 0
M  V30 25240 C 3443.92 3.5063 5.96244 0
M  V30 25241 O 3444.72 2.36443 5.64589 0
M  V30 25242 C 3442.58 3.15122 6.56374 0
M  V30 25243 N 3441.54 3.22311 5.55692 0
M  V30 25244 C 3441.6 4.14382 4.59701 0
M  V30 25245 N 3440.56 4.04476 3.76958 0
M  V30 25246 C 3439.82 3.04892 4.26534 0
M  V30 25247 C 3438.52 2.57447 3.88189 0
M  V30 25248 O 3437.79 2.9785 2.96543 0
M  V30 25249 N 3438.09 1.55228 4.65922 0
M  V30 25250 C 3438.84 1.01152 5.73447 0
M  V30 25251 N 3438.24 -0.0472117 6.37783 0
M  V30 25252 N 3439.99 1.467 6.13813 0
M  V30 25253 C 3440.45 2.4931 5.38487 0
M  V30 25254 H 3442.62 2.13853 6.99751 0
M  V30 25255 H 3443.8 4.13438 5.06482 0
M  V30 25256 H 3445.28 5.02614 6.71414 0
M  V30 25257 H 3443.59 5.20877 8.75697 0
M  V30 25258 H 3443.4 7.11046 7.35349 0
M  V30 25259 H 3441.77 6.35815 7.26986 0
M  V30 25260 H 3437.19 1.15238 4.46468 0
M  V30 25261 H 3442.4 4.88312 4.49647 0
M  V30 25262 H 3437.33 -0.396382 6.05203 0
M  V30 25263 H 3438.71 -0.484997 7.18465 0
M  V30 25264 H 3444.41 1.61619 6.13468 0
M  V30 25265 P 3446.27 3.65191 7.99657 0
M  V30 25266 O 3447.69 3.8425 8.48115 0
M  V30 25267 O 3445.91 4.17805 6.64342 0
M  V30 25268 O 3445.94 2.07613 7.95143 0
M  V30 25269 C 3445.78 1.44328 9.27336 0
M  V30 25270 C 3446.32 0.0220036 9.17197 0
M  V30 25271 O 3445.27 -0.626867 8.61923 0
M  V30 25272 C 3447.54 -0.24586 8.30336 0
M  V30 25273 O 3448.28 -1.39011 8.63583 0
M  V30 25274 C 3446.87 -0.273849 6.91158 0
M  V30 25275 O 3447.67 -1.06348 6.02892 0
M  V30 25276 C 3445.53 -0.897649 7.22545 0
M  V30 25277 H 3445.57 -1.9841 7.04286 0
M  V30 25278 H 3446.75 0.739928 6.497 0
M  V30 25279 H 3448.23 0.60668 8.36503 0
M  V30 25280 H 3446.54 -0.352479 10.1829 0
M  V30 25281 H 3446.35 2.00611 10.0304 0
M  V30 25282 H 3444.72 1.41843 9.55327 0
M  V30 25283 H 3447.36 -1.95734 6.03555 0
M  V30 25284 P 3449.22 -1.25109 8.70152 0
M  V30 25285 O 3450.64 -1.35274 9.21221 0
M  V30 25286 O 3448.86 -0.0769065 7.84762 0
M  V30 25287 O 3448.89 -2.55232 7.81161 0
M  V30 25288 C 3448.73 -3.79939 8.58154 0
M  V30 25289 C 3449.27 -4.94023 7.72785 0
M  V30 25290 O 3448.22 -5.18726 6.91205 0
M  V30 25291 C 3450.49 -4.69597 6.85231 0
M  V30 25292 O 3451.23 -5.83832 6.51337 0
M  V30 25293 C 3449.82 -3.96706 5.66633 0
M  V30 25294 O 3450.62 -4.15414 4.49689 0
M  V30 25295 C 3448.49 -4.66153 5.59313 0
M  V30 25296 H 3448.52 -5.47679 4.85214 0
M  V30 25297 H 3449.7 -2.89008 5.86566 0
M  V30 25298 H 3451.18 -4.0121 7.36511 0
M  V30 25299 H 3449.49 -5.80182 8.37584 0
M  V30 25300 H 3449.3 -3.73517 9.52265 0
M  V30 25301 H 3447.67 -3.97163 8.80359 0
M  V30 25302 H 3450.31 -4.90969 4.01921 0
M  V30 25303 P 3452.17 -5.75688 6.64379 0
M  V30 25304 O 3453.59 -6.11849 7.01846 0
M  V30 25305 O 3451.81 -4.30744 6.56026 0
M  V30 25306 O 3451.84 -6.37042 5.19165 0
M  V30 25307 C 3451.68 -7.83578 5.16515 0
M  V30 25308 C 3452.22 -8.33398 3.83019 0
M  V30 25309 O 3451.17 -8.10074 3.01034 0
M  V30 25310 C 3453.44 -7.65514 3.2257 0
M  V30 25311 O 3454.18 -8.4329 2.32297 0
M  V30 25312 C 3452.77 -6.40075 2.62207 0
M  V30 25313 O 3453.57 -5.92589 1.53712 0
M  V30 25314 C 3451.44 -6.9454 2.18503 0
M  V30 25315 H 3451.47 -7.23063 1.12091 0
M  V30 25316 H 3452.65 -5.6025 3.37201 0
M  V30 25317 H 3454.13 -7.35707 4.02681 0
M  V30 25318 H 3452.44 -9.40912 3.9095 0
M  V30 25319 H 3452.25 -8.29056 5.99158 0
M  V30 25320 H 3450.62 -8.10073 5.25882 0
M  V30 25321 H 3453.26 -6.30324 0.726794 0
M  V30 25322 P 3455.12 -8.4349 2.47671 0
M  V30 25323 O 3456.54 -8.94167 2.5964 0
M  V30 25324 O 3454.76 -7.1704 3.19006 0
M  V30 25325 O 3454.79 -8.16596 0.923387 0
M  V30 25326 C 3454.63 -9.38437 0.108857 0
M  V30 25327 C 3455.17 -9.08175 -1.28353 0
M  V30 25328 O 3454.12 -8.44229 -1.84713 0
M  V30 25329 C 3456.39 -8.18386 -1.42505 0
M  V30 25330 O 3457.13 -8.3501 -2.60497 0
M  V30 25331 C 3455.72 -6.80225 -1.25468 0
M  V30 25332 O 3456.52 -5.81621 -1.91066 0
M  V30 25333 C 3454.39 -7.02416 -1.9168 0
M  V30 25334 H 3454.42 -6.6888 -2.96621 0
M  V30 25335 H 3455.6 -6.53617 -0.192223 0
M  V30 25336 H 3457.09 -8.36622 -0.589963 0
M  V30 25337 H 3455.39 -10.0291 -1.79807 0
M  V30 25338 H 3455.2 -10.2138 0.558219 0
M  V30 25339 H 3453.57 -9.6579 0.0444202 0
M  V30 25340 H 3456.21 -5.69556 -2.79637 0
M  V30 25341 P 3458.07 -8.4349 -2.47671 0
M  V30 25342 O 3459.47 -8.99283 -2.62101 0
M  V30 25343 O 3457.69 -7.81195 -1.16947 0
M  V30 25344 O 3457.75 -7.36797 -3.63761 0
M  V30 25345 C 3457.59 -7.95349 -4.982 0
M  V30 25346 C 3458.13 -6.94537 -5.98908 0
M  V30 25347 O 3457.07 -6.10277 -6.11744 0
M  V30 25348 C 3459.34 -6.11426 -5.62335 0
M  V30 25349 O 3460.08 -5.6162 -6.70584 0
M  V30 25350 C 3458.68 -5.04409 -4.73308 0
M  V30 25351 O 3459.47 -3.85929 -4.75106 0
M  V30 25352 C 3457.34 -4.8728 -5.41006 0
M  V30 25353 N 3456.29 -4.65812 -4.42377 0
M  V30 25354 C 3455.26 -3.81293 -4.74224 0
M  V30 25355 O 3455.3 -3.20533 -5.83679 0
M  V30 25356 N 3454.25 -3.6442 -3.86349 0
M  V30 25357 C 3454.3 -4.2728 -2.6824 0
M  V30 25358 C 3455.39 -5.10813 -2.3217 0
M  V30 25359 C 3456.36 -5.27909 -3.22647 0
M  V30 25360 H 3457.37 -4.02278 -6.11074 0
M  V30 25361 H 3458.55 -5.39013 -3.70026 0
M  V30 25362 H 3460.04 -6.71494 -5.02675 0
M  V30 25363 H 3458.34 -7.45796 -6.94223 0
M  V30 25364 H 3458.15 -8.89416 -5.05237 0
M  V30 25365 H 3456.52 -8.14791 -5.18355 0
M  V30 25366 H 3455.44 -5.58884 -1.34755 0
M  V30 25367 H 3457.2 -5.92811 -2.9934 0
M  V30 25368 H 3459.26 -3.3454 -5.51577 0
M  V30 25369 P 3461.02 -5.75688 -6.64379 0
M  V30 25370 O 3462.44 -6.07627 -7.05504 0
M  V30 25371 O 3460.66 -5.88047 -5.19722 0
M  V30 25372 O 3460.7 -4.2322 -7.04443 0
M  V30 25373 C 3460.54 -3.99743 -8.4911 0
M  V30 25374 C 3461.08 -2.60516 -8.79425 0
M  V30 25375 O 3460.02 -1.82684 -8.4467 0
M  V30 25376 C 3462.29 -2.10343 -8.03628 0
M  V30 25377 O 3463.03 -1.09919 -8.67766 0
M  V30 25378 C 3461.62 -1.68446 -6.70876 0
M  V30 25379 O 3462.42 -0.678137 -6.08433 0
M  V30 25380 C 3460.29 -1.17436 -7.18567 0
M  V30 25381 H 3460.32 -0.0804732 -7.31656 0
M  V30 25382 H 3461.5 -2.54037 -6.02537 0
M  V30 25383 H 3462.99 -2.93881 -7.85526 0
M  V30 25384 H 3461.29 -2.53065 -9.86973 0
M  V30 25385 H 3461.1 -4.75072 -9.05887 0
M  V30 25386 H 3459.47 -4.05244 -8.76668 0
M  V30 25387 H 3462.11 0.177647 -6.34251 0
M  V30 25388 P 3463.97 -1.25109 -8.70152 0
M  V30 25389 O 3465.39 -1.29744 -9.22016 0
M  V30 25390 O 3463.61 -2.13714 -7.55141 0
M  V30 25391 O 3463.65 0.248149 -8.21425 0
M  V30 25392 C 3463.49 1.22779 -9.30434 0
M  V30 25393 C 3464.03 2.56293 -8.80664 0
M  V30 25394 O 3462.97 3.02979 -8.09349 0
M  V30 25395 C 3465.24 2.57523 -7.89775 0
M  V30 25396 O 3465.98 3.7668 -7.89438 0
M  V30 25397 C 3464.58 2.20997 -6.55446 0
M  V30 25398 O 3465.37 2.71895 -5.48509 0
M  V30 25399 C 3463.24 2.89693 -6.67988 0
M  V30 25400 H 3463.27 3.88793 -6.19859 0
M  V30 25401 H 3464.45 1.12046 -6.44229 0
M  V30 25402 H 3465.94 1.7746 -8.19711 0
M  V30 25403 H 3464.24 3.20706 -9.67112 0
M  V30 25404 H 3464.05 0.901032 -10.1892 0
M  V30 25405 H 3462.42 1.33049 -9.56592 0
M  V30 25406 H 3465.06 3.57847 -5.23962 0
M  V30 25407 P 3466.92 3.65191 -7.99657 0
M  V30 25408 O 3468.34 3.89332 -8.45794 0
M  V30 25409 O 3466.56 2.28472 -7.50807 0
M  V30 25410 O 3466.6 4.64972 -6.77611 0
M  V30 25411 C 3466.44 6.06319 -7.16352 0
M  V30 25412 C 3466.98 6.91731 -6.02299 0
M  V30 25413 O 3465.92 6.92449 -5.17064 0
M  V30 25414 C 3468.19 6.43627 -5.25174 0
M  V30 25415 O 3468.93 7.43686 -4.60469 0
M  V30 25416 C 3467.53 5.40275 -4.31916 0
M  V30 25417 O 3468.32 5.25279 -3.14438 0
M  V30 25418 C 3466.19 6.04847 -4.05327 0
M  V30 25419 H 3466.22 6.62195 -3.11261 0
M  V30 25420 H 3467.4 4.42556 -4.81383 0
M  V30 25421 H 3468.89 5.92458 -5.93643 0
M  V30 25422 H 3467.19 7.92655 -6.402 0
M  V30 25423 H 3467 6.26671 -8.0846 0
M  V30 25424 H 3465.37 6.29101 -7.32804 0
M  V30 25425 H 3468.01 5.84315 -2.47318 0
M  V30 25426 H 3470.57 6.91484 -4.48503 0
M  V30 END ATOM
M  V30 BEGIN BOND
M  V30 END BOND
M  V30 END CTAB
M  END
$$$$
