drugbank_target|P35243 Recoverin (DB08231)
 OpenBabel12092120493D

  0  0  0     0  0            999 V3000
M  V30 BEGIN CTAB
M  V30 COUNTS 3238 3271 0 0 0
M  V30 BEGIN ATOM
M  V30 1 H -0.908 1.98254 -0.117106 0
M  V30 2 N 0 1.576 0 0
M  V30 3 C 0.933 2.03868 1.02534 0
M  V30 4 C 1.911 0.928543 1.3348 0
M  V30 5 O 3.095 1.19667 1.45644 0
M  V30 6 C 0.222 2.43627 2.35294 0
M  V30 7 C -0.732 3.65373 2.2001 0
M  V30 8 S 0.101 5.13292 1.52614 0
M  V30 9 C 1.257 5.56322 2.86805 0
M  V30 10 H 1.49 2.90518 0.631377 0
M  V30 11 H -0.977 1.52953 0.210867 0
M  V30 12 H 0.981 2.67203 3.11629 0
M  V30 13 H -0.358 1.57376 2.7183 0
M  V30 14 H -1.165 3.90944 3.18086 0
M  V30 15 H -1.563 3.418 1.51819 0
M  V30 16 H 0.729 5.58782 3.83104 0
M  V30 17 H 1.672 6.56266 2.65933 0
M  V30 18 H 2.08 4.83886 2.90714 0
M  V30 19 N 1.4781 -0.272755 1.55222 0
M  V30 20 C 2.7261 -1.00234 1.75492 0
M  V30 21 C 3.0471 -1.8681 0.5592 0
M  V30 22 O 2.3171 -1.91215 -0.425882 0
M  V30 23 H 0.8971 -0.373076 0.647166 0
M  V30 24 H 3.5591 -0.296926 1.92625 0
M  V30 25 H 2.6551 -1.63913 2.65592 0
M  V30 26 N 2.9562 -1.48159 -0.537278 0
M  V30 27 C 3.9042 -1.62573 -1.66352 0
M  V30 28 C 4.8982 -0.492366 -1.62087 0
M  V30 29 O 6.1042 -0.670847 -1.67032 0
M  V30 30 H 2.4792 -0.511992 -0.550789 0
M  V30 31 H 4.4502 -2.57176 -1.51337 0
M  V30 32 C 3.1992 -1.67583 -3.04649 0
M  V30 33 H 2.5222 -2.54151 -3.08622 0
M  V30 34 H 3.9622 -1.81713 -3.83088 0
M  V30 35 C 2.4212 -0.413039 -3.34358 0
M  V30 36 O 2.9512 0.477259 -3.98855 0
M  V30 37 N 1.1572 -0.286961 -2.8918 0
M  V30 38 H 0.7042 -1.01241 -2.36871 0
M  V30 39 H 0.6622 0.556963 -3.09427 0
M  V30 40 N 4.4343 0.785586 -1.36625 0
M  V30 41 C 5.6593 1.57963 -1.34397 0
M  V30 42 C 6.0843 1.87964 0.071526 0
M  V30 43 O 5.4423 1.48182 1.0446 0
M  V30 44 C 5.4903 2.87511 -2.17646 0
M  V30 45 O 4.5943 3.81281 -1.57158 0
M  V30 46 H 3.9353 0.479014 -0.459828 0
M  V30 47 H 6.4653 0.973411 -1.79961 0
M  V30 48 H 6.4753 3.36745 -2.30362 0
M  V30 49 H 5.1503 2.65002 -3.20541 0
M  V30 50 H 3.7273 3.39885 -1.53403 0
M  V30 51 N 5.9124 1.20967 1.01018 0
M  V30 52 C 6.8594 0.964281 2.09691 0
M  V30 53 C 7.8294 -0.107853 1.65749 0
M  V30 54 O 9.0144 0.0381987 1.90762 0
M  V30 55 C 6.1544 0.52943 3.41015 0
M  V30 56 C 5.2674 1.67043 3.98398 0
M  V30 57 C 4.4024 1.18525 5.17808 0
M  V30 58 C 3.4414 2.29892 5.67288 0
M  V30 59 N 2.5784 1.82546 6.77954 0
M  V30 60 H 7.4184 1.89463 2.30017 0
M  V30 61 H 4.9554 0.944289 1.1279 0
M  V30 62 H 6.9134 0.258588 4.16398 0
M  V30 63 H 5.5434 -0.363919 3.20742 0
M  V30 64 H 4.5954 2.05603 3.20049 0
M  V30 65 H 5.9074 2.50877 4.31117 0
M  V30 66 H 5.0614 0.870762 6.00419 0
M  V30 67 H 3.8004 0.316887 4.86669 0
M  V30 68 H 2.8054 2.6215 4.83278 0
M  V30 69 H 4.0304 3.17216 6.00459 0
M  V30 70 H 1.9764 0.980454 6.48632 0
M  V30 71 H 1.8934 2.59956 7.09901 0
M  V30 72 H 3.1614 1.54115 7.64113 0
M  V30 73 N 7.3905 -1.2043 1.01659 0
M  V30 74 C 8.6155 -1.94318 0.724942 0
M  V30 75 C 9.0405 -1.74266 -0.708034 0
M  V30 76 O 8.3985 -1.03694 -1.48719 0
M  V30 77 C 8.4465 -3.44486 1.06591 0
M  V30 78 O 7.5505 -4.12017 0.177599 0
M  V30 79 H 6.8915 -0.60708 0.26898 0
M  V30 80 H 9.4215 -1.52861 1.35995 0
M  V30 81 H 9.4315 -3.95106 1.01762 0
M  V30 82 H 8.1065 -3.58404 2.10997 0
M  V30 83 H 6.6835 -3.71821 0.283421 0
M  V30 84 N 8.8686 -0.792821 -1.36206 0
M  V30 85 C 10.1166 -0.366062 -1.98757 0
M  V30 86 C 10.4376 1.0668 -1.63231 0
M  V30 87 O 9.7076 1.73587 -0.907978 0
M  V30 88 H 8.2876 -0.132364 -0.735179 0
M  V30 89 H 10.9496 -1.01562 -1.66347 0
M  V30 90 H 10.0456 -0.460638 -3.08682 0
M  V30 91 N 10.3467 1.47872 -0.545128 0
M  V30 92 C 11.3097 2.28337 0.198717 0
M  V30 93 C 12.3097 1.36255 0.853888 0
M  V30 94 O 13.4997 1.59003 0.711606 0
M  V30 95 C 10.6317 3.15585 1.28915 0
M  V30 96 H 11.8247 2.95567 -0.507941 0
M  V30 97 H 9.3777 1.53362 -0.301616 0
M  V30 98 H 10.1127 2.53019 2.02859 0
M  V30 99 H 9.8977 3.83337 0.824309 0
M  V30 100 H 11.3877 3.76243 1.81194 0
M  V30 101 N 11.8248 0.280983 1.55075 0
M  V30 102 C 12.7548 -0.597469 2.25727 0
M  V30 103 C 13.7358 -1.15417 1.24952 0
M  V30 104 O 14.9208 -1.18722 1.53684 0
M  V30 105 C 12.0508 -1.7789 2.98283 0
M  V30 106 C 11.0048 -1.35347 4.06036 0
M  V30 107 C 10.3308 -2.61846 4.66198 0
M  V30 108 C 11.6308 -0.499354 5.19907 0
M  V30 109 H 13.3248 -0.00824265 2.99399 0
M  V30 110 H 10.8708 -0.0025244 1.44 0
M  V30 111 H 12.8238 -2.39937 3.46422 0
M  V30 112 H 11.5478 -2.39405 2.22155 0
M  V30 113 H 10.2068 -0.756156 3.58717 0
M  V30 114 H 9.8548 -3.21632 3.86732 0
M  V30 115 H 9.5548 -2.3409 5.38958 0
M  V30 116 H 11.0788 -3.24732 5.1709 0
M  V30 117 H 12.4928 -1.02498 5.64063 0
M  V30 118 H 10.8898 -0.316424 5.99265 0
M  V30 119 H 11.9598 0.480459 4.82514 0
M  V30 120 N 13.3029 -1.57598 0.00835791 0
M  V30 121 C 14.5279 -1.95617 -0.689103 0
M  V30 122 C 14.9529 -0.883753 -1.66046 0
M  V30 123 O 14.3109 0.157352 -1.80616 0
M  V30 124 C 14.3589 -3.32736 -1.38994 0
M  V30 125 O 13.4629 -3.27631 -2.50463 0
M  V30 126 H 12.8039 -0.638379 -0.182668 0
M  V30 127 H 15.3339 -2.045 0.064036 0
M  V30 128 H 15.3439 -3.68494 -1.75147 0
M  V30 129 H 14.0189 -4.1034 -0.677778 0
M  V30 130 H 12.5959 -3.03561 -2.16576 0
M  V30 131 N 14.781 0.264519 -1.55364 0
M  V30 132 C 15.728 1.32717 -1.88825 0
M  V30 133 C 16.698 1.48675 -0.740605 0
M  V30 134 O 17.883 1.62945 -0.992657 0
M  V30 135 C 15.023 2.68089 -2.17307 0
M  V30 136 C 14.136 2.60284 -3.44785 0
M  V30 137 C 13.271 3.87892 -3.62924 0
M  V30 138 C 12.31 3.74631 -4.84064 0
M  V30 139 N 11.447 4.94092 -4.98816 0
M  V30 140 H 16.287 1.03481 -2.79456 0
M  V30 141 H 13.824 0.499757 -1.3835 0
M  V30 142 H 15.782 3.46864 -2.31821 0
M  V30 143 H 14.412 2.95509 -1.299 0
M  V30 144 H 13.464 1.73173 -3.38697 0
M  V30 145 H 14.776 2.46388 -4.33698 0
M  V30 146 H 13.93 4.75109 -3.77302 0
M  V30 147 H 12.669 4.04664 -2.7221 0
M  V30 148 H 11.674 2.85797 -4.69681 0
M  V30 149 H 12.899 3.5937 -5.76221 0
M  V30 150 H 10.845 5.11259 -4.11036 0
M  V30 151 H 10.762 4.8276 -5.81789 0
M  V30 152 H 12.03 5.82857 -5.17588 0
M  V30 153 N 16.2591 1.48442 0.529413 0
M  V30 154 C 17.1691 1.6569 1.66084 0
M  V30 155 C 18.1851 0.539432 1.65427 0
M  V30 156 O 19.3611 0.810572 1.84368 0
M  V30 157 C 16.4261 1.69315 3.02545 0
M  V30 158 C 15.4871 2.92694 3.14052 0
M  V30 159 C 14.7201 2.96137 4.44003 0
M  V30 160 O 14.9431 2.07973 5.31134 0
M  V30 161 O 13.8771 3.88312 4.59888 0
M  V30 162 H 17.7031 2.61483 1.54469 0
M  V30 163 H 15.2881 1.3185 0.702567 0
M  V30 164 H 17.1701 1.74217 3.83701 0
M  V30 165 H 15.8451 0.766966 3.14483 0
M  V30 166 H 14.7521 2.93324 2.32189 0
M  V30 167 H 16.0851 3.84699 3.0703 0
M  V30 168 N 17.7372 -0.778329 1.37039 0
M  V30 169 C 18.9862 -1.53189 1.3121 0
M  V30 170 C 19.2992 -1.95328 -0.103095 0
M  V30 171 O 20.5052 -2.70012 -0.283826 0
M  V30 172 C 18.9612 -2.76591 2.30272 0
M  V30 173 C 18.5692 -2.41577 3.77286 0
M  V30 174 C 20.3132 -3.5455 2.33441 0
M  V30 175 C 18.2202 -3.61441 4.68096 0
M  V30 176 H 17.1502 -0.5751 0.487622 0
M  V30 177 H 19.8012 -0.853101 1.62464 0
M  V30 178 H 18.1832 -3.46326 1.92027 0
M  V30 179 H 19.3572 -1.79668 4.2433 0
M  V30 180 H 17.6722 -1.76806 3.76999 0
M  V30 181 H 20.2692 -4.43628 2.98493 0
M  V30 182 H 20.6122 -3.93936 1.34611 0
M  V30 183 H 21.1452 -2.91805 2.7036 0
M  V30 184 H 17.8842 -3.27142 5.6803 0
M  V30 185 H 17.4042 -4.22478 4.25761 0
M  V30 186 H 19.0832 -4.28335 4.8491 0
M  V30 187 N 19.2153 -1.21501 -1.00376 0
M  V30 188 C 20.1453 -0.999478 -2.11028 0
M  V30 189 C 21.1263 0.0759671 -1.6993 0
M  V30 190 O 22.3113 -0.0841106 -1.94018 0
M  V30 191 C 19.4413 -0.564709 -3.42678 0
M  V30 192 C 18.3953 -1.58486 -3.97576 0
M  V30 193 C 17.7213 -1.00628 -5.25146 0
M  V30 194 C 19.0213 -2.97204 -4.29496 0
M  V30 195 H 20.7153 -1.92495 -2.29317 0
M  V30 196 H 18.2613 -0.92693 -1.102 0
M  V30 197 H 20.2143 -0.401091 -4.19487 0
M  V30 198 H 18.9383 0.396411 -3.24185 0
M  V30 199 H 17.5973 -1.73606 -3.22888 0
M  V30 200 H 17.2453 -0.0368439 -5.02987 0
M  V30 201 H 16.9453 -1.68771 -5.62841 0
M  V30 202 H 18.4693 -0.854015 -6.04598 0
M  V30 203 H 19.8833 -2.8552 -4.97143 0
M  V30 204 H 18.2803 -3.62372 -4.78338 0
M  V30 205 H 19.3503 -3.47956 -3.3772 0
M  V30 206 N 20.6934 1.19889 -1.02296 0
M  V30 207 C 21.6034 2.26571 -0.608508 0
M  V30 208 C 22.6194 1.70299 0.356964 0
M  V30 209 O 23.7954 2.00235 0.216326 0
M  V30 210 C 20.8604 3.46677 0.0402814 0
M  V30 211 C 19.9214 4.18153 -0.97194 0
M  V30 212 C 19.1544 5.32525 -0.354016 0
M  V30 213 O 19.3774 5.64112 0.844604 0
M  V30 214 O 18.3114 5.92242 -1.07391 0
M  V30 215 H 22.1374 2.64251 -1.49684 0
M  V30 216 H 19.7224 1.26629 -0.792809 0
M  V30 217 H 21.6044 4.19475 0.402324 0
M  V30 218 H 20.2794 3.10858 0.902707 0
M  V30 219 H 19.1864 3.47499 -1.38546 0
M  V30 220 H 20.5194 4.57927 -1.80454 0
M  V30 221 N 22.1715 0.800033 1.35784 0
M  V30 222 C 23.0815 0.207204 2.33683 0
M  V30 223 C 24.0975 -0.64631 1.61551 0
M  V30 224 O 25.2735 -0.559604 1.93469 0
M  V30 225 C 22.3385 -0.639659 3.40748 0
M  V30 226 C 21.3995 0.233585 4.28664 0
M  V30 227 C 20.6325 -0.572954 5.30616 0
M  V30 228 O 20.8555 -1.80816 5.40982 0
M  V30 229 O 19.7895 0.0327285 6.01891 0
M  V30 230 H 23.6155 1.01692 2.86169 0
M  V30 231 H 21.2005 0.561691 1.38439 0
M  V30 232 H 23.0825 -1.12223 4.06182 0
M  V30 233 H 21.7575 -1.42708 2.90544 0
M  V30 234 H 20.6645 0.763147 3.66233 0
M  V30 235 H 21.9975 0.984784 4.82248 0
M  V30 236 N 23.6496 -1.47581 0.552962 0
M  V30 237 C 24.5796 -2.32762 -0.185451 0
M  V30 238 C 25.5606 -1.43527 -0.912905 0
M  V30 239 O 26.7456 -1.72388 -0.894201 0
M  V30 240 C 23.8756 -3.25219 -1.21859 0
M  V30 241 C 22.8296 -4.23661 -0.607864 0
M  V30 242 C 22.1556 -5.05413 -1.74533 0
M  V30 243 C 23.4556 -5.20481 0.435582 0
M  V30 244 H 25.1496 -2.94749 0.525684 0
M  V30 245 H 22.6956 -1.41738 0.254251 0
M  V30 246 H 24.6486 -3.8365 -1.7433 0
M  V30 247 H 23.3726 -2.61279 -1.95961 0
M  V30 248 H 22.0316 -3.66451 -0.104489 0
M  V30 249 H 21.6796 -4.3788 -2.47529 0
M  V30 250 H 21.3796 -5.72059 -1.34249 0
M  V30 251 H 22.9036 -5.66701 -2.27338 0
M  V30 252 H 24.3176 -5.733 -0.00290157 0
M  V30 253 H 22.7146 -5.95305 0.757067 0
M  V30 254 H 23.7846 -4.66217 1.33303 0
M  V30 255 N 25.1277 -0.289203 -1.54924 0
M  V30 256 C 26.0597 0.625583 -2.20497 0
M  V30 257 C 27.0727 1.10667 -1.19402 0
M  V30 258 O 28.2617 1.02615 -1.46056 0
M  V30 259 C 25.3617 1.86702 -2.82835 0
M  V30 260 C 24.5347 1.5304 -4.09753 0
M  V30 261 C 23.5937 2.62576 -4.56005 0
M  V30 262 O 22.6197 2.28167 -5.21468 0
M  V30 263 N 23.8217 3.92901 -4.27328 0
M  V30 264 H 26.5867 0.0642801 -2.99631 0
M  V30 265 H 24.1477 -0.110896 -1.6152 0
M  V30 266 H 26.1397 2.59304 -3.10715 0
M  V30 267 H 24.7097 2.33702 -2.07611 0
M  V30 268 H 23.9297 0.637564 -3.8901 0
M  V30 269 H 25.2177 1.28072 -4.92418 0
M  V30 270 H 24.6157 4.23671 -3.74859 0
M  V30 271 H 23.1727 4.61837 -4.59946 0
M  V30 272 N 26.6058 1.57591 -0.0167156 0
M  V30 273 C 27.5358 2.12496 0.967858 0
M  V30 274 C 28.5168 1.03807 1.34752 0
M  V30 275 O 29.7018 1.31577 1.42833 0
M  V30 276 C 26.8318 2.64194 2.25431 0
M  V30 277 C 25.7858 3.77559 2.01576 0
M  V30 278 C 25.1118 4.15636 3.36379 0
M  V30 279 C 26.4118 5.04151 1.36489 0
M  V30 280 H 28.1058 2.95013 0.510643 0
M  V30 281 H 25.6518 1.41915 0.244181 0
M  V30 282 H 27.6048 3.01236 2.94678 0
M  V30 283 H 26.3288 1.78821 2.73296 0
M  V30 284 H 24.9878 3.40937 1.34751 0
M  V30 285 H 24.6358 3.27263 3.81979 0
M  V30 286 H 24.3358 4.92022 3.21229 0
M  V30 287 H 25.8598 4.5525 4.06915 0
M  V30 288 H 27.2738 5.38857 1.95718 0
M  V30 289 H 25.6708 5.85453 1.31776 0
M  V30 290 H 26.7408 4.83733 0.336219 0
M  V30 291 N 28.0839 -0.256276 1.55502 0
M  V30 292 C 29.0319 -1.33694 1.90338 0
M  V30 293 C 30.0259 -1.50299 0.781441 0
M  V30 294 O 31.2319 -1.51885 0.965966 0
M  V30 295 H 27.6069 -0.447483 0.60437 0
M  V30 296 H 29.5779 -1.01574 2.8058 0
M  V30 297 C 28.3269 -2.68724 2.20642 0
M  V30 298 H 27.6499 -2.56743 3.06469 0
M  V30 299 H 29.0899 -3.43237 2.48926 0
M  V30 300 C 27.5489 -3.21101 1.01959 0
M  V30 301 O 28.0789 -4.0084 0.262762 0
M  V30 302 N 26.2849 -2.79003 0.812746 0
M  V30 303 H 25.8319 -2.14271 1.42989 0
M  V30 304 H 25.7899 -3.14393 0.0203076 0
M  V30 305 N 29.562 -1.4872 -0.521534 0
M  V30 306 C 30.79 -1.60843 -1.30142 0
M  V30 307 C 31.205 -0.271897 -1.86832 0
M  V30 308 O 30.562 0.739969 -1.66825 0
M  V30 309 C 30.613 -2.66155 -2.4463 0
M  V30 310 O 30.334 -3.94623 -1.90275 0
M  V30 311 C 31.835 -2.88795 -3.36322 0
M  V30 312 H 29.055 -0.542075 -0.395468 0
M  V30 313 H 31.599 -1.94609 -0.628285 0
M  V30 314 H 29.754 -2.35224 -3.07812 0
M  V30 315 H 30.168 -4.52468 -2.65279 0
M  V30 316 H 31.642 -3.66264 -4.12983 0
M  V30 317 H 32.119 -1.97934 -3.9207 0
M  V30 318 H 32.725 -3.21063 -2.78924 0
M  V30 319 N 31.0401 0.771051 -1.3745 0
M  V30 320 C 31.9871 1.88435 -1.3327 0
M  V30 321 C 32.9571 1.64914 -0.198136 0
M  V30 322 O 34.1421 1.86821 -0.387606 0
M  V30 323 C 31.2821 3.25509 -1.14622 0
M  V30 324 C 30.3951 3.60979 -2.37314 0
M  V30 325 C 29.5301 4.87265 -2.11533 0
M  V30 326 C 28.5691 5.15469 -3.30088 0
M  V30 327 N 27.7061 6.32944 -3.03853 0
M  V30 328 H 32.5461 1.91344 -2.28455 0
M  V30 329 H 30.0831 0.935466 -1.13523 0
M  V30 330 H 32.0411 4.04582 -1.01831 0
M  V30 331 H 30.6711 3.21974 -0.230837 0
M  V30 332 H 29.7231 2.76885 -2.60842 0
M  V30 333 H 31.0351 3.77759 -3.25729 0
M  V30 334 H 30.1891 5.74244 -1.95777 0
M  V30 335 H 28.9281 4.7259 -1.20457 0
M  V30 336 H 27.9331 4.26966 -3.46382 0
M  V30 337 H 29.1581 5.32052 -4.22016 0
M  V30 338 H 27.1041 6.19625 -2.15407 0
M  V30 339 H 27.0211 6.50143 -3.85812 0
M  V30 340 H 28.2891 7.22857 -2.91716 0
M  V30 341 N 32.5182 1.22032 0.997298 0
M  V30 342 C 33.7652 1.04222 1.73621 0
M  V30 343 C 34.0932 -0.423264 1.89839 0
M  V30 344 O 33.3482 -1.3302 1.43542 0
M  V30 345 C 33.6472 1.69345 3.14733 0
M  V30 346 C 33.3132 3.19226 3.18442 0
M  V30 347 C 31.9752 3.60124 3.19161 0
M  V30 348 C 34.3272 4.15181 3.15078 0
M  V30 349 C 31.6552 4.95467 3.14212 0
M  V30 350 C 34.0072 5.50495 3.1167 0
M  V30 351 C 32.6712 5.90779 3.10703 0
M  V30 352 H 31.9412 0.381374 0.635323 0
M  V30 353 H 34.5882 1.51732 1.16831 0
M  V30 354 H 32.8932 1.14147 3.74803 0
M  V30 355 H 34.5902 1.53059 3.7064 0
M  V30 356 H 31.1802 2.86659 3.18629 0
M  V30 357 H 35.3642 3.84605 3.13676 0
M  V30 358 H 30.6202 5.25916 3.11805 0
M  V30 359 H 34.7942 6.24576 3.08022 0
M  V30 360 H 32.4212 6.9562 3.06622 0
M  V30 361 N 33.9963 -1.19345 1.0293 0
M  V30 362 C 35.2213 -1.93538 0.745511 0
M  V30 363 C 35.6463 -1.75007 -0.689511 0
M  V30 364 O 35.0043 -1.05265 -1.47611 0
M  V30 365 C 35.0523 -3.43336 1.10239 0
M  V30 366 O 34.1563 -4.11806 0.221289 0
M  V30 367 H 33.4973 -0.604193 0.275404 0
M  V30 368 H 36.0273 -1.5141 1.37609 0
M  V30 369 H 36.0373 -3.94004 1.05947 0
M  V30 370 H 34.7123 -3.56146 2.14786 0
M  V30 371 H 33.2893 -3.715 0.322842 0
M  V30 372 N 35.4744 -0.807222 -1.35358 0
M  V30 373 C 36.3844 -0.219594 -2.3357 0
M  V30 374 C 37.4004 0.637734 -1.61892 0
M  V30 375 O 38.5764 0.549336 -1.93763 0
M  V30 376 C 35.6414 0.62158 -3.41083 0
M  V30 377 C 34.7024 -0.256315 -4.28534 0
M  V30 378 C 33.9354 0.544807 -5.30912 0
M  V30 379 O 34.1584 1.77944 -5.41934 0
M  V30 380 O 33.0924 -0.0646478 -6.01865 0
M  V30 381 H 36.9184 -1.03208 -2.85625 0
M  V30 382 H 34.5034 -0.569025 -1.38139 0
M  V30 383 H 36.3854 1.10067 -4.06772 0
M  V30 384 H 35.0604 1.41165 -2.91297 0
M  V30 385 H 33.9674 -0.782559 -3.65823 0
M  V30 386 H 35.3004 -1.01034 -4.81719 0
M  V30 387 N 36.9525 1.47285 -0.560781 0
M  V30 388 C 37.8625 2.33846 0.187954 0
M  V30 389 C 38.8785 1.48412 0.908293 0
M  V30 390 O 40.0545 1.81332 0.876388 0
M  V30 391 C 37.1195 3.25178 1.2025 0
M  V30 392 C 36.1805 4.26504 0.489208 0
M  V30 393 C 35.4135 5.13472 1.45542 0
M  V30 394 O 35.6365 5.02959 2.6905 0
M  V30 395 O 34.5705 5.93902 0.977963 0
M  V30 396 H 38.3965 2.99177 -0.522177 0
M  V30 397 H 35.9815 1.45903 -0.321364 0
M  V30 398 H 37.8635 3.81584 1.78805 0
M  V30 399 H 36.5385 2.6247 1.89449 0
M  V30 400 H 35.4455 3.73847 -0.137627 0
M  V30 401 H 36.7785 4.91935 -0.161399 0
M  V30 402 N 38.4306 0.297415 1.54768 0
M  V30 403 C 39.3406 -0.58983 2.27064 0
M  V30 404 C 40.3566 -1.15144 1.30453 0
M  V30 405 O 41.5326 -1.17699 1.63428 0
M  V30 406 C 38.5976 -1.74714 2.9946 0
M  V30 407 C 37.6586 -1.21997 4.11601 0
M  V30 408 C 36.8916 -2.32212 4.80535 0
M  V30 409 O 37.1146 -3.52036 4.48806 0
M  V30 410 O 36.0486 -1.99106 5.68014 0
M  V30 411 H 39.8746 -0.00348199 3.037 0
M  V30 412 H 37.4596 0.0640035 1.49263 0
M  V30 413 H 39.3416 -2.42147 3.44881 0
M  V30 414 H 38.0166 -2.32016 2.25722 0
M  V30 415 H 36.9236 -0.511458 3.70587 0
M  V30 416 H 38.2566 -0.692419 4.87305 0
M  V30 417 N 39.9087 -1.5758 0.0250728 0
M  V30 418 C 40.8387 -2.13007 -0.956575 0
M  V30 419 C 41.8197 -1.0452 -1.342 0
M  V30 420 O 43.0047 -1.32332 -1.42133 0
M  V30 421 C 40.1347 -2.65386 -2.24026 0
M  V30 422 C 39.0887 -3.78623 -1.99571 0
M  V30 423 C 38.4147 -4.17414 -3.3417 0
M  V30 424 C 39.7147 -5.04867 -1.33814 0
M  V30 425 H 41.4087 -2.9528 -0.494991 0
M  V30 426 H 38.9547 -1.42042 -0.236651 0
M  V30 427 H 40.9077 -3.02794 -2.93076 0
M  V30 428 H 39.6317 -1.80268 -2.72343 0
M  V30 429 H 38.2907 -3.41646 -1.32941 0
M  V30 430 H 37.9387 -3.29284 -3.80238 0
M  V30 431 H 37.6387 -4.93719 -3.18615 0
M  V30 432 H 39.1627 -4.57402 -4.04495 0
M  V30 433 H 40.5767 -5.39888 -1.92857 0
M  V30 434 H 38.9737 -5.86144 -1.28669 0
M  V30 435 H 40.0437 -4.83904 -0.310561 0
M  V30 436 N 41.3868 0.248026 -1.55636 0
M  V30 437 C 42.6268 0.983592 -1.79178 0
M  V30 438 C 42.9908 1.82567 -0.594414 0
M  V30 439 O 44.1918 2.59292 -0.708583 0
M  V30 440 C 42.4628 1.82228 -3.07454 0
M  V30 441 S 44.0218 2.61709 -3.52213 0
M  V30 442 H 40.8398 0.330866 -0.629324 0
M  V30 443 H 43.4418 0.251562 -1.93875 0
M  V30 444 H 42.1458 1.19333 -3.92668 0
M  V30 445 H 41.6768 2.59708 -2.95492 0
M  V30 446 H 43.6918 3.84655 -3.13457 0
M  V30 447 N 42.8649 1.48995 0.513639 0
M  V30 448 C 44.0899 1.61792 1.29762 0
M  V30 449 C 44.5149 0.284475 1.85936 0
M  V30 450 O 43.8729 -0.746185 1.65232 0
M  V30 451 C 43.9209 2.67993 2.41272 0
M  V30 452 O 43.0249 2.26287 3.44772 0
M  V30 453 H 42.3659 0.541963 0.38363 0
M  V30 454 H 44.8959 1.95097 0.616307 0
M  V30 455 H 44.9059 2.89772 2.87221 0
M  V30 456 H 43.5809 3.64791 1.9975 0
M  V30 457 H 42.1579 2.14788 3.04829 0
M  V30 458 N 44.343 -0.763751 1.37857 0
M  V30 459 C 45.589 -1.52396 1.3471 0
M  V30 460 C 45.944 -1.92288 -0.0656435 0
M  V30 461 O 45.237 -1.6181 -1.02606 0
M  V30 462 C 45.431 -2.79499 2.22745 0
M  V30 463 C 45.26 -2.52031 3.72438 0
M  V30 464 C 44.03 -2.45759 4.4151 0
M  V30 465 C 46.228 -2.19489 4.65112 0
M  V30 466 N 44.21 -2.1046 5.76697 0
M  V30 467 C 45.581 -1.94396 5.88736 0
M  V30 468 C 47.636 -2.05712 4.53417 0
M  V30 469 C 46.339 -1.56917 7.01975 0
M  V30 470 C 48.365 -1.69634 5.66549 0
M  V30 471 C 47.727 -1.45407 6.89229 0
M  V30 472 H 43.826 -0.55765 0.548225 0
M  V30 473 H 46.41 -0.890302 1.73152 0
M  V30 474 H 44.581 -3.4069 1.86507 0
M  V30 475 H 46.313 -3.45465 2.10798 0
M  V30 476 H 43.068 -2.61885 3.94605 0
M  V30 477 H 43.492 -1.95484 6.48163 0
M  V30 478 H 48.134 -2.23123 3.59133 0
M  V30 479 H 45.852 -1.38246 7.96187 0
M  V30 480 H 49.438 -1.59621 5.59475 0
M  V30 481 H 48.318 -1.17904 7.75286 0
M  V30 482 N 45.8211 -1.22559 -0.990812 0
M  V30 483 C 47.0511 -1.07623 -1.76355 0
M  V30 484 C 47.4591 0.37601 -1.85426 0
M  V30 485 O 46.8021 1.27228 -1.32509 0
M  V30 486 C 46.8641 -1.61507 -3.21179 0
M  V30 487 C 46.5281 -3.10146 -3.35646 0
M  V30 488 C 47.5251 -4.07553 -3.22796 0
M  V30 489 C 45.2101 -3.49644 -3.60631 0
M  V30 490 C 47.2041 -5.42442 -3.34716 0
M  V30 491 C 44.8911 -4.84682 -3.72192 0
M  V30 492 C 45.8891 -5.8089 -3.59243 0
M  V30 493 O 45.5771 -7.13476 -3.70415 0
M  V30 494 H 45.3091 -0.377745 -0.560611 0
M  V30 495 H 47.8631 -1.62658 -1.25425 0
M  V30 496 H 46.0931 -1.00881 -3.73309 0
M  V30 497 H 47.7821 -1.42202 -3.80175 0
M  V30 498 H 48.5481 -3.78381 -3.03403 0
M  V30 499 H 44.4271 -2.75282 -3.69785 0
M  V30 500 H 47.9711 -6.17518 -3.24526 0
M  V30 501 H 43.8681 -5.13534 -3.91092 0
M  V30 502 H 44.6361 -7.21083 -3.87275 0
M  V30 503 N 47.2992 1.18797 -1.03562 0
M  V30 504 C 48.2312 2.21731 -0.580337 0
M  V30 505 C 49.2442 1.59051 0.347349 0
M  V30 506 O 50.4332 1.77929 0.142669 0
M  V30 507 C 47.5332 3.38459 0.172805 0
M  V30 508 C 46.7062 4.3072 -0.761496 0
M  V30 509 C 45.7652 5.26174 -0.0525547 0
M  V30 510 O 44.7912 5.65108 -0.681333 0
M  V30 511 N 45.9932 5.67624 1.21586 0
M  V30 512 H 48.7582 2.61417 -1.46565 0
M  V30 513 H 46.3192 1.33531 -0.915476 0
M  V30 514 H 48.3112 3.99335 0.656793 0
M  V30 515 H 46.8812 2.97507 0.959602 0
M  V30 516 H 46.1012 3.67525 -1.42544 0
M  V30 517 H 47.3892 4.89267 -1.39626 0
M  V30 518 H 46.7872 5.38038 1.74732 0
M  V30 519 H 45.3442 6.30721 1.64421 0
M  V30 520 N 48.7773 0.814389 1.34928 0
M  V30 521 C 50.0023 0.410097 2.03305 0
M  V30 522 C 50.4273 -0.973464 1.60951 0
M  V30 523 O 49.7853 -1.63185 0.789964 0
M  V30 524 C 49.8333 0.51049 3.56968 0
M  V30 525 O 48.9373 -0.473035 4.09678 0
M  V30 526 H 48.2783 0.170088 0.641846 0
M  V30 527 H 50.8083 1.10244 1.72358 0
M  V30 528 H 50.8183 0.383135 4.06197 0
M  V30 529 H 49.4933 1.51963 3.87144 0
M  V30 530 H 48.0703 -0.305272 3.71648 0
M  V30 531 N 50.2554 -1.46986 0.568584 0
M  V30 532 C 51.5024 -2.02441 0.0487986 0
M  V30 533 C 51.8304 -1.44169 -1.30559 0
M  V30 534 O 51.0854 -0.591213 -1.86556 0
M  V30 535 C 51.3844 -3.57306 -0.081836 0
M  V30 536 C 51.0504 -4.34552 1.20313 0
M  V30 537 C 49.7124 -4.55376 1.5552 0
M  V30 538 C 52.0644 -4.79016 2.05411 0
M  V30 539 C 49.3924 -5.17913 2.7565 0
M  V30 540 C 51.7444 -5.42879 3.24754 0
M  V30 541 C 50.4084 -5.61933 3.60261 0
M  V30 542 H 49.6784 -0.740785 0.0178567 0
M  V30 543 H 52.3254 -1.76525 0.742384 0
M  V30 544 H 50.6304 -3.8228 -0.858463 0
M  V30 545 H 52.3274 -3.97876 -0.499546 0
M  V30 546 H 48.9174 -4.18631 0.919014 0
M  V30 547 H 53.1014 -4.62696 1.79516 0
M  V30 548 H 48.3574 -5.30858 3.03315 0
M  V30 549 H 52.5314 -5.76293 3.90973 0
M  V30 550 H 50.1584 -6.10161 4.53439 0
M  V30 551 N 51.7335 -0.305618 -1.54608 0
M  V30 552 C 52.6635 0.561482 -2.26649 0
M  V30 553 C 53.6445 1.13415 -1.26772 0
M  V30 554 O 54.8295 1.16262 -1.55553 0
M  V30 555 C 51.9595 1.73122 -3.01075 0
M  V30 556 C 50.9135 1.2887 -4.08138 0
M  V30 557 C 50.2395 2.54396 -4.70305 0
M  V30 558 C 51.5395 0.416578 -5.20636 0
M  V30 559 H 53.2335 -0.0393902 -2.99374 0
M  V30 560 H 50.7795 -0.020385 -1.43986 0
M  V30 561 H 52.7325 2.34396 -3.50195 0
M  V30 562 H 51.4565 2.3584 -2.25936 0
M  V30 563 H 50.1155 0.698991 -3.59875 0
M  V30 564 H 49.7635 3.15439 -3.918 0
M  V30 565 H 49.4635 2.25486 -5.42614 0
M  V30 566 H 50.9875 3.16464 -5.2219 0
M  V30 567 H 52.4015 0.935116 -5.65622 0
M  V30 568 H 50.7985 0.221046 -5.99693 0
M  V30 569 H 51.8685 -0.557162 -4.81688 0
M  V30 570 N 53.2116 1.57565 -0.0334293 0
M  V30 571 C 54.1586 2.10478 0.946981 0
M  V30 572 C 55.1286 1.00787 1.32027 0
M  V30 573 O 56.3136 1.28232 1.41284 0
M  V30 574 C 53.4536 2.63994 2.22263 0
M  V30 575 C 52.5666 3.87709 1.90541 0
M  V30 576 C 51.7016 4.29604 3.12433 0
M  V30 577 C 50.7406 5.46065 2.76549 0
M  V30 578 N 49.8776 5.83096 3.9108 0
M  V30 579 H 54.7176 2.93963 0.488846 0
M  V30 580 H 52.2546 1.45296 0.22969 0
M  V30 581 H 54.2126 2.93114 2.96884 0
M  V30 582 H 52.8426 1.83333 2.65685 0
M  V30 583 H 51.8946 3.65291 1.06144 0
M  V30 584 H 53.2066 4.72403 1.60116 0
M  V30 585 H 52.3606 4.60182 3.9537 0
M  V30 586 H 51.0996 3.43685 3.46023 0
M  V30 587 H 50.1046 5.15176 1.92026 0
M  V30 588 H 51.3296 6.33685 2.44171 0
M  V30 589 H 49.2756 5.00132 4.24504 0
M  V30 590 H 49.1926 6.6244 3.64293 0
M  V30 591 H 50.4606 6.18282 4.74708 0
M  V30 592 N 54.6897 -0.239769 1.55765 0
M  V30 593 C 55.9667 -0.990056 1.68693 0
M  V30 594 C 56.3467 -2.03107 0.5754 0
M  V30 595 O 55.6947 -2.24604 -0.42017 0
M  V30 596 C 55.9047 -1.61696 3.09282 0
M  V30 597 C 57.2527 -2.11613 3.6811 0
M  V30 598 O 58.2767 -1.71624 3.12127 0
M  V30 599 O 57.1357 -2.85057 4.66267 0
M  V30 600 H 54.2297 -0.461299 0.686391 0
M  V30 601 H 56.7757 -0.232991 1.68093 0
M  V30 602 H 55.5477 -0.864357 3.81634 0
M  V30 603 H 55.1707 -2.44005 3.13923 0
M  V30 604 N 56.1678 -1.49265 -0.50573 0
M  V30 605 C 57.4078 -1.60128 -1.27038 0
M  V30 606 C 57.7718 -0.279557 -1.89954 0
M  V30 607 O 58.9728 -0.263329 -2.67507 0
M  V30 608 C 57.2438 -2.72507 -2.31246 0
M  V30 609 S 58.8028 -3.0329 -3.17113 0
M  V30 610 H 55.6208 -0.564863 -0.4318 0
M  V30 611 H 58.2228 -1.86902 -0.573397 0
M  V30 612 H 56.9268 -3.67068 -1.83546 0
M  V30 613 H 56.4578 -2.4771 -3.05619 0
M  V30 614 H 58.4728 -2.44448 -4.31809 0
M  V30 615 N 57.6459 0.756429 -1.3826 0
M  V30 616 C 59.0569 1.33359 -1.30661 0
M  V30 617 C 59.4079 1.96161 0.0388875 0
M  V30 618 O 58.5329 1.94874 0.940918 0
M  V30 619 C 59.1279 2.42477 -2.36622 0
M  V30 620 C 57.6869 2.95922 -2.3261 0
M  V30 621 C 56.8339 1.69275 -2.19639 0
M  V30 622 H 59.7849 0.55552 -1.4866 0
M  V30 623 H 59.8059 3.22345 -2.02174 0
M  V30 624 H 59.3179 1.96739 -3.34538 0
M  V30 625 H 57.4189 3.45996 -1.38267 0
M  V30 626 H 57.5319 3.50494 -3.26636 0
M  V30 627 H 55.8959 1.92793 -1.66442 0
M  V30 628 H 56.6789 1.25619 -3.19491 0
M  V30 629 N 59.124 1.23083 0.984299 0
M  V30 630 C 60.352 1.08714 1.76037 0
M  V30 631 C 60.767 -0.361691 1.85303 0
M  V30 632 O 60.124 -1.25034 1.32939 0
M  V30 633 C 60.175 1.70206 3.18923 0
M  V30 634 O 59.896 3.09423 3.10144 0
M  V30 635 C 61.397 1.61227 4.12941 0
M  V30 636 H 58.617 0.380664 0.552572 0
M  V30 637 H 61.161 1.62853 1.23689 0
M  V30 638 H 59.316 1.20109 3.6831 0
M  V30 639 H 59.73 3.39188 4.00065 0
M  V30 640 H 61.204 2.08962 5.10919 0
M  V30 641 H 61.681 0.570375 4.35481 0
M  V30 642 H 62.287 2.10671 3.69456 0
M  V30 643 N 60.6021 -1.18246 1.0419 0
M  V30 644 C 61.8501 -1.87886 0.744543 0
M  V30 645 C 62.1711 -1.8082 -0.730006 0
M  V30 646 O 61.4411 -1.22736 -1.52685 0
M  V30 647 H 60.0211 -0.695556 0.272417 0
M  V30 648 H 62.6831 -1.43494 1.31892 0
M  V30 649 H 61.7791 -2.9389 1.05049 0
M  V30 650 N 62.0802 -0.821533 -1.34494 0
M  V30 651 C 63.4962 -0.507117 -1.51329 0
M  V30 652 C 63.6962 0.968964 -1.76673 0
M  V30 653 O 62.7522 1.75348 -1.81685 0
M  V30 654 C 64.0652 -1.36544 -2.67911 0
M  V30 655 C 65.6132 -1.36242 -2.81793 0
M  V30 656 C 66.0882 -2.2052 -4.01416 0
M  V30 657 N 67.5792 -2.18136 -4.08621 0
M  V30 658 C 68.3142 -2.80095 -5.00334 0
M  V30 659 N 67.8102 -3.51039 -5.9728 0
M  V30 660 N 69.6032 -2.69656 -4.93196 0
M  V30 661 H 61.7542 -1.77729 -1.16302 0
M  V30 662 H 64.0172 -0.757291 -0.570276 0
M  V30 663 H 63.7232 -2.41361 -2.55808 0
M  V30 664 H 63.5972 -1.02917 -3.62888 0
M  V30 665 H 65.9842 -0.322041 -2.93338 0
M  V30 666 H 66.0652 -1.73866 -1.87628 0
M  V30 667 H 65.7092 -3.24607 -3.90631 0
M  V30 668 H 65.6392 -1.80247 -4.94791 0
M  V30 669 H 68.1302 -1.6653 -3.39229 0
M  V30 670 H 68.4432 -3.95565 -6.63889 0
M  V30 671 H 66.7882 -3.55145 -5.97409 0
M  V30 672 H 69.9792 -2.13808 -4.16418 0
M  V30 673 H 70.1522 -3.1823 -5.64476 0
M  V30 674 N 63.5583 1.46682 -0.576371 0
M  V30 675 C 64.8073 2.01619 -0.0572825 0
M  V30 676 C 65.1203 1.45417 1.30818 0
M  V30 677 O 66.3263 1.92133 1.91825 0
M  V30 678 C 64.7823 3.59863 -0.0518371 0
M  V30 679 C 64.3903 4.25059 -1.41523 0
M  V30 680 C 66.1343 4.2248 0.413639 0
M  V30 681 C 64.0413 5.75364 -1.36785 0
M  V30 682 H 62.9713 0.753794 -0.0176448 0
M  V30 683 H 65.6223 1.68481 -0.727076 0
M  V30 684 H 64.0043 3.90048 0.683994 0
M  V30 685 H 65.1783 4.06491 -2.17029 0
M  V30 686 H 63.4933 3.7451 -1.8202 0
M  V30 687 H 66.0903 5.3265 0.467779 0
M  V30 688 H 66.4333 3.90976 1.42982 0
M  V30 689 H 66.9663 3.96897 -0.267929 0
M  V30 690 H 63.7053 6.11518 -2.36063 0
M  V30 691 H 63.2253 5.96214 -0.654895 0
M  V30 692 H 64.9043 6.37955 -1.07805 0
M  V30 693 N 65.0364 0.313813 1.54444 0
M  V30 694 C 66.2644 -0.293918 2.04802 0
M  V30 695 C 66.6794 -1.46537 1.19047 0
M  V30 696 O 66.0364 -1.81182 0.218939 0
M  V30 697 C 66.0874 -0.737806 3.53891 0
M  V30 698 O 65.8084 0.387038 4.36387 0
M  V30 699 C 67.3094 -1.40936 4.203 0
M  V30 700 H 64.5294 -0.0620057 0.668129 0
M  V30 701 H 67.0734 0.457169 1.99324 0
M  V30 702 H 65.2284 -1.43889 3.59687 0
M  V30 703 H 65.6424 0.0391274 5.24485 0
M  V30 704 H 67.1164 -1.67099 5.26101 0
M  V30 705 H 67.5934 -2.35355 3.70816 0
M  V30 706 H 68.1994 -0.751117 4.18615 0
M  V30 707 N 66.5145 -1.57545 0.0417849 0
M  V30 708 C 67.4465 -2.07904 -0.964799 0
M  V30 709 C 68.4595 -1.00497 -1.28079 0
M  V30 710 O 69.6485 -1.28087 -1.24322 0
M  V30 711 C 66.7485 -2.49928 -2.28887 0
M  V30 712 C 65.9215 -3.80562 -2.15619 0
M  V30 713 C 64.9805 -4.08999 -3.31069 0
M  V30 714 O 64.0065 -4.79061 -3.0739 0
M  V30 715 N 65.2085 -3.6017 -4.55256 0
M  V30 716 H 67.9735 -2.94886 -0.535029 0
M  V30 717 H 65.5345 -1.61252 -0.144681 0
M  V30 718 H 67.5265 -2.66034 -3.04972 0
M  V30 719 H 66.0965 -1.68245 -2.63463 0
M  V30 720 H 65.3165 -3.74129 -1.24183 0
M  V30 721 H 66.6045 -4.66126 -2.03971 0
M  V30 722 H 66.0025 -3.03512 -4.77386 0
M  V30 723 H 64.5595 -3.81532 -5.28466 0
M  V30 724 N 67.9926 0.231505 -1.5589 0
M  V30 725 C 68.9246 1.31006 -1.8807 0
M  V30 726 C 69.9376 1.43539 -0.768145 0
M  V30 727 O 71.1266 1.44614 -1.04638 0
M  V30 728 C 68.2266 2.68688 -2.06543 0
M  V30 729 C 67.3996 2.78228 -3.37502 0
M  V30 730 C 66.4586 3.96857 -3.4553 0
M  V30 731 O 65.4846 3.85662 -4.18633 0
M  V30 732 N 66.6866 5.1072 -2.75944 0
M  V30 733 H 69.4516 1.03731 -2.81176 0
M  V30 734 H 67.0126 0.421573 -1.56315 0
M  V30 735 H 69.0046 3.46412 -2.09239 0
M  V30 736 H 67.5746 2.88605 -1.20109 0
M  V30 737 H 66.7946 1.87059 -3.46991 0
M  V30 738 H 68.0826 2.81564 -4.23791 0
M  V30 739 H 67.4806 5.2271 -2.16311 0
M  V30 740 H 66.0376 5.86523 -2.84314 0
M  V30 741 N 69.4707 1.49531 0.497807 0
M  V30 742 C 70.4027 1.62559 1.61578 0
M  V30 743 C 71.4157 0.508134 1.54667 0
M  V30 744 O 72.6047 0.780309 1.60541 0
M  V30 745 C 69.7047 1.56925 3.00379 0
M  V30 746 C 68.8777 2.84257 3.3244 0
M  V30 747 C 67.9367 2.71632 4.50669 0
M  V30 748 O 66.9627 3.4557 4.52294 0
M  V30 749 N 68.1647 1.83391 5.5077 0
M  V30 750 H 70.9297 2.58981 1.50828 0
M  V30 751 H 68.4907 1.4666 0.685743 0
M  V30 752 H 70.4827 1.46129 3.77397 0
M  V30 753 H 69.0527 0.683483 3.05037 0
M  V30 754 H 68.2727 3.09381 2.44289 0
M  V30 755 H 69.5607 3.68666 3.5066 0
M  V30 756 H 68.9587 1.22583 5.52259 0
M  V30 757 H 67.5157 1.78515 6.26878 0
M  V30 758 N 70.9488 -0.749086 1.3866 0
M  V30 759 C 72.1958 -1.50833 1.35114 0
M  V30 760 C 72.5238 -1.94415 -0.0574049 0
M  V30 761 O 71.7788 -1.66065 -1.03541 0
M  V30 762 C 72.0778 -2.7712 2.25697 0
M  V30 763 C 71.7438 -2.52477 3.73585 0
M  V30 764 C 70.4058 -2.45466 4.13884 0
M  V30 765 C 72.7578 -2.31066 4.67181 0
M  V30 766 C 70.0858 -2.15064 5.45861 0
M  V30 767 C 72.4378 -2.02183 5.9942 0
M  V30 768 C 71.1018 -1.93631 6.38798 0
M  V30 769 H 70.3718 -0.551936 0.494416 0
M  V30 770 H 73.0188 -0.860979 1.71054 0
M  V30 771 H 71.3238 -3.46528 1.82827 0
M  V30 772 H 73.0208 -3.35096 2.20254 0
M  V30 773 H 69.6108 -2.58807 3.41638 0
M  V30 774 H 73.7948 -2.35459 4.3689 0
M  V30 775 H 69.0508 -2.06954 5.75308 0
M  V30 776 H 73.2248 -1.8462 6.71482 0
M  V30 777 H 70.8518 -1.69839 7.40985 0
M  V30 778 N 72.4269 -1.23603 -0.977757 0
M  V30 779 C 73.3589 -0.977369 -2.07317 0
M  V30 780 C 74.3719 0.0495845 -1.62724 0
M  V30 781 O 75.5609 -0.186261 -1.77526 0
M  V30 782 C 72.6609 -0.451216 -3.35883 0
M  V30 783 C 71.8339 -1.53896 -4.09432 0
M  V30 784 C 70.8929 -1.01721 -5.16274 0
M  V30 785 O 69.9189 -1.70676 -5.43009 0
M  V30 786 N 71.1209 0.153594 -5.80297 0
M  V30 787 H 73.8859 -1.92047 -2.30082 0
M  V30 788 H 71.4469 -1.14497 -1.14465 0
M  V30 789 H 73.4389 -0.0871574 -4.04606 0
M  V30 790 H 72.0089 0.397368 -3.10064 0
M  V30 791 H 71.2289 -2.07566 -3.35127 0
M  V30 792 H 72.5169 -2.27037 -4.55337 0
M  V30 793 H 71.9149 0.730323 -5.60966 0
M  V30 794 H 70.4719 0.458892 -6.50183 0
M  V30 795 N 73.905 1.17692 -1.04816 0
M  V30 796 C 75.13 1.92327 -0.776207 0
M  V30 797 C 75.555 1.76082 0.661581 0
M  V30 798 O 74.913 1.076 1.45917 0
M  V30 799 C 74.961 3.41539 -1.15687 0
M  V30 800 O 74.065 4.11402 -0.286775 0
M  V30 801 H 73.406 0.599735 -0.284981 0
M  V30 802 H 75.936 1.49201 -1.4 0
M  V30 803 H 75.946 3.92269 -1.12202 0
M  V30 804 H 74.621 3.52684 -2.20425 0
M  V30 805 H 73.198 3.70939 -0.381903 0
M  V30 806 N 75.3831 0.828654 1.34056 0
M  V30 807 C 76.6321 0.415828 1.97367 0
M  V30 808 C 76.9451 -1.02796 1.6641 0
M  V30 809 O 78.1511 -1.54497 2.23255 0
M  V30 810 C 76.6071 0.692601 3.53173 0
M  V30 811 C 76.2151 2.15038 3.93017 0
M  V30 812 C 77.9591 0.346222 4.23086 0
M  V30 813 C 75.8661 2.37174 5.41758 0
M  V30 814 H 74.7961 0.151755 0.738571 0
M  V30 815 H 77.4471 1.01581 1.52819 0
M  V30 816 H 75.8291 0.0223764 3.95994 0
M  V30 817 H 77.0031 2.86024 3.61285 0
M  V30 818 H 75.3181 2.45875 3.36057 0
M  V30 819 H 77.9151 0.48937 5.32456 0
M  V30 820 H 78.2581 -0.709842 4.10204 0
M  V30 821 H 78.7911 0.971258 3.85761 0
M  V30 822 H 75.5301 3.41308 5.59633 0
M  V30 823 H 75.0501 1.70738 5.74986 0
M  V30 824 H 76.7291 2.19818 6.08514 0
M  V30 825 N 76.8612 -1.46375 0.584142 0
M  V30 826 C 78.0912 -2.06461 0.0758195 0
M  V30 827 C 78.4992 -1.43322 -1.23512 0
M  V30 828 O 77.8422 -0.533216 -1.75791 0
M  V30 829 C 77.9042 -3.59131 -0.162773 0
M  V30 830 C 77.5682 -4.4447 1.06279 0
M  V30 831 C 78.5652 -4.80918 1.97519 0
M  V30 832 C 76.2502 -4.85584 1.28504 0
M  V30 833 C 78.2442 -5.57309 3.09331 0
M  V30 834 C 75.9312 -5.61734 2.4062 0
M  V30 835 C 76.9292 -5.9751 3.30863 0
M  V30 836 O 76.6172 -6.72121 4.41032 0
M  V30 837 H 76.3492 -0.673745 0.0551725 0
M  V30 838 H 78.9032 -1.88969 0.804984 0
M  V30 839 H 77.1332 -3.74936 -0.946565 0
M  V30 840 H 78.8222 -4.0114 -0.619782 0
M  V30 841 H 79.5882 -4.49732 1.81565 0
M  V30 842 H 75.4672 -4.57187 0.591702 0
M  V30 843 H 79.0112 -5.85152 3.79793 0
M  V30 844 H 74.9082 -5.92334 2.56537 0
M  V30 845 H 75.6762 -6.90547 4.39417 0
M  V30 846 N 78.3393 -0.321999 -1.54275 0
M  V30 847 C 79.3023 0.531975 -2.22941 0
M  V30 848 C 80.3023 1.04478 -1.22234 0
M  V30 849 O 81.4923 0.937452 -1.46825 0
M  V30 850 C 78.6243 1.73874 -2.93224 0
M  V30 851 H 79.8173 -0.0682612 -2.99822 0
M  V30 852 H 77.3703 -0.0730644 -1.56129 0
M  V30 853 H 78.1053 2.37825 -2.20476 0
M  V30 854 H 77.8903 1.37847 -3.6707 0
M  V30 855 H 79.3803 2.34496 -3.45545 0
M  V30 856 N 79.8174 1.5752 -0.0501392 0
M  V30 857 C 80.7644 2.1147 0.924603 0
M  V30 858 C 81.7344 1.02182 1.30951 0
M  V30 859 O 82.9194 1.29723 1.39916 0
M  V30 860 C 80.0594 2.66337 2.19451 0
M  V30 861 C 79.1724 3.89708 1.86418 0
M  V30 862 C 78.3074 4.32893 3.07859 0
M  V30 863 C 77.3464 5.48967 2.70742 0
M  V30 864 N 76.4834 5.87211 3.84874 0
M  V30 865 H 81.3234 2.94465 0.457639 0
M  V30 866 H 78.8604 1.45531 0.214266 0
M  V30 867 H 80.8184 2.96247 2.93758 0
M  V30 868 H 79.4484 1.86141 2.63726 0
M  V30 869 H 78.5004 3.66396 1.02264 0
M  V30 870 H 79.8124 4.74074 1.55096 0
M  V30 871 H 78.9664 4.6435 3.90466 0
M  V30 872 H 77.7054 3.47336 3.42358 0
M  V30 873 H 76.7104 5.17183 1.86551 0
M  V30 874 H 77.9354 6.3624 2.37436 0
M  V30 875 H 75.8814 5.04607 4.19175 0
M  V30 876 H 75.7984 6.66266 3.57247 0
M  V30 877 H 77.0664 6.23282 4.68123 0
M  V30 878 N 81.2955 -0.223234 1.56011 0
M  V30 879 C 82.5425 -0.947875 1.78946 0
M  V30 880 C 82.8705 -1.844 0.618608 0
M  V30 881 O 82.1255 -1.91629 -0.397093 0
M  V30 882 C 82.4245 -1.81948 3.0762 0
M  V30 883 C 82.0905 -1.07672 4.37856 0
M  V30 884 C 80.7525 -0.871544 4.73242 0
M  V30 885 C 83.1045 -0.552081 5.18268 0
M  V30 886 C 80.4325 -0.129791 5.86556 0
M  V30 887 C 82.7845 0.17632 6.32354 0
M  V30 888 C 81.4485 0.39277 6.66343 0
M  V30 889 H 80.7185 -0.346852 0.654809 0
M  V30 890 H 83.3655 -0.216171 1.90276 0
M  V30 891 H 81.6705 -2.61899 2.91404 0
M  V30 892 H 83.3675 -2.38227 3.22566 0
M  V30 893 H 79.9575 -1.24662 4.1007 0
M  V30 894 H 84.1415 -0.698076 4.91366 0
M  V30 895 H 79.3975 0.048153 6.11381 0
M  V30 896 H 83.5715 0.590367 6.93893 0
M  V30 897 H 81.1985 0.969466 7.53993 0
M  V30 898 N 82.7736 -1.49793 -0.48987 0
M  V30 899 C 84.0206 -1.59841 -1.24327 0
M  V30 900 C 84.3486 -0.290135 -1.92324 0
M  V30 901 O 83.6036 0.722749 -1.81865 0
M  V30 902 C 83.9026 -2.71488 -2.32441 0
M  V30 903 C 83.5686 -4.12614 -1.81826 0
M  V30 904 C 82.2306 -4.51017 -1.67742 0
M  V30 905 C 84.5826 -5.00892 -1.4407 0
M  V30 906 C 81.9106 -5.75459 -1.14297 0
M  V30 907 C 84.2626 -6.25863 -0.920742 0
M  V30 908 C 82.9266 -6.63086 -0.766383 0
M  V30 909 H 82.1966 -0.584899 -0.454944 0
M  V30 910 H 84.8436 -1.83663 -0.542215 0
M  V30 911 H 83.1486 -2.4168 -3.0838 0
M  V30 912 H 84.8456 -2.76469 -2.90458 0
M  V30 913 H 81.4356 -3.82307 -1.93751 0
M  V30 914 H 85.6196 -4.7187 -1.53794 0
M  V30 915 H 80.8756 -6.02989 -1.01068 0
M  V30 916 H 85.0496 -6.9364 -0.619448 0
M  V30 917 H 82.6766 -7.59393 -0.350083 0
M  V30 918 N 84.2517 0.741722 -1.39055 0
M  V30 919 C 85.6627 1.31966 -1.32068 0
M  V30 920 C 86.0137 1.96192 0.0180797 0
M  V30 921 O 85.1387 1.95861 0.920196 0
M  V30 922 C 85.7337 2.39954 -2.39181 0
M  V30 923 C 84.2927 2.93438 -2.35735 0
M  V30 924 C 83.4397 1.66936 -2.21422 0
M  V30 925 H 86.3907 0.539721 -1.4924 0
M  V30 926 H 86.4117 3.20182 -2.05581 0
M  V30 927 H 85.9237 1.9318 -3.36605 0
M  V30 928 H 84.0247 3.4451 -1.41929 0
M  V30 929 H 84.1377 3.4701 -3.30335 0
M  V30 930 H 82.5017 1.91016 -1.68478 0
M  V30 931 H 83.2847 1.22224 -3.20806 0
M  V30 932 N 85.7298 1.2412 0.971189 0
M  V30 933 C 87.0068 0.986867 1.6888 0
M  V30 934 C 87.3868 -0.491857 2.0529 0
M  V30 935 O 86.7348 -1.46531 1.75331 0
M  V30 936 C 86.9448 1.9063 2.92338 0
M  V30 937 C 88.2928 2.17515 3.64654 0
M  V30 938 O 89.3168 1.88254 3.02388 0
M  V30 939 O 88.1758 2.6719 4.7673 0
M  V30 940 H 85.2698 0.372944 0.738134 0
M  V30 941 H 87.8158 1.35203 1.02559 0
M  V30 942 H 86.5878 2.90552 2.62097 0
M  V30 943 H 86.2108 1.54408 3.66393 0
M  V30 944 N 87.2079 -1.17134 1.05439 0
M  V30 945 C 88.4359 -1.91372 0.786414 0
M  V30 946 C 88.8509 -1.76955 -0.658202 0
M  V30 947 O 88.2079 -1.10838 -1.44987 0
M  V30 948 C 88.2589 -3.42356 1.1608 0
M  V30 949 O 87.9799 -3.56332 2.54871 0
M  V30 950 C 89.4809 -4.33663 0.919322 0
M  V30 951 H 86.7009 -0.607118 0.285743 0
M  V30 952 H 89.2449 -1.48525 1.40572 0
M  V30 953 H 87.3999 -3.82939 0.586191 0
M  V30 954 H 87.8139 -4.49896 2.69618 0
M  V30 955 H 89.2879 -5.38099 1.231 0
M  V30 956 H 89.7649 -4.38959 -0.145359 0
M  V30 957 H 90.3709 -3.98796 1.47789 0
M  V30 958 N 88.686 -0.835752 -1.33615 0
M  V30 959 C 89.963 -0.352017 -1.92406 0
M  V30 960 C 90.343 1.16225 -1.76224 0
M  V30 961 O 89.691 1.97526 -1.14873 0
M  V30 962 C 89.901 -0.795485 -3.39813 0
M  V30 963 C 91.249 -0.801703 -4.16963 0
M  V30 964 O 92.273 -0.738889 -3.48452 0
M  V30 965 O 91.132 -0.886607 -5.3926 0
M  V30 966 H 88.226 -0.0989641 -0.821057 0
M  V30 967 H 90.772 -0.921397 -1.42507 0
M  V30 968 H 89.544 -1.83795 -3.45449 0
M  V30 969 H 89.167 -0.202505 -3.97084 0
M  V30 970 N 90.1641 1.46063 -0.591896 0
M  V30 971 C 91.5751 1.85944 -0.167822 0
M  V30 972 C 91.9261 1.49429 1.27143 0
M  V30 973 O 91.0511 0.913515 1.96173 0
M  V30 974 C 91.6461 3.37489 -0.297794 0
M  V30 975 C 90.2051 3.76332 0.0714732 0
M  V30 976 C 89.3521 2.7006 -0.629509 0
M  V30 977 H 92.3031 1.37087 -0.799555 0
M  V30 978 H 92.3241 3.77532 0.474349 0
M  V30 979 H 91.8361 3.64034 -1.3454 0
M  V30 980 H 89.9371 3.55405 1.11886 0
M  V30 981 H 90.0501 4.78088 -0.311245 0
M  V30 982 H 88.4141 2.54607 -0.0687867 0
M  V30 983 H 89.1971 2.99444 -1.67894 0
M  V30 984 N 91.6422 0.330177 1.54103 0
M  V30 985 C 92.5892 -0.532762 2.24567 0
M  V30 986 C 93.5592 -1.10635 1.23892 0
M  V30 987 O 94.7442 -1.14546 1.5259 0
M  V30 988 C 91.8842 -1.6845 3.01195 0
M  V30 989 C 90.9972 -1.13951 4.167 0
M  V30 990 C 90.1322 -2.25746 4.80845 0
M  V30 991 C 89.1712 -1.6853 5.88442 0
M  V30 992 N 88.3082 -2.74014 6.46421 0
M  V30 993 H 93.1482 0.0746905 2.97906 0
M  V30 994 H 90.6852 0.048632 1.4702 0
M  V30 995 H 92.6432 -2.36234 3.43874 0
M  V30 996 H 91.2732 -2.26314 2.30178 0
M  V30 997 H 90.3252 -0.35301 3.78758 0
M  V30 998 H 91.6372 -0.680892 4.94131 0
M  V30 999 H 90.7912 -3.01422 5.26526 0
M  V30 1000 H 89.5302 -2.74947 4.0281 0
M  V30 1001 H 88.5352 -0.913543 5.42157 0
M  V30 1002 H 89.7602 -1.20198 6.68378 0
M  V30 1003 H 87.7062 -3.22494 5.71256 0
M  V30 1004 H 87.6232 -2.32735 7.19285 0
M  V30 1005 H 88.8912 -3.49499 6.96757 0
M  V30 1006 N 93.1203 -1.57491 0.0584922 0
M  V30 1007 C 94.0833 -2.1085 -0.898617 0
M  V30 1008 C 95.0833 -1.02964 -1.23511 0
M  V30 1009 O 96.2733 -1.29007 -1.17059 0
M  V30 1010 C 93.4053 -2.59881 -2.20623 0
M  V30 1011 H 94.5983 -2.96715 -0.435936 0
M  V30 1012 H 92.1513 -1.55141 -0.190023 0
M  V30 1013 H 92.8863 -1.77431 -2.71457 0
M  V30 1014 H 92.6713 -3.38727 -1.97501 0
M  V30 1015 H 94.1613 -3.01285 -2.89166 0
M  V30 1016 N 94.5984 0.214957 -1.56127 0
M  V30 1017 C 95.8284 0.953707 -1.8327 0
M  V30 1018 C 96.2364 1.78181 -0.636262 0
M  V30 1019 O 95.5794 1.79191 0.404516 0
M  V30 1020 C 95.6414 1.91516 -3.0424 0
M  V30 1021 C 95.3054 1.27094 -4.38972 0
M  V30 1022 C 96.3024 0.657575 -5.15725 0
M  V30 1023 C 93.9874 1.28073 -4.85698 0
M  V30 1024 C 95.9814 0.0625968 -6.37369 0
M  V30 1025 C 93.6684 0.681914 -6.07283 0
M  V30 1026 C 94.6664 0.0739046 -6.8296 0
M  V30 1027 O 94.3544 -0.515582 -8.02245 0
M  V30 1028 H 94.0864 0.284764 -0.613095 0
M  V30 1029 H 96.6404 0.233283 -2.04071 0
M  V30 1030 H 94.8704 2.67475 -2.79274 0
M  V30 1031 H 96.5594 2.52001 -3.18198 0
M  V30 1032 H 97.3254 0.642288 -4.80728 0
M  V30 1033 H 93.2044 1.74337 -4.26764 0
M  V30 1034 H 96.7484 -0.412593 -6.96379 0
M  V30 1035 H 92.6454 0.694636 -6.41752 0
M  V30 1036 H 93.4134 -0.410544 -8.1747 0
M  V30 1037 N 96.0765 1.50051 0.48192 0
M  V30 1038 C 97.0395 1.67584 1.5636 0
M  V30 1039 C 98.0395 0.546894 1.51214 0
M  V30 1040 O 99.2295 0.813725 1.54026 0
M  V30 1041 C 96.3615 1.691 2.96003 0
M  V30 1042 H 97.5545 2.64078 1.42136 0
M  V30 1043 H 95.1075 1.39369 0.707533 0
M  V30 1044 H 95.8425 0.742589 3.15684 0
M  V30 1045 H 95.6275 2.51105 3.01146 0
M  V30 1046 H 97.1175 1.84656 3.74556 0
M  V30 1047 N 97.5546 -0.734337 1.39446 0
M  V30 1048 C 98.4866 -1.85861 1.34121 0
M  V30 1049 C 99.4996 -1.60871 0.249864 0
M  V30 1050 O 100.689 -1.71093 0.508865 0
M  V30 1051 C 97.7886 -3.21899 1.05991 0
M  V30 1052 C 96.9616 -3.74239 2.26415 0
M  V30 1053 C 96.0206 -4.88841 1.94733 0
M  V30 1054 O 95.0466 -5.02468 2.67422 0
M  V30 1055 N 96.2486 -5.73261 0.913884 0
M  V30 1056 H 99.0136 -1.90934 2.31007 0
M  V30 1057 H 96.5746 -0.915102 1.33557 0
M  V30 1058 H 98.5666 -3.96136 0.828147 0
M  V30 1059 H 97.1366 -3.12091 0.178361 0
M  V30 1060 H 96.3566 -2.91347 2.65539 0
M  V30 1061 H 97.6446 -4.05942 3.06738 0
M  V30 1062 H 97.0426 -5.64842 0.311476 0
M  V30 1063 H 95.5996 -6.47563 0.742015 0
M  V30 1064 N 99.0327 -1.24633 -0.964593 0
M  V30 1065 C 99.9827 -1.00841 -2.04487 0
M  V30 1066 C 100.967 0.0512468 -1.60818 0
M  V30 1067 O 102.159 -0.162865 -1.76249 0
M  V30 1068 C 99.2877 -0.618474 -3.37683 0
M  V30 1069 C 98.3737 -1.71437 -3.87905 0
M  V30 1070 N 98.7647 -2.9477 -4.11029 0
M  V30 1071 C 97.0627 -1.5926 -4.16596 0
M  V30 1072 C 97.7637 -3.65834 -4.52261 0
M  V30 1073 N 96.7397 -2.9341 -4.57615 0
M  V30 1074 H 100.542 -1.94487 -2.20345 0
M  V30 1075 H 98.0557 -1.14805 -1.14863 0
M  V30 1076 H 100.053 -0.429247 -4.14684 0
M  V30 1077 H 98.7127 0.310766 -3.23209 0
M  V30 1078 H 99.7237 -3.30917 -3.9839 0
M  V30 1079 H 96.4007 -0.731606 -4.1104 0
M  V30 1080 H 97.7907 -4.71646 -4.78539 0
M  V30 1081 N 100.511 1.16574 -1.06058 0
M  V30 1082 C 101.757 1.87324 -0.777022 0
M  V30 1083 C 102.09 1.81351 0.694645 0
M  V30 1084 O 101.365 1.22753 1.50871 0
M  V30 1085 C 101.648 3.36991 -1.26922 0
M  V30 1086 C 101.501 3.51667 -2.80447 0
M  V30 1087 C 102.82 4.3131 -0.87521 0
M  V30 1088 H 99.9388 0.680191 -0.28374 0
M  V30 1089 H 102.581 1.37036 -1.3161 0
M  V30 1090 H 100.731 3.79949 -0.81063 0
M  V30 1091 H 102.403 3.17664 -3.34495 0
M  V30 1092 H 100.646 2.93656 -3.19294 0
M  V30 1093 H 101.317 4.56766 -3.0995 0
M  V30 1094 H 103.793 3.9624 -1.27014 0
M  V30 1095 H 102.669 5.34545 -1.2471 0
M  V30 1096 H 102.93 4.41552 0.220071 0
M  V30 1097 N 101.989 0.842826 1.3317 0
M  V30 1098 C 103.236 0.440447 1.97652 0
M  V30 1099 C 103.564 -1.00123 1.6675 0
M  V30 1100 O 102.819 -1.7155 0.941761 0
M  V30 1101 C 103.118 0.612607 3.52111 0
M  V30 1102 C 102.784 2.02297 4.02972 0
M  V30 1103 C 101.446 2.40874 4.16573 0
M  V30 1104 C 103.798 2.94402 4.30089 0
M  V30 1105 C 101.126 3.70852 4.54627 0
M  V30 1106 C 103.478 4.23865 4.69597 0
M  V30 1107 C 102.142 4.62392 4.81404 0
M  V30 1108 H 101.412 0.161171 0.72326 0
M  V30 1109 H 104.059 1.07061 1.58777 0
M  V30 1110 H 102.364 -0.100849 3.9167 0
M  V30 1111 H 104.061 0.2815 4.00011 0
M  V30 1112 H 100.651 1.71338 3.92863 0
M  V30 1113 H 104.835 2.65835 4.19101 0
M  V30 1114 H 100.091 4.00501 4.61962 0
M  V30 1115 H 104.265 4.95306 4.89536 0
M  V30 1116 H 101.892 5.63154 5.10648 0
M  V30 1117 N 103.467 -1.45747 0.599634 0
M  V30 1118 C 104.883 -1.57424 0.26264 0
M  V30 1119 C 105.083 -1.59222 -1.23493 0
M  V30 1120 O 104.139 -1.51825 -2.01756 0
M  V30 1121 C 105.452 -2.86061 0.926795 0
M  V30 1122 C 107 -2.99722 0.901967 0
M  V30 1123 C 107.475 -4.31119 1.54598 0
M  V30 1124 N 108.966 -4.37858 1.5111 0
M  V30 1125 C 109.701 -5.3818 1.97863 0
M  V30 1126 N 109.197 -6.45083 2.52666 0
M  V30 1127 N 110.99 -5.29487 1.88679 0
M  V30 1128 H 103.141 -1.42823 1.57211 0
M  V30 1129 H 105.404 -0.68235 0.658105 0
M  V30 1130 H 105.11 -2.90605 1.98095 0
M  V30 1131 H 104.984 -3.74563 0.445238 0
M  V30 1132 H 107.371 -2.9475 -0.143617 0
M  V30 1133 H 107.452 -2.12652 1.42171 0
M  V30 1134 H 107.096 -4.36849 2.59085 0
M  V30 1135 H 107.026 -5.16992 1.00132 0
M  V30 1136 H 109.517 -3.61209 1.11068 0
M  V30 1137 H 109.83 -7.17869 2.86155 0
M  V30 1138 H 108.175 -6.45856 2.56701 0
M  V30 1139 H 111.366 -4.44877 1.4561 0
M  V30 1140 H 111.539 -6.07524 2.25429 0
M  V30 1141 N 104.945 -0.338344 -1.53925 0
M  V30 1142 C 106.17 0.263987 -2.05713 0
M  V30 1143 C 106.595 1.43847 -1.21201 0
M  V30 1144 O 105.953 1.79904 -0.224535 0
M  V30 1145 C 106.001 0.662 -3.54471 0
M  V30 1146 O 105.105 1.76265 -3.72833 0
M  V30 1147 H 104.446 0.0448722 -0.662482 0
M  V30 1148 H 106.976 -0.491048 -1.9862 0
M  V30 1149 H 106.986 0.940594 -3.9701 0
M  V30 1150 H 105.661 -0.196937 -4.15433 0
M  V30 1151 H 104.238 1.48173 -3.42198 0
M  V30 1152 N 106.423 1.57458 -0.0668435 0
M  V30 1153 C 107.67 1.93301 0.603406 0
M  V30 1154 C 107.998 0.946486 1.69917 0
M  V30 1155 O 107.253 -0.0387021 1.95662 0
M  V30 1156 C 107.552 3.35784 1.22409 0
M  V30 1157 C 107.218 4.50179 0.254955 0
M  V30 1158 C 105.88 4.81199 -0.0116746 0
M  V30 1159 C 108.232 5.19598 -0.408338 0
M  V30 1160 C 105.56 5.78978 -0.94877 0
M  V30 1161 C 107.912 6.18381 -1.33372 0
M  V30 1162 C 106.576 6.47821 -1.60887 0
M  V30 1163 H 105.846 0.707338 0.220802 0
M  V30 1164 H 108.493 1.91012 -0.136665 0
M  V30 1165 H 106.798 3.34515 2.03978 0
M  V30 1166 H 108.495 3.60804 1.74989 0
M  V30 1167 H 105.085 4.25983 0.472954 0
M  V30 1168 H 109.269 4.95832 -0.215456 0
M  V30 1169 H 104.525 6.00115 -1.16925 0
M  V30 1170 H 108.699 6.71277 -1.85367 0
M  V30 1171 H 106.326 7.23399 -2.33661 0
M  V30 1172 N 107.901 -0.206675 1.56239 0
M  V30 1173 C 109.178 -0.954051 1.70755 0
M  V30 1174 C 109.558 -2.01841 0.618353 0
M  V30 1175 O 108.906 -2.25444 -0.372434 0
M  V30 1176 C 109.116 -1.551 3.12642 0
M  V30 1177 C 110.464 -2.03757 3.72516 0
M  V30 1178 O 111.488 -1.64965 3.15698 0
M  V30 1179 O 110.347 -2.75103 4.72208 0
M  V30 1180 H 107.441 -0.446636 0.696021 0
M  V30 1181 H 109.987 -0.197283 1.68549 0
M  V30 1182 H 108.759 -0.783212 3.83382 0
M  V30 1183 H 108.382 -2.37291 3.19028 0
M  V30 1184 N 109.379 -1.50304 -0.473955 0
M  V30 1185 C 110.604 -1.65175 -1.25427 0
M  V30 1186 C 111.029 -0.333673 -1.85117 0
M  V30 1187 O 110.387 0.702114 -1.67153 0
M  V30 1188 C 110.435 -2.74295 -2.34082 0
M  V30 1189 O 109.539 -2.35349 -3.38651 0
M  V30 1190 H 108.88 -0.551944 -0.369126 0
M  V30 1191 H 111.41 -1.96662 -0.564364 0
M  V30 1192 H 111.42 -2.97285 -2.79438 0
M  V30 1193 H 110.095 -3.69959 -1.90008 0
M  V30 1194 H 108.672 -2.22794 -2.99027 0
M  V30 1195 N 110.857 0.726932 -1.39834 0
M  V30 1196 C 111.805 1.86235 -1.39353 0
M  V30 1197 C 112.799 1.67144 -0.275555 0
M  V30 1198 O 114.005 1.74387 -0.44601 0
M  V30 1199 H 110.38 0.613174 -0.43534 0
M  V30 1200 H 112.351 1.83756 -2.35109 0
M  V30 1201 C 111.1 3.23995 -1.26185 0
M  V30 1202 H 110.423 3.39285 -2.11484 0
M  V30 1203 H 111.863 4.03609 -1.29907 0
M  V30 1204 C 110.322 3.36888 0.0290018 0
M  V30 1205 O 110.852 3.89152 0.99619 0
M  V30 1206 N 109.058 2.90446 0.0947437 0
M  V30 1207 H 108.605 2.48102 -0.693035 0
M  V30 1208 H 108.563 2.99451 0.957932 0
M  V30 1209 N 112.336 1.25143 0.95797 0
M  V30 1210 C 113.266 1.07711 2.07173 0
M  V30 1211 C 114.247 -0.0128462 1.70095 0
M  V30 1212 O 115.432 0.156061 1.93572 0
M  V30 1213 C 112.562 0.691503 3.40346 0
M  V30 1214 C 111.516 1.73132 3.9142 0
M  V30 1215 C 110.842 1.20049 5.21049 0
M  V30 1216 C 112.142 3.1294 4.1817 0
M  V30 1217 H 113.836 2.00873 2.22014 0
M  V30 1218 H 111.382 0.967191 1.06684 0
M  V30 1219 H 113.335 0.556505 4.17709 0
M  V30 1220 H 112.059 -0.275819 3.25433 0
M  V30 1221 H 110.718 1.8547 3.16222 0
M  V30 1222 H 110.366 0.223499 5.02503 0
M  V30 1223 H 110.066 1.89545 5.56189 0
M  V30 1224 H 111.59 1.07782 6.01012 0
M  V30 1225 H 113.004 3.03775 4.86203 0
M  V30 1226 H 111.401 3.79875 4.64559 0
M  V30 1227 H 112.471 3.6025 3.24573 0
M  V30 1228 N 113.814 -1.1601 1.06675 0
M  V30 1229 C 115.091 -1.82679 0.699114 0
M  V30 1230 C 115.471 -1.94559 -0.819137 0
M  V30 1231 O 114.819 -1.49169 -1.73092 0
M  V30 1232 C 115.029 -3.19445 1.40555 0
M  V30 1233 C 116.377 -3.95171 1.55323 0
M  V30 1234 O 117.401 -3.28976 1.36577 0
M  V30 1235 O 116.26 -5.13833 1.86112 0
M  V30 1236 H 113.354 -0.788954 0.247951 0
M  V30 1237 H 115.9 -1.23179 1.16726 0
M  V30 1238 H 114.672 -3.05856 2.44065 0
M  V30 1239 H 114.295 -3.86625 0.927733 0
M  V30 1240 N 115.292 -0.849877 -1.32721 0
M  V30 1241 C 116.54 -0.450032 -1.97026 0
M  V30 1242 C 116.861 0.996604 -1.67609 0
M  V30 1243 O 116.131 1.6958 -0.980786 0
M  V30 1244 H 114.711 -0.163426 -0.728904 0
M  V30 1245 H 117.373 -1.08526 -1.6189 0
M  V30 1246 H 116.469 -0.591146 -3.0645 0
M  V30 1247 N 116.77 1.45427 -0.607355 0
M  V30 1248 C 117.998 2.06614 -0.108814 0
M  V30 1249 C 118.413 1.45204 1.2067 0
M  V30 1250 O 117.77 0.566132 1.73497 0
M  V30 1251 C 117.821 3.61481 0.0375347 0
M  V30 1252 O 117.542 4.20598 -1.22593 0
M  V30 1253 C 119.043 4.39652 0.567561 0
M  V30 1254 H 116.263 0.66747 -0.0687351 0
M  V30 1255 H 118.807 1.86675 -0.835022 0
M  V30 1256 H 116.962 3.80762 0.714068 0
M  V30 1257 H 117.376 5.1377 -1.05547 0
M  V30 1258 H 118.85 5.48518 0.61905 0
M  V30 1259 H 119.327 4.09417 1.58978 0
M  V30 1260 H 119.933 4.25234 -0.0749202 0
M  V30 1261 N 118.248 0.346503 1.53744 0
M  V30 1262 C 119.178 -0.501193 2.28058 0
M  V30 1263 C 120.159 -1.10014 1.29734 0
M  V30 1264 O 121.344 -1.12097 1.58581 0
M  V30 1265 C 118.474 -1.65078 3.05559 0
M  V30 1266 C 117.428 -1.18003 4.11411 0
M  V30 1267 C 116.754 -2.41837 4.76884 0
M  V30 1268 C 118.054 -0.278394 5.21558 0
M  V30 1269 H 119.748 0.11875 2.99164 0
M  V30 1270 H 117.294 0.0585531 1.43881 0
M  V30 1271 H 119.247 -2.25028 3.56287 0
M  V30 1272 H 117.971 -2.29767 2.32109 0
M  V30 1273 H 116.63 -0.603331 3.61601 0
M  V30 1274 H 116.278 -3.0494 4.00026 0
M  V30 1275 H 115.978 -2.1102 5.48402 0
M  V30 1276 H 117.502 -3.02508 5.30397 0
M  V30 1277 H 118.916 -0.784823 5.67903 0
M  V30 1278 H 117.313 -0.0619707 6.00068 0
M  V30 1279 H 118.383 0.684677 4.80042 0
M  V30 1280 N 119.726 -1.57421 0.075193 0
M  V30 1281 C 121.003 -1.85029 -0.634329 0
M  V30 1282 C 121.383 -0.968305 -1.87582 0
M  V30 1283 O 120.731 -0.0354749 -2.28472 0
M  V30 1284 C 120.941 -3.35286 -0.968742 0
M  V30 1285 C 122.289 -4.02875 -1.34077 0
M  V30 1286 O 123.313 -3.40051 -1.06037 0
M  V30 1287 O 122.172 -5.13691 -1.86506 0
M  V30 1288 H 119.266 -0.7645 -0.315387 0
M  V30 1289 H 121.812 -1.69366 0.106382 0
M  V30 1290 H 120.584 -3.91203 -0.0871376 0
M  V30 1291 H 120.207 -3.56223 -1.7661 0
M  V30 1292 N 121.204 0.198386 -1.56346 0
M  V30 1293 C 122.451 0.919286 -1.80431 0
M  V30 1294 C 122.779 1.83393 -0.647866 0
M  V30 1295 O 122.034 1.92236 0.366556 0
M  V30 1296 C 122.333 1.77031 -3.10475 0
M  V30 1297 C 121.999 1.00693 -4.39513 0
M  V30 1298 C 120.661 0.796145 -4.74568 0
M  V30 1299 C 123.013 0.469559 -5.19081 0
M  V30 1300 C 120.341 0.0364588 -5.86689 0
M  V30 1301 C 122.693 -0.2769 -6.31994 0
M  V30 1302 C 121.357 -0.49873 -6.65634 0
M  V30 1303 H 120.627 0.336391 -0.660244 0
M  V30 1304 H 123.274 0.185872 -1.90596 0
M  V30 1305 H 121.579 2.5723 -2.95533 0
M  V30 1306 H 123.276 2.33065 -3.26315 0
M  V30 1307 H 119.866 1.18122 -4.12001 0
M  V30 1308 H 124.05 0.619816 -4.92414 0
M  V30 1309 H 119.306 -0.145412 -6.11227 0
M  V30 1310 H 123.48 -0.700684 -6.92866 0
M  V30 1311 H 121.107 -1.0893 -7.52355 0
M  V30 1312 N 122.682 1.50554 0.465978 0
M  V30 1313 C 123.629 1.6979 1.56333 0
M  V30 1314 C 124.599 0.539239 1.57103 0
M  V30 1315 O 125.784 0.770401 1.74555 0
M  V30 1316 C 122.924 1.80273 2.94271 0
M  V30 1317 C 122.037 3.07674 3.0325 0
M  V30 1318 C 121.172 3.08922 4.32135 0
M  V30 1319 C 120.211 4.30755 4.34875 0
M  V30 1320 N 119.348 4.29714 5.55239 0
M  V30 1321 H 124.188 2.63472 1.39235 0
M  V30 1322 H 121.725 1.30602 0.676873 0
M  V30 1323 H 123.683 1.84332 3.74269 0
M  V30 1324 H 122.313 0.900258 3.09992 0
M  V30 1325 H 121.365 3.13062 2.16094 0
M  V30 1326 H 122.677 3.97642 3.01135 0
M  V30 1327 H 121.831 3.11738 5.20485 0
M  V30 1328 H 120.57 2.16792 4.36866 0
M  V30 1329 H 119.575 4.28146 3.44922 0
M  V30 1330 H 120.8 5.24117 4.31831 0
M  V30 1331 H 118.746 3.4044 5.60746 0
M  V30 1332 H 118.663 5.13456 5.54886 0
M  V30 1333 H 119.931 4.36683 6.457 0
M  V30 1334 N 124.16 -0.719506 1.40217 0
M  V30 1335 C 125.07 -1.86378 1.42479 0
M  V30 1336 C 126.086 -1.71073 0.317834 0
M  V30 1337 O 127.262 -1.93406 0.561794 0
M  V30 1338 C 124.327 -3.22136 1.28178 0
M  V30 1339 C 123.388 -3.49723 2.48982 0
M  V30 1340 C 122.621 -4.79004 2.35353 0
M  V30 1341 O 122.844 -5.53821 1.36524 0
M  V30 1342 O 121.778 -5.06839 3.2465 0
M  V30 1343 H 125.604 -1.87425 2.38968 0
M  V30 1344 H 123.189 -0.869405 1.21498 0
M  V30 1345 H 125.071 -4.03234 1.22395 0
M  V30 1346 H 123.746 -3.21825 0.347934 0
M  V30 1347 H 122.653 -2.6865 2.60342 0
M  V30 1348 H 123.986 -3.54828 3.41113 0
M  V30 1349 N 125.638 -1.25649 -0.95132 0
M  V30 1350 C 126.868 -1.13179 -1.72841 0
M  V30 1351 C 127.276 0.316827 -1.86528 0
M  V30 1352 O 126.619 1.22948 -1.3649 0
M  V30 1353 C 126.681 -1.71644 -3.15878 0
M  V30 1354 C 126.345 -3.20667 -3.25609 0
M  V30 1355 C 127.342 -4.17616 -3.09666 0
M  V30 1356 C 125.027 -3.6094 -3.49324 0
M  V30 1357 C 127.021 -5.52817 -3.17289 0
M  V30 1358 C 124.708 -4.96278 -3.56584 0
M  V30 1359 C 125.706 -5.92025 -3.40581 0
M  V30 1360 O 125.394 -7.24899 -3.47528 0
M  V30 1361 H 125.126 -0.395389 -0.54831 0
M  V30 1362 H 127.68 -1.66566 -1.20187 0
M  V30 1363 H 125.91 -1.12707 -3.69911 0
M  V30 1364 H 127.599 -1.54225 -3.75459 0
M  V30 1365 H 128.365 -3.87842 -2.91211 0
M  V30 1366 H 124.244 -2.86907 -3.6084 0
M  V30 1367 H 127.788 -6.2753 -3.04716 0
M  V30 1368 H 123.685 -5.25716 -3.74556 0
M  V30 1369 H 124.453 -7.33039 -3.64138 0
M  V30 1370 N 127.117 1.15442 -1.07289 0
M  V30 1371 C 128.363 1.86489 -0.796846 0
M  V30 1372 C 128.696 1.82078 0.675371 0
M  V30 1373 O 127.971 1.24346 1.4956 0
M  V30 1374 C 128.254 3.35626 -1.30489 0
M  V30 1375 C 128.107 3.48673 -2.84161 0
M  V30 1376 C 129.426 4.30357 -0.920907 0
M  V30 1377 H 126.545 0.677144 -0.290939 0
M  V30 1378 H 129.187 1.35633 -1.33056 0
M  V30 1379 H 127.337 3.79068 -0.850883 0
M  V30 1380 H 129.009 3.14099 -3.37846 0
M  V30 1381 H 127.252 2.90253 -3.22391 0
M  V30 1382 H 127.923 4.53453 -3.14777 0
M  V30 1383 H 130.399 3.94871 -1.3121 0
M  V30 1384 H 129.275 5.33193 -1.30372 0
M  V30 1385 H 129.536 4.4176 0.173226 0
M  V30 1386 N 128.595 0.856903 1.32268 0
M  V30 1387 C 129.844 0.457599 1.96441 0
M  V30 1388 C 130.157 -0.992426 1.68553 0
M  V30 1389 O 131.363 -1.49727 2.26482 0
M  V30 1390 C 129.819 0.767358 3.51624 0
M  V30 1391 C 129.427 2.23326 3.88367 0
M  V30 1392 C 131.171 0.435887 4.22256 0
M  V30 1393 C 129.078 2.48613 5.36606 0
M  V30 1394 H 128.008 0.167387 0.735185 0
M  V30 1395 H 130.659 1.048 1.5063 0
M  V30 1396 H 129.041 0.106367 3.95857 0
M  V30 1397 H 130.215 2.93623 3.55137 0
M  V30 1398 H 128.53 2.52948 3.30766 0
M  V30 1399 H 131.127 0.602202 5.31298 0
M  V30 1400 H 131.47 -0.622672 4.11617 0
M  V30 1401 H 132.003 1.05286 3.83614 0
M  V30 1402 H 128.742 3.53101 5.52268 0
M  V30 1403 H 128.262 1.82896 5.71235 0
M  V30 1404 H 129.941 2.32676 6.03714 0
M  V30 1405 N 130.073 -1.45103 0.615059 0
M  V30 1406 C 131.036 -2.29025 -0.0895485 0
M  V30 1407 C 132.036 -1.40174 -0.787906 0
M  V30 1408 O 133.226 -1.62217 -0.634933 0
M  V30 1409 C 130.358 -3.21376 -1.13711 0
M  V30 1410 H 131.551 -2.92807 0.648382 0
M  V30 1411 H 129.104 -1.51749 0.374444 0
M  V30 1412 H 129.839 -2.6241 -1.90556 0
M  V30 1413 H 129.624 -3.86834 -0.640475 0
M  V30 1414 H 131.114 -3.84459 -1.63036 0
M  V30 1415 N 131.551 -0.354651 -1.53558 0
M  V30 1416 C 132.481 0.489091 -2.2832 0
M  V30 1417 C 133.462 1.09324 -1.30316 0
M  V30 1418 O 134.647 1.11255 -1.59173 0
M  V30 1419 C 131.777 1.63456 -3.0643 0
M  V30 1420 C 130.731 1.1582 -4.12031 0
M  V30 1421 C 130.057 2.39305 -4.7816 0
M  V30 1422 C 131.357 0.250731 -5.21698 0
M  V30 1423 H 133.051 -0.134614 -2.99097 0
M  V30 1424 H 130.597 -0.0661826 -1.43848 0
M  V30 1425 H 132.55 2.23136 -3.57475 0
M  V30 1426 H 131.274 2.28533 -2.33325 0
M  V30 1427 H 129.933 0.584146 -3.61916 0
M  V30 1428 H 129.581 3.02814 -4.01637 0
M  V30 1429 H 129.281 2.08109 -5.49513 0
M  V30 1430 H 130.805 2.99691 -5.31994 0
M  V30 1431 H 132.219 0.754695 -5.68311 0
M  V30 1432 H 130.616 0.0301468 -6.00092 0
M  V30 1433 H 131.686 -0.710125 -4.79672 0
M  V30 1434 N 133.029 1.57378 -0.0835403 0
M  V30 1435 C 133.979 2.09916 0.889905 0
M  V30 1436 C 134.963 1.01151 1.25129 0
M  V30 1437 O 136.155 1.27443 1.2283 0
M  V30 1438 C 133.284 2.67379 2.15322 0
M  V30 1439 C 132.37 3.83167 1.81779 0
M  V30 1440 N 132.761 4.91665 1.18739 0
M  V30 1441 C 131.059 3.92685 2.11459 0
M  V30 1442 C 131.76 5.72409 1.0355 0
M  V30 1443 N 130.736 5.21062 1.54906 0
M  V30 1444 H 134.538 2.91188 0.398378 0
M  V30 1445 H 132.052 1.61956 0.120013 0
M  V30 1446 H 134.049 3.0334 2.8599 0
M  V30 1447 H 132.709 1.87558 2.65051 0
M  V30 1448 H 133.72 5.10784 0.855604 0
M  V30 1449 H 130.397 3.23856 2.63483 0
M  V30 1450 H 131.787 6.69699 0.543425 0
M  V30 1451 N 134.507 -0.190092 1.56449 0
M  V30 1452 C 135.44 -1.26375 1.90012 0
M  V30 1453 C 136.418 -1.43705 0.760765 0
M  V30 1454 O 137.602 -1.59014 1.01226 0
M  V30 1455 C 134.729 -2.62962 2.13468 0
M  V30 1456 C 133.775 -2.62474 3.36169 0
M  V30 1457 S 134.608 -2.13412 4.91137 0
M  V30 1458 C 135.764 -3.51812 5.17667 0
M  V30 1459 H 135.997 -0.977181 2.80782 0
M  V30 1460 H 133.53 -0.393814 1.49293 0
M  V30 1461 H 135.488 -3.41583 2.27664 0
M  V30 1462 H 134.149 -2.88828 1.23439 0
M  V30 1463 H 133.342 -3.62918 3.49723 0
M  V30 1464 H 132.944 -1.91937 3.20992 0
M  V30 1465 H 135.236 -4.47706 5.08494 0
M  V30 1466 H 136.179 -3.43148 6.19399 0
M  V30 1467 H 136.587 -3.46956 4.45288 0
M  V30 1468 N 135.985 -1.50799 -0.457987 0
M  V30 1469 C 137.213 -1.66218 -1.23203 0
M  V30 1470 C 137.628 -0.350894 -1.85511 0
M  V30 1471 O 136.985 0.668546 -1.69814 0
M  V30 1472 C 137.036 -2.76291 -2.33121 0
M  V30 1473 O 136.757 -4.02338 -1.73366 0
M  V30 1474 C 138.258 -3.028 -3.2377 0
M  V30 1475 H 135.478 -0.558361 -0.372121 0
M  V30 1476 H 138.022 -1.97099 -0.545179 0
M  V30 1477 H 136.177 -2.48068 -2.97558 0
M  V30 1478 H 136.591 -4.63312 -2.4585 0
M  V30 1479 H 138.065 -3.8345 -3.97077 0
M  V30 1480 H 138.542 -2.14385 -3.83322 0
M  V30 1481 H 139.148 -3.32604 -2.65056 0
M  V30 1482 N 137.463 0.71206 -1.40597 0
M  V30 1483 C 138.691 1.50111 -1.42388 0
M  V30 1484 C 139.106 1.88784 -0.0245395 0
M  V30 1485 O 138.463 1.55681 0.952351 0
M  V30 1486 C 138.514 2.7742 -2.31776 0
M  V30 1487 O 138.235 2.40382 -3.66262 0
M  V30 1488 C 139.736 3.7129 -2.42196 0
M  V30 1489 H 136.956 0.46314 -0.485533 0
M  V30 1490 H 139.5 0.878068 -1.8469 0
M  V30 1491 H 137.655 3.36001 -1.92827 0
M  V30 1492 H 138.069 3.22324 -4.13772 0
M  V30 1493 H 139.543 4.57448 -3.08943 0
M  V30 1494 H 140.02 4.14641 -1.44809 0
M  V30 1495 H 140.626 3.18619 -2.81712 0
M  V30 1496 N 138.941 1.26152 0.944643 0
M  V30 1497 C 139.904 1.07474 2.0244 0
M  V30 1498 C 140.904 0.0242064 1.60782 0
M  V30 1499 O 142.094 0.267302 1.72137 0
M  V30 1500 C 139.226 0.633956 3.34953 0
M  V30 1501 H 140.419 2.03336 2.20442 0
M  V30 1502 H 137.972 1.087 1.12312 0
M  V30 1503 H 138.707 -0.326811 3.22649 0
M  V30 1504 H 138.492 1.39247 3.66542 0
M  V30 1505 H 139.982 0.52501 4.14287 0
M  V30 1506 N 140.419 -1.14872 1.07899 0
M  V30 1507 C 141.667 -1.85422 0.803941 0
M  V30 1508 C 141.988 -1.83051 -0.67211 0
M  V30 1509 O 141.258 -1.27532 -1.48703 0
M  V30 1510 H 139.838 -0.686537 0.294408 0
M  V30 1511 H 142.5 -1.39226 1.3639 0
M  V30 1512 H 141.596 -2.90399 1.14346 0
M  V30 1513 N 141.898 -0.863906 -1.31812 0
M  V30 1514 C 142.845 -0.313303 -2.28664 0
M  V30 1515 C 143.815 0.584868 -1.55462 0
M  V30 1516 O 145 0.517805 -1.83639 0
M  V30 1517 C 142.14 0.48441 -3.41683 0
M  V30 1518 C 141.253 -0.440594 -4.29747 0
M  V30 1519 C 140.388 0.370652 -5.29905 0
M  V30 1520 C 139.427 -0.551164 -6.09613 0
M  V30 1521 N 138.564 0.223462 -7.01744 0
M  V30 1522 H 143.404 -1.14444 -2.75148 0
M  V30 1523 H 140.941 -0.575769 -1.35364 0
M  V30 1524 H 142.899 0.962627 -4.05943 0
M  V30 1525 H 141.529 1.28029 -2.96325 0
M  V30 1526 H 140.581 -1.03724 -3.65986 0
M  V30 1527 H 141.893 -1.14767 -4.85417 0
M  V30 1528 H 141.047 0.911638 -5.99812 0
M  V30 1529 H 139.786 1.11105 -4.74876 0
M  V30 1530 H 138.791 -1.10396 -5.38603 0
M  V30 1531 H 140.016 -1.29032 -6.66729 0
M  V30 1532 H 137.962 0.946787 -6.49132 0
M  V30 1533 H 137.879 -0.424399 -7.54808 0
M  V30 1534 H 139.147 0.745876 -7.75923 0
M  V30 1535 N 143.376 1.44774 -0.622745 0
M  V30 1536 C 144.604 2.06487 -0.130722 0
M  V30 1537 C 145.019 1.46476 1.19123 0
M  V30 1538 O 144.376 0.584502 1.72887 0
M  V30 1539 C 144.427 3.615 -0.000807207 0
M  V30 1540 O 144.148 4.19274 -1.27048 0
M  V30 1541 C 145.649 4.40229 0.520898 0
M  V30 1542 H 142.869 0.666704 -0.0758106 0
M  V30 1543 H 145.413 1.85779 -0.854774 0
M  V30 1544 H 143.568 3.81498 0.673643 0
M  V30 1545 H 143.982 5.12622 -1.1099 0
M  V30 1546 H 145.456 5.49144 0.560838 0
M  V30 1547 H 145.933 4.1108 1.54627 0
M  V30 1548 H 146.539 4.25131 -0.120018 0
M  V30 1549 N 144.854 0.36279 1.53368 0
M  V30 1550 C 145.802 -0.500155 2.27159 0
M  V30 1551 C 146.796 -1.08575 1.3003 0
M  V30 1552 O 148.002 -1.02927 1.47668 0
M  V30 1553 H 144.377 -0.180009 0.730138 0
M  V30 1554 H 146.348 0.14401 2.98052 0
M  V30 1555 C 145.097 -1.62937 3.07159 0
M  V30 1556 H 144.42 -1.18806 3.8174 0
M  V30 1557 H 145.86 -2.20795 3.61975 0
M  V30 1558 C 144.319 -2.57007 2.17829 0
M  V30 1559 O 144.849 -3.59752 1.78721 0
M  V30 1560 N 143.055 -2.26131 1.82518 0
M  V30 1561 H 142.602 -1.42616 2.14519 0
M  V30 1562 H 142.56 -2.89327 1.23034 0
M  V30 1563 N 146.332 -1.57332 0.0918853 0
M  V30 1564 C 147.264 -2.10869 -0.898168 0
M  V30 1565 C 148.277 -1.04521 -1.24817 0
M  V30 1566 O 149.466 -1.31977 -1.20184 0
M  V30 1567 C 146.566 -2.57083 -2.2082 0
M  V30 1568 C 145.739 -3.87229 -2.03402 0
M  V30 1569 C 144.798 -4.19324 -3.17889 0
M  V30 1570 O 143.824 -4.88598 -2.91994 0
M  V30 1571 N 145.026 -3.74471 -4.43567 0
M  V30 1572 H 147.791 -2.96439 -0.440943 0
M  V30 1573 H 145.352 -1.61631 -0.0933064 0
M  V30 1574 H 147.344 -2.75602 -2.96354 0
M  V30 1575 H 145.914 -1.76541 -2.57977 0
M  V30 1576 H 145.134 -3.7789 -1.12218 0
M  V30 1577 H 146.422 -4.72379 -1.89038 0
M  V30 1578 H 145.82 -3.18546 -4.67488 0
M  V30 1579 H 144.377 -3.98151 -5.16061 0
M  V30 1580 N 147.81 0.181792 -1.56548 0
M  V30 1581 C 148.757 1.22521 -1.95595 0
M  V30 1582 C 149.727 1.4454 -0.818373 0
M  V30 1583 O 150.912 1.57454 -1.07763 0
M  V30 1584 C 148.052 2.56193 -2.31212 0
M  V30 1585 C 147.165 2.41641 -3.58097 0
M  V30 1586 C 146.3 3.68108 -3.82975 0
M  V30 1587 C 145.339 3.48445 -5.03242 0
M  V30 1588 N 144.476 4.66956 -5.24306 0
M  V30 1589 H 149.316 0.885226 -2.84548 0
M  V30 1590 H 146.853 0.425718 -1.40805 0
M  V30 1591 H 148.811 3.34088 -2.49882 0
M  V30 1592 H 147.441 2.88208 -1.45382 0
M  V30 1593 H 146.493 1.54976 -3.474 0
M  V30 1594 H 147.805 2.23052 -4.46149 0
M  V30 1595 H 146.959 4.54441 -4.01956 0
M  V30 1596 H 145.698 3.89666 -2.93278 0
M  V30 1597 H 144.703 2.60499 -4.8417 0
M  V30 1598 H 145.928 3.2832 -5.9446 0
M  V30 1599 H 143.874 4.88752 -4.37559 0
M  V30 1600 H 143.791 4.51242 -6.06561 0
M  V30 1601 H 145.059 5.54602 -5.47756 0
M  V30 1602 N 149.288 1.51039 0.449983 0
M  V30 1603 C 150.218 1.74379 1.55288 0
M  V30 1604 C 151.199 0.593236 1.5942 0
M  V30 1605 O 152.384 0.834625 1.7535 0
M  V30 1606 C 149.514 1.85728 2.93466 0
M  V30 1607 C 148.468 3.01078 3.04197 0
M  V30 1608 C 147.794 2.97595 4.44231 0
M  V30 1609 C 149.094 4.41254 2.7945 0
M  V30 1610 H 150.788 2.66725 1.36008 0
M  V30 1611 H 148.334 1.2835 0.652864 0
M  V30 1612 H 150.287 2.0064 3.70569 0
M  V30 1613 H 149.011 0.900207 3.13949 0
M  V30 1614 H 147.67 2.85851 2.29531 0
M  V30 1615 H 147.318 1.99691 4.61663 0
M  V30 1616 H 147.018 3.75046 4.52343 0
M  V30 1617 H 148.542 3.14583 5.23326 0
M  V30 1618 H 149.956 4.56897 3.46292 0
M  V30 1619 H 148.353 5.20315 2.98985 0
M  V30 1620 H 149.423 4.52164 1.75144 0
M  V30 1621 N 150.766 -0.704594 1.40972 0
M  V30 1622 C 151.676 -1.84856 1.44448 0
M  V30 1623 C 152.692 -1.70726 0.335961 0
M  V30 1624 O 153.868 -1.92799 0.582276 0
M  V30 1625 C 150.933 -3.20758 1.31587 0
M  V30 1626 C 149.994 -3.47063 2.52677 0
M  V30 1627 C 149.227 -4.76481 2.4042 0
M  V30 1628 O 149.45 -5.52341 1.42391 0
M  V30 1629 O 148.384 -5.03367 3.30007 0
M  V30 1630 H 152.21 -1.8488 2.40942 0
M  V30 1631 H 149.795 -0.85647 1.22413 0
M  V30 1632 H 151.677 -4.01913 1.26665 0
M  V30 1633 H 150.352 -3.21438 0.382049 0
M  V30 1634 H 149.259 -2.65873 2.63177 0
M  V30 1635 H 150.592 -3.5119 3.44858 0
M  V30 1636 N 152.244 -1.26651 -0.937939 0
M  V30 1637 C 153.49 -1.13562 -1.68746 0
M  V30 1638 C 153.845 0.317241 -1.89767 0
M  V30 1639 O 153.138 1.22939 -1.46957 0
M  V30 1640 C 153.332 -1.84168 -3.06295 0
M  V30 1641 C 153.161 -3.36171 -2.98696 0
M  V30 1642 C 151.931 -4.05468 -3.01535 0
M  V30 1643 C 154.129 -4.32312 -2.78588 0
M  V30 1644 N 152.111 -5.44118 -2.84269 0
M  V30 1645 C 153.482 -5.58159 -2.69924 0
M  V30 1646 C 155.537 -4.22524 -2.63396 0
M  V30 1647 C 154.24 -6.75335 -2.47618 0
M  V30 1648 C 156.266 -5.39411 -2.42466 0
M  V30 1649 C 155.628 -6.64208 -2.34536 0
M  V30 1650 H 151.727 -0.470361 -0.624728 0
M  V30 1651 H 154.311 -1.59982 -1.10968 0
M  V30 1652 H 152.482 -1.40219 -3.62206 0
M  V30 1653 H 154.214 -1.63674 -3.70126 0
M  V30 1654 H 150.969 -3.56854 -3.11372 0
M  V30 1655 H 151.393 -6.1693 -2.78795 0
M  V30 1656 H 156.035 -3.26771 -2.68292 0
M  V30 1657 H 153.753 -7.71182 -2.41463 0
M  V30 1658 H 157.339 -5.33711 -2.31611 0
M  V30 1659 H 156.219 -7.53129 -2.18555 0
M  V30 1660 N 153.722 1.14298 -1.08507 0
M  V30 1661 C 154.685 2.17607 -0.719711 0
M  V30 1662 C 155.685 1.58907 0.245997 0
M  V30 1663 O 156.875 1.74181 0.0254081 0
M  V30 1664 C 154.007 3.40842 -0.0627695 0
M  V30 1665 H 155.2 2.51443 -1.63452 0
M  V30 1666 H 152.753 1.28963 -0.88307 0
M  V30 1667 H 153.488 3.12587 0.863716 0
M  V30 1668 H 153.273 3.84713 -0.757504 0
M  V30 1669 H 154.763 4.17221 0.177786 0
M  V30 1670 N 155.201 0.870884 1.31352 0
M  V30 1671 C 156.448 0.482273 1.96673 0
M  V30 1672 C 156.776 -0.965638 1.68836 0
M  V30 1673 O 156.031 -1.69514 0.977937 0
M  V30 1674 C 156.33 0.687157 3.50732 0
M  V30 1675 C 155.996 2.108 3.9859 0
M  V30 1676 C 154.658 2.49656 4.1137 0
M  V30 1677 C 157.01 3.03459 4.23748 0
M  V30 1678 C 154.338 3.80412 4.46659 0
M  V30 1679 C 156.69 4.3373 4.60501 0
M  V30 1680 C 155.354 4.725 4.71487 0
M  V30 1681 H 154.624 0.176476 0.719679 0
M  V30 1682 H 157.271 1.10405 1.56471 0
M  V30 1683 H 155.576 -0.0177476 3.91796 0
M  V30 1684 H 157.273 0.366284 3.99324 0
M  V30 1685 H 153.863 1.79633 3.8914 0
M  V30 1686 H 158.047 2.74665 4.13368 0
M  V30 1687 H 153.303 4.1021 4.53362 0
M  V30 1688 H 157.477 5.05578 4.78919 0
M  V30 1689 H 155.104 5.73859 4.98588 0
M  V30 1690 N 156.679 -1.44442 0.630414 0
M  V30 1691 C 157.904 -2.06927 0.139944 0
M  V30 1692 C 158.329 -1.46795 -1.17613 0
M  V30 1693 O 157.687 -0.569144 -1.72135 0
M  V30 1694 C 157.735 -3.6058 0.0379581 0
M  V30 1695 O 156.839 -3.99937 -1.0062 0
M  V30 1696 H 156.18 -0.658608 0.0844483 0
M  V30 1697 H 158.71 -1.85327 0.866891 0
M  V30 1698 H 158.72 -4.07714 -0.152856 0
M  V30 1699 H 157.395 -4.03728 0.998809 0
M  V30 1700 H 155.972 -3.64436 -0.79001 0
M  V30 1701 N 158.157 -0.370918 -1.53173 0
M  V30 1702 C 159.087 0.464847 -2.28826 0
M  V30 1703 C 160.068 1.07936 -1.31468 0
M  V30 1704 O 161.253 1.0956 -1.60344 0
M  V30 1705 C 158.383 1.60196 -3.08147 0
M  V30 1706 C 157.337 1.11443 -4.13237 0
M  V30 1707 C 156.663 2.3422 -4.80672 0
M  V30 1708 C 157.963 0.195384 -5.21934 0
M  V30 1709 H 159.657 -0.166329 -2.98938 0
M  V30 1710 H 157.203 -0.0814359 -1.4377 0
M  V30 1711 H 159.156 2.19332 -3.59822 0
M  V30 1712 H 157.88 2.26045 -2.35735 0
M  V30 1713 H 156.539 0.545727 -3.62515 0
M  V30 1714 H 156.187 2.98537 -4.04827 0
M  V30 1715 H 155.887 2.02269 -5.51689 0
M  V30 1716 H 157.411 2.94032 -5.35143 0
M  V30 1717 H 158.825 0.694375 -5.69079 0
M  V30 1718 H 157.222 -0.0335027 -6.00091 0
M  V30 1719 H 158.292 -0.760961 -4.78892 0
M  V30 1720 N 159.635 1.57281 -0.100228 0
M  V30 1721 C 160.865 1.98591 0.569681 0
M  V30 1722 C 161.273 0.978315 1.61943 0
M  V30 1723 O 160.616 -0.0396108 1.83657 0
M  V30 1724 C 160.678 3.36282 1.271 0
M  V30 1725 C 160.342 4.55488 0.371409 0
M  V30 1726 C 161.339 5.18491 -0.382504 0
M  V30 1727 C 159.024 5.01474 0.287965 0
M  V30 1728 C 161.018 6.25852 -1.20779 0
M  V30 1729 C 158.705 6.08701 -0.540965 0
M  V30 1730 C 159.703 6.70755 -1.28749 0
M  V30 1731 O 159.391 7.75914 -2.10269 0
M  V30 1732 H 159.123 0.65752 0.156982 0
M  V30 1733 H 161.677 2.0463 -0.177734 0
M  V30 1734 H 159.907 3.26941 2.0651 0
M  V30 1735 H 161.596 3.62005 1.83595 0
M  V30 1736 H 162.362 4.83891 -0.3278 0
M  V30 1737 H 158.241 4.52932 0.858689 0
M  V30 1738 H 161.785 6.74218 -1.79096 0
M  V30 1739 H 157.682 6.42732 -0.597131 0
M  V30 1740 H 158.45 7.92925 -2.03007 0
M  V30 1741 N 161.113 -0.173488 1.56642 0
M  V30 1742 C 162.39 -0.917617 1.7274 0
M  V30 1743 C 162.77 -2.00484 0.661027 0
M  V30 1744 O 162.118 -2.26184 -0.32453 0
M  V30 1745 C 162.328 -1.48433 3.15862 0
M  V30 1746 C 163.676 -1.95809 3.76754 0
M  V30 1747 O 164.7 -1.58231 3.19126 0
M  V30 1748 O 163.559 -2.65024 4.77938 0
M  V30 1749 H 160.653 -0.431772 0.705338 0
M  V30 1750 H 163.199 -0.161487 1.6893 0
M  V30 1751 H 161.971 -0.701715 3.84957 0
M  V30 1752 H 161.594 -2.30471 3.23989 0
M  V30 1753 N 162.591 -1.51276 -0.441967 0
M  V30 1754 C 163.837 -1.63958 -1.19355 0
M  V30 1755 C 164.17 -0.352543 -1.90973 0
M  V30 1756 O 163.445 0.647627 -1.83401 0
M  V30 1757 C 163.728 -2.83979 -2.21422 0
M  V30 1758 C 163.581 -4.22646 -1.53918 0
M  V30 1759 C 164.9 -2.99521 -3.22451 0
M  V30 1760 H 162.019 -0.596709 -0.432559 0
M  V30 1761 H 164.661 -1.83748 -0.483398 0
M  V30 1762 H 162.811 -2.67237 -2.81987 0
M  V30 1763 H 164.483 -4.51045 -0.967256 0
M  V30 1764 H 162.726 -4.25558 -0.841615 0
M  V30 1765 H 163.397 -5.02609 -2.28229 0
M  V30 1766 H 165.873 -3.14944 -2.71937 0
M  V30 1767 H 164.749 -3.85072 -3.91166 0
M  V30 1768 H 165.01 -2.11391 -3.88287 0
M  V30 1769 N 164.069 0.697108 -1.41344 0
M  V30 1770 C 165.346 1.45154 -1.31109 0
M  V30 1771 C 165.726 2.11009 0.0620449 0
M  V30 1772 O 165.074 2.01571 1.07618 0
M  V30 1773 C 165.284 2.47223 -2.46337 0
M  V30 1774 C 166.632 3.1252 -2.87431 0
M  V30 1775 O 167.656 2.57547 -2.46065 0
M  V30 1776 O 166.515 4.12083 -3.58957 0
M  V30 1777 H 163.609 0.646365 -0.515889 0
M  V30 1778 H 166.155 0.727716 -1.53305 0
M  V30 1779 H 164.927 1.97204 -3.37974 0
M  V30 1780 H 164.55 3.27116 -2.2601 0
M  V30 1781 N 165.547 1.27147 0.931209 0
M  V30 1782 C 166.795 1.13055 1.6752 0
M  V30 1783 C 167.116 -0.324791 1.92276 0
M  V30 1784 O 166.386 -1.22775 1.52654 0
M  V30 1785 H 164.966 0.415391 0.620854 0
M  V30 1786 H 167.628 1.59623 1.11833 0
M  V30 1787 H 166.724 1.65694 2.64485 0
M  V30 1788 N 167.025 -1.13721 1.09112 0
M  V30 1789 C 167.973 -2.21103 0.722219 0
M  V30 1790 C 168.967 -1.67147 -0.275374 0
M  V30 1791 O 170.173 -1.79477 -0.137176 0
M  V30 1792 H 166.548 -0.720445 0.215553 0
M  V30 1793 H 168.519 -2.49483 1.63709 0
M  V30 1794 C 167.268 -3.47352 0.15543 0
M  V30 1795 H 166.591 -3.89206 0.914246 0
M  V30 1796 H 168.031 -4.2395 -0.0647967 0
M  V30 1797 C 166.49 -3.1814 -1.10852 0
M  V30 1798 O 167.02 -3.36604 -2.19227 0
M  V30 1799 N 165.226 -2.72045 -1.02176 0
M  V30 1800 H 164.773 -2.57221 -0.139764 0
M  V30 1801 H 164.731 -2.52875 -1.8682 0
M  V30 1802 N 168.503 -0.877838 -1.30888 0
M  V30 1803 C 169.751 -0.491723 -1.96027 0
M  V30 1804 C 170.072 0.960827 -1.69685 0
M  V30 1805 O 169.342 1.67462 -1.01654 0
M  V30 1806 H 167.922 -0.17885 -0.725273 0
M  V30 1807 H 170.584 -1.11935 -1.59551 0
M  V30 1808 H 169.68 -0.656016 -3.05128 0
M  V30 1809 N 169.982 1.44106 -0.638065 0
M  V30 1810 C 171.21 2.06336 -0.152615 0
M  V30 1811 C 171.625 1.47731 1.17563 0
M  V30 1812 O 170.982 0.602806 1.72257 0
M  V30 1813 C 171.033 3.61479 -0.0391491 0
M  V30 1814 O 170.754 4.17903 -1.31487 0
M  V30 1815 C 172.255 4.40757 0.474176 0
M  V30 1816 H 169.475 0.665862 -0.0828776 0
M  V30 1817 H 172.019 1.84862 -0.87443 0
M  V30 1818 H 170.174 3.82191 0.633142 0
M  V30 1819 H 170.588 5.11416 -1.16421 0
M  V30 1820 H 172.062 5.49707 0.502562 0
M  V30 1821 H 172.539 4.12697 1.50258 0
M  V30 1822 H 173.145 4.24979 -0.165102 0
M  V30 1823 N 171.46 0.379036 1.52974 0
M  V30 1824 C 172.709 -0.207612 2.00629 0
M  V30 1825 C 173.022 -1.48758 1.27006 0
M  V30 1826 O 174.228 -2.15365 1.65318 0
M  V30 1827 C 172.684 -0.42053 3.57435 0
M  V30 1828 C 172.292 0.845587 4.39948 0
M  V30 1829 C 174.036 -0.964102 4.13407 0
M  V30 1830 C 171.943 0.601513 5.88333 0
M  V30 1831 H 170.873 -0.0813591 0.749598 0
M  V30 1832 H 173.524 0.499853 1.76561 0
M  V30 1833 H 171.906 -1.18959 3.7771 0
M  V30 1834 H 173.08 1.61848 4.31442 0
M  V30 1835 H 171.395 1.31336 3.95145 0
M  V30 1836 H 173.992 -1.16225 5.21916 0
M  V30 1837 H 174.335 -1.93019 3.68849 0
M  V30 1838 H 174.868 -0.25487 3.96983 0
M  V30 1839 H 171.607 1.53831 6.37194 0
M  V30 1840 H 171.127 -0.132628 5.99653 0
M  V30 1841 H 172.806 0.232134 6.46583 0
M  V30 1842 N 172.938 -1.57226 0.108567 0
M  V30 1843 C 174.163 -1.99604 -0.563303 0
M  V30 1844 C 174.588 -0.987563 -1.6009 0
M  V30 1845 O 173.946 0.0421687 -1.81251 0
M  V30 1846 C 173.994 -3.40902 -1.17552 0
M  V30 1847 O 173.098 -3.42896 -2.2912 0
M  V30 1848 H 172.439 -0.648704 -0.1417 0
M  V30 1849 H 174.969 -2.03679 0.193961 0
M  V30 1850 H 174.979 -3.78886 -1.51357 0
M  V30 1851 H 173.654 -4.1382 -0.415445 0
M  V30 1852 H 172.231 -3.1672 -1.96832 0
M  V30 1853 N 174.416 0.165178 -1.56732 0
M  V30 1854 C 175.363 1.2044 -1.96883 0
M  V30 1855 C 176.333 1.43664 -0.833657 0
M  V30 1856 O 177.518 1.56302 -1.09427 0
M  V30 1857 C 174.658 2.53727 -2.33916 0
M  V30 1858 C 173.771 2.3783 -3.6064 0
M  V30 1859 C 172.906 3.64026 -3.86857 0
M  V30 1860 C 171.945 3.43088 -5.06909 0
M  V30 1861 N 171.082 4.61369 -5.29229 0
M  V30 1862 H 175.922 0.854996 -2.85471 0
M  V30 1863 H 173.459 0.41076 -1.41249 0
M  V30 1864 H 175.417 3.31419 -2.53411 0
M  V30 1865 H 174.047 2.8665 -1.48431 0
M  V30 1866 H 173.099 1.51282 -3.49024 0
M  V30 1867 H 174.411 2.18308 -4.4849 0
M  V30 1868 H 173.565 4.50152 -4.06753 0
M  V30 1869 H 172.304 3.86533 -2.97394 0
M  V30 1870 H 171.309 2.55349 -4.86906 0
M  V30 1871 H 172.534 3.21997 -5.97909 0
M  V30 1872 H 170.48 4.84084 -4.42718 0
M  V30 1873 H 170.397 4.44783 -6.11313 0
M  V30 1874 H 171.665 5.48761 -5.53608 0
M  V30 1875 N 175.894 1.51508 0.433938 0
M  V30 1876 C 176.842 1.73646 1.54757 0
M  V30 1877 C 177.836 0.602854 1.5831 0
M  V30 1878 O 179.042 0.784318 1.62014 0
M  V30 1879 H 175.417 0.548718 0.51421 0
M  V30 1880 H 177.388 2.66991 1.33261 0
M  V30 1881 C 176.137 1.88172 2.92381 0
M  V30 1882 H 175.46 2.74808 2.90381 0
M  V30 1883 H 176.9 2.07672 3.6966 0
M  V30 1884 C 175.359 0.64239 3.30719 0
M  V30 1885 O 175.889 -0.201362 4.01195 0
M  V30 1886 N 174.095 0.485489 2.86516 0
M  V30 1887 H 173.642 1.17318 2.29334 0
M  V30 1888 H 173.6 -0.342482 3.12529 0
M  V30 1889 N 177.372 -0.689602 1.41712 0
M  V30 1890 C 178.282 -1.83314 1.46401 0
M  V30 1891 C 179.298 -1.7036 0.35405 0
M  V30 1892 O 180.474 -1.92171 0.602692 0
M  V30 1893 C 177.539 -3.19344 1.34982 0
M  V30 1894 C 176.6 -3.44363 2.56344 0
M  V30 1895 C 175.833 -4.73904 2.45461 0
M  V30 1896 O 176.056 -5.508 1.48241 0
M  V30 1897 O 174.99 -4.99839 3.35328 0
M  V30 1898 H 178.816 -1.82314 2.42889 0
M  V30 1899 H 176.401 -0.843438 1.23315 0
M  V30 1900 H 178.283 -4.00547 1.3092 0
M  V30 1901 H 176.958 -3.21014 0.41612 0
M  V30 1902 H 175.865 -2.63067 2.65982 0
M  V30 1903 H 177.198 -3.47512 3.48563 0
M  V30 1904 N 178.85 -1.27639 -0.924453 0
M  V30 1905 C 180.096 -1.14336 -1.67497 0
M  V30 1906 C 180.429 0.309465 -1.91718 0
M  V30 1907 O 179.704 1.22608 -1.50989 0
M  V30 1908 C 179.987 -1.93096 -3.0395 0
M  V30 1909 C 179.84 -3.46381 -2.8695 0
M  V30 1910 C 181.159 -1.73798 -4.0433 0
M  V30 1911 H 178.278 -0.416728 -0.607871 0
M  V30 1912 H 180.92 -1.56832 -1.07256 0
M  V30 1913 H 179.07 -1.56982 -3.55372 0
M  V30 1914 H 180.742 -3.92343 -2.42621 0
M  V30 1915 H 178.985 -3.72557 -2.22225 0
M  V30 1916 H 179.656 -3.96735 -3.83804 0
M  V30 1917 H 182.132 -2.05293 -3.61931 0
M  V30 1918 H 181.008 -2.31294 -4.97789 0
M  V30 1919 H 181.269 -0.686725 -4.36734 0
M  V30 1920 N 180.328 1.1314 -1.09713 0
M  V30 1921 C 181.258 2.20748 -0.761102 0
M  V30 1922 C 182.239 1.68061 0.262566 0
M  V30 1923 O 183.424 1.93765 0.129977 0
M  V30 1924 C 180.554 3.46812 -0.184054 0
M  V30 1925 C 179.508 4.12606 -1.13757 0
M  V30 1926 C 178.834 5.33031 -0.422083 0
M  V30 1927 C 180.134 4.59603 -2.48118 0
M  V30 1928 H 181.828 2.49113 -1.66082 0
M  V30 1929 H 179.374 1.19734 -0.799987 0
M  V30 1930 H 181.327 4.21353 0.0631215 0
M  V30 1931 H 180.051 3.17851 0.750868 0
M  V30 1932 H 178.71 3.40036 -1.37007 0
M  V30 1933 H 178.358 5.00335 0.517072 0
M  V30 1934 H 178.058 5.77999 -1.05788 0
M  V30 1935 H 179.582 6.10325 -0.183277 0
M  V30 1936 H 180.996 5.25552 -2.29059 0
M  V30 1937 H 179.393 5.15321 -3.07514 0
M  V30 1938 H 180.463 3.73971 -3.08665 0
M  V30 1939 N 181.806 0.884767 1.30421 0
M  V30 1940 C 182.716 0.355398 2.31892 0
M  V30 1941 C 183.732 -0.542261 1.65335 0
M  V30 1942 O 184.908 -0.435432 1.96637 0
M  V30 1943 C 181.973 -0.421661 3.44126 0
M  V30 1944 C 181.034 0.505727 4.26311 0
M  V30 1945 C 180.267 -0.234343 5.33185 0
M  V30 1946 O 180.49 -1.46045 5.51386 0
M  V30 1947 O 179.424 0.415443 6.00465 0
M  V30 1948 H 183.25 1.19685 2.79122 0
M  V30 1949 H 180.835 0.648596 1.34587 0
M  V30 1950 H 182.717 -0.861641 4.12497 0
M  V30 1951 H 181.392 -1.23942 2.99032 0
M  V30 1952 H 180.299 0.994513 3.60639 0
M  V30 1953 H 181.632 1.28948 4.75009 0
M  V30 1954 N 183.284 -1.43765 0.645699 0
M  V30 1955 C 184.533 -2.01116 0.153412 0
M  V30 1956 C 184.846 -1.51493 -1.23731 0
M  V30 1957 O 186.052 -2.01067 -1.8244 0
M  V30 1958 C 184.508 -3.59206 0.223473 0
M  V30 1959 C 184.116 -4.17823 1.61642 0
M  V30 1960 C 185.86 -4.23972 -0.211597 0
M  V30 1961 C 183.767 -5.68183 1.64081 0
M  V30 1962 H 182.697 -0.752093 0.0535891 0
M  V30 1963 H 185.348 -1.6482 0.806633 0
M  V30 1964 H 183.73 -3.92867 -0.497118 0
M  V30 1965 H 184.904 -3.95674 2.36176 0
M  V30 1966 H 183.219 -3.65399 1.99681 0
M  V30 1967 H 185.816 -5.34275 -0.213112 0
M  V30 1968 H 186.159 -3.97352 -1.24165 0
M  V30 1969 H 186.692 -3.95166 0.456988 0
M  V30 1970 H 183.431 -5.99559 2.64971 0
M  V30 1971 H 182.951 -5.9241 0.938611 0
M  V30 1972 H 184.63 -6.32085 1.3812 0
M  V30 1973 N 184.763 -0.387143 -1.52771 0
M  V30 1974 C 186.009 0.196025 -2.0185 0
M  V30 1975 C 186.342 1.46641 -1.27319 0
M  V30 1976 O 185.617 1.90889 -0.373032 0
M  V30 1977 C 185.9 0.466136 -3.5707 0
M  V30 1978 C 185.753 -0.819385 -4.42274 0
M  V30 1979 C 187.072 1.25768 -4.21747 0
M  V30 1980 H 184.191 0.0697708 -0.73369 0
M  V30 1981 H 186.833 -0.516286 -1.82851 0
M  V30 1982 H 184.983 1.07293 -3.7339 0
M  V30 1983 H 186.655 -1.4563 -4.37709 0
M  V30 1984 H 184.898 -1.43517 -4.09372 0
M  V30 1985 H 185.569 -0.585065 -5.48891 0
M  V30 1986 H 188.045 0.744167 -4.09391 0
M  V30 1987 H 186.921 1.41541 -5.30337 0
M  V30 1988 H 187.182 2.27228 -3.79236 0
M  V30 1989 N 186.241 1.57166 -0.116904 0
M  V30 1990 C 187.174 2.10912 0.871291 0
M  V30 1991 C 188.152 1.025 1.26224 0
M  V30 1992 O 189.336 1.3014 1.36366 0
M  V30 1993 C 186.463 2.6041 2.16574 0
M  V30 1994 C 185.509 3.80687 1.92302 0
M  V30 1995 S 186.342 5.23199 1.14119 0
M  V30 1996 C 187.498 5.76064 2.44748 0
M  V30 1997 H 187.731 2.94401 0.414138 0
M  V30 1998 H 185.264 1.54096 0.096829 0
M  V30 1999 H 187.222 2.89583 2.9095 0
M  V30 2000 H 185.883 1.77106 2.59408 0
M  V30 2001 H 185.076 4.13462 2.8821 0
M  V30 2002 H 184.678 3.5212 1.26047 0
M  V30 2003 H 186.97 5.8566 3.406 0
M  V30 2004 H 187.913 6.74184 2.16521 0
M  V30 2005 H 188.321 5.04117 2.54019 0
M  V30 2006 N 187.719 -0.156864 1.56817 0
M  V30 2007 C 188.682 -1.17781 1.96622 0
M  V30 2008 C 189.682 -1.36401 0.851555 0
M  V30 2009 O 190.872 -1.33561 1.11836 0
M  V30 2010 C 188.004 -2.54008 2.27361 0
M  V30 2011 H 189.197 -0.836564 2.87996 0
M  V30 2012 H 186.75 -0.39985 1.51099 0
M  V30 2013 H 187.485 -2.9312 1.38748 0
M  V30 2014 H 187.27 -2.41856 3.08623 0
M  V30 2015 H 188.76 -3.27558 2.59029 0
M  V30 2016 N 189.197 -1.51736 -0.425897 0
M  V30 2017 C 190.446 -1.64201 -1.17136 0
M  V30 2018 C 190.759 -0.369705 -1.92074 0
M  V30 2019 O 191.965 -0.373898 -2.68913 0
M  V30 2020 C 190.421 -2.90035 -2.13091 0
M  V30 2021 C 190.029 -4.24312 -1.43747 0
M  V30 2022 C 191.773 -3.1186 -2.87999 0
M  V30 2023 C 189.68 -5.41285 -2.38253 0
M  V30 2024 H 188.61 -0.611624 -0.440944 0
M  V30 2025 H 191.261 -1.78212 -0.437328 0
M  V30 2026 H 189.643 -2.69684 -2.89977 0
M  V30 2027 H 190.817 -4.55086 -0.723408 0
M  V30 2028 H 189.132 -4.08456 -0.809465 0
M  V30 2029 H 191.729 -3.96427 -3.58817 0
M  V30 2030 H 192.072 -2.25403 -3.49999 0
M  V30 2031 H 192.605 -3.32605 -2.18217 0
M  V30 2032 H 189.344 -6.30037 -1.80925 0
M  V30 2033 H 188.864 -5.14872 -3.0768 0
M  V30 2034 H 190.543 -5.73694 -2.99139 0
M  V30 2035 N 190.675 0.682077 -1.42076 0
M  V30 2036 C 191.922 1.44215 -1.42156 0
M  V30 2037 C 192.25 1.94468 -0.0354186 0
M  V30 2038 O 191.505 1.70816 0.955002 0
M  V30 2039 C 191.804 2.66036 -2.38662 0
M  V30 2040 C 191.47 2.34366 -3.85206 0
M  V30 2041 C 190.132 2.25439 -4.25124 0
M  V30 2042 C 192.484 2.08513 -4.77673 0
M  V30 2043 C 189.812 1.88775 -5.55501 0
M  V30 2044 C 192.164 1.73354 -6.08384 0
M  V30 2045 C 190.828 1.62933 -6.47309 0
M  V30 2046 H 190.098 0.527718 -0.520187 0
M  V30 2047 H 192.745 0.778387 -1.74967 0
M  V30 2048 H 191.05 3.3741 -1.99152 0
M  V30 2049 H 192.747 3.24205 -2.35991 0
M  V30 2050 H 189.337 2.42213 -3.53597 0
M  V30 2051 H 193.521 2.14346 -4.47626 0
M  V30 2052 H 188.777 1.7927 -5.84527 0
M  V30 2053 H 192.951 1.52373 -6.79526 0
M  V30 2054 H 190.578 1.34292 -7.48244 0
M  V30 2055 N 192.153 1.28127 0.917671 0
M  V30 2056 C 193.1 1.11717 2.0196 0
M  V30 2057 C 194.07 0.0153929 1.66093 0
M  V30 2058 O 195.255 0.179596 1.89953 0
M  V30 2059 C 192.395 0.780927 3.36148 0
M  V30 2060 C 191.508 1.96135 3.84909 0
M  V30 2061 C 190.643 1.56609 5.0759 0
M  V30 2062 C 189.682 2.71339 5.48673 0
M  V30 2063 N 188.819 2.32332 6.62545 0
M  V30 2064 H 193.659 2.06003 2.15329 0
M  V30 2065 H 191.196 1.02535 1.05475 0
M  V30 2066 H 193.154 0.56675 4.13333 0
M  V30 2067 H 191.784 -0.124998 3.22558 0
M  V30 2068 H 190.836 2.28777 3.03916 0
M  V30 2069 H 192.148 2.82165 4.1132 0
M  V30 2070 H 191.302 1.31374 5.92305 0
M  V30 2071 H 190.041 0.677014 4.82978 0
M  V30 2072 H 189.046 2.97276 4.62501 0
M  V30 2073 H 190.271 3.60882 5.75274 0
M  V30 2074 H 188.217 1.45889 6.39572 0
M  V30 2075 H 188.134 3.11899 6.88662 0
M  V30 2076 H 189.402 2.10371 7.50576 0
M  V30 2077 N 193.631 -1.12557 1.10312 0
M  V30 2078 C 194.564 -2.1737 0.694674 0
M  V30 2079 C 195.542 -1.59745 -0.303373 0
M  V30 2080 O 196.726 -1.87408 -0.202578 0
M  V30 2081 C 193.853 -3.38691 0.0248052 0
M  V30 2082 C 192.899 -4.14943 0.986121 0
M  V30 2083 S 193.732 -4.73413 2.50281 0
M  V30 2084 C 194.888 -5.9807 1.84562 0
M  V30 2085 H 195.121 -2.5168 1.58255 0
M  V30 2086 H 192.654 -1.23998 0.919992 0
M  V30 2087 H 194.612 -4.08959 -0.355361 0
M  V30 2088 H 193.273 -3.02664 -0.839851 0
M  V30 2089 H 192.466 -5.01854 0.464651 0
M  V30 2090 H 192.068 -3.50377 1.30813 0
M  V30 2091 H 194.36 -6.67232 1.17507 0
M  V30 2092 H 195.303 -6.54841 2.69423 0
M  V30 2093 H 195.711 -5.49073 1.31069 0
M  V30 2094 N 195.109 -0.891671 -1.2995 0
M  V30 2095 C 196.358 -0.509521 -1.95158 0
M  V30 2096 C 196.671 0.947388 -1.71125 0
M  V30 2097 O 197.877 1.43669 -2.30372 0
M  V30 2098 C 196.333 -0.860315 -3.49466 0
M  V30 2099 C 195.941 -2.33545 -3.8231 0
M  V30 2100 C 197.685 -0.547687 -4.20952 0
M  V30 2101 C 195.592 -2.62752 -5.29826 0
M  V30 2102 H 194.522 -0.18682 -0.730489 0
M  V30 2103 H 197.173 -1.08756 -1.47798 0
M  V30 2104 H 195.555 -0.211285 -3.95436 0
M  V30 2105 H 196.729 -3.02936 -3.47227 0
M  V30 2106 H 195.044 -2.61629 -3.23944 0
M  V30 2107 H 197.641 -0.742854 -5.29515 0
M  V30 2108 H 197.984 0.51332 -4.13123 0
M  V30 2109 H 198.517 -1.1542 -3.80688 0
M  V30 2110 H 195.256 -3.6762 -5.42712 0
M  V30 2111 H 194.776 -1.97977 -5.66185 0
M  V30 2112 H 196.455 -2.48601 -5.97333 0
M  V30 2113 N 196.587 1.43421 -0.653314 0
M  V30 2114 C 197.815 2.06163 -0.174491 0
M  V30 2115 C 198.23 1.48969 1.1599 0
M  V30 2116 O 197.587 0.621042 1.71608 0
M  V30 2117 C 197.638 3.61417 -0.0774865 0
M  V30 2118 O 197.359 4.16485 -1.35912 0
M  V30 2119 C 198.86 4.41235 0.427402 0
M  V30 2120 H 196.08 0.664946 -0.0899353 0
M  V30 2121 H 198.624 1.83924 -0.893988 0
M  V30 2122 H 196.779 3.82841 0.59257 0
M  V30 2123 H 197.193 5.10153 -1.21839 0
M  V30 2124 H 198.667 5.5021 0.44423 0
M  V30 2125 H 199.144 4.14268 1.45873 0
M  V30 2126 H 199.75 4.2478 -0.210167 0
M  V30 2127 N 198.065 0.39524 1.52563 0
M  V30 2128 C 199.476 -0.0774719 1.86539 0
M  V30 2129 C 199.827 -1.45641 1.31466 0
M  V30 2130 O 198.952 -2.06459 0.648367 0
M  V30 2131 C 199.547 -0.147356 3.38479 0
M  V30 2132 C 198.106 -0.564373 3.72145 0
M  V30 2133 C 197.253 0.269919 2.75983 0
M  V30 2134 H 200.204 0.612876 1.46388 0
M  V30 2135 H 200.225 -0.965343 3.68051 0
M  V30 2136 H 199.737 0.856387 3.78534 0
M  V30 2137 H 197.838 -1.57527 3.37663 0
M  V30 2138 H 197.951 -0.318402 4.78041 0
M  V30 2139 H 196.315 -0.265696 2.5331 0
M  V30 2140 H 197.098 1.27175 3.18875 0
M  V30 2141 N 199.544 -1.57102 0.125237 0
M  V30 2142 C 200.454 -2.19191 -0.8362 0
M  V30 2143 C 201.47 -1.16985 -1.28805 0
M  V30 2144 O 202.646 -1.49479 -1.34974 0
M  V30 2145 C 199.711 -2.78407 -2.06617 0
M  V30 2146 C 198.772 -3.9567 -1.66565 0
M  V30 2147 C 198.005 -4.52052 -2.83698 0
M  V30 2148 O 198.228 -4.07326 -3.99302 0
M  V30 2149 O 197.162 -5.42645 -2.60423 0
M  V30 2150 H 200.988 -3.01816 -0.337776 0
M  V30 2151 H 198.573 -1.4906 -0.100695 0
M  V30 2152 H 200.455 -3.16129 -2.7864 0
M  V30 2153 H 199.13 -1.9881 -2.55453 0
M  V30 2154 H 198.037 -3.62705 -0.916296 0
M  V30 2155 H 199.37 -4.76722 -1.22464 0
M  V30 2156 N 201.022 0.148545 -1.56898 0
M  V30 2157 C 202.299 0.890019 -1.74178 0
M  V30 2158 C 202.679 1.99407 -0.692839 0
M  V30 2159 O 202.027 2.26671 0.288505 0
M  V30 2160 C 202.237 1.43389 -3.18183 0
M  V30 2161 C 203.585 1.89791 -3.79822 0
M  V30 2162 O 204.609 1.53134 -3.21603 0
M  V30 2163 O 203.468 2.57387 -4.82093 0
M  V30 2164 H 200.562 0.420496 -0.712118 0
M  V30 2165 H 203.108 0.134591 -1.69165 0
M  V30 2166 H 201.88 0.640383 -3.86024 0
M  V30 2167 H 201.503 2.25287 -3.27615 0
M  V30 2168 N 202.5 1.5196 0.417844 0
M  V30 2169 C 203.746 1.65836 1.16732 0
M  V30 2170 C 204.079 0.382881 1.90388 0
M  V30 2171 O 203.354 -0.618368 1.84408 0
M  V30 2172 C 203.637 2.87466 2.16876 0
M  V30 2173 C 203.49 4.25041 1.47174 0
M  V30 2174 C 204.809 3.04613 3.17646 0
M  V30 2175 H 201.928 0.603515 0.423011 0
M  V30 2176 H 204.57 1.84494 0.454105 0
M  V30 2177 H 202.72 2.71689 2.777 0
M  V30 2178 H 204.392 4.52527 0.895376 0
M  V30 2179 H 202.635 4.26843 0.773806 0
M  V30 2180 H 203.306 5.06176 2.20204 0
M  V30 2181 H 205.782 3.1923 2.66892 0
M  V30 2182 H 204.658 3.91247 3.8499 0
M  V30 2183 H 204.919 2.17541 3.84874 0
M  V30 2184 N 203.978 -0.674533 1.42435 0
M  V30 2185 C 204.925 -1.78807 1.45934 0
M  V30 2186 C 205.895 -1.63157 0.311271 0
M  V30 2187 O 207.08 -1.83707 0.515383 0
M  V30 2188 C 204.22 -3.16839 1.36773 0
M  V30 2189 C 203.333 -3.43774 2.61617 0
M  V30 2190 C 202.468 -4.71536 2.44597 0
M  V30 2191 C 201.507 -4.91505 3.64814 0
M  V30 2192 N 200.644 -6.10508 3.46734 0
M  V30 2193 H 205.484 -1.75151 2.41093 0
M  V30 2194 H 203.021 -0.85504 1.19697 0
M  V30 2195 H 204.979 -3.96606 1.29459 0
M  V30 2196 H 203.609 -3.19619 0.452089 0
M  V30 2197 H 202.661 -2.58259 2.79297 0
M  V30 2198 H 203.973 -3.54423 3.50978 0
M  V30 2199 H 203.127 -5.59393 2.3487 0
M  V30 2200 H 201.866 -4.6317 1.52726 0
M  V30 2201 H 200.871 -4.0209 3.74972 0
M  V30 2202 H 202.096 -5.01716 4.57665 0
M  V30 2203 H 200.042 -6.03315 2.5758 0
M  V30 2204 H 199.959 -6.2202 4.29682 0
M  V30 2205 H 201.227 -7.01044 3.40819 0
M  V30 2206 N 205.456 -1.28612 -0.910864 0
M  V30 2207 C 206.386 -1.15326 -2.03032 0
M  V30 2208 C 207.367 -0.0502924 -1.70026 0
M  V30 2209 O 208.552 -0.227797 -1.92859 0
M  V30 2210 C 205.682 -0.817343 -3.37545 0
M  V30 2211 C 204.636 -1.8754 -3.84724 0
M  V30 2212 C 203.962 -1.39305 -5.16235 0
M  V30 2213 C 205.262 -3.28244 -4.06267 0
M  V30 2214 H 206.956 -2.08975 -2.14406 0
M  V30 2215 H 204.502 -1.00612 -1.03021 0
M  V30 2216 H 206.455 -0.711151 -4.15356 0
M  V30 2217 H 205.179 0.154846 -3.26233 0
M  V30 2218 H 203.838 -1.97079 -3.09121 0
M  V30 2219 H 203.486 -0.409846 -5.01328 0
M  V30 2220 H 203.186 -2.10057 -5.48771 0
M  V30 2221 H 204.71 -1.30014 -5.96598 0
M  V30 2222 H 206.124 -3.21611 -4.74594 0
M  V30 2223 H 204.521 -3.96855 -4.5014 0
M  V30 2224 H 205.591 -3.72048 -3.10979 0
M  V30 2225 N 206.934 1.1197 -1.10907 0
M  V30 2226 C 207.864 2.19928 -0.784473 0
M  V30 2227 C 208.845 1.6833 0.244726 0
M  V30 2228 O 210.03 1.93892 0.109418 0
M  V30 2229 C 207.16 3.46597 -0.220827 0
M  V30 2230 C 206.114 4.11376 -1.18127 0
M  V30 2231 C 205.44 5.32554 -0.478594 0
M  V30 2232 C 206.74 4.56945 -2.52979 0
M  V30 2233 H 208.434 2.47337 -1.68715 0
M  V30 2234 H 205.98 1.18879 -0.812642 0
M  V30 2235 H 207.933 4.21396 0.0184278 0
M  V30 2236 H 206.657 3.1863 0.717113 0
M  V30 2237 H 205.316 3.38564 -1.40606 0
M  V30 2238 H 204.964 5.00856 0.463976 0
M  V30 2239 H 204.664 5.76844 -1.11912 0
M  V30 2240 H 206.188 6.10096 -0.248 0
M  V30 2241 H 207.602 5.23093 -2.3462 0
M  V30 2242 H 205.999 5.1203 -3.12962 0
M  V30 2243 H 207.069 3.70676 -3.12614 0
M  V30 2244 N 208.412 0.89855 1.29475 0
M  V30 2245 C 209.823 0.572537 1.77705 0
M  V30 2246 C 210.174 -0.911778 1.73727 0
M  V30 2247 O 209.299 -1.71288 1.32247 0
M  V30 2248 C 209.894 1.03252 3.22683 0
M  V30 2249 C 208.453 0.757687 3.68695 0
M  V30 2250 C 207.6 1.20787 2.49612 0
M  V30 2251 H 210.551 1.08139 1.16153 0
M  V30 2252 H 210.572 0.367307 3.78723 0
M  V30 2253 H 210.084 2.11285 3.25546 0
M  V30 2254 H 208.185 -0.310079 3.71308 0
M  V30 2255 H 208.298 1.35476 4.59547 0
M  V30 2256 H 206.662 0.626888 2.46865 0
M  V30 2257 H 207.445 2.29622 2.55203 0
M  V30 2258 N 209.89 -1.43072 0.660911 0
M  V30 2259 C 211.167 -1.95307 0.107017 0
M  V30 2260 C 211.547 -1.60192 -1.37484 0
M  V30 2261 O 210.895 -0.890949 -2.10415 0
M  V30 2262 C 211.105 -3.47124 0.361402 0
M  V30 2263 C 212.453 -4.23738 0.270455 0
M  V30 2264 O 213.477 -3.54981 0.294382 0
M  V30 2265 O 212.336 -5.46131 0.200737 0
M  V30 2266 H 209.43 -0.826984 -0.00517729 0
M  V30 2267 H 211.976 -1.52972 0.734681 0
M  V30 2268 H 210.748 -3.65837 1.38848 0
M  V30 2269 H 210.371 -3.96475 -0.298953 0
M  V30 2270 N 211.368 -0.403325 -1.52352 0
M  V30 2271 C 212.645 0.232611 -1.94212 0
M  V30 2272 C 213.025 1.63133 -1.33981 0
M  V30 2273 O 212.373 2.22659 -0.513344 0
M  V30 2274 C 212.583 0.244811 -3.4814 0
M  V30 2275 C 213.931 0.46698 -4.22024 0
M  V30 2276 O 214.955 0.324419 -3.5472 0
M  V30 2277 O 213.814 0.74747 -5.41364 0
M  V30 2278 H 210.908 0.148223 -0.813609 0
M  V30 2279 H 213.454 -0.458848 -1.63379 0
M  V30 2280 H 212.226 -0.734378 -3.84347 0
M  V30 2281 H 211.849 0.980611 -3.85318 0
M  V30 2282 N 212.846 1.57033 -0.133567 0
M  V30 2283 C 213.756 2.19632 0.824564 0
M  V30 2284 C 214.772 1.17666 1.28182 0
M  V30 2285 O 215.948 1.50193 1.3418 0
M  V30 2286 C 213.013 2.79499 2.05137 0
M  V30 2287 C 212.074 3.96548 1.64464 0
M  V30 2288 C 211.307 4.5355 2.81297 0
M  V30 2289 O 211.53 4.09438 3.97136 0
M  V30 2290 O 210.464 5.44018 2.57542 0
M  V30 2291 H 214.29 3.01991 0.321766 0
M  V30 2292 H 211.875 1.49112 0.0927889 0
M  V30 2293 H 213.757 3.17602 2.7696 0
M  V30 2294 H 212.432 2.00162 2.54395 0
M  V30 2295 H 211.339 3.63186 0.897048 0
M  V30 2296 H 212.672 4.77364 1.19934 0
M  V30 2297 N 214.325 -0.140222 1.56975 0
M  V30 2298 C 215.273 -1.19207 1.99731 0
M  V30 2299 C 216.267 -1.44089 0.890777 0
M  V30 2300 O 217.473 -1.44301 1.07597 0
M  V30 2301 H 213.848 -0.40142 0.635898 0
M  V30 2302 H 215.819 -0.804813 2.87342 0
M  V30 2303 C 214.568 -2.51617 2.39967 0
M  V30 2304 H 213.891 -2.33303 3.24669 0
M  V30 2305 H 215.331 -3.23827 2.73701 0
M  V30 2306 C 213.79 -3.12654 1.25496 0
M  V30 2307 O 214.32 -3.97786 0.559371 0
M  V30 2308 N 212.526 -2.72206 1.01746 0
M  V30 2309 H 212.073 -2.03074 1.58489 0
M  V30 2310 H 212.031 -3.13377 0.253461 0
M  V30 2311 N 215.803 -1.52179 -0.40978 0
M  V30 2312 C 217.031 -1.70054 -1.17853 0
M  V30 2313 C 217.446 -0.409735 -1.843 0
M  V30 2314 O 216.803 0.614183 -1.71855 0
M  V30 2315 C 216.854 -2.83568 -2.24213 0
M  V30 2316 O 216.575 -4.0765 -1.60478 0
M  V30 2317 C 218.076 -3.12947 -3.13973 0
M  V30 2318 H 215.296 -0.569917 -0.354169 0
M  V30 2319 H 217.84 -1.98734 -0.482198 0
M  V30 2320 H 215.995 -2.57409 -2.89516 0
M  V30 2321 H 216.409 -4.70899 -2.30986 0
M  V30 2322 H 217.883 -3.95889 -3.84677 0
M  V30 2323 H 218.36 -2.26472 -3.76307 0
M  V30 2324 H 218.966 -3.40868 -2.5434 0
M  V30 2325 N 217.281 0.66697 -1.42791 0
M  V30 2326 C 218.692 1.2478 -1.38877 0
M  V30 2327 C 219.043 1.96012 -0.0859426 0
M  V30 2328 O 218.168 2.00463 0.815081 0
M  V30 2329 C 218.763 2.26938 -2.51564 0
M  V30 2330 C 217.322 2.80529 -2.50959 0
M  V30 2331 C 216.469 1.54965 -2.29959 0
M  V30 2332 H 219.42 0.459853 -1.51892 0
M  V30 2333 H 219.441 3.08834 -2.22265 0
M  V30 2334 H 218.953 1.75065 -3.46372 0
M  V30 2335 H 217.054 3.36502 -1.59991 0
M  V30 2336 H 217.167 3.29012 -3.48265 0
M  V30 2337 H 215.531 1.81817 -1.78366 0
M  V30 2338 H 216.314 1.05047 -3.26833 0
M  V30 2339 N 218.759 1.29093 0.90403 0
M  V30 2340 C 219.669 1.15727 2.0407 0
M  V30 2341 C 220.685 0.0815308 1.73809 0
M  V30 2342 O 221.861 0.292749 1.99261 0
M  V30 2343 C 218.926 0.830424 3.36608 0
M  V30 2344 C 217.987 1.98955 3.80415 0
M  V30 2345 C 217.22 1.6782 5.06628 0
M  V30 2346 O 217.443 0.597105 5.67266 0
M  V30 2347 O 216.377 2.52486 5.46383 0
M  V30 2348 H 220.203 2.11171 2.18267 0
M  V30 2349 H 217.788 1.08504 1.027 0
M  V30 2350 H 219.67 0.662521 4.16159 0
M  V30 2351 H 218.345 -0.0942678 3.23563 0
M  V30 2352 H 217.252 2.21267 3.01648 0
M  V30 2353 H 218.585 2.89529 3.98037 0
M  V30 2354 N 220.237 -1.11381 1.11499 0
M  V30 2355 C 221.184 -2.17439 0.773887 0
M  V30 2356 C 222.154 -1.64132 -0.254899 0
M  V30 2357 O 223.339 -1.90345 -0.13168 0
M  V30 2358 C 220.479 -3.44373 0.223917 0
M  V30 2359 C 219.592 -4.1168 1.30934 0
M  V30 2360 C 218.727 -5.263 0.71984 0
M  V30 2361 C 217.766 -5.85493 1.78507 0
M  V30 2362 N 216.903 -6.91507 1.21502 0
M  V30 2363 H 221.743 -2.45962 1.68246 0
M  V30 2364 H 219.28 -1.20744 0.840191 0
M  V30 2365 H 221.238 -4.17047 -0.112921 0
M  V30 2366 H 219.868 -3.16232 -0.647851 0
M  V30 2367 H 218.92 -3.37073 1.76312 0
M  V30 2368 H 220.232 -4.51729 2.11524 0
M  V30 2369 H 219.386 -6.05785 0.333094 0
M  V30 2370 H 218.125 -4.87559 -0.117377 0
M  V30 2371 H 217.13 -5.04686 2.18111 0
M  V30 2372 H 218.355 -6.26301 2.62533 0
M  V30 2373 H 216.301 -6.54783 0.399455 0
M  V30 2374 H 216.218 -7.30214 1.95763 0
M  V30 2375 H 217.486 -7.74795 0.855181 0
M  V30 2376 N 221.715 -0.905404 -1.28997 0
M  V30 2377 C 223.131 -0.60233 -1.47798 0
M  V30 2378 C 223.331 0.854645 -1.82478 0
M  V30 2379 O 222.387 1.63439 -1.92468 0
M  V30 2380 C 223.7 -1.53306 -2.58685 0
M  V30 2381 C 225.248 -1.53887 -2.72558 0
M  V30 2382 C 225.723 -2.45602 -3.86579 0
M  V30 2383 N 227.214 -2.43681 -3.93921 0
M  V30 2384 C 227.949 -3.11347 -4.81509 0
M  V30 2385 N 227.445 -3.88313 -5.73746 0
M  V30 2386 N 229.238 -3.00476 -4.75048 0
M  V30 2387 H 221.389 -1.84765 -1.04764 0
M  V30 2388 H 223.652 -0.792025 -0.520961 0
M  V30 2389 H 223.358 -2.57141 -2.39941 0
M  V30 2390 H 223.232 -1.25787 -3.55609 0
M  V30 2391 H 225.619 -0.507941 -2.90696 0
M  V30 2392 H 225.7 -1.85447 -1.76191 0
M  V30 2393 H 225.344 -3.48792 -3.69197 0
M  V30 2394 H 225.274 -2.11349 -4.82327 0
M  V30 2395 H 227.765 -1.87767 -3.27951 0
M  V30 2396 H 228.078 -4.36985 -6.37389 0
M  V30 2397 H 226.423 -3.92419 -5.73614 0
M  V30 2398 H 229.614 -2.39858 -4.01977 0
M  V30 2399 H 229.787 -3.53485 -5.43095 0
M  V30 2400 N 223.193 1.4272 -0.668489 0
M  V30 2401 C 224.156 2.292 0.00448567 0
M  V30 2402 C 225.156 1.43001 0.735339 0
M  V30 2403 O 226.346 1.64461 0.57429 0
M  V30 2404 C 223.478 3.25375 1.01705 0
M  V30 2405 H 224.671 2.90199 -0.756608 0
M  V30 2406 H 222.224 1.50254 -0.430506 0
M  V30 2407 H 222.959 2.69301 1.80686 0
M  V30 2408 H 222.744 3.88944 0.496463 0
M  V30 2409 H 224.234 3.90245 1.48655 0
M  V30 2410 N 224.671 0.411399 1.52136 0
M  V30 2411 C 225.581 -0.419774 2.30814 0
M  V30 2412 C 226.597 -1.0515 1.38634 0
M  V30 2413 O 227.773 -1.05252 1.71709 0
M  V30 2414 C 224.838 -1.52019 3.11594 0
M  V30 2415 C 223.899 -0.91129 4.19516 0
M  V30 2416 C 223.132 -1.95927 4.96436 0
M  V30 2417 O 223.355 -3.17775 4.73683 0
M  V30 2418 O 222.289 -1.56423 5.81219 0
M  V30 2419 H 226.115 0.221805 3.02889 0
M  V30 2420 H 223.7 0.174547 1.48377 0
M  V30 2421 H 225.582 -2.15898 3.61892 0
M  V30 2422 H 224.257 -2.14633 2.42311 0
M  V30 2423 H 223.164 -0.235157 3.7336 0
M  V30 2424 H 224.497 -0.32904 4.91099 0
M  V30 2425 N 226.149 -1.5696 0.141893 0
M  V30 2426 C 227.096 -2.16501 -0.799737 0
M  V30 2427 C 228.066 -1.09643 -1.24771 0
M  V30 2428 O 229.251 -1.3766 -1.32115 0
M  V30 2429 C 226.391 -2.78679 -2.03549 0
M  V30 2430 C 225.504 -3.99914 -1.6338 0
M  V30 2431 C 224.639 -4.50106 -2.82096 0
M  V30 2432 C 223.678 -5.63819 -2.38275 0
M  V30 2433 N 222.815 -6.08651 -3.49983 0
M  V30 2434 H 227.655 -2.96632 -0.285179 0
M  V30 2435 H 225.192 -1.46533 -0.129053 0
M  V30 2436 H 227.15 -3.1287 -2.75986 0
M  V30 2437 H 225.78 -2.012 -2.52425 0
M  V30 2438 H 224.832 -3.71735 -0.807279 0
M  V30 2439 H 226.144 -4.82311 -1.27192 0
M  V30 2440 H 225.298 -4.86325 -3.62729 0
M  V30 2441 H 224.037 -3.66706 -3.21525 0
M  V30 2442 H 223.042 -5.2718 -1.56081 0
M  V30 2443 H 224.267 -6.49 -1.99938 0
M  V30 2444 H 222.213 -5.28188 -3.89042 0
M  V30 2445 H 222.13 -6.85961 -3.17794 0
M  V30 2446 H 223.398 -6.49515 -4.30988 0
M  V30 2447 N 227.627 0.131896 -1.57047 0
M  V30 2448 C 228.876 0.84044 -1.83356 0
M  V30 2449 C 229.189 1.81646 -0.725535 0
M  V30 2450 O 230.395 2.57025 -0.874659 0
M  V30 2451 C 228.851 1.54528 -3.25037 0
M  V30 2452 C 228.459 0.610902 -4.43815 0
M  V30 2453 C 230.203 2.23972 -3.60606 0
M  V30 2454 C 228.11 1.31823 -5.76521 0
M  V30 2455 H 227.04 0.317599 -0.683847 0
M  V30 2456 H 229.691 0.0931561 -1.83263 0
M  V30 2457 H 228.073 2.33873 -3.19561 0
M  V30 2458 H 229.247 -0.148407 -4.60561 0
M  V30 2459 H 227.562 0.0241016 -4.16393 0
M  V30 2460 H 230.159 2.77558 -4.57018 0
M  V30 2461 H 230.502 3.01173 -2.87403 0
M  V30 2462 H 231.035 1.51529 -3.6781 0
M  V30 2463 H 227.774 0.587771 -6.52859 0
M  V30 2464 H 227.294 2.04987 -5.63685 0
M  V30 2465 H 228.973 1.855 -6.19838 0
M  V30 2466 N 229.106 1.52395 0.401703 0
M  V30 2467 C 230.352 1.68019 1.14635 0
M  V30 2468 C 230.707 0.408722 1.88009 0
M  V30 2469 O 230 -0.597133 1.82057 0
M  V30 2470 C 230.194 2.84578 2.16217 0
M  V30 2471 C 230.023 4.22938 1.5282 0
M  V30 2472 C 228.793 4.88352 1.29772 0
M  V30 2473 C 230.991 5.04778 0.985094 0
M  V30 2474 N 228.973 6.10726 0.623455 0
M  V30 2475 C 230.344 6.1845 0.438172 0
M  V30 2476 C 232.399 4.90057 0.880275 0
M  V30 2477 C 231.102 7.19013 -0.203306 0
M  V30 2478 C 233.128 5.9086 0.252639 0
M  V30 2479 C 232.49 7.03829 -0.283573 0
M  V30 2480 H 228.589 0.668413 0.405892 0
M  V30 2481 H 231.173 1.89717 0.437674 0
M  V30 2482 H 229.344 2.64483 2.84435 0
M  V30 2483 H 231.076 2.89202 2.83098 0
M  V30 2484 H 227.831 4.46846 1.56926 0
M  V30 2485 H 228.255 6.76323 0.302733 0
M  V30 2486 H 232.897 4.02938 1.28065 0
M  V30 2487 H 230.615 8.05751 -0.615726 0
M  V30 2488 H 234.201 5.81543 0.172954 0
M  V30 2489 H 233.081 7.80493 -0.761575 0
M  V30 2490 N 230.584 -0.659388 1.43143 0
M  V30 2491 C 231.531 -1.77249 1.47822 0
M  V30 2492 C 232.501 -1.62818 0.328558 0
M  V30 2493 O 233.686 -1.83151 0.534838 0
M  V30 2494 C 230.826 -3.15371 1.40126 0
M  V30 2495 C 229.939 -3.4098 2.65249 0
M  V30 2496 C 229.074 -4.68915 2.49584 0
M  V30 2497 C 228.113 -4.87608 3.70006 0
M  V30 2498 N 227.25 -6.06796 3.53189 0
M  V30 2499 H 232.09 -1.72584 2.42938 0
M  V30 2500 H 229.627 -0.842297 1.20598 0
M  V30 2501 H 231.585 -3.9521 1.33659 0
M  V30 2502 H 230.215 -3.19121 0.485964 0
M  V30 2503 H 229.267 -2.55282 2.8202 0
M  V30 2504 H 230.579 -3.50681 3.54717 0
M  V30 2505 H 229.733 -5.56871 2.4079 0
M  V30 2506 H 228.472 -4.61524 1.5763 0
M  V30 2507 H 227.477 -3.9809 3.79215 0
M  V30 2508 H 228.702 -4.96834 4.62961 0
M  V30 2509 H 226.648 -6.00549 2.63965 0
M  V30 2510 H 226.565 -6.17428 4.36255 0
M  V30 2511 H 227.833 -6.9739 3.48236 0
M  V30 2512 N 232.062 -1.29571 -0.897171 0
M  V30 2513 C 233.292 -1.20408 -1.67886 0
M  V30 2514 C 233.7 0.237429 -1.87704 0
M  V30 2515 O 233.043 1.17048 -1.41582 0
M  V30 2516 C 233.105 -1.84887 -3.08314 0
M  V30 2517 C 232.769 -3.34189 -3.11716 0
M  V30 2518 C 233.766 -4.30374 -2.91675 0
M  V30 2519 C 231.451 -3.75431 -3.33701 0
M  V30 2520 C 233.445 -5.65776 -2.93557 0
M  V30 2521 C 231.132 -5.10955 -3.35214 0
M  V30 2522 C 232.13 -6.05938 -3.15164 0
M  V30 2523 O 231.818 -7.38987 -3.1647 0
M  V30 2524 H 231.55 -0.418289 -0.531046 0
M  V30 2525 H 234.104 -1.71514 -1.13014 0
M  V30 2526 H 232.334 -1.28295 -3.64798 0
M  V30 2527 H 234.023 -1.70011 -3.6858 0
M  V30 2528 H 234.789 -3.99844 -2.74499 0
M  V30 2529 H 230.668 -3.01953 -3.48347 0
M  V30 2530 H 234.212 -6.39889 -2.77826 0
M  V30 2531 H 230.109 -5.4113 -3.51922 0
M  V30 2532 H 230.877 -7.47823 -3.3272 0
M  V30 2533 N 233.54 1.10788 -1.12088 0
M  V30 2534 C 234.787 1.82671 -0.873931 0
M  V30 2535 C 235.115 1.85004 0.600311 0
M  V30 2536 O 234.37 1.30365 1.45957 0
M  V30 2537 C 234.669 3.29294 -1.38926 0
M  V30 2538 C 234.335 3.47113 -2.87791 0
M  V30 2539 C 232.997 3.51684 -3.28439 0
M  V30 2540 C 235.349 3.52808 -3.83635 0
M  V30 2541 C 232.677 3.59513 -4.63646 0
M  V30 2542 C 235.029 3.62169 -5.18668 0
M  V30 2543 C 233.693 3.65003 -5.58864 0
M  V30 2544 H 232.963 0.668441 -0.319794 0
M  V30 2545 H 235.61 1.30613 -1.40045 0
M  V30 2546 H 233.915 3.83894 -0.783122 0
M  V30 2547 H 235.612 3.83416 -1.17443 0
M  V30 2548 H 232.202 3.4423 -2.5535 0
M  V30 2549 H 236.386 3.4853 -3.53328 0
M  V30 2550 H 231.642 3.59987 -4.94185 0
M  V30 2551 H 235.816 3.6552 -5.92763 0
M  V30 2552 H 233.443 3.70822 -6.63623 0
M  V30 2553 N 235.018 0.912232 1.28515 0
M  V30 2554 C 236.266 0.543523 1.94654 0
M  V30 2555 C 236.587 -0.9155 1.72173 0
M  V30 2556 O 235.857 -1.64708 1.06058 0
M  V30 2557 H 234.437 0.198017 0.720277 0
M  V30 2558 H 237.099 1.16126 1.56527 0
M  V30 2559 H 236.195 0.736684 3.03281 0
M  V30 2560 N 236.496 -1.42363 0.676048 0
M  V30 2561 C 237.443 -2.308 -0.00150904 0
M  V30 2562 C 238.413 -1.46032 -0.791444 0
M  V30 2563 O 239.598 -1.74861 -0.76344 0
M  V30 2564 C 236.738 -3.31883 -0.945919 0
M  V30 2565 C 235.851 -4.31741 -0.149675 0
M  V30 2566 C 234.986 -5.19898 -1.08995 0
M  V30 2567 C 234.025 -6.11434 -0.285465 0
M  V30 2568 N 233.162 -6.92138 -1.17851 0
M  V30 2569 H 238.002 -2.88187 0.758455 0
M  V30 2570 H 235.539 -1.41952 0.38576 0
M  V30 2571 H 237.497 -3.89019 -1.50731 0
M  V30 2572 H 236.127 -2.76093 -1.6725 0
M  V30 2573 H 235.179 -3.76713 0.528359 0
M  V30 2574 H 236.491 -4.96534 0.474866 0
M  V30 2575 H 235.645 -5.81772 -1.72123 0
M  V30 2576 H 234.384 -4.55284 -1.74837 0
M  V30 2577 H 233.389 -5.48627 0.359018 0
M  V30 2578 H 234.614 -6.78097 0.368883 0
M  V30 2579 H 232.56 -6.30152 -1.82332 0
M  V30 2580 H 232.477 -7.53542 -0.609082 0
M  V30 2581 H 233.745 -7.58499 -1.79722 0
M  V30 2582 N 237.974 -0.419461 -1.51915 0
M  V30 2583 C 238.922 0.415502 -2.28859 0
M  V30 2584 C 239.916 1.03674 -1.3397 0
M  V30 2585 O 241.122 0.973757 -1.51387 0
M  V30 2586 H 237.497 0.152786 -0.736315 0
M  V30 2587 H 239.468 -0.254531 -2.97312 0
M  V30 2588 C 238.217 1.51425 -3.12995 0
M  V30 2589 H 237.54 1.04556 -3.85886 0
M  V30 2590 H 238.98 2.07208 -3.6992 0
M  V30 2591 C 237.439 2.48745 -2.27217 0
M  V30 2592 O 237.969 3.52871 -1.9195 0
M  V30 2593 N 236.175 2.19202 -1.90785 0
M  V30 2594 H 235.722 1.34556 -2.19664 0
M  V30 2595 H 235.68 2.84561 -1.33687 0
M  V30 2596 N 239.452 1.56882 -0.150215 0
M  V30 2597 C 240.729 1.87844 0.545327 0
M  V30 2598 C 241.109 1.0567 1.82749 0
M  V30 2599 O 240.457 0.144442 2.28043 0
M  V30 2600 C 240.667 3.39526 0.80767 0
M  V30 2601 C 242.015 4.08814 1.14703 0
M  V30 2602 O 243.039 3.44723 0.896917 0
M  V30 2603 O 241.898 5.22004 1.61784 0
M  V30 2604 H 238.992 0.778677 0.278553 0
M  V30 2605 H 241.538 1.68666 -0.187068 0
M  V30 2606 H 240.31 3.91173 -0.0996096 0
M  V30 2607 H 239.933 3.64243 1.59413 0
M  V30 2608 N 240.93 -0.123565 1.57115 0
M  V30 2609 C 242.207 -0.862196 1.75572 0
M  V30 2610 C 242.587 -1.98279 0.724475 0
M  V30 2611 O 241.935 -2.27102 -0.252407 0
M  V30 2612 C 242.145 -1.38309 3.20424 0
M  V30 2613 C 243.493 -1.83724 3.82793 0
M  V30 2614 O 244.517 -1.47999 3.23998 0
M  V30 2615 O 243.376 -2.49685 4.86127 0
M  V30 2616 H 240.47 -0.409113 0.718718 0
M  V30 2617 H 243.016 -0.107661 1.69358 0
M  V30 2618 H 241.788 -0.578889 3.86994 0
M  V30 2619 H 241.411 -2.20046 3.31158 0
M  V30 2620 N 242.408 -1.52605 -0.393616 0
M  V30 2621 C 243.685 -1.58001 -1.15304 0
M  V30 2622 C 244.065 -0.370385 -2.07825 0
M  V30 2623 O 243.413 0.641638 -2.19306 0
M  V30 2624 C 243.623 -2.91652 -1.91677 0
M  V30 2625 C 244.971 -3.4522 -2.47201 0
M  V30 2626 O 245.995 -2.93495 -2.01839 0
M  V30 2627 O 244.854 -4.35579 -3.3005 0
M  V30 2628 H 241.948 -0.637068 -0.527327 0
M  V30 2629 H 244.494 -1.64939 -0.399141 0
M  V30 2630 H 243.266 -3.71136 -1.23992 0
M  V30 2631 H 242.889 -2.88077 -2.74039 0
M  V30 2632 N 243.887 0.651787 -1.4349 0
M  V30 2633 C 244.834 1.76462 -1.4876 0
M  V30 2634 C 245.804 1.62641 -0.337189 0
M  V30 2635 O 246.989 1.82864 -0.544544 0
M  V30 2636 C 244.129 3.14623 -1.41796 0
M  V30 2637 C 243.242 3.39568 -2.67053 0
M  V30 2638 C 242.377 4.67585 -2.52068 0
M  V30 2639 C 241.416 4.85639 -3.72587 0
M  V30 2640 N 240.553 6.04915 -3.56402 0
M  V30 2641 H 245.393 1.71293 -2.43849 0
M  V30 2642 H 242.93 0.835889 -1.21043 0
M  V30 2643 H 244.888 3.94496 -1.35753 0
M  V30 2644 H 243.518 3.18859 -0.50288 0
M  V30 2645 H 242.57 2.53783 -2.8337 0
M  V30 2646 H 243.882 3.48795 -3.56572 0
M  V30 2647 H 243.036 5.55586 -2.4374 0
M  V30 2648 H 241.775 4.60681 -1.60075 0
M  V30 2649 H 240.78 3.96073 -3.81321 0
M  V30 2650 H 242.005 4.94372 -4.65589 0
M  V30 2651 H 239.951 5.9914 -2.67146 0
M  V30 2652 H 239.868 6.15106 -4.39524 0
M  V30 2653 H 241.136 6.95533 -3.51929 0
M  V30 2654 N 245.365 1.30045 0.890287 0
M  V30 2655 C 246.295 1.18541 2.01172 0
M  V30 2656 C 247.276 0.0773356 1.69924 0
M  V30 2657 O 248.461 0.25845 1.92473 0
M  V30 2658 C 245.591 0.870941 3.36202 0
M  V30 2659 C 244.545 1.93637 3.81692 0
M  V30 2660 C 243.871 1.475 5.13953 0
M  V30 2661 C 245.171 3.34666 4.00994 0
M  V30 2662 H 246.865 2.12359 2.11054 0
M  V30 2663 H 244.411 1.02238 1.01407 0
M  V30 2664 H 246.364 0.777141 4.14172 0
M  V30 2665 H 245.088 -0.102926 3.26438 0
M  V30 2666 H 243.747 2.01972 3.05946 0
M  V30 2667 H 243.395 0.489551 5.00612 0
M  V30 2668 H 243.095 2.1876 5.4536 0
M  V30 2669 H 244.619 1.39489 5.94454 0
M  V30 2670 H 246.033 3.2912 4.69417 0
M  V30 2671 H 244.43 4.03966 4.43769 0
M  V30 2672 H 245.5 3.76949 3.05021 0
M  V30 2673 N 246.843 -1.10192 1.12674 0
M  V30 2674 C 248.071 -1.85983 0.906527 0
M  V30 2675 C 248.486 -1.80783 -0.544333 0
M  V30 2676 O 247.843 -1.19834 -1.37645 0
M  V30 2677 C 247.894 -3.34281 1.37618 0
M  V30 2678 O 247.615 -3.39401 2.77017 0
M  V30 2679 C 249.116 -4.26938 1.19325 0
M  V30 2680 H 246.336 -0.587716 0.323775 0
M  V30 2681 H 248.88 -1.39284 1.49734 0
M  V30 2682 H 247.035 -3.78436 0.828539 0
M  V30 2683 H 247.449 -4.31838 2.97684 0
M  V30 2684 H 248.923 -5.29181 1.57071 0
M  V30 2685 H 249.4 -4.38995 0.134097 0
M  V30 2686 H 250.006 -3.8859 1.72852 0
M  V30 2687 N 248.321 -0.919034 -1.28029 0
M  V30 2688 C 249.231 -0.416756 -2.30869 0
M  V30 2689 C 250.247 0.498235 -1.66714 0
M  V30 2690 O 251.423 0.383144 -1.97722 0
M  V30 2691 C 248.488 0.330274 -3.45123 0
M  V30 2692 C 247.549 -0.618578 -4.2482 0
M  V30 2693 C 246.782 0.0928959 -5.33619 0
M  V30 2694 O 247.005 1.31375 -5.55065 0
M  V30 2695 O 245.939 -0.574499 -5.99152 0
M  V30 2696 H 249.765 -1.27043 -2.75851 0
M  V30 2697 H 247.35 -0.684052 -1.3282 0
M  V30 2698 H 249.232 0.751972 -4.14636 0
M  V30 2699 H 247.907 1.1597 -3.02213 0
M  V30 2700 H 246.814 -1.08978 -3.57875 0
M  V30 2701 H 248.147 -1.41497 -4.71423 0
M  V30 2702 N 249.799 1.42003 -0.683588 0
M  V30 2703 C 250.746 2.30798 -0.0107309 0
M  V30 2704 C 251.716 1.4645 0.783688 0
M  V30 2705 O 252.901 1.75263 0.754156 0
M  V30 2706 C 250.041 3.3238 0.928306 0
M  V30 2707 C 249.154 4.31814 0.126776 0
M  V30 2708 C 248.289 5.20468 1.06236 0
M  V30 2709 C 247.328 6.11577 0.253035 0
M  V30 2710 N 246.465 6.92754 1.14179 0
M  V30 2711 H 251.305 2.8778 -0.773727 0
M  V30 2712 H 248.842 1.41745 -0.393283 0
M  V30 2713 H 250.8 3.89813 1.48666 0
M  V30 2714 H 249.43 2.76976 1.65783 0
M  V30 2715 H 248.482 3.76427 -0.54833 0
M  V30 2716 H 249.794 4.96276 -0.501192 0
M  V30 2717 H 248.948 5.82677 1.69035 0
M  V30 2718 H 247.687 4.56204 1.7242 0
M  V30 2719 H 246.692 5.48428 -0.388108 0
M  V30 2720 H 247.917 6.77892 -0.404839 0
M  V30 2721 H 245.863 6.3111 1.78987 0
M  V30 2722 H 245.78 7.53855 0.569111 0
M  V30 2723 H 247.048 7.59441 1.75697 0
M  V30 2724 N 251.277 0.427512 1.51691 0
M  V30 2725 C 252.187 -0.39527 2.31246 0
M  V30 2726 C 253.203 -1.03674 1.39742 0
M  V30 2727 O 254.379 -1.03425 1.72816 0
M  V30 2728 C 251.444 -1.48706 3.13189 0
M  V30 2729 C 250.505 -0.866743 4.20459 0
M  V30 2730 C 249.738 -1.90651 4.98486 0
M  V30 2731 O 249.961 -3.12733 4.77026 0
M  V30 2732 O 248.895 -1.5025 5.82845 0
M  V30 2733 H 252.721 0.253918 3.02637 0
M  V30 2734 H 250.306 0.190274 1.48183 0
M  V30 2735 H 252.188 -2.12047 3.64162 0
M  V30 2736 H 250.863 -2.12051 2.44573 0
M  V30 2737 H 249.77 -0.195544 3.73589 0
M  V30 2738 H 251.103 -0.276934 4.9142 0
M  V30 2739 N 252.755 -1.56801 0.158532 0
M  V30 2740 C 254.002 -1.9649 -0.489679 0
M  V30 2741 C 254.33 -1.04394 -1.6411 0
M  V30 2742 O 253.585 -0.0754401 -1.95555 0
M  V30 2743 C 253.884 -3.4235 -1.02623 0
M  V30 2744 C 253.55 -4.50899 0.00794526 0
M  V30 2745 C 252.212 -4.80312 0.292207 0
M  V30 2746 C 254.564 -5.16333 0.710584 0
M  V30 2747 C 251.892 -5.72461 1.28472 0
M  V30 2748 C 254.244 -6.09553 1.69199 0
M  V30 2749 C 252.908 -6.37339 1.98383 0
M  V30 2750 H 252.178 -0.719009 -0.179186 0
M  V30 2751 H 254.825 -1.8989 0.247798 0
M  V30 2752 H 253.13 -3.45838 -1.84128 0
M  V30 2753 H 254.827 -3.70393 -1.53656 0
M  V30 2754 H 251.417 -4.28015 -0.22379 0
M  V30 2755 H 255.601 -4.93732 0.504174 0
M  V30 2756 H 250.857 -5.92278 1.51714 0
M  V30 2757 H 255.031 -6.59327 2.24189 0
M  V30 2758 H 252.658 -7.08546 2.7544 0
M  V30 2759 N 254.233 0.115231 -1.57178 0
M  V30 2760 C 255.482 0.820945 -1.84237 0
M  V30 2761 C 255.795 1.80866 -0.744761 0
M  V30 2762 O 257.001 2.56083 -0.901871 0
M  V30 2763 C 255.457 1.51072 -3.26658 0
M  V30 2764 C 255.065 0.563795 -4.44438 0
M  V30 2765 C 256.809 2.20134 -3.62962 0
M  V30 2766 C 254.716 1.25701 -5.77887 0
M  V30 2767 H 253.646 0.310328 -0.687177 0
M  V30 2768 H 256.297 0.0737134 -1.83352 0
M  V30 2769 H 254.679 2.30471 -3.22024 0
M  V30 2770 H 255.853 -0.197247 -4.60378 0
M  V30 2771 H 254.168 -0.0200638 -4.16395 0
M  V30 2772 H 256.765 2.72696 -4.59936 0
M  V30 2773 H 257.108 2.98107 -2.90582 0
M  V30 2774 H 257.641 1.47619 -3.69396 0
M  V30 2775 H 254.38 0.518493 -6.53446 0
M  V30 2776 H 253.9 1.98997 -5.65827 0
M  V30 2777 H 255.579 1.78915 -6.2177 0
M  V30 2778 N 255.711 1.52812 0.385517 0
M  V30 2779 C 256.621 1.80766 1.49535 0
M  V30 2780 C 257.637 0.694651 1.59532 0
M  V30 2781 O 258.813 0.982611 1.75803 0
M  V30 2782 C 255.878 1.97381 2.85029 0
M  V30 2783 C 254.939 3.21295 2.84724 0
M  V30 2784 C 254.172 3.37108 4.13756 0
M  V30 2785 O 254.395 2.5765 5.08893 0
M  V30 2786 O 253.329 4.30378 4.20783 0
M  V30 2787 H 257.155 2.75015 1.28842 0
M  V30 2788 H 254.74 1.37946 0.573697 0
M  V30 2789 H 256.622 2.09996 3.65349 0
M  V30 2790 H 255.297 1.06322 3.05741 0
M  V30 2791 H 254.204 3.1412 2.03174 0
M  V30 2792 H 255.537 4.12212 2.68965 0
M  V30 2793 N 257.189 -0.644168 1.43834 0
M  V30 2794 C 258.437 -1.40117 1.45642 0
M  V30 2795 C 258.758 -1.94814 0.0852413 0
M  V30 2796 O 258.028 -1.74988 -0.880688 0
M  V30 2797 H 256.608 -0.52005 0.536243 0
M  V30 2798 H 259.27 -0.7591 1.7951 0
M  V30 2799 H 258.366 -2.23902 2.17427 0
M  V30 2800 N 258.668 -1.30515 -0.883378 0
M  V30 2801 C 259.896 -1.22359 -1.66841 0
M  V30 2802 C 260.311 0.213296 -1.87591 0
M  V30 2803 O 259.668 1.14075 -1.42454 0
M  V30 2804 C 259.719 -1.95011 -3.04389 0
M  V30 2805 O 259.44 -3.3309 -2.84575 0
M  V30 2806 C 260.941 -1.93532 -3.98824 0
M  V30 2807 H 258.161 -0.423371 -0.520575 0
M  V30 2808 H 260.705 -1.72167 -1.10357 0
M  V30 2809 H 258.86 -1.48997 -3.57601 0
M  V30 2810 H 259.274 -3.69907 -3.71846 0
M  V30 2811 H 260.748 -2.48902 -4.92699 0
M  V30 2812 H 261.225 -0.914627 -4.29571 0
M  V30 2813 H 261.831 -2.39364 -3.51547 0
M  V30 2814 N 260.146 1.09593 -1.13257 0
M  V30 2815 C 261.076 2.18214 -0.830946 0
M  V30 2816 C 262.057 1.68812 0.208966 0
M  V30 2817 O 263.242 1.9408 0.0682666 0
M  V30 2818 C 260.372 3.46051 -0.294296 0
M  V30 2819 C 259.326 4.08778 -1.26826 0
M  V30 2820 C 258.652 5.31419 -0.591449 0
M  V30 2821 C 259.952 4.51476 -2.62615 0
M  V30 2822 H 261.646 2.43703 -1.73923 0
M  V30 2823 H 259.192 1.17128 -0.837675 0
M  V30 2824 H 261.145 4.2134 -0.0709606 0
M  V30 2825 H 259.869 3.20079 0.649366 0
M  V30 2826 H 258.528 3.35505 -1.47756 0
M  V30 2827 H 258.176 5.01727 0.357633 0
M  V30 2828 H 257.876 5.74341 -1.24123 0
M  V30 2829 H 259.4 6.09433 -0.377355 0
M  V30 2830 H 260.814 5.17999 -2.45663 0
M  V30 2831 H 259.211 5.05277 -3.23752 0
M  V30 2832 H 260.281 3.63962 -3.20406 0
M  V30 2833 N 261.624 0.925811 1.2754 0
M  V30 2834 C 262.587 0.428129 2.25166 0
M  V30 2835 C 263.587 -0.452261 1.54309 0
M  V30 2836 O 264.777 -0.253608 1.72344 0
M  V30 2837 C 261.909 -0.384749 3.38722 0
M  V30 2838 H 263.102 1.29066 2.70706 0
M  V30 2839 H 260.655 0.706323 1.3943 0
M  V30 2840 H 261.39 -1.26618 2.98561 0
M  V30 2841 H 261.175 0.246454 3.91325 0
M  V30 2842 H 262.665 -0.723389 4.11287 0
M  V30 2843 N 263.102 -1.41638 0.69111 0
M  V30 2844 C 264.05 -2.32597 0.0115199 0
M  V30 2845 C 265.044 -1.5072 -0.773296 0
M  V30 2846 O 266.25 -1.66685 -0.67942 0
M  V30 2847 H 262.625 -0.751849 -0.0150746 0
M  V30 2848 H 264.596 -2.87593 0.795791 0
M  V30 2849 C 263.345 -3.35467 -0.914172 0
M  V30 2850 H 262.668 -3.9852 -0.319687 0
M  V30 2851 H 264.108 -4.01662 -1.35808 0
M  V30 2852 C 262.567 -2.69004 -2.02826 0
M  V30 2853 O 263.097 -2.53444 -3.11655 0
M  V30 2854 N 261.303 -2.2777 -1.80469 0
M  V30 2855 H 260.85 -2.40626 -0.919615 0
M  V30 2856 H 260.808 -1.83635 -2.55197 0
M  V30 2857 N 264.58 -0.43555 -1.51462 0
M  V30 2858 C 265.527 0.376797 -2.27703 0
M  V30 2859 C 266.497 1.01838 -1.31219 0
M  V30 2860 O 267.682 1.03762 -1.60119 0
M  V30 2861 C 264.822 1.47301 -3.12084 0
M  V30 2862 C 263.935 0.849744 -4.2356 0
M  V30 2863 C 263.07 1.92086 -4.95254 0
M  V30 2864 C 262.109 1.27593 -5.98654 0
M  V30 2865 N 261.246 2.28833 -6.63762 0
M  V30 2866 H 266.086 -0.279734 -2.96684 0
M  V30 2867 H 263.623 -0.149795 -1.46335 0
M  V30 2868 H 265.581 2.11984 -3.59331 0
M  V30 2869 H 264.211 2.0992 -2.45221 0
M  V30 2870 H 263.263 0.0912529 -3.80291 0
M  V30 2871 H 264.575 0.338878 -4.97648 0
M  V30 2872 H 263.729 2.64435 -5.46039 0
M  V30 2873 H 262.468 2.46545 -4.20793 0
M  V30 2874 H 261.473 0.537893 -5.47162 0
M  V30 2875 H 262.698 0.738693 -6.7507 0
M  V30 2876 H 260.644 2.82375 -5.92115 0
M  V30 2877 H 260.561 1.82632 -7.33608 0
M  V30 2878 H 261.829 3.00671 -7.19178 0
M  V30 2879 N 266.058 1.56714 -0.166846 0
M  V30 2880 C 266.968 2.21331 0.777791 0
M  V30 2881 C 267.984 1.20358 1.25658 0
M  V30 2882 O 269.16 1.53005 1.30964 0
M  V30 2883 C 266.225 2.83787 1.99163 0
M  V30 2884 C 265.286 3.99947 1.56016 0
M  V30 2885 C 264.519 4.59415 2.71613 0
M  V30 2886 O 264.742 4.17769 3.88362 0
M  V30 2887 O 263.676 5.49359 2.45945 0
M  V30 2888 H 267.502 3.02605 0.257636 0
M  V30 2889 H 265.087 1.49275 0.0611393 0
M  V30 2890 H 266.969 3.23405 2.70161 0
M  V30 2891 H 265.644 2.05513 2.50092 0
M  V30 2892 H 264.551 3.65007 0.819809 0
M  V30 2893 H 265.884 4.79801 1.09782 0
M  V30 2894 N 267.536 -0.106894 1.57237 0
M  V30 2895 C 268.785 -0.811163 1.8467 0
M  V30 2896 C 269.098 -1.80469 0.754342 0
M  V30 2897 O 270.304 -2.55601 0.915439 0
M  V30 2898 C 268.76 -1.49337 3.27454 0
M  V30 2899 C 268.368 -0.540217 4.44731 0
M  V30 2900 C 270.112 -2.18206 3.64124 0
M  V30 2901 C 268.019 -1.22634 5.78545 0
M  V30 2902 H 266.949 -0.306679 0.688813 0
M  V30 2903 H 269.6 -0.0639887 1.83388 0
M  V30 2904 H 267.982 -2.2876 3.23241 0
M  V30 2905 H 269.156 0.221659 4.60267 0
M  V30 2906 H 267.471 0.042146 4.16379 0
M  V30 2907 H 270.068 -2.70253 4.61376 0
M  V30 2908 H 270.411 -2.96562 2.92158 0
M  V30 2909 H 270.944 -1.45658 3.70174 0
M  V30 2910 H 267.683 -0.483832 6.53712 0
M  V30 2911 H 267.203 -1.95993 5.66874 0
M  V30 2912 H 268.882 -1.75615 6.2271 0
M  V30 2913 N 269.014 -1.53014 -0.377408 0
M  V30 2914 C 269.944 -1.81589 -1.46791 0
M  V30 2915 C 270.925 -0.668622 -1.56408 0
M  V30 2916 O 272.11 -0.917337 -1.71168 0
M  V30 2917 C 269.24 -1.99519 -2.8427 0
M  V30 2918 C 268.194 -3.15249 -2.89486 0
M  V30 2919 C 267.52 -3.18451 -4.29527 0
M  V30 2920 C 268.82 -4.54084 -2.58079 0
M  V30 2921 H 270.514 -2.7291 -1.23127 0
M  V30 2922 H 268.06 -1.31319 -0.590883 0
M  V30 2923 H 270.013 -2.18092 -3.60575 0
M  V30 2924 H 268.737 -1.04897 -3.09296 0
M  V30 2925 H 267.396 -2.96477 -2.15631 0
M  V30 2926 H 267.044 -2.2149 -4.5161 0
M  V30 2927 H 266.744 -3.962 -4.33934 0
M  V30 2928 H 268.268 -3.39193 -5.07721 0
M  V30 2929 H 269.682 -4.72899 -3.24098 0
M  V30 2930 H 268.079 -5.33987 -2.7382 0
M  V30 2931 H 269.149 -4.60006 -1.53372 0
M  V30 2932 N 270.492 0.636531 -1.44174 0
M  V30 2933 C 271.908 0.954104 -1.27941 0
M  V30 2934 C 272.108 2.0039 -0.211248 0
M  V30 2935 O 271.164 2.49236 0.404695 0
M  V30 2936 C 272.477 1.4225 -2.64925 0
M  V30 2937 C 274.025 1.53827 -2.72592 0
M  V30 2938 C 274.5 2.04053 -4.10032 0
M  V30 2939 N 275.991 2.11331 -4.12182 0
M  V30 2940 C 276.726 2.51352 -5.15374 0
M  V30 2941 N 276.222 2.90549 -6.2893 0
M  V30 2942 N 278.015 2.51438 -5.02728 0
M  V30 2943 H 270.166 -0.0578386 -2.12321 0
M  V30 2944 H 272.429 0.0367406 -0.947288 0
M  V30 2945 H 272.135 0.725466 -3.44136 0
M  V30 2946 H 272.009 2.39451 -2.9145 0
M  V30 2947 H 274.396 2.22628 -1.93702 0
M  V30 2948 H 274.477 0.550154 -2.49814 0
M  V30 2949 H 274.121 1.35848 -4.89395 0
M  V30 2950 H 274.051 3.03726 -4.30184 0
M  V30 2951 H 276.542 1.83745 -3.30222 0
M  V30 2952 H 276.855 3.19884 -7.03487 0
M  V30 2953 H 275.2 2.88313 -6.32377 0
M  V30 2954 H 278.391 2.20203 -4.13072 0
M  V30 2955 H 278.564 2.82304 -5.83274 0
M  V30 2956 N 271.97 1.30982 0.876444 0
M  V30 2957 C 272.9 1.20668 1.99903 0
M  V30 2958 C 273.881 0.095354 1.69833 0
M  V30 2959 O 275.066 0.27885 1.92188 0
M  V30 2960 C 272.196 0.90655 3.3526 0
M  V30 2961 C 271.15 1.97675 3.79617 0
M  V30 2962 C 270.476 1.52943 5.1236 0
M  V30 2963 C 271.776 3.389 3.97422 0
M  V30 2964 H 273.47 2.14586 2.0879 0
M  V30 2965 H 271.016 1.03308 1.00317 0
M  V30 2966 H 272.969 0.821025 4.13324 0
M  V30 2967 H 271.693 -0.0682969 3.26529 0
M  V30 2968 H 270.352 2.05205 3.03787 0
M  V30 2969 H 270 0.54262 5.00065 0
M  V30 2970 H 269.7 2.24532 5.43009 0
M  V30 2971 H 271.224 1.45786 5.92941 0
M  V30 2972 H 272.638 3.34081 4.659 0
M  V30 2973 H 271.035 4.0865 4.3946 0
M  V30 2974 H 272.105 3.80163 3.01006 0
M  V30 2975 N 273.449 -1.08991 1.13837 0
M  V30 2976 C 274.698 -1.80631 0.897509 0
M  V30 2977 C 275.011 -1.86872 -0.57777 0
M  V30 2978 O 276.217 -2.54866 -0.935701 0
M  V30 2979 C 274.673 -3.24517 1.55618 0
M  V30 2980 C 274.281 -3.26529 3.0673 0
M  V30 2981 C 276.025 -4.00882 1.3962 0
M  V30 2982 C 273.932 -4.64965 3.65461 0
M  V30 2983 H 272.862 -0.67691 0.332129 0
M  V30 2984 H 275.513 -1.2246 1.3666 0
M  V30 2985 H 273.895 -3.82778 1.01476 0
M  V30 2986 H 275.069 -2.78008 3.67489 0
M  V30 2987 H 273.384 -2.63656 3.22296 0
M  V30 2988 H 275.981 -5.03167 1.80906 0
M  V30 2989 H 276.324 -4.14896 0.341578 0
M  V30 2990 H 276.857 -3.49075 1.90766 0
M  V30 2991 H 273.596 -4.56153 4.70749 0
M  V30 2992 H 273.116 -5.13792 3.09481 0
M  V30 2993 H 274.795 -5.3394 3.654 0
M  V30 2994 N 274.927 -0.932562 -1.27047 0
M  V30 2995 C 275.859 -0.392734 -2.2581 0
M  V30 2996 C 276.872 0.479241 -1.55586 0
M  V30 2997 O 278.061 0.291078 -1.76111 0
M  V30 2998 C 275.161 0.455456 -3.35826 0
M  V30 2999 C 274.334 -0.398355 -4.35582 0
M  V30 3000 C 273.393 0.387985 -5.24768 0
M  V30 3001 O 272.419 -0.206003 -5.68827 0
M  V30 3002 N 273.621 1.68664 -5.55457 0
M  V30 3003 H 276.386 -1.24173 -2.72766 0
M  V30 3004 H 273.947 -0.800511 -1.40725 0
M  V30 3005 H 275.939 0.988692 -3.92437 0
M  V30 3006 H 274.509 1.20522 -2.88432 0
M  V30 3007 H 273.729 -1.11286 -3.78165 0
M  V30 3008 H 275.017 -0.981889 -4.99236 0
M  V30 3009 H 274.415 2.19147 -5.21528 0
M  V30 3010 H 272.972 2.1663 -6.14748 0
M  V30 3011 N 276.405 1.4127 -0.698611 0
M  V30 3012 C 277.652 2.0118 -0.230865 0
M  V30 3013 C 277.98 1.55338 1.17049 0
M  V30 3014 O 277.235 0.756775 1.80475 0
M  V30 3015 C 277.534 3.56592 -0.240192 0
M  V30 3016 C 277.2 4.21955 -1.58948 0
M  V30 3017 C 275.862 4.39524 -1.95887 0
M  V30 3018 C 278.214 4.58576 -2.47704 0
M  V30 3019 C 275.542 4.90992 -3.2116 0
M  V30 3020 C 277.894 5.11435 -3.72313 0
M  V30 3021 C 276.558 5.27215 -4.0939 0
M  V30 3022 H 275.828 0.736169 -0.0844796 0
M  V30 3023 H 278.475 1.69124 -0.8983 0
M  V30 3024 H 276.78 3.88456 0.510797 0
M  V30 3025 H 278.477 4.00758 0.139296 0
M  V30 3026 H 275.067 4.08657 -1.29219 0
M  V30 3027 H 279.251 4.44654 -2.20445 0
M  V30 3028 H 274.507 5.01393 -3.49878 0
M  V30 3029 H 278.681 5.38752 -4.4127 0
M  V30 3030 H 276.308 5.66859 -5.06533 0
M  V30 3031 N 277.883 0.443576 1.51229 0
M  V30 3032 C 278.793 -0.370721 2.31652 0
M  V30 3033 C 279.809 -1.02186 1.40833 0
M  V30 3034 O 280.985 -1.01586 1.73903 0
M  V30 3035 C 278.05 -1.45376 3.14749 0
M  V30 3036 C 277.111 -0.822099 4.21355 0
M  V30 3037 C 276.344 -1.85353 5.0048 0
M  V30 3038 O 276.567 -3.07656 4.80316 0
M  V30 3039 O 275.501 -1.4406 5.84406 0
M  V30 3040 H 279.327 0.286002 3.0235 0
M  V30 3041 H 276.912 0.20598 1.47973 0
M  V30 3042 H 278.794 -2.08173 3.66391 0
M  V30 3043 H 277.469 -2.09445 2.46809 0
M  V30 3044 H 276.376 -0.155909 3.73775 0
M  V30 3045 H 277.709 -0.224797 4.91686 0
M  V30 3046 N 279.361 -1.56624 0.175154 0
M  V30 3047 C 280.772 -1.83561 -0.340916 0
M  V30 3048 C 281.123 -1.09511 -1.62794 0
M  V30 3049 O 280.248 -0.349389 -2.13561 0
M  V30 3050 C 280.843 -3.32979 -0.625313 0
M  V30 3051 C 279.402 -3.60399 -1.08581 0
M  V30 3052 C 278.549 -2.77024 -0.123722 0
M  V30 3053 H 281.5 -1.53593 0.399344 0
M  V30 3054 H 281.521 -3.50666 -1.47694 0
M  V30 3055 H 281.033 -3.86847 0.311575 0
M  V30 3056 H 279.134 -3.11945 -2.03767 0
M  V30 3057 H 279.247 -4.68711 -0.992317 0
M  V30 3058 H 277.611 -2.46993 -0.621821 0
M  V30 3059 H 278.394 -3.33674 0.807256 0
M  V30 3060 N 280.839 0.0985539 -1.57292 0
M  V30 3061 C 281.771 1.14595 -1.98496 0
M  V30 3062 C 282.784 1.36512 -0.887031 0
M  V30 3063 O 283.973 1.35225 -1.16518 0
M  V30 3064 C 281.073 2.50216 -2.28572 0
M  V30 3065 C 280.246 2.48624 -3.59868 0
M  V30 3066 C 279.305 3.66146 -3.7792 0
M  V30 3067 O 278.331 3.48795 -4.49812 0
M  V30 3068 N 279.533 4.85496 -3.18235 0
M  V30 3069 H 282.298 0.795277 -2.88956 0
M  V30 3070 H 279.859 0.287579 -1.59325 0
M  V30 3071 H 281.851 3.27432 -2.37845 0
M  V30 3072 H 280.421 2.77387 -1.44136 0
M  V30 3073 H 279.641 1.56978 -3.61596 0
M  V30 3074 H 280.929 2.44635 -4.46129 0
M  V30 3075 H 280.327 5.02497 -2.59833 0
M  V30 3076 H 278.884 5.60317 -3.32999 0
M  V30 3077 N 282.317 1.53212 0.369288 0
M  V30 3078 C 283.264 1.79388 1.45219 0
M  V30 3079 C 284.234 0.638059 1.53356 0
M  V30 3080 O 285.419 0.879852 1.69302 0
M  V30 3081 C 282.559 1.98623 2.82211 0
M  V30 3082 C 281.672 3.26337 2.8307 0
M  V30 3083 C 280.807 3.35779 4.11614 0
M  V30 3084 C 279.846 4.5754 4.06601 0
M  V30 3085 N 278.983 4.64155 5.26787 0
M  V30 3086 H 283.823 2.71794 1.22198 0
M  V30 3087 H 281.36 1.34642 0.592444 0
M  V30 3088 H 283.318 2.07761 3.61789 0
M  V30 3089 H 281.948 1.09558 3.03639 0
M  V30 3090 H 281 3.26171 1.95747 0
M  V30 3091 H 282.312 4.15988 2.75237 0
M  V30 3092 H 281.466 3.44208 4.99606 0
M  V30 3093 H 280.205 2.44137 4.22195 0
M  V30 3094 H 279.21 4.49215 3.16996 0
M  V30 3095 H 280.435 5.50519 3.97625 0
M  V30 3096 H 278.381 3.75413 5.3796 0
M  V30 3097 H 278.298 5.47706 5.21109 0
M  V30 3098 H 279.566 4.76863 6.16621 0
M  V30 3099 N 283.795 -0.628877 1.44509 0
M  V30 3100 C 285.041 -1.39045 1.47629 0
M  V30 3101 C 285.374 -1.93892 0.109343 0
M  V30 3102 O 284.649 -1.7379 -0.87334 0
M  V30 3103 C 284.932 -2.55408 2.53848 0
M  V30 3104 C 284.785 -2.05896 3.99909 0
M  V30 3105 C 286.104 -3.5759 2.56549 0
M  V30 3106 H 283.223 -0.504232 0.537512 0
M  V30 3107 H 285.865 -0.710854 1.76201 0
M  V30 3108 H 284.015 -3.13384 2.29615 0
M  V30 3109 H 285.687 -1.52734 4.35282 0
M  V30 3110 H 283.93 -1.37061 4.11578 0
M  V30 3111 H 284.601 -2.89681 4.69882 0
M  V30 3112 H 287.077 -3.09419 2.78207 0
M  V30 3113 H 285.953 -4.36527 3.32769 0
M  V30 3114 H 286.214 -4.11808 1.60832 0
M  V30 3115 N 285.273 -1.31445 -0.869486 0
M  V30 3116 C 286.22 -1.19135 -1.97675 0
M  V30 3117 C 287.19 -0.0770266 -1.65921 0
M  V30 3118 O 288.375 -0.249972 -1.89155 0
M  V30 3119 C 285.515 -0.905149 -3.33018 0
M  V30 3120 C 284.628 -2.10285 -3.77365 0
M  V30 3121 C 283.763 -1.75339 -5.01427 0
M  V30 3122 C 282.802 -2.91515 -5.38224 0
M  V30 3123 N 281.939 -2.56762 -6.53466 0
M  V30 3124 H 286.779 -2.13853 -2.07535 0
M  V30 3125 H 284.316 -1.06379 -1.01597 0
M  V30 3126 H 286.274 -0.719765 -4.10944 0
M  V30 3127 H 284.904 0.00519624 -3.228 0
M  V30 3128 H 283.956 -2.39899 -2.95216 0
M  V30 3129 H 285.268 -2.97237 -4.00564 0
M  V30 3130 H 284.422 -1.53266 -5.87022 0
M  V30 3131 H 283.161 -0.855801 -4.80133 0
M  V30 3132 H 282.166 -3.14237 -4.51149 0
M  V30 3133 H 283.391 -3.81985 -5.61484 0
M  V30 3134 H 281.337 -1.69526 -6.33717 0
M  V30 3135 H 281.254 -3.37243 -6.76612 0
M  V30 3136 H 282.522 -2.38083 -7.42251 0
M  V30 3137 N 286.751 1.08385 -1.14413 0
M  V30 3138 C 287.661 2.18856 -0.844951 0
M  V30 3139 C 288.677 1.73121 0.174668 0
M  V30 3140 O 289.853 2.014 0.00312857 0
M  V30 3141 C 286.918 3.45155 -0.32696 0
M  V30 3142 C 285.979 4.05513 -1.40916 0
M  V30 3143 C 285.212 5.25784 -0.915793 0
M  V30 3144 O 285.435 5.69884 0.242651 0
M  V30 3145 O 284.369 5.77545 -1.69487 0
M  V30 3146 H 288.195 2.46919 -1.76818 0
M  V30 3147 H 285.78 1.17524 -0.922411 0
M  V30 3148 H 287.662 4.21377 -0.0440211 0
M  V30 3149 H 286.337 3.18668 0.568539 0
M  V30 3150 H 285.244 3.30879 -1.74556 0
M  V30 3151 H 286.577 4.3625 -2.27919 0
M  V30 3152 N 288.23 0.939286 1.26551 0
M  V30 3153 C 289.177 0.446088 2.26448 0
M  V30 3154 C 290.147 -0.493234 1.58608 0
M  V30 3155 O 291.332 -0.409857 1.86346 0
M  V30 3156 C 288.472 -0.284375 3.43926 0
M  V30 3157 C 287.585 0.690399 4.26448 0
M  V30 3158 C 286.72 -0.0610712 5.31165 0
M  V30 3159 C 285.759 0.905649 6.05363 0
M  V30 3160 N 284.896 0.186055 7.01853 0
M  V30 3161 H 289.736 1.30291 2.68008 0
M  V30 3162 H 287.273 0.65371 1.31776 0
M  V30 3163 H 289.231 -0.724313 4.10864 0
M  V30 3164 H 287.861 -1.10535 3.03285 0
M  V30 3165 H 286.913 1.24885 3.59316 0
M  V30 3166 H 288.225 1.42873 4.779 0
M  V30 3167 H 287.379 -0.56038 6.04106 0
M  V30 3168 H 286.118 -0.832297 4.80546 0
M  V30 3169 H 285.123 1.4161 5.3125 0
M  V30 3170 H 286.348 1.67685 6.58072 0
M  V30 3171 H 284.294 -0.566714 6.53548 0
M  V30 3172 H 284.211 0.863752 7.51049 0
M  V30 3173 H 285.479 -0.292221 7.78952 0
M  V30 3174 N 289.708 -1.40897 0.706093 0
M  V30 3175 C 290.641 -2.282 -0.00328781 0
M  V30 3176 C 291.619 -1.42816 -0.77732 0
M  V30 3177 O 292.803 -1.72237 -0.765944 0
M  V30 3178 C 289.93 -3.23226 -1.01205 0
M  V30 3179 C 288.976 -4.25222 -0.329955 0
M  V30 3180 S 289.809 -5.27269 0.935298 0
M  V30 3181 C 290.965 -6.25859 -0.0716061 0
M  V30 3182 H 291.198 -2.88016 0.737143 0
M  V30 3183 H 288.731 -1.46191 0.496756 0
M  V30 3184 H 290.689 -3.78503 -1.58888 0
M  V30 3185 H 289.35 -2.62485 -1.72513 0
M  V30 3186 H 288.543 -4.92023 -1.09221 0
M  V30 3187 H 288.145 -3.73595 0.174069 0
M  V30 3188 H 290.437 -6.71204 -0.921521 0
M  V30 3189 H 291.38 -7.0586 0.562765 0
M  V30 3190 H 291.788 -5.62852 -0.431088 0
M  V30 3191 N 291.186 -0.45159 -1.50991 0
M  V30 3192 C 292.133 0.352625 -2.2809 0
M  V30 3193 C 293.103 1.0044 -1.32291 0
M  V30 3194 O 294.288 1.02058 -1.6121 0
M  V30 3195 C 291.428 1.43983 -3.13629 0
M  V30 3196 C 290.541 0.804772 -4.24438 0
M  V30 3197 C 289.676 1.86822 -4.97263 0
M  V30 3198 C 288.715 1.21236 -5.99973 0
M  V30 3199 N 287.852 2.2178 -6.66152 0
M  V30 3200 H 292.692 -0.311186 -2.96371 0
M  V30 3201 H 290.229 -0.165308 -1.46168 0
M  V30 3202 H 292.187 2.08161 -3.61559 0
M  V30 3203 H 290.817 2.07307 -2.47434 0
M  V30 3204 H 289.869 0.0509129 -3.80366 0
M  V30 3205 H 291.181 0.286076 -4.97979 0
M  V30 3206 H 290.335 2.58628 -5.48813 0
M  V30 3207 H 289.074 2.42068 -4.23385 0
M  V30 3208 H 288.079 0.479828 -5.47702 0
M  V30 3209 H 289.304 0.667051 -6.75816 0
M  V30 3210 H 287.25 2.76079 -5.95077 0
M  V30 3211 H 287.167 1.74841 -7.35504 0
M  V30 3212 H 288.435 2.93026 -7.22327 0
M  V30 3213 N 292.664 1.56529 -0.183458 0
M  V30 3214 C 293.612 2.19873 0.758845 0
M  V30 3215 C 294.606 1.16638 1.22849 0
M  V30 3216 O 295.812 1.3481 1.19274 0
M  V30 3217 H 292.187 0.7045 0.263029 0
M  V30 3218 H 294.158 2.97724 0.200755 0
M  V30 3219 C 292.907 2.86314 1.9728 0
M  V30 3220 H 292.23 3.65487 1.62047 0
M  V30 3221 H 293.67 3.3409 2.61075 0
M  V30 3222 C 292.129 1.86729 2.80418 0
M  V30 3223 O 292.659 1.36031 3.77966 0
M  V30 3224 N 290.865 1.55216 2.45675 0
M  V30 3225 H 290.412 1.96636 1.66409 0
M  V30 3226 H 290.37 0.888388 3.01588 0
M  V30 3227 N 294.142 -0.090211 1.57342 0
M  V30 3228 C 295.105 -1.09335 2.01441 0
M  V30 3229 C 296.105 -1.32666 0.908641 0
M  V30 3230 O 297.295 -1.28697 1.174 0
M  V30 3231 C 294.427 -2.44136 2.3793 0
M  V30 3232 H 295.62 -0.713662 2.91285 0
M  V30 3233 H 293.173 -0.335404 1.52659 0
M  V30 3234 H 293.908 -2.86972 1.51055 0
M  V30 3235 H 293.693 -2.28548 3.18603 0
M  V30 3236 H 295.183 -3.16277 2.72688 0
M  V30 3237 O 295.659 -1.59794 -0.234115 0
M  V30 3238 H 296.35 -1.72743 -0.876335 0
M  V30 END ATOM
M  V30 BEGIN BOND
M  V30 END BOND
M  V30 END CTAB
M  END
$$$$
