drugbank_target|P0A6Y5 33 kDa chaperonin (DB03814)
 OpenBabel12092120283D

  0  0  0     0  0            999 V3000
M  V30 BEGIN CTAB
M  V30 COUNTS 4481 4521 0 0 0
M  V30 BEGIN ATOM
M  V30 1 H -0.908 1.98254 -0.117106 0
M  V30 2 N 0 1.576 0 0
M  V30 3 C 0.933 2.03868 1.02534 0
M  V30 4 C 1.911 0.928543 1.3348 0
M  V30 5 O 3.095 1.19667 1.45644 0
M  V30 6 C 0.222 2.43627 2.35294 0
M  V30 7 C -0.732 3.65373 2.2001 0
M  V30 8 S 0.101 5.13292 1.52614 0
M  V30 9 C 1.257 5.56322 2.86805 0
M  V30 10 H 1.49 2.90518 0.631377 0
M  V30 11 H -0.977 1.52953 0.210867 0
M  V30 12 H 0.981 2.67203 3.11629 0
M  V30 13 H -0.358 1.57376 2.7183 0
M  V30 14 H -1.165 3.90944 3.18086 0
M  V30 15 H -1.563 3.418 1.51819 0
M  V30 16 H 0.729 5.58782 3.83104 0
M  V30 17 H 1.672 6.56266 2.65933 0
M  V30 18 H 2.08 4.83886 2.90714 0
M  V30 19 N 1.4781 -0.272755 1.55222 0
M  V30 20 C 2.8891 -0.84378 1.66545 0
M  V30 21 C 3.2401 -1.87035 0.592641 0
M  V30 22 O 2.3651 -2.14761 -0.265818 0
M  V30 23 C 2.9601 -1.53723 3.01918 0
M  V30 24 C 1.5191 -2.05628 3.15268 0
M  V30 25 C 0.6661 -0.898424 2.62343 0
M  V30 26 H 3.6171 -0.0490998 1.58624 0
M  V30 27 H 3.6381 -2.40421 2.94921 0
M  V30 28 H 3.1501 -0.78983 3.79978 0
M  V30 29 H 1.2511 -2.83329 2.41983 0
M  V30 30 H 1.3641 -2.27142 4.21833 0
M  V30 31 H -0.2719 -1.29186 2.19506 0
M  V30 32 H 0.5111 -0.164528 3.42906 0
M  V30 33 N 2.9562 -1.48159 -0.537278 0
M  V30 34 C 3.8882 -1.58218 -1.65831 0
M  V30 35 C 4.9012 -0.466948 -1.5596 0
M  V30 36 O 6.0902 -0.73747 -1.62553 0
M  V30 37 C 3.1902 -1.48906 -3.04434 0
M  V30 38 C 2.3632 -2.75343 -3.3986 0
M  V30 39 C 1.4222 -2.59588 -4.57712 0
M  V30 40 O 0.4482 -3.33457 -4.61297 0
M  V30 41 N 1.6502 -1.68724 -5.55439 0
M  V30 42 H 4.4152 -2.54891 -1.57641 0
M  V30 43 H 1.9762 -1.4479 -0.724386 0
M  V30 44 H 3.9682 -1.36072 -3.81139 0
M  V30 45 H 2.5382 -0.602368 -3.06741 0
M  V30 46 H 1.7582 -3.02795 -2.52406 0
M  V30 47 H 3.0462 -3.5924 -3.60311 0
M  V30 48 H 2.4442 -1.07898 -5.55315 0
M  V30 49 H 1.0012 -1.61832 -6.3139 0
M  V30 50 N 4.4343 0.785586 -1.36625 0
M  V30 51 C 5.3843 1.88822 -1.27789 0
M  V30 52 C 6.3683 1.60014 -0.168579 0
M  V30 53 O 7.5603 1.72381 -0.401737 0
M  V30 54 C 4.6893 3.26092 -1.07327 0
M  V30 55 C 3.7753 3.60897 -2.22743 0
M  V30 56 N 4.1663 3.66982 -3.48077 0
M  V30 57 C 2.4643 3.90981 -2.14593 0
M  V30 58 C 3.1653 3.98137 -4.24101 0
M  V30 59 N 2.1413 4.13319 -3.53084 0
M  V30 60 H 5.9433 1.91759 -2.22723 0
M  V30 61 H 3.4573 0.981311 -1.29399 0
M  V30 62 H 5.4543 4.04954 -0.990842 0
M  V30 63 H 4.1143 3.24428 -0.132977 0
M  V30 64 H 5.1253 3.49531 -3.82163 0
M  V30 65 H 1.8023 3.9722 -1.2854 0
M  V30 66 H 3.1923 4.09737 -5.32509 0
M  V30 67 N 5.9124 1.20967 1.01018 0
M  V30 68 C 7.1894 0.93264 1.71934 0
M  V30 69 C 7.5694 -0.55692 2.03621 0
M  V30 70 O 6.9174 -1.52035 1.7058 0
M  V30 71 C 7.1274 1.81233 2.98254 0
M  V30 72 C 8.4754 2.05804 3.71389 0
M  V30 73 O 9.4994 1.78539 3.08225 0
M  V30 74 O 8.3584 2.51888 4.84989 0
M  V30 75 H 5.4524 0.349272 0.749625 0
M  V30 76 H 7.9984 1.31871 1.06808 0
M  V30 77 H 6.7704 2.82067 2.71208 0
M  V30 78 H 6.3934 1.42674 3.7112 0
M  V30 79 N 7.3905 -1.2043 1.01659 0
M  V30 80 C 8.3225 -2.22626 0.544988 0
M  V30 81 C 9.3355 -1.58479 -0.372609 0
M  V30 82 O 10.5245 -1.77679 -0.170958 0
M  V30 83 C 7.6245 -3.38141 -0.22663 0
M  V30 84 C 6.7975 -4.31877 0.692876 0
M  V30 85 C 5.8565 -5.26191 -0.0311616 0
M  V30 86 O 4.8825 -5.6612 0.591343 0
M  V30 87 N 6.0845 -5.65618 -1.30601 0
M  V30 88 H 8.8495 -2.63716 1.42388 0
M  V30 89 H 6.4105 -1.34971 0.894116 0
M  V30 90 H 8.4025 -3.98239 -0.72024 0
M  V30 91 H 6.9725 -2.95943 -1.00681 0
M  V30 92 H 6.1925 -3.69746 1.36679 0
M  V30 93 H 7.4805 -4.91426 1.31824 0
M  V30 94 H 6.8785 -5.3519 -1.83269 0
M  V30 95 H 5.4355 -6.28025 -1.74435 0
M  V30 96 N 8.8686 -0.792821 -1.36206 0
M  V30 97 C 9.7986 -0.207853 -2.32573 0
M  V30 98 C 10.7796 0.659055 -1.56813 0
M  V30 99 O 11.9646 0.592176 -1.84951 0
M  V30 100 C 9.0946 0.655449 -3.41059 0
M  V30 101 C 8.0486 -0.111842 -4.27854 0
M  V30 102 C 7.3746 0.872274 -5.27537 0
M  V30 103 C 8.6746 -1.30299 -5.05786 0
M  V30 104 H 10.3686 -1.01294 -2.81744 0
M  V30 105 H 7.9146 -0.48854 -1.3546 0
M  V30 106 H 9.8676 1.07464 -4.07467 0
M  V30 107 H 8.5916 1.49328 -2.90463 0
M  V30 108 H 7.2506 -0.512053 -3.63006 0
M  V30 109 H 6.8986 1.70523 -4.73214 0
M  V30 110 H 6.5986 0.363291 -5.86476 0
M  V30 111 H 8.1226 1.28996 -5.96818 0
M  V30 112 H 9.5366 -0.959379 -5.65216 0
M  V30 113 H 7.9336 -1.7455 -5.74154 0
M  V30 114 H 9.0036 -2.09663 -4.37229 0
M  V30 115 N 10.3467 1.47872 -0.545128 0
M  V30 116 C 11.2967 2.26842 0.229456 0
M  V30 117 C 12.2807 1.33626 0.896267 0
M  V30 118 O 13.4727 1.58063 0.79657 0
M  V30 119 C 10.6017 3.19089 1.26638 0
M  V30 120 C 9.6877 4.19783 0.603598 0
M  V30 121 N 10.0787 5.0479 -0.319405 0
M  V30 122 C 8.3767 4.3765 0.858989 0
M  V30 123 C 9.0777 5.77433 -0.703241 0
M  V30 124 N 8.0537 5.43566 -0.0608309 0
M  V30 125 H 11.8557 2.89947 -0.480391 0
M  V30 126 H 9.3697 1.58263 -0.364209 0
M  V30 127 H 11.3667 3.74337 1.83515 0
M  V30 128 H 10.0267 2.5754 1.97745 0
M  V30 129 H 11.0377 5.13244 -0.692889 0
M  V30 130 H 7.7147 3.87281 1.55948 0
M  V30 131 H 9.1047 6.55824 -1.46098 0
M  V30 132 N 11.8248 0.280983 1.55075 0
M  V30 133 C 13.2408 -0.0729964 1.59433 0
M  V30 134 C 13.4408 -1.5411 1.29817 0
M  V30 135 O 12.4968 -2.29086 1.06187 0
M  V30 136 C 13.8098 0.306921 2.9913 0
M  V30 137 C 15.3578 0.254023 3.11968 0
M  V30 138 C 15.8328 0.608467 4.5394 0
M  V30 139 N 17.3238 0.560241 4.59799 0
M  V30 140 C 18.0588 0.80722 5.6769 0
M  V30 141 N 17.5548 1.11912 6.83701 0
M  V30 142 N 19.3478 0.735623 5.57266 0
M  V30 143 H 11.4988 1.238 1.7259 0
M  V30 144 H 13.7618 0.500547 0.805082 0
M  V30 145 H 13.4678 1.32816 3.25657 0
M  V30 146 H 13.3418 -0.349363 3.75579 0
M  V30 147 H 15.7288 -0.75794 2.852 0
M  V30 148 H 15.8098 0.944649 2.37718 0
M  V30 149 H 15.4538 1.61814 4.81434 0
M  V30 150 H 15.3838 -0.104013 5.26497 0
M  V30 151 H 17.8748 0.329288 3.76463 0
M  V30 152 H 18.1878 1.29409 7.61888 0
M  V30 153 H 16.5328 1.15695 6.85303 0
M  V30 154 H 19.7238 0.491752 4.6551 0
M  V30 155 H 19.8968 0.931482 6.4127 0
M  V30 156 N 13.3029 -1.57598 0.00835791 0
M  V30 157 C 14.5329 -1.94931 -0.684496 0
M  V30 158 C 14.9409 -0.882233 -1.67372 0
M  V30 159 O 14.2839 0.146621 -1.83114 0
M  V30 160 C 14.3459 -3.283 -1.4649 0
M  V30 161 C 14.0099 -4.52548 -0.63634 0
M  V30 162 C 15.0069 -5.19839 0.0795586 0
M  V30 163 C 12.6919 -4.98942 -0.579849 0
M  V30 164 C 14.6859 -6.3183 0.840843 0
M  V30 165 C 12.3729 -6.10819 0.185155 0
M  V30 166 C 13.3709 -6.77121 0.894227 0
M  V30 167 O 13.0589 -7.86853 1.64673 0
M  V30 168 H 12.7909 -0.647249 -0.19505 0
M  V30 169 H 15.3449 -2.05318 0.0581272 0
M  V30 170 H 13.5749 -3.14345 -2.2522 0
M  V30 171 H 15.2639 -3.50685 -2.04389 0
M  V30 172 H 16.0299 -4.84979 0.0451202 0
M  V30 173 H 11.9089 -4.47155 -1.1213 0
M  V30 174 H 15.4529 -6.83513 1.39483 0
M  V30 175 H 11.3499 -6.4512 0.221384 0
M  V30 176 H 12.1179 -8.03412 1.56432 0
M  V30 177 N 14.781 0.264519 -1.55364 0
M  V30 178 C 15.711 1.33121 -1.91836 0
M  V30 179 C 16.692 1.51101 -0.781192 0
M  V30 180 O 17.877 1.64003 -1.04003 0
M  V30 181 C 15.007 2.68921 -2.19769 0
M  V30 182 C 13.961 2.65661 -3.35571 0
M  V30 183 C 13.287 4.05093 -3.49004 0
M  V30 184 C 14.587 2.24187 -4.71739 0
M  V30 185 H 16.281 1.02844 -2.81182 0
M  V30 186 H 13.827 0.493286 -1.35287 0
M  V30 187 H 15.78 3.43663 -2.43872 0
M  V30 188 H 14.504 3.00799 -1.27231 0
M  V30 189 H 13.163 1.93377 -3.1145 0
M  V30 190 H 12.811 4.34206 -2.53917 0
M  V30 191 H 12.511 4.03804 -4.26868 0
M  V30 192 H 14.035 4.81561 -3.75408 0
M  V30 193 H 15.449 2.88654 -4.9533 0
M  V30 194 H 13.846 2.34044 -5.52579 0
M  V30 195 H 14.916 1.19327 -4.69988 0
M  V30 196 N 16.2591 1.48442 0.529413 0
M  V30 197 C 17.5061 1.56488 1.28521 0
M  V30 198 C 17.8341 0.239042 1.93025 0
M  V30 199 O 17.0891 -0.770713 1.79885 0
M  V30 200 C 17.3881 2.6523 2.39558 0
M  V30 201 C 17.0541 4.07648 1.92702 0
M  V30 202 C 15.7161 4.46411 1.79641 0
M  V30 203 C 18.0681 4.96896 1.573 0
M  V30 204 C 15.3961 5.72226 1.29514 0
M  V30 205 C 17.7481 6.23202 1.08636 0
M  V30 206 C 16.4121 6.60821 0.941919 0
M  V30 207 H 15.6821 0.572631 0.470292 0
M  V30 208 H 18.3291 1.82161 0.59072 0
M  V30 209 H 16.6341 2.33419 3.14679 0
M  V30 210 H 18.3311 2.68671 2.97686 0
M  V30 211 H 14.9211 3.77036 2.03819 0
M  V30 212 H 19.1051 4.67626 1.66251 0
M  V30 213 H 14.3611 6.00097 1.17019 0
M  V30 214 H 18.5351 6.91753 0.803136 0
M  V30 215 H 16.1621 7.58198 0.5513 0
M  V30 216 N 17.7372 -0.778329 1.37039 0
M  V30 217 C 18.6472 -1.92253 1.34446 0
M  V30 218 C 19.6632 -1.72267 0.244991 0
M  V30 219 O 20.8392 -1.95615 0.479258 0
M  V30 220 C 17.9042 -3.27282 1.144 0
M  V30 221 C 16.9652 -3.59969 2.33925 0
M  V30 222 C 16.1982 -4.88555 2.14825 0
M  V30 223 O 16.4212 -5.59113 1.12912 0
M  V30 224 O 15.3552 -5.20153 3.02861 0
M  V30 225 H 19.1812 -1.97392 2.30803 0
M  V30 226 H 16.7662 -0.920154 1.17701 0
M  V30 227 H 18.6482 -4.08062 1.05182 0
M  V30 228 H 17.3232 -3.23011 0.211124 0
M  V30 229 H 16.2302 -2.7945 2.48714 0
M  V30 230 H 17.5632 -3.68976 3.25757 0
M  V30 231 N 19.2153 -1.21501 -1.00376 0
M  V30 232 C 20.1633 -0.972442 -2.11297 0
M  V30 233 C 21.1573 0.080731 -1.69208 0
M  V30 234 O 22.3633 -0.0707666 -1.79861 0
M  V30 235 H 18.7383 -0.297218 -0.690772 0
M  V30 236 H 20.7093 -1.91394 -2.28934 0
M  V30 237 C 19.4583 -0.555065 -3.43241 0
M  V30 238 H 18.7813 -1.35709 -3.76062 0
M  V30 239 H 20.2213 -0.424664 -4.21868 0
M  V30 240 C 18.6803 0.734147 -3.28804 0
M  V30 241 O 19.2103 1.78937 -3.59645 0
M  V30 242 N 17.4163 0.701133 -2.82015 0
M  V30 243 H 16.9633 -0.157874 -2.57116 0
M  V30 244 H 16.9213 1.56403 -2.72737 0
M  V30 245 N 20.6934 1.19889 -1.02296 0
M  V30 246 C 21.9404 1.8942 -0.715972 0
M  V30 247 C 22.2684 1.79251 0.754944 0
M  V30 248 O 21.5234 1.17526 1.56481 0
M  V30 249 C 21.8224 3.39883 -1.10518 0
M  V30 250 C 21.4884 3.70254 -2.57337 0
M  V30 251 C 20.1504 3.78254 -2.97452 0
M  V30 252 C 22.5024 3.84052 -3.52354 0
M  V30 253 C 19.8304 3.97514 -4.31509 0
M  V30 254 C 22.1824 4.04824 -4.86108 0
M  V30 255 C 20.8464 4.11054 -5.25919 0
M  V30 256 H 20.1164 0.693138 -0.261993 0
M  V30 257 H 22.7634 1.42012 -1.28472 0
M  V30 258 H 21.0684 3.8915 -0.454953 0
M  V30 259 H 22.7654 3.9199 -0.845261 0
M  V30 260 H 19.3554 3.64632 -2.25258 0
M  V30 261 H 23.5394 3.77221 -3.22518 0
M  V30 262 H 18.7954 4.00574 -4.61898 0
M  V30 263 H 22.9694 4.14442 -5.59653 0
M  V30 264 H 20.5964 4.2573 -6.29808 0
M  V30 265 N 22.1715 0.800033 1.35784 0
M  V30 266 C 23.1345 0.211565 2.28221 0
M  V30 267 C 24.1345 -0.59728 1.49296 0
M  V30 268 O 25.3245 -0.416721 1.69142 0
M  V30 269 C 22.4565 -0.705846 3.33513 0
M  V30 270 H 23.6495 1.02677 2.81776 0
M  V30 271 H 21.2025 0.570211 1.45528 0
M  V30 272 H 21.9375 -1.54498 2.85133 0
M  V30 273 H 21.7225 -0.127655 3.91892 0
M  V30 274 H 23.2125 -1.11211 4.02519 0
M  V30 275 N 23.6496 -1.47581 0.552962 0
M  V30 276 C 24.8956 -2.02782 0.0273648 0
M  V30 277 C 25.2286 -1.42687 -1.31734 0
M  V30 278 O 24.5036 -0.580897 -1.85623 0
M  V30 279 C 24.7866 -3.60031 -0.0702371 0
M  V30 280 C 24.6396 -4.30566 1.30126 0
M  V30 281 C 25.9586 -4.33028 -0.785771 0
M  V30 282 H 23.0776 -0.736912 0.0114185 0
M  V30 283 H 25.7196 -1.76056 0.714432 0
M  V30 284 H 23.8696 -3.82932 -0.655382 0
M  V30 285 H 25.5416 -4.19018 1.92929 0
M  V30 286 H 23.7846 -3.91086 1.87709 0
M  V30 287 H 24.4556 -5.39114 1.18573 0
M  V30 288 H 26.9316 -4.15095 -0.288982 0
M  V30 289 H 25.8076 -5.42695 -0.823013 0
M  V30 290 H 26.0686 -4.01945 -1.841 0
M  V30 291 N 25.1277 -0.289203 -1.54924 0
M  V30 292 C 26.5437 0.0645403 -1.59469 0
M  V30 293 C 26.7437 1.53419 -1.30632 0
M  V30 294 O 25.7997 2.2852 -1.074 0
M  V30 295 C 27.1127 -0.32278 -2.98963 0
M  V30 296 C 28.6607 -0.270564 -3.11828 0
M  V30 297 C 29.1357 -0.632532 -4.53611 0
M  V30 298 N 30.6267 -0.584617 -4.59496 0
M  V30 299 C 31.3617 -0.837314 -5.67254 0
M  V30 300 N 30.8577 -1.15536 -6.83098 0
M  V30 301 N 32.6507 -0.765166 -5.56868 0
M  V30 302 H 24.8017 -1.24714 -1.71931 0
M  V30 303 H 27.0647 -0.504809 -0.802416 0
M  V30 304 H 26.7707 -1.34541 -3.24948 0
M  V30 305 H 26.6447 0.32944 -3.75759 0
M  V30 306 H 29.0317 0.742805 -2.85598 0
M  V30 307 H 29.1127 -0.957242 -2.37214 0
M  V30 308 H 28.7567 -1.64365 -4.80569 0
M  V30 309 H 28.6867 0.07609 -5.26545 0
M  V30 310 H 31.1777 -0.349248 -3.76283 0
M  V30 311 H 31.4907 -1.33447 -7.61191 0
M  V30 312 H 29.8357 -1.19328 -6.84679 0
M  V30 313 H 33.0267 -0.516432 -4.65243 0
M  V30 314 H 33.1997 -0.965477 -6.40767 0
M  V30 315 N 26.6058 1.57591 -0.0167156 0
M  V30 316 C 27.8538 1.90906 0.663285 0
M  V30 317 C 28.1748 0.892509 1.73376 0
M  V30 318 O 27.4448 -0.0677623 1.95783 0
M  V30 319 H 26.0248 0.704637 0.247983 0
M  V30 320 H 28.6868 1.94803 -0.0615909 0
M  V30 321 H 27.7828 2.9116 1.12393 0
M  V30 322 N 28.0839 -0.256276 1.55502 0
M  V30 323 C 28.9939 -1.33882 1.92647 0
M  V30 324 C 30.0099 -1.53159 0.825727 0
M  V30 325 O 31.1859 -1.66963 1.12629 0
M  V30 326 C 28.2509 -2.6751 2.20543 0
M  V30 327 C 27.3119 -2.56836 3.43997 0
M  V30 328 C 26.5449 -3.84092 3.70553 0
M  V30 329 O 26.7679 -4.85545 2.99336 0
M  V30 330 O 25.7019 -3.83288 4.64084 0
M  V30 331 H 29.5279 -1.05374 2.84833 0
M  V30 332 H 27.1129 -0.456237 1.42263 0
M  V30 333 H 28.9949 -3.46492 2.39835 0
M  V30 334 H 27.6699 -2.9577 1.31536 0
M  V30 335 H 26.5769 -1.76172 3.30021 0
M  V30 336 H 27.9099 -2.33523 4.33275 0
M  V30 337 N 29.562 -1.4872 -0.521534 0
M  V30 338 C 30.492 -1.66771 -1.63431 0
M  V30 339 C 31.473 -0.516499 -1.62069 0
M  V30 340 O 32.658 -0.750013 -1.79132 0
M  V30 341 C 29.788 -1.71515 -3.01993 0
M  V30 342 C 28.742 -2.86222 -3.18216 0
M  V30 343 C 28.068 -2.76061 -4.57924 0
M  V30 344 C 29.368 -4.27419 -3.00184 0
M  V30 345 H 31.062 -2.59932 -1.48579 0
M  V30 346 H 28.608 -1.25089 -0.713358 0
M  V30 347 H 30.561 -1.82731 -3.7972 0
M  V30 348 H 29.285 -0.749393 -3.17886 0
M  V30 349 H 27.944 -2.74575 -2.42908 0
M  V30 350 H 27.592 -1.77437 -4.70665 0
M  V30 351 H 27.292 -3.53037 -4.69722 0
M  V30 352 H 28.816 -2.89256 -5.37739 0
M  V30 353 H 30.23 -4.39855 -3.67697 0
M  V30 354 H 28.627 -5.05458 -3.2347 0
M  V30 355 H 29.697 -4.43293 -1.96518 0
M  V30 356 N 31.0401 0.771051 -1.3745 0
M  V30 357 C 32.2861 1.5319 -1.32894 0
M  V30 358 C 32.6191 1.94008 0.0862511 0
M  V30 359 O 31.8941 1.64124 1.04373 0
M  V30 360 C 32.1771 2.79648 -2.26868 0
M  V30 361 C 32.0301 2.45079 -3.77169 0
M  V30 362 C 33.3491 3.81583 -2.19277 0
M  V30 363 H 30.4681 0.555744 -0.484064 0
M  V30 364 H 33.1101 0.884492 -1.68157 0
M  V30 365 H 31.2601 3.34891 -1.96926 0
M  V30 366 H 32.9321 1.95745 -4.1771 0
M  V30 367 H 31.1751 1.77767 -3.95704 0
M  V30 368 H 31.8461 3.35478 -4.38359 0
M  V30 369 H 34.3221 3.35835 -2.45671 0
M  V30 370 H 33.1981 4.67787 -2.87171 0
M  V30 371 H 33.4591 4.25897 -1.18592 0
M  V30 372 N 32.5182 1.22032 0.997298 0
M  V30 373 C 33.7462 1.06841 1.7718 0
M  V30 374 C 34.1612 -0.381325 1.84909 0
M  V30 375 O 33.5182 -1.26437 1.31605 0
M  V30 376 C 33.5692 1.66814 3.20711 0
M  V30 377 O 33.2902 3.06116 3.13408 0
M  V30 378 C 34.7912 1.56838 4.14628 0
M  V30 379 H 32.0112 0.374782 0.556578 0
M  V30 380 H 34.5552 1.61532 1.2541 0
M  V30 381 H 32.7102 1.16196 3.69564 0
M  V30 382 H 33.1242 3.34926 4.0364 0
M  V30 383 H 34.5982 2.03532 5.13107 0
M  V30 384 H 35.0752 0.524155 4.36061 0
M  V30 385 H 35.6812 2.06741 3.7167 0
M  V30 386 N 33.9963 -1.19345 1.0293 0
M  V30 387 C 35.2423 -1.89318 0.727083 0
M  V30 388 C 35.5753 -1.79446 -0.742483 0
M  V30 389 O 34.8503 -1.1871 -1.54072 0
M  V30 390 C 35.1333 -3.40238 1.17942 0
M  V30 391 C 34.9863 -3.58979 2.71024 0
M  V30 392 C 36.3053 -4.33479 0.760548 0
M  V30 393 H 33.4243 -0.687475 0.265606 0
M  V30 394 H 36.0663 -1.40477 1.2793 0
M  V30 395 H 34.2163 -3.81964 0.709608 0
M  V30 396 H 35.8883 -3.26421 3.25955 0
M  V30 397 H 34.1313 -3.02018 3.11396 0
M  V30 398 H 34.8023 -4.64823 2.9773 0
M  V30 399 H 37.2783 -3.99469 1.16464 0
M  V30 400 H 36.1543 -5.37664 1.10493 0
M  V30 401 H 36.4153 -4.40813 -0.337063 0
M  V30 402 N 35.4744 -0.807222 -1.35358 0
M  V30 403 C 36.6994 -0.399309 -2.0352 0
M  V30 404 C 37.1244 0.981986 -1.60433 0
M  V30 405 O 36.4824 1.63601 -0.781299 0
M  V30 406 C 36.5304 -0.491552 -3.57234 0
M  V30 407 O 35.6344 0.494754 -4.09421 0
M  V30 408 H 34.9754 -0.166682 -0.642739 0
M  V30 409 H 37.5054 -1.09328 -1.72941 0
M  V30 410 H 37.5154 -0.361588 -4.06395 0
M  V30 411 H 36.1904 -1.49907 -3.87944 0
M  V30 412 H 34.7674 0.324977 -3.71481 0
M  V30 413 N 36.9525 1.47285 -0.560781 0
M  V30 414 C 37.8625 2.33846 0.187954 0
M  V30 415 C 38.8785 1.48412 0.908293 0
M  V30 416 O 40.0545 1.81332 0.876388 0
M  V30 417 C 37.1195 3.25178 1.2025 0
M  V30 418 C 36.1805 4.26504 0.489208 0
M  V30 419 C 35.4135 5.13472 1.45542 0
M  V30 420 O 35.6365 5.02959 2.6905 0
M  V30 421 O 34.5705 5.93902 0.977963 0
M  V30 422 H 38.3965 2.99177 -0.522177 0
M  V30 423 H 35.9815 1.45903 -0.321364 0
M  V30 424 H 37.8635 3.81584 1.78805 0
M  V30 425 H 36.5385 2.6247 1.89449 0
M  V30 426 H 35.4455 3.73847 -0.137627 0
M  V30 427 H 36.7785 4.91935 -0.161399 0
M  V30 428 N 38.4306 0.297415 1.54768 0
M  V30 429 C 39.6586 -0.315623 2.04478 0
M  V30 430 C 40.0736 -1.47792 1.17486 0
M  V30 431 O 39.4306 -1.81404 0.19971 0
M  V30 432 C 39.4816 -0.7753 3.53088 0
M  V30 433 O 39.2026 0.340732 4.36773 0
M  V30 434 C 40.7036 -1.45386 4.18781 0
M  V30 435 H 37.9236 -0.0690887 0.667434 0
M  V30 436 H 40.4676 0.436003 1.99798 0
M  V30 437 H 38.6226 -1.47696 3.58141 0
M  V30 438 H 39.0366 -0.0165035 5.24497 0
M  V30 439 H 40.5106 -1.72669 5.24299 0
M  V30 440 H 40.9876 -2.39275 3.68299 0
M  V30 441 H 41.5936 -0.795475 4.17795 0
M  V30 442 N 39.9087 -1.5758 0.0250728 0
M  V30 443 C 40.8387 -2.13007 -0.956575 0
M  V30 444 C 41.8197 -1.0452 -1.342 0
M  V30 445 O 43.0047 -1.32332 -1.42133 0
M  V30 446 C 40.1347 -2.65386 -2.24026 0
M  V30 447 C 39.0887 -3.78623 -1.99571 0
M  V30 448 C 38.4147 -4.17414 -3.3417 0
M  V30 449 C 39.7147 -5.04867 -1.33814 0
M  V30 450 H 41.4087 -2.9528 -0.494991 0
M  V30 451 H 38.9547 -1.42042 -0.236651 0
M  V30 452 H 40.9077 -3.02794 -2.93076 0
M  V30 453 H 39.6317 -1.80268 -2.72343 0
M  V30 454 H 38.2907 -3.41646 -1.32941 0
M  V30 455 H 37.9387 -3.29284 -3.80238 0
M  V30 456 H 37.6387 -4.93719 -3.18615 0
M  V30 457 H 39.1627 -4.57402 -4.04495 0
M  V30 458 H 40.5767 -5.39888 -1.92857 0
M  V30 459 H 38.9737 -5.86144 -1.28669 0
M  V30 460 H 40.0437 -4.83904 -0.310561 0
M  V30 461 N 41.3868 0.248026 -1.55636 0
M  V30 462 C 42.3188 1.32993 -1.8667 0
M  V30 463 C 43.3318 1.44345 -0.752877 0
M  V30 464 O 44.5208 1.45715 -1.03098 0
M  V30 465 C 41.6208 2.70863 -2.03682 0
M  V30 466 C 40.7938 2.81792 -3.34532 0
M  V30 467 C 39.8528 4.005 -3.41301 0
M  V30 468 O 38.8788 3.9008 -4.14519 0
M  V30 469 N 40.0808 5.13618 -2.70512 0
M  V30 470 H 42.8458 1.06707 -2.8006 0
M  V30 471 H 40.4068 0.438129 -1.55859 0
M  V30 472 H 42.3988 3.48612 -2.05553 0
M  V30 473 H 40.9688 2.89862 -1.17041 0
M  V30 474 H 40.1888 1.90729 -3.44987 0
M  V30 475 H 41.4768 2.86043 -4.20781 0
M  V30 476 H 40.8748 5.24975 -2.10755 0
M  V30 477 H 39.4318 5.89505 -2.78077 0
M  V30 478 N 42.8649 1.48995 0.513639 0
M  V30 479 C 43.7969 1.60836 1.63293 0
M  V30 480 C 44.8099 0.491701 1.55197 0
M  V30 481 O 45.9989 0.763238 1.6136 0
M  V30 482 C 43.0989 1.53731 3.02027 0
M  V30 483 C 42.2719 2.80715 3.35437 0
M  V30 484 C 41.3309 2.66837 4.53525 0
M  V30 485 O 40.3569 3.40753 4.55934 0
M  V30 486 N 41.5589 1.77539 5.52684 0
M  V30 487 H 44.3239 2.57366 1.53566 0
M  V30 488 H 41.8849 1.45925 0.701259 0
M  V30 489 H 43.8769 1.42118 3.78926 0
M  V30 490 H 42.4469 0.651092 3.05744 0
M  V30 491 H 41.6669 3.06772 2.47557 0
M  V30 492 H 42.9549 3.64927 3.54551 0
M  V30 493 H 42.3529 1.16719 5.53528 0
M  V30 494 H 40.9099 1.71856 6.28736 0
M  V30 495 N 44.343 -0.763751 1.37857 0
M  V30 496 C 45.592 -1.51789 1.32827 0
M  V30 497 C 45.905 -1.95426 -0.0823719 0
M  V30 498 O 47.111 -2.70298 -0.255172 0
M  V30 499 C 45.567 -2.74133 2.33193 0
M  V30 500 C 45.175 -2.37562 3.79827 0
M  V30 501 C 46.919 -3.52054 2.37188 0
M  V30 502 C 44.826 -3.56456 4.71904 0
M  V30 503 H 43.756 -0.569896 0.493695 0
M  V30 504 H 46.407 -0.835822 1.63359 0
M  V30 505 H 44.789 -3.4427 1.9569 0
M  V30 506 H 45.963 -1.75157 4.26212 0
M  V30 507 H 44.278 -1.72798 3.78853 0
M  V30 508 H 46.875 -4.40437 3.03182 0
M  V30 509 H 47.218 -3.92486 1.38782 0
M  V30 510 H 47.751 -2.88921 2.7344 0
M  V30 511 H 44.49 -3.21099 5.71468 0
M  V30 512 H 44.01 -4.17938 4.30218 0
M  V30 513 H 45.689 -4.23168 4.89426 0
M  V30 514 N 45.8211 -1.22559 -0.990812 0
M  V30 515 C 46.7511 -1.0218 -2.09956 0
M  V30 516 C 47.7321 0.0579394 -1.70001 0
M  V30 517 O 48.9171 -0.104684 -1.93918 0
M  V30 518 C 46.0471 -0.601023 -3.4206 0
M  V30 519 C 45.0011 -1.62694 -3.95872 0
M  V30 520 C 44.3271 -1.06193 -5.24049 0
M  V30 521 C 45.6271 -3.01743 -4.2632 0
M  V30 522 H 47.3211 -1.94916 -2.27262 0
M  V30 523 H 44.8671 -0.938566 -1.09211 0
M  V30 524 H 46.8201 -0.445561 -4.19038 0
M  V30 525 H 45.5441 0.362005 -3.24588 0
M  V30 526 H 44.2031 -1.77021 -3.21028 0
M  V30 527 H 43.8511 -0.0901903 -5.02919 0
M  V30 528 H 43.5511 -1.74732 -5.61019 0
M  V30 529 H 45.0751 -0.918092 -6.03658 0
M  V30 530 H 46.4891 -2.90777 -4.94087 0
M  V30 531 H 44.8861 -3.67425 -4.74467 0
M  V30 532 H 45.9561 -3.51518 -3.34011 0
M  V30 533 N 47.2992 1.18797 -1.03562 0
M  V30 534 C 48.2092 2.25913 -0.632505 0
M  V30 535 C 49.2252 1.70668 0.338882 0
M  V30 536 O 50.4012 2.00453 0.195076 0
M  V30 537 C 47.4662 3.467 0.00350942 0
M  V30 538 C 46.5272 4.17098 -1.01624 0
M  V30 539 C 45.7602 5.32119 -0.410478 0
M  V30 540 O 45.9832 5.64976 0.784725 0
M  V30 541 O 44.9172 5.9107 -1.13667 0
M  V30 542 H 48.7432 2.62648 -1.52478 0
M  V30 543 H 46.3282 1.25781 -0.806195 0
M  V30 544 H 48.2102 4.19878 0.35781 0
M  V30 545 H 46.8852 3.11798 0.869686 0
M  V30 546 H 45.7922 3.4601 -1.42224 0
M  V30 547 H 47.1252 4.55987 -1.85301 0
M  V30 548 N 48.7773 0.814389 1.34928 0
M  V30 549 C 49.7253 0.218424 2.31572 0
M  V30 550 C 50.7193 -0.636128 1.57002 0
M  V30 551 O 51.9253 -0.52842 1.72069 0
M  V30 552 H 48.3003 0.0518799 0.750208 0
M  V30 553 H 50.2713 1.04852 2.79372 0
M  V30 554 C 49.0203 -0.61207 3.4227 0
M  V30 555 H 48.3433 0.0361578 3.99784 0
M  V30 556 H 49.7833 -0.995317 4.12152 0
M  V30 557 C 48.2423 -1.78087 2.85984 0
M  V30 558 O 48.7723 -2.8787 2.80168 0
M  V30 559 N 46.9783 -1.59488 2.42924 0
M  V30 560 H 46.5253 -0.701874 2.47854 0
M  V30 561 H 46.4833 -2.37846 2.05613 0
M  V30 562 N 50.2554 -1.46986 0.568584 0
M  V30 563 C 51.2054 -2.27179 -0.193339 0
M  V30 564 C 52.1894 -1.35035 -0.874895 0
M  V30 565 O 53.3814 -1.5931 -0.771322 0
M  V30 566 C 50.5104 -3.21063 -1.21546 0
M  V30 567 C 49.5964 -4.2069 -0.536738 0
M  V30 568 N 49.9874 -5.04218 0.399673 0
M  V30 569 C 48.2854 -4.38961 -0.789254 0
M  V30 570 C 48.9864 -5.76242 0.795017 0
M  V30 571 N 47.9624 -5.434 0.1473 0
M  V30 572 H 51.7644 -2.89146 0.526458 0
M  V30 573 H 49.2784 -1.57664 0.389342 0
M  V30 574 H 51.2754 -3.77209 -1.77536 0
M  V30 575 H 49.9354 -2.60654 -1.93623 0
M  V30 576 H 50.9464 -5.12077 0.774454 0
M  V30 577 H 47.6234 -3.89713 -1.49767 0
M  V30 578 H 49.0134 -6.53417 1.56513 0
M  V30 579 N 51.7335 -0.305618 -1.54608 0
M  V30 580 C 53.0105 0.355652 -1.92339 0
M  V30 581 C 53.3905 1.71324 -1.23335 0
M  V30 582 O 52.7385 2.25473 -0.370702 0
M  V30 583 C 52.9485 0.46572 -3.45879 0
M  V30 584 C 54.2965 0.734426 -4.182 0
M  V30 585 O 55.3205 0.54935 -3.51938 0
M  V30 586 O 54.1795 1.09024 -5.35515 0
M  V30 587 H 51.2735 0.199666 -0.802535 0
M  V30 588 H 53.8195 -0.354017 -1.65966 0
M  V30 589 H 52.5915 -0.488461 -3.88239 0
M  V30 590 H 52.2145 1.22367 -3.78301 0
M  V30 591 N 53.2116 1.57565 -0.0334293 0
M  V30 592 C 54.4416 1.95996 0.653398 0
M  V30 593 C 54.8496 0.908749 1.65947 0
M  V30 594 O 54.1926 -0.117471 1.83324 0
M  V30 595 C 54.2546 3.30589 1.41249 0
M  V30 596 C 53.9186 4.53503 0.564263 0
M  V30 597 C 54.9156 5.19647 -0.16225 0
M  V30 598 C 52.6006 4.99801 0.500398 0
M  V30 599 C 54.5946 6.30412 -0.941255 0
M  V30 600 C 52.2816 6.10448 -0.282308 0
M  V30 601 C 53.2796 6.75612 -1.00184 0
M  V30 602 O 52.9676 7.84134 -1.77171 0
M  V30 603 H 52.6996 0.65027 0.184728 0
M  V30 604 H 55.2536 2.05199 -0.0907841 0
M  V30 605 H 53.4836 3.17888 2.20191 0
M  V30 606 H 55.1726 3.53892 1.98784 0
M  V30 607 H 55.9386 4.84846 -0.12227 0
M  V30 608 H 51.8176 4.48883 1.05002 0
M  V30 609 H 55.3616 6.81208 -1.50339 0
M  V30 610 H 51.2586 6.44686 -0.323989 0
M  V30 611 H 52.0266 8.00822 -1.69194 0
M  V30 612 N 54.6897 -0.239769 1.55765 0
M  V30 613 C 56.1007 -0.808263 1.68297 0
M  V30 614 C 56.4517 -1.85736 0.632181 0
M  V30 615 O 55.5767 -2.15277 -0.220204 0
M  V30 616 C 56.1717 -1.47284 3.05111 0
M  V30 617 C 54.7307 -1.98895 3.19559 0
M  V30 618 C 53.8777 -0.842575 2.64189 0
M  V30 619 H 56.8287 -0.0154422 1.58692 0
M  V30 620 H 56.8497 -2.34111 2.99954 0
M  V30 621 H 56.3617 -0.709053 3.81568 0
M  V30 622 H 54.4627 -2.78132 2.47938 0
M  V30 623 H 54.5757 -2.18143 4.26556 0
M  V30 624 H 52.9397 -1.24501 2.22197 0
M  V30 625 H 53.7227 -0.0917552 3.43177 0
M  V30 626 N 56.1678 -1.49265 -0.50573 0
M  V30 627 C 57.0998 -1.617 -1.62437 0
M  V30 628 C 58.1128 -0.499924 -1.54934 0
M  V30 629 O 59.3018 -0.771785 -1.60953 0
M  V30 630 C 56.4018 -1.5533 -3.01207 0
M  V30 631 C 55.5748 -2.8249 -3.33943 0
M  V30 632 C 54.6338 -2.69238 -4.52103 0
M  V30 633 O 53.6598 -3.43167 -4.5412 0
M  V30 634 N 54.8618 -1.80468 -5.51735 0
M  V30 635 H 57.6268 -2.58177 -1.52199 0
M  V30 636 H 55.1878 -1.46294 -0.693511 0
M  V30 637 H 57.1798 -1.44125 -3.78167 0
M  V30 638 H 55.7498 -0.667297 -3.05395 0
M  V30 639 H 54.9698 -3.08081 -2.45926 0
M  V30 640 H 56.2578 -3.66802 -3.5261 0
M  V30 641 H 55.6558 -1.19653 -5.52901 0
M  V30 642 H 54.2128 -1.75188 -6.27816 0
M  V30 643 N 57.6459 0.756429 -1.3826 0
M  V30 644 C 59.0569 1.33359 -1.30661 0
M  V30 645 C 59.4079 1.96161 0.0388875 0
M  V30 646 O 58.5329 1.94874 0.940918 0
M  V30 647 C 59.1279 2.42477 -2.36622 0
M  V30 648 C 57.6869 2.95922 -2.3261 0
M  V30 649 C 56.8339 1.69275 -2.19639 0
M  V30 650 H 59.7849 0.55552 -1.4866 0
M  V30 651 H 59.8059 3.22345 -2.02174 0
M  V30 652 H 59.3179 1.96739 -3.34538 0
M  V30 653 H 57.4189 3.45996 -1.38267 0
M  V30 654 H 57.5319 3.50494 -3.26636 0
M  V30 655 H 55.8959 1.92793 -1.66442 0
M  V30 656 H 56.6789 1.25619 -3.19491 0
M  V30 657 N 59.124 1.23083 0.984299 0
M  V30 658 C 60.37 1.06214 1.72761 0
M  V30 659 C 60.703 -0.400584 1.90024 0
M  V30 660 O 59.978 -1.29672 1.44967 0
M  V30 661 C 60.261 1.78375 3.12817 0
M  V30 662 C 60.114 3.32296 3.03149 0
M  V30 663 C 61.433 1.54309 4.12161 0
M  V30 664 H 58.552 0.387251 0.627061 0
M  V30 665 H 61.194 1.51536 1.14616 0
M  V30 666 H 59.344 1.39848 3.62457 0
M  V30 667 H 61.016 3.8032 2.61064 0
M  V30 668 H 59.259 3.6153 2.39747 0
M  V30 669 H 59.93 3.77972 4.02295 0
M  V30 670 H 62.406 1.87791 3.71314 0
M  V30 671 H 61.282 2.07281 5.08258 0
M  V30 672 H 61.543 0.477572 4.39513 0
M  V30 673 N 60.6021 -1.18246 1.0419 0
M  V30 674 C 61.5491 -2.2192 0.634037 0
M  V30 675 C 62.5191 -1.62179 -0.358765 0
M  V30 676 O 63.7041 -1.89122 -0.252466 0
M  V30 677 C 60.8441 -3.451 0.00445535 0
M  V30 678 C 59.9571 -4.19174 1.04487 0
M  V30 679 C 59.0921 -5.29813 0.383676 0
M  V30 680 C 58.1311 -5.9566 1.4091 0
M  V30 681 N 57.2681 -6.97834 0.772784 0
M  V30 682 H 62.1081 -2.56164 1.52263 0
M  V30 683 H 59.6451 -1.25843 0.761701 0
M  V30 684 H 61.6031 -4.15485 -0.377919 0
M  V30 685 H 60.2331 -3.11472 -0.847652 0
M  V30 686 H 59.2851 -3.47604 1.54518 0
M  V30 687 H 60.5971 -4.64267 1.82368 0
M  V30 688 H 59.7511 -6.06677 -0.0528366 0
M  V30 689 H 58.4901 -4.85825 -0.427208 0
M  V30 690 H 57.4951 -5.17535 1.85574 0
M  V30 691 H 58.7201 -6.4173 2.22171 0
M  V30 692 H 56.6661 -6.55998 -0.0177708 0
M  V30 693 H 56.5831 -7.41186 1.48928 0
M  V30 694 H 57.8511 -7.78665 0.36071 0
M  V30 695 N 62.0802 -0.821533 -1.34494 0
M  V30 696 C 63.0282 -0.230702 -2.31453 0
M  V30 697 C 64.0222 0.627793 -1.57338 0
M  V30 698 O 65.2282 0.519288 -1.72347 0
M  V30 699 H 61.6032 -0.0558577 -0.749923 0
M  V30 700 H 63.5742 -1.06332 -2.78812 0
M  V30 701 C 62.3232 0.59391 -3.4259 0
M  V30 702 H 61.6462 -0.0573588 -3.99759 0
M  V30 703 H 63.0862 0.973446 -4.12674 0
M  V30 704 C 61.5452 1.76568 -2.86924 0
M  V30 705 O 62.0752 2.8638 -2.81691 0
M  V30 706 N 60.2812 1.58198 -2.43766 0
M  V30 707 H 59.8282 0.68872 -2.48222 0
M  V30 708 H 59.7862 2.36752 -2.06871 0
M  V30 709 N 63.5583 1.46682 -0.576371 0
M  V30 710 C 64.8043 2.02712 -0.0596221 0
M  V30 711 C 65.1373 1.44765 1.29448 0
M  V30 712 O 64.4123 0.610355 1.84675 0
M  V30 713 C 64.6953 3.60098 0.0129503 0
M  V30 714 C 64.5483 4.28441 -1.3696 0
M  V30 715 C 65.8673 4.34224 0.71678 0
M  V30 716 H 62.9863 0.736637 -0.0231407 0
M  V30 717 H 65.6283 1.74898 -0.742351 0
M  V30 718 H 63.7783 3.83926 0.594378 0
M  V30 719 H 65.4503 4.15896 -1.9957 0
M  V30 720 H 63.6933 3.8805 -1.93907 0
M  V30 721 H 64.3643 5.3716 -1.27135 0
M  V30 722 H 66.8403 4.15503 0.222908 0
M  V30 723 H 65.7163 5.43936 0.73657 0
M  V30 724 H 65.9773 4.04823 1.77682 0
M  V30 725 N 65.0364 0.313813 1.54444 0
M  V30 726 C 65.9664 -0.549454 2.26943 0
M  V30 727 C 66.9474 -1.12741 1.27372 0
M  V30 728 O 68.1324 -1.15436 1.56167 0
M  V30 729 C 65.2624 -1.71523 3.01989 0
M  V30 730 C 64.2164 -1.26703 4.08816 0
M  V30 731 C 63.5424 -2.51898 4.71647 0
M  V30 732 C 64.8424 -0.388962 5.2085 0
M  V30 733 H 66.5364 0.0552661 2.99349 0
M  V30 734 H 64.0824 0.0280207 1.43973 0
M  V30 735 H 66.0354 -2.32535 3.51433 0
M  V30 736 H 64.7594 -2.34639 2.27183 0
M  V30 737 H 63.4184 -0.679896 3.6024 0
M  V30 738 H 63.0664 -3.13356 3.93468 0
M  V30 739 H 62.7664 -2.22605 5.43802 0
M  V30 740 H 64.2904 -3.1369 5.23861 0
M  V30 741 H 65.7044 -0.905107 5.6611 0
M  V30 742 H 64.1014 -0.18924 5.99802 0
M  V30 743 H 65.1714 0.582699 4.81386 0
M  V30 744 N 66.5145 -1.57545 0.0417849 0
M  V30 745 C 67.4775 -2.09885 -0.92093 0
M  V30 746 C 68.4775 -1.01648 -1.24596 0
M  V30 747 O 69.6675 -1.27759 -1.1842 0
M  V30 748 C 66.7995 -2.57527 -2.23367 0
M  V30 749 H 67.9925 -2.96236 -0.467382 0
M  V30 750 H 65.5455 -1.5493 -0.206467 0
M  V30 751 H 66.2805 -1.74542 -2.73323 0
M  V30 752 H 66.0655 -3.36613 -2.01083 0
M  V30 753 H 67.5555 -2.98201 -2.92346 0
M  V30 754 N 67.9926 0.231505 -1.5589 0
M  V30 755 C 68.9026 1.308 -1.94752 0
M  V30 756 C 69.9186 1.51826 -0.849989 0
M  V30 757 O 71.0946 1.6515 -1.15271 0
M  V30 758 C 68.1596 2.63968 -2.24771 0
M  V30 759 C 67.2206 2.51331 -3.48039 0
M  V30 760 C 66.4536 3.78148 -3.76616 0
M  V30 761 O 66.6766 4.80722 -3.07022 0
M  V30 762 O 65.6106 3.75857 -4.70123 0
M  V30 763 H 69.4366 1.0083 -2.86474 0
M  V30 764 H 67.0216 0.433547 -1.42971 0
M  V30 765 H 68.9036 3.42633 -2.45318 0
M  V30 766 H 67.5786 2.9364 -1.36225 0
M  V30 767 H 66.4856 1.709 -3.32782 0
M  V30 768 H 67.8186 2.26601 -4.36936 0
M  V30 769 N 69.4707 1.49531 0.497807 0
M  V30 770 C 70.4007 1.6935 1.60757 0
M  V30 771 C 71.3817 0.542218 1.61227 0
M  V30 772 O 72.5667 0.778417 1.77917 0
M  V30 773 C 69.6967 1.76298 2.99226 0
M  V30 774 C 68.6507 2.91248 3.13622 0
M  V30 775 C 67.9767 2.83312 4.53474 0
M  V30 776 C 69.2767 4.3214 2.93346 0
M  V30 777 H 70.9707 2.62263 1.44425 0
M  V30 778 H 68.5167 1.26208 0.693367 0
M  V30 779 H 70.4697 1.88749 3.76765 0
M  V30 780 H 69.1937 0.799871 3.16654 0
M  V30 781 H 67.8527 2.78404 2.38509 0
M  V30 782 H 67.5007 1.84902 4.67782 0
M  V30 783 H 67.2007 3.60465 4.64046 0
M  V30 784 H 68.7247 2.97775 5.33069 0
M  V30 785 H 70.1387 4.45649 3.60652 0
M  V30 786 H 68.5357 5.1054 3.15387 0
M  V30 787 H 69.6057 4.46363 1.89441 0
M  V30 788 N 70.9488 -0.749086 1.3866 0
M  V30 789 C 71.8788 -1.8764 1.38973 0
M  V30 790 C 72.8598 -1.68178 0.255004 0
M  V30 791 O 74.0448 -1.88704 0.458754 0
M  V30 792 C 71.1748 -3.25222 1.21851 0
M  V30 793 C 70.1288 -3.59295 2.32575 0
M  V30 794 C 69.4548 -4.95663 2.00555 0
M  V30 795 C 70.7548 -3.63709 3.7485 0
M  V30 796 H 72.4488 -1.87635 2.3331 0
M  V30 797 H 69.9948 -0.901329 1.12303 0
M  V30 798 H 71.9478 -4.03746 1.20695 0
M  V30 799 H 70.6718 -3.25719 0.239775 0
M  V30 800 H 69.3308 -2.83093 2.32925 0
M  V30 801 H 68.9788 -4.92724 1.01154 0
M  V30 802 H 68.6788 -5.19429 2.74714 0
M  V30 803 H 70.2028 -5.7656 2.01024 0
M  V30 804 H 71.6168 -4.32338 3.76506 0
M  V30 805 H 70.0138 -3.98986 4.48252 0
M  V30 806 H 71.0838 -2.63834 4.06841 0
M  V30 807 N 72.4269 -1.23603 -0.977757 0
M  V30 808 C 73.6729 -1.07129 -1.72195 0
M  V30 809 C 74.0059 0.390501 -1.90233 0
M  V30 810 O 73.2809 1.28902 -1.45653 0
M  V30 811 C 73.5639 -1.80031 -3.11867 0
M  V30 812 C 73.4169 -3.33899 -3.01383 0
M  V30 813 C 74.7359 -1.56492 -4.11337 0
M  V30 814 H 71.8549 -0.390571 -0.624999 0
M  V30 815 H 74.4969 -1.52142 -1.13811 0
M  V30 816 H 72.6469 -1.41768 -3.6171 0
M  V30 817 H 74.3189 -3.81699 -2.59043 0
M  V30 818 H 72.5619 -3.62796 -2.37827 0
M  V30 819 H 73.2329 -3.801 -4.00285 0
M  V30 820 H 75.7089 -1.89757 -3.70313 0
M  V30 821 H 74.5849 -2.09973 -5.07151 0
M  V30 822 H 74.8459 -0.500874 -4.39254 0
M  V30 823 N 73.905 1.17692 -1.04816 0
M  V30 824 C 74.868 2.19787 -0.650117 0
M  V30 825 C 75.868 1.58044 0.296427 0
M  V30 826 O 77.058 1.74012 0.0808097 0
M  V30 827 C 74.19 3.40869 0.0456987 0
M  V30 828 H 75.383 2.56516 -1.5537 0
M  V30 829 H 72.936 1.31708 -0.841594 0
M  V30 830 H 73.671 3.09681 0.962726 0
M  V30 831 H 73.456 3.86928 -0.634727 0
M  V30 832 H 74.946 4.16445 0.310432 0
M  V30 833 N 75.3831 0.828654 1.34056 0
M  V30 834 C 76.6111 0.43262 2.02326 0
M  V30 835 C 77.0261 -0.963147 1.62385 0
M  V30 836 O 76.3831 -1.62425 0.832121 0
M  V30 837 C 76.4341 0.53182 3.57567 0
M  V30 838 O 76.1551 1.87258 3.96063 0
M  V30 839 C 77.6561 0.131422 4.43105 0
M  V30 840 H 74.8761 0.172923 0.648335 0
M  V30 841 H 77.4201 1.1184 1.71208 0
M  V30 842 H 75.5751 -0.105938 3.87255 0
M  V30 843 H 75.9891 1.85087 4.90758 0
M  V30 844 H 77.4631 0.251904 5.51425 0
M  V30 845 H 77.9401 -0.925645 4.29335 0
M  V30 846 H 78.5461 0.743207 4.18756 0
M  V30 847 N 76.8612 -1.46375 0.584142 0
M  V30 848 C 78.0862 -2.07268 0.0740405 0
M  V30 849 C 78.5112 -1.42979 -1.22223 0
M  V30 850 O 77.8692 -0.514092 -1.73859 0
M  V30 851 C 77.9172 -3.60518 -0.0767769 0
M  V30 852 O 77.0212 -3.96533 -1.13292 0
M  V30 853 H 76.3622 -0.660961 0.0634524 0
M  V30 854 H 78.8922 -1.87991 0.807492 0
M  V30 855 H 78.9022 -4.07021 -0.282489 0
M  V30 856 H 77.5772 -4.06702 0.86986 0
M  V30 857 H 76.1542 -3.61738 -0.905553 0
M  V30 858 N 78.3393 -0.321999 -1.54275 0
M  V30 859 C 79.2693 0.537411 -2.27231 0
M  V30 860 C 80.2503 1.12064 -1.27968 0
M  V30 861 O 81.4353 1.14606 -1.56777 0
M  V30 862 C 78.5653 1.69919 -3.02894 0
M  V30 863 C 77.5193 1.24534 -4.09482 0
M  V30 864 C 76.8453 2.49394 -4.72977 0
M  V30 865 C 78.1453 0.361335 -5.21049 0
M  V30 866 H 79.8393 -0.0711406 -2.99315 0
M  V30 867 H 77.3853 -0.0356555 -1.43956 0
M  V30 868 H 79.3383 2.30668 -3.52662 0
M  V30 869 H 78.0623 2.33431 -2.28424 0
M  V30 870 H 76.7213 0.660782 -3.60596 0
M  V30 871 H 76.3693 3.11265 -3.95124 0
M  V30 872 H 76.0693 2.19718 -5.44975 0
M  V30 873 H 77.5933 3.10908 -5.25517 0
M  V30 874 H 79.0073 0.875072 -5.66582 0
M  V30 875 H 77.4043 0.157428 -5.99893 0
M  V30 876 H 78.4743 -0.60822 -4.8107 0
M  V30 877 N 79.8174 1.5752 -0.0501392 0
M  V30 878 C 80.7474 2.14502 0.922566 0
M  V30 879 C 81.7284 1.06642 1.3252 0
M  V30 880 O 82.9134 1.34577 1.4001 0
M  V30 881 C 80.0434 2.68916 2.19776 0
M  V30 882 C 78.9974 3.8175 1.93523 0
M  V30 883 C 78.3234 4.22677 3.27487 0
M  V30 884 C 79.6234 5.06932 1.25765 0
M  V30 885 H 81.3174 2.9603 0.447952 0
M  V30 886 H 78.8634 1.42401 0.214024 0
M  V30 887 H 80.8164 3.07419 2.88222 0
M  V30 888 H 79.5404 1.84578 2.69441 0
M  V30 889 H 78.1994 3.43718 1.27489 0
M  V30 890 H 77.8474 3.35291 3.74952 0
M  V30 891 H 77.5474 4.98725 3.1072 0
M  V30 892 H 79.0714 4.63779 3.97166 0
M  V30 893 H 80.4854 5.42888 1.84244 0
M  V30 894 H 78.8824 5.88116 1.19328 0
M  V30 895 H 79.9524 4.84337 0.233536 0
M  V30 896 N 81.2955 -0.223234 1.56011 0
M  V30 897 C 82.5235 -0.964812 1.83027 0
M  V30 898 C 82.9385 -1.78013 0.62904 0
M  V30 899 O 82.2955 -1.78008 -0.402414 0
M  V30 900 C 82.3465 -1.88373 3.08542 0
M  V30 901 O 82.0675 -1.10137 4.2403 0
M  V30 902 C 83.5685 -2.73934 3.48533 0
M  V30 903 H 80.7885 -0.282842 0.608475 0
M  V30 904 H 83.3325 -0.238971 2.03099 0
M  V30 905 H 81.4875 -2.56354 2.9045 0
M  V30 906 H 81.9015 -1.72501 4.95322 0
M  V30 907 H 83.3755 -3.34117 4.39397 0
M  V30 908 H 83.8525 -3.46244 2.70207 0
M  V30 909 H 84.4585 -2.11369 3.69057 0
M  V30 910 N 82.7736 -1.49793 -0.48987 0
M  V30 911 C 83.7366 -1.66752 -1.57246 0
M  V30 912 C 84.7366 -0.538867 -1.51502 0
M  V30 913 O 85.9266 -0.805545 -1.54456 0
M  V30 914 C 83.0586 -1.67528 -2.96896 0
M  V30 915 H 84.2516 -2.63321 -1.43534 0
M  V30 916 H 81.8046 -1.38992 -0.714914 0
M  V30 917 H 82.5396 -0.725837 -3.16073 0
M  V30 918 H 82.3246 -2.49504 -3.02473 0
M  V30 919 H 83.8146 -1.82667 -3.7553 0
M  V30 920 N 84.2517 0.741722 -1.39055 0
M  V30 921 C 85.4797 1.53098 -1.39171 0
M  V30 922 C 85.8947 1.88794 0.0155099 0
M  V30 923 O 85.2517 1.53626 0.985159 0
M  V30 924 C 85.3027 2.82274 -2.2584 0
M  V30 925 O 85.0237 2.48097 -3.61081 0
M  V30 926 C 86.5247 3.76343 -2.34266 0
M  V30 927 H 83.7447 0.473335 -0.4756 0
M  V30 928 H 86.2887 0.917045 -1.82785 0
M  V30 929 H 84.4437 3.40015 -1.85656 0
M  V30 930 H 84.8577 3.31029 -4.06842 0
M  V30 931 H 86.3317 4.63898 -2.9917 0
M  V30 932 H 86.8087 4.17619 -1.35982 0
M  V30 933 H 87.4147 3.24523 -2.74891 0
M  V30 934 N 85.7298 1.2412 0.971189 0
M  V30 935 C 86.6598 1.05508 2.08304 0
M  V30 936 C 87.6408 -0.0308864 1.70072 0
M  V30 937 O 88.8258 0.135521 1.93727 0
M  V30 938 C 85.9558 0.655365 3.4106 0
M  V30 939 C 84.9098 1.68971 3.93234 0
M  V30 940 C 84.2358 1.14516 5.22293 0
M  V30 941 C 85.5358 3.08487 4.21465 0
M  V30 942 H 87.2298 1.98507 2.24132 0
M  V30 943 H 84.7758 0.955821 1.07704 0
M  V30 944 H 86.7288 0.51217 4.18276 0
M  V30 945 H 85.4528 -0.31032 3.25122 0
M  V30 946 H 84.1118 1.82106 3.18171 0
M  V30 947 H 83.7598 0.170189 5.02712 0
M  V30 948 H 83.4598 1.83635 5.58168 0
M  V30 949 H 84.9838 1.01401 6.02121 0
M  V30 950 H 86.3978 2.98601 4.89398 0
M  V30 951 H 84.7948 3.74926 4.68562 0
M  V30 952 H 85.8648 3.56787 3.28376 0
M  V30 953 N 87.2079 -1.17134 1.05439 0
M  V30 954 C 88.1549 -2.21235 0.657539 0
M  V30 955 C 89.1249 -1.62551 -0.341543 0
M  V30 956 O 90.3099 -1.89379 -0.232393 0
M  V30 957 C 87.4499 -3.45076 0.0410575 0
M  V30 958 C 86.5629 -4.18042 1.08927 0
M  V30 959 C 85.6979 -5.29376 0.439848 0
M  V30 960 C 84.7369 -5.94132 1.4722 0
M  V30 961 N 83.8739 -6.96975 0.846756 0
M  V30 962 H 88.7139 -2.54534 1.54972 0
M  V30 963 H 86.2509 -1.25028 0.775006 0
M  V30 964 H 88.2089 -4.15862 -0.33383 0
M  V30 965 H 86.8389 -3.12353 -0.814568 0
M  V30 966 H 85.8909 -3.45945 1.58196 0
M  V30 967 H 87.2029 -4.62306 1.87282 0
M  V30 968 H 86.3569 -6.06699 0.0115125 0
M  V30 969 H 85.0959 -4.86251 -0.375656 0
M  V30 970 H 84.1009 -5.15538 1.91052 0
M  V30 971 H 85.3259 -6.39337 2.28965 0
M  V30 972 H 83.2719 -6.5598 0.0518075 0
M  V30 973 H 83.1889 -7.39565 1.5678 0
M  V30 974 H 84.4569 -7.78239 0.443277 0
M  V30 975 N 88.686 -0.835752 -1.33615 0
M  V30 976 C 89.933 -0.429959 -1.97883 0
M  V30 977 C 90.261 1.01006 -1.66217 0
M  V30 978 O 89.516 1.72047 -0.93265 0
M  V30 979 C 89.815 -0.593925 -3.52431 0
M  V30 980 C 89.481 -2.00158 -4.04039 0
M  V30 981 C 88.143 -2.38662 -4.17844 0
M  V30 982 C 90.495 -2.92117 -4.31644 0
M  V30 983 C 87.823 -3.68435 -4.56588 0
M  V30 984 C 90.175 -4.21368 -4.71838 0
M  V30 985 C 88.839 -4.59833 -4.83849 0
M  V30 986 H 88.109 -0.157333 -0.724104 0
M  V30 987 H 90.756 -1.06217 -1.59343 0
M  V30 988 H 89.061 0.121619 -3.91611 0
M  V30 989 H 90.758 -0.260282 -4.00154 0
M  V30 990 H 87.348 -1.69252 -3.93766 0
M  V30 991 H 91.532 -2.63608 -4.20505 0
M  V30 992 H 86.788 -3.98046 -4.64079 0
M  V30 993 H 90.962 -4.92703 -4.92155 0
M  V30 994 H 88.589 -5.60438 -5.13627 0
M  V30 995 N 90.1641 1.46063 -0.591896 0
M  V30 996 C 91.4411 1.95595 -0.0137119 0
M  V30 997 C 91.8211 1.5345 1.4497 0
M  V30 998 O 91.1691 0.789543 2.14426 0
M  V30 999 C 91.3791 3.48453 -0.195373 0
M  V30 1000 C 92.7271 4.24546 -0.0679765 0
M  V30 1001 O 93.7511 3.55982 -0.124681 0
M  V30 1002 O 92.6101 5.46467 0.0600579 0
M  V30 1003 H 89.7041 0.825795 0.0446279 0
M  V30 1004 H 92.2501 1.56303 -0.660859 0
M  V30 1005 H 91.0221 3.72045 -1.21235 0
M  V30 1006 H 90.6451 3.94597 0.487775 0
M  V30 1007 N 91.6422 0.330177 1.54103 0
M  V30 1008 C 92.8902 -0.269871 2.0029 0
M  V30 1009 C 93.2112 -1.52133 1.21986 0
M  V30 1010 O 92.4812 -1.93212 0.323438 0
M  V30 1011 H 91.0612 -0.10271 0.739905 0
M  V30 1012 H 93.7232 0.448249 1.89675 0
M  V30 1013 H 92.8192 -0.52166 3.07709 0
M  V30 1014 N 93.1203 -1.57491 0.0584922 0
M  V30 1015 C 94.3973 -1.84346 -0.653918 0
M  V30 1016 C 94.7773 -0.948355 -1.88599 0
M  V30 1017 O 94.1253 -0.0112403 -2.28497 0
M  V30 1018 C 94.3353 -3.34239 -1.00425 0
M  V30 1019 C 95.6833 -4.01431 -1.38342 0
M  V30 1020 O 96.7073 -3.38907 -1.09637 0
M  V30 1021 O 95.5663 -5.11683 -1.91943 0
M  V30 1022 H 92.6603 -0.761112 -0.323478 0
M  V30 1023 H 95.2063 -1.6947 0.0884125 0
M  V30 1024 H 93.9783 -3.91089 -0.128625 0
M  V30 1025 H 93.6013 -3.54329 -1.80378 0
M  V30 1026 N 94.5984 0.214957 -1.56127 0
M  V30 1027 C 95.8474 0.936451 -1.78643 0
M  V30 1028 C 96.1604 1.85237 -0.628229 0
M  V30 1029 O 97.3664 2.613 -0.737186 0
M  V30 1030 C 95.8224 1.7154 -3.16389 0
M  V30 1031 C 95.4304 0.845299 -4.39953 0
M  V30 1032 C 97.1744 2.42772 -3.48227 0
M  V30 1033 C 95.0814 1.62198 -5.68723 0
M  V30 1034 H 94.0114 0.353401 -0.666051 0
M  V30 1035 H 96.6624 0.190169 -1.82512 0
M  V30 1036 H 95.0444 2.50484 -3.06715 0
M  V30 1037 H 96.2184 0.0959353 -4.607 0
M  V30 1038 H 94.5334 0.244789 -4.1568 0
M  V30 1039 H 97.1304 3.01394 -4.41663 0
M  V30 1040 H 97.4734 3.15984 -2.71035 0
M  V30 1041 H 98.0064 1.70813 -3.5926 0
M  V30 1042 H 94.7454 0.933011 -6.48826 0
M  V30 1043 H 94.2654 2.34579 -5.52026 0
M  V30 1044 H 95.9444 2.18095 -6.09133 0
M  V30 1045 N 96.0765 1.50051 0.48192 0
M  V30 1046 C 97.3045 1.64237 1.25832 0
M  V30 1047 C 97.7195 0.321336 1.86045 0
M  V30 1048 O 97.0765 -0.695478 1.68729 0
M  V30 1049 C 97.1275 2.72548 2.37487 0
M  V30 1050 O 96.8485 3.99529 1.79745 0
M  V30 1051 C 98.3495 2.9761 3.28547 0
M  V30 1052 H 95.5695 0.55237 0.380957 0
M  V30 1053 H 98.1135 1.96207 0.576467 0
M  V30 1054 H 96.2685 2.43303 3.01467 0
M  V30 1055 H 96.6825 4.59342 2.5319 0
M  V30 1056 H 98.1565 3.77084 4.03127 0
M  V30 1057 H 98.6335 2.0826 3.86684 0
M  V30 1058 H 99.2395 3.28345 2.70314 0
M  V30 1059 N 97.5546 -0.734337 1.39446 0
M  V30 1060 C 98.8006 -1.49613 1.36908 0
M  V30 1061 C 99.1336 -1.94169 -0.0347829 0
M  V30 1062 O 98.4086 -1.66833 -0.999847 0
M  V30 1063 C 98.6916 -2.73534 2.34203 0
M  V30 1064 C 98.5446 -2.34993 3.83534 0
M  V30 1065 C 99.8636 -3.75635 2.29317 0
M  V30 1066 H 96.9826 -0.542714 0.498629 0
M  V30 1067 H 99.6246 -0.839597 1.70443 0
M  V30 1068 H 97.7746 -3.29553 2.05736 0
M  V30 1069 H 99.4466 -1.84601 4.22753 0
M  V30 1070 H 97.6896 -1.67213 4.00278 0
M  V30 1071 H 98.3606 -3.23738 4.47099 0
M  V30 1072 H 100.837 -3.29203 2.54489 0
M  V30 1073 H 99.7126 -4.60008 2.99472 0
M  V30 1074 H 99.9736 -4.22603 1.29842 0
M  V30 1075 N 99.0327 -1.24633 -0.964593 0
M  V30 1076 C 99.9647 -0.999302 -2.06268 0
M  V30 1077 C 100.978 0.0323226 -1.62768 0
M  V30 1078 O 102.167 -0.205079 -1.77318 0
M  V30 1079 C 99.2667 -0.486816 -3.35385 0
M  V30 1080 C 98.4397 -1.5823 -4.07777 0
M  V30 1081 C 97.4987 -1.07191 -5.15166 0
M  V30 1082 O 96.5247 -1.76426 -5.41168 0
M  V30 1083 N 97.7267 0.0920373 -5.80427 0
M  V30 1084 H 100.492 -1.94477 -2.28033 0
M  V30 1085 H 98.0527 -1.15704 -1.13244 0
M  V30 1086 H 100.045 -0.130066 -4.04491 0
M  V30 1087 H 98.6147 0.364459 -3.10468 0
M  V30 1088 H 97.8347 -2.11109 -3.32906 0
M  V30 1089 H 99.1227 -2.31854 -4.52903 0
M  V30 1090 H 98.5207 0.670784 -5.61709 0
M  V30 1091 H 97.0777 0.389905 -6.50633 0
M  V30 1092 N 100.511 1.16574 -1.06058 0
M  V30 1093 C 101.441 2.23057 -0.690488 0
M  V30 1094 C 102.422 1.67141 0.315901 0
M  V30 1095 O 103.607 1.93253 0.191556 0
M  V30 1096 C 100.737 3.47222 -0.073625 0
M  V30 1097 C 99.6908 4.16016 -1.00573 0
M  V30 1098 C 99.0168 5.34104 -0.252289 0
M  V30 1099 C 100.317 4.67264 -2.33371 0
M  V30 1100 H 102.011 2.54271 -1.58072 0
M  V30 1101 H 99.5568 1.22218 -0.76149 0
M  V30 1102 H 101.51 4.20939 0.19714 0
M  V30 1103 H 100.234 3.15302 0.85161 0
M  V30 1104 H 98.8928 3.44223 -1.2612 0
M  V30 1105 H 98.5408 4.98437 0.675988 0
M  V30 1106 H 98.2408 5.81072 -0.873455 0
M  V30 1107 H 99.7648 6.10599 0.0109857 0
M  V30 1108 H 101.179 5.32573 -2.12223 0
M  V30 1109 H 99.5758 5.24843 -2.90963 0
M  V30 1110 H 100.646 3.83602 -2.96611 0
M  V30 1111 N 101.989 0.842826 1.3317 0
M  V30 1112 C 102.921 0.236245 2.27979 0
M  V30 1113 C 103.934 -0.585282 1.51915 0
M  V30 1114 O 105.123 -0.411705 1.73687 0
M  V30 1115 C 102.223 -0.685717 3.3189 0
M  V30 1116 C 101.396 0.0973448 4.37292 0
M  V30 1117 C 100.455 -0.748565 5.20848 0
M  V30 1118 O 99.4809 -0.186339 5.68895 0
M  V30 1119 N 100.683 -2.06527 5.42519 0
M  V30 1120 H 103.448 1.05088 2.80672 0
M  V30 1121 H 101.009 0.701667 1.45905 0
M  V30 1122 H 103.001 -1.25669 3.84694 0
M  V30 1123 H 101.571 -1.40105 2.79445 0
M  V30 1124 H 100.791 0.849706 3.84933 0
M  V30 1125 H 102.079 0.635643 5.04814 0
M  V30 1126 H 101.477 -2.54554 5.05192 0
M  V30 1127 H 100.034 -2.58464 5.98364 0
M  V30 1128 N 103.467 -1.45747 0.599634 0
M  V30 1129 C 104.715 -2.01893 0.0915472 0
M  V30 1130 C 105.036 -1.47155 -1.27946 0
M  V30 1131 O 104.306 -0.66273 -1.84349 0
M  V30 1132 H 102.886 -0.746363 0.0308524 0
M  V30 1133 H 105.548 -1.78645 0.779237 0
M  V30 1134 H 104.644 -3.1208 0.0353086 0
M  V30 1135 N 104.945 -0.338344 -1.53925 0
M  V30 1136 C 106.222 0.314774 -1.93051 0
M  V30 1137 C 106.602 1.68669 -1.26941 0
M  V30 1138 O 105.95 2.24636 -0.418445 0
M  V30 1139 C 106.16 0.392249 -3.46789 0
M  V30 1140 C 107.508 0.645554 -4.19664 0
M  V30 1141 O 108.532 0.474575 -3.53024 0
M  V30 1142 O 107.391 0.976408 -5.37707 0
M  V30 1143 H 104.485 0.182598 -0.80659 0
M  V30 1144 H 107.031 -0.389141 -1.65178 0
M  V30 1145 H 105.803 -0.570702 -3.87116 0
M  V30 1146 H 105.426 1.14316 -3.80812 0
M  V30 1147 N 106.423 1.57458 -0.0668435 0
M  V30 1148 C 107.671 1.92919 0.602214 0
M  V30 1149 C 107.992 0.947215 1.70449 0
M  V30 1150 O 107.262 -0.00544117 1.95899 0
M  V30 1151 H 105.842 0.71217 0.22544 0
M  V30 1152 H 108.504 1.94508 -0.123535 0
M  V30 1153 H 107.6 2.94589 1.03073 0
M  V30 1154 N 107.901 -0.206675 1.56239 0
M  V30 1155 C 109.312 -0.772383 1.69974 0
M  V30 1156 C 109.663 -1.84353 0.671436 0
M  V30 1157 O 108.788 -2.15695 -0.174491 0
M  V30 1158 C 109.383 -1.40779 3.08167 0
M  V30 1159 C 107.942 -1.92072 3.23706 0
M  V30 1160 C 107.089 -0.786347 2.65917 0
M  V30 1161 H 110.04 0.0182223 1.5869 0
M  V30 1162 H 110.061 -2.27696 3.04852 0
M  V30 1163 H 109.573 -0.627958 3.82986 0
M  V30 1164 H 107.674 -2.7281 2.53782 0
M  V30 1165 H 107.787 -2.09046 4.31087 0
M  V30 1166 H 106.151 -1.1976 2.24788 0
M  V30 1167 H 106.934 -0.0189416 3.43295 0
M  V30 1168 N 109.379 -1.50304 -0.473955 0
M  V30 1169 C 110.312 -1.63595 -1.59097 0
M  V30 1170 C 111.29 -0.484142 -1.55225 0
M  V30 1171 O 112.474 -0.703271 -1.7489 0
M  V30 1172 C 109.601 -1.61589 -2.97669 0
M  V30 1173 C 108.647 -2.82295 -3.19705 0
M  V30 1174 S 109.48 -4.43635 -2.99913 0
M  V30 1175 C 110.636 -4.44317 -4.40832 0
M  V30 1176 H 110.869 -2.58082 -1.47583 0
M  V30 1177 H 108.402 -1.39531 -0.661087 0
M  V30 1178 H 110.36 -1.61116 -3.7756 0
M  V30 1179 H 109.021 -0.683421 -3.06575 0
M  V30 1180 H 108.214 -2.77188 -4.20931 0
M  V30 1181 H 107.816 -2.8032 -2.47582 0
M  V30 1182 H 110.108 -4.17703 -5.33414 0
M  V30 1183 H 111.051 -5.45911 -4.50984 0
M  V30 1184 H 111.459 -3.74059 -4.22777 0
M  V30 1185 N 110.857 0.726932 -1.39834 0
M  V30 1186 C 111.805 1.86235 -1.39353 0
M  V30 1187 C 112.799 1.67144 -0.275555 0
M  V30 1188 O 114.005 1.74387 -0.44601 0
M  V30 1189 H 110.38 0.613174 -0.43534 0
M  V30 1190 H 112.351 1.83756 -2.35109 0
M  V30 1191 C 111.1 3.23995 -1.26185 0
M  V30 1192 H 110.423 3.39285 -2.11484 0
M  V30 1193 H 111.863 4.03609 -1.29907 0
M  V30 1194 C 110.322 3.36888 0.0290018 0
M  V30 1195 O 110.852 3.89152 0.99619 0
M  V30 1196 N 109.058 2.90446 0.0947437 0
M  V30 1197 H 108.605 2.48102 -0.693035 0
M  V30 1198 H 108.563 2.99451 0.957932 0
M  V30 1199 N 112.336 1.25143 0.95797 0
M  V30 1200 C 113.266 1.07711 2.07173 0
M  V30 1201 C 114.247 -0.0128462 1.70095 0
M  V30 1202 O 115.432 0.156061 1.93572 0
M  V30 1203 C 112.562 0.691503 3.40346 0
M  V30 1204 C 111.516 1.73132 3.9142 0
M  V30 1205 C 110.842 1.20049 5.21049 0
M  V30 1206 C 112.142 3.1294 4.1817 0
M  V30 1207 H 113.836 2.00873 2.22014 0
M  V30 1208 H 111.382 0.967191 1.06684 0
M  V30 1209 H 113.335 0.556505 4.17709 0
M  V30 1210 H 112.059 -0.275819 3.25433 0
M  V30 1211 H 110.718 1.8547 3.16222 0
M  V30 1212 H 110.366 0.223499 5.02503 0
M  V30 1213 H 110.066 1.89545 5.56189 0
M  V30 1214 H 111.59 1.07782 6.01012 0
M  V30 1215 H 113.004 3.03775 4.86203 0
M  V30 1216 H 111.401 3.79875 4.64559 0
M  V30 1217 H 112.471 3.6025 3.24573 0
M  V30 1218 N 113.814 -1.1601 1.06675 0
M  V30 1219 C 114.777 -2.18724 0.685001 0
M  V30 1220 C 115.777 -1.58496 -0.271246 0
M  V30 1221 O 116.967 -1.74119 -0.0531156 0
M  V30 1222 C 114.099 -3.40899 0.00853648 0
M  V30 1223 H 115.292 -2.54011 1.59431 0
M  V30 1224 H 112.845 -1.30352 0.862441 0
M  V30 1225 H 113.58 -3.11173 -0.913337 0
M  V30 1226 H 113.365 -3.8587 0.696204 0
M  V30 1227 H 114.855 -4.16886 -0.24414 0
M  V30 1228 N 115.292 -0.849877 -1.32721 0
M  V30 1229 C 116.538 -0.451591 -1.97708 0
M  V30 1230 C 116.871 0.989175 -1.6712 0
M  V30 1231 O 116.146 1.69334 -0.956891 0
M  V30 1232 C 116.429 -0.685598 -3.53513 0
M  V30 1233 C 116.282 -2.17444 -3.93749 0
M  V30 1234 C 117.601 -0.138874 -4.39881 0
M  V30 1235 H 114.72 -0.16555 -0.718166 0
M  V30 1236 H 117.362 -1.06742 -1.57182 0
M  V30 1237 H 115.512 -0.161416 -3.88165 0
M  V30 1238 H 117.184 -2.76433 -3.693 0
M  V30 1239 H 115.427 -2.65476 -3.43081 0
M  V30 1240 H 116.098 -2.28888 -5.02309 0
M  V30 1241 H 118.574 -0.587068 -4.11938 0
M  V30 1242 H 117.45 -0.332213 -5.47894 0
M  V30 1243 H 117.711 0.95806 -4.31594 0
M  V30 1244 N 116.77 1.45427 -0.607355 0
M  V30 1245 C 118.019 2.01452 -0.100036 0
M  V30 1246 C 118.332 1.48159 1.27704 0
M  V30 1247 O 119.538 1.96159 1.87707 0
M  V30 1248 C 117.994 3.59672 -0.128158 0
M  V30 1249 C 117.602 4.21962 -1.50507 0
M  V30 1250 C 119.346 4.23262 0.323932 0
M  V30 1251 C 117.253 5.72333 -1.48959 0
M  V30 1252 H 116.183 0.75325 -0.0336299 0
M  V30 1253 H 118.834 1.66901 -0.76265 0
M  V30 1254 H 117.216 3.91411 0.601105 0
M  V30 1255 H 118.39 4.01796 -2.25602 0
M  V30 1256 H 116.705 3.70565 -1.89923 0
M  V30 1257 H 119.302 5.33522 0.354691 0
M  V30 1258 H 119.645 3.93921 1.34656 0
M  V30 1259 H 120.178 3.96239 -0.352056 0
M  V30 1260 H 116.917 6.06373 -2.48981 0
M  V30 1261 H 116.437 5.94691 -0.781214 0
M  V30 1262 H 118.116 6.35525 -1.21313 0
M  V30 1263 N 118.248 0.346503 1.53744 0
M  V30 1264 C 119.196 -0.52422 2.26616 0
M  V30 1265 C 120.19 -1.09948 1.28871 0
M  V30 1266 O 121.396 -1.04488 1.46568 0
M  V30 1267 H 117.771 -0.187743 0.728187 0
M  V30 1268 H 119.742 0.11239 2.98188 0
M  V30 1269 C 118.491 -1.66186 3.05414 0
M  V30 1270 H 117.814 -1.22848 3.80458 0
M  V30 1271 H 119.254 -2.24622 3.59612 0
M  V30 1272 C 117.713 -2.59302 2.1509 0
M  V30 1273 O 118.243 -3.61628 1.74895 0
M  V30 1274 N 116.449 -2.28055 1.8011 0
M  V30 1275 H 115.996 -1.44883 2.12994 0
M  V30 1276 H 115.954 -2.90615 1.19958 0
M  V30 1277 N 119.726 -1.57421 0.075193 0
M  V30 1278 C 120.974 -1.93236 -0.591974 0
M  V30 1279 C 121.295 -0.956241 -1.69944 0
M  V30 1280 O 120.565 -0.00494792 -1.95899 0
M  V30 1281 H 119.145 -0.713355 -0.22166 0
M  V30 1282 H 121.807 -1.9444 0.133848 0
M  V30 1283 H 120.903 -2.95131 -1.01509 0
M  V30 1284 N 121.204 0.198386 -1.56346 0
M  V30 1285 C 122.152 1.26538 -1.95169 0
M  V30 1286 C 123.146 1.47295 -0.836685 0
M  V30 1287 O 124.352 1.48195 -1.02167 0
M  V30 1288 H 120.727 0.424744 -0.620561 0
M  V30 1289 H 122.698 0.910904 -2.84157 0
M  V30 1290 C 121.447 2.6035 -2.30463 0
M  V30 1291 H 120.77 2.45192 -3.15786 0
M  V30 1292 H 122.21 3.33762 -2.61494 0
M  V30 1293 C 120.669 3.17096 -1.13806 0
M  V30 1294 O 121.199 3.99588 -0.41135 0
M  V30 1295 N 119.405 2.75795 -0.915736 0
M  V30 1296 H 118.952 2.08816 -1.50843 0
M  V30 1297 H 118.91 3.14101 -0.136979 0
M  V30 1298 N 122.682 1.50554 0.465978 0
M  V30 1299 C 123.63 1.70324 1.58406 0
M  V30 1300 C 124.624 0.569139 1.59553 0
M  V30 1301 O 125.83 0.749776 1.63641 0
M  V30 1302 H 122.205 0.537688 0.525734 0
M  V30 1303 H 124.176 2.64104 1.38894 0
M  V30 1304 C 122.925 1.81928 2.96307 0
M  V30 1305 H 122.248 2.68586 2.96144 0
M  V30 1306 H 123.688 1.99784 3.73982 0
M  V30 1307 C 122.147 0.572095 3.32007 0
M  V30 1308 O 122.677 -0.286416 4.00678 0
M  V30 1309 N 120.883 0.424606 2.87481 0
M  V30 1310 H 120.43 1.12427 2.31771 0
M  V30 1311 H 120.388 -0.408697 3.11732 0
M  V30 1312 N 124.16 -0.719506 1.40217 0
M  V30 1313 C 125.108 -1.85493 1.40339 0
M  V30 1314 C 126.102 -1.66995 0.284415 0
M  V30 1315 O 127.308 -1.74148 0.455252 0
M  V30 1316 H 123.683 -0.610857 0.438586 0
M  V30 1317 H 125.654 -1.82506 2.36081 0
M  V30 1318 C 124.403 -3.23321 1.27901 0
M  V30 1319 H 123.726 -3.38159 2.1328 0
M  V30 1320 H 125.166 -4.02914 1.32045 0
M  V30 1321 C 123.625 -3.36898 -0.0111355 0
M  V30 1322 O 124.155 -3.89674 -0.975538 0
M  V30 1323 N 122.361 -2.90492 -0.0793393 0
M  V30 1324 H 121.908 -2.47731 0.706183 0
M  V30 1325 H 121.866 -2.99955 -0.942038 0
M  V30 1326 N 125.638 -1.25649 -0.95132 0
M  V30 1327 C 126.57 -1.02112 -2.05197 0
M  V30 1328 C 127.583 0.0150571 -1.62793 0
M  V30 1329 O 128.772 -0.223874 -1.77091 0
M  V30 1330 C 125.872 -0.522361 -3.3485 0
M  V30 1331 C 125.045 -1.62546 -4.06076 0
M  V30 1332 C 124.104 -1.12649 -5.14001 0
M  V30 1333 O 123.13 -1.82156 -5.39266 0
M  V30 1334 N 124.332 0.03047 -5.80492 0
M  V30 1335 H 127.097 -1.96885 -2.25957 0
M  V30 1336 H 124.658 -1.16899 -1.1201 0
M  V30 1337 H 126.65 -0.172961 -4.0433 0
M  V30 1338 H 125.22 0.33151 -3.10837 0
M  V30 1339 H 124.44 -2.14628 -3.30649 0
M  V30 1340 H 125.728 -2.36644 -4.50419 0
M  V30 1341 H 125.126 0.611169 -5.62389 0
M  V30 1342 H 123.683 0.320875 -6.5101 0
M  V30 1343 N 127.117 1.15442 -1.07289 0
M  V30 1344 C 128.049 2.19773 -0.650585 0
M  V30 1345 C 129.062 1.60076 0.296572 0
M  V30 1346 O 130.251 1.78293 0.0859905 0
M  V30 1347 C 127.351 3.38838 0.0650398 0
M  V30 1348 C 126.524 4.2808 -0.898141 0
M  V30 1349 C 125.583 5.2574 -0.219926 0
M  V30 1350 O 124.609 5.62654 -0.860773 0
M  V30 1351 N 125.811 5.71205 1.03466 0
M  V30 1352 H 128.576 2.56622 -1.54808 0
M  V30 1353 H 126.137 1.30551 -0.957494 0
M  V30 1354 H 128.129 4.01222 0.529415 0
M  V30 1355 H 126.699 3.00409 0.864466 0
M  V30 1356 H 125.919 3.62804 -1.54165 0
M  V30 1357 H 127.207 4.84577 -1.5512 0
M  V30 1358 H 126.605 5.43325 1.57526 0
M  V30 1359 H 125.162 6.35633 1.44272 0
M  V30 1360 N 128.595 0.856903 1.32268 0
M  V30 1361 C 129.528 0.247937 2.26849 0
M  V30 1362 C 130.506 -0.615382 1.50505 0
M  V30 1363 O 131.69 -0.571689 1.79622 0
M  V30 1364 C 128.817 -0.650093 3.32403 0
M  V30 1365 C 127.863 0.140138 4.2627 0
M  V30 1366 S 128.696 1.51004 5.13769 0
M  V30 1367 C 129.852 0.61778 6.22844 0
M  V30 1368 H 130.085 1.04971 2.78152 0
M  V30 1369 H 127.618 0.654665 1.39834 0
M  V30 1370 H 129.576 -1.16256 3.93694 0
M  V30 1371 H 128.237 -1.4257 2.7988 0
M  V30 1372 H 127.43 -0.543945 5.01056 0
M  V30 1373 H 127.032 0.584267 3.69408 0
M  V30 1374 H 129.324 -0.177053 6.77269 0
M  V30 1375 H 130.267 1.33636 6.95375 0
M  V30 1376 H 130.675 0.191124 5.64176 0
M  V30 1377 N 130.073 -1.45103 0.615059 0
M  V30 1378 C 131.489 -1.57137 0.279322 0
M  V30 1379 C 131.689 -1.60523 -1.21797 0
M  V30 1380 O 130.745 -1.53956 -2.00134 0
M  V30 1381 C 132.058 -2.85062 0.957083 0
M  V30 1382 C 133.606 -2.98749 0.933706 0
M  V30 1383 C 134.081 -4.29455 1.59162 0
M  V30 1384 N 135.572 -4.36231 1.55746 0
M  V30 1385 C 136.307 -5.36051 2.0356 0
M  V30 1386 N 135.803 -6.42367 2.59494 0
M  V30 1387 N 137.596 -5.27456 1.94284 0
M  V30 1388 H 129.747 -1.41148 1.58717 0
M  V30 1389 H 132.01 -0.675331 0.665306 0
M  V30 1390 H 131.716 -2.88488 2.01166 0
M  V30 1391 H 131.59 -3.7407 0.48494 0
M  V30 1392 H 133.977 -2.94886 -0.112347 0
M  V30 1393 H 134.058 -2.11132 1.44419 0
M  V30 1394 H 133.702 -4.34077 2.63704 0
M  V30 1395 H 133.632 -5.15901 1.0561 0
M  V30 1396 H 136.123 -3.60011 1.14893 0
M  V30 1397 H 136.436 -7.14793 2.93752 0
M  V30 1398 H 134.781 -6.43097 2.63537 0
M  V30 1399 H 137.972 -4.43308 1.5032 0
M  V30 1400 H 138.145 -6.05099 2.3186 0
M  V30 1401 N 131.551 -0.354651 -1.53558 0
M  V30 1402 C 132.799 0.237972 -2.00694 0
M  V30 1403 C 133.12 1.50173 -1.24391 0
M  V30 1404 O 132.39 1.92673 -0.354135 0
M  V30 1405 H 130.97 0.0909256 -0.741446 0
M  V30 1406 H 133.632 -0.478368 -1.88938 0
M  V30 1407 H 132.728 0.47264 -3.085 0
M  V30 1408 N 133.029 1.57378 -0.0835403 0
M  V30 1409 C 134.275 1.94217 0.583733 0
M  V30 1410 C 134.608 0.964653 1.68547 0
M  V30 1411 O 133.883 -0.00422258 1.945 0
M  V30 1412 C 134.166 3.41253 1.14972 0
M  V30 1413 C 134.019 4.49768 0.0538277 0
M  V30 1414 C 135.338 3.89352 2.05166 0
M  V30 1415 H 132.457 0.706233 0.210724 0
M  V30 1416 H 135.099 1.89392 -0.1519 0
M  V30 1417 H 133.249 3.45496 1.77665 0
M  V30 1418 H 134.921 4.57641 -0.579851 0
M  V30 1419 H 133.164 4.29432 -0.614068 0
M  V30 1420 H 133.835 5.49817 0.490452 0
M  V30 1421 H 136.311 3.87189 1.52393 0
M  V30 1422 H 135.187 4.92822 2.41698 0
M  V30 1423 H 135.448 3.27973 2.96456 0
M  V30 1424 N 134.507 -0.190092 1.56449 0
M  V30 1425 C 135.47 -1.21925 1.9408 0
M  V30 1426 C 136.47 -1.38176 0.822431 0
M  V30 1427 O 137.66 -1.35903 1.08977 0
M  V30 1428 C 134.792 -2.58773 2.21922 0
M  V30 1429 H 135.985 -0.897464 2.86157 0
M  V30 1430 H 133.538 -0.43181 1.50217 0
M  V30 1431 H 134.273 -2.95998 1.32499 0
M  V30 1432 H 134.058 -2.48348 3.03424 0
M  V30 1433 H 135.548 -3.32978 2.52022 0
M  V30 1434 N 135.985 -1.50799 -0.457987 0
M  V30 1435 C 137.401 -1.38515 -0.792819 0
M  V30 1436 C 137.601 -0.451409 -1.96379 0
M  V30 1437 O 136.657 0.10112 -2.52297 0
M  V30 1438 C 137.97 -2.80149 -1.09258 0
M  V30 1439 C 139.518 -2.89156 -1.19825 0
M  V30 1440 C 139.993 -4.31651 -1.53106 0
M  V30 1441 N 141.484 -4.34662 -1.60072 0
M  V30 1442 C 142.219 -5.41928 -1.87354 0
M  V30 1443 N 141.715 -6.59384 -2.12568 0
M  V30 1444 N 143.508 -5.29385 -1.88965 0
M  V30 1445 H 135.659 -2.10073 0.313511 0
M  V30 1446 H 137.922 -0.944803 0.0777862 0
M  V30 1447 H 137.628 -3.50374 -0.305084 0
M  V30 1448 H 137.502 -3.18204 -2.02549 0
M  V30 1449 H 139.889 -2.19141 -1.97639 0
M  V30 1450 H 139.97 -2.54626 -0.244821 0
M  V30 1451 H 139.614 -5.02208 -0.758266 0
M  V30 1452 H 139.544 -4.63678 -2.49621 0
M  V30 1453 H 142.035 -3.49973 -1.42573 0
M  V30 1454 H 142.348 -7.36934 -2.32696 0
M  V30 1455 H 140.693 -6.62535 -2.09933 0
M  V30 1456 H 143.884 -4.36616 -1.68772 0
M  V30 1457 H 144.057 -6.13066 -2.09891 0
M  V30 1458 N 137.463 0.71206 -1.40597 0
M  V30 1459 C 138.709 1.47416 -1.39271 0
M  V30 1460 C 139.042 1.942 0.00388791 0
M  V30 1461 O 138.317 1.68403 0.973179 0
M  V30 1462 C 138.6 2.69774 -2.38525 0
M  V30 1463 C 138.453 2.28861 -3.87224 0
M  V30 1464 C 139.772 3.71939 -2.35264 0
M  V30 1465 H 136.891 0.534713 -0.5072 0
M  V30 1466 H 139.533 0.812375 -1.71757 0
M  V30 1467 H 137.683 3.26238 -2.10953 0
M  V30 1468 H 139.355 1.77852 -4.25636 0
M  V30 1469 H 137.598 1.60824 -4.02887 0
M  V30 1470 H 138.269 3.16584 -4.52193 0
M  V30 1471 H 140.745 3.25113 -2.59694 0
M  V30 1472 H 139.621 4.55186 -3.06753 0
M  V30 1473 H 139.882 4.20484 -1.36549 0
M  V30 1474 N 138.941 1.26152 0.944643 0
M  V30 1475 C 139.873 1.03199 2.04652 0
M  V30 1476 C 140.886 -0.00642356 1.62799 0
M  V30 1477 O 142.075 0.233263 1.76969 0
M  V30 1478 C 139.175 0.540111 3.34568 0
M  V30 1479 C 138.348 1.64697 4.05208 0
M  V30 1480 C 137.407 1.15374 5.13396 0
M  V30 1481 O 136.433 1.85013 5.38293 0
M  V30 1482 N 137.635 0.00031529 5.805 0
M  V30 1483 H 140.4 1.9808 2.2491 0
M  V30 1484 H 137.961 1.17491 1.11389 0
M  V30 1485 H 139.953 0.194401 4.04233 0
M  V30 1486 H 138.523 -0.315021 3.11009 0
M  V30 1487 H 137.743 2.16379 3.29506 0
M  V30 1488 H 139.031 2.3903 4.49157 0
M  V30 1489 H 138.429 -0.581336 5.62705 0
M  V30 1490 H 136.986 -0.286346 6.51171 0
M  V30 1491 N 140.419 -1.14872 1.07899 0
M  V30 1492 C 141.667 -1.85422 0.803941 0
M  V30 1493 C 141.988 -1.83051 -0.67211 0
M  V30 1494 O 141.258 -1.27532 -1.48703 0
M  V30 1495 H 139.838 -0.686537 0.294408 0
M  V30 1496 H 142.5 -1.39226 1.3639 0
M  V30 1497 H 141.596 -2.90399 1.14346 0
M  V30 1498 N 141.898 -0.863906 -1.31812 0
M  V30 1499 C 142.808 -0.318461 -2.32428 0
M  V30 1500 C 143.824 0.568496 -1.64451 0
M  V30 1501 O 145 0.46666 -1.95919 0
M  V30 1502 C 142.065 0.476355 -3.43412 0
M  V30 1503 C 141.126 -0.43784 -4.27061 0
M  V30 1504 C 140.359 0.319138 -5.32745 0
M  V30 1505 O 140.582 1.54799 -5.48993 0
M  V30 1506 O 139.516 -0.319861 -6.01049 0
M  V30 1507 H 143.342 -1.15229 -2.80991 0
M  V30 1508 H 140.927 -0.627103 -1.35602 0
M  V30 1509 H 142.809 0.927156 -4.11074 0
M  V30 1510 H 141.484 1.28683 -2.97022 0
M  V30 1511 H 140.391 -0.937013 -3.62175 0
M  V30 1512 H 141.724 -1.21375 -4.77 0
M  V30 1513 N 143.376 1.44774 -0.622745 0
M  V30 1514 C 144.625 2.01334 -0.121397 0
M  V30 1515 C 144.938 1.49505 1.26125 0
M  V30 1516 O 146.144 1.98139 1.85616 0
M  V30 1517 C 144.6 3.59516 -0.166298 0
M  V30 1518 C 144.208 4.20342 -1.54974 0
M  V30 1519 C 145.952 4.23582 0.279021 0
M  V30 1520 C 143.859 5.70721 -1.55021 0
M  V30 1521 H 142.789 0.752851 -0.0416172 0
M  V30 1522 H 145.44 1.66083 -0.780309 0
M  V30 1523 H 143.822 3.92027 0.559557 0
M  V30 1524 H 144.996 3.99381 -2.29851 0
M  V30 1525 H 143.311 3.68529 -1.93843 0
M  V30 1526 H 145.908 5.33868 0.298083 0
M  V30 1527 H 146.251 3.95327 1.30471 0
M  V30 1528 H 146.784 3.95843 -0.394063 0
M  V30 1529 H 143.523 6.03698 -2.55399 0
M  V30 1530 H 143.043 5.93829 -0.844245 0
M  V30 1531 H 144.722 6.34203 -1.28047 0
M  V30 1532 N 144.854 0.36279 1.53368 0
M  V30 1533 C 146.265 -0.117022 1.86333 0
M  V30 1534 C 146.616 -1.48397 1.28347 0
M  V30 1535 O 145.741 -2.07787 0.604428 0
M  V30 1536 C 146.336 -0.21912 3.38091 0
M  V30 1537 C 144.895 -0.643184 3.70864 0
M  V30 1538 C 144.042 0.211318 2.76494 0
M  V30 1539 H 146.993 0.581687 1.47655 0
M  V30 1540 H 147.014 -1.04319 3.6592 0
M  V30 1541 H 146.526 0.775902 3.80265 0
M  V30 1542 H 144.627 -1.64654 3.34245 0
M  V30 1543 H 144.74 -0.41973 4.77258 0
M  V30 1544 H 143.104 -0.319367 2.5269 0
M  V30 1545 H 143.887 1.20383 3.21501 0
M  V30 1546 N 146.332 -1.57332 0.0918853 0
M  V30 1547 C 147.242 -2.17368 -0.882505 0
M  V30 1548 C 148.258 -1.14226 -1.31257 0
M  V30 1549 O 149.434 -1.46582 -1.38115 0
M  V30 1550 C 146.499 -2.73962 -2.12476 0
M  V30 1551 C 145.56 -3.92048 -1.7492 0
M  V30 1552 C 144.793 -4.45933 -2.93223 0
M  V30 1553 O 145.016 -3.98764 -4.07852 0
M  V30 1554 O 143.95 -5.36999 -2.71875 0
M  V30 1555 H 147.776 -3.01031 -0.40172 0
M  V30 1556 H 145.361 -1.48813 -0.132291 0
M  V30 1557 H 147.243 -3.10147 -2.85283 0
M  V30 1558 H 145.918 -1.93347 -2.59613 0
M  V30 1559 H 144.825 -3.6068 -0.993025 0
M  V30 1560 H 146.158 -4.74017 -1.32548 0
M  V30 1561 N 147.81 0.181792 -1.56548 0
M  V30 1562 C 148.758 1.24461 -1.965 0
M  V30 1563 C 149.752 1.464 -0.852261 0
M  V30 1564 O 150.958 1.47103 -1.03733 0
M  V30 1565 H 147.333 0.418138 -0.625031 0
M  V30 1566 H 149.304 0.880714 -2.85107 0
M  V30 1567 C 148.053 2.57891 -2.33212 0
M  V30 1568 H 147.376 2.41829 -3.18369 0
M  V30 1569 H 148.816 3.3097 -2.65019 0
M  V30 1570 C 147.275 3.15871 -1.17163 0
M  V30 1571 O 147.805 3.9913 -0.453708 0
M  V30 1572 N 146.011 2.74808 -0.944936 0
M  V30 1573 H 145.558 2.07205 -1.53049 0
M  V30 1574 H 145.516 3.13939 -0.170286 0
M  V30 1575 N 149.288 1.51039 0.449983 0
M  V30 1576 C 150.251 1.70863 1.5277 0
M  V30 1577 C 151.251 0.578846 1.5002 0
M  V30 1578 O 152.441 0.846213 1.52266 0
M  V30 1579 C 149.573 1.75341 2.9235 0
M  V30 1580 H 150.766 2.67034 1.36502 0
M  V30 1581 H 148.319 1.40838 0.677812 0
M  V30 1582 H 149.054 0.809383 3.14037 0
M  V30 1583 H 148.839 2.57436 2.95752 0
M  V30 1584 H 150.329 1.92559 3.70555 0
M  V30 1585 N 150.766 -0.704594 1.40972 0
M  V30 1586 C 152.043 -1.45847 1.30338 0
M  V30 1587 C 152.423 -2.10973 -0.0732344 0
M  V30 1588 O 151.771 -2.00997 -1.08685 0
M  V30 1589 C 151.981 -2.48525 2.45023 0
M  V30 1590 C 153.329 -3.1404 2.8577 0
M  V30 1591 O 154.353 -2.58848 2.44696 0
M  V30 1592 O 153.212 -4.13981 3.56766 0
M  V30 1593 H 150.306 -0.649092 0.512454 0
M  V30 1594 H 152.852 -0.735836 1.52917 0
M  V30 1595 H 151.624 -1.98994 3.36923 0
M  V30 1596 H 151.247 -3.2831 2.24272 0
M  V30 1597 N 152.244 -1.26651 -0.937939 0
M  V30 1598 C 153.174 -1.10993 -2.05433 0
M  V30 1599 C 154.155 -0.0142161 -1.70094 0
M  V30 1600 O 155.34 -0.186837 -1.93299 0
M  V30 1601 C 152.47 -0.745561 -3.39203 0
M  V30 1602 C 151.424 -1.79337 -3.88616 0
M  V30 1603 C 150.75 -1.28324 -5.19073 0
M  V30 1604 C 152.05 -3.19553 -4.13138 0
M  V30 1605 H 153.744 -2.0438 -2.1879 0
M  V30 1606 H 151.29 -0.984041 -1.05131 0
M  V30 1607 H 153.243 -0.622888 -4.16771 0
M  V30 1608 H 151.967 0.22401 -3.25831 0
M  V30 1609 H 150.626 -1.90477 -3.13231 0
M  V30 1610 H 150.274 -0.303414 -5.02084 0
M  V30 1611 H 149.974 -1.98369 -5.53103 0
M  V30 1612 H 151.498 -1.1733 -5.99221 0
M  V30 1613 H 152.912 -3.11471 -4.81309 0
M  V30 1614 H 151.309 -3.87218 -4.58457 0
M  V30 1615 H 152.379 -3.65368 -3.18801 0
M  V30 1616 N 153.722 1.14298 -1.08507 0
M  V30 1617 C 154.669 2.19414 -0.715965 0
M  V30 1618 C 155.639 1.63399 0.298326 0
M  V30 1619 O 156.824 1.89929 0.182101 0
M  V30 1620 C 153.964 3.44845 -0.132534 0
M  V30 1621 C 153.077 4.15007 -1.19973 0
M  V30 1622 C 152.212 5.28024 -0.580048 0
M  V30 1623 C 151.251 5.9002 -1.62921 0
M  V30 1624 N 150.388 6.94485 -1.03125 0
M  V30 1625 H 155.228 2.50336 -1.61666 0
M  V30 1626 H 152.765 1.2293 -0.807882 0
M  V30 1627 H 154.723 4.16601 0.223454 0
M  V30 1628 H 153.353 3.14403 0.731467 0
M  V30 1629 H 152.405 3.41629 -1.67313 0
M  V30 1630 H 153.717 4.57178 -1.99473 0
M  V30 1631 H 152.871 6.06455 -0.172364 0
M  V30 1632 H 151.61 4.87076 0.246603 0
M  V30 1633 H 150.615 5.10291 -2.04654 0
M  V30 1634 H 151.84 6.33042 -2.45835 0
M  V30 1635 H 149.786 6.55612 -0.225711 0
M  V30 1636 H 149.703 7.35148 -1.76334 0
M  V30 1637 H 150.971 7.7679 -0.649458 0
M  V30 1638 N 155.201 0.870884 1.31352 0
M  V30 1639 C 156.429 0.49677 2.00848 0
M  V30 1640 C 156.844 -0.910998 1.65367 0
M  V30 1641 O 156.201 -1.59696 0.883374 0
M  V30 1642 C 156.252 0.645308 3.55694 0
M  V30 1643 O 155.973 1.99764 3.89905 0
M  V30 1644 C 157.474 0.272326 4.42463 0
M  V30 1645 H 154.694 0.193462 0.642506 0
M  V30 1646 H 157.238 1.1723 1.67563 0
M  V30 1647 H 155.393 0.0173176 3.87396 0
M  V30 1648 H 155.807 2.00607 4.84621 0
M  V30 1649 H 157.281 0.427208 5.50344 0
M  V30 1650 H 157.758 -0.788587 4.32062 0
M  V30 1651 H 158.364 0.876054 4.1618 0
M  V30 1652 N 156.679 -1.44442 0.630414 0
M  V30 1653 C 157.609 -2.33418 -0.0618083 0
M  V30 1654 C 158.59 -1.48165 -0.835541 0
M  V30 1655 O 159.775 -1.76886 -0.801564 0
M  V30 1656 C 156.905 -3.31222 -1.04449 0
M  V30 1657 C 155.859 -4.26288 -0.382436 0
M  V30 1658 C 155.185 -5.13954 -1.47497 0
M  V30 1659 C 156.485 -5.1744 0.710865 0
M  V30 1660 H 158.179 -2.91548 0.681184 0
M  V30 1661 H 155.725 -1.40191 0.329026 0
M  V30 1662 H 157.678 -3.92351 -1.53748 0
M  V30 1663 H 156.402 -2.71299 -1.81836 0
M  V30 1664 H 155.061 -3.6649 0.0899054 0
M  V30 1665 H 154.709 -4.50385 -2.2397 0
M  V30 1666 H 154.409 -5.7837 -1.03737 0
M  V30 1667 H 155.933 -5.77955 -1.96979 0
M  V30 1668 H 157.347 -5.72509 0.300996 0
M  V30 1669 H 155.744 -5.90455 1.07156 0
M  V30 1670 H 156.814 -4.58496 1.57829 0
M  V30 1671 N 158.157 -0.370918 -1.53173 0
M  V30 1672 C 159.403 0.217423 -2.01631 0
M  V30 1673 C 159.736 1.47983 -1.25756 0
M  V30 1674 O 159.011 1.91274 -0.352764 0
M  V30 1675 C 159.294 0.503982 -3.56556 0
M  V30 1676 C 159.147 -0.77243 -4.43118 0
M  V30 1677 C 160.466 1.30234 -4.20389 0
M  V30 1678 H 157.585 0.0775486 -0.732909 0
M  V30 1679 H 160.227 -0.496863 -1.83388 0
M  V30 1680 H 158.377 1.11248 -3.72231 0
M  V30 1681 H 160.049 -1.4098 -4.39229 0
M  V30 1682 H 158.292 -1.39167 -4.10871 0
M  V30 1683 H 158.963 -0.526815 -5.4948 0
M  V30 1684 H 161.439 0.787546 -4.08579 0
M  V30 1685 H 160.315 1.47158 -5.28806 0
M  V30 1686 H 160.576 2.31237 -3.76805 0
M  V30 1687 N 159.635 1.57281 -0.100228 0
M  V30 1688 C 160.883 1.94153 0.561157 0
M  V30 1689 C 161.204 0.983157 1.68401 0
M  V30 1690 O 160.474 0.0361132 1.95867 0
M  V30 1691 H 159.054 0.716791 0.210283 0
M  V30 1692 H 161.716 1.94202 -0.164765 0
M  V30 1693 H 160.812 2.96709 0.968008 0
M  V30 1694 N 161.113 -0.173488 1.56642 0
M  V30 1695 C 162.061 -1.23417 1.97157 0
M  V30 1696 C 163.055 -1.45946 0.860013 0
M  V30 1697 O 164.261 -1.46551 1.04512 0
M  V30 1698 H 160.636 -0.414818 0.62724 0
M  V30 1699 H 162.607 -0.865582 2.8557 0
M  V30 1700 C 161.356 -2.5665 2.34576 0
M  V30 1701 H 160.679 -2.40137 3.19647 0
M  V30 1702 H 162.119 -3.2956 2.6677 0
M  V30 1703 C 160.578 -3.15245 1.18836 0
M  V30 1704 O 161.108 -3.98883 0.474869 0
M  V30 1705 N 159.314 -2.74303 0.959497 0
M  V30 1706 H 158.861 -2.0639 1.54146 0
M  V30 1707 H 158.819 -3.13844 0.186932 0
M  V30 1708 N 162.591 -1.51276 -0.441967 0
M  V30 1709 C 163.839 -1.63392 -1.18943 0
M  V30 1710 C 164.16 -0.350159 -1.9183 0
M  V30 1711 O 163.43 0.633784 -1.85364 0
M  V30 1712 H 162.01 -0.602164 -0.442049 0
M  V30 1713 H 164.672 -1.88186 -0.507165 0
M  V30 1714 H 163.768 -2.45934 -1.92154 0
M  V30 1715 N 164.069 0.697108 -1.41344 0
M  V30 1716 C 165.299 1.48377 -1.43763 0
M  V30 1717 C 165.707 1.89156 -0.0408726 0
M  V30 1718 O 165.05 1.57239 0.949812 0
M  V30 1719 C 165.112 2.7781 -2.2817 0
M  V30 1720 C 164.776 2.59244 -3.76353 0
M  V30 1721 C 165.773 2.25292 -4.68551 0
M  V30 1722 C 163.458 2.74933 -4.20378 0
M  V30 1723 C 165.452 2.07264 -6.02761 0
M  V30 1724 C 163.139 2.56521 -5.54653 0
M  V30 1725 C 164.137 2.22737 -6.4566 0
M  V30 1726 O 163.825 2.04485 -7.77458 0
M  V30 1727 H 163.557 0.463842 -0.491759 0
M  V30 1728 H 166.111 0.865934 -1.86255 0
M  V30 1729 H 164.341 3.41995 -1.8049 0
M  V30 1730 H 166.03 3.39608 -2.22309 0
M  V30 1731 H 166.796 2.12787 -4.35829 0
M  V30 1732 H 162.675 3.00213 -3.49848 0
M  V30 1733 H 166.219 1.80817 -6.73759 0
M  V30 1734 H 162.116 2.68616 -5.86955 0
M  V30 1735 H 162.884 2.1926 -7.88586 0
M  V30 1736 N 165.547 1.27147 0.931209 0
M  V30 1737 C 166.793 1.13446 1.68101 0
M  V30 1738 C 167.126 -0.319628 1.91552 0
M  V30 1739 O 166.401 -1.23407 1.50336 0
M  V30 1740 C 166.684 1.91482 3.0497 0
M  V30 1741 C 166.537 3.44855 2.88782 0
M  V30 1742 C 167.856 1.71651 4.05246 0
M  V30 1743 H 164.975 0.413498 0.610072 0
M  V30 1744 H 167.617 1.56261 1.08086 0
M  V30 1745 H 165.767 1.55095 3.56199 0
M  V30 1746 H 167.439 3.9105 2.44698 0
M  V30 1747 H 165.682 3.71373 2.24198 0
M  V30 1748 H 166.353 3.94694 3.85902 0
M  V30 1749 H 168.829 2.0337 3.63015 0
M  V30 1750 H 167.705 2.28651 4.99009 0
M  V30 1751 H 167.966 0.663555 4.37092 0
M  V30 1752 N 167.025 -1.13721 1.09112 0
M  V30 1753 C 168.271 -1.85198 0.826414 0
M  V30 1754 C 168.604 -1.83129 -0.646319 0
M  V30 1755 O 167.879 -1.2671 -1.47563 0
M  V30 1756 C 168.162 -3.33507 1.35812 0
M  V30 1757 C 168.015 -3.44108 2.89672 0
M  V30 1758 C 169.334 -4.28838 0.989256 0
M  V30 1759 H 166.453 -0.67243 0.301675 0
M  V30 1760 H 169.095 -1.33499 1.35197 0
M  V30 1761 H 167.245 -3.77666 0.911082 0
M  V30 1762 H 168.917 -3.08684 3.428 0
M  V30 1763 H 167.16 -2.85087 3.26967 0
M  V30 1764 H 167.831 -4.48388 3.21951 0
M  V30 1765 H 170.307 -3.92734 1.37475 0
M  V30 1766 H 169.183 -5.31051 1.38838 0
M  V30 1767 H 169.444 -4.4198 -0.102924 0
M  V30 1768 N 168.503 -0.877838 -1.30888 0
M  V30 1769 C 169.752 -0.488793 -1.95688 0
M  V30 1770 C 170.065 0.965485 -1.70111 0
M  V30 1771 O 171.271 1.46104 -2.28836 0
M  V30 1772 C 169.727 -0.823201 -3.50359 0
M  V30 1773 C 169.335 -2.29477 -3.84765 0
M  V30 1774 C 171.079 -0.503009 -4.21509 0
M  V30 1775 C 168.986 -2.57118 -5.32583 0
M  V30 1776 H 167.916 -0.179062 -0.732429 0
M  V30 1777 H 170.567 -1.07183 -1.48943 0
M  V30 1778 H 168.949 -0.169331 -3.95638 0
M  V30 1779 H 170.123 -2.99236 -3.5042 0
M  V30 1780 H 168.438 -2.58178 -3.267 0
M  V30 1781 H 171.035 -0.68665 -5.30273 0
M  V30 1782 H 171.378 0.557109 -4.12555 0
M  V30 1783 H 171.911 -1.11376 -3.8189 0
M  V30 1784 H 168.65 -3.61843 -5.4658 0
M  V30 1785 H 168.17 -1.91961 -5.68253 0
M  V30 1786 H 169.849 -2.42251 -5.99936 0
M  V30 1787 N 169.982 1.44106 -0.638065 0
M  V30 1788 C 171.21 2.06336 -0.152615 0
M  V30 1789 C 171.625 1.47731 1.17563 0
M  V30 1790 O 170.982 0.602806 1.72257 0
M  V30 1791 C 171.033 3.61479 -0.0391491 0
M  V30 1792 O 170.754 4.17903 -1.31487 0
M  V30 1793 C 172.255 4.40757 0.474176 0
M  V30 1794 H 169.475 0.665862 -0.0828776 0
M  V30 1795 H 172.019 1.84862 -0.87443 0
M  V30 1796 H 170.174 3.82191 0.633142 0
M  V30 1797 H 170.588 5.11416 -1.16421 0
M  V30 1798 H 172.062 5.49707 0.502562 0
M  V30 1799 H 172.539 4.12697 1.50258 0
M  V30 1800 H 173.145 4.24979 -0.165102 0
M  V30 1801 N 171.46 0.379036 1.52974 0
M  V30 1802 C 172.709 -0.207612 2.00629 0
M  V30 1803 C 173.022 -1.48758 1.27006 0
M  V30 1804 O 174.228 -2.15365 1.65318 0
M  V30 1805 C 172.684 -0.42053 3.57435 0
M  V30 1806 C 172.292 0.845587 4.39948 0
M  V30 1807 C 174.036 -0.964102 4.13407 0
M  V30 1808 C 171.943 0.601513 5.88333 0
M  V30 1809 H 170.873 -0.0813591 0.749598 0
M  V30 1810 H 173.524 0.499853 1.76561 0
M  V30 1811 H 171.906 -1.18959 3.7771 0
M  V30 1812 H 173.08 1.61848 4.31442 0
M  V30 1813 H 171.395 1.31336 3.95145 0
M  V30 1814 H 173.992 -1.16225 5.21916 0
M  V30 1815 H 174.335 -1.93019 3.68849 0
M  V30 1816 H 174.868 -0.25487 3.96983 0
M  V30 1817 H 171.607 1.53831 6.37194 0
M  V30 1818 H 171.127 -0.132628 5.99653 0
M  V30 1819 H 172.806 0.232134 6.46583 0
M  V30 1820 N 172.938 -1.57226 0.108567 0
M  V30 1821 C 174.166 -1.99179 -0.559954 0
M  V30 1822 C 174.581 -0.988022 -1.60884 0
M  V30 1823 O 173.938 0.0205512 -1.82488 0
M  V30 1824 C 173.989 -3.41159 -1.19552 0
M  V30 1825 O 173.71 -4.37694 -0.188577 0
M  V30 1826 C 175.211 -3.98188 -1.94837 0
M  V30 1827 H 172.431 -0.654228 -0.149088 0
M  V30 1828 H 174.975 -2.03598 0.19183 0
M  V30 1829 H 173.13 -3.37711 -1.89815 0
M  V30 1830 H 173.544 -5.20469 -0.649014 0
M  V30 1831 H 175.018 -4.99644 -2.34648 0
M  V30 1832 H 175.495 -3.3675 -2.81951 0
M  V30 1833 H 176.101 -4.0515 -1.2936 0
M  V30 1834 N 174.416 0.165178 -1.56732 0
M  V30 1835 C 175.827 0.727046 -1.71962 0
M  V30 1836 C 176.178 1.82508 -0.720078 0
M  V30 1837 O 175.303 2.16082 0.117242 0
M  V30 1838 C 175.898 1.32559 -3.11791 0
M  V30 1839 C 174.457 1.83422 -3.28684 0
M  V30 1840 C 173.604 0.715567 -2.67908 0
M  V30 1841 H 176.555 -0.0602896 -1.58585 0
M  V30 1842 H 176.576 2.19533 -3.10782 0
M  V30 1843 H 176.088 0.526195 -3.84516 0
M  V30 1844 H 174.189 2.65986 -2.60926 0
M  V30 1845 H 174.302 1.97543 -4.36478 0
M  V30 1846 H 172.666 1.13758 -2.27884 0
M  V30 1847 H 173.449 -0.0720836 -3.43224 0
M  V30 1848 N 175.894 1.51508 0.433938 0
M  V30 1849 C 177.119 1.68443 1.21003 0
M  V30 1850 C 177.544 0.382636 1.84167 0
M  V30 1851 O 176.902 -0.65755 1.68956 0
M  V30 1852 C 176.95 2.80405 2.26727 0
M  V30 1853 O 176.054 2.44245 3.32292 0
M  V30 1854 H 175.395 0.561536 0.354363 0
M  V30 1855 H 177.925 1.9809 0.512024 0
M  V30 1856 H 177.935 3.0459 2.71457 0
M  V30 1857 H 176.61 3.74867 1.80132 0
M  V30 1858 H 175.187 2.30644 2.93015 0
M  V30 1859 N 177.372 -0.689602 1.41712 0
M  V30 1860 C 178.282 -1.83314 1.46401 0
M  V30 1861 C 179.298 -1.7036 0.35405 0
M  V30 1862 O 180.474 -1.92171 0.602692 0
M  V30 1863 C 177.539 -3.19344 1.34982 0
M  V30 1864 C 176.6 -3.44363 2.56344 0
M  V30 1865 C 175.833 -4.73904 2.45461 0
M  V30 1866 O 176.056 -5.508 1.48241 0
M  V30 1867 O 174.99 -4.99839 3.35328 0
M  V30 1868 H 178.816 -1.82314 2.42889 0
M  V30 1869 H 176.401 -0.843438 1.23315 0
M  V30 1870 H 178.283 -4.00547 1.3092 0
M  V30 1871 H 176.958 -3.21014 0.41612 0
M  V30 1872 H 175.865 -2.63067 2.65982 0
M  V30 1873 H 177.198 -3.47512 3.48563 0
M  V30 1874 N 178.85 -1.27639 -0.924453 0
M  V30 1875 C 180.098 -1.13941 -1.66918 0
M  V30 1876 C 180.419 0.314589 -1.92446 0
M  V30 1877 O 179.689 1.21964 -1.53303 0
M  V30 1878 H 178.269 -0.418678 -0.618642 0
M  V30 1879 H 180.931 -1.60213 -1.10985 0
M  V30 1880 H 180.027 -1.67094 -2.63602 0
M  V30 1881 N 180.328 1.1314 -1.09713 0
M  V30 1882 C 181.238 2.22242 -0.751367 0
M  V30 1883 C 182.254 1.72224 0.247938 0
M  V30 1884 O 183.43 2.01205 0.0885463 0
M  V30 1885 C 180.495 3.46231 -0.180274 0
M  V30 1886 C 179.556 4.11125 -1.2359 0
M  V30 1887 C 178.789 5.29195 -0.691966 0
M  V30 1888 O 179.012 5.68342 0.48414 0
M  V30 1889 O 177.946 5.84214 -1.44838 0
M  V30 1890 H 181.772 2.54197 -1.66186 0
M  V30 1891 H 179.357 1.21331 -0.871735 0
M  V30 1892 H 181.239 4.21185 0.134739 0
M  V30 1893 H 179.914 3.1597 0.703185 0
M  V30 1894 H 178.821 3.37985 -1.60366 0
M  V30 1895 H 180.154 4.45524 -2.09211 0
M  V30 1896 N 181.806 0.884767 1.30421 0
M  V30 1897 C 183.222 0.57874 1.48737 0
M  V30 1898 C 183.422 -0.883567 1.81095 0
M  V30 1899 O 182.478 -1.6648 1.89844 0
M  V30 1900 C 183.791 1.49171 2.61091 0
M  V30 1901 C 185.339 1.49532 2.74971 0
M  V30 1902 C 185.814 2.39421 3.90438 0
M  V30 1903 N 187.305 2.37383 3.97748 0
M  V30 1904 C 188.04 3.03647 4.86401 0
M  V30 1905 N 187.536 3.79136 5.79852 0
M  V30 1906 N 189.329 2.9288 4.79768 0
M  V30 1907 H 181.48 1.83075 1.0769 0
M  V30 1908 H 183.743 0.783637 0.533495 0
M  V30 1909 H 183.449 2.53291 2.44001 0
M  V30 1910 H 183.323 1.20113 3.57565 0
M  V30 1911 H 185.71 0.46163 2.91467 0
M  V30 1912 H 185.791 1.8262 1.79119 0
M  V30 1913 H 185.435 3.42874 3.74699 0
M  V30 1914 H 185.365 2.03649 4.85628 0
M  V30 1915 H 187.856 1.82525 3.30897 0
M  V30 1916 H 188.169 4.26789 6.4426 0
M  V30 1917 H 186.514 3.83243 5.79784 0
M  V30 1918 H 189.705 2.33433 4.05742 0
M  V30 1919 H 189.878 3.448 5.4865 0
M  V30 1920 N 183.284 -1.43765 0.645699 0
M  V30 1921 C 184.514 -2.05953 0.163318 0
M  V30 1922 C 184.922 -1.48432 -1.17322 0
M  V30 1923 O 184.265 -0.607295 -1.73371 0
M  V30 1924 C 184.327 -3.59499 -0.0103065 0
M  V30 1925 C 183.991 -4.39563 1.25035 0
M  V30 1926 C 184.988 -4.72108 2.17739 0
M  V30 1927 C 182.673 -4.79697 1.48983 0
M  V30 1928 C 184.667 -5.43688 3.3269 0
M  V30 1929 C 182.354 -5.51023 2.64229 0
M  V30 1930 C 183.352 -5.8294 3.55908 0
M  V30 1931 O 183.04 -6.5281 4.69142 0
M  V30 1932 H 182.772 -0.670798 0.0836986 0
M  V30 1933 H 185.326 -1.85384 0.884407 0
M  V30 1934 H 183.556 -3.78613 -0.78669 0
M  V30 1935 H 185.245 -4.03408 -0.449087 0
M  V30 1936 H 186.011 -4.41627 2.00476 0
M  V30 1937 H 181.89 -4.54266 0.785078 0
M  V30 1938 H 185.434 -5.68517 4.04269 0
M  V30 1939 H 181.331 -5.8092 2.81429 0
M  V30 1940 H 182.099 -6.71288 4.6831 0
M  V30 1941 N 184.763 -0.387143 -1.52771 0
M  V30 1942 C 185.695 0.484089 -2.2403 0
M  V30 1943 C 186.708 1.02849 -1.26198 0
M  V30 1944 O 187.897 0.931186 -1.52286 0
M  V30 1945 C 184.997 1.68337 -2.94136 0
M  V30 1946 C 184.17 1.26672 -4.18656 0
M  V30 1947 C 183.229 2.33045 -4.7178 0
M  V30 1948 O 182.255 1.94541 -5.34923 0
M  V30 1949 N 183.457 3.64929 -4.5145 0
M  V30 1950 H 186.222 -0.126404 -2.99433 0
M  V30 1951 H 183.783 -0.213392 -1.60488 0
M  V30 1952 H 185.775 2.39019 -3.26577 0
M  V30 1953 H 184.345 2.20025 -2.22053 0
M  V30 1954 H 183.565 0.388878 -3.92277 0
M  V30 1955 H 184.853 0.964964 -4.99566 0
M  V30 1956 H 184.251 3.98974 -4.01044 0
M  V30 1957 H 182.808 4.31651 -4.88386 0
M  V30 1958 N 186.241 1.57166 -0.116904 0
M  V30 1959 C 187.489 1.94737 0.540533 0
M  V30 1960 C 187.81 1.00096 1.67349 0
M  V30 1961 O 187.08 0.0568854 1.95817 0
M  V30 1962 H 185.66 0.718981 0.202669 0
M  V30 1963 H 188.322 1.94017 -0.185353 0
M  V30 1964 H 187.418 2.97719 0.936483 0
M  V30 1965 N 187.719 -0.156864 1.56817 0
M  V30 1966 C 188.965 -0.872416 1.83076 0
M  V30 1967 C 189.298 -1.81261 0.697001 0
M  V30 1968 O 188.573 -1.92171 -0.30008 0
M  V30 1969 C 188.856 -1.65551 3.19789 0
M  V30 1970 C 188.709 -0.737467 4.43713 0
M  V30 1971 C 190.028 -2.62012 3.53606 0
M  V30 1972 H 187.147 -0.315715 0.665953 0
M  V30 1973 H 189.789 -0.138004 1.89498 0
M  V30 1974 H 187.939 -2.28159 3.14445 0
M  V30 1975 H 189.611 -0.123143 4.61136 0
M  V30 1976 H 187.854 -0.0464067 4.33775 0
M  V30 1977 H 188.525 -1.32122 5.35955 0
M  V30 1978 H 191.001 -2.09525 3.59497 0
M  V30 1979 H 189.877 -3.13861 4.50314 0
M  V30 1980 H 190.138 -3.42902 2.79053 0
M  V30 1981 N 189.197 -1.51736 -0.425897 0
M  V30 1982 C 190.443 -1.65214 -1.1761 0
M  V30 1983 C 190.776 -0.372778 -1.90589 0
M  V30 1984 O 190.051 0.628139 -1.84078 0
M  V30 1985 C 190.334 -2.86312 -2.18398 0
M  V30 1986 C 190.187 -4.24254 -1.49426 0
M  V30 1987 C 191.506 -3.02925 -3.19256 0
M  V30 1988 H 188.625 -0.601263 -0.426206 0
M  V30 1989 H 191.267 -1.8425 -0.463882 0
M  V30 1990 H 189.417 -2.70213 -2.79137 0
M  V30 1991 H 191.089 -4.52046 -0.919362 0
M  V30 1992 H 189.332 -4.26426 -0.796432 0
M  V30 1993 H 190.003 -5.05001 -2.22885 0
M  V30 1994 H 192.479 -3.1781 -2.68581 0
M  V30 1995 H 191.355 -3.89199 -3.8706 0
M  V30 1996 H 191.616 -2.15497 -3.86023 0
M  V30 1997 N 190.675 0.682077 -1.42076 0
M  V30 1998 C 191.923 1.4393 -1.41876 0
M  V30 1999 C 192.244 1.94971 -0.0335599 0
M  V30 2000 O 191.514 1.72591 0.926773 0
M  V30 2001 H 190.094 0.534085 -0.522267 0
M  V30 2002 H 192.756 0.806427 -1.77434 0
M  V30 2003 H 191.852 2.29588 -2.11414 0
M  V30 2004 N 192.153 1.28127 0.917671 0
M  V30 2005 C 193.083 1.14248 2.03641 0
M  V30 2006 C 194.064 0.0412748 1.7005 0
M  V30 2007 O 195.249 0.217566 1.92977 0
M  V30 2008 C 192.379 0.799431 3.37974 0
M  V30 2009 C 191.333 1.85497 3.85713 0
M  V30 2010 C 190.659 1.36565 5.16966 0
M  V30 2011 C 191.959 3.26085 4.08002 0
M  V30 2012 H 193.653 2.07835 2.15511 0
M  V30 2013 H 191.199 1.00064 1.03553 0
M  V30 2014 H 193.152 0.689114 4.15727 0
M  V30 2015 H 191.876 -0.172145 3.26146 0
M  V30 2016 H 190.535 1.95437 3.10161 0
M  V30 2017 H 190.183 0.383253 5.01538 0
M  V30 2018 H 189.883 2.07143 5.49878 0
M  V30 2019 H 191.407 1.26848 5.97279 0
M  V30 2020 H 192.821 3.19089 4.76293 0
M  V30 2021 H 191.218 3.94462 4.52238 0
M  V30 2022 H 192.288 3.70394 3.12948 0
M  V30 2023 N 193.631 -1.12557 1.10312 0
M  V30 2024 C 194.541 -2.21841 0.763142 0
M  V30 2025 C 195.557 -1.72354 -0.238801 0
M  V30 2026 O 196.733 -2.01249 -0.0778746 0
M  V30 2027 C 193.798 -3.46131 0.198632 0
M  V30 2028 C 192.859 -4.10464 1.25769 0
M  V30 2029 C 192.092 -5.28821 0.72002 0
M  V30 2030 O 192.315 -5.6859 -0.453993 0
M  V30 2031 O 191.249 -5.83437 1.47935 0
M  V30 2032 H 195.075 -2.53312 1.67532 0
M  V30 2033 H 192.66 -1.20867 0.878157 0
M  V30 2034 H 194.542 -4.2125 -0.112401 0
M  V30 2035 H 193.217 -3.16338 -0.686419 0
M  V30 2036 H 192.124 -3.3713 1.62156 0
M  V30 2037 H 193.457 -4.44408 2.11571 0
M  V30 2038 N 195.109 -0.891671 -1.2995 0
M  V30 2039 C 196.357 -0.512486 -1.95494 0
M  V30 2040 C 196.678 0.942776 -1.70695 0
M  V30 2041 O 195.948 1.66374 -1.03424 0
M  V30 2042 H 194.528 -0.186533 -0.723336 0
M  V30 2043 H 197.19 -1.13621 -1.58355 0
M  V30 2044 H 196.286 -0.688342 -3.04415 0
M  V30 2045 N 196.587 1.43421 -0.653314 0
M  V30 2046 C 197.864 1.95361 -0.0966581 0
M  V30 2047 C 198.244 1.59461 1.38331 0
M  V30 2048 O 197.592 0.879777 2.10884 0
M  V30 2049 C 197.802 3.47311 -0.342988 0
M  V30 2050 C 199.15 4.23875 -0.24798 0
M  V30 2051 O 200.174 3.55133 -0.275553 0
M  V30 2052 O 199.033 5.4623 -0.171771 0
M  V30 2053 H 196.127 0.826945 0.00956291 0
M  V30 2054 H 198.673 1.5336 -0.726558 0
M  V30 2055 H 197.445 3.66569 -1.36906 0
M  V30 2056 H 197.068 3.9631 0.319975 0
M  V30 2057 N 198.065 0.39524 1.52563 0
M  V30 2058 C 199.293 -0.184943 2.06072 0
M  V30 2059 C 199.708 -1.40021 1.26647 0
M  V30 2060 O 199.065 -1.79767 0.314672 0
M  V30 2061 C 199.116 -0.549179 3.57304 0
M  V30 2062 O 198.837 0.617813 4.33722 0
M  V30 2063 C 200.338 -1.18459 4.2718 0
M  V30 2064 H 197.558 -0.0265025 0.670476 0
M  V30 2065 H 200.102 0.562184 1.96621 0
M  V30 2066 H 198.257 -1.2462 3.66809 0
M  V30 2067 H 198.671 0.317091 5.23541 0
M  V30 2068 H 200.145 -1.38976 5.34219 0
M  V30 2069 H 200.622 -2.15368 3.82771 0
M  V30 2070 H 201.228 -0.528163 4.22008 0
M  V30 2071 N 199.544 -1.57102 0.125237 0
M  V30 2072 C 200.474 -2.18659 -0.819174 0
M  V30 2073 C 201.455 -1.12843 -1.27281 0
M  V30 2074 O 202.64 -1.41104 -1.33429 0
M  V30 2075 C 199.77 -2.79096 -2.06695 0
M  V30 2076 C 198.724 -3.90548 -1.75088 0
M  V30 2077 C 198.05 -4.37821 -3.06948 0
M  V30 2078 C 199.35 -5.12356 -1.01435 0
M  V30 2079 H 201.044 -2.9783 -0.306202 0
M  V30 2080 H 198.59 -1.4326 -0.145839 0
M  V30 2081 H 200.543 -3.2082 -2.73226 0
M  V30 2082 H 199.267 -1.97223 -2.60328 0
M  V30 2083 H 197.926 -3.49409 -1.10944 0
M  V30 2084 H 197.574 -3.52799 -3.58527 0
M  V30 2085 H 197.274 -5.12982 -2.86571 0
M  V30 2086 H 198.798 -4.822 -3.74587 0
M  V30 2087 H 200.212 -5.5106 -1.58132 0
M  V30 2088 H 198.609 -5.9314 -0.911319 0
M  V30 2089 H 199.679 -4.849 -0.00218681 0
M  V30 2090 N 201.022 0.148545 -1.56898 0
M  V30 2091 C 201.985 1.16736 -1.97244 0
M  V30 2092 C 202.985 1.35947 -0.858777 0
M  V30 2093 O 204.175 1.32966 -1.12542 0
M  V30 2094 C 201.307 2.52798 -2.28705 0
M  V30 2095 H 202.5 0.821279 -2.88435 0
M  V30 2096 H 200.053 0.391831 -1.51309 0
M  V30 2097 H 200.788 2.92381 -1.403 0
M  V30 2098 H 200.573 2.40216 -3.09901 0
M  V30 2099 H 202.063 3.26179 -2.60762 0
M  V30 2100 N 202.5 1.5196 0.417844 0
M  V30 2101 C 203.463 1.74065 1.49111 0
M  V30 2102 C 204.463 0.610537 1.48758 0
M  V30 2103 O 205.653 0.87832 1.50437 0
M  V30 2104 C 202.785 1.81502 2.88565 0
M  V30 2105 H 203.978 2.69869 1.30807 0
M  V30 2106 H 201.531 1.42244 0.647785 0
M  V30 2107 H 202.266 0.875813 3.1225 0
M  V30 2108 H 202.051 2.63651 2.90225 0
M  V30 2109 H 203.541 2.00376 3.66387 0
M  V30 2110 N 203.978 -0.674533 1.42435 0
M  V30 2111 C 205.218 -1.4466 1.44405 0
M  V30 2112 C 205.582 -1.91911 0.0585784 0
M  V30 2113 O 206.783 -2.68759 -0.0469991 0
M  V30 2114 C 205.054 -2.61136 2.44013 0
M  V30 2115 S 206.613 -3.49981 2.64687 0
M  V30 2116 H 203.431 -0.494074 0.511284 0
M  V30 2117 H 206.033 -0.785162 1.7904 0
M  V30 2118 H 204.737 -2.24662 3.43446 0
M  V30 2119 H 204.268 -3.32153 2.10803 0
M  V30 2120 H 206.283 -4.57124 1.93007 0
M  V30 2121 N 205.456 -1.28612 -0.910864 0
M  V30 2122 C 206.386 -1.15326 -2.03032 0
M  V30 2123 C 207.367 -0.0502924 -1.70026 0
M  V30 2124 O 208.552 -0.227797 -1.92859 0
M  V30 2125 C 205.682 -0.817343 -3.37545 0
M  V30 2126 C 204.636 -1.8754 -3.84724 0
M  V30 2127 C 203.962 -1.39305 -5.16235 0
M  V30 2128 C 205.262 -3.28244 -4.06267 0
M  V30 2129 H 206.956 -2.08975 -2.14406 0
M  V30 2130 H 204.502 -1.00612 -1.03021 0
M  V30 2131 H 206.455 -0.711151 -4.15356 0
M  V30 2132 H 205.179 0.154846 -3.26233 0
M  V30 2133 H 203.838 -1.97079 -3.09121 0
M  V30 2134 H 203.486 -0.409846 -5.01328 0
M  V30 2135 H 203.186 -2.10057 -5.48771 0
M  V30 2136 H 204.71 -1.30014 -5.96598 0
M  V30 2137 H 206.124 -3.21611 -4.74594 0
M  V30 2138 H 204.521 -3.96855 -4.5014 0
M  V30 2139 H 205.591 -3.72048 -3.10979 0
M  V30 2140 N 206.934 1.1197 -1.10907 0
M  V30 2141 C 207.844 2.21433 -0.774896 0
M  V30 2142 C 208.86 1.72478 0.229657 0
M  V30 2143 O 210.036 2.01288 0.0672008 0
M  V30 2144 C 207.101 3.4602 -0.216986 0
M  V30 2145 C 206.162 4.09791 -1.27944 0
M  V30 2146 C 205.395 5.28431 -0.748055 0
M  V30 2147 O 205.618 5.68823 0.423833 0
M  V30 2148 O 204.552 5.82644 -1.51027 0
M  V30 2149 H 208.378 2.5242 -1.68873 0
M  V30 2150 H 205.963 1.20399 -0.884555 0
M  V30 2151 H 207.845 4.21304 0.090059 0
M  V30 2152 H 206.52 3.16698 0.669633 0
M  V30 2153 H 205.427 3.36265 -1.63941 0
M  V30 2154 H 206.76 4.4328 -2.13925 0
M  V30 2155 N 208.412 0.89855 1.29475 0
M  V30 2156 C 209.689 0.443416 1.90508 0
M  V30 2157 C 210.069 -1.07685 1.81569 0
M  V30 2158 O 209.417 -1.9182 1.24166 0
M  V30 2159 C 209.627 0.956708 3.35631 0
M  V30 2160 C 210.975 0.999728 4.12663 0
M  V30 2161 O 211.999 0.904299 3.4453 0
M  V30 2162 O 210.858 1.14289 5.34416 0
M  V30 2163 H 207.952 0.138025 0.815401 0
M  V30 2164 H 210.498 0.98834 1.37949 0
M  V30 2165 H 209.27 2.00067 3.36287 0
M  V30 2166 H 208.893 0.391728 3.95666 0
M  V30 2167 N 209.89 -1.43072 0.660911 0
M  V30 2168 C 211.12 -2.05769 0.185153 0
M  V30 2169 C 211.528 -1.49668 -1.15742 0
M  V30 2170 O 210.871 -0.625649 -1.72717 0
M  V30 2171 C 210.933 -3.59489 0.0278237 0
M  V30 2172 C 210.597 -4.38212 1.2969 0
M  V30 2173 C 211.594 -4.69772 2.22734 0
M  V30 2174 C 209.279 -4.7809 1.54063 0
M  V30 2175 C 211.273 -5.40129 3.38437 0
M  V30 2176 C 208.96 -5.4819 2.70058 0
M  V30 2177 C 209.958 -5.79132 3.62071 0
M  V30 2178 O 209.646 -6.47798 4.76039 0
M  V30 2179 H 209.378 -0.669873 0.0908086 0
M  V30 2180 H 211.932 -1.84436 0.90402 0
M  V30 2181 H 210.162 -3.79426 -0.746489 0
M  V30 2182 H 211.851 -4.03862 -0.406275 0
M  V30 2183 H 212.617 -4.39476 2.05149 0
M  V30 2184 H 208.496 -4.53408 0.833215 0
M  V30 2185 H 212.04 -5.64198 4.10277 0
M  V30 2186 H 207.937 -5.77902 2.87574 0
M  V30 2187 H 208.705 -6.66283 4.75404 0
M  V30 2188 N 211.368 -0.403325 -1.52352 0
M  V30 2189 C 212.615 0.174347 -2.01748 0
M  V30 2190 C 212.943 1.45636 -1.2892 0
M  V30 2191 O 212.198 1.9193 -0.382258 0
M  V30 2192 C 212.497 0.474665 -3.54234 0
M  V30 2193 C 212.163 -0.717458 -4.45155 0
M  V30 2194 C 210.825 -1.04447 -4.69728 0
M  V30 2195 C 213.177 -1.51432 -4.98716 0
M  V30 2196 C 210.505 -2.16963 -5.45109 0
M  V30 2197 C 212.857 -2.6302 -5.75329 0
M  V30 2198 C 211.521 -2.96213 -5.98175 0
M  V30 2199 H 210.791 0.0637981 -0.738248 0
M  V30 2200 H 213.438 -0.543553 -1.83624 0
M  V30 2201 H 211.743 1.27406 -3.70506 0
M  V30 2202 H 213.44 0.934496 -3.89959 0
M  V30 2203 H 210.03 -0.452596 -4.26204 0
M  V30 2204 H 214.214 -1.27491 -4.79645 0
M  V30 2205 H 209.47 -2.43034 -5.61021 0
M  V30 2206 H 213.644 -3.25158 -6.15829 0
M  V30 2207 H 211.271 -3.83516 -6.56368 0
M  V30 2208 N 212.846 1.57033 -0.133567 0
M  V30 2209 C 213.779 2.11824 0.848872 0
M  V30 2210 C 214.757 1.03833 1.2513 0
M  V30 2211 O 215.941 1.31579 1.34978 0
M  V30 2212 C 213.068 2.62692 2.138 0
M  V30 2213 C 212.114 3.82705 1.88253 0
M  V30 2214 S 212.947 5.2438 1.08563 0
M  V30 2215 C 214.103 5.78627 2.38624 0
M  V30 2216 H 214.336 2.94824 0.38289 0
M  V30 2217 H 211.869 1.5419 0.0804796 0
M  V30 2218 H 213.827 2.92652 2.87863 0
M  V30 2219 H 212.488 1.79847 2.57515 0
M  V30 2220 H 211.681 4.16496 2.83809 0
M  V30 2221 H 211.283 3.53437 1.22305 0
M  V30 2222 H 213.575 5.8924 3.34369 0
M  V30 2223 H 214.518 6.76443 2.09358 0
M  V30 2224 H 214.926 5.06783 2.48658 0
M  V30 2225 N 214.325 -0.140222 1.56975 0
M  V30 2226 C 215.741 -0.493088 1.51792 0
M  V30 2227 C 215.941 -1.83013 0.843116 0
M  V30 2228 O 214.997 -2.49041 0.416493 0
M  V30 2229 C 216.31 -0.497144 2.96562 0
M  V30 2230 C 217.858 -0.582186 3.07538 0
M  V30 2231 C 218.333 -0.616838 4.53827 0
M  V30 2232 N 219.824 -0.678873 4.58198 0
M  V30 2233 C 220.559 -0.726782 5.68775 0
M  V30 2234 N 220.055 -0.733623 6.88905 0
M  V30 2235 N 221.848 -0.768179 5.56826 0
M  V30 2236 H 213.999 0.736108 1.99237 0
M  V30 2237 H 216.262 0.269182 0.90898 0
M  V30 2238 H 215.968 0.417217 3.49217 0
M  V30 2239 H 215.842 -1.33263 3.52875 0
M  V30 2240 H 218.229 -1.48697 2.54899 0
M  V30 2241 H 218.31 0.280581 2.54257 0
M  V30 2242 H 217.954 0.283812 5.07106 0
M  V30 2243 H 217.884 -1.49619 5.04898 0
M  V30 2244 H 220.375 -0.68061 3.7172 0
M  V30 2245 H 220.688 -0.772215 7.68932 0
M  V30 2246 H 219.033 -0.701389 6.91452 0
M  V30 2247 H 222.224 -0.760051 4.61888 0
M  V30 2248 H 222.397 -0.80205 6.43017 0
M  V30 2249 N 215.803 -1.52179 -0.40978 0
M  V30 2250 C 217.028 -1.70347 -1.18308 0
M  V30 2251 C 217.453 -0.411887 -1.83535 0
M  V30 2252 O 216.811 0.630587 -1.6998 0
M  V30 2253 C 216.859 -2.83977 -2.22238 0
M  V30 2254 O 215.963 -2.495 -3.28365 0
M  V30 2255 H 215.304 -0.567103 -0.345384 0
M  V30 2256 H 217.834 -1.98879 -0.480445 0
M  V30 2257 H 217.844 -3.0887 -2.66577 0
M  V30 2258 H 216.519 -3.77685 -1.74146 0
M  V30 2259 H 215.096 -2.35277 -2.89308 0
M  V30 2260 N 217.281 0.66697 -1.42791 0
M  V30 2261 C 218.191 1.80962 -1.49299 0
M  V30 2262 C 219.207 1.69775 -0.381108 0
M  V30 2263 O 220.383 1.91188 -0.633188 0
M  V30 2264 C 217.448 3.17156 -1.40045 0
M  V30 2265 C 216.509 3.40242 -2.6179 0
M  V30 2266 C 215.742 4.69939 -2.52969 0
M  V30 2267 O 215.965 5.48372 -1.56985 0
M  V30 2268 O 214.899 4.94441 -3.43237 0
M  V30 2269 H 218.725 1.78427 -2.45759 0
M  V30 2270 H 216.31 0.823713 -1.24641 0
M  V30 2271 H 218.192 3.98413 -1.37276 0
M  V30 2272 H 216.867 3.20312 -0.467138 0
M  V30 2273 H 215.774 2.58802 -2.70134 0
M  V30 2274 H 217.107 3.41923 -3.54047 0
M  V30 2275 N 218.759 1.29093 0.90403 0
M  V30 2276 C 219.691 1.09658 2.01266 0
M  V30 2277 C 220.704 0.0453729 1.62737 0
M  V30 2278 O 221.893 0.289446 1.76138 0
M  V30 2279 C 218.993 0.646278 3.32681 0
M  V30 2280 C 218.166 1.77505 3.99763 0
M  V30 2281 C 217.225 1.31649 5.09465 0
M  V30 2282 O 216.251 2.02045 5.32134 0
M  V30 2283 N 217.453 0.184997 5.80205 0
M  V30 2284 H 220.218 2.05135 2.18494 0
M  V30 2285 H 217.779 1.20975 1.07594 0
M  V30 2286 H 219.771 0.322906 4.0341 0
M  V30 2287 H 218.341 -0.215916 3.11853 0
M  V30 2288 H 217.561 2.26752 3.22455 0
M  V30 2289 H 218.849 2.53198 4.41325 0
M  V30 2290 H 218.247 -0.402021 5.6427 0
M  V30 2291 H 216.804 -0.0790358 6.51752 0
M  V30 2292 N 220.237 -1.11381 1.11499 0
M  V30 2293 C 221.167 -2.19509 0.796125 0
M  V30 2294 C 222.148 -1.68458 -0.235796 0
M  V30 2295 O 223.333 -1.93947 -0.0991344 0
M  V30 2296 C 220.463 -3.46475 0.239205 0
M  V30 2297 C 219.417 -4.10744 1.20307 0
M  V30 2298 C 218.743 -5.32293 0.50683 0
M  V30 2299 C 220.043 -4.55597 2.55399 0
M  V30 2300 H 221.737 -2.46439 1.70024 0
M  V30 2301 H 219.283 -1.18446 0.818935 0
M  V30 2302 H 221.236 -4.214 0.00392006 0
M  V30 2303 H 219.96 -3.19006 -0.700206 0
M  V30 2304 H 218.619 -3.37813 1.42399 0
M  V30 2305 H 218.267 -5.01095 -0.437408 0
M  V30 2306 H 217.967 -5.76243 1.1497 0
M  V30 2307 H 219.491 -6.09956 0.280351 0
M  V30 2308 H 220.905 -5.21841 2.37391 0
M  V30 2309 H 219.302 -5.10363 3.15673 0
M  V30 2310 H 220.372 -3.69013 3.14575 0
M  V30 2311 N 221.715 -0.905404 -1.28997 0
M  V30 2312 C 223.126 -0.581953 -1.77398 0
M  V30 2313 C 223.477 0.902552 -1.74208 0
M  V30 2314 O 222.602 1.70584 -1.33154 0
M  V30 2315 C 223.197 -1.04961 -3.22131 0
M  V30 2316 C 221.756 -0.777229 -3.68288 0
M  V30 2317 C 220.903 -1.22109 -2.48967 0
M  V30 2318 H 223.854 -1.08754 -1.15578 0
M  V30 2319 H 223.875 -0.387387 -3.78523 0
M  V30 2320 H 223.387 -2.13008 -3.24421 0
M  V30 2321 H 221.488 0.290383 -3.71467 0
M  V30 2322 H 221.601 -1.37911 -4.58822 0
M  V30 2323 H 219.965 -0.639971 -2.46529 0
M  V30 2324 H 220.748 -2.30972 -2.53982 0
M  V30 2325 N 223.193 1.4272 -0.668489 0
M  V30 2326 C 224.421 2.05966 -0.196348 0
M  V30 2327 C 224.836 1.50191 1.14403 0
M  V30 2328 O 224.193 0.639208 1.7094 0
M  V30 2329 C 224.244 3.61314 -0.115815 0
M  V30 2330 O 223.965 4.1502 -1.40322 0
M  V30 2331 C 225.466 4.41663 0.380579 0
M  V30 2332 H 222.686 0.663954 -0.0969829 0
M  V30 2333 H 225.23 1.82966 -0.913446 0
M  V30 2334 H 223.385 3.83448 0.551931 0
M  V30 2335 H 223.799 5.08832 -1.27243 0
M  V30 2336 H 225.273 5.5065 0.385848 0
M  V30 2337 H 225.75 4.15792 1.41471 0
M  V30 2338 H 226.356 4.24534 -0.255209 0
M  V30 2339 N 224.671 0.411399 1.52136 0
M  V30 2340 C 226.087 0.0623865 1.59478 0
M  V30 2341 C 226.287 -1.42554 1.4241 0
M  V30 2342 O 225.343 -2.19263 1.2522 0
M  V30 2343 C 226.656 0.559331 2.95452 0
M  V30 2344 C 228.204 0.517503 3.08692 0
M  V30 2345 C 228.679 0.990994 4.4715 0
M  V30 2346 N 230.17 0.947908 4.53397 0
M  V30 2347 C 230.905 1.28544 5.58806 0
M  V30 2348 N 230.401 1.69454 6.71757 0
M  V30 2349 N 232.194 1.20526 5.49026 0
M  V30 2350 H 224.345 1.37982 1.61477 0
M  V30 2351 H 226.608 0.566977 0.759764 0
M  V30 2352 H 226.314 1.59938 3.1323 0
M  V30 2353 H 226.188 -0.0298014 3.77188 0
M  V30 2354 H 228.575 -0.513505 2.90598 0
M  V30 2355 H 228.656 1.14272 2.28857 0
M  V30 2356 H 228.3 2.02034 4.65988 0
M  V30 2357 H 228.23 0.34257 5.25485 0
M  V30 2358 H 230.721 0.647157 3.72317 0
M  V30 2359 H 231.034 1.93513 7.48179 0
M  V30 2360 H 229.379 1.73359 6.73032 0
M  V30 2361 H 232.57 0.884505 4.59667 0
M  V30 2362 H 232.743 1.47161 6.31069 0
M  V30 2363 N 226.149 -1.5696 0.141893 0
M  V30 2364 C 227.079 -2.19516 -0.795936 0
M  V30 2365 C 228.06 -1.14187 -1.26077 0
M  V30 2366 O 229.245 -1.42511 -1.31925 0
M  V30 2367 C 226.375 -2.81272 -2.03723 0
M  V30 2368 C 225.329 -3.92384 -1.70936 0
M  V30 2369 C 224.655 -4.41052 -3.02287 0
M  V30 2370 C 225.955 -5.13403 -0.959954 0
M  V30 2371 H 227.649 -2.98138 -0.274596 0
M  V30 2372 H 225.195 -1.43406 -0.130636 0
M  V30 2373 H 227.148 -3.237 -2.69808 0
M  V30 2374 H 225.872 -1.99973 -2.58221 0
M  V30 2375 H 224.531 -3.50566 -1.07232 0
M  V30 2376 H 224.179 -3.56582 -3.54765 0
M  V30 2377 H 223.879 -5.15993 -2.81114 0
M  V30 2378 H 225.403 -4.86146 -3.69451 0
M  V30 2379 H 226.817 -5.52706 -1.52279 0
M  V30 2380 H 225.214 -5.94073 -0.848357 0
M  V30 2381 H 226.284 -4.84875 0.0492434 0
M  V30 2382 N 227.627 0.131896 -1.57047 0
M  V30 2383 C 228.874 0.841932 -1.84168 0
M  V30 2384 C 229.202 1.8048 -0.725066 0
M  V30 2385 O 228.457 1.93618 0.284692 0
M  V30 2386 C 228.756 1.63703 -3.17704 0
M  V30 2387 C 228.422 0.81961 -4.43388 0
M  V30 2388 C 227.084 0.594148 -4.77518 0
M  V30 2389 C 229.436 0.248977 -5.20605 0
M  V30 2390 C 226.764 -0.212409 -5.86315 0
M  V30 2391 C 229.116 -0.544701 -6.30251 0
M  V30 2392 C 227.78 -0.780599 -6.6292 0
M  V30 2393 H 227.05 0.308085 -0.673917 0
M  V30 2394 H 229.697 0.104867 -1.91213 0
M  V30 2395 H 228.002 2.44464 -3.06177 0
M  V30 2396 H 229.699 2.19015 -3.35907 0
M  V30 2397 H 226.289 1.00542 -4.16641 0
M  V30 2398 H 230.473 0.410408 -4.946 0
M  V30 2399 H 225.729 -0.404524 -6.1006 0
M  V30 2400 H 229.903 -0.993922 -6.89271 0
M  V30 2401 H 227.53 -1.40742 -7.47058 0
M  V30 2402 N 229.106 1.52395 0.401703 0
M  V30 2403 C 230.355 1.66044 1.14509 0
M  V30 2404 C 230.668 0.400216 1.91462 0
M  V30 2405 O 231.874 0.416632 2.68284 0
M  V30 2406 C 230.33 2.93388 2.0845 0
M  V30 2407 C 229.938 4.26545 1.36978 0
M  V30 2408 C 231.682 3.16402 2.83001 0
M  V30 2409 C 229.589 5.45007 2.29611 0
M  V30 2410 H 228.519 0.618562 0.431158 0
M  V30 2411 H 231.17 1.78886 0.40892 0
M  V30 2412 H 229.552 2.74263 2.8565 0
M  V30 2413 H 230.726 4.56179 0.650916 0
M  V30 2414 H 229.041 4.09692 0.74438 0
M  V30 2415 H 231.638 4.02085 3.52465 0
M  V30 2416 H 231.981 2.30943 3.46368 0
M  V30 2417 H 232.514 3.36034 2.12898 0
M  V30 2418 H 229.253 6.32835 1.70879 0
M  V30 2419 H 228.773 5.19702 2.9945 0
M  V30 2420 H 230.452 5.7838 2.89974 0
M  V30 2421 N 230.584 -0.659388 1.43143 0
M  V30 2422 C 232 -0.974337 1.26407 0
M  V30 2423 C 232.2 -2.007 0.179341 0
M  V30 2424 O 231.256 -2.4856 -0.444295 0
M  V30 2425 C 232.569 -1.46447 2.62628 0
M  V30 2426 C 234.117 -1.58144 2.7011 0
M  V30 2427 C 234.592 -2.1055 4.06734 0
M  V30 2428 N 236.083 -2.17861 4.08767 0
M  V30 2429 C 236.818 -2.59519 5.1131 0
M  V30 2430 N 236.314 -3.00518 6.24228 0
M  V30 2431 N 238.107 -2.59404 4.98664 0
M  V30 2432 H 230.258 0.0240528 2.12386 0
M  V30 2433 H 232.521 -0.0518065 0.946583 0
M  V30 2434 H 232.227 -0.780123 3.42939 0
M  V30 2435 H 232.101 -2.44058 2.87603 0
M  V30 2436 H 234.488 -2.25682 1.90136 0
M  V30 2437 H 234.569 -0.589828 2.48907 0
M  V30 2438 H 234.213 -1.43616 4.87172 0
M  V30 2439 H 234.143 -3.10531 4.25298 0
M  V30 2440 H 236.634 -1.88975 3.27257 0
M  V30 2441 H 236.947 -3.31036 6.98309 0
M  V30 2442 H 235.292 -2.98337 6.2771 0
M  V30 2443 H 238.483 -2.26747 4.09516 0
M  V30 2444 H 238.656 -2.91548 5.78709 0
M  V30 2445 N 232.062 -1.29571 -0.897171 0
M  V30 2446 C 233.29 -1.20583 -1.68129 0
M  V30 2447 C 233.705 0.233181 -1.87354 0
M  V30 2448 O 233.062 1.15579 -1.41236 0
M  V30 2449 C 233.113 -1.91772 -3.06441 0
M  V30 2450 O 232.834 -3.30053 -2.88091 0
M  V30 2451 C 234.335 -1.89291 -4.00854 0
M  V30 2452 H 231.555 -0.417826 -0.525036 0
M  V30 2453 H 234.099 -1.70987 -1.12177 0
M  V30 2454 H 232.254 -1.45196 -3.59161 0
M  V30 2455 H 232.668 -3.65942 -3.75748 0
M  V30 2456 H 234.142 -2.43662 -4.95311 0
M  V30 2457 H 234.619 -0.869014 -4.30517 0
M  V30 2458 H 235.225 -2.35622 -3.54066 0
M  V30 2459 N 233.54 1.10788 -1.12088 0
M  V30 2460 C 234.788 1.8231 -0.872205 0
M  V30 2461 C 235.109 1.85419 0.603709 0
M  V30 2462 O 234.379 1.32963 1.43867 0
M  V30 2463 H 232.959 0.675137 -0.319686 0
M  V30 2464 H 235.621 1.34068 -1.41463 0
M  V30 2465 H 234.717 2.85955 -1.25045 0
M  V30 2466 N 235.018 0.912232 1.28515 0
M  V30 2467 C 236.295 0.463597 1.90027 0
M  V30 2468 C 236.675 -1.05753 1.82701 0
M  V30 2469 O 236.023 -1.90492 1.26194 0
M  V30 2470 C 236.233 0.992253 3.34597 0
M  V30 2471 C 237.581 1.04344 4.11579 0
M  V30 2472 O 238.605 0.94079 3.43551 0
M  V30 2473 O 237.464 1.1995 5.33174 0
M  V30 2474 H 234.558 0.146666 0.813891 0
M  V30 2475 H 237.104 1.00292 1.36893 0
M  V30 2476 H 235.876 2.03623 3.34146 0
M  V30 2477 H 235.499 0.433672 3.95228 0
M  V30 2478 N 236.496 -1.42363 0.676048 0
M  V30 2479 C 237.742 -2.0182 0.199125 0
M  V30 2480 C 238.075 -1.53339 -1.19168 0
M  V30 2481 O 237.35 -0.736124 -1.80032 0
M  V30 2482 C 237.633 -3.59331 0.235144 0
M  V30 2483 C 237.486 -4.17989 1.66149 0
M  V30 2484 C 238.805 -4.3813 -0.41595 0
M  V30 2485 H 235.924 -0.733293 0.0738311 0
M  V30 2486 H 238.566 -1.69368 0.86107 0
M  V30 2487 H 236.716 -3.87109 -0.328487 0
M  V30 2488 H 238.388 -4.0116 2.27747 0
M  V30 2489 H 236.631 -3.7377 2.20178 0
M  V30 2490 H 237.302 -5.27126 1.63837 0
M  V30 2491 H 239.778 -4.16051 0.0638529 0
M  V30 2492 H 238.654 -5.47717 -0.360115 0
M  V30 2493 H 238.915 -4.16101 -1.49373 0
M  V30 2494 N 237.974 -0.419461 -1.51915 0
M  V30 2495 C 239.251 0.211999 -1.94448 0
M  V30 2496 C 239.631 1.61703 -1.35703 0
M  V30 2497 O 238.979 2.22102 -0.536931 0
M  V30 2498 C 239.189 0.207872 -3.4838 0
M  V30 2499 C 240.537 0.422192 -4.22496 0
M  V30 2500 O 241.561 0.286778 -3.55044 0
M  V30 2501 O 240.42 0.690009 -5.42126 0
M  V30 2502 H 237.514 0.139586 -0.815135 0
M  V30 2503 H 240.06 -0.476151 -1.62883 0
M  V30 2504 H 238.832 -0.775102 -3.83546 0
M  V30 2505 H 238.455 0.939688 -3.86336 0
M  V30 2506 N 239.452 1.56882 -0.150215 0
M  V30 2507 C 240.7 1.9584 0.499105 0
M  V30 2508 C 241.021 1.03623 1.65188 0
M  V30 2509 O 240.291 0.0984084 1.95653 0
M  V30 2510 H 238.871 0.723119 0.187373 0
M  V30 2511 H 241.533 1.9358 -0.226466 0
M  V30 2512 H 240.629 2.99638 0.873122 0
M  V30 2513 N 240.93 -0.123565 1.57115 0
M  V30 2514 C 241.877 -1.15177 2.00007 0
M  V30 2515 C 242.847 -1.41403 0.871454 0
M  V30 2516 O 244.032 -1.53346 1.13533 0
M  V30 2517 C 241.172 -2.47436 2.40561 0
M  V30 2518 C 240.285 -2.28184 3.66819 0
M  V30 2519 C 239.42 -3.53641 3.96373 0
M  V30 2520 C 238.459 -3.29528 5.15827 0
M  V30 2521 N 237.596 -4.47175 5.41275 0
M  V30 2522 H 242.436 -0.779008 2.87638 0
M  V30 2523 H 239.973 -0.373166 1.42288 0
M  V30 2524 H 241.931 -3.24584 2.62109 0
M  V30 2525 H 240.561 -2.82614 1.55978 0
M  V30 2526 H 239.613 -1.41976 3.52912 0
M  V30 2527 H 240.925 -2.0634 4.5412 0
M  V30 2528 H 240.079 -4.39209 4.18545 0
M  V30 2529 H 238.818 -3.78512 3.07538 0
M  V30 2530 H 237.823 -2.42349 4.93505 0
M  V30 2531 H 239.048 -3.06031 6.06236 0
M  V30 2532 H 236.994 -4.72175 4.55397 0
M  V30 2533 H 236.911 -4.28419 6.22891 0
M  V30 2534 H 238.179 -5.3389 5.67963 0
M  V30 2535 N 242.408 -1.52605 -0.393616 0
M  V30 2536 C 243.819 -1.59417 -0.971761 0
M  V30 2537 C 244.17 -0.444173 -1.91106 0
M  V30 2538 O 243.295 0.433382 -2.12016 0
M  V30 2539 C 243.89 -2.88936 -1.76921 0
M  V30 2540 C 242.449 -2.98175 -2.29714 0
M  V30 2541 C 241.596 -2.54491 -1.10135 0
M  V30 2542 H 244.547 -1.57751 -0.173317 0
M  V30 2543 H 244.568 -2.75163 -2.62804 0
M  V30 2544 H 244.08 -3.72616 -1.08532 0
M  V30 2545 H 242.181 -2.19024 -3.01429 0
M  V30 2546 H 242.294 -4.02726 -2.59517 0
M  V30 2547 H 240.658 -2.08702 -1.45999 0
M  V30 2548 H 241.441 -3.4056 -0.432874 0
M  V30 2549 N 243.887 0.651787 -1.4349 0
M  V30 2550 C 244.85 1.74647 -1.48429 0
M  V30 2551 C 245.85 1.56513 -0.368817 0
M  V30 2552 O 247.04 1.62385 -0.630623 0
M  V30 2553 C 244.172 3.13533 -1.33827 0
M  V30 2554 H 245.365 1.71649 -2.4592 0
M  V30 2555 H 242.918 0.863573 -1.30277 0
M  V30 2556 H 243.653 3.22142 -0.37349 0
M  V30 2557 H 243.438 3.28101 -2.14691 0
M  V30 2558 H 244.928 3.93356 -1.40218 0
M  V30 2559 N 245.365 1.30045 0.890287 0
M  V30 2560 C 246.328 1.15963 1.977 0
M  V30 2561 C 247.328 0.0923777 1.60534 0
M  V30 2562 O 248.518 0.340071 1.70848 0
M  V30 2563 C 245.65 0.775451 3.31963 0
M  V30 2564 H 246.843 2.12502 2.11619 0
M  V30 2565 H 244.396 1.13366 1.07601 0
M  V30 2566 H 245.131 -0.189671 3.23745 0
M  V30 2567 H 244.916 1.54668 3.60306 0
M  V30 2568 H 246.406 0.700251 4.11687 0
M  V30 2569 N 246.843 -1.10192 1.12674 0
M  V30 2570 C 248.091 -1.81845 0.881861 0
M  V30 2571 C 248.412 -1.85737 -0.593867 0
M  V30 2572 O 247.682 -1.33724 -1.4316 0
M  V30 2573 H 246.262 -0.673432 0.323261 0
M  V30 2574 H 248.924 -1.33316 1.42172 0
M  V30 2575 H 248.02 -2.85288 1.2656 0
M  V30 2576 N 248.321 -0.919034 -1.28029 0
M  V30 2577 C 249.569 -0.553838 -1.94363 0
M  V30 2578 C 249.89 0.906357 -1.72656 0
M  V30 2579 O 249.16 1.64143 -1.0693 0
M  V30 2580 H 247.74 -0.201834 -0.719216 0
M  V30 2581 H 250.402 -1.16954 -1.55909 0
M  V30 2582 H 249.498 -0.752758 -3.02886 0
M  V30 2583 N 249.799 1.42003 -0.683588 0
M  V30 2584 C 250.732 2.28166 0.039592 0
M  V30 2585 C 251.71 1.41562 0.799942 0
M  V30 2586 O 252.894 1.70997 0.793248 0
M  V30 2587 C 250.021 3.21575 1.06335 0
M  V30 2588 C 249.067 4.24643 0.397562 0
M  V30 2589 S 249.9 5.2869 -0.851296 0
M  V30 2590 C 251.056 6.25666 0.171166 0
M  V30 2591 H 251.289 2.89153 -0.691229 0
M  V30 2592 H 248.822 1.46962 -0.473435 0
M  V30 2593 H 250.78 3.75928 1.6489 0
M  V30 2594 H 249.441 2.59707 1.76667 0
M  V30 2595 H 248.634 4.90223 1.17035 0
M  V30 2596 H 248.236 3.73824 -0.114611 0
M  V30 2597 H 250.528 6.69653 1.02819 0
M  V30 2598 H 251.471 7.06666 -0.450397 0
M  V30 2599 H 251.879 5.62095 0.520578 0
M  V30 2600 N 251.277 0.427512 1.51691 0
M  V30 2601 C 252.207 -0.3796 2.30394 0
M  V30 2602 C 253.188 -1.02982 1.35384 0
M  V30 2603 O 254.373 -1.03534 1.643 0
M  V30 2604 C 251.503 -1.48649 3.1388 0
M  V30 2605 C 250.457 -0.960294 4.17088 0
M  V30 2606 C 249.783 -2.16219 4.89033 0
M  V30 2607 C 251.083 -0.00153679 5.223 0
M  V30 2608 H 252.777 0.277164 2.98114 0
M  V30 2609 H 250.323 0.134739 1.43368 0
M  V30 2610 H 252.276 -2.05826 3.67714 0
M  V30 2611 H 251 -2.1714 2.43962 0
M  V30 2612 H 249.659 -0.410806 3.64291 0
M  V30 2613 H 249.307 -2.83307 4.15628 0
M  V30 2614 H 249.007 -1.81654 5.58816 0
M  V30 2615 H 250.531 -2.73968 5.45687 0
M  V30 2616 H 251.945 -0.482687 5.71264 0
M  V30 2617 H 250.342 0.256199 5.99553 0
M  V30 2618 H 251.412 0.938174 4.75738 0
M  V30 2619 N 252.755 -1.56801 0.158532 0
M  V30 2620 C 253.685 -2.20347 -0.772609 0
M  V30 2621 C 254.666 -1.15518 -1.24859 0
M  V30 2622 O 255.851 -1.43902 -1.30406 0
M  V30 2623 C 252.981 -2.83417 -2.00729 0
M  V30 2624 C 251.935 -3.94174 -1.66765 0
M  V30 2625 C 251.261 -4.44233 -2.97592 0
M  V30 2626 C 252.561 -5.14392 -0.905447 0
M  V30 2627 H 254.255 -2.98413 -0.242959 0
M  V30 2628 H 251.801 -1.43537 -0.115419 0
M  V30 2629 H 253.754 -3.26543 -2.6636 0
M  V30 2630 H 252.478 -2.02701 -2.56086 0
M  V30 2631 H 251.137 -3.51684 -1.03508 0
M  V30 2632 H 250.785 -3.60325 -3.50963 0
M  V30 2633 H 250.485 -5.18945 -2.75626 0
M  V30 2634 H 252.009 -4.90037 -3.64274 0
M  V30 2635 H 253.423 -5.5429 -1.46408 0
M  V30 2636 H 251.82 -5.9494 -0.7853 0
M  V30 2637 H 252.89 -4.84795 0.100668 0
M  V30 2638 N 254.233 0.115231 -1.57178 0
M  V30 2639 C 255.165 1.16694 -1.97269 0
M  V30 2640 C 256.178 1.37445 -0.872502 0
M  V30 2641 O 257.367 1.36454 -1.15077 0
M  V30 2642 C 254.467 2.52627 -2.25905 0
M  V30 2643 C 253.64 2.52427 -3.57211 0
M  V30 2644 C 252.699 3.70134 -3.74016 0
M  V30 2645 O 251.725 3.53546 -4.46087 0
M  V30 2646 N 252.927 4.88844 -3.13068 0
M  V30 2647 H 255.692 0.82588 -2.88096 0
M  V30 2648 H 253.253 0.304461 -1.59011 0
M  V30 2649 H 255.245 3.29937 -2.34359 0
M  V30 2650 H 253.815 2.789 -1.41186 0
M  V30 2651 H 253.035 1.60805 -3.5991 0
M  V30 2652 H 254.323 2.49353 -4.43509 0
M  V30 2653 H 253.721 5.05225 -2.54489 0
M  V30 2654 H 252.278 5.63817 -3.27037 0
M  V30 2655 N 255.711 1.52812 0.385517 0
M  V30 2656 C 256.957 1.68275 1.13188 0
M  V30 2657 C 257.29 0.423179 1.89533 0
M  V30 2658 O 256.565 -0.579113 1.85679 0
M  V30 2659 C 256.848 2.92001 2.1073 0
M  V30 2660 C 256.701 4.28067 1.38125 0
M  V30 2661 C 258.02 3.11283 3.11113 0
M  V30 2662 H 255.139 0.612352 0.410115 0
M  V30 2663 H 257.781 1.85415 0.414869 0
M  V30 2664 H 255.931 2.77519 2.71874 0
M  V30 2665 H 257.603 4.54324 0.799187 0
M  V30 2666 H 255.846 4.28388 0.683092 0
M  V30 2667 H 256.517 5.10733 2.09417 0
M  V30 2668 H 258.993 3.2482 2.6006 0
M  V30 2669 H 257.869 3.99325 3.76605 0
M  V30 2670 H 258.13 2.25656 3.80173 0
M  V30 2671 N 257.189 -0.644168 1.43834 0
M  V30 2672 C 258.122 -1.76906 1.44151 0
M  V30 2673 C 259.1 -1.59774 0.301857 0
M  V30 2674 O 260.284 -1.81834 0.496841 0
M  V30 2675 C 257.411 -3.14321 1.26174 0
M  V30 2676 C 256.457 -3.50134 2.43533 0
M  V30 2677 S 257.29 -3.49085 4.06079 0
M  V30 2678 C 258.446 -4.89142 3.90501 0
M  V30 2679 H 258.679 -1.76368 2.39336 0
M  V30 2680 H 256.212 -0.817624 1.30974 0
M  V30 2681 H 258.17 -3.93625 1.16489 0
M  V30 2682 H 256.831 -3.12412 0.325224 0
M  V30 2683 H 256.024 -4.50095 2.26783 0
M  V30 2684 H 255.626 -2.78264 2.4989 0
M  V30 2685 H 257.918 -5.78036 3.53385 0
M  V30 2686 H 258.861 -5.10945 4.90246 0
M  V30 2687 H 259.269 -4.63102 3.22795 0
M  V30 2688 N 258.668 -1.30515 -0.883378 0
M  V30 2689 C 260.079 -1.17509 -1.45081 0
M  V30 2690 C 260.43 0.223605 -1.94922 0
M  V30 2691 O 259.555 1.12041 -1.85137 0
M  V30 2692 C 260.15 -2.12715 -2.63701 0
M  V30 2693 C 258.709 -2.03682 -3.16529 0
M  V30 2694 C 257.856 -2.02706 -1.89224 0
M  V30 2695 H 260.807 -1.42762 -0.693165 0
M  V30 2696 H 260.828 -1.70891 -3.39965 0
M  V30 2697 H 260.34 -3.14505 -2.27395 0
M  V30 2698 H 258.441 -1.05039 -3.57488 0
M  V30 2699 H 258.554 -2.92146 -3.7972 0
M  V30 2700 H 256.918 -1.4753 -2.07622 0
M  V30 2701 H 257.701 -3.06229 -1.55174 0
M  V30 2702 N 260.146 1.09593 -1.13257 0
M  V30 2703 C 261.109 2.14359 -0.811358 0
M  V30 2704 C 262.109 1.59808 0.178377 0
M  V30 2705 O 263.299 1.74132 -0.0484911 0
M  V30 2706 C 260.431 3.40269 -0.207276 0
M  V30 2707 H 261.624 2.44284 -1.73969 0
M  V30 2708 H 259.177 1.25102 -0.936973 0
M  V30 2709 H 259.912 3.15969 0.73036 0
M  V30 2710 H 259.697 3.81154 -0.919992 0
M  V30 2711 H 261.187 4.176 0.000667944 0
M  V30 2712 N 261.624 0.925811 1.2754 0
M  V30 2713 C 262.556 0.380753 2.26015 0
M  V30 2714 C 263.569 -0.487485 1.5533 0
M  V30 2715 O 264.758 -0.300413 1.75954 0
M  V30 2716 C 261.858 -0.473259 3.35579 0
M  V30 2717 C 261.031 0.375249 4.35787 0
M  V30 2718 C 260.09 -0.415809 5.24555 0
M  V30 2719 O 259.116 0.175834 5.68928 0
M  V30 2720 N 260.318 -1.71607 5.54555 0
M  V30 2721 H 263.083 1.22725 2.73421 0
M  V30 2722 H 260.644 0.793037 1.41147 0
M  V30 2723 H 262.636 -1.00949 3.91907 0
M  V30 2724 H 261.206 -1.2205 2.87789 0
M  V30 2725 H 260.426 1.09279 3.7875 0
M  V30 2726 H 261.714 0.955399 4.99749 0
M  V30 2727 H 261.112 -2.2191 5.20358 0
M  V30 2728 H 259.669 -2.19887 6.1359 0
M  V30 2729 N 263.102 -1.41638 0.69111 0
M  V30 2730 C 264.05 -2.32597 0.0115199 0
M  V30 2731 C 265.044 -1.5072 -0.773296 0
M  V30 2732 O 266.25 -1.66685 -0.67942 0
M  V30 2733 H 262.625 -0.751849 -0.0150746 0
M  V30 2734 H 264.596 -2.87593 0.795791 0
M  V30 2735 C 263.345 -3.35467 -0.914172 0
M  V30 2736 H 262.668 -3.9852 -0.319687 0
M  V30 2737 H 264.108 -4.01662 -1.35808 0
M  V30 2738 C 262.567 -2.69004 -2.02826 0
M  V30 2739 O 263.097 -2.53444 -3.11655 0
M  V30 2740 N 261.303 -2.2777 -1.80469 0
M  V30 2741 H 260.85 -2.40626 -0.919615 0
M  V30 2742 H 260.808 -1.83635 -2.55197 0
M  V30 2743 N 264.58 -0.43555 -1.51462 0
M  V30 2744 C 265.543 0.365137 -2.26273 0
M  V30 2745 C 266.543 0.951227 -1.29647 0
M  V30 2746 O 267.733 0.825958 -1.53374 0
M  V30 2747 C 264.865 1.51645 -3.05314 0
M  V30 2748 H 266.058 -0.290474 -2.9849 0
M  V30 2749 H 263.611 -0.188676 -1.55157 0
M  V30 2750 H 264.346 2.20816 -2.3751 0
M  V30 2751 H 264.131 1.10238 -3.76284 0
M  V30 2752 H 265.621 2.08218 -3.61987 0
M  V30 2753 N 266.058 1.56714 -0.166846 0
M  V30 2754 C 266.99 2.14914 0.796537 0
M  V30 2755 C 268.003 1.10357 1.19688 0
M  V30 2756 O 269.192 1.37561 1.13751 0
M  V30 2757 C 266.292 2.67326 2.08303 0
M  V30 2758 C 265.465 3.96493 1.84696 0
M  V30 2759 C 264.524 4.34014 2.97521 0
M  V30 2760 O 263.55 5.01973 2.6835 0
M  V30 2761 N 264.752 3.95208 4.25196 0
M  V30 2762 H 267.517 2.98205 0.299006 0
M  V30 2763 H 265.078 1.61892 0.0160839 0
M  V30 2764 H 267.07 2.89428 2.82867 0
M  V30 2765 H 265.64 1.88649 2.4926 0
M  V30 2766 H 264.86 3.82814 0.940602 0
M  V30 2767 H 266.148 4.8086 1.66285 0
M  V30 2768 H 265.546 3.40487 4.51758 0
M  V30 2769 H 264.103 4.2232 4.96477 0
M  V30 2770 N 267.536 -0.106894 1.57237 0
M  V30 2771 C 268.468 -1.15646 1.97885 0
M  V30 2772 C 269.481 -1.36981 0.879779 0
M  V30 2773 O 270.67 -1.35841 1.15799 0
M  V30 2774 C 267.77 -2.51425 2.27241 0
M  V30 2775 C 266.943 -2.50529 3.58545 0
M  V30 2776 C 266.002 -3.68145 3.75973 0
M  V30 2777 O 265.028 -3.51176 4.47956 0
M  V30 2778 N 266.23 -4.87177 3.15656 0
M  V30 2779 H 268.995 -0.81059 2.8853 0
M  V30 2780 H 266.556 -0.296024 1.59171 0
M  V30 2781 H 268.548 -3.28689 2.36105 0
M  V30 2782 H 267.118 -2.78147 1.42663 0
M  V30 2783 H 266.338 -1.58894 3.60758 0
M  V30 2784 H 267.626 -2.46997 4.44826 0
M  V30 2785 H 267.024 -5.03868 2.57165 0
M  V30 2786 H 265.581 -5.62075 3.30023 0
M  V30 2787 N 269.014 -1.53014 -0.377408 0
M  V30 2788 C 270.291 -1.59215 -1.13622 0
M  V30 2789 C 270.671 -0.392407 -2.07421 0
M  V30 2790 O 270.019 0.618342 -2.19975 0
M  V30 2791 C 270.229 -2.93669 -1.88573 0
M  V30 2792 C 271.577 -3.47822 -2.43526 0
M  V30 2793 O 272.601 -2.9562 -1.98715 0
M  V30 2794 O 271.46 -4.39055 -3.25412 0
M  V30 2795 H 268.554 -0.642625 -0.52054 0
M  V30 2796 H 271.1 -1.65353 -0.381625 0
M  V30 2797 H 269.872 -3.7243 -1.20048 0
M  V30 2798 H 269.495 -2.90968 -2.70968 0
M  V30 2799 N 270.492 0.636531 -1.44174 0
M  V30 2800 C 271.769 1.39463 -1.37148 0
M  V30 2801 C 272.149 2.11082 -0.027507 0
M  V30 2802 O 271.497 2.05954 0.989716 0
M  V30 2803 C 271.707 2.36552 -2.56601 0
M  V30 2804 C 273.055 3.00048 -3.00427 0
M  V30 2805 O 274.079 2.46878 -2.56767 0
M  V30 2806 O 272.938 3.96488 -3.76111 0
M  V30 2807 H 270.032 0.623903 -0.542839 0
M  V30 2808 H 272.578 0.662039 -1.56253 0
M  V30 2809 H 271.35 1.82692 -3.46034 0
M  V30 2810 H 270.973 3.17236 -2.39681 0
M  V30 2811 N 271.97 1.30982 0.876444 0
M  V30 2812 C 273.217 1.20296 1.62896 0
M  V30 2813 C 273.545 -0.240395 1.93009 0
M  V30 2814 O 272.8 -1.18733 1.55567 0
M  V30 2815 C 273.099 1.98572 2.9716 0
M  V30 2816 C 272.765 3.48125 2.86566 0
M  V30 2817 C 271.427 3.88905 2.83383 0
M  V30 2818 C 273.779 4.43322 2.74071 0
M  V30 2819 C 271.107 5.2316 2.65556 0
M  V30 2820 C 273.459 5.77695 2.57781 0
M  V30 2821 C 272.123 6.17704 2.52979 0
M  V30 2822 H 271.393 0.440193 0.59608 0
M  V30 2823 H 274.04 1.62177 1.01837 0
M  V30 2824 H 272.345 1.49352 3.62217 0
M  V30 2825 H 274.042 1.8769 3.54364 0
M  V30 2826 H 270.632 3.15723 2.89856 0
M  V30 2827 H 274.816 4.12752 2.75589 0
M  V30 2828 H 270.072 5.53241 2.60259 0
M  V30 2829 H 274.246 6.51091 2.47089 0
M  V30 2830 H 271.873 7.21678 2.38924 0
M  V30 2831 N 273.449 -1.08991 1.13837 0
M  V30 2832 C 274.726 -1.77863 0.813876 0
M  V30 2833 C 275.106 -1.99375 -0.693746 0
M  V30 2834 O 274.454 -1.59875 -1.63255 0
M  V30 2835 C 274.664 -3.0986 1.60586 0
M  V30 2836 C 276.012 -3.84493 1.8014 0
M  V30 2837 O 277.036 -3.19624 1.57222 0
M  V30 2838 O 275.895 -5.00957 2.18413 0
M  V30 2839 H 272.989 -0.771589 0.297624 0
M  V30 2840 H 275.535 -1.15507 1.24323 0
M  V30 2841 H 274.307 -2.89715 2.63022 0
M  V30 2842 H 273.93 -3.79942 1.17173 0
M  V30 2843 N 274.927 -0.932562 -1.27047 0
M  V30 2844 C 275.877 -0.406392 -2.24349 0
M  V30 2845 C 276.861 0.492066 -1.53191 0
M  V30 2846 O 278.053 0.328717 -1.73921 0
M  V30 2847 C 275.182 0.335214 -3.41659 0
M  V30 2848 C 274.268 -0.58004 -4.20115 0
M  V30 2849 N 274.659 -1.70203 -4.76303 0
M  V30 2850 C 272.957 -0.383974 -4.44344 0
M  V30 2851 C 273.658 -2.27167 -5.35509 0
M  V30 2852 N 272.634 -1.56068 -5.20715 0
M  V30 2853 H 276.436 -1.26299 -2.65378 0
M  V30 2854 H 273.95 -0.787408 -1.42034 0
M  V30 2855 H 275.947 0.729142 -4.10474 0
M  V30 2856 H 274.607 1.18868 -3.0216 0
M  V30 2857 H 275.618 -2.08433 -4.74106 0
M  V30 2858 H 272.295 0.428436 -4.15296 0
M  V30 2859 H 273.685 -3.21654 -5.89905 0
M  V30 2860 N 276.405 1.4127 -0.698611 0
M  V30 2861 C 277.335 2.33447 -0.049629 0
M  V30 2862 C 278.316 1.51982 0.763898 0
M  V30 2863 O 279.501 1.80509 0.716257 0
M  V30 2864 C 276.631 3.35828 0.885267 0
M  V30 2865 C 275.585 4.27627 0.178613 0
M  V30 2866 C 274.911 5.20406 1.22807 0
M  V30 2867 C 276.211 5.13459 -0.956933 0
M  V30 2868 H 277.905 2.87966 -0.81951 0
M  V30 2869 H 275.451 1.38461 -0.395538 0
M  V30 2870 H 277.404 3.9924 1.34854 0
M  V30 2871 H 276.128 2.79666 1.68685 0
M  V30 2872 H 274.787 3.65643 -0.26466 0
M  V30 2873 H 274.435 4.60558 2.02226 0
M  V30 2874 H 274.135 5.82661 0.760239 0
M  V30 2875 H 275.659 5.86695 1.69179 0
M  V30 2876 H 277.073 5.70421 -0.573805 0
M  V30 2877 H 275.47 5.8467 -1.35205 0
M  V30 2878 H 276.54 4.50443 -1.79524 0
M  V30 2879 N 277.883 0.443576 1.51229 0
M  V30 2880 C 278.846 -0.353132 2.26463 0
M  V30 2881 C 279.846 -0.944338 1.3015 0
M  V30 2882 O 281.036 -0.817813 1.5381 0
M  V30 2883 C 278.168 -1.50023 3.06114 0
M  V30 2884 H 279.361 0.3063 2.98332 0
M  V30 2885 H 276.914 0.196902 1.55055 0
M  V30 2886 H 277.649 -2.19553 2.38677 0
M  V30 2887 H 277.434 -1.08241 3.76864 0
M  V30 2888 H 278.924 -2.06296 3.63087 0
M  V30 2889 N 279.361 -1.56624 0.175154 0
M  V30 2890 C 280.589 -2.01374 -0.474971 0
M  V30 2891 C 281.004 -1.05537 -1.56548 0
M  V30 2892 O 280.361 -0.0568668 -1.82411 0
M  V30 2893 C 280.412 -3.45923 -1.04975 0
M  V30 2894 O 280.133 -4.381 -0.00276605 0
M  V30 2895 C 281.634 -4.06093 -1.77773 0
M  V30 2896 H 278.854 -0.659962 -0.121206 0
M  V30 2897 H 281.398 -2.02601 0.27801 0
M  V30 2898 H 279.553 -3.45458 -1.75321 0
M  V30 2899 H 279.967 -5.22753 -0.427681 0
M  V30 2900 H 281.441 -5.09147 -2.13245 0
M  V30 2901 H 281.918 -3.48405 -2.67414 0
M  V30 2902 H 282.524 -4.10272 -1.12059 0
M  V30 2903 N 280.839 0.0985539 -1.57292 0
M  V30 2904 C 281.769 1.12064 -2.04851 0
M  V30 2905 C 282.75 1.41981 -0.936767 0
M  V30 2906 O 283.935 1.52071 -1.20781 0
M  V30 2907 C 281.065 2.44144 -2.47004 0
M  V30 2908 C 280.019 2.28643 -3.6181 0
M  V30 2909 C 279.345 3.65869 -3.89929 0
M  V30 2910 C 280.645 1.72986 -4.92822 0
M  V30 2911 H 282.339 0.724979 -2.9049 0
M  V30 2912 H 279.885 0.34729 -1.39749 0
M  V30 2913 H 281.838 3.15914 -2.78884 0
M  V30 2914 H 280.562 2.85639 -1.5836 0
M  V30 2915 H 279.221 1.59318 -3.30172 0
M  V30 2916 H 278.869 4.04885 -2.98458 0
M  V30 2917 H 278.569 3.56344 -4.67218 0
M  V30 2918 H 280.093 4.39112 -4.2428 0
M  V30 2919 H 281.507 2.34593 -5.23105 0
M  V30 2920 H 279.904 1.74229 -5.74251 0
M  V30 2921 H 280.974 0.689007 -4.7998 0
M  V30 2922 N 282.317 1.53212 0.369288 0
M  V30 2923 C 283.545 1.73119 1.13303 0
M  V30 2924 C 283.96 0.458455 1.83149 0
M  V30 2925 O 283.317 -0.568403 1.73423 0
M  V30 2926 C 283.368 2.89413 2.16616 0
M  V30 2927 O 283.089 4.11761 1.49614 0
M  V30 2928 C 284.59 3.21161 3.05566 0
M  V30 2929 H 281.81 0.579107 0.338934 0
M  V30 2930 H 284.354 1.99942 0.429338 0
M  V30 2931 H 282.509 2.64994 2.82589 0
M  V30 2932 H 282.923 4.76858 2.18419 0
M  V30 2933 H 284.397 4.05949 3.74045 0
M  V30 2934 H 284.874 2.36369 3.70171 0
M  V30 2935 H 285.48 3.47492 2.45213 0
M  V30 2936 N 283.795 -0.628877 1.44509 0
M  V30 2937 C 284.705 -1.7694 1.54044 0
M  V30 2938 C 285.721 -1.68705 0.425987 0
M  V30 2939 O 286.897 -1.89442 0.683656 0
M  V30 2940 C 283.962 -3.13332 1.48405 0
M  V30 2941 C 283.023 -3.33181 2.70719 0
M  V30 2942 C 282.256 -4.63067 2.6534 0
M  V30 2943 O 282.479 -5.44017 1.71469 0
M  V30 2944 O 281.413 -4.85167 3.56226 0
M  V30 2945 H 285.239 -1.71848 2.50403 0
M  V30 2946 H 282.824 -0.790378 1.26781 0
M  V30 2947 H 284.706 -3.94634 1.47791 0
M  V30 2948 H 283.381 -3.1896 0.551898 0
M  V30 2949 H 282.288 -2.51549 2.769 0
M  V30 2950 H 283.621 -3.32416 3.62988 0
M  V30 2951 N 285.273 -1.31445 -0.869486 0
M  V30 2952 C 286.501 -1.24122 -1.65534 0
M  V30 2953 C 286.916 0.193387 -1.87807 0
M  V30 2954 O 286.273 1.12557 -1.43656 0
M  V30 2955 C 286.324 -1.98229 -3.02304 0
M  V30 2956 O 286.045 -3.3609 -2.81026 0
M  V30 2957 C 287.546 -1.97751 -3.96749 0
M  V30 2958 H 284.766 -0.428868 -0.516055 0
M  V30 2959 H 287.31 -1.73328 -1.08525 0
M  V30 2960 H 285.465 -1.52782 -3.56001 0
M  V30 2961 H 285.879 -3.7383 -3.67902 0
M  V30 2962 H 287.353 -2.54114 -4.90031 0
M  V30 2963 H 287.83 -0.960137 -4.28577 0
M  V30 2964 H 288.436 -2.43079 -3.48988 0
M  V30 2965 N 286.751 1.08385 -1.14413 0
M  V30 2966 C 288 1.80153 -0.907076 0
M  V30 2967 C 288.313 1.87176 0.567851 0
M  V30 2968 O 289.519 2.55359 0.922172 0
M  V30 2969 C 287.975 3.23687 -1.57336 0
M  V30 2970 C 287.583 3.24897 -3.08457 0
M  V30 2971 C 289.327 4.00136 -1.41744 0
M  V30 2972 C 287.234 4.6302 -3.67921 0
M  V30 2973 H 286.164 0.675139 -0.335714 0
M  V30 2974 H 288.815 1.21733 -1.37307 0
M  V30 2975 H 287.197 3.82234 -1.03505 0
M  V30 2976 H 288.371 2.76055 -3.68958 0
M  V30 2977 H 286.686 2.61943 -3.2369 0
M  V30 2978 H 289.283 5.02201 -1.83572 0
M  V30 2979 H 289.626 4.14709 -0.363576 0
M  V30 2980 H 290.159 3.48058 -1.92614 0
M  V30 2981 H 286.898 4.5365 -4.73161 0
M  V30 2982 H 286.418 5.12143 -3.12201 0
M  V30 2983 H 288.097 5.31994 -3.68227 0
M  V30 2984 N 288.23 0.939286 1.26551 0
M  V30 2985 C 289.177 0.446088 2.26448 0
M  V30 2986 C 290.147 -0.493234 1.58608 0
M  V30 2987 O 291.332 -0.409857 1.86346 0
M  V30 2988 C 288.472 -0.284375 3.43926 0
M  V30 2989 C 287.585 0.690399 4.26448 0
M  V30 2990 C 286.72 -0.0610712 5.31165 0
M  V30 2991 C 285.759 0.905649 6.05363 0
M  V30 2992 N 284.896 0.186055 7.01853 0
M  V30 2993 H 289.736 1.30291 2.68008 0
M  V30 2994 H 287.273 0.65371 1.31776 0
M  V30 2995 H 289.231 -0.724313 4.10864 0
M  V30 2996 H 287.861 -1.10535 3.03285 0
M  V30 2997 H 286.913 1.24885 3.59316 0
M  V30 2998 H 288.225 1.42873 4.779 0
M  V30 2999 H 287.379 -0.56038 6.04106 0
M  V30 3000 H 286.118 -0.832297 4.80546 0
M  V30 3001 H 285.123 1.4161 5.3125 0
M  V30 3002 H 286.348 1.67685 6.58072 0
M  V30 3003 H 284.294 -0.566714 6.53548 0
M  V30 3004 H 284.211 0.863752 7.51049 0
M  V30 3005 H 285.479 -0.292221 7.78952 0
M  V30 3006 N 289.708 -1.40897 0.706093 0
M  V30 3007 C 290.936 -2.05373 0.250887 0
M  V30 3008 C 291.351 -1.53172 -1.10381 0
M  V30 3009 O 290.708 -0.684305 -1.69185 0
M  V30 3010 C 290.759 -3.6088 0.211571 0
M  V30 3011 O 290.48 -4.11153 1.51276 0
M  V30 3012 C 291.981 -4.42517 -0.263346 0
M  V30 3013 H 289.201 -0.66115 0.114552 0
M  V30 3014 H 291.745 -1.80479 0.961635 0
M  V30 3015 H 289.9 -3.84777 -0.450073 0
M  V30 3016 H 290.314 -5.05279 1.40689 0
M  V30 3017 H 291.788 -5.51479 -0.239718 0
M  V30 3018 H 292.265 -4.19396 -1.30397 0
M  V30 3019 H 292.871 -4.23708 0.367677 0
M  V30 3020 N 291.186 -0.45159 -1.50991 0
M  V30 3021 C 292.096 0.358431 -2.31846 0
M  V30 3022 C 293.112 1.01438 -1.41373 0
M  V30 3023 O 294.288 1.00663 -1.74439 0
M  V30 3024 C 291.353 1.43704 -3.15515 0
M  V30 3025 C 290.414 0.799742 -4.21785 0
M  V30 3026 C 289.647 1.82696 -5.01456 0
M  V30 3027 O 289.87 3.05105 -4.81941 0
M  V30 3028 O 288.804 1.40958 -5.85162 0
M  V30 3029 H 292.63 -0.302032 -3.02194 0
M  V30 3030 H 290.215 -0.213825 -1.47862 0
M  V30 3031 H 292.097 2.06227 -3.67489 0
M  V30 3032 H 290.772 2.08133 -2.47916 0
M  V30 3033 H 289.679 0.136084 -3.73852 0
M  V30 3034 H 291.012 0.198718 -4.91799 0
M  V30 3035 N 292.664 1.56529 -0.183458 0
M  V30 3036 C 293.574 2.22144 0.754272 0
M  V30 3037 C 294.59 1.21684 1.24374 0
M  V30 3038 O 295.766 1.54385 1.29333 0
M  V30 3039 C 292.831 2.85884 1.96141 0
M  V30 3040 C 291.892 4.01579 1.51765 0
M  V30 3041 C 291.125 4.6227 2.66725 0
M  V30 3042 O 291.348 4.21865 3.83909 0
M  V30 3043 O 290.282 5.51936 2.40104 0
M  V30 3044 H 294.108 3.02861 0.225527 0
M  V30 3045 H 291.693 1.49331 0.0453032 0
M  V30 3046 H 293.575 3.26253 2.66715 0
M  V30 3047 H 292.25 2.08154 2.47899 0
M  V30 3048 H 291.157 3.65856 0.781049 0
M  V30 3049 H 292.49 4.80938 1.04686 0
M  V30 3050 N 294.142 -0.090211 1.57342 0
M  V30 3051 C 295.072 -1.10976 2.05443 0
M  V30 3052 C 296.053 -1.41482 0.944284 0
M  V30 3053 O 297.238 -1.51428 1.21586 0
M  V30 3054 C 294.368 -2.42831 2.48295 0
M  V30 3055 C 293.322 -2.26721 3.63018 0
M  V30 3056 C 292.648 -3.63796 3.91863 0
M  V30 3057 C 293.948 -1.7037 4.93732 0
M  V30 3058 H 295.642 -0.709564 2.9087 0
M  V30 3059 H 293.188 -0.339874 1.39932 0
M  V30 3060 H 295.141 -3.14431 2.80555 0
M  V30 3061 H 293.865 -2.84795 1.59873 0
M  V30 3062 H 292.524 -1.57565 3.31012 0
M  V30 3063 H 292.172 -4.03297 3.00601 0
M  V30 3064 H 291.872 -3.53861 4.69101 0
M  V30 3065 H 293.396 -4.36855 4.26603 0
M  V30 3066 H 294.81 -2.31816 5.24342 0
M  V30 3067 H 293.207 -1.71181 5.75167 0
M  V30 3068 H 294.277 -0.663542 4.80339 0
M  V30 3069 N 295.62 -1.53406 -0.361157 0
M  V30 3070 C 296.55 -1.83136 -1.44857 0
M  V30 3071 C 297.531 -0.685174 -1.5569 0
M  V30 3072 O 298.716 -0.93544 -1.70186 0
M  V30 3073 C 295.846 -2.02522 -2.82138 0
M  V30 3074 C 294.8 -3.18302 -2.86126 0
M  V30 3075 C 294.126 -3.22989 -4.26125 0
M  V30 3076 C 295.426 -4.56796 -2.53248 0
M  V30 3077 H 297.12 -2.74201 -1.20226 0
M  V30 3078 H 294.666 -1.31938 -0.576922 0
M  V30 3079 H 296.619 -2.21904 -3.58241 0
M  V30 3080 H 295.343 -1.08172 -3.08166 0
M  V30 3081 H 294.002 -2.98747 -2.12475 0
M  V30 3082 H 293.65 -2.26267 -4.49235 0
M  V30 3083 H 293.35 -4.00781 -4.29708 0
M  V30 3084 H 294.874 -3.44559 -5.04094 0
M  V30 3085 H 296.288 -4.7631 -3.19064 0
M  V30 3086 H 294.685 -5.36862 -2.68141 0
M  V30 3087 H 295.755 -4.61606 -1.48484 0
M  V30 3088 N 297.098 0.621204 -1.44841 0
M  V30 3089 C 298.326 1.40752 -1.51646 0
M  V30 3090 C 298.741 1.88246 -0.144549 0
M  V30 3091 O 298.098 1.61422 0.851416 0
M  V30 3092 C 298.149 2.62119 -2.4895 0
M  V30 3093 O 297.87 2.16602 -3.80808 0
M  V30 3094 C 299.371 3.55135 -2.65319 0
M  V30 3095 H 296.591 0.431325 -0.514004 0
M  V30 3096 H 299.135 0.758835 -1.899 0
M  V30 3097 H 297.29 3.23058 -2.13805 0
M  V30 3098 H 297.704 2.95358 -4.33433 0
M  V30 3099 H 299.178 4.36874 -3.37409 0
M  V30 3100 H 299.655 4.04592 -1.70886 0
M  V30 3101 H 300.261 3.00058 -3.01405 0
M  V30 3102 N 298.576 1.31904 0.862503 0
M  V30 3103 C 299.506 1.22782 1.98612 0
M  V30 3104 C 300.487 0.113362 1.69722 0
M  V30 3105 O 301.672 0.299218 1.91881 0
M  V30 3106 C 298.802 0.942058 3.34279 0
M  V30 3107 C 297.756 2.0169 3.77499 0
M  V30 3108 C 297.082 1.58369 5.10709 0
M  V30 3109 C 298.382 3.43096 3.93805 0
M  V30 3110 H 300.076 2.16788 2.06502 0
M  V30 3111 H 297.622 1.04366 0.992154 0
M  V30 3112 H 299.575 0.864818 4.1243 0
M  V30 3113 H 298.299 -0.0336603 3.26583 0
M  V30 3114 H 296.958 2.08416 3.01593 0
M  V30 3115 H 296.606 0.595628 4.99461 0
M  V30 3116 H 296.306 2.30279 5.40597 0
M  V30 3117 H 297.83 1.52067 5.91361 0
M  V30 3118 H 299.244 3.39003 4.62331 0
M  V30 3119 H 297.641 4.13288 4.35101 0
M  V30 3120 H 298.711 3.83334 2.96957 0
M  V30 3121 N 300.054 -1.07777 1.14986 0
M  V30 3122 C 301.465 -1.61766 0.932127 0
M  V30 3123 C 301.816 -1.88974 -0.527581 0
M  V30 3124 O 300.941 -1.65198 -1.39781 0
M  V30 3125 C 301.536 -2.93891 1.68563 0
M  V30 3126 C 300.095 -3.44639 1.5133 0
M  V30 3127 C 299.242 -2.18767 1.704 0
M  V30 3128 H 302.193 -0.909201 1.30074 0
M  V30 3129 H 302.214 -3.62623 1.15259 0
M  V30 3130 H 301.726 -2.74057 2.74799 0
M  V30 3131 H 299.827 -3.69564 0.474702 0
M  V30 3132 H 299.94 -4.20966 2.28746 0
M  V30 3133 H 298.304 -2.28253 1.13016 0
M  V30 3134 H 299.087 -2.01433 2.77992 0
M  V30 3135 N 301.532 -0.945985 -1.26051 0
M  V30 3136 C 302.495 -0.463897 -2.24456 0
M  V30 3137 C 303.495 0.427655 -1.55009 0
M  V30 3138 O 304.685 0.226157 -1.72726 0
M  V30 3139 C 301.817 0.330812 -3.39291 0
M  V30 3140 H 303.01 -1.33357 -2.68619 0
M  V30 3141 H 300.563 -0.728416 -1.38289 0
M  V30 3142 H 301.298 1.21852 -3.00537 0
M  V30 3143 H 301.083 -0.308679 -3.90883 0
M  V30 3144 H 302.573 0.657865 -4.12386 0
M  V30 3145 N 303.011 1.40521 -0.713556 0
M  V30 3146 C 303.959 2.32549 -0.0485227 0
M  V30 3147 C 304.953 1.51931 0.74922 0
M  V30 3148 O 306.159 1.67745 0.652816 0
M  V30 3149 H 302.534 0.751994 0.00311138 0
M  V30 3150 H 304.505 2.86291 -0.841443 0
M  V30 3151 C 303.254 3.36879 0.860687 0
M  V30 3152 H 302.577 3.98978 0.256246 0
M  V30 3153 H 304.017 4.03772 1.294 0
M  V30 3154 C 302.476 2.72197 1.9852 0
M  V30 3155 O 303.006 2.5837 3.07584 0
M  V30 3156 N 301.212 2.30612 1.76823 0
M  V30 3157 H 300.759 2.42059 0.881217 0
M  V30 3158 H 300.717 1.87672 2.52243 0
M  V30 3159 N 304.489 0.459591 1.5075 0
M  V30 3160 C 305.399 -0.34613 2.32033 0
M  V30 3161 C 306.415 -1.00686 1.41909 0
M  V30 3162 O 307.591 -0.997361 1.7497 0
M  V30 3163 C 304.656 -1.42029 3.16273 0
M  V30 3164 C 303.717 -0.777362 4.22203 0
M  V30 3165 C 302.95 -1.80034 5.02418 0
M  V30 3166 O 303.173 -3.02544 4.83553 0
M  V30 3167 O 302.107 -1.37853 5.85901 0
M  V30 3168 H 305.933 0.318054 3.0203 0
M  V30 3169 H 303.518 0.221663 1.47746 0
M  V30 3170 H 305.4 -2.04275 3.68578 0
M  V30 3171 H 304.075 -2.06815 2.49016 0
M  V30 3172 H 302.982 -0.116256 3.73919 0
M  V30 3173 H 304.315 -0.172634 4.91897 0
M  V30 3174 N 305.967 -1.56429 0.191757 0
M  V30 3175 C 307.213 -1.97777 -0.448554 0
M  V30 3176 C 307.546 -1.07847 -1.61501 0
M  V30 3177 O 306.821 -0.129774 -1.94067 0
M  V30 3178 C 307.104 -3.48362 -0.911906 0
M  V30 3179 C 306.957 -4.4907 0.256136 0
M  V30 3180 C 308.276 -4.02561 -1.77857 0
M  V30 3181 H 305.395 -0.719071 -0.161572 0
M  V30 3182 H 308.037 -1.87896 0.282007 0
M  V30 3183 H 306.187 -3.56914 -1.53442 0
M  V30 3184 H 307.859 -4.5256 0.893733 0
M  V30 3185 H 306.102 -4.24181 0.908436 0
M  V30 3186 H 306.773 -5.51889 -0.11053 0
M  V30 3187 H 309.249 -3.96767 -1.25359 0
M  V30 3188 H 308.125 -5.08301 -2.07174 0
M  V30 3189 H 308.386 -3.47616 -2.73158 0
M  V30 3190 N 307.445 0.0818655 -1.57387 0
M  V30 3191 C 308.375 1.09885 -2.06028 0
M  V30 3192 C 309.356 1.4098 -0.951774 0
M  V30 3193 O 310.541 1.50781 -1.22387 0
M  V30 3194 C 307.671 2.4151 -2.4958 0
M  V30 3195 C 306.625 2.24792 -3.64215 0
M  V30 3196 C 305.951 3.61712 -3.93787 0
M  V30 3197 C 307.251 1.67749 -4.94629 0
M  V30 3198 H 308.945 0.694128 -2.91243 0
M  V30 3199 H 306.491 0.332448 -1.4011 0
M  V30 3200 H 308.444 3.12939 -2.82219 0
M  V30 3201 H 307.168 2.83943 -1.61381 0
M  V30 3202 H 305.827 1.55807 -3.31843 0
M  V30 3203 H 305.475 4.01697 -3.02735 0
M  V30 3204 H 305.175 3.51368 -4.70971 0
M  V30 3205 H 306.699 4.34587 -4.28913 0
M  V30 3206 H 308.113 2.29032 -5.25564 0
M  V30 3207 H 306.51 1.68128 -5.76067 0
M  V30 3208 H 307.58 0.638059 -4.80684 0
M  V30 3209 N 308.923 1.53595 0.353017 0
M  V30 3210 C 310.169 1.71581 1.09232 0
M  V30 3211 C 310.524 0.468328 1.86613 0
M  V30 3212 O 309.817 -0.538911 1.83865 0
M  V30 3213 C 310.011 2.91313 2.07054 0
M  V30 3214 C 309.84 4.27585 1.39287 0
M  V30 3215 C 308.61 4.92233 1.1417 0
M  V30 3216 C 310.808 5.07656 0.824005 0
M  V30 3217 N 308.79 6.124 0.428841 0
M  V30 3218 C 310.161 6.19531 0.241195 0
M  V30 3219 C 312.216 4.92609 0.723922 0
M  V30 3220 C 310.919 7.18002 -0.431952 0
M  V30 3221 C 312.945 5.91365 0.0645334 0
M  V30 3222 C 312.307 7.02571 -0.507347 0
M  V30 3223 H 308.406 0.680987 0.384422 0
M  V30 3224 H 310.99 1.91013 0.377096 0
M  V30 3225 H 309.161 2.73398 2.75877 0
M  V30 3226 H 310.893 2.98062 2.73753 0
M  V30 3227 H 307.648 4.51612 1.42631 0
M  V30 3228 H 308.072 6.76944 0.0874131 0
M  V30 3229 H 312.714 4.06808 1.15181 0
M  V30 3230 H 310.432 8.03384 -0.871758 0
M  V30 3231 H 314.018 5.81799 -0.0121469 0
M  V30 3232 H 312.898 7.77675 -1.0095 0
M  V30 3233 N 310.401 -0.613514 1.45168 0
M  V30 3234 C 311.817 -0.933629 1.29443 0
M  V30 3235 C 312.017 -2.00028 0.243101 0
M  V30 3236 O 311.073 -2.49848 -0.364992 0
M  V30 3237 C 312.386 -1.38018 2.67155 0
M  V30 3238 C 313.934 -1.49471 2.75004 0
M  V30 3239 C 314.409 -1.97503 4.13227 0
M  V30 3240 N 315.9 -2.04746 4.15491 0
M  V30 3241 C 316.635 -2.43121 5.19307 0
M  V30 3242 N 316.131 -2.80506 6.33473 0
M  V30 3243 N 317.924 -2.43408 5.06664 0
M  V30 3244 H 310.075 0.0916097 2.12202 0
M  V30 3245 H 312.338 -0.0216655 0.947752 0
M  V30 3246 H 312.044 -0.670625 3.45247 0
M  V30 3247 H 311.918 -2.34784 2.95222 0
M  V30 3248 H 314.305 -2.19519 1.9722 0
M  V30 3249 H 314.386 -0.510342 2.50657 0
M  V30 3250 H 314.03 -1.28045 4.91495 0
M  V30 3251 H 313.96 -2.96843 4.34962 0
M  V30 3252 H 316.451 -1.78468 3.33103 0
M  V30 3253 H 316.764 -3.08652 7.08487 0
M  V30 3254 H 315.109 -2.78216 6.36884 0
M  V30 3255 H 318.3 -2.13604 4.16523 0
M  V30 3256 H 318.473 -2.72989 5.87691 0
M  V30 3257 N 311.879 -1.3236 -0.855495 0
M  V30 3258 C 312.809 -1.23833 -1.97958 0
M  V30 3259 C 313.79 -0.122361 -1.69659 0
M  V30 3260 O 314.975 -0.30939 -1.9172 0
M  V30 3261 C 312.105 -0.959772 -3.33775 0
M  V30 3262 C 311.059 -2.03689 -3.76424 0
M  V30 3263 C 310.385 -1.61075 -5.09862 0
M  V30 3264 C 311.685 -3.4518 -3.9198 0
M  V30 3265 H 313.379 -2.1788 -2.0535 0
M  V30 3266 H 310.925 -1.04891 -0.986605 0
M  V30 3267 H 312.878 -0.886678 -4.11966 0
M  V30 3268 H 311.602 0.0163404 -3.26596 0
M  V30 3269 H 310.261 -2.10012 -3.00484 0
M  V30 3270 H 309.909 -0.622107 -4.99138 0
M  V30 3271 H 309.609 -2.33143 -5.39368 0
M  V30 3272 H 311.133 -1.55201 -5.90546 0
M  V30 3273 H 312.547 -3.4145 -4.60526 0
M  V30 3274 H 310.944 -4.1559 -4.32903 0
M  V30 3275 H 312.014 -3.84903 -2.94919 0
M  V30 3276 N 313.357 1.07166 -1.15556 0
M  V30 3277 C 314.587 1.83248 -0.954133 0
M  V30 3278 C 314.995 1.82449 0.500911 0
M  V30 3279 O 314.338 1.23575 1.35923 0
M  V30 3280 C 314.4 3.31393 -1.39351 0
M  V30 3281 C 314.064 3.5591 -2.86666 0
M  V30 3282 C 315.061 3.49695 -3.8472 0
M  V30 3283 C 312.746 3.83515 -3.24379 0
M  V30 3284 C 314.74 3.70737 -5.18491 0
M  V30 3285 C 312.427 4.04209 -4.58321 0
M  V30 3286 C 313.425 3.97815 -5.55186 0
M  V30 3287 O 313.113 4.17954 -6.86709 0
M  V30 3288 H 312.845 0.584941 -0.338851 0
M  V30 3289 H 315.399 1.36169 -1.53777 0
M  V30 3290 H 313.629 3.79292 -0.75329 0
M  V30 3291 H 315.318 3.88945 -1.16089 0
M  V30 3292 H 316.084 3.28368 -3.56931 0
M  V30 3293 H 311.963 3.87605 -2.49567 0
M  V30 3294 H 315.507 3.65663 -5.94085 0
M  V30 3295 H 311.404 4.25023 -4.85825 0
M  V30 3296 H 312.172 4.35291 -6.93155 0
M  V30 3297 N 314.835 0.952656 1.25548 0
M  V30 3298 C 315.785 0.442033 2.23674 0
M  V30 3299 C 316.769 -0.467632 1.53955 0
M  V30 3300 O 317.961 -0.301006 1.74422 0
M  V30 3301 C 315.09 -0.280816 3.4215 0
M  V30 3302 C 314.176 0.646803 4.19139 0
M  V30 3303 N 314.567 1.77759 4.73535 0
M  V30 3304 C 312.865 0.454617 4.43677 0
M  V30 3305 C 313.566 2.35658 5.31827 0
M  V30 3306 N 312.542 1.64333 5.18166 0
M  V30 3307 H 316.344 1.30505 2.63336 0
M  V30 3308 H 313.858 0.809904 1.40763 0
M  V30 3309 H 315.855 -0.663747 4.11582 0
M  V30 3310 H 314.515 -1.14046 3.04012 0
M  V30 3311 H 315.526 2.15949 4.7073 0
M  V30 3312 H 312.203 -0.362312 4.15925 0
M  V30 3313 H 313.593 3.30998 5.84713 0
M  V30 3314 N 316.313 -1.40141 0.720998 0
M  V30 3315 C 317.223 -2.34486 0.0731031 0
M  V30 3316 C 318.239 -1.57587 -0.737723 0
M  V30 3317 O 319.415 -1.89949 -0.669429 0
M  V30 3318 C 316.48 -3.36528 -0.833656 0
M  V30 3319 C 315.541 -4.29298 -0.0121673 0
M  V30 3320 C 314.774 -5.26466 -0.875742 0
M  V30 3321 O 314.997 -5.29745 -2.11485 0
M  V30 3322 O 313.931 -6.01092 -0.31185 0
M  V30 3323 H 317.757 -2.9152 0.851444 0
M  V30 3324 H 315.342 -1.41427 0.481527 0
M  V30 3325 H 317.224 -3.99093 -1.35289 0
M  V30 3326 H 315.899 -2.81899 -1.59105 0
M  V30 3327 H 314.806 -3.70001 0.552262 0
M  V30 3328 H 316.139 -4.87094 0.707129 0
M  V30 3329 N 317.792 -0.46758 -1.50504 0
M  V30 3330 C 318.702 0.33382 -2.32213 0
M  V30 3331 C 319.718 0.999323 -1.42441 0
M  V30 3332 O 320.894 0.988068 -1.75497 0
M  V30 3333 C 317.959 1.4035 -3.17022 0
M  V30 3334 C 317.02 0.754961 -4.2261 0
M  V30 3335 C 316.253 1.77367 -5.03365 0
M  V30 3336 O 316.476 2.99976 -4.8515 0
M  V30 3337 O 315.41 1.34744 -5.86624 0
M  V30 3338 H 319.236 -0.334067 -3.01857 0
M  V30 3339 H 316.821 -0.229496 -1.47627 0
M  V30 3340 H 318.703 2.02318 -3.69656 0
M  V30 3341 H 317.378 2.05492 -2.5011 0
M  V30 3342 H 316.285 0.0964244 -3.73976 0
M  V30 3343 H 317.618 0.146545 -4.91982 0
M  V30 3344 N 319.27 1.56325 -0.20005 0
M  V30 3345 C 320.18 2.22931 0.730668 0
M  V30 3346 C 321.196 1.22997 1.23076 0
M  V30 3347 O 322.372 1.55748 1.27689 0
M  V30 3348 C 319.437 2.87948 1.93098 0
M  V30 3349 C 318.498 4.03166 1.47497 0
M  V30 3350 C 317.731 4.65073 2.61807 0
M  V30 3351 O 317.954 4.25913 3.79413 0
M  V30 3352 O 316.888 5.54452 2.34237 0
M  V30 3353 H 320.714 3.03084 0.193391 0
M  V30 3354 H 318.299 1.49371 0.0294621 0
M  V30 3355 H 320.181 3.29063 2.6324 0
M  V30 3356 H 318.856 2.10771 2.45677 0
M  V30 3357 H 317.763 3.66664 0.742201 0
M  V30 3358 H 319.096 4.82022 0.995796 0
M  V30 3359 N 320.748 -0.0735177 1.57428 0
M  V30 3360 C 321.994 -0.774145 1.87443 0
M  V30 3361 C 322.327 -1.77311 0.792103 0
M  V30 3362 O 321.602 -1.93492 -0.197793 0
M  V30 3363 C 321.885 -1.48367 3.28115 0
M  V30 3364 C 321.738 -0.501227 4.46999 0
M  V30 3365 C 323.057 -2.429 3.66998 0
M  V30 3366 H 320.176 -0.279971 0.681752 0
M  V30 3367 H 322.818 -0.0373616 1.89963 0
M  V30 3368 H 320.968 -2.11171 3.26097 0
M  V30 3369 H 322.64 0.121468 4.6114 0
M  V30 3370 H 320.883 0.183593 4.33411 0
M  V30 3371 H 321.554 -1.03526 5.42205 0
M  V30 3372 H 324.03 -1.90175 3.70098 0
M  V30 3373 H 322.906 -2.89549 4.66318 0
M  V30 3374 H 323.167 -3.27628 2.96837 0
M  V30 3375 N 322.226 -1.5378 -0.344866 0
M  V30 3376 C 323.454 -1.74899 -1.10534 0
M  V30 3377 C 323.869 -0.487534 -1.82397 0
M  V30 3378 O 323.226 0.540741 -1.74305 0
M  V30 3379 C 323.277 -2.92822 -2.11984 0
M  V30 3380 O 322.998 -4.14089 -1.43044 0
M  V30 3381 C 324.499 -3.25982 -3.00417 0
M  V30 3382 H 321.719 -0.584426 -0.329678 0
M  V30 3383 H 324.263 -2.006 -0.397474 0
M  V30 3384 H 322.418 -2.69457 -2.78338 0
M  V30 3385 H 322.832 -4.80272 -2.10805 0
M  V30 3386 H 324.306 -4.11848 -3.67539 0
M  V30 3387 H 324.783 -2.42228 -3.66363 0
M  V30 3388 H 325.389 -3.51349 -2.39654 0
M  V30 3389 N 323.704 0.605807 -1.45491 0
M  V30 3390 C 324.95 1.36679 -1.49823 0
M  V30 3391 C 325.283 1.93693 -0.140175 0
M  V30 3392 O 324.558 1.75158 0.845581 0
M  V30 3393 C 324.841 2.51337 -2.57879 0
M  V30 3394 C 324.694 1.99508 -4.03134 0
M  V30 3395 C 326.013 3.53463 -2.62205 0
M  V30 3396 H 323.132 0.495617 -0.545466 0
M  V30 3397 H 325.774 0.682732 -1.7731 0
M  V30 3398 H 323.924 3.09691 -2.34571 0
M  V30 3399 H 325.596 1.45789 -4.37656 0
M  V30 3400 H 323.839 1.30496 -4.13707 0
M  V30 3401 H 324.51 2.82169 -4.74431 0
M  V30 3402 H 326.986 3.04953 -2.83095 0
M  V30 3403 H 325.862 4.31178 -3.39672 0
M  V30 3404 H 326.123 4.09197 -1.67363 0
M  V30 3405 N 325.182 1.32811 0.848464 0
M  V30 3406 C 326.412 1.26556 1.63301 0
M  V30 3407 C 326.82 -0.1676 1.88456 0
M  V30 3408 O 326.163 -1.11713 1.45828 0
M  V30 3409 C 326.225 1.96202 3.01239 0
M  V30 3410 C 325.889 3.45528 2.99098 0
M  V30 3411 C 326.886 4.40903 2.75501 0
M  V30 3412 C 324.571 3.87558 3.19537 0
M  V30 3413 C 326.565 5.76282 2.72356 0
M  V30 3414 C 324.252 5.23044 3.16019 0
M  V30 3415 C 325.25 6.17217 2.92458 0
M  V30 3416 O 324.938 7.50223 2.88825 0
M  V30 3417 H 324.67 0.43771 0.515156 0
M  V30 3418 H 327.224 1.7559 1.0657 0
M  V30 3419 H 325.454 1.41746 3.59785 0
M  V30 3420 H 327.143 1.83573 3.62016 0
M  V30 3421 H 327.909 4.09756 2.5947 0
M  V30 3422 H 323.788 3.14674 3.369 0
M  V30 3423 H 327.332 6.4976 2.53886 0
M  V30 3424 H 323.229 5.53818 3.31596 0
M  V30 3425 H 323.997 7.59657 3.04735 0
M  V30 3426 N 326.66 -1.06551 1.16123 0
M  V30 3427 C 327.937 -1.76097 0.85142 0
M  V30 3428 C 328.317 -2.00802 -0.6513 0
M  V30 3429 O 327.665 -1.63302 -1.59827 0
M  V30 3430 C 327.875 -3.06384 1.67122 0
M  V30 3431 C 329.223 -3.80585 1.88255 0
M  V30 3432 O 330.247 -3.16218 1.63966 0
M  V30 3433 O 329.106 -4.96212 2.2899 0
M  V30 3434 H 326.2 -0.765102 0.313923 0
M  V30 3435 H 328.746 -1.12844 1.26745 0
M  V30 3436 H 327.518 -2.84071 2.69108 0
M  V30 3437 H 327.141 -3.77371 1.25206 0
M  V30 3438 N 328.138 -0.959301 -1.25041 0
M  V30 3439 C 329.549 -0.65667 -1.74771 0
M  V30 3440 C 329.9 0.827852 -1.77879 0
M  V30 3441 O 329.025 1.64783 -1.40269 0
M  V30 3442 C 329.62 -1.1853 -3.1739 0
M  V30 3443 C 328.179 -0.932734 -3.6466 0
M  V30 3444 C 327.326 -1.32558 -2.43564 0
M  V30 3445 H 330.277 -1.13558 -1.10862 0
M  V30 3446 H 330.298 -0.547582 -3.76539 0
M  V30 3447 H 329.81 -2.26576 -3.15095 0
M  V30 3448 H 327.911 0.13257 -3.72364 0
M  V30 3449 H 328.024 -1.57248 -4.52559 0
M  V30 3450 H 326.388 -0.743956 -2.43593 0
M  V30 3451 H 327.171 -2.41537 -2.43957 0
M  V30 3452 N 329.616 1.39756 -0.72842 0
M  V30 3453 C 330.548 2.29157 -0.0446202 0
M  V30 3454 C 331.561 1.46484 0.710367 0
M  V30 3455 O 332.75 1.69632 0.55562 0
M  V30 3456 C 329.85 3.24987 0.961071 0
M  V30 3457 C 329.023 4.36572 0.268967 0
M  V30 3458 C 328.082 5.12756 1.18184 0
M  V30 3459 O 327.108 5.6534 0.661794 0
M  V30 3460 N 328.31 5.23331 2.51206 0
M  V30 3461 H 331.075 2.88482 -0.812295 0
M  V30 3462 H 328.636 1.51265 -0.577098 0
M  V30 3463 H 330.628 3.72827 1.57423 0
M  V30 3464 H 329.198 2.66739 1.63 0
M  V30 3465 H 328.418 3.90694 -0.524574 0
M  V30 3466 H 329.706 5.08363 -0.210934 0
M  V30 3467 H 329.104 4.82116 2.9594 0
M  V30 3468 H 327.661 5.74634 3.07634 0
M  V30 3469 N 331.094 0.475555 1.50254 0
M  V30 3470 C 332.371 -0.139685 1.95101 0
M  V30 3471 C 332.751 -1.56555 1.41611 0
M  V30 3472 O 332.099 -2.19956 0.618993 0
M  V30 3473 C 332.309 -0.0784298 3.48912 0
M  V30 3474 C 333.657 -0.265095 4.23772 0
M  V30 3475 O 334.681 -0.154808 3.55863 0
M  V30 3476 O 333.54 -0.488327 5.44314 0
M  V30 3477 H 330.634 -0.109236 0.819754 0
M  V30 3478 H 333.18 0.536276 1.61004 0
M  V30 3479 H 331.952 0.916918 3.80405 0
M  V30 3480 H 331.575 -0.795655 3.89558 0
M  V30 3481 N 332.573 -1.56217 0.208337 0
M  V30 3482 C 333.819 -1.98242 -0.427552 0
M  V30 3483 C 334.152 -1.09554 -1.60348 0
M  V30 3484 O 333.427 -0.15035 -1.93918 0
M  V30 3485 C 333.71 -3.4931 -0.874907 0
M  V30 3486 C 333.563 -4.48773 0.303751 0
M  V30 3487 C 334.882 -4.04424 -1.73577 0
M  V30 3488 H 332.001 -0.720744 -0.153936 0
M  V30 3489 H 334.643 -1.87586 0.30192 0
M  V30 3490 H 332.793 -3.58522 -1.49648 0
M  V30 3491 H 334.465 -4.51586 0.941682 0
M  V30 3492 H 332.708 -4.23194 0.953375 0
M  V30 3493 H 333.379 -5.51976 -0.0519883 0
M  V30 3494 H 335.855 -3.98075 -1.21143 0
M  V30 3495 H 334.731 -5.1047 -2.01771 0
M  V30 3496 H 334.992 -3.50494 -2.69456 0
M  V30 3497 N 334.051 0.0651679 -1.57465 0
M  V30 3498 C 334.961 1.09448 -2.07505 0
M  V30 3499 C 335.977 1.41974 -1.00595 0
M  V30 3500 O 337.153 1.52018 -1.32107 0
M  V30 3501 C 334.218 2.38689 -2.51453 0
M  V30 3502 C 333.279 2.13073 -3.72691 0
M  V30 3503 C 332.512 3.36152 -4.14533 0
M  V30 3504 O 332.735 4.45517 -3.56189 0
M  V30 3505 O 331.669 3.23974 -5.07272 0
M  V30 3506 H 335.495 0.69935 -2.95538 0
M  V30 3507 H 333.08 0.279752 -1.46757 0
M  V30 3508 H 334.962 3.14736 -2.80212 0
M  V30 3509 H 333.637 2.77568 -1.66546 0
M  V30 3510 H 332.544 1.34709 -3.49005 0
M  V30 3511 H 333.877 1.79071 -4.5847 0
M  V30 3512 N 335.529 1.53961 0.336706 0
M  V30 3513 C 336.776 1.71536 1.07618 0
M  V30 3514 C 337.104 0.482125 1.8843 0
M  V30 3515 O 336.359 -0.536142 1.88213 0
M  V30 3516 C 336.658 2.93493 2.03953 0
M  V30 3517 C 336.324 4.28811 1.39399 0
M  V30 3518 C 334.986 4.65602 1.21523 0
M  V30 3519 C 337.338 5.12844 0.929541 0
M  V30 3520 C 334.666 5.84037 0.558312 0
M  V30 3521 C 337.018 6.31951 0.286505 0
M  V30 3522 C 335.682 6.67432 0.0954869 0
M  V30 3523 H 334.952 0.627696 0.393801 0
M  V30 3524 H 337.599 1.88186 0.354715 0
M  V30 3525 H 335.904 2.71475 2.82504 0
M  V30 3526 H 337.601 3.04285 2.61174 0
M  V30 3527 H 334.191 3.99858 1.54311 0
M  V30 3528 H 338.375 4.84947 1.05548 0
M  V30 3529 H 333.631 6.10097 0.398995 0
M  V30 3530 H 337.805 6.96352 -0.0814376 0
M  V30 3531 H 335.432 7.59063 -0.415579 0
M  V30 3532 N 337.007 -0.598083 1.45811 0
M  V30 3533 C 337.954 -1.7082 1.55207 0
M  V30 3534 C 338.924 -1.61278 0.39732 0
M  V30 3535 O 340.109 -1.80717 0.612038 0
M  V30 3536 C 337.249 -3.09144 1.53376 0
M  V30 3537 C 336.362 -3.29423 2.79472 0
M  V30 3538 C 335.497 -4.57907 2.69248 0
M  V30 3539 C 334.536 -4.71476 3.90354 0
M  V30 3540 N 333.673 -5.9127 3.78608 0
M  V30 3541 H 338.513 -1.62125 2.50039 0
M  V30 3542 H 336.05 -0.790389 1.24062 0
M  V30 3543 H 338.008 -3.89186 1.50301 0
M  V30 3544 H 336.638 -3.16773 0.620876 0
M  V30 3545 H 335.69 -2.43091 2.92594 0
M  V30 3546 H 337.002 -3.3532 3.69272 0
M  V30 3547 H 336.156 -5.46157 2.64192 0
M  V30 3548 H 334.895 -4.54423 1.77063 0
M  V30 3549 H 333.9 -3.81648 3.95759 0
M  V30 3550 H 335.125 -4.76751 4.83617 0
M  V30 3551 H 333.071 -5.88813 2.89199 0
M  V30 3552 H 332.988 -5.98369 4.6205 0
M  V30 3553 H 334.256 -6.81992 3.77501 0
M  V30 3554 N 338.485 -1.33259 -0.841409 0
M  V30 3555 C 339.725 -1.25902 -1.61022 0
M  V30 3556 C 340.089 0.173325 -1.91216 0
M  V30 3557 O 341.29 0.370824 -2.6623 0
M  V30 3558 C 339.561 -2.10735 -2.88662 0
M  V30 3559 S 341.12 -2.20541 -3.79351 0
M  V30 3560 H 337.938 -0.447958 -0.552137 0
M  V30 3561 H 340.54 -1.68263 -0.995382 0
M  V30 3562 H 339.244 -3.1384 -2.64448 0
M  V30 3563 H 338.775 -1.69201 -3.55154 0
M  V30 3564 H 340.79 -1.36462 -4.77067 0
M  V30 3565 N 339.963 1.05934 -1.16686 0
M  V30 3566 C 341.191 1.8249 -0.974929 0
M  V30 3567 C 341.606 1.82679 0.476861 0
M  V30 3568 O 340.963 1.2486 1.33103 0
M  V30 3569 C 341.014 3.28943 -1.49929 0
M  V30 3570 O 340.735 3.28886 -2.89423 0
M  V30 3571 C 342.236 4.22215 -1.35089 0
M  V30 3572 H 339.456 0.575295 -0.345365 0
M  V30 3573 H 342 1.33631 -1.548 0
M  V30 3574 H 340.155 3.751 -0.968423 0
M  V30 3575 H 340.569 4.20493 -3.13506 0
M  V30 3576 H 342.043 5.22987 -1.76603 0
M  V30 3577 H 342.52 4.38195 -0.296935 0
M  V30 3578 H 343.126 3.81907 -1.87155 0
M  V30 3579 N 341.441 0.965919 1.2453 0
M  V30 3580 C 342.681 0.634656 1.94297 0
M  V30 3581 C 343.045 -0.814822 1.73852 0
M  V30 3582 O 344.246 -1.25622 2.3764 0
M  V30 3583 C 342.517 0.99702 3.43212 0
M  V30 3584 S 344.076 0.780038 4.31811 0
M  V30 3585 H 340.894 0.232893 0.671775 0
M  V30 3586 H 343.496 1.24249 1.50938 0
M  V30 3587 H 342.2 2.04886 3.55598 0
M  V30 3588 H 341.731 0.379888 3.91562 0
M  V30 3589 H 343.746 -0.343512 4.9501 0
M  V30 3590 N 342.919 -1.39368 0.735821 0
M  V30 3591 C 344.144 -2.05319 0.293052 0
M  V30 3592 C 344.569 -1.55115 -1.064 0
M  V30 3593 O 343.927 -0.695261 -1.67439 0
M  V30 3594 C 343.975 -3.59305 0.305323 0
M  V30 3595 O 343.079 -4.06299 -0.706761 0
M  V30 3596 H 342.42 -0.650529 0.13307 0
M  V30 3597 H 344.95 -1.78386 1.00197 0
M  V30 3598 H 344.96 -4.07724 0.149997 0
M  V30 3599 H 343.635 -3.95207 1.29553 0
M  V30 3600 H 342.212 -3.69292 -0.517504 0
M  V30 3601 N 344.397 -0.483516 -1.5 0
M  V30 3602 C 345.813 -0.138404 -1.58999 0
M  V30 3603 C 346.013 1.35597 -1.4905 0
M  V30 3604 O 345.069 2.13039 -1.35539 0
M  V30 3605 C 346.382 -0.699658 -2.92447 0
M  V30 3606 C 347.93 -0.664195 -3.05872 0
M  V30 3607 C 348.405 -1.20321 -4.41913 0
M  V30 3608 N 349.896 -1.16315 -4.48358 0
M  V30 3609 C 350.631 -1.55058 -5.52037 0
M  V30 3610 N 350.127 -2.01311 -6.62907 0
M  V30 3611 N 351.92 -1.46584 -5.42651 0
M  V30 3612 H 344.071 -1.45529 -1.5471 0
M  V30 3613 H 346.334 -0.60258 -0.731848 0
M  V30 3614 H 346.04 -1.747 -3.05242 0
M  V30 3615 H 345.914 -0.150194 -3.76901 0
M  V30 3616 H 348.301 0.374272 -2.92717 0
M  V30 3617 H 348.382 -1.25061 -2.23144 0
M  V30 3618 H 348.026 -2.24037 -4.55818 0
M  V30 3619 H 347.956 -0.592896 -5.23252 0
M  V30 3620 H 350.447 -0.824058 -3.68806 0
M  V30 3621 H 350.76 -2.2899 -7.38095 0
M  V30 3622 H 349.105 -2.05273 -6.63994 0
M  V30 3623 H 352.296 -1.10281 -4.54924 0
M  V30 3624 H 352.469 -1.77103 -6.23329 0
M  V30 3625 N 345.875 1.56104 -0.216619 0
M  V30 3626 C 346.785 2.23694 0.706982 0
M  V30 3627 C 347.801 1.24295 1.21765 0
M  V30 3628 O 348.977 1.57094 1.2603 0
M  V30 3629 C 346.042 2.8998 1.90033 0
M  V30 3630 C 345.103 4.04708 1.43213 0
M  V30 3631 C 344.336 4.67824 2.56859 0
M  V30 3632 O 344.559 4.29913 3.74874 0
M  V30 3633 O 343.493 5.56905 2.28343 0
M  V30 3634 H 347.319 3.03272 0.161235 0
M  V30 3635 H 344.904 1.49394 0.0136177 0
M  V30 3636 H 346.786 3.31837 2.59735 0
M  V30 3637 H 345.461 2.13365 2.43428 0
M  V30 3638 H 344.368 3.6743 0.70327 0
M  V30 3639 H 345.701 4.83051 0.944615 0
M  V30 3640 N 347.353 -0.0568162 1.57498 0
M  V30 3641 C 348.769 -0.411933 1.54192 0
M  V30 3642 C 348.969 -1.78287 0.938942 0
M  V30 3643 O 348.025 -2.46483 0.547919 0
M  V30 3644 C 349.338 -0.339244 2.9878 0
M  V30 3645 C 350.886 -0.418348 3.10192 0
M  V30 3646 C 351.361 -0.375407 4.56459 0
M  V30 3647 N 352.852 -0.435038 4.61153 0
M  V30 3648 C 353.587 -0.424265 5.71828 0
M  V30 3649 N 353.083 -0.367418 6.91825 0
M  V30 3650 N 354.876 -0.471938 5.60115 0
M  V30 3651 H 347.027 0.840684 1.95055 0
M  V30 3652 H 349.29 0.316987 0.893433 0
M  V30 3653 H 348.996 0.601742 3.46514 0
M  V30 3654 H 348.87 -1.14371 3.59443 0
M  V30 3655 H 351.257 -1.34976 2.62422 0
M  V30 3656 H 351.338 0.414962 2.52412 0
M  V30 3657 H 350.982 0.552219 5.04889 0
M  V30 3658 H 350.912 -1.22645 5.12119 0
M  V30 3659 H 353.403 -0.482612 3.74806 0
M  V30 3660 H 353.716 -0.363535 7.71944 0
M  V30 3661 H 352.061 -0.333879 6.94198 0
M  V30 3662 H 355.252 -0.514145 4.65268 0
M  V30 3663 H 355.425 -0.460073 6.46365 0
M  V30 3664 N 348.832 -1.54138 -0.328536 0
M  V30 3665 C 350.072 -1.73827 -1.07534 0
M  V30 3666 C 350.436 -0.498777 -1.85408 0
M  V30 3667 O 351.637 -0.572937 -2.62623 0
M  V30 3668 C 349.908 -2.97573 -1.97952 0
M  V30 3669 S 351.467 -3.38143 -2.79652 0
M  V30 3670 H 348.285 -0.611287 -0.36311 0
M  V30 3671 H 350.887 -1.92306 -0.351931 0
M  V30 3672 H 349.591 -3.85939 -1.39569 0
M  V30 3673 H 349.122 -2.81603 -2.74706 0
M  V30 3674 H 351.137 -2.93052 -4.00418 0
M  V30 3675 N 350.31 0.590341 -1.46126 0
M  V30 3676 C 351.273 1.68194 -1.55703 0
M  V30 3677 C 352.273 1.54808 -0.434868 0
M  V30 3678 O 353.463 1.59564 -0.698928 0
M  V30 3679 C 350.595 3.07575 -1.47005 0
M  V30 3680 H 351.788 1.61064 -2.52979 0
M  V30 3681 H 349.341 0.807541 -1.33823 0
M  V30 3682 H 350.076 3.20268 -0.509785 0
M  V30 3683 H 349.861 3.187 -2.28414 0
M  V30 3684 H 351.351 3.87055 -1.56776 0
M  V30 3685 N 351.788 1.33704 0.83433 0
M  V30 3686 C 353.065 1.16011 1.57483 0
M  V30 3687 C 353.445 -0.27176 2.09343 0
M  V30 3688 O 352.793 -1.27146 1.89858 0
M  V30 3689 C 353.003 2.20507 2.70514 0
M  V30 3690 C 354.351 2.54898 3.39577 0
M  V30 3691 O 355.375 2.19209 2.80759 0
M  V30 3692 O 354.234 3.16158 4.45765 0
M  V30 3693 H 351.328 0.448992 0.694503 0
M  V30 3694 H 353.874 1.453 0.876691 0
M  V30 3695 H 352.646 3.16667 2.29865 0
M  V30 3696 H 352.269 1.92329 3.47987 0
M  V30 3697 N 353.266 -1.05314 1.17247 0
M  V30 3698 C 354.229 -2.112 0.890357 0
M  V30 3699 C 355.229 -1.60359 -0.118943 0
M  V30 3700 O 356.419 -1.73833 0.113086 0
M  V30 3701 C 353.551 -3.39266 0.333422 0
M  V30 3702 H 354.744 -2.37659 1.82916 0
M  V30 3703 H 352.297 -1.21538 0.982758 0
M  V30 3704 H 353.032 -3.18462 -0.612587 0
M  V30 3705 H 352.817 -3.77477 1.06082 0
M  V30 3706 H 354.307 -4.17315 0.154322 0
M  V30 3707 N 354.744 -0.972509 -1.24016 0
M  V30 3708 C 355.674 -0.525548 -2.27509 0
M  V30 3709 C 356.655 0.437262 -1.64384 0
M  V30 3710 O 357.84 0.332343 -1.91335 0
M  V30 3711 C 354.97 0.180448 -3.46831 0
M  V30 3712 C 353.924 -0.698859 -4.22256 0
M  V30 3713 C 353.25 0.138903 -5.3452 0
M  V30 3714 C 354.55 -1.98582 -4.83076 0
M  V30 3715 H 356.244 -1.39058 -2.65148 0
M  V30 3716 H 353.79 -0.67009 -1.27459 0
M  V30 3717 H 355.743 0.504387 -4.18371 0
M  V30 3718 H 354.467 1.07987 -3.08231 0
M  V30 3719 H 353.126 -1.00614 -3.52523 0
M  V30 3720 H 352.774 1.03862 -4.9216 0
M  V30 3721 H 352.474 -0.446259 -5.85903 0
M  V30 3722 H 353.998 0.457404 -6.08884 0
M  V30 3723 H 355.412 -1.72715 -5.46665 0
M  V30 3724 H 353.809 -2.5181 -5.44713 0
M  V30 3725 H 354.879 -2.67769 -4.04262 0
M  V30 3726 N 356.222 1.38976 -0.743202 0
M  V30 3727 C 357.169 2.30544 -0.10861 0
M  V30 3728 C 358.139 1.49642 0.720869 0
M  V30 3729 O 359.324 1.78304 0.679142 0
M  V30 3730 C 356.464 3.36018 0.786496 0
M  V30 3731 C 355.577 4.31963 -0.0564849 0
M  V30 3732 C 354.712 5.24506 0.840657 0
M  V30 3733 C 353.751 6.121 -0.00658363 0
M  V30 3734 N 352.888 6.96973 0.846943 0
M  V30 3735 H 357.728 2.8424 -0.895088 0
M  V30 3736 H 355.265 1.3995 -0.453048 0
M  V30 3737 H 357.223 3.95768 1.31999 0
M  V30 3738 H 355.853 2.83758 1.53887 0
M  V30 3739 H 354.905 3.73763 -0.707492 0
M  V30 3740 H 356.217 4.93703 -0.711229 0
M  V30 3741 H 355.371 5.89322 1.4417 0
M  V30 3742 H 354.11 4.63107 1.52916 0
M  V30 3743 H 353.115 5.46289 -0.620366 0
M  V30 3744 H 354.34 6.75565 -0.691992 0
M  V30 3745 H 352.286 6.38133 1.52059 0
M  V30 3746 H 352.203 7.5559 0.248864 0
M  V30 3747 H 353.471 7.6621 1.43328 0
M  V30 3748 N 357.7 0.491464 1.49741 0
M  V30 3749 C 358.928 -0.0535151 2.06831 0
M  V30 3750 C 359.343 -1.31683 1.35296 0
M  V30 3751 O 358.7 -1.77402 0.42836 0
M  V30 3752 C 358.751 -0.320835 3.60073 0
M  V30 3753 O 358.472 0.892394 4.28915 0
M  V30 3754 C 359.973 -0.910519 4.33848 0
M  V30 3755 H 357.193 0.0161909 0.670805 0
M  V30 3756 H 359.737 0.68609 1.92647 0
M  V30 3757 H 357.892 -1.0104 3.73991 0
M  V30 3758 H 358.306 0.649401 5.20464 0
M  V30 3759 H 359.78 -1.04721 5.41976 0
M  V30 3760 H 360.257 -1.90589 3.95692 0
M  V30 3761 H 360.863 -0.258712 4.24512 0
M  V30 3762 N 359.178 -1.55987 0.224894 0
M  V30 3763 C 360.108 -2.23426 -0.678457 0
M  V30 3764 C 361.089 -1.20709 -1.19847 0
M  V30 3765 O 362.274 -1.49304 -1.24186 0
M  V30 3766 C 359.404 -2.91676 -1.88527 0
M  V30 3767 C 358.358 -4.00893 -1.49896 0
M  V30 3768 C 357.684 -4.56455 -2.78483 0
M  V30 3769 C 358.984 -5.17769 -0.686461 0
M  V30 3770 H 360.678 -2.99175 -0.116173 0
M  V30 3771 H 358.224 -1.43897 -0.054436 0
M  V30 3772 H 360.177 -3.37547 -2.5227 0
M  V30 3773 H 358.901 -2.1338 -2.47258 0
M  V30 3774 H 357.56 -3.55758 -0.884985 0
M  V30 3775 H 357.208 -3.74886 -3.35365 0
M  V30 3776 H 356.908 -5.30169 -2.53368 0
M  V30 3777 H 358.432 -5.05047 -3.43162 0
M  V30 3778 H 359.846 -5.60001 -1.22767 0
M  V30 3779 H 358.243 -5.97735 -0.532259 0
M  V30 3780 H 359.313 -4.83932 0.306196 0
M  V30 3781 N 360.656 0.0484629 -1.57525 0
M  V30 3782 C 362.067 0.597486 -1.76881 0
M  V30 3783 C 362.418 1.76664 -0.853475 0
M  V30 3784 O 361.543 2.16357 -0.0433656 0
M  V30 3785 C 362.138 1.09066 -3.20765 0
M  V30 3786 C 360.697 1.58535 -3.41385 0
M  V30 3787 C 359.844 0.514868 -2.72478 0
M  V30 3788 H 362.795 -0.177758 -1.57701 0
M  V30 3789 H 362.816 1.95875 -3.2621 0
M  V30 3790 H 362.328 0.239521 -3.8736 0
M  V30 3791 H 360.429 2.45898 -2.79937 0
M  V30 3792 H 360.542 1.64622 -4.49929 0
M  V30 3793 H 358.906 0.965407 -2.35695 0
M  V30 3794 H 359.689 -0.32648 -3.41744 0
M  V30 3795 N 362.134 1.5431 0.320358 0
M  V30 3796 C 363.411 1.63322 1.07635 0
M  V30 3797 C 363.791 0.46912 2.05821 0
M  V30 3798 O 363.139 -0.536274 2.22118 0
M  V30 3799 C 363.349 3.00465 1.77544 0
M  V30 3800 C 364.697 3.56621 2.30449 0
M  V30 3801 O 365.721 3.02791 1.87606 0
M  V30 3802 O 364.58 4.5083 3.08892 0
M  V30 3803 H 361.674 0.661502 0.496331 0
M  V30 3804 H 364.22 1.66656 0.319992 0
M  V30 3805 H 362.992 3.76629 1.06143 0
M  V30 3806 H 362.615 3.00824 2.59982 0
M  V30 3807 N 363.613 -0.582584 1.46437 0
M  V30 3808 C 364.523 -1.71949 1.59595 0
M  V30 3809 C 365.539 -1.67264 0.479443 0
M  V30 3810 O 366.715 -1.87171 0.743579 0
M  V30 3811 C 363.78 -3.08452 1.58298 0
M  V30 3812 C 362.841 -3.244 2.81182 0
M  V30 3813 C 362.074 -4.54391 2.79937 0
M  V30 3814 O 362.297 -5.38287 1.8869 0
M  V30 3815 O 361.231 -4.73588 3.71481 0
M  V30 3816 H 365.057 -1.63795 2.55744 0
M  V30 3817 H 362.642 -0.749643 1.29231 0
M  V30 3818 H 364.524 -3.89732 1.60271 0
M  V30 3819 H 363.199 -3.17043 0.653094 0
M  V30 3820 H 362.106 -2.42613 2.84763 0
M  V30 3821 H 363.439 -3.20699 3.7338 0
M  V30 3822 N 365.091 -1.34144 -0.827227 0
M  V30 3823 C 366.001 -1.27428 -1.96975 0
M  V30 3824 C 367.017 -0.182728 -1.73038 0
M  V30 3825 O 368.193 -0.408426 -1.97215 0
M  V30 3826 C 365.258 -1.02526 -3.31194 0
M  V30 3827 C 364.319 -2.20796 -3.68168 0
M  V30 3828 C 363.552 -1.97073 -4.95982 0
M  V30 3829 O 363.775 -0.926822 -5.6282 0
M  V30 3830 O 362.709 -2.83912 -5.30733 0
M  V30 3831 H 366.535 -2.23537 -2.05584 0
M  V30 3832 H 364.12 -1.14307 -0.961989 0
M  V30 3833 H 366.002 -0.904026 -4.11589 0
M  V30 3834 H 364.677 -0.0945389 -3.23562 0
M  V30 3835 H 363.584 -2.38477 -2.88235 0
M  V30 3836 H 364.917 -3.12243 -3.8048 0
M  V30 3837 N 366.569 1.04691 -1.17803 0
M  V30 3838 C 367.815 1.78045 -0.970969 0
M  V30 3839 C 368.148 1.87686 0.498751 0
M  V30 3840 O 367.423 1.38035 1.37027 0
M  V30 3841 C 367.706 3.2166 -1.61884 0
M  V30 3842 C 367.559 3.20001 -3.161 0
M  V30 3843 C 368.878 4.1962 -1.3269 0
M  V30 3844 H 365.997 0.64633 -0.354155 0
M  V30 3845 H 368.639 1.22333 -1.45378 0
M  V30 3846 H 366.789 3.69232 -1.20831 0
M  V30 3847 H 368.461 2.80467 -3.66246 0
M  V30 3848 H 366.704 2.58203 -3.48588 0
M  V30 3849 H 367.375 4.21386 -3.56564 0
M  V30 3850 H 369.851 3.80567 -1.68249 0
M  V30 3851 H 368.727 5.18339 -1.80599 0
M  V30 3852 H 368.988 4.414 -0.248622 0
M  V30 3853 N 368.047 0.979072 1.23499 0
M  V30 3854 C 369.324 0.563674 1.87302 0
M  V30 3855 C 369.704 -0.959199 1.88049 0
M  V30 3856 O 369.052 -1.83535 1.36114 0
M  V30 3857 C 369.262 1.16822 3.28867 0
M  V30 3858 C 370.61 1.26014 4.0547 0
M  V30 3859 O 371.634 1.12158 3.38082 0
M  V30 3860 O 370.493 1.48044 5.26066 0
M  V30 3861 H 367.587 0.189602 0.804972 0
M  V30 3862 H 370.133 1.07407 1.31384 0
M  V30 3863 H 368.905 2.21049 3.22883 0
M  V30 3864 H 368.528 0.642564 3.92373 0
M  V30 3865 N 369.525 -1.3858 0.750561 0
M  V30 3866 C 370.75 -2.04997 0.314812 0
M  V30 3867 C 371.175 -1.56235 -1.04749 0
M  V30 3868 O 370.533 -0.712981 -1.66692 0
M  V30 3869 C 370.581 -3.58961 0.343415 0
M  V30 3870 O 369.685 -4.07025 -0.663628 0
M  V30 3871 H 369.026 -0.649081 0.139962 0
M  V30 3872 H 371.556 -1.77313 1.02084 0
M  V30 3873 H 371.566 -4.07542 0.193233 0
M  V30 3874 H 370.241 -3.93811 1.33738 0
M  V30 3875 H 368.818 -3.6982 -0.478307 0
M  V30 3876 N 371.003 -0.499398 -1.49478 0
M  V30 3877 C 372.252 0.0475259 -2.01644 0
M  V30 3878 C 372.565 1.38195 -1.38425 0
M  V30 3879 O 373.771 2.01547 -1.8191 0
M  V30 3880 C 372.227 0.135164 -3.59646 0
M  V30 3881 C 371.835 -1.19252 -4.31837 0
M  V30 3882 C 373.579 0.632538 -4.19761 0
M  V30 3883 C 371.486 -1.06713 -5.81693 0
M  V30 3884 H 370.416 0.0215349 -0.753692 0
M  V30 3885 H 373.067 -0.638577 -1.7203 0
M  V30 3886 H 371.449 0.885681 -3.85969 0
M  V30 3887 H 372.623 -1.9562 -4.17216 0
M  V30 3888 H 370.938 -1.62321 -3.83459 0
M  V30 3889 H 373.535 0.743833 -5.29501 0
M  V30 3890 H 373.878 1.63098 -3.83021 0
M  V30 3891 H 374.411 -0.0613987 -3.97753 0
M  V30 3892 H 371.15 -2.03979 -6.22955 0
M  V30 3893 H 370.67 -0.344307 -5.98811 0
M  V30 3894 H 372.349 -0.745208 -6.42694 0
M  V30 3895 N 372.481 1.55866 -0.233164 0
M  V30 3896 C 373.411 2.23783 0.666599 0
M  V30 3897 C 374.392 1.21343 1.19205 0
M  V30 3898 O 375.577 1.4996 1.23392 0
M  V30 3899 C 372.707 2.92671 1.86978 0
M  V30 3900 C 371.661 4.01682 1.47768 0
M  V30 3901 C 370.987 4.57926 2.76058 0
M  V30 3902 C 372.287 5.18126 0.658993 0
M  V30 3903 H 373.981 2.99232 0.100306 0
M  V30 3904 H 371.527 1.43924 0.046804 0
M  V30 3905 H 373.48 3.3888 2.50476 0
M  V30 3906 H 372.204 2.14688 2.46123 0
M  V30 3907 H 370.863 3.56222 0.866106 0
M  V30 3908 H 370.511 3.76659 3.33372 0
M  V30 3909 H 370.211 5.31505 2.50552 0
M  V30 3910 H 371.735 5.06859 3.40479 0
M  V30 3911 H 373.149 5.60644 1.19795 0
M  V30 3912 H 371.546 5.98009 0.500552 0
M  V30 3913 H 372.616 4.83763 -0.331856 0
M  V30 3914 N 373.959 -0.0401083 1.57549 0
M  V30 3915 C 374.922 -1.02871 2.04817 0
M  V30 3916 C 375.922 -1.29708 0.950388 0
M  V30 3917 O 377.112 -1.24897 1.21435 0
M  V30 3918 C 374.244 -2.36443 2.45576 0
M  V30 3919 H 375.437 -0.620631 2.93408 0
M  V30 3920 H 372.99 -0.286667 1.53649 0
M  V30 3921 H 373.725 -2.82021 1.60108 0
M  V30 3922 H 373.51 -2.18296 3.25713 0
M  V30 3923 H 375 -3.07441 2.82612 0
M  V30 3924 N 375.437 -1.54477 -0.31217 0
M  V30 3925 C 376.347 -1.87695 -1.4074 0
M  V30 3926 C 377.363 -0.769975 -1.56036 0
M  V30 3927 O 378.539 -1.06537 -1.70915 0
M  V30 3928 C 375.604 -2.10755 -2.75287 0
M  V30 3929 C 374.665 -3.34514 -2.69071 0
M  V30 3930 C 373.898 -3.56465 -3.97201 0
M  V30 3931 O 374.121 -2.81637 -4.96021 0
M  V30 3932 O 373.055 -4.49964 -3.9977 0
M  V30 3933 H 376.881 -2.80849 -1.15574 0
M  V30 3934 H 374.466 -1.40526 -0.507228 0
M  V30 3935 H 376.348 -2.27188 -3.54913 0
M  V30 3936 H 375.023 -1.20788 -3.0032 0
M  V30 3937 H 373.93 -3.23456 -1.87955 0
M  V30 3938 H 375.263 -4.24575 -2.48992 0
M  V30 3939 N 376.915 0.57481 -1.46744 0
M  V30 3940 C 378.192 1.3352 -1.4294 0
M  V30 3941 C 378.572 2.10775 -0.117009 0
M  V30 3942 O 377.92 2.09966 0.901474 0
M  V30 3943 C 378.13 2.25456 -2.66403 0
M  V30 3944 C 379.478 2.87035 -3.12883 0
M  V30 3945 O 380.502 2.35766 -2.67007 0
M  V30 3946 O 379.361 3.80179 -3.92589 0
M  V30 3947 H 376.455 0.600318 -0.568812 0
M  V30 3948 H 379.001 0.595171 -1.58921 0
M  V30 3949 H 377.773 1.67851 -3.53471 0
M  V30 3950 H 377.396 3.06785 -2.52921 0
M  V30 3951 N 378.394 1.34581 0.820102 0
M  V30 3952 C 379.642 1.26845 1.57336 0
M  V30 3953 C 379.963 -0.160667 1.94337 0
M  V30 3954 O 379.233 -1.09396 1.6251 0
M  V30 3955 H 377.813 0.466514 0.583415 0
M  V30 3956 H 380.475 1.68526 0.979027 0
M  V30 3957 H 379.571 1.87513 2.4949 0
M  V30 3958 N 379.872 -1.04064 1.18357 0
M  V30 3959 C 380.782 -2.15569 0.925596 0
M  V30 3960 C 381.798 -1.7365 -0.110295 0
M  V30 3961 O 382.974 -2.01273 0.0716218 0
M  V30 3962 C 380.039 -3.43704 0.454836 0
M  V30 3963 C 379.1 -4.00004 1.55869 0
M  V30 3964 C 378.333 -5.22023 1.1103 0
M  V30 3965 O 378.556 -5.70392 -0.0309756 0
M  V30 3966 O 377.49 -5.70856 1.90805 0
M  V30 3967 H 381.316 -2.40187 1.8586 0
M  V30 3968 H 378.901 -1.1402 0.965394 0
M  V30 3969 H 380.783 -4.20923 0.200382 0
M  V30 3970 H 379.458 -3.20559 -0.449876 0
M  V30 3971 H 378.365 -3.24172 1.86716 0
M  V30 3972 H 379.698 -4.2749 2.43953 0
M  V30 3973 N 381.35 -0.985608 -1.22978 0
M  V30 3974 C 382.599 -0.652881 -1.90841 0
M  V30 3975 C 382.912 0.817842 -1.77681 0
M  V30 3976 O 384.118 1.26185 -2.40395 0
M  V30 3977 C 382.574 -1.11717 -3.42122 0
M  V30 3978 C 382.182 -2.6126 -3.63933 0
M  V30 3979 C 383.926 -0.85843 -4.1573 0
M  V30 3980 C 381.833 -3.0133 -5.08876 0
M  V30 3981 H 380.763 -0.240491 -0.714619 0
M  V30 3982 H 383.414 -1.1942 -1.39324 0
M  V30 3983 H 381.796 -0.504027 -3.92779 0
M  V30 3984 H 382.97 -3.27858 -3.23799 0
M  V30 3985 H 381.285 -2.84937 -3.03644 0
M  V30 3986 H 383.882 -1.13359 -5.22546 0
M  V30 3987 H 384.225 0.205461 -4.15793 0
M  V30 3988 H 384.758 -1.43341 -3.71077 0
M  V30 3989 H 381.497 -4.06864 -5.13947 0
M  V30 3990 H 381.017 -2.3943 -5.49939 0
M  V30 3991 H 382.696 -2.92224 -5.77247 0
M  V30 3992 N 382.828 1.3818 -0.7579 0
M  V30 3993 C 384.105 1.94106 -0.241306 0
M  V30 3994 C 384.485 1.69282 1.26122 0
M  V30 3995 O 383.833 1.03378 2.03777 0
M  V30 3996 C 384.043 3.43809 -0.59967 0
M  V30 3997 C 385.391 4.20868 -0.561717 0
M  V30 3998 O 386.415 3.5211 -0.538222 0
M  V30 3999 O 385.274 5.43451 -0.576478 0
M  V30 4000 H 382.368 0.825376 -0.0518042 0
M  V30 4001 H 384.914 1.47548 -0.838315 0
M  V30 4002 H 383.686 3.55403 -1.6372 0
M  V30 4003 H 383.309 3.97592 0.0251197 0
M  V30 4004 N 384.306 0.507319 1.49211 0
M  V30 4005 C 385.239 -0.314509 2.26022 0
M  V30 4006 C 386.217 -0.964849 1.30879 0
M  V30 4007 O 387.401 -0.993707 1.6018 0
M  V30 4008 C 384.528 -1.44346 3.06402 0
M  V30 4009 C 383.574 -0.90685 4.16748 0
M  V30 4010 S 384.407 0.207392 5.35098 0
M  V30 4011 C 385.563 -0.924573 6.19033 0
M  V30 4012 H 385.796 0.337416 2.95379 0
M  V30 4013 H 383.329 0.292718 1.516 0
M  V30 4014 H 385.287 -2.09029 3.53295 0
M  V30 4015 H 383.948 -2.06702 2.36502 0
M  V30 4016 H 383.141 -1.75309 4.72528 0
M  V30 4017 H 382.743 -0.33712 3.72478 0
M  V30 4018 H 385.035 -1.82839 6.52362 0
M  V30 4019 H 385.978 -0.405248 7.06939 0
M  V30 4020 H 386.386 -1.19476 5.51712 0
M  V30 4021 N 385.784 -1.5574 0.241426 0
M  V30 4022 C 386.734 -2.17803 -0.674233 0
M  V30 4023 C 387.718 -1.13225 -1.14319 0
M  V30 4024 O 388.91 -1.39153 -1.09387 0
M  V30 4025 C 386.039 -2.87682 -1.87333 0
M  V30 4026 C 385.125 -3.99509 -1.42313 0
M  V30 4027 N 385.516 -5.01115 -0.686798 0
M  V30 4028 C 383.814 -4.11964 -1.70885 0
M  V30 4029 C 384.515 -5.79922 -0.454456 0
M  V30 4030 N 383.491 -5.34001 -1.01705 0
M  V30 4031 H 387.293 -2.93718 -0.103447 0
M  V30 4032 H 384.807 -1.62342 0.0435095 0
M  V30 4033 H 386.804 -3.3057 -2.54026 0
M  V30 4034 H 385.464 -2.13269 -2.4484 0
M  V30 4035 H 386.475 -5.16799 -0.337459 0
M  V30 4036 H 383.152 -3.48718 -2.2957 0
M  V30 4037 H 384.542 -6.71768 0.132992 0
M  V30 4038 N 387.262 0.0317525 -1.57568 0
M  V30 4039 C 388.502 0.727979 -1.90997 0
M  V30 4040 C 388.866 1.72664 -0.839708 0
M  V30 4041 O 390.067 2.47092 -1.05825 0
M  V30 4042 C 388.338 1.38239 -3.29583 0
M  V30 4043 S 389.897 2.10814 -3.84841 0
M  V30 4044 H 386.715 0.241226 -0.668828 0
M  V30 4045 H 389.317 -0.0173037 -1.95492 0
M  V30 4046 H 388.021 0.642288 -4.05343 0
M  V30 4047 H 387.552 2.16628 -3.28384 0
M  V30 4048 H 389.567 3.3792 -3.63352 0
M  V30 4049 N 388.74 1.54641 0.303973 0
M  V30 4050 C 390.017 1.64455 1.05896 0
M  V30 4051 C 390.397 0.490923 2.05312 0
M  V30 4052 O 389.745 -0.512685 2.22674 0
M  V30 4053 C 389.955 3.02331 1.74347 0
M  V30 4054 C 391.303 3.59045 2.26653 0
M  V30 4055 O 392.327 3.04764 1.84384 0
M  V30 4056 O 391.186 4.54081 3.04093 0
M  V30 4057 H 388.28 0.666729 0.489287 0
M  V30 4058 H 390.826 1.66986 0.302298 0
M  V30 4059 H 389.598 3.77734 1.02142 0
M  V30 4060 H 389.221 3.03565 2.56777 0
M  V30 4061 N 390.218 -0.567019 1.47046 0
M  V30 4062 C 391.448 -1.34831 1.56538 0
M  V30 4063 C 391.856 -1.8802 0.21101 0
M  V30 4064 O 391.199 -1.65152 -0.804387 0
M  V30 4065 C 391.261 -2.56139 2.52256 0
M  V30 4066 C 390.925 -2.24307 3.98165 0
M  V30 4067 C 391.922 -1.82192 4.86931 0
M  V30 4068 C 389.607 -2.35968 4.43423 0
M  V30 4069 C 391.601 -1.52153 6.18973 0
M  V30 4070 C 389.288 -2.05542 5.75496 0
M  V30 4071 C 390.286 -1.63701 6.63092 0
M  V30 4072 O 389.974 -1.33657 7.92711 0
M  V30 4073 H 389.706 -0.417683 0.531523 0
M  V30 4074 H 392.26 -0.694726 1.93294 0
M  V30 4075 H 390.49 -3.24356 2.10548 0
M  V30 4076 H 392.179 -3.18214 2.51982 0
M  V30 4077 H 392.945 -1.72684 4.53217 0
M  V30 4078 H 388.824 -2.67495 3.75456 0
M  V30 4079 H 392.368 -1.19421 6.87302 0
M  V30 4080 H 388.265 -2.14679 6.08755 0
M  V30 4081 H 389.033 -1.4737 8.05124 0
M  V30 4082 N 391.696 -1.35014 -0.812953 0
M  V30 4083 C 392.936 -1.29289 -1.58315 0
M  V30 4084 C 393.3 0.132727 -1.91541 0
M  V30 4085 O 394.501 0.314269 -2.66957 0
M  V30 4086 C 392.772 -2.1681 -2.84127 0
M  V30 4087 S 394.331 -2.28538 -3.74588 0
M  V30 4088 H 391.149 -0.459569 -0.542511 0
M  V30 4089 H 393.751 -1.70336 -0.959467 0
M  V30 4090 H 392.455 -3.19379 -2.57731 0
M  V30 4091 H 391.986 -1.76697 -3.51485 0
M  V30 4092 H 394.001 -1.4655 -4.74065 0
M  V30 4093 N 393.175 1.03435 -1.18907 0
M  V30 4094 C 394.423 1.76394 -0.986382 0
M  V30 4095 C 394.744 1.88883 0.484567 0
M  V30 4096 O 394.014 1.41843 1.3512 0
M  V30 4097 H 392.594 0.65344 -0.361975 0
M  V30 4098 H 395.256 1.248 -1.49703 0
M  V30 4099 H 394.352 2.77424 -1.42978 0
M  V30 4100 N 394.653 0.992116 1.22453 0
M  V30 4101 C 395.601 0.534644 2.26372 0
M  V30 4102 C 396.595 -0.414293 1.64256 0
M  V30 4103 O 397.801 -0.286899 1.77699 0
M  V30 4104 H 394.176 0.154502 0.735957 0
M  V30 4105 H 396.147 1.42256 2.62309 0
M  V30 4106 C 394.896 -0.135815 3.47435 0
M  V30 4107 H 394.219 0.585311 3.95492 0
M  V30 4108 H 395.659 -0.419374 4.21921 0
M  V30 4109 C 394.118 -1.37089 3.07747 0
M  V30 4110 O 394.648 -2.46629 3.17076 0
M  V30 4111 N 392.854 -1.24585 2.62539 0
M  V30 4112 H 392.401 -0.354542 2.55149 0
M  V30 4113 H 392.359 -2.07327 2.36353 0
M  V30 4114 N 396.131 -1.37776 0.765217 0
M  V30 4115 C 397.081 -2.2768 0.12075 0
M  V30 4116 C 398.065 -1.45778 -0.680988 0
M  V30 4117 O 399.257 -1.684 -0.545033 0
M  V30 4118 C 396.386 -3.34722 -0.762626 0
M  V30 4119 C 395.472 -4.24074 0.0465881 0
M  V30 4120 N 395.863 -4.93939 1.08892 0
M  V30 4121 C 394.161 -4.45643 -0.178418 0
M  V30 4122 C 394.862 -5.59845 1.57951 0
M  V30 4123 N 393.838 -5.36218 0.892797 0
M  V30 4124 H 397.64 -2.79166 0.918889 0
M  V30 4125 H 395.154 -1.50816 0.602353 0
M  V30 4126 H 397.151 -3.98031 -1.24005 0
M  V30 4127 H 395.811 -2.84793 -1.55959 0
M  V30 4128 H 396.822 -4.96572 1.47095 0
M  V30 4129 H 393.499 -4.06599 -0.9478 0
M  V30 4130 H 394.889 -6.25703 2.44838 0
M  V30 4131 N 397.609 -0.515225 -1.4894 0
M  V30 4132 C 398.839 0.0205735 -2.0659 0
M  V30 4133 C 399.247 1.30064 -1.37405 0
M  V30 4134 O 398.59 1.78087 -0.450632 0
M  V30 4135 C 398.652 0.330124 -3.57981 0
M  V30 4136 C 398.316 -0.854295 -4.48944 0
M  V30 4137 C 399.313 -1.7487 -4.89609 0
M  V30 4138 C 396.998 -1.05712 -4.9105 0
M  V30 4139 C 398.992 -2.82996 -5.71132 0
M  V30 4140 C 396.679 -2.14154 -5.72347 0
M  V30 4141 C 397.677 -3.0263 -6.12294 0
M  V30 4142 O 397.365 -4.09198 -6.91962 0
M  V30 4143 H 397.097 -0.0236833 -0.675585 0
M  V30 4144 H 399.651 -0.715956 -1.92518 0
M  V30 4145 H 397.881 1.12044 -3.70112 0
M  V30 4146 H 399.57 0.806233 -3.97812 0
M  V30 4147 H 400.336 -1.60388 -4.57712 0
M  V30 4148 H 396.215 -0.377788 -4.59449 0
M  V30 4149 H 399.759 -3.52083 -6.02232 0
M  V30 4150 H 395.656 -2.28626 -6.03656 0
M  V30 4151 H 396.424 -4.06726 -7.10293 0
M  V30 4152 N 399.087 1.5561 -0.249682 0
M  V30 4153 C 400.017 2.24477 0.642826 0
M  V30 4154 C 400.998 1.22601 1.17911 0
M  V30 4155 O 402.183 1.5126 1.21795 0
M  V30 4156 C 399.313 2.94638 1.83863 0
M  V30 4157 C 398.267 4.03227 1.435 0
M  V30 4158 C 397.593 4.60828 2.71186 0
M  V30 4159 C 398.893 5.18796 0.604002 0
M  V30 4160 H 400.587 2.99321 0.0685625 0
M  V30 4161 H 398.133 1.43965 0.0315363 0
M  V30 4162 H 400.086 3.41517 2.46868 0
M  V30 4163 H 398.81 2.17287 2.43832 0
M  V30 4164 H 397.469 3.57121 0.828275 0
M  V30 4165 H 397.117 3.80174 3.29358 0
M  V30 4166 H 396.817 5.34132 2.44901 0
M  V30 4167 H 398.341 5.10442 3.35084 0
M  V30 4168 H 399.755 5.61883 1.13842 0
M  V30 4169 H 398.152 5.98506 0.437097 0
M  V30 4170 H 399.222 4.83384 -0.383147 0
M  V30 4171 N 400.565 -0.0233959 1.57583 0
M  V30 4172 C 401.812 -0.713063 1.8953 0
M  V30 4173 C 402.14 -1.75056 0.847673 0
M  V30 4174 O 401.395 -1.95119 -0.150636 0
M  V30 4175 C 401.694 -1.41428 3.28227 0
M  V30 4176 C 401.36 -0.512222 4.47981 0
M  V30 4177 C 400.022 -0.263785 4.80476 0
M  V30 4178 C 402.374 0.110248 5.21083 0
M  V30 4179 C 399.702 0.615804 5.83459 0
M  V30 4180 C 402.054 0.977573 6.25001 0
M  V30 4181 C 400.718 1.23542 6.55968 0
M  V30 4182 H 399.988 -0.260928 0.69354 0
M  V30 4183 H 402.635 0.0271047 1.91481 0
M  V30 4184 H 400.94 -2.22791 3.22291 0
M  V30 4185 H 402.637 -1.95355 3.50196 0
M  V30 4186 H 399.227 -0.716013 4.22577 0
M  V30 4187 H 403.411 -0.0687137 4.96252 0
M  V30 4188 H 398.667 0.82382 6.05824 0
M  V30 4189 H 402.841 1.46638 6.80786 0
M  V30 4190 H 400.468 1.91871 7.35588 0
M  V30 4191 N 402.043 -1.548 -0.295768 0
M  V30 4192 C 402.991 -1.86874 -1.38495 0
M  V30 4193 C 403.985 -0.742938 -1.52239 0
M  V30 4194 O 405.191 -0.926999 -1.54294 0
M  V30 4195 H 401.566 -0.592786 -0.462719 0
M  V30 4196 H 403.537 -2.77904 -1.08682 0
M  V30 4197 C 402.286 -2.13732 -2.74252 0
M  V30 4198 H 401.609 -2.99835 -2.64459 0
M  V30 4199 H 403.049 -2.4011 -3.49461 0
M  V30 4200 C 401.508 -0.937539 -3.23592 0
M  V30 4201 O 402.038 -0.160665 -4.01379 0
M  V30 4202 N 400.244 -0.741478 -2.80981 0
M  V30 4203 H 399.791 -1.37489 -2.1784 0
M  V30 4204 H 399.749 0.0597103 -3.14343 0
M  V30 4205 N 403.521 0.559213 -1.47345 0
M  V30 4206 C 404.484 1.64854 -1.59235 0
M  V30 4207 C 405.484 1.53851 -0.467607 0
M  V30 4208 O 406.674 1.58045 -0.732617 0
M  V30 4209 C 403.806 3.04388 -1.53496 0
M  V30 4210 H 404.999 1.55662 -2.56339 0
M  V30 4211 H 402.552 0.778973 -1.35505 0
M  V30 4212 H 403.287 3.19115 -0.577604 0
M  V30 4213 H 403.072 3.13783 -2.35123 0
M  V30 4214 H 404.562 3.83642 -1.6495 0
M  V30 4215 N 404.999 1.35443 0.805782 0
M  V30 4216 C 405.932 1.22783 1.92353 0
M  V30 4217 C 406.91 0.115543 1.62189 0
M  V30 4218 O 408.094 0.283778 1.86352 0
M  V30 4219 C 405.221 0.890746 3.26777 0
M  V30 4220 C 404.267 2.01519 3.75889 0
M  V30 4221 S 405.1 3.63101 3.93596 0
M  V30 4222 C 406.256 3.31472 5.30921 0
M  V30 4223 H 406.489 2.17394 2.02798 0
M  V30 4224 H 404.022 1.20669 0.963245 0
M  V30 4225 H 405.98 0.703068 4.04434 0
M  V30 4226 H 404.641 -0.0373152 3.14078 0
M  V30 4227 H 403.834 1.7335 4.7325 0
M  V30 4228 H 403.436 2.16124 3.05231 0
M  V30 4229 H 405.728 2.8435 6.1494 0
M  V30 4230 H 406.671 4.28036 5.64084 0
M  V30 4231 H 407.079 2.67221 4.97246 0
M  V30 4232 N 406.477 -1.02803 1.19454 0
M  V30 4233 C 407.754 -1.73299 0.907013 0
M  V30 4234 C 408.134 -2.02772 -0.587086 0
M  V30 4235 O 407.482 -1.68304 -1.54551 0
M  V30 4236 C 407.692 -3.00912 1.76785 0
M  V30 4237 C 409.04 -3.74403 2.00268 0
M  V30 4238 O 410.064 -3.10841 1.73943 0
M  V30 4239 O 408.923 -4.88675 2.4466 0
M  V30 4240 H 406.017 -0.754727 0.338106 0
M  V30 4241 H 408.563 -1.08754 1.30271 0
M  V30 4242 H 407.335 -2.75366 2.7801 0
M  V30 4243 H 406.958 -3.73197 1.37149 0
M  V30 4244 N 407.956 -0.998596 -1.21925 0
M  V30 4245 C 409.205 -0.673085 -1.90138 0
M  V30 4246 C 409.518 0.79895 -1.78539 0
M  V30 4247 O 410.724 1.23628 -2.4172 0
M  V30 4248 C 409.18 -1.15339 -3.40918 0
M  V30 4249 C 408.788 -2.65106 -3.61141 0
M  V30 4250 C 410.532 -0.902476 -4.14796 0
M  V30 4251 C 408.439 -3.0671 -5.05651 0
M  V30 4252 H 407.369 -0.248057 -0.712028 0
M  V30 4253 H 410.02 -1.20891 -1.38049 0
M  V30 4254 H 408.402 -0.545658 -3.92223 0
M  V30 4255 H 409.576 -3.31274 -3.20304 0
M  V30 4256 H 407.891 -2.88142 -3.00605 0
M  V30 4257 H 410.488 -1.18895 -5.21314 0
M  V30 4258 H 410.831 0.161349 -4.15987 0
M  V30 4259 H 411.364 -1.47269 -3.69536 0
M  V30 4260 H 408.103 -4.12292 -5.09603 0
M  V30 4261 H 407.623 -2.45249 -5.47369 0
M  V30 4262 H 409.302 -2.9833 -5.74115 0
M  V30 4263 N 409.434 1.37368 -0.772513 0
M  V30 4264 C 410.397 2.28601 -0.165541 0
M  V30 4265 C 411.397 1.48062 0.627238 0
M  V30 4266 O 412.587 1.68268 0.450715 0
M  V30 4267 C 409.719 3.32023 0.772897 0
M  V30 4268 H 410.912 2.83787 -0.969787 0
M  V30 4269 H 408.465 1.46647 -0.540775 0
M  V30 4270 H 409.2 2.81962 1.60212 0
M  V30 4271 H 408.985 3.91555 0.206585 0
M  V30 4272 H 410.475 4.00197 1.19298 0
M  V30 4273 N 410.912 0.523116 1.48665 0
M  V30 4274 C 411.822 -0.247406 2.33292 0
M  V30 4275 C 412.838 -0.945769 1.46052 0
M  V30 4276 O 414.014 -0.922253 1.79043 0
M  V30 4277 C 411.079 -1.28487 3.22012 0
M  V30 4278 C 410.14 -0.597592 4.2512 0
M  V30 4279 C 409.373 -1.58563 5.09601 0
M  V30 4280 O 409.596 -2.81763 4.95949 0
M  V30 4281 O 408.53 -1.12879 5.91221 0
M  V30 4282 H 412.356 0.445869 3.00409 0
M  V30 4283 H 409.941 0.284128 1.46673 0
M  V30 4284 H 411.823 -1.88459 3.7691 0
M  V30 4285 H 410.498 -1.96068 2.57564 0
M  V30 4286 H 409.405 0.0424407 3.74076 0
M  V30 4287 H 410.738 0.0361517 4.92187 0
M  V30 4288 N 412.39 -1.55475 0.257931 0
M  V30 4289 C 413.639 -1.98383 -0.364275 0
M  V30 4290 C 413.952 -1.14952 -1.58258 0
M  V30 4291 O 415.158 -1.47924 -2.27664 0
M  V30 4292 C 413.614 -3.53037 -0.699479 0
M  V30 4293 C 413.222 -4.45223 0.498046 0
M  V30 4294 C 414.966 -4.04575 -1.28526 0
M  V30 4295 C 412.873 -5.91238 0.138383 0
M  V30 4296 H 411.803 -0.740911 -0.13988 0
M  V30 4297 H 414.454 -1.79936 0.359883 0
M  V30 4298 H 412.836 -3.6722 -1.48207 0
M  V30 4299 H 414.01 -4.42803 1.27522 0
M  V30 4300 H 412.325 -4.04226 0.999503 0
M  V30 4301 H 414.922 -5.11196 -1.56788 0
M  V30 4302 H 415.265 -3.5258 -2.21344 0
M  V30 4303 H 415.798 -3.93762 -0.565337 0
M  V30 4304 H 412.537 -6.47294 1.03398 0
M  V30 4305 H 412.057 -5.96768 -0.602374 0
M  V30 4306 H 413.736 -6.46413 -0.27553 0
M  V30 4307 N 413.868 0.0150385 -1.57593 0
M  V30 4308 C 415.284 0.370907 -1.5523 0
M  V30 4309 C 415.484 1.75735 -0.985882 0
M  V30 4310 O 414.54 2.44944 -0.613077 0
M  V30 4311 C 415.853 0.259908 -2.99575 0
M  V30 4312 C 417.401 0.335959 -3.11192 0
M  V30 4313 C 417.876 0.254253 -4.57294 0
M  V30 4314 N 419.367 0.312618 -4.62144 0
M  V30 4315 C 420.102 0.272505 -5.72752 0
M  V30 4316 N 419.598 0.183864 -6.92556 0
M  V30 4317 N 421.391 0.323267 -5.6117 0
M  V30 4318 H 413.542 -0.892104 -1.92757 0
M  V30 4319 H 415.805 -0.340563 -0.884715 0
M  V30 4320 H 415.511 -0.693403 -3.44797 0
M  V30 4321 H 415.385 1.048 -3.62349 0
M  V30 4322 H 417.772 1.27971 -2.65909 0
M  V30 4323 H 417.853 -0.481739 -2.51223 0
M  V30 4324 H 417.497 -0.685887 -5.03247 0
M  V30 4325 H 417.427 1.09024 -5.15191 0
M  V30 4326 H 419.918 0.38307 -3.75953 0
M  V30 4327 H 420.231 0.15874 -7.72637 0
M  V30 4328 H 418.576 0.149708 -6.94839 0
M  V30 4329 H 421.767 0.390607 -4.66467 0
M  V30 4330 H 421.94 0.288539 -6.47357 0
M  V30 4331 N 415.346 1.54954 0.287554 0
M  V30 4332 C 416.294 1.87606 1.37502 0
M  V30 4333 C 417.288 0.751001 1.51843 0
M  V30 4334 O 418.494 0.935169 1.53801 0
M  V30 4335 H 414.869 0.595231 0.459569 0
M  V30 4336 H 416.84 2.78477 1.07206 0
M  V30 4337 C 415.589 2.15183 2.73115 0
M  V30 4338 H 414.912 3.01234 2.62866 0
M  V30 4339 H 416.352 2.4196 3.48183 0
M  V30 4340 C 414.811 0.954686 3.2309 0
M  V30 4341 O 415.341 0.181949 4.01288 0
M  V30 4342 N 413.547 0.756368 2.80584 0
M  V30 4343 H 413.094 1.38643 2.17108 0
M  V30 4344 H 413.052 -0.0430391 3.14371 0
M  V30 4345 N 416.824 -0.551391 1.4764 0
M  V30 4346 C 417.772 -1.67896 1.60978 0
M  V30 4347 C 418.766 -1.62549 0.476877 0
M  V30 4348 O 419.972 -1.67664 0.654878 0
M  V30 4349 H 416.347 -0.555649 0.506713 0
M  V30 4350 H 418.318 -1.53784 2.55721 0
M  V30 4351 C 417.067 -3.06234 1.64669 0
M  V30 4352 H 416.39 -3.11033 2.51194 0
M  V30 4353 H 417.83 -3.84804 1.7805 0
M  V30 4354 C 416.289 -3.34737 0.381115 0
M  V30 4355 O 416.819 -3.98381 -0.515297 0
M  V30 4356 N 415.025 -2.8944 0.259354 0
M  V30 4357 H 414.572 -2.37827 0.98976 0
M  V30 4358 H 414.53 -3.08882 -0.586464 0
M  V30 4359 N 418.302 -1.35869 -0.798587 0
M  V30 4360 C 419.265 -1.29307 -1.89242 0
M  V30 4361 C 420.265 -0.202747 -1.59517 0
M  V30 4362 O 421.455 -0.456957 -1.681 0
M  V30 4363 C 418.587 -1.00229 -3.25833 0
M  V30 4364 H 419.78 -2.26576 -1.96478 0
M  V30 4365 H 417.333 -1.20509 -0.995358 0
M  V30 4366 H 418.068 -0.033801 -3.24282 0
M  V30 4367 H 417.853 -1.79121 -3.48795 0
M  V30 4368 H 419.343 -0.98219 -4.05885 0
M  V30 4369 N 419.78 1.02168 -1.19998 0
M  V30 4370 C 421.005 1.79833 -1.03319 0
M  V30 4371 C 421.43 1.83504 0.413281 0
M  V30 4372 O 420.788 1.26635 1.29743 0
M  V30 4373 C 420.836 3.22396 -1.61533 0
M  V30 4374 O 419.94 4.03555 -0.849519 0
M  V30 4375 H 419.281 0.554872 -0.364709 0
M  V30 4376 H 421.811 1.28542 -1.59179 0
M  V30 4377 H 421.821 3.73124 -1.65054 0
M  V30 4378 H 420.496 3.19039 -2.66809 0
M  V30 4379 H 419.073 3.62169 -0.888129 0
M  V30 4380 N 421.258 1.00505 1.21394 0
M  V30 4381 C 422.669 0.721082 1.72213 0
M  V30 4382 C 423.02 -0.761263 1.80829 0
M  V30 4383 O 422.145 -1.59464 1.46288 0
M  V30 4384 C 422.74 1.30228 3.12772 0
M  V30 4385 C 421.299 1.06743 3.60947 0
M  V30 4386 C 420.446 1.41507 2.38477 0
M  V30 4387 H 423.397 1.17594 1.06571 0
M  V30 4388 H 423.418 0.686955 3.74247 0
M  V30 4389 H 422.93 2.38115 3.06468 0
M  V30 4390 H 421.031 0.00572162 3.726 0
M  V30 4391 H 421.144 1.73936 4.46411 0
M  V30 4392 H 419.508 0.833852 2.40664 0
M  V30 4393 H 420.291 2.50424 2.34824 0
M  V30 4394 N 422.737 -1.36956 0.779787 0
M  V30 4395 C 423.7 -2.2851 0.177662 0
M  V30 4396 C 424.7 -1.48393 -0.619377 0
M  V30 4397 O 425.89 -1.68505 -0.441785 0
M  V30 4398 C 423.022 -3.32428 -0.755279 0
M  V30 4399 H 424.215 -2.83269 0.984823 0
M  V30 4400 H 421.768 -1.46358 0.548544 0
M  V30 4401 H 422.503 -2.82808 -1.58714 0
M  V30 4402 H 422.288 -3.91659 -0.185817 0
M  V30 4403 H 423.778 -4.00824 -1.17174 0
M  V30 4404 N 424.215 -0.530993 -1.48385 0
M  V30 4405 C 425.492 0.0671788 -1.95485 0
M  V30 4406 C 425.872 1.51191 -1.47324 0
M  V30 4407 O 425.22 2.17507 -0.700202 0
M  V30 4408 C 425.43 -0.0511206 -3.48963 0
M  V30 4409 C 426.778 0.107632 -4.24464 0
M  V30 4410 O 427.802 0.0226248 -3.56193 0
M  V30 4411 O 426.661 0.285972 -5.45751 0
M  V30 4412 H 423.755 0.0787365 -0.823243 0
M  V30 4413 H 426.301 -0.595662 -1.58902 0
M  V30 4414 H 425.073 -1.05747 -3.7674 0
M  V30 4415 H 424.696 0.650525 -3.92242 0
M  V30 4416 N 425.693 1.55336 -0.266172 0
M  V30 4417 C 427.104 1.85236 0.233315 0
M  V30 4418 C 427.455 1.18816 1.56132 0
M  V30 4419 O 426.58 0.473307 2.11161 0
M  V30 4420 C 427.175 3.36059 0.430113 0
M  V30 4421 C 425.734 3.66116 0.873842 0
M  V30 4422 C 424.881 2.77274 -0.0380016 0
M  V30 4423 H 427.832 1.51004 -0.488214 0
M  V30 4424 H 427.853 3.58681 1.26998 0
M  V30 4425 H 427.365 3.84373 -0.536588 0
M  V30 4426 H 425.466 3.23295 1.85233 0
M  V30 4427 H 425.579 4.73699 0.717358 0
M  V30 4428 H 423.943 2.50198 0.476759 0
M  V30 4429 H 424.726 3.284 -1.00042 0
M  V30 4430 N 427.171 -0.0066808 1.57599 0
M  V30 4431 C 428.103 -1.02827 2.04839 0
M  V30 4432 C 429.116 -1.31108 0.965113 0
M  V30 4433 O 430.305 -1.28202 1.24203 0
M  V30 4434 C 427.405 -2.36464 2.42771 0
M  V30 4435 C 426.578 -2.27219 3.73751 0
M  V30 4436 C 425.637 -3.43489 3.98625 0
M  V30 4437 O 424.663 -3.21976 4.69382 0
M  V30 4438 N 425.865 -4.66116 3.46 0
M  V30 4439 H 428.63 -0.625455 2.93101 0
M  V30 4440 H 426.191 -0.194198 1.60731 0
M  V30 4441 H 428.183 -3.13008 2.56531 0
M  V30 4442 H 426.753 -2.68512 1.60063 0
M  V30 4443 H 425.973 -1.35629 3.70133 0
M  V30 4444 H 427.261 -2.18208 4.59633 0
M  V30 4445 H 426.659 -4.86493 2.88688 0
M  V30 4446 H 425.216 -5.39949 3.65101 0
M  V30 4447 N 428.649 -1.55105 -0.279332 0
M  V30 4448 C 429.895 -1.75672 -1.01327 0
M  V30 4449 C 430.228 -0.552739 -1.86168 0
M  V30 4450 O 429.503 0.449827 -1.89227 0
M  V30 4451 C 429.786 -3.05825 -1.90114 0
M  V30 4452 C 429.639 -4.36565 -1.08309 0
M  V30 4453 C 430.958 -3.31975 -2.8893 0
M  V30 4454 H 428.077 -0.639149 -0.366957 0
M  V30 4455 H 430.719 -1.87833 -0.286154 0
M  V30 4456 H 428.869 -2.95588 -2.52111 0
M  V30 4457 H 430.541 -4.58751 -0.484314 0
M  V30 4458 H 428.784 -4.32076 -0.386362 0
M  V30 4459 H 429.455 -5.23946 -1.73737 0
M  V30 4460 H 431.931 -3.41963 -2.37067 0
M  V30 4461 H 430.807 -4.2432 -3.48201 0
M  V30 4462 H 431.068 -2.51309 -3.63725 0
M  V30 4463 N 430.127 0.543554 -1.4793 0
M  V30 4464 C 431.077 1.64527 -1.57844 0
M  V30 4465 C 432.061 1.54869 -0.436408 0
M  V30 4466 O 433.253 1.63119 -0.687101 0
M  V30 4467 C 430.382 3.03281 -1.6086 0
M  V30 4468 C 429.468 3.18093 -2.80495 0
M  V30 4469 N 429.859 3.02923 -4.05057 0
M  V30 4470 C 428.157 3.49121 -2.77543 0
M  V30 4471 C 428.858 3.20791 -4.85251 0
M  V30 4472 N 427.834 3.47749 -4.17818 0
M  V30 4473 H 431.636 1.51388 -2.5191 0
M  V30 4474 H 429.15 0.748671 -1.44113 0
M  V30 4475 H 431.147 3.82403 -1.66054 0
M  V30 4476 H 429.807 3.17521 -0.678996 0
M  V30 4477 H 430.818 2.79966 -4.35705 0
M  V30 4478 H 427.495 3.69804 -1.93781 0
M  V30 4479 H 428.885 3.13915 -5.9406 0
M  V30 4480 O 431.644 1.46095 0.688375 0
M  V30 4481 H 432.335 1.39822 1.34051 0
M  V30 END ATOM
M  V30 BEGIN BOND
M  V30 END BOND
M  V30 END CTAB
M  END
$$$$
