drugbank_target|Q9UE69 5HT3 serotonin receptor (DB00370; DB09207)
 OpenBabel12092121023D

190191  0  0  0  0  0  0  0  0999 V2000
   -0.9080    1.9825   -0.1171 H   0  0  0  0  0 15  0  0  0  0  0  0
    0.0000    1.5760    0.0000 N   0  0  0  0  0 15  0  0  0  0  0  0
    0.9330    2.0387    1.0253 C   0  0  0  0  0 15  0  0  0  0  0  0
    1.9110    0.9285    1.3348 C   0  0  0  0  0 15  0  0  0  0  0  0
    3.0950    1.1967    1.4564 O   0  0  0  0  0 15  0  0  0  0  0  0
    0.2220    2.4363    2.3529 C   0  0  0  0  0 15  0  0  0  0  0  0
   -0.7320    3.6537    2.2001 C   0  0  0  0  0 15  0  0  0  0  0  0
    0.1010    5.1329    1.5261 S   0  0  0  0  0 15  0  0  0  0  0  0
    1.2570    5.5632    2.8680 C   0  0  0  0  0 15  0  0  0  0  0  0
    1.4900    2.9052    0.6314 H   0  0  0  0  0 15  0  0  0  0  0  0
   -0.9770    1.5295    0.2109 H   0  0  0  0  0 15  0  0  0  0  0  0
    0.9810    2.6720    3.1163 H   0  0  0  0  0 15  0  0  0  0  0  0
   -0.3580    1.5738    2.7183 H   0  0  0  0  0 15  0  0  0  0  0  0
   -1.1650    3.9094    3.1809 H   0  0  0  0  0 15  0  0  0  0  0  0
   -1.5630    3.4180    1.5182 H   0  0  0  0  0 15  0  0  0  0  0  0
    0.7290    5.5878    3.8310 H   0  0  0  0  0 15  0  0  0  0  0  0
    1.6720    6.5627    2.6593 H   0  0  0  0  0 15  0  0  0  0  0  0
    2.0800    4.8389    2.9071 H   0  0  0  0  0 15  0  0  0  0  0  0
    1.4781   -0.2728    1.5522 N   0  0  0  0  0 15  0  0  0  0  0  0
    2.4081   -1.3414    1.9113 C   0  0  0  0  0 15  0  0  0  0  0  0
    3.3891   -1.5151    0.7732 C   0  0  0  0  0 15  0  0  0  0  0  0
    4.5741   -1.6455    1.0313 O   0  0  0  0  0 15  0  0  0  0  0  0
    1.7041   -2.7008    2.1834 C   0  0  0  0  0 15  0  0  0  0  0  0
    0.6581   -2.6744    3.3416 C   0  0  0  0  0 15  0  0  0  0  0  0
   -0.0159   -4.0694    3.4685 C   0  0  0  0  0 15  0  0  0  0  0  0
    1.2841   -2.2669    4.7054 C   0  0  0  0  0 15  0  0  0  0  0  0
    2.9781   -1.0433    2.8063 H   0  0  0  0  0 15  0  0  0  0  0  0
    0.5241   -0.5005    1.3502 H   0  0  0  0  0 15  0  0  0  0  0  0
    2.4771   -3.4495    2.4205 H   0  0  0  0  0 15  0  0  0  0  0  0
    1.2011   -3.0147    1.2563 H   0  0  0  0  0 15  0  0  0  0  0  0
   -0.1399   -1.9503    3.1042 H   0  0  0  0  0 15  0  0  0  0  0  0
   -0.4919   -4.3555    2.5161 H   0  0  0  0  0 15  0  0  0  0  0  0
   -0.7919   -4.0606    4.2472 H   0  0  0  0  0 15  0  0  0  0  0  0
    0.7321   -4.8355    3.7285 H   0  0  0  0  0 15  0  0  0  0  0  0
    2.1461   -2.9128    4.9379 H   0  0  0  0  0 15  0  0  0  0  0  0
    0.5431   -2.3697    5.5133 H   0  0  0  0  0 15  0  0  0  0  0  0
    1.6131   -1.2182    4.6935 H   0  0  0  0  0 15  0  0  0  0  0  0
    2.9562   -1.4816   -0.5373 N   0  0  0  0  0 15  0  0  0  0  0  0
    3.8862   -1.6503   -1.6519 C   0  0  0  0  0 15  0  0  0  0  0  0
    4.8672   -0.4993   -1.6261 C   0  0  0  0  0 15  0  0  0  0  0  0
    6.0522   -0.7310   -1.7992 O   0  0  0  0  0 15  0  0  0  0  0  0
    3.1822   -1.6830   -3.0380 C   0  0  0  0  0 15  0  0  0  0  0  0
    2.1362   -2.8283   -3.2123 C   0  0  0  0  0 15  0  0  0  0  0  0
    1.4622   -2.7119   -4.6083 C   0  0  0  0  0 15  0  0  0  0  0  0
    2.7622   -4.2421   -3.0470 C   0  0  0  0  0 15  0  0  0  0  0  0
    4.4562   -2.5834   -1.5133 H   0  0  0  0  0 15  0  0  0  0  0  0
    2.0022   -1.2433   -0.7266 H   0  0  0  0  0 15  0  0  0  0  0  0
    3.9552   -1.7869   -3.8164 H   0  0  0  0  0 15  0  0  0  0  0  0
    2.6792   -0.7156   -3.1866 H   0  0  0  0  0 15  0  0  0  0  0  0
    1.3382   -2.7198   -2.4581 H   0  0  0  0  0 15  0  0  0  0  0  0
    0.9862   -1.7243   -4.7252 H   0  0  0  0  0 15  0  0  0  0  0  0
    0.6862   -3.4803   -4.7344 H   0  0  0  0  0 15  0  0  0  0  0  0
    2.2102   -2.8354   -5.4078 H   0  0  0  0  0 15  0  0  0  0  0  0
    3.6242   -4.3593   -3.7234 H   0  0  0  0  0 15  0  0  0  0  0  0
    2.0212   -5.0200   -3.2881 H   0  0  0  0  0 15  0  0  0  0  0  0
    3.0912   -4.4118   -2.0121 H   0  0  0  0  0 15  0  0  0  0  0  0
    4.4343    0.7856   -1.3662 N   0  0  0  0  0 15  0  0  0  0  0  0
    5.6803    1.5452   -1.3227 C   0  0  0  0  0 15  0  0  0  0  0  0
    6.0353    1.9216    0.0962 C   0  0  0  0  0 15  0  0  0  0  0  0
    5.3283    1.6016    1.0517 O   0  0  0  0  0 15  0  0  0  0  0  0
    5.5223    2.8301   -2.1827 C   0  0  0  0  0 15  0  0  0  0  0  0
    5.3513    2.5792   -3.6838 C   0  0  0  0  0 15  0  0  0  0  0  0
    4.1213    2.5275   -4.3754 C   0  0  0  0  0 15  0  0  0  0  0  0
    6.3193    2.2686   -4.6156 C   0  0  0  0  0 15  0  0  0  0  0  0
    4.3013    2.1961   -5.7328 N   0  0  0  0  0 15  0  0  0  0  0  0
    5.6723    2.0374   -5.8557 C   0  0  0  0  0 15  0  0  0  0  0  0
    7.7273    2.1290   -4.5009 C   0  0  0  0  0 15  0  0  0  0  0  0
    6.4303    1.6807   -6.9939 C   0  0  0  0  0 15  0  0  0  0  0  0
    8.4563    1.7863   -5.6378 C   0  0  0  0  0 15  0  0  0  0  0  0
    7.8183    1.5635   -6.8683 C   0  0  0  0  0 15  0  0  0  0  0  0
    3.9173    0.5663   -0.5393 H   0  0  0  0  0 15  0  0  0  0  0  0
    6.5013    0.9177   -1.7171 H   0  0  0  0  0 15  0  0  0  0  0  0
    4.6723    3.4361   -1.8106 H   0  0  0  0  0 15  0  0  0  0  0  0
    6.4043    3.4878   -2.0528 H   0  0  0  0  0 15  0  0  0  0  0  0
    3.1593    2.6813   -3.9039 H   0  0  0  0  0 15  0  0  0  0  0  0
    3.5833    2.0577   -6.4497 H   0  0  0  0  0 15  0  0  0  0  0  0
    8.2253    2.2881   -3.5554 H   0  0  0  0  0 15  0  0  0  0  0  0
    5.9433    1.5090   -7.9389 H   0  0  0  0  0 15  0  0  0  0  0  0
    9.5293    1.6850   -5.5686 H   0  0  0  0  0 15  0  0  0  0  0  0
    8.4093    1.3022   -7.7331 H   0  0  0  0  0 15  0  0  0  0  0  0
    5.9124    1.2097    1.0102 N   0  0  0  0  0 15  0  0  0  0  0  0
    7.1584    1.0253    1.7498 C   0  0  0  0  0 15  0  0  0  0  0  0
    7.4914   -0.4408    1.8913 C   0  0  0  0  0 15  0  0  0  0  0  0
    6.7664   -1.3272    1.4218 O   0  0  0  0  0 15  0  0  0  0  0  0
    7.0494    1.7170    3.1653 C   0  0  0  0  0 15  0  0  0  0  0  0
    6.9024    3.2579    3.1013 C   0  0  0  0  0 15  0  0  0  0  0  0
    8.2214    1.4553    4.1534 C   0  0  0  0  0 15  0  0  0  0  0  0
    5.3404    0.3739    0.6351 H   0  0  0  0  0 15  0  0  0  0  0  0
    7.9824    1.4907    1.1780 H   0  0  0  0  0 15  0  0  0  0  0  0
    6.1324    1.3213    3.6534 H   0  0  0  0  0 15  0  0  0  0  0  0
    7.8044    3.7470    2.6907 H   0  0  0  0  0 15  0  0  0  0  0  0
    6.0474    3.5636    2.4736 H   0  0  0  0  0 15  0  0  0  0  0  0
    6.7184    3.6935    4.1022 H   0  0  0  0  0 15  0  0  0  0  0  0
    9.1944    1.7987    3.7521 H   0  0  0  0  0 15  0  0  0  0  0  0
    8.0704    1.9645    5.1254 H   0  0  0  0  0 15  0  0  0  0  0  0
    8.3314    0.3842    4.4043 H   0  0  0  0  0 15  0  0  0  0  0  0
    7.3905   -1.2043    1.0166 N   0  0  0  0  0 15  0  0  0  0  0  0
    8.3225   -2.2263    0.5450 C   0  0  0  0  0 15  0  0  0  0  0  0
    9.3355   -1.5848   -0.3726 C   0  0  0  0  0 15  0  0  0  0  0  0
   10.5245   -1.7768   -0.1710 O   0  0  0  0  0 15  0  0  0  0  0  0
    7.6245   -3.3814   -0.2266 C   0  0  0  0  0 15  0  0  0  0  0  0
    6.7975   -4.3188    0.6929 C   0  0  0  0  0 15  0  0  0  0  0  0
    5.8565   -5.2619   -0.0312 C   0  0  0  0  0 15  0  0  0  0  0  0
    4.8825   -5.6612    0.5913 O   0  0  0  0  0 15  0  0  0  0  0  0
    6.0845   -5.6562   -1.3060 N   0  0  0  0  0 15  0  0  0  0  0  0
    8.8495   -2.6372    1.4239 H   0  0  0  0  0 15  0  0  0  0  0  0
    6.4105   -1.3497    0.8941 H   0  0  0  0  0 15  0  0  0  0  0  0
    8.4025   -3.9824   -0.7202 H   0  0  0  0  0 15  0  0  0  0  0  0
    6.9725   -2.9594   -1.0068 H   0  0  0  0  0 15  0  0  0  0  0  0
    6.1925   -3.6975    1.3668 H   0  0  0  0  0 15  0  0  0  0  0  0
    7.4805   -4.9143    1.3182 H   0  0  0  0  0 15  0  0  0  0  0  0
    6.8785   -5.3519   -1.8327 H   0  0  0  0  0 15  0  0  0  0  0  0
    5.4355   -6.2803   -1.7443 H   0  0  0  0  0 15  0  0  0  0  0  0
    8.8686   -0.7928   -1.3621 N   0  0  0  0  0 15  0  0  0  0  0  0
    9.8006   -0.1515   -2.2870 C   0  0  0  0  0 15  0  0  0  0  0  0
   10.8136    0.6413   -1.4964 C   0  0  0  0  0 15  0  0  0  0  0  0
   12.0026    0.4759   -1.7204 O   0  0  0  0  0 15  0  0  0  0  0  0
    9.1026    0.8084   -3.2912 C   0  0  0  0  0 15  0  0  0  0  0  0
    8.2756    0.0650   -4.3735 C   0  0  0  0  0 15  0  0  0  0  0  0
    7.3346    0.9414   -5.1771 C   0  0  0  0  0 15  0  0  0  0  0  0
    6.3606    0.3974   -5.6781 O   0  0  0  0  0 15  0  0  0  0  0  0
    7.5626    2.2652   -5.3448 N   0  0  0  0  0 15  0  0  0  0  0  0
   10.3276   -0.9460   -2.8438 H   0  0  0  0  0 15  0  0  0  0  0  0
    7.8886   -0.6470   -1.4841 H   0  0  0  0  0 15  0  0  0  0  0  0
    9.8806    1.3986   -3.7976 H   0  0  0  0  0 15  0  0  0  0  0  0
    8.4506    1.5038   -2.7405 H   0  0  0  0  0 15  0  0  0  0  0  0
    7.6706   -0.7063   -3.8782 H   0  0  0  0  0 15  0  0  0  0  0  0
    8.9586   -0.4478   -5.0683 H   0  0  0  0  0 15  0  0  0  0  0  0
    8.3566    2.7313   -4.9540 H   0  0  0  0  0 15  0  0  0  0  0  0
    6.9136    2.8049   -5.8836 H   0  0  0  0  0 15  0  0  0  0  0  0
   10.3467    1.4787   -0.5451 N   0  0  0  0  0 15  0  0  0  0  0  0
   11.3097    2.2834    0.1987 C   0  0  0  0  0 15  0  0  0  0  0  0
   12.3097    1.3625    0.8539 C   0  0  0  0  0 15  0  0  0  0  0  0
   13.4997    1.5900    0.7116 O   0  0  0  0  0 15  0  0  0  0  0  0
   10.6317    3.1558    1.2892 C   0  0  0  0  0 15  0  0  0  0  0  0
   11.8247    2.9557   -0.5079 H   0  0  0  0  0 15  0  0  0  0  0  0
    9.3777    1.5336   -0.3016 H   0  0  0  0  0 15  0  0  0  0  0  0
   10.1127    2.5302    2.0286 H   0  0  0  0  0 15  0  0  0  0  0  0
    9.8977    3.8334    0.8243 H   0  0  0  0  0 15  0  0  0  0  0  0
   11.3877    3.7624    1.8119 H   0  0  0  0  0 15  0  0  0  0  0  0
   11.8248    0.2810    1.5507 N   0  0  0  0  0 15  0  0  0  0  0  0
   12.7548   -0.5975    2.2573 C   0  0  0  0  0 15  0  0  0  0  0  0
   13.7358   -1.1542    1.2495 C   0  0  0  0  0 15  0  0  0  0  0  0
   14.9208   -1.1872    1.5368 O   0  0  0  0  0 15  0  0  0  0  0  0
   12.0508   -1.7789    2.9828 C   0  0  0  0  0 15  0  0  0  0  0  0
   11.0048   -1.3535    4.0604 C   0  0  0  0  0 15  0  0  0  0  0  0
   10.3308   -2.6185    4.6620 C   0  0  0  0  0 15  0  0  0  0  0  0
   11.6308   -0.4994    5.1991 C   0  0  0  0  0 15  0  0  0  0  0  0
   13.3248   -0.0082    2.9940 H   0  0  0  0  0 15  0  0  0  0  0  0
   10.8708   -0.0025    1.4400 H   0  0  0  0  0 15  0  0  0  0  0  0
   12.8238   -2.3994    3.4642 H   0  0  0  0  0 15  0  0  0  0  0  0
   11.5478   -2.3940    2.2216 H   0  0  0  0  0 15  0  0  0  0  0  0
   10.2068   -0.7562    3.5872 H   0  0  0  0  0 15  0  0  0  0  0  0
    9.8548   -3.2163    3.8673 H   0  0  0  0  0 15  0  0  0  0  0  0
    9.5548   -2.3409    5.3896 H   0  0  0  0  0 15  0  0  0  0  0  0
   11.0788   -3.2473    5.1709 H   0  0  0  0  0 15  0  0  0  0  0  0
   12.4928   -1.0250    5.6406 H   0  0  0  0  0 15  0  0  0  0  0  0
   10.8898   -0.3164    5.9927 H   0  0  0  0  0 15  0  0  0  0  0  0
   11.9598    0.4805    4.8251 H   0  0  0  0  0 15  0  0  0  0  0  0
   13.3029   -1.5760    0.0084 N   0  0  0  0  0 15  0  0  0  0  0  0
   14.2329   -2.1198   -0.9791 C   0  0  0  0  0 15  0  0  0  0  0  0
   15.2139   -1.0309   -1.3530 C   0  0  0  0  0 15  0  0  0  0  0  0
   16.3989   -1.3082   -1.4353 O   0  0  0  0  0 15  0  0  0  0  0  0
   13.5289   -2.6299   -2.2683 C   0  0  0  0  0 15  0  0  0  0  0  0
   12.4829   -3.7648   -2.0358 C   0  0  0  0  0 15  0  0  0  0  0  0
   11.8089   -4.1385   -3.3858 C   0  0  0  0  0 15  0  0  0  0  0  0
   13.1089   -5.0342   -1.3916 C   0  0  0  0  0 15  0  0  0  0  0  0
   14.8029   -2.9474   -0.5263 H   0  0  0  0  0 15  0  0  0  0  0  0
   12.3489   -1.4178   -0.2517 H   0  0  0  0  0 15  0  0  0  0  0  0
   14.3019   -2.9967   -2.9627 H   0  0  0  0  0 15  0  0  0  0  0  0
   13.0259   -1.7737   -2.7424 H   0  0  0  0  0 15  0  0  0  0  0  0
   11.6849   -3.4022   -1.3656 H   0  0  0  0  0 15  0  0  0  0  0  0
   11.3329   -3.2523   -3.8371 H   0  0  0  0  0 15  0  0  0  0  0  0
   11.0329   -4.9031   -3.2383 H   0  0  0  0  0 15  0  0  0  0  0  0
   12.5569   -4.5309   -4.0932 H   0  0  0  0  0 15  0  0  0  0  0  0
   13.9709   -5.3781   -1.9857 H   0  0  0  0  0 15  0  0  0  0  0  0
   12.3679   -5.8475   -1.3488 H   0  0  0  0  0 15  0  0  0  0  0  0
   13.4379   -4.8355   -0.3619 H   0  0  0  0  0 15  0  0  0  0  0  0
   14.7810    0.2645   -1.5536 N   0  0  0  0  0 15  0  0  0  0  0  0
   15.7440    1.3105   -1.8804 C   0  0  0  0  0 15  0  0  0  0  0  0
   16.7440    1.4194   -0.7556 C   0  0  0  0  0 15  0  0  0  0  0  0
   17.9340    1.4095   -1.0237 O   0  0  0  0  0 15  0  0  0  0  0  0
   15.0660    2.6907   -2.0932 C   0  0  0  0  0 15  0  0  0  0  0  0
   16.2590    1.0330   -2.8155 H   0  0  0  0  0 15  0  0  0  0  0  0
   13.8120    0.5030   -1.4799 H   0  0  0  0  0 15  0  0  0  0  0  0
   14.5470    3.0198   -1.1823 H   0  0  0  0  0 15  0  0  0  0  0  0
   14.3320    2.6254   -2.9123 H   0  0  0  0  0 15  0  0  0  0  0  0
   15.8220    3.4462   -2.3585 H   0  0  0  0  0 15  0  0  0  0  0  0
   16.2980    1.5620    0.4103 O   0  0  0  0  0 15  0  0  0  0  0  0
   16.9890    1.6193    1.0629 H   0  0  0  0  0 15  0  0  0  0  0  0
M  END
$$$$
