drugbank_target|P01023 Alpha-2-macroglobulin (DB00102; DB00515; DB00626; DB01593; DB08888; DB12965; DB14487; DB14533; DB14548)
 OpenBabel12092119433D

  0  0  0     0  0            999 V3000
M  V30 BEGIN CTAB
M  V30 COUNTS 22925 23182 0 0 0
M  V30 BEGIN ATOM
M  V30 1 H -0.908 1.98254 -0.117106 0
M  V30 2 N 0 1.576 0 0
M  V30 3 C 0.933 2.03868 1.02534 0
M  V30 4 C 1.911 0.928543 1.3348 0
M  V30 5 O 3.095 1.19667 1.45644 0
M  V30 6 C 0.222 2.43627 2.35294 0
M  V30 7 C -0.732 3.65373 2.2001 0
M  V30 8 S 0.101 5.13292 1.52614 0
M  V30 9 C 1.257 5.56322 2.86805 0
M  V30 10 H 1.49 2.90518 0.631377 0
M  V30 11 H -0.977 1.52953 0.210867 0
M  V30 12 H 0.981 2.67203 3.11629 0
M  V30 13 H -0.358 1.57376 2.7183 0
M  V30 14 H -1.165 3.90944 3.18086 0
M  V30 15 H -1.563 3.418 1.51819 0
M  V30 16 H 0.729 5.58782 3.83104 0
M  V30 17 H 1.672 6.56266 2.65933 0
M  V30 18 H 2.08 4.83886 2.90714 0
M  V30 19 N 1.4781 -0.272755 1.55222 0
M  V30 20 C 2.7261 -1.00234 1.75492 0
M  V30 21 C 3.0471 -1.8681 0.5592 0
M  V30 22 O 2.3171 -1.91215 -0.425882 0
M  V30 23 H 0.8971 -0.373076 0.647166 0
M  V30 24 H 3.5591 -0.296926 1.92625 0
M  V30 25 H 2.6551 -1.63913 2.65592 0
M  V30 26 N 2.9562 -1.48159 -0.537278 0
M  V30 27 C 3.9032 -1.62138 -1.64256 0
M  V30 28 C 4.8732 -0.463668 -1.59497 0
M  V30 29 O 6.0582 -0.686241 -1.78032 0
M  V30 30 C 3.1982 -1.66028 -3.02537 0
M  V30 31 C 2.3112 -2.92855 -3.17585 0
M  V30 32 C 1.4462 -2.87952 -4.46382 0
M  V30 33 C 0.4852 -4.09516 -4.54932 0
M  V30 34 N -0.3778 -4.02733 -5.75109 0
M  V30 35 H 4.4622 -2.56529 -1.51647 0
M  V30 36 H 1.9992 -1.27224 -0.738414 0
M  V30 37 H 3.9572 -1.66265 -3.82638 0
M  V30 38 H 2.5872 -0.751331 -3.13934 0
M  V30 39 H 1.6392 -3.02395 -2.30784 0
M  V30 40 H 2.9512 -3.82822 -3.19764 0
M  V30 41 H 2.1052 -2.8655 -5.34765 0
M  V30 42 H 0.8442 -1.95702 -4.46712 0
M  V30 43 H -0.1508 -4.11201 -3.64957 0
M  V30 44 H 1.0742 -5.02917 -4.56346 0
M  V30 45 H -0.9798 -3.13299 -5.76351 0
M  V30 46 H -1.0628 -4.86397 -5.78752 0
M  V30 47 H 0.2052 -4.05379 -6.65799 0
M  V30 48 N 4.4343 0.785586 -1.36625 0
M  V30 49 C 5.3823 1.91978 -1.31329 0
M  V30 50 C 6.3763 1.68162 -0.204416 0
M  V30 51 O 7.5823 1.76122 -0.371645 0
M  V30 52 H 3.9573 0.631087 -0.408942 0
M  V30 53 H 5.9283 1.93562 -2.27104 0
M  V30 54 C 4.6773 3.29055 -1.12329 0
M  V30 55 H 4.0003 3.4795 -1.96903 0
M  V30 56 H 5.4403 4.08756 -1.12671 0
M  V30 57 C 3.8993 3.36461 0.171861 0
M  V30 58 O 4.4293 3.84576 1.16035 0
M  V30 59 N 2.6353 2.89782 0.217846 0
M  V30 60 H 2.1823 2.50819 -0.587183 0
M  V30 61 H 2.1403 2.95119 1.08408 0
M  V30 62 N 5.9124 1.20967 1.01018 0
M  V30 63 C 6.8594 0.964281 2.09691 0
M  V30 64 C 7.8294 -0.107853 1.65749 0
M  V30 65 O 9.0144 0.0381987 1.90762 0
M  V30 66 C 6.1544 0.52943 3.41015 0
M  V30 67 C 5.2674 1.67043 3.98398 0
M  V30 68 C 4.4024 1.18525 5.17808 0
M  V30 69 C 3.4414 2.29892 5.67288 0
M  V30 70 N 2.5784 1.82546 6.77954 0
M  V30 71 H 7.4184 1.89463 2.30017 0
M  V30 72 H 4.9554 0.944289 1.1279 0
M  V30 73 H 6.9134 0.258588 4.16398 0
M  V30 74 H 5.5434 -0.363919 3.20742 0
M  V30 75 H 4.5954 2.05603 3.20049 0
M  V30 76 H 5.9074 2.50877 4.31117 0
M  V30 77 H 5.0614 0.870762 6.00419 0
M  V30 78 H 3.8004 0.316887 4.86669 0
M  V30 79 H 2.8054 2.6215 4.83278 0
M  V30 80 H 4.0304 3.17216 6.00459 0
M  V30 81 H 1.9764 0.980454 6.48632 0
M  V30 82 H 1.8934 2.59956 7.09901 0
M  V30 83 H 3.1614 1.54115 7.64113 0
M  V30 84 N 7.3905 -1.2043 1.01659 0
M  V30 85 C 8.3205 -2.25466 0.607226 0
M  V30 86 C 9.3015 -1.65853 -0.377716 0
M  V30 87 O 10.4865 -1.92409 -0.263149 0
M  V30 88 C 7.6165 -3.47256 -0.0552949 0
M  V30 89 C 6.5705 -4.19462 0.850632 0
M  V30 90 C 5.8965 -5.34673 0.0538859 0
M  V30 91 C 7.1965 -4.75603 2.15868 0
M  V30 92 H 8.8905 -2.59962 1.48526 0
M  V30 93 H 6.4365 -1.2496 0.715605 0
M  V30 94 H 8.3895 -4.19917 -0.353233 0
M  V30 95 H 7.1135 -3.11924 -0.968045 0
M  V30 96 H 5.7725 -3.48667 1.13257 0
M  V30 97 H 5.4205 -4.95585 -0.860514 0
M  V30 98 H 5.1205 -5.83913 0.657192 0
M  V30 99 H 6.6445 -6.10138 -0.237598 0
M  V30 100 H 8.0585 -5.40083 1.92311 0
M  V30 101 H 6.4555 -5.3528 2.71284 0
M  V30 102 H 7.5255 -3.94346 2.82169 0
M  V30 103 N 8.8686 -0.792821 -1.36206 0
M  V30 104 C 9.7986 -0.207853 -2.32573 0
M  V30 105 C 10.7796 0.659055 -1.56813 0
M  V30 106 O 11.9646 0.592176 -1.84951 0
M  V30 107 C 9.0946 0.655449 -3.41059 0
M  V30 108 C 8.0486 -0.111842 -4.27854 0
M  V30 109 C 7.3746 0.872274 -5.27537 0
M  V30 110 C 8.6746 -1.30299 -5.05786 0
M  V30 111 H 10.3686 -1.01294 -2.81744 0
M  V30 112 H 7.9146 -0.48854 -1.3546 0
M  V30 113 H 9.8676 1.07464 -4.07467 0
M  V30 114 H 8.5916 1.49328 -2.90463 0
M  V30 115 H 7.2506 -0.512053 -3.63006 0
M  V30 116 H 6.8986 1.70523 -4.73214 0
M  V30 117 H 6.5986 0.363291 -5.86476 0
M  V30 118 H 8.1226 1.28996 -5.96818 0
M  V30 119 H 9.5366 -0.959379 -5.65216 0
M  V30 120 H 7.9336 -1.7455 -5.74154 0
M  V30 121 H 9.0036 -2.09663 -4.37229 0
M  V30 122 N 10.3467 1.47872 -0.545128 0
M  V30 123 C 11.2967 2.26842 0.229456 0
M  V30 124 C 12.2807 1.33626 0.896267 0
M  V30 125 O 13.4727 1.58063 0.79657 0
M  V30 126 C 10.6017 3.19089 1.26638 0
M  V30 127 C 9.6877 4.19783 0.603598 0
M  V30 128 N 10.0787 5.0479 -0.319405 0
M  V30 129 C 8.3767 4.3765 0.858989 0
M  V30 130 C 9.0777 5.77433 -0.703241 0
M  V30 131 N 8.0537 5.43566 -0.0608309 0
M  V30 132 H 11.8557 2.89947 -0.480391 0
M  V30 133 H 9.3697 1.58263 -0.364209 0
M  V30 134 H 11.3667 3.74337 1.83515 0
M  V30 135 H 10.0267 2.5754 1.97745 0
M  V30 136 H 11.0377 5.13244 -0.692889 0
M  V30 137 H 7.7147 3.87281 1.55948 0
M  V30 138 H 9.1047 6.55824 -1.46098 0
M  V30 139 N 11.8248 0.280983 1.55075 0
M  V30 140 C 13.2358 -0.215629 1.85451 0
M  V30 141 C 13.5868 -1.54991 1.203 0
M  V30 142 O 12.7118 -2.10699 0.493435 0
M  V30 143 C 13.3068 -0.398026 3.36454 0
M  V30 144 C 11.8658 -0.838866 3.66933 0
M  V30 145 C 11.0128 0.064458 2.77225 0
M  V30 146 H 13.9638 0.502601 1.50531 0
M  V30 147 H 13.9848 -1.23569 3.59876 0
M  V30 148 H 13.4968 0.573241 3.83843 0
M  V30 149 H 11.5978 -1.8214 3.25048 0
M  V30 150 H 11.7108 -0.672123 4.74362 0
M  V30 151 H 10.0748 -0.452863 2.50642 0
M  V30 152 H 10.8578 1.03172 3.2743 0
M  V30 153 N 13.3029 -1.57598 0.00835791 0
M  V30 154 C 14.5279 -1.95617 -0.689103 0
M  V30 155 C 14.9529 -0.883753 -1.66046 0
M  V30 156 O 14.3109 0.157352 -1.80616 0
M  V30 157 C 14.3589 -3.32736 -1.38994 0
M  V30 158 O 13.4629 -3.27631 -2.50463 0
M  V30 159 H 12.8039 -0.638379 -0.182668 0
M  V30 160 H 15.3339 -2.045 0.064036 0
M  V30 161 H 15.3439 -3.68494 -1.75147 0
M  V30 162 H 14.0189 -4.1034 -0.677778 0
M  V30 163 H 12.5959 -3.03561 -2.16576 0
M  V30 164 N 14.781 0.264519 -1.55364 0
M  V30 165 C 15.711 1.33121 -1.91836 0
M  V30 166 C 16.692 1.51101 -0.781192 0
M  V30 167 O 17.877 1.64003 -1.04003 0
M  V30 168 C 15.007 2.68921 -2.19769 0
M  V30 169 C 13.961 2.65661 -3.35571 0
M  V30 170 C 13.287 4.05093 -3.49004 0
M  V30 171 C 14.587 2.24187 -4.71739 0
M  V30 172 H 16.281 1.02844 -2.81182 0
M  V30 173 H 13.827 0.493286 -1.35287 0
M  V30 174 H 15.78 3.43663 -2.43872 0
M  V30 175 H 14.504 3.00799 -1.27231 0
M  V30 176 H 13.163 1.93377 -3.1145 0
M  V30 177 H 12.811 4.34206 -2.53917 0
M  V30 178 H 12.511 4.03804 -4.26868 0
M  V30 179 H 14.035 4.81561 -3.75408 0
M  V30 180 H 15.449 2.88654 -4.9533 0
M  V30 181 H 13.846 2.34044 -5.52579 0
M  V30 182 H 14.916 1.19327 -4.69988 0
M  V30 183 N 16.2591 1.48442 0.529413 0
M  V30 184 C 17.5051 1.5672 1.28711 0
M  V30 185 C 17.8381 0.2406 1.92704 0
M  V30 186 O 17.1131 -0.753454 1.79313 0
M  V30 187 C 17.3961 2.70587 2.37603 0
M  V30 188 C 17.2491 4.12953 1.78297 0
M  V30 189 C 18.5681 2.80212 3.39366 0
M  V30 190 H 15.6871 0.570474 0.466613 0
M  V30 191 H 18.3291 1.80617 0.589706 0
M  V30 192 H 16.4791 2.50342 2.97088 0
M  V30 193 H 18.1511 4.44639 1.22858 0
M  V30 194 H 16.3941 4.19927 1.0883 0
M  V30 195 H 17.0651 4.88448 2.57144 0
M  V30 196 H 19.5411 2.98553 2.89836 0
M  V30 197 H 18.4171 3.61611 4.12951 0
M  V30 198 H 18.6781 1.88393 3.99951 0
M  V30 199 N 17.7372 -0.778329 1.37039 0
M  V30 200 C 18.6672 -1.90546 1.34962 0
M  V30 201 C 19.6482 -1.68681 0.219274 0
M  V30 202 O 20.8332 -1.89634 0.418624 0
M  V30 203 C 17.9632 -3.27734 1.14925 0
M  V30 204 C 16.9172 -3.64147 2.24902 0
M  V30 205 C 16.2432 -4.99806 1.89996 0
M  V30 206 C 17.5432 -3.71579 3.67051 0
M  V30 207 H 19.2372 -1.92541 2.29277 0
M  V30 208 H 16.7832 -0.924948 1.10366 0
M  V30 209 H 18.7362 -4.06215 1.12104 0
M  V30 210 H 17.4602 -3.26154 0.170631 0
M  V30 211 H 16.1192 -2.8797 2.26868 0
M  V30 212 H 15.7672 -4.94759 0.906796 0
M  V30 213 H 15.4672 -5.25139 2.63634 0
M  V30 214 H 16.9912 -5.80694 1.88749 0
M  V30 215 H 18.4052 -4.40227 3.67251 0
M  V30 216 H 16.8022 -4.08405 4.39688 0
M  V30 217 H 17.8722 -2.72404 4.01154 0
M  V30 218 N 19.2153 -1.21501 -1.00376 0
M  V30 219 C 20.1453 -0.999478 -2.11028 0
M  V30 220 C 21.1263 0.0759671 -1.6993 0
M  V30 221 O 22.3113 -0.0841106 -1.94018 0
M  V30 222 C 19.4413 -0.564709 -3.42678 0
M  V30 223 C 18.3953 -1.58486 -3.97576 0
M  V30 224 C 17.7213 -1.00628 -5.25146 0
M  V30 225 C 19.0213 -2.97204 -4.29496 0
M  V30 226 H 20.7153 -1.92495 -2.29317 0
M  V30 227 H 18.2613 -0.92693 -1.102 0
M  V30 228 H 20.2143 -0.401091 -4.19487 0
M  V30 229 H 18.9383 0.396411 -3.24185 0
M  V30 230 H 17.5973 -1.73606 -3.22888 0
M  V30 231 H 17.2453 -0.0368439 -5.02987 0
M  V30 232 H 16.9453 -1.68771 -5.62841 0
M  V30 233 H 18.4693 -0.854015 -6.04598 0
M  V30 234 H 19.8833 -2.8552 -4.97143 0
M  V30 235 H 18.2803 -3.62372 -4.78338 0
M  V30 236 H 19.3503 -3.47956 -3.3772 0
M  V30 237 N 20.6934 1.19889 -1.02296 0
M  V30 238 C 21.6234 2.25141 -0.619174 0
M  V30 239 C 22.6044 1.66051 0.368915 0
M  V30 240 O 23.7894 1.92546 0.252941 0
M  V30 241 C 20.9194 3.4728 0.0368783 0
M  V30 242 C 19.8734 4.19005 -0.872865 0
M  V30 243 C 19.1994 5.34637 -0.0822402 0
M  V30 244 C 20.4994 4.74452 -2.18387 0
M  V30 245 H 22.1934 2.59171 -1.49903 0
M  V30 246 H 19.7394 1.24579 -0.722222 0
M  V30 247 H 21.6924 4.20098 0.330958 0
M  V30 248 H 20.4164 3.12433 0.95149 0
M  V30 249 H 19.0754 3.48061 -1.15105 0
M  V30 250 H 18.7234 4.96034 0.83422 0
M  V30 251 H 18.4234 5.83557 -0.688149 0
M  V30 252 H 19.9474 6.10255 0.205238 0
M  V30 253 H 21.3614 5.39055 -1.95172 0
M  V30 254 H 19.7584 5.33834 -2.74119 0
M  V30 255 H 20.8284 3.92844 -2.84257 0
M  V30 256 N 22.1715 0.800033 1.35784 0
M  V30 257 C 23.1015 0.220184 2.3246 0
M  V30 258 C 24.0825 -0.65073 1.57161 0
M  V30 259 O 25.2675 -0.582359 1.85263 0
M  V30 260 C 22.3975 -0.637353 3.41402 0
M  V30 261 C 21.3515 0.134531 4.27789 0
M  V30 262 C 20.6775 -0.844285 5.27992 0
M  V30 263 C 21.9775 1.32979 5.05088 0
M  V30 264 H 23.6715 1.02787 2.81203 0
M  V30 265 H 21.2175 0.495717 1.35199 0
M  V30 266 H 23.1705 -1.05302 4.08031 0
M  V30 267 H 21.8945 -1.47785 2.91251 0
M  V30 268 H 20.5535 0.531296 3.6273 0
M  V30 269 H 20.2015 -1.68011 4.74111 0
M  V30 270 H 19.9015 -0.332184 5.8666 0
M  V30 271 H 21.4255 -1.2583 5.97494 0
M  V30 272 H 22.8395 0.98934 5.64699 0
M  V30 273 H 21.2365 1.77593 5.7322 0
M  V30 274 H 22.3065 2.11978 4.36111 0
M  V30 275 N 23.6496 -1.47581 0.552962 0
M  V30 276 C 24.8956 -2.02782 0.0273648 0
M  V30 277 C 25.2286 -1.42687 -1.31734 0
M  V30 278 O 24.5036 -0.580897 -1.85623 0
M  V30 279 C 24.7866 -3.60031 -0.0702371 0
M  V30 280 C 24.6396 -4.30566 1.30126 0
M  V30 281 C 25.9586 -4.33028 -0.785771 0
M  V30 282 H 23.0776 -0.736912 0.0114185 0
M  V30 283 H 25.7196 -1.76056 0.714432 0
M  V30 284 H 23.8696 -3.82932 -0.655382 0
M  V30 285 H 25.5416 -4.19018 1.92929 0
M  V30 286 H 23.7846 -3.91086 1.87709 0
M  V30 287 H 24.4556 -5.39114 1.18573 0
M  V30 288 H 26.9316 -4.15095 -0.288982 0
M  V30 289 H 25.8076 -5.42695 -0.823013 0
M  V30 290 H 26.0686 -4.01945 -1.841 0
M  V30 291 N 25.1277 -0.289203 -1.54924 0
M  V30 292 C 26.0577 0.58549 -2.2604 0
M  V30 293 C 27.0387 1.14753 -1.25562 0
M  V30 294 O 28.2237 1.17906 -1.54311 0
M  V30 295 C 25.3537 1.76305 -2.99222 0
M  V30 296 C 24.3077 1.33191 -4.06748 0
M  V30 297 C 23.6337 2.5937 -4.6758 0
M  V30 298 C 24.9337 0.471775 -5.20165 0
M  V30 299 H 26.6277 -0.00763532 -2.99399 0
M  V30 300 H 24.1737 -0.00511229 -1.43999 0
M  V30 301 H 26.1267 2.38097 -3.47689 0
M  V30 302 H 24.8507 2.38223 -2.23422 0
M  V30 303 H 23.5097 0.737121 -3.59113 0
M  V30 304 H 23.1577 3.19576 -3.88433 0
M  V30 305 H 22.8577 2.31228 -5.40192 0
M  V30 306 H 24.3817 3.21985 -5.18804 0
M  V30 307 H 25.7957 0.995056 -5.64599 0
M  V30 308 H 24.1927 0.284639 -5.99425 0
M  V30 309 H 25.2627 -0.506041 -4.82252 0
M  V30 310 N 26.6058 1.57591 -0.0167156 0
M  V30 311 C 27.5358 2.12496 0.967858 0
M  V30 312 C 28.5168 1.03807 1.34752 0
M  V30 313 O 29.7018 1.31577 1.42833 0
M  V30 314 C 26.8318 2.64194 2.25431 0
M  V30 315 C 25.7858 3.77559 2.01576 0
M  V30 316 C 25.1118 4.15636 3.36379 0
M  V30 317 C 26.4118 5.04151 1.36489 0
M  V30 318 H 28.1058 2.95013 0.510643 0
M  V30 319 H 25.6518 1.41915 0.244181 0
M  V30 320 H 27.6048 3.01236 2.94678 0
M  V30 321 H 26.3288 1.78821 2.73296 0
M  V30 322 H 24.9878 3.40937 1.34751 0
M  V30 323 H 24.6358 3.27263 3.81979 0
M  V30 324 H 24.3358 4.92022 3.21229 0
M  V30 325 H 25.8598 4.5525 4.06915 0
M  V30 326 H 27.2738 5.38857 1.95718 0
M  V30 327 H 25.6708 5.85453 1.31776 0
M  V30 328 H 26.7408 4.83733 0.336219 0
M  V30 329 N 28.0839 -0.256276 1.55502 0
M  V30 330 C 29.4949 -0.826068 1.67431 0
M  V30 331 C 29.8459 -1.86396 0.612446 0
M  V30 332 O 28.9709 -2.15031 -0.243025 0
M  V30 333 C 29.5659 -1.50512 3.03532 0
M  V30 334 C 28.1249 -2.02273 3.17431 0
M  V30 335 C 27.2719 -0.870548 2.63281 0
M  V30 336 H 30.2229 -0.0322728 1.58667 0
M  V30 337 H 30.2439 -2.37279 2.97454 0
M  V30 338 H 29.7559 -0.749484 3.80794 0
M  V30 339 H 27.8569 -2.80746 2.44974 0
M  V30 340 H 27.9699 -2.22655 4.24219 0
M  V30 341 H 26.3339 -1.26851 2.20864 0
M  V30 342 H 27.1169 -0.128149 3.43061 0
M  V30 343 N 29.562 -1.4872 -0.521534 0
M  V30 344 C 30.79 -1.60843 -1.30142 0
M  V30 345 C 31.205 -0.271897 -1.86832 0
M  V30 346 O 30.562 0.739969 -1.66825 0
M  V30 347 C 30.613 -2.66155 -2.4463 0
M  V30 348 O 30.334 -3.94623 -1.90275 0
M  V30 349 C 31.835 -2.88795 -3.36322 0
M  V30 350 H 29.055 -0.542075 -0.395468 0
M  V30 351 H 31.599 -1.94609 -0.628285 0
M  V30 352 H 29.754 -2.35224 -3.07812 0
M  V30 353 H 30.168 -4.52468 -2.65279 0
M  V30 354 H 31.642 -3.66264 -4.12983 0
M  V30 355 H 32.119 -1.97934 -3.9207 0
M  V30 356 H 32.725 -3.21063 -2.78924 0
M  V30 357 N 31.0401 0.771051 -1.3745 0
M  V30 358 C 32.3171 1.519 -1.23231 0
M  V30 359 C 32.6971 2.10383 0.173809 0
M  V30 360 O 32.0451 1.95583 1.18151 0
M  V30 361 C 32.2551 2.59933 -2.32886 0
M  V30 362 C 33.6031 3.27316 -2.70461 0
M  V30 363 O 34.6271 2.70228 -2.32068 0
M  V30 364 O 33.4861 4.30531 -3.36608 0
M  V30 365 H 30.5801 0.672803 -0.480901 0
M  V30 366 H 33.1261 0.807957 -1.49232 0
M  V30 367 H 31.8981 2.14842 -3.27045 0
M  V30 368 H 31.5211 3.38637 -2.08353 0
M  V30 369 N 32.5182 1.22032 0.997298 0
M  V30 370 C 33.4812 0.987909 2.06816 0
M  V30 371 C 34.4812 -0.0440084 1.6074 0
M  V30 372 O 35.6712 0.194053 1.73116 0
M  V30 373 C 32.8032 0.49132 3.37341 0
M  V30 374 H 33.9962 1.93803 2.28868 0
M  V30 375 H 31.5492 1.03838 1.16822 0
M  V30 376 H 32.2842 -0.463364 3.20973 0
M  V30 377 H 32.0692 1.23575 3.72118 0
M  V30 378 H 33.5592 0.348824 4.16141 0
M  V30 379 N 33.9963 -1.19345 1.0293 0
M  V30 380 C 35.2213 -1.93538 0.745511 0
M  V30 381 C 35.6463 -1.75007 -0.689511 0
M  V30 382 O 35.0043 -1.05265 -1.47611 0
M  V30 383 C 35.0523 -3.43336 1.10239 0
M  V30 384 O 34.1563 -4.11806 0.221289 0
M  V30 385 H 33.4973 -0.604193 0.275404 0
M  V30 386 H 36.0273 -1.5141 1.37609 0
M  V30 387 H 36.0373 -3.94004 1.05947 0
M  V30 388 H 34.7123 -3.56146 2.14786 0
M  V30 389 H 33.2893 -3.715 0.322842 0
M  V30 390 N 35.4744 -0.807222 -1.35358 0
M  V30 391 C 36.7204 -0.388463 -1.99045 0
M  V30 392 C 37.0534 1.04184 -1.63888 0
M  V30 393 O 36.3284 1.72292 -0.902535 0
M  V30 394 C 36.6114 -0.572783 -3.55515 0
M  V30 395 C 36.4644 -2.04807 -4.00468 0
M  V30 396 C 37.7834 0.00114064 -4.401 0
M  V30 397 H 34.9024 -0.142619 -0.723069 0
M  V30 398 H 37.5444 -1.01687 -1.60498 0
M  V30 399 H 35.6944 -0.0378425 -3.88482 0
M  V30 400 H 37.3664 -2.64544 -3.77908 0
M  V30 401 H 35.6094 -2.54427 -3.51353 0
M  V30 402 H 36.2804 -2.12792 -5.09337 0
M  V30 403 H 38.7564 -0.455716 -4.13597 0
M  V30 404 H 37.6324 -0.157737 -5.48673 0
M  V30 405 H 37.8934 1.09488 -4.28328 0
M  V30 406 N 36.9525 1.47285 -0.560781 0
M  V30 407 C 38.1775 2.07359 -0.0410566 0
M  V30 408 C 38.6025 1.41017 1.24483 0
M  V30 409 O 37.9605 0.486368 1.74654 0
M  V30 410 C 38.0085 3.6035 0.134123 0
M  V30 411 O 37.1125 3.94681 1.19587 0
M  V30 412 H 36.4535 0.661887 -0.0529291 0
M  V30 413 H 38.9835 1.89252 -0.777482 0
M  V30 414 H 38.9935 4.0652 0.347207 0
M  V30 415 H 37.6685 4.08034 -0.805047 0
M  V30 416 H 36.2455 3.60251 0.962987 0
M  V30 417 N 38.4306 0.297415 1.54768 0
M  V30 418 C 39.6786 -0.312295 1.99673 0
M  V30 419 C 39.9996 -1.54686 1.18732 0
M  V30 420 O 39.2696 -1.93854 0.282382 0
M  V30 421 H 37.8496 -0.118381 0.73756 0
M  V30 422 H 40.5116 0.407915 1.90583 0
M  V30 423 H 39.6076 -0.586813 3.06534 0
M  V30 424 N 39.9087 -1.5758 0.0250728 0
M  V30 425 C 40.8557 -2.09973 -0.958129 0
M  V30 426 C 41.8257 -1.00085 -1.3256 0
M  V30 427 O 43.0107 -1.27481 -1.41962 0
M  V30 428 C 40.1507 -2.62812 -2.2366 0
M  V30 429 C 39.2637 -3.86693 -1.92594 0
M  V30 430 C 38.3987 -4.27941 -3.14707 0
M  V30 431 C 37.4377 -5.44591 -2.79442 0
M  V30 432 N 36.5747 -5.81014 -3.94167 0
M  V30 433 H 41.4147 -2.937 -0.504428 0
M  V30 434 H 38.9517 -1.45172 -0.237392 0
M  V30 435 H 40.9097 -2.91536 -2.98434 0
M  V30 436 H 39.5397 -1.81922 -2.66654 0
M  V30 437 H 38.5917 -3.64723 -1.0808 0
M  V30 438 H 39.9037 -4.71547 -1.62619 0
M  V30 439 H 39.0577 -4.58079 -3.97804 0
M  V30 440 H 37.7967 -3.41845 -3.4784 0
M  V30 441 H 36.8017 -5.1415 -1.94755 0
M  V30 442 H 38.0267 -6.32382 -2.47528 0
M  V30 443 H 35.9727 -4.97874 -4.2715 0
M  V30 444 H 35.8897 -6.60498 -3.67801 0
M  V30 445 H 37.1577 -6.15756 -4.7798 0
M  V30 446 N 41.3868 0.248026 -1.55636 0
M  V30 447 C 42.7978 0.817177 -1.67866 0
M  V30 448 C 43.1488 1.86069 -0.622322 0
M  V30 449 O 42.2738 2.15157 0.231618 0
M  V30 450 C 42.8688 1.489 -3.04326 0
M  V30 451 C 41.4278 2.00587 -3.185 0
M  V30 452 C 40.5748 0.856573 -2.63739 0
M  V30 453 H 43.5258 0.0238579 -1.58682 0
M  V30 454 H 43.5468 2.35698 -2.98708 0
M  V30 455 H 43.0588 0.729279 -3.81186 0
M  V30 456 H 41.1598 2.79443 -2.4646 0
M  V30 457 H 41.2728 2.20402 -4.25393 0
M  V30 458 H 39.6368 1.25678 -2.21534 0
M  V30 459 H 40.4198 0.109953 -3.43124 0
M  V30 460 N 42.8649 1.48995 0.513639 0
M  V30 461 C 43.7969 1.60836 1.63293 0
M  V30 462 C 44.8099 0.491701 1.55197 0
M  V30 463 O 45.9989 0.763238 1.6136 0
M  V30 464 C 43.0989 1.53731 3.02027 0
M  V30 465 C 42.2719 2.80715 3.35437 0
M  V30 466 C 41.3309 2.66837 4.53525 0
M  V30 467 O 40.3569 3.40753 4.55934 0
M  V30 468 N 41.5589 1.77539 5.52684 0
M  V30 469 H 44.3239 2.57366 1.53566 0
M  V30 470 H 41.8849 1.45925 0.701259 0
M  V30 471 H 43.8769 1.42118 3.78926 0
M  V30 472 H 42.4469 0.651092 3.05744 0
M  V30 473 H 41.6669 3.06772 2.47557 0
M  V30 474 H 42.9549 3.64927 3.54551 0
M  V30 475 H 42.3529 1.16719 5.53528 0
M  V30 476 H 40.9099 1.71856 6.28736 0
M  V30 477 N 44.343 -0.763751 1.37857 0
M  V30 478 C 45.573 -1.55067 1.3652 0
M  V30 479 C 45.981 -1.89135 -0.0494227 0
M  V30 480 O 45.324 -1.52529 -1.02375 0
M  V30 481 C 45.386 -2.8838 2.14656 0
M  V30 482 C 45.05 -2.76905 3.63555 0
M  V30 483 C 46.047 -2.4739 4.57268 0
M  V30 484 C 43.732 -2.94676 4.06781 0
M  V30 485 C 45.726 -2.35786 5.92186 0
M  V30 486 C 43.413 -2.82692 5.41782 0
M  V30 487 C 44.411 -2.53289 6.34298 0
M  V30 488 O 44.099 -2.41345 7.66817 0
M  V30 489 H 43.831 -0.486776 0.469069 0
M  V30 490 H 46.385 -0.953812 1.81911 0
M  V30 491 H 44.615 -3.50217 1.63967 0
M  V30 492 H 46.304 -3.49828 2.05852 0
M  V30 493 H 47.07 -2.33339 4.2518 0
M  V30 494 H 42.949 -3.16563 3.35126 0
M  V30 495 H 46.493 -2.12757 6.64365 0
M  V30 496 H 42.39 -2.96314 5.7347 0
M  V30 497 H 43.158 -2.56634 7.77226 0
M  V30 498 N 45.8211 -1.22559 -0.990812 0
M  V30 499 C 46.7541 -0.940773 -2.07905 0
M  V30 500 C 47.7321 0.117082 -1.62178 0
M  V30 501 O 48.9161 -0.0149506 -1.88494 0
M  V30 502 C 46.0431 -0.415321 -3.36144 0
M  V30 503 C 45.0891 -1.45818 -4.00799 0
M  V30 504 S 45.9221 -3.03219 -4.41382 0
M  V30 505 C 47.0781 -2.52317 -5.72789 0
M  V30 506 H 47.3111 -1.8623 -2.31745 0
M  V30 507 H 44.8441 -1.05688 -1.12558 0
M  V30 508 H 46.8021 -0.118747 -4.10328 0
M  V30 509 H 45.4631 0.485121 -3.10331 0
M  V30 510 H 44.6561 -1.04044 -4.93144 0
M  V30 511 H 44.2581 -1.70356 -3.32949 0
M  V30 512 H 46.5501 -1.93688 -6.49224 0
M  V30 513 H 47.4931 -3.43161 -6.19392 0
M  V30 514 H 47.9011 -1.93529 -5.30289 0
M  V30 515 N 47.2992 1.18797 -1.03562 0
M  V30 516 C 48.5452 1.8893 -0.737113 0
M  V30 517 C 48.8782 1.79837 0.732956 0
M  V30 518 O 48.1532 1.19525 1.5344 0
M  V30 519 C 48.4362 3.39607 -1.19745 0
M  V30 520 C 48.2892 3.57537 -2.72924 0
M  V30 521 C 49.6082 4.33069 -0.783526 0
M  V30 522 H 46.7272 0.686057 -0.269249 0
M  V30 523 H 49.3692 1.39797 -1.28673 0
M  V30 524 H 47.5192 3.81583 -0.729855 0
M  V30 525 H 49.1912 3.24688 -3.27682 0
M  V30 526 H 47.4342 3.00363 -3.12993 0
M  V30 527 H 48.1052 4.63238 -3.00191 0
M  V30 528 H 50.5812 3.98846 -1.18581 0
M  V30 529 H 49.4572 5.3707 -1.13343 0
M  V30 530 H 49.7182 4.40986 0.313681 0
M  V30 531 N 48.7773 0.814389 1.34928 0
M  V30 532 C 49.7073 0.244827 2.32213 0
M  V30 533 C 50.6883 -0.634024 1.57842 0
M  V30 534 O 51.8733 -0.562676 1.8587 0
M  V30 535 C 49.0033 -0.601106 3.42058 0
M  V30 536 C 47.9573 0.179896 4.27622 0
M  V30 537 C 47.2833 -0.788237 5.28858 0
M  V30 538 C 48.5833 1.38329 5.03649 0
M  V30 539 H 50.2773 1.05763 2.80097 0
M  V30 540 H 47.8233 0.510029 1.34665 0
M  V30 541 H 49.7763 -1.00968 4.09125 0
M  V30 542 H 48.5003 -1.44688 2.92802 0
M  V30 543 H 47.1593 0.569739 3.62146 0
M  V30 544 H 46.8073 -1.62973 4.75866 0
M  V30 545 H 46.5073 -0.269942 5.8698 0
M  V30 546 H 48.0313 -1.19485 5.98795 0
M  V30 547 H 49.4453 1.04918 5.63618 0
M  V30 548 H 47.8423 1.83662 5.71304 0
M  V30 549 H 48.9123 2.16592 4.33839 0
M  V30 550 N 50.2554 -1.46986 0.568584 0
M  V30 551 C 51.5014 -2.02741 0.0488709 0
M  V30 552 C 51.8344 -1.44077 -1.30214 0
M  V30 553 O 51.1094 -0.600552 -1.84996 0
M  V30 554 C 51.3924 -3.60086 -0.032047 0
M  V30 555 C 51.2454 -4.29162 1.34686 0
M  V30 556 C 52.5644 -4.33838 -0.739798 0
M  V30 557 H 49.6834 -0.736749 0.0192338 0
M  V30 558 H 52.3254 -1.75289 0.733065 0
M  V30 559 H 50.4754 -3.83606 -0.61473 0
M  V30 560 H 52.1474 -4.16948 1.97362 0
M  V30 561 H 50.3904 -3.89073 1.91846 0
M  V30 562 H 51.0614 -5.37826 1.24285 0
M  V30 563 H 53.5374 -4.15378 -0.244939 0
M  V30 564 H 52.4134 -5.43537 -0.765406 0
M  V30 565 H 52.6744 -4.03875 -1.79827 0
M  V30 566 N 51.7335 -0.305618 -1.54608 0
M  V30 567 C 53.1445 0.186098 -1.8577 0
M  V30 568 C 53.4955 1.53058 -1.22751 0
M  V30 569 O 52.6205 2.09888 -0.526893 0
M  V30 570 C 53.2155 0.344449 -3.37044 0
M  V30 571 C 51.7745 0.780384 -3.68221 0
M  V30 572 C 50.9215 -0.108554 -2.77087 0
M  V30 573 H 53.8725 -0.526485 -1.49712 0
M  V30 574 H 53.8935 1.17828 -3.61796 0
M  V30 575 H 53.4055 -0.634235 -3.82883 0
M  V30 576 H 51.5065 1.76945 -3.27904 0
M  V30 577 H 51.6195 0.596572 -4.75371 0
M  V30 578 H 49.9835 0.412931 -2.5133 0
M  V30 579 H 50.7665 -1.08368 -3.25747 0
M  V30 580 N 53.2116 1.57565 -0.0334293 0
M  V30 581 C 54.4366 1.96689 0.657895 0
M  V30 582 C 54.8616 0.910057 1.64619 0
M  V30 583 O 54.2196 -0.128598 1.80843 0
M  V30 584 C 54.2676 3.34905 1.33683 0
M  V30 585 O 53.3716 3.31574 2.45219 0
M  V30 586 H 52.7126 0.641205 0.172489 0
M  V30 587 H 55.2426 2.04372 -0.0965621 0
M  V30 588 H 55.2526 3.71234 1.69262 0
M  V30 589 H 53.9276 4.11366 0.612411 0
M  V30 590 H 52.5046 3.06968 2.11719 0
M  V30 591 N 54.6897 -0.239769 1.55765 0
M  V30 592 C 55.6197 -1.30052 1.9393 0
M  V30 593 C 56.6007 -1.49839 0.805132 0
M  V30 594 O 57.7857 -1.62328 1.06599 0
M  V30 595 C 54.9157 -2.65391 2.2402 0
M  V30 596 C 53.8697 -2.60289 3.39755 0
M  V30 597 C 53.1957 -3.99489 3.55405 0
M  V30 598 C 54.4957 -2.16654 4.75246 0
M  V30 599 H 56.1897 -0.983573 2.82783 0
M  V30 600 H 53.7357 -0.471701 1.36055 0
M  V30 601 H 55.6887 -3.3974 2.49308 0
M  V30 602 H 54.4127 -2.98736 1.32 0
M  V30 603 H 53.0717 -1.88398 3.14487 0
M  V30 604 H 52.7197 -4.30112 2.60793 0
M  V30 605 H 52.4197 -3.96962 4.33238 0
M  V30 606 H 53.9437 -4.75528 3.83022 0
M  V30 607 H 55.3577 -2.80737 4.99859 0
M  V30 608 H 53.7547 -2.25223 5.56232 0
M  V30 609 H 54.8247 -1.11835 4.71827 0
M  V30 610 N 56.1678 -1.49265 -0.50573 0
M  V30 611 C 57.0978 -1.68495 -1.61653 0
M  V30 612 C 58.0788 -0.53366 -1.61512 0
M  V30 613 O 59.2638 -0.76897 -1.78327 0
M  V30 614 C 56.3938 -1.74709 -3.00157 0
M  V30 615 C 55.3478 -2.89581 -3.15162 0
M  V30 616 C 54.6738 -2.80903 -4.5497 0
M  V30 617 C 55.9738 -4.30578 -2.95634 0
M  V30 618 H 57.6678 -2.61493 -1.45814 0
M  V30 619 H 55.2138 -1.25838 -0.70005 0
M  V30 620 H 57.1668 -1.86748 -3.77761 0
M  V30 621 H 55.8908 -0.783067 -3.17074 0
M  V30 622 H 54.5498 -2.77136 -2.39982 0
M  V30 623 H 54.1978 -1.82419 -4.68756 0
M  V30 624 H 53.8978 -3.57999 -4.65951 0
M  V30 625 H 55.4218 -2.94944 -5.34641 0
M  V30 626 H 56.8358 -4.4373 -3.63011 0
M  V30 627 H 55.2328 -5.0886 -3.18091 0
M  V30 628 H 56.3028 -4.45352 -1.91806 0
M  V30 629 N 57.6459 0.756429 -1.3826 0
M  V30 630 C 58.5959 1.86069 -1.31766 0
M  V30 631 C 59.5799 1.59621 -0.202483 0
M  V30 632 O 60.7719 1.7149 -0.438211 0
M  V30 633 C 57.9009 3.23742 -1.1422 0
M  V30 634 C 56.9869 3.56091 -2.30348 0
M  V30 635 N 57.3779 3.59517 -3.55783 0
M  V30 636 C 55.6759 3.86341 -2.22838 0
M  V30 637 C 56.3769 3.89052 -4.32451 0
M  V30 638 N 55.3529 4.05736 -3.61772 0
M  V30 639 H 59.1549 1.86992 -2.26741 0
M  V30 640 H 56.6689 0.953643 -1.31451 0
M  V30 641 H 58.6659 4.02761 -1.07652 0
M  V30 642 H 57.3259 3.24073 -0.201763 0
M  V30 643 H 58.3369 3.41347 -3.89491 0
M  V30 644 H 55.0139 3.94404 -1.36937 0
M  V30 645 H 56.4039 3.98349 -5.4108 0
M  V30 646 N 59.124 1.23083 0.984299 0
M  V30 647 C 60.352 1.08714 1.76037 0
M  V30 648 C 60.767 -0.361691 1.85303 0
M  V30 649 O 60.124 -1.25034 1.32939 0
M  V30 650 C 60.175 1.70206 3.18923 0
M  V30 651 O 59.896 3.09423 3.10144 0
M  V30 652 C 61.397 1.61227 4.12941 0
M  V30 653 H 58.617 0.380664 0.552572 0
M  V30 654 H 61.161 1.62853 1.23689 0
M  V30 655 H 59.316 1.20109 3.6831 0
M  V30 656 H 59.73 3.39188 4.00065 0
M  V30 657 H 61.204 2.08962 5.10919 0
M  V30 658 H 61.681 0.570375 4.35481 0
M  V30 659 H 62.287 2.10671 3.69456 0
M  V30 660 N 60.6021 -1.18246 1.0419 0
M  V30 661 C 61.5121 -2.25574 0.644476 0
M  V30 662 C 62.5281 -1.70845 -0.329826 0
M  V30 663 O 63.7041 -2.00554 -0.184443 0
M  V30 664 C 60.7691 -3.46697 0.014877 0
M  V30 665 C 59.8301 -4.16554 1.03834 0
M  V30 666 C 59.0631 -5.31894 0.438692 0
M  V30 667 O 59.2861 -5.65385 -0.754752 0
M  V30 668 O 58.2201 -5.90459 1.168 0
M  V30 669 H 62.0461 -2.61836 1.53869 0
M  V30 670 H 59.6311 -1.25352 0.812854 0
M  V30 671 H 61.5131 -4.20062 -0.335538 0
M  V30 672 H 60.1881 -3.12255 -0.853138 0
M  V30 673 H 59.0951 -3.45251 1.44057 0
M  V30 674 H 60.4281 -4.54998 1.87716 0
M  V30 675 N 62.0802 -0.821533 -1.34494 0
M  V30 676 C 63.3082 -0.421884 -2.02553 0
M  V30 677 C 63.7232 0.971745 -1.61872 0
M  V30 678 O 63.0802 1.62864 -0.823496 0
M  V30 679 C 63.1312 -0.51285 -3.57844 0
M  V30 680 O 62.8522 -1.85155 -3.97051 0
M  V30 681 C 64.3532 -0.107921 -4.43169 0
M  V30 682 H 61.5732 -0.169482 -0.649243 0
M  V30 683 H 64.1172 -1.1093 -1.71798 0
M  V30 684 H 62.2722 0.126474 -3.87193 0
M  V30 685 H 62.6862 -1.82482 -4.91732 0
M  V30 686 H 64.1602 -0.222657 -5.51551 0
M  V30 687 H 64.6372 0.948401 -4.28838 0
M  V30 688 H 65.2432 -0.720989 -4.19144 0
M  V30 689 N 63.5583 1.46682 -0.576371 0
M  V30 690 C 64.7863 2.06798 -0.0649635 0
M  V30 691 C 65.2013 1.42612 1.23723 0
M  V30 692 O 64.5583 0.529203 1.74659 0
M  V30 693 C 64.6093 3.6132 0.114202 0
M  V30 694 O 64.3303 4.23104 -1.13644 0
M  V30 695 C 65.8313 4.38349 0.66069 0
M  V30 696 H 63.0513 0.668778 -0.0545616 0
M  V30 697 H 65.5953 1.88404 -0.795237 0
M  V30 698 H 63.7503 3.79162 0.794673 0
M  V30 699 H 64.1643 5.15894 -0.946253 0
M  V30 700 H 65.6383 5.47081 0.73526 0
M  V30 701 H 66.1153 4.05953 1.67627 0
M  V30 702 H 66.7213 4.25297 0.0152951 0
M  V30 703 N 65.0364 0.313813 1.54444 0
M  V30 704 C 65.9464 -0.565714 2.27677 0
M  V30 705 C 66.9624 -1.13754 1.31666 0
M  V30 706 O 68.1384 -1.15959 1.64668 0
M  V30 707 C 65.2034 -1.71528 3.01296 0
M  V30 708 C 64.2644 -1.17624 4.12872 0
M  V30 709 C 63.4974 -2.27102 4.8297 0
M  V30 710 O 63.7204 -3.47256 4.52514 0
M  V30 711 O 62.6544 -1.9307 5.70094 0
M  V30 712 H 66.4804 0.0287296 3.03686 0
M  V30 713 H 64.0654 0.0798312 1.49187 0
M  V30 714 H 65.9474 -2.38476 3.4743 0
M  V30 715 H 64.6224 -2.29608 2.2817 0
M  V30 716 H 63.5294 -0.472124 3.71109 0
M  V30 717 H 64.8624 -0.640695 4.88012 0
M  V30 718 N 66.5145 -1.57545 0.0417849 0
M  V30 719 C 67.4615 -2.10977 -0.935805 0
M  V30 720 C 68.4315 -1.01486 -1.31491 0
M  V30 721 O 69.6165 -1.2898 -1.40602 0
M  V30 722 C 66.7565 -2.65169 -2.2086 0
M  V30 723 C 65.8695 -3.88714 -1.88482 0
M  V30 724 C 65.0045 -4.31254 -3.1015 0
M  V30 725 C 64.0435 -5.47524 -2.7365 0
M  V30 726 N 63.1805 -5.85162 -3.87982 0
M  V30 727 H 68.0205 -2.94218 -0.473249 0
M  V30 728 H 65.5575 -1.45415 -0.221981 0
M  V30 729 H 67.5155 -2.94685 -2.95325 0
M  V30 730 H 66.1455 -1.8474 -2.64709 0
M  V30 731 H 65.1975 -3.65849 -1.04205 0
M  V30 732 H 66.5095 -4.73245 -1.57608 0
M  V30 733 H 65.6635 -4.62273 -3.92923 0
M  V30 734 H 64.4025 -3.45516 -3.44195 0
M  V30 735 H 63.4075 -5.16187 -1.89291 0
M  V30 736 H 64.6325 -6.34971 -2.40807 0
M  V30 737 H 62.5785 -5.02377 -4.21846 0
M  V30 738 H 62.4955 -6.64362 -3.60775 0
M  V30 739 H 63.7635 -6.20791 -4.71422 0
M  V30 740 N 67.9926 0.231505 -1.5589 0
M  V30 741 C 69.2406 0.955461 -1.78088 0
M  V30 742 C 69.5616 1.85262 -0.608533 0
M  V30 743 O 68.8316 1.92277 0.375035 0
M  V30 744 H 67.4116 0.355787 -0.656829 0
M  V30 745 H 70.0736 0.245751 -1.93344 0
M  V30 746 H 69.1696 1.56814 -2.69844 0
M  V30 747 N 69.4707 1.49531 0.497807 0
M  V30 748 C 70.7107 1.60799 1.26187 0
M  V30 749 C 71.0747 0.289627 1.89803 0
M  V30 750 O 72.2757 0.277512 2.67364 0
M  V30 751 C 70.5467 2.73729 2.29798 0
M  V30 752 S 72.1057 3.04968 3.155 0
M  V30 753 H 68.9237 0.567145 0.428798 0
M  V30 754 H 71.5257 1.87204 0.563477 0
M  V30 755 H 70.2297 3.68036 1.81597 0
M  V30 756 H 69.7607 2.49328 3.04301 0
M  V30 757 H 71.7757 2.46735 4.30507 0
M  V30 758 N 70.9488 -0.749086 1.3866 0
M  V30 759 C 72.1948 -1.51056 1.35314 0
M  V30 760 C 72.5278 -1.94121 -0.0553751 0
M  V30 761 O 71.8028 -1.65763 -1.01749 0
M  V30 762 C 72.0858 -2.76003 2.31288 0
M  V30 763 C 71.9388 -2.39047 3.8102 0
M  V30 764 C 73.2578 -3.78046 2.2532 0
M  V30 765 H 70.3768 -0.547972 0.492844 0
M  V30 766 H 73.0188 -0.857628 1.69543 0
M  V30 767 H 71.1688 -3.31716 2.02229 0
M  V30 768 H 72.8408 -1.89074 4.20771 0
M  V30 769 H 71.0838 -1.71449 3.98482 0
M  V30 770 H 71.7548 -3.28462 4.4364 0
M  V30 771 H 74.2308 -3.31884 2.50983 0
M  V30 772 H 73.1068 -4.63159 2.94576 0
M  V30 773 H 73.3678 -4.23957 1.25352 0
M  V30 774 N 72.4269 -1.23603 -0.977757 0
M  V30 775 C 73.3569 -1.04401 -2.0886 0
M  V30 776 C 74.3379 0.0399052 -1.70053 0
M  V30 777 O 75.5229 -0.125246 -1.93796 0
M  V30 778 C 72.6529 -0.637269 -3.41403 0
M  V30 779 C 71.6069 -1.66883 -3.94124 0
M  V30 780 C 70.9329 -1.11745 -5.22893 0
M  V30 781 C 72.2329 -3.06247 -4.23096 0
M  V30 782 H 73.9269 -1.97316 -2.25182 0
M  V30 783 H 71.4729 -0.950096 -1.08209 0
M  V30 784 H 73.4259 -0.48998 -4.18542 0
M  V30 785 H 72.1499 0.327557 -3.24953 0
M  V30 786 H 70.8089 -1.80416 -3.19133 0
M  V30 787 H 70.4569 -0.143527 -5.02795 0
M  V30 788 H 70.1569 -1.80672 -5.59134 0
M  V30 789 H 71.6809 -0.982067 -6.02651 0
M  V30 790 H 73.0949 -2.96001 -4.90975 0
M  V30 791 H 71.4919 -3.72436 -4.70544 0
M  V30 792 H 72.5619 -3.55041 -3.30263 0
M  V30 793 N 73.905 1.17692 -1.04816 0
M  V30 794 C 74.835 2.23777 -0.666791 0
M  V30 795 C 75.816 1.66796 0.33361 0
M  V30 796 O 77.001 1.93039 0.212042 0
M  V30 797 C 74.131 3.47281 -0.0367933 0
M  V30 798 C 73.085 4.17059 -0.961546 0
M  V30 799 C 72.411 5.34342 -0.195626 0
M  V30 800 C 73.711 4.69713 -2.28402 0
M  V30 801 H 75.405 2.55933 -1.55367 0
M  V30 802 H 72.951 1.23019 -0.748484 0
M  V30 803 H 74.904 4.20706 0.241775 0
M  V30 804 H 73.628 3.14381 0.885004 0
M  V30 805 H 72.287 3.45541 -1.22462 0
M  V30 806 H 71.935 4.97692 0.728816 0
M  V30 807 H 71.635 5.81966 -0.811775 0
M  V30 808 H 73.159 6.10553 0.0757473 0
M  V30 809 H 74.573 5.34794 -2.06563 0
M  V30 810 H 72.97 5.279 -2.8538 0
M  V30 811 H 74.04 3.86726 -2.92525 0
M  V30 812 N 75.3831 0.828654 1.34056 0
M  V30 813 C 76.6081 0.431637 2.02859 0
M  V30 814 C 77.0331 -0.956339 1.61975 0
M  V30 815 O 76.3911 -1.62338 0.807228 0
M  V30 816 C 76.4391 0.548323 3.56407 0
M  V30 817 O 75.5431 -0.429556 4.10157 0
M  V30 818 H 74.8841 0.176886 0.640006 0
M  V30 819 H 77.4141 1.12066 1.71179 0
M  V30 820 H 77.4241 0.426196 4.05768 0
M  V30 821 H 76.0991 1.5606 3.8551 0
M  V30 822 H 74.6761 -0.265836 3.71951 0
M  V30 823 N 76.8612 -1.46375 0.584142 0
M  V30 824 C 78.0912 -2.06461 0.0758195 0
M  V30 825 C 78.4992 -1.43322 -1.23512 0
M  V30 826 O 77.8422 -0.533216 -1.75791 0
M  V30 827 C 77.9042 -3.59131 -0.162773 0
M  V30 828 C 77.5682 -4.4447 1.06279 0
M  V30 829 C 78.5652 -4.80918 1.97519 0
M  V30 830 C 76.2502 -4.85584 1.28504 0
M  V30 831 C 78.2442 -5.57309 3.09331 0
M  V30 832 C 75.9312 -5.61734 2.4062 0
M  V30 833 C 76.9292 -5.9751 3.30863 0
M  V30 834 O 76.6172 -6.72121 4.41032 0
M  V30 835 H 76.3492 -0.673745 0.0551725 0
M  V30 836 H 78.9032 -1.88969 0.804984 0
M  V30 837 H 77.1332 -3.74936 -0.946565 0
M  V30 838 H 78.8222 -4.0114 -0.619782 0
M  V30 839 H 79.5882 -4.49732 1.81565 0
M  V30 840 H 75.4672 -4.57187 0.591702 0
M  V30 841 H 79.0112 -5.85152 3.79793 0
M  V30 842 H 74.9082 -5.92334 2.56537 0
M  V30 843 H 75.6762 -6.90547 4.39417 0
M  V30 844 N 78.3393 -0.321999 -1.54275 0
M  V30 845 C 79.2693 0.537411 -2.27231 0
M  V30 846 C 80.2503 1.12064 -1.27968 0
M  V30 847 O 81.4353 1.14606 -1.56777 0
M  V30 848 C 78.5653 1.69919 -3.02894 0
M  V30 849 C 77.5193 1.24534 -4.09482 0
M  V30 850 C 76.8453 2.49394 -4.72977 0
M  V30 851 C 78.1453 0.361335 -5.21049 0
M  V30 852 H 79.8393 -0.0711406 -2.99315 0
M  V30 853 H 77.3853 -0.0356555 -1.43956 0
M  V30 854 H 79.3383 2.30668 -3.52662 0
M  V30 855 H 78.0623 2.33431 -2.28424 0
M  V30 856 H 76.7213 0.660782 -3.60596 0
M  V30 857 H 76.3693 3.11265 -3.95124 0
M  V30 858 H 76.0693 2.19718 -5.44975 0
M  V30 859 H 77.5933 3.10908 -5.25517 0
M  V30 860 H 79.0073 0.875072 -5.66582 0
M  V30 861 H 77.4043 0.157428 -5.99893 0
M  V30 862 H 78.4743 -0.60822 -4.8107 0
M  V30 863 N 79.8174 1.5752 -0.0501392 0
M  V30 864 C 80.7654 2.12651 0.942459 0
M  V30 865 C 81.7594 1.05807 1.32292 0
M  V30 866 O 82.9654 1.24217 1.3027 0
M  V30 867 H 79.3404 0.679673 0.321789 0
M  V30 868 H 81.3114 2.94951 0.452356 0
M  V30 869 C 80.0604 2.68565 2.20836 0
M  V30 870 H 79.3834 3.50439 1.92439 0
M  V30 871 H 80.8234 3.10761 2.8845 0
M  V30 872 C 79.2824 1.62291 2.95234 0
M  V30 873 O 79.8124 1.03508 3.88135 0
M  V30 874 N 78.0184 1.33836 2.57946 0
M  V30 875 H 77.5654 1.81826 1.82475 0
M  V30 876 H 77.5234 0.629595 3.08032 0
M  V30 877 N 81.2955 -0.223234 1.56011 0
M  V30 878 C 82.2055 -1.29766 1.95443 0
M  V30 879 C 83.2215 -1.51373 0.858028 0
M  V30 880 O 84.3975 -1.64536 1.16146 0
M  V30 881 C 81.4625 -2.62772 2.26167 0
M  V30 882 C 80.5235 -2.49482 3.49367 0
M  V30 883 C 79.7565 -3.76145 3.78616 0
M  V30 884 O 79.9795 -4.79087 3.09568 0
M  V30 885 O 78.9135 -3.73358 4.72109 0
M  V30 886 H 82.7395 -0.99309 2.87004 0
M  V30 887 H 80.3245 -0.425958 1.43199 0
M  V30 888 H 82.2065 -3.41327 2.47131 0
M  V30 889 H 80.8815 -2.92913 1.37781 0
M  V30 890 H 79.7885 -1.69133 3.33684 0
M  V30 891 H 81.1215 -2.2428 4.38131 0
M  V30 892 N 82.7736 -1.49793 -0.48987 0
M  V30 893 C 84.0016 -1.63568 -1.26701 0
M  V30 894 C 84.4166 -0.311465 -1.86213 0
M  V30 895 O 83.7736 0.704416 -1.68357 0
M  V30 896 C 83.8246 -2.71284 -2.38929 0
M  V30 897 O 83.5456 -3.9857 -1.81861 0
M  V30 898 C 85.0466 -2.95864 -3.3012 0
M  V30 899 H 82.2666 -0.550342 -0.383881 0
M  V30 900 H 84.8106 -1.95898 -0.586864 0
M  V30 901 H 82.9656 -2.417 -3.02753 0
M  V30 902 H 83.3796 -4.57993 -2.55622 0
M  V30 903 H 84.8536 -3.74941 -4.05121 0
M  V30 904 H 85.3306 -2.06206 -3.87783 0
M  V30 905 H 85.9366 -3.26907 -2.72051 0
M  V30 906 N 84.2517 0.741722 -1.39055 0
M  V30 907 C 85.4977 1.50336 -1.36113 0
M  V30 908 C 85.8307 1.94148 0.0450796 0
M  V30 909 O 85.1057 1.66301 1.00868 0
M  V30 910 C 85.3887 2.74773 -2.32749 0
M  V30 911 C 85.2417 2.37023 -3.82283 0
M  V30 912 C 86.5607 3.76846 -2.27322 0
M  V30 913 H 83.6797 0.545351 -0.495743 0
M  V30 914 H 86.3217 0.848624 -1.69995 0
M  V30 915 H 84.4717 3.30639 -2.03986 0
M  V30 916 H 86.1437 1.8684 -4.21768 0
M  V30 917 H 84.3867 1.69334 -3.99385 0
M  V30 918 H 85.0577 3.26104 -4.45376 0
M  V30 919 H 87.5337 3.30548 -2.5274 0
M  V30 920 H 86.4097 4.6159 -2.97028 0
M  V30 921 H 86.6707 4.23286 -1.27599 0
M  V30 922 N 85.7298 1.2412 0.971189 0
M  V30 923 C 86.9578 1.10575 1.74874 0
M  V30 924 C 87.3728 -0.342017 1.85676 0
M  V30 925 O 86.7298 -1.23617 1.34258 0
M  V30 926 C 86.7808 1.73579 3.171 0
M  V30 927 O 86.5018 3.12695 3.06844 0
M  V30 928 C 88.0028 1.65598 4.11208 0
M  V30 929 H 85.2228 0.386504 0.548503 0
M  V30 930 H 87.7668 1.64156 1.21955 0
M  V30 931 H 85.9218 1.24009 3.67016 0
M  V30 932 H 86.3358 3.43412 3.96445 0
M  V30 933 H 87.8098 2.1437 5.08674 0
M  V30 934 H 88.2868 0.616532 4.34851 0
M  V30 935 H 88.8928 2.14578 3.67201 0
M  V30 936 N 87.2079 -1.17134 1.05439 0
M  V30 937 C 88.4539 -1.87733 0.767077 0
M  V30 938 C 88.7869 -1.8098 -0.704253 0
M  V30 939 O 88.0619 -1.21951 -1.5152 0
M  V30 940 C 88.3449 -3.37659 1.25133 0
M  V30 941 C 88.1979 -3.53149 2.78578 0
M  V30 942 C 89.5169 -4.31768 0.852324 0
M  V30 943 H 86.6359 -0.681687 0.280129 0
M  V30 944 H 89.2779 -1.37732 1.30881 0
M  V30 945 H 87.4279 -3.80373 0.790469 0
M  V30 946 H 89.0999 -3.19434 3.32806 0
M  V30 947 H 87.3429 -2.95345 3.17732 0
M  V30 948 H 88.0139 -4.58403 3.07523 0
M  V30 949 H 90.4899 -3.96909 1.24911 0
M  V30 950 H 89.3659 -5.35199 1.21873 0
M  V30 951 H 89.6269 -4.41429 -0.243485 0
M  V30 952 N 88.686 -0.835752 -1.33615 0
M  V30 953 C 89.911 -0.442389 -2.02627 0
M  V30 954 C 90.336 0.947735 -1.62479 0
M  V30 955 O 89.694 1.61907 -0.815826 0
M  V30 956 C 89.742 -0.567216 -3.56111 0
M  V30 957 O 88.846 0.407799 -4.10379 0
M  V30 958 H 88.187 -0.180278 -0.639059 0
M  V30 959 H 90.717 -1.12972 -1.70583 0
M  V30 960 H 90.727 -0.447708 -4.05536 0
M  V30 961 H 89.402 -1.58103 -3.84677 0
M  V30 962 H 87.979 0.246107 -3.72087 0
M  V30 963 N 90.1641 1.46063 -0.591896 0
M  V30 964 C 91.1271 2.28854 0.125973 0
M  V30 965 C 92.1271 1.38903 0.810107 0
M  V30 966 O 93.3171 1.61186 0.66066 0
M  V30 967 C 90.4491 3.19526 1.1881 0
M  V30 968 H 91.6421 2.93802 -0.601717 0
M  V30 969 H 89.1951 1.52325 -0.350254 0
M  V30 970 H 89.9301 2.59345 1.94707 0
M  V30 971 H 89.7151 3.85766 0.701936 0
M  V30 972 H 91.2051 3.81817 1.69132 0
M  V30 973 N 91.6422 0.330177 1.54103 0
M  V30 974 C 92.8672 -0.274893 2.0557 0
M  V30 975 C 93.2922 -1.44487 1.20437 0
M  V30 976 O 92.6502 -1.80021 0.214991 0
M  V30 977 C 92.6982 -0.68079 3.54115 0
M  V30 978 O 91.8022 -1.7824 3.71893 0
M  V30 979 H 91.1432 -0.0483849 0.662235 0
M  V30 980 H 93.6732 0.480508 1.98878 0
M  V30 981 H 93.6832 -0.961635 3.96505 0
M  V30 982 H 92.3582 0.174903 4.15532 0
M  V30 983 H 90.9352 -1.49985 3.41407 0
M  V30 984 N 93.1203 -1.57491 0.0584922 0
M  V30 985 C 94.0503 -2.14988 -0.911178 0
M  V30 986 C 95.0313 -1.07343 -1.31952 0
M  V30 987 O 96.2163 -1.35318 -1.39294 0
M  V30 988 C 93.3463 -2.70078 -2.18347 0
M  V30 989 C 92.3003 -3.82771 -1.91495 0
M  V30 990 C 91.6263 -4.24408 -3.25241 0
M  V30 991 C 92.9263 -5.07592 -1.23075 0
M  V30 992 H 94.6203 -2.96263 -0.432246 0
M  V30 993 H 92.1663 -1.42512 -0.206469 0
M  V30 994 H 94.1193 -3.08943 -2.86587 0
M  V30 995 H 92.8433 -1.86005 -2.68458 0
M  V30 996 H 91.5023 -3.44389 -1.25664 0
M  V30 997 H 91.1503 -3.37275 -3.73168 0
M  V30 998 H 90.8503 -5.00366 -3.08071 0
M  V30 999 H 92.3743 -4.65879 -3.94701 0
M  V30 1000 H 93.7883 -5.43857 -1.81362 0
M  V30 1001 H 92.1853 -5.88741 -1.16207 0
M  V30 1002 H 93.2553 -4.84454 -0.207847 0
M  V30 1003 N 94.5984 0.214957 -1.56127 0
M  V30 1004 C 95.5084 1.28727 -1.96129 0
M  V30 1005 C 96.5244 1.50916 -0.866044 0
M  V30 1006 O 97.7004 1.63918 -1.17016 0
M  V30 1007 C 94.7654 2.61569 -2.27558 0
M  V30 1008 C 93.8264 2.47625 -3.50685 0
M  V30 1009 C 93.0594 3.74132 -3.80606 0
M  V30 1010 O 93.2824 4.77438 -3.12104 0
M  V30 1011 O 92.2164 3.70849 -4.74083 0
M  V30 1012 H 96.0424 0.977855 -2.87527 0
M  V30 1013 H 93.6274 0.418358 -1.43423 0
M  V30 1014 H 95.5094 3.40012 -2.48938 0
M  V30 1015 H 94.1844 2.92178 -1.39332 0
M  V30 1016 H 93.0914 1.67361 -3.34576 0
M  V30 1017 H 94.4244 2.21954 -4.39315 0
M  V30 1018 N 96.0765 1.50051 0.48192 0
M  V30 1019 C 97.3015 1.64508 1.26301 0
M  V30 1020 C 97.7265 0.323851 1.85291 0
M  V30 1021 O 97.0845 -0.710969 1.66778 0
M  V30 1022 C 97.1325 2.7305 2.35533 0
M  V30 1023 O 96.2365 2.3355 3.39895 0
M  V30 1024 H 95.5775 0.549978 0.372048 0
M  V30 1025 H 98.1075 1.9636 0.574786 0
M  V30 1026 H 98.1175 2.95799 2.8101 0
M  V30 1027 H 96.7925 3.68946 1.91967 0
M  V30 1028 H 95.3695 2.21205 3.00204 0
M  V30 1029 N 97.5546 -0.734337 1.39446 0
M  V30 1030 C 98.8006 -1.49613 1.36908 0
M  V30 1031 C 99.1336 -1.94169 -0.0347829 0
M  V30 1032 O 98.4086 -1.66833 -0.999847 0
M  V30 1033 C 98.6916 -2.73534 2.34203 0
M  V30 1034 C 98.5446 -2.34993 3.83534 0
M  V30 1035 C 99.8636 -3.75635 2.29317 0
M  V30 1036 H 96.9826 -0.542714 0.498629 0
M  V30 1037 H 99.6246 -0.839597 1.70443 0
M  V30 1038 H 97.7746 -3.29553 2.05736 0
M  V30 1039 H 99.4466 -1.84601 4.22753 0
M  V30 1040 H 97.6896 -1.67213 4.00278 0
M  V30 1041 H 98.3606 -3.23738 4.47099 0
M  V30 1042 H 100.837 -3.29203 2.54489 0
M  V30 1043 H 99.7126 -4.60008 2.99472 0
M  V30 1044 H 99.9736 -4.22603 1.29842 0
M  V30 1045 N 99.0327 -1.24633 -0.964593 0
M  V30 1046 C 100.449 -1.01239 -1.2338 0
M  V30 1047 C 100.649 0.2769 -1.99588 0
M  V30 1048 O 99.7047 0.992241 -2.32187 0
M  V30 1049 C 101.018 -2.22937 -2.01791 0
M  V30 1050 C 102.566 -2.27594 -2.14872 0
M  V30 1051 C 103.041 -3.48921 -2.96678 0
M  V30 1052 N 104.532 -3.49257 -3.04259 0
M  V30 1053 C 105.267 -4.39795 -3.67924 0
M  V30 1054 N 104.763 -5.40591 -4.33281 0
M  V30 1055 N 106.556 -4.275 -3.64966 0
M  V30 1056 H 98.7067 -2.0748 -0.454502 0
M  V30 1057 H 100.97 -0.910647 -0.26349 0
M  V30 1058 H 100.676 -3.16587 -1.53184 0
M  V30 1059 H 100.55 -2.25306 -3.02518 0
M  V30 1060 H 102.937 -1.34473 -2.6268 0
M  V30 1061 H 103.018 -2.2925 -1.13482 0
M  V30 1062 H 102.662 -4.42359 -2.49562 0
M  V30 1063 H 102.592 -3.4451 -3.98272 0
M  V30 1064 H 105.083 -2.76337 -2.57771 0
M  V30 1065 H 105.396 -6.05904 -4.79687 0
M  V30 1066 H 103.741 -5.44475 -4.3194 0
M  V30 1067 H 106.932 -3.47987 -3.13086 0
M  V30 1068 H 107.105 -4.98258 -4.14298 0
M  V30 1069 N 100.511 1.16574 -1.06058 0
M  V30 1070 C 101.759 1.86677 -0.77434 0
M  V30 1071 C 102.08 1.81959 0.701147 0
M  V30 1072 O 101.35 1.2515 1.50713 0
M  V30 1073 H 99.9298 0.691134 -0.283449 0
M  V30 1074 H 102.592 1.41378 -1.34158 0
M  V30 1075 H 101.688 2.92181 -1.09711 0
M  V30 1076 N 101.989 0.842826 1.3317 0
M  V30 1077 C 102.937 0.267495 2.31057 0
M  V30 1078 C 103.931 -0.602682 1.58316 0
M  V30 1079 O 105.137 -0.491803 1.73151 0
M  V30 1080 H 101.512 0.0677813 0.748939 0
M  V30 1081 H 103.483 1.10754 2.77085 0
M  V30 1082 C 102.232 -0.539331 3.43492 0
M  V30 1083 H 101.555 0.12095 3.99617 0
M  V30 1084 H 102.995 -0.90767 4.14171 0
M  V30 1085 C 101.454 -1.71981 2.89697 0
M  V30 1086 O 101.984 -2.81862 2.86211 0
M  V30 1087 N 100.19 -1.54299 2.46252 0
M  V30 1088 H 99.7369 -0.649143 2.49287 0
M  V30 1089 H 99.6949 -2.33431 2.10612 0
M  V30 1090 N 103.467 -1.45747 0.599634 0
M  V30 1091 C 104.883 -1.57424 0.26264 0
M  V30 1092 C 105.083 -1.59222 -1.23493 0
M  V30 1093 O 104.139 -1.51825 -2.01756 0
M  V30 1094 C 105.452 -2.86061 0.926795 0
M  V30 1095 C 107 -2.99722 0.901967 0
M  V30 1096 C 107.475 -4.31119 1.54598 0
M  V30 1097 N 108.966 -4.37858 1.5111 0
M  V30 1098 C 109.701 -5.3818 1.97863 0
M  V30 1099 N 109.197 -6.45083 2.52666 0
M  V30 1100 N 110.99 -5.29487 1.88679 0
M  V30 1101 H 103.141 -1.42823 1.57211 0
M  V30 1102 H 105.404 -0.68235 0.658105 0
M  V30 1103 H 105.11 -2.90605 1.98095 0
M  V30 1104 H 104.984 -3.74563 0.445238 0
M  V30 1105 H 107.371 -2.9475 -0.143617 0
M  V30 1106 H 107.452 -2.12652 1.42171 0
M  V30 1107 H 107.096 -4.36849 2.59085 0
M  V30 1108 H 107.026 -5.16992 1.00132 0
M  V30 1109 H 109.517 -3.61209 1.11068 0
M  V30 1110 H 109.83 -7.17869 2.86155 0
M  V30 1111 H 108.175 -6.45856 2.56701 0
M  V30 1112 H 111.366 -4.44877 1.4561 0
M  V30 1113 H 111.539 -6.07524 2.25429 0
M  V30 1114 N 104.945 -0.338344 -1.53925 0
M  V30 1115 C 106.17 0.263987 -2.05713 0
M  V30 1116 C 106.595 1.43847 -1.21201 0
M  V30 1117 O 105.953 1.79904 -0.224535 0
M  V30 1118 C 106.001 0.662 -3.54471 0
M  V30 1119 O 105.105 1.76265 -3.72833 0
M  V30 1120 H 104.446 0.0448722 -0.662482 0
M  V30 1121 H 106.976 -0.491048 -1.9862 0
M  V30 1122 H 106.986 0.940594 -3.9701 0
M  V30 1123 H 105.661 -0.196937 -4.15433 0
M  V30 1124 H 104.238 1.48173 -3.42198 0
M  V30 1125 N 106.423 1.57458 -0.0668435 0
M  V30 1126 C 107.353 2.15468 0.899764 0
M  V30 1127 C 108.334 1.08042 1.31381 0
M  V30 1128 O 109.519 1.36054 1.38574 0
M  V30 1129 C 106.649 2.71232 2.16911 0
M  V30 1130 C 105.603 3.83781 1.89463 0
M  V30 1131 C 104.929 4.26127 3.22986 0
M  V30 1132 C 106.229 5.08238 1.20381 0
M  V30 1133 H 107.923 2.96488 0.416529 0
M  V30 1134 H 105.469 1.4262 0.198908 0
M  V30 1135 H 107.422 3.10458 2.84945 0
M  V30 1136 H 106.146 1.87426 2.67468 0
M  V30 1137 H 104.805 3.45051 1.23836 0
M  V30 1138 H 104.453 3.39249 3.71374 0
M  V30 1139 H 104.153 5.01993 3.05413 0
M  V30 1140 H 105.677 4.67966 3.92225 0
M  V30 1141 H 107.091 5.44811 1.78475 0
M  V30 1142 H 105.488 5.89349 1.13083 0
M  V30 1143 H 106.558 4.84558 0.182153 0
M  V30 1144 N 107.901 -0.206675 1.56239 0
M  V30 1145 C 109.148 -0.928842 1.79941 0
M  V30 1146 C 109.476 -1.83734 0.638131 0
M  V30 1147 O 108.731 -1.92039 -0.376746 0
M  V30 1148 C 109.03 -1.78675 3.09532 0
M  V30 1149 C 108.696 -1.03022 4.38973 0
M  V30 1150 C 107.358 -0.821302 4.74139 0
M  V30 1151 C 109.71 -0.497081 5.18824 0
M  V30 1152 C 107.038 -0.0675719 5.86661 0
M  V30 1153 C 109.39 0.24338 6.32132 0
M  V30 1154 C 108.054 0.463422 6.65889 0
M  V30 1155 H 107.324 -0.339887 0.658451 0
M  V30 1156 H 109.971 -0.195977 1.90495 0
M  V30 1157 H 108.276 -2.58794 2.94165 0
M  V30 1158 H 109.973 -2.34792 3.25075 0
M  V30 1159 H 106.563 -1.20306 4.11369 0
M  V30 1160 H 110.747 -0.645921 4.92079 0
M  V30 1161 H 106.003 0.112995 6.11296 0
M  V30 1162 H 110.177 0.66393 6.93228 0
M  V30 1163 H 107.804 1.04938 7.52922 0
M  V30 1164 N 109.379 -1.50304 -0.473955 0
M  V30 1165 C 110.607 -1.64902 -1.24959 0
M  V30 1166 C 111.022 -0.331198 -1.85872 0
M  V30 1167 O 110.379 0.68652 -1.69095 0
M  V30 1168 C 110.43 -2.73803 -2.36038 0
M  V30 1169 O 110.151 -4.00477 -1.77624 0
M  V30 1170 C 111.652 -2.99349 -3.26964 0
M  V30 1171 H 108.872 -0.554383 -0.378022 0
M  V30 1172 H 111.416 -1.9651 -0.566054 0
M  V30 1173 H 109.571 -2.44898 -3.00173 0
M  V30 1174 H 109.985 -4.60678 -2.5075 0
M  V30 1175 H 111.459 -3.79217 -4.01121 0
M  V30 1176 H 111.936 -2.10307 -3.85574 0
M  V30 1177 H 112.542 -3.29774 -2.68569 0
M  V30 1178 N 110.857 0.726932 -1.39834 0
M  V30 1179 C 112.134 1.47902 -1.28001 0
M  V30 1180 C 112.514 2.1083 0.106789 0
M  V30 1181 O 111.862 1.99242 1.11869 0
M  V30 1182 C 112.072 2.52392 -2.41038 0
M  V30 1183 C 113.42 3.18546 -2.80737 0
M  V30 1184 O 114.444 2.62708 -2.40547 0
M  V30 1185 O 113.303 4.19604 -3.50135 0
M  V30 1186 H 110.397 0.657163 -0.502062 0
M  V30 1187 H 112.943 0.760071 -1.51727 0
M  V30 1188 H 111.715 2.04329 -3.33715 0
M  V30 1189 H 111.338 3.31837 -2.19021 0
M  V30 1190 N 112.336 1.25143 0.95797 0
M  V30 1191 C 113.266 1.07711 2.07173 0
M  V30 1192 C 114.247 -0.0128462 1.70095 0
M  V30 1193 O 115.432 0.156061 1.93572 0
M  V30 1194 C 112.562 0.691503 3.40346 0
M  V30 1195 C 111.516 1.73132 3.9142 0
M  V30 1196 C 110.842 1.20049 5.21049 0
M  V30 1197 C 112.142 3.1294 4.1817 0
M  V30 1198 H 113.836 2.00873 2.22014 0
M  V30 1199 H 111.382 0.967191 1.06684 0
M  V30 1200 H 113.335 0.556505 4.17709 0
M  V30 1201 H 112.059 -0.275819 3.25433 0
M  V30 1202 H 110.718 1.8547 3.16222 0
M  V30 1203 H 110.366 0.223499 5.02503 0
M  V30 1204 H 110.066 1.89545 5.56189 0
M  V30 1205 H 111.59 1.07782 6.01012 0
M  V30 1206 H 113.004 3.03775 4.86203 0
M  V30 1207 H 111.401 3.79875 4.64559 0
M  V30 1208 H 112.471 3.6025 3.24573 0
M  V30 1209 N 113.814 -1.1601 1.06675 0
M  V30 1210 C 114.724 -2.24156 0.692179 0
M  V30 1211 C 115.74 -1.71507 -0.293513 0
M  V30 1212 O 116.916 -2.009 -0.141861 0
M  V30 1213 C 113.981 -3.46587 0.0884131 0
M  V30 1214 C 113.042 -4.14257 1.12646 0
M  V30 1215 C 112.275 -5.30844 0.551416 0
M  V30 1216 O 112.498 -5.66858 -0.634656 0
M  V30 1217 O 111.432 -5.87848 1.29298 0
M  V30 1218 H 115.258 -2.58513 1.59388 0
M  V30 1219 H 112.843 -1.23599 0.83926 0
M  V30 1220 H 114.725 -4.20679 -0.246361 0
M  V30 1221 H 113.4 -3.13994 -0.786712 0
M  V30 1222 H 112.307 -3.42118 1.51348 0
M  V30 1223 H 113.64 -4.50914 1.97325 0
M  V30 1224 N 115.292 -0.849877 -1.32721 0
M  V30 1225 C 116.255 -0.296122 -2.27279 0
M  V30 1226 C 117.255 0.541458 -1.5141 0
M  V30 1227 O 118.445 0.353658 -1.70572 0
M  V30 1228 C 115.577 0.581579 -3.35902 0
M  V30 1229 H 116.77 -1.13064 -2.77771 0
M  V30 1230 H 114.323 -0.62383 -1.43311 0
M  V30 1231 H 115.058 1.43809 -2.9067 0
M  V30 1232 H 114.843 -0.0178814 -3.92096 0
M  V30 1233 H 116.333 0.961951 -4.0637 0
M  V30 1234 N 116.77 1.45427 -0.607355 0
M  V30 1235 C 117.68 2.34325 0.113463 0
M  V30 1236 C 118.696 1.51226 0.860617 0
M  V30 1237 O 119.872 1.84029 0.818255 0
M  V30 1238 C 116.937 3.28839 1.09844 0
M  V30 1239 C 115.998 4.27844 0.353271 0
M  V30 1240 C 115.231 5.17842 1.29133 0
M  V30 1241 O 115.454 5.11264 2.52913 0
M  V30 1242 O 114.388 5.96713 0.788523 0
M  V30 1243 H 118.214 2.97364 -0.617094 0
M  V30 1244 H 115.799 1.44807 -0.367619 0
M  V30 1245 H 117.681 3.8708 1.66575 0
M  V30 1246 H 116.356 2.68365 1.81003 0
M  V30 1247 H 115.263 3.7322 -0.256494 0
M  V30 1248 H 116.596 4.91173 -0.317822 0
M  V30 1249 N 118.248 0.346503 1.53744 0
M  V30 1250 C 119.196 -0.52422 2.26616 0
M  V30 1251 C 120.19 -1.09948 1.28871 0
M  V30 1252 O 121.396 -1.04488 1.46568 0
M  V30 1253 H 117.771 -0.187743 0.728187 0
M  V30 1254 H 119.742 0.11239 2.98188 0
M  V30 1255 C 118.491 -1.66186 3.05414 0
M  V30 1256 H 117.814 -1.22848 3.80458 0
M  V30 1257 H 119.254 -2.24622 3.59612 0
M  V30 1258 C 117.713 -2.59302 2.1509 0
M  V30 1259 O 118.243 -3.61628 1.74895 0
M  V30 1260 N 116.449 -2.28055 1.8011 0
M  V30 1261 H 115.996 -1.44883 2.12994 0
M  V30 1262 H 115.954 -2.90615 1.19958 0
M  V30 1263 N 119.726 -1.57421 0.075193 0
M  V30 1264 C 121.003 -1.85029 -0.634329 0
M  V30 1265 C 121.383 -0.968305 -1.87582 0
M  V30 1266 O 120.731 -0.0354749 -2.28472 0
M  V30 1267 C 120.941 -3.35286 -0.968742 0
M  V30 1268 C 122.289 -4.02875 -1.34077 0
M  V30 1269 O 123.313 -3.40051 -1.06037 0
M  V30 1270 O 122.172 -5.13691 -1.86506 0
M  V30 1271 H 119.266 -0.7645 -0.315387 0
M  V30 1272 H 121.812 -1.69366 0.106382 0
M  V30 1273 H 120.584 -3.91203 -0.0871376 0
M  V30 1274 H 120.207 -3.56223 -1.7661 0
M  V30 1275 N 121.204 0.198386 -1.56346 0
M  V30 1276 C 122.45 0.920648 -1.80698 0
M  V30 1277 C 122.783 1.83045 -0.648697 0
M  V30 1278 O 122.058 1.91308 0.350925 0
M  V30 1279 C 122.341 1.73971 -3.15287 0
M  V30 1280 C 122.194 0.85485 -4.41602 0
M  V30 1281 C 123.513 2.71296 -3.46535 0
M  V30 1282 H 120.632 0.333261 -0.657348 0
M  V30 1283 H 123.274 0.188198 -1.89066 0
M  V30 1284 H 121.424 2.36416 -3.08285 0
M  V30 1285 H 123.096 0.245362 -4.60647 0
M  V30 1286 H 121.339 0.161398 -4.335 0
M  V30 1287 H 122.01 1.46286 -5.32264 0
M  V30 1288 H 124.486 2.18983 -3.53816 0
M  V30 1289 H 123.362 3.2569 -4.41834 0
M  V30 1290 H 123.623 3.5018 -2.69864 0
M  V30 1291 N 122.682 1.50554 0.465978 0
M  V30 1292 C 123.612 1.72722 1.57128 0
M  V30 1293 C 124.593 0.576294 1.6004 0
M  V30 1294 O 125.778 0.81598 1.76225 0
M  V30 1295 C 122.908 1.82605 2.95419 0
M  V30 1296 C 121.862 2.97835 3.07373 0
M  V30 1297 C 121.188 2.92867 4.47363 0
M  V30 1298 C 122.488 4.38265 2.84114 0
M  V30 1299 H 124.182 2.65267 1.38829 0
M  V30 1300 H 121.728 1.2765 0.666441 0
M  V30 1301 H 123.681 1.96698 3.72677 0
M  V30 1302 H 122.405 0.866858 3.14886 0
M  V30 1303 H 121.064 2.83401 2.3255 0
M  V30 1304 H 120.712 1.94783 4.63755 0
M  V30 1305 H 120.412 3.70227 4.56296 0
M  V30 1306 H 121.936 3.09015 5.26633 0
M  V30 1307 H 123.35 4.53198 3.51118 0
M  V30 1308 H 121.747 5.17115 3.04487 0
M  V30 1309 H 122.817 4.50281 1.7993 0
M  V30 1310 N 124.16 -0.719506 1.40217 0
M  V30 1311 C 125.11 -1.8251 1.36653 0
M  V30 1312 C 126.094 -1.59028 0.244732 0
M  V30 1313 O 127.286 -1.70268 0.483524 0
M  V30 1314 C 124.415 -3.20599 1.22763 0
M  V30 1315 C 123.501 -3.49858 2.39708 0
M  V30 1316 N 123.892 -3.49957 3.6519 0
M  V30 1317 C 122.19 -3.80297 2.33002 0
M  V30 1318 C 122.891 -3.77449 4.42614 0
M  V30 1319 N 121.867 -3.96002 3.72402 0
M  V30 1320 H 125.669 -1.80914 2.31619 0
M  V30 1321 H 123.183 -0.918455 1.33933 0
M  V30 1322 H 125.18 -3.99766 1.18292 0
M  V30 1323 H 123.84 -3.23424 0.287614 0
M  V30 1324 H 124.851 -3.309 3.98404 0
M  V30 1325 H 121.528 -3.90635 1.47346 0
M  V30 1326 H 122.918 -3.83863 5.51451 0
M  V30 1327 N 125.638 -1.25649 -0.95132 0
M  V30 1328 C 126.878 -1.11802 -1.71113 0
M  V30 1329 C 127.242 0.334758 -1.89059 0
M  V30 1330 O 128.443 0.595121 -2.62129 0
M  V30 1331 C 126.714 -1.85512 -3.05483 0
M  V30 1332 S 128.273 -1.87597 -3.96677 0
M  V30 1333 H 125.091 -0.399552 -0.588115 0
M  V30 1334 H 127.693 -1.59222 -1.1344 0
M  V30 1335 H 126.397 -2.90299 -2.90094 0
M  V30 1336 H 125.928 -1.38493 -3.68216 0
M  V30 1337 H 127.943 -0.955389 -4.86916 0
M  V30 1338 N 127.117 1.15442 -1.07289 0
M  V30 1339 C 128.363 1.86489 -0.796846 0
M  V30 1340 C 128.696 1.82078 0.675371 0
M  V30 1341 O 127.971 1.24346 1.4956 0
M  V30 1342 C 128.254 3.35626 -1.30489 0
M  V30 1343 C 128.107 3.48673 -2.84161 0
M  V30 1344 C 129.426 4.30357 -0.920907 0
M  V30 1345 H 126.545 0.677144 -0.290939 0
M  V30 1346 H 129.187 1.35633 -1.33056 0
M  V30 1347 H 127.337 3.79068 -0.850883 0
M  V30 1348 H 129.009 3.14099 -3.37846 0
M  V30 1349 H 127.252 2.90253 -3.22391 0
M  V30 1350 H 127.923 4.53453 -3.14777 0
M  V30 1351 H 130.399 3.94871 -1.3121 0
M  V30 1352 H 129.275 5.33193 -1.30372 0
M  V30 1353 H 129.536 4.4176 0.173226 0
M  V30 1354 N 128.595 0.856903 1.32268 0
M  V30 1355 C 129.558 0.308171 2.27119 0
M  V30 1356 C 130.558 -0.533421 1.51695 0
M  V30 1357 O 131.748 -0.344607 1.70757 0
M  V30 1358 C 128.88 -0.563757 3.36206 0
M  V30 1359 H 130.073 1.14535 2.77167 0
M  V30 1360 H 127.626 0.631421 1.42978 0
M  V30 1361 H 128.361 -1.42266 2.91429 0
M  V30 1362 H 128.146 0.0386749 3.92081 0
M  V30 1363 H 129.636 -0.940386 4.06874 0
M  V30 1364 N 130.073 -1.45103 0.615059 0
M  V30 1365 C 131.32 -2.02183 0.113179 0
M  V30 1366 C 131.648 -1.48249 -1.25906 0
M  V30 1367 O 130.903 -0.650265 -1.84581 0
M  V30 1368 C 131.202 -3.57386 0.0318797 0
M  V30 1369 C 130.868 -4.30505 1.34077 0
M  V30 1370 C 129.53 -4.50197 1.69929 0
M  V30 1371 C 131.882 -4.72238 2.20546 0
M  V30 1372 C 129.21 -5.08881 2.91988 0
M  V30 1373 C 131.562 -5.32272 3.41861 0
M  V30 1374 C 130.226 -5.50187 3.77956 0
M  V30 1375 H 129.496 -0.739842 0.0414151 0
M  V30 1376 H 132.143 -1.74073 0.798168 0
M  V30 1377 H 130.448 -3.84817 -0.736409 0
M  V30 1378 H 132.145 -3.99264 -0.372712 0
M  V30 1379 H 128.735 -4.15496 1.05173 0
M  V30 1380 H 132.919 -4.56751 1.94146 0
M  V30 1381 H 128.175 -5.20939 3.2005 0
M  V30 1382 H 132.349 -5.63563 4.09109 0
M  V30 1383 H 129.976 -5.95427 4.72622 0
M  V30 1384 N 131.551 -0.354651 -1.53558 0
M  V30 1385 C 132.514 0.484566 -2.24019 0
M  V30 1386 C 133.514 1.01861 -1.24422 0
M  V30 1387 O 134.704 0.906097 -1.4878 0
M  V30 1388 C 131.836 1.67615 -2.96847 0
M  V30 1389 H 133.029 -0.131843 -2.9961 0
M  V30 1390 H 130.582 -0.106165 -1.55939 0
M  V30 1391 H 131.317 2.33095 -2.25471 0
M  V30 1392 H 131.102 1.30029 -3.69912 0
M  V30 1393 H 132.592 2.27114 -3.50441 0
M  V30 1394 N 133.029 1.57378 -0.0835403 0
M  V30 1395 C 134.275 1.94217 0.583733 0
M  V30 1396 C 134.608 0.964653 1.68547 0
M  V30 1397 O 133.883 -0.00422258 1.945 0
M  V30 1398 C 134.166 3.41253 1.14972 0
M  V30 1399 C 134.019 4.49768 0.0538277 0
M  V30 1400 C 135.338 3.89352 2.05166 0
M  V30 1401 H 132.457 0.706233 0.210724 0
M  V30 1402 H 135.099 1.89392 -0.1519 0
M  V30 1403 H 133.249 3.45496 1.77665 0
M  V30 1404 H 134.921 4.57641 -0.579851 0
M  V30 1405 H 133.164 4.29432 -0.614068 0
M  V30 1406 H 133.835 5.49817 0.490452 0
M  V30 1407 H 136.311 3.87189 1.52393 0
M  V30 1408 H 135.187 4.92822 2.41698 0
M  V30 1409 H 135.448 3.27973 2.96456 0
M  V30 1410 N 134.507 -0.190092 1.56449 0
M  V30 1411 C 135.918 -0.754312 1.70784 0
M  V30 1412 C 136.269 -1.83631 0.690951 0
M  V30 1413 O 135.394 -2.15868 -0.151604 0
M  V30 1414 C 135.989 -1.37503 3.09642 0
M  V30 1415 C 134.548 -1.88628 3.25725 0
M  V30 1416 C 133.695 -0.758098 2.66736 0
M  V30 1417 H 136.646 0.0350524 1.58661 0
M  V30 1418 H 136.667 -2.2445 3.0725 0
M  V30 1419 H 136.179 -0.587302 3.83631 0
M  V30 1420 H 134.28 -2.70103 2.56661 0
M  V30 1421 H 134.393 -2.04462 4.3328 0
M  V30 1422 H 132.757 -1.17369 2.26046 0
M  V30 1423 H 133.54 0.0174705 3.43296 0
M  V30 1424 N 135.985 -1.50799 -0.457987 0
M  V30 1425 C 136.932 -1.70617 -1.5543 0
M  V30 1426 C 137.902 -0.547562 -1.56815 0
M  V30 1427 O 139.087 -0.779647 -1.74144 0
M  V30 1428 C 136.227 -1.81831 -2.93311 0
M  V30 1429 C 135.34 -3.09278 -3.01615 0
M  V30 1430 C 134.475 -3.11209 -4.30491 0
M  V30 1431 C 133.514 -4.33055 -4.32585 0
M  V30 1432 N 132.651 -4.32652 -5.52952 0
M  V30 1433 H 137.491 -2.64207 -1.37836 0
M  V30 1434 H 135.028 -1.30959 -0.669937 0
M  V30 1435 H 136.986 -1.86314 -3.73287 0
M  V30 1436 H 135.616 -0.916685 -3.0951 0
M  V30 1437 H 134.668 -3.14203 -2.1443 0
M  V30 1438 H 135.98 -3.99233 -2.99022 0
M  V30 1439 H 135.134 -3.14494 -5.18824 0
M  V30 1440 H 133.873 -2.19106 -4.35711 0
M  V30 1441 H 132.878 -4.29969 -3.42647 0
M  V30 1442 H 134.103 -5.264 -4.29046 0
M  V30 1443 H 132.049 -3.43409 -5.58933 0
M  V30 1444 H 131.966 -5.16392 -5.52155 0
M  V30 1445 H 133.234 -4.40101 -6.43375 0
M  V30 1446 N 137.463 0.71206 -1.40597 0
M  V30 1447 C 138.688 1.50617 -1.42581 0
M  V30 1448 C 139.113 1.88079 -0.0282102 0
M  V30 1449 O 138.471 1.53511 0.964579 0
M  V30 1450 C 138.519 2.7557 -2.3258 0
M  V30 1451 O 137.623 3.72414 -1.77148 0
M  V30 1452 H 136.964 0.453966 -0.484573 0
M  V30 1453 H 139.494 0.876649 -1.84868 0
M  V30 1454 H 139.504 3.2406 -2.47889 0
M  V30 1455 H 138.179 2.47639 -3.34138 0
M  V30 1456 H 136.756 3.31276 -1.71204 0
M  V30 1457 N 138.941 1.26152 0.944643 0
M  V30 1458 C 140.166 1.14363 1.7302 0
M  V30 1459 C 140.591 -0.29772 1.85729 0
M  V30 1460 O 139.949 -1.2157 1.34501 0
M  V30 1461 C 139.997 1.81378 3.11664 0
M  V30 1462 O 139.101 1.10022 3.97453 0
M  V30 1463 H 138.442 0.398694 0.53098 0
M  V30 1464 H 140.972 1.66906 1.18337 0
M  V30 1465 H 140.982 1.88064 3.62072 0
M  V30 1466 H 139.657 2.86237 3.0173 0
M  V30 1467 H 138.234 1.11287 3.55907 0
M  V30 1468 N 140.419 -1.14872 1.07899 0
M  V30 1469 C 141.644 -1.90202 0.826926 0
M  V30 1470 C 142.069 -1.77774 -0.614664 0
M  V30 1471 O 141.427 -1.11431 -1.43013 0
M  V30 1472 C 141.475 -3.38352 1.24702 0
M  V30 1473 O 140.579 -4.10497 0.39575 0
M  V30 1474 H 139.92 -0.591968 0.300782 0
M  V30 1475 H 142.45 -1.45437 1.43907 0
M  V30 1476 H 142.46 -3.89156 1.22563 0
M  V30 1477 H 141.135 -3.46715 2.29698 0
M  V30 1478 H 139.712 -3.69796 0.480117 0
M  V30 1479 N 141.898 -0.863906 -1.31812 0
M  V30 1480 C 142.846 -0.30422 -2.30602 0
M  V30 1481 C 143.84 0.577419 -1.59255 0
M  V30 1482 O 145.046 0.464194 -1.73912 0
M  V30 1483 H 141.421 -0.0796877 -0.747766 0
M  V30 1484 H 143.392 -1.15148 -2.75288 0
M  V30 1485 C 142.141 0.484617 -3.44306 0
M  V30 1486 H 141.464 -0.18451 -3.99374 0
M  V30 1487 H 142.904 0.841664 -4.15562 0
M  V30 1488 C 141.363 1.6735 -2.92396 0
M  V30 1489 O 141.893 2.77273 -2.90659 0
M  V30 1490 N 140.099 1.50362 -2.48676 0
M  V30 1491 H 139.646 0.609402 -2.50288 0
M  V30 1492 H 139.604 2.30051 -2.14299 0
M  V30 1493 N 143.376 1.44774 -0.622745 0
M  V30 1494 C 144.286 2.34433 0.0886031 0
M  V30 1495 C 145.302 1.52131 0.844529 0
M  V30 1496 O 146.478 1.84886 0.798691 0
M  V30 1497 C 143.543 3.29986 1.0635 0
M  V30 1498 C 142.604 4.28195 0.307873 0
M  V30 1499 C 141.837 5.19183 1.23633 0
M  V30 1500 O 142.06 5.13918 2.47476 0
M  V30 1501 O 140.994 5.97515 0.725189 0
M  V30 1502 H 144.82 2.96693 -0.648599 0
M  V30 1503 H 142.405 1.44408 -0.382957 0
M  V30 1504 H 144.287 3.88825 1.6246 0
M  V30 1505 H 142.962 2.70269 1.78146 0
M  V30 1506 H 141.869 3.72927 -0.296064 0
M  V30 1507 H 143.202 4.90808 -0.3699 0
M  V30 1508 N 144.854 0.36279 1.53368 0
M  V30 1509 C 145.764 -0.492994 2.29362 0
M  V30 1510 C 146.78 -1.09507 1.35219 0
M  V30 1511 O 147.956 -1.10662 1.68273 0
M  V30 1512 C 145.021 -1.61855 3.066 0
M  V30 1513 C 144.082 -1.04429 4.16405 0
M  V30 1514 C 143.315 -2.11621 4.89951 0
M  V30 1515 O 143.538 -3.32684 4.63333 0
M  V30 1516 O 142.472 -1.74835 5.75948 0
M  V30 1517 H 146.298 0.125331 3.03441 0
M  V30 1518 H 143.883 0.127253 1.48857 0
M  V30 1519 H 145.765 -2.27302 3.54841 0
M  V30 1520 H 144.44 -2.22233 2.3536 0
M  V30 1521 H 143.347 -0.353819 3.72423 0
M  V30 1522 H 144.68 -0.485113 4.89804 0
M  V30 1523 N 146.332 -1.57332 0.0918853 0
M  V30 1524 C 147.578 -1.94524 -0.573425 0
M  V30 1525 C 147.911 -0.973578 -1.68033 0
M  V30 1526 O 147.186 -0.00609226 -1.94499 0
M  V30 1527 C 147.469 -3.41858 -1.13161 0
M  V30 1528 C 147.322 -4.4979 -0.0299747 0
M  V30 1529 C 148.641 -3.90435 -2.03098 0
M  V30 1530 H 145.76 -0.70734 -0.206975 0
M  V30 1531 H 148.402 -1.89309 0.161942 0
M  V30 1532 H 146.552 -3.46433 -1.7583 0
M  V30 1533 H 148.224 -4.57327 0.604112 0
M  V30 1534 H 146.467 -4.291 0.636833 0
M  V30 1535 H 147.138 -5.50069 -0.461287 0
M  V30 1536 H 149.614 -3.87992 -1.50338 0
M  V30 1537 H 148.49 -4.94097 -2.39081 0
M  V30 1538 H 148.751 -3.29541 -2.94712 0
M  V30 1539 N 147.81 0.181792 -1.56548 0
M  V30 1540 C 148.743 1.25366 -1.90679 0
M  V30 1541 C 149.721 1.43299 -0.768376 0
M  V30 1542 O 150.905 1.58475 -1.02068 0
M  V30 1543 C 148.032 2.61826 -2.1486 0
M  V30 1544 C 147.078 2.60688 -3.37556 0
M  V30 1545 S 147.911 2.10804 -4.92262 0
M  V30 1546 C 149.067 3.49062 -5.19525 0
M  V30 1547 H 149.3 0.962277 -2.81296 0
M  V30 1548 H 146.833 0.385892 -1.495 0
M  V30 1549 H 148.791 3.40371 -2.29473 0
M  V30 1550 H 147.452 2.88169 -1.24969 0
M  V30 1551 H 146.645 3.61058 -3.51643 0
M  V30 1552 H 146.247 1.90232 -3.22006 0
M  V30 1553 H 148.539 4.45003 -5.10861 0
M  V30 1554 H 149.482 3.39859 -6.2121 0
M  V30 1555 H 149.89 3.4459 -4.47122 0
M  V30 1556 N 149.288 1.51039 0.449983 0
M  V30 1557 C 150.535 1.63081 1.20045 0
M  V30 1558 C 150.863 0.341024 1.91487 0
M  V30 1559 O 150.118 -0.674276 1.83717 0
M  V30 1560 C 150.417 2.77556 2.25161 0
M  V30 1561 C 150.083 4.17289 1.70823 0
M  V30 1562 C 148.745 4.55305 1.55725 0
M  V30 1563 C 151.097 5.04536 1.3074 0
M  V30 1564 C 148.425 5.78287 0.989999 0
M  V30 1565 C 150.777 6.28085 0.754482 0
M  V30 1566 C 149.441 6.64885 0.590308 0
M  V30 1567 H 148.711 0.596755 0.439277 0
M  V30 1568 H 151.358 1.85037 0.49333 0
M  V30 1569 H 149.663 2.49771 3.01863 0
M  V30 1570 H 151.36 2.84073 2.83026 0
M  V30 1571 H 147.95 3.8731 1.83546 0
M  V30 1572 H 152.134 4.75782 1.41229 0
M  V30 1573 H 147.39 6.05456 0.850451 0
M  V30 1574 H 151.564 6.95038 0.435324 0
M  V30 1575 H 149.191 7.60055 0.14862 0
M  V30 1576 N 150.766 -0.704594 1.40972 0
M  V30 1577 C 151.696 -1.83124 1.44872 0
M  V30 1578 C 152.677 -1.67281 0.30838 0
M  V30 1579 O 153.862 -1.87149 0.518556 0
M  V30 1580 C 150.992 -3.21181 1.32136 0
M  V30 1581 C 149.946 -3.51714 2.43888 0
M  V30 1582 C 149.272 -4.89032 2.16222 0
M  V30 1583 C 150.572 -3.516 3.86232 0
M  V30 1584 H 152.266 -1.80117 2.39161 0
M  V30 1585 H 149.812 -0.865145 1.15114 0
M  V30 1586 H 151.765 -3.99702 1.33479 0
M  V30 1587 H 150.489 -3.24791 0.343279 0
M  V30 1588 H 149.148 -2.75539 2.41813 0
M  V30 1589 H 148.796 -4.89256 1.16778 0
M  V30 1590 H 148.496 -5.10426 2.911 0
M  V30 1591 H 150.02 -5.69873 2.19265 0
M  V30 1592 H 151.434 -4.2014 3.9007 0
M  V30 1593 H 149.831 -3.84523 4.60719 0
M  V30 1594 H 150.901 -2.50757 4.15029 0
M  V30 1595 N 152.244 -1.26651 -0.937939 0
M  V30 1596 C 153.472 -1.15173 -1.7188 0
M  V30 1597 C 153.887 0.292668 -1.86518 0
M  V30 1598 O 153.244 1.20014 -1.37488 0
M  V30 1599 C 153.295 -1.81925 -3.12387 0
M  V30 1600 O 153.016 -3.2072 -2.98446 0
M  V30 1601 C 154.517 -1.76442 -4.06673 0
M  V30 1602 H 151.737 -0.400911 -0.538063 0
M  V30 1603 H 154.281 -1.67332 -1.1756 0
M  V30 1604 H 152.436 -1.33696 -3.63599 0
M  V30 1605 H 152.85 -3.53802 -3.872 0
M  V30 1606 H 154.324 -2.27781 -5.02812 0
M  V30 1607 H 154.801 -0.731608 -4.33064 0
M  V30 1608 H 155.407 -2.24238 -3.61382 0
M  V30 1609 N 153.722 1.14298 -1.08507 0
M  V30 1610 C 154.968 1.85633 -0.816581 0
M  V30 1611 C 155.301 1.82784 0.656021 0
M  V30 1612 O 154.576 1.25926 1.48233 0
M  V30 1613 C 154.859 3.34223 -1.34041 0
M  V30 1614 C 154.712 3.45639 -2.87843 0
M  V30 1615 C 156.031 4.29356 -0.9665 0
M  V30 1616 H 153.15 0.67402 -0.298104 0
M  V30 1617 H 155.792 1.34214 -1.34487 0
M  V30 1618 H 153.942 3.78144 -0.89104 0
M  V30 1619 H 155.614 3.10498 -3.41158 0
M  V30 1620 H 153.857 2.86817 -3.25451 0
M  V30 1621 H 154.528 4.50089 -3.19569 0
M  V30 1622 H 157.004 3.93457 -1.35391 0
M  V30 1623 H 155.88 5.3178 -1.3602 0
M  V30 1624 H 156.141 4.41919 0.126362 0
M  V30 1625 N 155.201 0.870884 1.31352 0
M  V30 1626 C 156.133 0.28455 2.27427 0
M  V30 1627 C 157.146 -0.552927 1.53123 0
M  V30 1628 O 158.335 -0.374771 1.74521 0
M  V30 1629 C 155.435 -0.615164 3.3327 0
M  V30 1630 C 154.608 0.190079 4.36987 0
M  V30 1631 C 153.667 -0.637917 5.22319 0
M  V30 1632 O 152.693 -0.065626 5.69162 0
M  V30 1633 N 153.895 -1.94973 5.46778 0
M  V30 1634 H 156.66 1.11017 2.7838 0
M  V30 1635 H 154.221 0.732458 1.44384 0
M  V30 1636 H 156.213 -1.1748 3.87273 0
M  V30 1637 H 154.783 -1.34146 2.82354 0
M  V30 1638 H 154.003 0.931165 3.83044 0
M  V30 1639 H 155.291 0.742579 5.03352 0
M  V30 1640 H 154.689 -2.4378 5.10478 0
M  V30 1641 H 153.246 -2.45713 6.03712 0
M  V30 1642 N 156.679 -1.44442 0.630414 0
M  V30 1643 C 157.925 -2.02351 0.134816 0
M  V30 1644 C 158.258 -1.4947 -1.23986 0
M  V30 1645 O 157.533 -0.678475 -1.82283 0
M  V30 1646 C 157.816 -3.59898 0.120707 0
M  V30 1647 C 157.669 -4.23063 1.52767 0
M  V30 1648 C 158.988 -4.36585 -0.555127 0
M  V30 1649 H 156.107 -0.73527 0.0504646 0
M  V30 1650 H 158.749 -1.72022 0.806751 0
M  V30 1651 H 156.899 -3.85868 -0.451477 0
M  V30 1652 H 158.571 -4.08202 2.14869 0
M  V30 1653 H 156.814 -3.80586 2.08175 0
M  V30 1654 H 157.485 -5.32071 1.46984 0
M  V30 1655 H 159.961 -4.16044 -0.0685429 0
M  V30 1656 H 158.837 -5.46294 -0.534185 0
M  V30 1657 H 159.098 -4.11138 -1.62535 0
M  V30 1658 N 158.157 -0.370918 -1.53173 0
M  V30 1659 C 159.104 0.473035 -2.259 0
M  V30 1660 C 160.074 1.07311 -1.26781 0
M  V30 1661 O 161.259 1.1046 -1.55574 0
M  V30 1662 C 158.399 1.60405 -3.05556 0
M  V30 1663 C 157.512 1.02863 -4.19575 0
M  V30 1664 C 156.647 2.12918 -4.86661 0
M  V30 1665 C 155.686 1.52869 -5.92704 0
M  V30 1666 N 154.823 2.56779 -6.53459 0
M  V30 1667 H 159.663 -0.153649 -2.97604 0
M  V30 1668 H 157.2 -0.0875946 -1.46839 0
M  V30 1669 H 159.158 2.27034 -3.50016 0
M  V30 1670 H 157.788 2.20131 -2.36097 0
M  V30 1671 H 156.84 0.252465 -3.79561 0
M  V30 1672 H 158.152 0.549642 -4.95762 0
M  V30 1673 H 157.306 2.87356 -5.34333 0
M  V30 1674 H 156.045 2.6417 -4.09958 0
M  V30 1675 H 155.05 0.769479 -5.44389 0
M  V30 1676 H 156.275 1.02435 -6.7133 0
M  V30 1677 H 154.221 3.07235 -5.79606 0
M  V30 1678 H 154.138 2.13583 -7.25202 0
M  V30 1679 H 155.406 3.30903 -7.05779 0
M  V30 1680 N 159.635 1.57281 -0.100228 0
M  V30 1681 C 160.883 1.94153 0.561157 0
M  V30 1682 C 161.204 0.983157 1.68401 0
M  V30 1683 O 160.474 0.0361132 1.95867 0
M  V30 1684 H 159.054 0.716791 0.210283 0
M  V30 1685 H 161.716 1.94202 -0.164765 0
M  V30 1686 H 160.812 2.96709 0.968008 0
M  V30 1687 N 161.113 -0.173488 1.56642 0
M  V30 1688 C 162.524 -0.736155 1.71574 0
M  V30 1689 C 162.875 -1.82888 0.710389 0
M  V30 1690 O 162 -2.16017 -0.1287 0
M  V30 1691 C 162.595 -1.34211 3.11083 0
M  V30 1692 C 161.154 -1.85162 3.27707 0
M  V30 1693 C 160.301 -0.729765 2.67525 0
M  V30 1694 H 163.252 0.0518786 1.58615 0
M  V30 1695 H 163.273 -2.21178 3.09613 0
M  V30 1696 H 162.785 -0.546579 3.84232 0
M  V30 1697 H 160.886 -2.67366 2.59512 0
M  V30 1698 H 160.999 -1.99855 4.35425 0
M  V30 1699 H 159.363 -1.14965 2.27278 0
M  V30 1700 H 160.146 0.0538806 3.43258 0
M  V30 1701 N 162.591 -1.51276 -0.441967 0
M  V30 1702 C 163.819 -1.67516 -1.21434 0
M  V30 1703 C 164.234 -0.37055 -1.85128 0
M  V30 1704 O 163.591 0.650498 -1.70513 0
M  V30 1705 C 163.642 -2.78748 -2.30177 0
M  V30 1706 O 163.363 -4.04154 -1.69089 0
M  V30 1707 C 164.864 -3.06217 -3.20541 0
M  V30 1708 H 162.084 -0.562276 -0.366178 0
M  V30 1709 H 164.628 -1.97666 -0.524244 0
M  V30 1710 H 162.783 -2.5121 -2.94911 0
M  V30 1711 H 163.197 -4.65894 -2.40922 0
M  V30 1712 H 164.671 -3.8764 -3.92987 0
M  V30 1713 H 165.148 -2.18439 -3.81026 0
M  V30 1714 H 165.754 -3.35397 -2.61513 0
M  V30 1715 N 164.069 0.697108 -1.41344 0
M  V30 1716 C 165.001 1.8224 -1.39001 0
M  V30 1717 C 166.014 1.60152 -0.292428 0
M  V30 1718 O 167.203 1.69684 -0.554048 0
M  V30 1719 C 164.303 3.18976 -1.14489 0
M  V30 1720 C 163.476 3.68105 -2.36258 0
M  V30 1721 C 162.535 4.83506 -2.07625 0
M  V30 1722 O 161.561 4.95201 -2.8065 0
M  V30 1723 N 162.763 5.70637 -1.06555 0
M  V30 1724 H 165.528 1.84742 -2.35988 0
M  V30 1725 H 163.089 0.87937 -1.35936 0
M  V30 1726 H 165.081 3.93801 -0.932885 0
M  V30 1727 H 163.651 3.11508 -0.261043 0
M  V30 1728 H 162.871 2.84204 -2.7317 0
M  V30 1729 H 164.159 3.97667 -3.17393 0
M  V30 1730 H 163.557 5.63817 -0.461125 0
M  V30 1731 H 162.114 6.45368 -0.913444 0
M  V30 1732 N 165.547 1.27147 0.931209 0
M  V30 1733 C 166.457 1.11372 2.06478 0
M  V30 1734 C 167.473 0.044645 1.73943 0
M  V30 1735 O 168.649 0.250417 1.99837 0
M  V30 1736 C 165.714 0.758838 3.38294 0
M  V30 1737 C 164.775 1.90841 3.84549 0
M  V30 1738 C 164.008 1.57036 5.10074 0
M  V30 1739 O 164.231 0.476645 5.68405 0
M  V30 1740 O 163.165 2.40839 5.51616 0
M  V30 1741 H 166.991 2.06493 2.22698 0
M  V30 1742 H 164.576 1.06301 1.04978 0
M  V30 1743 H 166.458 0.574098 4.17471 0
M  V30 1744 H 165.133 -0.162879 3.2329 0
M  V30 1745 H 164.04 2.14819 3.06274 0
M  V30 1746 H 165.373 2.81021 4.04089 0
M  V30 1747 N 167.025 -1.13721 1.09112 0
M  V30 1748 C 168.272 -1.84924 0.825192 0
M  V30 1749 C 168.6 -1.83347 -0.649151 0
M  V30 1750 O 167.855 -1.26449 -1.49362 0
M  V30 1751 C 168.154 -3.32861 1.30146 0
M  V30 1752 C 167.82 -3.54621 2.78486 0
M  V30 1753 C 166.482 -3.60268 3.18999 0
M  V30 1754 C 168.834 -3.62855 3.74146 0
M  V30 1755 C 166.162 -3.71679 4.53951 0
M  V30 1756 C 168.514 -3.75793 5.08883 0
M  V30 1757 C 167.178 -3.79692 5.4899 0
M  V30 1758 H 166.448 -0.676684 0.301959 0
M  V30 1759 H 169.095 -1.3428 1.36533 0
M  V30 1760 H 167.4 -3.85835 0.681064 0
M  V30 1761 H 169.097 -3.86395 1.07236 0
M  V30 1762 H 165.687 -3.50879 2.46134 0
M  V30 1763 H 169.871 -3.57775 3.43963 0
M  V30 1764 H 165.127 -3.72963 4.84467 0
M  V30 1765 H 169.301 -3.81107 5.82864 0
M  V30 1766 H 166.928 -3.88287 6.53558 0
M  V30 1767 N 168.503 -0.877838 -1.30888 0
M  V30 1768 C 169.45 -0.337538 -2.28318 0
M  V30 1769 C 170.42 0.568346 -1.56074 0
M  V30 1770 O 171.605 0.498298 -1.84178 0
M  V30 1771 C 168.745 0.448142 -3.42178 0
M  V30 1772 C 167.858 -0.48615 -4.29256 0
M  V30 1773 C 166.993 0.314427 -5.30269 0
M  V30 1774 C 166.032 -0.615791 -6.08995 0
M  V30 1775 N 165.169 0.14902 -7.01942 0
M  V30 1776 H 170.009 -1.17356 -2.73919 0
M  V30 1777 H 167.546 -0.590094 -1.34745 0
M  V30 1778 H 169.504 0.919517 -4.06941 0
M  V30 1779 H 168.134 1.24879 -2.97666 0
M  V30 1780 H 167.186 -1.076 -3.64865 0
M  V30 1781 H 168.498 -1.19909 -4.84173 0
M  V30 1782 H 167.652 0.847969 -6.00745 0
M  V30 1783 H 166.391 1.06062 -4.76027 0
M  V30 1784 H 165.396 -1.16102 -5.37401 0
M  V30 1785 H 166.621 -1.36097 -6.65323 0
M  V30 1786 H 164.567 0.877884 -6.50099 0
M  V30 1787 H 164.484 -0.504433 -7.54315 0
M  V30 1788 H 165.752 0.663537 -7.76671 0
M  V30 1789 N 169.982 1.44106 -0.638065 0
M  V30 1790 C 170.929 2.30715 0.062701 0
M  V30 1791 C 171.899 1.43882 0.829883 0
M  V30 1792 O 173.084 1.72775 0.809532 0
M  V30 1793 C 170.224 3.29258 1.03358 0
M  V30 1794 C 169.337 4.31192 0.26409 0
M  V30 1795 C 168.472 5.16825 1.22741 0
M  V30 1796 C 167.511 6.10462 0.447475 0
M  V30 1797 N 166.648 6.8877 1.36161 0
M  V30 1798 H 171.488 2.90096 -0.681781 0
M  V30 1799 H 169.025 1.42925 -0.347988 0
M  V30 1800 H 170.983 3.84886 1.60992 0
M  V30 1801 H 169.613 2.71562 1.74511 0
M  V30 1802 H 168.665 3.77981 -0.428295 0
M  V30 1803 H 169.977 4.97619 -0.343052 0
M  V30 1804 H 169.131 5.77004 1.87487 0
M  V30 1805 H 167.87 4.50488 1.86847 0
M  V30 1806 H 166.875 5.49386 -0.213433 0
M  V30 1807 H 168.1 6.78837 -0.188968 0
M  V30 1808 H 166.046 6.25096 1.98975 0
M  V30 1809 H 165.963 7.51663 0.808656 0
M  V30 1810 H 167.231 7.53467 1.99769 0
M  V30 1811 N 171.46 0.379036 1.52974 0
M  V30 1812 C 172.876 0.0285448 1.59574 0
M  V30 1813 C 173.076 -1.45542 1.39355 0
M  V30 1814 O 172.132 -2.2187 1.20541 0
M  V30 1815 C 173.445 0.496535 2.96572 0
M  V30 1816 C 174.993 0.451909 3.0972 0
M  V30 1817 C 175.468 0.895924 4.49152 0
M  V30 1818 N 176.959 0.851522 4.55306 0
M  V30 1819 C 177.694 1.16661 5.61407 0
M  V30 1820 N 177.19 1.55166 6.752 0
M  V30 1821 N 178.983 1.08853 5.51459 0
M  V30 1822 H 171.134 1.34525 1.64367 0
M  V30 1823 H 173.397 0.550733 0.771619 0
M  V30 1824 H 173.103 1.53258 3.16552 0
M  V30 1825 H 172.977 -0.109802 3.7704 0
M  V30 1826 H 175.364 -0.575029 2.89443 0
M  V30 1827 H 175.445 1.09392 2.3123 0
M  V30 1828 H 175.089 1.92104 4.70168 0
M  V30 1829 H 175.019 0.23103 5.26093 0
M  V30 1830 H 177.51 0.568038 3.73606 0
M  V30 1831 H 177.823 1.776 7.52116 0
M  V30 1832 H 176.168 1.59044 6.76557 0
M  V30 1833 H 179.359 0.786803 4.6144 0
M  V30 1834 H 179.532 1.33742 6.34048 0
M  V30 1835 N 172.938 -1.57226 0.108567 0
M  V30 1836 C 174.166 -1.99179 -0.559954 0
M  V30 1837 C 174.581 -0.988022 -1.60884 0
M  V30 1838 O 173.938 0.0205512 -1.82488 0
M  V30 1839 C 173.989 -3.41159 -1.19552 0
M  V30 1840 O 173.71 -4.37694 -0.188577 0
M  V30 1841 C 175.211 -3.98188 -1.94837 0
M  V30 1842 H 172.431 -0.654228 -0.149088 0
M  V30 1843 H 174.975 -2.03598 0.19183 0
M  V30 1844 H 173.13 -3.37711 -1.89815 0
M  V30 1845 H 173.544 -5.20469 -0.649014 0
M  V30 1846 H 175.018 -4.99644 -2.34648 0
M  V30 1847 H 175.495 -3.3675 -2.81951 0
M  V30 1848 H 176.101 -4.0515 -1.2936 0
M  V30 1849 N 174.416 0.165178 -1.56732 0
M  V30 1850 C 175.644 0.896218 -1.86482 0
M  V30 1851 C 176.059 1.75555 -0.694675 0
M  V30 1852 O 175.416 1.79379 0.33607 0
M  V30 1853 C 175.467 1.76792 -3.1532 0
M  V30 1854 O 175.188 0.943239 -4.27825 0
M  V30 1855 C 176.689 2.6081 -3.58459 0
M  V30 1856 H 173.909 0.260064 -0.618553 0
M  V30 1857 H 176.453 0.163428 -2.03846 0
M  V30 1858 H 174.608 2.45398 -2.99764 0
M  V30 1859 H 175.022 1.53998 -5.01383 0
M  V30 1860 H 176.496 3.17579 -4.51495 0
M  V30 1861 H 176.973 3.35977 -2.82872 0
M  V30 1862 H 177.579 1.97526 -3.76648 0
M  V30 1863 N 175.894 1.51508 0.433938 0
M  V30 1864 C 177.14 1.64588 1.18484 0
M  V30 1865 C 177.473 0.362666 1.90784 0
M  V30 1866 O 176.748 -0.637892 1.83742 0
M  V30 1867 C 177.031 2.85149 2.19913 0
M  V30 1868 C 176.884 4.23456 1.51674 0
M  V30 1869 C 178.203 3.01227 3.20858 0
M  V30 1870 H 175.322 0.598994 0.429389 0
M  V30 1871 H 177.964 1.84002 0.473647 0
M  V30 1872 H 176.114 2.68729 2.80566 0
M  V30 1873 H 177.786 4.51552 0.943322 0
M  V30 1874 H 176.029 4.25998 0.819035 0
M  V30 1875 H 176.7 5.03812 2.2556 0
M  V30 1876 H 179.176 3.16382 2.70263 0
M  V30 1877 H 178.052 3.87141 3.89118 0
M  V30 1878 H 178.313 2.13447 3.8716 0
M  V30 1879 N 177.372 -0.689602 1.41712 0
M  V30 1880 C 178.305 -1.81403 1.3845 0
M  V30 1881 C 179.283 -1.60653 0.250874 0
M  V30 1882 O 180.467 -1.83323 0.43874 0
M  V30 1883 C 177.594 -3.18176 1.1611 0
M  V30 1884 C 176.64 -3.57705 2.3227 0
M  V30 1885 S 177.473 -3.61827 3.94767 0
M  V30 1886 C 178.629 -5.01318 3.74742 0
M  V30 1887 H 178.862 -1.83893 2.33603 0
M  V30 1888 H 176.395 -0.858878 1.28307 0
M  V30 1889 H 178.353 -3.97132 1.03907 0
M  V30 1890 H 177.014 -3.13288 0.225668 0
M  V30 1891 H 176.207 -4.57082 2.12349 0
M  V30 1892 H 175.809 -2.86073 2.40911 0
M  V30 1893 H 178.101 -5.88986 3.34817 0
M  V30 1894 H 179.044 -5.26283 4.73743 0
M  V30 1895 H 179.452 -4.73138 3.07898 0
M  V30 1896 N 178.85 -1.27639 -0.924453 0
M  V30 1897 C 180.096 -1.14336 -1.67497 0
M  V30 1898 C 180.429 0.309465 -1.91718 0
M  V30 1899 O 179.704 1.22608 -1.50989 0
M  V30 1900 C 179.987 -1.93096 -3.0395 0
M  V30 1901 C 179.84 -3.46381 -2.8695 0
M  V30 1902 C 181.159 -1.73798 -4.0433 0
M  V30 1903 H 178.278 -0.416728 -0.607871 0
M  V30 1904 H 180.92 -1.56832 -1.07256 0
M  V30 1905 H 179.07 -1.56982 -3.55372 0
M  V30 1906 H 180.742 -3.92343 -2.42621 0
M  V30 1907 H 178.985 -3.72557 -2.22225 0
M  V30 1908 H 179.656 -3.96735 -3.83804 0
M  V30 1909 H 182.132 -2.05293 -3.61931 0
M  V30 1910 H 181.008 -2.31294 -4.97789 0
M  V30 1911 H 181.269 -0.686725 -4.36734 0
M  V30 1912 N 180.328 1.1314 -1.09713 0
M  V30 1913 C 181.275 2.18642 -0.739196 0
M  V30 1914 C 182.245 1.63706 0.280978 0
M  V30 1915 O 183.43 1.90111 0.161946 0
M  V30 1916 C 180.57 3.44685 -0.169102 0
M  V30 1917 C 179.683 4.13711 -1.24367 0
M  V30 1918 C 178.818 5.27379 -0.636019 0
M  V30 1919 C 177.857 5.88259 -1.69169 0
M  V30 1920 N 176.994 6.93352 -1.10485 0
M  V30 1921 H 181.834 2.48607 -1.64312 0
M  V30 1922 H 179.371 1.22066 -0.820875 0
M  V30 1923 H 181.329 4.16815 0.179256 0
M  V30 1924 H 179.959 3.15161 0.698079 0
M  V30 1925 H 179.011 3.39835 -1.70927 0
M  V30 1926 H 180.323 4.55037 -2.04311 0
M  V30 1927 H 179.477 6.06238 -0.236677 0
M  V30 1928 H 178.216 4.8731 0.194928 0
M  V30 1929 H 177.221 5.08092 -2.10055 0
M  V30 1930 H 178.446 6.30399 -2.52536 0
M  V30 1931 H 176.392 6.55335 -0.295234 0
M  V30 1932 H 176.309 7.33236 -1.84121 0
M  V30 1933 H 177.577 7.76057 -0.73181 0
M  V30 1934 N 181.806 0.884767 1.30421 0
M  V30 1935 C 182.754 0.340869 2.30089 0
M  V30 1936 C 183.748 -0.55201 1.60154 0
M  V30 1937 O 184.954 -0.436467 1.74628 0
M  V30 1938 H 181.329 0.0915739 0.746404 0
M  V30 1939 H 183.3 1.19513 2.73421 0
M  V30 1940 C 182.049 -0.429779 3.45034 0
M  V30 1941 H 181.372 0.248024 3.9903 0
M  V30 1942 H 182.812 -0.775445 4.16849 0
M  V30 1943 C 181.271 -1.62677 2.95022 0
M  V30 1944 O 181.801 -2.72614 2.95033 0
M  V30 1945 N 180.007 -1.46387 2.51036 0
M  V30 1946 H 179.554 -0.569506 2.51226 0
M  V30 1947 H 179.512 -2.26612 2.17932 0
M  V30 1948 N 183.284 -1.43765 0.645699 0
M  V30 1949 C 184.194 -2.34544 -0.0512957 0
M  V30 1950 C 185.21 -1.53455 -0.82022 0
M  V30 1951 O 186.386 -1.86133 -0.769176 0
M  V30 1952 C 183.451 -3.31636 -1.01087 0
M  V30 1953 C 182.512 -4.2863 -0.239712 0
M  V30 1954 C 181.745 -5.21084 -1.15358 0
M  V30 1955 O 181.968 -5.1779 -2.39269 0
M  V30 1956 O 180.902 -5.98593 -0.630038 0
M  V30 1957 H 184.728 -2.95624 0.695718 0
M  V30 1958 H 182.313 -1.43781 0.405882 0
M  V30 1959 H 184.195 -3.9136 -1.56254 0
M  V30 1960 H 182.87 -2.73069 -1.73824 0
M  V30 1961 H 181.777 -3.72408 0.355356 0
M  V30 1962 H 183.11 -4.90157 0.447936 0
M  V30 1963 N 184.763 -0.387143 -1.52771 0
M  V30 1964 C 186.04 0.253197 -1.93954 0
M  V30 1965 C 186.42 1.64545 -1.32243 0
M  V30 1966 O 185.768 2.23191 -0.489699 0
M  V30 1967 C 185.978 0.281722 -3.47861 0
M  V30 1968 C 187.326 0.511715 -4.21505 0
M  V30 1969 O 188.35 0.362023 -3.54356 0
M  V30 1970 O 187.209 0.804847 -5.40541 0
M  V30 1971 H 184.303 0.156845 -0.811991 0
M  V30 1972 H 186.849 -0.441494 -1.63856 0
M  V30 1973 H 185.621 -0.693571 -3.85104 0
M  V30 1974 H 185.244 1.02142 -3.84256 0
M  V30 1975 N 186.241 1.57166 -0.116904 0
M  V30 1976 C 187.466 1.999 0.55271 0
M  V30 1977 C 187.891 0.996039 1.59564 0
M  V30 1978 O 187.249 -0.032556 1.81271 0
M  V30 1979 C 187.297 3.4152 1.15742 0
M  V30 1980 O 186.401 3.44106 2.27299 0
M  V30 1981 H 185.742 0.649447 0.138258 0
M  V30 1982 H 188.272 2.03573 -0.204759 0
M  V30 1983 H 188.282 3.79684 1.49346 0
M  V30 1984 H 186.957 4.14034 0.393493 0
M  V30 1985 H 185.534 3.17759 1.9515 0
M  V30 1986 N 187.719 -0.156864 1.56817 0
M  V30 1987 C 188.649 -1.19589 2.00551 0
M  V30 1988 C 189.63 -1.4536 0.883426 0
M  V30 1989 O 190.815 -1.56449 1.15054 0
M  V30 1990 C 187.945 -2.53143 2.37773 0
M  V30 1991 C 186.899 -2.41913 3.53075 0
M  V30 1992 C 186.225 -3.80088 3.76081 0
M  V30 1993 C 187.525 -1.91157 4.86062 0
M  V30 1994 H 189.219 -0.832293 2.87599 0
M  V30 1995 H 186.765 -0.398918 1.38364 0
M  V30 1996 H 188.718 -3.26047 2.66967 0
M  V30 1997 H 187.442 -2.91319 1.4765 0
M  V30 1998 H 186.101 -1.71462 3.24031 0
M  V30 1999 H 185.749 -4.15683 2.83225 0
M  V30 2000 H 185.449 -3.73439 4.53671 0
M  V30 2001 H 186.973 -4.54556 4.0769 0
M  V30 2002 H 188.387 -2.53846 5.14038 0
M  V30 2003 H 186.784 -1.95422 5.67389 0
M  V30 2004 H 187.854 -0.866673 4.77092 0
M  V30 2005 N 189.197 -1.51736 -0.425897 0
M  V30 2006 C 190.443 -1.65214 -1.1761 0
M  V30 2007 C 190.776 -0.372778 -1.90589 0
M  V30 2008 O 190.051 0.628139 -1.84078 0
M  V30 2009 C 190.334 -2.86312 -2.18398 0
M  V30 2010 C 190.187 -4.24254 -1.49426 0
M  V30 2011 C 191.506 -3.02925 -3.19256 0
M  V30 2012 H 188.625 -0.601263 -0.426206 0
M  V30 2013 H 191.267 -1.8425 -0.463882 0
M  V30 2014 H 189.417 -2.70213 -2.79137 0
M  V30 2015 H 191.089 -4.52046 -0.919362 0
M  V30 2016 H 189.332 -4.26426 -0.796432 0
M  V30 2017 H 190.003 -5.05001 -2.22885 0
M  V30 2018 H 192.479 -3.1781 -2.68581 0
M  V30 2019 H 191.355 -3.89199 -3.8706 0
M  V30 2020 H 191.616 -2.15497 -3.86023 0
M  V30 2021 N 190.675 0.682077 -1.42076 0
M  V30 2022 C 191.922 1.44215 -1.42156 0
M  V30 2023 C 192.25 1.94468 -0.0354186 0
M  V30 2024 O 191.505 1.70816 0.955002 0
M  V30 2025 C 191.804 2.66036 -2.38662 0
M  V30 2026 C 191.47 2.34366 -3.85206 0
M  V30 2027 C 190.132 2.25439 -4.25124 0
M  V30 2028 C 192.484 2.08513 -4.77673 0
M  V30 2029 C 189.812 1.88775 -5.55501 0
M  V30 2030 C 192.164 1.73354 -6.08384 0
M  V30 2031 C 190.828 1.62933 -6.47309 0
M  V30 2032 H 190.098 0.527718 -0.520187 0
M  V30 2033 H 192.745 0.778387 -1.74967 0
M  V30 2034 H 191.05 3.3741 -1.99152 0
M  V30 2035 H 192.747 3.24205 -2.35991 0
M  V30 2036 H 189.337 2.42213 -3.53597 0
M  V30 2037 H 193.521 2.14346 -4.47626 0
M  V30 2038 H 188.777 1.7927 -5.84527 0
M  V30 2039 H 192.951 1.52373 -6.79526 0
M  V30 2040 H 190.578 1.34292 -7.48244 0
M  V30 2041 N 192.153 1.28127 0.917671 0
M  V30 2042 C 193.399 1.15223 1.66888 0
M  V30 2043 C 193.732 -0.299293 1.9188 0
M  V30 2044 O 193.007 -1.21805 1.51637 0
M  V30 2045 C 193.29 1.94706 3.02922 0
M  V30 2046 C 193.143 3.47898 2.85109 0
M  V30 2047 C 194.462 1.75939 4.03402 0
M  V30 2048 H 191.581 0.419946 0.605652 0
M  V30 2049 H 194.223 1.57398 1.06423 0
M  V30 2050 H 192.373 1.58864 3.54534 0
M  V30 2051 H 194.045 3.93624 2.40537 0
M  V30 2052 H 192.288 3.7373 2.20246 0
M  V30 2053 H 192.959 3.98765 3.81694 0
M  V30 2054 H 195.435 2.07209 3.60837 0
M  V30 2055 H 194.311 2.33931 4.96556 0
M  V30 2056 H 194.572 0.709877 4.36364 0
M  V30 2057 N 193.631 -1.12557 1.10312 0
M  V30 2058 C 194.563 -2.17971 0.708625 0
M  V30 2059 C 195.576 -1.60806 -0.254027 0
M  V30 2060 O 196.765 -1.78458 -0.0386891 0
M  V30 2061 C 193.865 -3.38891 0.0248198 0
M  V30 2062 C 193.038 -4.25548 1.01132 0
M  V30 2063 C 192.097 -5.24972 0.35924 0
M  V30 2064 O 191.123 -5.60174 1.00965 0
M  V30 2065 N 192.325 -5.73747 -0.882847 0
M  V30 2066 H 195.09 -2.52427 1.61557 0
M  V30 2067 H 192.651 -1.27967 0.991771 0
M  V30 2068 H 194.643 -4.02485 -0.422852 0
M  V30 2069 H 193.213 -3.02596 -0.784514 0
M  V30 2070 H 192.433 -3.58589 1.6373 0
M  V30 2071 H 193.721 -4.80294 1.67914 0
M  V30 2072 H 193.119 -5.4731 -1.43065 0
M  V30 2073 H 191.676 -6.39234 -1.27369 0
M  V30 2074 N 195.109 -0.891671 -1.2995 0
M  V30 2075 C 196.337 -0.52866 -2.00032 0
M  V30 2076 C 196.752 0.884574 -1.66795 0
M  V30 2077 O 196.109 1.5827 -0.908669 0
M  V30 2078 C 196.16 -0.701814 -3.54622 0
M  V30 2079 O 195.881 -2.05942 -3.86678 0
M  V30 2080 C 197.382 -0.342683 -4.41973 0
M  V30 2081 H 194.602 -0.203659 -0.639347 0
M  V30 2082 H 197.146 -1.19881 -1.65677 0
M  V30 2083 H 195.301 -0.0789468 -3.8732 0
M  V30 2084 H 195.715 -2.08291 -4.81368 0
M  V30 2085 H 197.189 -0.514709 -5.49595 0
M  V30 2086 H 197.666 0.71975 -4.33262 0
M  V30 2087 H 198.272 -0.942154 -4.14733 0
M  V30 2088 N 196.587 1.43421 -0.653314 0
M  V30 2089 C 197.864 1.95361 -0.0966581 0
M  V30 2090 C 198.244 1.59461 1.38331 0
M  V30 2091 O 197.592 0.879777 2.10884 0
M  V30 2092 C 197.802 3.47311 -0.342988 0
M  V30 2093 C 199.15 4.23875 -0.24798 0
M  V30 2094 O 200.174 3.55133 -0.275553 0
M  V30 2095 O 199.033 5.4623 -0.171771 0
M  V30 2096 H 196.127 0.826945 0.00956291 0
M  V30 2097 H 198.673 1.5336 -0.726558 0
M  V30 2098 H 197.445 3.66569 -1.36906 0
M  V30 2099 H 197.068 3.9631 0.319975 0
M  V30 2100 N 198.065 0.39524 1.52563 0
M  V30 2101 C 199.012 -0.437036 2.26624 0
M  V30 2102 C 199.982 -1.05281 1.28472 0
M  V30 2103 O 201.167 -1.07971 1.57311 0
M  V30 2104 C 198.307 -1.55524 3.08069 0
M  V30 2105 C 197.42 -0.961745 4.21158 0
M  V30 2106 C 196.555 -2.05149 4.89987 0
M  V30 2107 C 195.594 -1.4342 5.95061 0
M  V30 2108 N 194.731 -2.46351 6.57462 0
M  V30 2109 H 199.571 0.200976 2.97322 0
M  V30 2110 H 197.108 0.110944 1.46681 0
M  V30 2111 H 199.066 -2.21437 3.53584 0
M  V30 2112 H 197.696 -2.16348 2.3957 0
M  V30 2113 H 196.748 -0.192048 3.79915 0
M  V30 2114 H 198.06 -0.470701 4.96574 0
M  V30 2115 H 197.214 -2.78819 5.38837 0
M  V30 2116 H 195.953 -2.57615 4.14109 0
M  V30 2117 H 194.958 -0.682774 5.45544 0
M  V30 2118 H 196.183 -0.917416 6.72875 0
M  V30 2119 H 194.129 -2.97975 5.8442 0
M  V30 2120 H 194.046 -2.02019 7.28508 0
M  V30 2121 H 195.314 -3.19633 7.10954 0
M  V30 2122 N 199.544 -1.57102 0.125237 0
M  V30 2123 C 200.769 -2.0019 -0.542101 0
M  V30 2124 C 201.194 -1.00449 -1.59034 0
M  V30 2125 O 200.552 0.0229423 -1.81285 0
M  V30 2126 C 200.6 -3.42129 -1.13929 0
M  V30 2127 O 199.704 -3.45307 -2.2547 0
M  V30 2128 H 199.045 -0.650171 -0.134812 0
M  V30 2129 H 201.575 -2.03461 0.215553 0
M  V30 2130 H 201.585 -3.80471 -1.4733 0
M  V30 2131 H 200.26 -4.14237 -0.371531 0
M  V30 2132 H 198.837 -3.1879 -1.93462 0
M  V30 2133 N 201.022 0.148545 -1.56898 0
M  V30 2134 C 202.271 0.85984 -1.82454 0
M  V30 2135 C 202.584 1.82406 -0.706229 0
M  V30 2136 O 203.79 2.57938 -0.847349 0
M  V30 2137 C 202.246 1.57967 -3.2338 0
M  V30 2138 C 201.854 0.65794 -4.43142 0
M  V30 2139 C 203.598 2.27784 -3.58211 0
M  V30 2140 C 201.505 1.3793 -5.75091 0
M  V30 2141 H 200.435 0.324834 -0.68044 0
M  V30 2142 H 203.086 0.112588 -1.83154 0
M  V30 2143 H 201.468 2.37249 -3.17063 0
M  V30 2144 H 202.642 -0.0995497 -4.60692 0
M  V30 2145 H 200.957 0.0682643 -4.16344 0
M  V30 2146 H 203.554 2.8239 -4.54048 0
M  V30 2147 H 203.897 3.04204 -2.84193 0
M  V30 2148 H 204.43 1.55421 -3.66182 0
M  V30 2149 H 201.169 0.656982 -6.52199 0
M  V30 2150 H 200.689 2.10954 -5.61479 0
M  V30 2151 H 202.368 1.92063 -6.17835 0
M  V30 2152 N 202.5 1.5196 0.417844 0
M  V30 2153 C 203.73 1.69181 1.18581 0
M  V30 2154 C 204.138 0.397104 1.84986 0
M  V30 2155 O 203.481 -0.636011 1.72339 0
M  V30 2156 C 203.543 2.76497 2.29759 0
M  V30 2157 C 203.207 4.18514 1.83563 0
M  V30 2158 C 204.204 5.02648 1.32821 0
M  V30 2159 C 201.889 4.64708 1.90661 0
M  V30 2160 C 203.883 6.31044 0.897894 0
M  V30 2161 C 201.57 5.93096 1.47241 0
M  V30 2162 C 202.568 6.76093 0.968891 0
M  V30 2163 O 202.256 8.02078 0.540924 0
M  V30 2164 H 201.988 0.570457 0.362705 0
M  V30 2165 H 204.542 1.99249 0.498885 0
M  V30 2166 H 202.772 2.41786 3.01789 0
M  V30 2167 H 204.461 2.82403 2.91553 0
M  V30 2168 H 205.227 4.68154 1.26716 0
M  V30 2169 H 201.106 4.00216 2.28797 0
M  V30 2170 H 204.65 6.95776 0.504192 0
M  V30 2171 H 200.547 6.271 1.53022 0
M  V30 2172 H 201.315 8.15794 0.66502 0
M  V30 2173 N 203.978 -0.674533 1.42435 0
M  V30 2174 C 204.925 -1.78807 1.45934 0
M  V30 2175 C 205.895 -1.63157 0.311271 0
M  V30 2176 O 207.08 -1.83707 0.515383 0
M  V30 2177 C 204.22 -3.16839 1.36773 0
M  V30 2178 C 203.333 -3.43774 2.61617 0
M  V30 2179 C 202.468 -4.71536 2.44597 0
M  V30 2180 C 201.507 -4.91505 3.64814 0
M  V30 2181 N 200.644 -6.10508 3.46734 0
M  V30 2182 H 205.484 -1.75151 2.41093 0
M  V30 2183 H 203.021 -0.85504 1.19697 0
M  V30 2184 H 204.979 -3.96606 1.29459 0
M  V30 2185 H 203.609 -3.19619 0.452089 0
M  V30 2186 H 202.661 -2.58259 2.79297 0
M  V30 2187 H 203.973 -3.54423 3.50978 0
M  V30 2188 H 203.127 -5.59393 2.3487 0
M  V30 2189 H 201.866 -4.6317 1.52726 0
M  V30 2190 H 200.871 -4.0209 3.74972 0
M  V30 2191 H 202.096 -5.01716 4.57665 0
M  V30 2192 H 200.042 -6.03315 2.5758 0
M  V30 2193 H 199.959 -6.2202 4.29682 0
M  V30 2194 H 201.227 -7.01044 3.40819 0
M  V30 2195 N 205.456 -1.28612 -0.910864 0
M  V30 2196 C 206.867 -1.14406 -1.47541 0
M  V30 2197 C 207.218 0.264901 -1.94403 0
M  V30 2198 O 206.343 1.15942 -1.82719 0
M  V30 2199 C 206.938 -2.07073 -2.68153 0
M  V30 2200 C 205.497 -1.96923 -3.20778 0
M  V30 2201 C 204.644 -1.98646 -1.93481 0
M  V30 2202 H 207.595 -1.41259 -0.723291 0
M  V30 2203 H 207.616 -1.63642 -3.43514 0
M  V30 2204 H 207.128 -3.09611 -2.34015 0
M  V30 2205 H 205.229 -0.97433 -3.59635 0
M  V30 2206 H 205.342 -2.84026 -3.85832 0
M  V30 2207 H 203.706 -1.43093 -2.10705 0
M  V30 2208 H 204.489 -3.02868 -1.61634 0
M  V30 2209 N 206.934 1.1197 -1.10907 0
M  V30 2210 C 208.182 1.83225 -0.852819 0
M  V30 2211 C 208.503 1.84769 0.623341 0
M  V30 2212 O 207.773 1.3143 1.45269 0
M  V30 2213 H 206.353 0.67849 -0.312507 0
M  V30 2214 H 209.015 1.3556 -1.40033 0
M  V30 2215 H 208.111 2.87265 -1.22005 0
M  V30 2216 N 208.412 0.89855 1.29475 0
M  V30 2217 C 209.344 0.332726 2.26772 0
M  V30 2218 C 210.357 -0.520323 1.54261 0
M  V30 2219 O 211.546 -0.337668 1.75277 0
M  V30 2220 C 208.646 -0.544334 3.345 0
M  V30 2221 C 207.819 0.282728 4.36485 0
M  V30 2222 C 206.878 -0.526982 5.23555 0
M  V30 2223 O 205.904 0.0551165 5.69173 0
M  V30 2224 N 207.106 -1.83331 5.5079 0
M  V30 2225 H 209.871 1.16897 2.75962 0
M  V30 2226 H 207.432 0.762919 1.42798 0
M  V30 2227 H 209.424 -1.09239 3.89678 0
M  V30 2228 H 207.994 -1.28127 2.85136 0
M  V30 2229 H 207.214 1.01221 3.80983 0
M  V30 2230 H 208.502 0.84918 5.01664 0
M  V30 2231 H 207.9 -2.32898 5.15534 0
M  V30 2232 H 206.457 -2.32852 6.08788 0
M  V30 2233 N 209.89 -1.43072 0.660911 0
M  V30 2234 C 211.118 -2.06067 0.185422 0
M  V30 2235 C 211.533 -1.49582 -1.15198 0
M  V30 2236 O 210.89 -0.630134 -1.71276 0
M  V30 2237 C 210.941 -3.61371 0.0966523 0
M  V30 2238 O 210.662 -4.15758 1.38119 0
M  V30 2239 C 212.163 -4.41455 -0.403996 0
M  V30 2240 H 209.383 -0.664459 0.0934604 0
M  V30 2241 H 211.927 -1.83447 0.90373 0
M  V30 2242 H 210.082 -3.8315 -0.572259 0
M  V30 2243 H 210.496 -5.09499 1.24542 0
M  V30 2244 H 211.97 -5.50437 -0.415045 0
M  V30 2245 H 212.447 -4.15036 -1.43674 0
M  V30 2246 H 213.053 -4.24663 0.232691 0
M  V30 2247 N 211.368 -0.403325 -1.52352 0
M  V30 2248 C 212.614 0.174605 -2.02047 0
M  V30 2249 C 212.947 1.45282 -1.28867 0
M  V30 2250 O 212.222 1.90483 -0.393257 0
M  V30 2251 C 212.505 0.428238 -3.57545 0
M  V30 2252 C 212.358 -0.866248 -4.4138 0
M  V30 2253 C 213.677 1.21287 -4.23057 0
M  V30 2254 H 210.796 0.0619851 -0.734389 0
M  V30 2255 H 213.438 -0.53565 -1.82293 0
M  V30 2256 H 211.588 1.03327 -3.74507 0
M  V30 2257 H 213.26 -1.50265 -4.3614 0
M  V30 2258 H 211.503 -1.47851 -4.07827 0
M  V30 2259 H 212.174 -0.643249 -5.48239 0
M  V30 2260 H 214.65 0.700703 -4.10158 0
M  V30 2261 H 213.526 1.35909 -5.31808 0
M  V30 2262 H 213.787 2.23193 -3.81625 0
M  V30 2263 N 212.846 1.57033 -0.133567 0
M  V30 2264 C 213.793 2.16074 0.811208 0
M  V30 2265 C 214.763 1.08979 1.2535 0
M  V30 2266 O 215.948 1.36958 1.32843 0
M  V30 2267 C 213.088 2.77595 2.05024 0
M  V30 2268 C 212.201 3.99042 1.65498 0
M  V30 2269 C 211.336 4.48603 2.84479 0
M  V30 2270 C 210.375 5.62547 2.41262 0
M  V30 2271 N 209.512 6.06787 3.53206 0
M  V30 2272 H 214.352 2.96477 0.300906 0
M  V30 2273 H 211.889 1.46462 0.136822 0
M  V30 2274 H 213.847 3.11402 2.77642 0
M  V30 2275 H 212.477 1.99859 2.53488 0
M  V30 2276 H 211.529 3.71302 0.826981 0
M  V30 2277 H 212.841 4.81629 1.29748 0
M  V30 2278 H 211.995 4.84395 3.65303 0
M  V30 2279 H 210.734 3.64995 3.23465 0
M  V30 2280 H 209.739 5.26345 1.58874 0
M  V30 2281 H 210.964 6.47931 2.03377 0
M  V30 2282 H 208.91 5.26117 3.91838 0
M  V30 2283 H 208.827 6.84266 3.21427 0
M  V30 2284 H 210.095 6.4722 4.34427 0
M  V30 2285 N 214.325 -0.140222 1.56975 0
M  V30 2286 C 215.572 -0.851687 1.83719 0
M  V30 2287 C 215.9 -1.80862 0.715485 0
M  V30 2288 O 215.155 -1.93464 -0.294956 0
M  V30 2289 C 215.454 -1.65386 3.16832 0
M  V30 2290 C 215.12 -0.843112 4.42947 0
M  V30 2291 C 213.782 -0.619464 4.77196 0
M  V30 2292 C 216.134 -0.276582 5.20466 0
M  V30 2293 C 213.462 0.181312 5.8642 0
M  V30 2294 C 215.814 0.51127 6.30531 0
M  V30 2295 C 214.478 0.745432 6.63325 0
M  V30 2296 H 213.748 -0.311654 0.672274 0
M  V30 2297 H 216.395 -0.115006 1.91154 0
M  V30 2298 H 214.7 -2.46084 3.04877 0
M  V30 2299 H 216.397 -2.20793 3.34741 0
M  V30 2300 H 212.987 -1.0275 4.16101 0
M  V30 2301 H 217.171 -0.436632 4.94376 0
M  V30 2302 H 212.427 0.372165 6.10266 0
M  V30 2303 H 216.601 0.957354 6.89788 0
M  V30 2304 H 214.228 1.36778 7.47794 0
M  V30 2305 N 215.803 -1.52179 -0.40978 0
M  V30 2306 C 217.219 -1.40968 -0.74835 0
M  V30 2307 C 217.419 -0.513657 -1.94843 0
M  V30 2308 O 216.475 0.0208026 -2.52491 0
M  V30 2309 C 217.788 -2.83483 -1.0029 0
M  V30 2310 C 219.336 -2.92821 -1.10565 0
M  V30 2311 C 219.811 -4.36303 -1.39296 0
M  V30 2312 N 221.302 -4.39535 -1.46162 0
M  V30 2313 C 222.037 -5.47614 -1.70018 0
M  V30 2314 N 221.533 -6.65812 -1.91483 0
M  V30 2315 N 223.326 -5.35129 -1.72027 0
M  V30 2316 H 215.477 -2.0897 0.380186 0
M  V30 2317 H 217.74 -0.94185 0.107805 0
M  V30 2318 H 217.446 -3.51168 -0.193461 0
M  V30 2319 H 217.32 -3.24487 -1.92323 0
M  V30 2320 H 219.707 -2.25318 -1.90568 0
M  V30 2321 H 219.788 -2.55276 -0.16369 0
M  V30 2322 H 219.432 -5.04366 -0.598109 0
M  V30 2323 H 219.362 -4.71385 -2.34743 0
M  V30 2324 H 221.853 -3.54332 -1.31367 0
M  V30 2325 H 222.166 -7.43964 -2.09134 0
M  V30 2326 H 220.511 -6.68879 -1.88749 0
M  V30 2327 H 223.702 -4.41764 -1.54796 0
M  V30 2328 H 223.875 -6.19433 -1.9028 0
M  V30 2329 N 217.281 0.66697 -1.42791 0
M  V30 2330 C 218.527 1.4291 -1.43891 0
M  V30 2331 C 218.86 1.94114 -0.0578972 0
M  V30 2332 O 218.135 1.71414 0.91911 0
M  V30 2333 C 218.418 2.62049 -2.46987 0
M  V30 2334 C 218.271 2.16426 -3.94309 0
M  V30 2335 C 219.59 3.64266 -2.46978 0
M  V30 2336 H 216.709 0.518306 -0.523954 0
M  V30 2337 H 219.351 0.757321 -1.74255 0
M  V30 2338 H 217.501 3.19361 -2.21225 0
M  V30 2339 H 219.173 1.64221 -4.31079 0
M  V30 2340 H 217.416 1.47925 -4.078 0
M  V30 2341 H 218.087 3.02038 -4.62036 0
M  V30 2342 H 220.563 3.16686 -2.69906 0
M  V30 2343 H 219.439 4.45196 -3.21079 0
M  V30 2344 H 219.7 4.15927 -1.49857 0
M  V30 2345 N 218.759 1.29093 0.90403 0
M  V30 2346 C 220.005 1.16986 1.65656 0
M  V30 2347 C 220.338 -0.278925 1.92186 0
M  V30 2348 O 219.613 -1.2019 1.5292 0
M  V30 2349 C 219.896 1.97908 3.0084 0
M  V30 2350 C 219.749 3.50903 2.81403 0
M  V30 2351 C 221.068 1.80208 4.01513 0
M  V30 2352 H 218.187 0.426346 0.601164 0
M  V30 2353 H 220.829 1.58518 1.04747 0
M  V30 2354 H 218.979 1.62616 3.52829 0
M  V30 2355 H 220.651 3.96153 2.36348 0
M  V30 2356 H 218.894 3.76045 2.1627 0
M  V30 2357 H 219.565 4.02791 3.77443 0
M  V30 2358 H 222.041 2.11025 3.58619 0
M  V30 2359 H 220.917 2.39184 4.94047 0
M  V30 2360 H 221.178 0.756119 4.35586 0
M  V30 2361 N 220.237 -1.11381 1.11499 0
M  V30 2362 C 221.462 -1.87475 0.887019 0
M  V30 2363 C 221.887 -1.79639 -0.557796 0
M  V30 2364 O 221.245 -1.15924 -1.39396 0
M  V30 2365 C 221.293 -3.34213 1.35403 0
M  V30 2366 O 220.397 -4.0903 0.526146 0
M  V30 2367 H 219.738 -0.582099 0.319463 0
M  V30 2368 H 222.268 -1.40785 1.48461 0
M  V30 2369 H 222.278 -3.8506 1.34881 0
M  V30 2370 H 220.953 -3.39232 2.40612 0
M  V30 2371 H 219.53 -3.68082 0.597522 0
M  V30 2372 N 221.715 -0.905404 -1.28997 0
M  V30 2373 C 222.648 -0.331959 -2.25773 0
M  V30 2374 C 223.626 0.559099 -1.52685 0
M  V30 2375 O 224.81 0.50463 -1.8162 0
M  V30 2376 C 221.937 0.526276 -3.34586 0
M  V30 2377 C 220.983 -0.298249 -4.25456 0
M  V30 2378 S 221.816 -1.69968 -5.0781 0
M  V30 2379 C 222.972 -0.848519 -6.20122 0
M  V30 2380 H 223.205 -1.15222 -2.74064 0
M  V30 2381 H 220.738 -0.706112 -1.37308 0
M  V30 2382 H 222.696 1.01565 -3.97737 0
M  V30 2383 H 221.357 1.32084 -2.84978 0
M  V30 2384 H 220.55 0.357607 -5.0273 0
M  V30 2385 H 220.152 -0.720968 -3.66985 0
M  V30 2386 H 222.444 -0.0744325 -6.77459 0
M  V30 2387 H 223.387 -1.59353 -6.89937 0
M  V30 2388 H 223.795 -0.400383 -5.63078 0
M  V30 2389 N 223.193 1.4272 -0.668489 0
M  V30 2390 C 224.47 1.95248 -0.117373 0
M  V30 2391 C 224.85 1.60919 1.36632 0
M  V30 2392 O 224.198 0.902095 2.09939 0
M  V30 2393 C 224.408 3.46927 -0.379806 0
M  V30 2394 C 225.756 4.23588 -0.292923 0
M  V30 2395 O 226.78 3.5482 -0.313204 0
M  V30 2396 O 225.639 5.46017 -0.229697 0
M  V30 2397 H 222.733 0.827 0.00079152 0
M  V30 2398 H 225.279 1.52581 -0.742783 0
M  V30 2399 H 224.051 3.65096 -1.40786 0
M  V30 2400 H 223.674 3.96627 0.277923 0
M  V30 2401 N 224.671 0.411399 1.52136 0
M  V30 2402 C 225.581 -0.419774 2.30814 0
M  V30 2403 C 226.597 -1.0515 1.38634 0
M  V30 2404 O 227.773 -1.05252 1.71709 0
M  V30 2405 C 224.838 -1.52019 3.11594 0
M  V30 2406 C 223.899 -0.91129 4.19516 0
M  V30 2407 C 223.132 -1.95927 4.96436 0
M  V30 2408 O 223.355 -3.17775 4.73683 0
M  V30 2409 O 222.289 -1.56423 5.81219 0
M  V30 2410 H 226.115 0.221805 3.02889 0
M  V30 2411 H 223.7 0.174547 1.48377 0
M  V30 2412 H 225.582 -2.15898 3.61892 0
M  V30 2413 H 224.257 -2.14633 2.42311 0
M  V30 2414 H 223.164 -0.235157 3.7336 0
M  V30 2415 H 224.497 -0.32904 4.91099 0
M  V30 2416 N 226.149 -1.5696 0.141893 0
M  V30 2417 C 227.097 -2.17784 -0.816874 0
M  V30 2418 C 228.091 -1.1334 -1.25899 0
M  V30 2419 O 229.297 -1.316 -1.22806 0
M  V30 2420 H 225.672 -0.697278 -0.281615 0
M  V30 2421 H 227.643 -2.97087 -0.279621 0
M  V30 2422 C 226.392 -2.80983 -2.04802 0
M  V30 2423 H 225.715 -3.61062 -1.7168 0
M  V30 2424 H 227.155 -3.2705 -2.69841 0
M  V30 2425 C 225.614 -1.79228 -2.8527 0
M  V30 2426 O 226.144 -1.25962 -3.8144 0
M  V30 2427 N 224.35 -1.48647 -2.49704 0
M  V30 2428 H 223.897 -1.92155 -1.71564 0
M  V30 2429 H 223.855 -0.808115 -3.03837 0
M  V30 2430 N 227.627 0.131896 -1.57047 0
M  V30 2431 C 228.874 0.841932 -1.84168 0
M  V30 2432 C 229.202 1.8048 -0.725066 0
M  V30 2433 O 228.457 1.93618 0.284692 0
M  V30 2434 C 228.756 1.63703 -3.17704 0
M  V30 2435 C 228.422 0.81961 -4.43388 0
M  V30 2436 C 227.084 0.594148 -4.77518 0
M  V30 2437 C 229.436 0.248977 -5.20605 0
M  V30 2438 C 226.764 -0.212409 -5.86315 0
M  V30 2439 C 229.116 -0.544701 -6.30251 0
M  V30 2440 C 227.78 -0.780599 -6.6292 0
M  V30 2441 H 227.05 0.308085 -0.673917 0
M  V30 2442 H 229.697 0.104867 -1.91213 0
M  V30 2443 H 228.002 2.44464 -3.06177 0
M  V30 2444 H 229.699 2.19015 -3.35907 0
M  V30 2445 H 226.289 1.00542 -4.16641 0
M  V30 2446 H 230.473 0.410408 -4.946 0
M  V30 2447 H 225.729 -0.404524 -6.1006 0
M  V30 2448 H 229.903 -0.993922 -6.89271 0
M  V30 2449 H 227.53 -1.40742 -7.47058 0
M  V30 2450 N 229.106 1.52395 0.401703 0
M  V30 2451 C 230.056 1.72649 1.48917 0
M  V30 2452 C 231.04 0.580436 1.50066 0
M  V30 2453 O 232.232 0.83779 1.55917 0
M  V30 2454 C 229.361 1.88729 2.86769 0
M  V30 2455 C 228.447 3.09228 2.90239 0
M  V30 2456 N 228.838 4.31805 2.63396 0
M  V30 2457 C 227.136 3.09214 3.21408 0
M  V30 2458 C 227.837 5.13326 2.73625 0
M  V30 2459 N 226.813 4.48735 3.06819 0
M  V30 2460 H 230.615 2.65058 1.26971 0
M  V30 2461 H 228.129 1.50528 0.609504 0
M  V30 2462 H 230.126 2.01358 3.65049 0
M  V30 2463 H 228.786 0.975252 3.09708 0
M  V30 2464 H 229.797 4.60154 2.37653 0
M  V30 2465 H 226.474 2.27774 3.49893 0
M  V30 2466 H 227.864 6.21003 2.56524 0
M  V30 2467 N 230.584 -0.659388 1.43143 0
M  V30 2468 C 231.995 -1.24041 1.39537 0
M  V30 2469 C 232.346 -1.95963 0.0963364 0
M  V30 2470 O 231.471 -2.00892 -0.804438 0
M  V30 2471 C 232.066 -2.25601 2.52764 0
M  V30 2472 C 230.625 -2.79195 2.52443 0
M  V30 2473 C 229.772 -1.53743 2.30778 0
M  V30 2474 H 232.723 -0.451792 1.52133 0
M  V30 2475 H 232.744 -3.07651 2.23899 0
M  V30 2476 H 232.256 -1.73226 3.47296 0
M  V30 2477 H 230.357 -3.35649 1.61773 0
M  V30 2478 H 230.47 -3.2716 3.50004 0
M  V30 2479 H 228.834 -1.80869 1.79328 0
M  V30 2480 H 229.617 -1.03312 3.27386 0
M  V30 2481 N 232.062 -1.29571 -0.897171 0
M  V30 2482 C 232.992 -1.17473 -2.01798 0
M  V30 2483 C 233.973 -0.068323 -1.69963 0
M  V30 2484 O 235.158 -0.248239 -1.92607 0
M  V30 2485 C 232.288 -0.853099 -3.36659 0
M  V30 2486 C 231.242 -1.9161 -3.82713 0
M  V30 2487 C 230.568 -1.44773 -5.14728 0
M  V30 2488 C 231.868 -3.32535 -4.02763 0
M  V30 2489 H 233.562 -2.11237 -2.12177 0
M  V30 2490 H 231.108 -1.01699 -1.01948 0
M  V30 2491 H 233.061 -0.755165 -4.14578 0
M  V30 2492 H 231.785 0.120236 -3.26379 0
M  V30 2493 H 230.444 -2.00346 -3.07013 0
M  V30 2494 H 230.092 -0.462995 -5.00865 0
M  V30 2495 H 229.792 -2.15865 -5.46513 0
M  V30 2496 H 231.316 -1.36334 -5.95185 0
M  V30 2497 H 232.73 -3.26626 -4.71156 0
M  V30 2498 H 231.127 -4.01607 -4.45905 0
M  V30 2499 H 232.197 -3.75326 -3.07016 0
M  V30 2500 N 233.54 1.10788 -1.12088 0
M  V30 2501 C 234.488 2.19111 -0.780587 0
M  V30 2502 C 235.482 1.67818 0.230961 0
M  V30 2503 O 236.688 1.79777 0.0895427 0
M  V30 2504 H 233.063 0.714477 -0.234578 0
M  V30 2505 H 235.034 2.45055 -1.70266 0
M  V30 2506 C 233.783 3.46818 -0.24747 0
M  V30 2507 H 233.106 3.86646 -1.01712 0
M  V30 2508 H 234.546 4.23973 -0.0476291 0
M  V30 2509 C 233.005 3.20968 1.02378 0
M  V30 2510 O 233.535 3.42298 2.10226 0
M  V30 2511 N 231.741 2.74658 0.949271 0
M  V30 2512 H 231.288 2.57501 0.0715173 0
M  V30 2513 H 231.246 2.57739 1.80049 0
M  V30 2514 N 235.018 0.912232 1.28515 0
M  V30 2515 C 235.928 0.404506 2.31086 0
M  V30 2516 C 236.944 -0.50707 1.66448 0
M  V30 2517 O 238.12 -0.393624 1.97516 0
M  V30 2518 C 235.185 -0.348572 3.44943 0
M  V30 2519 C 234.246 0.59604 4.25142 0
M  V30 2520 C 233.479 -0.121194 5.33562 0
M  V30 2521 O 233.702 -1.34317 5.5436 0
M  V30 2522 O 232.636 0.542716 5.99448 0
M  V30 2523 H 236.462 1.25579 2.76521 0
M  V30 2524 H 234.047 0.676998 1.33181 0
M  V30 2525 H 235.929 -0.77395 4.14232 0
M  V30 2526 H 234.604 -1.17571 3.01594 0
M  V30 2527 H 233.511 1.07079 3.58448 0
M  V30 2528 H 234.844 1.38995 4.72167 0
M  V30 2529 N 236.496 -1.42363 0.676048 0
M  V30 2530 C 237.426 -2.33497 0.0124832 0
M  V30 2531 C 238.407 -1.50748 -0.787981 0
M  V30 2532 O 239.592 -1.79346 -0.744884 0
M  V30 2533 C 236.722 -3.34377 -0.938582 0
M  V30 2534 C 235.676 -4.27289 -0.246622 0
M  V30 2535 C 235.002 -5.18386 -1.31071 0
M  V30 2536 C 236.302 -5.14916 0.875125 0
M  V30 2537 H 237.996 -2.89233 0.773593 0
M  V30 2538 H 235.542 -1.39073 0.37346 0
M  V30 2539 H 237.495 -3.97044 -1.41188 0
M  V30 2540 H 236.219 -2.76947 -1.73113 0
M  V30 2541 H 234.878 -3.66018 0.206456 0
M  V30 2542 H 234.526 -4.57282 -2.09528 0
M  V30 2543 H 234.226 -5.81378 -0.852839 0
M  V30 2544 H 235.75 -5.83929 -1.78492 0
M  V30 2545 H 237.164 -5.71262 0.482983 0
M  V30 2546 H 235.561 -5.86747 1.25887 0
M  V30 2547 H 236.631 -4.53242 1.72335 0
M  V30 2548 N 237.974 -0.419461 -1.51915 0
M  V30 2549 C 239.223 0.154346 -2.01109 0
M  V30 2550 C 239.536 1.45338 -1.30905 0
M  V30 2551 O 240.742 2.10906 -1.7097 0
M  V30 2552 C 239.198 0.325615 -3.58424 0
M  V30 2553 C 238.806 -0.961934 -4.37551 0
M  V30 2554 C 240.55 0.854155 -4.15818 0
M  V30 2555 C 238.457 -0.757287 -5.86531 0
M  V30 2556 H 237.387 0.0614563 -0.751491 0
M  V30 2557 H 240.038 -0.54649 -1.75173 0
M  V30 2558 H 238.42 1.08903 -3.80731 0
M  V30 2559 H 239.594 -1.7323 -4.26999 0
M  V30 2560 H 237.909 -1.41766 -3.91524 0
M  V30 2561 H 240.506 1.02346 -5.24814 0
M  V30 2562 H 240.849 1.83172 -3.73837 0
M  V30 2563 H 241.382 0.149528 -3.97519 0
M  V30 2564 H 238.121 -1.70671 -6.32892 0
M  V30 2565 H 237.641 -0.0264061 -5.99794 0
M  V30 2566 H 239.32 -0.403482 -6.45741 0
M  V30 2567 N 239.452 1.56882 -0.150215 0
M  V30 2568 C 240.863 1.82995 0.370076 0
M  V30 2569 C 241.214 1.06907 1.64515 0
M  V30 2570 O 240.339 0.315369 2.1409 0
M  V30 2571 C 240.934 3.31942 0.678208 0
M  V30 2572 C 239.493 3.58625 1.14301 0
M  V30 2573 C 238.64 2.76792 0.167778 0
M  V30 2574 H 241.591 1.54209 -0.374858 0
M  V30 2575 H 241.612 3.48272 1.53254 0
M  V30 2576 H 241.124 3.87294 -0.249991 0
M  V30 2577 H 239.225 3.08664 2.08704 0
M  V30 2578 H 239.338 4.67073 1.06676 0
M  V30 2579 H 237.702 2.45972 0.661037 0
M  V30 2580 H 238.485 3.34916 -0.754069 0
M  V30 2581 N 240.93 -0.123565 1.57115 0
M  V30 2582 C 241.86 -1.15309 2.03042 0
M  V30 2583 C 242.841 -1.43454 0.914061 0
M  V30 2584 O 244.026 -1.53973 1.18347 0
M  V30 2585 C 241.156 -2.48043 2.43089 0
M  V30 2586 C 240.11 -2.3437 3.58127 0
M  V30 2587 C 239.436 -3.72026 3.84059 0
M  V30 2588 C 240.736 -1.80804 4.90007 0
M  V30 2589 H 242.43 -0.771102 2.893 0
M  V30 2590 H 239.976 -0.369479 1.39179 0
M  V30 2591 H 241.929 -3.20311 2.73823 0
M  V30 2592 H 240.653 -2.88122 1.53796 0
M  V30 2593 H 239.312 -1.64551 3.27595 0
M  V30 2594 H 238.96 -4.09582 2.91979 0
M  V30 2595 H 238.66 -3.63732 4.6149 0
M  V30 2596 H 240.184 -4.45806 4.1724 0
M  V30 2597 H 241.598 -2.42886 5.19307 0
M  V30 2598 H 239.995 -1.83343 5.71407 0
M  V30 2599 H 241.065 -0.76528 4.78823 0
M  V30 2600 N 242.408 -1.52605 -0.393616 0
M  V30 2601 C 243.654 -1.67672 -1.14079 0
M  V30 2602 C 243.987 -0.413121 -1.89755 0
M  V30 2603 O 243.262 0.588952 -1.85369 0
M  V30 2604 C 243.545 -2.9088 -2.12276 0
M  V30 2605 C 243.398 -4.27329 -1.40394 0
M  V30 2606 C 244.717 -3.09628 -3.12759 0
M  V30 2607 H 241.836 -0.610168 -0.413356 0
M  V30 2608 H 244.478 -1.85193 -0.424696 0
M  V30 2609 H 242.628 -2.76073 -2.73342 0
M  V30 2610 H 244.3 -4.53894 -0.82327 0
M  V30 2611 H 242.543 -4.2802 -0.705801 0
M  V30 2612 H 243.214 -5.09615 -2.12123 0
M  V30 2613 H 245.69 -3.23436 -2.61779 0
M  V30 2614 H 244.566 -3.97322 -3.78717 0
M  V30 2615 H 244.827 -2.23637 -3.81365 0
M  V30 2616 N 243.887 0.651787 -1.4349 0
M  V30 2617 C 245.117 1.43728 -1.48411 0
M  V30 2618 C 245.525 1.8893 -0.10103 0
M  V30 2619 O 244.868 1.60182 0.899307 0
M  V30 2620 C 244.93 2.70411 -2.36893 0
M  V30 2621 C 244.594 2.4714 -3.8441 0
M  V30 2622 C 245.591 2.10271 -4.75481 0
M  V30 2623 C 243.276 2.6142 -4.28912 0
M  V30 2624 C 245.27 1.87982 -6.0905 0
M  V30 2625 C 242.957 2.38746 -5.62533 0
M  V30 2626 C 243.955 2.02083 -6.5242 0
M  V30 2627 O 243.643 1.79647 -7.8357 0
M  V30 2628 H 243.375 0.447962 -0.506267 0
M  V30 2629 H 245.929 0.80624 -1.88915 0
M  V30 2630 H 244.159 3.36079 -1.91278 0
M  V30 2631 H 245.848 3.32364 -2.33 0
M  V30 2632 H 246.614 1.98814 -4.42378 0
M  V30 2633 H 242.493 2.88931 -3.59222 0
M  V30 2634 H 246.037 1.5929 -6.7917 0
M  V30 2635 H 241.934 2.49806 -5.95203 0
M  V30 2636 H 242.702 1.9406 -7.95162 0
M  V30 2637 N 245.365 1.30045 0.890287 0
M  V30 2638 C 246.614 1.17929 1.63633 0
M  V30 2639 C 246.927 -0.266204 1.9378 0
M  V30 2640 O 248.133 -0.508804 2.6669 0
M  V30 2641 C 246.589 2.06317 2.94892 0
M  V30 2642 C 246.197 3.55745 2.72305 0
M  V30 2643 C 247.941 2.0295 3.72843 0
M  V30 2644 C 245.848 4.36205 3.99348 0
M  V30 2645 H 244.778 0.437782 0.613892 0
M  V30 2646 H 247.429 1.54754 0.986075 0
M  V30 2647 H 245.811 1.6237 3.61182 0
M  V30 2648 H 246.985 4.07805 2.1455 0
M  V30 2649 H 245.3 3.6088 2.07737 0
M  V30 2650 H 247.897 2.60319 4.67053 0
M  V30 2651 H 248.24 1.0117 4.0382 0
M  V30 2652 H 248.773 2.4499 3.13408 0
M  V30 2653 H 245.512 5.38659 3.73533 0
M  V30 2654 H 245.032 3.8891 4.56628 0
M  V30 2655 H 246.711 4.47362 4.67415 0
M  V30 2656 N 246.843 -1.10192 1.12674 0
M  V30 2657 C 247.775 -2.16418 0.754701 0
M  V30 2658 C 248.788 -1.61309 -0.21986 0
M  V30 2659 O 249.977 -1.785 -0.000826841 0
M  V30 2660 C 247.077 -3.38762 0.096698 0
M  V30 2661 C 246.25 -4.23307 1.10136 0
M  V30 2662 C 245.309 -5.24092 0.470513 0
M  V30 2663 O 244.335 -5.57906 1.12824 0
M  V30 2664 N 245.537 -5.75491 -0.760948 0
M  V30 2665 H 248.302 -2.48943 1.66875 0
M  V30 2666 H 245.863 -1.25834 1.01869 0
M  V30 2667 H 247.855 -4.03291 -0.337384 0
M  V30 2668 H 246.425 -3.04192 -0.720153 0
M  V30 2669 H 245.645 -3.55036 1.71299 0
M  V30 2670 H 246.933 -4.76624 1.78064 0
M  V30 2671 H 246.331 -5.50222 -1.31424 0
M  V30 2672 H 244.888 -6.41792 -1.13781 0
M  V30 2673 N 248.321 -0.919034 -1.28029 0
M  V30 2674 C 249.598 -0.473668 -1.89778 0
M  V30 2675 C 249.978 1.04783 -1.83259 0
M  V30 2676 O 249.326 1.8982 -1.27202 0
M  V30 2677 C 249.536 -1.00998 -3.34066 0
M  V30 2678 C 250.884 -1.06525 -4.1102 0
M  V30 2679 O 251.908 -0.958996 -3.43048 0
M  V30 2680 O 250.767 -1.22776 -5.3253 0
M  V30 2681 H 247.861 -0.15098 -0.813101 0
M  V30 2682 H 250.407 -1.01016 -1.36359 0
M  V30 2683 H 249.179 -2.05392 -3.33061 0
M  V30 2684 H 248.802 -0.454626 -3.94992 0
M  V30 2685 N 249.799 1.42003 -0.683588 0
M  V30 2686 C 251.21 1.84501 -0.285736 0
M  V30 2687 C 251.561 1.57213 1.17382 0
M  V30 2688 O 250.686 1.03642 1.89966 0
M  V30 2689 C 251.281 3.34912 -0.511821 0
M  V30 2690 C 249.84 3.76025 -0.168005 0
M  V30 2691 C 248.987 2.6551 -0.799983 0
M  V30 2692 H 251.938 1.31724 -0.885119 0
M  V30 2693 H 251.959 3.79784 0.233292 0
M  V30 2694 H 251.471 3.54741 -1.57418 0
M  V30 2695 H 249.572 3.61801 0.890567 0
M  V30 2696 H 249.685 4.75141 -0.614661 0
M  V30 2697 H 248.049 2.53654 -0.230568 0
M  V30 2698 H 248.832 2.8816 -1.86597 0
M  V30 2699 N 251.277 0.427512 1.51691 0
M  V30 2700 C 252.224 -0.388867 2.275 0
M  V30 2701 C 253.194 -1.02532 1.30677 0
M  V30 2702 O 254.379 -1.0461 1.59566 0
M  V30 2703 C 251.519 -1.48954 3.11298 0
M  V30 2704 C 250.632 -0.872194 4.23104 0
M  V30 2705 C 249.767 -1.94709 4.94228 0
M  V30 2706 C 248.806 -1.30766 5.97969 0
M  V30 2707 N 247.943 -2.32349 6.62539 0
M  V30 2708 H 252.783 0.263997 2.96828 0
M  V30 2709 H 250.32 0.142033 1.46413 0
M  V30 2710 H 252.278 -2.13887 3.58201 0
M  V30 2711 H 250.908 -2.11217 2.44105 0
M  V30 2712 H 249.96 -0.111419 3.80237 0
M  V30 2713 H 251.272 -0.365264 4.97461 0
M  V30 2714 H 250.426 -2.67327 5.44629 0
M  V30 2715 H 249.165 -2.48773 4.1948 0
M  V30 2716 H 248.17 -0.566902 5.4687 0
M  V30 2717 H 249.395 -0.774483 6.74669 0
M  V30 2718 H 247.341 -2.85511 5.90609 0
M  V30 2719 H 247.258 -1.8652 7.3263 0
M  V30 2720 H 248.526 -3.04481 7.17574 0
M  V30 2721 N 252.755 -1.56801 0.158532 0
M  V30 2722 C 254.003 -1.96102 -0.488712 0
M  V30 2723 C 254.324 -1.04498 -1.64636 0
M  V30 2724 O 253.594 -0.108783 -1.95598 0
M  V30 2725 H 252.174 -0.724102 -0.183535 0
M  V30 2726 H 254.836 -1.93457 0.236728 0
M  V30 2727 H 253.932 -3.00097 -0.857219 0
M  V30 2728 N 254.233 0.115231 -1.57178 0
M  V30 2729 C 255.181 1.16014 -2.01602 0
M  V30 2730 C 256.175 1.42653 -0.913587 0
M  V30 2731 O 257.381 1.42571 -1.09879 0
M  V30 2732 H 253.756 0.391252 -0.642204 0
M  V30 2733 H 255.727 0.758998 -2.88586 0
M  V30 2734 C 254.476 2.47767 -2.4394 0
M  V30 2735 H 253.799 2.28108 -3.28339 0
M  V30 2736 H 255.239 3.19432 -2.78818 0
M  V30 2737 C 253.698 3.10617 -1.30455 0
M  V30 2738 O 254.228 3.96846 -0.622585 0
M  V30 2739 N 252.434 2.70553 -1.06064 0
M  V30 2740 H 251.981 2.00527 -1.61699 0
M  V30 2741 H 251.939 3.12934 -0.303284 0
M  V30 2742 N 255.711 1.52812 0.385517 0
M  V30 2743 C 257.127 1.4214 0.725829 0
M  V30 2744 C 257.327 0.544589 1.94001 0
M  V30 2745 O 256.383 0.0193693 2.52493 0
M  V30 2746 C 257.696 2.85042 0.957668 0
M  V30 2747 C 259.244 2.94543 1.05892 0
M  V30 2748 C 259.719 4.38464 1.32337 0
M  V30 2749 N 261.21 4.41804 1.39151 0
M  V30 2750 C 261.945 5.5025 1.61285 0
M  V30 2751 N 261.441 6.68775 1.80866 0
M  V30 2752 N 263.234 5.37798 1.63492 0
M  V30 2753 H 255.385 2.08338 -0.413383 0
M  V30 2754 H 257.648 0.940016 -0.122775 0
M  V30 2755 H 257.354 3.51431 0.137568 0
M  V30 2756 H 257.228 3.27505 1.87137 0
M  V30 2757 H 259.615 2.28321 1.86959 0
M  V30 2758 H 259.696 2.55504 0.123057 0
M  V30 2759 H 259.34 5.05254 0.517793 0
M  V30 2760 H 259.27 4.75059 2.27214 0
M  V30 2761 H 261.761 3.56377 1.25713 0
M  V30 2762 H 262.074 7.47197 1.97271 0
M  V30 2763 H 260.419 6.71797 1.78083 0
M  V30 2764 H 263.61 4.44171 1.47749 0
M  V30 2765 H 263.783 6.22382 1.80402 0
M  V30 2766 N 257.189 -0.644168 1.43834 0
M  V30 2767 C 258.438 -1.39985 1.45214 0
M  V30 2768 C 258.751 -1.95421 0.0835494 0
M  V30 2769 O 259.957 -2.71488 -0.0251748 0
M  V30 2770 C 258.413 -2.53384 2.55587 0
M  V30 2771 C 258.021 -2.04517 3.98594 0
M  V30 2772 C 259.765 -3.30685 2.66172 0
M  V30 2773 C 257.672 -3.1518 5.00416 0
M  V30 2774 H 256.602 -0.526005 0.540218 0
M  V30 2775 H 259.253 -0.694367 1.69855 0
M  V30 2776 H 257.635 -3.26446 2.24163 0
M  V30 2777 H 258.809 -1.38405 4.39523 0
M  V30 2778 H 257.124 -1.40068 3.92135 0
M  V30 2779 H 259.721 -4.13158 3.39418 0
M  V30 2780 H 260.064 -3.79312 1.71546 0
M  V30 2781 H 260.597 -2.64708 2.96942 0
M  V30 2782 H 257.336 -2.71511 5.96625 0
M  V30 2783 H 256.856 -3.79974 4.64091 0
M  V30 2784 H 258.535 -3.80166 5.23529 0
M  V30 2785 N 258.668 -1.30515 -0.883378 0
M  V30 2786 C 259.631 -1.1701 -1.97082 0
M  V30 2787 C 260.631 -0.10089 -1.60483 0
M  V30 2788 O 261.821 -0.349127 -1.70666 0
M  V30 2789 C 258.953 -0.793045 -3.31547 0
M  V30 2790 H 260.146 -2.13622 -2.10489 0
M  V30 2791 H 257.699 -1.13935 -1.06998 0
M  V30 2792 H 258.434 0.172499 -3.23841 0
M  V30 2793 H 258.219 -1.56576 -3.5948 0
M  V30 2794 H 259.709 -0.722073 -4.1131 0
M  V30 2795 N 260.146 1.09593 -1.13257 0
M  V30 2796 C 261.078 2.16015 -0.766167 0
M  V30 2797 C 262.091 1.61423 0.211303 0
M  V30 2798 O 263.28 1.78498 -0.00863946 0
M  V30 2799 C 260.38 3.38706 -0.114662 0
M  V30 2800 C 259.553 4.22717 -1.12379 0
M  V30 2801 C 258.612 5.23835 -0.498301 0
M  V30 2802 O 257.638 5.573 -1.15781 0
M  V30 2803 N 258.84 5.75886 0.730417 0
M  V30 2804 H 261.605 2.48055 -1.68193 0
M  V30 2805 H 259.166 1.25292 -1.02535 0
M  V30 2806 H 261.158 4.03464 0.315991 0
M  V30 2807 H 259.728 3.04569 0.704011 0
M  V30 2808 H 258.948 3.54122 -1.73179 0
M  V30 2809 H 260.236 4.75673 -1.80589 0
M  V30 2810 H 259.634 5.50911 1.28504 0
M  V30 2811 H 258.191 6.42387 1.10376 0
M  V30 2812 N 261.624 0.925811 1.2754 0
M  V30 2813 C 262.87 0.575575 1.95086 0
M  V30 2814 C 263.225 -0.873246 1.71441 0
M  V30 2815 O 262.518 -1.61443 1.03183 0
M  V30 2816 C 262.712 0.835296 3.47502 0
M  V30 2817 C 262.541 2.30781 3.85967 0
M  V30 2818 C 261.311 2.96017 4.09514 0
M  V30 2819 C 263.509 3.28519 3.95702 0
M  V30 2820 N 261.491 4.3344 4.34744 0
M  V30 2821 C 262.862 4.51146 4.25285 0
M  V30 2822 C 264.917 3.23753 3.7827 0
M  V30 2823 C 263.62 5.69606 4.39251 0
M  V30 2824 C 265.646 4.41523 3.9346 0
M  V30 2825 C 265.008 5.62928 4.23428 0
M  V30 2826 H 261.107 0.260711 0.737261 0
M  V30 2827 H 263.691 1.19204 1.53943 0
M  V30 2828 H 261.862 0.248005 3.87607 0
M  V30 2829 H 263.594 0.447878 4.02214 0
M  V30 2830 H 260.349 2.46695 4.04275 0
M  V30 2831 H 260.773 5.04528 4.5142 0
M  V30 2832 H 265.415 2.3096 3.54143 0
M  V30 2833 H 263.133 6.62866 4.62205 0
M  V30 2834 H 266.719 4.39351 3.81394 0
M  V30 2835 H 265.599 6.52538 4.34929 0
M  V30 2836 N 263.102 -1.41638 0.69111 0
M  V30 2837 C 264.034 -2.29194 -0.0161523 0
M  V30 2838 C 265.047 -1.44549 -0.748955 0
M  V30 2839 O 266.236 -1.681 -0.6004 0
M  V30 2840 C 263.336 -3.22325 -1.0469 0
M  V30 2841 C 262.509 -4.35706 -0.384621 0
M  V30 2842 C 261.568 -5.09443 -1.31737 0
M  V30 2843 O 260.594 -5.63386 -0.811451 0
M  V30 2844 N 261.796 -5.16487 -2.64993 0
M  V30 2845 H 264.561 -2.90534 0.735523 0
M  V30 2846 H 262.122 -1.52742 0.53679 0
M  V30 2847 H 264.114 -3.68522 -1.67252 0
M  V30 2848 H 262.684 -2.62323 -1.70015 0
M  V30 2849 H 261.904 -3.91948 0.420804 0
M  V30 2850 H 263.192 -5.08743 0.0760765 0
M  V30 2851 H 262.59 -4.741 -3.08619 0
M  V30 2852 H 261.147 -5.66276 -3.22761 0
M  V30 2853 N 264.58 -0.43555 -1.51462 0
M  V30 2854 C 265.805 0.132627 -2.06976 0
M  V30 2855 C 266.23 1.35848 -1.30104 0
M  V30 2856 O 265.588 1.78112 -0.338493 0
M  V30 2857 C 265.636 0.43523 -3.57964 0
M  V30 2858 O 264.74 1.52198 -3.83288 0
M  V30 2859 H 264.081 0.00265 -0.663995 0
M  V30 2860 H 266.611 -0.616369 -1.95095 0
M  V30 2861 H 266.621 0.686206 -4.02188 0
M  V30 2862 H 265.296 -0.460739 -4.1334 0
M  V30 2863 H 263.873 1.2611 -3.50928 0
M  V30 2864 N 266.058 1.56714 -0.166846 0
M  V30 2865 C 267.305 1.96747 0.479252 0
M  V30 2866 C 267.633 1.05263 1.63554 0
M  V30 2867 O 266.888 0.0858098 1.95512 0
M  V30 2868 C 267.187 3.42889 1.00806 0
M  V30 2869 C 266.853 4.50889 -0.0318574 0
M  V30 2870 C 265.515 4.8015 -0.317675 0
M  V30 2871 C 267.867 5.15949 -0.737956 0
M  V30 2872 C 265.195 5.71772 -1.31506 0
M  V30 2873 C 267.547 6.08647 -1.72429 0
M  V30 2874 C 266.211 6.36277 -2.0176 0
M  V30 2875 H 265.481 0.719949 0.175371 0
M  V30 2876 H 268.128 1.89756 -0.257864 0
M  V30 2877 H 266.433 3.4681 1.82291 0
M  V30 2878 H 268.13 3.71203 1.51689 0
M  V30 2879 H 264.72 4.28128 0.201088 0
M  V30 2880 H 268.904 4.93458 -0.530351 0
M  V30 2881 H 264.16 5.91465 -1.54853 0
M  V30 2882 H 268.334 6.58129 -2.27682 0
M  V30 2883 H 265.961 7.07075 -2.79194 0
M  V30 2884 N 267.536 -0.106894 1.57237 0
M  V30 2885 C 268.468 -1.15646 1.97885 0
M  V30 2886 C 269.481 -1.36981 0.879779 0
M  V30 2887 O 270.67 -1.35841 1.15799 0
M  V30 2888 C 267.77 -2.51425 2.27241 0
M  V30 2889 C 266.943 -2.50529 3.58545 0
M  V30 2890 C 266.002 -3.68145 3.75973 0
M  V30 2891 O 265.028 -3.51176 4.47956 0
M  V30 2892 N 266.23 -4.87177 3.15656 0
M  V30 2893 H 268.995 -0.81059 2.8853 0
M  V30 2894 H 266.556 -0.296024 1.59171 0
M  V30 2895 H 268.548 -3.28689 2.36105 0
M  V30 2896 H 267.118 -2.78147 1.42663 0
M  V30 2897 H 266.338 -1.58894 3.60758 0
M  V30 2898 H 267.626 -2.46997 4.44826 0
M  V30 2899 H 267.024 -5.03868 2.57165 0
M  V30 2900 H 265.581 -5.62075 3.30023 0
M  V30 2901 N 269.014 -1.53014 -0.377408 0
M  V30 2902 C 269.944 -1.81589 -1.46791 0
M  V30 2903 C 270.925 -0.668622 -1.56408 0
M  V30 2904 O 272.11 -0.917337 -1.71168 0
M  V30 2905 C 269.24 -1.99519 -2.8427 0
M  V30 2906 C 268.194 -3.15249 -2.89486 0
M  V30 2907 C 267.52 -3.18451 -4.29527 0
M  V30 2908 C 268.82 -4.54084 -2.58079 0
M  V30 2909 H 270.514 -2.7291 -1.23127 0
M  V30 2910 H 268.06 -1.31319 -0.590883 0
M  V30 2911 H 270.013 -2.18092 -3.60575 0
M  V30 2912 H 268.737 -1.04897 -3.09296 0
M  V30 2913 H 267.396 -2.96477 -2.15631 0
M  V30 2914 H 267.044 -2.2149 -4.5161 0
M  V30 2915 H 266.744 -3.962 -4.33934 0
M  V30 2916 H 268.268 -3.39193 -5.07721 0
M  V30 2917 H 269.682 -4.72899 -3.24098 0
M  V30 2918 H 268.079 -5.33987 -2.7382 0
M  V30 2919 H 269.149 -4.60006 -1.53372 0
M  V30 2920 N 270.492 0.636531 -1.44174 0
M  V30 2921 C 271.402 1.77754 -1.53103 0
M  V30 2922 C 272.418 1.68928 -0.417034 0
M  V30 2923 O 273.594 1.89801 -0.6736 0
M  V30 2924 C 270.659 3.14115 -1.46741 0
M  V30 2925 C 269.72 3.34612 -2.68948 0
M  V30 2926 C 268.953 4.64467 -2.6288 0
M  V30 2927 O 269.176 5.44919 -1.68581 0
M  V30 2928 O 268.11 4.87049 -3.53648 0
M  V30 2929 H 271.936 1.73174 -2.49489 0
M  V30 2930 H 269.521 0.79709 -1.2636 0
M  V30 2931 H 271.403 3.95412 -1.45696 0
M  V30 2932 H 270.078 3.19249 -0.534975 0
M  V30 2933 H 268.985 2.53014 -2.75562 0
M  V30 2934 H 270.318 3.34336 -3.61221 0
M  V30 2935 N 271.97 1.30982 0.876444 0
M  V30 2936 C 273.218 1.20058 1.62575 0
M  V30 2937 C 273.539 -0.242947 1.93481 0
M  V30 2938 O 272.809 -1.1619 1.57724 0
M  V30 2939 H 271.389 0.44135 0.602677 0
M  V30 2940 H 274.051 1.64222 1.04962 0
M  V30 2941 H 273.147 1.76762 2.57219 0
M  V30 2942 N 273.449 -1.08991 1.13837 0
M  V30 2943 C 274.697 -1.80899 0.901098 0
M  V30 2944 C 275.018 -1.86356 -0.574134 0
M  V30 2945 O 274.288 -1.35235 -1.41733 0
M  V30 2946 H 272.868 -0.669966 0.330386 0
M  V30 2947 H 275.53 -1.318 1.43578 0
M  V30 2948 H 274.626 -2.83929 1.29578 0
M  V30 2949 N 274.927 -0.932562 -1.27047 0
M  V30 2950 C 275.857 -0.452902 -2.29066 0
M  V30 2951 C 276.838 0.489338 -1.62909 0
M  V30 2952 O 278.023 0.393046 -1.90181 0
M  V30 2953 C 275.153 0.290698 -3.46081 0
M  V30 2954 C 274.107 -0.564168 -4.24265 0
M  V30 2955 C 273.433 0.308886 -5.33807 0
M  V30 2956 C 274.733 -1.83112 -4.89149 0
M  V30 2957 H 276.427 -1.30552 -2.69437 0
M  V30 2958 H 273.973 -0.629201 -1.29526 0
M  V30 2959 H 275.926 0.637233 -4.16554 0
M  V30 2960 H 274.65 1.17738 -3.0464 0
M  V30 2961 H 273.309 -0.893477 -3.55545 0
M  V30 2962 H 272.957 1.19467 -4.88607 0
M  V30 2963 H 272.657 -0.259633 -5.87026 0
M  V30 2964 H 274.181 0.650884 -6.07121 0
M  V30 2965 H 275.595 -1.55236 -5.51883 0
M  V30 2966 H 273.992 -2.34353 -5.52448 0
M  V30 2967 H 275.062 -2.54772 -4.12576 0
M  V30 2968 N 276.405 1.4127 -0.698611 0
M  V30 2969 C 277.352 2.30773 -0.0352094 0
M  V30 2970 C 278.322 1.47273 0.768111 0
M  V30 2971 O 279.507 1.76053 0.735524 0
M  V30 2972 C 276.647 3.33346 0.893 0
M  V30 2973 C 275.76 4.31924 0.0809695 0
M  V30 2974 C 274.895 5.21566 1.0071 0
M  V30 2975 C 273.934 6.11811 0.188155 0
M  V30 2976 N 273.071 6.93926 1.06825 0
M  V30 2977 H 277.911 2.86943 -0.804207 0
M  V30 2978 H 275.448 1.4132 -0.408294 0
M  V30 2979 H 277.406 3.91368 1.44523 0
M  V30 2980 H 276.036 2.78719 1.62836 0
M  V30 2981 H 275.088 3.75825 -0.588224 0
M  V30 2982 H 276.4 4.95716 -0.553801 0
M  V30 2983 H 275.554 5.84437 1.62845 0
M  V30 2984 H 274.293 4.58008 1.67572 0
M  V30 2985 H 273.298 5.47986 -0.446254 0
M  V30 2986 H 274.523 6.77425 -0.476716 0
M  V30 2987 H 272.469 6.32973 1.72283 0
M  V30 2988 H 272.386 7.54416 0.489123 0
M  V30 2989 H 273.654 7.61262 1.67632 0
M  V30 2990 N 277.883 0.443576 1.51229 0
M  V30 2991 C 278.815 -0.400608 2.25672 0
M  V30 2992 C 279.828 -0.980945 1.29928 0
M  V30 2993 O 281.017 -0.874024 1.55638 0
M  V30 2994 C 278.117 -1.57304 3.00181 0
M  V30 2995 C 277.29 -1.11046 4.23069 0
M  V30 2996 C 276.349 -2.15374 4.80105 0
M  V30 2997 O 275.375 -1.74554 5.41774 0
M  V30 2998 N 276.577 -3.47922 4.64683 0
M  V30 2999 H 279.342 0.23745 2.98758 0
M  V30 3000 H 276.903 0.272809 1.59585 0
M  V30 3001 H 278.895 -2.26733 3.35223 0
M  V30 3002 H 277.465 -2.11632 2.30066 0
M  V30 3003 H 276.685 -0.243019 3.9345 0
M  V30 3004 H 277.973 -0.778888 5.02803 0
M  V30 3005 H 277.371 -3.83815 4.15575 0
M  V30 3006 H 275.928 -4.13228 5.0407 0
M  V30 3007 N 279.361 -1.56624 0.175154 0
M  V30 3008 C 280.608 -1.96999 -0.468811 0
M  V30 3009 C 280.936 -1.06129 -1.62994 0
M  V30 3010 O 280.191 -0.0961771 -1.95464 0
M  V30 3011 C 280.49 -3.43419 -0.989864 0
M  V30 3012 C 280.156 -4.50866 0.0557687 0
M  V30 3013 C 278.818 -4.79975 0.343134 0
M  V30 3014 C 281.17 -5.15551 0.765308 0
M  V30 3015 C 278.498 -5.71066 1.34536 0
M  V30 3016 C 280.85 -6.07724 1.75654 0
M  V30 3017 C 279.514 -6.35199 2.05132 0
M  V30 3018 H 278.784 -0.720869 -0.17155 0
M  V30 3019 H 281.431 -1.89616 0.267924 0
M  V30 3020 H 279.736 -3.47772 -1.80449 0
M  V30 3021 H 281.433 -3.72002 -1.49719 0
M  V30 3022 H 278.023 -4.28229 -0.178381 0
M  V30 3023 H 282.207 -4.9317 0.556513 0
M  V30 3024 H 277.463 -5.90635 1.57988 0
M  V30 3025 H 281.637 -6.56912 2.31169 0
M  V30 3026 H 279.264 -7.05584 2.8294 0
M  V30 3027 N 280.839 0.0985539 -1.57292 0
M  V30 3028 C 282.064 0.820196 -1.90493 0
M  V30 3029 C 282.489 1.71658 -0.769094 0
M  V30 3030 O 281.847 1.79133 0.279495 0
M  V30 3031 C 281.895 1.61242 -3.22542 0
M  V30 3032 O 280.999 2.72108 -3.09888 0
M  V30 3033 H 280.34 0.225547 -0.62452 0
M  V30 3034 H 282.87 0.0748159 -2.04463 0
M  V30 3035 H 282.88 1.99737 -3.55766 0
M  V30 3036 H 281.555 0.954535 -4.04798 0
M  V30 3037 H 280.132 2.36667 -2.88172 0
M  V30 3038 N 282.317 1.53212 0.369288 0
M  V30 3039 C 283.564 1.69215 1.11232 0
M  V30 3040 C 283.892 0.442048 1.8941 0
M  V30 3041 O 283.147 -0.575944 1.87033 0
M  V30 3042 C 283.446 2.89101 2.10132 0
M  V30 3043 C 283.112 4.25758 1.48463 0
M  V30 3044 C 281.774 4.6292 1.31372 0
M  V30 3045 C 284.126 5.10757 1.03811 0
M  V30 3046 C 281.454 5.82722 0.68207 0
M  V30 3047 C 283.806 6.31201 0.420487 0
M  V30 3048 C 282.47 6.67079 0.237038 0
M  V30 3049 H 281.74 0.619201 0.407027 0
M  V30 3050 H 284.387 1.87391 0.394552 0
M  V30 3051 H 282.692 2.65421 2.88199 0
M  V30 3052 H 284.389 2.98676 2.6757 0
M  V30 3053 H 280.979 3.96494 1.62758 0
M  V30 3054 H 285.163 4.82599 1.1581 0
M  V30 3055 H 280.419 6.09113 0.528316 0
M  V30 3056 H 284.593 6.96368 0.0662874 0
M  V30 3057 H 282.22 7.59774 -0.254477 0
M  V30 3058 N 283.795 -0.628877 1.44509 0
M  V30 3059 C 285.206 -1.21054 1.42137 0
M  V30 3060 C 285.557 -1.95715 0.137881 0
M  V30 3061 O 284.682 -2.02554 -0.761645 0
M  V30 3062 C 285.277 -2.20189 2.57493 0
M  V30 3063 C 283.836 -2.73777 2.58308 0
M  V30 3064 C 282.983 -1.48813 2.33987 0
M  V30 3065 H 285.934 -0.41942 1.53057 0
M  V30 3066 H 285.955 -3.02833 2.30375 0
M  V30 3067 H 285.467 -1.6582 3.50892 0
M  V30 3068 H 283.568 -3.32142 1.68856 0
M  V30 3069 H 283.681 -3.19662 3.56865 0
M  V30 3070 H 282.045 -1.77024 1.83124 0
M  V30 3071 H 282.828 -0.963442 3.29504 0
M  V30 3072 N 285.273 -1.31445 -0.869486 0
M  V30 3073 C 286.203 -1.21727 -1.99261 0
M  V30 3074 C 287.184 -0.104359 -1.6978 0
M  V30 3075 O 288.369 -0.289038 -1.92037 0
M  V30 3076 C 285.499 -0.924317 -3.34774 0
M  V30 3077 C 284.453 -1.99685 -3.78563 0
M  V30 3078 C 283.779 -1.55658 -5.11541 0
M  V30 3079 C 285.079 -3.41003 -3.95619 0
M  V30 3080 H 286.773 -2.1569 -2.07649 0
M  V30 3081 H 284.319 -1.03839 -0.997675 0
M  V30 3082 H 286.272 -0.842934 -4.12883 0
M  V30 3083 H 284.996 0.0509793 -3.2656 0
M  V30 3084 H 283.655 -2.06813 -3.02694 0
M  V30 3085 H 283.303 -0.569132 -4.9977 0
M  V30 3086 H 283.003 -2.27409 -5.41811 0
M  V30 3087 H 284.527 -1.48928 -5.92159 0
M  V30 3088 H 285.941 -3.36547 -4.64122 0
M  V30 3089 H 284.338 -4.10975 -4.37286 0
M  V30 3090 H 285.408 -3.81754 -2.98985 0
M  V30 3091 N 286.751 1.08385 -1.14413 0
M  V30 3092 C 287.976 1.85057 -0.936413 0
M  V30 3093 C 288.401 1.81055 0.509971 0
M  V30 3094 O 287.759 1.1958 1.36273 0
M  V30 3095 C 287.807 3.30505 -1.44217 0
M  V30 3096 O 286.911 4.07491 -0.634409 0
M  V30 3097 H 286.252 0.573425 -0.334784 0
M  V30 3098 H 288.782 1.36799 -1.52142 0
M  V30 3099 H 288.792 3.81348 -1.45043 0
M  V30 3100 H 287.467 3.32734 -2.49522 0
M  V30 3101 H 286.044 3.66368 -0.694902 0
M  V30 3102 N 288.23 0.939286 1.26551 0
M  V30 3103 C 289.455 0.602008 1.98471 0
M  V30 3104 C 289.88 -0.815624 1.69497 0
M  V30 3105 O 289.238 -1.54912 0.941905 0
M  V30 3106 C 289.286 0.848407 3.50477 0
M  V30 3107 O 288.39 -0.0804009 4.12322 0
M  V30 3108 H 287.731 0.23049 0.622712 0
M  V30 3109 H 290.261 1.2617 1.61066 0
M  V30 3110 H 290.271 0.768553 4.00696 0
M  V30 3111 H 288.946 1.88171 3.70897 0
M  V30 3112 H 287.523 0.0503508 3.72866 0
M  V30 3113 N 289.708 -1.40897 0.706093 0
M  V30 3114 C 290.618 -2.3455 0.0482286 0
M  V30 3115 C 291.634 -1.56796 -0.754396 0
M  V30 3116 O 292.81 -1.89228 -0.689538 0
M  V30 3117 C 289.875 -3.35625 -0.869303 0
M  V30 3118 C 288.936 -4.29261 -0.0576994 0
M  V30 3119 C 288.169 -5.25508 -0.931531 0
M  V30 3120 O 288.392 -5.27472 -2.17092 0
M  V30 3121 O 287.326 -6.00727 -0.375587 0
M  V30 3122 H 291.152 -2.92407 0.820476 0
M  V30 3123 H 288.737 -1.4193 0.4665 0
M  V30 3124 H 290.619 -3.97635 -1.39514 0
M  V30 3125 H 289.294 -2.80196 -1.62086 0
M  V30 3126 H 288.201 -3.70566 0.512988 0
M  V30 3127 H 289.534 -4.87817 0.655426 0
M  V30 3128 N 291.186 -0.45159 -1.50991 0
M  V30 3129 C 292.597 0.00818571 -1.86698 0
M  V30 3130 C 292.948 1.40661 -1.3678 0
M  V30 3131 O 292.073 2.0391 -0.724546 0
M  V30 3132 C 292.668 0.0216303 -3.38793 0
M  V30 3133 C 291.227 0.425865 -3.73983 0
M  V30 3134 C 290.374 -0.372163 -2.74791 0
M  V30 3135 H 293.325 -0.666785 -1.44013 0
M  V30 3136 H 293.346 0.828078 -3.7138 0
M  V30 3137 H 292.858 -0.996288 -3.75094 0
M  V30 3138 H 290.959 1.44886 -3.43277 0
M  V30 3139 H 291.072 0.140761 -4.78893 0
M  V30 3140 H 289.436 0.171498 -2.54122 0
M  V30 3141 H 290.219 -1.38922 -3.13935 0
M  V30 3142 N 292.664 1.56529 -0.183458 0
M  V30 3143 C 293.911 1.97244 0.458357 0
M  V30 3144 C 294.239 1.06992 1.62428 0
M  V30 3145 O 293.494 0.106542 1.9541 0
M  V30 3146 C 293.793 3.43939 0.971637 0
M  V30 3147 C 293.459 4.5083 -0.0796784 0
M  V30 3148 C 292.121 4.79786 -0.368584 0
M  V30 3149 C 294.473 5.15138 -0.792638 0
M  V30 3150 C 291.801 5.70345 -1.37563 0
M  V30 3151 C 294.153 6.06784 -1.78875 0
M  V30 3152 C 292.817 6.34102 -2.08497 0
M  V30 3153 H 292.087 0.721768 0.167725 0
M  V30 3154 H 294.734 1.89472 -0.277976 0
M  V30 3155 H 293.039 3.48724 1.78602 0
M  V30 3156 H 294.736 3.72791 1.47744 0
M  V30 3157 H 291.326 4.28317 0.155668 0
M  V30 3158 H 295.51 4.92868 -0.582659 0
M  V30 3159 H 290.766 5.89789 -1.61118 0
M  V30 3160 H 294.94 6.55677 -2.3465 0
M  V30 3161 H 292.567 7.04074 -2.86678 0
M  V30 3162 N 294.142 -0.090211 1.57342 0
M  V30 3163 C 295.074 -1.13541 1.99101 0
M  V30 3164 C 296.087 -1.3604 0.894258 0
M  V30 3165 O 297.276 -1.34606 1.17233 0
M  V30 3166 C 294.376 -2.49001 2.29895 0
M  V30 3167 C 293.549 -2.46712 3.61182 0
M  V30 3168 C 292.608 -3.64136 3.79857 0
M  V30 3169 O 291.634 -3.46405 4.51655 0
M  V30 3170 N 292.836 -4.83802 3.20806 0
M  V30 3171 H 295.601 -0.779942 2.89373 0
M  V30 3172 H 293.162 -0.279125 1.59476 0
M  V30 3173 H 295.154 -3.26166 2.39578 0
M  V30 3174 H 293.724 -2.76619 1.45605 0
M  V30 3175 H 292.944 -1.55058 3.62423 0
M  V30 3176 H 294.232 -2.42265 4.4742 0
M  V30 3177 H 293.63 -5.01112 2.62494 0
M  V30 3178 H 292.187 -5.58543 3.35966 0
M  V30 3179 N 295.62 -1.53406 -0.361157 0
M  V30 3180 C 296.868 -1.69467 -1.10115 0
M  V30 3181 C 297.189 -0.451352 -1.89705 0
M  V30 3182 O 296.459 0.534636 -1.88463 0
M  V30 3183 H 295.039 -0.624749 -0.409508 0
M  V30 3184 H 297.701 -1.90609 -0.406699 0
M  V30 3185 H 296.797 -2.55774 -1.78847 0
M  V30 3186 N 297.098 0.621204 -1.44841 0
M  V30 3187 C 298.323 1.41244 -1.51871 0
M  V30 3188 C 298.748 1.87519 -0.147764 0
M  V30 3189 O 298.106 1.59334 0.865 0
M  V30 3190 C 298.154 2.60221 -2.49634 0
M  V30 3191 O 297.258 3.60395 -2.00473 0
M  V30 3192 H 296.599 0.42223 -0.512463 0
M  V30 3193 H 299.129 0.757305 -1.90069 0
M  V30 3194 H 299.139 3.0764 -2.67996 0
M  V30 3195 H 297.814 2.25887 -3.4921 0
M  V30 3196 H 296.391 3.19717 -1.91925 0
M  V30 3197 N 298.576 1.31904 0.862503 0
M  V30 3198 C 299.806 1.24817 1.64634 0
M  V30 3199 C 300.214 -0.187579 1.88268 0
M  V30 3200 O 299.557 -1.13253 1.44635 0
M  V30 3201 C 299.619 1.92996 3.03303 0
M  V30 3202 C 299.283 3.42336 3.02746 0
M  V30 3203 C 300.28 4.37956 2.80162 0
M  V30 3204 C 297.965 3.84147 3.2363 0
M  V30 3205 C 299.959 5.73361 2.78453 0
M  V30 3206 C 297.646 5.19663 3.21549 0
M  V30 3207 C 298.644 6.14081 2.98988 0
M  V30 3208 O 298.332 7.47118 2.96766 0
M  V30 3209 H 298.064 0.432222 0.519769 0
M  V30 3210 H 300.618 1.7445 1.08427 0
M  V30 3211 H 298.848 1.37922 3.61268 0
M  V30 3212 H 300.537 1.79723 3.63943 0
M  V30 3213 H 301.303 4.06981 2.63802 0
M  V30 3214 H 297.182 3.11083 3.40218 0
M  V30 3215 H 300.726 6.4703 2.60763 0
M  V30 3216 H 296.623 5.5027 3.37451 0
M  V30 3217 H 297.391 7.56382 3.12775 0
M  V30 3218 N 300.054 -1.07777 1.14986 0
M  V30 3219 C 301.001 -2.14867 0.842672 0
M  V30 3220 C 301.971 -1.6486 -0.202552 0
M  V30 3221 O 303.156 -1.90668 -0.0710568 0
M  V30 3222 C 300.296 -3.43486 0.333363 0
M  V30 3223 C 299.409 -4.07306 1.43965 0
M  V30 3224 C 298.544 -5.23744 0.886914 0
M  V30 3225 C 297.583 -5.79517 1.97043 0
M  V30 3226 N 296.72 -6.87291 1.4344 0
M  V30 3227 H 301.56 -2.40485 1.75986 0
M  V30 3228 H 299.097 -1.1801 0.878179 0
M  V30 3229 H 301.055 -4.17195 0.0198163 0
M  V30 3230 H 299.685 -3.18133 -0.546916 0
M  V30 3231 H 298.737 -3.31293 1.86946 0
M  V30 3232 H 300.049 -4.44771 2.25788 0
M  V30 3233 H 299.203 -6.04419 0.525651 0
M  V30 3234 H 297.942 -4.87685 0.0377957 0
M  V30 3235 H 296.947 -4.97491 2.34057 0
M  V30 3236 H 298.172 -6.17632 2.82325 0
M  V30 3237 H 296.118 -6.5318 0.607567 0
M  V30 3238 H 296.035 -7.23617 2.18895 0
M  V30 3239 H 297.303 -7.71682 1.10124 0
M  V30 3240 N 301.532 -0.945985 -1.26051 0
M  V30 3241 C 302.778 -0.597002 -1.93814 0
M  V30 3242 C 303.111 0.862484 -1.73997 0
M  V30 3243 O 302.386 1.61769 -1.07986 0
M  V30 3244 C 302.669 -0.945937 -3.47454 0
M  V30 3245 C 302.522 -2.46052 -3.76535 0
M  V30 3246 C 303.841 -0.464785 -4.37639 0
M  V30 3247 H 300.96 -0.218366 -0.703907 0
M  V30 3248 H 303.602 -1.18107 -1.48831 0
M  V30 3249 H 301.752 -0.448902 -3.85898 0
M  V30 3250 H 303.424 -3.03065 -3.47778 0
M  V30 3251 H 301.667 -2.90194 -3.22444 0
M  V30 3252 H 302.338 -2.65517 -4.83947 0
M  V30 3253 H 304.814 -0.891016 -4.06448 0
M  V30 3254 H 303.69 -0.737712 -5.4392 0
M  V30 3255 H 303.951 0.635274 -4.37512 0
M  V30 3256 N 303.011 1.40521 -0.713556 0
M  V30 3257 C 304.257 2.01221 -0.252564 0
M  V30 3258 C 304.59 1.56444 1.1506 0
M  V30 3259 O 303.865 0.783597 1.78017 0
M  V30 3260 C 304.148 3.58582 -0.330332 0
M  V30 3261 C 304.001 4.13437 -1.77173 0
M  V30 3262 C 305.32 4.39079 0.299641 0
M  V30 3263 H 302.439 0.731077 -0.0932471 0
M  V30 3264 H 305.081 1.67026 -0.905673 0
M  V30 3265 H 303.231 3.87844 0.225737 0
M  V30 3266 H 304.903 3.9498 -2.38303 0
M  V30 3267 H 303.146 3.67801 -2.3001 0
M  V30 3268 H 303.817 5.22597 -1.77755 0
M  V30 3269 H 306.293 4.15735 -0.174139 0
M  V30 3270 H 305.169 5.4848 0.214771 0
M  V30 3271 H 305.43 4.19915 1.38288 0
M  V30 3272 N 304.489 0.459591 1.5075 0
M  V30 3273 C 305.735 -0.0994966 2.02556 0
M  V30 3274 C 306.068 -1.40399 1.3417 0
M  V30 3275 O 305.343 -1.88892 0.463683 0
M  V30 3276 C 305.626 -0.295242 3.58888 0
M  V30 3277 C 305.479 1.02947 4.37861 0
M  V30 3278 C 306.798 -1.05502 4.27267 0
M  V30 3279 H 303.917 -0.034686 0.736183 0
M  V30 3280 H 306.559 0.602938 1.8018 0
M  V30 3281 H 304.709 -0.893563 3.78084 0
M  V30 3282 H 306.381 1.66348 4.30263 0
M  V30 3283 H 304.624 1.62885 4.02058 0
M  V30 3284 H 305.295 0.846281 5.45474 0
M  V30 3285 H 307.771 -0.547993 4.12476 0
M  V30 3286 H 306.647 -1.16077 5.36486 0
M  V30 3287 H 306.908 -2.08875 3.89645 0
M  V30 3288 N 305.967 -1.56429 0.191757 0
M  V30 3289 C 306.899 -2.16154 -0.762245 0
M  V30 3290 C 307.912 -1.12247 -1.17917 0
M  V30 3291 O 309.101 -1.39353 -1.11548 0
M  V30 3292 C 306.201 -2.70606 -2.04024 0
M  V30 3293 C 305.374 -3.99381 -1.78364 0
M  V30 3294 C 304.433 -4.38692 -2.90578 0
M  V30 3295 O 303.459 -5.06179 -2.6033 0
M  V30 3296 N 304.661 -4.01922 -4.18854 0
M  V30 3297 H 307.426 -2.98643 -0.251526 0
M  V30 3298 H 304.987 -1.61897 0.00967373 0
M  V30 3299 H 306.979 -2.93891 -2.78227 0
M  V30 3300 H 305.549 -1.9259 -2.46227 0
M  V30 3301 H 304.769 -3.84262 -0.879581 0
M  V30 3302 H 306.057 -4.83445 -1.58614 0
M  V30 3303 H 305.455 -3.47631 -4.46283 0
M  V30 3304 H 304.012 -4.30165 -4.89695 0
M  V30 3305 N 307.445 0.0818655 -1.57387 0
M  V30 3306 C 308.392 1.09834 -2.0299 0
M  V30 3307 C 309.362 1.39043 -0.908639 0
M  V30 3308 O 310.547 1.50282 -1.17559 0
M  V30 3309 C 307.687 2.40971 -2.47037 0
M  V30 3310 C 306.8 2.18379 -3.7274 0
M  V30 3311 C 305.935 3.43008 -4.0561 0
M  V30 3312 C 304.974 3.15736 -5.24383 0
M  V30 3313 N 304.111 4.32667 -5.52941 0
M  V30 3314 H 308.951 0.702472 -2.89602 0
M  V30 3315 H 306.488 0.33531 -1.43227 0
M  V30 3316 H 308.446 3.1752 -2.70623 0
M  V30 3317 H 307.076 2.78379 -1.63417 0
M  V30 3318 H 306.128 1.32569 -3.56552 0
M  V30 3319 H 307.44 1.94227 -4.59431 0
M  V30 3320 H 306.594 4.27958 -4.30043 0
M  V30 3321 H 305.333 3.70225 -3.17466 0
M  V30 3322 H 304.338 2.2918 -4.99757 0
M  V30 3323 H 305.563 2.8985 -6.14136 0
M  V30 3324 H 303.509 4.59935 -4.67756 0
M  V30 3325 H 303.426 4.11753 -6.34031 0
M  V30 3326 H 304.694 5.18644 -5.81918 0
M  V30 3327 N 308.923 1.53595 0.353017 0
M  V30 3328 C 309.87 1.80919 1.43308 0
M  V30 3329 C 310.84 0.654288 1.5267 0
M  V30 3330 O 312.025 0.897759 1.6836 0
M  V30 3331 C 309.165 2.01605 2.80089 0
M  V30 3332 C 308.278 3.29321 2.79593 0
M  V30 3333 C 307.413 3.40125 4.0803 0
M  V30 3334 C 306.452 4.61826 4.01725 0
M  V30 3335 N 305.589 4.69716 5.21834 0
M  V30 3336 H 310.429 2.73074 1.19308 0
M  V30 3337 H 307.966 1.35263 0.578131 0
M  V30 3338 H 309.924 2.11586 3.59565 0
M  V30 3339 H 308.554 1.12772 3.0246 0
M  V30 3340 H 307.606 3.28229 1.92276 0
M  V30 3341 H 308.918 4.18884 2.70809 0
M  V30 3342 H 308.072 3.49488 4.95927 0
M  V30 3343 H 306.811 2.48601 4.19582 0
M  V30 3344 H 305.816 4.52552 3.12213 0
M  V30 3345 H 307.041 5.54705 3.91764 0
M  V30 3346 H 304.987 3.81097 5.33948 0
M  V30 3347 H 304.904 5.53202 5.1527 0
M  V30 3348 H 306.172 4.83376 6.11529 0
M  V30 3349 N 310.401 -0.613514 1.45168 0
M  V30 3350 C 311.626 -1.40437 1.52618 0
M  V30 3351 C 312.051 -1.87438 0.157707 0
M  V30 3352 O 311.409 -1.59791 -0.856537 0
M  V30 3353 C 311.457 -2.58894 2.51011 0
M  V30 3354 O 310.561 -3.59326 2.02382 0
M  V30 3355 H 309.902 -0.419506 0.514695 0
M  V30 3356 H 312.432 -0.747215 1.90467 0
M  V30 3357 H 312.442 -3.06214 2.69624 0
M  V30 3358 H 311.117 -2.24032 3.50403 0
M  V30 3359 H 309.694 -3.18695 1.93618 0
M  V30 3360 N 311.879 -1.3236 -0.855495 0
M  V30 3361 C 313.127 -1.22629 -1.60644 0
M  V30 3362 C 313.448 0.212136 -1.93843 0
M  V30 3363 O 312.718 1.13666 -1.59552 0
M  V30 3364 H 311.298 -0.450882 -0.595579 0
M  V30 3365 H 313.96 -1.65871 -1.02337 0
M  V30 3366 H 313.056 -1.80832 -2.54374 0
M  V30 3367 N 313.357 1.07166 -1.15556 0
M  V30 3368 C 314.605 1.79443 -0.929764 0
M  V30 3369 C 314.926 1.87246 0.544414 0
M  V30 3370 O 314.196 1.37473 1.39564 0
M  V30 3371 H 312.776 0.664625 -0.341003 0
M  V30 3372 H 315.438 1.29499 -1.45657 0
M  V30 3373 H 314.534 2.81832 -1.34079 0
M  V30 3374 N 314.835 0.952656 1.25548 0
M  V30 3375 C 316.251 0.656769 1.4546 0
M  V30 3376 C 316.451 -0.78633 1.85524 0
M  V30 3377 O 315.507 -1.56183 1.98402 0
M  V30 3378 C 316.82 1.62801 2.52817 0
M  V30 3379 C 318.368 1.63897 2.66659 0
M  V30 3380 C 318.843 2.5978 3.77198 0
M  V30 3381 N 320.334 2.58133 3.84606 0
M  V30 3382 C 321.069 3.29003 4.69621 0
M  V30 3383 N 320.565 4.09339 5.58939 0
M  V30 3384 N 322.358 3.179 4.63569 0
M  V30 3385 H 314.509 1.88526 0.978344 0
M  V30 3386 H 316.772 0.810815 0.491206 0
M  V30 3387 H 316.478 2.65869 2.30232 0
M  V30 3388 H 316.352 1.38898 3.50695 0
M  V30 3389 H 318.739 0.615481 2.8861 0
M  V30 3390 H 318.82 1.91858 1.69187 0
M  V30 3391 H 318.464 3.62254 3.55997 0
M  V30 3392 H 318.394 2.29105 4.7415 0
M  V30 3393 H 320.885 1.99809 3.20757 0
M  V30 3394 H 321.198 4.6034 6.20731 0
M  V30 3395 H 319.543 4.13438 5.58654 0
M  V30 3396 H 322.734 2.54612 3.92798 0
M  V30 3397 H 322.907 3.73398 5.29602 0
M  V30 3398 N 316.313 -1.40141 0.720998 0
M  V30 3399 C 317.541 -2.05096 0.272656 0
M  V30 3400 C 317.956 -1.54334 -1.0875 0
M  V30 3401 O 317.313 -0.702211 -1.6845 0
M  V30 3402 C 317.364 -3.60636 0.249835 0
M  V30 3403 O 317.085 -4.09526 1.55629 0
M  V30 3404 C 318.586 -4.42772 -0.216396 0
M  V30 3405 H 315.806 -0.659897 0.121558 0
M  V30 3406 H 318.35 -1.79449 0.980723 0
M  V30 3407 H 316.505 -3.85232 -0.409237 0
M  V30 3408 H 316.919 -5.03758 1.4604 0
M  V30 3409 H 318.393 -5.51702 -0.181212 0
M  V30 3410 H 318.87 -4.20756 -1.25941 0
M  V30 3411 H 319.476 -4.23294 0.412596 0
M  V30 3412 N 317.792 -0.46758 -1.50504 0
M  V30 3413 C 318.702 0.33382 -2.32213 0
M  V30 3414 C 319.718 0.999323 -1.42441 0
M  V30 3415 O 320.894 0.988068 -1.75497 0
M  V30 3416 C 317.959 1.4035 -3.17022 0
M  V30 3417 C 317.02 0.754961 -4.2261 0
M  V30 3418 C 316.253 1.77367 -5.03365 0
M  V30 3419 O 316.476 2.99976 -4.8515 0
M  V30 3420 O 315.41 1.34744 -5.86624 0
M  V30 3421 H 319.236 -0.334067 -3.01857 0
M  V30 3422 H 316.821 -0.229496 -1.47627 0
M  V30 3423 H 318.703 2.02318 -3.69656 0
M  V30 3424 H 317.378 2.05492 -2.5011 0
M  V30 3425 H 316.285 0.0964244 -3.73976 0
M  V30 3426 H 317.618 0.146545 -4.91982 0
M  V30 3427 N 319.27 1.56325 -0.20005 0
M  V30 3428 C 320.22 2.15939 0.731743 0
M  V30 3429 C 321.204 1.10154 1.17281 0
M  V30 3430 O 322.396 1.36203 1.13038 0
M  V30 3431 C 319.525 2.82614 1.94895 0
M  V30 3432 C 318.611 3.95596 1.52855 0
M  V30 3433 N 319.002 4.99118 0.819418 0
M  V30 3434 C 317.3 4.07288 1.81748 0
M  V30 3435 C 318.001 5.78513 0.608053 0
M  V30 3436 N 316.977 5.31117 1.15828 0
M  V30 3437 H 320.779 2.9334 0.181285 0
M  V30 3438 H 318.293 1.624 -0.000452172 0
M  V30 3439 H 320.29 3.23718 2.62702 0
M  V30 3440 H 318.95 2.06702 2.50408 0
M  V30 3441 H 319.961 5.15723 0.47436 0
M  V30 3442 H 316.638 3.42509 2.38734 0
M  V30 3443 H 318.028 6.71885 0.0451619 0
M  V30 3444 N 320.748 -0.0735177 1.57428 0
M  V30 3445 C 322.159 -0.625551 1.75908 0
M  V30 3446 C 322.51 -1.78 0.825261 0
M  V30 3447 O 321.635 -2.16398 0.00893964 0
M  V30 3448 C 322.23 -1.14155 3.18989 0
M  V30 3449 C 320.789 -1.63946 3.38819 0
M  V30 3450 C 319.936 -0.558151 2.71625 0
M  V30 3451 H 322.887 0.152647 1.57964 0
M  V30 3452 H 322.908 -2.0104 3.23053 0
M  V30 3453 H 322.42 -0.301116 3.8693 0
M  V30 3454 H 320.521 -2.50321 2.7599 0
M  V30 3455 H 320.634 -1.71759 4.47253 0
M  V30 3456 H 318.998 -1.00278 2.34129 0
M  V30 3457 H 319.781 0.272071 3.4222 0
M  V30 3458 N 322.226 -1.5378 -0.344866 0
M  V30 3459 C 323.473 -1.70963 -1.08526 0
M  V30 3460 C 323.801 -0.472126 -1.88683 0
M  V30 3461 O 323.056 0.546116 -1.87926 0
M  V30 3462 C 323.355 -2.92407 -2.05506 0
M  V30 3463 C 323.021 -4.28066 -1.41671 0
M  V30 3464 C 321.683 -4.64951 -1.2399 0
M  V30 3465 C 324.035 -5.12344 -0.956726 0
M  V30 3466 C 321.363 -5.83733 -0.589277 0
M  V30 3467 C 323.715 -6.3179 -0.320015 0
M  V30 3468 C 322.379 -6.67372 -0.130881 0
M  V30 3469 H 321.649 -0.625598 -0.397124 0
M  V30 3470 H 324.296 -1.87995 -0.36469 0
M  V30 3471 H 322.601 -2.69973 -2.8394 0
M  V30 3472 H 324.298 -3.02895 -2.62784 0
M  V30 3473 H 320.888 -3.99034 -1.56429 0
M  V30 3474 H 325.072 -4.8438 -1.08118 0
M  V30 3475 H 320.328 -6.09877 -0.431344 0
M  V30 3476 H 324.502 -6.96386 0.0445072 0
M  V30 3477 H 322.129 -7.59273 0.375318 0
M  V30 3478 N 323.704 0.605807 -1.45491 0
M  V30 3479 C 324.932 1.39136 -1.5313 0
M  V30 3480 C 325.347 1.88082 -0.164507 0
M  V30 3481 O 324.704 1.62316 0.834247 0
M  V30 3482 C 324.755 2.59463 -2.51716 0
M  V30 3483 O 324.476 2.12551 -3.83084 0
M  V30 3484 C 325.977 3.52301 -2.6907 0
M  V30 3485 H 323.197 0.425849 -0.51855 0
M  V30 3486 H 325.741 0.73865 -1.90694 0
M  V30 3487 H 323.896 3.20772 -2.17219 0
M  V30 3488 H 324.31 2.90744 -4.36541 0
M  V30 3489 H 325.784 4.33271 -3.42024 0
M  V30 3490 H 326.261 4.02757 -1.75167 0
M  V30 3491 H 326.867 2.96845 -3.04571 0
M  V30 3492 N 325.182 1.32811 0.848464 0
M  V30 3493 C 326.428 1.23907 1.60546 0
M  V30 3494 C 326.761 -0.197161 1.93197 0
M  V30 3495 O 326.036 -1.13596 1.5788 0
M  V30 3496 C 326.319 2.10489 2.92175 0
M  V30 3497 C 326.172 3.62522 2.66266 0
M  V30 3498 C 327.491 1.97075 3.93509 0
M  V30 3499 H 324.61 0.451459 0.58254 0
M  V30 3500 H 327.252 1.62818 0.979296 0
M  V30 3501 H 325.402 1.77434 3.45614 0
M  V30 3502 H 327.074 4.05821 2.19334 0
M  V30 3503 H 325.317 3.84879 2.00126 0
M  V30 3504 H 325.988 4.18437 3.6002 0
M  V30 3505 H 328.464 2.26045 3.49346 0
M  V30 3506 H 327.34 2.59923 4.83457 0
M  V30 3507 H 327.601 0.940186 4.31987 0
M  V30 3508 N 326.66 -1.06551 1.16123 0
M  V30 3509 C 327.57 -2.17484 0.879662 0
M  V30 3510 C 328.586 -1.73377 -0.147104 0
M  V30 3511 O 329.762 -2.01379 0.0289128 0
M  V30 3512 C 326.827 -3.44591 0.381829 0
M  V30 3513 C 325.888 -4.0322 1.4735 0
M  V30 3514 C 325.121 -5.24261 0.999324 0
M  V30 3515 O 325.344 -5.70198 -0.151957 0
M  V30 3516 O 324.278 -5.74775 1.78653 0
M  V30 3517 H 328.104 -2.44075 1.80724 0
M  V30 3518 H 325.689 -1.16042 0.940992 0
M  V30 3519 H 327.571 -4.21254 0.111053 0
M  V30 3520 H 326.246 -3.19532 -0.51777 0
M  V30 3521 H 325.153 -3.2806 1.79798 0
M  V30 3522 H 326.486 -4.32568 2.34831 0
M  V30 3523 N 328.138 -0.959301 -1.25041 0
M  V30 3524 C 329.048 -0.489994 -2.29426 0
M  V30 3525 C 330.064 0.444944 -1.68215 0
M  V30 3526 O 331.24 0.320046 -1.98841 0
M  V30 3527 C 328.305 0.220309 -3.45999 0
M  V30 3528 C 327.366 -0.753418 -4.22637 0
M  V30 3529 C 326.599 -0.076918 -5.33645 0
M  V30 3530 O 326.822 1.13649 -5.58963 0
M  V30 3531 O 325.756 -0.764824 -5.97021 0
M  V30 3532 H 329.582 -1.35755 -2.71669 0
M  V30 3533 H 327.167 -0.725961 -1.30576 0
M  V30 3534 H 329.049 0.619677 -4.16819 0
M  V30 3535 H 327.724 1.06296 -3.0575 0
M  V30 3536 H 326.631 -1.20308 -3.54227 0
M  V30 3537 H 327.964 -1.56423 -4.66683 0
M  V30 3538 N 329.616 1.39756 -0.72842 0
M  V30 3539 C 330.863 2.00645 -0.273487 0
M  V30 3540 C 331.191 1.57786 1.13727 0
M  V30 3541 O 330.446 0.794886 1.7883 0
M  V30 3542 C 330.745 3.56002 -0.315776 0
M  V30 3543 C 330.411 4.18489 -1.67863 0
M  V30 3544 C 329.073 4.3527 -2.05166 0
M  V30 3545 C 331.425 4.53219 -2.57375 0
M  V30 3546 C 328.753 4.84069 -3.31503 0
M  V30 3547 C 331.105 5.03423 -3.83077 0
M  V30 3548 C 329.769 5.18413 -4.20481 0
M  V30 3549 H 329.039 0.734211 -0.100076 0
M  V30 3550 H 331.686 1.6718 -0.933972 0
M  V30 3551 H 329.991 3.89452 0.428285 0
M  V30 3552 H 331.688 4.00963 0.0542575 0
M  V30 3553 H 328.278 4.05824 -1.37858 0
M  V30 3554 H 332.462 4.39878 -2.29827 0
M  V30 3555 H 327.718 4.93859 -3.60435 0
M  V30 3556 H 331.892 5.2927 -4.52599 0
M  V30 3557 H 329.519 5.55987 -5.18443 0
M  V30 3558 N 331.094 0.475555 1.50254 0
M  V30 3559 C 332.34 -0.0780073 2.0265 0
M  V30 3560 C 332.673 -1.38968 1.35652 0
M  V30 3561 O 331.948 -1.8839 0.483691 0
M  V30 3562 C 332.231 -0.257161 3.59181 0
M  V30 3563 C 332.084 1.07585 4.36744 0
M  V30 3564 C 333.403 -1.00965 4.28362 0
M  V30 3565 H 330.522 -0.0268758 0.73651 0
M  V30 3566 H 333.164 0.622015 1.7953 0
M  V30 3567 H 331.314 -0.853412 3.79011 0
M  V30 3568 H 332.986 1.70902 4.28474 0
M  V30 3569 H 331.229 1.6714 4.00308 0
M  V30 3570 H 331.9 0.904088 5.44546 0
M  V30 3571 H 334.376 -0.504214 4.13034 0
M  V30 3572 H 333.252 -1.10381 5.37687 0
M  V30 3573 H 333.513 -2.04731 3.91839 0
M  V30 3574 N 332.573 -1.56217 0.208337 0
M  V30 3575 C 333.503 -2.22694 -0.702116 0
M  V30 3576 C 334.484 -1.19432 -1.2112 0
M  V30 3577 O 335.669 -1.47978 -1.25762 0
M  V30 3578 C 332.799 -2.8966 -1.9161 0
M  V30 3579 C 331.753 -3.9928 -1.5414 0
M  V30 3580 C 331.079 -4.53476 -2.83308 0
M  V30 3581 C 332.379 -5.17012 -0.741339 0
M  V30 3582 H 334.073 -2.99034 -0.147898 0
M  V30 3583 H 331.619 -1.43831 -0.0696951 0
M  V30 3584 H 333.572 -3.34852 -2.55836 0
M  V30 3585 H 332.296 -2.10746 -2.49507 0
M  V30 3586 H 330.955 -3.54799 -0.922668 0
M  V30 3587 H 330.603 -3.71308 -3.39322 0
M  V30 3588 H 330.303 -5.27451 -2.58976 0
M  V30 3589 H 331.827 -5.01378 -3.485 0
M  V30 3590 H 333.241 -5.58667 -1.28699 0
M  V30 3591 H 331.638 -5.97137 -0.595627 0
M  V30 3592 H 332.708 -4.8423 0.254851 0
M  V30 3593 N 334.051 0.0651679 -1.57465 0
M  V30 3594 C 335.462 0.616213 -1.76238 0
M  V30 3595 C 335.813 1.7756 -0.834689 0
M  V30 3596 O 334.938 2.1639 -0.0204156 0
M  V30 3597 C 335.533 1.12462 -3.1959 0
M  V30 3598 C 334.092 1.62147 -3.39684 0
M  V30 3599 C 333.239 0.543739 -2.71917 0
M  V30 3600 H 336.19 -0.161022 -1.57881 0
M  V30 3601 H 336.211 1.99324 -3.24114 0
M  V30 3602 H 335.723 0.280592 -3.87084 0
M  V30 3603 H 333.824 2.48854 -2.77313 0
M  V30 3604 H 333.937 1.69385 -4.48158 0
M  V30 3605 H 332.301 0.990352 -2.34657 0
M  V30 3606 H 333.084 -0.290216 -3.42071 0
M  V30 3607 N 335.529 1.53961 0.336706 0
M  V30 3608 C 336.476 1.82428 1.41381 0
M  V30 3609 C 337.446 0.670444 1.51968 0
M  V30 3610 O 338.631 0.915565 1.67398 0
M  V30 3611 C 335.771 2.04564 2.77934 0
M  V30 3612 C 334.884 3.32267 2.76084 0
M  V30 3613 C 334.019 3.44434 4.04399 0
M  V30 3614 C 333.058 4.66061 3.96804 0
M  V30 3615 N 332.195 4.75224 5.16823 0
M  V30 3616 H 337.035 2.74324 1.16405 0
M  V30 3617 H 334.572 1.35869 0.563752 0
M  V30 3618 H 336.53 2.15388 3.57301 0
M  V30 3619 H 335.16 1.15974 3.01247 0
M  V30 3620 H 334.212 3.3025 1.88784 0
M  V30 3621 H 335.524 4.21733 2.66351 0
M  V30 3622 H 334.678 3.54728 4.92192 0
M  V30 3623 H 333.417 2.53037 4.16921 0
M  V30 3624 H 332.422 4.55838 3.07396 0
M  V30 3625 H 333.647 5.58829 3.85858 0
M  V30 3626 H 331.593 3.86739 5.29876 0
M  V30 3627 H 331.51 5.58636 5.09374 0
M  V30 3628 H 332.778 4.89835 6.06367 0
M  V30 3629 N 337.007 -0.598083 1.45811 0
M  V30 3630 C 338.254 -1.35681 1.50323 0
M  V30 3631 C 338.582 -1.9393 0.148739 0
M  V30 3632 O 337.837 -1.76094 -0.853787 0
M  V30 3633 C 338.136 -2.51669 2.53766 0
M  V30 3634 C 337.802 -2.11508 3.98215 0
M  V30 3635 C 336.464 -2.0027 4.37545 0
M  V30 3636 C 338.816 -1.80308 4.89018 0
M  V30 3637 C 336.144 -1.56067 5.65562 0
M  V30 3638 C 338.496 -1.37589 6.17456 0
M  V30 3639 C 337.16 -1.24916 6.55708 0
M  V30 3640 H 336.43 -0.496492 0.550069 0
M  V30 3641 H 339.077 -0.675052 1.79207 0
M  V30 3642 H 337.382 -3.25225 2.18486 0
M  V30 3643 H 339.079 -3.09895 2.54492 0
M  V30 3644 H 335.669 -2.21185 3.67117 0
M  V30 3645 H 339.853 -1.87884 4.59362 0
M  V30 3646 H 335.109 -1.44886 5.93985 0
M  V30 3647 H 339.283 -1.12495 6.87254 0
M  V30 3648 H 336.91 -0.904386 7.54801 0
M  V30 3649 N 338.485 -1.33259 -0.841409 0
M  V30 3650 C 339.395 -1.25332 -1.98316 0
M  V30 3651 C 340.411 -0.164364 -1.73222 0
M  V30 3652 O 341.587 -0.387486 -1.97637 0
M  V30 3653 C 338.652 -0.990078 -3.32262 0
M  V30 3654 C 337.713 -2.16879 -3.70489 0
M  V30 3655 C 336.946 -1.91801 -4.98044 0
M  V30 3656 O 337.169 -0.867075 -5.63771 0
M  V30 3657 O 336.103 -2.78267 -5.33714 0
M  V30 3658 H 339.929 -2.21344 -2.07944 0
M  V30 3659 H 337.514 -1.1328 -0.974058 0
M  V30 3660 H 339.396 -0.860321 -4.12524 0
M  V30 3661 H 338.071 -0.0602155 -3.23644 0
M  V30 3662 H 336.978 -2.35407 -2.90748 0
M  V30 3663 H 338.311 -3.0819 -3.8377 0
M  V30 3664 N 339.963 1.05934 -1.16686 0
M  V30 3665 C 341.209 1.79065 -0.95203 0
M  V30 3666 C 341.542 1.87147 0.518629 0
M  V30 3667 O 340.817 1.36574 1.38484 0
M  V30 3668 C 341.1 3.23359 -1.58464 0
M  V30 3669 C 340.953 3.23336 -3.12689 0
M  V30 3670 C 342.272 4.21004 -1.28232 0
M  V30 3671 H 339.391 0.65005 -0.34728 0
M  V30 3672 H 342.033 1.23868 -1.44072 0
M  V30 3673 H 340.183 3.70493 -1.16908 0
M  V30 3674 H 341.855 2.84336 -3.6325 0
M  V30 3675 H 340.098 2.61886 -3.4583 0
M  V30 3676 H 340.769 4.25144 -3.52075 0
M  V30 3677 H 343.245 3.8233 -1.64203 0
M  V30 3678 H 342.121 5.20225 -1.75092 0
M  V30 3679 H 342.382 4.41639 -0.201791 0
M  V30 3680 N 341.441 0.965919 1.2453 0
M  V30 3681 C 342.373 0.452465 2.2469 0
M  V30 3682 C 343.386 -0.437821 1.56802 0
M  V30 3683 O 344.575 -0.244283 1.76821 0
M  V30 3684 C 341.675 -0.366258 3.36915 0
M  V30 3685 C 340.848 0.513701 4.34373 0
M  V30 3686 C 339.907 -0.248716 5.25612 0
M  V30 3687 O 338.933 0.356745 5.68081 0
M  V30 3688 N 340.135 -1.53877 5.59734 0
M  V30 3689 H 342.9 1.31361 2.69378 0
M  V30 3690 H 340.461 0.837541 1.38553 0
M  V30 3691 H 342.453 -0.884297 3.94921 0
M  V30 3692 H 341.023 -1.12832 2.91526 0
M  V30 3693 H 340.243 1.21273 3.75082 0
M  V30 3694 H 341.531 1.11391 4.96457 0
M  V30 3695 H 340.929 -2.05243 5.27154 0
M  V30 3696 H 339.486 -2.00254 6.20275 0
M  V30 3697 N 342.919 -1.39368 0.735821 0
M  V30 3698 C 344.165 -2.00794 0.284544 0
M  V30 3699 C 344.498 -1.58255 -1.12557 0
M  V30 3700 O 343.773 -0.811819 -1.76748 0
M  V30 3701 C 344.056 -3.58011 0.387337 0
M  V30 3702 C 343.909 -4.10566 1.83728 0
M  V30 3703 C 345.228 -4.395 -0.22975 0
M  V30 3704 H 342.347 -0.729501 0.104866 0
M  V30 3705 H 344.989 -1.65564 0.93213 0
M  V30 3706 H 343.139 -3.88154 -0.164006 0
M  V30 3707 H 344.811 -3.91139 2.44556 0
M  V30 3708 H 343.054 -3.64095 2.35833 0
M  V30 3709 H 343.725 -5.19702 1.86047 0
M  V30 3710 H 346.201 -4.15406 0.240257 0
M  V30 3711 H 345.077 -5.48752 -0.127485 0
M  V30 3712 H 345.338 -4.22062 -1.3159 0
M  V30 3713 N 344.397 -0.483516 -1.5 0
M  V30 3714 C 345.625 0.0644831 -2.06799 0
M  V30 3715 C 346.04 1.32399 -1.34596 0
M  V30 3716 O 345.397 1.77626 -0.418946 0
M  V30 3717 C 345.448 0.339927 -3.59898 0
M  V30 3718 O 345.169 -0.869635 -4.29382 0
M  V30 3719 C 346.67 0.933515 -4.33359 0
M  V30 3720 H 343.89 -0.0126333 -0.670881 0
M  V30 3721 H 346.434 -0.675864 -1.93009 0
M  V30 3722 H 344.589 1.03022 -3.7345 0
M  V30 3723 H 345.003 -0.62179 -5.20801 0
M  V30 3724 H 346.477 1.07593 -5.41413 0
M  V30 3725 H 346.954 1.92685 -3.94676 0
M  V30 3726 H 347.56 0.281221 -4.24369 0
M  V30 3727 N 345.875 1.56104 -0.216619 0
M  V30 3728 C 347.121 1.98466 0.417033 0
M  V30 3729 C 347.454 1.10403 1.59765 0
M  V30 3730 O 346.729 0.160632 1.93836 0
M  V30 3731 C 347.012 3.49769 0.85637 0
M  V30 3732 C 346.865 4.48606 -0.327546 0
M  V30 3733 C 348.184 4.05339 1.7143 0
M  V30 3734 H 345.303 0.721551 0.150112 0
M  V30 3735 H 347.945 1.87423 -0.311864 0
M  V30 3736 H 346.095 3.5931 1.47745 0
M  V30 3737 H 347.767 4.5108 -0.965618 0
M  V30 3738 H 346.01 4.22682 -0.975805 0
M  V30 3739 H 346.681 5.51995 0.0227149 0
M  V30 3740 H 349.157 3.98712 1.19031 0
M  V30 3741 H 348.033 5.11533 1.99061 0
M  V30 3742 H 348.294 3.51918 2.67593 0
M  V30 3743 N 347.353 -0.0568162 1.57498 0
M  V30 3744 C 348.764 -0.606858 1.76562 0
M  V30 3745 C 349.115 -1.77114 0.844094 0
M  V30 3746 O 348.24 -2.16376 0.0318911 0
M  V30 3747 C 348.835 -1.10766 3.20182 0
M  V30 3748 C 347.394 -1.60344 3.40539 0
M  V30 3749 C 346.541 -0.529311 2.72201 0
M  V30 3750 H 349.492 0.169393 1.57793 0
M  V30 3751 H 349.513 -1.97602 3.25167 0
M  V30 3752 H 349.025 -0.26006 3.87228 0
M  V30 3753 H 347.126 -2.47379 2.78629 0
M  V30 3754 H 347.239 -1.67006 4.4905 0
M  V30 3755 H 345.603 -0.977893 2.35179 0
M  V30 3756 H 346.386 0.308352 3.41912 0
M  V30 3757 N 348.832 -1.54138 -0.328536 0
M  V30 3758 C 349.779 -1.83176 -1.40411 0
M  V30 3759 C 350.749 -0.678494 -1.5161 0
M  V30 3760 O 351.934 -0.92443 -1.6691 0
M  V30 3761 C 349.074 -2.06035 -2.76846 0
M  V30 3762 C 348.187 -3.33727 -2.74318 0
M  V30 3763 C 347.322 -3.46574 -4.02567 0
M  V30 3764 C 346.361 -4.68159 -3.94327 0
M  V30 3765 N 345.498 -4.77959 -5.14296 0
M  V30 3766 H 350.338 -2.74938 -1.14948 0
M  V30 3767 H 347.875 -1.36166 -0.556538 0
M  V30 3768 H 349.833 -2.1728 -3.56153 0
M  V30 3769 H 348.463 -1.1757 -3.00628 0
M  V30 3770 H 347.515 -3.31246 -1.8703 0
M  V30 3771 H 348.827 -4.23139 -2.64111 0
M  V30 3772 H 347.981 -3.57333 -4.90304 0
M  V30 3773 H 346.72 -2.55245 -4.15574 0
M  V30 3774 H 345.725 -4.57461 -3.04974 0
M  V30 3775 H 346.95 -5.60868 -3.82889 0
M  V30 3776 H 344.896 -3.89544 -5.27818 0
M  V30 3777 H 344.813 -5.6133 -5.06404 0
M  V30 3778 H 346.081 -4.93044 -6.03761 0
M  V30 3779 N 350.31 0.590341 -1.46126 0
M  V30 3780 C 351.559 1.34499 -1.50309 0
M  V30 3781 C 351.872 1.94977 -0.156021 0
M  V30 3782 O 353.078 2.71395 -0.0756037 0
M  V30 3783 C 351.534 2.43723 -2.64815 0
M  V30 3784 C 351.142 1.89582 -4.0591 0
M  V30 3785 C 352.886 3.20579 -2.78262 0
M  V30 3786 C 350.793 2.9639 -5.11769 0
M  V30 3787 H 349.723 0.505593 -0.559368 0
M  V30 3788 H 352.374 0.630848 -1.72315 0
M  V30 3789 H 350.756 3.17902 -2.36124 0
M  V30 3790 H 351.93 1.21997 -4.44357 0
M  V30 3791 H 350.245 1.25418 -3.97063 0
M  V30 3792 H 352.842 4.00276 -3.54519 0
M  V30 3793 H 353.185 3.72684 -1.85505 0
M  V30 3794 H 353.718 2.53505 -3.06562 0
M  V30 3795 H 350.457 2.49181 -6.06291 0
M  V30 3796 H 349.977 3.62487 -4.77873 0
M  V30 3797 H 351.656 3.60474 -5.37278 0
M  V30 3798 N 351.788 1.33704 0.83433 0
M  V30 3799 C 353.037 1.24763 1.58484 0
M  V30 3800 C 353.35 -0.183775 1.94735 0
M  V30 3801 O 354.556 -0.395234 2.68608 0
M  V30 3802 C 353.012 2.18638 2.85876 0
M  V30 3803 C 352.62 3.66974 2.56971 0
M  V30 3804 C 354.364 2.18581 3.63899 0
M  V30 3805 C 352.271 4.5275 3.80488 0
M  V30 3806 H 351.201 0.463425 0.594772 0
M  V30 3807 H 353.852 1.58797 0.919551 0
M  V30 3808 H 352.234 1.77542 3.5397 0
M  V30 3809 H 353.408 4.16538 1.9706 0
M  V30 3810 H 351.723 3.69366 1.92244 0
M  V30 3811 H 354.32 2.79894 4.55591 0
M  V30 3812 H 354.663 1.18207 3.99165 0
M  V30 3813 H 355.196 2.58062 3.02735 0
M  V30 3814 H 351.935 5.54017 3.5035 0
M  V30 3815 H 351.455 4.07927 4.39722 0
M  V30 3816 H 353.134 4.66784 4.4802 0
M  V30 3817 N 353.266 -1.05314 1.17247 0
M  V30 3818 C 354.494 -1.81971 0.984593 0
M  V30 3819 C 354.909 -1.82929 -0.467166 0
M  V30 3820 O 354.266 -1.25564 -1.32438 0
M  V30 3821 C 354.317 -3.28143 1.51672 0
M  V30 3822 O 354.038 -3.27347 2.91163 0
M  V30 3823 C 355.539 -4.21493 1.37326 0
M  V30 3824 H 352.759 -0.573455 0.348411 0
M  V30 3825 H 355.303 -1.32808 1.55506 0
M  V30 3826 H 353.458 -3.74582 0.988302 0
M  V30 3827 H 353.872 -4.18824 3.15732 0
M  V30 3828 H 355.346 -5.22043 1.79375 0
M  V30 3829 H 355.823 -4.38031 0.320169 0
M  V30 3830 H 356.429 -3.80909 1.89178 0
M  V30 3831 N 354.744 -0.972509 -1.24016 0
M  V30 3832 C 355.993 -0.632603 -1.91523 0
M  V30 3833 C 356.306 0.836641 -1.76804 0
M  V30 3834 O 357.512 1.28728 -2.39043 0
M  V30 3835 C 355.968 -1.08082 -3.43287 0
M  V30 3836 C 355.576 -2.57386 -3.66683 0
M  V30 3837 C 357.32 -0.814288 -4.16617 0
M  V30 3838 C 355.227 -2.95915 -5.12043 0
M  V30 3839 H 354.157 -0.232898 -0.717129 0
M  V30 3840 H 356.808 -1.17936 -1.40582 0
M  V30 3841 H 355.19 -0.462339 -3.93292 0
M  V30 3842 H 356.364 -3.24405 -3.27258 0
M  V30 3843 H 354.679 -2.81701 -3.06649 0
M  V30 3844 H 357.276 -1.0781 -5.23718 0
M  V30 3845 H 357.619 0.24955 -4.15551 0
M  V30 3846 H 358.152 -1.39397 -3.72577 0
M  V30 3847 H 354.891 -4.0139 -5.18234 0
M  V30 3848 H 354.411 -2.33584 -5.52448 0
M  V30 3849 H 356.09 -2.86086 -5.80314 0
M  V30 3850 N 356.222 1.38976 -0.743202 0
M  V30 3851 C 357.152 2.33171 -0.123873 0
M  V30 3852 C 358.133 1.54336 0.71516 0
M  V30 3853 O 359.318 1.82696 0.658467 0
M  V30 3854 C 356.448 3.38474 0.777978 0
M  V30 3855 C 355.402 4.27979 0.0424758 0
M  V30 3856 C 354.728 5.2405 1.06189 0
M  V30 3857 C 356.028 5.10155 -1.1198 0
M  V30 3858 H 357.722 2.85213 -0.910709 0
M  V30 3859 H 355.268 1.37133 -0.439388 0
M  V30 3860 H 357.221 4.03328 1.22084 0
M  V30 3861 H 355.945 2.84891 1.59702 0
M  V30 3862 H 354.604 3.64616 -0.380853 0
M  V30 3863 H 354.252 4.66758 1.87472 0
M  V30 3864 H 353.952 5.84785 0.574485 0
M  V30 3865 H 355.476 5.9178 1.50428 0
M  V30 3866 H 356.89 5.68307 -0.75499 0
M  V30 3867 H 355.287 5.80073 -1.53738 0
M  V30 3868 H 356.357 4.44504 -1.93764 0
M  V30 3869 N 357.7 0.491464 1.49741 0
M  V30 3870 C 358.61 -0.296835 2.32715 0
M  V30 3871 C 359.626 -0.976536 1.44013 0
M  V30 3872 O 360.802 -0.960023 1.77047 0
M  V30 3873 C 357.867 -1.35288 3.19215 0
M  V30 3874 C 356.928 -0.687632 4.23757 0
M  V30 3875 C 356.161 -1.69336 5.06123 0
M  V30 3876 O 356.384 -2.92219 4.89861 0
M  V30 3877 O 355.318 -1.25394 5.88693 0
M  V30 3878 H 359.144 0.382048 3.01287 0
M  V30 3879 H 356.729 0.252953 1.47243 0
M  V30 3880 H 358.611 -1.96411 3.72828 0
M  V30 3881 H 357.286 -2.01487 2.53347 0
M  V30 3882 H 356.193 -0.0369159 3.74082 0
M  V30 3883 H 357.526 -0.0682566 4.92153 0
M  V30 3884 N 359.178 -1.55987 0.224894 0
M  V30 3885 C 360.088 -2.24066 -0.69511 0
M  V30 3886 C 361.104 -1.24939 -1.21104 0
M  V30 3887 O 362.28 -1.5776 -1.25195 0
M  V30 3888 C 359.345 -2.90983 -1.88493 0
M  V30 3889 C 358.406 -4.05462 -1.41064 0
M  V30 3890 C 357.639 -4.69179 -2.54375 0
M  V30 3891 O 357.862 -4.31895 -3.72589 0
M  V30 3892 O 356.796 -5.58108 -2.25386 0
M  V30 3893 H 360.622 -3.03353 -0.145149 0
M  V30 3894 H 358.207 -1.49399 -0.00569476 0
M  V30 3895 H 360.089 -3.33209 -2.57972 0
M  V30 3896 H 358.764 -2.14653 -2.42293 0
M  V30 3897 H 357.671 -3.67798 -0.683774 0
M  V30 3898 H 359.004 -4.83545 -0.918985 0
M  V30 3899 N 360.656 0.0484629 -1.57525 0
M  V30 3900 C 361.566 1.07241 -2.08654 0
M  V30 3901 C 362.582 1.409 -1.02095 0
M  V30 3902 O 363.758 1.50609 -1.33712 0
M  V30 3903 C 360.823 2.36008 -2.5397 0
M  V30 3904 C 359.884 2.09108 -3.7493 0
M  V30 3905 C 359.117 3.31736 -4.18075 0
M  V30 3906 O 359.34 4.41714 -3.60895 0
M  V30 3907 O 358.274 3.18576 -5.10679 0
M  V30 3908 H 362.1 0.667965 -2.96263 0
M  V30 3909 H 359.685 0.26417 -1.47046 0
M  V30 3910 H 361.567 3.11747 -2.83535 0
M  V30 3911 H 360.242 2.75786 -1.69481 0
M  V30 3912 H 359.149 1.31 -3.50414 0
M  V30 3913 H 360.482 1.74198 -4.60343 0
M  V30 3914 N 362.134 1.5431 0.320358 0
M  V30 3915 C 363.067 1.78769 1.41834 0
M  V30 3916 C 364.045 0.63783 1.49568 0
M  V30 3917 O 365.229 0.875628 1.66928 0
M  V30 3918 C 362.356 1.90712 2.79905 0
M  V30 3919 C 361.402 3.13023 2.89687 0
M  V30 3920 S 362.235 4.71554 2.53766 0
M  V30 3921 C 363.391 4.86408 3.93902 0
M  V30 3922 H 363.624 2.71619 1.20874 0
M  V30 3923 H 361.157 1.45474 0.517377 0
M  V30 3924 H 363.115 1.98279 3.59438 0
M  V30 3925 H 361.776 0.988343 2.98145 0
M  V30 3926 H 360.969 3.18124 3.90913 0
M  V30 3927 H 360.571 3.03803 2.18128 0
M  V30 3928 H 362.863 4.69241 4.88691 0
M  V30 3929 H 363.806 5.88508 3.93782 0
M  V30 3930 H 364.214 4.14689 3.83005 0
M  V30 3931 N 363.613 -0.582584 1.46437 0
M  V30 3932 C 364.561 -1.71272 1.5738 0
M  V30 3933 C 365.555 -1.63524 0.44229 0
M  V30 3934 O 366.761 -1.69016 0.619166 0
M  V30 3935 H 363.136 -0.566273 0.494813 0
M  V30 3936 H 365.107 -1.59174 2.52401 0
M  V30 3937 C 363.856 -3.09658 1.58136 0
M  V30 3938 H 363.179 -3.16291 2.44541 0
M  V30 3939 H 364.619 -3.88494 1.69847 0
M  V30 3940 C 363.078 -3.3547 0.310026 0
M  V30 3941 O 363.608 -3.97199 -0.599683 0
M  V30 3942 N 361.814 -2.89925 0.197901 0
M  V30 3943 H 361.361 -2.39873 0.93909 0
M  V30 3944 H 361.319 -3.07568 -0.65185 0
M  V30 3945 N 365.091 -1.34144 -0.827227 0
M  V30 3946 C 366.337 -1.26446 -1.58554 0
M  V30 3947 C 366.67 0.1664 -1.93486 0
M  V30 3948 O 365.945 1.1107 -1.59667 0
M  V30 3949 C 366.228 -2.15111 -2.8879 0
M  V30 3950 C 366.081 -3.66712 -2.60465 0
M  V30 3951 C 367.4 -2.03311 -3.90324 0
M  V30 3952 H 364.519 -0.46067 -0.575284 0
M  V30 3953 H 367.161 -1.64356 -0.953269 0
M  V30 3954 H 365.311 -1.8291 -3.42748 0
M  V30 3955 H 366.983 -4.09259 -2.1285 0
M  V30 3956 H 365.226 -3.88014 -1.93978 0
M  V30 3957 H 365.897 -4.24112 -3.53317 0
M  V30 3958 H 368.373 -2.31574 -3.45706 0
M  V30 3959 H 367.249 -2.67582 -4.79261 0
M  V30 3960 H 367.51 -1.00879 -4.30437 0
M  V30 3961 N 366.569 1.04691 -1.17803 0
M  V30 3962 C 367.794 1.81984 -0.994813 0
M  V30 3963 C 368.219 1.82586 0.452112 0
M  V30 3964 O 367.577 1.23854 1.324 0
M  V30 3965 C 367.625 3.2575 -1.54659 0
M  V30 3966 O 366.729 4.05267 -0.763728 0
M  V30 3967 H 366.07 0.562483 -0.352857 0
M  V30 3968 H 368.6 1.3189 -1.56417 0
M  V30 3969 H 368.61 3.76541 -1.57102 0
M  V30 3970 H 367.285 3.24627 -2.59981 0
M  V30 3971 H 365.862 3.63972 -0.811108 0
M  V30 3972 N 368.047 0.979072 1.23499 0
M  V30 3973 C 369.293 0.648178 1.92163 0
M  V30 3974 C 369.626 -0.816049 1.76222 0
M  V30 3975 O 368.901 -1.58849 1.12237 0
M  V30 3976 C 369.184 1.03773 3.44824 0
M  V30 3977 C 369.037 2.55948 3.69879 0
M  V30 3978 C 370.356 0.580653 4.36253 0
M  V30 3979 H 367.475 0.236952 0.69787 0
M  V30 3980 H 370.117 1.22012 1.45647 0
M  V30 3981 H 368.267 0.551058 3.84572 0
M  V30 3982 H 369.939 3.12179 3.3962 0
M  V30 3983 H 368.182 2.98641 3.14636 0
M  V30 3984 H 368.853 2.78255 4.76737 0
M  V30 3985 H 371.329 0.998465 4.03943 0
M  V30 3986 H 370.205 0.881663 5.41773 0
M  V30 3987 H 370.466 -0.519052 4.39042 0
M  V30 3988 N 369.525 -1.3858 0.750561 0
M  V30 3989 C 370.765 -2.02032 0.310258 0
M  V30 3990 C 371.129 -1.58288 -1.08668 0
M  V30 3991 O 372.33 -2.14049 -1.62593 0
M  V30 3992 C 370.601 -3.54856 0.425647 0
M  V30 3993 S 372.16 -4.38748 0.0674797 0
M  V30 3994 H 368.978 -0.700705 0.120554 0
M  V30 3995 H 371.58 -1.69134 0.980512 0
M  V30 3996 H 370.284 -3.84182 1.44335 0
M  V30 3997 H 369.815 -3.92527 -0.261894 0
M  V30 3998 H 371.83 -4.82835 -1.14388 0
M  V30 3999 N 371.003 -0.499398 -1.49478 0
M  V30 4000 C 372.251 0.0455996 -2.02049 0
M  V30 4001 C 372.572 1.37633 -1.38138 0
M  V30 4002 O 371.842 1.8842 -0.536166 0
M  V30 4003 H 370.422 0.0198416 -0.746736 0
M  V30 4004 H 373.084 -0.656274 -1.83519 0
M  V30 4005 H 372.18 0.176445 -3.11601 0
M  V30 4006 N 372.481 1.55866 -0.233164 0
M  V30 4007 C 373.411 2.23783 0.666599 0
M  V30 4008 C 374.392 1.21343 1.19205 0
M  V30 4009 O 375.577 1.4996 1.23392 0
M  V30 4010 C 372.707 2.92671 1.86978 0
M  V30 4011 C 371.661 4.01682 1.47768 0
M  V30 4012 C 370.987 4.57926 2.76058 0
M  V30 4013 C 372.287 5.18126 0.658993 0
M  V30 4014 H 373.981 2.99232 0.100306 0
M  V30 4015 H 371.527 1.43924 0.046804 0
M  V30 4016 H 373.48 3.3888 2.50476 0
M  V30 4017 H 372.204 2.14688 2.46123 0
M  V30 4018 H 370.863 3.56222 0.866106 0
M  V30 4019 H 370.511 3.76659 3.33372 0
M  V30 4020 H 370.211 5.31505 2.50552 0
M  V30 4021 H 371.735 5.06859 3.40479 0
M  V30 4022 H 373.149 5.60644 1.19795 0
M  V30 4023 H 371.546 5.98009 0.500552 0
M  V30 4024 H 372.616 4.83763 -0.331856 0
M  V30 4025 N 373.959 -0.0401083 1.57549 0
M  V30 4026 C 375.189 -0.744115 1.92734 0
M  V30 4027 C 375.597 -1.70005 0.830348 0
M  V30 4028 O 374.94 -1.82576 -0.20286 0
M  V30 4029 C 375.002 -1.56516 3.2364 0
M  V30 4030 C 374.666 -0.7752 4.50377 0
M  V30 4031 C 375.663 -0.0803326 5.19838 0
M  V30 4032 C 373.348 -0.733002 4.96923 0
M  V30 4033 C 375.342 0.646154 6.34116 0
M  V30 4034 C 373.029 -0.00276321 6.111 0
M  V30 4035 C 374.027 0.685585 6.7955 0
M  V30 4036 O 373.715 1.40399 7.91545 0
M  V30 4037 H 373.447 -0.214861 0.640945 0
M  V30 4038 H 376.001 -0.00503675 2.05399 0
M  V30 4039 H 374.231 -2.3478 3.07271 0
M  V30 4040 H 375.92 -2.15076 3.44234 0
M  V30 4041 H 376.686 -0.104035 4.84888 0
M  V30 4042 H 372.565 -1.25827 4.43496 0
M  V30 4043 H 376.109 1.18398 6.87479 0
M  V30 4044 H 372.006 0.0229012 6.45496 0
M  V30 4045 H 372.774 1.31653 8.07843 0
M  V30 4046 N 375.437 -1.54477 -0.31217 0
M  V30 4047 C 376.665 -1.77205 -1.068 0
M  V30 4048 C 377.08 -0.526114 -1.81321 0
M  V30 4049 O 376.437 0.503647 -1.75413 0
M  V30 4050 C 376.488 -2.97253 -2.05725 0
M  V30 4051 O 376.209 -4.1703 -1.34228 0
M  V30 4052 C 377.71 -3.32281 -2.93435 0
M  V30 4053 H 374.93 -0.591287 -0.317208 0
M  V30 4054 H 377.474 -2.01398 -0.354834 0
M  V30 4055 H 375.629 -2.753 -2.72559 0
M  V30 4056 H 376.043 -4.84636 -2.00571 0
M  V30 4057 H 377.517 -4.19551 -3.58721 0
M  V30 4058 H 377.994 -2.49945 -3.61143 0
M  V30 4059 H 378.6 -3.56353 -2.32147 0
M  V30 4060 N 376.915 0.57481 -1.46744 0
M  V30 4061 C 378.145 1.35659 -1.55821 0
M  V30 4062 C 378.553 1.88129 -0.201036 0
M  V30 4063 O 377.896 1.64723 0.813134 0
M  V30 4064 C 377.958 2.57473 -2.50894 0
M  V30 4065 C 377.622 2.26415 -3.9697 0
M  V30 4066 C 378.619 1.84771 -4.85958 0
M  V30 4067 C 376.304 2.38316 -4.42166 0
M  V30 4068 C 378.298 1.55434 -6.18158 0
M  V30 4069 C 375.985 2.08591 -5.74398 0
M  V30 4070 C 376.983 1.67216 -6.62214 0
M  V30 4071 O 376.671 1.37859 -7.91991 0
M  V30 4072 H 376.403 0.420496 -0.529301 0
M  V30 4073 H 378.957 0.704967 -1.92923 0
M  V30 4074 H 377.187 3.25468 -2.08824 0
M  V30 4075 H 378.876 3.19546 -2.50291 0
M  V30 4076 H 379.642 1.75085 -4.52295 0
M  V30 4077 H 375.521 2.69483 -3.74032 0
M  V30 4078 H 379.065 1.23065 -6.86659 0
M  V30 4079 H 374.962 2.17905 -6.07608 0
M  V30 4080 H 375.73 1.51638 -8.04331 0
M  V30 4081 N 378.394 1.34581 0.820102 0
M  V30 4082 C 379.642 1.26845 1.57336 0
M  V30 4083 C 379.963 -0.160667 1.94337 0
M  V30 4084 O 379.233 -1.09396 1.6251 0
M  V30 4085 H 377.813 0.466514 0.583415 0
M  V30 4086 H 380.475 1.68526 0.979027 0
M  V30 4087 H 379.571 1.87513 2.4949 0
M  V30 4088 N 379.872 -1.04064 1.18357 0
M  V30 4089 C 380.819 -2.12077 0.910603 0
M  V30 4090 C 381.789 -1.65421 -0.15 0
M  V30 4091 O 382.974 -1.90797 -0.0103614 0
M  V30 4092 C 380.114 -3.42252 0.442472 0
M  V30 4093 C 379.227 -4.0252 1.5685 0
M  V30 4094 C 378.362 -5.20657 1.05309 0
M  V30 4095 C 377.401 -5.72955 2.1538 0
M  V30 4096 N 376.538 -6.8238 1.65233 0
M  V30 4097 H 381.378 -2.34764 1.83548 0
M  V30 4098 H 378.915 -1.15157 0.915279 0
M  V30 4099 H 380.873 -4.16921 0.152534 0
M  V30 4100 H 379.503 -3.19712 -0.445428 0
M  V30 4101 H 378.555 -3.25178 1.97391 0
M  V30 4102 H 379.867 -4.37362 2.39824 0
M  V30 4103 H 379.021 -6.0244 0.717677 0
M  V30 4104 H 377.76 -4.87318 0.19293 0
M  V30 4105 H 376.765 -4.89793 2.49766 0
M  V30 4106 H 377.99 -6.08337 3.01832 0
M  V30 4107 H 375.936 -6.50917 0.815064 0
M  V30 4108 H 375.853 -7.16286 2.41805 0
M  V30 4109 H 377.121 -7.67788 1.34619 0
M  V30 4110 N 381.35 -0.985608 -1.22978 0
M  V30 4111 C 382.761 -0.693593 -1.73338 0
M  V30 4112 C 383.112 0.789935 -1.79595 0
M  V30 4113 O 382.237 1.61771 -1.43733 0
M  V30 4114 C 382.832 -1.25235 -3.14804 0
M  V30 4115 C 381.391 -1.00987 -3.626 0
M  V30 4116 C 380.538 -1.37695 -2.40698 0
M  V30 4117 H 383.489 -1.15884 -1.08428 0
M  V30 4118 H 383.51 -0.627329 -3.75293 0
M  V30 4119 H 383.022 -2.33209 -3.10218 0
M  V30 4120 H 381.123 0.0535565 -3.72562 0
M  V30 4121 H 381.236 -1.66812 -4.49122 0
M  V30 4122 H 379.6 -0.795459 -2.4196 0
M  V30 4123 H 380.383 -2.46657 -2.38779 0
M  V30 4124 N 382.828 1.3818 -0.7579 0
M  V30 4125 C 384.074 2.00316 -0.316453 0
M  V30 4126 C 384.407 1.60026 1.10025 0
M  V30 4127 O 383.682 0.839835 1.75434 0
M  V30 4128 C 383.965 3.57349 -0.444245 0
M  V30 4129 C 383.818 4.07591 -1.90236 0
M  V30 4130 C 385.137 4.3981 0.1598 0
M  V30 4131 H 382.256 0.727741 -0.116459 0
M  V30 4132 H 384.898 1.6406 -0.958352 0
M  V30 4133 H 383.048 3.88365 0.102233 0
M  V30 4134 H 384.72 3.87199 -2.50748 0
M  V30 4135 H 382.963 3.60297 -2.41595 0
M  V30 4136 H 383.634 5.16677 -1.94291 0
M  V30 4137 H 386.11 4.14971 -0.306314 0
M  V30 4138 H 384.986 5.48885 0.0401675 0
M  V30 4139 H 385.247 4.24102 1.24859 0
M  V30 4140 N 384.306 0.507319 1.49211 0
M  V30 4141 C 385.717 0.0611118 1.866 0
M  V30 4142 C 386.068 -1.35488 1.41907 0
M  V30 4143 O 385.193 -2.0108 0.799726 0
M  V30 4144 C 385.788 0.104125 3.3864 0
M  V30 4145 C 384.347 -0.28677 3.75306 0
M  V30 4146 C 383.494 0.473893 2.73221 0
M  V30 4147 H 386.445 0.719775 1.41439 0
M  V30 4148 H 386.466 -0.689672 3.74198 0
M  V30 4149 H 385.978 1.13482 3.71138 0
M  V30 4150 H 384.079 -1.32046 3.48417 0
M  V30 4151 H 384.192 0.0370745 4.79086 0
M  V30 4152 H 382.556 -0.0770644 2.54583 0
M  V30 4153 H 383.339 1.50478 3.08563 0
M  V30 4154 N 385.784 -1.5574 0.241426 0
M  V30 4155 C 387.032 -1.98417 -0.384075 0
M  V30 4156 C 387.353 -1.13078 -1.58866 0
M  V30 4157 O 386.623 -0.212312 -1.94746 0
M  V30 4158 H 385.203 -0.732813 -0.144894 0
M  V30 4159 H 387.865 -1.9193 0.338943 0
M  V30 4160 H 386.961 -3.04219 -0.696939 0
M  V30 4161 N 387.262 0.0317525 -1.57568 0
M  V30 4162 C 388.212 1.04101 -2.02847 0
M  V30 4163 C 389.196 1.3219 -0.917317 0
M  V30 4164 O 390.388 1.31819 -1.18121 0
M  V30 4165 C 387.517 2.34295 -2.5092 0
M  V30 4166 C 386.603 2.09308 -3.68851 0
M  V30 4167 N 386.994 1.5437 -4.81667 0
M  V30 4168 C 385.292 2.39604 -3.76172 0
M  V30 4169 C 385.993 1.45126 -5.63306 0
M  V30 4170 N 384.969 1.92589 -5.08341 0
M  V30 4171 H 388.771 0.610217 -2.87495 0
M  V30 4172 H 386.285 0.238108 -1.60645 0
M  V30 4173 H 388.282 3.07404 -2.81617 0
M  V30 4174 H 386.942 2.78055 -1.67677 0
M  V30 4175 H 387.953 1.22678 -5.03161 0
M  V30 4176 H 384.63 2.86457 -3.03724 0
M  V30 4177 H 386.02 1.03163 -6.63933 0
M  V30 4178 N 388.74 1.54641 0.303973 0
M  V30 4179 C 389.986 1.74038 1.04109 0
M  V30 4180 C 390.319 0.523051 1.87024 0
M  V30 4181 O 389.594 -0.479874 1.88487 0
M  V30 4182 C 389.877 3.02761 1.94955 0
M  V30 4183 C 389.73 4.34787 1.1524 0
M  V30 4184 C 391.049 3.27336 2.94175 0
M  V30 4185 H 388.168 0.63323 0.377079 0
M  V30 4186 H 390.81 1.87354 0.316001 0
M  V30 4187 H 388.96 2.9154 2.56782 0
M  V30 4188 H 390.632 4.57922 0.557236 0
M  V30 4189 H 388.875 4.31407 0.455053 0
M  V30 4190 H 389.546 5.21116 1.8205 0
M  V30 4191 H 392.022 3.38148 2.42477 0
M  V30 4192 H 390.898 4.18726 3.54908 0
M  V30 4193 H 391.159 2.45491 3.67677 0
M  V30 4194 N 390.218 -0.567019 1.47046 0
M  V30 4195 C 391.446 -1.35027 1.56765 0
M  V30 4196 C 391.861 -1.8758 0.214316 0
M  V30 4197 O 391.218 -1.64471 -0.790919 0
M  V30 4198 C 391.269 -2.52698 2.58507 0
M  V30 4199 O 390.99 -2.0232 3.88585 0
M  V30 4200 C 392.491 -3.45043 2.78316 0
M  V30 4201 H 389.711 -0.41195 0.529658 0
M  V30 4202 H 392.255 -0.687832 1.92585 0
M  V30 4203 H 390.41 -3.149 2.25648 0
M  V30 4204 H 390.824 -2.79068 4.44096 0
M  V30 4205 H 392.298 -4.2405 3.53391 0
M  V30 4206 H 392.775 -3.97971 1.85784 0
M  V30 4207 H 393.381 -2.88665 3.12334 0
M  V30 4208 N 391.696 -1.35014 -0.812953 0
M  V30 4209 C 392.942 -1.2812 -1.57204 0
M  V30 4210 C 393.275 0.145869 -1.93651 0
M  V30 4211 O 392.55 1.0937 -1.60836 0
M  V30 4212 C 392.833 -2.18162 -2.86492 0
M  V30 4213 C 392.686 -3.69454 -2.56561 0
M  V30 4214 C 394.005 -2.07439 -3.88145 0
M  V30 4215 H 391.124 -0.466746 -0.570366 0
M  V30 4216 H 393.766 -1.65357 -0.935783 0
M  V30 4217 H 391.916 -1.86535 -3.40789 0
M  V30 4218 H 393.588 -4.11493 -2.08497 0
M  V30 4219 H 391.831 -3.9005 -1.89851 0
M  V30 4220 H 392.502 -4.27835 -3.48799 0
M  V30 4221 H 394.978 -2.35228 -3.4323 0
M  V30 4222 H 393.854 -2.7265 -4.76396 0
M  V30 4223 H 394.115 -1.05439 -4.29343 0
M  V30 4224 N 393.175 1.03435 -1.18907 0
M  V30 4225 C 394.4 1.80919 -1.01406 0
M  V30 4226 C 394.825 1.83055 0.432721 0
M  V30 4227 O 394.183 1.25252 1.31079 0
M  V30 4228 C 394.231 3.24091 -1.58105 0
M  V30 4229 O 393.335 4.04434 -0.806669 0
M  V30 4230 H 392.676 0.558709 -0.358803 0
M  V30 4231 H 395.206 1.30223 -1.57807 0
M  V30 4232 H 395.216 3.74853 -1.61087 0
M  V30 4233 H 393.891 3.21851 -2.6341 0
M  V30 4234 H 392.468 3.63091 -0.849666 0
M  V30 4235 N 394.653 0.992116 1.22453 0
M  V30 4236 C 395.902 0.662992 1.90492 0
M  V30 4237 C 396.215 -0.808407 1.78113 0
M  V30 4238 O 397.421 -1.24908 2.41061 0
M  V30 4239 C 395.877 1.1353 3.41524 0
M  V30 4240 C 395.485 2.63187 3.62542 0
M  V30 4241 C 397.229 0.880465 4.15269 0
M  V30 4242 C 395.136 3.04024 5.0727 0
M  V30 4243 H 394.066 0.244278 0.713333 0
M  V30 4244 H 396.717 1.20157 1.38688 0
M  V30 4245 H 395.099 0.52485 3.92506 0
M  V30 4246 H 396.273 3.2957 3.22056 0
M  V30 4247 H 394.588 2.86543 3.02129 0
M  V30 4248 H 397.185 1.16128 5.21937 0
M  V30 4249 H 397.528 -0.183408 4.15896 0
M  V30 4250 H 398.061 1.45307 3.70312 0
M  V30 4251 H 394.8 4.09584 5.11782 0
M  V30 4252 H 394.32 2.42343 5.48662 0
M  V30 4253 H 395.999 2.95282 5.75689 0
M  V30 4254 N 396.131 -1.37776 0.765217 0
M  V30 4255 C 397.371 -2.01691 0.331669 0
M  V30 4256 C 397.735 -1.59432 -1.06983 0
M  V30 4257 O 398.936 -2.15761 -1.60314 0
M  V30 4258 C 397.207 -3.54385 0.463261 0
M  V30 4259 S 398.766 -4.38652 0.114011 0
M  V30 4260 H 395.584 -0.699387 0.127979 0
M  V30 4261 H 398.186 -1.68084 0.998396 0
M  V30 4262 H 396.89 -3.82629 1.48401 0
M  V30 4263 H 396.421 -3.92783 -0.220246 0
M  V30 4264 H 398.436 -4.84021 -1.09261 0
M  V30 4265 N 397.609 -0.515225 -1.4894 0
M  V30 4266 C 399.025 -0.172099 -1.58669 0
M  V30 4267 C 399.225 1.32405 -1.51892 0
M  V30 4268 O 398.281 2.10116 -1.40027 0
M  V30 4269 C 399.594 -0.761533 -2.90897 0
M  V30 4270 C 401.142 -0.728926 -3.04394 0
M  V30 4271 C 401.617 -1.29667 -4.39261 0
M  V30 4272 N 403.108 -1.25799 -4.4579 0
M  V30 4273 C 403.843 -1.66733 -5.48623 0
M  V30 4274 N 403.339 -2.15327 -6.58488 0
M  V30 4275 N 405.132 -1.58061 -5.39419 0
M  V30 4276 H 397.283 -1.48778 -1.51588 0
M  V30 4277 H 399.546 -0.617968 -0.718901 0
M  V30 4278 H 399.252 -1.81136 -3.01468 0
M  V30 4279 H 399.126 -0.230106 -3.76497 0
M  V30 4280 H 401.513 0.312098 -2.93445 0
M  V30 4281 H 401.594 -1.29766 -2.20442 0
M  V30 4282 H 401.238 -2.33655 -4.50963 0
M  V30 4283 H 401.168 -0.703752 -5.21876 0
M  V30 4284 H 403.659 -0.902102 -3.66975 0
M  V30 4285 H 403.972 -2.44594 -7.33071 0
M  V30 4286 H 402.317 -2.19311 -6.59491 0
M  V30 4287 H 405.508 -1.19906 -4.52482 0
M  V30 4288 H 405.681 -1.90284 -6.19432 0
M  V30 4289 N 399.087 1.5561 -0.249682 0
M  V30 4290 C 400.034 2.21496 0.648694 0
M  V30 4291 C 401.004 1.17977 1.16921 0
M  V30 4292 O 402.189 1.46434 1.22318 0
M  V30 4293 C 399.329 2.92039 1.83868 0
M  V30 4294 C 398.442 4.10219 1.35442 0
M  V30 4295 C 397.577 4.6847 2.50419 0
M  V30 4296 C 396.616 5.78893 1.98869 0
M  V30 4297 N 395.753 6.31315 3.07223 0
M  V30 4298 H 400.593 2.97892 0.0801582 0
M  V30 4299 H 398.13 1.47074 0.0278031 0
M  V30 4300 H 400.088 3.31138 2.53778 0
M  V30 4301 H 398.718 2.18111 2.37965 0
M  V30 4302 H 397.77 3.76413 0.54928 0
M  V30 4303 H 399.082 4.89927 0.936649 0
M  V30 4304 H 398.236 5.10158 3.28366 0
M  V30 4305 H 396.975 3.87984 2.95499 0
M  V30 4306 H 395.98 5.3668 1.19393 0
M  V30 4307 H 397.205 6.61232 1.54755 0
M  V30 4308 H 395.151 5.53733 3.51732 0
M  V30 4309 H 395.068 7.06224 2.69784 0
M  V30 4310 H 396.336 6.77662 3.8522 0
M  V30 4311 N 400.565 -0.0233959 1.57583 0
M  V30 4312 C 401.795 -0.723631 1.93513 0
M  V30 4313 C 402.203 -1.69115 0.848333 0
M  V30 4314 O 401.546 -1.82781 -0.183484 0
M  V30 4315 C 401.608 -1.53075 3.25282 0
M  V30 4316 C 401.272 -0.727388 4.51174 0
M  V30 4317 C 402.269 -0.0251924 5.19894 0
M  V30 4318 C 399.954 -0.680256 4.97672 0
M  V30 4319 C 401.948 0.713374 6.33395 0
M  V30 4320 C 399.635 0.0620523 6.11068 0
M  V30 4321 C 400.633 0.757622 6.78785 0
M  V30 4322 O 400.321 1.48787 7.90011 0
M  V30 4323 H 400.053 -0.208051 0.643188 0
M  V30 4324 H 402.607 0.0167489 2.05393 0
M  V30 4325 H 400.837 -2.31508 3.09744 0
M  V30 4326 H 402.526 -2.11413 3.46496 0
M  V30 4327 H 403.292 -0.0526003 4.84971 0
M  V30 4328 H 399.171 -1.21116 4.44805 0
M  V30 4329 H 402.715 1.25683 6.86185 0
M  V30 4330 H 398.612 0.0913634 6.45435 0
M  V30 4331 H 399.38 1.40213 8.06401 0
M  V30 4332 N 402.043 -1.548 -0.295768 0
M  V30 4333 C 403.268 -1.78653 -1.05346 0
M  V30 4334 C 403.693 -0.546894 -1.79974 0
M  V30 4335 O 403.051 0.502763 -1.7419 0
M  V30 4336 C 403.099 -2.99679 -2.00561 0
M  V30 4337 O 402.203 -2.7317 -3.08953 0
M  V30 4338 H 401.544 -0.59116 -0.302367 0
M  V30 4339 H 404.074 -2.01895 -0.331598 0
M  V30 4340 H 404.084 -3.27793 -2.42932 0
M  V30 4341 H 402.759 -3.89562 -1.4565 0
M  V30 4342 H 401.336 -2.56089 -2.71059 0
M  V30 4343 N 403.521 0.559213 -1.47345 0
M  V30 4344 C 404.798 1.31997 -1.44348 0
M  V30 4345 C 405.178 2.1064 -0.139358 0
M  V30 4346 O 404.526 2.1091 0.879153 0
M  V30 4347 C 404.736 2.22618 -2.68779 0
M  V30 4348 C 406.084 2.83701 -3.1591 0
M  V30 4349 O 407.108 2.32921 -2.69493 0
M  V30 4350 O 405.967 3.75993 -3.966 0
M  V30 4351 H 403.061 0.594251 -0.575147 0
M  V30 4352 H 405.607 0.578282 -1.59543 0
M  V30 4353 H 404.379 1.64093 -3.55231 0
M  V30 4354 H 404.002 3.04085 -2.5616 0
M  V30 4355 N 404.999 1.35443 0.805782 0
M  V30 4356 C 405.962 1.28301 1.89925 0
M  V30 4357 C 406.962 0.194285 1.59622 0
M  V30 4358 O 408.152 0.448036 1.6834 0
M  V30 4359 C 405.284 0.984997 3.2636 0
M  V30 4360 H 406.477 2.2553 1.97677 0
M  V30 4361 H 404.03 1.19979 1.00173 0
M  V30 4362 H 404.765 0.016603 3.24296 0
M  V30 4363 H 404.55 1.77269 3.4974 0
M  V30 4364 H 406.04 0.960651 4.064 0
M  V30 4365 N 406.477 -1.02803 1.19454 0
M  V30 4366 C 407.702 -1.80378 1.02364 0
M  V30 4367 C 408.127 -1.83282 -0.423007 0
M  V30 4368 O 407.485 -1.25945 -1.30413 0
M  V30 4369 C 407.533 -3.23248 1.59821 0
M  V30 4370 O 406.637 -4.04 0.828105 0
M  V30 4371 H 405.978 -0.556799 0.361761 0
M  V30 4372 H 408.508 -1.29385 1.58495 0
M  V30 4373 H 408.518 -3.73994 1.63073 0
M  V30 4374 H 407.193 -3.2045 2.65113 0
M  V30 4375 H 405.77 -3.62635 0.86891 0
M  V30 4376 N 407.956 -0.998596 -1.21925 0
M  V30 4377 C 409.233 -0.593401 -1.86382 0
M  V30 4378 C 409.613 0.92916 -1.89552 0
M  V30 4379 O 408.961 1.81347 -1.39017 0
M  V30 4380 C 409.171 -1.22039 -3.26967 0
M  V30 4381 C 410.519 -1.32449 -4.03413 0
M  V30 4382 O 411.543 -1.17522 -3.36254 0
M  V30 4383 O 410.402 -1.56395 -5.23644 0
M  V30 4384 H 407.496 -0.202385 -0.801854 0
M  V30 4385 H 410.042 -1.09484 -1.29659 0
M  V30 4386 H 408.814 -2.26158 -3.19325 0
M  V30 4387 H 408.437 -0.704906 -3.91301 0
M  V30 4388 N 409.434 1.37368 -0.772513 0
M  V30 4389 C 410.674 2.01512 -0.342361 0
M  V30 4390 C 411.038 1.59997 1.06136 0
M  V30 4391 O 412.239 2.16609 1.59167 0
M  V30 4392 C 410.51 3.54134 -0.482048 0
M  V30 4393 S 412.069 4.38585 -0.137272 0
M  V30 4394 H 408.887 0.698699 -0.131686 0
M  V30 4395 H 411.489 1.67552 -1.0073 0
M  V30 4396 H 410.193 3.81837 -1.50428 0
M  V30 4397 H 409.724 3.92894 0.199413 0
M  V30 4398 H 411.739 4.84594 1.06692 0
M  V30 4399 N 410.912 0.523116 1.48665 0
M  V30 4400 C 411.862 -0.263106 2.26477 0
M  V30 4401 C 412.846 -0.916005 1.32281 0
M  V30 4402 O 414.038 -0.819946 1.56863 0
M  V30 4403 C 411.167 -1.31361 3.17174 0
M  V30 4404 C 410.253 -0.665849 4.1884 0
M  V30 4405 N 410.644 0.244434 5.05209 0
M  V30 4406 C 408.942 -0.923863 4.36326 0
M  V30 4407 C 409.643 0.617443 5.78414 0
M  V30 4408 N 408.619 -0.0198686 5.43596 0
M  V30 4409 H 412.421 0.437295 2.90629 0
M  V30 4410 H 409.935 0.340675 1.58787 0
M  V30 4411 H 411.932 -1.89052 3.71571 0
M  V30 4412 H 410.592 -2.01546 2.54576 0
M  V30 4413 H 411.603 0.616621 5.14216 0
M  V30 4414 H 408.28 -1.6168 3.84923 0
M  V30 4415 H 409.67 1.36346 6.57921 0
M  V30 4416 N 412.39 -1.55475 0.257931 0
M  V30 4417 C 413.638 -1.98813 -0.363009 0
M  V30 4418 C 413.959 -1.14757 -1.57657 0
M  V30 4419 O 413.229 -0.232956 -1.9451 0
M  V30 4420 H 411.809 -0.734308 -0.137113 0
M  V30 4421 H 414.471 -1.9156 0.359281 0
M  V30 4422 H 413.567 -3.04941 -0.664634 0
M  V30 4423 N 413.868 0.0150385 -1.57593 0
M  V30 4424 C 414.778 1.02791 -2.10882 0
M  V30 4425 C 415.794 1.38702 -1.0506 0
M  V30 4426 O 416.97 1.47739 -1.36877 0
M  V30 4427 C 414.035 2.30568 -2.58919 0
M  V30 4428 C 413.096 2.01108 -3.79281 0
M  V30 4429 C 412.329 3.22794 -4.25018 0
M  V30 4430 O 412.552 4.33959 -3.70183 0
M  V30 4431 O 411.486 3.07672 -5.17322 0
M  V30 4432 H 415.312 0.604973 -2.97613 0
M  V30 4433 H 412.897 0.23292 -1.47573 0
M  V30 4434 H 414.779 3.05662 -2.90084 0
M  V30 4435 H 413.454 2.72129 -1.75293 0
M  V30 4436 H 412.361 1.23537 -3.53114 0
M  V30 4437 H 413.694 1.64394 -4.63935 0
M  V30 4438 N 415.346 1.54954 0.287554 0
M  V30 4439 C 416.623 1.65569 1.04146 0
M  V30 4440 C 417.003 0.512672 2.0478 0
M  V30 4441 O 416.351 -0.489038 2.23205 0
M  V30 4442 C 416.561 3.04163 1.71131 0
M  V30 4443 C 417.909 3.61429 2.22832 0
M  V30 4444 O 418.933 3.06702 1.81141 0
M  V30 4445 O 417.792 4.57281 2.9926 0
M  V30 4446 H 414.886 0.671881 0.482188 0
M  V30 4447 H 417.432 1.67297 0.28457 0
M  V30 4448 H 416.204 3.78796 0.981303 0
M  V30 4449 H 415.827 3.06271 2.53543 0
M  V30 4450 N 416.824 -0.551391 1.4764 0
M  V30 4451 C 418.049 -1.33837 1.58437 0
M  V30 4452 C 418.474 -1.866 0.237063 0
M  V30 4453 O 417.832 -1.6328 -0.787994 0
M  V30 4454 C 417.88 -2.48014 2.61766 0
M  V30 4455 O 416.984 -3.50419 2.1744 0
M  V30 4456 H 416.325 -0.397299 0.532024 0
M  V30 4457 H 418.855 -0.665759 1.93465 0
M  V30 4458 H 418.865 -2.94503 2.82369 0
M  V30 4459 H 417.54 -2.08969 3.5959 0
M  V30 4460 H 416.117 -3.10196 2.06961 0
M  V30 4461 N 418.302 -1.35869 -0.798587 0
M  V30 4462 C 419.234 -1.25305 -1.91915 0
M  V30 4463 C 420.247 -0.174548 -1.61862 0
M  V30 4464 O 421.436 -0.428499 -1.73281 0
M  V30 4465 C 418.536 -0.9086 -3.26493 0
M  V30 4466 C 417.709 -2.08711 -3.84394 0
M  V30 4467 C 416.768 -1.71717 -4.97393 0
M  V30 4468 O 415.794 -2.43692 -5.14396 0
M  V30 4469 N 416.996 -0.645473 -5.769 0
M  V30 4470 H 419.761 -2.21849 -2.01502 0
M  V30 4471 H 417.322 -1.29143 -0.976408 0
M  V30 4472 H 419.314 -0.642455 -3.99568 0
M  V30 4473 H 417.884 -0.0325815 -3.12583 0
M  V30 4474 H 417.104 -2.51659 -3.03416 0
M  V30 4475 H 418.392 -2.87468 -4.19809 0
M  V30 4476 H 417.79 -0.047648 -5.6568 0
M  V30 4477 H 416.347 -0.43913 -6.50319 0
M  V30 4478 N 419.78 1.02168 -1.19998 0
M  V30 4479 C 420.743 2.08765 -0.94604 0
M  V30 4480 C 421.743 1.60618 0.0763846 0
M  V30 4481 O 422.933 1.73472 -0.159135 0
M  V30 4482 C 420.065 3.38262 -0.423255 0
M  V30 4483 H 421.258 2.32726 -1.89153 0
M  V30 4484 H 418.811 1.1889 -1.01464 0
M  V30 4485 H 419.546 3.19974 0.527938 0
M  V30 4486 H 419.331 3.74532 -1.16053 0
M  V30 4487 H 420.821 4.16759 -0.264911 0
M  V30 4488 N 421.258 1.00505 1.21394 0
M  V30 4489 C 422.505 0.687774 1.90462 0
M  V30 4490 C 422.833 -0.78147 1.7811 0
M  V30 4491 O 422.088 -1.58208 1.1519 0
M  V30 4492 C 422.387 1.0546 3.41486 0
M  V30 4493 C 422.053 2.51812 3.74034 0
M  V30 4494 C 420.715 2.91804 3.82628 0
M  V30 4495 C 423.067 3.46614 3.8924 0
M  V30 4496 C 420.395 4.2556 4.03876 0
M  V30 4497 C 422.747 4.80044 4.11995 0
M  V30 4498 C 421.411 5.19759 4.18816 0
M  V30 4499 H 420.681 0.251674 0.696951 0
M  V30 4500 H 423.328 1.26349 1.43903 0
M  V30 4501 H 421.633 0.397133 3.89782 0
M  V30 4502 H 423.33 0.786976 3.93202 0
M  V30 4503 H 419.92 2.1982 3.67936 0
M  V30 4504 H 424.104 3.16883 3.81967 0
M  V30 4505 H 419.36 4.55901 4.07387 0
M  V30 4506 H 423.534 5.53439 4.22704 0
M  V30 4507 H 421.161 6.23418 4.35033 0
M  V30 4508 N 422.737 -1.36956 0.779787 0
M  V30 4509 C 423.977 -2.01328 0.353043 0
M  V30 4510 C 424.341 -1.60558 -1.05286 0
M  V30 4511 O 425.542 -2.1745 -1.58016 0
M  V30 4512 C 423.813 -3.53874 0.500822 0
M  V30 4513 S 425.372 -4.38506 0.16053 0
M  V30 4514 H 422.19 -0.69799 0.13539 0
M  V30 4515 H 424.792 -1.67016 1.01617 0
M  V30 4516 H 423.496 -3.81034 1.52451 0
M  V30 4517 H 423.027 -3.92994 -0.178574 0
M  V30 4518 H 425.042 -4.85153 -1.04121 0
M  V30 4519 N 424.215 -0.530993 -1.48385 0
M  V30 4520 C 425.125 0.23503 -2.3342 0
M  V30 4521 C 426.141 0.93801 -1.46552 0
M  V30 4522 O 427.317 0.912745 -1.7953 0
M  V30 4523 C 424.382 1.26778 -3.22689 0
M  V30 4524 C 423.443 0.575038 -4.25431 0
M  V30 4525 C 422.676 1.55858 -5.10435 0
M  V30 4526 O 422.899 2.79129 -4.97437 0
M  V30 4527 O 421.833 1.09742 -5.91811 0
M  V30 4528 H 425.659 -0.461794 -3.00169 0
M  V30 4529 H 423.244 -0.291903 -1.46521 0
M  V30 4530 H 425.126 1.86457 -3.77904 0
M  V30 4531 H 423.801 1.94699 -2.586 0
M  V30 4532 H 422.708 -0.0622782 -3.74048 0
M  V30 4533 H 424.041 -0.062253 -4.92161 0
M  V30 4534 N 425.693 1.55336 -0.266172 0
M  V30 4535 C 426.64 2.22172 0.625165 0
M  V30 4536 C 427.61 1.19211 1.15663 0
M  V30 4537 O 428.795 1.47723 1.20758 0
M  V30 4538 C 425.935 2.93972 1.8076 0
M  V30 4539 C 425.048 4.11632 1.31084 0
M  V30 4540 C 424.183 4.71099 2.45436 0
M  V30 4541 C 423.222 5.8097 1.92718 0
M  V30 4542 N 422.359 6.34538 3.00509 0
M  V30 4543 H 427.199 2.9796 0.0485582 0
M  V30 4544 H 424.736 1.47095 0.0122024 0
M  V30 4545 H 426.694 3.33811 2.50251 0
M  V30 4546 H 425.324 2.20623 2.35638 0
M  V30 4547 H 424.376 3.76975 0.509326 0
M  V30 4548 H 425.688 4.90893 0.884633 0
M  V30 4549 H 424.842 5.13612 3.22936 0
M  V30 4550 H 423.581 3.91096 2.91368 0
M  V30 4551 H 422.586 5.37916 1.13695 0
M  V30 4552 H 423.811 6.62836 1.47733 0
M  V30 4553 H 421.757 5.57433 3.45839 0
M  V30 4554 H 421.674 7.09046 2.62279 0
M  V30 4555 H 422.942 6.81709 3.78011 0
M  V30 4556 N 427.171 -0.0066808 1.57599 0
M  V30 4557 C 428.418 -0.69292 1.90276 0
M  V30 4558 C 428.746 -1.74148 0.866192 0
M  V30 4559 O 428.001 -1.95268 -0.129933 0
M  V30 4560 C 428.3 -1.37939 3.29708 0
M  V30 4561 C 427.966 -0.464679 4.48499 0
M  V30 4562 C 426.628 -0.212809 4.80729 0
M  V30 4563 C 428.98 0.16551 5.20937 0
M  V30 4564 C 426.308 0.677653 5.82773 0
M  V30 4565 C 428.66 1.04381 6.23929 0
M  V30 4566 C 427.324 1.30492 6.54621 0
M  V30 4567 H 426.594 -0.253558 0.696268 0
M  V30 4568 H 429.241 0.0474123 1.91441 0
M  V30 4569 H 427.546 -2.1936 3.24636 0
M  V30 4570 H 429.243 -1.9163 3.52249 0
M  V30 4571 H 425.833 -0.671153 4.23313 0
M  V30 4572 H 430.017 -0.0160756 4.96297 0
M  V30 4573 H 425.273 0.88803 6.04917 0
M  V30 4574 H 429.447 1.53851 6.79193 0
M  V30 4575 H 427.074 1.99662 7.33512 0
M  V30 4576 N 428.649 -1.55105 -0.279332 0
M  V30 4577 C 429.874 -1.7976 -1.03446 0
M  V30 4578 C 430.299 -0.565952 -1.79384 0
M  V30 4579 O 429.657 0.484259 -1.74713 0
M  V30 4580 C 429.705 -3.0179 -1.97371 0
M  V30 4581 O 428.809 -2.76432 -3.06038 0
M  V30 4582 H 428.15 -0.594334 -0.29608 0
M  V30 4583 H 430.68 -2.02235 -0.310165 0
M  V30 4584 H 430.69 -3.30351 -2.39441 0
M  V30 4585 H 429.365 -3.91085 -1.4151 0
M  V30 4586 H 427.942 -2.58949 -2.68328 0
M  V30 4587 N 430.127 0.543554 -1.4793 0
M  V30 4588 C 431.375 1.29752 -1.54948 0
M  V30 4589 C 431.696 1.93764 -0.219242 0
M  V30 4590 O 430.966 1.80639 0.75805 0
M  V30 4591 H 429.546 0.481874 -0.570795 0
M  V30 4592 H 432.208 0.633636 -1.84312 0
M  V30 4593 H 431.304 2.08392 -2.32334 0
M  V30 4594 N 431.605 1.3629 0.791371 0
M  V30 4595 C 432.537 1.26321 1.91248 0
M  V30 4596 C 433.55 0.18313 1.61767 0
M  V30 4597 O 434.739 0.437682 1.73051 0
M  V30 4598 C 431.839 0.925901 3.26007 0
M  V30 4599 C 431.012 2.10746 3.83281 0
M  V30 4600 C 430.071 1.74352 4.96475 0
M  V30 4601 O 429.097 2.46416 5.13096 0
M  V30 4602 N 430.299 0.676058 5.7655 0
M  V30 4603 H 433.064 2.22915 2.00323 0
M  V30 4604 H 430.625 1.29659 0.969546 0
M  V30 4605 H 432.617 0.663636 3.99222 0
M  V30 4606 H 431.187 0.0491581 3.12561 0
M  V30 4607 H 430.407 2.53264 3.02077 0
M  V30 4608 H 431.695 2.8969 4.18279 0
M  V30 4609 H 431.093 0.0776467 5.65647 0
M  V30 4610 H 429.65 0.473612 6.50077 0
M  V30 4611 N 433.083 -1.0153 1.20538 0
M  V30 4612 C 434.013 -2.11972 0.979295 0
M  V30 4613 C 434.994 -1.6985 -0.0921787 0
M  V30 4614 O 436.179 -1.94089 0.0655932 0
M  V30 4615 C 433.309 -3.43201 0.531984 0
M  V30 4616 C 432.263 -3.9907 1.54685 0
M  V30 4617 C 431.589 -5.26082 0.956127 0
M  V30 4618 C 432.889 -4.32313 2.93092 0
M  V30 4619 H 434.583 -2.31143 1.90298 0
M  V30 4620 H 432.129 -1.11079 0.916372 0
M  V30 4621 H 434.082 -4.1985 0.361044 0
M  V30 4622 H 432.806 -3.23792 -0.427327 0
M  V30 4623 H 431.465 -3.2453 1.70517 0
M  V30 4624 H 431.113 -5.02999 -0.0111538 0
M  V30 4625 H 430.813 -5.64426 1.63393 0
M  V30 4626 H 432.337 -6.05386 0.796284 0
M  V30 4627 H 433.751 -4.99845 2.80763 0
M  V30 4628 H 432.148 -4.81774 3.57791 0
M  V30 4629 H 433.218 -3.41025 3.44717 0
M  V30 4630 N 434.561 -1.01147 -1.20859 0
M  V30 4631 C 435.509 -0.57059 -2.25493 0
M  V30 4632 C 436.503 0.388109 -1.64894 0
M  V30 4633 O 437.709 0.258592 -1.78133 0
M  V30 4634 H 434.084 -0.166191 -0.733406 0
M  V30 4635 H 436.055 -1.46411 -2.60012 0
M  V30 4636 C 434.804 0.0805241 -3.47607 0
M  V30 4637 H 434.127 -0.648156 -3.94511 0
M  V30 4638 H 435.567 0.352197 -4.22535 0
M  V30 4639 C 434.026 1.32175 -3.09889 0
M  V30 4640 O 434.556 2.41553 -3.20959 0
M  V30 4641 N 432.762 1.20392 -2.64488 0
M  V30 4642 H 432.309 0.313905 -2.5568 0
M  V30 4643 H 432.267 2.03541 -2.39621 0
M  V30 4644 N 436.039 1.36541 -0.78704 0
M  V30 4645 C 437.264 2.0409 -0.369053 0
M  V30 4646 C 437.689 1.58957 1.00569 0
M  V30 4647 O 437.047 0.756926 1.64743 0
M  V30 4648 C 437.095 3.57924 -0.438466 0
M  V30 4649 O 436.199 4.08642 0.555479 0
M  V30 4650 H 435.54 0.645142 -0.157122 0
M  V30 4651 H 438.07 1.74545 -1.06749 0
M  V30 4652 H 438.08 4.06887 -0.301218 0
M  V30 4653 H 436.755 3.90127 -1.44132 0
M  V30 4654 H 435.332 3.70958 0.380088 0
M  V30 4655 N 437.518 0.538854 1.48102 0
M  V30 4656 C 438.468 -0.23907 2.26743 0
M  V30 4657 C 439.452 -0.901923 1.33245 0
M  V30 4658 O 440.644 -0.803263 1.57723 0
M  V30 4659 C 437.773 -1.2799 3.18549 0
M  V30 4660 C 436.859 -0.621388 4.19523 0
M  V30 4661 N 437.25 0.298004 5.04921 0
M  V30 4662 C 435.548 -0.877533 4.37282 0
M  V30 4663 C 436.249 0.678757 5.77726 0
M  V30 4664 N 435.225 0.0377881 5.43587 0
M  V30 4665 H 439.027 0.468096 2.90148 0
M  V30 4666 H 436.541 0.357497 1.58416 0
M  V30 4667 H 438.538 -1.851 3.73555 0
M  V30 4668 H 437.198 -1.98835 2.567 0
M  V30 4669 H 438.209 0.671126 5.13533 0
M  V30 4670 H 434.886 -1.57588 3.86616 0
M  V30 4671 H 436.276 1.43316 6.56437 0
M  V30 4672 N 438.996 -1.55193 0.274407 0
M  V30 4673 C 440.244 -1.99187 -0.341902 0
M  V30 4674 C 440.565 -1.16422 -1.56431 0
M  V30 4675 O 439.835 -0.253573 -1.94252 0
M  V30 4676 H 438.415 -0.735721 -0.129317 0
M  V30 4677 H 441.077 -1.91168 0.379578 0
M  V30 4678 H 440.173 -3.05629 -0.632253 0
M  V30 4679 N 440.474 -0.00167713 -1.576 0
M  V30 4680 C 441.714 0.687302 -1.92498 0
M  V30 4681 C 442.078 1.70844 -0.876144 0
M  V30 4682 O 443.279 2.44792 -1.11043 0
M  V30 4683 C 441.55 1.31217 -3.32441 0
M  V30 4684 S 443.109 2.02604 -3.89226 0
M  V30 4685 H 439.927 0.226985 -0.673794 0
M  V30 4686 H 442.529 -0.0587666 -1.95412 0
M  V30 4687 H 441.233 0.556164 -4.06614 0
M  V30 4688 H 440.764 2.09613 -3.32905 0
M  V30 4689 H 442.779 3.30137 -3.70438 0
M  V30 4690 N 441.952 1.55251 0.271103 0
M  V30 4691 C 443.199 1.75946 1.00245 0
M  V30 4692 C 443.527 0.561611 1.86215 0
M  V30 4693 O 442.782 -0.455832 1.90317 0
M  V30 4694 C 443.081 3.01879 1.91321 0
M  V30 4695 C 442.747 4.34337 1.21086 0
M  V30 4696 C 441.409 4.70338 1.01666 0
M  V30 4697 C 443.761 5.16325 0.71119 0
M  V30 4698 C 441.089 5.8588 0.310099 0
M  V30 4699 C 443.441 6.32597 0.0182157 0
M  V30 4700 C 442.105 6.67236 -0.18768 0
M  V30 4701 H 441.375 0.643833 0.366824 0
M  V30 4702 H 444.022 1.89521 0.27458 0
M  V30 4703 H 442.327 2.83212 2.70736 0
M  V30 4704 H 444.024 3.15088 2.48033 0
M  V30 4705 H 440.614 4.06043 1.37213 0
M  V30 4706 H 444.798 4.88987 0.848844 0
M  V30 4707 H 440.054 6.1124 0.139873 0
M  V30 4708 H 444.228 6.9538 -0.376711 0
M  V30 4709 H 441.855 7.56618 -0.73715 0
M  V30 4710 N 443.43 -0.535701 1.48216 0
M  V30 4711 C 444.66 -1.3148 1.59363 0
M  V30 4712 C 445.068 -1.8753 0.250844 0
M  V30 4713 O 444.411 -1.66821 -0.769174 0
M  V30 4714 C 444.473 -2.50731 2.57632 0
M  V30 4715 C 444.137 -2.15811 4.02833 0
M  V30 4716 C 445.134 -1.71822 4.90686 0
M  V30 4717 C 442.819 -2.26509 4.48329 0
M  V30 4718 C 444.813 -1.3899 6.22062 0
M  V30 4719 C 442.5 -1.93289 5.79726 0
M  V30 4720 C 443.498 -1.49599 6.66415 0
M  V30 4721 O 443.186 -1.16812 7.95368 0
M  V30 4722 H 442.918 -0.406315 0.540263 0
M  V30 4723 H 445.472 -0.653569 1.94725 0
M  V30 4724 H 443.702 -3.19817 2.1738 0
M  V30 4725 H 445.391 -3.12797 2.58675 0
M  V30 4726 H 446.157 -1.63031 4.56778 0
M  V30 4727 H 442.036 -2.59471 3.81045 0
M  V30 4728 H 445.58 -1.04816 6.89681 0
M  V30 4729 H 441.477 -2.01718 6.13172 0
M  V30 4730 H 442.245 -1.30259 8.08069 0
M  V30 4731 N 444.908 -1.36708 -0.784132 0
M  V30 4732 C 445.84 -1.27333 -1.90575 0
M  V30 4733 C 446.853 -0.191706 -1.61667 0
M  V30 4734 O 448.042 -0.446854 -1.72816 0
M  V30 4735 C 445.142 -0.943177 -3.25511 0
M  V30 4736 C 444.315 -2.12776 -3.82158 0
M  V30 4737 C 443.374 -1.76983 -4.95544 0
M  V30 4738 O 442.4 -2.49134 -5.11782 0
M  V30 4739 N 443.602 -0.706624 -5.76183 0
M  V30 4740 H 446.367 -2.23974 -1.99138 0
M  V30 4741 H 443.928 -1.30171 -0.962656 0
M  V30 4742 H 445.92 -0.684799 -3.98864 0
M  V30 4743 H 444.49 -0.0657333 -3.12531 0
M  V30 4744 H 443.71 -2.54863 -3.0073 0
M  V30 4745 H 444.998 -2.91904 -4.16737 0
M  V30 4746 H 444.396 -0.107643 -5.65598 0
M  V30 4747 H 442.953 -0.50808 -6.49817 0
M  V30 4748 N 446.386 1.0089 -1.21074 0
M  V30 4749 C 447.318 2.09737 -0.924291 0
M  V30 4750 C 448.331 1.62546 0.0909809 0
M  V30 4751 O 449.52 1.77942 -0.141021 0
M  V30 4752 C 446.62 3.36922 -0.36559 0
M  V30 4753 C 445.793 4.13216 -1.43426 0
M  V30 4754 C 444.852 5.18696 -0.885496 0
M  V30 4755 O 443.878 5.47176 -1.56801 0
M  V30 4756 N 445.08 5.79718 0.301227 0
M  V30 4757 H 447.845 2.34895 -1.8613 0
M  V30 4758 H 445.406 1.17341 -1.11546 0
M  V30 4759 H 447.398 4.04697 0.0158407 0
M  V30 4760 H 445.968 3.08952 0.476149 0
M  V30 4761 H 445.188 3.40301 -1.9897 0
M  V30 4762 H 446.476 4.60967 -2.15376 0
M  V30 4763 H 445.874 5.58926 0.872849 0
M  V30 4764 H 444.431 6.48804 0.624211 0
M  V30 4765 N 447.864 1.01787 1.20321 0
M  V30 4766 C 449.11 0.708985 1.90003 0
M  V30 4767 C 449.443 -0.759572 1.78729 0
M  V30 4768 O 448.718 -1.55198 1.17234 0
M  V30 4769 C 449.001 1.1469 3.41348 0
M  V30 4770 C 448.854 2.67586 3.61549 0
M  V30 4771 C 450.173 0.71915 4.34185 0
M  V30 4772 H 447.292 0.259034 0.689978 0
M  V30 4773 H 449.934 1.26584 1.41692 0
M  V30 4774 H 448.084 0.673128 3.82624 0
M  V30 4775 H 449.756 3.22826 3.29517 0
M  V30 4776 H 447.999 3.085 3.04976 0
M  V30 4777 H 448.67 2.93281 4.67643 0
M  V30 4778 H 451.146 1.12647 4.00562 0
M  V30 4779 H 450.022 1.05358 5.38694 0
M  V30 4780 H 450.283 -0.379111 4.40472 0
M  V30 4781 N 449.342 -1.36122 0.79427 0
M  V30 4782 C 450.289 -2.29982 0.194101 0
M  V30 4783 C 451.259 -1.52214 -0.664833 0
M  V30 4784 O 452.444 -1.80702 -0.612498 0
M  V30 4785 C 449.584 -3.38706 -0.661244 0
M  V30 4786 C 448.697 -4.31456 0.216766 0
M  V30 4787 C 447.832 -5.27265 -0.645411 0
M  V30 4788 C 446.871 -6.11653 0.233756 0
M  V30 4789 N 446.008 -6.99636 -0.587682 0
M  V30 4790 H 450.848 -2.80722 0.999965 0
M  V30 4791 H 448.385 -1.38172 0.504677 0
M  V30 4792 H 450.343 -4.00394 -1.17219 0
M  V30 4793 H 448.973 -2.89274 -1.43249 0
M  V30 4794 H 448.025 -3.7088 0.845724 0
M  V30 4795 H 449.337 -4.90724 0.893973 0
M  V30 4796 H 448.491 -5.94266 -1.22198 0
M  V30 4797 H 447.23 -4.68463 -1.35623 0
M  V30 4798 H 446.235 -5.4361 0.82269 0
M  V30 4799 H 447.46 -6.72531 0.942247 0
M  V30 4800 H 445.406 -6.43337 -1.2827 0
M  V30 4801 H 445.323 -7.55993 0.0317402 0
M  V30 4802 H 446.591 -7.71001 -1.14792 0
M  V30 4803 N 450.82 -0.546701 -1.47814 0
M  V30 4804 C 452.048 -0.0232857 -2.06887 0
M  V30 4805 C 452.463 1.26571 -1.4009 0
M  V30 4806 O 451.82 1.7569 -0.493906 0
M  V30 4807 C 451.871 0.186975 -3.61016 0
M  V30 4808 O 451.592 -1.05097 -4.25307 0
M  V30 4809 C 453.093 0.748872 -4.36929 0
M  V30 4810 H 450.313 -0.0410763 -0.669742 0
M  V30 4811 H 452.857 -0.757117 -1.89968 0
M  V30 4812 H 451.012 0.870903 -3.77484 0
M  V30 4813 H 451.426 -0.842121 -5.17695 0
M  V30 4814 H 452.9 0.845334 -5.45489 0
M  V30 4815 H 453.377 1.75772 -4.02493 0
M  V30 4816 H 453.983 0.100979 -4.2518 0
M  V30 4817 N 452.299 1.55045 -0.282633 0
M  V30 4818 C 453.246 2.22822 0.601566 0
M  V30 4819 C 454.216 1.20431 1.14392 0
M  V30 4820 O 455.401 1.48996 1.19184 0
M  V30 4821 C 452.541 2.95873 1.77632 0
M  V30 4822 C 451.654 4.12999 1.26711 0
M  V30 4823 C 450.789 4.73676 2.40426 0
M  V30 4824 C 449.828 5.82981 1.86545 0
M  V30 4825 N 448.965 6.3769 2.93762 0
M  V30 4826 H 453.805 2.97995 0.0169528 0
M  V30 4827 H 451.342 1.471 -0.00339964 0
M  V30 4828 H 453.3 3.36447 2.46697 0
M  V30 4829 H 451.93 2.2311 2.33285 0
M  V30 4830 H 450.982 3.77494 0.469314 0
M  V30 4831 H 452.294 4.91803 0.832518 0
M  V30 4832 H 451.448 5.17008 3.17471 0
M  V30 4833 H 450.187 3.94164 2.87203 0
M  V30 4834 H 449.192 5.39092 1.07983 0
M  V30 4835 H 450.417 6.64366 1.40694 0
M  V30 4836 H 448.363 5.61069 3.39908 0
M  V30 4837 H 448.28 7.11788 2.54744 0
M  V30 4838 H 449.548 6.8568 3.7076 0
M  V30 4839 N 453.777 0.010035 1.57597 0
M  V30 4840 C 455.023 -0.673697 1.91283 0
M  V30 4841 C 455.356 -1.72863 0.884979 0
M  V30 4842 O 454.631 -1.94268 -0.0949487 0
M  V30 4843 C 454.914 -1.30766 3.35518 0
M  V30 4844 C 454.767 -0.263578 4.49027 0
M  V30 4845 C 456.086 -2.23105 3.79358 0
M  V30 4846 H 453.205 -0.243439 0.695634 0
M  V30 4847 H 455.847 0.0633864 1.89894 0
M  V30 4848 H 453.997 -1.93588 3.36832 0
M  V30 4849 H 455.669 0.365738 4.59848 0
M  V30 4850 H 453.912 0.413077 4.31829 0
M  V30 4851 H 454.583 -0.746398 5.4693 0
M  V30 4852 H 457.059 -1.70289 3.79659 0
M  V30 4853 H 455.935 -2.64424 4.81011 0
M  V30 4854 H 456.196 -3.11433 3.13787 0
M  V30 4855 N 455.255 -1.55392 -0.262866 0
M  V30 4856 C 456.502 -1.76476 -0.993109 0
M  V30 4857 C 456.83 -0.571479 -1.85915 0
M  V30 4858 O 456.085 0.445733 -1.90556 0
M  V30 4859 C 456.384 -3.02889 -1.89718 0
M  V30 4860 C 456.05 -4.34974 -1.18781 0
M  V30 4861 C 454.712 -4.7087 -0.991699 0
M  V30 4862 C 457.064 -5.16695 -0.683798 0
M  V30 4863 C 454.392 -5.86036 -0.279024 0
M  V30 4864 C 456.744 -6.32598 0.0153327 0
M  V30 4865 C 455.408 -6.67127 0.223062 0
M  V30 4866 H 454.678 -0.64577 -0.363404 0
M  V30 4867 H 457.325 -1.89664 -0.264525 0
M  V30 4868 H 455.63 -2.84644 -2.6923 0
M  V30 4869 H 457.327 -3.16399 -2.46359 0
M  V30 4870 H 453.917 -4.06765 -1.35058 0
M  V30 4871 H 458.101 -4.8943 -0.8229 0
M  V30 4872 H 453.357 -6.11306 -0.107456 0
M  V30 4873 H 457.531 -6.95171 0.413584 0
M  V30 4874 H 455.158 -7.56216 0.777265 0
M  V30 4875 N 456.733 0.527833 -1.48498 0
M  V30 4876 C 457.665 1.6482 -1.5927 0
M  V30 4877 C 458.678 1.55659 -0.476869 0
M  V30 4878 O 459.867 1.62081 -0.747806 0
M  V30 4879 C 456.967 3.0348 -1.50842 0
M  V30 4880 C 456.14 3.381 -2.77502 0
M  V30 4881 C 455.199 4.5605 -2.62497 0
M  V30 4882 O 454.225 4.59165 -3.36387 0
M  V30 4883 N 455.427 5.54353 -1.72257 0
M  V30 4884 H 458.192 1.56015 -2.55889 0
M  V30 4885 H 455.753 0.715152 -1.45249 0
M  V30 4886 H 457.745 3.80264 -1.38496 0
M  V30 4887 H 456.315 3.06352 -0.621887 0
M  V30 4888 H 455.535 2.50473 -3.04396 0
M  V30 4889 H 456.823 3.58017 -3.61527 0
M  V30 4890 H 456.221 5.54617 -1.11431 0
M  V30 4891 H 454.778 6.30347 -1.65849 0
M  V30 4892 N 458.211 1.37122 0.776871 0
M  V30 4893 C 459.141 1.35164 1.90402 0
M  V30 4894 C 460.122 0.221069 1.68657 0
M  V30 4895 O 461.307 0.420642 1.8959 0
M  V30 4896 C 458.437 1.15274 3.27611 0
M  V30 4897 C 457.391 2.25289 3.63908 0
M  V30 4898 C 456.717 1.90527 4.99603 0
M  V30 4899 C 458.017 3.67446 3.71188 0
M  V30 4900 H 459.711 2.29482 1.92297 0
M  V30 4901 H 457.257 1.10465 0.923773 0
M  V30 4902 H 459.21 1.12536 4.06096 0
M  V30 4903 H 457.934 0.174102 3.26136 0
M  V30 4904 H 456.593 2.27174 2.87728 0
M  V30 4905 H 456.241 0.91206 4.94662 0
M  V30 4906 H 455.941 2.64193 5.24858 0
M  V30 4907 H 457.465 1.89367 5.80493 0
M  V30 4908 H 458.879 3.67719 4.39836 0
M  V30 4909 H 457.276 4.40123 4.07936 0
M  V30 4910 H 458.346 4.01443 2.71977 0
M  V30 4911 N 459.689 -1.00246 1.21608 0
M  V30 4912 C 460.636 -2.09073 0.977613 0
M  V30 4913 C 461.606 -1.65815 -0.097297 0
M  V30 4914 O 462.791 -1.90734 0.0503445 0
M  V30 4915 C 459.931 -3.40671 0.551133 0
M  V30 4916 C 459.044 -3.97326 1.69576 0
M  V30 4917 C 458.179 -5.17043 1.2182 0
M  V30 4918 C 457.218 -5.65813 2.335 0
M  V30 4919 N 456.355 -6.76778 1.86859 0
M  V30 4920 H 461.195 -2.28806 1.90924 0
M  V30 4921 H 458.732 -1.12186 0.951452 0
M  V30 4922 H 460.69 -4.16225 0.285097 0
M  V30 4923 H 459.32 -3.20967 -0.343489 0
M  V30 4924 H 458.372 -3.18734 2.07637 0
M  V30 4925 H 459.684 -4.29511 2.53617 0
M  V30 4926 H 458.838 -5.99852 0.908975 0
M  V30 4927 H 457.577 -4.86458 0.347869 0
M  V30 4928 H 456.582 -4.81599 2.65222 0
M  V30 4929 H 457.807 -5.98427 3.21033 0
M  V30 4930 H 455.753 -6.47994 1.02174 0
M  V30 4931 H 455.67 -7.08231 2.64471 0
M  V30 4932 H 456.938 -7.63116 1.58978 0
M  V30 4933 N 461.167 -1.02423 -1.1978 0
M  V30 4934 C 462.583 -0.740459 -1.41384 0
M  V30 4935 C 462.783 0.676827 -1.89793 0
M  V30 4936 O 461.839 1.4435 -2.0717 0
M  V30 4937 C 463.152 -1.77264 -2.42895 0
M  V30 4938 C 464.7 -1.79165 -2.56649 0
M  V30 4939 C 465.175 -2.8133 -3.6141 0
M  V30 4940 N 466.666 -2.80118 -3.68901 0
M  V30 4941 C 467.401 -3.55824 -4.49641 0
M  V30 4942 N 466.897 -4.41231 -5.34123 0
M  V30 4943 N 468.69 -3.44387 -4.44246 0
M  V30 4944 H 460.841 -1.9391 -0.866764 0
M  V30 4945 H 463.104 -0.838074 -0.443098 0
M  V30 4946 H 462.81 -2.7884 -2.14339 0
M  V30 4947 H 462.684 -1.59108 -3.42001 0
M  V30 4948 H 465.071 -0.782702 -2.84531 0
M  V30 4949 H 465.152 -2.01396 -1.57713 0
M  V30 4950 H 464.796 -3.82394 -3.34271 0
M  V30 4951 H 464.726 -2.56359 -4.59986 0
M  V30 4952 H 467.217 -2.1817 -3.08562 0
M  V30 4953 H 467.53 -4.95747 -5.92836 0
M  V30 4954 H 465.875 -4.45306 -5.33599 0
M  V30 4955 H 469.066 -2.7708 -3.77285 0
M  V30 4956 H 469.239 -4.0364 -5.06931 0
M  V30 4957 N 462.645 1.35699 -0.801477 0
M  V30 4958 C 463.592 2.29876 -0.206294 0
M  V30 4959 C 464.562 1.52565 0.656752 0
M  V30 4960 O 465.747 1.81024 0.602906 0
M  V30 4961 C 462.887 3.39052 0.643272 0
M  V30 4962 C 462 4.31335 -0.239644 0
M  V30 4963 C 461.135 5.27599 0.61744 0
M  V30 4964 C 460.174 6.11521 -0.26619 0
M  V30 4965 N 459.311 6.99938 0.550571 0
M  V30 4966 H 464.151 2.80187 -1.01484 0
M  V30 4967 H 461.688 1.37902 -0.511997 0
M  V30 4968 H 463.646 4.0101 1.15094 0
M  V30 4969 H 462.276 2.9003 1.41713 0
M  V30 4970 H 461.328 3.70426 -0.865381 0
M  V30 4971 H 462.64 4.90243 -0.919985 0
M  V30 4972 H 461.794 5.94906 1.19045 0
M  V30 4973 H 460.533 4.69176 1.33137 0
M  V30 4974 H 459.538 5.43166 -0.851507 0
M  V30 4975 H 460.763 6.72022 -0.9779 0
M  V30 4976 H 458.709 6.44008 1.24856 0
M  V30 4977 H 458.626 7.55966 -0.071832 0
M  V30 4978 H 459.894 7.71599 1.10702 0
M  V30 4979 N 464.123 0.554532 1.47522 0
M  V30 4980 C 465.033 -0.197865 2.33764 0
M  V30 4981 C 466.049 -0.914576 1.48025 0
M  V30 4982 O 467.225 -0.884067 1.80959 0
M  V30 4983 C 464.29 -1.21628 3.24665 0
M  V30 4984 C 463.351 -0.507283 4.26292 0
M  V30 4985 C 462.584 -1.47718 5.1285 0
M  V30 4986 O 462.807 -2.7118 5.01814 0
M  V30 4987 O 461.741 -1.00313 5.93482 0
M  V30 4988 H 465.567 0.50949 2.99396 0
M  V30 4989 H 463.152 0.315176 1.46038 0
M  V30 4990 H 465.034 -1.80421 3.80823 0
M  V30 4991 H 463.709 -1.9056 2.61665 0
M  V30 4992 H 462.616 0.121778 3.73902 0
M  V30 4993 H 463.949 0.140544 4.91999 0
M  V30 4994 N 465.601 -1.54893 0.290851 0
M  V30 4995 C 466.831 -2.04047 -0.323818 0
M  V30 4996 C 467.239 -1.16809 -1.48837 0
M  V30 4997 O 466.582 -0.184145 -1.82775 0
M  V30 4998 C 466.644 -3.49248 -0.852395 0
M  V30 4999 C 466.308 -4.56623 0.185557 0
M  V30 5000 C 467.305 -5.09985 1.01053 0
M  V30 5001 C 464.99 -5.01252 0.324332 0
M  V30 5002 C 466.984 -6.06507 1.96031 0
M  V30 5003 C 464.671 -5.97596 1.27757 0
M  V30 5004 C 465.669 -6.50107 2.09405 0
M  V30 5005 O 465.357 -7.44565 3.03114 0
M  V30 5006 H 465.089 -0.671735 -0.0758129 0
M  V30 5007 H 467.643 -2.00947 0.425393 0
M  V30 5008 H 465.873 -3.49639 -1.65195 0
M  V30 5009 H 467.562 -3.81654 -1.38185 0
M  V30 5010 H 468.328 -4.76307 0.914129 0
M  V30 5011 H 464.207 -4.60015 -0.301213 0
M  V30 5012 H 467.751 -6.47418 2.598 0
M  V30 5013 H 463.648 -6.30691 1.37473 0
M  V30 5014 H 464.416 -7.62334 2.97976 0
M  V30 5015 N 467.08 -0.0183926 -1.57589 0
M  V30 5016 C 467.99 0.982943 -2.13015 0
M  V30 5017 C 469.006 1.36443 -1.07979 0
M  V30 5018 O 470.182 1.44802 -1.3998 0
M  V30 5019 C 467.247 2.25024 -2.63752 0
M  V30 5020 C 466.308 1.93018 -3.83461 0
M  V30 5021 C 465.541 3.13706 -4.31769 0
M  V30 5022 O 465.764 4.2601 -3.79305 0
M  V30 5023 O 464.698 2.96629 -5.23732 0
M  V30 5024 H 468.524 0.541709 -2.9883 0
M  V30 5025 H 466.109 0.201565 -1.48034 0
M  V30 5026 H 467.991 2.99441 -2.96502 0
M  V30 5027 H 466.666 2.68349 -1.81026 0
M  V30 5028 H 465.573 1.16019 -3.55655 0
M  V30 5029 H 466.906 1.54516 -4.67317 0
M  V30 5030 N 468.558 1.5553 0.254621 0
M  V30 5031 C 469.491 1.84624 1.34124 0
M  V30 5032 C 470.469 0.700693 1.46728 0
M  V30 5033 O 471.653 0.94564 1.63064 0
M  V30 5034 C 468.78 2.02412 2.71564 0
M  V30 5035 C 467.826 3.25028 2.7615 0
M  V30 5036 S 468.659 4.81893 2.33538 0
M  V30 5037 C 469.815 5.02677 3.72917 0
M  V30 5038 H 470.048 2.76501 1.09245 0
M  V30 5039 H 467.581 1.47537 0.455211 0
M  V30 5040 H 469.539 2.13345 3.50705 0
M  V30 5041 H 468.2 1.11391 2.93685 0
M  V30 5042 H 467.393 3.34418 3.77069 0
M  V30 5043 H 466.995 3.12781 2.05046 0
M  V30 5044 H 469.287 4.89546 4.68349 0
M  V30 5045 H 470.23 6.0468 3.68467 0
M  V30 5046 H 470.638 4.30561 3.65072 0
M  V30 5047 N 470.036 -0.519951 1.48776 0
M  V30 5048 C 470.983 -1.62352 1.64044 0
M  V30 5049 C 471.953 -1.58945 0.482251 0
M  V30 5050 O 473.138 -1.77219 0.706971 0
M  V30 5051 C 470.278 -3.00579 1.69547 0
M  V30 5052 C 469.391 -3.14145 2.96541 0
M  V30 5053 C 468.526 -4.42991 2.93142 0
M  V30 5054 C 467.565 -4.50122 4.14797 0
M  V30 5055 N 466.702 -5.7037 4.09418 0
M  V30 5056 H 471.542 -1.48643 2.58281 0
M  V30 5057 H 469.079 -0.723516 1.28077 0
M  V30 5058 H 471.037 -3.80671 1.70719 0
M  V30 5059 H 469.667 -3.13036 0.787918 0
M  V30 5060 H 468.719 -2.27239 3.05068 0
M  V30 5061 H 470.031 -3.15275 3.86527 0
M  V30 5062 H 469.185 -5.31385 2.92772 0
M  V30 5063 H 467.924 -4.44398 2.00902 0
M  V30 5064 H 466.929 -3.60133 4.15433 0
M  V30 5065 H 468.154 -4.50445 5.08208 0
M  V30 5066 H 466.1 -5.72655 3.20004 0
M  V30 5067 H 466.017 -5.73036 4.93119 0
M  V30 5068 H 467.285 -6.61023 4.13121 0
M  V30 5069 N 471.514 -1.37532 -0.769588 0
M  V30 5070 C 472.444 -1.36172 -1.89682 0
M  V30 5071 C 473.425 -0.23001 -1.68538 0
M  V30 5072 O 474.61 -0.43069 -1.89364 0
M  V30 5073 C 471.74 -1.1701 -3.26995 0
M  V30 5074 C 470.694 -2.27216 -3.62708 0
M  V30 5075 C 470.02 -1.93174 -4.98586 0
M  V30 5076 C 471.32 -3.6941 -3.69234 0
M  V30 5077 H 473.014 -2.30499 -1.91078 0
M  V30 5078 H 470.56 -1.10953 -0.917902 0
M  V30 5079 H 472.513 -1.14688 -4.05493 0
M  V30 5080 H 471.237 -0.191395 -3.26039 0
M  V30 5081 H 469.896 -2.28697 -2.86519 0
M  V30 5082 H 469.544 -0.938281 -4.94171 0
M  V30 5083 H 469.244 -2.66973 -5.23449 0
M  V30 5084 H 470.768 -1.92443 -5.79481 0
M  V30 5085 H 472.182 -3.70047 -4.37879 0
M  V30 5086 H 470.579 -4.4228 -4.05597 0
M  V30 5087 H 471.649 -4.0288 -2.69844 0
M  V30 5088 N 472.992 0.995999 -1.22138 0
M  V30 5089 C 473.942 2.06988 -0.956042 0
M  V30 5090 C 474.926 1.60636 0.0921576 0
M  V30 5091 O 476.118 1.76607 -0.117958 0
M  V30 5092 C 473.247 3.39148 -0.532335 0
M  V30 5093 C 472.333 3.92142 -1.61509 0
M  V30 5094 N 472.724 4.18397 -2.84214 0
M  V30 5095 C 471.022 4.20514 -1.48606 0
M  V30 5096 C 471.723 4.61425 -3.54206 0
M  V30 5097 N 470.699 4.64934 -2.81669 0
M  V30 5098 H 474.501 2.25223 -1.88816 0
M  V30 5099 H 472.015 1.17748 -1.11845 0
M  V30 5100 H 474.012 4.15642 -0.323574 0
M  V30 5101 H 472.672 3.22314 0.392921 0
M  V30 5102 H 473.683 4.06682 -3.20671 0
M  V30 5103 H 470.36 4.12769 -0.626762 0
M  V30 5104 H 471.75 4.90387 -4.59315 0
M  V30 5105 N 474.47 1.03057 1.19235 0
M  V30 5106 C 475.698 0.747697 1.92917 0
M  V30 5107 C 476.113 -0.69372 1.75593 0
M  V30 5108 O 475.47 -1.47191 1.07894 0
M  V30 5109 C 475.521 1.09159 3.44625 0
M  V30 5110 O 475.242 2.47641 3.61394 0
M  V30 5111 C 476.743 0.831763 4.35427 0
M  V30 5112 H 473.963 0.273453 0.612751 0
M  V30 5113 H 476.507 1.37552 1.51327 0
M  V30 5114 H 474.662 0.508919 3.84043 0
M  V30 5115 H 475.076 2.60499 4.55237 0
M  V30 5116 H 476.55 1.12233 5.4047 0
M  V30 5117 H 477.027 -0.233769 4.38577 0
M  V30 5118 H 477.633 1.39725 4.01693 0
M  V30 5119 N 475.948 -1.35272 0.808662 0
M  V30 5120 C 476.858 -2.33546 0.222079 0
M  V30 5121 C 477.874 -1.6196 -0.636011 0
M  V30 5122 O 479.05 -1.93822 -0.547274 0
M  V30 5123 C 476.115 -3.41148 -0.61795 0
M  V30 5124 C 475.176 -4.28507 0.260875 0
M  V30 5125 C 474.409 -5.3097 -0.539156 0
M  V30 5126 O 474.632 -5.42123 -1.77367 0
M  V30 5127 O 473.566 -6.01858 0.0710526 0
M  V30 5128 H 477.392 -2.85515 1.03512 0
M  V30 5129 H 474.977 -1.38079 0.570495 0
M  V30 5130 H 476.859 -4.06889 -1.09634 0
M  V30 5131 H 475.534 -2.91447 -1.40855 0
M  V30 5132 H 474.441 -3.6574 0.786451 0
M  V30 5133 H 475.774 -4.81611 1.01547 0
M  V30 5134 N 477.426 -0.562348 -1.47226 0
M  V30 5135 C 478.389 0.172056 -2.28553 0
M  V30 5136 C 479.389 0.837928 -1.37242 0
M  V30 5137 O 480.579 0.693001 -1.59822 0
M  V30 5138 C 477.711 1.25223 -3.17068 0
M  V30 5139 H 478.904 -0.542401 -2.94954 0
M  V30 5140 H 476.457 -0.319493 -1.53 0
M  V30 5141 H 477.192 1.99892 -2.55369 0
M  V30 5142 H 476.977 0.779515 -3.84273 0
M  V30 5143 H 478.467 1.76791 -3.78332 0
M  V30 5144 N 478.904 1.54736 -0.299062 0
M  V30 5145 C 479.836 2.20891 0.61153 0
M  V30 5146 C 480.849 1.20104 1.09904 0
M  V30 5147 O 482.038 1.46707 1.01683 0
M  V30 5148 C 479.138 2.84018 1.84897 0
M  V30 5149 C 478.311 4.10719 1.50428 0
M  V30 5150 C 477.37 4.57667 2.59667 0
M  V30 5151 O 476.396 5.2291 2.24842 0
M  V30 5152 N 477.598 4.29821 3.90172 0
M  V30 5153 H 480.363 2.99666 0.0452001 0
M  V30 5154 H 477.924 1.61446 -0.121178 0
M  V30 5155 H 479.916 3.1236 2.5732 0
M  V30 5156 H 478.486 2.09095 2.32375 0
M  V30 5157 H 477.706 3.89408 0.612781 0
M  V30 5158 H 478.994 4.93223 1.24934 0
M  V30 5159 H 478.392 3.77549 4.21276 0
M  V30 5160 H 476.949 4.62877 4.58899 0
M  V30 5161 N 480.382 0.0267497 1.57577 0
M  V30 5162 C 481.631 -0.651736 1.9088 0
M  V30 5163 C 481.944 -1.73427 0.904576 0
M  V30 5164 O 483.15 -2.46923 1.12877 0
M  V30 5165 C 481.606 -1.21048 3.38933 0
M  V30 5166 C 481.214 -0.161362 4.47709 0
M  V30 5167 C 482.958 -1.86562 3.81307 0
M  V30 5168 C 480.865 -0.731611 5.86857 0
M  V30 5169 H 479.795 -0.247198 0.712326 0
M  V30 5170 H 482.446 0.0916641 1.83271 0
M  V30 5171 H 480.828 -2.00542 3.41466 0
M  V30 5172 H 482.002 0.61094 4.56732 0
M  V30 5173 H 480.317 0.394877 4.14523 0
M  V30 5174 H 482.914 -2.30178 4.8262 0
M  V30 5175 H 483.257 -2.70735 3.16241 0
M  V30 5176 H 483.79 -1.13762 3.81186 0
M  V30 5177 H 480.529 0.0719329 6.55461 0
M  V30 5178 H 480.049 -1.47245 5.81445 0
M  V30 5179 H 481.728 -1.22208 6.35354 0
M  V30 5180 N 481.861 -1.55662 -0.24637 0
M  V30 5181 C 482.793 -1.86811 -1.32794 0
M  V30 5182 C 483.806 -0.754413 -1.44265 0
M  V30 5183 O 484.995 -1.03253 -1.45606 0
M  V30 5184 C 482.095 -2.0397 -2.70646 0
M  V30 5185 C 481.268 -3.34832 -2.81436 0
M  V30 5186 C 480.327 -3.41727 -4.00136 0
M  V30 5187 O 479.353 -4.14934 -3.89639 0
M  V30 5188 N 480.555 -2.71058 -5.1333 0
M  V30 5189 H 483.32 -2.80174 -1.06409 0
M  V30 5190 H 480.881 -1.55906 -0.43647 0
M  V30 5191 H 482.873 -2.05924 -3.48393 0
M  V30 5192 H 481.443 -1.1735 -2.89738 0
M  V30 5193 H 480.663 -3.4519 -1.90361 0
M  V30 5194 H 481.951 -4.21085 -2.85595 0
M  V30 5195 H 481.349 -2.11314 -5.2475 0
M  V30 5196 H 479.906 -2.78704 -5.89209 0
M  V30 5197 N 483.339 0.512053 -1.4905 0
M  V30 5198 C 484.249 1.64139 -1.67617 0
M  V30 5199 C 485.265 1.64786 -0.558701 0
M  V30 5200 O 486.441 1.8341 -0.832034 0
M  V30 5201 C 483.506 3.00548 -1.72835 0
M  V30 5202 C 482.567 3.10615 -2.96339 0
M  V30 5203 C 481.8 4.40517 -3.01298 0
M  V30 5204 O 482.023 5.28671 -2.14157 0
M  V30 5205 O 480.957 4.55325 -3.93653 0
M  V30 5206 H 484.783 1.51407 -2.63267 0
M  V30 5207 H 482.368 0.687131 -1.32661 0
M  V30 5208 H 484.25 3.81641 -1.78683 0
M  V30 5209 H 482.925 3.13566 -0.803616 0
M  V30 5210 H 481.832 2.2875 -2.96014 0
M  V30 5211 H 483.165 3.0252 -3.88256 0
M  V30 5212 N 484.817 1.37938 0.762283 0
M  V30 5213 C 485.727 1.36681 1.90671 0
M  V30 5214 C 486.743 0.265078 1.71969 0
M  V30 5215 O 487.919 0.502055 1.95042 0
M  V30 5216 C 484.984 1.18211 3.25925 0
M  V30 5217 C 484.045 2.3811 3.57214 0
M  V30 5218 C 483.278 2.20512 4.86014 0
M  V30 5219 O 483.501 1.19429 5.57757 0
M  V30 5220 O 482.435 3.08911 5.16583 0
M  V30 5221 H 486.261 2.33091 1.94685 0
M  V30 5222 H 483.846 1.18767 0.906356 0
M  V30 5223 H 485.728 1.09937 4.06807 0
M  V30 5224 H 484.403 0.248807 3.22742 0
M  V30 5225 H 483.31 2.51958 2.76529 0
M  V30 5226 H 484.643 3.30041 3.65149 0
M  V30 5227 N 486.295 -0.989507 1.22664 0
M  V30 5228 C 487.543 -1.72612 1.05117 0
M  V30 5229 C 487.864 -1.90552 -0.414131 0
M  V30 5230 O 487.134 -1.4676 -1.29762 0
M  V30 5231 H 485.714 -0.639555 0.385977 0
M  V30 5232 H 488.376 -1.19158 1.54232 0
M  V30 5233 H 487.472 -2.71926 1.53175 0
M  V30 5234 N 487.773 -1.03688 -1.18687 0
M  V30 5235 C 489.001 -0.757918 -1.92518 0
M  V30 5236 C 489.416 0.684398 -1.75959 0
M  V30 5237 O 488.773 1.46617 -1.08673 0
M  V30 5238 C 488.824 -1.10985 -3.44042 0
M  V30 5239 O 488.545 -2.49554 -3.60076 0
M  V30 5240 C 490.046 -0.854844 -4.3498 0
M  V30 5241 H 487.266 -0.276699 -0.611293 0
M  V30 5242 H 489.81 -1.38352 -1.50595 0
M  V30 5243 H 487.965 -0.529279 -3.83767 0
M  V30 5244 H 488.379 -2.6291 -4.53849 0
M  V30 5245 H 489.853 -1.15098 -5.39867 0
M  V30 5246 H 490.33 0.210507 -4.38695 0
M  V30 5247 H 490.936 -1.41853 -4.00946 0
M  V30 5248 N 489.251 1.34841 -0.815825 0
M  V30 5249 C 490.497 1.98793 -0.401129 0
M  V30 5250 C 490.83 1.64548 1.03139 0
M  V30 5251 O 490.105 0.913487 1.71714 0
M  V30 5252 C 490.388 3.55143 -0.595409 0
M  V30 5253 C 490.241 3.99155 -2.07352 0
M  V30 5254 C 491.56 4.40092 -0.0268823 0
M  V30 5255 H 488.679 0.722146 -0.14722 0
M  V30 5256 H 491.321 1.59847 -1.02707 0
M  V30 5257 H 489.471 3.8845 -0.0625779 0
M  V30 5258 H 491.143 3.76216 -2.66945 0
M  V30 5259 H 489.386 3.49726 -2.56659 0
M  V30 5260 H 490.057 5.07971 -2.1603 0
M  V30 5261 H 492.533 4.13298 -0.482042 0
M  V30 5262 H 491.409 5.48562 -0.19267 0
M  V30 5263 H 491.67 4.29016 1.06759 0
M  V30 5264 N 490.729 0.570148 1.46925 0
M  V30 5265 C 491.975 0.0510284 2.02736 0
M  V30 5266 C 492.308 -1.3006 1.44215 0
M  V30 5267 O 491.583 -1.84932 0.602521 0
M  V30 5268 C 491.866 -0.028215 3.60089 0
M  V30 5269 C 491.719 1.35142 4.29018 0
M  V30 5270 C 493.038 -0.735181 4.33916 0
M  V30 5271 H 490.157 0.0200178 0.736728 0
M  V30 5272 H 492.799 0.73493 1.75211 0
M  V30 5273 H 490.949 -0.610648 3.83671 0
M  V30 5274 H 492.621 1.97806 4.16738 0
M  V30 5275 H 490.864 1.9226 3.88868 0
M  V30 5276 H 491.535 1.24857 5.37694 0
M  V30 5277 H 494.011 -0.240519 4.15404 0
M  V30 5278 H 492.887 -0.759622 5.43618 0
M  V30 5279 H 493.148 -1.79397 4.04066 0
M  V30 5280 N 492.207 -1.54576 0.307264 0
M  V30 5281 C 493.117 -2.27435 -0.57536 0
M  V30 5282 C 494.133 -1.31183 -1.14311 0
M  V30 5283 O 495.309 -1.64175 -1.16656 0
M  V30 5284 C 492.374 -3.00566 -1.72803 0
M  V30 5285 C 491.435 -4.12369 -1.19373 0
M  V30 5286 C 490.668 -4.82003 -2.29147 0
M  V30 5287 O 490.891 -4.51038 -3.49171 0
M  V30 5288 O 489.825 -5.69271 -1.95485 0
M  V30 5289 H 493.651 -3.03696 0.0158558 0
M  V30 5290 H 491.236 -1.49219 0.0735064 0
M  V30 5291 H 493.118 -3.46416 -2.39946 0
M  V30 5292 H 491.793 -2.27195 -2.30574 0
M  V30 5293 H 490.7 -3.70905 -0.487851 0
M  V30 5294 H 492.033 -4.87736 -0.661376 0
M  V30 5295 N 493.685 -0.035106 -1.57561 0
M  V30 5296 C 494.615 0.942993 -2.13612 0
M  V30 5297 C 495.596 1.33531 -1.05373 0
M  V30 5298 O 496.781 1.41287 -1.33235 0
M  V30 5299 C 493.911 2.22332 -2.66807 0
M  V30 5300 C 492.865 1.97156 -3.79886 0
M  V30 5301 C 492.191 3.31506 -4.19533 0
M  V30 5302 C 493.491 1.30596 -5.05709 0
M  V30 5303 H 495.185 0.476179 -2.95589 0
M  V30 5304 H 492.731 0.227602 -1.4219 0
M  V30 5305 H 494.684 2.91142 -3.04654 0
M  V30 5306 H 493.408 2.7119 -1.81999 0
M  V30 5307 H 492.067 1.30763 -3.42486 0
M  V30 5308 H 491.715 3.78134 -3.31698 0
M  V30 5309 H 491.415 3.15465 -4.95738 0
M  V30 5310 H 492.939 4.01574 -4.59968 0
M  V30 5311 H 494.353 1.89416 -5.41105 0
M  V30 5312 H 492.75 1.24934 -5.86951 0
M  V30 5313 H 493.82 0.279742 -4.84092 0
M  V30 5314 N 495.163 1.55791 0.238111 0
M  V30 5315 C 496.391 1.82098 0.982233 0
M  V30 5316 C 496.806 0.612025 1.78605 0
M  V30 5317 O 496.163 -0.419381 1.77616 0
M  V30 5318 C 496.214 3.0673 1.91309 0
M  V30 5319 O 495.935 4.2296 1.14179 0
M  V30 5320 C 497.436 3.45903 2.77248 0
M  V30 5321 H 494.656 0.605748 0.288635 0
M  V30 5322 H 497.2 2.02862 0.258341 0
M  V30 5323 H 495.355 2.87991 2.59114 0
M  V30 5324 H 495.769 4.93653 1.7722 0
M  V30 5325 H 497.243 4.36189 3.38295 0
M  V30 5326 H 497.72 2.66891 3.48806 0
M  V30 5327 H 498.326 3.67024 2.14881 0
M  V30 5328 N 496.642 -0.504142 1.49319 0
M  V30 5329 C 497.89 -1.25598 1.58334 0
M  V30 5330 C 498.211 -1.93114 0.270538 0
M  V30 5331 O 497.481 -1.82585 -0.709891 0
M  V30 5332 H 496.061 -0.466571 0.58337 0
M  V30 5333 H 498.723 -0.584547 1.85928 0
M  V30 5334 H 497.819 -2.02159 2.37778 0
M  V30 5335 N 498.12 -1.38341 -0.754957 0
M  V30 5336 C 499.536 -1.19508 -1.05783 0
M  V30 5337 C 499.736 -0.0428005 -2.01455 0
M  V30 5338 O 498.792 0.611861 -2.44975 0
M  V30 5339 C 500.105 -2.52091 -1.63923 0
M  V30 5340 C 501.653 -2.58762 -1.76101 0
M  V30 5341 C 502.128 -3.91517 -2.37652 0
M  V30 5342 N 503.619 -3.93049 -2.45085 0
M  V30 5343 C 504.354 -4.9253 -2.93602 0
M  V30 5344 N 503.85 -6.02408 -3.42165 0
M  V30 5345 N 505.643 -4.79921 -2.92629 0
M  V30 5346 H 497.794 -2.1206 -0.120056 0
M  V30 5347 H 500.057 -0.94089 -0.11589 0
M  V30 5348 H 499.763 -3.36858 -1.01093 0
M  V30 5349 H 499.637 -2.70388 -2.63003 0
M  V30 5350 H 502.024 -1.74391 -2.38058 0
M  V30 5351 H 502.105 -2.44333 -0.757294 0
M  V30 5352 H 501.749 -4.76309 -1.76329 0
M  V30 5353 H 501.679 -4.03256 -3.38662 0
M  V30 5354 H 504.17 -3.13685 -2.10736 0
M  V30 5355 H 504.483 -6.74248 -3.77637 0
M  V30 5356 H 502.828 -6.0603 -3.40225 0
M  V30 5357 H 506.019 -3.93194 -2.54001 0
M  V30 5358 H 506.192 -5.57601 -3.30128 0
M  V30 5359 N 499.598 0.982988 -1.23187 0
M  V30 5360 C 500.53 2.07729 -0.968572 0
M  V30 5361 C 501.543 1.62702 0.0564821 0
M  V30 5362 O 502.732 1.77603 -0.178733 0
M  V30 5363 C 499.832 3.36071 -0.436974 0
M  V30 5364 C 499.005 4.10081 -1.52159 0
M  V30 5365 C 498.064 5.16701 -0.99532 0
M  V30 5366 O 497.09 5.43727 -1.68373 0
M  V30 5367 N 498.292 5.80226 0.178192 0
M  V30 5368 H 501.057 2.30894 -1.9107 0
M  V30 5369 H 498.618 1.14949 -1.1401 0
M  V30 5370 H 500.61 4.04639 -0.0700051 0
M  V30 5371 H 499.18 3.09893 0.410509 0
M  V30 5372 H 498.4 3.36004 -2.06144 0
M  V30 5373 H 499.688 4.56295 -2.25105 0
M  V30 5374 H 499.086 5.60651 0.754096 0
M  V30 5375 H 497.643 6.49982 0.486449 0
M  V30 5376 N 501.076 1.04316 1.18135 0
M  V30 5377 C 502.301 0.768047 1.92655 0
M  V30 5378 C 502.726 -0.66904 1.758 0
M  V30 5379 O 502.084 -1.46372 1.06981 0
M  V30 5380 C 502.132 1.14239 3.42026 0
M  V30 5381 O 501.236 0.269333 4.1152 0
M  V30 5382 H 500.577 0.282436 0.600937 0
M  V30 5383 H 503.107 1.39367 1.49793 0
M  V30 5384 H 503.117 1.10538 3.92741 0
M  V30 5385 H 501.792 2.18928 3.53615 0
M  V30 5386 H 500.369 0.366175 3.71098 0
M  V30 5387 N 502.554 -1.34406 0.822964 0
M  V30 5388 C 503.779 -2.0304 0.423034 0
M  V30 5389 C 504.204 -1.61568 -0.963196 0
M  V30 5390 O 503.562 -0.800339 -1.62678 0
M  V30 5391 C 503.61 -3.56636 0.53321 0
M  V30 5392 O 502.714 -4.09971 -0.446939 0
M  V30 5393 H 502.055 -0.64075 0.174171 0
M  V30 5394 H 504.585 -1.71653 1.11339 0
M  V30 5395 H 504.595 -4.05945 0.408991 0
M  V30 5396 H 503.27 -3.86168 1.54425 0
M  V30 5397 H 501.847 -3.71835 -0.281601 0
M  V30 5398 N 504.032 -0.577932 -1.46621 0
M  V30 5399 C 504.942 0.160651 -2.34049 0
M  V30 5400 C 505.958 0.890911 -1.49462 0
M  V30 5401 O 507.134 0.855166 -1.82343 0
M  V30 5402 C 504.199 1.16447 -3.26559 0
M  V30 5403 C 503.26 0.4394 -4.27045 0
M  V30 5404 C 502.493 1.3954 -5.15135 0
M  V30 5405 O 502.716 2.63162 -5.06065 0
M  V30 5406 O 501.65 0.908585 -5.95003 0
M  V30 5407 H 505.476 -0.557057 -2.98547 0
M  V30 5408 H 503.061 -0.338369 -1.45518 0
M  V30 5409 H 504.943 1.7434 -3.83645 0
M  V30 5410 H 503.618 1.86373 -2.64663 0
M  V30 5411 H 502.525 -0.181247 -3.73661 0
M  V30 5412 H 503.858 -0.218799 -4.91713 0
M  V30 5413 N 505.51 1.54411 -0.315457 0
M  V30 5414 C 506.759 1.99599 0.290395 0
M  V30 5415 C 507.072 1.20746 1.53882 0
M  V30 5416 O 508.278 1.56272 2.22017 0
M  V30 5417 C 506.734 3.5539 0.56797 0
M  V30 5418 C 506.342 4.43068 -0.662945 0
M  V30 5419 C 508.086 4.09067 1.13422 0
M  V30 5420 C 505.993 5.90317 -0.357722 0
M  V30 5421 H 504.923 0.745592 0.112286 0
M  V30 5422 H 507.574 1.78477 -0.426418 0
M  V30 5423 H 505.956 3.72468 1.34476 0
M  V30 5424 H 507.13 4.37765 -1.43869 0
M  V30 5425 H 505.445 4.00238 -1.14884 0
M  V30 5426 H 508.042 5.16663 1.37707 0
M  V30 5427 H 508.385 3.60552 2.08106 0
M  V30 5428 H 508.918 3.95589 0.418805 0
M  V30 5429 H 505.657 6.4301 -1.27351 0
M  V30 5430 H 505.177 5.98592 0.380472 0
M  V30 5431 H 506.856 6.4699 0.0354284 0
M  V30 5432 N 506.988 0.0434614 1.5754 0
M  V30 5433 C 508.216 -0.641835 1.96693 0
M  V30 5434 C 508.631 -1.64832 0.920652 0
M  V30 5435 O 507.988 -1.82247 -0.095993 0
M  V30 5436 C 508.039 -1.33557 3.35924 0
M  V30 5437 O 507.76 -0.369403 4.3654 0
M  V30 5438 C 509.261 -2.11135 3.89791 0
M  V30 5439 H 506.481 -0.176013 0.647503 0
M  V30 5440 H 509.025 0.107478 2.04217 0
M  V30 5441 H 507.18 -2.03617 3.29574 0
M  V30 5442 H 507.594 -0.863674 5.1734 0
M  V30 5443 H 509.068 -2.55107 4.89514 0
M  V30 5444 H 509.545 -2.95634 3.24803 0
M  V30 5445 H 510.151 -1.46002 3.99454 0
M  V30 5446 N 508.466 -1.55915 -0.229846 0
M  V30 5447 C 509.882 -1.48721 -0.579166 0
M  V30 5448 C 510.082 -0.736976 -1.87539 0
M  V30 5449 O 509.138 -0.273258 -2.51017 0
M  V30 5450 C 510.451 -2.9323 -0.666082 0
M  V30 5451 C 511.999 -3.03701 -0.757267 0
M  V30 5452 C 512.474 -4.49552 -0.8756 0
M  V30 5453 N 513.965 -4.53561 -0.940035 0
M  V30 5454 C 514.7 -5.63683 -1.05116 0
M  V30 5455 N 514.196 -6.83576 -1.12675 0
M  V30 5456 N 515.989 -5.51516 -1.08565 0
M  V30 5457 H 508.14 -2.03123 0.620857 0
M  V30 5458 H 510.403 -0.922898 0.21671 0
M  V30 5459 H 510.109 -3.51032 0.21664 0
M  V30 5460 H 509.983 -3.44668 -1.53243 0
M  V30 5461 H 512.37 -2.45969 -1.63043 0
M  V30 5462 H 512.451 -2.55446 0.134583 0
M  V30 5463 H 512.095 -5.079 -0.00692351 0
M  V30 5464 H 512.025 -4.95506 -1.78274 0
M  V30 5465 H 514.516 -3.67215 -0.892269 0
M  V30 5466 H 514.829 -7.63251 -1.21109 0
M  V30 5467 H 513.174 -6.86303 -1.09603 0
M  V30 5468 H 516.365 -4.5678 -1.02319 0
M  V30 5469 H 516.538 -6.37372 -1.1688 0
M  V30 5470 N 509.944 0.496216 -1.49584 0
M  V30 5471 C 511.172 1.27394 -1.63029 0
M  V30 5472 C 511.587 1.86344 -0.303569 0
M  V30 5473 O 510.944 1.68057 0.711547 0
M  V30 5474 C 510.995 2.40077 -2.70269 0
M  V30 5475 O 510.716 1.83549 -3.97796 0
M  V30 5476 C 512.217 3.31372 -2.94462 0
M  V30 5477 H 509.437 0.386211 -0.54871 0
M  V30 5478 H 511.981 0.595163 -1.95648 0
M  V30 5479 H 510.136 3.03775 -2.40415 0
M  V30 5480 H 510.55 2.57561 -4.56905 0
M  V30 5481 H 512.024 4.06707 -3.73221 0
M  V30 5482 H 512.501 3.88654 -2.0456 0
M  V30 5483 H 513.107 2.73435 -3.25751 0
M  V30 5484 N 511.423 1.38739 0.74761 0
M  V30 5485 C 512.672 1.3459 1.50228 0
M  V30 5486 C 512.985 -0.0595592 1.95509 0
M  V30 5487 O 514.191 -0.22361 2.70578 0
M  V30 5488 C 512.647 2.36377 2.71393 0
M  V30 5489 C 512.255 3.82573 2.33113 0
M  V30 5490 C 513.999 2.41281 3.49262 0
M  V30 5491 C 511.906 4.76032 3.50924 0
M  V30 5492 H 510.836 0.500312 0.564096 0
M  V30 5493 H 513.487 1.64324 0.8167 0
M  V30 5494 H 511.869 1.99694 3.41962 0
M  V30 5495 H 513.043 4.28227 1.70171 0
M  V30 5496 H 511.358 3.80844 1.68365 0
M  V30 5497 H 513.955 3.08301 4.36869 0
M  V30 5498 H 514.298 1.43353 3.9084 0
M  V30 5499 H 514.831 2.76793 2.85711 0
M  V30 5500 H 511.57 5.75177 3.14408 0
M  V30 5501 H 511.09 4.35066 4.12889 0
M  V30 5502 H 512.769 4.94331 4.17427 0
M  V30 5503 N 512.901 -0.976442 1.23707 0
M  V30 5504 C 514.129 -1.75341 1.09833 0
M  V30 5505 C 514.544 -1.8553 -0.349885 0
M  V30 5506 O 513.901 -1.33732 -1.24185 0
M  V30 5507 C 513.952 -3.17833 1.72233 0
M  V30 5508 O 513.673 -3.08167 3.11391 0
M  V30 5509 C 515.174 -4.11906 1.63853 0
M  V30 5510 H 512.394 -0.550137 0.384175 0
M  V30 5511 H 514.938 -1.2265 1.63638 0
M  V30 5512 H 513.093 -3.67538 1.22452 0
M  V30 5513 H 513.507 -3.97897 3.41729 0
M  V30 5514 H 514.981 -5.09579 2.12211 0
M  V30 5515 H 515.458 -4.35109 0.598092 0
M  V30 5516 H 516.064 -3.68107 2.13019 0
M  V30 5517 N 514.379 -1.04941 -1.1758 0
M  V30 5518 C 515.326 -0.648155 -2.21512 0
M  V30 5519 C 516.296 0.348431 -1.62404 0
M  V30 5520 O 517.481 0.240419 -1.89279 0
M  V30 5521 C 514.621 -0.0264291 -3.4509 0
M  V30 5522 C 513.734 -1.07154 -4.185 0
M  V30 5523 C 512.869 -0.417403 -5.29558 0
M  V30 5524 C 511.908 -1.447 -5.94751 0
M  V30 5525 N 511.045 -0.817203 -6.97328 0
M  V30 5526 H 515.885 -1.53891 -2.55189 0
M  V30 5527 H 513.422 -0.769699 -1.25356 0
M  V30 5528 H 515.38 0.351456 -4.15717 0
M  V30 5529 H 514.01 0.827802 -3.12005 0
M  V30 5530 H 513.062 -1.56728 -3.46613 0
M  V30 5531 H 514.374 -1.8532 -4.63096 0
M  V30 5532 H 513.528 0.0142061 -6.06698 0
M  V30 5533 H 512.267 0.396265 -4.86087 0
M  V30 5534 H 511.272 -1.88865 -5.16343 0
M  V30 5535 H 512.497 -2.26252 -6.40302 0
M  V30 5536 H 510.443 -0.0239995 -6.55996 0
M  V30 5537 H 510.36 -1.53644 -7.40223 0
M  V30 5538 H 511.628 -0.410283 -7.7842 0
M  V30 5539 N 515.857 1.33968 -0.830081 0
M  V30 5540 C 516.787 2.31911 -0.271911 0
M  V30 5541 C 517.768 1.58571 0.61556 0
M  V30 5542 O 518.953 1.86514 0.540946 0
M  V30 5543 C 516.083 3.42737 0.561146 0
M  V30 5544 C 515.037 4.27383 -0.229789 0
M  V30 5545 C 514.363 5.29742 0.726463 0
M  V30 5546 C 515.663 5.02 -1.44197 0
M  V30 5547 H 517.357 2.78844 -1.09025 0
M  V30 5548 H 514.903 1.34061 -0.52571 0
M  V30 5549 H 516.856 4.10276 0.961867 0
M  V30 5550 H 515.58 2.94471 1.41261 0
M  V30 5551 H 514.239 3.61456 -0.611964 0
M  V30 5552 H 513.887 4.77736 1.57408 0
M  V30 5553 H 513.587 5.87255 0.20142 0
M  V30 5554 H 515.111 6.00149 1.12489 0
M  V30 5555 H 516.525 5.62355 -1.11488 0
M  V30 5556 H 514.922 5.69122 -1.90317 0
M  V30 5557 H 515.992 4.31281 -2.2164 0
M  V30 5558 N 517.335 0.585699 1.46312 0
M  V30 5559 C 518.56 0.0762461 2.0726 0
M  V30 5560 C 518.985 -1.22071 1.43109 0
M  V30 5561 O 518.343 -1.73804 0.515942 0
M  V30 5562 C 518.391 -0.0729404 3.60526 0
M  V30 5563 O 517.495 -1.1287 3.96654 0
M  V30 5564 H 516.836 0.0641558 0.660893 0
M  V30 5565 H 519.366 0.809492 1.87905 0
M  V30 5566 H 519.376 -0.278158 4.07051 0
M  V30 5567 H 518.051 0.874188 4.06609 0
M  V30 5568 H 516.628 -0.901703 3.61834 0
M  V30 5569 N 518.813 -1.54241 0.323641 0
M  V30 5570 C 520.06 -2.0057 -0.27891 0
M  V30 5571 C 520.388 -1.21181 -1.52136 0
M  V30 5572 O 519.643 -0.282043 -1.93657 0
M  V30 5573 C 519.942 -3.5129 -0.658031 0
M  V30 5574 C 519.608 -4.48281 0.485252 0
M  V30 5575 C 518.27 -4.74519 0.799055 0
M  V30 5576 C 520.622 -5.05909 1.25322 0
M  V30 5577 C 517.95 -5.55643 1.88354 0
M  V30 5578 C 520.302 -5.88215 2.32779 0
M  V30 5579 C 518.966 -6.12755 2.64741 0
M  V30 5580 H 518.236 -0.733938 -0.10206 0
M  V30 5581 H 520.883 -1.862 0.447435 0
M  V30 5582 H 519.188 -3.63388 -1.4648 0
M  V30 5583 H 520.885 -3.84578 -1.1358 0
M  V30 5584 H 517.475 -4.27979 0.230593 0
M  V30 5585 H 521.659 -4.8562 1.02404 0
M  V30 5586 H 516.915 -5.72888 2.13564 0
M  V30 5587 H 521.089 -6.31888 2.92729 0
M  V30 5588 H 518.716 -6.75404 3.48904 0
M  V30 5589 N 520.291 -0.0518155 -1.57515 0
M  V30 5590 C 521.537 0.622745 -1.93002 0
M  V30 5591 C 521.87 1.70456 -0.930499 0
M  V30 5592 O 521.145 1.94452 0.0434086 0
M  V30 5593 C 521.428 1.21824 -3.38867 0
M  V30 5594 C 521.281 0.144434 -4.49568 0
M  V30 5595 C 522.6 2.12968 -3.8514 0
M  V30 5596 H 519.719 0.22491 -0.701844 0
M  V30 5597 H 522.361 -0.113711 -1.89659 0
M  V30 5598 H 520.511 1.8459 -3.41846 0
M  V30 5599 H 522.183 -0.48753 -4.58717 0
M  V30 5600 H 520.426 -0.527424 -4.30582 0
M  V30 5601 H 521.097 0.601127 -5.48717 0
M  V30 5602 H 523.573 1.60163 -3.8404 0
M  V30 5603 H 522.449 2.51578 -4.87852 0
M  V30 5604 H 522.71 3.03004 -3.21934 0
M  V30 5605 N 521.769 1.56035 0.221574 0
M  V30 5606 C 522.716 1.92413 1.27459 0
M  V30 5607 C 523.686 0.781323 1.46576 0
M  V30 5608 O 524.871 1.03721 1.60145 0
M  V30 5609 C 522.011 2.24617 2.61995 0
M  V30 5610 C 521.124 3.51831 2.50677 0
M  V30 5611 C 520.259 3.73482 3.77736 0
M  V30 5612 C 519.298 4.94211 3.6114 0
M  V30 5613 N 518.435 5.12252 4.80148 0
M  V30 5614 H 523.275 2.82203 0.957355 0
M  V30 5615 H 520.812 1.39676 0.461415 0
M  V30 5616 H 522.77 2.41298 3.40339 0
M  V30 5617 H 521.4 1.38 2.91815 0
M  V30 5618 H 520.452 3.43343 1.63767 0
M  V30 5619 H 521.764 4.40328 2.34334 0
M  V30 5620 H 520.918 3.9026 4.64523 0
M  V30 5621 H 519.657 2.83266 3.97003 0
M  V30 5622 H 518.662 4.77384 2.72736 0
M  V30 5623 H 519.887 5.85912 3.43343 0
M  V30 5624 H 517.833 4.24978 4.99729 0
M  V30 5625 H 517.75 5.94881 4.66532 0
M  V30 5626 H 519.018 5.33465 5.68362 0
M  V30 5627 N 523.247 -0.488276 1.49845 0
M  V30 5628 C 524.493 -1.24341 1.6021 0
M  V30 5629 C 524.826 -1.91967 0.293651 0
M  V30 5630 O 524.101 -1.81323 -0.703718 0
M  V30 5631 C 524.384 -2.3005 2.77036 0
M  V30 5632 C 524.237 -1.66842 4.17713 0
M  V30 5633 C 525.556 -3.31509 2.89464 0
M  V30 5634 H 522.675 -0.450704 0.583125 0
M  V30 5635 H 525.317 -0.539673 1.82174 0
M  V30 5636 H 523.467 -2.90071 2.58439 0
M  V30 5637 H 525.139 -1.1055 4.47858 0
M  V30 5638 H 523.382 -0.972079 4.22768 0
M  V30 5639 H 524.053 -2.43576 4.95353 0
M  V30 5640 H 526.529 -2.81493 3.06433 0
M  V30 5641 H 525.405 -4.02822 3.72861 0
M  V30 5642 H 525.666 -3.94603 1.99351 0
M  V30 5643 N 524.725 -1.39134 -0.740242 0
M  V30 5644 C 526.002 -1.26584 -1.49117 0
M  V30 5645 C 526.382 0.126902 -2.10718 0
M  V30 5646 O 525.73 1.13765 -1.98166 0
M  V30 5647 C 525.94 -2.38619 -2.54681 0
M  V30 5648 C 527.288 -2.77685 -3.21211 0
M  V30 5649 O 528.312 -2.38029 -2.64991 0
M  V30 5650 O 527.171 -3.46115 -4.22926 0
M  V30 5651 H 524.265 -0.495769 -0.661923 0
M  V30 5652 H 526.811 -1.50995 -0.774514 0
M  V30 5653 H 525.583 -3.3175 -2.07504 0
M  V30 5654 H 525.206 -2.15845 -3.33911 0
M  V30 5655 N 526.204 0.969867 -1.24223 0
M  V30 5656 C 527.429 1.75289 -1.10853 0
M  V30 5657 C 527.854 1.85091 0.335079 0
M  V30 5658 O 527.212 1.32024 1.24255 0
M  V30 5659 C 527.26 3.15255 -1.75062 0
M  V30 5660 O 526.364 3.99589 -1.01992 0
M  V30 5661 H 525.705 0.538904 -0.387915 0
M  V30 5662 H 528.235 1.21675 -1.64488 0
M  V30 5663 H 528.245 3.65787 -1.80731 0
M  V30 5664 H 526.92 3.07436 -2.801 0
M  V30 5665 H 525.497 3.58077 -1.04094 0
M  V30 5666 N 527.682 1.05563 1.17022 0
M  V30 5667 C 528.632 0.630007 2.19123 0
M  V30 5668 C 529.616 -0.335472 1.57364 0
M  V30 5669 O 530.808 -0.1521 1.76345 0
M  V30 5670 C 527.937 0.0101676 3.43298 0
M  V30 5671 C 527.023 0.999698 4.12149 0
M  V30 5672 N 527.414 2.17251 4.56766 0
M  V30 5673 C 525.712 0.829 4.38228 0
M  V30 5674 C 526.413 2.79883 5.09942 0
M  V30 5675 N 525.389 2.07656 5.02374 0
M  V30 5676 H 529.191 1.52353 2.51328 0
M  V30 5677 H 526.705 0.926288 1.33393 0
M  V30 5678 H 528.702 -0.312541 4.15727 0
M  V30 5679 H 527.362 -0.878707 3.12584 0
M  V30 5680 H 528.373 2.55067 4.50734 0
M  V30 5681 H 525.05 -0.00850974 4.17499 0
M  V30 5682 H 526.44 3.79362 5.54558 0
M  V30 5683 N 529.16 -1.33526 0.837174 0
M  V30 5684 C 530.407 -1.97837 0.432064 0
M  V30 5685 C 530.735 -1.66324 -1.00829 0
M  V30 5686 O 529.99 -0.93448 -1.71948 0
M  V30 5687 C 530.289 -3.52367 0.597675 0
M  V30 5688 C 529.955 -4.03826 2.00587 0
M  V30 5689 C 528.617 -4.1759 2.39106 0
M  V30 5690 C 530.969 -4.31333 2.92576 0
M  V30 5691 C 528.297 -4.56195 3.68921 0
M  V30 5692 C 530.649 -4.7139 4.2187 0
M  V30 5693 C 529.313 -4.8336 4.60347 0
M  V30 5694 H 528.583 -0.723937 0.158104 0
M  V30 5695 H 531.23 -1.5923 1.06387 0
M  V30 5696 H 529.535 -3.91624 -0.117452 0
M  V30 5697 H 531.232 -4.00126 0.26454 0
M  V30 5698 H 527.822 -3.93586 1.69671 0
M  V30 5699 H 532.006 -4.20224 2.64056 0
M  V30 5700 H 527.262 -4.63655 3.9854 0
M  V30 5701 H 531.436 -4.91631 4.93226 0
M  V30 5702 H 529.063 -5.1303 5.60985 0
M  V30 5703 N 530.638 -0.59345 -1.46 0
M  V30 5704 C 532.054 -0.255965 -1.57534 0
M  V30 5705 C 532.254 1.24167 -1.58697 0
M  V30 5706 O 531.31 2.02398 -1.50968 0
M  V30 5707 C 532.623 -0.91466 -2.86451 0
M  V30 5708 C 534.171 -0.889253 -3.00102 0
M  V30 5709 C 534.646 -1.52769 -4.3177 0
M  V30 5710 N 536.137 -1.49253 -4.38495 0
M  V30 5711 C 536.872 -1.9558 -5.39014 0
M  V30 5712 N 536.368 -2.49929 -6.46148 0
M  V30 5713 N 538.161 -1.86432 -5.30282 0
M  V30 5714 H 530.312 -1.56604 -1.43489 0
M  V30 5715 H 532.575 -0.655207 -0.685133 0
M  V30 5716 H 532.281 -1.96861 -2.91442 0
M  V30 5717 H 532.155 -0.429356 -3.74748 0
M  V30 5718 H 534.542 0.156111 -2.94687 0
M  V30 5719 H 534.623 -1.41268 -2.13253 0
M  V30 5720 H 534.267 -2.57231 -4.37944 0
M  V30 5721 H 534.197 -0.979398 -5.17412 0
M  V30 5722 H 536.688 -1.09536 -3.61677 0
M  V30 5723 H 537.001 -2.83109 -7.19075 0
M  V30 5724 H 535.346 -2.53961 -6.46938 0
M  V30 5725 H 538.537 -1.43722 -4.4549 0
M  V30 5726 H 538.71 -2.22852 -6.08474 0
M  V30 5727 N 532.116 1.54067 -0.331816 0
M  V30 5728 C 533.048 2.22139 0.564538 0
M  V30 5729 C 534.061 1.22408 1.07332 0
M  V30 5730 O 535.25 1.4883 0.985481 0
M  V30 5731 C 532.35 2.87876 1.78831 0
M  V30 5732 C 531.523 4.13817 1.41682 0
M  V30 5733 C 530.582 4.63072 2.49901 0
M  V30 5734 O 529.608 5.27562 2.13699 0
M  V30 5735 N 530.81 4.38001 3.80967 0
M  V30 5736 H 533.575 2.99694 -0.0183736 0
M  V30 5737 H 531.136 1.61153 -0.155396 0
M  V30 5738 H 533.128 3.17747 2.50637 0
M  V30 5739 H 531.698 2.13977 2.27887 0
M  V30 5740 H 530.918 3.9062 0.530044 0
M  V30 5741 H 532.206 4.95762 1.14443 0
M  V30 5742 H 531.604 3.864 4.13173 0
M  V30 5743 H 530.161 4.72507 4.48977 0
M  V30 5744 N 533.594 0.0601682 1.57485 0
M  V30 5745 C 534.842 -0.610386 1.92662 0
M  V30 5746 C 535.163 -1.70849 0.939981 0
M  V30 5747 O 534.433 -1.95895 -0.0137455 0
M  V30 5748 H 533.013 -0.228457 0.711208 0
M  V30 5749 H 535.675 0.115288 1.94559 0
M  V30 5750 H 534.771 -1.0432 2.94149 0
M  V30 5751 N 535.072 -1.5615 -0.213296 0
M  V30 5752 C 536.321 -1.78743 -0.93455 0
M  V30 5753 C 536.634 -0.630199 -1.8517 0
M  V30 5754 O 537.84 -0.739966 -2.61222 0
M  V30 5755 C 536.296 -3.16571 -1.71203 0
M  V30 5756 C 535.904 -4.40043 -0.840617 0
M  V30 5757 C 537.648 -3.48485 -2.42401 0
M  V30 5758 C 535.555 -5.68895 -1.61592 0
M  V30 5759 H 534.485 -0.666426 -0.352692 0
M  V30 5760 H 537.136 -1.82532 -0.188227 0
M  V30 5761 H 535.518 -3.06981 -2.50157 0
M  V30 5762 H 536.692 -4.6071 -0.0910326 0
M  V30 5763 H 535.007 -4.15706 -0.240365 0
M  V30 5764 H 537.604 -4.41983 -3.00924 0
M  V30 5765 H 537.947 -2.71371 -3.15695 0
M  V30 5766 H 538.48 -3.59442 -1.7043 0
M  V30 5767 H 535.219 -6.48925 -0.926106 0
M  V30 5768 H 534.739 -5.52275 -2.33991 0
M  V30 5769 H 536.418 -6.09365 -2.17447 0
M  V30 5770 N 536.55 0.480323 -1.50102 0
M  V30 5771 C 537.961 1.06142 -1.53593 0
M  V30 5772 C 538.312 1.93335 -0.334055 0
M  V30 5773 O 537.437 2.09188 0.55403 0
M  V30 5774 C 538.032 1.9317 -2.78336 0
M  V30 5775 C 536.591 2.46405 -2.84538 0
M  V30 5776 C 535.738 1.24521 -2.4777 0
M  V30 5777 H 538.689 0.26333 -1.565 0
M  V30 5778 H 538.71 2.78123 -2.59669 0
M  V30 5779 H 538.222 1.29683 -3.65792 0
M  V30 5780 H 536.323 3.13472 -2.01411 0
M  V30 5781 H 536.436 2.82143 -3.87211 0
M  V30 5782 H 534.8 1.57706 -2.00003 0
M  V30 5783 H 535.583 0.627102 -3.37524 0
M  V30 5784 N 538.028 1.39524 0.732853 0
M  V30 5785 C 539.275 1.36865 1.49246 0
M  V30 5786 C 539.603 -0.0347118 1.94469 0
M  V30 5787 O 538.858 -1.01596 1.67262 0
M  V30 5788 C 539.157 2.28916 2.74468 0
M  V30 5789 C 538.823 3.76506 2.481 0
M  V30 5790 C 537.485 4.16721 2.40619 0
M  V30 5791 C 539.837 4.69846 2.25598 0
M  V30 5792 C 537.165 5.48334 2.08679 0
M  V30 5793 C 539.517 6.01739 1.95174 0
M  V30 5794 C 538.181 6.41015 1.86163 0
M  V30 5795 H 537.451 0.500824 0.546129 0
M  V30 5796 H 540.098 1.72047 0.840958 0
M  V30 5797 H 538.403 1.86859 3.4437 0
M  V30 5798 H 540.1 2.2415 3.32502 0
M  V30 5799 H 536.69 3.44635 2.54803 0
M  V30 5800 H 540.874 4.39608 2.30344 0
M  V30 5801 H 536.13 5.77685 2.00226 0
M  V30 5802 H 540.304 6.73591 1.76771 0
M  V30 5803 H 537.931 7.42917 1.61179 0
M  V30 5804 N 539.506 -0.963266 1.24736 0
M  V30 5805 C 540.753 -1.7068 1.0897 0
M  V30 5806 C 541.081 -1.90934 -0.370751 0
M  V30 5807 O 540.336 -1.47155 -1.29011 0
M  V30 5808 C 540.635 -3.09944 1.7796 0
M  V30 5809 C 540.301 -3.09518 3.27887 0
M  V30 5810 C 538.963 -3.09109 3.68789 0
M  V30 5811 C 541.315 -3.03509 4.23712 0
M  V30 5812 C 538.643 -3.00429 5.03944 0
M  V30 5813 C 540.995 -2.96371 5.5888 0
M  V30 5814 C 539.659 -2.94293 5.99123 0
M  V30 5815 H 538.929 -0.624564 0.398749 0
M  V30 5816 H 541.576 -1.12603 1.54896 0
M  V30 5817 H 539.881 -3.71513 1.2444 0
M  V30 5818 H 541.578 -3.66278 1.63222 0
M  V30 5819 H 538.168 -3.10603 2.95337 0
M  V30 5820 H 542.352 -3.0295 3.93109 0
M  V30 5821 H 537.608 -2.97183 5.34314 0
M  V30 5822 H 541.782 -2.90681 6.32833 0
M  V30 5823 H 539.409 -2.87322 7.03811 0
M  V30 5824 N 540.985 -1.06182 -1.16461 0
M  V30 5825 C 542.233 -0.776326 -1.86595 0
M  V30 5826 C 542.554 0.69921 -1.82033 0
M  V30 5827 O 541.824 1.50579 -1.2531 0
M  V30 5828 H 540.404 -0.284184 -0.690832 0
M  V30 5829 H 543.066 -1.34308 -1.41235 0
M  V30 5830 H 542.162 -1.10022 -2.92064 0
M  V30 5831 N 542.463 1.3308 -0.844243 0
M  V30 5832 C 543.395 2.27954 -0.238671 0
M  V30 5833 C 544.408 1.51978 0.583665 0
M  V30 5834 O 545.597 1.73731 0.409857 0
M  V30 5835 C 542.697 3.31963 0.682185 0
M  V30 5836 C 541.87 4.37281 -0.101998 0
M  V30 5837 C 540.929 5.20928 0.743022 0
M  V30 5838 O 539.955 5.68914 0.180285 0
M  V30 5839 N 541.157 5.42738 2.0595 0
M  V30 5840 H 543.922 2.8056 -1.05386 0
M  V30 5841 H 541.483 1.4583 -0.70322 0
M  V30 5842 H 543.475 3.84828 1.25259 0
M  V30 5843 H 542.045 2.79594 1.39808 0
M  V30 5844 H 541.265 3.84843 -0.853802 0
M  V30 5845 H 542.553 5.04746 -0.641015 0
M  V30 5846 H 541.951 5.05463 2.54016 0
M  V30 5847 H 540.508 5.98639 2.57827 0
M  V30 5848 N 543.941 0.601185 1.45683 0
M  V30 5849 C 545.187 0.0940202 2.02582 0
M  V30 5850 C 545.52 -1.26972 1.46941 0
M  V30 5851 O 544.795 -1.83613 0.641612 0
M  V30 5852 C 545.078 0.0481715 3.60068 0
M  V30 5853 C 544.931 1.44212 4.26055 0
M  V30 5854 C 546.25 -0.642975 4.35378 0
M  V30 5855 H 543.369 0.0356404 0.736138 0
M  V30 5856 H 546.011 0.771929 1.73612 0
M  V30 5857 H 544.161 -0.529128 3.8488 0
M  V30 5858 H 545.833 2.06601 4.12449 0
M  V30 5859 H 544.076 2.00465 3.84703 0
M  V30 5860 H 544.747 1.36234 5.34925 0
M  V30 5861 H 547.223 -0.152351 4.15821 0
M  V30 5862 H 546.099 -0.644141 5.45107 0
M  V30 5863 H 546.36 -1.70785 4.0778 0
M  V30 5864 N 545.419 -1.53889 0.339982 0
M  V30 5865 C 546.835 -1.59595 -0.0120752 0
M  V30 5866 C 547.035 -1.35605 -1.49042 0
M  V30 5867 O 546.091 -1.14856 -2.24865 0
M  V30 5868 C 547.404 -2.9774 0.420898 0
M  V30 5869 C 548.952 -3.1077 0.37294 0
M  V30 5870 C 549.427 -4.51286 0.781327 0
M  V30 5871 N 550.918 -4.57325 0.735374 0
M  V30 5872 C 551.653 -5.64194 1.02336 0
M  V30 5873 N 551.149 -6.7893 1.37933 0
M  V30 5874 N 552.942 -5.54051 0.947838 0
M  V30 5875 H 545.093 -1.67738 1.30299 0
M  V30 5876 H 547.356 -0.785385 0.530918 0
M  V30 5877 H 547.062 -3.20349 1.45152 0
M  V30 5878 H 546.936 -3.76639 -0.205721 0
M  V30 5879 H 549.323 -2.87886 -0.648505 0
M  V30 5880 H 549.404 -2.33939 1.03472 0
M  V30 5881 H 549.048 -4.74905 1.80077 0
M  V30 5882 H 548.978 -5.26511 0.0970679 0
M  V30 5883 H 551.469 -3.74931 0.472773 0
M  V30 5884 H 551.782 -7.56392 1.58402 0
M  V30 5885 H 550.127 -6.80386 1.41774 0
M  V30 5886 H 553.318 -4.63293 0.669115 0
M  V30 5887 H 553.491 -6.37246 1.17563 0
M  V30 5888 N 546.897 -0.0685191 -1.57451 0
M  V30 5889 C 547.827 0.89747 -2.15564 0
M  V30 5890 C 548.808 1.31266 -1.08181 0
M  V30 5891 O 549.993 1.38429 -1.36202 0
M  V30 5892 C 547.123 2.16623 -2.71463 0
M  V30 5893 C 546.077 1.89054 -3.83982 0
M  V30 5894 C 545.403 3.22532 -4.26471 0
M  V30 5895 C 546.703 1.1984 -5.08366 0
M  V30 5896 H 548.397 0.413373 -2.96533 0
M  V30 5897 H 545.943 0.197391 -1.42641 0
M  V30 5898 H 547.896 2.84614 -3.10761 0
M  V30 5899 H 546.62 2.67269 -1.8771 0
M  V30 5900 H 545.279 1.23469 -3.45183 0
M  V30 5901 H 544.927 3.71013 -3.39644 0
M  V30 5902 H 544.627 3.04879 -5.02317 0
M  V30 5903 H 546.151 3.91727 -4.68383 0
M  V30 5904 H 547.565 1.77896 -5.45001 0
M  V30 5905 H 545.962 1.12456 -5.89469 0
M  V30 5906 H 547.032 0.176996 -4.84577 0
M  V30 5907 N 548.375 1.56261 0.205012 0
M  V30 5908 C 549.621 1.80306 0.9283 0
M  V30 5909 C 549.954 0.640932 1.83319 0
M  V30 5910 O 549.229 -0.359032 1.91158 0
M  V30 5911 C 549.512 3.14547 1.75306 0
M  V30 5912 C 549.365 4.41236 0.873562 0
M  V30 5913 C 550.684 3.45382 2.72762 0
M  V30 5914 H 547.803 0.655929 0.336044 0
M  V30 5915 H 550.445 1.88984 0.196211 0
M  V30 5916 H 548.595 3.0728 2.37721 0
M  V30 5917 H 550.267 4.60539 0.264887 0
M  V30 5918 H 548.51 4.33427 0.179773 0
M  V30 5919 H 549.181 5.31639 1.48541 0
M  V30 5920 H 551.657 3.52884 2.20481 0
M  V30 5921 H 550.533 4.40449 3.2756 0
M  V30 5922 H 550.794 2.68377 3.51321 0
M  V30 5923 N 549.853 -0.472356 1.50355 0
M  V30 5924 C 551.13 -1.23356 1.51798 0
M  V30 5925 C 551.51 -2.09469 0.26193 0
M  V30 5926 O 550.858 -2.15677 -0.754691 0
M  V30 5927 C 551.068 -2.06568 2.81302 0
M  V30 5928 C 552.416 -2.648 3.31913 0
M  V30 5929 O 553.44 -2.16812 2.82614 0
M  V30 5930 O 552.299 -3.52231 4.17846 0
M  V30 5931 H 549.393 -0.559707 0.608816 0
M  V30 5932 H 551.939 -0.48428 1.62643 0
M  V30 5933 H 550.711 -1.43103 3.64194 0
M  V30 5934 H 550.334 -2.88633 2.73454 0
M  V30 5935 N 551.331 -1.39911 -0.725443 0
M  V30 5936 C 552.579 -1.37382 -1.48224 0
M  V30 5937 C 552.9 0.0264107 -1.94982 0
M  V30 5938 O 552.17 0.979408 -1.6966 0
M  V30 5939 H 550.75 -0.505596 -0.549892 0
M  V30 5940 H 553.412 -1.7487 -0.860608 0
M  V30 5941 H 552.508 -2.04254 -2.3598 0
M  V30 5942 N 552.809 0.956637 -1.25245 0
M  V30 5943 C 553.756 2.053 -1.05454 0
M  V30 5944 C 554.726 1.66062 0.0356889 0
M  V30 5945 O 555.911 1.90415 -0.121099 0
M  V30 5946 C 553.051 3.38391 -0.677191 0
M  V30 5947 C 552.164 3.90758 -1.84206 0
M  V30 5948 C 551.299 5.12165 -1.40926 0
M  V30 5949 C 550.338 5.56757 -2.54338 0
M  V30 5950 N 549.475 6.69376 -2.11848 0
M  V30 5951 H 554.315 2.21562 -1.99284 0
M  V30 5952 H 551.852 1.08578 -0.992434 0
M  V30 5953 H 553.81 4.1488 -0.43938 0
M  V30 5954 H 552.44 3.22021 0.224127 0
M  V30 5955 H 551.492 3.10808 -2.19323 0
M  V30 5956 H 552.804 4.19802 -2.69383 0
M  V30 5957 H 551.958 5.96065 -1.13098 0
M  V30 5958 H 550.697 4.84832 -0.528175 0
M  V30 5959 H 549.702 4.71423 -2.82913 0
M  V30 5960 H 550.927 5.861 -3.43022 0
M  V30 5961 H 548.873 6.43756 -1.26153 0
M  V30 5962 H 548.79 6.97927 -2.90574 0
M  V30 5963 H 550.058 7.5669 -1.87191 0
M  V30 5964 N 554.287 1.06798 1.15896 0
M  V30 5965 C 555.535 0.786211 1.8618 0
M  V30 5966 C 555.856 -0.689547 1.82401 0
M  V30 5967 O 555.126 -1.49913 1.26107 0
M  V30 5968 H 553.706 0.287843 0.689315 0
M  V30 5969 H 556.368 1.35055 1.40521 0
M  V30 5970 H 555.464 1.1157 2.91477 0
M  V30 5971 N 555.766 -1.3263 0.851289 0
M  V30 5972 C 557.012 -1.9766 0.453694 0
M  V30 5973 C 557.345 -1.67225 -0.987396 0
M  V30 5974 O 556.62 -0.958693 -1.69232 0
M  V30 5975 C 556.903 -3.5344 0.68936 0
M  V30 5976 C 556.756 -3.93517 2.17862 0
M  V30 5977 C 558.075 -4.39866 0.143555 0
M  V30 5978 H 555.194 -0.717989 0.166314 0
M  V30 5979 H 557.836 -1.57068 1.06909 0
M  V30 5980 H 555.986 -3.88147 0.165546 0
M  V30 5981 H 557.658 -3.69006 2.76826 0
M  V30 5982 H 555.901 -3.42798 2.65841 0
M  V30 5983 H 556.572 -5.02065 2.29422 0
M  V30 5984 H 559.048 -4.11875 0.591451 0
M  V30 5985 H 557.924 -5.47858 0.338043 0
M  V30 5986 H 558.185 -4.31696 -0.953466 0
M  V30 5987 N 557.244 -0.608902 -1.45362 0
M  V30 5988 C 558.655 -0.189511 -1.85736 0
M  V30 5989 C 559.006 1.2539 -1.50903 0
M  V30 5990 O 558.131 1.95094 -0.936347 0
M  V30 5991 C 558.726 -0.33716 -3.37118 0
M  V30 5992 C 557.285 0.0275487 -3.7639 0
M  V30 5993 C 556.432 -0.660983 -2.69307 0
M  V30 5994 H 559.383 -0.815499 -1.36144 0
M  V30 5995 H 559.404 0.430257 -3.7806 0
M  V30 5996 H 558.916 -1.38779 -3.62439 0
M  V30 5997 H 557.017 1.0773 -3.56686 0
M  V30 5998 H 557.13 -0.367018 -4.77692 0
M  V30 5999 H 555.494 -0.0984958 -2.54509 0
M  V30 6000 H 556.277 -1.71377 -2.97464 0
M  V30 6001 N 558.722 1.53707 -0.348139 0
M  V30 6002 C 559.971 2.0017 0.247992 0
M  V30 6003 C 560.284 1.23983 1.51286 0
M  V30 6004 O 561.49 1.60946 2.18652 0
M  V30 6005 C 559.946 3.56515 0.492459 0
M  V30 6006 C 559.554 4.41562 -0.756777 0
M  V30 6007 C 561.298 4.11381 1.0472 0
M  V30 6008 C 559.205 5.89426 -0.482856 0
M  V30 6009 H 558.135 0.747806 0.0964452 0
M  V30 6010 H 560.786 1.77532 -0.464179 0
M  V30 6011 H 559.168 3.75236 1.26545 0
M  V30 6012 H 560.342 4.34615 -1.53122 0
M  V30 6013 H 558.657 3.97711 -1.23348 0
M  V30 6014 H 561.254 5.19468 1.26717 0
M  V30 6015 H 561.597 3.64885 2.00411 0
M  V30 6016 H 562.13 3.96389 0.334801 0
M  V30 6017 H 558.869 6.40164 -1.40962 0
M  V30 6018 H 558.389 5.99264 0.253416 0
M  V30 6019 H 560.068 6.4692 -0.101816 0
M  V30 6020 N 560.2 0.0768682 1.57412 0
M  V30 6021 C 561.611 -0.455037 1.8107 0
M  V30 6022 C 561.962 -1.69323 0.991162 0
M  V30 6023 O 561.087 -2.15328 0.215156 0
M  V30 6024 C 561.682 -0.832316 3.28417 0
M  V30 6025 C 560.241 -1.30906 3.52903 0
M  V30 6026 C 559.388 -0.296714 2.75708 0
M  V30 6027 H 562.339 0.302514 1.5579 0
M  V30 6028 H 562.36 -1.69333 3.40744 0
M  V30 6029 H 561.872 0.0690532 3.88039 0
M  V30 6030 H 559.973 -2.22875 2.98592 0
M  V30 6031 H 560.086 -1.28348 4.61588 0
M  V30 6032 H 558.45 -0.775059 2.42621 0
M  V30 6033 H 559.233 0.597015 3.38069 0
M  V30 6034 N 561.678 -1.56367 -0.196722 0
M  V30 6035 C 562.626 -1.95304 -1.2633 0
M  V30 6036 C 563.62 -0.838252 -1.47206 0
M  V30 6037 O 564.826 -1.02325 -1.48087 0
M  V30 6038 H 561.201 -0.621013 -0.424083 0
M  V30 6039 H 563.172 -2.84254 -0.907879 0
M  V30 6040 C 561.921 -2.3074 -2.60104 0
M  V30 6041 H 561.244 -3.16047 -2.44856 0
M  V30 6042 H 562.684 -2.61849 -3.33484 0
M  V30 6043 C 561.143 -1.14143 -3.16975 0
M  V30 6044 O 561.673 -0.415602 -3.99544 0
M  V30 6045 N 559.879 -0.91867 -2.75697 0
M  V30 6046 H 559.426 -1.51065 -2.08656 0
M  V30 6047 H 559.384 -0.140321 -3.14087 0
M  V30 6048 N 563.156 0.464375 -1.50603 0
M  V30 6049 C 564.103 1.56152 -1.69956 0
M  V30 6050 C 565.073 1.57046 -0.54091 0
M  V30 6051 O 566.258 1.74473 -0.772258 0
M  V30 6052 C 563.398 2.94079 -1.80586 0
M  V30 6053 C 562.511 3.02923 -3.07996 0
M  V30 6054 C 561.646 4.31806 -3.09382 0
M  V30 6055 C 560.685 4.34417 -4.31218 0
M  V30 6056 N 559.822 5.54782 -4.30304 0
M  V30 6057 H 564.662 1.38955 -2.6362 0
M  V30 6058 H 562.199 0.675482 -1.30674 0
M  V30 6059 H 564.157 3.74073 -1.8473 0
M  V30 6060 H 562.787 3.09896 -0.903556 0
M  V30 6061 H 561.839 2.1576 -3.13292 0
M  V30 6062 H 563.151 3.00712 -3.97962 0
M  V30 6063 H 562.305 5.20153 -3.12292 0
M  V30 6064 H 561.044 4.36636 -2.17257 0
M  V30 6065 H 560.049 3.44467 -4.28512 0
M  V30 6066 H 561.274 4.31273 -5.24576 0
M  V30 6067 H 559.22 5.60384 -3.41037 0
M  V30 6068 H 559.137 5.54339 -5.14047 0
M  V30 6069 H 560.405 6.45235 -4.3737 0
M  V30 6070 N 564.634 1.40294 0.718013 0
M  V30 6071 C 565.88 1.38645 1.48005 0
M  V30 6072 C 566.213 -0.0121202 1.94196 0
M  V30 6073 O 565.488 -0.980309 1.67989 0
M  V30 6074 C 565.771 2.37379 2.70782 0
M  V30 6075 C 565.624 3.8625 2.30501 0
M  V30 6076 C 566.943 2.33685 3.72933 0
M  V30 6077 H 564.062 0.504928 0.536858 0
M  V30 6078 H 566.704 1.71411 0.819649 0
M  V30 6079 H 564.854 2.09568 3.27129 0
M  V30 6080 H 566.526 4.24879 1.79655 0
M  V30 6081 H 564.769 4.02202 1.6253 0
M  V30 6082 H 565.44 4.50847 3.18498 0
M  V30 6083 H 567.916 2.58314 3.2621 0
M  V30 6084 H 566.792 3.0482 4.56482 0
M  V30 6085 H 567.053 1.34765 4.21059 0
M  V30 6086 N 566.112 -0.949982 1.2575 0
M  V30 6087 C 567.361 -1.68956 1.10168 0
M  V30 6088 C 567.674 -1.92327 -0.356309 0
M  V30 6089 O 568.88 -2.64026 -0.632657 0
M  V30 6090 C 567.336 -3.04196 1.92336 0
M  V30 6091 C 566.944 -2.88603 3.42655 0
M  V30 6092 C 568.688 -3.81904 1.85336 0
M  V30 6093 C 566.595 -4.19262 4.17101 0
M  V30 6094 H 565.525 -0.633645 0.408668 0
M  V30 6095 H 568.176 -1.05719 1.49986 0
M  V30 6096 H 566.558 -3.68363 1.45344 0
M  V30 6097 H 567.732 -2.3334 3.97353 0
M  V30 6098 H 566.047 -2.24345 3.50796 0
M  V30 6099 H 568.644 -4.78688 2.38248 0
M  V30 6100 H 568.987 -4.08099 0.822226 0
M  V30 6101 H 569.52 -3.24495 2.30104 0
M  V30 6102 H 566.259 -3.98254 5.20648 0
M  V30 6103 H 565.779 -4.74273 3.67186 0
M  V30 6104 H 567.458 -4.87775 4.25071 0
M  V30 6105 N 567.59 -1.07411 -1.15328 0
M  V30 6106 C 568.837 -0.797649 -1.86128 0
M  V30 6107 C 569.165 0.676298 -1.82364 0
M  V30 6108 O 568.42 1.51223 -1.24218 0
M  V30 6109 C 568.719 -1.25191 -3.34757 0
M  V30 6110 C 568.385 -2.73191 -3.58716 0
M  V30 6111 C 567.047 -3.13616 -3.64964 0
M  V30 6112 C 569.399 -3.68718 -3.6837 0
M  V30 6113 C 566.727 -4.48383 -3.78377 0
M  V30 6114 C 569.079 -5.03248 -3.83306 0
M  V30 6115 C 567.743 -5.43293 -3.878 0
M  V30 6116 H 567.013 -0.29188 -0.681092 0
M  V30 6117 H 569.66 -1.34524 -1.36292 0
M  V30 6118 H 567.965 -0.623712 -3.86804 0
M  V30 6119 H 569.662 -1.01489 -3.87945 0
M  V30 6120 H 566.252 -2.40898 -3.54494 0
M  V30 6121 H 570.436 -3.38614 -3.62842 0
M  V30 6122 H 565.692 -4.78877 -3.80114 0
M  V30 6123 H 569.866 -5.77142 -3.89718 0
M  V30 6124 H 567.493 -6.47721 -3.97946 0
M  V30 6125 N 569.068 1.32177 -0.85831 0
M  V30 6126 C 570.317 1.96392 -0.459689 0
M  V30 6127 C 570.63 1.68659 0.990632 0
M  V30 6128 O 571.836 2.26641 1.49485 0
M  V30 6129 C 570.292 3.51542 -0.7711 0
M  V30 6130 C 569.9 3.8813 -2.2374 0
M  V30 6131 C 571.644 4.2221 -0.44038 0
M  V30 6132 C 569.551 5.36341 -2.49183 0
M  V30 6133 H 568.481 0.735007 -0.168169 0
M  V30 6134 H 571.132 1.50518 -1.0496 0
M  V30 6135 H 569.514 3.95846 -0.11058 0
M  V30 6136 H 570.688 3.54824 -2.94001 0
M  V30 6137 H 569.003 3.30497 -2.533 0
M  V30 6138 H 571.6 5.31234 -0.607855 0
M  V30 6139 H 571.943 4.11683 0.618291 0
M  V30 6140 H 572.476 3.83502 -1.05695 0
M  V30 6141 H 569.215 5.51892 -3.53689 0
M  V30 6142 H 568.735 5.7104 -1.83504 0
M  V30 6143 H 570.414 6.03466 -2.33318 0
M  V30 6144 N 570.547 0.616602 1.45037 0
M  V30 6145 C 571.963 0.280994 1.57107 0
M  V30 6146 C 572.163 -1.21627 1.60653 0
M  V30 6147 O 571.219 -1.9997 1.54169 0
M  V30 6148 C 572.532 0.960116 2.8496 0
M  V30 6149 C 574.08 0.936884 2.98649 0
M  V30 6150 C 574.555 1.59619 4.29285 0
M  V30 6151 N 576.046 1.5621 4.36065 0
M  V30 6152 C 576.781 2.04131 5.35834 0
M  V30 6153 N 576.277 2.60177 6.4209 0
M  V30 6154 N 578.07 1.94845 5.27249 0
M  V30 6155 H 570.221 1.58867 1.40979 0
M  V30 6156 H 572.484 0.666024 0.674623 0
M  V30 6157 H 572.19 2.01473 2.88273 0
M  V30 6158 H 572.064 0.488921 3.74018 0
M  V30 6159 H 574.451 -0.109209 2.94898 0
M  V30 6160 H 574.532 1.44643 2.10979 0
M  V30 6161 H 574.176 2.64166 4.33796 0
M  V30 6162 H 574.106 1.06159 5.15789 0
M  V30 6163 H 576.597 1.15276 3.59889 0
M  V30 6164 H 576.91 2.94513 7.1448 0
M  V30 6165 H 575.255 2.64221 6.42816 0
M  V30 6166 H 578.446 1.50792 4.43147 0
M  V30 6167 H 578.619 2.32504 6.04852 0
M  V30 6168 N 572.025 -1.5352 0.356285 0
M  V30 6169 C 573.273 -2.00719 -0.235837 0
M  V30 6170 C 573.594 -1.24551 -1.5004 0
M  V30 6171 O 572.864 -0.356185 -1.92635 0
M  V30 6172 H 571.444 -0.741542 -0.0901366 0
M  V30 6173 H 574.106 -1.88887 0.480378 0
M  V30 6174 H 573.202 -3.08551 -0.469357 0
M  V30 6175 N 573.503 -0.0852151 -1.57369 0
M  V30 6176 C 574.451 0.894856 -2.14698 0
M  V30 6177 C 575.445 1.29903 -1.08727 0
M  V30 6178 O 576.651 1.27471 -1.27088 0
M  V30 6179 H 573.026 0.306569 -0.686673 0
M  V30 6180 H 574.997 0.386542 -2.95886 0
M  V30 6181 C 573.746 2.14798 -2.73417 0
M  V30 6182 H 573.069 1.84585 -3.54638 0
M  V30 6183 H 574.509 2.81456 -3.1711 0
M  V30 6184 C 572.968 2.91546 -1.68828 0
M  V30 6185 O 573.498 3.85733 -1.12129 0
M  V30 6186 N 571.704 2.54901 -1.39549 0
M  V30 6187 H 571.251 1.7838 -1.85845 0
M  V30 6188 H 571.209 3.06553 -0.698054 0
M  V30 6189 N 574.981 1.5647 0.188427 0
M  V30 6190 C 575.891 1.98285 1.2538 0
M  V30 6191 C 576.907 0.891535 1.49424 0
M  V30 6192 O 578.083 1.19782 1.61908 0
M  V30 6193 C 575.148 2.31965 2.57669 0
M  V30 6194 C 574.209 3.54838 2.41638 0
M  V30 6195 C 573.442 3.86901 3.67618 0
M  V30 6196 O 573.665 3.20163 4.72072 0
M  V30 6197 O 572.599 4.80309 3.62749 0
M  V30 6198 H 576.425 2.89145 0.928912 0
M  V30 6199 H 574.01 1.44112 0.393955 0
M  V30 6200 H 575.892 2.54673 3.35737 0
M  V30 6201 H 574.567 1.44271 2.89771 0
M  V30 6202 H 573.474 3.37369 1.61658 0
M  V30 6203 H 574.807 4.43019 2.14465 0
M  V30 6204 N 576.459 -0.456382 1.50847 0
M  V30 6205 C 577.422 -1.53493 1.70213 0
M  V30 6206 C 578.422 -1.50264 0.572481 0
M  V30 6207 O 579.612 -1.52623 0.839751 0
M  V30 6208 C 576.744 -2.93091 1.741 0
M  V30 6209 H 577.937 -1.37633 2.66453 0
M  V30 6210 H 575.49 -0.683776 1.4055 0
M  V30 6211 H 576.225 -3.14378 0.796063 0
M  V30 6212 H 576.01 -2.9684 2.5618 0
M  V30 6213 H 577.5 -3.71368 1.90987 0
M  V30 6214 N 577.937 -1.40673 -0.710563 0
M  V30 6215 C 578.885 -1.41517 -1.84596 0
M  V30 6216 C 579.879 -0.295043 -1.66811 0
M  V30 6217 O 581.085 -0.466331 -1.73854 0
M  V30 6218 H 577.46 -0.442467 -0.608052 0
M  V30 6219 H 579.431 -2.37238 -1.80999 0
M  V30 6220 C 578.18 -1.29957 -3.225 0
M  V30 6221 H 577.503 -2.15429 -3.36794 0
M  V30 6222 H 578.943 -1.34608 -4.02066 0
M  V30 6223 C 577.402 -0.0103164 -3.36898 0
M  V30 6224 O 577.932 0.950707 -3.90288 0
M  V30 6225 N 576.138 0.0608409 -2.90536 0
M  V30 6226 H 575.685 -0.721943 -2.47277 0
M  V30 6227 H 575.643 0.92292 -3.00549 0
M  V30 6228 N 579.415 0.9433 -1.26252 0
M  V30 6229 C 580.645 1.72117 -1.14277 0
M  V30 6230 C 581.053 1.86726 0.304944 0
M  V30 6231 O 580.396 1.3727 1.22076 0
M  V30 6232 C 580.458 3.14778 -1.73651 0
M  V30 6233 C 580.122 3.23561 -3.22734 0
M  V30 6234 C 581.119 3.07001 -4.19579 0
M  V30 6235 C 578.804 3.47019 -3.63157 0
M  V30 6236 C 580.798 3.13763 -5.54826 0
M  V30 6237 C 578.485 3.53416 -4.98538 0
M  V30 6238 C 579.483 3.36804 -5.94182 0
M  V30 6239 O 579.171 3.42906 -7.27098 0
M  V30 6240 H 578.903 0.545781 -0.398873 0
M  V30 6241 H 581.457 1.19123 -1.67328 0
M  V30 6242 H 579.687 3.69186 -1.1506 0
M  V30 6243 H 581.376 3.74469 -1.56613 0
M  V30 6244 H 582.142 2.88736 -3.89688 0
M  V30 6245 H 578.021 3.59006 -2.89199 0
M  V30 6246 H 581.565 3.00714 -6.29458 0
M  V30 6247 H 577.462 3.71201 -5.28091 0
M  V30 6248 H 578.23 3.59463 -7.35342 0
M  V30 6249 N 580.893 1.08022 1.14757 0
M  V30 6250 C 582.123 0.827646 1.89298 0
M  V30 6251 C 582.531 -0.623506 1.78631 0
M  V30 6252 O 581.874 -1.43991 1.14071 0
M  V30 6253 C 581.936 1.16553 3.40082 0
M  V30 6254 C 581.6 2.61866 3.74533 0
M  V30 6255 C 582.597 3.60116 3.74984 0
M  V30 6256 C 580.282 2.97619 4.04633 0
M  V30 6257 C 582.276 4.92151 4.05051 0
M  V30 6258 C 579.963 4.2985 4.34364 0
M  V30 6259 C 580.961 5.26926 4.34555 0
M  V30 6260 O 580.649 6.5678 4.63568 0
M  V30 6261 H 580.381 0.298396 0.606577 0
M  V30 6262 H 582.935 1.44187 1.46285 0
M  V30 6263 H 581.165 0.494296 3.83528 0
M  V30 6264 H 582.854 0.894407 3.95923 0
M  V30 6265 H 583.62 3.33837 3.51821 0
M  V30 6266 H 579.499 2.22702 4.03639 0
M  V30 6267 H 583.043 5.67915 4.05115 0
M  V30 6268 H 578.94 4.55879 4.56995 0
M  V30 6269 H 579.708 6.62035 4.81303 0
M  V30 6270 N 582.371 -1.3172 0.865308 0
M  V30 6271 C 583.596 -2.01591 0.487415 0
M  V30 6272 C 584.021 -1.6455 -0.911307 0
M  V30 6273 O 583.379 -0.851689 -1.6005 0
M  V30 6274 C 583.427 -3.54759 0.646401 0
M  V30 6275 O 582.531 -4.11185 -0.316284 0
M  V30 6276 H 581.872 -0.634884 0.194468 0
M  V30 6277 H 584.402 -1.68024 1.16744 0
M  V30 6278 H 584.412 -4.04438 0.537932 0
M  V30 6279 H 583.087 -3.8106 1.66632 0
M  V30 6280 H 581.664 -3.72543 -0.163162 0
M  V30 6281 N 583.85 -0.624285 -1.44708 0
M  V30 6282 C 584.798 0.0969952 -2.32398 0
M  V30 6283 C 585.792 0.842762 -1.46949 0
M  V30 6284 O 586.998 0.756436 -1.63334 0
M  V30 6285 H 583.373 0.0501306 -0.750327 0
M  V30 6286 H 585.344 -0.660767 -2.90992 0
M  V30 6287 C 584.093 1.06967 -3.30837 0
M  V30 6288 H 583.416 0.505242 -3.96595 0
M  V30 6289 H 584.856 1.54397 -3.94889 0
M  V30 6290 C 583.315 2.15153 -2.5925 0
M  V30 6291 O 583.845 3.23139 -2.3863 0
M  V30 6292 N 582.051 1.90898 -2.19103 0
M  V30 6293 H 581.598 1.03086 -2.36074 0
M  V30 6294 H 581.556 2.63485 -1.71531 0
M  V30 6295 N 585.328 1.53329 -0.364422 0
M  V30 6296 C 586.291 2.24323 0.470292 0
M  V30 6297 C 587.291 1.25068 1.01067 0
M  V30 6298 O 588.481 1.49354 0.896605 0
M  V30 6299 C 585.613 2.97908 1.65722 0
M  V30 6300 H 586.806 2.9952 -0.150917 0
M  V30 6301 H 584.359 1.55868 -0.116092 0
M  V30 6302 H 585.094 2.2695 2.31655 0
M  V30 6303 H 584.879 3.70732 1.27671 0
M  V30 6304 H 586.369 3.5188 2.24878 0
M  V30 6305 N 586.806 0.0935595 1.57322 0
M  V30 6306 C 588.034 -0.578934 1.98635 0
M  V30 6307 C 588.449 -1.61819 0.972626 0
M  V30 6308 O 587.806 -1.82461 -0.0379638 0
M  V30 6309 C 587.857 -1.22802 3.40003 0
M  V30 6310 O 587.578 -0.230334 4.37494 0
M  V30 6311 C 589.079 -1.98627 3.96311 0
M  V30 6312 H 586.299 -0.155324 0.652775 0
M  V30 6313 H 588.843 0.172393 2.03772 0
M  V30 6314 H 586.998 -1.93029 3.35885 0
M  V30 6315 H 587.412 -0.698649 5.19826 0
M  V30 6316 H 588.886 -2.39405 4.97382 0
M  V30 6317 H 589.363 -2.85151 3.34044 0
M  V30 6318 H 589.969 -1.3322 4.03897 0
M  V30 6319 N 588.284 -1.56567 -0.180126 0
M  V30 6320 C 589.512 -1.85618 -0.913972 0
M  V30 6321 C 589.927 -0.677892 -1.7621 0
M  V30 6322 O 589.284 0.353171 -1.7905 0
M  V30 6323 C 589.335 -3.13619 -1.79793 0
M  V30 6324 O 589.056 -4.26906 -0.98402 0
M  V30 6325 C 590.557 -3.55954 -2.64219 0
M  V30 6326 H 587.777 -0.616043 -0.265954 0
M  V30 6327 H 590.321 -2.03681 -0.182872 0
M  V30 6328 H 588.476 -2.97409 -2.48247 0
M  V30 6329 H 588.89 -4.9989 -1.58776 0
M  V30 6330 H 590.364 -4.48444 -3.21873 0
M  V30 6331 H 590.841 -2.79653 -3.38661 0
M  V30 6332 H 591.447 -3.74746 -2.01111 0
M  V30 6333 N 589.762 0.448376 -1.51087 0
M  V30 6334 C 591.039 1.20926 -1.53741 0
M  V30 6335 C 591.419 2.09025 -0.295222 0
M  V30 6336 O 590.767 2.16851 0.720283 0
M  V30 6337 C 590.977 2.02067 -2.84552 0
M  V30 6338 C 592.325 2.59486 -3.36084 0
M  V30 6339 O 593.349 2.12289 -2.86028 0
M  V30 6340 O 592.208 3.45539 -4.23397 0
M  V30 6341 H 589.302 0.549951 -0.617643 0
M  V30 6342 H 591.848 0.458344 -1.63393 0
M  V30 6343 H 590.62 1.37291 -3.66425 0
M  V30 6344 H 590.243 2.84246 -2.78011 0
M  V30 6345 N 591.24 1.41047 0.703093 0
M  V30 6346 C 592.15 1.44645 1.84703 0
M  V30 6347 C 593.166 0.337778 1.7069 0
M  V30 6348 O 594.342 0.584327 1.92737 0
M  V30 6349 C 591.407 1.31928 3.20618 0
M  V30 6350 C 590.468 2.53047 3.46794 0
M  V30 6351 C 589.701 2.40927 4.76224 0
M  V30 6352 O 589.924 1.42978 5.5219 0
M  V30 6353 O 588.858 3.30543 5.03016 0
M  V30 6354 H 592.684 2.41139 1.84624 0
M  V30 6355 H 590.269 1.22504 0.855167 0
M  V30 6356 H 592.151 1.27092 4.01778 0
M  V30 6357 H 590.826 0.385469 3.21397 0
M  V30 6358 H 589.733 2.6346 2.65593 0
M  V30 6359 H 591.066 3.45231 3.50822 0
M  V30 6360 N 592.718 -0.936591 1.26751 0
M  V30 6361 C 593.668 -2.0219 1.05371 0
M  V30 6362 C 594.652 -1.60893 -0.0154112 0
M  V30 6363 O 595.844 -1.75843 0.202085 0
M  V30 6364 C 592.973 -3.36222 0.693541 0
M  V30 6365 C 592.059 -3.8399 1.80035 0
M  V30 6366 N 592.45 -4.0436 3.03852 0
M  V30 6367 C 590.748 -4.12945 1.685 0
M  V30 6368 C 591.449 -4.44 3.75818 0
M  V30 6369 N 590.425 -4.50966 3.03531 0
M  V30 6370 H 594.227 -2.15958 1.99347 0
M  V30 6371 H 591.741 -1.12277 1.17335 0
M  V30 6372 H 593.738 -4.13625 0.521513 0
M  V30 6373 H 592.398 -3.23821 -0.238693 0
M  V30 6374 H 593.409 -3.9092 3.39709 0
M  V30 6375 H 590.086 -4.09308 0.822986 0
M  V30 6376 H 591.476 -4.67914 4.82189 0
M  V30 6377 N 594.196 -1.08629 -1.14182 0
M  V30 6378 C 595.444 -0.815731 -1.84906 0
M  V30 6379 C 595.765 0.660441 -1.83475 0
M  V30 6380 O 595.035 1.47888 -1.28476 0
M  V30 6381 H 593.615 -0.298773 -0.684648 0
M  V30 6382 H 596.277 -1.37274 -1.38354 0
M  V30 6383 H 595.373 -1.16193 -2.89665 0
M  V30 6384 N 595.674 1.31259 -0.872281 0
M  V30 6385 C 596.604 2.30929 -0.345554 0
M  V30 6386 C 597.585 1.60449 0.5648 0
M  V30 6387 O 598.77 1.8814 0.481335 0
M  V30 6388 C 595.9 3.44348 0.451823 0
M  V30 6389 C 594.854 4.26435 -0.365641 0
M  V30 6390 C 594.18 5.31785 0.557562 0
M  V30 6391 C 595.48 4.97159 -1.60095 0
M  V30 6392 H 597.174 2.75234 -1.17841 0
M  V30 6393 H 594.72 1.3232 -0.568094 0
M  V30 6394 H 596.673 4.13128 0.830854 0
M  V30 6395 H 595.397 2.98816 1.31821 0
M  V30 6396 H 594.056 3.59326 -0.726649 0
M  V30 6397 H 593.704 4.82502 1.4213 0
M  V30 6398 H 593.404 5.87598 0.0144878 0
M  V30 6399 H 594.928 6.03424 0.933387 0
M  V30 6400 H 596.342 5.58523 -1.29323 0
M  V30 6401 H 594.739 5.62779 -2.08327 0
M  V30 6402 H 595.809 4.24012 -2.35249 0
M  V30 6403 N 597.152 0.631951 1.44375 0
M  V30 6404 C 598.398 0.13697 2.02337 0
M  V30 6405 C 598.731 -1.23826 1.49602 0
M  V30 6406 O 598.006 -1.8221 0.680415 0
M  V30 6407 C 598.289 0.124536 3.59885 0
M  V30 6408 C 598.142 1.53217 4.229 0
M  V30 6409 C 599.461 -0.550481 4.36644 0
M  V30 6410 H 596.58 0.051247 0.735216 0
M  V30 6411 H 599.222 0.808581 1.71936 0
M  V30 6412 H 597.372 -0.44737 3.85916 0
M  V30 6413 H 599.044 2.15303 4.07973 0
M  V30 6414 H 597.287 2.0858 3.80364 0
M  V30 6415 H 597.958 1.4755 5.31914 0
M  V30 6416 H 600.434 -0.0641154 4.16051 0
M  V30 6417 H 599.31 -0.528371 5.46351 0
M  V30 6418 H 599.571 -1.62097 4.11311 0
M  V30 6419 N 598.631 -1.53133 0.372548 0
M  V30 6420 C 599.563 -2.23557 -0.505444 0
M  V30 6421 C 600.576 -1.25211 -1.04049 0
M  V30 6422 O 601.765 -1.51391 -0.945675 0
M  V30 6423 C 598.865 -2.92516 -1.71136 0
M  V30 6424 C 598.038 -4.17428 -1.30661 0
M  V30 6425 C 597.097 -4.69535 -2.37536 0
M  V30 6426 O 596.123 -5.33042 -1.99637 0
M  V30 6427 N 597.325 -4.47947 -3.6922 0
M  V30 6428 H 600.09 -2.9954 0.0978259 0
M  V30 6429 H 597.651 -1.60684 0.198068 0
M  V30 6430 H 599.643 -3.24281 -2.42124 0
M  V30 6431 H 598.213 -2.19944 -2.22134 0
M  V30 6432 H 597.433 -3.91888 -0.426292 0
M  V30 6433 H 598.721 -4.98622 -1.01259 0
M  V30 6434 H 598.119 -3.97219 -4.02783 0
M  V30 6435 H 596.676 -4.84245 -4.36292 0
M  V30 6436 N 600.109 -0.101901 -1.5727 0
M  V30 6437 C 601.356 0.560197 -1.94597 0
M  V30 6438 C 601.684 1.67767 -0.984101 0
M  V30 6439 O 600.939 1.95699 -0.00489193 0
M  V30 6440 C 601.238 1.14898 -3.38427 0
M  V30 6441 C 600.904 0.154613 -4.50635 0
M  V30 6442 C 599.566 -0.118861 -4.81053 0
M  V30 6443 C 601.918 -0.523979 -5.18559 0
M  V30 6444 C 599.246 -1.0775 -5.76721 0
M  V30 6445 C 601.598 -1.47114 -6.15256 0
M  V30 6446 C 600.262 -1.75278 -6.44076 0
M  V30 6447 H 599.532 0.204991 -0.712081 0
M  V30 6448 H 602.179 -0.17918 -1.9066 0
M  V30 6449 H 600.484 1.96476 -3.38976 0
M  V30 6450 H 602.181 1.66909 -3.64613 0
M  V30 6451 H 598.771 0.377948 -4.2693 0
M  V30 6452 H 602.955 -0.325851 -4.95229 0
M  V30 6453 H 598.211 -1.30263 -5.97362 0
M  V30 6454 H 602.385 -2.00274 -6.66981 0
M  V30 6455 H 600.012 -2.49717 -7.18015 0
M  V30 6456 N 601.587 1.56661 0.17182 0
M  V30 6457 C 602.812 1.86459 0.908165 0
M  V30 6458 C 603.237 0.688181 1.75059 0
M  V30 6459 O 602.595 -0.362753 1.77634 0
M  V30 6460 C 602.643 3.14669 1.76112 0
M  V30 6461 O 601.747 2.96858 2.86268 0
M  V30 6462 H 601.088 0.613318 0.254434 0
M  V30 6463 H 603.618 2.03892 0.170113 0
M  V30 6464 H 603.628 3.46061 2.16115 0
M  V30 6465 H 602.303 3.99905 1.14233 0
M  V30 6466 H 600.88 2.76819 2.49852 0
M  V30 6467 N 603.065 -0.440357 1.51323 0
M  V30 6468 C 604.314 -1.18697 1.63076 0
M  V30 6469 C 604.627 -1.92418 0.35136 0
M  V30 6470 O 605.833 -2.69258 0.348221 0
M  V30 6471 C 604.289 -2.15849 2.87988 0
M  V30 6472 C 603.897 -1.47789 4.22921 0
M  V30 6473 C 605.641 -2.90962 3.09098 0
M  V30 6474 C 603.548 -2.43407 5.38987 0
M  V30 6475 H 602.478 -0.44676 0.607389 0
M  V30 6476 H 605.129 -0.454313 1.77787 0
M  V30 6477 H 603.511 -2.92537 2.66905 0
M  V30 6478 H 604.685 -0.7668 4.54375 0
M  V30 6479 H 603 -0.848404 4.07665 0
M  V30 6480 H 605.597 -3.62584 3.92985 0
M  V30 6481 H 605.94 -3.52133 2.22053 0
M  V30 6482 H 606.473 -2.21381 3.30507 0
M  V30 6483 H 603.212 -1.86929 6.28282 0
M  V30 6484 H 602.732 -3.12579 5.11913 0
M  V30 6485 H 604.411 -3.046 5.70813 0
M  V30 6486 N 604.543 -1.41418 -0.695603 0
M  V30 6487 C 605.491 -1.43467 -1.83084 0
M  V30 6488 C 606.485 -0.312719 -1.66489 0
M  V30 6489 O 607.691 -0.484744 -1.7335 0
M  V30 6490 H 604.066 -0.448891 -0.603325 0
M  V30 6491 H 606.037 -2.39144 -1.78473 0
M  V30 6492 C 604.786 -1.3337 -3.21104 0
M  V30 6493 H 604.109 -2.18989 -3.3449 0
M  V30 6494 H 605.549 -1.38865 -4.00615 0
M  V30 6495 C 604.008 -0.0460484 -3.36869 0
M  V30 6496 O 604.538 0.909258 -3.91274 0
M  V30 6497 N 602.744 0.0300222 -2.90584 0
M  V30 6498 H 602.291 -0.748129 -2.46497 0
M  V30 6499 H 602.249 0.890991 -3.01511 0
M  V30 6500 N 606.021 0.929856 -1.27246 0
M  V30 6501 C 607.249 1.71144 -1.16265 0
M  V30 6502 C 607.664 1.867 0.280786 0
M  V30 6503 O 607.021 1.38249 1.19136 0
M  V30 6504 C 607.072 3.11222 -1.83911 0
M  V30 6505 O 606.793 2.96398 -3.22614 0
M  V30 6506 C 608.294 4.05541 -1.79028 0
M  V30 6507 H 605.514 0.535499 -0.404328 0
M  V30 6508 H 608.058 1.16492 -1.68077 0
M  V30 6509 H 606.213 3.6274 -1.36009 0
M  V30 6510 H 606.627 3.8494 -3.56261 0
M  V30 6511 H 608.101 5.01351 -2.30978 0
M  V30 6512 H 608.578 4.32589 -0.759168 0
M  V30 6513 H 609.184 3.59947 -2.26535 0
M  V30 6514 N 607.499 1.09233 1.13605 0
M  V30 6515 C 608.727 0.848908 1.88683 0
M  V30 6516 C 609.142 -0.599667 1.79024 0
M  V30 6517 O 608.499 -1.41265 1.15544 0
M  V30 6518 C 608.55 1.27273 3.38355 0
M  V30 6519 O 608.271 2.66449 3.47759 0
M  V30 6520 C 609.772 1.0614 4.30406 0
M  V30 6521 H 606.992 0.305549 0.597395 0
M  V30 6522 H 609.536 1.4538 1.43823 0
M  V30 6523 H 607.691 0.711776 3.80805 0
M  V30 6524 H 608.105 2.84264 4.40788 0
M  V30 6525 H 609.579 1.40725 5.33761 0
M  V30 6526 H 610.056 -0.000960332 4.392 0
M  V30 6527 H 610.662 1.60821 3.93722 0
M  V30 6528 N 608.977 -1.30795 0.87923 0
M  V30 6529 C 609.925 -2.30231 0.331112 0
M  V30 6530 C 610.919 -1.59918 -0.558794 0
M  V30 6531 O 612.125 -1.74441 -0.443866 0
M  V30 6532 H 608.5 -0.746785 0.088409 0
M  V30 6533 H 610.471 -2.73925 1.18353 0
M  V30 6534 C 609.22 -3.44848 -0.444401 0
M  V30 6535 H 608.543 -3.99131 0.231106 0
M  V30 6536 H 609.983 -4.16516 -0.793109 0
M  V30 6537 C 608.442 -2.94329 -1.63926 0
M  V30 6538 O 608.972 -2.93875 -2.73862 0
M  V30 6539 N 607.178 -2.50413 -1.4745 0
M  V30 6540 H 606.725 -2.50982 -0.58015 0
M  V30 6541 H 606.683 -2.16969 -2.27534 0
M  V30 6542 N 610.455 -0.639598 -1.44038 0
M  V30 6543 C 611.701 -0.147698 -2.02261 0
M  V30 6544 C 612.034 1.23031 -1.50256 0
M  V30 6545 O 611.309 1.81847 -0.690068 0
M  V30 6546 C 611.592 -0.14362 -3.59813 0
M  V30 6547 C 611.445 -1.55458 -4.22082 0
M  V30 6548 C 612.764 0.527317 -4.36929 0
M  V30 6549 H 609.883 -0.0551453 -0.734934 0
M  V30 6550 H 612.525 -0.817688 -1.71505 0
M  V30 6551 H 610.675 0.426898 -3.86147 0
M  V30 6552 H 612.347 -2.17464 -4.06826 0
M  V30 6553 H 610.59 -2.10594 -3.79253 0
M  V30 6554 H 611.261 -1.50369 -5.31124 0
M  V30 6555 H 613.737 0.0420504 -4.16079 0
M  V30 6556 H 612.613 0.499389 -5.46624 0
M  V30 6557 H 612.874 1.59914 -4.12165 0
M  V30 6558 N 611.933 1.52934 -0.380664 0
M  V30 6559 C 612.866 2.22597 0.502564 0
M  V30 6560 C 613.844 1.22345 1.071 0
M  V30 6561 O 615.028 1.51302 1.12428 0
M  V30 6562 C 612.155 2.93246 1.69482 0
M  V30 6563 C 611.201 4.07696 1.25244 0
M  V30 6564 S 612.034 5.34957 0.241159 0
M  V30 6565 C 613.19 6.09124 1.4394 0
M  V30 6566 H 613.423 2.97167 -0.089029 0
M  V30 6567 H 610.956 1.53518 -0.164817 0
M  V30 6568 H 612.914 3.34562 2.37863 0
M  V30 6569 H 611.575 2.18373 2.2577 0
M  V30 6570 H 610.768 4.56199 2.1424 0
M  V30 6571 H 610.37 3.68349 0.647664 0
M  V30 6572 H 612.662 6.34771 2.36794 0
M  V30 6573 H 613.605 7.01068 0.995464 0
M  V30 6574 H 614.013 5.39777 1.65229 0
M  V30 6575 N 613.412 0.11024 1.57214 0
M  V30 6576 C 614.66 -0.548783 1.94506 0
M  V30 6577 C 614.981 -1.67772 0.99386 0
M  V30 6578 O 614.251 -1.9584 0.0485841 0
M  V30 6579 H 612.831 -0.205715 0.718116 0
M  V30 6580 H 615.493 0.177127 1.94093 0
M  V30 6581 H 614.589 -0.949096 2.97319 0
M  V30 6582 N 614.89 -1.56749 -0.16351 0
M  V30 6583 C 616.118 -1.86577 -0.894233 0
M  V30 6584 C 616.533 -0.696543 -1.75481 0
M  V30 6585 O 615.89 0.334161 -1.79415 0
M  V30 6586 C 615.941 -3.15508 -1.76456 0
M  V30 6587 O 615.662 -4.27926 -0.938685 0
M  V30 6588 C 617.163 -3.58737 -2.60428 0
M  V30 6589 H 614.383 -0.618829 -0.259405 0
M  V30 6590 H 616.927 -2.03863 -0.161259 0
M  V30 6591 H 615.082 -3.00025 -2.45079 0
M  V30 6592 H 615.496 -5.01546 -1.53465 0
M  V30 6593 H 616.97 -4.51832 -3.17099 0
M  V30 6594 H 617.447 -2.83229 -3.35675 0
M  V30 6595 H 618.053 -3.76858 -1.97125 0
M  V30 6596 N 616.368 0.432326 -1.51554 0
M  V30 6597 C 617.593 1.20824 -1.68571 0
M  V30 6598 C 618.018 1.84126 -0.384596 0
M  V30 6599 O 617.376 1.69025 0.655751 0
M  V30 6600 C 617.424 2.26429 -2.80646 0
M  V30 6601 O 616.528 3.32032 -2.44598 0
M  V30 6602 H 615.869 0.353765 -0.561913 0
M  V30 6603 H 618.399 0.509916 -1.98144 0
M  V30 6604 H 618.409 2.71133 -3.04878 0
M  V30 6605 H 617.084 1.79733 -3.75058 0
M  V30 6606 H 615.661 2.92769 -2.30956 0
M  V30 6607 N 617.846 1.41785 0.688094 0
M  V30 6608 C 618.776 1.47 1.8142 0
M  V30 6609 C 619.757 0.327881 1.6691 0
M  V30 6610 O 620.942 0.540362 1.86531 0
M  V30 6611 C 618.072 1.35876 3.19617 0
M  V30 6612 C 617.026 2.47976 3.48844 0
M  V30 6613 C 616.352 2.21915 4.86475 0
M  V30 6614 C 617.652 3.90309 3.47068 0
M  V30 6615 H 619.346 2.41247 1.77314 0
M  V30 6616 H 616.892 1.16116 0.851651 0
M  V30 6617 H 618.845 1.38134 3.98117 0
M  V30 6618 H 617.569 0.38116 3.24368 0
M  V30 6619 H 616.228 2.45013 2.72698 0
M  V30 6620 H 615.876 1.2248 4.8786 0
M  V30 6621 H 615.576 2.97037 5.06994 0
M  V30 6622 H 617.1 2.25901 5.67275 0
M  V30 6623 H 618.514 3.94947 4.1556 0
M  V30 6624 H 616.911 4.65175 3.7912 0
M  V30 6625 H 617.981 4.17927 2.45896 0
M  V30 6626 N 619.324 -0.923095 1.27737 0
M  V30 6627 C 620.552 -1.70525 1.17171 0
M  V30 6628 C 620.967 -1.86847 -0.270881 0
M  V30 6629 O 620.324 -1.38879 -1.18401 0
M  V30 6630 C 620.375 -3.10242 1.85559 0
M  V30 6631 O 620.096 -2.94683 3.24182 0
M  V30 6632 C 621.597 -4.04586 1.81176 0
M  V30 6633 H 618.817 -0.533347 0.407163 0
M  V30 6634 H 621.361 -1.15599 1.68692 0
M  V30 6635 H 619.516 -3.62014 1.3793 0
M  V30 6636 H 619.93 -3.83045 3.58297 0
M  V30 6637 H 621.404 -5.00119 2.33633 0
M  V30 6638 H 621.881 -4.3218 0.782099 0
M  V30 6639 H 622.487 -3.58741 2.2844 0
M  V30 6640 N 620.802 -1.09834 -1.13024 0
M  V30 6641 C 622.048 -0.83819 -1.84668 0
M  V30 6642 C 622.381 0.634645 -1.83537 0
M  V30 6643 O 621.656 1.46753 -1.27647 0
M  V30 6644 C 621.939 -1.37933 -3.32636 0
M  V30 6645 C 621.792 -2.91857 -3.42257 0
M  V30 6646 C 623.111 -1.01654 -4.28199 0
M  V30 6647 H 620.23 -0.30595 -0.670495 0
M  V30 6648 H 622.872 -1.36044 -1.32635 0
M  V30 6649 H 621.022 -0.935111 -3.77078 0
M  V30 6650 H 622.694 -3.44759 -3.06495 0
M  V30 6651 H 620.937 -3.28776 -2.83 0
M  V30 6652 H 621.608 -3.24799 -4.46329 0
M  V30 6653 H 624.084 -1.39973 -3.9185 0
M  V30 6654 H 622.96 -1.42217 -5.30156 0
M  V30 6655 H 623.221 0.0747794 -4.42037 0
M  V30 6656 N 622.28 1.30327 -0.886154 0
M  V30 6657 C 623.696 1.48676 -0.580323 0
M  V30 6658 C 623.896 1.81189 0.881639 0
M  V30 6659 O 622.952 1.90021 1.66278 0
M  V30 6660 C 624.265 2.60932 -1.49449 0
M  V30 6661 C 625.813 2.74812 -1.49824 0
M  V30 6662 C 626.288 3.90183 -2.39836 0
M  V30 6663 N 627.779 3.97495 -2.37806 0
M  V30 6664 C 628.514 4.86078 -3.04165 0
M  V30 6665 N 628.01 5.79448 -3.79753 0
M  V30 6666 N 629.803 4.79456 -2.93391 0
M  V30 6667 H 621.954 1.07495 -1.8319 0
M  V30 6668 H 624.217 0.532661 -0.784204 0
M  V30 6669 H 623.923 2.43731 -2.5355 0
M  V30 6670 H 623.797 3.57437 -1.20494 0
M  V30 6671 H 626.184 2.91418 -0.464731 0
M  V30 6672 H 626.265 1.78924 -1.82811 0
M  V30 6673 H 625.909 3.74334 -3.43273 0
M  V30 6674 H 625.839 4.85411 -2.04166 0
M  V30 6675 H 628.33 3.30703 -1.82877 0
M  V30 6676 H 628.643 6.43805 -4.27475 0
M  V30 6677 H 626.988 5.79376 -3.8386 0
M  V30 6678 H 630.179 4.05494 -2.33864 0
M  V30 6679 H 630.352 5.48283 -3.45383 0
M  V30 6680 N 623.758 0.647228 1.43697 0
M  V30 6681 C 625.004 0.158422 2.0218 0
M  V30 6682 C 625.337 -1.22233 1.50907 0
M  V30 6683 O 624.612 -1.81478 0.699702 0
M  V30 6684 C 624.895 0.1627 3.59732 0
M  V30 6685 C 624.748 1.57694 4.21251 0
M  V30 6686 C 626.067 -0.504138 4.37203 0
M  V30 6687 H 623.186 0.059042 0.734631 0
M  V30 6688 H 625.828 0.826772 1.71069 0
M  V30 6689 H 623.978 -0.406414 3.86368 0
M  V30 6690 H 625.65 2.19618 4.05667 0
M  V30 6691 H 623.893 2.12603 3.7813 0
M  V30 6692 H 624.564 1.53183 5.3032 0
M  V30 6693 H 627.04 -0.0199841 4.16095 0
M  V30 6694 H 625.916 -0.470394 5.46881 0
M  V30 6695 H 626.177 -1.57726 4.13007 0
M  V30 6696 N 625.236 -1.5273 0.388769 0
M  V30 6697 C 626.184 -2.27975 -0.461527 0
M  V30 6698 C 627.178 -1.31854 -1.06352 0
M  V30 6699 O 628.384 -1.49394 -1.00406 0
M  V30 6700 H 624.759 -0.733088 -0.16759 0
M  V30 6701 H 626.73 -2.97765 0.194579 0
M  V30 6702 C 625.479 -3.09881 -1.577 0
M  V30 6703 H 624.802 -3.83701 -1.12309 0
M  V30 6704 H 626.242 -3.6567 -2.14619 0
M  V30 6705 C 624.701 -2.22159 -2.53272 0
M  V30 6706 O 625.231 -1.84802 -3.56667 0
M  V30 6707 N 623.437 -1.8633 -2.23001 0
M  V30 6708 H 622.984 -2.16909 -1.38954 0
M  V30 6709 H 622.942 -1.27927 -2.87197 0
M  V30 6710 N 626.714 -0.118576 -1.57153 0
M  V30 6711 C 627.944 0.546466 -1.99242 0
M  V30 6712 C 628.352 1.60791 -0.997148 0
M  V30 6713 O 627.695 1.83691 0.0181745 0
M  V30 6714 C 627.757 1.23167 -3.37743 0
M  V30 6715 C 627.421 0.318226 -4.55891 0
M  V30 6716 C 628.418 -0.442988 -5.18009 0
M  V30 6717 C 626.103 0.229421 -5.01776 0
M  V30 6718 C 628.097 -1.28074 -6.244 0
M  V30 6719 C 625.784 -0.611966 -6.08028 0
M  V30 6720 C 626.782 -1.36568 -6.69207 0
M  V30 6721 O 626.47 -2.1931 -7.73407 0
M  V30 6722 H 626.202 0.149297 -0.659307 0
M  V30 6723 H 628.756 -0.201603 -2.04408 0
M  V30 6724 H 626.986 2.0268 -3.29329 0
M  V30 6725 H 628.675 1.79358 -3.64123 0
M  V30 6726 H 629.441 -0.38425 -4.83475 0
M  V30 6727 H 625.32 0.805771 -4.53903 0
M  V30 6728 H 628.864 -1.86952 -6.72082 0
M  V30 6729 H 624.761 -0.6721 -6.41991 0
M  V30 6730 H 625.529 -2.12247 -7.90502 0
M  V30 6731 N 628.193 1.56834 0.155195 0
M  V30 6732 C 629.14 1.97646 1.19184 0
M  V30 6733 C 630.11 0.842788 1.4313 0
M  V30 6734 O 631.295 1.1042 1.55602 0
M  V30 6735 C 628.435 2.35527 2.52232 0
M  V30 6736 C 627.548 3.62147 2.35529 0
M  V30 6737 C 626.683 3.89167 3.61555 0
M  V30 6738 C 625.722 5.09084 3.39853 0
M  V30 6739 N 624.859 5.32156 4.5799 0
M  V30 6740 H 629.699 2.8601 0.836802 0
M  V30 6741 H 627.236 1.41507 0.401758 0
M  V30 6742 H 629.194 2.55516 3.29799 0
M  V30 6743 H 627.824 1.50253 2.85699 0
M  V30 6744 H 626.876 3.4998 1.49057 0
M  V30 6745 H 628.188 4.49871 2.15448 0
M  V30 6746 H 627.342 4.09611 4.47553 0
M  V30 6747 H 626.081 2.9985 3.84632 0
M  V30 6748 H 625.086 4.88522 2.52243 0
M  V30 6749 H 626.311 5.99947 3.18183 0
M  V30 6750 H 624.257 4.45791 4.81255 0
M  V30 6751 H 624.174 6.14133 4.40882 0
M  V30 6752 H 625.442 5.57091 5.45225 0
M  V30 6753 N 629.671 -0.424282 1.51781 0
M  V30 6754 C 630.948 -1.18464 1.55646 0
M  V30 6755 C 631.328 -2.08529 0.328438 0
M  V30 6756 O 630.676 -2.17969 -0.685693 0
M  V30 6757 C 630.886 -1.97514 2.87731 0
M  V30 6758 C 632.234 -2.54106 3.40169 0
M  V30 6759 O 633.258 -2.07711 2.89369 0
M  V30 6760 O 632.117 -3.38759 4.28841 0
M  V30 6761 H 629.211 -0.540055 0.626314 0
M  V30 6762 H 631.757 -0.432291 1.64102 0
M  V30 6763 H 630.529 -1.31444 3.68562 0
M  V30 6764 H 630.152 -2.79787 2.82498 0
M  V30 6765 N 631.149 -1.42148 -0.680565 0
M  V30 6766 C 632.565 -1.24947 -0.992995 0
M  V30 6767 C 632.765 -0.149527 -2.00944 0
M  V30 6768 O 631.821 0.481145 -2.47873 0
M  V30 6769 C 633.134 -2.60426 -1.5033 0
M  V30 6770 C 634.682 -2.67733 -1.62137 0
M  V30 6771 C 635.157 -4.03564 -2.16565 0
M  V30 6772 N 636.648 -4.05488 -2.23905 0
M  V30 6773 C 637.383 -5.07401 -2.67081 0
M  V30 6774 N 636.879 -6.19698 -3.09751 0
M  V30 6775 N 638.672 -4.94758 -2.66778 0
M  V30 6776 H 630.823 -2.12399 -0.0074788 0
M  V30 6777 H 633.086 -0.94571 -0.0658529 0
M  V30 6778 H 632.792 -3.41743 -0.830947 0
M  V30 6779 H 632.666 -2.83949 -2.483 0
M  V30 6780 H 635.053 -1.86765 -2.2848 0
M  V30 6781 H 635.134 -2.48004 -0.626713 0
M  V30 6782 H 634.778 -4.84987 -1.50833 0
M  V30 6783 H 634.708 -4.20641 -3.1681 0
M  V30 6784 H 637.199 -3.24415 -1.93812 0
M  V30 6785 H 637.512 -6.93318 -3.41365 0
M  V30 6786 H 635.857 -6.23212 -3.07623 0
M  V30 6787 H 639.048 -4.06105 -2.32801 0
M  V30 6788 H 639.221 -5.74317 -3.00107 0
M  V30 6789 N 632.627 0.916307 -1.28225 0
M  V30 6790 C 633.852 1.7043 -1.18188 0
M  V30 6791 C 634.277 1.86346 0.256274 0
M  V30 6792 O 633.635 1.37175 1.18544 0
M  V30 6793 C 633.683 3.07546 -1.88275 0
M  V30 6794 O 632.787 3.94904 -1.18848 0
M  V30 6795 H 632.128 0.521967 -0.410423 0
M  V30 6796 H 634.658 1.14589 -1.69501 0
M  V30 6797 H 634.668 3.57793 -1.96082 0
M  V30 6798 H 633.343 2.95279 -2.92887 0
M  V30 6799 H 631.92 3.53339 -1.19187 0
M  V30 6800 N 634.105 1.10431 1.1244 0
M  V30 6801 C 635.516 0.864439 1.65482 0
M  V30 6802 C 635.867 -0.60527 1.8663 0
M  V30 6803 O 634.992 -1.46492 1.59276 0
M  V30 6804 C 635.587 1.56267 3.0061 0
M  V30 6805 C 634.146 1.3695 3.50602 0
M  V30 6806 C 633.293 1.61209 2.25626 0
M  V30 6807 H 636.244 1.26203 0.962209 0
M  V30 6808 H 636.265 1.00166 3.67079 0
M  V30 6809 H 635.777 2.63231 2.85186 0
M  V30 6810 H 633.878 0.321481 3.71211 0
M  V30 6811 H 633.991 2.11143 4.30064 0
M  V30 6812 H 632.355 1.03482 2.32731 0
M  V30 6813 H 633.138 2.69425 2.12756 0
M  V30 6814 N 635.583 -1.29855 0.893053 0
M  V30 6815 C 636.823 -1.97612 0.522399 0
M  V30 6816 C 637.187 -1.68903 -0.913 0
M  V30 6817 O 638.388 -2.30059 -1.39019 0
M  V30 6818 C 636.659 -3.48356 0.79893 0
M  V30 6819 S 638.218 -4.35568 0.531588 0
M  V30 6820 H 635.036 -0.684005 0.194058 0
M  V30 6821 H 637.638 -1.57803 1.15406 0
M  V30 6822 H 636.342 -3.66743 1.84196 0
M  V30 6823 H 635.873 -3.93094 0.155133 0
M  V30 6824 H 637.888 -4.92232 -0.626295 0
M  V30 6825 N 637.061 -0.65484 -1.43351 0
M  V30 6826 C 638.291 -0.176429 -2.05845 0
M  V30 6827 C 638.699 1.16375 -1.49176 0
M  V30 6828 O 638.042 1.72981 -0.618322 0
M  V30 6829 C 638.104 -0.0125844 -3.59498 0
M  V30 6830 C 637.768 -1.27831 -4.38758 0
M  V30 6831 C 638.765 -2.2074 -4.70712 0
M  V30 6832 C 636.45 -1.52035 -4.78739 0
M  V30 6833 C 638.444 -3.36145 -5.41558 0
M  V30 6834 C 636.131 -2.67732 -5.49329 0
M  V30 6835 C 637.129 -3.59612 -5.80662 0
M  V30 6836 O 636.817 -4.73289 -6.4981 0
M  V30 6837 H 636.549 -0.0879682 -0.670252 0
M  V30 6838 H 639.103 -0.896193 -1.84818 0
M  V30 6839 H 637.333 0.762567 -3.79107 0
M  V30 6840 H 639.022 0.423392 -4.03686 0
M  V30 6841 H 639.788 -2.03284 -4.40341 0
M  V30 6842 H 635.667 -0.813987 -4.53757 0
M  V30 6843 H 639.211 -4.07881 -5.65932 0
M  V30 6844 H 635.108 -2.85122 -5.79116 0
M  V30 6845 H 635.876 -4.72575 -6.68293 0
M  V30 6846 N 638.539 1.52521 -0.396863 0
M  V30 6847 C 639.787 2.01274 0.182536 0
M  V30 6848 C 640.108 1.28485 1.46685 0
M  V30 6849 O 639.378 0.407134 1.91623 0
M  V30 6850 H 637.958 0.743671 0.0704442 0
M  V30 6851 H 640.62 1.87547 -0.530289 0
M  V30 6852 H 639.716 3.09687 0.387385 0
M  V30 6853 N 640.017 0.126909 1.57088 0
M  V30 6854 C 641.247 -0.535892 1.99529 0
M  V30 6855 C 641.655 -1.60259 1.00566 0
M  V30 6856 O 640.998 -1.83698 -0.00843269 0
M  V30 6857 C 641.06 -1.21374 3.38391 0
M  V30 6858 C 640.724 -0.294044 4.56053 0
M  V30 6859 C 641.721 0.470454 5.17767 0
M  V30 6860 C 639.406 -0.202808 5.0189 0
M  V30 6861 C 641.4 1.31384 6.23712 0
M  V30 6862 C 639.087 0.644203 6.07695 0
M  V30 6863 C 640.085 1.40115 6.68473 0
M  V30 6864 O 639.773 2.23408 7.72233 0
M  V30 6865 H 639.505 -0.145799 0.66009 0
M  V30 6866 H 642.059 0.212441 2.04298 0
M  V30 6867 H 640.289 -2.00931 3.30399 0
M  V30 6868 H 641.978 -1.77424 3.65069 0
M  V30 6869 H 642.744 0.409884 4.83265 0
M  V30 6870 H 638.623 -0.781688 4.54324 0
M  V30 6871 H 642.167 1.90514 6.71081 0
M  V30 6872 H 638.064 0.706137 6.41626 0
M  V30 6873 H 638.832 2.16436 7.89365 0
M  V30 6874 N 641.495 -1.56914 -0.146875 0
M  V30 6875 C 642.427 -1.94878 -1.20645 0
M  V30 6876 C 643.44 -0.844633 -1.39175 0
M  V30 6877 O 644.629 -1.12304 -1.38744 0
M  V30 6878 C 641.729 -2.20769 -2.57127 0
M  V30 6879 C 640.902 -3.52053 -2.59572 0
M  V30 6880 C 639.961 -3.66482 -3.77594 0
M  V30 6881 O 638.987 -4.38873 -3.62462 0
M  V30 6882 N 640.189 -3.03156 -4.95052 0
M  V30 6883 H 642.954 -2.86374 -0.883757 0
M  V30 6884 H 640.515 -1.58366 -0.336436 0
M  V30 6885 H 642.507 -2.27664 -3.34591 0
M  V30 6886 H 641.077 -1.35538 -2.81688 0
M  V30 6887 H 640.297 -3.56598 -1.68023 0
M  V30 6888 H 641.585 -4.38396 -2.58238 0
M  V30 6889 H 640.983 -2.44258 -5.10249 0
M  V30 6890 H 639.54 -3.15611 -5.70292 0
M  V30 6891 N 642.974 0.416227 -1.52004 0
M  V30 6892 C 644.22 1.16233 -1.66917 0
M  V30 6893 C 644.575 1.8839 -0.390763 0
M  V30 6894 O 643.868 1.81479 0.614478 0
M  V30 6895 C 644.062 2.18923 -2.82502 0
M  V30 6896 C 643.891 1.56849 -4.2146 0
M  V30 6897 C 642.661 1.34426 -4.87091 0
M  V30 6898 C 644.859 1.03322 -5.03815 0
M  V30 6899 N 642.841 0.681703 -6.10103 0
M  V30 6900 C 644.212 0.497165 -6.18003 0
M  V30 6901 C 646.267 0.926997 -4.89194 0
M  V30 6902 C 644.97 -0.134687 -7.19174 0
M  V30 6903 C 646.996 0.309009 -5.90592 0
M  V30 6904 C 646.358 -0.216399 -7.04068 0
M  V30 6905 H 642.457 0.412252 -0.664509 0
M  V30 6906 H 645.041 0.455758 -1.89291 0
M  V30 6907 H 643.212 2.86946 -2.61756 0
M  V30 6908 H 644.944 2.85844 -2.86488 0
M  V30 6909 H 641.699 1.61183 -4.45328 0
M  V30 6910 H 642.123 0.367256 -6.76003 0
M  V30 6911 H 646.765 1.31904 -4.01698 0
M  V30 6912 H 644.483 -0.538811 -8.06302 0
M  V30 6913 H 648.069 0.228438 -5.81351 0
M  V30 6914 H 646.949 -0.687064 -7.81184 0
M  V30 6915 N 644.452 1.42507 0.673017 0
M  V30 6916 C 645.698 1.43284 1.43519 0
M  V30 6917 C 646.031 0.049668 1.94136 0
M  V30 6918 O 645.306 -0.926369 1.71022 0
M  V30 6919 C 645.589 2.45874 2.63093 0
M  V30 6920 C 645.442 3.93388 2.18096 0
M  V30 6921 C 646.761 2.45431 3.6531 0
M  V30 6922 H 643.88 0.521752 0.520522 0
M  V30 6923 H 646.522 1.73932 0.764701 0
M  V30 6924 H 644.672 2.19869 3.20296 0
M  V30 6925 H 646.344 4.30379 1.66046 0
M  V30 6926 H 644.587 4.07169 1.49652 0
M  V30 6927 H 645.258 4.60752 3.03993 0
M  V30 6928 H 647.734 2.68561 3.17827 0
M  V30 6929 H 646.61 3.19189 4.46553 0
M  V30 6930 H 646.871 1.48092 4.16559 0
M  V30 6931 N 645.93 -0.909495 1.28709 0
M  V30 6932 C 647.155 -1.69801 1.1909 0
M  V30 6933 C 647.58 -1.86479 -0.246388 0
M  V30 6934 O 646.938 -1.37802 -1.17815 0
M  V30 6935 C 646.986 -3.06543 1.89904 0
M  V30 6936 O 646.09 -3.94268 1.2094 0
M  V30 6937 H 645.431 -0.519783 0.413185 0
M  V30 6938 H 647.961 -1.13689 1.70106 0
M  V30 6939 H 647.971 -3.56748 1.97977 0
M  V30 6940 H 646.646 -2.93722 2.94449 0
M  V30 6941 H 645.223 -3.52702 1.2106 0
M  V30 6942 N 647.408 -1.11026 -1.11852 0
M  V30 6943 C 648.318 -0.777252 -2.2135 0
M  V30 6944 C 649.334 0.227821 -1.72502 0
M  V30 6945 O 650.51 0.0650587 -2.01295 0
M  V30 6946 C 647.575 -0.220668 -3.45997 0
M  V30 6947 C 646.636 -1.2838 -4.09655 0
M  V30 6948 C 645.869 -0.753678 -5.28352 0
M  V30 6949 O 646.092 0.417779 -5.68868 0
M  V30 6950 O 645.026 -1.51647 -5.82483 0
M  V30 6951 H 648.852 -1.69141 -2.5224 0
M  V30 6952 H 646.437 -0.885836 -1.20305 0
M  V30 6953 H 648.319 0.0855756 -4.21313 0
M  V30 6954 H 646.994 0.666262 -3.16769 0
M  V30 6955 H 645.901 -1.64299 -3.3609 0
M  V30 6956 H 647.234 -2.14396 -4.43052 0
M  V30 6957 N 648.886 1.2938 -0.899927 0
M  V30 6958 C 649.796 2.31462 -0.382437 0
M  V30 6959 C 650.812 1.65956 0.522929 0
M  V30 6960 O 651.988 1.97131 0.412454 0
M  V30 6961 C 649.053 3.44595 0.381472 0
M  V30 6962 C 648.114 4.25692 -0.555444 0
M  V30 6963 C 647.347 5.33422 0.172102 0
M  V30 6964 O 647.57 5.53053 1.396 0
M  V30 6965 O 646.504 5.99939 -0.485491 0
M  V30 6966 H 650.33 2.77706 -1.22934 0
M  V30 6967 H 647.915 1.33821 -0.664259 0
M  V30 6968 H 649.797 4.13474 0.813442 0
M  V30 6969 H 648.472 3.00458 1.20443 0
M  V30 6970 H 647.379 3.59453 -1.03653 0
M  V30 6971 H 648.712 4.73471 -1.34483 0
M  V30 6972 N 650.364 0.662433 1.43002 0
M  V30 6973 C 651.314 -0.0460442 2.27954 0
M  V30 6974 C 652.298 -0.785753 1.40409 0
M  V30 6975 O 653.49 -0.666701 1.63964 0
M  V30 6976 C 650.619 -1.00532 3.2825 0
M  V30 6977 C 649.705 -0.263604 4.2328 0
M  V30 6978 N 650.096 0.724855 5.00579 0
M  V30 6979 C 648.394 -0.503778 4.43146 0
M  V30 6980 C 649.095 1.16594 5.69895 0
M  V30 6981 N 648.071 0.498345 5.41311 0
M  V30 6982 H 651.873 0.712314 2.85137 0
M  V30 6983 H 649.387 0.490469 1.54817 0
M  V30 6984 H 651.384 -1.52775 3.87899 0
M  V30 6985 H 650.044 -1.76364 2.72628 0
M  V30 6986 H 651.055 1.10393 5.05998 0
M  V30 6987 H 647.732 -1.24255 3.98581 0
M  V30 6988 H 649.122 1.98434 6.4193 0
M  V30 6989 N 651.842 -1.52309 0.404946 0
M  V30 6990 C 652.752 -2.30634 -0.429555 0
M  V30 6991 C 653.768 -1.38187 -1.05737 0
M  V30 6992 O 654.944 -1.71261 -1.05979 0
M  V30 6993 C 652.009 -3.10947 -1.53339 0
M  V30 6994 C 651.07 -4.19126 -0.929065 0
M  V30 6995 C 650.303 -4.95601 -1.9803 0
M  V30 6996 O 650.526 -4.72331 -3.1978 0
M  V30 6997 O 649.46 -5.80551 -1.58886 0
M  V30 6998 H 653.286 -3.0298 0.208963 0
M  V30 6999 H 650.871 -1.4845 0.168255 0
M  V30 7000 H 652.753 -3.60974 -2.1743 0
M  V30 7001 H 651.428 -2.41399 -2.15658 0
M  V30 7002 H 650.335 -3.73257 -0.250982 0
M  V30 7003 H 651.668 -4.90955 -0.349855 0
M  V30 7004 N 653.32 -0.135238 -1.57019 0
M  V30 7005 C 654.23 0.822226 -2.19719 0
M  V30 7006 C 655.246 1.28057 -1.17802 0
M  V30 7007 O 656.422 1.3402 -1.50335 0
M  V30 7008 C 653.487 2.0484 -2.79717 0
M  V30 7009 C 652.548 1.64042 -3.96723 0
M  V30 7010 C 651.781 2.80814 -4.53849 0
M  V30 7011 O 652.004 3.967 -4.0986 0
M  V30 7012 O 650.938 2.56963 -5.44292 0
M  V30 7013 H 654.764 0.318552 -3.02025 0
M  V30 7014 H 652.349 0.0912021 -1.49121 0
M  V30 7015 H 654.231 2.76622 -3.17897 0
M  V30 7016 H 652.906 2.54182 -2.00432 0
M  V30 7017 H 651.813 0.893182 -3.63281 0
M  V30 7018 H 653.146 1.19426 -4.77492 0
M  V30 7019 N 654.798 1.5699 0.138552 0
M  V30 7020 C 655.761 1.97984 1.15478 0
M  V30 7021 C 656.761 0.867416 1.35398 0
M  V30 7022 O 657.951 1.13387 1.32246 0
M  V30 7023 C 655.083 2.3031 2.51337 0
M  V30 7024 H 656.276 2.88953 0.802896 0
M  V30 7025 H 653.829 1.51555 0.382189 0
M  V30 7026 H 654.564 1.42159 2.91481 0
M  V30 7027 H 654.349 3.11425 2.38237 0
M  V30 7028 H 655.839 2.62834 3.24512 0
M  V30 7029 N 656.276 -0.40816 1.52223 0
M  V30 7030 C 657.226 -1.49648 1.72016 0
M  V30 7031 C 658.21 -1.50311 0.574069 0
M  V30 7032 O 659.402 -1.56271 0.831173 0
M  V30 7033 C 656.531 -2.87566 1.87512 0
M  V30 7034 C 655.617 -2.91547 3.07995 0
M  V30 7035 N 656.008 -2.65225 4.30685 0
M  V30 7036 C 654.306 -3.22715 3.07849 0
M  V30 7037 C 655.007 -2.75799 5.12162 0
M  V30 7038 N 653.983 -3.08719 4.4743 0
M  V30 7039 H 657.785 -1.28093 2.64517 0
M  V30 7040 H 655.299 -0.61588 1.50269 0
M  V30 7041 H 657.296 -3.65899 1.99809 0
M  V30 7042 H 655.956 -3.10118 0.962114 0
M  V30 7043 H 656.967 -2.39601 4.59142 0
M  V30 7044 H 653.644 -3.50856 2.26289 0
M  V30 7045 H 655.034 -2.59155 6.1991 0
M  V30 7046 N 657.755 -1.42862 -0.66545 0
M  V30 7047 C 658.705 -1.43521 -1.7716 0
M  V30 7048 C 659.689 -0.305267 -1.57978 0
M  V30 7049 O 660.881 -0.548176 -1.68297 0
M  V30 7050 C 658.01 -1.34914 -3.15679 0
M  V30 7051 C 657.096 -2.5289 -3.40452 0
M  V30 7052 N 657.487 -3.78284 -3.3576 0
M  V30 7053 C 655.785 -2.47351 -3.71124 0
M  V30 7054 C 656.486 -4.56701 -3.60276 0
M  V30 7055 N 655.462 -3.87249 -3.81496 0
M  V30 7056 H 659.264 -2.38357 -1.7194 0
M  V30 7057 H 656.778 -1.37342 -0.866653 0
M  V30 7058 H 658.775 -1.33468 -3.94958 0
M  V30 7059 H 657.435 -0.410881 -3.2209 0
M  V30 7060 H 658.446 -4.10746 -3.15448 0
M  V30 7061 H 655.123 -1.62152 -3.84725 0
M  V30 7062 H 656.513 -5.65704 -3.6253 0
M  V30 7063 N 659.233 0.902656 -1.29189 0
M  V30 7064 C 660.461 1.68639 -1.19869 0
M  V30 7065 C 660.876 1.87254 0.241121 0
M  V30 7066 O 660.233 1.40745 1.16177 0
M  V30 7067 C 660.284 3.07251 -1.90471 0
M  V30 7068 O 660.005 2.89488 -3.28829 0
M  V30 7069 C 661.506 4.01653 -1.8759 0
M  V30 7070 H 658.726 0.526802 -0.415596 0
M  V30 7071 H 661.27 1.12901 -1.7051 0
M  V30 7072 H 659.425 3.59774 -1.43672 0
M  V30 7073 H 659.839 3.77296 -3.64346 0
M  V30 7074 H 661.313 4.96339 -2.4156 0
M  V30 7075 H 661.79 4.30881 -0.850756 0
M  V30 7076 H 662.396 3.55061 -2.34119 0
M  V30 7077 N 660.711 1.11618 1.11262 0
M  V30 7078 C 661.674 0.779447 2.15539 0
M  V30 7079 C 662.674 -0.202081 1.59525 0
M  V30 7080 O 663.864 0.0226356 1.74185 0
M  V30 7081 C 660.996 0.15674 3.40539 0
M  V30 7082 H 662.189 1.70324 2.4684 0
M  V30 7083 H 659.742 0.918298 1.26479 0
M  V30 7084 H 660.477 -0.777186 3.1485 0
M  V30 7085 H 660.262 0.863308 3.82478 0
M  V30 7086 H 661.752 -0.062661 4.17553 0
M  V30 7087 N 662.189 -1.289 0.906776 0
M  V30 7088 C 663.419 -1.99112 0.551168 0
M  V30 7089 C 663.827 -1.67998 -0.870243 0
M  V30 7090 O 663.17 -0.92525 -1.58697 0
M  V30 7091 C 663.232 -3.53162 0.672065 0
M  V30 7092 C 662.896 -4.07849 2.06174 0
M  V30 7093 C 663.893 -4.22212 3.0337 0
M  V30 7094 C 661.578 -4.4271 2.37304 0
M  V30 7095 C 663.572 -4.70678 4.29815 0
M  V30 7096 C 661.259 -4.90871 3.6399 0
M  V30 7097 C 662.257 -5.04811 4.6006 0
M  V30 7098 O 661.945 -5.51925 5.84495 0
M  V30 7099 H 661.677 -0.642728 0.209469 0
M  V30 7100 H 664.231 -1.65234 1.22012 0
M  V30 7101 H 662.461 -3.86662 -0.05394 0
M  V30 7102 H 664.15 -4.046 0.324579 0
M  V30 7103 H 664.916 -3.9556 2.80637 0
M  V30 7104 H 660.795 -4.31114 1.63283 0
M  V30 7105 H 664.339 -4.81474 5.04806 0
M  V30 7106 H 660.236 -5.16961 3.86551 0
M  V30 7107 H 661.004 -5.70225 5.87185 0
M  V30 7108 N 663.667 -0.670007 -1.42649 0
M  V30 7109 C 664.597 -0.00258501 -2.335 0
M  V30 7110 C 665.578 0.794364 -1.50412 0
M  V30 7111 O 666.763 0.75248 -1.79029 0
M  V30 7112 C 663.893 0.952748 -3.33976 0
M  V30 7113 C 662.847 0.264733 -4.2718 0
M  V30 7114 C 662.173 1.33267 -5.17826 0
M  V30 7115 C 663.473 -0.853289 -5.15283 0
M  V30 7116 H 665.167 -0.761326 -2.89559 0
M  V30 7117 H 662.713 -0.367561 -1.3923 0
M  V30 7118 H 664.666 1.4287 -3.96442 0
M  V30 7119 H 663.39 1.74285 -2.7621 0
M  V30 7120 H 662.049 -0.190938 -3.66102 0
M  V30 7121 H 661.697 2.11464 -4.5639 0
M  V30 7122 H 661.397 0.877476 -5.81011 0
M  V30 7123 H 662.921 1.80965 -5.83167 0
M  V30 7124 H 664.335 -0.458763 -5.71462 0
M  V30 7125 H 662.732 -1.23398 -5.87276 0
M  V30 7126 H 663.802 -1.70412 -4.53969 0
M  V30 7127 N 665.145 1.52092 -0.413018 0
M  V30 7128 C 666.391 2.02154 0.161737 0
M  V30 7129 C 666.724 1.29789 1.44459 0
M  V30 7130 O 665.999 0.405378 1.90229 0
M  V30 7131 C 666.282 3.5781 0.405463 0
M  V30 7132 C 666.135 4.40819 -0.894335 0
M  V30 7133 C 667.454 4.23821 1.18591 0
M  V30 7134 H 664.573 0.734769 0.0573077 0
M  V30 7135 H 667.215 1.81948 -0.547247 0
M  V30 7136 H 665.365 3.75158 1.0094 0
M  V30 7137 H 667.037 4.35175 -1.53039 0
M  V30 7138 H 665.28 4.06877 -1.50444 0
M  V30 7139 H 665.951 5.47819 -0.678144 0
M  V30 7140 H 668.427 4.10596 0.674573 0
M  V30 7141 H 667.303 5.32663 1.3252 0
M  V30 7142 H 667.564 3.83038 2.20758 0
M  V30 7143 N 666.623 0.143563 1.56945 0
M  V30 7144 C 667.87 -0.508407 1.96014 0
M  V30 7145 C 668.198 -1.65099 1.02824 0
M  V30 7146 O 667.453 -1.95618 0.0567764 0
M  V30 7147 C 667.752 -1.05885 3.41355 0
M  V30 7148 C 667.418 -0.0350809 4.50886 0
M  V30 7149 C 666.08 0.246362 4.80569 0
M  V30 7150 C 668.432 0.661282 5.16988 0
M  V30 7151 C 665.76 1.23003 5.73661 0
M  V30 7152 C 668.112 1.63375 6.11139 0
M  V30 7153 C 666.776 1.92292 6.39203 0
M  V30 7154 H 666.046 -0.186039 0.717266 0
M  V30 7155 H 668.693 0.229667 1.90118 0
M  V30 7156 H 666.998 -1.87419 3.44066 0
M  V30 7157 H 668.695 -1.57183 3.6891 0
M  V30 7158 H 665.285 -0.264622 4.27782 0
M  V30 7159 H 669.469 0.457038 4.94191 0
M  V30 7160 H 664.725 1.46056 5.93698 0
M  V30 7161 H 668.899 2.17887 6.61436 0
M  V30 7162 H 666.526 2.68666 7.11142 0
M  V30 7163 N 668.101 -1.57061 -0.130224 0
M  V30 7164 C 669.326 -1.88802 -0.858409 0
M  V30 7165 C 669.751 -0.734353 -1.73173 0
M  V30 7166 O 669.109 0.315529 -1.78533 0
M  V30 7167 C 669.157 -3.19228 -1.67708 0
M  V30 7168 O 668.261 -3.04343 -2.78297 0
M  V30 7169 H 667.602 -0.619849 -0.238083 0
M  V30 7170 H 670.132 -2.04271 -0.115995 0
M  V30 7171 H 670.142 -3.51669 -2.06864 0
M  V30 7172 H 668.817 -4.02793 -1.0359 0
M  V30 7173 H 667.394 -2.83346 -2.42425 0
M  V30 7174 N 669.579 0.400081 -1.52437 0
M  V30 7175 C 670.99 0.97851 -1.59003 0
M  V30 7176 C 671.341 1.91293 -0.436068 0
M  V30 7177 O 670.466 2.1183 0.442365 0
M  V30 7178 C 671.061 1.78145 -2.88184 0
M  V30 7179 C 669.62 2.30976 -2.97199 0
M  V30 7180 C 668.767 1.11212 -2.54022 0
M  V30 7181 H 671.718 0.180002 -1.57676 0
M  V30 7182 H 671.739 2.63968 -2.74046 0
M  V30 7183 H 671.251 1.1011 -3.72152 0
M  V30 7184 H 669.352 3.02355 -2.17744 0
M  V30 7185 H 669.465 2.61221 -4.01622 0
M  V30 7186 H 667.829 1.46882 -2.08081 0
M  V30 7187 H 668.612 0.447307 -3.40373 0
M  V30 7188 N 671.057 1.43213 0.657864 0
M  V30 7189 C 672.282 1.48227 1.45064 0
M  V30 7190 C 672.707 0.0999939 1.87834 0
M  V30 7191 O 672.065 -0.905269 1.57081 0
M  V30 7192 C 672.113 2.42931 2.6649 0
M  V30 7193 O 671.217 1.91237 3.6538 0
M  V30 7194 H 670.558 0.501551 0.435135 0
M  V30 7195 H 673.088 1.8808 0.805431 0
M  V30 7196 H 673.098 2.6008 3.1436 0
M  V30 7197 H 671.773 3.43348 2.34701 0
M  V30 7198 H 670.35 1.83726 3.24498 0
M  V30 7199 N 672.536 -0.895792 1.29666 0
M  V30 7200 C 673.483 -2.00035 1.15129 0
M  V30 7201 C 674.453 -1.66043 0.0435819 0
M  V30 7202 O 675.638 -1.89621 0.211811 0
M  V30 7203 C 672.778 -3.34774 0.83787 0
M  V30 7204 C 671.891 -3.81525 2.0264 0
M  V30 7205 C 671.026 -5.04858 1.65201 0
M  V30 7206 C 670.065 -5.43988 2.80612 0
M  V30 7207 N 669.202 -6.58507 2.43544 0
M  V30 7208 H 674.042 -2.11802 2.09628 0
M  V30 7209 H 671.579 -1.03719 1.04311 0
M  V30 7210 H 673.537 -4.12311 0.636824 0
M  V30 7211 H 672.167 -3.22724 -0.0702314 0
M  V30 7212 H 671.219 -2.9999 2.33903 0
M  V30 7213 H 672.531 -4.06472 2.89106 0
M  V30 7214 H 671.685 -5.8999 1.41408 0
M  V30 7215 H 670.424 -4.81759 0.758893 0
M  V30 7216 H 669.429 -4.57388 3.05083 0
M  V30 7217 H 670.654 -5.69066 3.70595 0
M  V30 7218 H 668.6 -6.37004 1.56724 0
M  V30 7219 H 668.517 -6.83269 3.23542 0
M  V30 7220 H 669.785 -7.46897 2.2308 0
M  V30 7221 N 674.014 -1.12206 -1.10668 0
M  V30 7222 C 675.239 -0.898938 -1.86906 0
M  V30 7223 C 675.664 0.546346 -1.79991 0
M  V30 7224 O 675.022 1.38655 -1.1681 0
M  V30 7225 C 675.07 -1.37529 -3.33344 0
M  V30 7226 O 674.174 -0.55218 -4.08687 0
M  V30 7227 H 673.515 -0.323163 -0.580053 0
M  V30 7228 H 676.045 -1.49355 -1.39837 0
M  V30 7229 H 676.055 -1.3733 -3.84193 0
M  V30 7230 H 674.73 -2.42767 -3.37693 0
M  V30 7231 H 673.307 -0.620947 -3.67694 0
M  V30 7232 N 675.492 1.28418 -0.913599 0
M  V30 7233 C 676.739 1.94981 -0.546674 0
M  V30 7234 C 677.067 1.7192 0.909606 0
M  V30 7235 O 676.322 1.03314 1.66207 0
M  V30 7236 C 676.621 3.48283 -0.802099 0
M  V30 7237 C 676.287 3.91444 -2.2379 0
M  V30 7238 C 674.949 4.02939 -2.63046 0
M  V30 7239 C 677.301 4.13542 -3.17227 0
M  V30 7240 C 674.629 4.3391 -3.94891 0
M  V30 7241 C 676.981 4.45992 -4.48636 0
M  V30 7242 C 675.645 4.55698 -4.87746 0
M  V30 7243 H 674.915 0.713487 -0.200042 0
M  V30 7244 H 677.562 1.52756 -1.15489 0
M  V30 7245 H 675.867 3.91643 -0.111076 0
M  V30 7246 H 677.564 3.97903 -0.497375 0
M  V30 7247 H 674.154 3.83024 -1.9233 0
M  V30 7248 H 678.338 4.04114 -2.88107 0
M  V30 7249 H 673.594 4.39631 -4.24894 0
M  V30 7250 H 677.768 4.62038 -5.21051 0
M  V30 7251 H 675.395 4.79451 -5.89942 0
M  V30 7252 N 676.97 0.677563 1.42291 0
M  V30 7253 C 678.216 0.201272 2.01799 0
M  V30 7254 C 678.549 -1.19004 1.53465 0
M  V30 7255 O 677.824 -1.79953 0.738039 0
M  V30 7256 C 678.107 0.238968 3.59306 0
M  V30 7257 C 677.96 1.66594 4.17812 0
M  V30 7258 C 679.279 -0.411287 4.38174 0
M  V30 7259 H 676.398 0.0746114 0.733214 0
M  V30 7260 H 679.04 0.862872 1.69276 0
M  V30 7261 H 677.19 -0.324368 3.87144 0
M  V30 7262 H 678.862 2.28173 4.00917 0
M  V30 7263 H 677.105 2.20576 3.73536 0
M  V30 7264 H 677.776 1.64398 5.26951 0
M  V30 7265 H 680.252 0.0682804 4.16044 0
M  V30 7266 H 679.128 -0.354286 5.47755 0
M  V30 7267 H 679.389 -1.4893 4.1626 0
M  V30 7268 N 678.448 -1.51871 0.421078 0
M  V30 7269 C 679.398 -2.24171 -0.416111 0
M  V30 7270 C 680.382 -1.25763 -1.00362 0
M  V30 7271 O 681.574 -1.5094 -0.924452 0
M  V30 7272 C 678.703 -3.07533 -1.52571 0
M  V30 7273 C 677.789 -4.1336 -0.948399 0
M  V30 7274 N 678.18 -5.05704 -0.0987933 0
M  V30 7275 C 676.478 -4.29055 -1.21768 0
M  V30 7276 C 677.179 -5.8127 0.223705 0
M  V30 7277 N 676.155 -5.4221 -0.388524 0
M  V30 7278 H 679.957 -2.92925 0.239166 0
M  V30 7279 H 677.471 -1.60732 0.232191 0
M  V30 7280 H 679.468 -3.57893 -2.13819 0
M  V30 7281 H 678.128 -2.4032 -2.18349 0
M  V30 7282 H 679.139 -5.17214 0.266428 0
M  V30 7283 H 675.816 -3.73071 -1.87416 0
M  V30 7284 H 677.206 -6.65653 0.914076 0
M  V30 7285 N 679.926 -0.151884 -1.56866 0
M  V30 7286 C 680.856 0.781943 -2.20018 0
M  V30 7287 C 681.837 1.25347 -1.14987 0
M  V30 7288 O 683.022 1.31015 -1.43348 0
M  V30 7289 C 680.152 2.01928 -2.82564 0
M  V30 7290 C 679.106 1.68434 -3.93464 0
M  V30 7291 C 678.432 2.99472 -4.42968 0
M  V30 7292 C 679.732 0.927244 -5.14003 0
M  V30 7293 H 681.426 0.255607 -2.98307 0
M  V30 7294 H 678.972 0.121502 -1.43486 0
M  V30 7295 H 680.925 2.67741 -3.25411 0
M  V30 7296 H 679.649 2.56943 -2.01614 0
M  V30 7297 H 678.308 1.04998 -3.51242 0
M  V30 7298 H 677.956 3.52488 -3.58834 0
M  V30 7299 H 677.656 2.77823 -5.17772 0
M  V30 7300 H 679.18 3.66348 -4.88489 0
M  V30 7301 H 680.594 1.48756 -5.53665 0
M  V30 7302 H 678.991 0.810513 -5.94601 0
M  V30 7303 H 680.061 -0.0801163 -4.84834 0
M  V30 7304 N 681.404 1.57128 0.121893 0
M  V30 7305 C 682.314 2.03425 1.16857 0
M  V30 7306 C 683.33 0.954108 1.45509 0
M  V30 7307 O 684.506 1.26541 1.56682 0
M  V30 7308 C 681.571 2.42685 2.47599 0
M  V30 7309 C 680.632 3.64767 2.2637 0
M  V30 7310 C 679.865 4.02145 3.50878 0
M  V30 7311 O 680.088 3.39897 4.58068 0
M  V30 7312 O 679.022 4.95262 3.42051 0
M  V30 7313 H 682.848 2.92825 0.80544 0
M  V30 7314 H 680.433 1.45654 0.332477 0
M  V30 7315 H 682.315 2.68684 3.24634 0
M  V30 7316 H 680.99 1.56432 2.83392 0
M  V30 7317 H 679.897 3.43922 1.47203 0
M  V30 7318 H 681.23 4.51716 1.95482 0
M  V30 7319 N 682.882 -0.391992 1.52647 0
M  V30 7320 C 684.293 -0.970064 1.5952 0
M  V30 7321 C 684.644 -1.91059 0.446207 0
M  V30 7322 O 683.769 -2.12062 -0.431125 0
M  V30 7323 C 684.364 -1.76614 2.89125 0
M  V30 7324 C 682.923 -2.29396 2.9842 0
M  V30 7325 C 682.07 -1.09864 2.54608 0
M  V30 7326 H 685.021 -0.171638 1.57769 0
M  V30 7327 H 685.042 -2.62511 2.75442 0
M  V30 7328 H 684.554 -1.08135 3.72731 0
M  V30 7329 H 682.655 -3.01196 2.19344 0
M  V30 7330 H 682.768 -2.59088 4.03002 0
M  V30 7331 H 681.132 -1.45777 2.08857 0
M  V30 7332 H 681.915 -0.429249 3.40606 0
M  V30 7333 N 684.36 -1.4356 -0.65026 0
M  V30 7334 C 685.293 -1.434 -1.77515 0
M  V30 7335 C 686.271 -0.295082 -1.599 0
M  V30 7336 O 687.455 -0.489128 -1.82043 0
M  V30 7337 C 684.582 -1.2484 -3.14853 0
M  V30 7338 C 683.628 -2.42046 -3.51163 0
M  V30 7339 S 684.461 -4.04595 -3.50803 0
M  V30 7340 C 685.617 -3.88424 -4.90793 0
M  V30 7341 H 685.85 -2.38586 -1.77381 0
M  V30 7342 H 683.383 -1.30627 -0.823169 0
M  V30 7343 H 685.341 -1.14819 -3.94115 0
M  V30 7344 H 684.002 -0.311977 -3.12547 0
M  V30 7345 H 683.195 -2.24873 -4.51052 0
M  V30 7346 H 682.797 -2.48708 -2.79321 0
M  V30 7347 H 685.089 -3.50932 -5.79528 0
M  V30 7348 H 686.032 -4.88076 -5.13018 0
M  V30 7349 H 686.44 -3.20829 -4.64467 0
M  V30 7350 N 685.838 0.888903 -1.30139 0
M  V30 7351 C 687.063 1.67884 -1.21777 0
M  V30 7352 C 687.488 1.86848 0.216689 0
M  V30 7353 O 686.846 1.39659 1.15608 0
M  V30 7354 C 686.894 3.03483 -1.94757 0
M  V30 7355 O 685.998 3.92294 -1.27198 0
M  V30 7356 H 685.339 0.513144 -0.421402 0
M  V30 7357 H 687.869 1.10968 -1.71893 0
M  V30 7358 H 687.879 3.53553 -2.03627 0
M  V30 7359 H 686.554 2.89 -2.99085 0
M  V30 7360 H 685.131 3.50732 -1.26655 0
M  V30 7361 N 687.317 1.12792 1.10072 0
M  V30 7362 C 688.267 0.768086 2.14673 0
M  V30 7363 C 689.251 -0.234716 1.59179 0
M  V30 7364 O 690.443 -0.039643 1.76956 0
M  V30 7365 C 687.572 0.228472 3.42539 0
M  V30 7366 C 686.658 1.25979 4.04957 0
M  V30 7367 N 687.049 2.4586 4.42025 0
M  V30 7368 C 685.347 1.10602 4.32069 0
M  V30 7369 C 686.048 3.11747 4.9111 0
M  V30 7370 N 685.024 2.39185 4.88151 0
M  V30 7371 H 688.826 1.68029 2.4113 0
M  V30 7372 H 686.34 1.00925 1.27232 0
M  V30 7373 H 688.337 -0.0475216 4.16873 0
M  V30 7374 H 686.997 -0.678136 3.1754 0
M  V30 7375 H 688.008 2.83215 4.33601 0
M  V30 7376 H 684.685 0.257021 4.16708 0
M  V30 7377 H 686.075 4.13862 5.29309 0
M  V30 7378 N 688.795 -1.27931 0.920396 0
M  V30 7379 C 689.705 -2.30824 0.419212 0
M  V30 7380 C 690.721 -1.66767 -0.496461 0
M  V30 7381 O 691.897 -1.97763 -0.38104 0
M  V30 7382 C 688.962 -3.45158 -0.326601 0
M  V30 7383 C 688.023 -4.24754 0.623098 0
M  V30 7384 C 687.256 -5.33629 -0.0872172 0
M  V30 7385 O 687.479 -5.55204 -1.30784 0
M  V30 7386 O 686.413 -5.99091 0.580875 0
M  V30 7387 H 690.239 -2.75716 1.27337 0
M  V30 7388 H 687.824 -1.32747 0.685465 0
M  V30 7389 H 689.706 -4.14716 -0.747559 0
M  V30 7390 H 688.381 -3.02336 -1.15648 0
M  V30 7391 H 687.288 -3.57759 1.09359 0
M  V30 7392 H 688.621 -4.71272 1.41998 0
M  V30 7393 N 690.273 -0.685099 -1.4193 0
M  V30 7394 C 691.203 -0.0273506 -2.33484 0
M  V30 7395 C 692.184 0.778366 -1.51246 0
M  V30 7396 O 693.369 0.733449 -1.79817 0
M  V30 7397 C 690.499 0.917272 -3.34968 0
M  V30 7398 C 689.453 0.21941 -4.27437 0
M  V30 7399 C 688.779 1.27768 -5.1921 0
M  V30 7400 C 690.079 -0.907894 -5.14349 0
M  V30 7401 H 691.773 -0.791994 -2.88735 0
M  V30 7402 H 689.319 -0.382308 -1.38832 0
M  V30 7403 H 691.272 1.38657 -3.97935 0
M  V30 7404 H 689.996 1.71346 -2.78043 0
M  V30 7405 H 688.655 -0.229757 -3.65879 0
M  V30 7406 H 688.303 2.06612 -4.58607 0
M  V30 7407 H 688.003 0.815803 -5.81909 0
M  V30 7408 H 689.527 1.7477 -5.85054 0
M  V30 7409 H 690.941 -0.519348 -5.70943 0
M  V30 7410 H 689.338 -1.2962 -5.85934 0
M  V30 7411 H 690.408 -1.75218 -4.52136 0
M  V30 7412 N 691.751 1.51645 -0.429126 0
M  V30 7413 C 693.162 1.86665 0.0359003 0
M  V30 7414 C 693.513 1.34677 1.42676 0
M  V30 7415 O 692.638 0.694195 2.04963 0
M  V30 7416 C 693.233 3.38724 0.0719221 0
M  V30 7417 C 691.792 3.7331 0.481336 0
M  V30 7418 C 690.939 2.75313 -0.331329 0
M  V30 7419 H 693.89 1.44987 -0.645333 0
M  V30 7420 H 693.911 3.7011 0.883118 0
M  V30 7421 H 693.423 3.76532 -0.940495 0
M  V30 7422 H 691.524 3.41088 1.49966 0
M  V30 7423 H 691.637 4.78631 0.211837 0
M  V30 7424 H 690.001 2.53839 0.209204 0
M  V30 7425 H 690.784 3.15963 -1.34247 0
M  V30 7426 N 693.229 0.160201 1.56784 0
M  V30 7427 C 694.469 -0.490179 1.98435 0
M  V30 7428 C 694.833 -1.61164 1.04355 0
M  V30 7429 O 696.034 -2.3238 1.35103 0
M  V30 7430 C 694.305 -0.971106 3.43954 0
M  V30 7431 S 695.864 -1.62423 4.07632 0
M  V30 7432 H 692.682 -0.158056 0.693209 0
M  V30 7433 H 695.284 0.255036 1.93829 0
M  V30 7434 H 693.988 -0.144323 4.10146 0
M  V30 7435 H 693.519 -1.75063 3.52302 0
M  V30 7436 H 695.534 -2.91199 4.01768 0
M  V30 7437 N 694.707 -1.5719 -0.113559 0
M  V30 7438 C 695.955 -1.84772 -0.818761 0
M  V30 7439 C 696.276 -0.746196 -1.80158 0
M  V30 7440 O 695.546 0.229305 -1.94553 0
M  V30 7441 H 694.126 -0.681737 -0.305359 0
M  V30 7442 H 696.788 -1.94645 -0.0995845 0
M  V30 7443 H 695.884 -2.80878 -1.36067 0
M  V30 7444 N 696.185 0.383891 -1.52853 0
M  V30 7445 C 697.135 1.46892 -1.74375 0
M  V30 7446 C 698.119 1.49378 -0.597909 0
M  V30 7447 O 699.311 1.54929 -0.855929 0
M  V30 7448 C 696.44 2.84547 -1.92063 0
M  V30 7449 C 695.526 2.8661 -3.12594 0
M  V30 7450 N 695.917 2.58339 -4.3485 0
M  V30 7451 C 694.215 3.17777 -3.12944 0
M  V30 7452 C 694.916 2.67616 -5.16485 0
M  V30 7453 N 693.892 3.01561 -4.52285 0
M  V30 7454 H 697.694 1.23869 -2.66522 0
M  V30 7455 H 695.208 0.591895 -1.51229 0
M  V30 7456 H 697.205 3.62674 -2.05604 0
M  V30 7457 H 695.865 3.08549 -1.01133 0
M  V30 7458 H 696.876 2.32266 -4.62896 0
M  V30 7459 H 693.553 3.47211 -2.31842 0
M  V30 7460 H 694.943 2.4926 -6.23955 0
M  V30 7461 N 697.663 1.43903 0.642637 0
M  V30 7462 C 698.891 1.4954 1.42988 0
M  V30 7463 C 699.306 0.116588 1.8844 0
M  V30 7464 O 698.663 -0.875285 1.60141 0
M  V30 7465 C 698.714 2.45031 2.65785 0
M  V30 7466 O 698.435 3.77551 2.22232 0
M  V30 7467 C 699.936 2.60017 3.59035 0
M  V30 7468 H 697.156 0.507544 0.438907 0
M  V30 7469 H 699.7 1.88752 0.786942 0
M  V30 7470 H 697.855 2.08985 3.26196 0
M  V30 7471 H 698.269 4.29001 3.01759 0
M  V30 7472 H 699.743 3.30887 4.41835 0
M  V30 7473 H 700.22 1.64861 4.07084 0
M  V30 7474 H 700.826 2.96918 3.045 0
M  V30 7475 N 699.141 -0.881989 1.30609 0
M  V30 7476 C 700.073 -1.99375 1.13058 0
M  V30 7477 C 701.086 -1.62636 0.0729879 0
M  V30 7478 O 702.275 -1.75621 0.319301 0
M  V30 7479 C 699.375 -3.31536 0.702651 0
M  V30 7480 C 698.548 -3.96693 1.84265 0
M  V30 7481 C 697.607 -5.07158 1.40277 0
M  V30 7482 O 696.633 -5.28628 2.11048 0
M  V30 7483 N 697.835 -5.79808 0.283449 0
M  V30 7484 H 700.6 -2.14981 2.08814 0
M  V30 7485 H 698.161 -1.05526 1.22784 0
M  V30 7486 H 700.153 -4.02804 0.391331 0
M  V30 7487 H 698.723 -3.12175 -0.162954 0
M  V30 7488 H 697.943 -3.1856 2.32192 0
M  V30 7489 H 699.231 -4.36964 2.60653 0
M  V30 7490 H 698.629 -5.64871 -0.306189 0
M  V30 7491 H 697.186 -6.51792 0.0315985 0
M  V30 7492 N 700.619 -1.13374 -1.09472 0
M  V30 7493 C 701.847 -0.918351 -1.85402 0
M  V30 7494 C 702.262 0.53281 -1.81126 0
M  V30 7495 O 701.619 1.36879 -1.20708 0
M  V30 7496 C 701.67 -1.39743 -3.33398 0
M  V30 7497 O 701.391 -2.79172 -3.37631 0
M  V30 7498 C 702.892 -1.22042 -4.2617 0
M  V30 7499 H 700.112 -0.327511 -0.585643 0
M  V30 7500 H 702.656 -1.50617 -1.38328 0
M  V30 7501 H 700.811 -0.852619 -3.77901 0
M  V30 7502 H 701.225 -3.00428 -4.29934 0
M  V30 7503 H 702.699 -1.60438 -5.2817 0
M  V30 7504 H 703.176 -0.162047 -4.38901 0
M  V30 7505 H 703.782 -1.75323 -3.87482 0
M  V30 7506 N 702.098 1.27442 -0.927168 0
M  V30 7507 C 703.344 1.94679 -0.568164 0
M  V30 7508 C 703.677 1.72697 0.888219 0
M  V30 7509 O 702.952 1.05573 1.63354 0
M  V30 7510 C 703.235 3.4882 -0.894253 0
M  V30 7511 C 703.088 3.80146 -2.40435 0
M  V30 7512 C 704.407 4.38281 -0.399766 0
M  V30 7513 H 701.526 0.707071 -0.207892 0
M  V30 7514 H 704.168 1.50568 -1.15885 0
M  V30 7515 H 702.318 3.86522 -0.391566 0
M  V30 7516 H 703.99 3.52238 -2.97869 0
M  V30 7517 H 702.233 3.26716 -2.85375 0
M  V30 7518 H 702.904 4.87835 -2.58304 0
M  V30 7519 H 705.38 4.07726 -0.83058 0
M  V30 7520 H 704.256 5.44955 -0.656885 0
M  V30 7521 H 704.517 4.36521 0.700153 0
M  V30 7522 N 703.576 0.692616 1.41565 0
M  V30 7523 C 704.508 -0.0137132 2.29196 0
M  V30 7524 C 705.521 -0.747417 1.44629 0
M  V30 7525 O 706.71 -0.598611 1.68163 0
M  V30 7526 C 703.81 -1.04347 3.22436 0
M  V30 7527 C 702.983 -0.379985 4.35746 0
M  V30 7528 C 702.042 -1.31195 5.09583 0
M  V30 7529 O 701.068 -0.805455 5.63472 0
M  V30 7530 N 702.27 -2.64443 5.16769 0
M  V30 7531 H 705.035 0.738614 2.90456 0
M  V30 7532 H 702.596 0.538415 1.52685 0
M  V30 7533 H 704.588 -1.6686 3.687 0
M  V30 7534 H 703.158 -1.69736 2.62504 0
M  V30 7535 H 702.378 0.424975 3.91903 0
M  V30 7536 H 703.666 0.0814904 5.08735 0
M  V30 7537 H 703.064 -3.08114 4.74428 0
M  V30 7538 H 701.621 -3.22159 5.66619 0
M  V30 7539 N 705.054 -1.51416 0.437162 0
M  V30 7540 C 706.017 -2.26312 -0.362729 0
M  V30 7541 C 707.017 -1.29748 -0.949847 0
M  V30 7542 O 708.207 -1.53462 -0.824325 0
M  V30 7543 C 705.339 -3.05475 -1.5132 0
M  V30 7544 H 706.532 -2.98459 0.29365 0
M  V30 7545 H 704.085 -1.55137 0.190327 0
M  V30 7546 H 704.82 -2.37744 -2.20563 0
M  V30 7547 H 704.605 -3.76401 -1.09838 0
M  V30 7548 H 706.095 -3.62209 -2.07833 0
M  V30 7549 N 706.532 -0.168513 -1.56696 0
M  V30 7550 C 707.482 0.7751 -2.14421 0
M  V30 7551 C 708.466 1.19476 -1.07769 0
M  V30 7552 O 709.658 1.15759 -1.33898 0
M  V30 7553 C 706.787 2.00549 -2.7863 0
M  V30 7554 C 705.873 1.60795 -3.92436 0
M  V30 7555 N 706.264 0.919812 -4.97366 0
M  V30 7556 C 704.562 1.89917 -4.03544 0
M  V30 7557 C 705.263 0.724485 -5.77171 0
M  V30 7558 N 704.239 1.26505 -5.28675 0
M  V30 7559 H 708.041 0.240349 -2.92916 0
M  V30 7560 H 705.555 0.0322675 -1.62368 0
M  V30 7561 H 707.552 2.6917 -3.1836 0
M  V30 7562 H 706.212 2.54522 -2.01615 0
M  V30 7563 H 707.223 0.578169 -5.14663 0
M  V30 7564 H 703.9 2.45587 -3.37629 0
M  V30 7565 H 705.29 0.180521 -6.71657 0
M  V30 7566 N 708.01 1.57248 0.105221 0
M  V30 7567 C 709.24 1.89492 0.823175 0
M  V30 7568 C 709.648 0.75934 1.73294 0
M  V30 7569 O 708.991 -0.278182 1.81581 0
M  V30 7570 C 709.053 3.16891 1.69765 0
M  V30 7571 C 708.717 4.46787 0.960769 0
M  V30 7572 C 709.714 5.19061 0.295218 0
M  V30 7573 C 707.399 4.93467 0.937854 0
M  V30 7574 C 709.393 6.36246 -0.383393 0
M  V30 7575 C 707.08 6.10566 0.255452 0
M  V30 7576 C 708.078 6.81804 -0.404003 0
M  V30 7577 O 707.766 7.96673 -1.07549 0
M  V30 7578 H 707.498 0.631512 0.24118 0
M  V30 7579 H 710.052 2.05203 0.0899655 0
M  V30 7580 H 708.282 2.973 2.47285 0
M  V30 7581 H 709.971 3.35046 2.29126 0
M  V30 7582 H 710.737 4.84044 0.304448 0
M  V30 7583 H 706.616 4.37913 1.44058 0
M  V30 7584 H 710.16 6.91787 -0.898696 0
M  V30 7585 H 706.057 6.45039 0.244032 0
M  V30 7586 H 706.825 8.12596 -0.981355 0
M  V30 7587 N 709.488 -0.375779 1.53054 0
M  V30 7588 C 710.737 -1.11674 1.67964 0
M  V30 7589 C 711.05 -1.90755 0.432655 0
M  V30 7590 O 712.256 -2.67538 0.462109 0
M  V30 7591 C 710.712 -2.0344 2.96884 0
M  V30 7592 C 710.32 -1.29719 4.28809 0
M  V30 7593 C 712.064 -2.7759 3.2116 0
M  V30 7594 C 709.971 -2.20327 5.48826 0
M  V30 7595 H 708.901 -0.420597 0.625791 0
M  V30 7596 H 711.552 -0.378499 1.79554 0
M  V30 7597 H 709.934 -2.80953 2.79072 0
M  V30 7598 H 711.108 -0.573394 4.57219 0
M  V30 7599 H 709.423 -0.674735 4.10897 0
M  V30 7600 H 712.02 -3.4559 4.0801 0
M  V30 7601 H 712.363 -3.42399 2.36789 0
M  V30 7602 H 712.896 -2.07164 3.396 0
M  V30 7603 H 709.635 -1.60113 6.35645 0
M  V30 7604 H 709.155 -2.90585 5.2471 0
M  V30 7605 H 710.834 -2.80116 5.83219 0
M  V30 7606 N 710.966 -1.44241 -0.634997 0
M  V30 7607 C 711.896 -1.53632 -1.7584 0
M  V30 7608 C 712.877 -0.389603 -1.65578 0
M  V30 7609 O 714.062 -0.609219 -1.84397 0
M  V30 7610 C 711.192 -1.47644 -3.14354 0
M  V30 7611 C 710.146 -2.60752 -3.394 0
M  V30 7612 C 709.472 -2.39817 -4.77904 0
M  V30 7613 C 710.772 -4.02921 -3.32343 0
M  V30 7614 H 712.466 -2.47662 -1.68238 0
M  V30 7615 H 710.012 -1.19197 -0.807969 0
M  V30 7616 H 711.965 -1.52815 -3.92716 0
M  V30 7617 H 710.689 -0.501284 -3.2273 0
M  V30 7618 H 709.348 -2.54965 -2.63417 0
M  V30 7619 H 708.996 -1.40502 -4.82978 0
M  V30 7620 H 708.696 -3.15649 -4.9562 0
M  V30 7621 H 710.22 -2.46799 -5.585 0
M  V30 7622 H 711.634 -4.10098 -4.00615 0
M  V30 7623 H 710.031 -4.78925 -3.61595 0
M  V30 7624 H 711.101 -4.26766 -2.30215 0
M  V30 7625 N 712.444 0.87505 -1.31075 0
M  V30 7626 C 713.392 2.00317 -1.18219 0
M  V30 7627 C 714.386 1.69152 -0.0916872 0
M  V30 7628 O 715.592 1.7821 -0.253229 0
M  V30 7629 H 711.967 0.656981 -0.365895 0
M  V30 7630 H 713.938 2.08293 -2.13674 0
M  V30 7631 C 712.687 3.35821 -0.901095 0
M  V30 7632 H 712.01 3.6032 -1.73233 0
M  V30 7633 H 713.45 4.15366 -0.851295 0
M  V30 7634 C 711.909 3.34563 0.396114 0
M  V30 7635 O 712.439 3.75971 1.41452 0
M  V30 7636 N 710.645 2.87681 0.410832 0
M  V30 7637 H 710.192 2.54179 -0.418415 0
M  V30 7638 H 710.15 2.87223 1.27869 0
M  V30 7639 N 713.922 1.13953 1.08869 0
M  V30 7640 C 715.17 0.903023 1.80803 0
M  V30 7641 C 715.491 -0.572151 1.86417 0
M  V30 7642 O 714.761 -1.41589 1.35386 0
M  V30 7643 H 713.341 0.331099 0.669614 0
M  V30 7644 H 716.003 1.43719 1.31647 0
M  V30 7645 H 715.099 1.29881 2.83791 0
M  V30 7646 N 715.4 -1.26948 0.933913 0
M  V30 7647 C 716.648 -1.93704 0.576484 0
M  V30 7648 C 716.969 -1.73702 -0.886145 0
M  V30 7649 O 716.239 -1.08838 -1.62884 0
M  V30 7650 H 714.819 -0.716812 0.210214 0
M  V30 7651 H 717.481 -1.54534 1.18766 0
M  V30 7652 H 716.577 -3.01987 0.788055 0
M  V30 7653 N 716.879 -0.700114 -1.41195 0
M  V30 7654 C 718.107 -0.242179 -2.05478 0
M  V30 7655 C 718.522 1.11029 -1.52702 0
M  V30 7656 O 717.879 1.69473 -0.677127 0
M  V30 7657 C 717.93 -0.196271 -3.60967 0
M  V30 7658 O 717.651 -1.49532 -4.11791 0
M  V30 7659 C 719.152 0.282102 -4.42401 0
M  V30 7660 H 716.372 -0.111749 -0.661629 0
M  V30 7661 H 718.916 -0.953975 -1.80885 0
M  V30 7662 H 717.071 0.46638 -3.84582 0
M  V30 7663 H 717.485 -1.38545 -5.05871 0
M  V30 7664 H 718.959 0.263093 -5.51373 0
M  V30 7665 H 719.436 1.32174 -4.1884 0
M  V30 7666 H 720.042 -0.349712 -4.2386 0
M  V30 7667 N 718.357 1.51182 -0.445186 0
M  V30 7668 C 719.287 2.30821 0.352686 0
M  V30 7669 C 720.268 1.36576 1.01395 0
M  V30 7670 O 721.453 1.65497 1.01609 0
M  V30 7671 C 718.583 3.15593 1.44976 0
M  V30 7672 C 717.537 4.1818 0.911553 0
M  V30 7673 C 716.863 4.91523 2.10497 0
M  V30 7674 C 718.163 5.22266 -0.059418 0
M  V30 7675 H 719.857 2.97771 -0.311936 0
M  V30 7676 H 717.403 1.43201 -0.151461 0
M  V30 7677 H 719.356 3.70091 2.01521 0
M  V30 7678 H 718.08 2.4648 2.14278 0
M  V30 7679 H 716.739 3.64746 0.368264 0
M  V30 7680 H 716.387 4.18906 2.78437 0
M  V30 7681 H 716.087 5.60898 1.7512 0
M  V30 7682 H 717.611 5.48847 2.6758 0
M  V30 7683 H 719.025 5.71789 0.415985 0
M  V30 7684 H 717.422 5.99213 -0.326152 0
M  V30 7685 H 718.492 4.7461 -0.993631 0
M  V30 7686 N 719.835 0.176821 1.56605 0
M  V30 7687 C 720.765 -0.746841 2.21234 0
M  V30 7688 C 721.746 -1.23502 1.16967 0
M  V30 7689 O 722.931 -1.28718 1.45414 0
M  V30 7690 C 720.061 -1.97407 2.8574 0
M  V30 7691 C 719.015 -1.62153 3.96094 0
M  V30 7692 C 718.341 -2.92387 4.47676 0
M  V30 7693 C 719.641 -0.845353 5.15413 0
M  V30 7694 H 721.335 -0.208116 2.98676 0
M  V30 7695 H 718.881 -0.0986594 1.43662 0
M  V30 7696 H 720.834 -2.62531 3.2963 0
M  V30 7697 H 719.558 -2.53703 2.05676 0
M  V30 7698 H 718.217 -0.993964 3.52868 0
M  V30 7699 H 717.865 -3.46734 3.64396 0
M  V30 7700 H 717.565 -2.69551 5.22127 0
M  V30 7701 H 719.089 -3.5853 4.94255 0
M  V30 7702 H 720.503 -1.39929 5.55961 0
M  V30 7703 H 718.9 -0.715814 5.95815 0
M  V30 7704 H 719.97 0.157239 4.84645 0
M  V30 7705 N 721.313 -1.57302 -0.09688 0
M  V30 7706 C 722.561 -1.8563 -0.799117 0
M  V30 7707 C 722.882 -0.765263 -1.79356 0
M  V30 7708 O 722.152 0.208657 -1.94786 0
M  V30 7709 H 720.732 -0.684937 -0.298111 0
M  V30 7710 H 723.394 -1.9474 -0.0789341 0
M  V30 7711 H 722.49 -2.82305 -1.3308 0
M  V30 7712 N 722.791 0.367657 -1.53252 0
M  V30 7713 C 723.721 1.45632 -1.8252 0
M  V30 7714 C 724.702 1.55979 -0.678568 0
M  V30 7715 O 725.887 1.70581 -0.928217 0
M  V30 7716 C 723.017 2.82994 -2.01325 0
M  V30 7717 C 721.971 2.87473 -3.17086 0
M  V30 7718 C 721.297 4.2749 -3.21179 0
M  V30 7719 C 722.597 2.55182 -4.55719 0
M  V30 7720 H 724.291 1.21387 -2.73689 0
M  V30 7721 H 721.837 0.58251 -1.31692 0
M  V30 7722 H 723.79 3.59179 -2.20383 0
M  V30 7723 H 722.514 3.08622 -1.06864 0
M  V30 7724 H 721.173 2.13739 -2.97844 0
M  V30 7725 H 720.821 4.5019 -2.24361 0
M  V30 7726 H 720.521 4.31403 -3.98955 0
M  V30 7727 H 722.045 5.0555 -3.42419 0
M  V30 7728 H 723.459 3.21081 -4.74953 0
M  V30 7729 H 721.856 2.70414 -5.3572 0
M  V30 7730 H 722.926 1.5044 -4.60973 0
M  V30 7731 N 724.269 1.44576 0.627338 0
M  V30 7732 C 725.216 1.51734 1.73912 0
M  V30 7733 C 726.186 0.364745 1.62046 0
M  V30 7734 O 727.371 0.575503 1.81914 0
M  V30 7735 C 724.511 1.47116 3.12171 0
M  V30 7736 C 723.624 2.72778 3.34986 0
M  V30 7737 C 722.759 2.59968 4.63239 0
M  V30 7738 C 721.798 3.80776 4.79245 0
M  V30 7739 N 720.935 3.66618 5.98778 0
M  V30 7740 H 725.775 2.46722 1.6713 0
M  V30 7741 H 723.312 1.22444 0.815224 0
M  V30 7742 H 725.27 1.42429 3.92135 0
M  V30 7743 H 723.9 0.556928 3.17959 0
M  V30 7744 H 722.952 2.87637 2.48936 0
M  V30 7745 H 724.264 3.62441 3.42692 0
M  V30 7746 H 723.418 2.53135 5.51369 0
M  V30 7747 H 722.157 1.67872 4.57898 0
M  V30 7748 H 721.162 3.87989 3.89544 0
M  V30 7749 H 722.387 4.73913 4.86398 0
M  V30 7750 H 720.333 2.77277 5.9452 0
M  V30 7751 H 720.25 4.499 6.07557 0
M  V30 7752 H 721.518 3.63684 6.89459 0
M  V30 7753 N 725.747 -0.868086 1.31537 0
M  V30 7754 C 726.694 -1.97548 1.19346 0
M  V30 7755 C 727.664 -1.65913 0.0787922 0
M  V30 7756 O 728.849 -1.89129 0.251985 0
M  V30 7757 C 725.989 -3.32922 0.908692 0
M  V30 7758 C 725.102 -3.77141 2.10687 0
M  V30 7759 C 724.237 -5.01241 1.75873 0
M  V30 7760 C 723.276 -5.37914 2.92088 0
M  V30 7761 N 722.413 -6.53192 2.57457 0
M  V30 7762 H 727.253 -2.07307 2.14074 0
M  V30 7763 H 724.79 -1.01483 1.06487 0
M  V30 7764 H 726.748 -4.10867 0.724138 0
M  V30 7765 H 725.378 -3.228 -0.0017611 0
M  V30 7766 H 724.43 -2.94961 2.40213 0
M  V30 7767 H 725.742 -4.00248 2.97663 0
M  V30 7768 H 724.896 -5.86858 1.53891 0
M  V30 7769 H 723.635 -4.80041 0.86091 0
M  V30 7770 H 722.64 -4.50814 3.14717 0
M  V30 7771 H 723.865 -5.61077 3.82582 0
M  V30 7772 H 721.811 -6.33536 1.702 0
M  V30 7773 H 721.728 -6.76252 3.37963 0
M  V30 7774 H 722.996 -7.41997 2.38873 0
M  V30 7775 N 727.225 -1.14528 -1.08264 0
M  V30 7776 C 728.155 -0.856356 -2.1723 0
M  V30 7777 C 729.136 0.189251 -1.69044 0
M  V30 7778 O 730.321 0.0456119 -1.94146 0
M  V30 7779 C 727.451 -0.334662 -3.45684 0
M  V30 7780 C 726.405 -1.31588 -4.0727 0
M  V30 7781 C 725.731 -0.653428 -5.30692 0
M  V30 7782 C 727.031 -2.67866 -4.48381 0
M  V30 7783 H 728.725 -1.76755 -2.41657 0
M  V30 7784 H 726.271 -0.851287 -1.16143 0
M  V30 7785 H 728.224 -0.120128 -4.21229 0
M  V30 7786 H 726.948 0.611967 -3.20815 0
M  V30 7787 H 725.607 -1.51661 -3.33758 0
M  V30 7788 H 725.255 0.299054 -5.0211 0
M  V30 7789 H 724.955 -1.30817 -5.72853 0
M  V30 7790 H 726.479 -0.448453 -6.08951 0
M  V30 7791 H 727.893 -2.51692 -5.15096 0
M  V30 7792 H 726.29 -3.29627 -5.01464 0
M  V30 7793 H 727.36 -3.24632 -3.60198 0
M  V30 7794 N 728.703 1.26451 -0.940633 0
M  V30 7795 C 729.928 1.98407 -0.60412 0
M  V30 7796 C 730.353 1.69584 0.81382 0
M  V30 7797 O 729.711 0.943553 1.54812 0
M  V30 7798 C 729.759 3.50387 -0.852136 0
M  V30 7799 O 728.863 4.1233 0.076013 0
M  V30 7800 H 728.204 0.622466 -0.231153 0
M  V30 7801 H 730.734 1.60932 -1.26342 0
M  V30 7802 H 730.744 4.00614 -0.772816 0
M  V30 7803 H 729.419 3.70696 -1.88566 0
M  V30 7804 H 727.996 3.7286 -0.0543187 0
M  V30 7805 N 730.181 0.707592 1.40822 0
M  V30 7806 C 731.428 0.243671 2.01029 0
M  V30 7807 C 731.756 -1.16057 1.5608 0
M  V30 7808 O 731.011 -1.7999 0.768251 0
M  V30 7809 C 731.31 0.262892 3.56432 0
M  V30 7810 C 730.976 1.61632 4.20935 0
M  V30 7811 C 729.638 1.98682 4.38268 0
M  V30 7812 C 731.99 2.50619 4.5699 0
M  V30 7813 C 729.318 3.2428 4.88937 0
M  V30 7814 C 731.67 3.75562 5.09054 0
M  V30 7815 C 730.334 4.12739 5.24598 0
M  V30 7816 H 729.604 0.0891654 0.735616 0
M  V30 7817 H 732.251 0.909051 1.68548 0
M  V30 7818 H 730.556 -0.486052 3.88773 0
M  V30 7819 H 732.253 -0.113775 4.00839 0
M  V30 7820 H 728.843 1.31818 4.07826 0
M  V30 7821 H 733.027 2.23272 4.43242 0
M  V30 7822 H 728.283 3.53064 4.99155 0
M  V30 7823 H 732.457 4.44692 5.35931 0
M  V30 7824 H 730.084 5.10132 5.63622 0
M  V30 7825 N 731.66 -1.50943 0.453197 0
M  V30 7826 C 732.89 -2.06328 -0.105981 0
M  V30 7827 C 733.298 -1.31909 -1.35634 0
M  V30 7828 O 732.641 -0.376607 -1.79798 0
M  V30 7829 C 732.703 -3.5631 -0.477868 0
M  V30 7830 C 732.367 -4.52093 0.667925 0
M  V30 7831 C 733.364 -4.96421 1.54475 0
M  V30 7832 C 731.049 -4.95001 0.853168 0
M  V30 7833 C 733.043 -5.82346 2.59138 0
M  V30 7834 C 730.73 -5.80713 1.90305 0
M  V30 7835 C 731.728 -6.24284 2.77053 0
M  V30 7836 O 731.416 -7.08291 3.80236 0
M  V30 7837 H 731.148 -0.675986 -0.00427247 0
M  V30 7838 H 733.702 -1.95314 0.635738 0
M  V30 7839 H 731.932 -3.65163 -1.27252 0
M  V30 7840 H 733.621 -3.94138 -0.970039 0
M  V30 7841 H 734.387 -4.63953 1.41324 0
M  V30 7842 H 730.266 -4.60619 0.187482 0
M  V30 7843 H 733.81 -6.16276 3.2688 0
M  V30 7844 H 729.707 -6.12593 2.03469 0
M  V30 7845 H 730.475 -7.26504 3.77007 0
M  V30 7846 N 733.138 -0.185124 -1.56509 0
M  V30 7847 C 734.368 0.461469 -2.0138 0
M  V30 7848 C 734.776 1.56417 -1.06445 0
M  V30 7849 O 734.119 1.83603 -0.0597515 0
M  V30 7850 C 734.181 1.08731 -3.42663 0
M  V30 7851 C 733.845 0.124581 -4.5683 0
M  V30 7852 C 734.842 -0.662295 -5.15664 0
M  V30 7853 C 732.527 0.0163947 -5.02297 0
M  V30 7854 C 734.521 -1.54442 -6.18406 0
M  V30 7855 C 732.208 -0.869301 -6.04885 0
M  V30 7856 C 733.206 -1.64828 -6.62813 0
M  V30 7857 O 732.894 -2.51915 -7.63409 0
M  V30 7858 H 732.626 0.1212 -0.665046 0
M  V30 7859 H 735.18 -0.288119 -2.03369 0
M  V30 7860 H 733.41 1.8853 -3.37629 0
M  V30 7861 H 735.099 1.63753 -3.71403 0
M  V30 7862 H 735.865 -0.588963 -4.81411 0
M  V30 7863 H 731.744 0.61253 -4.56913 0
M  V30 7864 H 735.288 -2.15289 -6.63548 0
M  V30 7865 H 731.185 -0.943786 -6.38563 0
M  V30 7866 H 731.953 -2.45584 -7.80789 0
M  V30 7867 N 734.616 1.57351 0.0885366 0
M  V30 7868 C 735.546 2.05561 1.10757 0
M  V30 7869 C 736.527 0.945789 1.41382 0
M  V30 7870 O 737.712 1.21747 1.51299 0
M  V30 7871 C 734.842 2.48554 2.42566 0
M  V30 7872 C 733.796 3.63259 2.26334 0
M  V30 7873 C 733.122 3.9225 3.63378 0
M  V30 7874 C 734.422 4.93913 1.69844 0
M  V30 7875 H 736.116 2.90946 0.706468 0
M  V30 7876 H 733.662 1.39968 0.338385 0
M  V30 7877 H 735.615 2.8089 3.14132 0
M  V30 7878 H 734.339 1.60176 2.84625 0
M  V30 7879 H 732.998 3.31179 1.57213 0
M  V30 7880 H 732.646 3.0103 4.02976 0
M  V30 7881 H 732.346 4.69478 3.53362 0
M  V30 7882 H 733.87 4.27067 4.36401 0
M  V30 7883 H 735.284 5.24588 2.31258 0
M  V30 7884 H 733.681 5.75349 1.70569 0
M  V30 7885 H 734.751 4.80409 0.65843 0
M  V30 7886 N 736.094 -0.359525 1.53444 0
M  V30 7887 C 737.343 -1.09886 1.69139 0
M  V30 7888 C 737.656 -1.90285 0.452863 0
M  V30 7889 O 738.862 -2.67033 0.490459 0
M  V30 7890 C 737.318 -2.0028 2.99025 0
M  V30 7891 C 736.926 -1.25164 4.30161 0
M  V30 7892 C 738.67 -2.74168 3.24086 0
M  V30 7893 C 736.577 -2.14494 5.51132 0
M  V30 7894 H 735.507 -0.413936 0.630217 0
M  V30 7895 H 738.158 -0.359434 1.79945 0
M  V30 7896 H 736.54 -2.77978 2.82036 0
M  V30 7897 H 737.714 -0.524867 4.57801 0
M  V30 7898 H 736.029 -0.631116 4.11589 0
M  V30 7899 H 738.626 -3.41243 4.11652 0
M  V30 7900 H 738.969 -3.39868 2.40407 0
M  V30 7901 H 739.502 -2.0355 3.41778 0
M  V30 7902 H 736.241 -1.53362 6.37307 0
M  V30 7903 H 735.761 -2.85004 5.27762 0
M  V30 7904 H 737.44 -2.73914 5.86157 0
M  V30 7905 N 737.572 -1.44907 -0.619662 0
M  V30 7906 C 738.505 -1.47133 -1.74434 0
M  V30 7907 C 739.483 -0.328933 -1.59238 0
M  V30 7908 O 740.667 -0.527632 -1.80965 0
M  V30 7909 C 737.794 -1.31491 -3.12134 0
M  V30 7910 C 736.84 -2.49441 -3.4595 0
M  V30 7911 S 737.673 -4.11945 -3.42142 0
M  V30 7912 C 738.829 -3.98747 -4.82443 0
M  V30 7913 H 739.062 -2.42295 -1.7228 0
M  V30 7914 H 736.595 -1.32343 -0.795276 0
M  V30 7915 H 738.553 -1.23153 -3.91591 0
M  V30 7916 H 737.214 -0.378203 -3.11815 0
M  V30 7917 H 736.407 -2.3439 -4.46181 0
M  V30 7918 H 736.009 -2.54577 -2.73982 0
M  V30 7919 H 738.301 -3.63145 -5.71954 0
M  V30 7920 H 739.244 -4.98848 -5.0255 0
M  V30 7921 H 739.652 -3.30608 -4.57557 0
M  V30 7922 N 739.05 0.861098 -1.31996 0
M  V30 7923 C 740.013 1.95068 -1.20338 0
M  V30 7924 C 741.013 1.60289 -0.128114 0
M  V30 7925 O 742.203 1.70048 -0.378044 0
M  V30 7926 C 739.335 3.30153 -0.849205 0
M  V30 7927 H 740.528 2.06833 -2.17164 0
M  V30 7928 H 738.081 1.05049 -1.15734 0
M  V30 7929 H 738.816 3.24087 0.117508 0
M  V30 7930 H 738.601 3.56771 -1.62655 0
M  V30 7931 H 740.091 4.10025 -0.791782 0
M  V30 7932 N 740.528 1.15101 1.07655 0
M  V30 7933 C 741.475 0.844958 2.14777 0
M  V30 7934 C 742.445 -0.200798 1.64882 0
M  V30 7935 O 743.63 -0.0690278 1.90675 0
M  V30 7936 C 740.77 0.337018 3.4345 0
M  V30 7937 C 739.883 1.44398 4.07153 0
M  V30 7938 C 739.018 0.892487 5.23649 0
M  V30 7939 C 738.057 1.9766 5.79307 0
M  V30 7940 N 737.194 1.44171 6.87138 0
M  V30 7941 H 742.034 1.76242 2.40297 0
M  V30 7942 H 739.571 0.879435 1.17917 0
M  V30 7943 H 741.529 0.024256 4.17193 0
M  V30 7944 H 740.159 -0.543531 3.18191 0
M  V30 7945 H 739.211 1.87299 3.31094 0
M  V30 7946 H 740.523 2.26262 4.4453 0
M  V30 7947 H 739.677 0.532083 6.04362 0
M  V30 7948 H 738.416 0.0429854 4.87681 0
M  V30 7949 H 737.421 2.34586 4.97242 0
M  V30 7950 H 738.646 2.82982 6.17331 0
M  V30 7951 H 736.592 0.614518 6.53115 0
M  V30 7952 H 736.509 2.19665 7.23383 0
M  V30 7953 H 737.777 1.10945 7.71564 0
M  V30 7954 N 742.006 -1.2595 0.947325 0
M  V30 7955 C 743.254 -1.93081 0.596996 0
M  V30 7956 C 743.575 -1.74632 -0.867672 0
M  V30 7957 O 742.845 -1.1056 -1.6172 0
M  V30 7958 H 741.425 -0.714542 0.217805 0
M  V30 7959 H 744.087 -1.53265 1.20398 0
M  V30 7960 H 743.183 -3.01134 0.82004 0
M  V30 7961 N 743.484 -0.715051 -1.40445 0
M  V30 7962 C 744.732 -0.253826 -2.005 0
M  V30 7963 C 745.053 1.15681 -1.5698 0
M  V30 7964 O 744.323 1.78414 -0.809027 0
M  V30 7965 H 742.903 -0.0908537 -0.741454 0
M  V30 7966 H 745.565 -0.920561 -1.7179 0
M  V30 7967 H 744.661 -0.286499 -3.10782 0
M  V30 7968 N 744.962 1.50701 -0.461195 0
M  V30 7969 C 746.211 2.01458 0.0988277 0
M  V30 7970 C 746.524 1.34863 1.41673 0
M  V30 7971 O 747.73 1.76721 2.06111 0
M  V30 7972 C 746.186 3.59186 0.226648 0
M  V30 7973 C 745.794 4.34732 -1.08223 0
M  V30 7974 C 747.538 4.18015 0.73916 0
M  V30 7975 C 745.445 5.8422 -0.918747 0
M  V30 7976 H 744.375 0.7529 0.040709 0
M  V30 7977 H 747.026 1.736 -0.594589 0
M  V30 7978 H 745.408 3.83589 0.983621 0
M  V30 7979 H 746.582 4.22059 -1.84939 0
M  V30 7980 H 744.897 3.87466 -1.52509 0
M  V30 7981 H 747.494 5.27436 0.878347 0
M  V30 7982 H 747.837 3.78746 1.72793 0
M  V30 7983 H 748.37 3.9778 0.0398469 0
M  V30 7984 H 745.109 6.27944 -1.88059 0
M  V30 7985 H 744.629 5.99493 -0.191801 0
M  V30 7986 H 746.308 6.44382 -0.581405 0
M  V30 7987 N 746.441 0.193421 1.56409 0
M  V30 7988 C 747.687 -0.446449 1.97825 0
M  V30 7989 C 748.02 -1.61386 1.08019 0
M  V30 7990 O 747.295 -1.94053 0.131839 0
M  V30 7991 C 747.578 -0.908199 3.48459 0
M  V30 7992 C 747.431 0.260914 4.49043 0
M  V30 7993 C 748.75 -1.77428 4.0275 0
M  V30 7994 H 745.869 -0.160807 0.719243 0
M  V30 7995 H 748.511 0.284006 1.87865 0
M  V30 7996 H 746.661 -1.53062 3.57077 0
M  V30 7997 H 748.333 0.898548 4.52464 0
M  V30 7998 H 746.576 0.912949 4.24085 0
M  V30 7999 H 747.247 -0.104657 5.51901 0
M  V30 8000 H 749.723 -1.24936 3.96901 0
M  V30 8001 H 748.599 -2.06633 5.08521 0
M  V30 8002 H 748.86 -2.72788 3.47907 0
M  V30 8003 N 747.919 -1.57396 -0.0801906 0
M  V30 8004 C 749.335 -1.53564 -0.434778 0
M  V30 8005 C 749.535 -0.912372 -1.79661 0
M  V30 8006 O 748.591 -0.511268 -2.4727 0
M  V30 8007 C 749.904 -2.98244 -0.383561 0
M  V30 8008 C 751.452 -3.09536 -0.46435 0
M  V30 8009 C 751.927 -4.55851 -0.443128 0
M  V30 8010 N 753.418 -4.60456 -0.503448 0
M  V30 8011 C 754.153 -5.71135 -0.509106 0
M  V30 8012 N 753.649 -6.91203 -0.47008 0
M  V30 8013 N 755.442 -5.59353 -0.555035 0
M  V30 8014 H 747.593 -1.96281 0.811635 0
M  V30 8015 H 749.856 -0.898041 0.303689 0
M  V30 8016 H 749.562 -3.47369 0.550236 0
M  V30 8017 H 749.436 -3.57705 -1.19694 0
M  V30 8018 H 751.823 -2.6039 -1.38857 0
M  V30 8019 H 751.904 -2.53 0.377445 0
M  V30 8020 H 751.548 -5.05653 0.477207 0
M  V30 8021 H 751.478 -5.10242 -1.30234 0
M  V30 8022 H 753.969 -3.74048 -0.538199 0
M  V30 8023 H 754.282 -7.7132 -0.478091 0
M  V30 8024 H 752.627 -6.93625 -0.436897 0
M  V30 8025 H 755.818 -4.64453 -0.583158 0
M  V30 8026 H 755.991 -6.4561 -0.555976 0
M  V30 8027 N 749.397 0.351382 -1.53633 0
M  V30 8028 C 750.625 1.11275 -1.74429 0
M  V30 8029 C 751.04 1.82602 -0.479798 0
M  V30 8030 O 750.397 1.74074 0.548125 0
M  V30 8031 C 750.448 2.13223 -2.91921 0
M  V30 8032 O 750.169 1.44798 -4.13479 0
M  V30 8033 C 751.67 3.01797 -3.24706 0
M  V30 8034 H 748.89 0.332153 -0.583023 0
M  V30 8035 H 751.434 0.405974 -2.0043 0
M  V30 8036 H 749.589 2.79477 -2.68274 0
M  V30 8037 H 750.003 2.12839 -4.79374 0
M  V30 8038 H 751.477 3.69282 -4.10286 0
M  V30 8039 H 751.954 3.67387 -2.40673 0
M  V30 8040 H 752.56 2.41141 -3.5033 0
M  V30 8041 N 750.875 1.45233 0.611969 0
M  V30 8042 C 752.123 1.48727 1.36838 0
M  V30 8043 C 752.444 0.128616 1.94575 0
M  V30 8044 O 751.714 -0.84149 1.76906 0
M  V30 8045 H 750.294 0.547695 0.507976 0
M  V30 8046 H 752.956 1.81156 0.718925 0
M  V30 8047 H 752.052 2.2236 2.19003 0
M  V30 8048 N 752.353 -0.854086 1.3245 0
M  V30 8049 C 753.581 -1.64074 1.26045 0
M  V30 8050 C 753.996 -1.8802 -0.171456 0
M  V30 8051 O 753.353 -1.4496 -1.10873 0
M  V30 8052 C 753.404 -2.9997 2.01743 0
M  V30 8053 O 753.125 -2.77084 3.39346 0
M  V30 8054 C 754.626 -3.94414 2.02368 0
M  V30 8055 H 751.846 -0.511015 0.434862 0
M  V30 8056 H 754.39 -1.06494 1.74583 0
M  V30 8057 H 752.545 -3.54193 1.56926 0
M  V30 8058 H 752.959 -3.63514 3.78098 0
M  V30 8059 H 754.433 -4.87032 2.59815 0
M  V30 8060 H 754.91 -4.27427 1.01009 0
M  V30 8061 H 755.516 -3.46127 2.47135 0
M  V30 8062 N 753.831 -1.1567 -1.07043 0
M  V30 8063 C 754.781 -0.824733 -2.12561 0
M  V30 8064 C 755.765 0.19243 -1.59745 0
M  V30 8065 O 756.957 -0.00728759 -1.76998 0
M  V30 8066 C 754.086 -0.31921 -3.41813 0
M  V30 8067 C 753.172 -1.36671 -4.01475 0
M  V30 8068 N 753.563 -2.57493 -4.35351 0
M  V30 8069 C 751.861 -1.22018 -4.28984 0
M  V30 8070 C 752.562 -3.24658 -4.82672 0
M  V30 8071 N 751.538 -2.52043 -4.81638 0
M  V30 8072 H 755.34 -1.74363 -2.3659 0
M  V30 8073 H 752.854 -1.04262 -1.24511 0
M  V30 8074 H 754.851 -0.0630216 -4.16852 0
M  V30 8075 H 753.511 0.593708 -3.19226 0
M  V30 8076 H 754.522 -2.94612 -4.25939 0
M  V30 8077 H 751.199 -0.367414 -4.1588 0
M  V30 8078 H 752.589 -4.2775 -5.1815 0
M  V30 8079 N 755.309 1.25446 -0.953992 0
M  V30 8080 C 756.557 1.92762 -0.607227 0
M  V30 8081 C 756.878 1.7509 0.858399 0
M  V30 8082 O 756.148 1.11416 1.61132 0
M  V30 8083 H 754.728 0.713377 -0.221591 0
M  V30 8084 H 757.39 1.52625 -1.21209 0
M  V30 8085 H 756.486 3.00695 -0.835998 0
M  V30 8086 N 756.787 0.722489 1.40064 0
M  V30 8087 C 757.717 0.0892452 2.33329 0
M  V30 8088 C 758.698 -0.737992 1.53257 0
M  V30 8089 O 759.883 -0.685516 1.81698 0
M  V30 8090 C 757.013 -0.828139 3.37282 0
M  V30 8091 C 755.967 -0.106005 4.27869 0
M  V30 8092 C 755.293 -1.13957 5.22415 0
M  V30 8093 C 756.593 1.04395 5.11761 0
M  V30 8094 H 758.287 0.868269 2.86534 0
M  V30 8095 H 755.833 0.418982 1.3777 0
M  V30 8096 H 757.786 -1.28058 4.01471 0
M  V30 8097 H 756.51 -1.63914 2.82489 0
M  V30 8098 H 755.169 0.326683 3.65142 0
M  V30 8099 H 754.817 -1.9438 4.63924 0
M  V30 8100 H 754.517 -0.661233 5.83868 0
M  V30 8101 H 756.041 -1.59197 5.89482 0
M  V30 8102 H 757.455 0.670541 5.69365 0
M  V30 8103 H 755.852 1.4511 5.82291 0
M  V30 8104 H 756.922 1.87144 4.47331 0
M  V30 8105 N 758.265 -1.50454 0.469181 0
M  V30 8106 C 759.195 -2.31353 -0.31592 0
M  V30 8107 C 760.176 -1.38172 -0.992094 0
M  V30 8108 O 761.361 -1.67093 -0.989633 0
M  V30 8109 C 758.491 -3.1786 -1.39937 0
M  V30 8110 C 757.445 -4.19578 -0.844909 0
M  V30 8111 C 756.771 -4.9481 -2.0265 0
M  V30 8112 C 758.071 -5.22106 0.142499 0
M  V30 8113 H 759.765 -2.97237 0.359269 0
M  V30 8114 H 757.311 -1.42942 0.174224 0
M  V30 8115 H 759.264 -3.7325 -1.95607 0
M  V30 8116 H 757.988 -2.49858 -2.1033 0
M  V30 8117 H 756.647 -3.65285 -0.310189 0
M  V30 8118 H 756.295 -4.23282 -2.71737 0
M  V30 8119 H 755.995 -5.63613 -1.66174 0
M  V30 8120 H 757.519 -5.53035 -2.58815 0
M  V30 8121 H 758.933 -5.72378 -0.324966 0
M  V30 8122 H 757.33 -5.98618 0.421441 0
M  V30 8123 H 758.4 -4.7297 1.06901 0
M  V30 8124 N 759.743 -0.201713 -1.56304 0
M  V30 8125 C 760.989 0.435952 -1.98059 0
M  V30 8126 C 761.322 1.60811 -1.08873 0
M  V30 8127 O 760.597 1.9398 -0.142128 0
M  V30 8128 C 760.88 0.889706 -3.48936 0
M  V30 8129 C 760.733 -0.284725 -4.48898 0
M  V30 8130 C 762.052 1.7529 -4.03685 0
M  V30 8131 H 759.171 0.15699 -0.720085 0
M  V30 8132 H 761.813 -0.293965 -1.87712 0
M  V30 8133 H 759.963 1.51166 -3.57884 0
M  V30 8134 H 761.635 -0.922531 -4.51981 0
M  V30 8135 H 759.878 -0.935427 -4.23594 0
M  V30 8136 H 760.549 0.0753865 -5.51949 0
M  V30 8137 H 763.025 1.2283 -3.97558 0
M  V30 8138 H 761.901 2.03933 -5.0961 0
M  V30 8139 H 762.162 2.70939 -3.49348 0
M  V30 8140 N 761.222 1.57436 0.0718424 0
M  V30 8141 C 762.169 2.03686 1.08539 0
M  V30 8142 C 763.139 0.917474 1.38462 0
M  V30 8143 O 764.324 1.18513 1.4953 0
M  V30 8144 C 761.464 2.48566 2.39393 0
M  V30 8145 C 760.577 3.74122 2.16001 0
M  V30 8146 C 759.712 4.07786 3.40418 0
M  V30 8147 C 758.751 5.26383 3.1239 0
M  V30 8148 N 757.888 5.55685 4.29138 0
M  V30 8149 H 762.728 2.90043 0.684018 0
M  V30 8150 H 760.265 1.43438 0.326183 0
M  V30 8151 H 762.223 2.72639 3.15791 0
M  V30 8152 H 760.853 1.65186 2.77333 0
M  V30 8153 H 759.905 3.57389 1.30296 0
M  V30 8154 H 761.217 4.60659 1.91298 0
M  V30 8155 H 760.371 4.32759 4.25211 0
M  V30 8156 H 759.11 3.19817 3.68197 0
M  V30 8157 H 758.115 5.01206 2.25993 0
M  V30 8158 H 759.34 6.1597 2.85934 0
M  V30 8159 H 757.286 4.70675 4.56948 0
M  V30 8160 H 757.203 6.3664 4.07708 0
M  V30 8161 H 758.471 5.85209 5.14928 0
M  V30 8162 N 762.7 -0.34323 1.53817 0
M  V30 8163 C 763.632 -1.44216 1.78141 0
M  V30 8164 C 764.645 -1.48701 0.662721 0
M  V30 8165 O 765.834 -1.51778 0.939458 0
M  V30 8166 C 762.934 -2.82872 1.86646 0
M  V30 8167 C 762.107 -3.01824 3.16577 0
M  V30 8168 C 761.166 -4.20723 3.16036 0
M  V30 8169 O 760.192 -4.14824 3.89756 0
M  V30 8170 N 761.394 -5.29276 2.38427 0
M  V30 8171 H 764.159 -1.23721 2.72971 0
M  V30 8172 H 761.72 -0.53311 1.52871 0
M  V30 8173 H 763.712 -3.60588 1.83735 0
M  V30 8174 H 762.282 -2.96509 0.990014 0
M  V30 8175 H 761.502 -2.11575 3.3261 0
M  V30 8176 H 762.79 -3.11369 4.02402 0
M  V30 8177 H 762.188 -5.36938 1.78085 0
M  V30 8178 H 760.745 -6.05484 2.41313 0
M  V30 8179 N 764.178 -1.45556 -0.604258 0
M  V30 8180 C 765.088 -1.57025 -1.74299 0
M  V30 8181 C 766.104 -0.45456 -1.67958 0
M  V30 8182 O 767.28 -0.715711 -1.88254 0
M  V30 8183 C 764.345 -1.53702 -3.10768 0
M  V30 8184 C 763.406 -2.76335 -3.28538 0
M  V30 8185 C 762.639 -2.73161 -4.58496 0
M  V30 8186 O 762.862 -1.80678 -5.41028 0
M  V30 8187 O 761.796 -3.64409 -4.79051 0
M  V30 8188 H 765.622 -2.53284 -1.67573 0
M  V30 8189 H 763.207 -1.28104 -0.768745 0
M  V30 8190 H 765.089 -1.54468 -3.92068 0
M  V30 8191 H 763.764 -0.605957 -3.17978 0
M  V30 8192 H 762.671 -2.8113 -2.46813 0
M  V30 8193 H 764.004 -3.68578 -3.26207 0
M  V30 8194 N 765.656 0.84705 -1.32902 0
M  V30 8195 C 766.933 1.58583 -1.14503 0
M  V30 8196 C 767.313 2.09075 0.291724 0
M  V30 8197 O 766.661 1.88636 1.28952 0
M  V30 8198 C 766.871 2.72605 -2.17916 0
M  V30 8199 C 768.219 3.41993 -2.51646 0
M  V30 8200 O 769.243 2.82838 -2.1652 0
M  V30 8201 O 768.102 4.48761 -3.1189 0
M  V30 8202 H 765.196 0.698756 -0.442345 0
M  V30 8203 H 767.742 0.890516 -1.44457 0
M  V30 8204 H 766.514 2.32876 -3.14459 0
M  V30 8205 H 766.137 3.49807 -1.89 0
M  V30 8206 N 767.134 1.16236 1.06428 0
M  V30 8207 C 768.067 0.81119 2.13295 0
M  V30 8208 C 769.045 -0.216555 1.61151 0
M  V30 8209 O 770.229 -0.100949 1.88229 0
M  V30 8210 C 767.356 0.207901 3.38061 0
M  V30 8211 C 766.402 1.20904 4.09004 0
M  V30 8212 S 767.235 2.75513 4.59187 0
M  V30 8213 C 768.391 2.1663 5.87216 0
M  V30 8214 H 768.624 1.71632 2.42755 0
M  V30 8215 H 766.157 0.985693 1.18842 0
M  V30 8216 H 768.115 -0.133715 4.10282 0
M  V30 8217 H 766.776 -0.67497 3.06762 0
M  V30 8218 H 765.969 0.735326 4.98607 0
M  V30 8219 H 765.571 1.49567 3.42791 0
M  V30 8220 H 767.863 1.53413 6.59902 0
M  V30 8221 H 768.806 3.04437 6.39315 0
M  V30 8222 H 769.214 1.60565 5.41183 0
M  V30 8223 N 768.612 -1.24939 0.960631 0
M  V30 8224 C 769.559 -2.25658 0.484459 0
M  V30 8225 C 770.529 -1.59422 -0.466242 0
M  V30 8226 O 771.714 -1.87015 -0.378169 0
M  V30 8227 C 768.854 -3.44359 -0.225958 0
M  V30 8228 C 767.967 -4.25214 0.762682 0
M  V30 8229 C 767.102 -5.31192 0.0290931 0
M  V30 8230 C 766.141 -6.03739 1.00827 0
M  V30 8231 N 765.278 -7.01437 0.305155 0
M  V30 8232 H 770.118 -2.65758 1.34821 0
M  V30 8233 H 767.655 -1.30648 0.675983 0
M  V30 8234 H 769.613 -4.12035 -0.654472 0
M  V30 8235 H 768.243 -3.05118 -1.05371 0
M  V30 8236 H 767.295 -3.57144 1.30966 0
M  V30 8237 H 768.607 -4.75406 1.50964 0
M  V30 8238 H 767.761 -6.04971 -0.457763 0
M  V30 8239 H 766.5 -4.81889 -0.750614 0
M  V30 8240 H 765.505 -5.2877 1.50607 0
M  V30 8241 H 766.73 -6.55131 1.7883 0
M  V30 8242 H 764.676 -6.54415 -0.455704 0
M  V30 8243 H 764.593 -7.49475 0.991104 0
M  V30 8244 H 765.861 -7.79336 -0.159966 0
M  V30 8245 N 770.09 -0.729906 -1.39679 0
M  V30 8246 C 771.338 -0.275077 -2.00219 0
M  V30 8247 C 771.659 1.1401 -1.58199 0
M  V30 8248 O 770.929 1.77546 -0.827904 0
M  V30 8249 H 769.509 -0.0987127 -0.740449 0
M  V30 8250 H 772.171 -0.93873 -1.70804 0
M  V30 8251 H 771.267 -0.319446 -3.10461 0
M  V30 8252 N 771.568 1.50203 -0.477153 0
M  V30 8253 C 772.518 2.25561 0.332625 0
M  V30 8254 C 773.502 1.29401 0.956249 0
M  V30 8255 O 774.694 1.54267 0.867795 0
M  V30 8256 C 771.823 3.12984 1.41052 0
M  V30 8257 C 770.909 4.16595 0.79433 0
M  V30 8258 N 771.3 5.05722 -0.0889633 0
M  V30 8259 C 769.598 4.33279 1.0576 0
M  V30 8260 C 770.299 5.80039 -0.439286 0
M  V30 8261 N 769.275 5.43278 0.187018 0
M  V30 8262 H 773.077 2.91836 -0.347718 0
M  V30 8263 H 770.591 1.59759 -0.291686 0
M  V30 8264 H 772.588 3.65582 2.00388 0
M  V30 8265 H 771.248 2.48258 2.09279 0
M  V30 8266 H 772.259 5.15869 -0.458205 0
M  V30 8267 H 768.936 3.79769 1.7344 0
M  V30 8268 H 770.326 6.61802 -1.1605 0
M  V30 8269 N 773.046 0.209999 1.56195 0
M  V30 8270 C 774.293 -0.424813 1.97994 0
M  V30 8271 C 774.621 -1.60589 1.09733 0
M  V30 8272 O 773.876 -1.95201 0.139693 0
M  V30 8273 C 774.175 -0.91312 3.45539 0
M  V30 8274 C 773.841 0.156187 4.50629 0
M  V30 8275 C 772.503 0.449966 4.79092 0
M  V30 8276 C 774.855 0.879959 5.13718 0
M  V30 8277 C 772.183 1.47223 5.67928 0
M  V30 8278 C 774.535 1.89148 6.0366 0
M  V30 8279 C 773.199 2.1923 6.30472 0
M  V30 8280 H 772.469 -0.15545 0.724511 0
M  V30 8281 H 775.116 0.310095 1.88973 0
M  V30 8282 H 773.421 -1.72658 3.51705 0
M  V30 8283 H 775.118 -1.41395 3.75245 0
M  V30 8284 H 771.708 -0.0829466 4.2852 0
M  V30 8285 H 775.892 0.66623 4.91808 0
M  V30 8286 H 771.148 1.71105 5.86969 0
M  V30 8287 H 775.322 2.45745 6.516 0
M  V30 8288 H 772.949 2.98587 6.99107 0
M  V30 8289 N 774.524 -1.57472 -0.0634922 0
M  V30 8290 C 775.749 -1.92273 -0.77756 0
M  V30 8291 C 776.174 -0.807141 -1.69902 0
M  V30 8292 O 775.532 0.239523 -1.79711 0
M  V30 8293 C 775.58 -3.26054 -1.54017 0
M  V30 8294 O 774.684 -3.15873 -2.65138 0
M  V30 8295 H 774.025 -0.629389 -0.211579 0
M  V30 8296 H 776.555 -2.04579 -0.0292523 0
M  V30 8297 H 776.565 -3.60127 -1.91763 0
M  V30 8298 H 775.24 -4.06824 -0.864128 0
M  V30 8299 H 773.817 -2.93373 -2.30189 0
M  V30 8300 N 776.003 0.335068 -1.53997 0
M  V30 8301 C 777.252 1.07182 -1.70865 0
M  V30 8302 C 777.565 1.89541 -0.483078 0
M  V30 8303 O 778.771 2.66219 -0.532879 0
M  V30 8304 C 777.227 1.95497 -3.02174 0
M  V30 8305 C 776.835 1.18304 -4.32097 0
M  V30 8306 C 778.579 2.68978 -3.28407 0
M  V30 8307 C 776.486 2.05699 -5.54474 0
M  V30 8308 H 775.416 0.403857 -0.636722 0
M  V30 8309 H 778.067 0.33076 -1.80494 0
M  V30 8310 H 776.449 2.73456 -2.86423 0
M  V30 8311 H 777.623 0.451969 -4.58578 0
M  V30 8312 H 775.938 0.565556 -4.12541 0
M  V30 8313 H 778.535 3.34651 -4.17029 0
M  V30 8314 H 778.878 3.36 -2.45784 0
M  V30 8315 H 779.411 1.98087 -3.44973 0
M  V30 8316 H 776.15 1.43204 -6.39666 0
M  V30 8317 H 775.67 2.76572 -5.32229 0
M  V30 8318 H 777.349 2.64554 -5.90441 0
M  V30 8319 N 777.481 1.45874 0.596531 0
M  V30 8320 C 778.706 1.54247 1.38646 0
M  V30 8321 C 779.131 0.179571 1.87241 0
M  V30 8322 O 778.489 -0.837831 1.6078 0
M  V30 8323 C 778.537 2.54015 2.55946 0
M  V30 8324 O 777.641 2.06561 3.5694 0
M  V30 8325 H 776.982 0.519555 0.413471 0
M  V30 8326 H 779.512 1.91327 0.724936 0
M  V30 8327 H 779.522 2.73179 3.03047 0
M  V30 8328 H 778.197 3.52994 2.19928 0
M  V30 8329 H 776.774 1.97324 3.16414 0
M  V30 8330 N 778.959 -0.83999 1.33349 0
M  V30 8331 C 780.208 -1.59011 1.2409 0
M  V30 8332 C 780.521 -1.94655 -0.192029 0
M  V30 8333 O 781.727 -2.68438 -0.406617 0
M  V30 8334 C 780.183 -2.86801 2.17425 0
M  V30 8335 C 779.791 -2.58525 3.65881 0
M  V30 8336 C 781.535 -3.64823 2.17036 0
M  V30 8337 C 779.442 -3.82404 4.51133 0
M  V30 8338 H 778.372 -0.596731 0.460899 0
M  V30 8339 H 781.023 -0.926274 1.58406 0
M  V30 8340 H 779.405 -3.54719 1.7604 0
M  V30 8341 H 780.579 -1.98824 4.15699 0
M  V30 8342 H 778.894 -1.93808 3.68548 0
M  V30 8343 H 781.491 -4.56774 2.7796 0
M  V30 8344 H 781.834 -3.99663 1.16513 0
M  V30 8345 H 782.367 -3.03826 2.56777 0
M  V30 8346 H 779.106 -3.52696 5.52527 0
M  V30 8347 H 778.626 -4.41447 4.0606 0
M  V30 8348 H 780.305 -4.49995 4.6488 0
M  V30 8349 N 780.437 -1.16799 -1.0581 0
M  V30 8350 C 781.848 -0.95945 -1.60161 0
M  V30 8351 C 782.199 0.49543 -1.89842 0
M  V30 8352 O 781.324 1.36957 -1.67546 0
M  V30 8353 C 781.919 -1.73527 -2.90987 0
M  V30 8354 C 780.478 -1.57158 -3.42021 0
M  V30 8355 C 779.625 -1.74089 -2.15843 0
M  V30 8356 H 782.576 -1.31598 -0.886992 0
M  V30 8357 H 782.597 -1.21397 -3.60615 0
M  V30 8358 H 782.109 -2.79411 -2.69353 0
M  V30 8359 H 780.21 -0.537361 -3.68705 0
M  V30 8360 H 780.323 -2.35858 -4.17022 0
M  V30 8361 H 778.687 -1.16874 -2.26302 0
M  V30 8362 H 779.47 -2.81371 -1.96686 0
M  V30 8363 N 781.915 1.24427 -0.967243 0
M  V30 8364 C 783.161 1.92772 -0.629812 0
M  V30 8365 C 783.494 1.75436 0.832827 0
M  V30 8366 O 782.769 1.10716 1.59913 0
M  V30 8367 C 783.052 3.45798 -1.00477 0
M  V30 8368 C 782.905 3.72304 -2.52407 0
M  V30 8369 C 784.224 4.36787 -0.538999 0
M  V30 8370 H 781.343 0.700099 -0.230282 0
M  V30 8371 H 783.985 1.46805 -1.20616 0
M  V30 8372 H 782.135 3.8508 -0.514336 0
M  V30 8373 H 783.807 3.42584 -3.08924 0
M  V30 8374 H 782.05 3.17472 -2.95625 0
M  V30 8375 H 782.721 4.7937 -2.73693 0
M  V30 8376 H 785.197 4.04877 -0.959874 0
M  V30 8377 H 784.073 5.4259 -0.829926 0
M  V30 8378 H 784.334 4.38527 0.560923 0
M  V30 8379 N 783.393 0.737304 1.3929 0
M  V30 8380 C 784.34 0.0988364 2.30588 0
M  V30 8381 C 785.31 -0.727206 1.49335 0
M  V30 8382 O 786.495 -0.686694 1.78014 0
M  V30 8383 C 783.635 -0.800734 3.35682 0
M  V30 8384 C 782.748 0.0381731 4.31983 0
M  V30 8385 C 781.883 -0.862884 5.24145 0
M  V30 8386 C 780.922 -0.0193639 6.12097 0
M  V30 8387 N 780.059 -0.87648 6.96608 0
M  V30 8388 H 784.899 0.883031 2.84617 0
M  V30 8389 H 782.436 0.447111 1.4014 0
M  V30 8390 H 784.394 -1.33676 3.95205 0
M  V30 8391 H 783.024 -1.55088 2.83103 0
M  V30 8392 H 782.076 0.691641 3.74059 0
M  V30 8393 H 783.388 0.690294 4.94 0
M  V30 8394 H 782.542 -1.46667 5.88705 0
M  V30 8395 H 781.281 -1.54878 4.62454 0
M  V30 8396 H 780.286 0.597202 5.46547 0
M  V30 8397 H 781.511 0.663348 6.75852 0
M  V30 8398 H 779.457 -1.54762 6.37483 0
M  V30 8399 H 779.374 -0.280892 7.55478 0
M  V30 8400 H 780.642 -1.46575 7.65595 0
M  V30 8401 N 784.871 -1.49948 0.485112 0
M  V30 8402 C 786.096 -2.073 -0.0645059 0
M  V30 8403 C 786.521 -1.345 -1.31497 0
M  V30 8404 O 785.879 -0.39687 -1.76903 0
M  V30 8405 C 785.927 -3.59201 -0.317304 0
M  V30 8406 O 785.031 -3.88085 -1.39514 0
M  V30 8407 H 784.372 -0.663723 0.0191822 0
M  V30 8408 H 786.902 -1.92963 0.680179 0
M  V30 8409 H 786.912 -4.04227 -0.553604 0
M  V30 8410 H 785.587 -4.11602 0.596387 0
M  V30 8411 H 784.164 -3.54885 -1.14504 0
M  V30 8412 N 786.349 -0.21828 -1.56081 0
M  V30 8413 C 787.626 0.463143 -1.90038 0
M  V30 8414 C 788.006 1.77982 -1.13515 0
M  V30 8415 O 787.354 2.27199 -0.24345 0
M  V30 8416 C 787.564 0.659292 -3.42716 0
M  V30 8417 C 788.912 0.968203 -4.13414 0
M  V30 8418 O 789.936 0.746195 -3.48296 0
M  V30 8419 O 788.795 1.38936 -5.28544 0
M  V30 8420 H 785.889 0.244435 -0.790051 0
M  V30 8421 H 788.435 -0.260221 -1.67693 0
M  V30 8422 H 787.207 -0.269584 -3.9037 0
M  V30 8423 H 786.83 1.43426 -3.7083 0
M  V30 8424 N 787.827 1.57504 0.0551401 0
M  V30 8425 C 789.076 1.87237 0.750009 0
M  V30 8426 C 789.389 0.813268 1.77891 0
M  V30 8427 O 790.595 0.99898 2.52453 0
M  V30 8428 C 789.051 3.32187 1.38491 0
M  V30 8429 C 788.659 4.46267 0.393707 0
M  V30 8430 C 790.403 3.71101 2.06117 0
M  V30 8431 C 788.31 5.82265 1.03547 0
M  V30 8432 H 787.24 0.698524 0.283866 0
M  V30 8433 H 789.891 1.835 0.00365997 0
M  V30 8434 H 788.273 3.30588 2.18008 0
M  V30 8435 H 789.447 4.59289 -0.372865 0
M  V30 8436 H 787.762 4.16015 -0.17902 0
M  V30 8437 H 790.359 4.70012 2.54937 0
M  V30 8438 H 790.702 3.01751 2.86796 0
M  V30 8439 H 791.235 3.74762 1.33409 0
M  V30 8440 H 787.974 6.54949 0.268644 0
M  V30 8441 H 787.494 5.73012 1.7725 0
M  V30 8442 H 789.173 6.28148 1.55047 0
M  V30 8443 N 789.305 -0.326896 1.54172 0
M  V30 8444 C 790.268 -1.38515 1.8261 0
M  V30 8445 C 791.268 -1.44872 0.697771 0
M  V30 8446 O 792.458 -1.44957 0.966078 0
M  V30 8447 C 789.59 -2.77281 1.98313 0
M  V30 8448 H 790.783 -1.14556 2.77159 0
M  V30 8449 H 788.336 -0.562199 1.45839 0
M  V30 8450 H 789.071 -3.065 1.05964 0
M  V30 8451 H 788.856 -2.74061 2.80416 0
M  V30 8452 H 790.346 -3.53845 2.21773 0
M  V30 8453 N 790.784 -1.46188 -0.588786 0
M  V30 8454 C 792.195 -1.45421 -1.17088 0
M  V30 8455 C 792.546 -0.191801 -1.9526 0
M  V30 8456 O 791.671 0.705497 -2.04577 0
M  V30 8457 C 792.266 -2.63467 -2.13004 0
M  V30 8458 C 790.825 -2.6576 -2.6655 0
M  V30 8459 C 789.972 -2.38002 -1.42304 0
M  V30 8460 H 792.923 -1.54156 -0.377052 0
M  V30 8461 H 792.944 -2.38638 -2.96365 0
M  V30 8462 H 792.456 -3.55331 -1.56081 0
M  V30 8463 H 790.557 -1.77952 -3.27359 0
M  V30 8464 H 790.67 -3.65545 -3.09699 0
M  V30 8465 H 789.034 -1.87936 -1.71907 0
M  V30 8466 H 789.817 -3.32035 -0.872209 0
M  V30 8467 N 792.262 0.832906 -1.33792 0
M  V30 8468 C 793.508 1.59089 -1.25772 0
M  V30 8469 C 793.841 1.93414 0.174601 0
M  V30 8470 O 793.116 1.59195 1.11746 0
M  V30 8471 C 793.399 2.89699 -2.13885 0
M  V30 8472 C 793.252 2.62017 -3.65605 0
M  V30 8473 C 794.571 3.91182 -2.01654 0
M  V30 8474 H 791.69 0.577232 -0.458227 0
M  V30 8475 H 794.332 0.960227 -1.6395 0
M  V30 8476 H 792.482 3.4352 -1.81456 0
M  V30 8477 H 794.154 2.14582 -4.08353 0
M  V30 8478 H 792.397 1.95621 -3.87189 0
M  V30 8479 H 793.068 3.55112 -4.2261 0
M  V30 8480 H 795.544 3.46684 -2.30107 0
M  V30 8481 H 794.42 4.80391 -2.65548 0
M  V30 8482 H 794.681 4.30861 -0.990536 0
M  V30 8483 N 793.74 1.17359 1.05189 0
M  V30 8484 C 794.703 0.892604 2.11105 0
M  V30 8485 C 795.703 -0.117236 1.60372 0
M  V30 8486 O 796.893 0.114936 1.7382 0
M  V30 8487 C 794.025 0.337032 3.3923 0
M  V30 8488 H 795.218 1.83169 2.37464 0
M  V30 8489 H 792.771 0.984051 1.21434 0
M  V30 8490 H 793.506 -0.609198 3.18527 0
M  V30 8491 H 793.291 1.06484 3.77364 0
M  V30 8492 H 794.781 0.158763 4.17298 0
M  V30 8493 N 795.218 -1.23913 0.973828 0
M  V30 8494 C 796.634 -1.44325 0.681363 0
M  V30 8495 C 796.834 -1.86832 -0.754728 0
M  V30 8496 O 795.89 -2.01024 -1.52793 0
M  V30 8497 C 797.203 -2.50017 1.67069 0
M  V30 8498 C 798.751 -2.63838 1.68399 0
M  V30 8499 C 799.226 -3.72734 2.66145 0
M  V30 8500 N 800.717 -3.80169 2.64624 0
M  V30 8501 C 801.452 -4.6397 3.36927 0
M  V30 8502 N 800.948 -5.51911 4.18767 0
M  V30 8503 N 802.741 -4.58106 3.25722 0
M  V30 8504 H 794.892 -0.946204 1.9016 0
M  V30 8505 H 797.155 -0.477374 0.819035 0
M  V30 8506 H 796.861 -2.25686 2.69738 0
M  V30 8507 H 796.735 -3.48287 1.4483 0
M  V30 8508 H 799.122 -2.87524 0.664379 0
M  V30 8509 H 799.203 -1.65906 1.94702 0
M  V30 8510 H 798.847 -3.49797 3.68245 0
M  V30 8511 H 798.777 -4.70193 2.3712 0
M  V30 8512 H 801.268 -3.17319 2.05224 0
M  V30 8513 H 801.581 -6.12828 4.70809 0
M  V30 8514 H 799.926 -5.51556 4.2286 0
M  V30 8515 H 803.117 -3.8842 2.61242 0
M  V30 8516 H 803.29 -5.23188 3.82333 0
M  V30 8517 N 796.696 -0.74468 -1.38897 0
M  V30 8518 C 797.626 -0.126355 -2.33158 0
M  V30 8519 C 798.607 0.713517 -1.54412 0
M  V30 8520 O 799.792 0.656523 -1.82766 0
M  V30 8521 C 796.922 0.774375 -3.38557 0
M  V30 8522 C 795.876 0.0379214 -4.27983 0
M  V30 8523 C 795.202 1.05631 -5.24162 0
M  V30 8524 C 796.502 -1.12523 -5.10035 0
M  V30 8525 H 798.196 -0.913744 -2.85116 0
M  V30 8526 H 795.742 -0.440847 -1.37086 0
M  V30 8527 H 797.695 1.21655 -4.03458 0
M  V30 8528 H 796.419 1.59399 -2.85061 0
M  V30 8529 H 795.078 -0.384733 -3.64576 0
M  V30 8530 H 794.726 1.86975 -4.66958 0
M  V30 8531 H 794.426 0.568261 -5.84846 0
M  V30 8532 H 795.95 1.49799 -5.9194 0
M  V30 8533 H 797.364 -0.761037 -5.68226 0
M  V30 8534 H 795.761 -1.54355 -5.79909 0
M  V30 8535 H 796.831 -1.94237 -4.44297 0
M  V30 8536 N 798.174 1.49689 -0.493057 0
M  V30 8537 C 799.104 2.31826 0.279073 0
M  V30 8538 C 800.085 1.39733 0.969987 0
M  V30 8539 O 801.27 1.68646 0.962925 0
M  V30 8540 C 798.4 3.20046 1.34862 0
M  V30 8541 C 797.354 4.20869 0.77805 0
M  V30 8542 C 796.68 4.97971 1.94753 0
M  V30 8543 C 797.98 5.21813 -0.225543 0
M  V30 8544 H 799.674 2.96627 -0.406512 0
M  V30 8545 H 797.22 1.42647 -0.196943 0
M  V30 8546 H 799.173 3.76315 1.89645 0
M  V30 8547 H 797.897 2.53172 2.06328 0
M  V30 8548 H 796.556 3.65733 0.252036 0
M  V30 8549 H 796.204 4.27552 2.64969 0
M  V30 8550 H 795.904 5.66186 1.57187 0
M  V30 8551 H 797.428 5.57082 2.49984 0
M  V30 8552 H 798.842 5.72823 0.233864 0
M  V30 8553 H 797.239 5.97872 -0.516622 0
M  V30 8554 H 798.309 4.71209 -1.14412 0
M  V30 8555 N 799.652 0.226554 1.55963 0
M  V30 8556 C 800.901 -0.40417 1.97609 0
M  V30 8557 C 801.214 -1.60541 1.1174 0
M  V30 8558 O 802.42 -2.30598 1.43307 0
M  V30 8559 C 800.876 -0.770466 3.51556 0
M  V30 8560 C 800.484 0.408244 4.46136 0
M  V30 8561 C 802.228 -1.36651 4.01904 0
M  V30 8562 C 800.135 0.0192347 5.91397 0
M  V30 8563 H 799.065 -0.15478 0.737943 0
M  V30 8564 H 801.716 0.323558 1.80625 0
M  V30 8565 H 800.098 -1.55575 3.6416 0
M  V30 8566 H 801.272 1.18575 4.45283 0
M  V30 8567 H 799.587 0.917859 4.06158 0
M  V30 8568 H 802.184 -1.67055 5.07934 0
M  V30 8569 H 802.527 -2.28403 3.48049 0
M  V30 8570 H 803.06 -0.644556 3.92543 0
M  V30 8571 H 799.799 0.90336 6.49245 0
M  V30 8572 H 799.319 -0.722485 5.95433 0
M  V30 8573 H 800.998 -0.405711 6.45727 0
M  V30 8574 N 801.13 -1.57531 -0.0467866 0
M  V30 8575 C 802.36 -1.92417 -0.752279 0
M  V30 8576 C 802.768 -0.823134 -1.70356 0
M  V30 8577 O 802.111 0.210598 -1.82489 0
M  V30 8578 C 802.173 -3.22974 -1.57887 0
M  V30 8579 C 801.837 -4.50045 -0.794285 0
M  V30 8580 C 802.834 -5.19799 -0.102368 0
M  V30 8581 C 800.519 -4.96608 -0.754061 0
M  V30 8582 C 802.513 -6.34385 0.619267 0
M  V30 8583 C 800.2 -6.11093 -0.0286682 0
M  V30 8584 C 801.198 -6.79835 0.656772 0
M  V30 8585 O 800.886 -7.92133 1.37042 0
M  V30 8586 H 800.618 -0.640029 -0.217576 0
M  V30 8587 H 803.172 -2.05395 -0.0137438 0
M  V30 8588 H 801.402 -3.06273 -2.3608 0
M  V30 8589 H 803.091 -3.43319 -2.16533 0
M  V30 8590 H 803.857 -4.8484 -0.124589 0
M  V30 8591 H 799.736 -4.42958 -1.27706 0
M  V30 8592 H 803.28 -6.87975 1.15483 0
M  V30 8593 H 799.177 -6.455 -0.00446214 0
M  V30 8594 H 799.945 -8.08394 1.28227 0
M  V30 8595 N 802.608 0.318715 -1.54344 0
M  V30 8596 C 803.571 1.37545 -1.83342 0
M  V30 8597 C 804.571 1.445 -0.705444 0
M  V30 8598 O 805.761 1.44443 -0.973752 0
M  V30 8599 C 802.893 2.76225 -1.99781 0
M  V30 8600 H 804.086 1.13084 -2.77762 0
M  V30 8601 H 801.639 0.554457 -1.46135 0
M  V30 8602 H 802.374 3.05934 -1.07588 0
M  V30 8603 H 802.159 2.7257 -2.81865 0
M  V30 8604 H 803.649 3.52664 -2.23647 0
M  V30 8605 N 804.086 1.46499 0.581025 0
M  V30 8606 C 805.332 1.52121 1.34116 0
M  V30 8607 C 805.665 0.173031 1.93428 0
M  V30 8608 O 804.94 -0.815729 1.76568 0
M  V30 8609 C 805.223 2.62108 2.46924 0
M  V30 8610 C 805.076 4.06462 1.92636 0
M  V30 8611 C 806.395 2.68167 3.48962 0
M  V30 8612 H 803.514 0.5538 0.486287 0
M  V30 8613 H 806.156 1.78443 0.652538 0
M  V30 8614 H 804.306 2.39794 3.05665 0
M  V30 8615 H 805.978 4.40068 1.3834 0
M  V30 8616 H 804.221 4.15862 1.23455 0
M  V30 8617 H 804.892 4.79152 2.74076 0
M  V30 8618 H 807.368 2.8823 3.00104 0
M  V30 8619 H 806.244 3.46942 4.2535 0
M  V30 8620 H 806.505 1.74284 4.06297 0
M  V30 8621 N 805.565 -0.825799 1.34232 0
M  V30 8622 C 806.495 -1.95151 1.28212 0
M  V30 8623 C 807.476 -1.69345 0.160123 0
M  V30 8624 O 808.661 -1.90983 0.352019 0
M  V30 8625 C 805.791 -3.31554 1.03388 0
M  V30 8626 C 804.745 -3.71793 2.12023 0
M  V30 8627 C 804.071 -5.06147 1.72392 0
M  V30 8628 C 805.371 -3.84193 3.53826 0
M  V30 8629 H 807.065 -2.00445 2.22401 0
M  V30 8630 H 804.611 -0.962996 1.07063 0
M  V30 8631 H 806.564 -4.09889 0.978225 0
M  V30 8632 H 805.288 -3.26551 0.0564142 0
M  V30 8633 H 803.947 -2.95731 2.16654 0
M  V30 8634 H 803.595 -4.97628 0.733137 0
M  V30 8635 H 803.295 -5.34041 2.451 0
M  V30 8636 H 804.819 -5.86943 1.68317 0
M  V30 8637 H 806.233 -4.52806 3.51624 0
M  V30 8638 H 804.63 -4.23538 4.2513 0
M  V30 8639 H 805.7 -2.86272 3.91377 0
M  V30 8640 N 807.043 -1.17915 -1.04565 0
M  V30 8641 C 808.454 -0.976383 -1.59134 0
M  V30 8642 C 808.805 0.475267 -1.90357 0
M  V30 8643 O 807.93 1.35172 -1.6899 0
M  V30 8644 C 808.525 -1.76604 -2.89131 0
M  V30 8645 C 807.084 -1.60777 -3.40335 0
M  V30 8646 C 806.231 -1.76369 -2.13985 0
M  V30 8647 H 809.182 -1.32532 -0.872985 0
M  V30 8648 H 809.203 -1.25215 -3.59307 0
M  V30 8649 H 808.715 -2.82252 -2.66375 0
M  V30 8650 H 806.816 -0.576436 -3.68114 0
M  V30 8651 H 806.929 -2.40268 -4.14497 0
M  V30 8652 H 805.293 -1.19268 -2.25049 0
M  V30 8653 H 806.076 -2.83441 -1.9369 0
M  V30 8654 N 808.521 1.23394 -0.980386 0
M  V30 8655 C 809.749 1.95844 -0.667286 0
M  V30 8656 C 810.164 1.72574 0.765735 0
M  V30 8657 O 809.521 1.01715 1.51526 0
M  V30 8658 C 809.572 3.48844 -0.948151 0
M  V30 8659 O 809.293 3.71325 -2.32485 0
M  V30 8660 C 810.794 4.38494 -0.651002 0
M  V30 8661 H 808.014 0.623535 -0.247882 0
M  V30 8662 H 810.558 1.56885 -1.31176 0
M  V30 8663 H 808.713 3.85819 -0.349681 0
M  V30 8664 H 809.127 4.65619 -2.41452 0
M  V30 8665 H 810.601 5.44648 -0.897887 0
M  V30 8666 H 811.078 4.37236 0.414922 0
M  V30 8667 H 811.684 4.07127 -1.22995 0
M  V30 8668 N 809.999 0.752036 1.385 0
M  V30 8669 C 811.247 0.306895 1.99756 0
M  V30 8670 C 811.568 -1.11478 1.59992 0
M  V30 8671 O 810.838 -1.76206 0.856045 0
M  V30 8672 H 809.418 0.11048 0.738785 0
M  V30 8673 H 812.08 0.965785 1.69289 0
M  V30 8674 H 811.176 0.368797 3.09913 0
M  V30 8675 N 811.477 -1.49425 0.500989 0
M  V30 8676 C 812.754 -1.9531 -0.106551 0
M  V30 8677 C 813.134 -1.44248 -1.54129 0
M  V30 8678 O 812.482 -0.656237 -2.18874 0
M  V30 8679 C 812.692 -3.48995 -0.0191972 0
M  V30 8680 C 814.04 -4.24161 -0.193129 0
M  V30 8681 O 815.064 -3.56075 -0.0943843 0
M  V30 8682 O 813.923 -5.45064 -0.395869 0
M  V30 8683 H 811.017 -0.82149 -0.0953068 0
M  V30 8684 H 813.563 -1.6007 0.563526 0
M  V30 8685 H 812.335 -3.78794 0.981353 0
M  V30 8686 H 811.958 -3.90852 -0.72942 0
M  V30 8687 N 812.955 -0.234822 -1.55841 0
M  V30 8688 C 814.201 0.393843 -1.98939 0
M  V30 8689 C 814.534 1.58466 -1.1226 0
M  V30 8690 O 813.809 1.93635 -0.183242 0
M  V30 8691 C 814.092 0.815492 -3.50745 0
M  V30 8692 C 813.945 -0.379878 -4.48193 0
M  V30 8693 C 815.264 1.66687 -4.07312 0
M  V30 8694 H 812.383 0.141681 -0.723253 0
M  V30 8695 H 815.025 -0.333716 -1.87046 0
M  V30 8696 H 813.175 1.43541 -3.6101 0
M  V30 8697 H 814.847 -1.0182 -4.49923 0
M  V30 8698 H 813.09 -1.02507 -4.21515 0
M  V30 8699 H 813.761 -0.0417069 -5.51984 0
M  V30 8700 H 816.237 1.14369 -4.00074 0
M  V30 8701 H 815.113 1.93078 -5.13821 0
M  V30 8702 H 815.374 2.63468 -3.55017 0
M  V30 8703 N 814.433 1.57553 0.0384317 0
M  V30 8704 C 815.682 1.88022 0.730108 0
M  V30 8705 C 815.995 0.83209 1.77019 0
M  V30 8706 O 817.201 1.0257 2.51379 0
M  V30 8707 C 815.657 3.33637 1.3496 0
M  V30 8708 C 815.265 4.46659 0.346352 0
M  V30 8709 C 817.009 3.73266 2.02169 0
M  V30 8710 C 814.916 5.8333 0.973652 0
M  V30 8711 H 813.846 0.701496 0.276442 0
M  V30 8712 H 816.497 1.83493 -0.0158028 0
M  V30 8713 H 814.879 3.32882 2.1449 0
M  V30 8714 H 816.053 4.58868 -0.421558 0
M  V30 8715 H 814.368 4.15802 -0.223133 0
M  V30 8716 H 816.965 4.72689 2.49938 0
M  V30 8717 H 817.308 3.04776 2.8358 0
M  V30 8718 H 817.841 3.76156 1.29427 0
M  V30 8719 H 814.58 6.55197 0.199163 0
M  V30 8720 H 814.1 5.7486 1.71162 0
M  V30 8721 H 815.779 6.29757 1.48376 0
M  V30 8722 N 815.911 -0.310526 1.54511 0
M  V30 8723 C 817.159 -1.04484 1.72996 0
M  V30 8724 C 817.48 -1.88118 0.513479 0
M  V30 8725 O 816.75 -1.90119 -0.472384 0
M  V30 8726 H 815.33 -0.388747 0.637875 0
M  V30 8727 H 817.992 -0.343811 1.91844 0
M  V30 8728 H 817.088 -1.70341 2.61515 0
M  V30 8729 N 817.389 -1.46805 -0.573248 0
M  V30 8730 C 818.666 -1.43082 -1.33368 0
M  V30 8731 C 819.046 -0.119252 -2.10763 0
M  V30 8732 O 818.394 0.899239 -2.10062 0
M  V30 8733 C 818.604 -2.66643 -2.25172 0
M  V30 8734 C 819.952 -3.13188 -2.86702 0
M  V30 8735 O 820.976 -2.67258 -2.35482 0
M  V30 8736 O 819.835 -3.92994 -3.79761 0
M  V30 8737 H 816.929 -0.569451 -0.599712 0
M  V30 8738 H 819.475 -1.58984 -0.59348 0
M  V30 8739 H 818.247 -3.53649 -1.67475 0
M  V30 8740 H 817.87 -2.53247 -3.06516 0
M  V30 8741 N 818.867 0.818669 -1.34668 0
M  V30 8742 C 820.092 1.61193 -1.30505 0
M  V30 8743 C 820.517 1.87734 0.117341 0
M  V30 8744 O 819.875 1.45591 1.08042 0
M  V30 8745 C 819.923 2.92733 -2.1057 0
M  V30 8746 O 819.027 3.85 -1.47813 0
M  V30 8747 H 818.368 0.490085 -0.44801 0
M  V30 8748 H 820.898 1.01701 -1.77534 0
M  V30 8749 H 820.908 3.42262 -2.22082 0
M  V30 8750 H 819.583 2.7274 -3.13984 0
M  V30 8751 H 818.16 3.43525 -1.45069 0
M  V30 8752 N 820.346 1.18468 1.03938 0
M  V30 8753 C 821.309 0.914944 2.10146 0
M  V30 8754 C 822.309 -0.10022 1.60487 0
M  V30 8755 O 823.499 0.133365 1.73689 0
M  V30 8756 C 820.631 0.372993 3.38853 0
M  V30 8757 H 821.824 1.85677 2.35508 0
M  V30 8758 H 819.377 0.996876 1.20383 0
M  V30 8759 H 820.112 -0.57538 3.19155 0
M  V30 8760 H 819.897 1.1048 3.76213 0
M  V30 8761 H 821.387 0.203014 4.17106 0
M  V30 8762 N 821.824 -1.22873 0.986916 0
M  V30 8763 C 822.771 -2.2458 0.532215 0
M  V30 8764 C 823.741 -1.60375 -0.432322 0
M  V30 8765 O 824.926 -1.87775 -0.338416 0
M  V30 8766 C 822.066 -3.44761 -0.152864 0
M  V30 8767 C 821.179 -4.23501 0.852704 0
M  V30 8768 C 820.314 -5.31011 0.14176 0
M  V30 8769 C 819.353 -6.01464 1.1361 0
M  V30 8770 N 818.49 -7.00631 0.453871 0
M  V30 8771 H 823.33 -2.62838 1.40428 0
M  V30 8772 H 820.867 -1.29185 0.703543 0
M  V30 8773 H 822.825 -4.1333 -0.566926 0
M  V30 8774 H 821.455 -3.07284 -0.988756 0
M  V30 8775 H 820.507 -3.54286 1.38512 0
M  V30 8776 H 821.819 -4.72097 1.61014 0
M  V30 8777 H 820.973 -6.05805 -0.329337 0
M  V30 8778 H 819.712 -4.83373 -0.648229 0
M  V30 8779 H 818.717 -5.25456 1.61789 0
M  V30 8780 H 819.942 -6.5119 1.92686 0
M  V30 8781 H 817.888 -6.55235 -0.316791 0
M  V30 8782 H 817.805 -7.47204 1.14986 0
M  V30 8783 H 819.073 -7.795 0.00537823 0
M  V30 8784 N 823.302 -0.75937 -1.38099 0
M  V30 8785 C 824.532 -0.328634 -2.0397 0
M  V30 8786 C 824.94 1.04989 -1.57398 0
M  V30 8787 O 824.283 1.67918 -0.744932 0
M  V30 8788 C 824.345 -0.279216 -3.58414 0
M  V30 8789 C 824.009 -1.60025 -4.28067 0
M  V30 8790 C 825.006 -2.55048 -4.53041 0
M  V30 8791 C 822.691 -1.87128 -4.66142 0
M  V30 8792 C 824.685 -3.7539 -5.15132 0
M  V30 8793 C 822.372 -3.07742 -5.27956 0
M  V30 8794 C 823.37 -4.01694 -5.52387 0
M  V30 8795 O 823.058 -5.20186 -6.12912 0
M  V30 8796 H 822.79 -0.137443 -0.66188 0
M  V30 8797 H 825.344 -1.03082 -1.77661 0
M  V30 8798 H 823.574 0.479254 -3.83719 0
M  V30 8799 H 825.263 0.122781 -4.05714 0
M  V30 8800 H 826.029 -2.35387 -4.24049 0
M  V30 8801 H 821.908 -1.14833 -4.46469 0
M  V30 8802 H 825.452 -4.48737 -5.34117 0
M  V30 8803 H 821.349 -3.27294 -5.56371 0
M  V30 8804 H 822.117 -5.20846 -6.31397 0
M  V30 8805 N 824.78 1.49157 -0.508906 0
M  V30 8806 C 826.057 1.95363 0.0961913 0
M  V30 8807 C 826.437 1.45064 1.53362 0
M  V30 8808 O 825.785 0.667835 2.18523 0
M  V30 8809 C 825.995 3.49 0.000688881 0
M  V30 8810 C 827.343 4.24257 0.170632 0
M  V30 8811 O 828.367 3.5612 0.0754994 0
M  V30 8812 O 827.226 5.45267 0.366957 0
M  V30 8813 H 824.32 0.821984 0.0909489 0
M  V30 8814 H 826.866 1.59769 -0.572007 0
M  V30 8815 H 825.638 3.78269 -1.00143 0
M  V30 8816 H 825.261 3.91233 0.708682 0
M  V30 8817 N 826.258 0.243083 1.55714 0
M  V30 8818 C 827.504 -0.383287 1.99145 0
M  V30 8819 C 827.837 -1.57868 1.13098 0
M  V30 8820 O 827.112 -1.93535 0.193509 0
M  V30 8821 C 827.395 -0.796879 3.51172 0
M  V30 8822 C 827.248 0.403642 4.47985 0
M  V30 8823 C 828.567 -1.64525 4.08191 0
M  V30 8824 H 825.686 -0.137843 0.723995 0
M  V30 8825 H 828.328 0.343631 1.86867 0
M  V30 8826 H 826.478 -1.41625 3.61766 0
M  V30 8827 H 828.15 1.04204 4.49376 0
M  V30 8828 H 826.393 1.04741 4.20965 0
M  V30 8829 H 827.064 0.0709794 5.51954 0
M  V30 8830 H 829.54 -1.12246 4.00674 0
M  V30 8831 H 828.416 -1.9035 5.14838 0
M  V30 8832 H 828.677 -2.61582 3.56409 0
M  V30 8833 N 827.736 -1.57571 -0.0300757 0
M  V30 8834 C 828.646 -2.09892 -1.04798 0
M  V30 8835 C 829.662 -1.03732 -1.39698 0
M  V30 8836 O 830.838 -1.35461 -1.49038 0
M  V30 8837 C 827.903 -2.56707 -2.33028 0
M  V30 8838 C 826.964 -3.77345 -2.04718 0
M  V30 8839 C 826.197 -4.21918 -3.26834 0
M  V30 8840 O 826.42 -3.66025 -4.37472 0
M  V30 8841 O 825.354 -5.14362 -3.12594 0
M  V30 8842 H 829.18 -2.97023 -0.633344 0
M  V30 8843 H 826.765 -1.47344 -0.246991 0
M  V30 8844 H 828.647 -2.87154 -3.08417 0
M  V30 8845 H 827.322 -1.72688 -2.73789 0
M  V30 8846 H 826.229 -3.51919 -1.26901 0
M  V30 8847 H 827.562 -4.62345 -1.68813 0
M  V30 8848 N 829.214 0.302327 -1.54673 0
M  V30 8849 C 830.162 1.39286 -1.86285 0
M  V30 8850 C 831.156 1.52553 -0.736478 0
M  V30 8851 O 832.362 1.54686 -0.92045 0
M  V30 8852 H 828.737 0.465228 -0.590819 0
M  V30 8853 H 830.708 1.09859 -2.77441 0
M  V30 8854 C 829.457 2.75155 -2.12567 0
M  V30 8855 H 828.78 2.65728 -2.98712 0
M  V30 8856 H 830.22 3.50476 -2.38627 0
M  V30 8857 C 828.679 3.23987 -0.923813 0
M  V30 8858 O 829.209 4.01443 -0.143649 0
M  V30 8859 N 827.415 2.81293 -0.72956 0
M  V30 8860 H 826.962 2.18421 -1.36565 0
M  V30 8861 H 826.92 3.14315 0.0730351 0
M  V30 8862 N 830.692 1.47107 0.565454 0
M  V30 8863 C 831.932 1.5488 1.33385 0
M  V30 8864 C 832.296 0.202804 1.90926 0
M  V30 8865 O 833.497 0.155345 2.68351 0
M  V30 8866 C 831.768 2.62969 2.42037 0
M  V30 8867 S 833.327 2.90269 3.29074 0
M  V30 8868 H 830.145 0.547008 0.454206 0
M  V30 8869 H 832.747 1.8444 0.648228 0
M  V30 8870 H 831.451 3.59376 1.98185 0
M  V30 8871 H 830.982 2.35197 3.15351 0
M  V30 8872 H 832.997 2.26854 4.41307 0
M  V30 8873 N 832.17 -0.811516 1.35101 0
M  V30 8874 C 833.1 -1.9378 1.30275 0
M  V30 8875 C 834.081 -1.69165 0.178075 0
M  V30 8876 O 835.266 -1.90599 0.372256 0
M  V30 8877 C 832.396 -3.30439 1.06899 0
M  V30 8878 C 831.35 -3.69523 2.15955 0
M  V30 8879 C 830.676 -5.0429 1.77751 0
M  V30 8880 C 831.976 -3.80419 3.57881 0
M  V30 8881 H 833.67 -1.98075 2.24514 0
M  V30 8882 H 831.216 -0.951586 1.08078 0
M  V30 8883 H 833.169 -4.08828 1.02164 0
M  V30 8884 H 831.893 -3.26473 0.0910462 0
M  V30 8885 H 830.552 -2.93416 2.19778 0
M  V30 8886 H 830.2 -4.96823 0.785876 0
M  V30 8887 H 829.9 -5.31411 2.5075 0
M  V30 8888 H 831.424 -5.85125 1.74533 0
M  V30 8889 H 832.838 -4.49051 3.56407 0
M  V30 8890 H 831.235 -4.19005 4.29598 0
M  V30 8891 H 832.305 -2.82105 3.94391 0
M  V30 8892 N 833.648 -1.19017 -1.03309 0
M  V30 8893 C 834.611 -0.926076 -2.09658 0
M  V30 8894 C 835.611 0.0917077 -1.60538 0
M  V30 8895 O 836.801 -0.142574 -1.73616 0
M  V30 8896 C 833.933 -0.390958 -3.38651 0
M  V30 8897 H 835.126 -1.86923 -2.3452 0
M  V30 8898 H 832.679 -1.00325 -1.19853 0
M  V30 8899 H 833.414 0.558446 -3.19456 0
M  V30 8900 H 833.199 -1.12474 -3.75622 0
M  V30 8901 H 834.689 -0.225131 -4.16993 0
M  V30 8902 N 835.127 1.22348 -0.993418 0
M  V30 8903 C 836.075 2.26315 -0.537052 0
M  V30 8904 C 837.069 1.643 0.412545 0
M  V30 8905 O 838.275 1.77729 0.285008 0
M  V30 8906 H 834.65 0.735792 -0.155286 0
M  V30 8907 H 836.621 2.62157 -1.42535 0
M  V30 8908 C 835.37 3.47449 0.132118 0
M  V30 8909 H 834.693 3.9543 -0.589519 0
M  V30 8910 H 836.133 4.21965 0.414884 0
M  V30 8911 C 834.592 3.07893 1.36761 0
M  V30 8912 O 835.122 3.17338 2.46291 0
M  V30 8913 N 833.328 2.62672 1.24305 0
M  V30 8914 H 832.875 2.55186 0.351826 0
M  V30 8915 H 832.833 2.36574 2.07076 0
M  V30 8916 N 836.605 0.766683 1.37694 0
M  V30 8917 C 837.552 0.147725 2.30327 0
M  V30 8918 C 838.522 -0.695366 1.50844 0
M  V30 8919 O 839.707 -0.64878 1.79431 0
M  V30 8920 C 836.847 -0.72935 3.37305 0
M  V30 8921 C 835.96 0.129795 4.31805 0
M  V30 8922 C 835.095 -0.751511 5.25857 0
M  V30 8923 C 834.134 0.110475 6.12 0
M  V30 8924 N 833.271 -0.728522 6.9831 0
M  V30 8925 H 838.111 0.943204 2.82679 0
M  V30 8926 H 835.648 0.476736 1.3916 0
M  V30 8927 H 837.606 -1.25263 3.97951 0
M  V30 8928 H 836.236 -1.49048 2.86329 0
M  V30 8929 H 835.288 0.770829 3.72508 0
M  V30 8930 H 836.6 0.794923 4.92425 0
M  V30 8931 H 835.754 -1.34146 5.91684 0
M  V30 8932 H 834.493 -1.45034 4.65636 0
M  V30 8933 H 833.498 0.712999 5.45157 0
M  V30 8934 H 834.723 0.806557 6.74293 0
M  V30 8935 H 832.669 -1.41206 6.40622 0
M  V30 8936 H 832.586 -0.12058 7.55904 0
M  V30 8937 H 833.854 -1.30303 7.68532 0
M  V30 8938 N 838.083 -1.48885 0.516809 0
M  V30 8939 C 839.329 -2.02788 -0.0220928 0
M  V30 8940 C 839.662 -1.39433 -1.35175 0
M  V30 8941 O 838.937 -0.535459 -1.86984 0
M  V30 8942 C 839.22 -3.59753 -0.158012 0
M  V30 8943 C 839.073 -4.33611 1.19588 0
M  V30 8944 C 840.392 -4.30984 -0.891133 0
M  V30 8945 H 837.511 -0.736971 -0.00655488 0
M  V30 8946 H 840.153 -1.77746 0.671287 0
M  V30 8947 H 838.303 -3.8122 -0.748568 0
M  V30 8948 H 839.975 -4.23598 1.82653 0
M  V30 8949 H 838.218 -3.95547 1.78116 0
M  V30 8950 H 838.889 -5.41846 1.05391 0
M  V30 8951 H 841.365 -4.14267 -0.39012 0
M  V30 8952 H 840.241 -5.40527 -0.955107 0
M  V30 8953 H 840.502 -3.97336 -1.93847 0
M  V30 8954 N 839.561 -0.251338 -1.55583 0
M  V30 8955 C 840.838 0.422729 -1.90977 0
M  V30 8956 C 841.218 1.75534 -1.17265 0
M  V30 8957 O 840.566 2.26632 -0.291588 0
M  V30 8958 C 840.776 0.586448 -3.44037 0
M  V30 8959 C 842.124 0.880294 -4.15375 0
M  V30 8960 O 843.148 0.672148 -3.49801 0
M  V30 8961 O 842.007 1.27694 -5.31372 0
M  V30 8962 H 839.101 0.227622 -0.795058 0
M  V30 8963 H 841.647 -0.295733 -1.67103 0
M  V30 8964 H 840.419 -0.352327 -3.89711 0
M  V30 8965 H 840.042 1.35528 -3.73789 0
M  V30 8966 N 841.039 1.57585 0.0217189 0
M  V30 8967 C 841.969 2.10073 1.01939 0
M  V30 8968 C 842.95 1.0049 1.37243 0
M  V30 8969 O 844.135 1.28055 1.45999 0
M  V30 8970 C 841.265 2.58618 2.31806 0
M  V30 8971 C 840.219 3.72531 2.10724 0
M  V30 8972 C 839.545 4.07309 3.46415 0
M  V30 8973 C 840.845 5.00672 1.48743 0
M  V30 8974 H 842.539 2.9368 0.582432 0
M  V30 8975 H 840.085 1.41277 0.278715 0
M  V30 8976 H 842.038 2.9396 3.01936 0
M  V30 8977 H 840.762 1.72104 2.77575 0
M  V30 8978 H 839.421 3.37549 1.43025 0
M  V30 8979 H 839.069 3.17851 3.89846 0
M  V30 8980 H 838.769 4.84042 3.33132 0
M  V30 8981 H 840.293 4.45192 4.17895 0
M  V30 8982 H 841.707 5.33925 2.088 0
M  V30 8983 H 840.104 5.82065 1.46013 0
M  V30 8984 H 841.174 4.82769 0.45408 0
M  V30 8985 N 842.517 -0.29412 1.54831 0
M  V30 8986 C 843.742 -1.05156 1.78765 0
M  V30 8987 C 844.167 -1.79916 0.548809 0
M  V30 8988 O 843.525 -1.74243 -0.500909 0
M  V30 8989 C 843.573 -2.00242 2.99893 0
M  V30 8990 O 842.677 -3.08662 2.73499 0
M  V30 8991 H 842.018 -0.301737 0.591482 0
M  V30 8992 H 844.548 -0.329449 2.0193 0
M  V30 8993 H 844.558 -2.42583 3.28051 0
M  V30 8994 H 843.233 -1.45235 3.89717 0
M  V30 8995 H 841.81 -2.70786 2.56377 0
M  V30 8996 N 843.995 -1.47404 -0.557645 0
M  V30 8997 C 845.242 -1.54007 -1.31484 0
M  V30 8998 C 845.57 -0.202162 -1.93447 0
M  V30 8999 O 844.825 0.804901 -1.78381 0
M  V30 9000 C 845.124 -2.6061 -2.44575 0
M  V30 9001 C 844.79 -4.03896 -2.00446 0
M  V30 9002 C 843.452 -4.42901 -1.88127 0
M  V30 9003 C 845.804 -4.93804 -1.66754 0
M  V30 9004 C 843.132 -5.6965 -1.40411 0
M  V30 9005 C 845.484 -6.21016 -1.20509 0
M  V30 9006 C 844.148 -6.58903 -1.06786 0
M  V30 9007 H 843.418 -0.563552 -0.481134 0
M  V30 9008 H 846.065 -1.81001 -0.625375 0
M  V30 9009 H 844.37 -2.27371 -3.19076 0
M  V30 9010 H 846.067 -2.62941 -3.02759 0
M  V30 9011 H 842.657 -3.73077 -2.10977 0
M  V30 9012 H 846.841 -4.64369 -1.75144 0
M  V30 9013 H 842.097 -5.97755 -1.2845 0
M  V30 9014 H 846.271 -6.90095 -0.935001 0
M  V30 9015 H 843.898 -7.57008 -0.695891 0
M  V30 9016 N 845.473 0.80434 -1.35529 0
M  V30 9017 C 846.698 1.598 -1.32207 0
M  V30 9018 C 847.123 1.87848 0.0974226 0
M  V30 9019 O 846.481 1.46728 1.06492 0
M  V30 9020 C 846.529 2.90483 -2.13663 0
M  V30 9021 O 845.633 3.83411 -1.51888 0
M  V30 9022 H 844.974 0.485305 -0.453183 0
M  V30 9023 H 847.504 0.998119 -1.78602 0
M  V30 9024 H 847.514 3.39888 -2.257 0
M  V30 9025 H 846.189 2.69395 -3.16859 0
M  V30 9026 H 844.766 3.41967 -1.48704 0
M  V30 9027 N 846.951 1.19563 1.02676 0
M  V30 9028 C 848.362 1.00158 1.57561 0
M  V30 9029 C 848.713 -0.444922 1.91089 0
M  V30 9030 O 847.838 -1.32466 1.71119 0
M  V30 9031 C 848.433 1.81181 2.86284 0
M  V30 9032 C 846.992 1.66171 3.37734 0
M  V30 9033 C 846.139 1.7975 2.11152 0
M  V30 9034 H 849.09 1.33904 0.85179 0
M  V30 9035 H 849.111 1.30916 3.57269 0
M  V30 9036 H 848.623 2.86454 2.6185 0
M  V30 9037 H 846.724 0.634927 3.6715 0
M  V30 9038 H 846.837 2.46832 4.10622 0
M  V30 9039 H 845.201 1.22833 2.23123 0
M  V30 9040 H 845.984 2.86487 1.89157 0
M  V30 9041 N 848.429 -1.21819 0.999893 0
M  V30 9042 C 849.654 -1.95298 0.698094 0
M  V30 9043 C 850.079 -1.73273 -0.731982 0
M  V30 9044 O 849.437 -1.01634 -1.50134 0
M  V30 9045 C 849.485 -3.45922 1.01834 0
M  V30 9046 O 848.589 -4.12223 0.120801 0
M  V30 9047 H 847.93 -0.610729 0.260588 0
M  V30 9048 H 850.46 -1.5472 1.33876 0
M  V30 9049 H 850.47 -3.96471 0.963074 0
M  V30 9050 H 849.145 -3.61278 2.06037 0
M  V30 9051 H 847.722 -3.72177 0.232153 0
M  V30 9052 N 849.908 -0.773975 -1.37286 0
M  V30 9053 C 850.84 -0.119938 -2.28886 0
M  V30 9054 C 851.853 0.661822 -1.48741 0
M  V30 9055 O 853.042 0.499548 -1.71367 0
M  V30 9056 C 850.142 0.853703 -3.27971 0
M  V30 9057 C 849.315 0.125286 -4.37221 0
M  V30 9058 C 848.374 1.01261 -5.16365 0
M  V30 9059 O 847.4 0.475565 -5.6721 0
M  V30 9060 N 848.602 2.33864 -5.31308 0
M  V30 9061 H 851.367 -0.906702 -2.85655 0
M  V30 9062 H 848.928 -0.626519 -1.49286 0
M  V30 9063 H 850.92 1.4508 -3.77801 0
M  V30 9064 H 849.49 1.54142 -2.71954 0
M  V30 9065 H 848.71 -0.652742 -3.88758 0
M  V30 9066 H 849.998 -0.377959 -5.07394 0
M  V30 9067 H 849.396 2.79929 -4.91585 0
M  V30 9068 H 847.953 2.88575 -5.84438 0
M  V30 9069 N 851.386 1.48609 -0.524698 0
M  V30 9070 C 852.611 2.07398 0.00952139 0
M  V30 9071 C 853.036 1.37939 1.27884 0
M  V30 9072 O 852.394 0.443633 1.75788 0
M  V30 9073 C 852.442 3.59916 0.221956 0
M  V30 9074 O 851.546 3.91647 1.29175 0
M  V30 9075 H 850.887 0.662981 -0.0367729 0
M  V30 9076 H 853.417 1.91092 -0.7311 0
M  V30 9077 H 853.427 4.05552 0.446236 0
M  V30 9078 H 852.102 4.09876 -0.705306 0
M  V30 9079 H 850.679 3.57796 1.05055 0
M  V30 9080 N 852.864 0.259585 1.55447 0
M  V30 9081 C 853.794 -0.62852 2.24882 0
M  V30 9082 C 854.775 -1.17128 1.23349 0
M  V30 9083 O 855.96 -1.20829 1.52033 0
M  V30 9084 C 853.09 -1.81983 2.95803 0
M  V30 9085 C 852.044 -1.40929 4.04132 0
M  V30 9086 C 851.37 -2.68246 4.62545 0
M  V30 9087 C 852.67 -0.570956 5.1917 0
M  V30 9088 H 854.364 -0.0495021 2.99359 0
M  V30 9089 H 851.91 -0.0223688 1.43983 0
M  V30 9090 H 853.863 -2.44689 3.43082 0
M  V30 9091 H 852.587 -2.42444 2.18835 0
M  V30 9092 H 851.246 -0.805519 3.57641 0
M  V30 9093 H 850.894 -3.26931 3.82263 0
M  V30 9094 H 850.594 -2.41495 5.35681 0
M  V30 9095 H 852.118 -3.31827 5.12565 0
M  V30 9096 H 853.532 -1.10262 5.62597 0
M  V30 9097 H 851.929 -0.398979 5.98772 0
M  V30 9098 H 852.999 0.413918 4.8313 0
M  V30 9099 N 854.342 -1.57594 -0.0133615 0
M  V30 9100 C 855.753 -1.78168 -0.557937 0
M  V30 9101 C 856.104 -0.892616 -1.74719 0
M  V30 9102 O 855.229 -0.0915491 -2.16206 0
M  V30 9103 C 855.824 -3.23115 -1.01894 0
M  V30 9104 C 854.383 -3.44831 -1.50892 0
M  V30 9105 C 853.53 -2.73558 -0.454044 0
M  V30 9106 H 856.481 -1.57266 0.212843 0
M  V30 9107 H 856.502 -3.30493 -1.8856 0
M  V30 9108 H 856.014 -3.87798 -0.153175 0
M  V30 9109 H 854.115 -2.85345 -2.39602 0
M  V30 9110 H 854.228 -4.53485 -1.54559 0
M  V30 9111 H 852.592 -2.37787 -0.912666 0
M  V30 9112 H 853.375 -3.40932 0.402524 0
M  V30 9113 N 855.82 0.285905 -1.54985 0
M  V30 9114 C 856.783 1.33625 -1.86218 0
M  V30 9115 C 857.783 1.42971 -0.735936 0
M  V30 9116 O 858.973 1.42345 -1.00417 0
M  V30 9117 C 856.105 2.71926 -2.05595 0
M  V30 9118 H 857.298 1.07167 -2.80099 0
M  V30 9119 H 854.851 0.523335 -1.47278 0
M  V30 9120 H 855.586 3.03583 -1.14053 0
M  V30 9121 H 855.371 2.6653 -2.87583 0
M  V30 9122 H 856.861 3.47841 -2.31077 0
M  V30 9123 N 857.298 1.47698 0.54982 0
M  V30 9124 C 858.523 1.58579 1.33669 0
M  V30 9125 C 858.948 0.239049 1.86575 0
M  V30 9126 O 858.306 -0.786256 1.63364 0
M  V30 9127 C 858.354 2.62029 2.47736 0
M  V30 9128 O 857.458 2.17813 3.50188 0
M  V30 9129 H 856.799 0.532447 0.396732 0
M  V30 9130 H 859.329 1.93536 0.6637 0
M  V30 9131 H 859.339 2.82682 2.94202 0
M  V30 9132 H 858.014 3.59812 2.08586 0
M  V30 9133 H 856.591 2.07291 3.09976 0
M  V30 9134 N 858.776 -0.797141 1.35954 0
M  V30 9135 C 859.726 -1.89899 1.26184 0
M  V30 9136 C 860.71 -1.60152 0.155007 0
M  V30 9137 O 861.902 -1.72715 0.387108 0
M  V30 9138 C 859.031 -3.2699 1.04559 0
M  V30 9139 C 858.117 -3.62772 2.19675 0
M  V30 9140 N 858.508 -3.6992 3.44953 0
M  V30 9141 C 856.806 -3.92786 2.1127 0
M  V30 9142 C 857.507 -4.01718 4.20711 0
M  V30 9143 N 856.483 -4.16298 3.49567 0
M  V30 9144 H 860.285 -1.9364 2.2109 0
M  V30 9145 H 857.799 -0.992246 1.28562 0
M  V30 9146 H 859.796 -4.0578 0.956474 0
M  V30 9147 H 858.456 -3.24529 0.105467 0
M  V30 9148 H 859.467 -3.52759 3.79185 0
M  V30 9149 H 856.144 -3.98295 1.25168 0
M  V30 9150 H 857.534 -4.14237 5.29016 0
M  V30 9151 N 860.254 -1.20106 -1.0204 0
M  V30 9152 C 861.217 -0.948261 -2.08664 0
M  V30 9153 C 862.217 0.0746753 -1.60627 0
M  V30 9154 O 863.407 -0.160981 -1.73455 0
M  V30 9155 C 860.539 -0.426854 -3.38217 0
M  V30 9156 H 861.732 -1.894 -2.32524 0
M  V30 9157 H 859.285 -1.0159 -1.18782 0
M  V30 9158 H 860.02 0.524532 -3.2003 0
M  V30 9159 H 859.805 -1.16451 -3.74408 0
M  V30 9160 H 861.295 -0.269346 -4.1673 0
M  V30 9161 N 861.732 1.21287 -1.00634 0
M  V30 9162 C 862.682 2.21541 -0.53886 0
M  V30 9163 C 863.666 1.55842 0.400256 0
M  V30 9164 O 864.858 1.75566 0.224889 0
M  V30 9165 C 861.987 3.43047 0.131796 0
M  V30 9166 C 861.073 4.1593 -0.828419 0
M  V30 9167 N 861.464 4.65359 -1.98178 0
M  V30 9168 C 859.762 4.41281 -0.647083 0
M  V30 9169 C 860.463 5.21079 -2.58557 0
M  V30 9170 N 859.439 5.10531 -1.86705 0
M  V30 9171 H 863.241 2.57413 -1.41831 0
M  V30 9172 H 860.755 1.37109 -0.870338 0
M  V30 9173 H 862.752 4.14079 0.484178 0
M  V30 9174 H 861.412 3.08683 1.00721 0
M  V30 9175 H 862.423 4.60896 -2.3621 0
M  V30 9176 H 859.1 4.17107 0.181139 0
M  V30 9177 H 860.49 5.6977 -3.56107 0
M  V30 9178 N 863.21 0.781244 1.36873 0
M  V30 9179 C 864.14 0.188128 2.32741 0
M  V30 9180 C 865.121 -0.672326 1.56249 0
M  V30 9181 O 866.306 -0.607835 1.84442 0
M  V30 9182 C 863.436 -0.684341 3.40491 0
M  V30 9183 C 862.39 0.0755641 4.27933 0
M  V30 9184 C 861.716 -0.916968 5.26779 0
M  V30 9185 C 863.016 1.26006 5.06873 0
M  V30 9186 H 864.71 0.989016 2.82593 0
M  V30 9187 H 862.256 0.477038 1.35869 0
M  V30 9188 H 864.209 -1.10915 4.06541 0
M  V30 9189 H 862.933 -1.51785 2.89187 0
M  V30 9190 H 861.592 0.481258 3.63427 0
M  V30 9191 H 861.24 -1.74528 4.71751 0
M  V30 9192 H 860.94 -0.413 5.86147 0
M  V30 9193 H 862.464 -1.34052 5.95703 0
M  V30 9194 H 863.878 0.911425 5.66009 0
M  V30 9195 H 862.275 1.69676 5.75613 0
M  V30 9196 H 863.345 2.05948 4.38991 0
M  V30 9197 N 864.689 -1.48329 0.532571 0
M  V30 9198 C 866.105 -1.58458 0.190605 0
M  V30 9199 C 866.305 -1.53427 -1.30623 0
M  V30 9200 O 865.361 -1.4247 -2.08467 0
M  V30 9201 C 866.674 -2.89989 0.79543 0
M  V30 9202 C 868.222 -3.03523 0.7644 0
M  V30 9203 C 868.697 -4.37718 1.34785 0
M  V30 9204 N 870.188 -4.44292 1.30993 0
M  V30 9205 C 870.923 -5.4664 1.73124 0
M  V30 9206 N 870.419 -6.5593 2.22997 0
M  V30 9207 N 872.212 -5.37538 1.64346 0
M  V30 9208 H 864.363 -1.49842 1.50537 0
M  V30 9209 H 866.626 -0.71164 0.626316 0
M  V30 9210 H 866.332 -2.99333 1.84642 0
M  V30 9211 H 866.206 -3.76203 0.27403 0
M  V30 9212 H 868.593 -2.93789 -0.277831 0
M  V30 9213 H 868.674 -2.18912 1.3233 0
M  V30 9214 H 868.318 -4.48206 2.38902 0
M  V30 9215 H 868.248 -5.21019 0.764609 0
M  V30 9216 H 870.739 -3.65897 0.944868 0
M  V30 9217 H 871.052 -7.30167 2.53133 0
M  V30 9218 H 869.397 -6.56886 2.26992 0
M  V30 9219 H 872.588 -4.51052 1.25178 0
M  V30 9220 H 872.761 -6.17169 1.97501 0
M  V30 9221 N 866.167 -0.267825 -1.55308 0
M  V30 9222 C 867.413 0.351556 -1.9973 0
M  V30 9223 C 867.746 1.56049 -1.15596 0
M  V30 9224 O 867.021 1.93203 -0.224274 0
M  V30 9225 C 867.304 0.74091 -3.52395 0
M  V30 9226 C 867.157 -0.474861 -4.47286 0
M  V30 9227 C 868.476 1.5801 -4.10756 0
M  V30 9228 H 865.595 0.126308 -0.726096 0
M  V30 9229 H 868.237 -0.373316 -1.86296 0
M  V30 9230 H 866.387 1.35851 -3.63973 0
M  V30 9231 H 868.059 -1.1134 -4.47662 0
M  V30 9232 H 866.302 -1.11425 -4.19246 0
M  V30 9233 H 866.973 -0.158782 -5.51772 0
M  V30 9234 H 869.449 1.05857 -4.0241 0
M  V30 9235 H 868.325 1.82135 -5.17801 0
M  V30 9236 H 868.586 2.55878 -3.60526 0
M  V30 9237 N 867.645 1.57599 0.00500368 0
M  V30 9238 C 868.873 1.94626 0.702016 0
M  V30 9239 C 869.288 0.86953 1.67585 0
M  V30 9240 O 868.645 -0.15199 1.81866 0
M  V30 9241 C 868.696 3.31658 1.43824 0
M  V30 9242 O 868.417 4.35197 0.503467 0
M  V30 9243 C 869.918 3.83114 2.23021 0
M  V30 9244 H 867.138 0.641785 0.195841 0
M  V30 9245 H 869.682 2.04451 -0.0446287 0
M  V30 9246 H 867.837 3.23156 2.13655 0
M  V30 9247 H 868.251 5.1444 1.02235 0
M  V30 9248 H 869.725 4.81438 2.7004 0
M  V30 9249 H 870.202 3.15559 3.05482 0
M  V30 9250 H 870.808 3.94775 1.58216 0
M  V30 9251 N 869.123 -0.277682 1.55134 0
M  V30 9252 C 870.086 -1.32635 1.86924 0
M  V30 9253 C 871.086 -1.42578 0.743507 0
M  V30 9254 O 872.276 -1.4181 1.01171 0
M  V30 9255 C 869.408 -2.70832 2.07034 0
M  V30 9256 H 870.601 -1.0568 2.80663 0
M  V30 9257 H 868.154 -0.515517 1.47554 0
M  V30 9258 H 868.889 -3.02974 1.15661 0
M  V30 9259 H 868.674 -2.65001 2.88993 0
M  V30 9260 H 870.164 -3.46611 2.32918 0
M  V30 9261 N 870.601 -1.47988 -0.541979 0
M  V30 9262 C 871.564 -1.61148 -1.62984 0
M  V30 9263 C 872.564 -0.48553 -1.53295 0
M  V30 9264 O 873.754 -0.751012 -1.5718 0
M  V30 9265 C 870.886 -1.57038 -3.02576 0
M  V30 9266 H 872.079 -2.58138 -1.52659 0
M  V30 9267 H 869.632 -1.36405 -0.763106 0
M  V30 9268 H 870.367 -0.614807 -3.18419 0
M  V30 9269 H 870.152 -2.38769 -3.11018 0
M  V30 9270 H 871.642 -1.69416 -3.81691 0
M  V30 9271 N 872.079 0.78992 -1.36375 0
M  V30 9272 C 873.49 1.36506 -1.2737 0
M  V30 9273 C 873.841 1.96008 0.086711 0
M  V30 9274 O 872.966 1.92521 0.988159 0
M  V30 9275 C 873.561 2.48175 -2.30639 0
M  V30 9276 C 872.12 3.01506 -2.25325 0
M  V30 9277 C 871.267 1.74581 -2.15445 0
M  V30 9278 H 874.218 0.591606 -1.47261 0
M  V30 9279 H 874.239 3.27179 -1.94253 0
M  V30 9280 H 873.751 2.04838 -3.2964 0
M  V30 9281 H 871.852 3.49265 -1.29788 0
M  V30 9282 H 871.965 3.58355 -3.17992 0
M  V30 9283 H 870.329 1.96794 -1.61692 0
M  V30 9284 H 871.112 1.33373 -3.16333 0
M  V30 9285 N 873.557 1.20646 1.01402 0
M  V30 9286 C 874.489 0.915392 2.10127 0
M  V30 9287 C 875.502 -0.0978705 1.62506 0
M  V30 9288 O 876.691 0.133477 1.78 0
M  V30 9289 C 873.791 0.351304 3.37074 0
M  V30 9290 C 872.964 1.41673 4.13821 0
M  V30 9291 C 872.023 0.8635 5.19067 0
M  V30 9292 O 871.049 1.54481 5.47836 0
M  V30 9293 N 872.251 -0.325799 5.79585 0
M  V30 9294 H 875.016 1.85132 2.35682 0
M  V30 9295 H 872.577 1.11048 1.17813 0
M  V30 9296 H 874.569 -0.032996 4.04687 0
M  V30 9297 H 873.139 -0.489242 3.08748 0
M  V30 9298 H 872.359 1.97526 3.41141 0
M  V30 9299 H 873.647 2.1342 4.61876 0
M  V30 9300 H 873.045 -0.896534 5.58551 0
M  V30 9301 H 871.602 -0.651708 6.48534 0
M  V30 9302 N 875.035 -1.20752 1.01276 0
M  V30 9303 C 876.26 -1.94547 0.718769 0
M  V30 9304 C 876.685 -1.7404 -0.713563 0
M  V30 9305 O 876.043 -1.03221 -1.49047 0
M  V30 9306 C 876.091 -3.44823 1.05497 0
M  V30 9307 O 875.195 -4.12072 0.164516 0
M  V30 9308 H 874.536 -0.607931 0.267051 0
M  V30 9309 H 877.066 -1.53292 1.35509 0
M  V30 9310 H 877.076 -3.95427 1.00507 0
M  V30 9311 H 875.751 -3.59072 2.09858 0
M  V30 9312 H 874.328 -3.71909 0.271615 0
M  V30 9313 N 876.513 -0.788492 -1.36457 0
M  V30 9314 C 877.759 -0.360995 -1.99561 0
M  V30 9315 C 878.092 1.06433 -1.62437 0
M  V30 9316 O 877.367 1.7352 -0.878705 0
M  V30 9317 C 877.65 -0.523735 -3.56271 0
M  V30 9318 C 877.503 -1.99268 -4.03252 0
M  V30 9319 C 878.822 0.0617908 -4.40057 0
M  V30 9320 H 875.941 -0.13264 -0.724966 0
M  V30 9321 H 878.583 -0.994659 -1.61884 0
M  V30 9322 H 876.733 0.0156979 -3.88497 0
M  V30 9323 H 878.405 -2.59311 -3.81518 0
M  V30 9324 H 876.648 -2.49561 -3.54826 0
M  V30 9325 H 877.319 -2.05752 -5.12221 0
M  V30 9326 H 879.795 -0.398674 -4.14186 0
M  V30 9327 H 878.671 -0.0821089 -5.48839 0
M  V30 9328 H 878.932 1.15381 -4.26778 0
M  V30 9329 N 877.991 1.48044 -0.54043 0
M  V30 9330 C 879.231 2.04396 -0.012296 0
M  V30 9331 C 879.595 1.40748 1.30591 0
M  V30 9332 O 880.796 1.88048 1.92072 0
M  V30 9333 C 879.067 3.5727 0.0964302 0
M  V30 9334 S 880.626 4.35041 0.573117 0
M  V30 9335 H 877.444 0.710795 -0.0170735 0
M  V30 9336 H 880.046 1.81625 -0.723362 0
M  V30 9337 H 878.75 4.01124 -0.86762 0
M  V30 9338 H 878.281 3.84511 0.83156 0
M  V30 9339 H 880.296 4.6099 1.83583 0
M  V30 9340 N 879.47 0.276058 1.55163 0
M  V30 9341 C 880.433 -0.597924 2.21263 0
M  V30 9342 C 881.433 -1.0806 1.19078 0
M  V30 9343 O 882.623 -0.980626 1.43977 0
M  V30 9344 C 879.755 -1.82503 2.87933 0
M  V30 9345 H 880.948 -0.0207769 2.99893 0
M  V30 9346 H 878.501 0.0266823 1.56277 0
M  V30 9347 H 879.236 -2.44266 2.13318 0
M  V30 9348 H 879.021 -1.48683 3.62816 0
M  V30 9349 H 880.511 -2.44651 3.38431 0
M  V30 9350 N 880.948 -1.576 0.00335426 0
M  V30 9351 C 881.878 -2.11668 -0.985839 0
M  V30 9352 C 882.859 -1.02661 -1.35627 0
M  V30 9353 O 884.044 -1.30361 -1.43943 0
M  V30 9354 C 881.174 -2.62273 -2.27662 0
M  V30 9355 C 880.128 -3.75837 -2.0477 0
M  V30 9356 C 879.454 -4.12769 -3.39891 0
M  V30 9357 C 880.754 -5.02975 -1.40759 0
M  V30 9358 H 882.448 -2.9457 -0.535637 0
M  V30 9359 H 879.994 -1.41702 -0.256204 0
M  V30 9360 H 881.947 -2.98727 -2.97221 0
M  V30 9361 H 880.671 -1.76498 -2.74802 0
M  V30 9362 H 879.33 -3.39782 -1.37636 0
M  V30 9363 H 878.978 -3.24013 -3.8474 0
M  V30 9364 H 878.678 -4.89281 -3.25389 0
M  V30 9365 H 880.202 -4.51784 -4.1076 0
M  V30 9366 H 881.616 -5.37179 -2.00279 0
M  V30 9367 H 880.013 -5.84315 -1.36734 0
M  V30 9368 H 881.083 -4.83431 -0.377218 0
M  V30 9369 N 882.426 0.269451 -1.5528 0
M  V30 9370 C 883.842 0.616827 -1.47199 0
M  V30 9371 C 884.042 1.89354 -0.68901 0
M  V30 9372 O 883.098 2.51631 -0.209287 0
M  V30 9373 C 884.411 0.740492 -2.9144 0
M  V30 9374 C 885.959 0.834312 -3.01676 0
M  V30 9375 C 886.434 0.989725 -4.47178 0
M  V30 9376 N 887.925 1.05516 -4.51022 0
M  V30 9377 C 888.66 1.19427 -5.60825 0
M  V30 9378 N 888.156 1.30035 -6.80487 0
M  V30 9379 N 889.949 1.22566 -5.48575 0
M  V30 9380 H 882.1 -0.568962 -2.04638 0
M  V30 9381 H 884.363 -0.193153 -0.928114 0
M  V30 9382 H 884.069 -0.127234 -3.5147 0
M  V30 9383 H 883.943 1.61965 -3.40657 0
M  V30 9384 H 886.33 1.6925 -2.4174 0
M  V30 9385 H 886.411 -0.0695298 -2.55705 0
M  V30 9386 H 886.055 0.136179 -5.07717 0
M  V30 9387 H 885.985 1.90827 -4.90808 0
M  V30 9388 H 888.476 0.985434 -3.64825 0
M  V30 9389 H 888.789 1.40494 -7.59922 0
M  V30 9390 H 887.134 1.27033 -6.83292 0
M  V30 9391 H 890.325 1.13911 -4.54029 0
M  V30 9392 H 890.498 1.33063 -6.34191 0
M  V30 9393 N 883.904 1.48273 0.534124 0
M  V30 9394 C 884.867 1.6201 1.62127 0
M  V30 9395 C 885.867 0.493653 1.53035 0
M  V30 9396 O 887.057 0.759337 1.56779 0
M  V30 9397 C 884.189 1.5864 3.01739 0
M  V30 9398 H 885.382 2.58944 1.51288 0
M  V30 9399 H 882.935 1.36808 0.755861 0
M  V30 9400 H 883.67 0.631685 3.18088 0
M  V30 9401 H 883.455 2.40415 3.09747 0
M  V30 9402 H 884.945 1.71438 3.80787 0
M  V30 9403 N 885.382 -0.782676 1.36792 0
M  V30 9404 C 886.628 -1.54311 1.3159 0
M  V30 9405 C 886.961 -1.93928 -0.102696 0
M  V30 9406 O 886.236 -1.63233 -1.05761 0
M  V30 9407 C 886.519 -2.81561 2.24489 0
M  V30 9408 C 886.372 -2.48268 3.75078 0
M  V30 9409 C 887.691 -3.83428 2.16034 0
M  V30 9410 H 884.81 -0.559828 0.479335 0
M  V30 9411 H 887.452 -0.898717 1.67401 0
M  V30 9412 H 885.602 -3.36549 1.9408 0
M  V30 9413 H 887.274 -1.99279 4.16036 0
M  V30 9414 H 885.517 -1.81116 3.94182 0
M  V30 9415 H 886.188 -3.39183 4.35499 0
M  V30 9416 H 888.664 -3.37905 2.42815 0
M  V30 9417 H 887.54 -4.70204 2.83194 0
M  V30 9418 H 887.801 -4.26887 1.14976 0
M  V30 9419 N 886.86 -1.21182 -1.00761 0
M  V30 9420 C 888.137 -0.936297 -1.71735 0
M  V30 9421 C 888.517 0.552585 -2.03739 0
M  V30 9422 O 887.865 1.51672 -1.70903 0
M  V30 9423 C 888.075 -1.81867 -2.97868 0
M  V30 9424 C 889.423 -2.06594 -3.7095 0
M  V30 9425 O 890.447 -1.79194 -3.07844 0
M  V30 9426 O 889.306 -2.5292 -4.84452 0
M  V30 9427 H 886.4 -0.350867 -0.74888 0
M  V30 9428 H 888.946 -1.32098 -1.06527 0
M  V30 9429 H 887.718 -2.82643 -2.70607 0
M  V30 9430 H 887.341 -1.43463 -3.70815 0
M  V30 9431 N 888.338 1.20213 -1.01915 0
M  V30 9432 C 889.27 2.2251 -0.549725 0
M  V30 9433 C 890.283 1.58558 0.369235 0
M  V30 9434 O 891.472 1.77715 0.167176 0
M  V30 9435 C 888.572 3.38189 0.219432 0
M  V30 9436 C 887.745 4.31729 -0.702066 0
M  V30 9437 C 886.804 5.26196 0.0199624 0
M  V30 9438 O 885.83 5.65993 -0.60339 0
M  V30 9439 N 887.032 5.65895 1.29397 0
M  V30 9440 H 889.797 2.63412 -1.42948 0
M  V30 9441 H 887.358 1.3478 -0.896987 0
M  V30 9442 H 889.35 3.98392 0.711763 0
M  V30 9443 H 887.92 2.96156 1.00051 0
M  V30 9444 H 887.14 3.69455 -1.37466 0
M  V30 9445 H 888.428 4.91145 -1.3287 0
M  V30 9446 H 887.826 5.35579 1.8213 0
M  V30 9447 H 886.383 6.28395 1.73098 0
M  V30 9448 N 889.816 0.795718 1.36037 0
M  V30 9449 C 891.041 0.38204 2.03851 0
M  V30 9450 C 891.466 -0.995553 1.59594 0
M  V30 9451 O 890.824 -1.64258 0.767401 0
M  V30 9452 C 890.872 0.461248 3.57638 0
M  V30 9453 O 889.976 -0.529448 4.08987 0
M  V30 9454 H 889.317 0.161227 0.644129 0
M  V30 9455 H 891.847 1.07858 1.73861 0
M  V30 9456 H 891.857 0.32712 4.06687 0
M  V30 9457 H 890.532 1.46613 3.89201 0
M  V30 9458 H 889.109 -0.35646 3.71192 0
M  V30 9459 N 891.294 -1.47756 0.548274 0
M  V30 9460 C 892.54 -2.02789 0.0209265 0
M  V30 9461 C 892.873 -1.42268 -1.32187 0
M  V30 9462 O 892.148 -0.575001 -1.85806 0
M  V30 9463 C 892.431 -3.60007 -0.0816674 0
M  V30 9464 C 892.284 -4.30977 1.28759 0
M  V30 9465 C 893.603 -4.32777 -0.799515 0
M  V30 9466 H 890.722 -0.736944 0.00907884 0
M  V30 9467 H 893.364 -1.76282 0.708839 0
M  V30 9468 H 891.514 -3.82722 -0.667537 0
M  V30 9469 H 893.186 -4.19629 1.91597 0
M  V30 9470 H 891.429 -3.9168 1.86466 0
M  V30 9471 H 892.1 -5.39488 1.16861 0
M  V30 9472 H 894.576 -4.15001 -0.30216 0
M  V30 9473 H 893.452 -5.42431 -0.840239 0
M  V30 9474 H 893.713 -4.01358 -1.85375 0
M  V30 9475 N 892.772 -0.284283 -1.55015 0
M  V30 9476 C 893.702 0.592663 -2.25853 0
M  V30 9477 C 894.683 1.15151 -1.25197 0
M  V30 9478 O 895.868 1.18395 -1.53936 0
M  V30 9479 C 892.998 1.77254 -2.98661 0
M  V30 9480 C 891.952 1.34482 -4.06323 0
M  V30 9481 C 891.278 2.60853 -4.66754 0
M  V30 9482 C 892.578 0.488288 -5.20013 0
M  V30 9483 H 894.272 0.00187041 -2.994 0
M  V30 9484 H 891.818 -0.000540402 -1.44 0
M  V30 9485 H 893.771 2.39199 -3.46932 0
M  V30 9486 H 892.495 2.38931 -2.22664 0
M  V30 9487 H 891.154 0.748519 -3.58877 0
M  V30 9488 H 890.802 3.20808 -3.87416 0
M  V30 9489 H 890.502 2.32942 -5.39455 0
M  V30 9490 H 892.026 3.23631 -5.1778 0
M  V30 9491 H 893.44 1.01298 -5.6428 0
M  V30 9492 H 891.837 0.303669 -5.99331 0
M  V30 9493 H 892.907 -0.490727 -4.8241 0
M  V30 9494 N 894.251 1.57596 -0.0117121 0
M  V30 9495 C 895.181 2.12188 0.9746 0
M  V30 9496 C 896.162 1.03379 1.35081 0
M  V30 9497 O 897.347 1.31123 1.4325 0
M  V30 9498 C 894.477 2.63477 2.26268 0
M  V30 9499 C 893.431 3.76917 2.02774 0
M  V30 9500 C 892.757 4.14566 3.37697 0
M  V30 9501 C 894.057 5.03715 1.38089 0
M  V30 9502 H 895.751 2.9485 0.520007 0
M  V30 9503 H 893.297 1.41836 0.248685 0
M  V30 9504 H 895.25 3.00299 2.95633 0
M  V30 9505 H 893.974 1.77953 2.73862 0
M  V30 9506 H 892.633 3.40507 1.35832 0
M  V30 9507 H 892.281 3.26048 3.83016 0
M  V30 9508 H 891.981 4.91 3.22789 0
M  V30 9509 H 893.505 4.53956 4.08358 0
M  V30 9510 H 894.919 5.38233 1.97428 0
M  V30 9511 H 893.316 5.85032 1.33634 0
M  V30 9512 H 894.386 4.83624 0.351575 0
M  V30 9513 N 895.729 -0.261212 1.5542 0
M  V30 9514 C 896.662 -1.34906 1.84054 0
M  V30 9515 C 897.64 -1.47024 0.694466 0
M  V30 9516 O 898.824 -1.63463 0.938719 0
M  V30 9517 C 895.951 -2.7242 2.01259 0
M  V30 9518 C 894.997 -2.77526 3.23855 0
M  V30 9519 S 895.83 -2.35578 4.80898 0
M  V30 9520 C 896.986 -3.75045 5.01091 0
M  V30 9521 H 897.219 -1.10416 2.76035 0
M  V30 9522 H 894.752 -0.461461 1.47343 0
M  V30 9523 H 896.71 -3.51606 2.11857 0
M  V30 9524 H 895.371 -2.94155 1.10145 0
M  V30 9525 H 894.564 -3.78483 3.32816 0
M  V30 9526 H 894.166 -2.0637 3.11909 0
M  V30 9527 H 896.458 -4.7042 4.87556 0
M  V30 9528 H 897.401 -3.71027 6.03112 0
M  V30 9529 H 897.809 -3.66894 4.29009 0
M  V30 9530 N 897.207 -1.48554 -0.526253 0
M  V30 9531 C 898.154 -1.63354 -1.63046 0
M  V30 9532 C 899.124 -0.475509 -1.59148 0
M  V30 9533 O 900.309 -0.699453 -1.77517 0
M  V30 9534 C 897.449 -1.68271 -3.01295 0
M  V30 9535 C 896.562 -2.95207 -3.15399 0
M  V30 9536 C 895.697 -2.91262 -4.4423 0
M  V30 9537 C 894.736 -4.12886 -4.51876 0
M  V30 9538 N 893.873 -4.06996 -5.721 0
M  V30 9539 H 898.713 -2.57649 -1.49737 0
M  V30 9540 H 896.25 -1.27769 -0.728938 0
M  V30 9541 H 898.208 -1.69104 -3.81392 0
M  V30 9542 H 896.838 -0.774641 -3.13367 0
M  V30 9543 H 895.89 -3.04102 -2.2853 0
M  V30 9544 H 897.202 -3.85187 -3.1691 0
M  V30 9545 H 896.356 -2.90516 -5.32621 0
M  V30 9546 H 895.095 -1.99016 -4.45246 0
M  V30 9547 H 894.1 -4.13902 -3.61891 0
M  V30 9548 H 895.325 -5.06294 -4.52596 0
M  V30 9549 H 893.271 -3.17573 -5.74006 0
M  V30 9550 H 893.188 -4.90685 -5.75121 0
M  V30 9551 H 894.456 -4.10315 -6.62768 0
M  V30 9552 N 898.685 0.775411 -1.37205 0
M  V30 9553 C 900.096 1.35147 -1.28811 0
M  V30 9554 C 900.447 1.96089 0.0659168 0
M  V30 9555 O 899.572 1.93558 0.967684 0
M  V30 9556 C 900.167 2.45715 -2.33258 0
M  V30 9557 C 898.726 2.99099 -2.2851 0
M  V30 9558 C 897.873 1.72286 -2.17285 0
M  V30 9559 H 900.824 0.575954 -1.4788 0
M  V30 9560 H 900.845 3.251 -1.97712 0
M  V30 9561 H 900.357 2.01331 -3.31795 0
M  V30 9562 H 898.458 3.47868 -1.33485 0
M  V30 9563 H 898.571 3.54962 -3.21774 0
M  V30 9564 H 896.935 1.95068 -1.6377 0
M  V30 9565 H 897.718 1.3001 -3.1773 0
M  V30 9566 N 900.163 1.21714 1.00117 0
M  V30 9567 C 901.44 0.945391 1.71236 0
M  V30 9568 C 901.82 -0.541772 2.0403 0
M  V30 9569 O 901.168 -1.50763 1.71705 0
M  V30 9570 C 901.378 1.83444 2.96899 0
M  V30 9571 C 902.726 2.08558 3.69849 0
M  V30 9572 O 903.75 1.80824 3.06889 0
M  V30 9573 O 902.609 2.55485 4.83104 0
M  V30 9574 H 899.703 0.354834 0.747009 0
M  V30 9575 H 902.249 1.32661 1.05825 0
M  V30 9576 H 901.021 2.84075 2.69105 0
M  V30 9577 H 900.644 1.45428 3.70049 0
M  V30 9578 N 901.641 -1.19671 1.02551 0
M  V30 9579 C 902.604 -2.20987 0.608055 0
M  V30 9580 C 903.604 -1.5745 -0.326534 0
M  V30 9581 O 904.794 -1.73827 -0.114003 0
M  V30 9582 C 901.926 -3.4072 -0.11074 0
M  V30 9583 H 903.119 -2.59434 1.50446 0
M  V30 9584 H 900.672 -1.3329 0.816307 0
M  V30 9585 H 901.407 -3.07787 -1.02165 0
M  V30 9586 H 901.192 -3.88069 0.560772 0
M  V30 9587 H 902.682 -4.15776 -0.389848 0
M  V30 9588 N 903.119 -0.802921 -1.35613 0
M  V30 9589 C 904.029 -0.212177 -2.33639 0
M  V30 9590 C 905.045 0.642871 -1.61689 0
M  V30 9591 O 906.221 0.555485 -1.93588 0
M  V30 9592 C 903.286 0.632406 -3.40883 0
M  V30 9593 C 902.347 -0.242708 -4.28613 0
M  V30 9594 C 901.58 0.56166 -5.30736 0
M  V30 9595 O 901.803 1.79664 -5.41366 0
M  V30 9596 O 900.737 -0.0455387 -6.01883 0
M  V30 9597 H 904.563 -1.023 -2.85952 0
M  V30 9598 H 902.148 -0.564636 -1.38319 0
M  V30 9599 H 904.03 1.11358 -4.0642 0
M  V30 9600 H 902.705 1.42089 -2.90848 0
M  V30 9601 H 901.612 -0.77094 -3.6607 0
M  V30 9602 H 902.945 -0.995046 -4.82037 0
M  V30 9603 N 904.597 1.47463 -0.556102 0
M  V30 9604 C 905.527 2.32801 0.180497 0
M  V30 9605 C 906.508 1.43721 0.909848 0
M  V30 9606 O 907.693 1.72578 0.89053 0
M  V30 9607 C 904.823 3.25478 1.21167 0
M  V30 9608 C 903.777 4.2379 0.598846 0
M  V30 9609 C 903.103 5.05783 1.73457 0
M  V30 9610 C 904.403 5.20387 -0.446659 0
M  V30 9611 H 906.097 2.94636 -0.531956 0
M  V30 9612 H 903.643 1.41683 -0.257267 0
M  V30 9613 H 905.596 3.8402 1.73513 0
M  V30 9614 H 904.32 2.61695 1.95405 0
M  V30 9615 H 902.979 3.66472 0.0966897 0
M  V30 9616 H 902.627 4.38405 2.46596 0
M  V30 9617 H 902.327 5.72343 1.33031 0
M  V30 9618 H 903.851 5.67183 2.26131 0
M  V30 9619 H 905.265 5.73299 -0.00930019 0
M  V30 9620 H 903.662 5.95143 -0.769735 0
M  V30 9621 H 904.732 4.65932 -1.34295 0
M  V30 9622 N 906.075 0.2925 1.54862 0
M  V30 9623 C 907.3 -0.32494 2.04839 0
M  V30 9624 C 907.725 -1.47381 1.16877 0
M  V30 9625 O 907.083 -1.80492 0.171028 0
M  V30 9626 C 907.131 -0.76694 3.5235 0
M  V30 9627 O 906.235 -1.87256 3.67436 0
M  V30 9628 H 905.576 -0.0645195 0.660858 0
M  V30 9629 H 908.106 0.431867 1.9999 0
M  V30 9630 H 908.116 -1.05804 3.94043 0
M  V30 9631 H 906.791 0.0735212 4.15835 0
M  V30 9632 H 905.368 -1.58266 3.37648 0
M  V30 9633 N 907.553 -1.57587 0.0200696 0
M  V30 9634 C 908.516 -2.08595 -0.949767 0
M  V30 9635 C 909.516 -0.999215 -1.25985 0
M  V30 9636 O 910.706 -1.26115 -1.2017 0
M  V30 9637 C 907.838 -2.54424 -2.26895 0
M  V30 9638 H 909.031 -2.95563 -0.508161 0
M  V30 9639 H 906.584 -1.54631 -0.227798 0
M  V30 9640 H 907.319 -1.70758 -2.75703 0
M  V30 9641 H 907.104 -3.3381 -2.05702 0
M  V30 9642 H 908.594 -2.94144 -2.96427 0
M  V30 9643 N 909.032 0.252966 -1.55557 0
M  V30 9644 C 910.257 1.0038 -1.8149 0
M  V30 9645 C 910.682 1.78397 -0.596318 0
M  V30 9646 O 910.04 1.7551 0.454535 0
M  V30 9647 C 910.088 1.9222 -3.05096 0
M  V30 9648 O 909.192 3.01302 -2.81587 0
M  V30 9649 H 908.533 0.285949 -0.599274 0
M  V30 9650 H 911.063 0.275795 -2.02733 0
M  V30 9651 H 911.073 2.338 -3.34368 0
M  V30 9652 H 909.748 1.34852 -3.93431 0
M  V30 9653 H 908.325 2.63894 -2.63466 0
M  V30 9654 N 910.51 1.48831 0.518367 0
M  V30 9655 C 911.735 1.61379 1.30275 0
M  V30 9656 C 912.16 0.278571 1.86026 0
M  V30 9657 O 911.518 -0.751427 1.64995 0
M  V30 9658 C 911.566 2.67225 2.42122 0
M  V30 9659 O 910.67 2.25192 3.45489 0
M  V30 9660 H 910.011 0.540742 0.385349 0
M  V30 9661 H 912.541 1.949 0.622498 0
M  V30 9662 H 912.551 2.88859 2.8814 0
M  V30 9663 H 911.226 3.64155 2.00907 0
M  V30 9664 H 909.803 2.13819 3.05509 0
M  V30 9665 N 911.988 -0.768124 1.37614 0
M  V30 9666 C 913.234 -1.52907 1.33219 0
M  V30 9667 C 913.567 -1.94026 -0.0821218 0
M  V30 9668 O 912.842 -1.64345 -1.04023 0
M  V30 9669 C 913.125 -2.79164 2.27463 0
M  V30 9670 C 912.978 -2.44276 3.7769 0
M  V30 9671 C 914.297 -3.81115 2.20089 0
M  V30 9672 H 911.416 -0.554712 0.485246 0
M  V30 9673 H 914.058 -0.880911 1.68345 0
M  V30 9674 H 912.208 -3.34472 1.97639 0
M  V30 9675 H 913.88 -1.94855 4.18126 0
M  V30 9676 H 912.123 -1.76925 3.96081 0
M  V30 9677 H 912.794 -3.34544 4.39072 0
M  V30 9678 H 915.27 -3.35311 2.46386 0
M  V30 9679 H 914.146 -4.67174 2.88166 0
M  V30 9680 H 914.407 -4.25644 1.19498 0
M  V30 9681 N 913.466 -1.22244 -0.994698 0
M  V30 9682 C 914.696 -1.07062 -1.76695 0
M  V30 9683 C 915.104 0.381895 -1.85306 0
M  V30 9684 O 914.447 1.27648 -1.32105 0
M  V30 9685 C 914.509 -1.60487 -3.2169 0
M  V30 9686 C 914.173 -3.09079 -3.36629 0
M  V30 9687 C 915.17 -4.06526 -3.24088 0
M  V30 9688 C 912.855 -3.48497 -3.61739 0
M  V30 9689 C 914.849 -5.41377 -3.36437 0
M  V30 9690 C 912.536 -4.83498 -3.73729 0
M  V30 9691 C 913.534 -5.79747 -3.61086 0
M  V30 9692 O 913.222 -7.12297 -3.72678 0
M  V30 9693 H 912.954 -0.375963 -0.561807 0
M  V30 9694 H 915.508 -1.62259 -1.25941 0
M  V30 9695 H 913.738 -0.996957 -3.73628 0
M  V30 9696 H 915.427 -1.40994 -3.80625 0
M  V30 9697 H 916.193 -3.77415 -3.04602 0
M  V30 9698 H 912.072 -2.74106 -3.70657 0
M  V30 9699 H 915.616 -6.16485 -3.26485 0
M  V30 9700 H 911.513 -5.1229 -3.92721 0
M  V30 9701 H 912.281 -7.1985 -3.89562 0
M  V30 9702 N 914.944 1.19125 -1.03184 0
M  V30 9703 C 915.892 2.24492 -0.608781 0
M  V30 9704 C 916.886 1.65529 0.360065 0
M  V30 9705 O 918.092 1.78546 0.22832 0
M  V30 9706 H 914.467 0.73048 -0.178616 0
M  V30 9707 H 916.438 2.5749 -1.50803 0
M  V30 9708 C 915.187 3.47693 0.0215126 0
M  V30 9709 H 914.51 3.93354 -0.715024 0
M  V30 9710 H 915.95 4.23072 0.280429 0
M  V30 9711 C 914.409 3.12088 1.26896 0
M  V30 9712 O 914.939 3.25013 2.36071 0
M  V30 9713 N 913.145 2.66494 1.15886 0
M  V30 9714 H 912.692 2.56176 0.270463 0
M  V30 9715 H 912.65 2.43042 1.99444 0
M  V30 9716 N 916.422 0.810101 1.35185 0
M  V30 9717 C 917.352 0.237453 2.32289 0
M  V30 9718 C 918.333 -0.639032 1.5764 0
M  V30 9719 O 919.518 -0.568575 1.8569 0
M  V30 9720 C 916.648 -0.611964 3.41866 0
M  V30 9721 C 915.602 0.166318 4.27677 0
M  V30 9722 C 914.928 -0.805024 5.28605 0
M  V30 9723 C 916.228 1.36729 5.04086 0
M  V30 9724 H 917.922 1.04874 2.80432 0
M  V30 9725 H 915.468 0.505751 1.34826 0
M  V30 9726 H 917.421 -1.02267 4.08802 0
M  V30 9727 H 916.145 -1.45617 2.92341 0
M  V30 9728 H 914.804 0.558238 3.62325 0
M  V30 9729 H 914.452 -1.64483 4.75347 0
M  V30 9730 H 914.152 -0.288577 5.86891 0
M  V30 9731 H 915.676 -1.21386 5.98413 0
M  V30 9732 H 917.09 1.03128 5.63948 0
M  V30 9733 H 915.487 1.81848 5.71884 0
M  V30 9734 H 916.557 2.15214 4.34524 0
M  V30 9735 N 917.9 -1.47166 0.563914 0
M  V30 9736 C 918.83 -2.32894 -0.168148 0
M  V30 9737 C 919.811 -1.44202 -0.902214 0
M  V30 9738 O 920.996 -1.73048 -0.881365 0
M  V30 9739 C 918.126 -3.26116 -1.19439 0
M  V30 9740 C 917.08 -4.24101 -0.576363 0
M  V30 9741 C 916.406 -5.06696 -1.70772 0
M  V30 9742 C 917.706 -5.20142 0.47425 0
M  V30 9743 H 919.4 -2.9435 0.547573 0
M  V30 9744 H 916.946 -1.41545 0.264778 0
M  V30 9745 H 918.899 -3.84935 -1.71474 0
M  V30 9746 H 917.623 -2.62728 -1.94014 0
M  V30 9747 H 916.282 -3.66519 -0.0772534 0
M  V30 9748 H 915.93 -4.39707 -2.44268 0
M  V30 9749 H 915.63 -5.7304 -1.29994 0
M  V30 9750 H 917.154 -5.68375 -2.2312 0
M  V30 9751 H 918.568 -5.73286 0.0397035 0
M  V30 9752 H 916.965 -5.94726 0.801287 0
M  V30 9753 H 918.035 -4.65214 1.36764 0
M  V30 9754 N 919.378 -0.300708 -1.54705 0
M  V30 9755 C 920.789 0.191995 -1.8571 0
M  V30 9756 C 921.14 1.53447 -1.22264 0
M  V30 9757 O 920.265 2.10054 -0.520226 0
M  V30 9758 C 920.86 0.355148 -3.36933 0
M  V30 9759 C 919.419 0.792071 -3.67972 0
M  V30 9760 C 918.566 -0.099756 -2.77121 0
M  V30 9761 H 921.517 -0.521729 -1.49879 0
M  V30 9762 H 921.538 1.18977 -3.61421 0
M  V30 9763 H 921.05 -0.622075 -3.83082 0
M  V30 9764 H 919.151 1.77986 -3.27341 0
M  V30 9765 H 919.264 0.611661 -4.75179 0
M  V30 9766 H 917.628 0.420909 -2.51198 0
M  V30 9767 H 918.411 -1.07333 -3.2609 0
M  V30 9768 N 920.856 1.57574 -0.0284266 0
M  V30 9769 C 921.766 2.13637 0.96936 0
M  V30 9770 C 922.782 1.08845 1.35752 0
M  V30 9771 O 923.958 1.40899 1.43908 0
M  V30 9772 C 921.023 2.65179 2.2334 0
M  V30 9773 C 920.084 3.84683 1.90572 0
M  V30 9774 C 919.317 4.33758 3.1095 0
M  V30 9775 O 919.54 3.82009 4.23586 0
M  V30 9776 O 918.474 5.2561 2.93288 0
M  V30 9777 H 922.3 2.99169 0.52267 0
M  V30 9778 H 919.885 1.48159 0.192135 0
M  V30 9779 H 921.767 2.98402 2.97547 0
M  V30 9780 H 920.442 1.82731 2.67191 0
M  V30 9781 H 919.349 3.56386 1.13753 0
M  V30 9782 H 920.682 4.68292 1.51538 0
M  V30 9783 N 922.334 -0.244713 1.55689 0
M  V30 9784 C 923.281 -1.30301 1.905 0
M  V30 9785 C 924.251 -1.4772 0.759478 0
M  V30 9786 O 925.436 -1.61667 1.01333 0
M  V30 9787 C 922.576 -2.653 2.20703 0
M  V30 9788 C 921.689 -2.55872 3.48071 0
M  V30 9789 C 920.824 -3.83238 3.67834 0
M  V30 9790 C 919.863 -3.68436 4.88796 0
M  V30 9791 N 919 -4.877 5.05068 0
M  V30 9792 H 923.84 -0.999143 2.80751 0
M  V30 9793 H 921.377 -0.482099 1.38976 0
M  V30 9794 H 923.335 -3.43884 2.36219 0
M  V30 9795 H 921.965 -2.93831 1.33653 0
M  V30 9796 H 921.017 -1.68846 3.40874 0
M  V30 9797 H 922.329 -2.40845 4.36801 0
M  V30 9798 H 921.483 -4.70266 3.83321 0
M  V30 9799 H 920.222 -4.01165 2.77341 0
M  V30 9800 H 919.227 -2.79793 4.73282 0
M  V30 9801 H 920.452 -3.52003 5.8075 0
M  V30 9802 H 918.398 -5.05983 4.17513 0
M  V30 9803 H 918.315 -4.75312 5.8789 0
M  V30 9804 H 919.583 -5.76219 5.24969 0
M  V30 9805 N 923.813 -1.49104 -0.510467 0
M  V30 9806 C 925.09 -1.48609 -1.27179 0
M  V30 9807 C 925.47 -0.208537 -2.10067 0
M  V30 9808 O 924.818 0.809335 -2.13687 0
M  V30 9809 C 925.028 -2.75953 -2.1366 0
M  V30 9810 C 926.376 -3.25067 -2.73161 0
M  V30 9811 O 927.4 -2.77005 -2.23934 0
M  V30 9812 O 926.259 -4.08747 -3.62751 0
M  V30 9813 H 923.353 -0.594374 -0.57502 0
M  V30 9814 H 925.899 -1.61358 -0.525515 0
M  V30 9815 H 924.671 -3.60434 -1.52325 0
M  V30 9816 H 924.294 -2.66019 -2.95499 0
M  V30 9817 N 925.291 0.760815 -1.38019 0
M  V30 9818 C 926.221 1.88811 -1.37377 0
M  V30 9819 C 927.202 1.68388 -0.240737 0
M  V30 9820 O 928.387 1.89086 -0.442739 0
M  V30 9821 C 925.517 3.26244 -1.1909 0
M  V30 9822 C 924.471 3.61254 -2.29521 0
M  V30 9823 C 923.797 4.97346 -1.96345 0
M  V30 9824 C 925.097 3.66874 -3.71753 0
M  V30 9825 H 926.791 1.89606 -2.31711 0
M  V30 9826 H 924.337 0.910818 -1.11535 0
M  V30 9827 H 926.29 4.04755 -1.17267 0
M  V30 9828 H 925.014 3.2591 -0.212152 0
M  V30 9829 H 923.673 2.85057 -2.30517 0
M  V30 9830 H 923.321 4.93564 -0.969728 0
M  V30 9831 H 923.021 5.21739 -2.703 0
M  V30 9832 H 924.545 5.78244 -1.96129 0
M  V30 9833 H 925.959 4.35514 -3.72828 0
M  V30 9834 H 924.356 4.02772 -4.44853 0
M  V30 9835 H 925.426 2.67273 -4.0459 0
M  V30 9836 N 926.769 1.22769 0.988202 0
M  V30 9837 C 927.997 1.08155 1.76381 0
M  V30 9838 C 928.412 -0.367573 1.85187 0
M  V30 9839 O 927.769 -1.25455 1.32541 0
M  V30 9840 C 927.82 1.69193 3.19462 0
M  V30 9841 O 927.541 3.08437 3.11125 0
M  V30 9842 C 929.042 1.59915 4.13451 0
M  V30 9843 H 926.262 0.378908 0.553778 0
M  V30 9844 H 928.806 1.6246 1.24206 0
M  V30 9845 H 926.961 1.18939 3.6869 0
M  V30 9846 H 927.375 3.37916 4.0114 0
M  V30 9847 H 928.849 2.07339 5.1158 0
M  V30 9848 H 929.326 0.556546 4.3566 0
M  V30 9849 H 929.932 2.09497 3.70123 0
M  V30 9850 N 928.247 -1.18576 1.03814 0
M  V30 9851 C 929.495 -1.88121 0.738574 0
M  V30 9852 C 929.816 -1.80587 -0.735744 0
M  V30 9853 O 929.086 -1.22251 -1.53074 0
M  V30 9854 H 927.666 -0.696417 0.270208 0
M  V30 9855 H 930.328 -1.43912 1.31435 0
M  V30 9856 H 929.424 -2.94222 1.04115 0
M  V30 9857 N 929.725 -0.817259 -1.34754 0
M  V30 9858 C 930.972 -0.402648 -1.98457 0
M  V30 9859 C 931.3 1.03287 -1.64809 0
M  V30 9860 O 930.555 1.73316 -0.908851 0
M  V30 9861 C 930.854 -0.5453 -3.53216 0
M  V30 9862 C 930.52 -1.9457 -4.06759 0
M  V30 9863 C 929.182 -2.32881 -4.21094 0
M  V30 9864 C 931.534 -2.86141 -4.35629 0
M  V30 9865 C 928.862 -3.62108 -4.61622 0
M  V30 9866 C 931.214 -4.14826 -4.776 0
M  V30 9867 C 929.878 -4.53121 -4.9014 0
M  V30 9868 H 929.148 -0.147339 -0.726204 0
M  V30 9869 H 931.795 -1.04011 -1.60791 0
M  V30 9870 H 930.1 0.175576 -3.91406 0
M  V30 9871 H 931.797 -0.205112 -4.00475 0
M  V30 9872 H 928.387 -1.6381 -3.96061 0
M  V30 9873 H 932.571 -2.57788 -4.24098 0
M  V30 9874 H 927.827 -3.91613 -4.69521 0
M  V30 9875 H 932.001 -4.85874 -4.98899 0
M  V30 9876 H 929.628 -5.53307 -5.21302 0
M  V30 9877 N 931.203 1.46865 -0.571711 0
M  V30 9878 C 932.614 1.86158 -0.142181 0
M  V30 9879 C 932.965 1.47663 1.2919 0
M  V30 9880 O 932.09 0.886393 1.97413 0
M  V30 9881 C 932.685 3.37867 -0.251256 0
M  V30 9882 C 931.244 3.76198 0.123329 0
M  V30 9883 C 930.391 2.70902 -0.592232 0
M  V30 9884 H 933.342 1.38176 -0.780587 0
M  V30 9885 H 933.363 3.76842 0.526331 0
M  V30 9886 H 932.875 3.65853 -1.2951 0
M  V30 9887 H 930.976 3.53829 1.16773 0
M  V30 9888 H 931.089 4.78471 -0.24533 0
M  V30 9889 H 929.453 2.54678 -0.0336927 0
M  V30 9890 H 930.236 3.01729 -1.63751 0
M  V30 9891 N 932.681 0.308908 1.54543 0
M  V30 9892 C 933.929 -0.297447 1.99899 0
M  V30 9893 C 934.25 -1.53799 1.19878 0
M  V30 9894 O 933.52 -1.93639 0.29678 0
M  V30 9895 H 932.1 -0.112897 0.738419 0
M  V30 9896 H 934.762 0.422067 1.90275 0
M  V30 9897 H 933.858 -0.564016 3.06961 0
M  V30 9898 N 934.159 -1.57557 0.0367827 0
M  V30 9899 C 935.57 -1.79853 -0.500971 0
M  V30 9900 C 935.921 -0.947749 -1.71791 0
M  V30 9901 O 935.046 -0.160287 -2.15806 0
M  V30 9902 C 935.641 -3.26193 -0.915626 0
M  V30 9903 C 934.2 -3.49457 -1.39845 0
M  V30 9904 C 933.347 -2.74864 -0.366784 0
M  V30 9905 H 936.298 -1.56509 0.262768 0
M  V30 9906 H 936.319 -3.36324 -1.7795 0
M  V30 9907 H 935.831 -3.88089 -0.0297227 0
M  V30 9908 H 933.932 -2.92823 -2.30402 0
M  V30 9909 H 934.045 -4.58172 -1.40054 0
M  V30 9910 H 932.409 -2.4057 -0.836554 0
M  V30 9911 H 933.192 -3.39479 0.510785 0
M  V30 9912 N 935.637 0.236453 -1.55816 0
M  V30 9913 C 936.567 1.29639 -1.94206 0
M  V30 9914 C 937.548 1.49667 -0.808319 0
M  V30 9915 O 938.733 1.621 -1.06945 0
M  V30 9916 C 935.863 2.64914 -2.24584 0
M  V30 9917 C 934.817 2.59565 -3.40308 0
M  V30 9918 C 934.143 3.98732 -3.56254 0
M  V30 9919 C 935.443 2.15642 -4.75706 0
M  V30 9920 H 937.137 0.977552 -2.82992 0
M  V30 9921 H 934.683 0.468804 -1.36155 0
M  V30 9922 H 936.636 3.39209 -2.50031 0
M  V30 9923 H 935.36 2.98455 -1.32636 0
M  V30 9924 H 934.019 1.87728 -3.14887 0
M  V30 9925 H 933.667 4.29556 -2.61707 0
M  V30 9926 H 933.367 3.96039 -4.34082 0
M  V30 9927 H 934.891 4.74711 -3.84033 0
M  V30 9928 H 936.305 2.79673 -5.00456 0
M  V30 9929 H 934.702 2.24039 -5.56711 0
M  V30 9930 H 935.772 1.10831 -4.72064 0
M  V30 9931 N 937.115 1.49373 0.502552 0
M  V30 9932 C 938.063 1.66411 1.62512 0
M  V30 9933 C 939.057 0.530062 1.60893 0
M  V30 9934 O 940.263 0.709648 1.65421 0
M  V30 9935 H 936.638 0.524707 0.538689 0
M  V30 9936 H 938.609 2.60639 1.45293 0
M  V30 9937 C 937.358 1.74648 3.00655 0
M  V30 9938 H 936.681 2.61285 3.02606 0
M  V30 9939 H 938.121 1.90605 3.78742 0
M  V30 9940 C 936.58 0.490963 3.33303 0
M  V30 9941 O 937.11 -0.384039 3.9986 0
M  V30 9942 N 935.316 0.354375 2.88431 0
M  V30 9943 H 934.863 1.06742 2.34444 0
M  V30 9944 H 934.821 -0.484593 3.10643 0
M  V30 9945 N 938.594 -0.753485 1.38421 0
M  V30 9946 C 939.871 -1.50318 1.25155 0
M  V30 9947 C 940.251 -2.10588 -0.147003 0
M  V30 9948 O 939.599 -1.97071 -1.15651 0
M  V30 9949 C 939.809 -2.56946 2.36177 0
M  V30 9950 C 941.157 -3.23846 2.74607 0
M  V30 9951 O 942.181 -2.67251 2.3549 0
M  V30 9952 O 941.04 -4.2621 3.42064 0
M  V30 9953 H 938.134 -0.666624 0.48943 0
M  V30 9954 H 940.68 -0.788887 1.50249 0
M  V30 9955 H 939.452 -2.1066 3.29754 0
M  V30 9956 H 939.075 -3.35956 2.12648 0
M  V30 9957 N 940.072 -1.23292 -0.981677 0
M  V30 9958 C 941.004 -0.970782 -2.07626 0
M  V30 9959 C 942.017 0.0547506 -1.62708 0
M  V30 9960 O 943.206 -0.180623 -1.77584 0
M  V30 9961 C 940.306 -0.44055 -3.36024 0
M  V30 9962 C 939.479 -1.52595 -4.09919 0
M  V30 9963 C 938.538 -1.00082 -5.16595 0
M  V30 9964 O 937.564 -1.68951 -5.43548 0
M  V30 9965 N 938.766 0.172017 -5.80245 0
M  V30 9966 H 941.531 -1.91316 -2.30691 0
M  V30 9967 H 939.092 -1.14133 -1.14828 0
M  V30 9968 H 941.084 -0.0743111 -4.04632 0
M  V30 9969 H 939.654 0.407211 -3.09936 0
M  V30 9970 H 938.874 -2.06501 -3.35784 0
M  V30 9971 H 940.162 -2.2559 -4.56055 0
M  V30 9972 H 939.56 0.748129 -5.60731 0
M  V30 9973 H 938.117 0.479532 -6.50034 0
M  V30 9974 N 941.55 1.18024 -1.04442 0
M  V30 9975 C 942.827 1.8398 -0.664125 0
M  V30 9976 C 943.207 1.92961 0.856116 0
M  V30 9977 O 942.555 1.45839 1.75907 0
M  V30 9978 C 942.765 3.22069 -1.34433 0
M  V30 9979 C 944.113 3.98063 -1.47754 0
M  V30 9980 O 945.137 3.31523 -1.30274 0
M  V30 9981 O 943.996 5.17291 -1.76272 0
M  V30 9982 H 941.09 0.793543 -0.23285 0
M  V30 9983 H 943.636 1.25385 -1.14354 0
M  V30 9984 H 942.408 3.10458 -2.38184 0
M  V30 9985 H 942.031 3.88325 -0.853782 0
M  V30 9986 N 943.028 0.824394 1.34319 0
M  V30 9987 C 943.976 0.235628 2.31403 0
M  V30 9988 C 944.97 -0.624443 1.57471 0
M  V30 9989 O 946.176 -0.515618 1.72457 0
M  V30 9990 H 942.551 0.0574537 0.749802 0
M  V30 9991 H 944.522 1.06925 2.78585 0
M  V30 9992 C 943.271 -0.586617 3.42716 0
M  V30 9993 H 942.594 0.0658669 3.99746 0
M  V30 9994 H 944.034 -0.964661 4.1288 0
M  V30 9995 C 942.493 -1.75957 2.87299 0
M  V30 9996 O 943.023 -2.8578 2.82299 0
M  V30 9997 N 941.229 -1.57678 2.44102 0
M  V30 9998 H 940.776 -0.683436 2.48369 0
M  V30 9999 H 940.734 -2.36311 2.07375 0
M  V30 10000 N 944.506 -1.46559 0.579492 0
M  V30 10001 C 945.416 -2.34066 -0.15816 0
M  V30 10002 C 946.432 -1.49556 -0.88932 0
M  V30 10003 O 947.608 -1.82434 -0.853226 0
M  V30 10004 C 944.673 -3.26683 -1.161 0
M  V30 10005 C 943.734 -4.27092 -0.434855 0
M  V30 10006 C 942.967 -5.15283 -1.38992 0
M  V30 10007 O 943.19 -5.06345 -2.62623 0
M  V30 10008 O 942.124 -5.95099 -0.902253 0
M  V30 10009 H 945.95 -2.98488 0.560234 0
M  V30 10010 H 943.535 -1.45482 0.339918 0
M  V30 10011 H 945.417 -3.8383 -1.73932 0
M  V30 10012 H 944.092 -2.64862 -1.86091 0
M  V30 10013 H 942.999 -3.73641 0.185224 0
M  V30 10014 H 944.332 -4.9169 0.224031 0
M  V30 10015 N 945.984 -0.3171 -1.54377 0
M  V30 10016 C 947.261 0.341348 -1.92598 0
M  V30 10017 C 947.641 1.70402 -1.24605 0
M  V30 10018 O 946.989 2.25191 -0.387448 0
M  V30 10019 C 947.199 0.440003 -3.46215 0
M  V30 10020 C 948.547 0.703327 -4.18734 0
M  V30 10021 O 949.571 0.523181 -3.52337 0
M  V30 10022 O 948.43 1.05042 -5.3631 0
M  V30 10023 H 945.524 0.193696 -0.803997 0
M  V30 10024 H 948.07 -0.366341 -1.65699 0
M  V30 10025 H 946.842 -0.517299 -3.87866 0
M  V30 10026 H 946.465 1.19553 -3.792 0
M  V30 10027 N 947.462 1.57535 -0.0451378 0
M  V30 10028 C 948.702 1.9432 0.633955 0
M  V30 10029 C 949.066 0.922924 1.68363 0
M  V30 10030 O 950.267 1.17751 2.41636 0
M  V30 10031 C 948.538 3.35933 1.21999 0
M  V30 10032 S 950.097 3.94666 1.91793 0
M  V30 10033 H 946.915 0.679798 0.208318 0
M  V30 10034 H 949.517 1.95175 -0.112633 0
M  V30 10035 H 948.221 4.07993 0.443821 0
M  V30 10036 H 947.752 3.38559 2.00353 0
M  V30 10037 H 949.767 3.79401 3.19796 0
M  V30 10038 N 948.94 -0.228186 1.55939 0
M  V30 10039 C 950.189 -0.951563 1.77843 0
M  V30 10040 C 950.502 -1.85763 0.612501 0
M  V30 10041 O 951.708 -2.61916 0.715006 0
M  V30 10042 C 950.164 -1.74216 3.14923 0
M  V30 10043 C 949.772 -0.882569 4.39221 0
M  V30 10044 C 951.516 -2.45715 3.46156 0
M  V30 10045 C 949.423 -1.67014 5.67327 0
M  V30 10046 H 948.353 -0.359035 0.663031 0
M  V30 10047 H 951.004 -0.205636 1.82344 0
M  V30 10048 H 949.386 -2.53075 3.0458 0
M  V30 10049 H 950.56 -0.13499 4.60602 0
M  V30 10050 H 948.875 -0.280022 4.15457 0
M  V30 10051 H 951.472 -3.05127 4.39092 0
M  V30 10052 H 951.815 -3.1827 2.68346 0
M  V30 10053 H 952.348 -1.73852 3.57799 0
M  V30 10054 H 949.087 -0.987985 6.48012 0
M  V30 10055 H 948.607 -2.3925 5.50018 0
M  V30 10056 H 950.286 -2.23252 6.07262 0
M  V30 10057 N 950.418 -1.49637 -0.494624 0
M  V30 10058 C 951.366 -1.6727 -1.61627 0
M  V30 10059 C 952.36 -0.538587 -1.6061 0
M  V30 10060 O 953.566 -0.718411 -1.65042 0
M  V30 10061 H 949.941 -0.527557 -0.535899 0
M  V30 10062 H 951.912 -2.61405 -1.43909 0
M  V30 10063 C 950.661 -1.7624 -2.99725 0
M  V30 10064 H 949.984 -2.62886 -3.01216 0
M  V30 10065 H 951.424 -1.92611 -3.77726 0
M  V30 10066 C 949.883 -0.508632 -3.33038 0
M  V30 10067 O 950.413 0.362828 -4.00058 0
M  V30 10068 N 948.619 -0.369667 -2.88239 0
M  V30 10069 H 948.166 -1.07984 -2.33875 0
M  V30 10070 H 948.124 0.468112 -3.10896 0
M  V30 10071 N 951.896 0.746133 -1.38819 0
M  V30 10072 C 953.312 1.0502 -1.20179 0
M  V30 10073 C 953.512 2.01423 -0.0556271 0
M  V30 10074 O 952.568 2.45359 0.59625 0
M  V30 10075 C 953.881 1.62315 -2.53129 0
M  V30 10076 C 955.429 1.74449 -2.59878 0
M  V30 10077 C 955.904 2.35155 -3.93022 0
M  V30 10078 N 957.395 2.42577 -3.94602 0
M  V30 10079 C 958.13 2.9046 -4.94389 0
M  V30 10080 N 957.626 3.38322 -6.04574 0
M  V30 10081 N 959.419 2.89568 -4.81775 0
M  V30 10082 H 951.57 0.106551 -2.12133 0
M  V30 10083 H 953.833 0.109897 -0.941609 0
M  V30 10084 H 953.539 0.98946 -3.37495 0
M  V30 10085 H 953.413 2.61276 -2.72057 0
M  V30 10086 H 955.8 2.36943 -1.75903 0
M  V30 10087 H 955.881 0.741721 -2.4481 0
M  V30 10088 H 955.525 1.73292 -4.77422 0
M  V30 10089 H 955.455 3.36088 -4.05404 0
M  V30 10090 H 957.946 2.08735 -3.15021 0
M  V30 10091 H 958.259 3.73336 -6.76639 0
M  V30 10092 H 956.604 3.3636 -6.08184 0
M  V30 10093 H 959.795 2.51492 -3.94803 0
M  V30 10094 H 959.968 3.26571 -5.59692 0
M  V30 10095 N 953.375 1.23811 0.975125 0
M  V30 10096 C 954.325 0.991036 2.05335 0
M  V30 10097 C 955.309 -0.0648793 1.60769 0
M  V30 10098 O 956.501 0.147917 1.76381 0
M  V30 10099 C 953.63 0.589822 3.38195 0
M  V30 10100 C 952.716 1.68142 3.89344 0
M  V30 10101 N 953.107 2.91274 4.13513 0
M  V30 10102 C 951.405 1.55722 4.17931 0
M  V30 10103 C 952.106 3.61987 4.55347 0
M  V30 10104 N 951.082 2.8952 4.60086 0
M  V30 10105 H 954.884 1.92612 2.21986 0
M  V30 10106 H 952.398 1.13827 1.15832 0
M  V30 10107 H 954.395 0.394075 4.15033 0
M  V30 10108 H 953.055 -0.338157 3.22934 0
M  V30 10109 H 954.066 3.27528 4.01181 0
M  V30 10110 H 950.743 0.696732 4.11645 0
M  V30 10111 H 952.133 4.67572 4.8252 0
M  V30 10112 N 954.853 -1.17469 1.05066 0
M  V30 10113 C 955.801 -2.23495 0.644418 0
M  V30 10114 C 956.795 -1.66081 -0.333685 0
M  V30 10115 O 958.001 -1.78887 -0.199886 0
M  V30 10116 H 954.376 -0.727546 0.190214 0
M  V30 10117 H 956.347 -2.55058 1.5488 0
M  V30 10118 C 955.096 -3.47684 0.0338051 0
M  V30 10119 H 954.419 -3.92167 0.777513 0
M  V30 10120 H 955.859 -4.23464 -0.213086 0
M  V30 10121 C 954.318 -3.14067 -1.21915 0
M  V30 10122 O 954.848 -3.28728 -2.3087 0
M  V30 10123 N 953.054 -2.68304 -1.11631 0
M  V30 10124 H 952.601 -2.56574 -0.229673 0
M  V30 10125 H 952.559 -2.46184 -1.95553 0
M  V30 10126 N 956.331 -0.831506 -1.3388 0
M  V30 10127 C 957.577 -0.424302 -1.98312 0
M  V30 10128 C 957.91 1.01211 -1.65741 0
M  V30 10129 O 957.185 1.70636 -0.933464 0
M  V30 10130 C 957.468 -0.636815 -3.54424 0
M  V30 10131 C 957.321 -2.11997 -3.96708 0
M  V30 10132 C 958.64 -0.0782411 -4.4003 0
M  V30 10133 H 955.759 -0.155637 -0.720379 0
M  V30 10134 H 958.401 -1.04566 -1.58638 0
M  V30 10135 H 956.551 -0.107907 -3.8835 0
M  V30 10136 H 958.223 -2.71317 -3.73075 0
M  V30 10137 H 956.466 -2.60723 -3.46707 0
M  V30 10138 H 957.137 -2.21944 -5.05416 0
M  V30 10139 H 959.613 -0.530243 -4.12708 0
M  V30 10140 H 958.489 -0.256676 -5.483 0
M  V30 10141 H 958.75 1.01745 -4.30233 0
M  V30 10142 N 957.809 1.4625 -0.587256 0
M  V30 10143 C 959.039 2.06444 -0.0802135 0
M  V30 10144 C 959.447 1.43585 1.23207 0
M  V30 10145 O 958.79 0.536956 1.75677 0
M  V30 10146 C 958.852 3.59165 0.155129 0
M  V30 10147 C 958.516 4.44243 -1.07225 0
M  V30 10148 C 959.513 4.80497 -1.98542 0
M  V30 10149 C 957.198 4.8531 -1.29537 0
M  V30 10150 C 959.192 5.56649 -3.10516 0
M  V30 10151 C 956.879 5.61221 -2.41815 0
M  V30 10152 C 957.877 5.96805 -3.32134 0
M  V30 10153 O 957.565 6.71181 -4.42461 0
M  V30 10154 H 957.297 0.673626 -0.0566063 0
M  V30 10155 H 959.851 1.88797 -0.809004 0
M  V30 10156 H 958.081 3.75137 0.938583 0
M  V30 10157 H 959.77 4.01271 0.611243 0
M  V30 10158 H 960.536 4.49345 -1.82522 0
M  V30 10159 H 956.415 4.5706 -0.601431 0
M  V30 10160 H 959.959 5.84343 -3.81037 0
M  V30 10161 H 955.856 5.91786 -2.57797 0
M  V30 10162 H 956.624 6.8961 -4.40886 0
M  V30 10163 N 959.287 0.325282 1.54207 0
M  V30 10164 C 960.536 -0.27768 1.99779 0
M  V30 10165 C 960.849 -1.5311 1.21723 0
M  V30 10166 O 962.055 -2.21017 1.57682 0
M  V30 10167 C 960.511 -0.545329 3.55745 0
M  V30 10168 C 960.119 0.691143 4.42637 0
M  V30 10169 C 961.863 -1.10815 4.09781 0
M  V30 10170 C 959.77 0.395302 5.90077 0
M  V30 10171 H 958.7 -0.107536 0.746292 0
M  V30 10172 H 961.351 0.437773 1.78202 0
M  V30 10173 H 959.733 -1.32101 3.73317 0
M  V30 10174 H 960.907 1.46653 4.3684 0
M  V30 10175 H 959.222 1.1743 3.99499 0
M  V30 10176 H 961.819 -1.34414 5.1753 0
M  V30 10177 H 962.162 -2.05806 3.6187 0
M  V30 10178 H 962.695 -0.393608 3.95848 0
M  V30 10179 H 959.434 1.31443 6.42186 0
M  V30 10180 H 958.954 -0.34235 5.98822 0
M  V30 10181 H 960.633 0.00576877 6.47 0
M  V30 10182 N 960.765 -1.57509 0.0534917 0
M  V30 10183 C 961.713 -2.12851 -0.937931 0
M  V30 10184 C 962.707 -1.06088 -1.32067 0
M  V30 10185 O 963.913 -1.24494 -1.30005 0
M  V30 10186 H 960.288 -0.680357 -0.320342 0
M  V30 10187 H 962.259 -2.95047 -0.446077 0
M  V30 10188 C 961.008 -2.69034 -2.20264 0
M  V30 10189 H 960.331 -3.50848 -1.91693 0
M  V30 10190 H 961.771 -3.11375 -2.87788 0
M  V30 10191 C 960.23 -1.62919 -2.94888 0
M  V30 10192 O 960.76 -1.04334 -3.87914 0
M  V30 10193 N 958.966 -1.34385 -2.57661 0
M  V30 10194 H 958.513 -1.82214 -1.82088 0
M  V30 10195 H 958.471 -0.636149 -3.07897 0
M  V30 10196 N 962.243 0.219913 -1.56058 0
M  V30 10197 C 963.491 0.942199 -1.78793 0
M  V30 10198 C 963.812 1.84804 -0.622284 0
M  V30 10199 O 963.082 1.9255 0.360735 0
M  V30 10200 H 961.662 0.350895 -0.659455 0
M  V30 10201 H 964.324 0.231376 -1.93522 0
M  V30 10202 H 963.42 1.54804 -2.71002 0
M  V30 10203 N 963.721 1.49897 0.486681 0
M  V30 10204 C 964.97 1.59349 1.23656 0
M  V30 10205 C 965.283 0.292024 1.93408 0
M  V30 10206 O 966.489 0.265258 2.70201 0
M  V30 10207 C 964.945 2.81215 2.24602 0
M  V30 10208 C 964.553 4.18177 1.60725 0
M  V30 10209 C 966.297 3.00004 3.00329 0
M  V30 10210 C 964.204 5.31247 2.59866 0
M  V30 10211 H 963.134 0.593363 0.465227 0
M  V30 10212 H 965.785 1.76306 0.508769 0
M  V30 10213 H 964.167 2.57783 3.00606 0
M  V30 10214 H 965.341 4.51802 0.90616 0
M  V30 10215 H 963.656 4.04864 0.973362 0
M  V30 10216 H 966.253 3.81649 3.74497 0
M  V30 10217 H 966.596 2.1112 3.58795 0
M  V30 10218 H 967.129 3.23544 2.3144 0
M  V30 10219 H 963.868 6.22236 2.06161 0
M  V30 10220 H 963.388 5.02059 3.28172 0
M  V30 10221 H 965.067 5.61177 3.22009 0
M  V30 10222 N 965.199 -0.738761 1.39212 0
M  V30 10223 C 966.427 -1.52801 1.39497 0
M  V30 10224 C 966.842 -1.88797 -0.0114917 0
M  V30 10225 O 966.199 -1.53835 -0.981887 0
M  V30 10226 C 966.25 -2.81793 2.2644 0
M  V30 10227 O 965.971 -2.47328 3.61608 0
M  V30 10228 C 967.472 -3.75844 2.35067 0
M  V30 10229 H 964.692 -0.472322 0.476606 0
M  V30 10230 H 967.236 -0.913153 1.8298 0
M  V30 10231 H 965.391 -3.3962 1.8638 0
M  V30 10232 H 965.805 -3.30162 4.07545 0
M  V30 10233 H 967.279 -4.6326 3.00157 0
M  V30 10234 H 967.756 -4.17329 1.3687 0
M  V30 10235 H 968.362 -3.23937 2.75581 0
M  V30 10236 N 966.677 -1.24326 -0.968545 0
M  V30 10237 C 967.907 -1.10786 -1.74385 0
M  V30 10238 C 968.315 0.342503 -1.86074 0
M  V30 10239 O 967.658 1.24817 -1.34782 0
M  V30 10240 C 967.72 -1.67274 -3.18213 0
M  V30 10241 C 967.384 -3.1615 -3.29998 0
M  V30 10242 C 968.381 -4.13309 -3.15392 0
M  V30 10243 C 966.066 -3.56092 -3.54265 0
M  V30 10244 C 968.06 -5.48392 -3.24878 0
M  V30 10245 C 965.747 -4.91316 -3.63389 0
M  V30 10246 C 966.745 -5.87275 -3.48707 0
M  V30 10247 O 966.433 -7.20041 -3.57485 0
M  V30 10248 H 966.165 -0.387795 -0.553706 0
M  V30 10249 H 968.719 -1.64894 -1.22471 0
M  V30 10250 H 966.949 -1.07598 -3.71429 0
M  V30 10251 H 968.638 -1.49036 -3.77549 0
M  V30 10252 H 969.404 -3.83792 -2.96528 0
M  V30 10253 H 965.283 -2.81907 -3.6476 0
M  V30 10254 H 968.827 -6.23271 -3.13335 0
M  V30 10255 H 964.724 -5.20505 -3.81766 0
M  V30 10256 H 965.492 -7.27951 -3.74205 0
M  V30 10257 N 968.156 1.1691 -1.05688 0
M  V30 10258 C 969.384 1.91204 -0.790485 0
M  V30 10259 C 969.799 1.77095 0.654434 0
M  V30 10260 O 969.156 1.11146 1.44751 0
M  V30 10261 C 969.207 3.42108 -1.16808 0
M  V30 10262 O 968.928 3.55788 -2.55629 0
M  V30 10263 C 970.429 4.33466 -0.92855 0
M  V30 10264 H 967.649 0.606508 -0.287035 0
M  V30 10265 H 970.193 1.48225 -1.40888 0
M  V30 10266 H 968.348 3.82814 -0.59434 0
M  V30 10267 H 968.762 4.49321 -2.70575 0
M  V30 10268 H 970.236 5.37836 -1.24245 0
M  V30 10269 H 970.713 4.38989 0.136016 0
M  V30 10270 H 971.319 3.98481 -1.48638 0
M  V30 10271 N 969.634 0.838594 1.33437 0
M  V30 10272 C 971.045 0.490934 1.8013 0
M  V30 10273 C 971.396 -0.990024 1.6939 0
M  V30 10274 O 970.521 -1.77139 1.24302 0
M  V30 10275 C 971.116 0.884347 3.27055 0
M  V30 10276 C 969.675 0.588829 3.71766 0
M  V30 10277 C 968.822 1.09282 2.54858 0
M  V30 10278 H 971.773 1.02732 1.20962 0
M  V30 10279 H 971.794 0.194283 3.80004 0
M  V30 10280 H 971.306 1.96225 3.34839 0
M  V30 10281 H 969.407 -0.479018 3.69508 0
M  V30 10282 H 969.52 1.14387 4.65245 0
M  V30 10283 H 967.884 0.513702 2.49466 0
M  V30 10284 H 968.667 2.1775 2.65405 0
M  V30 10285 N 971.112 -1.45937 0.595003 0
M  V30 10286 C 972.358 -2.0262 0.0854317 0
M  V30 10287 C 972.691 -1.46402 -1.27594 0
M  V30 10288 O 971.966 -0.633823 -1.83883 0
M  V30 10289 C 972.249 -3.60085 0.0329075 0
M  V30 10290 C 972.102 -4.26663 1.42405 0
M  V30 10291 C 973.421 -4.35101 -0.661426 0
M  V30 10292 H 970.54 -0.736282 0.0325196 0
M  V30 10293 H 973.182 -1.73938 0.764563 0
M  V30 10294 H 971.332 -3.84652 -0.545439 0
M  V30 10295 H 973.004 -4.13321 2.04851 0
M  V30 10296 H 971.247 -3.85549 1.98833 0
M  V30 10297 H 971.918 -5.35497 1.33965 0
M  V30 10298 H 974.394 -4.15753 -0.169977 0
M  V30 10299 H 973.27 -5.44829 -0.667243 0
M  V30 10300 H 973.531 -4.07053 -1.72513 0
M  V30 10301 N 972.59 -0.333456 -1.54032 0
M  V30 10302 C 973.815 0.270517 -2.05628 0
M  V30 10303 C 974.24 1.44231 -1.20744 0
M  V30 10304 O 973.598 1.79975 -0.218822 0
M  V30 10305 C 973.646 0.673251 -3.54259 0
M  V30 10306 O 972.75 1.77448 -3.72271 0
M  V30 10307 H 972.091 0.0469753 -0.662336 0
M  V30 10308 H 974.621 -0.484739 -1.98775 0
M  V30 10309 H 974.631 0.953194 -3.96709 0
M  V30 10310 H 973.306 -0.183747 -4.15494 0
M  V30 10311 H 971.883 1.49259 -3.41725 0
M  V30 10312 N 974.068 1.57479 -0.061844 0
M  V30 10313 C 975.293 1.97843 0.622311 0
M  V30 10314 C 975.718 0.939602 1.62951 0
M  V30 10315 O 975.076 -0.095958 1.81046 0
M  V30 10316 C 975.124 3.37262 1.2762 0
M  V30 10317 O 974.228 3.35943 2.39199 0
M  V30 10318 H 973.569 0.644212 0.160896 0
M  V30 10319 H 976.099 2.04165 -0.133409 0
M  V30 10320 H 976.109 3.74226 1.62539 0
M  V30 10321 H 974.784 4.12404 0.538112 0
M  V30 10322 H 973.361 3.10737 2.06148 0
M  V30 10323 N 975.546 -0.211634 1.56173 0
M  V30 10324 C 976.774 -0.951184 1.83739 0
M  V30 10325 C 977.189 -1.7754 0.642252 0
M  V30 10326 O 976.546 -1.78302 -0.389174 0
M  V30 10327 C 976.597 -1.86075 3.09933 0
M  V30 10328 O 976.318 -1.06983 4.24837 0
M  V30 10329 C 977.819 -2.71337 3.50559 0
M  V30 10330 H 975.039 -0.278312 0.61056 0
M  V30 10331 H 977.583 -0.223871 2.03271 0
M  V30 10332 H 975.738 -2.54189 2.92347 0
M  V30 10333 H 976.152 -1.68815 4.9659 0
M  V30 10334 H 977.626 -3.30843 4.41868 0
M  V30 10335 H 978.103 -3.44226 2.72773 0
M  V30 10336 H 978.709 -2.0862 3.70618 0
M  V30 10337 N 977.024 -1.50153 -0.478725 0
M  V30 10338 C 977.972 -1.68975 -1.59844 0
M  V30 10339 C 978.966 -0.555591 -1.6003 0
M  V30 10340 O 980.172 -0.735875 -1.64271 0
M  V30 10341 H 976.547 -0.533211 -0.530274 0
M  V30 10342 H 978.518 -2.62917 -1.41128 0
M  V30 10343 C 977.267 -1.79409 -2.97838 0
M  V30 10344 H 976.59 -2.66066 -2.98411 0
M  V30 10345 H 978.03 -1.96606 -3.75662 0
M  V30 10346 C 976.489 -0.543927 -3.3248 0
M  V30 10347 O 977.019 0.320376 -4.0042 0
M  V30 10348 N 975.225 -0.400217 -2.87831 0
M  V30 10349 H 974.772 -1.10458 -2.32716 0
M  V30 10350 H 974.73 0.435111 -3.11375 0
M  V30 10351 N 978.502 0.731368 -1.39602 0
M  V30 10352 C 979.412 1.87579 -1.40894 0
M  V30 10353 C 980.428 1.71336 -0.303319 0
M  V30 10354 O 981.604 1.93875 -0.545377 0
M  V30 10355 C 978.669 3.23211 -1.25442 0
M  V30 10356 C 977.73 3.51822 -2.46008 0
M  V30 10357 C 976.963 4.80982 -2.31284 0
M  V30 10358 O 977.186 5.54958 -1.31824 0
M  V30 10359 O 976.12 5.09574 -3.20341 0
M  V30 10360 H 979.946 1.89444 -2.3737 0
M  V30 10361 H 977.531 0.879675 -1.20756 0
M  V30 10362 H 979.413 4.04257 -1.18972 0
M  V30 10363 H 978.088 3.22108 -0.320637 0
M  V30 10364 H 976.995 2.70847 -2.58055 0
M  V30 10365 H 978.328 3.57707 -3.38093 0
M  V30 10366 N 979.98 1.24838 0.961938 0
M  V30 10367 C 980.927 1.04582 2.05745 0
M  V30 10368 C 981.897 -0.0427281 1.66045 0
M  V30 10369 O 983.082 0.113026 1.90465 0
M  V30 10370 C 980.222 0.66284 3.38675 0
M  V30 10371 C 979.335 1.82548 3.91536 0
M  V30 10372 C 978.47 1.38753 5.12758 0
M  V30 10373 C 977.509 2.51976 5.5783 0
M  V30 10374 N 976.646 2.09009 6.70268 0
M  V30 10375 H 981.486 1.98343 2.22405 0
M  V30 10376 H 979.023 0.987822 1.08998 0
M  V30 10377 H 980.981 0.421788 4.15062 0
M  V30 10378 H 979.611 -0.237776 3.21923 0
M  V30 10379 H 978.663 2.18004 3.11735 0
M  V30 10380 H 979.975 2.67601 4.20941 0
M  V30 10381 H 979.129 1.1057 5.96539 0
M  V30 10382 H 977.868 0.507618 4.85051 0
M  V30 10383 H 976.873 2.80912 4.72619 0
M  V30 10384 H 978.098 3.40534 5.87549 0
M  V30 10385 H 976.044 1.23423 6.44285 0
M  V30 10386 H 975.961 2.87613 6.99153 0
M  V30 10387 H 977.229 1.83981 7.57477 0
M  V30 10388 N 981.458 -1.16348 1.06306 0
M  V30 10389 C 982.735 -1.829 0.69331 0
M  V30 10390 C 983.115 -1.94298 -0.82531 0
M  V30 10391 O 982.463 -1.48619 -1.73565 0
M  V30 10392 C 982.673 -3.1989 1.3954 0
M  V30 10393 C 984.021 -3.95662 1.54068 0
M  V30 10394 O 985.045 -3.29408 1.35532 0
M  V30 10395 O 983.904 -5.14422 1.84479 0
M  V30 10396 H 980.998 -0.789738 0.245445 0
M  V30 10397 H 983.544 -1.23549 1.16334 0
M  V30 10398 H 982.316 -3.06629 2.43093 0
M  V30 10399 H 981.939 -3.86918 0.915453 0
M  V30 10400 N 982.937 -0.845659 -1.3299 0
M  V30 10401 C 983.87 -0.228695 -2.27051 0
M  V30 10402 C 984.848 0.62812 -1.49978 0
M  V30 10403 O 986.032 0.586897 -1.79131 0
M  V30 10404 C 983.159 0.678251 -3.31839 0
M  V30 10405 C 982.205 -0.103994 -4.26373 0
M  V30 10406 S 983.038 -1.46642 -5.1503 0
M  V30 10407 C 984.194 -0.564953 -6.23345 0
M  V30 10408 H 984.427 -1.02609 -2.79032 0
M  V30 10409 H 981.96 -0.642786 -1.40384 0
M  V30 10410 H 983.918 1.1959 -3.92694 0
M  V30 10411 H 982.579 1.44937 -2.78661 0
M  V30 10412 H 981.772 0.586406 -5.00577 0
M  V30 10413 H 981.374 -0.552927 -3.6989 0
M  V30 10414 H 983.666 0.234466 -6.77094 0
M  V30 10415 H 984.609 -1.27736 -6.96483 0
M  V30 10416 H 985.017 -0.143286 -5.64318 0
M  V30 10417 N 984.415 1.45619 -0.602734 0
M  V30 10418 C 985.645 2.06348 -0.102105 0
M  V30 10419 C 986.053 1.44884 1.21677 0
M  V30 10420 O 985.396 0.555559 1.75098 0
M  V30 10421 C 985.458 3.59309 0.117026 0
M  V30 10422 C 985.122 4.43081 -1.11931 0
M  V30 10423 C 986.119 4.78364 -2.03627 0
M  V30 10424 C 983.804 4.83908 -1.34677 0
M  V30 10425 C 985.798 5.53325 -3.16403 0
M  V30 10426 C 983.485 5.58624 -2.47754 0
M  V30 10427 C 984.483 5.93249 -3.38445 0
M  V30 10428 O 984.171 6.6645 -4.49555 0
M  V30 10429 H 983.903 0.672988 -0.0637478 0
M  V30 10430 H 986.457 1.87928 -0.828983 0
M  V30 10431 H 984.687 3.76111 0.898742 0
M  V30 10432 H 986.376 4.01897 0.568649 0
M  V30 10433 H 987.142 4.47384 -1.87277 0
M  V30 10434 H 983.021 4.56396 -0.649875 0
M  V30 10435 H 986.565 5.80268 -3.87214 0
M  V30 10436 H 982.462 5.89019 -2.64059 0
M  V30 10437 H 983.23 6.84895 -4.48175 0
M  V30 10438 N 985.893 0.34162 1.53853 0
M  V30 10439 C 987.118 -0.259608 2.05769 0
M  V30 10440 C 987.543 -1.43588 1.21507 0
M  V30 10441 O 986.901 -1.79856 0.228364 0
M  V30 10442 C 986.949 -0.654455 3.54611 0
M  V30 10443 O 986.053 -1.75472 3.73207 0
M  V30 10444 H 985.394 -0.0434621 0.662576 0
M  V30 10445 H 987.924 0.495274 1.98515 0
M  V30 10446 H 987.934 -0.932142 3.97209 0
M  V30 10447 H 986.609 0.205779 4.15391 0
M  V30 10448 H 985.186 -1.47444 3.42512 0
M  V30 10449 N 987.371 -1.57444 0.0701946 0
M  V30 10450 C 988.618 -1.93429 -0.59929 0
M  V30 10451 C 988.946 -0.9501 -1.69715 0
M  V30 10452 O 988.201 0.0345377 -1.9567 0
M  V30 10453 C 988.5 -3.36044 -1.21694 0
M  V30 10454 C 988.166 -4.50232 -0.245374 0
M  V30 10455 C 986.828 -4.81195 0.0219161 0
M  V30 10456 C 989.18 -5.1951 0.419396 0
M  V30 10457 C 986.508 -5.78775 0.96109 0
M  V30 10458 C 988.86 -6.18095 1.34688 0
M  V30 10459 C 987.524 -6.47477 1.62265 0
M  V30 10460 H 986.794 -0.707807 -0.219296 0
M  V30 10461 H 989.441 -1.90982 0.14073 0
M  V30 10462 H 987.746 -3.34948 -2.03265 0
M  V30 10463 H 989.443 -3.61176 -1.74221 0
M  V30 10464 H 986.033 -4.26082 -0.463887 0
M  V30 10465 H 990.217 -4.95785 0.226009 0
M  V30 10466 H 985.473 -5.99865 1.18202 0
M  V30 10467 H 989.647 -6.7088 1.86795 0
M  V30 10468 H 987.274 -7.229 2.352 0
M  V30 10469 N 988.849 0.203349 -1.56283 0
M  V30 10470 C 989.779 1.2549 -1.96912 0
M  V30 10471 C 990.76 1.47919 -0.839884 0
M  V30 10472 O 991.945 1.59795 -1.10359 0
M  V30 10473 C 989.075 2.6009 -2.30153 0
M  V30 10474 C 988.029 2.52289 -3.45738 0
M  V30 10475 C 987.355 3.91086 -3.64632 0
M  V30 10476 C 988.655 2.05503 -4.80173 0
M  V30 10477 H 990.349 0.917306 -2.85002 0
M  V30 10478 H 987.895 0.439818 -1.37119 0
M  V30 10479 H 989.848 3.33829 -2.5717 0
M  V30 10480 H 988.572 2.95574 -1.38937 0
M  V30 10481 H 987.231 1.81006 -3.18798 0
M  V30 10482 H 986.879 4.23908 -2.7076 0
M  V30 10483 H 986.579 3.86742 -4.42385 0
M  V30 10484 H 988.103 4.66459 -3.94016 0
M  V30 10485 H 989.517 2.68995 -5.06275 0
M  V30 10486 H 987.914 2.1218 -5.61337 0
M  V30 10487 H 988.984 1.00793 -4.74309 0
M  V30 10488 N 990.327 1.50405 0.470755 0
M  V30 10489 C 991.237 1.7208 1.59454 0
M  V30 10490 C 992.253 0.603932 1.63183 0
M  V30 10491 O 993.429 0.882296 1.81046 0
M  V30 10492 C 990.494 1.81057 2.95667 0
M  V30 10493 C 989.555 3.04792 3.02324 0
M  V30 10494 C 988.788 3.13332 4.3204 0
M  V30 10495 O 989.011 2.28655 5.22564 0
M  V30 10496 O 987.945 4.0606 4.44296 0
M  V30 10497 H 991.771 2.67343 1.44089 0
M  V30 10498 H 989.356 1.34505 0.650286 0
M  V30 10499 H 991.238 1.8914 3.76569 0
M  V30 10500 H 989.913 0.889782 3.11231 0
M  V30 10501 H 988.82 3.0221 2.205 0
M  V30 10502 H 990.153 3.96451 2.91698 0
M  V30 10503 N 991.805 -0.723954 1.39988 0
M  V30 10504 C 993.082 -1.4763 1.28316 0
M  V30 10505 C 993.462 -2.10852 -0.102302 0
M  V30 10506 O 992.81 -1.9948 -1.11445 0
M  V30 10507 C 993.02 -2.51878 2.41574 0
M  V30 10508 C 994.368 -3.17948 2.81415 0
M  V30 10509 O 995.392 -2.62195 2.41106 0
M  V30 10510 O 994.251 -4.18858 3.51027 0
M  V30 10511 H 991.345 -0.656092 0.50346 0
M  V30 10512 H 993.891 -0.75684 1.51888 0
M  V30 10513 H 992.663 -2.03618 3.34149 0
M  V30 10514 H 992.286 -3.3137 2.19727 0
M  V30 10515 N 993.283 -1.25346 -0.955304 0
M  V30 10516 C 994.216 -0.999933 -2.05126 0
M  V30 10517 C 995.194 0.070585 -1.62447 0
M  V30 10518 O 996.378 -0.0689306 -1.88374 0
M  V30 10519 C 993.505 -0.511425 -3.34817 0
M  V30 10520 C 992.551 -1.57237 -3.96458 0
M  V30 10521 S 993.384 -3.15736 -4.32517 0
M  V30 10522 C 994.54 -2.68619 -5.65327 0
M  V30 10523 H 994.773 -1.92791 -2.26316 0
M  V30 10524 H 992.306 -1.08869 -1.09485 0
M  V30 10525 H 994.264 -0.236219 -4.0982 0
M  V30 10526 H 992.925 0.39604 -3.11593 0
M  V30 10527 H 992.118 -1.18125 -4.89962 0
M  V30 10528 H 991.72 -1.79822 -3.27933 0
M  V30 10529 H 994.012 -2.12203 -6.4341 0
M  V30 10530 H 994.955 -3.6076 -6.09309 0
M  V30 10531 H 995.363 -2.08638 -5.24529 0
M  V30 10532 N 994.761 1.15782 -1.06922 0
M  V30 10533 C 996.009 1.86097 -0.788192 0
M  V30 10534 C 996.33 1.82475 0.687606 0
M  V30 10535 O 995.6 1.26266 1.49778 0
M  V30 10536 H 994.18 0.689008 -0.288577 0
M  V30 10537 H 996.842 1.40377 -1.35205 0
M  V30 10538 H 995.938 2.91358 -1.1188 0
M  V30 10539 N 996.239 0.8527 1.3254 0
M  V30 10540 C 997.169 0.311234 2.31416 0
M  V30 10541 C 998.15 -0.588557 1.59593 0
M  V30 10542 O 999.335 -0.509211 1.87405 0
M  V30 10543 C 996.465 -0.502892 3.4364 0
M  V30 10544 C 995.419 0.302296 4.26931 0
M  V30 10545 C 994.745 -0.636445 5.30899 0
M  V30 10546 C 996.045 1.52697 4.99481 0
M  V30 10547 H 997.739 1.13742 2.76953 0
M  V30 10548 H 995.285 0.548389 1.33149 0
M  V30 10549 H 997.238 -0.892092 4.11849 0
M  V30 10550 H 995.962 -1.36242 2.96826 0
M  V30 10551 H 994.621 0.673226 3.60365 0
M  V30 10552 H 994.269 -1.49277 4.80339 0
M  V30 10553 H 993.969 -0.101716 5.87512 0
M  V30 10554 H 995.493 -1.02286 6.01972 0
M  V30 10555 H 996.907 1.21017 5.60382 0
M  V30 10556 H 995.304 1.9995 5.65809 0
M  V30 10557 H 996.374 2.28929 4.27457 0
M  V30 10558 N 997.718 -1.45297 0.610449 0
M  V30 10559 C 998.665 -2.30553 -0.106718 0
M  V30 10560 C 999.635 -1.42272 -0.85719 0
M  V30 10561 O 1000.82 -1.71199 -0.842357 0
M  V30 10562 C 997.96 -3.27226 -1.09623 0
M  V30 10563 C 997.073 -4.3061 -0.346329 0
M  V30 10564 C 996.208 -5.14389 -1.32581 0
M  V30 10565 C 995.247 -6.09497 -0.563892 0
M  V30 10566 N 994.384 -6.86047 -1.4928 0
M  V30 10567 H 999.224 -2.91344 0.626296 0
M  V30 10568 H 996.761 -1.43563 0.32065 0
M  V30 10569 H 998.719 -3.81744 -1.68308 0
M  V30 10570 H 997.349 -2.68182 -1.79662 0
M  V30 10571 H 996.401 -3.7873 0.356084 0
M  V30 10572 H 997.713 -4.98183 0.248026 0
M  V30 10573 H 996.867 -5.73321 -1.98464 0
M  V30 10574 H 995.606 -4.4684 -1.9541 0
M  V30 10575 H 994.611 -5.49693 0.108551 0
M  V30 10576 H 995.836 -6.79074 0.0593872 0
M  V30 10577 H 993.782 -6.21185 -2.10868 0
M  V30 10578 H 993.699 -7.49983 -0.951953 0
M  V30 10579 H 994.967 -7.49518 -2.14112 0
M  V30 10580 N 999.196 -0.349774 -1.5367 0
M  V30 10581 C 1000.16 0.491676 -2.23864 0
M  V30 10582 C 1001.16 1.02256 -1.24098 0
M  V30 10583 O 1002.35 0.910816 -1.48492 0
M  V30 10584 C 999.481 1.68557 -2.96313 0
M  V30 10585 H 1000.67 -0.12233 -2.9965 0
M  V30 10586 H 998.227 -0.101214 -1.55972 0
M  V30 10587 H 998.962 2.3381 -2.2473 0
M  V30 10588 H 998.747 1.31203 -3.69497 0
M  V30 10589 H 1000.24 2.28225 -3.49718 0
M  V30 10590 N 1000.67 1.57404 -0.0785433 0
M  V30 10591 C 1001.92 1.93744 0.589024 0
M  V30 10592 C 1002.25 0.959087 1.69209 0
M  V30 10593 O 1001.5 -0.0241604 1.95685 0
M  V30 10594 C 1001.8 3.36684 1.1991 0
M  V30 10595 C 1001.47 4.50356 0.221493 0
M  V30 10596 C 1000.13 4.81177 -0.0474347 0
M  V30 10597 C 1002.48 5.1928 -0.446941 0
M  V30 10598 C 999.811 5.78257 -0.99177 0
M  V30 10599 C 1002.16 6.17372 -1.37964 0
M  V30 10600 C 1000.83 6.46607 -1.65697 0
M  V30 10601 H 1000.1 0.70896 0.215539 0
M  V30 10602 H 1002.74 1.90905 -0.150856 0
M  V30 10603 H 1001.05 3.36022 2.01486 0
M  V30 10604 H 1002.75 3.62095 1.72303 0
M  V30 10605 H 999.336 4.26322 0.441284 0
M  V30 10606 H 1003.52 4.95658 -0.252298 0
M  V30 10607 H 998.776 5.9923 -1.21381 0
M  V30 10608 H 1002.95 6.6988 -1.9035 0
M  V30 10609 H 1000.58 7.21643 -2.39031 0
M  V30 10610 N 1002.15 -0.195058 1.56388 0
M  V30 10611 C 1003.38 -0.931642 1.84738 0
M  V30 10612 C 1003.79 -1.76849 0.661046 0
M  V30 10613 O 1003.15 -1.78705 -0.370241 0
M  V30 10614 C 1003.2 -1.82777 3.11889 0
M  V30 10615 O 1002.92 -1.02471 4.25948 0
M  V30 10616 C 1004.42 -2.67603 3.53417 0
M  V30 10617 H 1001.64 -0.271821 0.613477 0
M  V30 10618 H 1004.19 -0.202299 2.03497 0
M  V30 10619 H 1002.34 -2.51074 2.95027 0
M  V30 10620 H 1002.76 -1.63539 4.98353 0
M  V30 10621 H 1004.23 -3.26138 4.45352 0
M  V30 10622 H 1004.71 -3.41314 2.76408 0
M  V30 10623 H 1005.31 -2.04678 3.7281 0
M  V30 10624 N 1003.63 -1.50653 -0.462772 0
M  V30 10625 C 1004.58 -1.70661 -1.58043 0
M  V30 10626 C 1005.57 -0.572533 -1.59432 0
M  V30 10627 O 1006.78 -0.753257 -1.63481 0
M  V30 10628 H 1003.15 -0.538805 -0.524588 0
M  V30 10629 H 1005.12 -2.64399 -1.38332 0
M  V30 10630 C 1003.87 -1.82558 -2.95919 0
M  V30 10631 H 1003.2 -2.69216 -2.95572 0
M  V30 10632 H 1004.64 -2.0058 -3.73556 0
M  V30 10633 C 1003.09 -0.57916 -3.31885 0
M  V30 10634 O 1003.62 0.277888 -4.00738 0
M  V30 10635 N 1001.83 -0.430723 -2.8739 0
M  V30 10636 H 1001.38 -1.1292 -2.31531 0
M  V30 10637 H 1001.34 0.402061 -3.11819 0
M  V30 10638 N 1005.11 0.71652 -1.4037 0
M  V30 10639 C 1006.33 1.51069 -1.42102 0
M  V30 10640 C 1006.76 1.88087 -0.0222387 0
M  V30 10641 O 1006.12 1.53204 0.969448 0
M  V30 10642 C 1006.16 2.76307 -2.31704 0
M  V30 10643 O 1005.27 3.72975 -1.75964 0
M  V30 10644 H 1004.61 0.455502 -0.483129 0
M  V30 10645 H 1007.14 0.882514 -1.84588 0
M  V30 10646 H 1007.15 3.24846 -2.46859 0
M  V30 10647 H 1005.82 2.48698 -3.3335 0
M  V30 10648 H 1004.4 3.31818 -1.70151 0
M  V30 10649 N 1006.59 1.25851 0.948643 0
M  V30 10650 C 1007.53 1.06759 2.04625 0
M  V30 10651 C 1008.5 -0.0251144 1.66081 0
M  V30 10652 O 1009.69 0.133221 1.90334 0
M  V30 10653 C 1006.83 0.698724 3.37952 0
M  V30 10654 C 1005.94 1.8669 3.89578 0
M  V30 10655 C 1005.08 1.44184 5.11258 0
M  V30 10656 C 1004.12 2.57878 5.55126 0
M  V30 10657 N 1003.25 2.16106 6.68014 0
M  V30 10658 H 1008.09 2.00691 2.20289 0
M  V30 10659 H 1005.63 0.999327 1.07944 0
M  V30 10660 H 1007.59 0.465788 4.14592 0
M  V30 10661 H 1006.22 -0.203618 3.22157 0
M  V30 10662 H 1005.27 2.21298 3.09405 0
M  V30 10663 H 1006.58 2.72051 4.18079 0
M  V30 10664 H 1005.74 1.16891 5.95333 0
M  V30 10665 H 1004.47 0.559035 4.84485 0
M  V30 10666 H 1003.48 2.85909 4.69612 0
M  V30 10667 H 1004.7 3.46747 5.83904 0
M  V30 10668 H 1002.65 1.3025 6.42939 0
M  V30 10669 H 1002.57 2.95012 6.96063 0
M  V30 10670 H 1003.84 1.92005 7.55483 0
M  V30 10671 N 1008.06 -1.15214 1.07534 0
M  V30 10672 C 1009.31 -1.85388 0.794617 0
M  V30 10673 C 1009.63 -1.83331 -0.681838 0
M  V30 10674 O 1010.83 -2.49207 -1.0774 0
M  V30 10675 C 1009.29 -3.32747 1.37141 0
M  V30 10676 C 1008.9 -3.43244 2.87902 0
M  V30 10677 C 1010.64 -4.08093 1.16879 0
M  V30 10678 C 1008.55 -4.84762 3.38763 0
M  V30 10679 H 1007.48 -0.694499 0.293577 0
M  V30 10680 H 1010.13 -1.29944 1.29564 0
M  V30 10681 H 1008.51 -3.87874 0.798121 0
M  V30 10682 H 1009.68 -2.98214 3.51291 0
M  V30 10683 H 1008 -2.81345 3.06975 0
M  V30 10684 H 1010.6 -5.12535 1.52353 0
M  V30 10685 H 1010.94 -4.1616 0.107958 0
M  V30 10686 H 1011.47 -3.59241 1.70854 0
M  V30 10687 H 1008.21 -4.81879 4.4438 0
M  V30 10688 H 1007.73 -5.30366 2.80128 0
M  V30 10689 H 1009.41 -5.53624 3.34827 0
M  V30 10690 N 1009.54 -0.859717 -1.32086 0
M  V30 10691 C 1010.96 -0.55025 -1.49815 0
M  V30 10692 C 1011.16 0.917966 -1.79376 0
M  V30 10693 O 1010.21 1.70073 -1.86632 0
M  V30 10694 C 1011.53 -1.44161 -2.6389 0
M  V30 10695 C 1013.08 -1.44257 -2.77775 0
M  V30 10696 C 1013.55 -2.31926 -3.94936 0
M  V30 10697 N 1015.04 -2.2975 -4.02206 0
M  V30 10698 C 1015.78 -2.9431 -4.92107 0
M  V30 10699 N 1015.27 -3.68001 -5.86981 0
M  V30 10700 N 1017.07 -2.83671 -4.8527 0
M  V30 10701 H 1009.22 -1.80987 -1.11164 0
M  V30 10702 H 1011.48 -0.773313 -0.548353 0
M  V30 10703 H 1011.19 -2.48588 -2.4879 0
M  V30 10704 H 1011.06 -1.13268 -3.59792 0
M  V30 10705 H 1013.45 -0.405923 -2.92295 0
M  V30 10706 H 1013.53 -1.79169 -1.82571 0
M  V30 10707 H 1013.17 -3.35661 -3.81174 0
M  V30 10708 H 1013.1 -1.94344 -4.89426 0
M  V30 10709 H 1015.59 -1.76177 -3.3432 0
M  V30 10710 H 1015.91 -4.14417 -6.52287 0
M  V30 10711 H 1014.25 -3.72109 -5.86992 0
M  V30 10712 H 1017.44 -2.25647 -4.10123 0
M  V30 10713 H 1017.61 -3.34267 -5.5513 0
M  V30 10714 N 1011.02 1.44971 -0.618145 0
M  V30 10715 C 1011.97 2.30606 0.09449 0
M  V30 10716 C 1012.94 1.42725 0.849633 0
M  V30 10717 O 1014.12 1.71643 0.833266 0
M  V30 10718 C 1011.26 3.27803 1.07886 0
M  V30 10719 C 1010.38 4.30787 0.323488 0
M  V30 10720 C 1009.51 5.15085 1.29851 0
M  V30 10721 C 1008.55 6.09788 0.531561 0
M  V30 10722 N 1007.69 6.86829 1.4564 0
M  V30 10723 H 1012.53 2.91008 -0.641738 0
M  V30 10724 H 1010.06 1.43391 -0.328259 0
M  V30 10725 H 1012.02 3.82631 1.66281 0
M  V30 10726 H 1010.65 2.69131 1.78237 0
M  V30 10727 H 1009.7 3.78536 -0.376164 0
M  V30 10728 H 1011.02 4.98044 -0.274443 0
M  V30 10729 H 1010.17 5.74365 1.95421 0
M  V30 10730 H 1008.91 4.4787 1.93037 0
M  V30 10731 H 1007.91 5.49628 -0.137702 0
M  V30 10732 H 1009.14 6.79033 -0.0953993 0
M  V30 10733 H 1007.08 6.22295 2.07571 0
M  V30 10734 H 1007 7.50477 0.912167 0
M  V30 10735 H 1008.27 7.50642 2.10134 0
M  V30 10736 N 1012.5 0.357919 1.53482 0
M  V30 10737 C 1013.91 -0.122938 1.86295 0
M  V30 10738 C 1014.26 -1.48803 1.27875 0
M  V30 10739 O 1013.39 -2.07978 0.597828 0
M  V30 10740 C 1013.98 -0.229853 3.38019 0
M  V30 10741 C 1012.54 -0.654955 3.70658 0
M  V30 10742 C 1011.69 0.202539 2.76559 0
M  V30 10743 H 1014.64 0.576997 1.47839 0
M  V30 10744 H 1014.66 -1.05481 3.65587 0
M  V30 10745 H 1014.17 0.763825 3.80509 0
M  V30 10746 H 1012.27 -1.65714 3.33721 0
M  V30 10747 H 1012.38 -0.43488 4.77122 0
M  V30 10748 H 1010.75 -0.327388 2.52587 0
M  V30 10749 H 1011.53 1.19361 3.21882 0
M  V30 10750 N 1013.98 -1.5736 0.0868897 0
M  V30 10751 C 1014.92 -2.13571 -0.874996 0
M  V30 10752 C 1015.89 -1.0521 -1.2853 0
M  V30 10753 O 1017.08 -1.32954 -1.3685 0
M  V30 10754 C 1014.22 -2.71386 -2.13175 0
M  V30 10755 C 1013.33 -3.93953 -1.77272 0
M  V30 10756 C 1012.47 -4.3996 -2.97671 0
M  V30 10757 C 1011.51 -5.55137 -2.57856 0
M  V30 10758 N 1010.64 -5.96034 -3.71064 0
M  V30 10759 H 1015.48 -2.95453 -0.388789 0
M  V30 10760 H 1013.02 -1.45992 -0.180242 0
M  V30 10761 H 1014.98 -3.03022 -2.86764 0
M  V30 10762 H 1013.61 -1.92245 -2.5931 0
M  V30 10763 H 1012.66 -3.68683 -0.936845 0
M  V30 10764 H 1013.97 -4.77565 -1.43989 0
M  V30 10765 H 1013.13 -4.73337 -3.79522 0
M  V30 10766 H 1011.86 -3.55232 -3.34158 0
M  V30 10767 H 1010.87 -5.21397 -1.7443 0
M  V30 10768 H 1012.09 -6.41608 -2.22522 0
M  V30 10769 H 1010.04 -5.14253 -4.07284 0
M  V30 10770 H 1009.96 -6.74423 -3.41599 0
M  V30 10771 H 1011.23 -6.34038 -4.53449 0
M  V30 10772 N 1015.45 0.186762 -1.56489 0
M  V30 10773 C 1016.39 1.25971 -1.9028 0
M  V30 10774 C 1017.37 1.43543 -0.763822 0
M  V30 10775 O 1018.55 1.58799 -1.01564 0
M  V30 10776 C 1015.68 2.62507 -2.14028 0
M  V30 10777 C 1014.72 2.61758 -3.36727 0
M  V30 10778 S 1015.56 2.12366 -4.9159 0
M  V30 10779 C 1016.71 3.5071 -5.18414 0
M  V30 10780 H 1016.94 0.971203 -2.80989 0
M  V30 10781 H 1014.48 0.390636 -1.49377 0
M  V30 10782 H 1016.44 3.41098 -2.28391 0
M  V30 10783 H 1015.1 2.88564 -1.24054 0
M  V30 10784 H 1014.29 3.62173 -3.50495 0
M  V30 10785 H 1013.89 1.91254 -3.214 0
M  V30 10786 H 1016.18 4.46622 -5.09445 0
M  V30 10787 H 1017.13 3.41829 -6.20128 0
M  V30 10788 H 1017.53 3.46008 -4.46026 0
M  V30 10789 N 1016.93 1.50896 0.454776 0
M  V30 10790 C 1018.17 1.64347 1.21529 0
M  V30 10791 C 1018.54 0.343869 1.88896 0
M  V30 10792 O 1019.74 0.353973 2.66459 0
M  V30 10793 C 1018.01 2.80199 2.21864 0
M  V30 10794 S 1019.57 3.13879 3.06636 0
M  V30 10795 H 1016.39 0.579193 0.412379 0
M  V30 10796 H 1018.99 1.88741 0.509629 0
M  V30 10797 H 1017.69 3.73086 1.70982 0
M  V30 10798 H 1017.22 2.57941 2.97036 0
M  V30 10799 H 1019.24 2.58964 4.23264 0
M  V30 10800 N 1018.41 -0.709066 1.40748 0
M  V30 10801 C 1019.82 -1.28847 1.35112 0
M  V30 10802 C 1020.17 -1.9618 0.0277149 0
M  V30 10803 O 1019.3 -1.97955 -0.874233 0
M  V30 10804 C 1019.89 -2.34306 2.44716 0
M  V30 10805 C 1018.45 -2.87856 2.4252 0
M  V30 10806 C 1017.6 -1.61723 2.25257 0
M  V30 10807 H 1020.55 -0.504742 1.50459 0
M  V30 10808 H 1020.57 -3.15297 2.12998 0
M  V30 10809 H 1020.08 -1.85271 3.41022 0
M  V30 10810 H 1018.18 -3.41103 1.49931 0
M  V30 10811 H 1018.3 -3.39205 3.38344 0
M  V30 10812 H 1016.66 -1.87032 1.7289 0
M  V30 10813 H 1017.44 -1.14703 3.23571 0
M  V30 10814 N 1019.89 -1.26353 -0.941956 0
M  V30 10815 C 1020.82 -1.03634 -2.04432 0
M  V30 10816 C 1021.83 0.00295864 -1.628 0
M  V30 10817 O 1023.02 -0.237029 -1.76919 0
M  V30 10818 C 1020.12 -0.547231 -3.34453 0
M  V30 10819 C 1019.3 -1.65559 -4.04857 0
M  V30 10820 C 1018.36 -1.16466 -5.13149 0
M  V30 10821 O 1017.38 -1.86158 -5.37898 0
M  V30 10822 N 1018.58 -0.0126703 -5.80499 0
M  V30 10823 H 1021.35 -1.98558 -2.24488 0
M  V30 10824 H 1018.91 -1.17728 -1.11138 0
M  V30 10825 H 1020.9 -0.203004 -4.04191 0
M  V30 10826 H 1019.47 0.308401 -3.11075 0
M  V30 10827 H 1018.69 -2.17079 -3.29044 0
M  V30 10828 H 1019.98 -2.39985 -4.48647 0
M  V30 10829 H 1019.38 0.569358 -5.62828 0
M  V30 10830 H 1017.93 0.272486 -6.5123 0
M  V30 10831 N 1021.37 1.14642 -1.08144 0
M  V30 10832 C 1022.3 2.21775 -0.730609 0
M  V30 10833 C 1023.28 1.67683 0.285702 0
M  V30 10834 O 1024.46 1.93567 0.156667 0
M  V30 10835 C 1021.59 3.47033 -0.136242 0
M  V30 10836 C 1020.55 4.14134 -1.0806 0
M  V30 10837 C 1019.87 5.33563 -0.348585 0
M  V30 10838 C 1021.17 4.62978 -2.41761 0
M  V30 10839 H 1022.87 2.51378 -1.62633 0
M  V30 10840 H 1020.41 1.20825 -0.783411 0
M  V30 10841 H 1022.37 4.21226 0.121182 0
M  V30 10842 H 1021.09 3.16786 0.7946 0
M  V30 10843 H 1019.75 3.41892 -1.32308 0
M  V30 10844 H 1019.4 4.99575 0.585974 0
M  V30 10845 H 1019.1 5.79402 -0.978122 0
M  V30 10846 H 1020.62 6.10519 -0.0991508 0
M  V30 10847 H 1022.04 5.28659 -2.21795 0
M  V30 10848 H 1020.43 5.1951 -3.00383 0
M  V30 10849 H 1021.5 3.78189 -3.03482 0
M  V30 10850 N 1022.85 0.866709 1.31628 0
M  V30 10851 C 1023.78 0.277328 2.27516 0
M  V30 10852 C 1024.79 -0.557786 1.52946 0
M  V30 10853 O 1025.98 -0.38031 1.74402 0
M  V30 10854 C 1023.08 -0.625742 3.33073 0
M  V30 10855 C 1022.25 0.176204 4.37045 0
M  V30 10856 C 1021.31 -0.654497 5.22114 0
M  V30 10857 O 1020.34 -0.0836961 5.69138 0
M  V30 10858 N 1021.54 -1.96708 5.46156 0
M  V30 10859 H 1024.3 1.10133 2.78731 0
M  V30 10860 H 1021.87 0.72787 1.44616 0
M  V30 10861 H 1023.86 -1.18709 3.86898 0
M  V30 10862 H 1022.43 -1.35042 2.81926 0
M  V30 10863 H 1021.65 0.918999 3.83338 0
M  V30 10864 H 1022.94 0.726594 5.03585 0
M  V30 10865 H 1022.33 -2.454 5.09701 0
M  V30 10866 H 1020.89 -2.47629 6.02929 0
M  V30 10867 N 1024.32 -1.44642 0.625825 0
M  V30 10868 C 1025.26 -2.28882 -0.120614 0
M  V30 10869 C 1026.27 -1.40985 -0.81407 0
M  V30 10870 O 1027.46 -1.65188 -0.676404 0
M  V30 10871 C 1024.56 -3.17217 -1.19274 0
M  V30 10872 C 1023.73 -4.33499 -0.582839 0
M  V30 10873 C 1022.79 -5.02908 -1.54823 0
M  V30 10874 O 1021.82 -5.59102 -1.06743 0
M  V30 10875 N 1023.02 -5.0387 -2.88262 0
M  V30 10876 H 1025.78 -2.93585 0.602318 0
M  V30 10877 H 1023.34 -1.5503 0.466604 0
M  V30 10878 H 1025.34 -3.60515 -1.83878 0
M  V30 10879 H 1023.91 -2.54301 -1.81797 0
M  V30 10880 H 1023.13 -3.93458 0.241696 0
M  V30 10881 H 1024.41 -5.08561 -0.155914 0
M  V30 10882 H 1023.81 -4.59539 -3.2991 0
M  V30 10883 H 1022.37 -5.50974 -3.4824 0
M  V30 10884 N 1025.8 -0.366053 -1.5329 0
M  V30 10885 C 1027.03 0.22391 -2.05383 0
M  V30 10886 C 1027.44 1.42962 -1.23929 0
M  V30 10887 O 1026.78 1.81659 -0.273072 0
M  V30 10888 C 1026.84 0.681038 -3.5299 0
M  V30 10889 C 1026.51 -0.40805 -4.55175 0
M  V30 10890 C 1027.51 -1.25806 -5.04449 0
M  V30 10891 C 1025.19 -0.568428 -4.99073 0
M  V30 10892 C 1027.18 -2.25379 -5.96224 0
M  V30 10893 C 1024.87 -1.56752 -5.90654 0
M  V30 10894 C 1025.87 -2.40864 -6.39119 0
M  V30 10895 O 1025.56 -3.39069 -7.28895 0
M  V30 10896 H 1025.29 0.0429593 -0.674634 0
M  V30 10897 H 1027.84 -0.522897 -1.98633 0
M  V30 10898 H 1026.07 1.47945 -3.5728 0
M  V30 10899 H 1027.76 1.19406 -3.8794 0
M  V30 10900 H 1028.53 -1.14536 -4.71282 0
M  V30 10901 H 1024.41 0.0764858 -4.60937 0
M  V30 10902 H 1027.95 -2.91068 -6.33976 0
M  V30 10903 H 1023.85 -1.6807 -6.23236 0
M  V30 10904 H 1024.62 -3.34804 -7.46893 0
M  V30 10905 N 1027.28 1.57312 -0.0952337 0
M  V30 10906 C 1028.19 2.17556 0.877877 0
M  V30 10907 C 1029.21 1.14505 1.31014 0
M  V30 10908 O 1030.38 1.46876 1.37802 0
M  V30 10909 C 1027.45 2.74413 2.11892 0
M  V30 10910 C 1026.51 3.92419 1.74085 0
M  V30 10911 C 1025.74 4.46556 2.92273 0
M  V30 10912 O 1025.96 3.99631 4.07002 0
M  V30 10913 O 1024.9 5.37576 2.70732 0
M  V30 10914 H 1028.72 3.01116 0.395312 0
M  V30 10915 H 1026.31 1.48841 0.129123 0
M  V30 10916 H 1028.19 3.10754 2.84622 0
M  V30 10917 H 1026.87 1.93899 2.59201 0
M  V30 10918 H 1025.77 3.6089 0.985346 0
M  V30 10919 H 1027.11 4.74298 1.31539 0
M  V30 10920 N 1028.76 -0.17846 1.56586 0
M  V30 10921 C 1029.69 -1.2496 1.90946 0
M  V30 10922 C 1030.67 -1.43136 0.771424 0
M  V30 10923 O 1031.85 -1.58258 1.02405 0
M  V30 10924 C 1028.98 -2.61368 2.15417 0
M  V30 10925 C 1028.03 -2.59969 3.3811 0
M  V30 10926 S 1028.86 -2.09756 4.9271 0
M  V30 10927 C 1030.01 -3.47956 5.20267 0
M  V30 10928 H 1030.25 -0.956287 2.815 0
M  V30 10929 H 1027.78 -0.382709 1.49582 0
M  V30 10930 H 1029.74 -3.39882 2.30197 0
M  V30 10931 H 1028.4 -2.87903 1.25582 0
M  V30 10932 H 1027.59 -3.60309 3.52411 0
M  V30 10933 H 1027.19 -1.89547 3.2241 0
M  V30 10934 H 1029.49 -4.43914 5.11807 0
M  V30 10935 H 1030.43 -3.38536 6.21932 0
M  V30 10936 H 1030.84 -3.43637 4.47855 0
M  V30 10937 N 1030.24 -1.51135 -0.446768 0
M  V30 10938 C 1031.19 -1.68152 -1.53977 0
M  V30 10939 C 1032.17 -0.53563 -1.51723 0
M  V30 10940 O 1033.36 -0.791134 -1.58335 0
M  V30 10941 C 1030.49 -1.80133 -2.92245 0
M  V30 10942 C 1029.58 -3.00476 -2.99291 0
M  V30 10943 N 1029.97 -4.23796 -2.76099 0
M  V30 10944 C 1028.27 -2.99536 -3.30445 0
M  V30 10945 C 1028.97 -5.04977 -2.88744 0
M  V30 10946 N 1027.94 -4.39428 -3.20006 0
M  V30 10947 H 1031.74 -2.61172 -1.34784 0
M  V30 10948 H 1029.26 -1.48653 -0.653923 0
M  V30 10949 H 1031.26 -1.90432 -3.70866 0
M  V30 10950 H 1029.92 -0.882879 -3.12467 0
M  V30 10951 H 1030.93 -4.52896 -2.51209 0
M  V30 10952 H 1027.6 -2.17286 -3.56501 0
M  V30 10953 H 1028.99 -6.13114 -2.74847 0
M  V30 10954 N 1031.71 0.701592 -1.41122 0
M  V30 10955 C 1032.96 1.45871 -1.39879 0
M  V30 10956 C 1033.28 1.94999 -0.00668769 0
M  V30 10957 O 1032.55 1.71298 0.95047 0
M  V30 10958 H 1031.13 0.541231 -0.514857 0
M  V30 10959 H 1033.79 0.830803 -1.76306 0
M  V30 10960 H 1032.89 2.32479 -2.0823 0
M  V30 10961 N 1033.19 1.2685 0.935242 0
M  V30 10962 C 1034.6 1.11569 1.49697 0
M  V30 10963 C 1034.95 -0.301952 1.93863 0
M  V30 10964 O 1034.08 -1.19408 1.80473 0
M  V30 10965 C 1034.67 2.01918 2.72056 0
M  V30 10966 C 1033.23 1.90765 3.24477 0
M  V30 10967 C 1032.38 1.94918 1.97237 0
M  V30 10968 H 1035.33 1.39853 0.750116 0
M  V30 10969 H 1035.35 1.57056 3.46574 0
M  V30 10970 H 1034.86 3.05088 2.39881 0
M  V30 10971 H 1032.96 0.905521 3.61429 0
M  V30 10972 H 1033.08 2.76611 3.91182 0
M  V30 10973 H 1031.44 1.39046 2.13397 0
M  V30 10974 H 1032.22 2.99729 1.67385 0
M  V30 10975 N 1034.67 -1.14067 1.0875 0
M  V30 10976 C 1035.58 -2.22871 0.732498 0
M  V30 10977 C 1036.6 -1.72008 -0.26253 0
M  V30 10978 O 1037.77 -2.01123 -0.105601 0
M  V30 10979 C 1034.84 -3.46371 0.150913 0
M  V30 10980 C 1033.9 -4.12158 1.201 0
M  V30 10981 C 1033.13 -5.29763 0.647075 0
M  V30 10982 O 1033.35 -5.67911 -0.532307 0
M  V30 10983 O 1032.29 -5.8542 1.3988 0
M  V30 10984 H 1036.11 -2.55596 1.64025 0
M  V30 10985 H 1033.7 -1.22065 0.861417 0
M  V30 10986 H 1035.58 -4.21055 -0.170442 0
M  V30 10987 H 1034.26 -3.15362 -0.729948 0
M  V30 10988 H 1033.16 -3.39332 1.57494 0
M  V30 10989 H 1034.5 -4.47282 2.05426 0
M  V30 10990 N 1036.15 -0.873678 -1.31166 0
M  V30 10991 C 1037.4 -0.485497 -1.96182 0
M  V30 10992 C 1037.72 0.96621 -1.69379 0
M  V30 10993 O 1036.99 1.67783 -1.01121 0
M  V30 10994 H 1035.57 -0.176547 -0.725838 0
M  V30 10995 H 1038.23 -1.11428 -1.59906 0
M  V30 10996 H 1037.33 -0.646325 -3.05334 0
M  V30 10997 N 1037.63 1.44308 -0.633487 0
M  V30 10998 C 1038.56 2.33431 0.0568402 0
M  V30 10999 C 1039.54 1.48342 0.832386 0
M  V30 11000 O 1040.72 1.77056 0.797798 0
M  V30 11001 C 1037.85 3.31443 1.03743 0
M  V30 11002 C 1036.81 4.26368 0.373362 0
M  V30 11003 C 1036.13 5.14267 1.46403 0
M  V30 11004 C 1037.43 5.17287 -0.721876 0
M  V30 11005 H 1039.13 2.91402 -0.687388 0
M  V30 11006 H 1036.67 1.4012 -0.332009 0
M  V30 11007 H 1038.63 3.92677 1.52913 0
M  V30 11008 H 1037.35 2.71686 1.81258 0
M  V30 11009 H 1036.01 3.6647 -0.0977053 0
M  V30 11010 H 1035.66 4.50861 2.23011 0
M  V30 11011 H 1035.36 5.7859 1.02506 0
M  V30 11012 H 1036.88 5.78373 1.95748 0
M  V30 11013 H 1038.29 5.72444 -0.313181 0
M  V30 11014 H 1036.69 5.90226 -1.08413 0
M  V30 11015 H 1037.76 4.58159 -1.58804 0
M  V30 11016 N 1039.1 0.374177 1.53094 0
M  V30 11017 C 1040.52 0.0234783 1.59583 0
M  V30 11018 C 1040.72 -1.45984 1.38892 0
M  V30 11019 O 1039.78 -2.22251 1.19836 0
M  V30 11020 C 1041.09 0.487117 2.96728 0
M  V30 11021 C 1042.64 0.442073 3.09862 0
M  V30 11022 C 1043.11 0.881659 4.49434 0
M  V30 11023 N 1044.6 0.837062 4.55574 0
M  V30 11024 C 1045.34 1.14878 5.61774 0
M  V30 11025 N 1044.83 1.53022 6.75689 0
M  V30 11026 N 1046.63 1.07102 5.51802 0
M  V30 11027 H 1038.78 1.34003 1.64794 0
M  V30 11028 H 1041.04 0.548281 0.773364 0
M  V30 11029 H 1040.75 1.52252 3.17037 0
M  V30 11030 H 1040.62 -0.121772 3.77003 0
M  V30 11031 H 1043.01 -0.584216 2.89259 0
M  V30 11032 H 1043.09 1.08657 2.31576 0
M  V30 11033 H 1042.73 1.90611 4.70776 0
M  V30 11034 H 1042.66 0.214326 5.26164 0
M  V30 11035 H 1045.15 0.556173 3.73785 0
M  V30 11036 H 1045.47 1.75211 7.52676 0
M  V30 11037 H 1043.81 1.56895 6.77059 0
M  V30 11038 H 1047 0.772149 4.61688 0
M  V30 11039 H 1047.18 1.31728 6.3447 0
M  V30 11040 N 1040.58 -1.57259 0.103575 0
M  V30 11041 C 1041.83 -1.94945 -0.558953 0
M  V30 11042 C 1042.16 -0.986038 -1.67305 0
M  V30 11043 O 1041.44 -0.0205464 -1.94489 0
M  V30 11044 C 1041.72 -3.42689 -1.10617 0
M  V30 11045 C 1041.57 -4.498 0.00345246 0
M  V30 11046 C 1042.89 -3.91933 -2.00191 0
M  V30 11047 H 1040.01 -0.708859 -0.201713 0
M  V30 11048 H 1042.65 -1.89183 0.176006 0
M  V30 11049 H 1040.8 -3.4773 -1.73251 0
M  V30 11050 H 1042.47 -4.56866 0.638082 0
M  V30 11051 H 1040.72 -4.28615 0.668705 0
M  V30 11052 H 1041.39 -5.50397 -0.420396 0
M  V30 11053 H 1043.86 -3.89098 -1.4745 0
M  V30 11054 H 1042.74 -4.9586 -2.35402 0
M  V30 11055 H 1043 -3.31722 -2.92255 0
M  V30 11056 N 1042.06 0.170153 -1.56679 0
M  V30 11057 C 1043.31 0.884841 -1.817 0
M  V30 11058 C 1043.63 1.82731 -0.680763 0
M  V30 11059 O 1042.9 1.936 0.299294 0
M  V30 11060 H 1041.48 0.329738 -0.670285 0
M  V30 11061 H 1044.14 0.169691 -1.9416 0
M  V30 11062 H 1043.24 1.46104 -2.7579 0
M  V30 11063 N 1043.54 1.5137 0.438746 0
M  V30 11064 C 1044.79 1.63969 1.1883 0
M  V30 11065 C 1045.11 0.355245 1.91228 0
M  V30 11066 O 1044.37 -0.660605 1.84213 0
M  V30 11067 C 1044.67 2.79221 2.23093 0
M  V30 11068 C 1044.33 4.18547 1.67717 0
M  V30 11069 C 1043 4.5645 1.52337 0
M  V30 11070 C 1045.35 5.05494 1.26986 0
M  V30 11071 C 1042.68 5.79007 0.946996 0
M  V30 11072 C 1045.03 6.28628 0.707785 0
M  V30 11073 C 1043.69 6.65305 0.540881 0
M  V30 11074 H 1042.96 0.600003 0.43483 0
M  V30 11075 H 1045.61 1.85398 0.479565 0
M  V30 11076 H 1043.91 2.52008 2.99999 0
M  V30 11077 H 1045.61 2.86168 2.80907 0
M  V30 11078 H 1042.2 3.88663 1.80663 0
M  V30 11079 H 1046.38 4.76818 1.37689 0
M  V30 11080 H 1041.64 6.06072 0.805432 0
M  V30 11081 H 1045.81 6.95342 0.38366 0
M  V30 11082 H 1043.44 7.60144 0.0921324 0
M  V30 11083 N 1045.02 -0.694098 1.41492 0
M  V30 11084 C 1046.25 -1.48071 1.44078 0
M  V30 11085 C 1046.65 -1.89147 0.0448984 0
M  V30 11086 O 1046 -1.57441 -0.946464 0
M  V30 11087 C 1046.06 -2.77324 2.28761 0
M  V30 11088 C 1045.72 -2.58443 3.76904 0
M  V30 11089 C 1046.72 -2.24294 4.69029 0
M  V30 11090 C 1044.41 -2.74037 4.20962 0
M  V30 11091 C 1046.4 -2.0598 6.03201 0
M  V30 11092 C 1044.09 -2.5534 5.55198 0
M  V30 11093 C 1045.08 -2.21362 6.46133 0
M  V30 11094 O 1044.77 -2.02829 7.77892 0
M  V30 11095 H 1044.5 -0.462794 0.492745 0
M  V30 11096 H 1047.06 -0.861968 1.86438 0
M  V30 11097 H 1045.29 -3.4161 1.81217 0
M  V30 11098 H 1046.98 -3.39134 2.23031 0
M  V30 11099 H 1047.74 -2.11859 4.36281 0
M  V30 11100 H 1043.62 -2.99467 3.50486 0
M  V30 11101 H 1047.17 -1.79382 6.74142 0
M  V30 11102 H 1043.06 -2.67366 5.87525 0
M  V30 11103 H 1043.83 -2.17581 7.89051 0
M  V30 11104 N 1046.49 -1.27344 -0.928501 0
M  V30 11105 C 1047.4 -1.11812 -2.06241 0
M  V30 11106 C 1048.42 -0.048347 -1.73933 0
M  V30 11107 O 1049.6 -0.25467 -1.99783 0
M  V30 11108 C 1046.66 -0.766036 -3.38131 0
M  V30 11109 C 1045.72 -1.91659 -3.84142 0
M  V30 11110 C 1044.96 -1.58121 -5.09738 0
M  V30 11111 O 1045.18 -0.488742 -5.68302 0
M  V30 11112 O 1044.11 -2.42013 -5.51102 0
M  V30 11113 H 1047.94 -2.06967 -2.22258 0
M  V30 11114 H 1045.52 -1.06524 -1.04752 0
M  V30 11115 H 1047.41 -0.582982 -4.17348 0
M  V30 11116 H 1046.08 0.155998 -3.23324 0
M  V30 11117 H 1044.99 -2.1547 -3.05816 0
M  V30 11118 H 1046.32 -2.8188 -4.0349 0
M  V30 11119 N 1047.97 1.13488 -1.09353 0
M  V30 11120 C 1049.2 1.89133 -0.85108 0
M  V30 11121 C 1049.62 1.78542 0.591976 0
M  V30 11122 O 1048.98 1.13243 1.41583 0
M  V30 11123 C 1049.03 3.36736 -1.29001 0
M  V30 11124 O 1048.13 4.09959 -0.447993 0
M  V30 11125 H 1047.47 0.58809 -0.308296 0
M  V30 11126 H 1050 1.43593 -1.45747 0
M  V30 11127 H 1050.01 3.87564 -1.27508 0
M  V30 11128 H 1048.69 3.43762 -2.34095 0
M  V30 11129 H 1047.27 3.69155 -0.52717 0
M  V30 11130 N 1049.45 0.880621 1.30701 0
M  V30 11131 C 1050.73 0.41712 1.91101 0
M  V30 11132 C 1051.11 -1.10177 1.80067 0
M  V30 11133 O 1050.46 -1.93513 1.21511 0
M  V30 11134 C 1050.67 0.910364 3.36917 0
M  V30 11135 C 1052.01 0.942764 4.14001 0
M  V30 11136 O 1053.04 0.856733 3.45743 0
M  V30 11137 O 1051.9 1.06913 5.3594 0
M  V30 11138 H 1048.99 0.126775 0.817225 0
M  V30 11139 H 1051.54 0.969236 1.39298 0
M  V30 11140 H 1050.31 1.95414 3.39012 0
M  V30 11141 H 1049.93 0.337164 3.96168 0
M  V30 11142 N 1050.93 -1.4397 0.641131 0
M  V30 11143 C 1052.18 -2.02246 0.14985 0
M  V30 11144 C 1052.51 -1.50387 -1.22871 0
M  V30 11145 O 1051.78 -0.692003 -1.81773 0
M  V30 11146 C 1052.07 -3.59798 0.147449 0
M  V30 11147 C 1051.92 -4.21916 1.55907 0
M  V30 11148 C 1053.24 -4.36985 -0.522667 0
M  V30 11149 H 1050.36 -0.734875 0.0559274 0
M  V30 11150 H 1053 -1.71418 0.819513 0
M  V30 11151 H 1051.15 -3.86193 -0.422789 0
M  V30 11152 H 1052.82 -4.06594 2.17896 0
M  V30 11153 H 1051.06 -3.79028 2.10998 0
M  V30 11154 H 1051.74 -5.30964 1.50934 0
M  V30 11155 H 1054.21 -4.16083 -0.0376226 0
M  V30 11156 H 1053.09 -5.46676 -0.493572 0
M  V30 11157 H 1053.35 -4.12335 -1.59475 0
M  V30 11158 N 1052.41 -0.382291 -1.52893 0
M  V30 11159 C 1053.34 0.500194 -2.22651 0
M  V30 11160 C 1054.32 1.06969 -1.22459 0
M  V30 11161 O 1055.5 1.12267 -1.51422 0
M  V30 11162 C 1052.63 1.6917 -2.93427 0
M  V30 11163 C 1051.68 1.24811 -4.07829 0
M  V30 11164 S 1052.51 0.235466 -5.34982 0
M  V30 11165 C 1053.66 1.43292 -6.09277 0
M  V30 11166 H 1053.9 -0.0921913 -2.97157 0
M  V30 11167 H 1051.43 -0.16645 -1.535 0
M  V30 11168 H 1053.39 2.37507 -3.34815 0
M  V30 11169 H 1052.05 2.25537 -2.18613 0
M  V30 11170 H 1051.24 2.13754 -4.56426 0
M  V30 11171 H 1050.84 0.643744 -3.68418 0
M  V30 11172 H 1053.14 2.36118 -6.35023 0
M  V30 11173 H 1054.08 0.988003 -7.01173 0
M  V30 11174 H 1054.49 1.64655 -5.39953 0
M  V30 11175 N 1053.89 1.57202 -0.111913 0
M  V30 11176 C 1055.13 1.94565 0.546713 0
M  V30 11177 C 1055.45 0.995644 1.67666 0
M  V30 11178 O 1054.72 0.0506681 1.95834 0
M  V30 11179 H 1053.3 0.718334 0.204951 0
M  V30 11180 H 1055.97 1.94074 -0.179193 0
M  V30 11181 H 1055.06 2.9742 0.945931 0
M  V30 11182 N 1055.36 -0.161842 1.56767 0
M  V30 11183 C 1056.78 -0.51396 1.51098 0
M  V30 11184 C 1056.98 -1.84158 0.817815 0
M  V30 11185 O 1056.04 -2.49592 0.382133 0
M  V30 11186 C 1057.35 -0.537966 2.95849 0
M  V30 11187 C 1058.9 -0.624512 3.06706 0
M  V30 11188 C 1059.37 -0.679322 4.52934 0
M  V30 11189 N 1060.86 -0.741953 4.57219 0
M  V30 11190 C 1061.6 -0.805096 5.6772 0
M  V30 11191 N 1061.09 -0.828492 6.87828 0
M  V30 11192 N 1062.89 -0.844843 5.55715 0
M  V30 11193 H 1055.04 0.708581 2.00232 0
M  V30 11194 H 1057.3 0.25663 0.912603 0
M  V30 11195 H 1057.01 0.369052 3.49758 0
M  V30 11196 H 1056.88 -1.38113 3.51005 0
M  V30 11197 H 1059.27 -1.52195 2.52825 0
M  V30 11198 H 1059.35 0.245515 2.54619 0
M  V30 11199 H 1058.99 0.213901 5.07449 0
M  V30 11200 H 1058.92 -1.56563 5.02788 0
M  V30 11201 H 1061.41 -0.731772 3.70747 0
M  V30 11202 H 1061.73 -0.878109 7.67795 0
M  V30 11203 H 1060.07 -0.796612 6.9042 0
M  V30 11204 H 1063.26 -0.823632 4.60797 0
M  V30 11205 H 1063.44 -0.890588 6.41851 0
M  V30 11206 N 1056.84 -1.516 -0.430713 0
M  V30 11207 C 1058.09 -1.64271 -1.17726 0
M  V30 11208 C 1058.41 -0.364406 -1.91565 0
M  V30 11209 O 1057.68 0.619991 -1.8583 0
M  V30 11210 H 1056.26 -0.605432 -0.437562 0
M  V30 11211 H 1058.92 -1.88557 -0.493166 0
M  V30 11212 H 1058.02 -2.47355 -1.90321 0
M  V30 11213 N 1058.32 0.686584 -1.41858 0
M  V30 11214 C 1059.27 1.79271 -1.40875 0
M  V30 11215 C 1060.25 1.58413 -0.281782 0
M  V30 11216 O 1061.45 1.69093 -0.523132 0
M  V30 11217 C 1058.57 3.17647 -1.30213 0
M  V30 11218 C 1057.66 3.44168 -2.47808 0
M  V30 11219 N 1058.05 3.41339 -3.73258 0
M  V30 11220 C 1056.35 3.74755 -2.41815 0
M  V30 11221 C 1057.05 3.67016 -4.51303 0
M  V30 11222 N 1056.03 3.87203 -3.81543 0
M  V30 11223 H 1059.83 1.75459 -2.35778 0
M  V30 11224 H 1057.34 0.886946 -1.36041 0
M  V30 11225 H 1059.34 3.96896 -1.2759 0
M  V30 11226 H 1058 3.22664 -0.363021 0
M  V30 11227 H 1059.01 3.21511 -4.06018 0
M  V30 11228 H 1055.69 3.87089 -1.56423 0
M  V30 11229 H 1057.08 3.70888 -5.6026 0
M  V30 11230 N 1059.8 1.27835 0.921735 0
M  V30 11231 C 1060.76 1.11108 2.00469 0
M  V30 11232 C 1061.76 0.053203 1.60712 0
M  V30 11233 O 1062.95 0.298308 1.71627 0
M  V30 11234 C 1060.08 0.694269 3.33755 0
M  V30 11235 H 1061.28 2.07279 2.16738 0
M  V30 11236 H 1058.83 1.10708 1.10333 0
M  V30 11237 H 1059.56 -0.268561 3.23186 0
M  V30 11238 H 1059.35 1.45836 3.6397 0
M  V30 11239 H 1060.84 0.59965 4.13272 0
M  V30 11240 N 1061.28 -1.12907 1.09954 0
M  V30 11241 C 1062.69 -1.363 0.830326 0
M  V30 11242 C 1062.89 -1.93772 -0.552694 0
M  V30 11243 O 1061.95 -2.1607 -1.30652 0
M  V30 11244 C 1063.26 -2.30925 1.92598 0
M  V30 11245 C 1064.81 -2.44528 1.95385 0
M  V30 11246 C 1065.28 -3.42464 3.0411 0
M  V30 11247 N 1066.77 -3.50018 3.03384 0
M  V30 11248 C 1067.51 -4.25693 3.84152 0
M  V30 11249 N 1067.01 -5.04476 4.74843 0
M  V30 11250 N 1068.8 -4.21049 3.7239 0
M  V30 11251 H 1060.95 -0.739571 1.99108 0
M  V30 11252 H 1063.21 -0.387983 0.86497 0
M  V30 11253 H 1062.92 -1.95861 2.92115 0
M  V30 11254 H 1062.79 -3.30997 1.80889 0
M  V30 11255 H 1065.18 -2.78875 0.965037 0
M  V30 11256 H 1065.26 -1.44361 2.11172 0
M  V30 11257 H 1064.9 -3.08847 4.03207 0
M  V30 11258 H 1064.83 -4.42448 2.85565 0
M  V30 11259 H 1067.33 -2.93809 2.37665 0
M  V30 11260 H 1067.64 -5.59541 5.33042 0
M  V30 11261 H 1065.98 -5.0369 4.78875 0
M  V30 11262 H 1069.17 -3.5858 3.00895 0
M  V30 11263 H 1069.35 -4.79771 4.35572 0
M  V30 11264 N 1062.75 -0.88754 -1.30232 0
M  V30 11265 C 1063.68 -0.372481 -2.3051 0
M  V30 11266 C 1064.66 0.546037 -1.61098 0
M  V30 11267 O 1065.85 0.459345 -1.88689 0
M  V30 11268 C 1062.98 0.411605 -3.44852 0
M  V30 11269 C 1061.93 -0.415383 -4.2598 0
M  V30 11270 C 1061.26 0.495463 -5.324 0
M  V30 11271 C 1062.56 -1.65886 -4.95257 0
M  V30 11272 H 1064.25 -1.21045 -2.7384 0
M  V30 11273 H 1061.8 -0.583498 -1.31648 0
M  V30 11274 H 1063.75 0.782584 -4.1407 0
M  V30 11275 H 1062.48 1.28325 -3.00334 0
M  V30 11276 H 1061.14 -0.768534 -3.58454 0
M  V30 11277 H 1060.78 1.36489 -4.84128 0
M  V30 11278 H 1060.48 -0.0540885 -5.87575 0
M  V30 11279 H 1062.01 0.862901 -6.04472 0
M  V30 11280 H 1063.42 -1.35832 -5.56976 0
M  V30 11281 H 1061.82 -2.14881 -5.60309 0
M  V30 11282 H 1062.89 -2.40181 -4.21237 0
M  V30 11283 N 1064.23 1.43628 -0.648757 0
M  V30 11284 C 1065.48 2.02163 -0.160574 0
M  V30 11285 C 1065.81 1.51037 1.22072 0
M  V30 11286 O 1065.09 0.701633 1.81404 0
M  V30 11287 C 1065.37 3.59715 -0.166528 0
M  V30 11288 C 1065.22 4.21083 -1.58142 0
M  V30 11289 C 1066.54 4.37256 0.499485 0
M  V30 11290 H 1063.66 0.734568 -0.0598238 0
M  V30 11291 H 1066.3 1.70981 -0.828592 0
M  V30 11292 H 1064.45 3.86411 0.402302 0
M  V30 11293 H 1066.12 4.05433 -2.2005 0
M  V30 11294 H 1064.37 3.77904 -2.13005 0
M  V30 11295 H 1065.04 5.30156 -1.53748 0
M  V30 11296 H 1067.51 4.16097 0.0155561 0
M  V30 11297 H 1066.39 5.4693 0.464574 0
M  V30 11298 H 1066.65 4.13175 1.57286 0
M  V30 11299 N 1065.71 0.390394 1.52688 0
M  V30 11300 C 1066.66 -0.461191 2.23287 0
M  V30 11301 C 1067.64 -1.02875 1.23716 0
M  V30 11302 O 1068.84 -0.954675 1.49047 0
M  V30 11303 C 1065.97 -1.58736 3.04397 0
M  V30 11304 C 1065.05 -1.03149 4.11365 0
M  V30 11305 N 1065.44 -0.20066 5.05402 0
M  V30 11306 C 1063.74 -1.30388 4.26515 0
M  V30 11307 C 1064.44 0.106548 5.81602 0
M  V30 11308 N 1063.42 -0.497687 5.41317 0
M  V30 11309 H 1067.22 0.1801 2.93348 0
M  V30 11310 H 1064.73 0.199761 1.61167 0
M  V30 11311 H 1066.73 -2.20986 3.53512 0
M  V30 11312 H 1065.39 -2.23147 2.35872 0
M  V30 11313 H 1066.4 0.162168 5.17646 0
M  V30 11314 H 1063.08 -1.94894 3.69219 0
M  V30 11315 H 1064.47 0.779778 6.6736 0
M  V30 11316 N 1067.19 -1.57141 0.120249 0
M  V30 11317 C 1068.43 -1.95527 -0.538245 0
M  V30 11318 C 1068.77 -1.00373 -1.6625 0
M  V30 11319 O 1068.04 -0.0411734 -1.94456 0
M  V30 11320 C 1068.33 -3.43843 -1.06976 0
M  V30 11321 C 1068.18 -4.49771 0.0511596 0
M  V30 11322 C 1069.5 -3.94035 -1.96022 0
M  V30 11323 H 1066.62 -0.710958 -0.194183 0
M  V30 11324 H 1069.26 -1.88986 0.196061 0
M  V30 11325 H 1067.41 -3.49548 -1.69553 0
M  V30 11326 H 1069.08 -4.56163 0.686503 0
M  V30 11327 H 1067.32 -4.27882 0.714127 0
M  V30 11328 H 1067.99 -5.50812 -0.361995 0
M  V30 11329 H 1070.47 -3.9064 -1.43315 0
M  V30 11330 H 1069.35 -4.98329 -2.3013 0
M  V30 11331 H 1069.61 -3.34803 -2.8872 0
M  V30 11332 N 1068.67 0.153526 -1.5685 0
M  V30 11333 C 1069.58 1.20932 -2.01029 0
M  V30 11334 C 1070.59 1.47401 -0.924598 0
M  V30 11335 O 1071.77 1.592 -1.23359 0
M  V30 11336 C 1068.83 2.52438 -2.37647 0
M  V30 11337 C 1067.89 2.33673 -3.60132 0
M  V30 11338 C 1067.13 3.58909 -3.94994 0
M  V30 11339 O 1067.35 4.64823 -3.30599 0
M  V30 11340 O 1066.28 3.5196 -4.8827 0
M  V30 11341 H 1070.11 0.864273 -2.91143 0
M  V30 11342 H 1067.7 0.361755 -1.44954 0
M  V30 11343 H 1069.58 3.29981 -2.62088 0
M  V30 11344 H 1068.25 2.86486 -1.5069 0
M  V30 11345 H 1067.16 1.54102 -3.40886 0
M  V30 11346 H 1068.49 2.04544 -4.47686 0
M  V30 11347 N 1070.14 1.51827 0.422667 0
M  V30 11348 C 1071.05 1.77066 1.53899 0
M  V30 11349 C 1072.07 0.655541 1.61179 0
M  V30 11350 O 1073.25 0.939448 1.78147 0
M  V30 11351 C 1070.31 1.90372 2.89758 0
M  V30 11352 C 1069.37 3.14256 2.92475 0
M  V30 11353 C 1068.61 3.26918 4.21853 0
M  V30 11354 O 1068.83 2.45164 5.15025 0
M  V30 11355 O 1067.76 4.19989 4.31153 0
M  V30 11356 H 1071.59 2.71791 1.35511 0
M  V30 11357 H 1069.17 1.36506 0.607165 0
M  V30 11358 H 1071.06 2.01024 3.70361 0
M  V30 11359 H 1069.73 0.988347 3.08242 0
M  V30 11360 H 1068.64 3.09072 2.10773 0
M  V30 11361 H 1069.97 4.0553 2.78937 0
M  V30 11362 N 1071.62 -0.679052 1.4222 0
M  V30 11363 C 1073.03 -1.25953 1.37815 0
M  V30 11364 C 1073.38 -1.96077 0.0693215 0
M  V30 11365 O 1072.51 -1.99765 -0.832047 0
M  V30 11366 C 1073.1 -2.29063 2.49631 0
M  V30 11367 C 1071.66 -2.82647 2.48571 0
M  V30 11368 C 1070.81 -1.56909 2.28637 0
M  V30 11369 H 1073.76 -0.472714 1.51496 0
M  V30 11370 H 1073.78 -3.10708 2.19638 0
M  V30 11371 H 1073.29 -1.77996 3.44876 0
M  V30 11372 H 1071.4 -3.37846 1.57132 0
M  V30 11373 H 1071.51 -3.31952 3.45463 0
M  V30 11374 H 1069.87 -1.83323 1.76819 0
M  V30 11375 H 1070.66 -1.07814 3.25931 0
M  V30 11376 N 1073.1 -1.28322 -0.914942 0
M  V30 11377 C 1074.05 -1.08788 -2.00373 0
M  V30 11378 C 1075.03 -0.0118996 -1.60896 0
M  V30 11379 O 1076.23 -0.231902 -1.75474 0
M  V30 11380 C 1073.36 -0.750508 -3.34996 0
M  V30 11381 C 1072.44 -1.86527 -3.80879 0
M  V30 11382 N 1072.83 -3.10672 -3.99145 0
M  V30 11383 C 1071.13 -1.75485 -4.10026 0
M  V30 11384 C 1071.83 -3.833 -4.37557 0
M  V30 11385 N 1070.81 -3.11141 -4.45749 0
M  V30 11386 H 1074.61 -2.02984 -2.12544 0
M  V30 11387 H 1072.12 -1.19224 -1.1027 0
M  V30 11388 H 1074.12 -0.591644 -4.1268 0
M  V30 11389 H 1072.78 0.183696 -3.2418 0
M  V30 11390 H 1073.79 -3.46295 -3.85097 0
M  V30 11391 H 1070.47 -0.89234 -4.07852 0
M  V30 11392 H 1071.86 -4.90061 -4.59662 0
M  V30 11393 N 1074.58 1.12322 -1.10551 0
M  V30 11394 C 1075.81 1.87679 -0.87087 0
M  V30 11395 C 1076.22 1.79711 0.578733 0
M  V30 11396 O 1075.58 1.17185 1.39907 0
M  V30 11397 C 1075.63 3.36846 -1.31213 0
M  V30 11398 O 1075.35 3.44626 -2.70489 0
M  V30 11399 C 1076.85 4.29138 -1.11156 0
M  V30 11400 H 1074.07 0.593788 -0.3125 0
M  V30 11401 H 1076.62 1.42116 -1.47048 0
M  V30 11402 H 1074.77 3.79948 -0.756169 0
M  V30 11403 H 1075.18 4.37441 -2.89389 0
M  V30 11404 H 1076.66 5.32082 -1.46944 0
M  V30 11405 H 1077.14 4.39171 -0.0502963 0
M  V30 11406 H 1077.74 3.91818 -1.65405 0
M  V30 11407 N 1076.06 0.894434 1.2976 0
M  V30 11408 C 1076.97 0.372622 2.31622 0
M  V30 11409 C 1077.98 -0.52996 1.65733 0
M  V30 11410 O 1079.16 -0.420807 1.96955 0
M  V30 11411 C 1076.22 -0.396076 3.4443 0
M  V30 11412 C 1075.28 0.537394 4.25923 0
M  V30 11413 C 1074.52 -0.194713 5.33345 0
M  V30 11414 O 1074.74 -1.41943 5.52457 0
M  V30 11415 O 1073.67 0.460055 6.00139 0
M  V30 11416 H 1077.5 1.21756 2.78225 0
M  V30 11417 H 1075.09 0.65858 1.34101 0
M  V30 11418 H 1076.97 -0.830962 4.13126 0
M  V30 11419 H 1075.64 -1.21716 2.99945 0
M  V30 11420 H 1074.55 1.02129 3.5989 0
M  V30 11421 H 1075.88 1.32475 4.74037 0
M  V30 11422 N 1077.53 -1.43282 0.656365 0
M  V30 11423 C 1078.76 -2.06125 0.178879 0
M  V30 11424 C 1079.18 -1.49216 -1.15672 0
M  V30 11425 O 1078.53 -0.624693 -1.71475 0
M  V30 11426 C 1078.59 -3.614 0.0851785 0
M  V30 11427 O 1078.31 -4.16194 1.36798 0
M  V30 11428 C 1079.81 -4.41325 -0.41801 0
M  V30 11429 H 1077.03 -0.664753 0.0913504 0
M  V30 11430 H 1079.57 -1.83733 0.897901 0
M  V30 11431 H 1077.73 -3.82966 -0.584421 0
M  V30 11432 H 1078.14 -5.09892 1.22924 0
M  V30 11433 H 1079.61 -5.50303 -0.432519 0
M  V30 11434 H 1080.09 -4.14577 -1.44991 0
M  V30 11435 H 1080.7 -4.24735 0.219208 0
M  V30 11436 N 1079.01 -0.398486 -1.52479 0
M  V30 11437 C 1080.26 0.181019 -2.0199 0
M  V30 11438 C 1080.59 1.45691 -1.28405 0
M  V30 11439 O 1079.87 1.90607 -0.387207 0
M  V30 11440 C 1080.15 0.439587 -3.57407 0
M  V30 11441 C 1080 -0.85223 -4.41653 0
M  V30 11442 C 1081.32 1.2263 -4.2267 0
M  V30 11443 H 1078.44 0.0643164 -0.734188 0
M  V30 11444 H 1081.08 -0.52986 -1.82462 0
M  V30 11445 H 1079.23 1.04516 -3.74177 0
M  V30 11446 H 1080.91 -1.48879 -4.36615 0
M  V30 11447 H 1079.15 -1.46555 -4.08294 0
M  V30 11448 H 1079.82 -0.625839 -5.48441 0
M  V30 11449 H 1082.3 0.713722 -4.09933 0
M  V30 11450 H 1081.17 1.37596 -5.31374 0
M  V30 11451 H 1081.43 2.24403 -3.80914 0
M  V30 11452 N 1080.49 1.57075 -0.12858 0
M  V30 11453 C 1081.91 1.57964 0.227961 0
M  V30 11454 C 1082.11 1.14186 1.66023 0
M  V30 11455 O 1081.16 0.833655 2.38341 0
M  V30 11456 C 1082.48 3.00697 -0.0140648 0
M  V30 11457 C 1084.02 3.12958 0.0510876 0
M  V30 11458 C 1084.5 4.57709 -0.163368 0
M  V30 11459 N 1085.99 4.6307 -0.109663 0
M  V30 11460 C 1086.73 5.72853 -0.250366 0
M  V30 11461 N 1086.22 6.91351 -0.447772 0
M  V30 11462 N 1088.01 5.61781 -0.189265 0
M  V30 11463 H 1080.17 1.83829 -1.06398 0
M  V30 11464 H 1082.43 0.850014 -0.419739 0
M  V30 11465 H 1082.13 3.37047 -1.00461 0
M  V30 11466 H 1082.01 3.70389 0.713571 0
M  V30 11467 H 1084.4 2.7646 1.03216 0
M  V30 11468 H 1084.48 2.4579 -0.708583 0
M  V30 11469 H 1084.12 4.94907 -1.14146 0
M  V30 11470 H 1084.05 5.2298 0.616405 0
M  V30 11471 H 1086.54 3.7788 0.0390086 0
M  V30 11472 H 1086.85 7.70871 -0.54574 0
M  V30 11473 H 1085.2 6.93314 -0.483866 0
M  V30 11474 H 1088.39 4.68086 -0.0359374 0
M  V30 11475 H 1088.56 6.47294 -0.302359 0
M  V30 11476 N 1081.97 -0.145205 1.5693 0
M  V30 11477 C 1082.92 -1.17923 1.98401 0
M  V30 11478 C 1083.89 -1.42591 0.851885 0
M  V30 11479 O 1085.07 -1.54896 1.11409 0
M  V30 11480 C 1082.21 -2.50727 2.37128 0
M  V30 11481 C 1081.32 -2.33218 3.63639 0
M  V30 11482 C 1080.46 -3.5907 3.91462 0
M  V30 11483 C 1079.5 -3.36605 5.11237 0
M  V30 11484 N 1078.64 -4.54592 5.35061 0
M  V30 11485 H 1083.48 -0.818573 2.86537 0
M  V30 11486 H 1081.01 -0.392739 1.4176 0
M  V30 11487 H 1082.97 -3.28165 2.57611 0
M  V30 11488 H 1081.6 -2.84736 1.52069 0
M  V30 11489 H 1080.65 -1.46826 3.50922 0
M  V30 11490 H 1081.96 -2.12579 4.51234 0
M  V30 11491 H 1081.12 -4.44936 4.12453 0
M  V30 11492 H 1079.86 -3.82715 3.02293 0
M  V30 11493 H 1078.86 -2.49127 4.90118 0
M  V30 11494 H 1080.09 -3.14357 6.01961 0
M  V30 11495 H 1078.03 -4.78406 4.48847 0
M  V30 11496 H 1077.95 -4.36962 6.16928 0
M  V30 11497 H 1079.22 -5.41666 5.60551 0
M  V30 11498 N 1083.45 -1.52049 -0.414609 0
M  V30 11499 C 1084.68 -1.69433 -1.18221 0
M  V30 11500 C 1085.09 -0.40104 -1.84901 0
M  V30 11501 O 1084.43 0.632342 -1.72474 0
M  V30 11502 C 1084.49 -2.76986 -2.2917 0
M  V30 11503 C 1084.15 -4.18903 -1.82671 0
M  V30 11504 C 1085.15 -5.02929 -1.31751 0
M  V30 11505 C 1082.84 -4.65113 -1.89672 0
M  V30 11506 C 1084.83 -6.31234 -0.884461 0
M  V30 11507 C 1082.52 -5.93408 -1.45978 0
M  V30 11508 C 1083.52 -6.76297 -0.9545 0
M  V30 11509 O 1083.2 -8.02191 -0.523852 0
M  V30 11510 H 1082.94 -0.571228 -0.36149 0
M  V30 11511 H 1085.49 -1.99355 -0.494643 0
M  V30 11512 H 1083.72 -2.42428 -3.01273 0
M  V30 11513 H 1085.41 -2.83023 -2.90951 0
M  V30 11514 H 1086.17 -4.68422 -1.2572 0
M  V30 11515 H 1082.05 -4.00702 -2.27945 0
M  V30 11516 H 1085.6 -6.95881 -0.489383 0
M  V30 11517 H 1081.49 -6.27424 -1.51687 0
M  V30 11518 H 1082.26 -8.15934 -0.647656 0
M  V30 11519 N 1084.93 0.6715 -1.42579 0
M  V30 11520 C 1086.17 1.43154 -1.43224 0
M  V30 11521 C 1086.5 1.94436 -0.0498695 0
M  V30 11522 O 1085.76 1.71521 0.942282 0
M  V30 11523 C 1086.05 2.64256 -2.40632 0
M  V30 11524 C 1085.72 2.31497 -3.86937 0
M  V30 11525 C 1084.38 2.22274 -4.26788 0
M  V30 11526 C 1086.73 2.04957 -4.7921 0
M  V30 11527 C 1084.06 1.84642 -5.56888 0
M  V30 11528 C 1086.41 1.68828 -6.09656 0
M  V30 11529 C 1085.08 1.58118 -6.48502 0
M  V30 11530 H 1084.35 0.523838 -0.524094 0
M  V30 11531 H 1087 0.765363 -1.7554 0
M  V30 11532 H 1085.3 3.35921 -2.01654 0
M  V30 11533 H 1087 3.22443 -2.38394 0
M  V30 11534 H 1083.59 2.39578 -3.55387 0
M  V30 11535 H 1087.77 2.11014 -4.49207 0
M  V30 11536 H 1083.03 1.74921 -5.85843 0
M  V30 11537 H 1087.2 1.47319 -6.8064 0
M  V30 11538 H 1084.83 1.28728 -7.49222 0
M  V30 11539 N 1086.4 1.28806 0.908124 0
M  V30 11540 C 1087.81 1.14719 1.47297 0
M  V30 11541 C 1088.17 -0.260763 1.94459 0
M  V30 11542 O 1087.29 -1.15553 1.82966 0
M  V30 11543 C 1087.89 2.07643 2.67712 0
M  V30 11544 C 1086.44 1.97605 3.20358 0
M  V30 11545 C 1085.59 1.99058 1.93058 0
M  V30 11546 H 1088.54 1.41413 0.720283 0
M  V30 11547 H 1088.56 1.64372 3.43165 0
M  V30 11548 H 1088.08 3.10108 2.33355 0
M  V30 11549 H 1086.18 0.981982 3.59427 0
M  V30 11550 H 1086.29 2.84846 3.85226 0
M  V30 11551 H 1084.65 1.43541 2.104 0
M  V30 11552 H 1085.44 3.03212 1.60989 0
M  V30 11553 N 1087.88 -1.11734 1.11145 0
M  V30 11554 C 1088.79 -2.21267 0.779607 0
M  V30 11555 C 1089.81 -1.72526 -0.225986 0
M  V30 11556 O 1090.98 -2.01302 -0.0629166 0
M  V30 11557 C 1088.05 -3.45973 0.22435 0
M  V30 11558 C 1087.11 -4.09518 1.28816 0
M  V30 11559 C 1086.34 -5.28271 0.7593 0
M  V30 11560 O 1086.57 -5.68912 -0.411725 0
M  V30 11561 O 1085.5 -5.82322 1.52266 0
M  V30 11562 H 1089.33 -2.5206 1.6941 0
M  V30 11563 H 1086.91 -1.20211 0.887115 0
M  V30 11564 H 1088.79 -4.21322 -0.0810921 0
M  V30 11565 H 1087.47 -3.1684 -0.662891 0
M  V30 11566 H 1086.37 -3.35915 1.64657 0
M  V30 11567 H 1087.71 -4.42824 2.14868 0
M  V30 11568 N 1089.36 -0.901303 -1.29284 0
M  V30 11569 C 1090.59 -0.543511 -1.99634 0
M  V30 11570 C 1091 0.872154 -1.67448 0
M  V30 11571 O 1090.36 1.57591 -0.920406 0
M  V30 11572 C 1090.41 -0.728148 -3.54091 0
M  V30 11573 O 1090.13 -2.08809 -3.85137 0
M  V30 11574 C 1091.63 -0.375519 -4.41707 0
M  V30 11575 H 1088.85 -0.208405 -0.637815 0
M  V30 11576 H 1091.4 -1.21109 -1.64781 0
M  V30 11577 H 1089.55 -0.107728 -3.8725 0
M  V30 11578 H 1089.97 -2.11863 -4.79807 0
M  V30 11579 H 1091.44 -0.555538 -5.49197 0
M  V30 11580 H 1091.92 0.687532 -4.33785 0
M  V30 11581 H 1092.52 -0.972949 -4.14021 0
M  V30 11582 N 1090.84 1.42931 -0.663954 0
M  V30 11583 C 1092.08 2.02505 -0.190647 0
M  V30 11584 C 1092.44 1.51506 1.18591 0
M  V30 11585 O 1091.73 0.702962 1.78239 0
M  V30 11586 C 1091.93 3.57072 -0.153163 0
M  V30 11587 C 1091.75 4.23069 -1.52454 0
M  V30 11588 C 1090.52 4.58694 -2.11961 0
M  V30 11589 C 1092.72 4.51373 -2.46509 0
M  V30 11590 N 1090.7 5.09818 -3.41993 0
M  V30 11591 C 1092.08 5.03931 -3.61184 0
M  V30 11592 C 1094.13 4.33351 -2.45176 0
M  V30 11593 C 1092.83 5.40362 -4.74765 0
M  V30 11594 C 1094.86 4.70851 -3.57845 0
M  V30 11595 C 1094.22 5.23551 -4.71246 0
M  V30 11596 H 1090.32 0.773581 -0.114438 0
M  V30 11597 H 1092.9 1.73951 -0.874589 0
M  V30 11598 H 1091.08 3.85166 0.500156 0
M  V30 11599 H 1092.81 4.03336 0.332015 0
M  V30 11600 H 1089.56 4.44091 -1.6456 0
M  V30 11601 H 1089.99 5.39821 -4.08561 0
M  V30 11602 H 1094.63 3.91871 -1.58735 0
M  V30 11603 H 1092.35 5.8078 -5.6189 0
M  V30 11604 H 1095.93 4.58593 -3.58028 0
M  V30 11605 H 1094.81 5.52029 -5.56986 0
M  V30 11606 N 1092.32 0.406567 1.52266 0
M  V30 11607 C 1093.56 -0.171391 2.00971 0
M  V30 11608 C 1093.88 -1.46443 1.29668 0
M  V30 11609 O 1095.08 -2.12348 1.69176 0
M  V30 11610 C 1093.54 -0.35599 3.58135 0
M  V30 11611 C 1093.15 0.924803 4.38351 0
M  V30 11612 C 1094.89 -0.889378 4.15079 0
M  V30 11613 C 1092.8 0.707534 5.87152 0
M  V30 11614 H 1091.73 -0.0678253 0.750943 0
M  V30 11615 H 1094.38 0.531619 1.7563 0
M  V30 11616 H 1092.76 -1.12127 3.79794 0
M  V30 11617 H 1093.94 1.69603 4.28452 0
M  V30 11618 H 1092.25 1.38442 3.92712 0
M  V30 11619 H 1094.85 -1.06792 5.23927 0
M  V30 11620 H 1095.19 -1.86334 3.7227 0
M  V30 11621 H 1095.72 -0.183224 3.97378 0
M  V30 11622 H 1092.46 1.65299 6.34316 0
M  V30 11623 H 1091.98 -0.024446 5.99795 0
M  V30 11624 H 1093.66 0.348721 6.4606 0
M  V30 11625 N 1093.79 -1.57004 0.136909 0
M  V30 11626 C 1095.04 -1.96873 -0.511137 0
M  V30 11627 C 1095.4 -1.02001 -1.63137 0
M  V30 11628 O 1094.69 -0.0532138 -1.91526 0
M  V30 11629 C 1094.88 -3.40903 -1.07331 0
M  V30 11630 C 1094.71 -4.49699 -0.00908112 0
M  V30 11631 C 1093.48 -5.03477 0.42889 0
M  V30 11632 C 1095.68 -5.08372 0.778631 0
M  V30 11633 N 1093.66 -5.95867 1.47702 0
M  V30 11634 C 1095.03 -5.96875 1.67751 0
M  V30 11635 C 1097.09 -4.90975 0.827538 0
M  V30 11636 C 1095.79 -6.69845 2.62108 0
M  V30 11637 C 1097.82 -5.64639 1.75889 0
M  V30 11638 C 1097.18 -6.52842 2.64531 0
M  V30 11639 H 1093.28 -0.766253 -0.156141 0
M  V30 11640 H 1095.86 -1.93347 0.229176 0
M  V30 11641 H 1094.03 -3.45042 -1.78327 0
M  V30 11642 H 1095.76 -3.67855 -1.68715 0
M  V30 11643 H 1092.52 -4.73588 0.03306 0
M  V30 11644 H 1092.94 -6.46767 2.00055 0
M  V30 11645 H 1097.59 -4.22511 0.156318 0
M  V30 11646 H 1095.3 -7.37544 3.30235 0
M  V30 11647 H 1098.89 -5.53177 1.80241 0
M  V30 11648 H 1097.77 -7.08843 3.35426 0
M  V30 11649 N 1095.27 0.136881 -1.57004 0
M  V30 11650 C 1096.55 0.87705 -1.74835 0
M  V30 11651 C 1096.93 1.98886 -0.707639 0
M  V30 11652 O 1096.28 2.26879 0.271652 0
M  V30 11653 C 1096.49 1.41021 -3.1924 0
M  V30 11654 C 1097.84 1.86963 -3.81222 0
M  V30 11655 O 1098.86 1.5074 -3.22732 0
M  V30 11656 O 1097.72 2.53798 -4.83993 0
M  V30 11657 H 1094.81 0.415192 -0.715223 0
M  V30 11658 H 1097.36 0.122016 -1.69261 0
M  V30 11659 H 1096.13 0.611677 -3.8649 0
M  V30 11660 H 1095.75 2.22846 -3.2928 0
M  V30 11661 N 1096.75 1.52266 0.40654 0
M  V30 11662 C 1097.68 1.78755 1.50229 0
M  V30 11663 C 1098.66 0.638652 1.57655 0
M  V30 11664 O 1099.85 0.884505 1.72888 0
M  V30 11665 C 1096.98 1.94057 2.88026 0
M  V30 11666 C 1095.93 3.09667 2.95449 0
M  V30 11667 C 1095.26 3.10196 4.35526 0
M  V30 11668 C 1096.56 4.49077 2.66697 0
M  V30 11669 H 1098.25 2.70511 1.28313 0
M  V30 11670 H 1095.8 1.30167 0.615836 0
M  V30 11671 H 1097.75 2.11171 3.64671 0
M  V30 11672 H 1096.47 0.989755 3.11242 0
M  V30 11673 H 1095.13 2.92308 2.2125 0
M  V30 11674 H 1094.78 2.12831 4.55754 0
M  V30 11675 H 1094.48 3.87847 4.41416 0
M  V30 11676 H 1096 3.29443 5.14101 0
M  V30 11677 H 1097.42 4.66628 3.33064 0
M  V30 11678 H 1095.82 5.28665 2.8396 0
M  V30 11679 H 1096.89 4.56995 1.62122 0
M  V30 11680 N 1098.23 -0.663929 1.42933 0
M  V30 11681 C 1099.47 -1.42603 1.44195 0
M  V30 11682 C 1099.81 -1.94101 0.0620284 0
M  V30 11683 O 1099.08 -1.71609 -0.91546 0
M  V30 11684 C 1099.37 -2.61522 2.47544 0
M  V30 11685 C 1099.22 -2.15587 3.94769 0
M  V30 11686 C 1100.54 -3.6374 2.47753 0
M  V30 11687 H 1097.66 -0.517189 0.525056 0
M  V30 11688 H 1100.3 -0.75361 1.74415 0
M  V30 11689 H 1098.45 -3.1889 2.21904 0
M  V30 11690 H 1100.12 -1.63303 4.31428 0
M  V30 11691 H 1098.36 -1.47057 4.08114 0
M  V30 11692 H 1099.03 -3.01053 4.62678 0
M  V30 11693 H 1101.51 -3.16111 2.70579 0
M  V30 11694 H 1100.39 -4.44512 3.22025 0
M  V30 11695 H 1100.65 -4.15607 1.50742 0
M  V30 11696 N 1099.71 -1.29285 -0.901281 0
M  V30 11697 C 1100.95 -1.17339 -1.65407 0
M  V30 11698 C 1101.29 0.274834 -1.92245 0
M  V30 11699 O 1100.56 1.19865 -1.53176 0
M  V30 11700 C 1100.84 -1.98547 -3.00418 0
M  V30 11701 C 1100.7 -3.51501 -2.80655 0
M  V30 11702 C 1102.02 -1.81062 -4.01129 0
M  V30 11703 H 1099.13 -0.427624 -0.600255 0
M  V30 11704 H 1101.78 -1.58741 -1.0441 0
M  V30 11705 H 1099.93 -1.63366 -3.52482 0
M  V30 11706 H 1101.6 -3.96655 -2.35505 0
M  V30 11707 H 1099.84 -3.76504 -2.15469 0
M  V30 11708 H 1100.51 -4.03593 -3.76585 0
M  V30 11709 H 1102.99 -2.11788 -3.58169 0
M  V30 11710 H 1101.86 -2.40235 -4.93536 0
M  V30 11711 H 1102.13 -0.765388 -4.35424 0
M  V30 11712 N 1101.18 1.11143 -1.11736 0
M  V30 11713 C 1102.43 1.83219 -0.869413 0
M  V30 11714 C 1102.76 1.84588 0.603402 0
M  V30 11715 O 1102.04 1.30119 1.44566 0
M  V30 11716 C 1102.32 3.30247 -1.43559 0
M  V30 11717 C 1102.17 3.37253 -2.97624 0
M  V30 11718 C 1103.49 4.26412 -1.08907 0
M  V30 11719 H 1100.61 0.665205 -0.317286 0
M  V30 11720 H 1103.25 1.30307 -1.38275 0
M  V30 11721 H 1101.4 3.75437 -0.998978 0
M  V30 11722 H 1103.08 3.00599 -3.49911 0
M  V30 11723 H 1101.32 2.77378 -3.33532 0
M  V30 11724 H 1101.99 4.40752 -3.32328 0
M  V30 11725 H 1104.47 3.89418 -1.46604 0
M  V30 11726 H 1103.34 5.27666 -1.51195 0
M  V30 11727 H 1103.6 4.421 -0.000259009 0
M  V30 11728 N 1102.66 0.908147 1.28804 0
M  V30 11729 C 1103.61 0.382315 2.29437 0
M  V30 11730 C 1104.6 -0.523033 1.61123 0
M  V30 11731 O 1105.81 -0.404898 1.75387 0
M  V30 11732 H 1102.19 0.105022 0.74463 0
M  V30 11733 H 1104.16 1.24425 2.71221 0
M  V30 11734 C 1102.91 -0.367475 3.45753 0
M  V30 11735 H 1102.23 0.319957 3.98518 0
M  V30 11736 H 1103.67 -0.700131 4.1818 0
M  V30 11737 C 1102.13 -1.57329 2.97908 0
M  V30 11738 O 1102.66 -2.67248 2.99902 0
M  V30 11739 N 1100.86 -1.41835 2.53636 0
M  V30 11740 H 1100.41 -0.524099 2.52212 0
M  V30 11741 H 1100.37 -2.22645 2.21984 0
M  V30 11742 N 1104.14 -1.42577 0.671525 0
M  V30 11743 C 1105.37 -2.06442 0.199152 0
M  V30 11744 C 1105.79 -1.50104 -1.1336 0
M  V30 11745 O 1105.15 -0.618211 -1.70434 0
M  V30 11746 C 1105.2 -3.60323 0.141215 0
M  V30 11747 O 1104.3 -4.02655 -0.891238 0
M  V30 11748 H 1103.64 -0.655919 0.103277 0
M  V30 11749 H 1106.17 -1.82768 0.919614 0
M  V30 11750 H 1106.18 -4.07984 -0.0360209 0
M  V30 11751 H 1104.86 -4.00702 1.11403 0
M  V30 11752 H 1103.43 -3.66549 -0.685309 0
M  V30 11753 N 1105.62 -0.414636 -1.52048 0
M  V30 11754 C 1106.58 0.396285 -2.25748 0
M  V30 11755 C 1107.58 0.969003 -1.28324 0
M  V30 11756 O 1108.77 0.847016 -1.52221 0
M  V30 11757 C 1105.9 1.55838 -3.03195 0
M  V30 11758 H 1107.1 -0.249311 -2.98862 0
M  V30 11759 H 1104.65 -0.167276 -1.55402 0
M  V30 11760 H 1105.38 2.24068 -2.34444 0
M  V30 11761 H 1105.17 1.15414 -3.74729 0
M  V30 11762 H 1106.66 2.13187 -3.59084 0
M  V30 11763 N 1107.1 1.56929 -0.145233 0
M  V30 11764 C 1108.34 1.95681 0.50532 0
M  V30 11765 C 1108.67 1.03098 1.65516 0
M  V30 11766 O 1107.94 0.0921961 1.95683 0
M  V30 11767 H 1106.52 0.72252 0.189668 0
M  V30 11768 H 1109.18 1.93651 -0.220318 0
M  V30 11769 H 1108.27 2.99359 0.882631 0
M  V30 11770 N 1108.58 -0.128553 1.57075 0
M  V30 11771 C 1109.82 -0.839252 1.8462 0
M  V30 11772 C 1110.15 -1.79974 0.729582 0
M  V30 11773 O 1109.43 -1.92681 -0.265369 0
M  V30 11774 C 1109.71 -1.59756 3.22723 0
M  V30 11775 C 1109.57 -0.657313 4.44971 0
M  V30 11776 C 1110.88 -2.55592 3.58275 0
M  V30 11777 H 1108 -0.303652 0.671539 0
M  V30 11778 H 1110.65 -0.103802 1.89716 0
M  V30 11779 H 1108.8 -2.22451 3.18509 0
M  V30 11780 H 1110.47 -0.0399471 4.61283 0
M  V30 11781 H 1108.71 0.0318416 4.33788 0
M  V30 11782 H 1109.38 -1.22433 5.38251 0
M  V30 11783 H 1111.86 -2.03007 3.63218 0
M  V30 11784 H 1110.73 -3.05687 4.55902 0
M  V30 11785 H 1110.99 -3.37813 2.85193 0
M  V30 11786 N 1110.05 -1.5248 -0.398459 0
M  V30 11787 C 1111.02 -1.75949 -1.46883 0
M  V30 11788 C 1112.02 -0.629431 -1.47969 0
M  V30 11789 O 1113.21 -0.897407 -1.49306 0
M  V30 11790 C 1110.34 -1.85162 -2.8623 0
M  V30 11791 H 1111.53 -2.71513 -1.2736 0
M  V30 11792 H 1109.08 -1.43058 -0.629619 0
M  V30 11793 H 1109.82 -0.915505 -3.11109 0
M  V30 11794 H 1109.6 -2.67326 -2.86844 0
M  V30 11795 H 1111.09 -2.05025 -3.63805 0
M  V30 11796 N 1111.53 0.65634 -1.43283 0
M  V30 11797 C 1112.44 1.79847 -1.50639 0
M  V30 11798 C 1113.46 1.69487 -0.393714 0
M  V30 11799 O 1114.63 1.90712 -0.647379 0
M  V30 11800 C 1111.7 3.16107 -1.42398 0
M  V30 11801 C 1110.76 3.38287 -2.64312 0
M  V30 11802 C 1109.99 4.68046 -2.56454 0
M  V30 11803 O 1110.22 5.4719 -1.61056 0
M  V30 11804 O 1109.15 4.91877 -3.46902 0
M  V30 11805 H 1112.98 1.76596 -2.47078 0
M  V30 11806 H 1110.56 0.814428 -1.25249 0
M  V30 11807 H 1112.44 3.97382 -1.40233 0
M  V30 11808 H 1111.12 3.19956 -0.490929 0
M  V30 11809 H 1110.02 2.56788 -2.72049 0
M  V30 11810 H 1111.36 3.39282 -3.56579 0
M  V30 11811 N 1113.01 1.29761 0.894412 0
M  V30 11812 C 1114.26 1.18214 1.64782 0
M  V30 11813 C 1114.59 -0.264635 1.92388 0
M  V30 11814 O 1113.86 -1.19051 1.53809 0
M  V30 11815 C 1114.15 2.00138 2.99361 0
M  V30 11816 C 1114 3.52984 2.78787 0
M  V30 11817 C 1115.32 1.83187 4.00163 0
M  V30 11818 H 1112.44 0.430802 0.597979 0
M  V30 11819 H 1115.08 1.59292 1.03566 0
M  V30 11820 H 1113.23 1.65233 3.51611 0
M  V30 11821 H 1114.9 3.97898 2.33398 0
M  V30 11822 H 1113.14 3.77642 2.13469 0
M  V30 11823 H 1113.82 4.05585 3.7444 0
M  V30 11824 H 1116.29 2.13684 3.57041 0
M  V30 11825 H 1115.17 2.42849 4.92255 0
M  V30 11826 H 1115.43 0.788469 4.35012 0
M  V30 11827 N 1114.49 -1.10549 1.12324 0
M  V30 11828 C 1115.74 -1.82124 0.876083 0
M  V30 11829 C 1116.06 -1.85547 -0.599761 0
M  V30 11830 O 1115.33 -1.33269 -1.43584 0
M  V30 11831 H 1113.91 -0.674455 0.321122 0
M  V30 11832 H 1116.57 -1.33766 1.41748 0
M  V30 11833 H 1115.66 -2.85688 1.25653 0
M  V30 11834 N 1115.97 -0.914965 -1.28321 0
M  V30 11835 C 1117.21 -0.549562 -1.95212 0
M  V30 11836 C 1117.54 0.904658 -1.71842 0
M  V30 11837 O 1116.82 1.64354 -1.04009 0
M  V30 11838 C 1117.1 -0.860927 -3.49657 0
M  V30 11839 C 1116.96 -2.36797 -3.82423 0
M  V30 11840 C 1118.27 -0.357926 -4.38642 0
M  V30 11841 H 1115.39 -0.201136 -0.709023 0
M  V30 11842 H 1118.04 -1.14443 -1.51667 0
M  V30 11843 H 1116.19 -0.354665 -3.86878 0
M  V30 11844 H 1117.86 -2.94494 -3.55065 0
M  V30 11845 H 1116.1 -2.82245 -3.29424 0
M  V30 11846 H 1116.77 -2.53637 -4.90278 0
M  V30 11847 H 1119.25 -0.791636 -4.085 0
M  V30 11848 H 1118.12 -0.604855 -5.45557 0
M  V30 11849 H 1118.38 0.741775 -4.35833 0
M  V30 11850 N 1117.44 1.42219 -0.679077 0
M  V30 11851 C 1118.67 2.05815 -0.211649 0
M  V30 11852 C 1119.09 1.51037 1.13284 0
M  V30 11853 O 1118.44 0.651894 1.7046 0
M  V30 11854 C 1118.49 3.61218 -0.142663 0
M  V30 11855 O 1118.22 4.13965 -1.43402 0
M  V30 11856 C 1119.72 4.41934 0.347746 0
M  V30 11857 H 1116.94 0.663215 -0.101914 0
M  V30 11858 H 1119.48 1.82282 -0.927017 0
M  V30 11859 H 1117.64 3.83848 0.52342 0
M  V30 11860 H 1118.05 5.07872 -1.31021 0
M  V30 11861 H 1119.52 5.50921 0.344916 0
M  V30 11862 H 1120 4.16832 1.38377 0
M  V30 11863 H 1120.61 4.24332 -0.286751 0
M  V30 11864 N 1118.92 0.422693 1.51826 0
M  V30 11865 C 1120.17 -0.148861 2.02253 0
M  V30 11866 C 1120.5 -1.43629 1.30707 0
M  V30 11867 O 1119.78 -1.89967 0.417482 0
M  V30 11868 C 1120.06 -0.382672 3.58061 0
M  V30 11869 C 1119.91 0.922386 4.40241 0
M  V30 11870 C 1121.23 -1.1589 4.24567 0
M  V30 11871 H 1118.35 -0.0526279 0.735119 0
M  V30 11872 H 1120.99 0.558821 1.81596 0
M  V30 11873 H 1119.14 -0.985495 3.75793 0
M  V30 11874 H 1120.81 1.55806 4.34191 0
M  V30 11875 H 1119.06 1.53032 4.05911 0
M  V30 11876 H 1119.73 0.713012 5.47376 0
M  V30 11877 H 1122.2 -0.648415 4.11017 0
M  V30 11878 H 1121.08 -1.29125 5.33496 0
M  V30 11879 H 1121.34 -2.18315 3.84436 0
M  V30 11880 N 1120.4 -1.5685 0.153553 0
M  V30 11881 C 1121.81 -1.83074 -0.36618 0
M  V30 11882 C 1122.16 -1.07257 -1.64288 0
M  V30 11883 O 1121.29 -0.319925 -2.14022 0
M  V30 11884 C 1121.88 -3.32086 -0.671142 0
M  V30 11885 C 1120.44 -3.58868 -1.13537 0
M  V30 11886 C 1119.59 -2.76827 -0.161887 0
M  V30 11887 H 1122.54 -1.54129 0.378139 0
M  V30 11888 H 1122.56 -3.48598 -1.52512 0
M  V30 11889 H 1122.07 -3.8724 0.258234 0
M  V30 11890 H 1120.17 -3.09107 -2.08047 0
M  V30 11891 H 1120.29 -4.67299 -1.05682 0
M  V30 11892 H 1118.65 -2.46112 -0.6558 0
M  V30 11893 H 1119.43 -3.34755 0.761195 0
M  V30 11894 N 1121.88 0.120221 -1.57141 0
M  V30 11895 C 1123.15 0.858458 -1.75755 0
M  V30 11896 C 1123.53 1.98124 -0.728693 0
M  V30 11897 O 1122.88 2.27155 0.247573 0
M  V30 11898 C 1123.09 1.37627 -3.20718 0
M  V30 11899 C 1124.44 1.82909 -3.83183 0
M  V30 11900 O 1125.46 1.47309 -3.24312 0
M  V30 11901 O 1124.32 2.4865 -4.86657 0
M  V30 11902 H 1121.42 0.407583 -0.719587 0
M  V30 11903 H 1123.96 0.104057 -1.69381 0
M  V30 11904 H 1122.74 0.570651 -3.87117 0
M  V30 11905 H 1122.36 2.19341 -3.31625 0
M  V30 11906 N 1123.36 1.52689 0.390367 0
M  V30 11907 C 1124.58 1.71541 1.15678 0
M  V30 11908 C 1125 0.433171 1.83764 0
M  V30 11909 O 1124.36 -0.592248 1.72623 0
M  V30 11910 C 1124.41 2.864 2.20584 0
M  V30 11911 O 1124.13 4.0966 1.55274 0
M  V30 11912 C 1125.63 3.1692 3.09962 0
M  V30 11913 H 1122.85 0.574381 0.346883 0
M  V30 11914 H 1125.39 1.99332 0.456851 0
M  V30 11915 H 1123.55 2.61075 2.86214 0
M  V30 11916 H 1123.96 4.73802 2.2497 0
M  V30 11917 H 1125.44 4.00755 3.79604 0
M  V30 11918 H 1125.91 2.31245 3.73393 0
M  V30 11919 H 1126.52 3.4408 2.49979 0
M  V30 11920 N 1124.83 -0.648732 1.43629 0
M  V30 11921 C 1126.08 -1.40446 1.44768 0
M  V30 11922 C 1126.4 -1.95447 0.0773445 0
M  V30 11923 O 1127.6 -2.71479 -0.0337942 0
M  V30 11924 C 1126.06 -2.54194 2.54781 0
M  V30 11925 C 1125.67 -2.05781 3.97942 0
M  V30 11926 C 1127.41 -3.31529 2.65121 0
M  V30 11927 C 1125.32 -3.16767 4.99412 0
M  V30 11928 H 1124.25 -0.527717 0.538545 0
M  V30 11929 H 1126.9 -0.699756 1.69634 0
M  V30 11930 H 1125.28 -3.27156 2.23125 0
M  V30 11931 H 1126.45 -1.398 4.39081 0
M  V30 11932 H 1124.77 -1.41312 3.91688 0
M  V30 11933 H 1127.37 -4.14233 3.38105 0
M  V30 11934 H 1127.71 -3.79855 1.70341 0
M  V30 11935 H 1128.24 -2.65649 2.961 0
M  V30 11936 H 1124.98 -2.73404 5.9576 0
M  V30 11937 H 1124.5 -3.81445 4.62882 0
M  V30 11938 H 1126.18 -3.81827 5.22319 0
M  V30 11939 N 1126.31 -1.30234 -0.887518 0
M  V30 11940 C 1127.54 -1.21829 -1.67229 0
M  V30 11941 C 1127.96 0.219251 -1.87523 0
M  V30 11942 O 1127.31 1.14526 -1.42091 0
M  V30 11943 C 1127.36 -1.94044 -3.05007 0
M  V30 11944 O 1127.08 -3.32185 -2.85631 0
M  V30 11945 C 1128.59 -1.92265 -3.99436 0
M  V30 11946 H 1125.81 -0.421716 -0.521916 0
M  V30 11947 H 1128.35 -1.71816 -1.10903 0
M  V30 11948 H 1126.5 -1.47861 -3.58072 0
M  V30 11949 H 1126.92 -3.68724 -3.73018 0
M  V30 11950 H 1128.39 -2.47336 -4.93486 0
M  V30 11951 H 1128.87 -0.900984 -4.29859 0
M  V30 11952 H 1129.48 -2.38247 -3.52305 0
M  V30 11953 N 1127.79 1.09952 -1.12909 0
M  V30 11954 C 1128.7 2.19999 -0.81471 0
M  V30 11955 C 1129.72 1.72864 0.19851 0
M  V30 11956 O 1130.89 2.01376 0.0308832 0
M  V30 11957 C 1127.96 3.45573 -0.279363 0
M  V30 11958 C 1127.02 4.07417 -1.35314 0
M  V30 11959 C 1126.25 5.26996 -0.843247 0
M  V30 11960 O 1126.47 5.69495 0.321164 0
M  V30 11961 O 1125.41 5.79826 -1.61511 0
M  V30 11962 H 1129.23 2.49333 -1.73398 0
M  V30 11963 H 1126.82 1.18784 -0.906128 0
M  V30 11964 H 1128.7 4.21398 0.0140531 0
M  V30 11965 H 1127.38 3.17854 0.612401 0
M  V30 11966 H 1126.28 3.33253 -1.6998 0
M  V30 11967 H 1127.62 4.39349 -2.21885 0
M  V30 11968 N 1129.27 0.921757 1.27833 0
M  V30 11969 C 1130.51 0.569378 1.95268 0
M  V30 11970 C 1130.87 -0.878685 1.71163 0
M  V30 11971 O 1130.16 -1.6177 1.02669 0
M  V30 11972 C 1130.36 0.824259 3.47765 0
M  V30 11973 C 1130.19 2.29555 3.86697 0
M  V30 11974 C 1128.96 2.94715 4.10452 0
M  V30 11975 C 1131.15 3.27261 3.96743 0
M  V30 11976 N 1129.14 4.32058 4.36118 0
M  V30 11977 C 1130.51 4.49793 4.26715 0
M  V30 11978 C 1132.56 3.2255 3.79296 0
M  V30 11979 C 1131.26 5.68208 4.41057 0
M  V30 11980 C 1133.29 4.40272 3.9486 0
M  V30 11981 C 1132.65 5.61581 4.25213 0
M  V30 11982 H 1128.75 0.258368 0.738085 0
M  V30 11983 H 1131.34 1.18715 1.54321 0
M  V30 11984 H 1129.51 0.235697 3.87684 0
M  V30 11985 H 1131.24 0.435106 4.02354 0
M  V30 11986 H 1127.99 2.4541 4.05057 0
M  V30 11987 H 1128.42 5.03092 4.5302 0
M  V30 11988 H 1133.06 2.29835 3.54875 0
M  V30 11989 H 1130.78 6.61396 4.64308 0
M  V30 11990 H 1134.36 4.38138 3.82787 0
M  V30 11991 H 1133.24 6.51154 4.36998 0
M  V30 11992 N 1130.75 -1.41857 0.686609 0
M  V30 11993 C 1131.69 -2.30795 0.015643 0
M  V30 11994 C 1132.66 -1.46616 -0.780569 0
M  V30 11995 O 1133.85 -1.75423 -0.750424 0
M  V30 11996 C 1130.99 -3.32577 -0.921229 0
M  V30 11997 C 1130.1 -4.3184 -0.117585 0
M  V30 11998 C 1129.24 -5.20693 -1.05128 0
M  V30 11999 C 1128.28 -6.11629 -0.240018 0
M  V30 12000 N 1127.41 -6.92995 -1.12704 0
M  V30 12001 H 1132.25 -2.87615 0.77985 0
M  V30 12002 H 1129.79 -1.41661 0.396298 0
M  V30 12003 H 1131.75 -3.90129 -1.47836 0
M  V30 12004 H 1130.38 -2.77328 -1.65193 0
M  V30 12005 H 1129.43 -3.7631 0.55634 0
M  V30 12006 H 1130.74 -4.96168 0.511753 0
M  V30 12007 H 1129.9 -5.83035 -1.67795 0
M  V30 12008 H 1128.63 -4.5657 -1.71449 0
M  V30 12009 H 1127.64 -5.48345 0.399779 0
M  V30 12010 H 1128.86 -6.77805 0.419266 0
M  V30 12011 H 1126.81 -6.31489 -1.77644 0
M  V30 12012 H 1126.73 -7.53974 -0.553065 0
M  V30 12013 H 1128 -7.59813 -1.7408 0
M  V30 12014 N 1132.22 -0.430739 -1.51599 0
M  V30 12015 C 1133.19 0.372319 -2.26156 0
M  V30 12016 C 1134.19 0.955338 -1.29344 0
M  V30 12017 O 1135.38 0.830823 -1.53111 0
M  V30 12018 C 1132.51 1.52613 -3.04831 0
M  V30 12019 H 1133.7 -0.280996 -2.98581 0
M  V30 12020 H 1131.26 -0.183749 -1.55216 0
M  V30 12021 H 1131.99 2.21569 -2.36807 0
M  V30 12022 H 1131.78 1.11433 -3.75932 0
M  V30 12023 H 1133.27 2.09366 -3.61325 0
M  V30 12024 N 1133.7 1.56767 -0.161869 0
M  V30 12025 C 1134.95 1.96206 0.484537 0
M  V30 12026 C 1135.27 1.04848 1.64414 0
M  V30 12027 O 1134.54 0.112946 1.95574 0
M  V30 12028 H 1133.12 0.724491 0.181994 0
M  V30 12029 H 1135.78 1.93406 -0.240845 0
M  V30 12030 H 1134.88 3.00279 0.85083 0
M  V30 12031 N 1135.18 -0.111886 1.57202 0
M  V30 12032 C 1136.14 -1.12101 1.99915 0
M  V30 12033 C 1137.14 -1.33906 0.890272 0
M  V30 12034 O 1138.33 -1.30303 1.15615 0
M  V30 12035 C 1135.47 -2.47392 2.34543 0
M  V30 12036 H 1136.66 -0.753736 2.90274 0
M  V30 12037 H 1134.21 -0.35641 1.52182 0
M  V30 12038 H 1134.95 -2.89026 1.47086 0
M  V30 12039 H 1134.73 -2.32917 3.15423 0
M  V30 12040 H 1136.22 -3.20004 2.68304 0
M  V30 12041 N 1136.66 -1.52894 -0.382264 0
M  V30 12042 C 1137.91 -1.68266 -1.12663 0
M  V30 12043 C 1138.23 -0.425974 -1.89778 0
M  V30 12044 O 1137.49 0.59178 -1.86538 0
M  V30 12045 C 1137.79 -2.87309 -2.12576 0
M  V30 12046 C 1137.45 -4.24484 -1.52067 0
M  V30 12047 C 1136.12 -4.6179 -1.35292 0
M  V30 12048 C 1138.47 -5.09858 -1.08138 0
M  V30 12049 C 1135.8 -5.82123 -0.731449 0
M  V30 12050 C 1138.15 -6.30822 -0.473986 0
M  V30 12051 C 1136.81 -6.66854 -0.293585 0
M  V30 12052 H 1136.08 -0.615728 -0.412262 0
M  V30 12053 H 1138.73 -1.8705 -0.410425 0
M  V30 12054 H 1137.03 -2.62968 -2.90439 0
M  V30 12055 H 1138.73 -2.96397 -2.70092 0
M  V30 12056 H 1135.32 -3.951 -1.66114 0
M  V30 12057 H 1139.5 -4.816 -1.19898 0
M  V30 12058 H 1134.76 -6.08643 -0.579938 0
M  V30 12059 H 1138.93 -6.96287 -0.125324 0
M  V30 12060 H 1136.56 -7.59962 0.190054 0
M  V30 12061 N 1138.14 0.641106 -1.43971 0
M  V30 12062 C 1139.38 1.41251 -1.47742 0
M  V30 12063 C 1139.74 1.91722 -0.103353 0
M  V30 12064 O 1140.94 2.68795 -0.0157401 0
M  V30 12065 C 1139.21 2.5537 -2.50042 0
M  V30 12066 S 1140.77 3.43708 -2.72783 0
M  V30 12067 H 1137.59 0.482007 -0.522676 0
M  V30 12068 H 1140.19 0.743161 -1.80824 0
M  V30 12069 H 1138.9 2.16586 -3.48596 0
M  V30 12070 H 1138.43 3.27142 -2.18498 0
M  V30 12071 H 1140.44 4.52495 -2.03624 0
M  V30 12072 N 1139.62 1.30703 0.880598 0
M  V30 12073 C 1140.55 1.20033 2.00286 0
M  V30 12074 C 1141.53 0.0899614 1.69862 0
M  V30 12075 O 1142.71 0.272747 1.92275 0
M  V30 12076 C 1139.84 0.895902 3.35546 0
M  V30 12077 C 1138.8 1.96468 3.80242 0
M  V30 12078 C 1138.12 1.51316 5.12843 0
M  V30 12079 C 1139.42 3.37637 3.98496 0
M  V30 12080 H 1141.12 2.13922 2.0947 0
M  V30 12081 H 1138.66 1.02989 1.00644 0
M  V30 12082 H 1140.61 0.807899 4.13583 0
M  V30 12083 H 1139.34 -0.0786636 3.26505 0
M  V30 12084 H 1138 2.0424 3.04437 0
M  V30 12085 H 1137.65 0.52674 5.00234 0
M  V30 12086 H 1137.35 2.22807 5.43719 0
M  V30 12087 H 1138.87 1.43903 5.93401 0
M  V30 12088 H 1140.28 3.326 4.66959 0
M  V30 12089 H 1138.68 4.07253 4.40755 0
M  V30 12090 H 1139.75 3.79205 3.02211 0
M  V30 12091 N 1141.09 -1.09351 1.1349 0
M  V30 12092 C 1142.32 -1.85844 0.92069 0
M  V30 12093 C 1142.74 -1.80616 -0.525303 0
M  V30 12094 O 1142.1 -1.1842 -1.37282 0
M  V30 12095 C 1142.15 -3.31716 1.4141 0
M  V30 12096 O 1141.25 -4.08014 0.599838 0
M  V30 12097 H 1140.59 -0.576242 0.32991 0
M  V30 12098 H 1143.12 -1.38084 1.50976 0
M  V30 12099 H 1143.13 -3.82564 1.41805 0
M  V30 12100 H 1141.81 -3.34837 2.46692 0
M  V30 12101 H 1140.39 -3.66944 0.663816 0
M  V30 12102 N 1142.57 -0.928524 -1.27343 0
M  V30 12103 C 1143.48 -0.433901 -2.30553 0
M  V30 12104 C 1144.5 0.485832 -1.6708 0
M  V30 12105 O 1145.67 0.36844 -1.98001 0
M  V30 12106 C 1142.74 0.304617 -3.45359 0
M  V30 12107 C 1141.8 -0.650131 -4.24349 0
M  V30 12108 C 1141.03 0.0532372 -5.33673 0
M  V30 12109 O 1141.26 1.27246 -5.56026 0
M  V30 12110 O 1140.19 -0.619009 -5.98709 0
M  V30 12111 H 1144.02 -1.2909 -2.74899 0
M  V30 12112 H 1141.6 -0.693903 -1.32308 0
M  V30 12113 H 1143.48 0.721137 -4.15184 0
M  V30 12114 H 1142.16 1.13721 -3.03066 0
M  V30 12115 H 1141.06 -1.11635 -3.57055 0
M  V30 12116 H 1142.4 -1.44996 -4.70358 0
M  V30 12117 N 1144.05 1.41491 -0.694123 0
M  V30 12118 C 1145.33 1.95004 -0.152571 0
M  V30 12119 C 1145.71 1.63357 1.33707 0
M  V30 12120 O 1145.05 0.939815 2.08278 0
M  V30 12121 C 1145.26 3.46186 -0.44232 0
M  V30 12122 C 1146.61 4.22991 -0.369279 0
M  V30 12123 O 1147.64 3.54198 -0.377152 0
M  V30 12124 O 1146.5 5.45514 -0.328145 0
M  V30 12125 H 1143.59 0.826879 -0.0141253 0
M  V30 12126 H 1146.14 1.51216 -0.770183 0
M  V30 12127 H 1144.91 3.62497 -1.47348 0
M  V30 12128 H 1144.53 3.97064 0.206337 0
M  V30 12129 N 1145.53 0.438773 1.51369 0
M  V30 12130 C 1146.49 -0.36032 2.2635 0
M  V30 12131 C 1147.49 -0.948465 1.29849 0
M  V30 12132 O 1148.68 -0.822692 1.53549 0
M  V30 12133 C 1145.81 -1.50994 3.05636 0
M  V30 12134 H 1147.01 0.296826 2.98427 0
M  V30 12135 H 1144.56 0.191978 1.55117 0
M  V30 12136 H 1145.29 -2.2031 2.37979 0
M  V30 12137 H 1145.08 -1.09437 3.76518 0
M  V30 12138 H 1146.57 -2.07447 3.6243 0
M  V30 12139 N 1147.01 -1.56678 0.170181 0
M  V30 12140 C 1148.25 -1.9646 -0.474125 0
M  V30 12141 C 1148.57 -1.05719 -1.63855 0
M  V30 12142 O 1147.84 -0.123316 -1.95511 0
M  V30 12143 H 1146.42 -0.725446 -0.178149 0
M  V30 12144 H 1149.09 -1.93276 0.251099 0
M  V30 12145 H 1148.18 -3.00726 -0.834894 0
M  V30 12146 N 1148.48 0.103547 -1.57259 0
M  V30 12147 C 1149.41 1.12714 -2.04494 0
M  V30 12148 C 1150.39 1.42278 -0.932255 0
M  V30 12149 O 1151.58 1.52453 -1.20298 0
M  V30 12150 C 1148.71 2.44927 -2.46228 0
M  V30 12151 C 1147.66 2.2979 -3.61082 0
M  V30 12152 C 1146.99 3.67105 -3.88765 0
M  V30 12153 C 1148.29 1.7455 -4.9227 0
M  V30 12154 H 1149.98 0.734198 -2.90258 0
M  V30 12155 H 1147.53 0.351725 -1.39638 0
M  V30 12156 H 1149.48 3.16798 -2.77879 0
M  V30 12157 H 1148.21 2.8614 -1.57453 0
M  V30 12158 H 1146.87 1.60366 -3.29664 0
M  V30 12159 H 1146.51 4.05831 -2.97171 0
M  V30 12160 H 1146.21 3.57825 -4.66084 0
M  V30 12161 H 1147.74 4.40456 -4.22884 0
M  V30 12162 H 1149.15 2.36253 -5.22358 0
M  V30 12163 H 1147.55 1.76051 -5.73695 0
M  V30 12164 H 1148.62 0.704242 -4.79759 0
M  V30 12165 N 1149.96 1.53094 0.37415 0
M  V30 12166 C 1151.21 1.68527 1.11548 0
M  V30 12167 C 1151.53 0.435253 1.9008 0
M  V30 12168 O 1150.8 -0.550594 1.88003 0
M  V30 12169 H 1149.38 0.621255 0.41479 0
M  V30 12170 H 1152.04 1.90258 0.422844 0
M  V30 12171 H 1151.14 2.54248 1.81009 0
M  V30 12172 N 1151.44 -0.633461 1.44309 0
M  V30 12173 C 1152.69 -1.38902 1.4625 0
M  V30 12174 C 1153 -1.95354 0.0980699 0
M  V30 12175 O 1154.21 -2.715 -0.0049983 0
M  V30 12176 C 1152.66 -2.51477 2.57463 0
M  V30 12177 C 1152.27 -2.01549 4.00103 0
M  V30 12178 C 1154.02 -3.28698 2.68622 0
M  V30 12179 C 1151.92 -3.11452 5.02744 0
M  V30 12180 H 1150.85 -0.521976 0.544112 0
M  V30 12181 H 1153.5 -0.681725 1.70367 0
M  V30 12182 H 1151.89 -3.24771 2.26582 0
M  V30 12183 H 1153.06 -1.35135 4.4054 0
M  V30 12184 H 1151.37 -1.3715 3.93165 0
M  V30 12185 H 1153.97 -4.10624 3.42479 0
M  V30 12186 H 1154.31 -3.78027 1.7436 0
M  V30 12187 H 1154.85 -2.62494 2.98901 0
M  V30 12188 H 1151.59 -2.6707 5.98627 0
M  V30 12189 H 1151.11 -3.76514 4.66902 0
M  V30 12190 H 1152.79 -3.76265 5.2634 0
M  V30 12191 N 1152.92 -1.31168 -0.873655 0
M  V30 12192 C 1154.14 -1.23728 -1.66452 0
M  V30 12193 C 1154.57 0.194869 -1.87088 0
M  V30 12194 O 1153.93 1.1397 -1.40998 0
M  V30 12195 C 1153.97 -1.98285 -3.0119 0
M  V30 12196 O 1153.08 -1.31767 -3.90783 0
M  V30 12197 H 1152.42 -0.427362 -0.508191 0
M  V30 12198 H 1154.95 -1.73176 -1.08955 0
M  V30 12199 H 1154.96 -2.0774 -3.51153 0
M  V30 12200 H 1153.63 -3.02437 -2.8549 0
M  V30 12201 H 1152.21 -1.3074 -3.4923 0
M  V30 12202 N 1154.4 1.08748 -1.14068 0
M  V30 12203 C 1155.62 1.85353 -0.930532 0
M  V30 12204 C 1156.05 1.80892 0.515717 0
M  V30 12205 O 1155.4 1.19146 1.36652 0
M  V30 12206 C 1155.45 3.30962 -1.43167 0
M  V30 12207 O 1154.56 4.0769 -0.621468 0
M  V30 12208 H 1153.9 0.574485 -0.332962 0
M  V30 12209 H 1156.43 1.37282 -1.51707 0
M  V30 12210 H 1156.44 3.81807 -1.43832 0
M  V30 12211 H 1155.11 3.33524 -2.48464 0
M  V30 12212 H 1153.69 3.66587 -0.683267 0
M  V30 12213 N 1155.87 0.935264 1.26849 0
M  V30 12214 C 1157.1 0.596249 1.98122 0
M  V30 12215 C 1157.52 -0.827452 1.69702 0
M  V30 12216 O 1156.87 -1.55095 0.961864 0
M  V30 12217 C 1156.93 0.821773 3.52036 0
M  V30 12218 O 1156.65 2.18947 3.79465 0
M  V30 12219 C 1158.15 0.492498 4.40556 0
M  V30 12220 H 1155.37 0.225242 0.632066 0
M  V30 12221 H 1157.91 1.25435 1.61512 0
M  V30 12222 H 1156.07 0.210363 3.86828 0
M  V30 12223 H 1156.48 2.24509 4.74021 0
M  V30 12224 H 1157.95 0.700953 5.47531 0
M  V30 12225 H 1158.43 -0.57228 4.35456 0
M  V30 12226 H 1159.04 1.08238 4.11296 0
M  V30 12227 N 1157.35 -1.41121 0.701616 0
M  V30 12228 C 1158.32 -2.29148 0.0490091 0
M  V30 12229 C 1159.32 -1.44679 -0.701763 0
M  V30 12230 O 1160.51 -1.65757 -0.53575 0
M  V30 12231 C 1157.64 -3.2766 -0.940837 0
M  V30 12232 H 1158.83 -2.88354 0.824133 0
M  V30 12233 H 1156.38 -1.49209 0.465457 0
M  V30 12234 H 1157.12 -2.73445 -1.74351 0
M  V30 12235 H 1156.9 -3.89997 -0.405551 0
M  V30 12236 H 1158.39 -3.93609 -1.39507 0
M  V30 12237 N 1158.83 -0.446794 -1.51134 0
M  V30 12238 C 1160.06 0.117242 -2.07068 0
M  V30 12239 C 1160.48 1.34877 -1.3111 0
M  V30 12240 O 1159.84 1.77856 -0.35172 0
M  V30 12241 C 1159.89 0.408616 -3.58277 0
M  V30 12242 O 1158.99 1.49345 -3.84408 0
M  V30 12243 H 1158.33 -0.00228458 -0.663996 0
M  V30 12244 H 1160.86 -0.63085 -1.94632 0
M  V30 12245 H 1160.87 0.656298 -4.02687 0
M  V30 12246 H 1159.55 -0.491444 -4.12986 0
M  V30 12247 H 1158.12 1.23499 -3.51856 0
M  V30 12248 N 1160.31 1.56586 -0.178487 0
M  V30 12249 C 1161.24 2.21313 0.744486 0
M  V30 12250 C 1162.22 1.17098 1.23377 0
M  V30 12251 O 1163.4 1.45551 1.28563 0
M  V30 12252 C 1160.53 2.8595 1.97103 0
M  V30 12253 C 1159.49 3.96266 1.61732 0
M  V30 12254 C 1158.81 4.47987 2.91911 0
M  V30 12255 C 1160.11 5.15503 0.839868 0
M  V30 12256 H 1161.81 2.98698 0.204938 0
M  V30 12257 H 1159.35 1.43672 0.0971306 0
M  V30 12258 H 1161.31 3.29909 2.6218 0
M  V30 12259 H 1160.03 2.05946 2.53484 0
M  V30 12260 H 1158.69 3.52974 0.990208 0
M  V30 12261 H 1158.34 3.64765 3.46346 0
M  V30 12262 H 1158.04 5.22413 2.68995 0
M  V30 12263 H 1159.56 4.94637 3.58004 0
M  V30 12264 H 1160.98 5.5611 1.39337 0
M  V30 12265 H 1159.37 5.95891 0.709473 0
M  V30 12266 H 1160.44 4.84628 -0.162396 0
M  V30 12267 N 1161.79 -0.095206 1.57312 0
M  V30 12268 C 1163.2 -0.449411 1.53142 0
M  V30 12269 C 1163.4 -1.80523 0.895187 0
M  V30 12270 O 1162.46 -2.47746 0.487649 0
M  V30 12271 C 1163.77 -0.412002 2.97864 0
M  V30 12272 C 1165.32 -0.493866 3.09079 0
M  V30 12273 C 1165.79 -0.486606 4.55408 0
M  V30 12274 N 1167.29 -0.547363 4.59955 0
M  V30 12275 C 1168.02 -0.563582 5.70624 0
M  V30 12276 N 1167.52 -0.536015 6.90723 0
M  V30 12277 N 1169.31 -0.608385 5.58798 0
M  V30 12278 H 1161.46 0.792869 1.97047 0
M  V30 12279 H 1163.72 0.295106 0.900898 0
M  V30 12280 H 1163.43 0.517064 3.47878 0
M  V30 12281 H 1163.3 -1.23102 3.56547 0
M  V30 12282 H 1165.69 -1.41335 2.59053 0
M  V30 12283 H 1165.77 0.353286 2.53349 0
M  V30 12284 H 1165.42 0.428935 5.06086 0
M  V30 12285 H 1165.35 -1.35097 5.08976 0
M  V30 12286 H 1167.84 -0.573867 3.73517 0
M  V30 12287 H 1168.15 -0.551671 7.70828 0
M  V30 12288 H 1166.49 -0.503064 6.93177 0
M  V30 12289 H 1169.69 -0.627451 4.63876 0
M  V30 12290 H 1169.86 -0.617556 6.45051 0
M  V30 12291 N 1163.26 -1.53291 -0.366026 0
M  V30 12292 C 1164.23 -1.79025 -1.43117 0
M  V30 12293 C 1165.23 -0.660676 -1.46601 0
M  V30 12294 O 1166.42 -0.928875 -1.47369 0
M  V30 12295 C 1163.55 -1.91192 -2.82238 0
M  V30 12296 H 1164.74 -2.74154 -1.21572 0
M  V30 12297 H 1162.3 -1.44361 -0.599132 0
M  V30 12298 H 1163.03 -0.98129 -3.09097 0
M  V30 12299 H 1162.82 -2.7335 -2.81109 0
M  V30 12300 H 1164.31 -2.12696 -3.59375 0
M  V30 12301 N 1164.74 0.6258 -1.44643 0
M  V30 12302 C 1165.99 1.38525 -1.47706 0
M  V30 12303 C 1166.32 1.94179 -0.111703 0
M  V30 12304 O 1165.57 1.74432 0.887237 0
M  V30 12305 C 1165.87 2.56466 -2.48917 0
M  V30 12306 C 1165.54 2.19069 -3.94106 0
M  V30 12307 C 1164.2 2.08583 -4.33643 0
M  V30 12308 C 1166.55 1.89608 -4.85488 0
M  V30 12309 C 1163.88 1.66831 -5.6248 0
M  V30 12310 C 1166.23 1.49347 -6.14718 0
M  V30 12311 C 1164.9 1.37406 -6.53204 0
M  V30 12312 H 1164.17 0.506899 -0.540494 0
M  V30 12313 H 1166.81 0.709128 -1.77887 0
M  V30 12314 H 1165.12 3.29335 -2.12239 0
M  V30 12315 H 1166.81 3.14695 -2.48532 0
M  V30 12316 H 1163.4 2.28151 -3.62829 0
M  V30 12317 H 1167.59 1.96616 -4.55693 0
M  V30 12318 H 1162.84 1.56195 -5.91112 0
M  V30 12319 H 1167.02 1.2559 -6.84982 0
M  V30 12320 H 1164.65 1.04826 -7.52938 0
M  V30 12321 N 1166.22 1.31629 0.866686 0
M  V30 12322 C 1167.15 1.15377 1.98042 0
M  V30 12323 C 1168.17 0.0919633 1.6254 0
M  V30 12324 O 1169.35 0.339775 1.75236 0
M  V30 12325 C 1166.45 0.741295 3.30693 0
M  V30 12326 C 1165.63 1.88882 3.94516 0
M  V30 12327 C 1164.69 1.46186 5.05486 0
M  V30 12328 O 1163.71 2.17202 5.26129 0
M  V30 12329 N 1164.91 0.351096 5.79437 0
M  V30 12330 H 1167.68 2.11309 2.12529 0
M  V30 12331 H 1165.24 1.24007 1.04085 0
M  V30 12332 H 1167.23 0.438313 4.02319 0
M  V30 12333 H 1165.8 -0.12651 3.12344 0
M  V30 12334 H 1165.02 2.35894 3.15828 0
M  V30 12335 H 1166.31 2.65734 4.33892 0
M  V30 12336 H 1165.71 -0.240245 5.6519 0
M  V30 12337 H 1164.27 0.107663 6.51711 0
M  V30 12338 N 1167.7 -1.08142 1.14644 0
M  V30 12339 C 1169.11 -1.62061 0.926986 0
M  V30 12340 C 1169.46 -1.88805 -0.533578 0
M  V30 12341 O 1168.59 -1.64753 -1.40305 0
M  V30 12342 C 1169.18 -2.94425 1.67629 0
M  V30 12343 C 1167.74 -3.45118 1.50235 0
M  V30 12344 C 1166.89 -2.19307 1.69705 0
M  V30 12345 H 1169.84 -0.913326 1.29785 0
M  V30 12346 H 1169.86 -3.62987 1.14107 0
M  V30 12347 H 1169.37 -2.74928 2.73927 0
M  V30 12348 H 1167.47 -3.69713 0.462967 0
M  V30 12349 H 1167.59 -4.2169 2.27408 0
M  V30 12350 H 1165.95 -2.28611 1.12291 0
M  V30 12351 H 1166.73 -2.02315 2.77351 0
M  V30 12352 N 1169.18 -0.941978 -1.26351 0
M  V30 12353 C 1170.42 -0.589971 -1.93715 0
M  V30 12354 C 1170.75 0.871085 -1.73903 0
M  V30 12355 O 1170.01 1.63864 -1.06991 0
M  V30 12356 C 1170.31 -0.879481 -3.4641 0
M  V30 12357 C 1169.97 -2.32454 -3.86362 0
M  V30 12358 C 1168.63 -2.71957 -3.9698 0
M  V30 12359 C 1170.99 -3.2636 -4.06373 0
M  V30 12360 C 1168.31 -4.04459 -4.25006 0
M  V30 12361 C 1170.67 -4.58459 -4.35887 0
M  V30 12362 C 1169.33 -4.97775 -4.4472 0
M  V30 12363 H 1168.6 -0.215886 -0.708854 0
M  V30 12364 H 1171.25 -1.18863 -1.50146 0
M  V30 12365 H 1169.55 -0.198289 -3.91298 0
M  V30 12366 H 1171.25 -0.585887 -3.96697 0
M  V30 12367 H 1167.84 -2.00814 -3.78645 0
M  V30 12368 H 1172.02 -2.97037 -3.97596 0
M  V30 12369 H 1167.28 -4.34582 -4.30057 0
M  V30 12370 H 1171.45 -5.31213 -4.50317 0
M  V30 12371 H 1169.08 -6.00475 -4.66191 0
M  V30 12372 N 1170.66 1.40747 -0.709091 0
M  V30 12373 C 1171.9 2.01003 -0.24581 0
M  V30 12374 C 1172.23 1.56203 1.15891 0
M  V30 12375 O 1171.49 0.770166 1.79908 0
M  V30 12376 C 1171.78 3.56404 -0.266685 0
M  V30 12377 C 1171.45 4.20762 -1.6208 0
M  V30 12378 C 1170.11 4.38056 -1.99148 0
M  V30 12379 C 1172.46 4.56723 -2.51105 0
M  V30 12380 C 1169.79 4.88591 -3.248 0
M  V30 12381 C 1172.14 5.08654 -3.76103 0
M  V30 12382 C 1170.81 5.24158 -4.13297 0
M  V30 12383 H 1170.08 0.73552 -0.0899481 0
M  V30 12384 H 1172.73 1.68451 -0.910844 0
M  V30 12385 H 1171.03 3.88825 0.481915 0
M  V30 12386 H 1172.73 4.0085 0.109509 0
M  V30 12387 H 1169.32 4.07685 -1.32252 0
M  V30 12388 H 1173.5 4.43004 -2.23744 0
M  V30 12389 H 1168.76 4.98779 -3.53595 0
M  V30 12390 H 1172.93 5.35457 -4.45262 0
M  V30 12391 H 1170.56 5.63079 -5.10731 0
M  V30 12392 N 1172.13 0.454803 1.50895 0
M  V30 12393 C 1173.38 -0.105927 2.02523 0
M  V30 12394 C 1173.71 -1.40825 1.33724 0
M  V30 12395 O 1172.99 -1.89038 0.457683 0
M  V30 12396 C 1173.27 -0.306635 3.58792 0
M  V30 12397 C 1173.12 1.01556 4.38185 0
M  V30 12398 C 1174.44 -1.06858 4.2693 0
M  V30 12399 H 1171.56 -0.0370232 0.736069 0
M  V30 12400 H 1174.2 0.597215 1.8037 0
M  V30 12401 H 1172.35 -0.905563 3.77799 0
M  V30 12402 H 1174.03 1.64981 4.30789 0
M  V30 12403 H 1172.27 1.61608 4.02574 0
M  V30 12404 H 1172.94 0.828959 5.4574 0
M  V30 12405 H 1175.42 -0.561086 4.123 0
M  V30 12406 H 1174.29 -1.1778 5.36115 0
M  V30 12407 H 1174.55 -2.10111 3.8898 0
M  V30 12408 N 1173.61 -1.56489 0.186789 0
M  V30 12409 C 1174.52 -2.22304 -0.749543 0
M  V30 12410 C 1175.54 -1.21949 -1.24115 0
M  V30 12411 O 1176.71 -1.5466 -1.29005 0
M  V30 12412 C 1173.78 -2.863 -1.95533 0
M  V30 12413 C 1172.84 -4.01901 -1.5091 0
M  V30 12414 C 1172.07 -4.62837 -2.6574 0
M  V30 12415 O 1172.3 -4.22681 -3.8301 0
M  V30 12416 O 1171.23 -5.52446 -2.38929 0
M  V30 12417 H 1175.06 -3.02909 -0.21908 0
M  V30 12418 H 1172.64 -1.49341 -0.0421249 0
M  V30 12419 H 1174.52 -3.2682 -2.6602 0
M  V30 12420 H 1173.2 -2.08681 -2.47455 0
M  V30 12421 H 1172.1 -3.66021 -0.773261 0
M  V30 12422 H 1173.44 -4.8116 -1.03663 0
M  V30 12423 N 1175.09 0.086862 -1.5736 0
M  V30 12424 C 1176.02 1.10538 -2.05678 0
M  V30 12425 C 1177 1.41281 -0.947293 0
M  V30 12426 O 1178.19 1.51169 -1.21908 0
M  V30 12427 C 1175.32 2.42302 -2.48812 0
M  V30 12428 C 1174.27 2.25948 -3.63499 0
M  V30 12429 C 1173.6 3.62961 -3.92637 0
M  V30 12430 C 1174.9 1.69319 -4.94094 0
M  V30 12431 H 1176.59 0.703371 -2.91021 0
M  V30 12432 H 1174.14 0.336895 -1.40004 0
M  V30 12433 H 1176.09 3.13833 -2.81224 0
M  V30 12434 H 1174.81 2.84454 -1.60479 0
M  V30 12435 H 1173.47 1.5686 -3.31347 0
M  V30 12436 H 1173.12 4.02656 -3.01459 0
M  V30 12437 H 1172.82 3.52862 -4.69853 0
M  V30 12438 H 1174.34 4.35946 -4.27531 0
M  V30 12439 H 1175.76 2.30699 -5.24834 0
M  V30 12440 H 1174.15 1.69957 -5.7553 0
M  V30 12441 H 1175.22 0.653318 -4.80479 0
M  V30 12442 N 1176.57 1.53483 0.357892 0
M  V30 12443 C 1177.8 1.73956 1.12013 0
M  V30 12444 C 1178.21 0.472053 1.82803 0
M  V30 12445 O 1177.57 -0.555499 1.7384 0
M  V30 12446 C 1177.62 2.91015 2.14459 0
M  V30 12447 O 1177.34 4.12862 1.4655 0
M  V30 12448 C 1178.84 3.23423 3.0317 0
M  V30 12449 H 1176.06 0.58161 0.334621 0
M  V30 12450 H 1178.6 2.00256 0.414467 0
M  V30 12451 H 1176.76 2.67087 2.80612 0
M  V30 12452 H 1177.17 4.78468 2.14869 0
M  V30 12453 H 1178.65 4.08717 3.71018 0
M  V30 12454 H 1179.12 2.39114 3.68404 0
M  V30 12455 H 1179.73 3.49305 2.42624 0
M  V30 12456 N 1178.05 -0.61812 1.44973 0
M  V30 12457 C 1178.98 -1.74277 1.47318 0
M  V30 12458 C 1179.96 -1.59203 0.330627 0
M  V30 12459 O 1181.14 -1.80909 0.529558 0
M  V30 12460 C 1178.27 -3.11994 1.31823 0
M  V30 12461 C 1177.31 -3.45685 2.49809 0
M  V30 12462 S 1178.15 -3.41704 4.12309 0
M  V30 12463 C 1179.3 -4.82019 3.9926 0
M  V30 12464 H 1179.54 -1.72023 2.42478 0
M  V30 12465 H 1177.07 -0.793867 1.32428 0
M  V30 12466 H 1179.03 -3.9146 1.2357 0
M  V30 12467 H 1177.69 -3.11774 0.381521 0
M  V30 12468 H 1176.88 -4.45931 2.34864 0
M  V30 12469 H 1176.48 -2.73711 2.54869 0
M  V30 12470 H 1178.77 -5.71567 3.63754 0
M  V30 12471 H 1179.72 -5.02019 4.99382 0
M  V30 12472 H 1180.13 -4.57205 3.31095 0
M  V30 12473 N 1179.52 -1.32087 -0.859693 0
M  V30 12474 C 1180.93 -1.20107 -1.42938 0
M  V30 12475 C 1181.29 0.188411 -1.95293 0
M  V30 12476 O 1180.41 1.08683 -1.87128 0
M  V30 12477 C 1181.01 -2.17436 -2.59821 0
M  V30 12478 C 1179.56 -2.09359 -3.12803 0
M  V30 12479 C 1178.71 -2.06086 -1.85537 0
M  V30 12480 H 1181.66 -1.43989 -0.667302 0
M  V30 12481 H 1181.68 -1.76996 -3.36828 0
M  V30 12482 H 1181.2 -3.18555 -2.21685 0
M  V30 12483 H 1179.3 -1.1147 -3.55535 0
M  V30 12484 H 1179.41 -2.98947 -3.74389 0
M  V30 12485 H 1177.77 -1.51251 -2.04928 0
M  V30 12486 H 1178.56 -3.08978 -1.49625 0
M  V30 12487 N 1181 1.07532 -1.15215 0
M  V30 12488 C 1182.23 1.8355 -0.94831 0
M  V30 12489 C 1182.64 1.82289 0.506701 0
M  V30 12490 O 1181.98 1.23142 1.36314 0
M  V30 12491 C 1182.04 3.31834 -1.38298 0
M  V30 12492 C 1181.71 3.56818 -2.85535 0
M  V30 12493 C 1182.71 3.50915 -3.83608 0
M  V30 12494 C 1180.39 3.84543 -3.23159 0
M  V30 12495 C 1182.38 3.72382 -5.17311 0
M  V30 12496 C 1180.07 4.05662 -4.57036 0
M  V30 12497 C 1181.07 3.99576 -5.53921 0
M  V30 12498 O 1180.76 4.20132 -6.85379 0
M  V30 12499 H 1180.49 0.586014 -0.336992 0
M  V30 12500 H 1183.04 1.36656 -1.53344 0
M  V30 12501 H 1181.27 3.79529 -0.741244 0
M  V30 12502 H 1182.96 3.89312 -1.14853 0
M  V30 12503 H 1183.73 3.295 -3.55886 0
M  V30 12504 H 1179.61 3.88395 -2.48335 0
M  V30 12505 H 1183.15 3.67547 -5.92921 0
M  V30 12506 H 1179.05 4.26563 -4.84473 0
M  V30 12507 H 1179.82 4.3749 -6.91769 0
M  V30 12508 N 1182.48 0.948665 1.2585 0
M  V30 12509 C 1183.71 0.616741 1.98018 0
M  V30 12510 C 1184.13 -0.803005 1.70098 0
M  V30 12511 O 1183.49 -1.54208 0.953392 0
M  V30 12512 C 1183.54 0.874429 3.49837 0
M  V30 12513 O 1182.64 -0.0497568 4.1237 0
M  V30 12514 H 1181.98 0.235112 0.620982 0
M  V30 12515 H 1184.51 1.27364 1.60124 0
M  V30 12516 H 1184.52 0.798309 4.00114 0
M  V30 12517 H 1183.2 1.90922 3.69488 0
M  V30 12518 H 1181.77 0.0780591 3.72818 0
M  V30 12519 N 1183.96 -1.40369 0.716545 0
M  V30 12520 C 1185.2 -2.01167 0.256846 0
M  V30 12521 C 1185.54 -1.56689 -1.14727 0
M  V30 12522 O 1184.81 -0.787384 -1.7785 0
M  V30 12523 C 1185.1 -3.58511 0.337963 0
M  V30 12524 C 1184.95 -4.13059 1.78052 0
M  V30 12525 C 1186.27 -4.39142 -0.290295 0
M  V30 12526 H 1183.39 -0.730877 0.0948028 0
M  V30 12527 H 1186.03 -1.66833 0.909225 0
M  V30 12528 H 1184.18 -3.87891 -0.217482 0
M  V30 12529 H 1185.85 -3.94472 2.39143 0
M  V30 12530 H 1184.09 -3.67311 2.30793 0
M  V30 12531 H 1184.76 -5.22217 1.78867 0
M  V30 12532 H 1187.24 -4.15697 0.182987 0
M  V30 12533 H 1186.12 -5.48524 -0.203097 0
M  V30 12534 H 1186.38 -4.20209 -1.37394 0
M  V30 12535 N 1185.44 -0.462799 -1.50652 0
M  V30 12536 C 1186.69 0.0966838 -2.01468 0
M  V30 12537 C 1187 1.41529 -1.35014 0
M  V30 12538 O 1188.2 2.05923 -1.76941 0
M  V30 12539 C 1186.66 0.222826 -3.5921 0
M  V30 12540 C 1186.27 -1.08686 -4.34616 0
M  V30 12541 C 1188.01 0.734711 -4.18094 0
M  V30 12542 C 1185.92 -0.924964 -5.84122 0
M  V30 12543 H 1184.85 0.0399078 -0.752943 0
M  V30 12544 H 1187.5 -0.596437 -1.73536 0
M  V30 12545 H 1185.88 0.979539 -3.83694 0
M  V30 12546 H 1187.06 -1.85388 -4.21862 0
M  V30 12547 H 1185.37 -1.52922 -3.87303 0
M  V30 12548 H 1187.97 0.872734 -5.2753 0
M  V30 12549 H 1188.31 1.72389 -3.7893 0
M  V30 12550 H 1188.84 0.0356139 -3.97784 0
M  V30 12551 H 1185.58 -1.88727 -6.27744 0
M  V30 12552 H 1185.1 -0.198181 -5.99473 0
M  V30 12553 H 1186.78 -0.588262 -6.4432 0
M  V30 12554 N 1186.91 1.56388 -0.195085 0
M  V30 12555 C 1188.33 1.58788 0.160758 0
M  V30 12556 C 1188.53 1.21125 1.61031 0
M  V30 12557 O 1187.59 0.933994 2.34591 0
M  V30 12558 C 1188.9 3.00366 -0.141588 0
M  V30 12559 C 1190.45 3.12893 -0.0816947 0
M  V30 12560 C 1190.92 4.56604 -0.35735 0
M  V30 12561 N 1192.41 4.62188 -0.305968 0
M  V30 12562 C 1193.15 5.71276 -0.493108 0
M  V30 12563 N 1192.64 6.8883 -0.740595 0
M  V30 12564 N 1194.44 5.60473 -0.427365 0
M  V30 12565 H 1186.59 1.79151 -1.14099 0
M  V30 12566 H 1188.85 0.831446 -0.455413 0
M  V30 12567 H 1188.56 3.32483 -1.14666 0
M  V30 12568 H 1188.43 3.73082 0.555834 0
M  V30 12569 H 1190.82 2.80589 0.913978 0
M  V30 12570 H 1190.9 2.42564 -0.812193 0
M  V30 12571 H 1190.54 4.8962 -1.35034 0
M  V30 12572 H 1190.47 5.25124 0.394036 0
M  V30 12573 H 1192.96 3.77705 -0.121298 0
M  V30 12574 H 1193.28 7.67862 -0.872201 0
M  V30 12575 H 1191.62 6.90637 -0.777488 0
M  V30 12576 H 1194.81 4.67513 -0.234436 0
M  V30 12577 H 1194.99 6.45429 -0.576627 0
M  V30 12578 N 1188.39 -0.0785156 1.57404 0
M  V30 12579 C 1189.64 -0.777399 1.8655 0
M  V30 12580 C 1189.96 -1.78451 0.786142 0
M  V30 12581 O 1189.23 -1.95016 -0.185911 0
M  V30 12582 H 1187.81 -0.290097 0.688369 0
M  V30 12583 H 1190.47 -0.0562017 1.94819 0
M  V30 12584 H 1189.57 -1.29776 2.83839 0
M  V30 12585 N 1189.87 -1.5367 -0.349747 0
M  V30 12586 C 1190.78 -1.84207 -1.45275 0
M  V30 12587 C 1191.8 -0.731695 -1.57868 0
M  V30 12588 O 1192.97 -1.02337 -1.73462 0
M  V30 12589 C 1190.04 -2.0398 -2.80345 0
M  V30 12590 C 1189.1 -3.27853 -2.77148 0
M  V30 12591 C 1188.33 -3.46673 -4.05775 0
M  V30 12592 O 1188.55 -2.69457 -5.02741 0
M  V30 12593 O 1187.49 -4.40082 -4.10623 0
M  V30 12594 H 1191.31 -2.77947 -1.22389 0
M  V30 12595 H 1188.9 -1.39247 -0.541345 0
M  V30 12596 H 1190.78 -2.18466 -3.60348 0
M  V30 12597 H 1189.46 -1.13429 -3.03176 0
M  V30 12598 H 1188.36 -3.18776 -1.95787 0
M  V30 12599 H 1189.7 -4.18377 -2.59271 0
M  V30 12600 N 1191.35 0.610423 -1.45298 0
M  V30 12601 C 1192.31 1.70324 -1.5337 0
M  V30 12602 C 1193.31 1.55393 -0.413492 0
M  V30 12603 O 1194.5 1.60512 -0.676872 0
M  V30 12604 C 1191.63 3.09572 -1.42752 0
M  V30 12605 H 1192.83 1.64535 -2.50736 0
M  V30 12606 H 1190.38 0.825906 -1.32697 0
M  V30 12607 H 1191.11 3.2094 -0.465601 0
M  V30 12608 H 1190.9 3.21817 -2.24 0
M  V30 12609 H 1192.39 3.89178 -1.51427 0
M  V30 12610 N 1192.83 1.32541 0.852676 0
M  V30 12611 C 1194.07 1.23214 1.607 0
M  V30 12612 C 1194.4 -0.205542 1.93411 0
M  V30 12613 O 1193.66 -1.15907 1.57683 0
M  V30 12614 C 1193.96 2.039 2.9353 0
M  V30 12615 C 1193.62 3.53237 2.8024 0
M  V30 12616 C 1192.28 3.93953 2.76323 0
M  V30 12617 C 1194.64 4.48194 2.6603 0
M  V30 12618 C 1191.96 5.27865 2.56077 0
M  V30 12619 C 1194.32 5.82251 2.47319 0
M  V30 12620 C 1192.98 6.22166 2.41796 0
M  V30 12621 H 1192.25 0.450873 0.588043 0
M  V30 12622 H 1194.9 1.63988 0.988954 0
M  V30 12623 H 1193.2 1.55861 3.59464 0
M  V30 12624 H 1194.9 1.94051 3.50921 0
M  V30 12625 H 1191.49 3.209 2.84114 0
M  V30 12626 H 1195.67 4.17656 2.681 0
M  V30 12627 H 1190.93 5.57845 2.50237 0
M  V30 12628 H 1195.1 6.55442 2.35305 0
M  V30 12629 H 1192.73 7.2587 2.25868 0
M  V30 12630 N 1194.3 -1.0692 1.15784 0
M  V30 12631 C 1195.53 -1.8331 0.959422 0
M  V30 12632 C 1195.95 -1.82268 -0.492332 0
M  V30 12633 O 1195.3 -1.23727 -1.34156 0
M  V30 12634 C 1195.36 -3.30202 1.47135 0
M  V30 12635 O 1195.08 -3.31328 2.86624 0
M  V30 12636 C 1196.58 -4.23346 1.31504 0
M  V30 12637 H 1193.8 -0.578202 0.340475 0
M  V30 12638 H 1196.34 -1.34939 1.53661 0
M  V30 12639 H 1194.5 -3.75908 0.936587 0
M  V30 12640 H 1194.91 -4.23135 3.0993 0
M  V30 12641 H 1196.38 -5.24465 1.72163 0
M  V30 12642 H 1196.86 -4.38431 0.259773 0
M  V30 12643 H 1197.47 -3.8348 1.83911 0
M  V30 12644 N 1195.78 -0.955326 -1.25345 0
M  V30 12645 C 1196.71 -0.494145 -2.28211 0
M  V30 12646 C 1197.69 0.459875 -1.63766 0
M  V30 12647 O 1198.88 0.358679 -1.90859 0
M  V30 12648 C 1196.01 0.228228 -3.46549 0
M  V30 12649 C 1194.96 -0.640601 -4.23179 0
M  V30 12650 C 1194.29 0.212553 -5.34277 0
M  V30 12651 C 1195.59 -1.91906 -4.85767 0
M  V30 12652 H 1197.28 -1.35391 -2.67039 0
M  V30 12653 H 1194.83 -0.652462 -1.2837 0
M  V30 12654 H 1196.78 0.561995 -4.17636 0
M  V30 12655 H 1195.51 1.12224 -3.06714 0
M  V30 12656 H 1194.16 -0.957462 -3.53876 0
M  V30 12657 H 1193.81 1.10634 -4.90682 0
M  V30 12658 H 1193.51 -0.365473 -5.86462 0
M  V30 12659 H 1195.04 0.541271 -6.08196 0
M  V30 12660 H 1196.45 -1.65165 -5.48993 0
M  V30 12661 H 1194.85 -2.44279 -5.48131 0
M  V30 12662 H 1195.92 -2.62173 -4.07914 0
M  V30 12663 N 1197.26 1.39987 -0.723979 0
M  V30 12664 C 1198.21 2.30672 -0.0768286 0
M  V30 12665 C 1199.18 1.48634 0.741422 0
M  V30 12666 O 1200.36 1.77351 0.703649 0
M  V30 12667 C 1197.5 3.34902 0.832729 0
M  V30 12668 C 1196.62 4.32 0.00304942 0
M  V30 12669 C 1195.75 5.23298 0.91286 0
M  V30 12670 C 1194.79 6.12051 0.0777706 0
M  V30 12671 N 1193.93 6.9574 0.942912 0
M  V30 12672 H 1198.77 2.85446 -0.855832 0
M  V30 12673 H 1196.3 1.40561 -0.433718 0
M  V30 12674 H 1198.26 3.93911 1.37441 0
M  V30 12675 H 1196.89 2.81611 1.57782 0
M  V30 12676 H 1195.94 3.74702 -0.655916 0
M  V30 12677 H 1197.26 4.94637 -0.643124 0
M  V30 12678 H 1196.41 5.87279 1.52277 0
M  V30 12679 H 1195.15 4.60956 1.59284 0
M  V30 12680 H 1194.15 5.47092 -0.545022 0
M  V30 12681 H 1195.38 6.76455 -0.598827 0
M  V30 12682 H 1193.33 6.35977 1.60838 0
M  V30 12683 H 1193.24 7.55176 0.352968 0
M  V30 12684 H 1194.51 7.64162 1.53874 0
M  V30 12685 N 1198.74 0.470782 1.50404 0
M  V30 12686 C 1199.7 -0.312227 2.27063 0
M  V30 12687 C 1200.7 -0.920709 1.31832 0
M  V30 12688 O 1201.89 -0.789937 1.5526 0
M  V30 12689 C 1199.02 -1.44477 3.0877 0
M  V30 12690 H 1200.22 0.36006 2.97731 0
M  V30 12691 H 1197.77 0.224837 1.54674 0
M  V30 12692 H 1198.51 -2.15212 2.42599 0
M  V30 12693 H 1198.29 -1.01426 3.78755 0
M  V30 12694 H 1199.78 -1.99713 3.66749 0
M  V30 12695 N 1200.22 -1.56282 0.203376 0
M  V30 12696 C 1201.45 -2.02198 -0.438572 0
M  V30 12697 C 1201.86 -1.08343 -1.54619 0
M  V30 12698 O 1201.22 -0.0897594 -1.82279 0
M  V30 12699 C 1201.27 -3.4776 -0.987184 0
M  V30 12700 O 1200.99 -4.38034 0.0762552 0
M  V30 12701 C 1202.49 -4.09234 -1.70419 0
M  V30 12702 H 1199.71 -0.662041 -0.109282 0
M  V30 12703 H 1202.25 -2.02067 0.314509 0
M  V30 12704 H 1200.41 -3.48564 -1.69061 0
M  V30 12705 H 1200.82 -5.2344 -0.333322 0
M  V30 12706 H 1202.3 -5.1291 -2.04027 0
M  V30 12707 H 1202.77 -3.53172 -2.61087 0
M  V30 12708 H 1203.38 -4.12226 -1.04641 0
M  V30 12709 N 1201.7 0.070167 -1.57444 0
M  V30 12710 C 1202.94 0.770153 -1.87607 0
M  V30 12711 C 1203.27 1.77143 -0.795875 0
M  V30 12712 O 1202.55 1.93533 0.193674 0
M  V30 12713 C 1202.83 1.47668 -3.2843 0
M  V30 12714 C 1202.69 0.491712 -4.47104 0
M  V30 12715 C 1204 2.42118 -3.67514 0
M  V30 12716 H 1201.12 0.278519 -0.682346 0
M  V30 12717 H 1203.77 0.0333184 -1.89971 0
M  V30 12718 H 1201.92 2.10476 -3.26546 0
M  V30 12719 H 1203.59 -0.131283 -4.61113 0
M  V30 12720 H 1201.83 -0.192817 -4.33371 0
M  V30 12721 H 1202.5 1.02372 -5.42424 0
M  V30 12722 H 1204.98 1.89387 -3.70502 0
M  V30 12723 H 1203.85 2.88556 -4.66933 0
M  V30 12724 H 1204.11 3.26995 -2.97534 0
M  V30 12725 N 1203.17 1.53854 0.341593 0
M  V30 12726 C 1204.1 1.84966 1.42513 0
M  V30 12727 C 1205.08 0.704944 1.54805 0
M  V30 12728 O 1206.27 0.957036 1.68981 0
M  V30 12729 C 1203.4 2.06099 2.79536 0
M  V30 12730 C 1202.35 3.21919 2.82049 0
M  V30 12731 C 1201.68 3.28389 4.21977 0
M  V30 12732 C 1202.98 4.59984 2.4741 0
M  V30 12733 H 1204.67 2.7571 1.16724 0
M  V30 12734 H 1202.22 1.32662 0.560073 0
M  V30 12735 H 1204.17 2.26448 3.55386 0
M  V30 12736 H 1202.9 1.12087 3.06764 0
M  V30 12737 H 1201.56 3.01429 2.08653 0
M  V30 12738 H 1201.2 2.3197 4.46317 0
M  V30 12739 H 1200.9 4.0622 4.24569 0
M  V30 12740 H 1202.43 3.50951 4.99666 0
M  V30 12741 H 1203.84 4.80334 3.12973 0
M  V30 12742 H 1202.24 5.40233 2.61282 0
M  V30 12743 H 1203.31 4.6346 1.42594 0
M  V30 12744 N 1204.65 -0.602709 1.4562 0
M  V30 12745 C 1205.6 -1.73425 1.55005 0
M  V30 12746 C 1206.59 -1.64118 0.419713 0
M  V30 12747 O 1207.8 -1.69853 0.595815 0
M  V30 12748 H 1204.17 -0.573038 0.486962 0
M  V30 12749 H 1206.15 -1.62637 2.50184 0
M  V30 12750 C 1204.89 -3.11808 1.53853 0
M  V30 12751 H 1204.22 -3.19631 2.40158 0
M  V30 12752 H 1205.66 -3.90798 1.64477 0
M  V30 12753 C 1204.12 -3.35866 0.263765 0
M  V30 12754 O 1204.65 -3.96334 -0.654364 0
M  V30 12755 N 1202.85 -2.90171 0.157927 0
M  V30 12756 H 1202.4 -2.41144 0.905944 0
M  V30 12757 H 1202.36 -3.06641 -0.694175 0
M  V30 12758 N 1206.13 -1.32992 -0.845635 0
M  V30 12759 C 1207.36 -1.26903 -1.63031 0
M  V30 12760 C 1207.77 0.163589 -1.88491 0
M  V30 12761 O 1207.11 1.11402 -1.46066 0
M  V30 12762 C 1207.17 -1.96843 -3.00821 0
M  V30 12763 C 1206.84 -3.46164 -2.98362 0
M  V30 12764 C 1207.83 -4.41488 -2.74562 0
M  V30 12765 C 1205.52 -3.88237 -3.18712 0
M  V30 12766 C 1207.51 -5.7686 -2.71129 0
M  V30 12767 C 1205.2 -5.23715 -3.14905 0
M  V30 12768 C 1206.2 -6.17838 -2.91144 0
M  V30 12769 O 1205.89 -7.50836 -2.87228 0
M  V30 12770 H 1205.62 -0.438806 -0.514223 0
M  V30 12771 H 1208.17 -1.75817 -1.06196 0
M  V30 12772 H 1206.4 -1.42511 -3.59482 0
M  V30 12773 H 1208.09 -1.84343 -3.61625 0
M  V30 12774 H 1208.86 -4.10308 -2.58598 0
M  V30 12775 H 1204.74 -3.1539 -3.36229 0
M  V30 12776 H 1208.28 -6.50299 -2.52502 0
M  V30 12777 H 1204.18 -5.54523 -3.30416 0
M  V30 12778 H 1204.94 -7.60304 -3.03118 0
M  V30 12779 N 1207.61 1.06304 -1.1635 0
M  V30 12780 C 1208.54 2.15745 -0.893103 0
M  V30 12781 C 1209.52 1.69341 0.160531 0
M  V30 12782 O 1210.7 1.94196 0.0126526 0
M  V30 12783 C 1207.83 3.45066 -0.393287 0
M  V30 12784 C 1206.79 4.04978 -1.38482 0
M  V30 12785 C 1206.11 5.29507 -0.743409 0
M  V30 12786 C 1207.41 4.4377 -2.75438 0
M  V30 12787 H 1209.11 2.38622 -1.80831 0
M  V30 12788 H 1206.65 1.14681 -0.870878 0
M  V30 12789 H 1208.61 4.20964 -0.191607 0
M  V30 12790 H 1207.33 3.21808 0.557426 0
M  V30 12791 H 1205.99 3.31136 -1.57304 0
M  V30 12792 H 1205.64 5.02545 0.213787 0
M  V30 12793 H 1205.34 5.7055 -1.40521 0
M  V30 12794 H 1206.86 6.08102 -0.551746 0
M  V30 12795 H 1208.28 5.1075 -2.60398 0
M  V30 12796 H 1206.67 4.95797 -3.38091 0
M  V30 12797 H 1207.74 3.54636 -3.30699 0
M  V30 12798 N 1209.09 0.96196 1.24836 0
M  V30 12799 C 1210.5 0.660388 1.7463 0
M  V30 12800 C 1210.85 -0.824064 1.78055 0
M  V30 12801 O 1209.97 -1.64485 1.40619 0
M  V30 12802 C 1210.57 1.19205 3.17137 0
M  V30 12803 C 1209.13 0.940493 3.64461 0
M  V30 12804 C 1208.27 1.33076 2.43282 0
M  V30 12805 H 1211.22 1.13794 1.1062 0
M  V30 12806 H 1211.25 0.555595 3.76422 0
M  V30 12807 H 1210.76 2.27247 3.14612 0
M  V30 12808 H 1208.86 -0.124645 3.72391 0
M  V30 12809 H 1208.97 1.5821 4.52224 0
M  V30 12810 H 1207.34 0.749139 2.43434 0
M  V30 12811 H 1208.12 2.42055 2.43442 0
M  V30 12812 N 1210.56 -1.39601 0.731392 0
M  V30 12813 C 1211.51 -2.30628 0.0890606 0
M  V30 12814 C 1212.48 -1.49025 -0.73353 0
M  V30 12815 O 1213.67 -1.77722 -0.694234 0
M  V30 12816 C 1210.81 -3.35339 -0.814956 0
M  V30 12817 C 1209.92 -4.31995 0.0198606 0
M  V30 12818 C 1209.05 -5.23774 -0.885095 0
M  V30 12819 C 1208.09 -6.12083 -0.045311 0
M  V30 12820 N 1207.23 -6.9623 -0.906002 0
M  V30 12821 H 1212.07 -2.84988 0.870958 0
M  V30 12822 H 1209.61 -1.40329 0.441166 0
M  V30 12823 H 1211.56 -3.94634 -1.3535 0
M  V30 12824 H 1210.19 -2.82443 -1.56287 0
M  V30 12825 H 1209.25 -3.74349 0.675778 0
M  V30 12826 H 1210.56 -4.94289 0.669346 0
M  V30 12827 H 1209.71 -5.88078 -1.49161 0
M  V30 12828 H 1208.45 -4.61794 -1.56837 0
M  V30 12829 H 1207.46 -5.46795 0.574028 0
M  V30 12830 H 1208.68 -6.76128 0.634692 0
M  V30 12831 H 1206.63 -6.36821 -1.57463 0
M  V30 12832 H 1206.54 -7.55352 -0.312914 0
M  V30 12833 H 1207.81 -7.64967 -1.49819 0
M  V30 12834 N 1212.04 -0.478751 -1.50152 0
M  V30 12835 C 1213.28 0.0722328 -2.04272 0
M  V30 12836 C 1213.65 1.36299 -1.35227 0
M  V30 12837 O 1214.85 1.99683 -1.79945 0
M  V30 12838 C 1213.12 0.24408 -3.56566 0
M  V30 12839 S 1214.68 0.752517 -4.32299 0
M  V30 12840 H 1211.5 0.0123326 -0.710893 0
M  V30 12841 H 1214.1 -0.647641 -1.84461 0
M  V30 12842 H 1212.8 -0.701012 -4.04369 0
M  V30 12843 H 1212.33 0.989845 -3.80744 0
M  V30 12844 H 1214.35 2.02488 -4.53005 0
M  V30 12845 N 1213.52 1.56172 -0.211661 0
M  V30 12846 C 1214.77 1.97214 0.423008 0
M  V30 12847 C 1215.08 1.10203 1.616 0
M  V30 12848 O 1216.29 1.411 2.31955 0
M  V30 12849 C 1214.74 3.50805 0.803977 0
M  V30 12850 C 1214.35 4.46505 -0.365654 0
M  V30 12851 C 1216.1 4.00582 1.4048 0
M  V30 12852 C 1214 5.91388 0.0371986 0
M  V30 12853 H 1212.93 0.736432 0.161814 0
M  V30 12854 H 1215.58 1.80925 -0.306307 0
M  V30 12855 H 1213.97 3.62659 1.59043 0
M  V30 12856 H 1215.14 4.46394 -1.14321 0
M  V30 12857 H 1213.46 4.07015 -0.879061 0
M  V30 12858 H 1216.05 5.06317 1.71894 0
M  V30 12859 H 1216.4 3.45853 2.31713 0
M  V30 12860 H 1216.93 3.9191 0.681984 0
M  V30 12861 H 1213.67 6.50078 -0.841367 0
M  V30 12862 H 1213.19 5.94716 0.77927 0
M  V30 12863 H 1214.87 6.4531 0.467309 0
M  V30 12864 N 1215 -0.0618163 1.57479 0
M  V30 12865 C 1216.41 -0.416827 1.54061 0
M  V30 12866 C 1216.61 -1.78584 0.933277 0
M  V30 12867 O 1215.67 -2.46656 0.54009 0
M  V30 12868 C 1216.98 -0.348728 2.98671 0
M  V30 12869 C 1218.53 -0.428194 3.10057 0
M  V30 12870 C 1219.01 -0.389898 4.56337 0
M  V30 12871 N 1220.5 -0.449677 4.61012 0
M  V30 12872 C 1221.23 -0.442418 5.71691 0
M  V30 12873 N 1220.73 -0.389381 6.91705 0
M  V30 12874 N 1222.52 -0.489719 5.59963 0
M  V30 12875 H 1214.67 0.834487 1.9532 0
M  V30 12876 H 1216.94 0.314149 0.894435 0
M  V30 12877 H 1216.64 0.590738 3.46703 0
M  V30 12878 H 1216.52 -1.15511 3.59078 0
M  V30 12879 H 1218.9 -1.35808 2.61992 0
M  V30 12880 H 1218.98 0.406946 2.52542 0
M  V30 12881 H 1218.63 0.536186 5.05062 0
M  V30 12882 H 1218.56 -1.24271 5.11727 0
M  V30 12883 H 1221.05 -0.49451 3.74651 0
M  V30 12884 H 1221.36 -0.388042 7.71825 0
M  V30 12885 H 1219.71 -0.355918 6.94088 0
M  V30 12886 H 1222.9 -0.528915 4.65102 0
M  V30 12887 H 1223.07 -0.480592 6.46215 0
M  V30 12888 N 1216.48 -1.54033 -0.333429 0
M  V30 12889 C 1217.72 -1.72019 -1.07411 0
M  V30 12890 C 1218.06 -0.487265 -1.87988 0
M  V30 12891 O 1217.33 0.515757 -1.87537 0
M  V30 12892 C 1217.61 -2.98986 -2.00698 0
M  V30 12893 C 1217.47 -4.32509 -1.23517 0
M  V30 12894 C 1218.79 -3.21663 -3.00368 0
M  V30 12895 H 1215.9 -0.625919 -0.389094 0
M  V30 12896 H 1218.55 -1.86717 -0.351697 0
M  V30 12897 H 1216.7 -2.86586 -2.62298 0
M  V30 12898 H 1218.37 -4.56775 -0.644522 0
M  V30 12899 H 1216.61 -4.3046 -0.537298 0
M  V30 12900 H 1217.28 -5.17547 -1.91962 0
M  V30 12901 H 1219.76 -3.33459 -2.48886 0
M  V30 12902 H 1218.63 -4.11877 -3.62834 0
M  V30 12903 H 1218.9 -2.3843 -3.72295 0
M  V30 12904 N 1217.95 0.594978 -1.45938 0
M  V30 12905 C 1219.18 1.38482 -1.54394 0
M  V30 12906 C 1219.6 1.87222 -0.181563 0
M  V30 12907 O 1218.96 1.60869 0.836119 0
M  V30 12908 C 1219.01 2.55676 -2.54287 0
M  V30 12909 O 1218.11 3.5672 -2.06941 0
M  V30 12910 H 1217.46 0.412918 -0.519995 0
M  V30 12911 H 1219.99 0.722899 -1.91404 0
M  V30 12912 H 1220 3.02756 -2.73501 0
M  V30 12913 H 1218.67 2.19552 -3.53228 0
M  V30 12914 H 1217.25 3.16204 -1.97661 0
M  V30 12915 N 1219.43 1.33438 0.838571 0
M  V30 12916 C 1220.68 1.25097 1.5962 0
M  V30 12917 C 1221.01 -0.182798 1.93338 0
M  V30 12918 O 1220.29 -1.1242 1.5872 0
M  V30 12919 C 1220.57 2.12655 2.90603 0
M  V30 12920 C 1220.42 3.64491 2.63565 0
M  V30 12921 C 1221.74 1.99994 3.92033 0
M  V30 12922 H 1218.86 0.455776 0.579169 0
M  V30 12923 H 1221.5 1.63542 0.967169 0
M  V30 12924 H 1219.65 1.79998 3.44286 0
M  V30 12925 H 1221.32 4.0744 2.16312 0
M  V30 12926 H 1219.57 3.86356 1.9726 0
M  V30 12927 H 1220.24 4.21101 3.569 0
M  V30 12928 H 1222.71 2.28635 3.47657 0
M  V30 12929 H 1221.59 2.63509 4.81512 0
M  V30 12930 H 1221.85 0.972263 4.31277 0
M  V30 12931 N 1220.91 -1.05686 1.16912 0
M  V30 12932 C 1221.84 -2.1329 0.839044 0
M  V30 12933 C 1222.86 -1.62047 -0.156392 0
M  V30 12934 O 1224.04 -1.78366 0.0692192 0
M  V30 12935 C 1221.14 -3.38122 0.229558 0
M  V30 12936 C 1220.32 -4.18659 1.26662 0
M  V30 12937 C 1219.38 -5.21842 0.675811 0
M  V30 12938 O 1218.4 -5.53049 1.3463 0
M  V30 12939 N 1219.6 -5.78034 -0.534532 0
M  V30 12940 H 1222.37 -2.42203 1.76515 0
M  V30 12941 H 1219.93 -1.2174 1.06729 0
M  V30 12942 H 1221.92 -4.04305 -0.178868 0
M  V30 12943 H 1220.49 -3.06783 -0.60023 0
M  V30 12944 H 1219.71 -3.4804 1.85099 0
M  V30 12945 H 1221 -4.6927 1.9663 0
M  V30 12946 H 1220.4 -5.54955 -1.09731 0
M  V30 12947 H 1218.96 -6.45763 -0.885087 0
M  V30 12948 N 1222.39 -0.968567 -1.24324 0
M  V30 12949 C 1223.32 -0.518323 -2.27674 0
M  V30 12950 C 1224.3 0.442479 -1.64244 0
M  V30 12951 O 1225.48 0.338416 -1.91229 0
M  V30 12952 C 1222.61 0.191459 -3.46772 0
M  V30 12953 C 1221.57 -0.685449 -4.22476 0
M  V30 12954 C 1220.89 0.155873 -5.34473 0
M  V30 12955 C 1222.19 -1.97047 -4.83704 0
M  V30 12956 H 1223.89 -1.38215 -2.65588 0
M  V30 12957 H 1221.43 -0.66604 -1.27671 0
M  V30 12958 H 1223.39 0.517667 -4.18208 0
M  V30 12959 H 1222.11 1.08965 -3.07887 0
M  V30 12960 H 1220.77 -0.994942 -3.52841 0
M  V30 12961 H 1220.42 1.05424 -4.91828 0
M  V30 12962 H 1220.12 -0.427655 -5.86042 0
M  V30 12963 H 1221.64 0.476733 -6.08736 0
M  V30 12964 H 1223.06 -1.70979 -5.4721 0
M  V30 12965 H 1221.45 -2.50079 -5.45509 0
M  V30 12966 H 1222.52 -2.66484 -4.0511 0
M  V30 12967 N 1223.87 1.39211 -0.738786 0
M  V30 12968 C 1224.78 2.34374 -0.102958 0
M  V30 12969 C 1225.79 1.58514 0.717596 0
M  V30 12970 O 1226.97 1.90786 0.645186 0
M  V30 12971 C 1224.03 3.37562 0.790733 0
M  V30 12972 C 1223.09 4.29279 -0.0425028 0
M  V30 12973 C 1222.33 5.27539 0.808628 0
M  V30 12974 O 1222.55 5.32396 2.04722 0
M  V30 12975 O 1221.48 6.0144 0.235279 0
M  V30 12976 H 1225.31 2.90412 -0.888498 0
M  V30 12977 H 1222.9 1.40803 -0.499498 0
M  V30 12978 H 1224.78 4.00783 1.30196 0
M  V30 12979 H 1223.45 2.83903 1.55502 0
M  V30 12980 H 1222.36 3.69268 -0.599335 0
M  V30 12981 H 1223.69 4.86154 -0.7691 0
M  V30 12982 N 1225.34 0.486708 1.49896 0
M  V30 12983 C 1226.31 -0.288126 2.27382 0
M  V30 12984 C 1227.31 -0.906675 1.32801 0
M  V30 12985 O 1228.5 -0.773425 1.56089 0
M  V30 12986 C 1225.63 -1.41194 3.10285 0
M  V30 12987 H 1226.82 0.391618 2.97332 0
M  V30 12988 H 1224.38 0.24123 1.54427 0
M  V30 12989 H 1225.11 -2.12627 2.44868 0
M  V30 12990 H 1224.9 -0.974033 3.79809 0
M  V30 12991 H 1226.39 -1.95812 3.68846 0
M  V30 12992 N 1226.82 -1.56058 0.219941 0
M  V30 12993 C 1228.05 -2.031 -0.42014 0
M  V30 12994 C 1228.47 -1.09875 -1.52673 0
M  V30 12995 O 1227.83 -0.0866458 -1.81093 0
M  V30 12996 C 1227.88 -3.48389 -0.93047 0
M  V30 12997 O 1226.98 -3.583 -2.04192 0
M  V30 12998 H 1226.32 -0.657129 -0.0952772 0
M  V30 12999 H 1228.85 -2.01787 0.338105 0
M  V30 13000 H 1228.86 -3.88678 -1.2407 0
M  V30 13001 H 1227.54 -4.15725 -0.120539 0
M  V30 13002 H 1226.12 -3.29898 -1.73845 0
M  V30 13003 N 1228.3 0.053464 -1.57509 0
M  V30 13004 C 1229.71 0.603099 -1.76691 0
M  V30 13005 C 1230.06 1.76934 -0.847861 0
M  V30 13006 O 1229.19 2.16369 -0.0364962 0
M  V30 13007 C 1229.78 1.10084 -3.20417 0
M  V30 13008 C 1228.34 1.59618 -3.4088 0
M  V30 13009 C 1227.49 0.523516 -2.72313 0
M  V30 13010 H 1230.44 -0.172751 -1.57757 0
M  V30 13011 H 1230.46 1.9691 -3.25587 0
M  V30 13012 H 1229.97 0.251818 -3.87282 0
M  V30 13013 H 1228.07 2.46786 -2.79155 0
M  V30 13014 H 1228.19 1.6605 -4.49404 0
M  V30 13015 H 1226.55 0.972886 -2.35387 0
M  V30 13016 H 1227.33 -0.315629 -3.41846 0
M  V30 13017 N 1229.78 1.54207 0.325255 0
M  V30 13018 C 1230.74 1.82757 1.38321 0
M  V30 13019 C 1231.74 0.699312 1.44797 0
M  V30 13020 O 1232.93 0.96762 1.44854 0
M  V30 13021 C 1230.06 1.98608 2.7707 0
M  V30 13022 H 1231.26 2.7728 1.14261 0
M  V30 13023 H 1228.81 1.45899 0.560647 0
M  V30 13024 H 1229.55 1.0629 3.06387 0
M  V30 13025 H 1229.33 2.80707 2.73763 0
M  V30 13026 H 1230.82 2.2215 3.53609 0
M  V30 13027 N 1231.26 -0.58723 1.46251 0
M  V30 13028 C 1232.5 -1.3456 1.51327 0
M  V30 13029 C 1232.83 -1.93815 0.163146 0
M  V30 13030 O 1232.09 -1.76723 -0.840677 0
M  V30 13031 C 1232.39 -2.49776 2.5563 0
M  V30 13032 C 1232.05 -2.08543 3.99776 0
M  V30 13033 C 1230.71 -1.97013 4.39021 0
M  V30 13034 C 1233.07 -1.76669 4.90344 0
M  V30 13035 C 1230.39 -1.5186 5.66706 0
M  V30 13036 C 1232.75 -1.32996 6.18462 0
M  V30 13037 C 1231.41 -1.20039 6.56618 0
M  V30 13038 H 1230.68 -0.492391 0.553744 0
M  V30 13039 H 1233.33 -0.661715 1.79704 0
M  V30 13040 H 1231.63 -3.23592 2.20897 0
M  V30 13041 H 1233.33 -3.07995 2.56788 0
M  V30 13042 H 1229.92 -2.18451 3.68751 0
M  V30 13043 H 1234.1 -1.84465 4.60746 0
M  V30 13044 H 1229.36 -1.40467 5.95045 0
M  V30 13045 H 1233.53 -1.07385 6.88071 0
M  V30 13046 H 1231.16 -0.848268 7.55452 0
M  V30 13047 N 1232.74 -1.33881 -0.831482 0
M  V30 13048 C 1233.67 -1.27384 -1.95693 0
M  V30 13049 C 1234.65 -0.152943 -1.69411 0
M  V30 13050 O 1235.83 -0.34392 -1.9113 0
M  V30 13051 C 1232.96 -1.01982 -3.31989 0
M  V30 13052 C 1231.92 -2.10445 -3.72689 0
M  V30 13053 C 1231.24 -1.70245 -5.06873 0
M  V30 13054 C 1232.54 -3.52194 -3.8569 0
M  V30 13055 H 1234.24 -2.21549 -2.01386 0
M  V30 13056 H 1231.78 -1.06653 -0.967526 0
M  V30 13057 H 1233.73 -0.960841 -4.103 0
M  V30 13058 H 1232.46 -0.0425709 -3.26572 0
M  V30 13059 H 1231.12 -2.15398 -2.96647 0
M  V30 13060 H 1230.77 -0.712036 -4.97935 0
M  V30 13061 H 1230.47 -2.42834 -5.35075 0
M  V30 13062 H 1231.99 -1.65827 -5.87651 0
M  V30 13063 H 1233.4 -3.49701 -4.54293 0
M  V30 13064 H 1231.8 -4.23331 -4.25336 0
M  V30 13065 H 1232.87 -3.9016 -2.87929 0
M  V30 13066 N 1234.21 1.05064 -1.1747 0
M  V30 13067 C 1235.18 2.1101 -0.89485 0
M  V30 13068 C 1236.18 1.60384 0.11553 0
M  V30 13069 O 1237.37 1.73808 -0.116785 0
M  V30 13070 C 1234.5 3.39194 -0.340642 0
M  V30 13071 H 1235.69 2.37269 -1.83421 0
M  V30 13072 H 1233.24 1.21329 -0.985343 0
M  V30 13073 H 1233.98 3.18591 0.605808 0
M  V30 13074 H 1233.76 3.77251 -1.06885 0
M  V30 13075 H 1235.25 4.17281 -0.163204 0
M  V30 13076 N 1235.69 0.975146 1.23809 0
M  V30 13077 C 1236.94 0.642074 1.92367 0
M  V30 13078 C 1237.27 -0.82164 1.75962 0
M  V30 13079 O 1236.55 -1.59205 1.11732 0
M  V30 13080 C 1236.83 1.02677 3.45151 0
M  V30 13081 C 1236.68 2.54773 3.7069 0
M  V30 13082 C 1238 0.5668 4.36435 0
M  V30 13083 H 1235.12 0.234735 0.698619 0
M  V30 13084 H 1237.76 1.21549 1.46034 0
M  V30 13085 H 1235.91 0.538846 3.84745 0
M  V30 13086 H 1237.58 3.11099 3.4061 0
M  V30 13087 H 1235.83 2.97641 3.15583 0
M  V30 13088 H 1236.5 2.7674 4.77618 0
M  V30 13089 H 1238.97 0.985635 4.04258 0
M  V30 13090 H 1237.85 0.864458 5.4205 0
M  V30 13091 H 1238.11 -0.532989 4.38875 0
M  V30 13092 N 1237.17 -1.38817 0.746158 0
M  V30 13093 C 1238.58 -1.83045 0.367629 0
M  V30 13094 C 1238.93 -1.62285 -1.10263 0
M  V30 13095 O 1238.06 -1.12001 -1.85162 0
M  V30 13096 C 1238.65 -3.323 0.660482 0
M  V30 13097 C 1237.21 -3.74903 0.335318 0
M  V30 13098 C 1236.36 -2.61683 0.917446 0
M  V30 13099 H 1239.31 -1.27651 0.94291 0
M  V30 13100 H 1239.33 -3.80446 -0.0639061 0
M  V30 13101 H 1238.84 -3.47377 1.73062 0
M  V30 13102 H 1236.94 -3.65408 -0.728538 0
M  V30 13103 H 1237.06 -4.71932 0.825677 0
M  V30 13104 H 1235.42 -2.52376 0.343316 0
M  V30 13105 H 1236.2 -2.79563 1.99247 0
M  V30 13106 N 1238.65 -0.49465 -1.49636 0
M  V30 13107 C 1239.89 0.0521945 -2.02733 0
M  V30 13108 C 1240.23 1.3723 -1.37411 0
M  V30 13109 O 1239.5 1.87758 -0.507642 0
M  V30 13110 C 1239.78 0.2114 -3.59479 0
M  V30 13111 C 1239.64 -1.13138 -4.35339 0
M  V30 13112 C 1240.96 0.955015 -4.29613 0
M  V30 13113 H 1238.08 0.0174946 -0.736792 0
M  V30 13114 H 1240.72 -0.644827 -1.78723 0
M  V30 13115 H 1238.87 0.805078 -3.80067 0
M  V30 13116 H 1240.54 -1.76345 -4.26263 0
M  V30 13117 H 1238.78 -1.72224 -3.98147 0
M  V30 13118 H 1239.45 -0.97336 -5.4335 0
M  V30 13119 H 1241.93 0.451575 -4.13642 0
M  V30 13120 H 1240.81 1.03524 -5.39049 0
M  V30 13121 H 1241.07 1.99724 -3.94414 0
M  V30 13122 N 1240.13 1.55939 -0.228214 0
M  V30 13123 C 1241.04 2.24213 0.690339 0
M  V30 13124 C 1242.05 1.25197 1.20838 0
M  V30 13125 O 1243.23 1.58026 1.24859 0
M  V30 13126 C 1240.29 2.91384 1.87873 0
M  V30 13127 C 1239.35 4.05761 1.40201 0
M  V30 13128 C 1238.59 4.6972 2.53376 0
M  V30 13129 O 1238.81 4.32687 3.71669 0
M  V30 13130 O 1237.74 5.58587 2.24198 0
M  V30 13131 H 1241.57 3.03383 0.138692 0
M  V30 13132 H 1239.15 1.494 0.00251504 0
M  V30 13133 H 1241.04 3.33758 2.57262 0
M  V30 13134 H 1239.71 2.15168 2.41835 0
M  V30 13135 H 1238.62 3.67943 0.675945 0
M  V30 13136 H 1239.95 4.83739 0.908691 0
M  V30 13137 N 1241.6 -0.0451101 1.57535 0
M  V30 13138 C 1242.55 -1.05066 2.05499 0
M  V30 13139 C 1243.52 -1.36884 0.940843 0
M  V30 13140 O 1244.71 -1.47497 1.21034 0
M  V30 13141 C 1241.85 -2.35139 2.52594 0
M  V30 13142 C 1240.96 -2.0962 3.77735 0
M  V30 13143 C 1240.09 -3.33447 4.13505 0
M  V30 13144 C 1239.13 -3.03411 5.31609 0
M  V30 13145 N 1238.27 -4.19644 5.62888 0
M  V30 13146 H 1243.11 -0.63469 2.91163 0
M  V30 13147 H 1240.65 -0.30179 1.43971 0
M  V30 13148 H 1242.61 -3.11118 2.7796 0
M  V30 13149 H 1241.24 -2.74489 1.69869 0
M  V30 13150 H 1240.29 -1.24211 3.59549 0
M  V30 13151 H 1241.6 -1.83452 4.63839 0
M  V30 13152 H 1240.75 -4.17805 4.39914 0
M  V30 13153 H 1239.49 -3.62715 3.2602 0
M  V30 13154 H 1238.5 -2.17453 5.04969 0
M  V30 13155 H 1239.72 -2.75438 6.20734 0
M  V30 13156 H 1237.67 -4.48893 4.78363 0
M  V30 13157 H 1237.59 -3.96843 6.43468 0
M  V30 13158 H 1238.85 -5.04921 5.93865 0
M  V30 13159 N 1243.08 -1.54377 -0.317073 0
M  V30 13160 C 1243.99 -1.87247 -1.41335 0
M  V30 13161 C 1245.01 -0.765017 -1.5628 0
M  V30 13162 O 1246.18 -1.05994 -1.71252 0
M  V30 13163 C 1243.25 -2.0988 -2.75955 0
M  V30 13164 C 1242.31 -3.33658 -2.70131 0
M  V30 13165 C 1241.54 -3.55202 -3.9833 0
M  V30 13166 O 1241.77 -2.80061 -4.96913 0
M  V30 13167 O 1240.7 -4.48693 -4.01196 0
M  V30 13168 H 1244.53 -2.80481 -1.16465 0
M  V30 13169 H 1242.11 -1.40364 -0.511687 0
M  V30 13170 H 1243.99 -2.2606 -3.55633 0
M  V30 13171 H 1242.67 -1.19834 -3.00702 0
M  V30 13172 H 1241.58 -3.22857 -1.88981 0
M  V30 13173 H 1242.91 -4.23782 -2.50338 0
M  V30 13174 N 1244.56 0.579466 -1.4656 0
M  V30 13175 C 1245.49 1.70291 -1.53406 0
M  V30 13176 C 1246.51 1.57232 -0.422116 0
M  V30 13177 O 1247.69 1.64598 -0.69064 0
M  V30 13178 C 1244.79 3.08572 -1.40131 0
M  V30 13179 C 1243.97 3.47602 -2.65502 0
M  V30 13180 C 1243.03 4.64955 -2.4638 0
M  V30 13181 O 1242.05 4.70653 -3.20116 0
M  V30 13182 N 1243.25 5.60041 -1.52756 0
M  V30 13183 H 1246.02 1.64873 -2.50274 0
M  V30 13184 H 1243.58 0.765533 -1.42658 0
M  V30 13185 H 1245.57 3.84877 -1.25106 0
M  V30 13186 H 1244.14 3.0834 -0.514322 0
M  V30 13187 H 1243.36 2.60969 -2.95446 0
M  V30 13188 H 1244.65 3.70446 -3.48779 0
M  V30 13189 H 1244.05 5.58176 -0.919587 0
M  V30 13190 H 1242.61 6.35764 -1.43693 0
M  V30 13191 N 1246.04 1.3432 0.824371 0
M  V30 13192 C 1247 1.25672 1.91675 0
M  V30 13193 C 1248 0.172269 1.59875 0
M  V30 13194 O 1249.19 0.424794 1.68941 0
M  V30 13195 C 1246.32 0.939928 3.27686 0
M  V30 13196 H 1247.52 2.22785 2.00766 0
M  V30 13197 H 1245.07 1.18587 1.01817 0
M  V30 13198 H 1245.8 -0.0280898 3.24288 0
M  V30 13199 H 1245.59 1.72432 3.5215 0
M  V30 13200 H 1247.08 0.904553 4.07686 0
M  V30 13201 N 1247.52 -1.0444 1.18026 0
M  V30 13202 C 1248.93 -1.5903 0.978076 0
M  V30 13203 C 1249.28 -1.90407 -0.473241 0
M  V30 13204 O 1248.4 -1.69133 -1.34992 0
M  V30 13205 C 1249 -2.88942 1.76912 0
M  V30 13206 C 1247.56 -3.40164 1.61139 0
M  V30 13207 C 1246.7 -2.13797 1.76596 0
M  V30 13208 H 1249.66 -0.871574 1.32625 0
M  V30 13209 H 1249.68 -3.59173 1.25598 0
M  V30 13210 H 1249.19 -2.66074 2.82535 0
M  V30 13211 H 1247.29 -3.68053 0.580353 0
M  V30 13212 H 1247.4 -4.14241 2.40709 0
M  V30 13213 H 1245.77 -2.24922 1.19507 0
M  V30 13214 H 1246.55 -1.93389 2.83647 0
M  V30 13215 N 1248.99 -0.981699 -1.2329 0
M  V30 13216 C 1249.94 -0.494116 -2.22581 0
M  V30 13217 C 1250.93 0.431573 -1.55004 0
M  V30 13218 O 1252.12 0.260215 -1.75077 0
M  V30 13219 C 1249.25 0.200884 -3.42712 0
M  V30 13220 C 1248.34 -0.744451 -4.17515 0
M  V30 13221 N 1248.73 -1.88762 -4.69257 0
M  V30 13222 C 1247.02 -0.558044 -4.42495 0
M  V30 13223 C 1247.73 -2.48006 -5.26182 0
M  V30 13224 N 1246.7 -1.76382 -5.14189 0
M  V30 13225 H 1250.5 -1.36616 -2.60218 0
M  V30 13226 H 1248.02 -0.842537 -1.38835 0
M  V30 13227 H 1250.01 0.567506 -4.13019 0
M  V30 13228 H 1248.67 1.0692 -3.06591 0
M  V30 13229 H 1249.69 -2.26877 -4.65561 0
M  V30 13230 H 1246.36 0.265139 -4.16657 0
M  V30 13231 H 1247.75 -3.44555 -5.76829 0
M  V30 13232 N 1250.47 1.3842 -0.753509 0
M  V30 13233 C 1251.71 2.01965 -0.314558 0
M  V30 13234 C 1252.08 1.58519 1.08331 0
M  V30 13235 O 1253.28 2.14395 1.62137 0
M  V30 13236 C 1251.55 3.54765 -0.433199 0
M  V30 13237 S 1253.11 4.38733 -0.0768176 0
M  V30 13238 H 1249.93 0.700447 -0.122045 0
M  V30 13239 H 1252.53 1.68925 -0.98411 0
M  V30 13240 H 1251.23 3.83874 -1.45152 0
M  V30 13241 H 1250.76 3.92582 0.253539 0
M  V30 13242 H 1252.78 4.83077 1.13361 0
M  V30 13243 N 1251.95 0.502579 1.49372 0
M  V30 13244 C 1253.2 -0.0432341 2.01654 0
M  V30 13245 C 1253.51 -1.379 1.38719 0
M  V30 13246 O 1254.72 -2.01159 1.82338 0
M  V30 13247 C 1253.17 -0.127509 3.59674 0
M  V30 13248 C 1252.78 1.20171 4.31582 0
M  V30 13249 C 1254.53 -0.623603 4.19895 0
M  V30 13250 C 1252.43 1.07951 5.81464 0
M  V30 13251 H 1251.36 -0.0199308 0.753737 0
M  V30 13252 H 1254.01 0.642237 1.71894 0
M  V30 13253 H 1252.4 -0.877465 3.86156 0
M  V30 13254 H 1253.57 1.96508 4.16799 0
M  V30 13255 H 1251.89 1.63136 3.83113 0
M  V30 13256 H 1254.48 -0.732562 5.29658 0
M  V30 13257 H 1254.83 -1.62282 3.83367 0
M  V30 13258 H 1255.36 0.0698641 3.97739 0
M  V30 13259 H 1252.1 2.05304 6.22519 0
M  V30 13260 H 1251.62 0.357051 5.98736 0
M  V30 13261 H 1253.3 0.758885 6.42534 0
M  V30 13262 N 1253.43 -1.55816 0.23648 0
M  V30 13263 C 1254.67 -2.0059 -0.39281 0
M  V30 13264 C 1255.03 -1.12092 -1.55883 0
M  V30 13265 O 1256.23 -1.46277 -2.25514 0
M  V30 13266 C 1254.5 -3.48281 -0.80219 0
M  V30 13267 S 1256.06 -4.15069 -1.42348 0
M  V30 13268 H 1252.88 -0.700093 -0.124057 0
M  V30 13269 H 1255.48 -1.92355 0.349272 0
M  V30 13270 H 1254.19 -4.10362 0.0558941 0
M  V30 13271 H 1253.72 -3.60421 -1.57671 0
M  V30 13272 H 1255.73 -4.15493 -2.71257 0
M  V30 13273 N 1254.91 0.036755 -1.57557 0
M  V30 13274 C 1255.87 1.02435 -2.05036 0
M  V30 13275 C 1256.87 1.29506 -0.953146 0
M  V30 13276 O 1258.06 1.24638 -1.217 0
M  V30 13277 C 1255.19 2.3592 -2.46079 0
M  V30 13278 H 1256.38 0.614384 -2.93539 0
M  V30 13279 H 1253.94 0.283396 -1.53709 0
M  V30 13280 H 1254.67 2.8168 -1.60708 0
M  V30 13281 H 1254.46 2.17603 -3.26177 0
M  V30 13282 H 1255.95 3.06839 -2.83266 0
M  V30 13283 N 1256.39 1.54543 0.308881 0
M  V30 13284 C 1257.33 1.85693 1.40074 0
M  V30 13285 C 1258.33 0.730004 1.52864 0
M  V30 13286 O 1259.53 0.913884 1.55075 0
M  V30 13287 H 1255.91 0.588842 0.467728 0
M  V30 13288 H 1257.88 2.76973 1.11034 0
M  V30 13289 C 1256.63 2.11399 2.76054 0
M  V30 13290 H 1255.95 2.97583 2.66992 0
M  V30 13291 H 1257.39 2.37139 3.51484 0
M  V30 13292 C 1255.85 0.91007 3.24375 0
M  V30 13293 O 1256.38 0.12663 4.015 0
M  V30 13294 N 1254.59 0.717629 2.816 0
M  V30 13295 H 1254.13 1.35637 2.18998 0
M  V30 13296 H 1254.09 -0.0863585 3.14281 0
M  V30 13297 N 1257.86 -0.571685 1.46866 0
M  V30 13298 C 1259.11 -1.32685 1.52444 0
M  V30 13299 C 1259.43 -1.94147 0.182225 0
M  V30 13300 O 1258.7 -1.79159 -0.792385 0
M  V30 13301 H 1257.28 -0.492679 0.561495 0
M  V30 13302 H 1259.94 -0.668694 1.8307 0
M  V30 13303 H 1259.04 -2.12788 2.28315 0
M  V30 13304 N 1259.34 -1.34755 -0.817236 0
M  V30 13305 C 1260.76 -1.14561 -1.11121 0
M  V30 13306 C 1260.96 0.0490776 -2.0144 0
M  V30 13307 O 1260.01 0.722897 -2.41931 0
M  V30 13308 C 1261.33 -2.44356 -1.75244 0
M  V30 13309 C 1262.87 -2.50465 -1.87713 0
M  V30 13310 C 1263.35 -3.80276 -2.55253 0
M  V30 13311 N 1264.84 -3.81468 -2.62747 0
M  V30 13312 C 1265.58 -4.78634 -3.15749 0
M  V30 13313 N 1265.07 -5.86184 -3.6927 0
M  V30 13314 N 1266.86 -4.66083 -3.14203 0
M  V30 13315 H 1259.02 -2.11293 -0.2166 0
M  V30 13316 H 1261.28 -0.934629 -0.158661 0
M  V30 13317 H 1260.98 -3.31899 -1.16344 0
M  V30 13318 H 1260.86 -2.58117 -2.75055 0
M  V30 13319 H 1263.25 -1.63358 -2.45761 0
M  V30 13320 H 1263.33 -2.40627 -0.867887 0
M  V30 13321 H 1262.97 -4.67776 -1.97858 0
M  V30 13322 H 1262.9 -3.87399 -3.56693 0
M  V30 13323 H 1265.39 -3.03753 -2.24817 0
M  V30 13324 H 1265.7 -6.56332 -4.0798 0
M  V30 13325 H 1264.05 -5.8989 -3.67498 0
M  V30 13326 H 1267.24 -3.81206 -2.7166 0
M  V30 13327 H 1267.41 -5.41973 -3.55203 0
M  V30 13328 N 1260.82 1.03812 -1.18578 0
M  V30 13329 C 1261.75 2.11928 -0.872871 0
M  V30 13330 C 1262.76 1.62275 0.130592 0
M  V30 13331 O 1263.95 1.78233 -0.0975869 0
M  V30 13332 C 1261.05 3.37714 -0.283321 0
M  V30 13333 C 1260.23 4.16591 -1.33307 0
M  V30 13334 C 1259.29 5.20701 -0.758746 0
M  V30 13335 O 1258.31 5.50837 -1.43412 0
M  V30 13336 N 1259.51 5.78811 0.442505 0
M  V30 13337 H 1262.28 2.39364 -1.80346 0
M  V30 13338 H 1259.84 1.20027 -1.08652 0
M  V30 13339 H 1261.83 4.04538 0.114524 0
M  V30 13340 H 1260.4 3.07699 0.551347 0
M  V30 13341 H 1259.62 3.45051 -1.90613 0
M  V30 13342 H 1260.91 4.66082 -2.04071 0
M  V30 13343 H 1260.31 5.56631 1.00889 0
M  V30 13344 H 1258.86 6.47089 0.78224 0
M  V30 13345 N 1262.3 0.988223 1.22768 0
M  V30 13346 C 1263.53 0.679743 1.95415 0
M  V30 13347 C 1263.94 -0.754731 1.73059 0
M  V30 13348 O 1263.3 -1.50876 1.02678 0
M  V30 13349 C 1263.35 0.970344 3.48234 0
M  V30 13350 O 1263.07 2.34845 3.69837 0
M  V30 13351 C 1264.57 0.67891 4.3807 0
M  V30 13352 H 1261.79 0.251847 0.621944 0
M  V30 13353 H 1264.33 1.32173 1.56047 0
M  V30 13354 H 1262.49 0.374241 3.85588 0
M  V30 13355 H 1262.9 2.44412 4.64072 0
M  V30 13356 H 1264.38 0.932549 5.44066 0
M  V30 13357 H 1264.85 -0.387073 4.37491 0
M  V30 13358 H 1265.46 1.25585 4.06335 0
M  V30 13359 N 1263.78 -1.38018 0.760839 0
M  V30 13360 C 1265.02 -2.00248 0.320716 0
M  V30 13361 C 1265.35 -1.60259 -1.09684 0
M  V30 13362 O 1264.63 -0.843567 -1.75255 0
M  V30 13363 C 1264.91 -3.57254 0.451849 0
M  V30 13364 C 1264.77 -4.07185 1.91103 0
M  V30 13365 C 1266.08 -4.39843 -0.150439 0
M  V30 13366 H 1263.2 -0.727491 0.118007 0
M  V30 13367 H 1265.85 -1.63855 0.961842 0
M  V30 13368 H 1264 -3.88386 -0.0939672 0
M  V30 13369 H 1265.67 -3.86665 2.51571 0
M  V30 13370 H 1263.91 -3.59782 2.42362 0
M  V30 13371 H 1264.58 -5.16262 1.9539 0
M  V30 13372 H 1267.06 -4.14905 0.315145 0
M  V30 13373 H 1265.93 -5.48893 -0.0284853 0
M  V30 13374 H 1266.19 -4.24367 -1.23956 0
M  V30 13375 N 1265.25 -0.510493 -1.49103 0
M  V30 13376 C 1266.48 0.0293113 -2.07379 0
M  V30 13377 C 1266.9 1.29195 -1.36713 0
M  V30 13378 O 1266.26 1.76204 -0.426838 0
M  V30 13379 C 1266.31 0.25629 -3.59688 0
M  V30 13380 O 1265.41 1.32907 -3.90397 0
M  V30 13381 H 1264.75 -0.0304449 -0.663302 0
M  V30 13382 H 1267.28 -0.712832 -1.91781 0
M  V30 13383 H 1267.29 0.484915 -4.05108 0
M  V30 13384 H 1265.97 -0.666163 -4.1053 0
M  V30 13385 H 1264.55 1.08464 -3.56777 0
M  V30 13386 N 1266.73 1.55688 -0.24474 0
M  V30 13387 C 1267.98 1.99926 0.374301 0
M  V30 13388 C 1268.33 1.12997 1.55723 0
M  V30 13389 O 1267.63 0.185026 1.90705 0
M  V30 13390 C 1267.82 3.47487 0.835923 0
M  V30 13391 C 1267.65 4.48693 -0.300729 0
M  V30 13392 C 1266.42 4.99326 -0.774706 0
M  V30 13393 C 1268.62 5.018 -1.12699 0
M  V30 13394 N 1266.6 5.84276 -1.88399 0
M  V30 13395 C 1267.97 5.83901 -2.0847 0
M  V30 13396 C 1270.02 4.84108 -1.16379 0
M  V30 13397 C 1268.73 6.50197 -3.07629 0
M  V30 13398 C 1270.75 5.51181 -2.14368 0
M  V30 13399 C 1270.12 6.33068 -3.08876 0
M  V30 13400 H 1266.21 0.775189 0.102984 0
M  V30 13401 H 1268.8 1.91308 -0.361824 0
M  V30 13402 H 1266.97 3.56507 1.54135 0
M  V30 13403 H 1268.7 3.78604 1.42973 0
M  V30 13404 H 1265.46 4.72236 -0.359226 0
M  V30 13405 H 1265.88 6.31449 -2.44134 0
M  V30 13406 H 1270.52 4.2043 -0.447006 0
M  V30 13407 H 1268.24 7.13042 -3.80258 0
M  V30 13408 H 1271.83 5.39446 -2.1792 0
M  V30 13409 H 1270.71 6.84053 -3.8346 0
M  V30 13410 N 1268.21 -0.0283989 1.57574 0
M  V30 13411 C 1269.17 -1.01346 2.05576 0
M  V30 13412 C 1270.17 -1.28999 0.960001 0
M  V30 13413 O 1271.36 -1.23991 1.2236 0
M  V30 13414 C 1268.49 -2.34611 2.47327 0
M  V30 13415 H 1269.69 -0.598809 2.93861 0
M  V30 13416 H 1267.24 -0.27524 1.53857 0
M  V30 13417 H 1267.98 -2.80823 1.622 0
M  V30 13418 H 1267.76 -2.1587 3.27326 0
M  V30 13419 H 1269.25 -3.05332 2.84889 0
M  V30 13420 N 1269.69 -1.54705 -0.300681 0
M  V30 13421 C 1270.93 -1.74259 -1.03738 0
M  V30 13422 C 1271.27 -0.52703 -1.86912 0
M  V30 13423 O 1270.54 0.475862 -1.88589 0
M  V30 13424 C 1270.82 -3.03175 -1.94311 0
M  V30 13425 C 1270.68 -4.35031 -1.14315 0
M  V30 13426 C 1272 -3.27962 -2.93478 0
M  V30 13427 H 1269.12 -0.634031 -0.37573 0
M  V30 13428 H 1271.76 -1.87421 -0.312012 0
M  V30 13429 H 1269.91 -2.92086 -2.5616 0
M  V30 13430 H 1271.58 -4.5804 -0.547489 0
M  V30 13431 H 1269.82 -4.31503 -0.44587 0
M  V30 13432 H 1270.49 -5.21502 -1.80941 0
M  V30 13433 H 1272.97 -3.38663 -2.41757 0
M  V30 13434 H 1271.85 -4.19481 -3.54016 0
M  V30 13435 H 1272.11 -2.46273 -3.67154 0
M  V30 13436 N 1271.17 0.563888 -1.47167 0
M  V30 13437 C 1272.39 1.34693 -1.57052 0
M  V30 13438 C 1272.81 1.87534 -0.218308 0
M  V30 13439 O 1272.17 1.64639 0.787416 0
M  V30 13440 C 1272.22 2.52148 -2.59044 0
M  V30 13441 O 1271.94 2.01492 -3.89015 0
M  V30 13442 C 1273.44 3.4445 -2.7905 0
M  V30 13443 H 1270.66 0.410822 -0.530534 0
M  V30 13444 H 1273.2 0.683731 -1.92731 0
M  V30 13445 H 1271.36 3.14419 -2.26317 0
M  V30 13446 H 1271.77 2.78122 -4.44689 0
M  V30 13447 H 1273.25 4.23297 -3.54293 0
M  V30 13448 H 1273.72 3.97575 -1.86631 0
M  V30 13449 H 1274.33 2.88 -3.12948 0
M  V30 13450 N 1272.64 1.35187 0.810078 0
M  V30 13451 C 1274.06 1.25329 1.38381 0
M  V30 13452 C 1274.41 -0.115799 1.95858 0
M  V30 13453 O 1273.53 -1.01663 1.91033 0
M  V30 13454 C 1274.13 2.2693 2.51572 0
M  V30 13455 C 1272.69 2.20824 3.04818 0
M  V30 13456 C 1271.83 2.1283 1.7776 0
M  V30 13457 H 1274.78 1.46366 0.613402 0
M  V30 13458 H 1274.8 1.89375 3.30026 0
M  V30 13459 H 1274.32 3.26563 2.09709 0
M  V30 13460 H 1272.42 1.24589 3.51153 0
M  V30 13461 H 1272.53 3.12637 3.63036 0
M  V30 13462 H 1270.89 1.58752 1.99173 0
M  V30 13463 H 1271.68 3.14318 1.38054 0
M  V30 13464 N 1274.12 -1.03182 1.19127 0
M  V30 13465 C 1275.07 -2.11394 0.926339 0
M  V30 13466 C 1276.04 -1.65528 -0.137703 0
M  V30 13467 O 1277.22 -1.908 0.00381804 0
M  V30 13468 C 1274.36 -3.41913 0.467894 0
M  V30 13469 C 1273.48 -4.01343 1.59837 0
M  V30 13470 C 1272.61 -5.1986 1.09175 0
M  V30 13471 C 1271.65 -5.71339 2.19632 0
M  V30 13472 N 1270.79 -6.81133 1.703 0
M  V30 13473 H 1275.63 -2.33393 1.85288 0
M  V30 13474 H 1273.17 -1.14473 0.923811 0
M  V30 13475 H 1275.12 -4.16796 0.183513 0
M  V30 13476 H 1273.75 -3.20034 -0.421656 0
M  V30 13477 H 1272.81 -3.23702 1.99803 0
M  V30 13478 H 1274.12 -4.35568 2.43068 0
M  V30 13479 H 1273.27 -6.0189 0.762427 0
M  V30 13480 H 1272.01 -4.87161 0.22914 0
M  V30 13481 H 1271.02 -4.87923 2.53399 0
M  V30 13482 H 1272.24 -6.06078 3.06344 0
M  V30 13483 H 1270.19 -6.50293 0.863415 0
M  V30 13484 H 1270.1 -7.1447 2.47122 0
M  V30 13485 H 1271.37 -7.66766 1.40321 0
M  V30 13486 N 1275.6 -0.99472 -1.22242 0
M  V30 13487 C 1276.83 -0.689809 -1.95592 0
M  V30 13488 C 1277.25 0.739321 -1.72961 0
M  V30 13489 O 1276.61 1.50563 -1.00997 0
M  V30 13490 C 1276.66 -1.00367 -3.46351 0
M  V30 13491 O 1275.76 -0.103326 -4.12271 0
M  V30 13492 H 1275.1 -0.257997 -0.611828 0
M  V30 13493 H 1277.63 -1.33219 -1.55286 0
M  V30 13494 H 1277.64 -0.946259 -3.96875 0
M  V30 13495 H 1276.32 -2.04504 -3.62148 0
M  V30 13496 H 1274.89 -0.216374 -3.72272 0
M  V30 13497 N 1277.08 1.37613 -0.768148 0
M  V30 13498 C 1278.01 2.3291 -0.165911 0
M  V30 13499 C 1278.99 1.556 0.687205 0
M  V30 13500 O 1280.17 1.83854 0.625407 0
M  V30 13501 C 1277.3 3.39822 0.7168 0
M  V30 13502 C 1276.26 4.27986 -0.0347264 0
M  V30 13503 C 1275.58 5.2588 0.967192 0
M  V30 13504 C 1276.88 5.08052 -1.21164 0
M  V30 13505 H 1278.58 2.83524 -0.962006 0
M  V30 13506 H 1276.12 1.36318 -0.464051 0
M  V30 13507 H 1278.08 4.05464 1.14789 0
M  V30 13508 H 1276.8 2.87725 1.54538 0
M  V30 13509 H 1275.46 3.6387 -0.446557 0
M  V30 13510 H 1275.11 4.70064 1.79022 0
M  V30 13511 H 1274.81 5.85726 0.468913 0
M  V30 13512 H 1276.33 5.94397 1.3973 0
M  V30 13513 H 1277.75 5.66853 -0.857373 0
M  V30 13514 H 1276.14 5.77206 -1.64176 0
M  V30 13515 H 1277.21 4.40936 -2.0175 0
M  V30 13516 N 1278.56 0.518393 1.4883 0
M  V30 13517 C 1279.8 -0.019866 2.0209 0
M  V30 13518 C 1280.13 -1.35863 1.3988 0
M  V30 13519 O 1279.4 -1.87722 0.560117 0
M  V30 13520 H 1277.98 -0.0103306 0.746929 0
M  V30 13521 H 1280.64 0.679591 1.82668 0
M  V30 13522 H 1279.73 -0.136749 3.118 0
M  V30 13523 N 1280.03 -1.55556 0.252993 0
M  V30 13524 C 1280.98 -2.23035 -0.660161 0
M  V30 13525 C 1281.98 -1.21994 -1.17532 0
M  V30 13526 O 1283.18 -1.39989 -1.13151 0
M  V30 13527 H 1279.56 -0.715516 -0.23139 0
M  V30 13528 H 1281.53 -2.98323 -0.0679506 0
M  V30 13529 C 1280.28 -2.94817 -1.84332 0
M  V30 13530 H 1279.6 -3.72342 -1.45607 0
M  V30 13531 H 1281.04 -3.45386 -2.45936 0
M  V30 13532 C 1279.5 -1.99033 -2.71822 0
M  V30 13533 O 1280.03 -1.5273 -3.71533 0
M  V30 13534 N 1278.24 -1.66004 -2.38518 0
M  V30 13535 H 1277.78 -2.03853 -1.57485 0
M  V30 13536 H 1277.74 -1.02183 -2.97331 0
M  V30 13537 N 1281.51 0.0200419 -1.57587 0
M  V30 13538 C 1282.76 0.710078 -1.89962 0
M  V30 13539 C 1283.09 1.74521 -0.851829 0
M  V30 13540 O 1282.37 1.94052 0.132005 0
M  V30 13541 C 1282.65 1.37145 -3.32961 0
M  V30 13542 C 1282.5 0.349221 -4.48442 0
M  V30 13543 C 1283.82 2.30304 -3.75031 0
M  V30 13544 H 1280.94 0.25667 -0.690862 0
M  V30 13545 H 1283.58 -0.0271362 -1.89981 0
M  V30 13546 H 1281.73 1.99981 -3.33076 0
M  V30 13547 H 1283.4 -0.277916 -4.60462 0
M  V30 13548 H 1281.65 -0.330594 -4.32538 0
M  V30 13549 H 1282.32 0.850636 -5.45406 0
M  V30 13550 H 1284.79 1.77503 -3.7634 0
M  V30 13551 H 1283.67 2.73555 -4.75877 0
M  V30 13552 H 1283.93 3.17364 -3.07786 0
M  V30 13553 N 1282.99 1.54862 0.292472 0
M  V30 13554 C 1283.94 1.87168 1.38097 0
M  V30 13555 C 1284.93 0.746176 1.52081 0
M  V30 13556 O 1286.14 0.930281 1.54097 0
M  V30 13557 H 1282.51 0.593769 0.461456 0
M  V30 13558 H 1284.48 2.78135 1.0809 0
M  V30 13559 C 1283.23 2.14315 2.73796 0
M  V30 13560 H 1282.56 3.00398 2.63821 0
M  V30 13561 H 1284 2.40853 3.48949 0
M  V30 13562 C 1282.46 0.944424 3.23392 0
M  V30 13563 O 1282.99 0.169208 4.01343 0
M  V30 13564 N 1281.19 0.747456 2.80823 0
M  V30 13565 H 1280.74 1.37953 2.17547 0
M  V30 13566 H 1280.7 -0.0530199 3.14355 0
M  V30 13567 N 1284.47 -0.556076 1.47464 0
M  V30 13568 C 1285.72 -1.3132 1.54147 0
M  V30 13569 C 1286.04 -1.93425 0.204221 0
M  V30 13570 O 1285.3 -1.78467 -0.803002 0
M  V30 13571 C 1285.6 -2.44298 2.6087 0
M  V30 13572 C 1285.26 -2.00016 4.04109 0
M  V30 13573 C 1283.93 -1.87656 4.43101 0
M  V30 13574 C 1286.28 -1.66228 4.93981 0
M  V30 13575 C 1283.61 -1.39805 5.698 0
M  V30 13576 C 1285.96 -1.19848 6.21144 0
M  V30 13577 C 1284.62 -1.06084 6.59016 0
M  V30 13578 H 1283.89 -0.480534 0.564064 0
M  V30 13579 H 1286.54 -0.623449 1.81067 0
M  V30 13580 H 1284.84 -3.18834 2.27711 0
M  V30 13581 H 1286.54 -3.02479 2.63263 0
M  V30 13582 H 1283.13 -2.1058 3.73302 0
M  V30 13583 H 1287.31 -1.7465 4.64555 0
M  V30 13584 H 1282.57 -1.27814 5.97891 0
M  V30 13585 H 1286.74 -0.927657 6.90194 0
M  V30 13586 H 1284.37 -0.687834 7.57082 0
M  V30 13587 N 1285.95 -1.35615 -0.802897 0
M  V30 13588 C 1287.18 -1.32217 -1.59142 0
M  V30 13589 C 1287.59 0.0995496 -1.88537 0
M  V30 13590 O 1286.95 1.05258 -1.49087 0
M  V30 13591 C 1287 -2.13048 -2.92049 0
M  V30 13592 O 1286.72 -3.49677 -2.63927 0
M  V30 13593 C 1288.22 -2.17278 -3.864 0
M  V30 13594 H 1285.44 -0.454054 -0.49404 0
M  V30 13595 H 1287.98 -1.78521 -0.997516 0
M  V30 13596 H 1286.14 -1.70334 -3.47944 0
M  V30 13597 H 1286.55 -3.917 -3.48814 0
M  V30 13598 H 1288.03 -2.7822 -4.76758 0
M  V30 13599 H 1288.5 -1.17253 -4.23259 0
M  V30 13600 H 1289.11 -2.6017 -3.3644 0
M  V30 13601 N 1287.43 1.02549 -1.19673 0
M  V30 13602 C 1288.67 1.76265 -1.00293 0
M  V30 13603 C 1289 1.88555 0.464816 0
M  V30 13604 O 1288.28 1.40484 1.34515 0
M  V30 13605 C 1288.56 3.18688 -1.6766 0
M  V30 13606 C 1288.42 3.14247 -3.21821 0
M  V30 13607 C 1289.73 4.17159 -1.40238 0
M  V30 13608 H 1286.85 0.639837 -0.365756 0
M  V30 13609 H 1289.5 1.19691 -1.4756 0
M  V30 13610 H 1287.65 3.66992 -1.27472 0
M  V30 13611 H 1289.32 2.73815 -3.71245 0
M  V30 13612 H 1287.56 2.51874 -3.53188 0
M  V30 13613 H 1288.23 4.14886 -3.64107 0
M  V30 13614 H 1290.71 3.77471 -1.75086 0
M  V30 13615 H 1289.58 5.14997 -1.89919 0
M  V30 13616 H 1289.84 4.4088 -0.328197 0
M  V30 13617 N 1288.9 1.00119 1.21713 0
M  V30 13618 C 1290.13 0.700172 1.95224 0
M  V30 13619 C 1290.55 -0.730138 1.73351 0
M  V30 13620 O 1289.91 -1.50026 1.01794 0
M  V30 13621 C 1289.96 1.02202 3.45814 0
M  V30 13622 O 1289.06 0.125188 4.1221 0
M  V30 13623 H 1288.4 0.261238 0.610451 0
M  V30 13624 H 1290.93 1.34041 1.54578 0
M  V30 13625 H 1290.94 0.967293 3.96368 0
M  V30 13626 H 1289.62 2.06422 3.61058 0
M  V30 13627 H 1288.2 0.236114 3.72152 0
M  V30 13628 N 1290.38 -1.37203 0.775435 0
M  V30 13629 C 1291.34 -2.28566 0.170406 0
M  V30 13630 C 1292.34 -1.48195 -0.624085 0
M  V30 13631 O 1293.53 -1.68364 -0.447132 0
M  V30 13632 C 1290.67 -3.32186 -0.765829 0
M  V30 13633 H 1291.86 -2.8358 0.975824 0
M  V30 13634 H 1289.41 -1.46531 0.543895 0
M  V30 13635 H 1290.15 -2.82303 -1.59611 0
M  V30 13636 H 1289.93 -3.91598 -0.198251 0
M  V30 13637 H 1291.42 -4.0045 -1.18446 0
M  V30 13638 N 1291.86 -0.526279 -1.48553 0
M  V30 13639 C 1292.77 0.24244 -2.33344 0
M  V30 13640 C 1293.79 0.942658 -1.46253 0
M  V30 13641 O 1294.96 0.91844 -1.79239 0
M  V30 13642 C 1292.03 1.27801 -3.22285 0
M  V30 13643 C 1291.09 0.588543 -4.25247 0
M  V30 13644 C 1290.32 1.57478 -5.09938 0
M  V30 13645 O 1290.54 2.80707 -4.96548 0
M  V30 13646 O 1289.48 1.11621 -5.9146 0
M  V30 13647 H 1293.3 -0.452262 -3.00314 0
M  V30 13648 H 1290.89 -0.287249 -1.46613 0
M  V30 13649 H 1292.77 1.87656 -3.7731 0
M  V30 13650 H 1291.45 1.95519 -2.57981 0
M  V30 13651 H 1290.35 -0.0504022 -3.74066 0
M  V30 13652 H 1291.69 -0.046627 -4.92178 0
M  V30 13653 N 1293.34 1.5542 -0.261239 0
M  V30 13654 C 1294.3 2.20683 0.619011 0
M  V30 13655 C 1295.3 1.18042 1.09192 0
M  V30 13656 O 1296.49 1.43035 0.99432 0
M  V30 13657 C 1293.62 2.86179 1.85242 0
M  V30 13658 H 1294.82 2.99859 0.0493924 0
M  V30 13659 H 1292.37 1.56296 -0.0117687 0
M  V30 13660 H 1293.1 2.10978 2.4629 0
M  V30 13661 H 1292.89 3.61381 1.52138 0
M  V30 13662 H 1294.38 3.36081 2.47869 0
M  V30 13663 N 1294.82 -0.0116844 1.57596 0
M  V30 13664 C 1295.75 -1.00599 2.10718 0
M  V30 13665 C 1296.73 -1.36601 1.01362 0
M  V30 13666 O 1297.91 -1.4518 1.28982 0
M  V30 13667 C 1295.04 -2.30155 2.60089 0
M  V30 13668 C 1294 -2.08347 3.73866 0
M  V30 13669 C 1293.32 -3.43814 4.09507 0
M  V30 13670 C 1294.62 -1.45552 5.01609 0
M  V30 13671 H 1296.32 -0.563721 2.94045 0
M  V30 13672 H 1293.86 -0.269714 1.41452 0
M  V30 13673 H 1295.81 -3.00058 2.95877 0
M  V30 13674 H 1294.54 -2.76473 1.73868 0
M  V30 13675 H 1293.2 -1.40872 3.38453 0
M  V30 13676 H 1292.85 -3.87814 3.20326 0
M  V30 13677 H 1292.55 -3.30043 4.86154 0
M  V30 13678 H 1294.07 -4.15052 4.47844 0
M  V30 13679 H 1295.48 -2.05396 5.35243 0
M  V30 13680 H 1293.88 -1.42304 5.82983 0
M  V30 13681 H 1294.95 -0.423331 4.83049 0
M  V30 13682 N 1296.29 -1.55015 -0.284256 0
M  V30 13683 C 1297.2 -1.90203 -1.37332 0
M  V30 13684 C 1298.22 -0.797994 -1.54622 0
M  V30 13685 O 1299.4 -1.09602 -1.68965 0
M  V30 13686 C 1296.46 -2.15687 -2.71441 0
M  V30 13687 C 1295.52 -3.39313 -2.62993 0
M  V30 13688 C 1294.75 -3.63571 -3.90707 0
M  V30 13689 O 1294.98 -2.90538 -4.9086 0
M  V30 13690 O 1293.91 -4.57102 -3.91589 0
M  V30 13691 H 1297.74 -2.82888 -1.1049 0
M  V30 13692 H 1295.32 -1.41418 -0.481798 0
M  V30 13693 H 1297.2 -2.33553 -3.50758 0
M  V30 13694 H 1295.88 -1.26185 -2.98092 0
M  V30 13695 H 1294.79 -3.26793 -1.82091 0
M  V30 13696 H 1296.12 -4.28997 -2.41293 0
M  V30 13697 N 1297.77 0.548248 -1.47757 0
M  V30 13698 C 1299 1.335 -1.58722 0
M  V30 13699 C 1299.42 1.86549 -0.241034 0
M  V30 13700 O 1298.78 1.63447 0.784517 0
M  V30 13701 C 1298.83 2.47457 -2.62293 0
M  V30 13702 O 1297.93 3.49956 -2.18185 0
M  V30 13703 H 1297.27 0.396166 -0.532868 0
M  V30 13704 H 1299.8 0.66164 -1.93607 0
M  V30 13705 H 1299.81 2.93901 -2.82995 0
M  V30 13706 H 1298.49 2.08203 -3.60034 0
M  V30 13707 H 1297.06 3.09755 -2.0762 0
M  V30 13708 N 1299.25 1.36039 0.795694 0
M  V30 13709 C 1300.18 1.25713 1.91648 0
M  V30 13710 C 1301.19 0.177993 1.61824 0
M  V30 13711 O 1302.38 0.432186 1.73189 0
M  V30 13712 C 1299.48 0.915546 3.26299 0
M  V30 13713 C 1298.66 2.09528 3.83949 0
M  V30 13714 C 1297.72 1.72775 4.97026 0
M  V30 13715 O 1296.74 2.44786 5.13876 0
M  V30 13716 N 1297.94 0.65775 5.76762 0
M  V30 13717 H 1300.71 2.22277 2.01029 0
M  V30 13718 H 1298.27 1.2935 0.973657 0
M  V30 13719 H 1300.26 0.650958 3.9943 0
M  V30 13720 H 1298.83 0.0392343 3.12575 0
M  V30 13721 H 1298.05 2.52304 3.0288 0
M  V30 13722 H 1299.34 2.88361 4.19196 0
M  V30 13723 H 1298.74 0.0596875 5.65669 0
M  V30 13724 H 1297.29 0.45297 6.50224 0
M  V30 13725 N 1300.73 -1.01913 1.20215 0
M  V30 13726 C 1301.64 -2.13864 0.964328 0
M  V30 13727 C 1302.65 -1.73821 -0.0789556 0
M  V30 13728 O 1303.83 -2.01111 0.107914 0
M  V30 13729 C 1300.9 -3.42827 0.516757 0
M  V30 13730 C 1299.96 -3.97127 1.63059 0
M  V30 13731 C 1299.19 -5.19935 1.20428 0
M  V30 13732 O 1299.41 -5.70355 0.0719119 0
M  V30 13733 O 1298.35 -5.67322 2.01071 0
M  V30 13734 H 1302.17 -2.36795 1.90162 0
M  V30 13735 H 1299.76 -1.1226 0.985803 0
M  V30 13736 H 1301.64 -4.20493 0.276272 0
M  V30 13737 H 1300.31 -3.21318 -0.391983 0
M  V30 13738 H 1299.22 -3.20752 1.92533 0
M  V30 13739 H 1300.55 -4.2302 2.51624 0
M  V30 13740 N 1302.21 -1.00763 -1.2118 0
M  V30 13741 C 1303.14 -0.590493 -2.2591 0
M  V30 13742 C 1304.12 0.390002 -1.65569 0
M  V30 13743 O 1305.3 0.277406 -1.92208 0
M  V30 13744 C 1302.43 0.0810388 -3.47205 0
M  V30 13745 C 1301.39 -0.81951 -4.20081 0
M  V30 13746 C 1300.71 -0.014244 -5.34698 0
M  V30 13747 C 1302.01 -2.12336 -4.7719 0
M  V30 13748 H 1303.71 -1.46595 -2.61056 0
M  V30 13749 H 1301.25 -0.706321 -1.25487 0
M  V30 13750 H 1303.21 0.384355 -4.19644 0
M  V30 13751 H 1301.93 0.991145 -3.11197 0
M  V30 13752 H 1300.59 -1.10669 -3.49497 0
M  V30 13753 H 1300.24 0.897233 -4.94933 0
M  V30 13754 H 1299.94 -0.613883 -5.84384 0
M  V30 13755 H 1301.46 0.282827 -6.09945 0
M  V30 13756 H 1302.87 -1.88301 -5.41494 0
M  V30 13757 H 1301.27 -2.67308 -5.37277 0
M  V30 13758 H 1302.34 -2.79238 -3.96427 0
M  V30 13759 N 1303.68 1.3679 -0.7827 0
M  V30 13760 C 1304.92 2.01252 -0.357327 0
M  V30 13761 C 1305.29 1.60782 1.04944 0
M  V30 13762 O 1306.49 2.17785 1.57553 0
M  V30 13763 C 1304.76 3.53766 -0.508352 0
M  V30 13764 S 1306.32 4.38471 -0.169862 0
M  V30 13765 H 1303.14 0.697701 -0.136875 0
M  V30 13766 H 1305.74 1.66799 -1.01972 0
M  V30 13767 H 1304.44 3.80708 -1.53262 0
M  V30 13768 H 1303.97 3.93032 0.170209 0
M  V30 13769 H 1305.99 4.85373 1.03088 0
M  V30 13770 N 1305.16 0.53415 1.48272 0
M  V30 13771 C 1306.41 0.00156948 2.021 0
M  V30 13772 C 1306.73 -1.34371 1.41313 0
M  V30 13773 O 1306 -1.87117 0.579996 0
M  V30 13774 H 1304.58 -0.00240789 0.746996 0
M  V30 13775 H 1307.24 0.698928 1.81937 0
M  V30 13776 H 1306.34 -0.103671 3.11928 0
M  V30 13777 N 1306.64 -1.55279 0.269478 0
M  V30 13778 C 1307.87 -2.03876 -0.352418 0
M  V30 13779 C 1308.28 -1.14804 -1.49885 0
M  V30 13780 O 1307.64 -0.166989 -1.81734 0
M  V30 13781 C 1307.69 -3.51634 -0.838799 0
M  V30 13782 O 1307.41 -4.37316 0.261972 0
M  V30 13783 C 1308.91 -4.16094 -1.52909 0
M  V30 13784 H 1306.13 -0.66608 -0.0811043 0
M  V30 13785 H 1308.68 -2.00551 0.399929 0
M  V30 13786 H 1306.83 -3.55421 -1.54125 0
M  V30 13787 H 1307.25 -5.24383 -0.111013 0
M  V30 13788 H 1308.72 -5.21102 -1.82089 0
M  V30 13789 H 1309.2 -3.63928 -2.45872 0
M  V30 13790 H 1309.8 -4.16293 -0.87063 0
M  V30 13791 N 1308.12 0.00332656 -1.576 0
M  V30 13792 C 1309.03 1.01221 -2.1164 0
M  V30 13793 C 1310.04 1.37918 -1.06088 0
M  V30 13794 O 1311.22 1.46717 -1.37971 0
M  V30 13795 C 1308.29 2.28638 -2.60626 0
M  V30 13796 C 1307.35 1.98284 -3.80765 0
M  V30 13797 C 1306.58 3.19626 -4.27405 0
M  V30 13798 O 1306.8 4.31196 -3.73398 0
M  V30 13799 O 1305.74 3.03819 -5.19594 0
M  V30 13800 H 1309.56 0.582839 -2.98055 0
M  V30 13801 H 1307.15 0.221947 -1.47742 0
M  V30 13802 H 1309.03 3.03498 -2.92347 0
M  V30 13803 H 1307.7 2.70819 -1.7731 0
M  V30 13804 H 1306.61 1.2091 -3.54022 0
M  V30 13805 H 1307.94 1.60942 -4.65144 0
M  V30 13806 N 1309.6 1.55164 0.276031 0
M  V30 13807 C 1310.84 1.75887 1.00953 0
M  V30 13808 C 1311.18 0.5567 1.8605 0
M  V30 13809 O 1310.45 -0.445799 1.89322 0
M  V30 13810 C 1310.73 3.06228 1.89463 0
M  V30 13811 C 1310.59 4.36795 1.07379 0
M  V30 13812 C 1311.91 3.32589 2.88223 0
M  V30 13813 H 1309.02 0.639929 0.365596 0
M  V30 13814 H 1311.67 1.87893 0.282156 0
M  V30 13815 H 1309.82 2.96124 2.51481 0
M  V30 13816 H 1311.49 4.58853 0.474549 0
M  V30 13817 H 1309.73 4.32157 0.377165 0
M  V30 13818 H 1310.4 5.24315 1.72621 0
M  V30 13819 H 1312.88 3.42467 2.36338 0
M  V30 13820 H 1311.75 4.2506 3.47297 0
M  V30 13821 H 1312.02 2.52083 3.6319 0
M  V30 13822 N 1311.07 -0.540404 1.48045 0
M  V30 13823 C 1312.49 -1.12243 1.49192 0
M  V30 13824 C 1312.84 -1.94524 0.255895 0
M  V30 13825 O 1311.96 -2.06786 -0.637855 0
M  V30 13826 C 1312.56 -2.04227 2.70327 0
M  V30 13827 C 1311.12 -2.57668 2.7438 0
M  V30 13828 C 1310.26 -1.34402 2.42552 0
M  V30 13829 H 1313.21 -0.326165 1.55312 0
M  V30 13830 H 1313.23 -2.88359 2.48253 0
M  V30 13831 H 1312.75 -1.44314 3.60271 0
M  V30 13832 H 1310.85 -3.21331 1.88618 0
M  V30 13833 H 1310.96 -2.97514 3.7553 0
M  V30 13834 H 1309.32 -1.65635 1.93487 0
M  V30 13835 H 1310.11 -0.762571 3.34723 0
M  V30 13836 N 1312.55 -1.36459 -0.788468 0
M  V30 13837 C 1313.78 -1.34063 -1.58246 0
M  V30 13838 C 1314.2 0.0754933 -1.87948 0
M  V30 13839 O 1313.56 1.04772 -1.47961 0
M  V30 13840 C 1313.61 -2.17038 -2.8797 0
M  V30 13841 O 1312.71 -1.56353 -3.81612 0
M  V30 13842 H 1312.05 -0.458816 -0.479983 0
M  V30 13843 H 1314.58 -1.79755 -0.977207 0
M  V30 13844 H 1314.59 -2.29651 -3.3723 0
M  V30 13845 H 1313.27 -3.19981 -2.65678 0
M  V30 13846 H 1311.85 -1.52685 -3.40208 0
M  V30 13847 N 1314.03 1.01274 -1.20754 0
M  V30 13848 C 1315.28 1.75191 -1.02156 0
M  V30 13849 C 1315.61 1.89038 0.444791 0
M  V30 13850 O 1314.88 1.41903 1.33018 0
M  V30 13851 C 1315.17 3.16892 -1.71031 0
M  V30 13852 C 1315.02 3.10816 -3.25136 0
M  V30 13853 C 1316.34 4.15648 -1.44654 0
M  V30 13854 H 1313.46 0.635922 -0.372521 0
M  V30 13855 H 1316.1 1.18119 -1.48822 0
M  V30 13856 H 1314.25 3.6562 -1.31357 0
M  V30 13857 H 1315.92 2.69863 -3.74128 0
M  V30 13858 H 1314.17 2.48113 -3.5584 0
M  V30 13859 H 1314.84 4.11001 -3.68487 0
M  V30 13860 H 1317.31 3.75592 -1.7908 0
M  V30 13861 H 1316.19 5.12954 -1.95371 0
M  V30 13862 H 1316.45 4.40507 -0.37494 0
M  V30 13863 N 1315.51 1.01404 1.20644 0
M  V30 13864 C 1316.92 0.73386 1.71672 0
M  V30 13865 C 1317.27 -0.747803 1.8139 0
M  V30 13866 O 1316.4 -1.58372 1.47469 0
M  V30 13867 C 1316.99 1.32549 3.11795 0
M  V30 13868 C 1315.55 1.09423 3.60144 0
M  V30 13869 C 1314.7 1.43275 2.37419 0
M  V30 13870 H 1317.65 1.18383 1.05694 0
M  V30 13871 H 1317.67 0.714749 3.73727 0
M  V30 13872 H 1317.18 2.40386 3.0469 0
M  V30 13873 H 1315.28 0.0334113 3.72585 0
M  V30 13874 H 1315.4 1.77248 4.45107 0
M  V30 13875 H 1313.76 0.851714 2.40037 0
M  V30 13876 H 1314.54 2.52163 2.32957 0
M  V30 13877 N 1316.99 -1.36373 0.789944 0
M  V30 13878 C 1317.9 -2.3383 0.189873 0
M  V30 13879 C 1318.91 -1.61068 -0.65827 0
M  V30 13880 O 1320.09 -1.93049 -0.573932 0
M  V30 13881 C 1317.15 -3.40264 -0.664905 0
M  V30 13882 C 1316.22 -4.28825 0.201798 0
M  V30 13883 C 1315.45 -5.30176 -0.612278 0
M  V30 13884 O 1315.67 -5.39627 -1.84821 0
M  V30 13885 O 1314.61 -6.01899 -0.0118964 0
M  V30 13886 H 1318.43 -2.86915 0.995671 0
M  V30 13887 H 1316.02 -1.38852 0.551412 0
M  V30 13888 H 1317.9 -4.05339 -1.15231 0
M  V30 13889 H 1316.57 -2.89478 -1.44858 0
M  V30 13890 H 1315.48 -3.66789 0.735974 0
M  V30 13891 H 1316.81 -4.82965 0.949003 0
M  V30 13892 N 1318.47 -0.542005 -1.47987 0
M  V30 13893 C 1319.42 0.234244 -2.26794 0
M  V30 13894 C 1320.4 0.899085 -1.33436 0
M  V30 13895 O 1321.59 0.799904 -1.57894 0
M  V30 13896 C 1318.72 1.27312 -3.18821 0
M  V30 13897 C 1317.81 0.612457 -4.19654 0
M  V30 13898 N 1318.2 -0.30875 -5.04857 0
M  V30 13899 C 1316.5 0.868224 -4.37468 0
M  V30 13900 C 1317.2 -0.691052 -5.77581 0
M  V30 13901 N 1316.17 -0.0493574 -5.43578 0
M  V30 13902 H 1319.97 -0.47427 -2.90048 0
M  V30 13903 H 1317.49 -0.360868 -1.5834 0
M  V30 13904 H 1319.49 1.84305 -3.73948 0
M  V30 13905 H 1318.15 1.98288 -2.57122 0
M  V30 13906 H 1319.16 -0.682054 -5.13389 0
M  V30 13907 H 1315.83 1.56765 -3.86951 0
M  V30 13908 H 1317.22 -1.44713 -6.56131 0
M  V30 13909 N 1319.94 1.55134 -0.277709 0
M  V30 13910 C 1321.19 1.99259 0.337662 0
M  V30 13911 C 1321.51 1.16755 1.56183 0
M  V30 13912 O 1320.78 0.257707 1.94198 0
M  V30 13913 H 1319.36 0.735995 0.127751 0
M  V30 13914 H 1322.02 1.91087 -0.383646 0
M  V30 13915 H 1321.12 3.05763 0.625747 0
M  V30 13916 N 1321.42 0.00503138 1.57599 0
M  V30 13917 C 1322.84 -0.351109 1.5569 0
M  V30 13918 C 1323.04 -1.74465 1.00818 0
M  V30 13919 O 1322.09 -2.44144 0.64422 0
M  V30 13920 C 1323.41 -0.221738 2.99881 0
M  V30 13921 C 1324.95 -0.296303 3.11594 0
M  V30 13922 C 1325.43 -0.195998 4.5758 0
M  V30 13923 N 1326.92 -0.253741 4.62504 0
M  V30 13924 C 1327.66 -0.199546 5.73053 0
M  V30 13925 N 1327.15 -0.0956553 6.92734 0
M  V30 13926 N 1328.94 -0.251779 5.61536 0
M  V30 13927 H 1321.1 0.916578 1.91605 0
M  V30 13928 H 1323.36 0.351802 0.880306 0
M  V30 13929 H 1323.06 0.737255 3.43886 0
M  V30 13930 H 1322.94 -1.00178 3.63654 0
M  V30 13931 H 1325.33 -1.24574 2.67517 0
M  V30 13932 H 1325.41 0.513692 2.50589 0
M  V30 13933 H 1325.05 0.749918 5.02333 0
M  V30 13934 H 1324.98 -1.02455 5.16537 0
M  V30 13935 H 1327.47 -0.335163 3.76411 0
M  V30 13936 H 1327.78 -0.0603357 7.72776 0
M  V30 13937 H 1326.13 -0.0612113 6.94973 0
M  V30 13938 H 1329.32 -0.331173 4.66927 0
M  V30 13939 H 1329.49 -0.206078 6.47672 0
M  V30 13940 N 1322.9 -1.55308 -0.267798 0
M  V30 13941 C 1323.85 -1.88544 -1.33115 0
M  V30 13942 C 1324.82 -0.737465 -1.48831 0
M  V30 13943 O 1326 -0.989215 -1.63154 0
M  V30 13944 C 1323.14 -2.1674 -2.68547 0
M  V30 13945 C 1322.25 -3.44234 -2.61011 0
M  V30 13946 C 1321.39 -3.62104 -3.88657 0
M  V30 13947 C 1320.43 -4.83272 -3.75652 0
M  V30 13948 N 1319.57 -4.97772 -4.95144 0
M  V30 13949 H 1324.41 -2.79237 -1.04071 0
M  V30 13950 H 1321.94 -1.38245 -0.502677 0
M  V30 13951 H 1323.9 -2.31088 -3.47353 0
M  V30 13952 H 1322.53 -1.29276 -2.95783 0
M  V30 13953 H 1321.58 -3.3833 -1.73887 0
M  V30 13954 H 1322.89 -4.33177 -2.47303 0
M  V30 13955 H 1322.05 -3.76298 -4.75904 0
M  V30 13956 H 1320.79 -2.71356 -4.05238 0
M  V30 13957 H 1319.79 -4.69076 -2.86788 0
M  V30 13958 H 1321.02 -5.75461 -3.60585 0
M  V30 13959 H 1318.96 -4.09956 -5.12125 0
M  V30 13960 H 1318.88 -5.80769 -4.83987 0
M  V30 13961 H 1320.15 -5.16357 -5.83949 0
M  V30 13962 N 1324.38 0.532545 -1.4833 0
M  V30 13963 C 1325.65 1.29371 -1.46705 0
M  V30 13964 C 1326.03 2.10354 -0.177329 0
M  V30 13965 O 1325.38 2.12462 0.840968 0
M  V30 13966 C 1325.59 2.17733 -2.72751 0
M  V30 13967 C 1326.94 2.77956 -3.20976 0
M  V30 13968 O 1327.96 2.28022 -2.7365 0
M  V30 13969 O 1326.82 3.68779 -4.03317 0
M  V30 13970 H 1323.92 0.58378 -0.585773 0
M  V30 13971 H 1326.46 0.549411 -1.6056 0
M  V30 13972 H 1325.24 1.57659 -3.58133 0
M  V30 13973 H 1324.86 2.99415 -2.61603 0
M  V30 13974 N 1325.86 1.36875 0.78122 0
M  V30 13975 C 1327.08 1.34732 1.57019 0
M  V30 13976 C 1327.5 -0.0695423 1.88672 0
M  V30 13977 O 1326.86 -1.02873 1.50743 0
M  V30 13978 C 1326.91 2.17668 2.88623 0
M  V30 13979 O 1326.63 3.53832 2.5833 0
M  V30 13980 C 1328.13 2.23398 3.82895 0
M  V30 13981 H 1325.35 0.461857 0.486754 0
M  V30 13982 H 1327.89 1.80086 0.968989 0
M  V30 13983 H 1326.05 1.75848 3.4519 0
M  V30 13984 H 1326.46 3.972 3.42538 0
M  V30 13985 H 1327.94 2.85769 4.72271 0
M  V30 13986 H 1328.41 1.23972 4.2134 0
M  V30 13987 H 1329.02 2.65489 3.32258 0
M  V30 13988 N 1327.33 -1.00632 1.21289 0
M  V30 13989 C 1328.58 -1.74647 1.03084 0
M  V30 13990 C 1328.91 -1.89271 -0.43476 0
M  V30 13991 O 1328.19 -1.42607 -1.32263 0
M  V30 13992 C 1328.47 -3.15981 1.72709 0
M  V30 13993 C 1328.32 -3.09088 3.2678 0
M  V30 13994 C 1329.64 -4.14875 1.46857 0
M  V30 13995 H 1326.76 -0.633938 0.375889 0
M  V30 13996 H 1329.4 -1.17328 1.49446 0
M  V30 13997 H 1327.55 -3.64918 1.33294 0
M  V30 13998 H 1329.23 -2.67875 3.75554 0
M  V30 13999 H 1327.47 -2.46223 3.57151 0
M  V30 14000 H 1328.14 -4.09041 3.70661 0
M  V30 14001 H 1330.62 -3.74637 1.81069 0
M  V30 14002 H 1329.49 -5.1191 1.98088 0
M  V30 14003 H 1329.75 -4.40302 0.398296 0
M  V30 14004 N 1328.81 -1.02043 -1.20104 0
M  V30 14005 C 1330.06 -0.707271 -1.88893 0
M  V30 14006 C 1330.37 0.766617 -1.79951 0
M  V30 14007 O 1331.58 1.19248 -2.4391 0
M  V30 14008 C 1330.04 -1.2147 -3.38782 0
M  V30 14009 C 1329.64 -2.71576 -3.56301 0
M  V30 14010 C 1331.39 -0.977146 -4.13101 0
M  V30 14011 C 1329.29 -3.15781 -5.00037 0
M  V30 14012 H 1328.22 -0.26086 -0.707438 0
M  V30 14013 H 1330.88 -1.23361 -1.35846 0
M  V30 14014 H 1329.26 -0.616315 -3.91175 0
M  V30 14015 H 1330.43 -3.36997 -3.14276 0
M  V30 14016 H 1328.75 -2.93517 -2.95359 0
M  V30 14017 H 1331.34 -1.28278 -5.19085 0
M  V30 14018 H 1331.69 0.0862909 -4.16211 0
M  V30 14019 H 1332.22 -1.5391 -3.6682 0
M  V30 14020 H 1328.96 -4.21417 -5.02084 0
M  V30 14021 H 1328.48 -2.55083 -5.42856 0
M  V30 14022 H 1330.16 -3.08637 -5.6864 0
M  V30 14023 N 1330.29 1.35952 -0.797165 0
M  V30 14024 C 1331.24 2.29941 -0.198995 0
M  V30 14025 C 1332.21 1.52355 0.661592 0
M  V30 14026 O 1333.39 1.80832 0.60865 0
M  V30 14027 C 1330.53 3.38846 0.654033 0
M  V30 14028 C 1329.65 4.31409 -0.225949 0
M  V30 14029 C 1328.78 5.27401 0.634188 0
M  V30 14030 C 1327.82 6.11602 -0.246773 0
M  V30 14031 N 1326.96 6.9976 0.57279 0
M  V30 14032 H 1331.8 2.80508 -1.00594 0
M  V30 14033 H 1329.33 1.38064 -0.507617 0
M  V30 14034 H 1331.29 4.00643 1.16367 0
M  V30 14035 H 1329.92 2.89578 1.42633 0
M  V30 14036 H 1328.97 3.70699 -0.853616 0
M  V30 14037 H 1330.29 4.90532 -0.904416 0
M  V30 14038 H 1329.44 5.94525 1.20933 0
M  V30 14039 H 1328.18 4.68751 1.34625 0
M  V30 14040 H 1327.18 5.43434 -0.834258 0
M  V30 14041 H 1328.41 6.72329 -0.956559 0
M  V30 14042 H 1326.35 6.43609 1.26901 0
M  V30 14043 H 1326.27 7.55985 -0.0478303 0
M  V30 14044 H 1327.54 7.71244 1.13151 0
M  V30 14045 N 1331.77 0.549846 1.47697 0
M  V30 14046 C 1333.18 0.11453 1.86348 0
M  V30 14047 C 1333.53 -1.31368 1.45729 0
M  V30 14048 O 1332.66 -1.98707 0.856989 0
M  V30 14049 C 1333.25 0.201072 3.38203 0
M  V30 14050 C 1331.81 -0.179162 3.75973 0
M  V30 14051 C 1330.96 0.551951 2.71751 0
M  V30 14052 H 1333.91 0.759989 1.39319 0
M  V30 14053 H 1333.93 -0.582216 3.76019 0
M  V30 14054 H 1333.44 1.24065 3.67736 0
M  V30 14055 H 1331.54 -1.22013 3.52056 0
M  V30 14056 H 1331.65 0.174273 4.78783 0
M  V30 14057 H 1330.02 -0.00411819 2.547 0
M  V30 14058 H 1330.8 1.59254 3.04127 0
M  V30 14059 N 1333.25 -1.54984 0.285932 0
M  V30 14060 C 1334.18 -2.25916 -0.590259 0
M  V30 14061 C 1335.16 -1.25319 -1.15018 0
M  V30 14062 O 1336.34 -1.54062 -1.18231 0
M  V30 14063 C 1333.47 -2.98849 -1.76936 0
M  V30 14064 C 1332.43 -4.06466 -1.3405 0
M  V30 14065 C 1331.75 -4.67032 -2.60356 0
M  V30 14066 C 1333.05 -5.20064 -0.482754 0
M  V30 14067 H 1334.75 -2.994 0.00131571 0
M  V30 14068 H 1332.29 -1.44 0.00207281 0
M  V30 14069 H 1334.25 -3.47186 -2.3883 0
M  V30 14070 H 1332.97 -2.22918 -2.38694 0
M  V30 14071 H 1331.63 -3.58957 -0.7447 0
M  V30 14072 H 1331.28 -3.87757 -3.20396 0
M  V30 14073 H 1330.98 -5.39703 -2.32368 0
M  V30 14074 H 1332.5 -5.18124 -3.23079 0
M  V30 14075 H 1333.91 -5.64387 -1.00697 0
M  V30 14076 H 1332.31 -5.99363 -0.297291 0
M  V30 14077 H 1333.38 -4.82358 0.495861 0
M  V30 14078 N 1334.72 -0.0133892 -1.57594 0
M  V30 14079 C 1335.65 0.972341 -2.12292 0
M  V30 14080 C 1336.64 1.34971 -1.03522 0
M  V30 14081 O 1337.82 1.4311 -1.31275 0
M  V30 14082 C 1334.95 2.25988 -2.63717 0
M  V30 14083 C 1333.9 2.02373 -3.77133 0
M  V30 14084 C 1333.23 3.37256 -4.14925 0
M  V30 14085 C 1334.53 1.37553 -5.03861 0
M  V30 14086 H 1336.22 0.516869 -2.94905 0
M  V30 14087 H 1333.77 0.247176 -1.41863 0
M  V30 14088 H 1335.72 2.95313 -3.00613 0
M  V30 14089 H 1334.45 2.73672 -1.78244 0
M  V30 14090 H 1333.11 1.3547 -3.40651 0
M  V30 14091 H 1332.75 3.82669 -3.26456 0
M  V30 14092 H 1332.45 3.22267 -4.91343 0
M  V30 14093 H 1333.98 4.07875 -4.5439 0
M  V30 14094 H 1335.39 1.96855 -5.38443 0
M  V30 14095 H 1333.79 1.33011 -5.85174 0
M  V30 14096 H 1334.86 0.346429 -4.83661 0
M  V30 14097 N 1336.2 1.55448 0.259558 0
M  V30 14098 C 1337.45 1.76948 0.990816 0
M  V30 14099 C 1337.78 0.576401 1.85449 0
M  V30 14100 O 1337.06 -0.425693 1.89784 0
M  V30 14101 C 1337.34 3.08221 1.86204 0
M  V30 14102 C 1337.19 4.37909 1.0274 0
M  V30 14103 C 1338.51 3.35627 2.84679 0
M  V30 14104 H 1335.63 0.64377 0.358788 0
M  V30 14105 H 1338.27 1.88182 0.262211 0
M  V30 14106 H 1336.42 2.98775 2.48326 0
M  V30 14107 H 1338.09 4.5933 0.425855 0
M  V30 14108 H 1336.34 4.32533 0.331308 0
M  V30 14109 H 1337.01 5.26116 1.6705 0
M  V30 14110 H 1339.48 3.44954 2.32693 0
M  V30 14111 H 1338.36 4.28719 3.42769 0
M  V30 14112 H 1338.62 2.55921 3.60496 0
M  V30 14113 N 1337.68 -0.524672 1.4861 0
M  V30 14114 C 1338.59 -1.65554 1.6622 0
M  V30 14115 C 1339.61 -1.65254 0.54471 0
M  V30 14116 O 1340.78 -1.84109 0.816454 0
M  V30 14117 C 1337.85 -3.02003 1.7028 0
M  V30 14118 C 1336.91 -3.13116 2.93695 0
M  V30 14119 C 1336.14 -4.43055 2.97553 0
M  V30 14120 O 1336.36 -5.30468 2.09667 0
M  V30 14121 O 1335.3 -4.58646 3.89779 0
M  V30 14122 H 1339.12 -1.53633 2.61974 0
M  V30 14123 H 1336.71 -0.698354 1.32073 0
M  V30 14124 H 1338.59 -3.83143 1.75441 0
M  V30 14125 H 1337.27 -3.14236 0.777002 0
M  V30 14126 H 1336.17 -2.31251 2.94064 0
M  V30 14127 H 1337.51 -3.058 3.85677 0
M  V30 14128 N 1339.16 -1.37287 -0.77395 0
M  V30 14129 C 1340.57 -1.28954 -1.3501 0
M  V30 14130 C 1340.92 0.0638301 -1.96096 0
M  V30 14131 O 1340.05 0.965624 -1.93661 0
M  V30 14132 C 1340.64 -2.3352 -2.45467 0
M  V30 14133 C 1339.2 -2.28828 -2.98856 0
M  V30 14134 C 1338.35 -2.17468 -1.72055 0
M  V30 14135 H 1341.3 -1.47941 -0.57438 0
M  V30 14136 H 1341.32 -1.98058 -3.24889 0
M  V30 14137 H 1340.83 -3.32009 -2.00977 0
M  V30 14138 H 1338.93 -1.33855 -3.47726 0
M  V30 14139 H 1339.04 -3.22152 -3.54619 0
M  V30 14140 H 1337.41 -1.63977 -1.94894 0
M  V30 14141 H 1338.19 -3.17868 -1.29672 0
M  V30 14142 N 1340.64 0.999871 -1.21821 0
M  V30 14143 C 1341.55 2.12303 -0.99823 0
M  V30 14144 C 1342.56 1.73924 0.0512923 0
M  V30 14145 O 1343.74 2.00914 -0.139895 0
M  V30 14146 C 1340.8 3.41962 -0.571232 0
M  V30 14147 C 1339.86 3.94483 -1.69356 0
M  V30 14148 C 1339.1 5.17954 -1.28685 0
M  V30 14149 O 1339.32 5.70168 -0.162641 0
M  V30 14150 O 1338.25 5.64051 -2.10071 0
M  V30 14151 H 1342.08 2.3374 -1.93905 0
M  V30 14152 H 1339.67 1.10677 -1.00354 0
M  V30 14153 H 1341.55 4.20001 -0.343134 0
M  V30 14154 H 1340.22 3.21901 0.340814 0
M  V30 14155 H 1339.13 3.17648 -1.97612 0
M  V30 14156 H 1340.46 4.18964 -2.58322 0
M  V30 14157 N 1342.11 1.02678 1.19562 0
M  V30 14158 C 1343.36 0.72059 1.88817 0
M  V30 14159 C 1343.68 -0.752942 1.79877 0
M  V30 14160 O 1342.95 -1.54233 1.20785 0
M  V30 14161 H 1341.53 0.26355 0.698964 0
M  V30 14162 H 1344.2 1.30056 1.4516 0
M  V30 14163 H 1343.29 1.01303 2.95202 0
M  V30 14164 N 1343.59 -1.35528 0.804364 0
M  V30 14165 C 1344.52 -2.32388 0.227604 0
M  V30 14166 C 1345.5 -1.57368 -0.645709 0
M  V30 14167 O 1346.69 -1.85448 -0.576441 0
M  V30 14168 C 1343.82 -3.41603 -0.62645 0
M  V30 14169 C 1342.77 -4.27743 0.148187 0
M  V30 14170 C 1342.1 -5.28259 -0.827425 0
M  V30 14171 C 1343.4 -5.04661 1.34591 0
M  V30 14172 H 1345.09 -2.80874 1.03684 0
M  V30 14173 H 1342.64 -1.3504 0.500031 0
M  V30 14174 H 1344.59 -4.08365 -1.03999 0
M  V30 14175 H 1343.32 -2.91721 -1.46855 0
M  V30 14176 H 1341.97 -3.62558 0.542874 0
M  V30 14177 H 1341.62 -4.74645 -1.66496 0
M  V30 14178 H 1341.32 -5.86763 -0.313453 0
M  V30 14179 H 1342.85 -5.97893 -1.23921 0
M  V30 14180 H 1344.26 -5.6438 1.00736 0
M  V30 14181 H 1342.66 -5.7265 1.79422 0
M  V30 14182 H 1343.73 -4.35432 2.1337 0
M  V30 14183 N 1345.07 -0.557671 -1.47404 0
M  V30 14184 C 1345.98 0.19289 -2.33806 0
M  V30 14185 C 1347 0.911424 -1.4822 0
M  V30 14186 O 1348.17 0.880214 -1.81147 0
M  V30 14187 C 1345.24 1.20937 -3.24923 0
M  V30 14188 C 1344.3 0.498209 -4.26399 0
M  V30 14189 C 1343.53 1.46626 -5.13163 0
M  V30 14190 O 1343.76 2.70111 -5.0239 0
M  V30 14191 O 1342.69 0.990497 -5.93694 0
M  V30 14192 H 1346.52 -0.515861 -2.99287 0
M  V30 14193 H 1344.1 -0.318283 -1.4597 0
M  V30 14194 H 1345.98 1.7961 -3.81206 0
M  V30 14195 H 1344.66 1.90003 -2.6207 0
M  V30 14196 H 1343.56 -0.129736 -3.73875 0
M  V30 14197 H 1344.9 -0.151015 -4.91968 0
M  V30 14198 N 1346.55 1.54831 -0.294147 0
M  V30 14199 C 1347.5 2.23263 0.58499 0
M  V30 14200 C 1348.47 1.21278 1.13494 0
M  V30 14201 O 1349.65 1.49878 1.18073 0
M  V30 14202 C 1346.79 2.97185 1.75429 0
M  V30 14203 C 1345.9 4.1393 1.23638 0
M  V30 14204 C 1345.04 4.7545 2.36899 0
M  V30 14205 C 1344.08 5.84352 1.82207 0
M  V30 14206 N 1343.22 6.39855 2.89015 0
M  V30 14207 H 1348.06 2.98 -0.00519329 0
M  V30 14208 H 1345.59 1.47093 -0.0143313 0
M  V30 14209 H 1347.55 3.38271 2.4419 0
M  V30 14210 H 1346.18 2.24837 2.3162 0
M  V30 14211 H 1345.23 3.77832 0.441247 0
M  V30 14212 H 1346.54 4.92409 0.795946 0
M  V30 14213 H 1345.7 5.19353 3.1362 0
M  V30 14214 H 1344.44 3.96288 2.84266 0
M  V30 14215 H 1343.44 5.39879 1.03974 0
M  V30 14216 H 1344.67 6.65393 1.35753 0
M  V30 14217 H 1342.61 5.6358 3.35729 0
M  V30 14218 H 1342.53 7.13661 2.49447 0
M  V30 14219 H 1343.8 6.88417 3.65654 0
M  V30 14220 N 1348.03 0.0217466 1.57585 0
M  V30 14221 C 1348.94 -0.978407 2.13224 0
M  V30 14222 C 1349.95 -1.36212 1.08269 0
M  V30 14223 O 1351.13 -1.44504 1.40288 0
M  V30 14224 C 1348.19 -2.24462 2.6423 0
M  V30 14225 C 1347.26 -1.92201 3.83871 0
M  V30 14226 C 1346.49 -3.12786 4.32436 0
M  V30 14227 O 1346.71 -4.25201 3.8021 0
M  V30 14228 O 1345.65 -2.95514 5.24362 0
M  V30 14229 H 1349.47 -0.535347 2.98944 0
M  V30 14230 H 1347.06 -0.198414 1.48077 0
M  V30 14231 H 1348.94 -2.98809 2.97138 0
M  V30 14232 H 1347.61 -2.67964 1.81596 0
M  V30 14233 H 1346.52 -1.15262 3.55901 0
M  V30 14234 H 1347.85 -1.53521 4.67645 0
M  V30 14235 N 1349.51 -1.55583 -0.251311 0
M  V30 14236 C 1350.73 -1.81259 -0.997636 0
M  V30 14237 C 1351.15 -0.596861 -1.79117 0
M  V30 14238 O 1350.51 0.434425 -1.77254 0
M  V30 14239 C 1350.56 -3.05097 -1.93902 0
M  V30 14240 O 1350.28 -4.21976 -1.1776 0
M  V30 14241 C 1351.78 -3.4354 -2.8017 0
M  V30 14242 H 1349 -0.603279 -0.29376 0
M  V30 14243 H 1351.54 -2.02635 -0.27553 0
M  V30 14244 H 1349.7 -2.85784 -2.61546 0
M  V30 14245 H 1350.11 -4.92133 -1.81398 0
M  V30 14246 H 1351.59 -4.33305 -3.41981 0
M  V30 14247 H 1352.06 -2.63924 -3.51057 0
M  V30 14248 H 1352.67 -3.65189 -2.17985 0
M  V30 14249 N 1350.98 0.516783 -1.48886 0
M  V30 14250 C 1352.21 1.29628 -1.61258 0
M  V30 14251 C 1352.63 1.86744 -0.27786 0
M  V30 14252 O 1351.98 1.67061 0.734639 0
M  V30 14253 C 1352.03 2.43779 -2.66935 0
M  V30 14254 O 1351.76 1.89014 -3.95228 0
M  V30 14255 C 1353.26 3.35398 -2.89867 0
M  V30 14256 H 1350.48 0.393736 -0.543335 0
M  V30 14257 H 1353.02 0.622069 -1.94809 0
M  V30 14258 H 1351.18 3.0706 -2.36206 0
M  V30 14259 H 1351.59 2.63833 -4.53312 0
M  V30 14260 H 1353.06 4.11812 -3.6758 0
M  V30 14261 H 1353.54 3.91436 -1.99185 0
M  V30 14262 H 1354.15 2.77898 -3.21952 0
M  V30 14263 N 1352.46 1.37696 0.766659 0
M  V30 14264 C 1353.71 1.33185 1.52539 0
M  V30 14265 C 1354.04 -0.0821239 1.94327 0
M  V30 14266 O 1353.29 -1.05645 1.64735 0
M  V30 14267 C 1353.59 2.22154 2.79968 0
M  V30 14268 C 1353.26 3.70344 2.57208 0
M  V30 14269 C 1351.92 4.10729 2.50709 0
M  V30 14270 C 1354.27 4.64205 2.36988 0
M  V30 14271 C 1351.6 5.43082 2.21988 0
M  V30 14272 C 1353.95 5.96801 2.0979 0
M  V30 14273 C 1352.61 6.36284 2.01739 0
M  V30 14274 H 1351.88 0.487357 0.558179 0
M  V30 14275 H 1354.53 1.69945 0.882662 0
M  V30 14276 H 1352.84 1.78406 3.48825 0
M  V30 14277 H 1354.53 2.15975 3.37869 0
M  V30 14278 H 1351.12 3.38319 2.63131 0
M  V30 14279 H 1355.31 4.3386 2.40996 0
M  V30 14280 H 1350.56 5.7263 2.14254 0
M  V30 14281 H 1354.74 6.6908 1.93145 0
M  V30 14282 H 1352.36 7.38765 1.79248 0
M  V30 14283 N 1353.94 -0.993397 1.22349 0
M  V30 14284 C 1354.89 -2.10463 0.990358 0
M  V30 14285 C 1355.88 -1.6927 -0.0663528 0
M  V30 14286 O 1357.09 -1.79794 0.0860444 0
M  V30 14287 H 1353.46 -0.688222 0.303075 0
M  V30 14288 H 1355.43 -2.273 1.93333 0
M  V30 14289 C 1354.18 -3.42757 0.584205 0
M  V30 14290 H 1353.51 -3.74896 1.38899 0
M  V30 14291 H 1354.95 -4.21492 0.46049 0
M  V30 14292 C 1353.4 -3.29416 -0.706187 0
M  V30 14293 O 1353.93 -3.61152 -1.75875 0
M  V30 14294 N 1352.14 -2.82601 -0.677148 0
M  V30 14295 H 1351.69 -2.56972 0.179712 0
M  V30 14296 H 1351.65 -2.74056 -1.54081 0
M  V30 14297 N 1355.42 -1.03311 -1.19015 0
M  V30 14298 C 1356.64 -0.751686 -1.93299 0
M  V30 14299 C 1357.07 0.68392 -1.75226 0
M  V30 14300 O 1356.43 1.47274 -1.05736 0
M  V30 14301 C 1356.47 -1.11335 -3.42982 0
M  V30 14302 O 1355.58 -0.234434 -4.11733 0
M  V30 14303 H 1354.92 -0.277331 -0.60331 0
M  V30 14304 H 1357.45 -1.38092 -1.5097 0
M  V30 14305 H 1357.46 -1.07204 -3.93664 0
M  V30 14306 H 1356.13 -2.15922 -3.55458 0
M  V30 14307 H 1354.71 -0.3347 -3.71395 0
M  V30 14308 N 1356.9 1.35099 -0.81154 0
M  V30 14309 C 1357.83 2.32264 -0.239925 0
M  V30 14310 C 1358.81 1.57708 0.637354 0
M  V30 14311 O 1359.99 1.85751 0.566598 0
M  V30 14312 C 1357.12 3.41931 0.608325 0
M  V30 14313 C 1356.08 4.27659 -0.170869 0
M  V30 14314 C 1355.4 5.28691 0.799398 0
M  V30 14315 C 1356.7 5.0394 -1.37266 0
M  V30 14316 H 1358.4 2.8032 -1.05172 0
M  V30 14317 H 1355.94 1.34773 -0.507185 0
M  V30 14318 H 1357.89 4.08911 1.01832 0
M  V30 14319 H 1356.62 2.92496 1.45306 0
M  V30 14320 H 1355.28 3.62265 -0.562094 0
M  V30 14321 H 1354.93 4.75521 1.63977 0
M  V30 14322 H 1354.63 5.86921 0.282331 0
M  V30 14323 H 1356.15 5.98542 1.20749 0
M  V30 14324 H 1357.56 5.63838 -1.03728 0
M  V30 14325 H 1355.96 5.7169 -1.82456 0
M  V30 14326 H 1357.03 4.34295 -2.15676 0
M  V30 14327 N 1358.37 0.56548 1.47106 0
M  V30 14328 C 1359.3 -0.16567 2.32912 0
M  V30 14329 C 1360.28 -0.900678 1.44298 0
M  V30 14330 O 1361.47 -0.879523 1.73142 0
M  V30 14331 C 1358.6 -1.19092 3.26243 0
M  V30 14332 C 1357.55 -0.571849 4.24163 0
M  V30 14333 C 1356.88 -1.70233 5.06878 0
M  V30 14334 C 1358.18 0.479785 5.20092 0
M  V30 14335 H 1359.87 0.550705 2.94292 0
M  V30 14336 H 1357.42 0.266284 1.41517 0
M  V30 14337 H 1359.37 -1.71064 3.85117 0
M  V30 14338 H 1358.1 -1.93734 2.62934 0
M  V30 14339 H 1356.76 -0.073353 3.66527 0
M  V30 14340 H 1356.4 -2.438 4.39967 0
M  V30 14341 H 1356.1 -1.29384 5.73178 0
M  V30 14342 H 1357.63 -2.22515 5.68612 0
M  V30 14343 H 1359.04 0.0458042 5.73282 0
M  V30 14344 H 1357.44 0.807615 5.94641 0
M  V30 14345 H 1358.51 1.37259 4.65068 0
M  V30 14346 N 1359.85 -1.54672 0.302354 0
M  V30 14347 C 1361.09 -2.02076 -0.30738 0
M  V30 14348 C 1361.46 -1.18603 -1.50988 0
M  V30 14349 O 1362.66 -1.5571 -2.19107 0
M  V30 14350 C 1360.93 -3.5137 -0.65375 0
M  V30 14351 S 1362.49 -4.20733 -1.24615 0
M  V30 14352 H 1359.31 -0.704725 -0.0942521 0
M  V30 14353 H 1361.91 -1.907 0.430542 0
M  V30 14354 H 1360.61 -4.09756 0.229892 0
M  V30 14355 H 1360.14 -3.66784 -1.42243 0
M  V30 14356 H 1362.16 -4.26624 -2.5339 0
M  V30 14357 N 1361.33 -0.0301034 -1.57571 0
M  V30 14358 C 1362.74 0.508591 -1.79639 0
M  V30 14359 C 1363.09 1.72191 -0.940458 0
M  V30 14360 O 1362.22 2.15872 -0.151138 0
M  V30 14361 C 1362.81 0.929446 -3.25802 0
M  V30 14362 C 1361.37 1.41325 -3.48861 0
M  V30 14363 C 1360.52 0.378433 -2.74706 0
M  V30 14364 H 1363.47 -0.256131 -1.56619 0
M  V30 14365 H 1363.49 1.79374 -3.35567 0
M  V30 14366 H 1363 0.0461738 -3.88073 0
M  V30 14367 H 1361.1 2.31641 -2.91844 0
M  V30 14368 H 1361.22 1.41995 -4.57574 0
M  V30 14369 H 1359.58 0.846744 -2.40213 0
M  V30 14370 H 1360.36 -0.49639 -3.39692 0
M  V30 14371 N 1362.81 1.55714 0.243056 0
M  V30 14372 C 1364.03 1.82126 0.992219 0
M  V30 14373 C 1364.46 0.607665 1.78014 0
M  V30 14374 O 1363.82 -0.443351 1.75796 0
M  V30 14375 C 1363.86 3.06314 1.90274 0
M  V30 14376 O 1362.97 2.83499 2.99503 0
M  V30 14377 H 1362.31 0.601082 0.282128 0
M  V30 14378 H 1364.84 2.02904 0.262881 0
M  V30 14379 H 1364.85 3.35849 2.31666 0
M  V30 14380 H 1363.52 3.94282 1.32344 0
M  V30 14381 H 1362.1 2.65141 2.62211 0
M  V30 14382 N 1364.29 -0.50888 1.49158 0
M  V30 14383 C 1365.53 -1.261 1.57934 0
M  V30 14384 C 1365.86 -1.93199 0.264405 0
M  V30 14385 O 1365.13 -1.82359 -0.715684 0
M  V30 14386 H 1363.71 -0.468421 0.581886 0
M  V30 14387 H 1366.37 -0.590447 1.85741 0
M  V30 14388 H 1365.46 -2.02913 2.37135 0
M  V30 14389 N 1365.76 -1.381 -0.759346 0
M  V30 14390 C 1367.01 -1.33727 -1.5153 0
M  V30 14391 C 1367.33 0.0739504 -1.9486 0
M  V30 14392 O 1366.6 1.02049 -1.67221 0
M  V30 14393 H 1365.18 -0.492037 -0.562058 0
M  V30 14394 H 1367.85 -1.72719 -0.902995 0
M  V30 14395 H 1366.94 -1.98439 -2.40891 0
M  V30 14396 N 1367.24 0.986894 -1.22875 0
M  V30 14397 C 1368.15 2.11232 -1.02069 0
M  V30 14398 C 1369.17 1.73969 0.0328424 0
M  V30 14399 O 1370.34 2.00754 -0.161197 0
M  V30 14400 C 1367.41 3.41337 -0.60747 0
M  V30 14401 C 1366.47 3.92665 -1.73531 0
M  V30 14402 C 1365.7 5.1656 -1.34171 0
M  V30 14403 O 1365.93 5.69964 -0.223106 0
M  V30 14404 O 1364.86 5.61791 -2.16041 0
M  V30 14405 H 1368.69 2.3167 -1.96374 0
M  V30 14406 H 1366.27 1.09607 -1.01522 0
M  V30 14407 H 1368.15 4.19613 -0.387661 0
M  V30 14408 H 1366.83 3.22244 0.306653 0
M  V30 14409 H 1365.74 3.15534 -2.0097 0
M  V30 14410 H 1367.07 4.162 -2.62751 0
M  V30 14411 N 1368.72 1.0394 1.18466 0
M  V30 14412 C 1369.97 0.743141 1.88694 0
M  V30 14413 C 1370.3 -0.727211 1.8007 0
M  V30 14414 O 1369.57 -1.53058 1.20014 0
M  V30 14415 C 1369.86 1.20829 3.39223 0
M  V30 14416 C 1369.71 2.74064 3.56664 0
M  V30 14417 C 1371.03 0.797348 4.32817 0
M  V30 14418 H 1368.15 0.271437 0.685194 0
M  V30 14419 H 1370.79 1.29119 1.39386 0
M  V30 14420 H 1368.94 0.742033 3.81348 0
M  V30 14421 H 1370.61 3.28717 3.2364 0
M  V30 14422 H 1368.86 3.1395 2.99362 0
M  V30 14423 H 1369.53 3.01668 4.62277 0
M  V30 14424 H 1372 1.19854 3.98465 0
M  V30 14425 H 1370.88 1.15057 5.36706 0
M  V30 14426 H 1371.14 -0.299601 4.41084 0
M  V30 14427 N 1370.2 -1.34667 0.818693 0
M  V30 14428 C 1371.42 -2.03173 0.416585 0
M  V30 14429 C 1371.85 -1.61261 -0.968321 0
M  V30 14430 O 1371.21 -0.79517 -1.62932 0
M  V30 14431 C 1371.25 -3.56803 0.521884 0
M  V30 14432 O 1370.36 -4.09827 -0.459953 0
M  V30 14433 H 1369.7 -0.6413 0.172136 0
M  V30 14434 H 1372.23 -1.72006 1.10794 0
M  V30 14435 H 1372.24 -4.06073 0.3961 0
M  V30 14436 H 1370.91 -3.86656 1.53198 0
M  V30 14437 H 1369.49 -3.71744 -0.293405 0
M  V30 14438 N 1371.68 -0.573274 -1.46804 0
M  V30 14439 C 1372.59 0.168081 -2.33997 0
M  V30 14440 C 1373.6 0.895652 -1.49178 0
M  V30 14441 O 1374.78 0.860951 -1.8207 0
M  V30 14442 C 1371.84 1.17483 -3.26188 0
M  V30 14443 C 1370.9 0.452956 -4.26904 0
M  V30 14444 C 1370.14 1.41175 -5.1469 0
M  V30 14445 O 1370.36 2.64767 -5.05227 0
M  V30 14446 O 1369.29 0.927472 -5.94711 0
M  V30 14447 H 1373.12 -0.547576 -2.98723 0
M  V30 14448 H 1370.71 -0.333747 -1.45624 0
M  V30 14449 H 1372.59 1.75557 -3.8309 0
M  V30 14450 H 1371.26 1.87213 -2.6407 0
M  V30 14451 H 1370.17 -0.169383 -3.73716 0
M  V30 14452 H 1371.5 -0.203186 -4.9178 0
M  V30 14453 N 1373.15 1.5451 -0.310553 0
M  V30 14454 C 1374.06 2.27557 0.570518 0
M  V30 14455 C 1375.08 1.31426 1.14032 0
M  V30 14456 O 1376.26 1.64423 1.16306 0
M  V30 14457 C 1373.32 3.00933 1.72163 0
M  V30 14458 C 1372.38 4.12623 1.18495 0
M  V30 14459 C 1371.62 4.8249 2.28121 0
M  V30 14460 O 1371.84 4.5178 3.48211 0
M  V30 14461 O 1370.77 5.69686 1.94273 0
M  V30 14462 H 1374.6 3.03692 -0.0223195 0
M  V30 14463 H 1372.18 1.49203 -0.0766821 0
M  V30 14464 H 1374.07 3.46925 2.39208 0
M  V30 14465 H 1372.74 2.27685 2.3009 0
M  V30 14466 H 1371.65 3.71008 0.479956 0
M  V30 14467 H 1372.98 4.87876 0.650994 0
M  V30 14468 N 1374.63 0.0384594 1.57553 0
M  V30 14469 C 1375.56 -0.938444 2.13812 0
M  V30 14470 C 1376.54 -1.33307 1.05657 0
M  V30 14471 O 1377.73 -1.41003 1.33535 0
M  V30 14472 C 1374.86 -2.21764 2.67279 0
M  V30 14473 C 1373.81 -1.96347 3.80305 0
M  V30 14474 C 1373.14 -3.30612 4.20238 0
M  V30 14475 C 1374.44 -1.2952 5.05986 0
M  V30 14476 H 1376.13 -0.469887 2.9569 0
M  V30 14477 H 1373.68 -0.224576 1.42238 0
M  V30 14478 H 1375.63 -2.90493 3.05273 0
M  V30 14479 H 1374.36 -2.70802 1.82576 0
M  V30 14480 H 1373.02 -1.30033 3.42764 0
M  V30 14481 H 1372.66 -3.77427 3.32502 0
M  V30 14482 H 1372.36 -3.14409 4.96408 0
M  V30 14483 H 1373.89 -4.00594 4.60822 0
M  V30 14484 H 1375.3 -1.88264 5.41507 0
M  V30 14485 H 1373.7 -1.23685 5.87216 0
M  V30 14486 H 1374.77 -0.269439 4.84151 0
M  V30 14487 N 1376.11 -1.55841 -0.234795 0
M  V30 14488 C 1377.34 -1.82649 -0.982547 0
M  V30 14489 C 1377.76 -0.617097 -1.77689 0
M  V30 14490 O 1377.12 0.434022 -1.76028 0
M  V30 14491 C 1377.17 -3.07319 -1.88646 0
M  V30 14492 O 1376.27 -2.85084 -2.97995 0
M  V30 14493 H 1375.61 -0.60257 -0.278936 0
M  V30 14494 H 1378.14 -2.03041 -0.252117 0
M  V30 14495 H 1378.15 -3.37073 -2.29882 0
M  V30 14496 H 1376.83 -3.94978 -1.30251 0
M  V30 14497 H 1375.4 -2.66528 -2.60801 0
M  V30 14498 N 1377.59 0.500963 -1.49426 0
M  V30 14499 C 1378.52 1.61114 -1.69011 0
M  V30 14500 C 1379.5 1.61341 -0.538813 0
M  V30 14501 O 1380.69 1.78081 -0.77466 0
M  V30 14502 C 1377.82 2.99598 -1.75666 0
M  V30 14503 C 1376.77 3.14236 -2.90585 0
M  V30 14504 C 1376.1 4.54071 -2.82354 0
M  V30 14505 C 1377.4 2.94258 -4.3152 0
M  V30 14506 H 1379.09 1.44978 -2.61957 0
M  V30 14507 H 1376.64 0.69603 -1.26061 0
M  V30 14508 H 1378.59 3.77163 -1.87953 0
M  V30 14509 H 1377.31 3.16822 -0.793186 0
M  V30 14510 H 1375.97 2.39096 -2.779 0
M  V30 14511 H 1375.62 4.68172 -1.83914 0
M  V30 14512 H 1375.32 4.64806 -3.59485 0
M  V30 14513 H 1376.84 5.33696 -2.96649 0
M  V30 14514 H 1378.26 3.61592 -4.44886 0
M  V30 14515 H 1376.65 3.16464 -5.09873 0
M  V30 14516 H 1377.72 1.90383 -4.45962 0
M  V30 14517 N 1379.07 1.38501 0.752011 0
M  V30 14518 C 1380.01 1.35857 1.86578 0
M  V30 14519 C 1380.98 0.220873 1.64625 0
M  V30 14520 O 1382.17 0.413348 1.86269 0
M  V30 14521 C 1379.31 1.19102 3.23896 0
M  V30 14522 C 1378.42 2.42272 3.5767 0
M  V30 14523 C 1377.56 2.18236 4.843 0
M  V30 14524 C 1376.6 3.37169 5.10865 0
M  V30 14525 N 1375.73 3.12558 6.28691 0
M  V30 14526 H 1380.57 2.31073 1.88173 0
M  V30 14527 H 1378.11 1.14803 0.919712 0
M  V30 14528 H 1380.07 1.07404 4.03138 0
M  V30 14529 H 1378.7 0.275243 3.21624 0
M  V30 14530 H 1377.75 2.64638 2.7326 0
M  V30 14531 H 1379.06 3.3091 3.73229 0
M  V30 14532 H 1378.22 2.03682 5.71488 0
M  V30 14533 H 1376.96 1.26966 4.70883 0
M  V30 14534 H 1375.96 3.52241 4.22145 0
M  V30 14535 H 1377.19 4.29317 5.26178 0
M  V30 14536 H 1375.13 2.23937 6.16594 0
M  V30 14537 H 1375.05 3.94746 6.44757 0
M  V30 14538 H 1376.32 3.01663 7.18763 0
M  V30 14539 N 1380.55 -0.980364 1.23396 0
M  V30 14540 C 1381.48 -2.0908 1.0396 0
M  V30 14541 C 1382.46 -1.70044 -0.0434946 0
M  V30 14542 O 1383.64 -1.93822 0.121155 0
M  V30 14543 C 1380.77 -3.41537 0.630061 0
M  V30 14544 C 1379.73 -3.94476 1.66051 0
M  V30 14545 C 1379.05 -5.23128 1.10641 0
M  V30 14546 C 1380.35 -4.23741 3.05354 0
M  V30 14547 H 1382.05 -2.25598 1.9684 0
M  V30 14548 H 1379.59 -1.08409 0.94781 0
M  V30 14549 H 1381.54 -4.18644 0.481145 0
M  V30 14550 H 1380.27 -3.24883 -0.334416 0
M  V30 14551 H 1378.93 -3.19513 1.79742 0
M  V30 14552 H 1378.58 -5.02824 0.132913 0
M  V30 14553 H 1378.28 -5.59515 1.79492 0
M  V30 14554 H 1379.8 -6.02857 0.969344 0
M  V30 14555 H 1381.21 -4.91598 2.94964 0
M  V30 14556 H 1379.61 -4.71329 3.71442 0
M  V30 14557 H 1380.68 -3.31012 3.54343 0
M  V30 14558 N 1382.02 -1.04567 -1.17913 0
M  V30 14559 C 1383.43 -0.779118 -1.69666 0
M  V30 14560 C 1383.79 0.699448 -1.83309 0
M  V30 14561 O 1382.91 1.54407 -1.51616 0
M  V30 14562 C 1383.51 -1.40769 -3.08171 0
M  V30 14563 C 1382.06 -1.18933 -3.57116 0
M  V30 14564 C 1381.21 -1.49519 -2.33536 0
M  V30 14565 H 1384.16 -1.21144 -1.02518 0
M  V30 14566 H 1384.18 -0.813584 -3.717 0
M  V30 14567 H 1383.7 -2.4838 -2.9821 0
M  V30 14568 H 1381.8 -0.132184 -3.72365 0
M  V30 14569 H 1381.91 -1.88987 -4.40251 0
M  V30 14570 H 1380.27 -0.915056 -2.37695 0
M  V30 14571 H 1381.06 -2.5825 -2.26189 0
M  V30 14572 N 1383.5 1.34231 -0.825823 0
M  V30 14573 C 1384.91 1.8059 -0.473724 0
M  V30 14574 C 1385.26 1.68438 1.00614 0
M  V30 14575 O 1384.39 1.22606 1.78317 0
M  V30 14576 C 1384.98 3.27884 -0.853099 0
M  V30 14577 C 1383.54 3.72311 -0.553327 0
M  V30 14578 C 1382.69 2.55889 -1.06845 0
M  V30 14579 H 1385.64 1.21937 -1.01573 0
M  V30 14580 H 1385.66 3.80172 -0.158014 0
M  V30 14581 H 1385.17 3.36696 -1.93021 0
M  V30 14582 H 1383.27 3.69034 0.514256 0
M  V30 14583 H 1383.39 4.66315 -1.09942 0
M  V30 14584 H 1381.75 2.49945 -0.489874 0
M  V30 14585 H 1382.53 2.67471 -2.15207 0
M  V30 14586 N 1384.98 0.581051 1.46498 0
M  V30 14587 C 1385.93 -0.165944 2.32007 0
M  V30 14588 C 1386.92 -0.886015 1.44382 0
M  V30 14589 O 1388.13 -0.804592 1.61017 0
M  V30 14590 H 1384.5 -0.0723834 0.748508 0
M  V30 14591 H 1386.47 0.574089 2.92826 0
M  V30 14592 C 1385.22 -1.16741 3.27516 0
M  V30 14593 H 1384.55 -0.622756 3.9492 0
M  V30 14594 H 1385.99 -1.66052 3.90132 0
M  V30 14595 C 1384.44 -2.22755 2.52749 0
M  V30 14596 O 1384.97 -3.30081 2.28932 0
M  V30 14597 N 1383.18 -1.97318 2.1334 0
M  V30 14598 H 1382.73 -1.10049 2.3291 0
M  V30 14599 H 1382.69 -2.68461 1.63633 0
M  V30 14600 N 1386.46 -1.54343 0.318742 0
M  V30 14601 C 1387.7 -2.00777 -0.285699 0
M  V30 14602 C 1388.04 -1.20664 -1.52164 0
M  V30 14603 O 1387.31 -0.287674 -1.92361 0
M  V30 14604 C 1387.59 -3.54641 -0.624649 0
M  V30 14605 C 1387.45 -4.45483 0.621663 0
M  V30 14606 C 1388.77 -4.15729 -1.4442 0
M  V30 14607 H 1385.89 -0.729856 -0.102367 0
M  V30 14608 H 1388.53 -1.84968 0.434364 0
M  V30 14609 H 1386.68 -3.68243 -1.23811 0
M  V30 14610 H 1388.35 -4.43759 1.25998 0
M  V30 14611 H 1386.59 -4.15356 1.25148 0
M  V30 14612 H 1387.26 -5.50951 0.340106 0
M  V30 14613 H 1389.74 -4.05672 -0.925699 0
M  V30 14614 H 1388.62 -5.23509 -1.65013 0
M  V30 14615 H 1388.88 -3.68743 -2.43887 0
M  V30 14616 N 1387.94 -0.0468143 -1.5753 0
M  V30 14617 C 1389.18 0.628869 -1.92803 0
M  V30 14618 C 1389.51 1.70751 -0.925083 0
M  V30 14619 O 1388.79 1.94437 0.0495821 0
M  V30 14620 C 1389.07 1.22899 -3.38479 0
M  V30 14621 C 1388.93 0.158707 -4.4952 0
M  V30 14622 C 1390.24 2.1419 -3.84461 0
M  V30 14623 H 1387.36 0.227137 -0.701126 0
M  V30 14624 H 1390.01 -0.107689 -1.89695 0
M  V30 14625 H 1388.16 1.85674 -3.41259 0
M  V30 14626 H 1389.83 -0.472963 -4.58869 0
M  V30 14627 H 1388.07 -0.51375 -4.30747 0
M  V30 14628 H 1388.74 0.618545 -5.48523 0
M  V30 14629 H 1391.22 1.61382 -3.8353 0
M  V30 14630 H 1390.09 2.53125 -4.87051 0
M  V30 14631 H 1390.35 3.04024 -3.2097 0
M  V30 14632 N 1389.41 1.55964 0.226527 0
M  V30 14633 C 1390.32 1.95169 1.30178 0
M  V30 14634 C 1391.34 0.854831 1.51554 0
M  V30 14635 O 1392.52 1.15798 1.64781 0
M  V30 14636 C 1389.58 2.25612 2.63249 0
M  V30 14637 C 1388.64 3.4884 2.50219 0
M  V30 14638 C 1387.88 3.77822 3.76944 0
M  V30 14639 O 1388.1 3.08556 4.79739 0
M  V30 14640 O 1387.03 4.7132 3.74354 0
M  V30 14641 H 1390.86 2.86794 0.999145 0
M  V30 14642 H 1388.44 1.43109 0.42898 0
M  V30 14643 H 1390.33 2.4641 3.41848 0
M  V30 14644 H 1389 1.37162 2.93203 0
M  V30 14645 H 1387.91 3.33326 1.69836 0
M  V30 14646 H 1389.24 4.37657 2.25205 0
M  V30 14647 N 1390.89 -0.493031 1.4969 0
M  V30 14648 C 1391.8 -1.61991 1.69694 0
M  V30 14649 C 1392.82 -1.64061 0.579641 0
M  V30 14650 O 1393.99 -1.82335 0.855323 0
M  V30 14651 C 1391.06 -2.98323 1.76648 0
M  V30 14652 C 1390.12 -3.06816 3.00271 0
M  V30 14653 C 1389.35 -4.36644 3.06883 0
M  V30 14654 O 1389.58 -5.25901 2.20872 0
M  V30 14655 O 1388.51 -4.50275 3.99419 0
M  V30 14656 H 1392.34 -1.48042 2.65174 0
M  V30 14657 H 1389.92 -0.670182 1.33525 0
M  V30 14658 H 1391.8 -3.79335 1.83529 0
M  V30 14659 H 1390.48 -3.12517 0.843482 0
M  V30 14660 H 1389.39 -2.24962 2.98903 0
M  V30 14661 H 1390.72 -2.97551 3.92077 0
M  V30 14662 N 1392.37 -1.38898 -0.744656 0
M  V30 14663 C 1393.6 -1.3903 -1.53901 0
M  V30 14664 C 1394.02 0.0156607 -1.88093 0
M  V30 14665 O 1393.38 1.00012 -1.51219 0
M  V30 14666 C 1393.43 -2.2609 -2.80919 0
M  V30 14667 O 1392.53 -1.68414 -3.76444 0
M  V30 14668 H 1391.87 -0.473854 -0.465144 0
M  V30 14669 H 1394.4 -1.82773 -0.919525 0
M  V30 14670 H 1394.41 -2.40264 -3.29754 0
M  V30 14671 H 1393.09 -3.28271 -2.55364 0
M  V30 14672 H 1391.66 -1.63431 -3.35179 0
M  V30 14673 N 1393.85 0.973806 -1.23914 0
M  V30 14674 C 1394.81 2.04892 -1.02723 0
M  V30 14675 C 1395.81 1.60795 0.0132972 0
M  V30 14676 O 1397 1.72714 -0.227084 0
M  V30 14677 C 1394.13 3.36341 -0.555667 0
M  V30 14678 H 1395.33 2.25124 -1.98139 0
M  V30 14679 H 1392.88 1.14817 -1.06051 0
M  V30 14680 H 1393.61 3.21799 0.40197 0
M  V30 14681 H 1393.4 3.69689 -1.30661 0
M  V30 14682 H 1394.89 4.15398 -0.428248 0
M  V30 14683 N 1395.33 1.05191 1.17357 0
M  V30 14684 C 1396.74 0.773255 1.39617 0
M  V30 14685 C 1396.94 -0.632346 1.91321 0
M  V30 14686 O 1396 -1.39475 2.10483 0
M  V30 14687 C 1397.31 1.82885 2.38692 0
M  V30 14688 C 1398.86 1.85106 2.52398 0
M  V30 14689 C 1399.33 2.89689 3.54746 0
M  V30 14690 N 1400.83 2.88651 3.62263 0
M  V30 14691 C 1401.56 3.66221 4.41214 0
M  V30 14692 N 1401.06 4.53577 5.23679 0
M  V30 14693 N 1402.85 3.54661 4.36087 0
M  V30 14694 H 1395 1.9588 0.82127 0
M  V30 14695 H 1397.26 0.848187 0.423417 0
M  V30 14696 H 1396.97 2.83766 2.07773 0
M  V30 14697 H 1396.84 1.67047 3.38194 0
M  V30 14698 H 1399.23 0.848896 2.82627 0
M  V30 14699 H 1399.31 2.05022 1.5297 0
M  V30 14700 H 1398.96 3.90091 3.25255 0
M  V30 14701 H 1398.89 2.67025 4.53878 0
M  V30 14702 H 1401.38 2.25312 3.03386 0
M  V30 14703 H 1401.69 5.09449 5.81104 0
M  V30 14704 H 1400.03 4.57638 5.23061 0
M  V30 14705 H 1403.23 2.8581 3.70716 0
M  V30 14706 H 1403.4 4.15361 4.97372 0
M  V30 14707 N 1396.8 -1.33791 0.83293 0
M  V30 14708 C 1397.77 -2.27637 0.267196 0
M  V30 14709 C 1398.77 -1.50709 -0.560669 0
M  V30 14710 O 1399.96 -1.70109 -0.375321 0
M  V30 14711 C 1397.09 -3.35136 -0.624248 0
M  V30 14712 H 1398.28 -2.79186 1.09522 0
M  V30 14713 H 1395.84 -1.44093 0.605554 0
M  V30 14714 H 1396.57 -2.88818 -1.47494 0
M  V30 14715 H 1396.36 -3.92087 -0.0319827 0
M  V30 14716 H 1397.85 -4.05113 -1.01355 0
M  V30 14717 N 1398.28 -0.588812 -1.46187 0
M  V30 14718 C 1399.51 -0.0806571 -2.07243 0
M  V30 14719 C 1399.93 1.21766 -1.43369 0
M  V30 14720 O 1399.29 1.73694 -0.51964 0
M  V30 14721 C 1399.34 0.065267 -3.60541 0
M  V30 14722 O 1398.44 1.12026 -3.96893 0
M  V30 14723 H 1397.78 -0.0655622 -0.660755 0
M  V30 14724 H 1400.31 -0.813489 -1.87733 0
M  V30 14725 H 1400.32 0.269494 -4.07109 0
M  V30 14726 H 1399 -0.88284 -4.06422 0
M  V30 14727 H 1397.58 0.894 -3.62025 0
M  V30 14728 N 1399.76 1.54172 -0.326923 0
M  V30 14729 C 1401.01 2.00926 0.275047 0
M  V30 14730 C 1401.34 1.21469 1.51522 0
M  V30 14731 O 1400.61 0.297871 1.92206 0
M  V30 14732 C 1400.9 3.54967 0.605833 0
M  V30 14733 C 1400.75 4.45147 -0.645279 0
M  V30 14734 C 1402.07 4.16489 1.42213 0
M  V30 14735 H 1399.19 0.730389 0.098495 0
M  V30 14736 H 1401.83 1.84735 -0.444168 0
M  V30 14737 H 1399.98 3.68895 1.21857 0
M  V30 14738 H 1401.65 4.43085 -1.2835 0
M  V30 14739 H 1399.9 4.14686 -1.27349 0
M  V30 14740 H 1400.57 5.50763 -0.36932 0
M  V30 14741 H 1403.04 4.06158 0.904172 0
M  V30 14742 H 1401.92 5.24377 1.62234 0
M  V30 14743 H 1402.18 3.70032 2.41928 0
M  V30 14744 N 1401.24 0.0551678 1.57503 0
M  V30 14745 C 1402.46 -0.630692 1.97578 0
M  V30 14746 C 1402.89 -1.63348 0.932686 0
M  V30 14747 O 1402.25 -1.81004 -0.103632 0
M  V30 14748 C 1402.29 -1.29049 3.36718 0
M  V30 14749 O 1401.4 -2.40621 3.34926 0
M  V30 14750 H 1400.74 -0.163625 0.643524 0
M  V30 14751 H 1403.27 0.124753 2.04219 0
M  V30 14752 H 1403.28 -1.64124 3.73534 0
M  V30 14753 H 1401.95 -0.55559 4.12172 0
M  V30 14754 H 1400.53 -2.07463 3.0986 0
M  V30 14755 N 1402.72 -1.56081 -0.218252 0
M  V30 14756 C 1403.96 -1.79513 -0.943553 0
M  V30 14757 C 1404.3 -0.625367 -1.83855 0
M  V30 14758 O 1403.57 0.375226 -1.90846 0
M  V30 14759 C 1403.85 -3.13049 -1.77967 0
M  V30 14760 C 1403.71 -4.40479 -0.910939 0
M  V30 14761 C 1405.03 -3.43057 -2.7568 0
M  V30 14762 H 1402.14 -0.653057 -0.341593 0
M  V30 14763 H 1404.79 -1.88811 -0.212226 0
M  V30 14764 H 1402.94 -3.05254 -2.40318 0
M  V30 14765 H 1404.61 -4.60298 -0.303922 0
M  V30 14766 H 1402.85 -4.33259 -0.216513 0
M  V30 14767 H 1403.52 -5.3036 -1.53042 0
M  V30 14768 H 1406 -3.51002 -2.23465 0
M  V30 14769 H 1404.87 -4.37657 -3.31282 0
M  V30 14770 H 1405.14 -2.65389 -3.53584 0
M  V30 14771 N 1404.2 0.485086 -1.49949 0
M  V30 14772 C 1405.13 1.59312 -1.7071 0
M  V30 14773 C 1406.11 1.6076 -0.555896 0
M  V30 14774 O 1407.29 1.77249 -0.793504 0
M  V30 14775 C 1404.42 2.97718 -1.78834 0
M  V30 14776 C 1403.38 3.11136 -2.93902 0
M  V30 14777 C 1402.7 4.51051 -2.87154 0
M  V30 14778 C 1404 2.89665 -4.34617 0
M  V30 14779 H 1405.7 1.42192 -2.6348 0
M  V30 14780 H 1403.24 0.68262 -1.26792 0
M  V30 14781 H 1405.19 3.75148 -1.91943 0
M  V30 14782 H 1403.92 3.15963 -0.826744 0
M  V30 14783 H 1402.58 2.36135 -2.80421 0
M  V30 14784 H 1402.23 4.66195 -1.88869 0
M  V30 14785 H 1401.93 4.60967 -3.64394 0
M  V30 14786 H 1403.45 5.3052 -3.02293 0
M  V30 14787 H 1404.86 3.56853 -4.48697 0
M  V30 14788 H 1403.26 3.11039 -5.13201 0
M  V30 14789 H 1404.33 1.85642 -4.47956 0
M  V30 14790 N 1405.67 1.39291 0.737279 0
M  V30 14791 C 1406.92 1.36121 1.49384 0
M  V30 14792 C 1407.24 -0.0429406 1.94953 0
M  V30 14793 O 1406.51 -0.993756 1.68823 0
M  V30 14794 H 1405.09 0.500916 0.554159 0
M  V30 14795 H 1407.75 1.74134 0.875402 0
M  V30 14796 H 1406.85 2.02246 2.37704 0
M  V30 14797 N 1407.15 -0.967221 1.24429 0
M  V30 14798 C 1408.43 -1.68564 0.992253 0
M  V30 14799 C 1408.81 -2.05446 -0.485301 0
M  V30 14800 O 1408.16 -1.75798 -1.45971 0
M  V30 14801 C 1408.37 -2.91728 1.91562 0
M  V30 14802 C 1409.71 -3.63957 2.18678 0
M  V30 14803 O 1410.74 -3.01786 1.89219 0
M  V30 14804 O 1409.6 -4.75875 2.68711 0
M  V30 14805 H 1406.69 -0.736939 0.375299 0
M  V30 14806 H 1409.24 -1.02127 1.35529 0
M  V30 14807 H 1408.01 -2.61168 2.91388 0
M  V30 14808 H 1407.63 -3.65898 1.55577 0
M  V30 14809 N 1408.63 -1.05812 -1.16797 0
M  V30 14810 C 1409.88 -0.767008 -1.86547 0
M  V30 14811 C 1410.19 0.708979 -1.82299 0
M  V30 14812 O 1411.4 1.11428 -2.4758 0
M  V30 14813 C 1409.85 -1.32186 -3.34746 0
M  V30 14814 C 1409.46 -2.82774 -3.4748 0
M  V30 14815 C 1411.21 -1.10808 -4.09783 0
M  V30 14816 C 1409.11 -3.31529 -4.89737 0
M  V30 14817 H 1408.04 -0.283235 -0.698781 0
M  V30 14818 H 1410.69 -1.27621 -1.31853 0
M  V30 14819 H 1409.08 -0.740453 -3.89016 0
M  V30 14820 H 1410.25 -3.46825 -3.03396 0
M  V30 14821 H 1408.56 -3.02765 -2.85871 0
M  V30 14822 H 1411.16 -1.44728 -5.14741 0
M  V30 14823 H 1411.5 -0.046167 -4.16274 0
M  V30 14824 H 1412.04 -1.65502 -3.61737 0
M  V30 14825 H 1408.78 -4.37177 -4.88422 0
M  V30 14826 H 1408.3 -2.72224 -5.34466 0
M  V30 14827 H 1409.98 -3.26572 -5.58534 0
M  V30 14828 N 1410.11 1.33347 -0.840014 0
M  V30 14829 C 1411.04 2.31703 -0.289138 0
M  V30 14830 C 1412.02 1.59024 0.603759 0
M  V30 14831 O 1413.2 1.86911 0.527071 0
M  V30 14832 C 1410.33 3.43144 0.53566 0
M  V30 14833 C 1409.29 4.272 -0.261544 0
M  V30 14834 C 1408.61 5.30267 0.687075 0
M  V30 14835 C 1409.91 5.00915 -1.47924 0
M  V30 14836 H 1411.61 2.78026 -1.11094 0
M  V30 14837 H 1409.15 1.33666 -0.535658 0
M  V30 14838 H 1411.11 4.10979 0.931351 0
M  V30 14839 H 1409.83 2.95512 1.39069 0
M  V30 14840 H 1408.49 3.60991 -0.638809 0
M  V30 14841 H 1408.14 4.78893 1.53853 0
M  V30 14842 H 1407.84 5.87388 0.157773 0
M  V30 14843 H 1409.36 6.00968 1.08026 0
M  V30 14844 H 1410.78 5.61511 -1.15664 0
M  V30 14845 H 1409.17 5.67692 -1.94541 0
M  V30 14846 H 1410.24 4.29622 -2.24839 0
M  V30 14847 N 1411.59 0.596556 1.45873 0
M  V30 14848 C 1412.83 0.0872856 2.01911 0
M  V30 14849 C 1413.15 -1.28257 1.46885 0
M  V30 14850 O 1412.42 -1.84489 0.658837 0
M  V30 14851 H 1411 0.0292769 0.746426 0
M  V30 14852 H 1413.67 0.775464 1.78809 0
M  V30 14853 H 1412.76 0.0287213 3.12087 0
M  V30 14854 N 1413.06 -1.53996 0.335095 0
M  V30 14855 C 1414.29 -2.05657 -0.268328 0
M  V30 14856 C 1414.71 -1.20897 -1.44102 0
M  V30 14857 O 1414.07 -0.220737 -1.79951 0
M  V30 14858 C 1414.12 -3.54331 -0.669481 0
M  V30 14859 O 1413.22 -3.7246 -1.77052 0
M  V30 14860 H 1412.56 -0.662386 -0.0462705 0
M  V30 14861 H 1415.09 -1.98723 0.486854 0
M  V30 14862 H 1415.1 -3.9681 -0.948971 0
M  V30 14863 H 1413.78 -4.15474 0.188168 0
M  V30 14864 H 1412.36 -3.41884 -1.48895 0
M  V30 14865 N 1414.54 -0.0635198 -1.57472 0
M  V30 14866 C 1415.5 0.891881 -2.11135 0
M  V30 14867 C 1416.5 1.23182 -1.03358 0
M  V30 14868 O 1417.69 1.16646 -1.2938 0
M  V30 14869 C 1414.83 2.19792 -2.60584 0
M  V30 14870 H 1416.02 0.426461 -2.96852 0
M  V30 14871 H 1413.57 0.185069 -1.552 0
M  V30 14872 H 1414.31 2.70889 -1.78297 0
M  V30 14873 H 1414.09 1.96419 -3.39355 0
M  V30 14874 H 1415.58 2.88203 -3.02206 0
M  V30 14875 N 1416.02 1.56195 0.209972 0
M  V30 14876 C 1416.95 1.88389 1.28781 0
M  V30 14877 C 1417.93 0.742429 1.44661 0
M  V30 14878 O 1419.11 0.991955 1.60289 0
M  V30 14879 C 1416.24 2.10107 2.65655 0
M  V30 14880 C 1415.29 3.32804 2.66728 0
M  V30 14881 S 1416.12 4.88384 2.1964 0
M  V30 14882 C 1417.28 5.13151 3.58367 0
M  V30 14883 H 1417.51 2.79517 1.01281 0
M  V30 14884 H 1415.04 1.4878 0.412768 0
M  V30 14885 H 1417 2.23302 3.44451 0
M  V30 14886 H 1415.66 1.19756 2.90374 0
M  V30 14887 H 1414.85 3.4508 3.67336 0
M  V30 14888 H 1414.46 3.18525 1.96004 0
M  V30 14889 H 1416.75 5.02759 4.54136 0
M  V30 14890 H 1417.69 6.14985 3.50998 0
M  V30 14891 H 1418.1 4.4084 3.52591 0
M  V30 14892 N 1417.5 -0.477127 1.50204 0
M  V30 14893 C 1418.43 -1.59319 1.64773 0
M  V30 14894 C 1419.44 -1.53951 0.529427 0
M  V30 14895 O 1420.63 -1.59449 0.802388 0
M  V30 14896 C 1417.73 -2.98185 1.61055 0
M  V30 14897 C 1416.9 -3.28486 2.88817 0
M  V30 14898 C 1415.96 -4.46878 2.77825 0
M  V30 14899 O 1414.99 -4.47483 3.51778 0
M  V30 14900 N 1416.19 -5.48187 1.90974 0
M  V30 14901 H 1418.96 -1.4724 2.61037 0
M  V30 14902 H 1416.52 -0.66544 1.47592 0
M  V30 14903 H 1418.51 -3.75345 1.51323 0
M  V30 14904 H 1417.08 -3.04064 0.725509 0
M  V30 14905 H 1416.3 -2.39997 3.12722 0
M  V30 14906 H 1417.59 -3.4554 3.7347 0
M  V30 14907 H 1416.99 -5.50515 1.30192 0
M  V30 14908 H 1415.54 -6.24355 1.87148 0
M  V30 14909 N 1418.98 -1.3968 -0.729882 0
M  V30 14910 C 1419.92 -1.3896 -1.86528 0
M  V30 14911 C 1420.92 -0.272027 -1.67202 0
M  V30 14912 O 1422.12 -0.442328 -1.74481 0
M  V30 14913 H 1418.5 -0.434045 -0.614092 0
M  V30 14914 H 1420.47 -2.34721 -1.84252 0
M  V30 14915 C 1419.22 -1.255 -3.24261 0
M  V30 14916 H 1418.54 -2.10767 -3.39731 0
M  V30 14917 H 1419.98 -1.29054 -4.03882 0
M  V30 14918 C 1418.44 0.0361127 -3.36881 0
M  V30 14919 O 1418.97 1.0044 -3.8894 0
M  V30 14920 N 1417.18 0.100874 -2.90425 0
M  V30 14921 H 1416.72 -0.687797 -2.48248 0
M  V30 14922 H 1416.68 0.964251 -2.99248 0
M  V30 14923 N 1420.45 0.960609 -1.2494 0
M  V30 14924 C 1421.68 1.73928 -1.12057 0
M  V30 14925 C 1422.1 1.8596 0.32623 0
M  V30 14926 O 1421.45 1.35303 1.22472 0
M  V30 14927 C 1421.51 3.15614 -1.76267 0
M  V30 14928 O 1421.23 3.04177 -3.15291 0
M  V30 14929 C 1422.73 4.09786 -1.69086 0
M  V30 14930 H 1419.95 0.5452 -0.39115 0
M  V30 14931 H 1422.49 1.20556 -1.65186 0
M  V30 14932 H 1420.65 3.65949 -1.27123 0
M  V30 14933 H 1421.06 3.93513 -3.46768 0
M  V30 14934 H 1422.53 5.06835 -2.18683 0
M  V30 14935 H 1423.01 4.34312 -0.653453 0
M  V30 14936 H 1423.62 3.65365 -2.1769 0
M  V30 14937 N 1421.93 1.0643 1.16234 0
M  V30 14938 C 1422.86 0.634274 2.20249 0
M  V30 14939 C 1423.88 -0.308432 1.59852 0
M  V30 14940 O 1425.07 -0.0992067 1.78224 0
M  V30 14941 C 1422.17 -0.0901593 3.3878 0
M  V30 14942 C 1421.34 0.866379 4.28734 0
M  V30 14943 C 1420.4 0.180942 5.25889 0
M  V30 14944 O 1419.42 0.819034 5.63277 0
M  V30 14945 N 1420.63 -1.07698 5.70422 0
M  V30 14946 H 1423.39 1.52901 2.57762 0
M  V30 14947 H 1420.95 0.947789 1.31258 0
M  V30 14948 H 1422.94 -0.559147 4.00819 0
M  V30 14949 H 1421.51 -0.886715 2.9976 0
M  V30 14950 H 1420.73 1.51471 3.63937 0
M  V30 14951 H 1422.02 1.51524 4.85714 0
M  V30 14952 H 1421.42 -1.6155 5.42142 0
M  V30 14953 H 1419.98 -1.48981 6.34545 0
M  V30 14954 N 1423.41 -1.329 0.847073 0
M  V30 14955 C 1424.36 -2.3097 0.27487 0
M  V30 14956 C 1425.35 -1.58508 -0.597625 0
M  V30 14957 O 1426.56 -1.73307 -0.486273 0
M  V30 14958 H 1422.93 -0.748719 0.0701719 0
M  V30 14959 H 1424.9 -2.7673 1.11638 0
M  V30 14960 C 1423.65 -3.43662 -0.528363 0
M  V30 14961 H 1422.98 -3.99576 0.133707 0
M  V30 14962 H 1424.42 -4.14458 -0.894443 0
M  V30 14963 C 1422.88 -2.90244 -1.71055 0
M  V30 14964 O 1423.41 -2.87109 -2.80947 0
M  V30 14965 N 1421.61 -2.46743 -1.53512 0
M  V30 14966 H 1421.16 -2.49493 -0.641181 0
M  V30 14967 H 1421.12 -2.11356 -2.32757 0
M  V30 14968 N 1424.89 -0.604284 -1.45555 0
M  V30 14969 C 1425.82 0.103859 -2.33269 0
M  V30 14970 C 1426.8 0.862104 -1.46635 0
M  V30 14971 O 1427.98 0.833308 -1.75413 0
M  V30 14972 C 1425.11 1.104 -3.29286 0
M  V30 14973 C 1424.07 0.459189 -4.2553 0
M  V30 14974 C 1423.39 1.56734 -5.11213 0
M  V30 14975 C 1424.69 -0.617509 -5.18637 0
M  V30 14976 H 1426.39 -0.628538 -2.92728 0
M  V30 14977 H 1423.93 -0.303711 -1.40761 0
M  V30 14978 H 1425.89 1.60794 -3.89517 0
M  V30 14979 H 1424.61 1.86695 -2.67979 0
M  V30 14980 H 1423.27 -0.0238508 -3.66592 0
M  V30 14981 H 1422.92 2.32049 -4.46276 0
M  V30 14982 H 1422.62 1.14142 -5.76407 0
M  V30 14983 H 1424.14 2.07361 -5.74312 0
M  V30 14984 H 1425.56 -0.197784 -5.72959 0
M  V30 14985 H 1423.95 -0.96499 -5.9229 0
M  V30 14986 H 1425.02 -1.49541 -4.61265 0
M  V30 14987 N 1426.37 1.53816 -0.343257 0
M  V30 14988 C 1427.3 2.27951 0.506005 0
M  V30 14989 C 1428.28 1.29502 1.10287 0
M  V30 14990 O 1429.46 1.58344 1.12432 0
M  V30 14991 C 1426.59 3.0521 1.65723 0
M  V30 14992 C 1425.55 4.11161 1.18871 0
M  V30 14993 C 1424.87 4.76373 2.42843 0
M  V30 14994 C 1426.17 5.21498 0.289403 0
M  V30 14995 H 1427.87 2.99189 -0.112435 0
M  V30 14996 H 1425.41 1.43893 -0.055516 0
M  V30 14997 H 1427.37 3.55811 2.2578 0
M  V30 14998 H 1426.09 2.31624 2.30256 0
M  V30 14999 H 1424.75 3.61473 0.610962 0
M  V30 15000 H 1424.4 3.99381 3.05784 0
M  V30 15001 H 1424.1 5.47955 2.12177 0
M  V30 15002 H 1425.62 5.29758 3.03627 0
M  V30 15003 H 1427.03 5.67736 0.796808 0
M  V30 15004 H 1425.43 6.00054 0.0746366 0
M  V30 15005 H 1426.5 4.80185 -0.674543 0
M  V30 15006 N 1427.84 0.0718701 1.57436 0
M  V30 15007 C 1428.78 -0.924911 2.09709 0
M  V30 15008 C 1429.79 -1.26136 1.02925 0
M  V30 15009 O 1430.98 -1.21853 1.30438 0
M  V30 15010 C 1428.08 -2.24072 2.54254 0
M  V30 15011 C 1427.25 -2.0831 3.84611 0
M  V30 15012 C 1426.31 -3.23196 4.15248 0
M  V30 15013 O 1425.34 -2.98184 4.84846 0
M  V30 15014 N 1426.54 -4.48293 3.688 0
M  V30 15015 H 1429.3 -0.478605 2.95854 0
M  V30 15016 H 1426.86 -0.113853 1.61499 0
M  V30 15017 H 1428.86 -2.99835 2.71811 0
M  V30 15018 H 1427.43 -2.60201 1.73246 0
M  V30 15019 H 1426.65 -1.17014 3.76432 0
M  V30 15020 H 1427.93 -1.9503 4.69937 0
M  V30 15021 H 1427.33 -4.71501 3.12575 0
M  V30 15022 H 1425.89 -5.21082 3.91556 0
M  V30 15023 N 1429.32 -1.56304 -0.201686 0
M  V30 15024 C 1430.26 -1.8907 -1.27781 0
M  V30 15025 C 1431.23 -0.75009 -1.44265 0
M  V30 15026 O 1432.42 -1.00044 -1.59761 0
M  V30 15027 C 1429.54 -2.11513 -2.64537 0
M  V30 15028 C 1428.59 -3.34214 -2.64959 0
M  V30 15029 S 1429.42 -4.89541 -2.17047 0
M  V30 15030 C 1430.58 -5.15044 -3.55641 0
M  V30 15031 H 1430.81 -2.8005 -0.997971 0
M  V30 15032 H 1428.35 -1.48997 -0.404872 0
M  V30 15033 H 1430.3 -2.25126 -3.43262 0
M  V30 15034 H 1428.96 -1.21295 -2.89735 0
M  V30 15035 H 1428.16 -3.47023 -3.65501 0
M  V30 15036 H 1427.76 -3.1956 -1.94312 0
M  V30 15037 H 1430.05 -5.05161 -4.51463 0
M  V30 15038 H 1430.99 -6.16838 -3.47731 0
M  V30 15039 H 1431.4 -4.42704 -3.50248 0
M  V30 15040 N 1430.8 0.469154 -1.50455 0
M  V30 15041 C 1432.21 1.04997 -1.54378 0
M  V30 15042 C 1432.56 1.93082 -0.348414 0
M  V30 15043 O 1431.69 2.09594 0.538469 0
M  V30 15044 C 1432.28 1.91096 -2.79764 0
M  V30 15045 C 1430.84 2.44283 -2.86361 0
M  V30 15046 C 1429.99 1.22676 -2.48688 0
M  V30 15047 H 1432.94 0.251692 -1.56691 0
M  V30 15048 H 1432.96 2.76186 -2.61728 0
M  V30 15049 H 1432.47 1.26961 -3.66746 0
M  V30 15050 H 1430.57 3.11966 -2.03735 0
M  V30 15051 H 1430.69 2.79258 -3.89297 0
M  V30 15052 H 1429.05 1.56215 -2.01169 0
M  V30 15053 H 1429.83 0.602002 -3.37981 0
M  V30 15054 N 1432.28 1.40065 0.722464 0
M  V30 15055 C 1433.51 1.41066 1.50944 0
M  V30 15056 C 1433.92 0.00678083 1.89199 0
M  V30 15057 O 1433.26 -0.977992 1.55502 0
M  V30 15058 C 1433.32 2.23127 2.81877 0
M  V30 15059 C 1432.99 3.7162 2.65984 0
M  V30 15060 C 1433.98 4.64415 2.33698 0
M  V30 15061 C 1431.67 4.15355 2.82463 0
M  V30 15062 C 1433.66 5.98928 2.18091 0
M  V30 15063 C 1431.35 5.49941 2.66474 0
M  V30 15064 C 1432.35 6.41542 2.34335 0
M  V30 15065 O 1432.03 7.73647 2.18461 0
M  V30 15066 H 1431.77 0.483321 0.472628 0
M  V30 15067 H 1434.32 1.84664 0.899356 0
M  V30 15068 H 1432.55 1.74298 3.45192 0
M  V30 15069 H 1434.24 2.16153 3.43559 0
M  V30 15070 H 1435.01 4.31924 2.20606 0
M  V30 15071 H 1430.88 3.44381 3.06468 0
M  V30 15072 H 1434.43 6.70391 1.92928 0
M  V30 15073 H 1430.33 5.82019 2.79149 0
M  V30 15074 H 1431.09 7.84507 2.33434 0
M  V30 15075 N 1433.76 -0.95397 1.25448 0
M  V30 15076 C 1435.01 -1.6953 1.10018 0
M  V30 15077 C 1435.33 -1.9166 -0.359385 0
M  V30 15078 O 1434.6 -1.50417 -1.25506 0
M  V30 15079 H 1433.18 -0.628238 0.404136 0
M  V30 15080 H 1435.84 -1.14691 1.57581 0
M  V30 15081 H 1434.93 -2.67427 1.60901 0
M  V30 15082 N 1435.24 -1.07045 -1.15668 0
M  V30 15083 C 1436.48 -0.801045 -1.8805 0
M  V30 15084 C 1436.84 0.660714 -1.80274 0
M  V30 15085 O 1438.04 1.04503 -2.47654 0
M  V30 15086 C 1436.31 -1.2914 -3.33253 0
M  V30 15087 S 1437.87 -1.15221 -4.23402 0
M  V30 15088 H 1434.69 -0.29037 -0.649004 0
M  V30 15089 H 1437.29 -1.36892 -1.39574 0
M  V30 15090 H 1435.99 -2.35003 -3.36455 0
M  V30 15091 H 1435.53 -0.718605 -3.86781 0
M  V30 15092 H 1437.54 -0.087806 -4.96122 0
M  V30 15093 N 1436.71 1.32449 -0.85411 0
M  V30 15094 C 1437.96 1.96881 -0.45632 0
M  V30 15095 C 1438.28 1.67926 0.991248 0
M  V30 15096 O 1437.55 0.986195 1.69266 0
M  V30 15097 H 1436.13 0.728378 -0.165752 0
M  V30 15098 H 1438.79 1.61542 -1.09042 0
M  V30 15099 H 1437.89 3.0626 -0.600927 0
M  V30 15100 N 1438.19 0.611994 1.45232 0
M  V30 15101 C 1439.1 -0.105981 2.3436 0
M  V30 15102 C 1440.12 -0.855785 1.515 0
M  V30 15103 O 1441.29 -0.812376 1.84289 0
M  V30 15104 C 1438.36 -1.08794 3.29188 0
M  V30 15105 C 1437.42 -0.339611 4.27955 0
M  V30 15106 C 1436.65 -1.27479 5.18252 0
M  V30 15107 O 1436.88 -2.51279 5.12069 0
M  V30 15108 O 1435.81 -0.769469 5.96961 0
M  V30 15109 H 1439.64 0.626584 2.97166 0
M  V30 15110 H 1437.22 0.37224 1.44688 0
M  V30 15111 H 1439.1 -1.65338 3.8761 0
M  V30 15112 H 1437.78 -1.80145 2.68941 0
M  V30 15113 H 1436.68 0.268408 3.73136 0
M  V30 15114 H 1438.02 0.333501 4.91069 0
M  V30 15115 N 1439.67 -1.53632 0.351409 0
M  V30 15116 C 1440.6 -2.2284 -0.536204 0
M  V30 15117 C 1441.61 -1.23765 -1.05764 0
M  V30 15118 O 1442.8 -1.50073 -0.966449 0
M  V30 15119 C 1439.9 -2.9013 -1.75151 0
M  V30 15120 C 1439.08 -4.15588 -1.36401 0
M  V30 15121 C 1438.14 -4.66217 -2.43984 0
M  V30 15122 O 1437.16 -5.3024 -2.06964 0
M  V30 15123 N 1438.36 -4.42817 -3.75358 0
M  V30 15124 H 1441.13 -2.99647 0.0565368 0
M  V30 15125 H 1438.69 -1.60942 0.175905 0
M  V30 15126 H 1440.68 -3.20913 -2.4657 0
M  V30 15127 H 1439.25 -2.16862 -2.25144 0
M  V30 15128 H 1438.47 -3.91264 -0.480258 0
M  V30 15129 H 1439.76 -4.97179 -1.08121 0
M  V30 15130 H 1439.16 -3.9163 -4.08218 0
M  V30 15131 H 1437.71 -4.78186 -4.42924 0
M  V30 15132 N 1441.15 -0.0802183 -1.57396 0
M  V30 15133 C 1442.1 0.901668 -2.14412 0
M  V30 15134 C 1443.09 1.30247 -1.08314 0
M  V30 15135 O 1444.3 1.27873 -1.26682 0
M  V30 15136 H 1440.67 0.308748 -0.685696 0
M  V30 15137 H 1442.64 0.395934 -2.95762 0
M  V30 15138 C 1441.39 2.15665 -2.72734 0
M  V30 15139 H 1440.71 1.8571 -3.54051 0
M  V30 15140 H 1442.15 2.82461 -3.16214 0
M  V30 15141 C 1440.61 2.9208 -1.67901 0
M  V30 15142 O 1441.14 3.86087 -1.10903 0
M  V30 15143 N 1439.35 2.55343 -1.38739 0
M  V30 15144 H 1438.9 1.78969 -1.85278 0
M  V30 15145 H 1438.85 3.06773 -0.688317 0
M  V30 15146 N 1442.63 1.56409 0.193394 0
M  V30 15147 C 1443.56 1.89745 1.26776 0
M  V30 15148 C 1444.54 0.75773 1.43865 0
M  V30 15149 O 1445.72 1.0089 1.59228 0
M  V30 15150 C 1442.85 2.12913 2.63412 0
M  V30 15151 C 1441.89 3.35614 2.63183 0
M  V30 15152 S 1442.73 4.90686 2.14448 0
M  V30 15153 C 1443.88 5.16923 3.52904 0
M  V30 15154 H 1444.12 2.80575 0.983105 0
M  V30 15155 H 1441.65 1.4921 0.396965 0
M  V30 15156 H 1443.61 2.26943 3.42063 0
M  V30 15157 H 1442.27 1.2283 2.89088 0
M  V30 15158 H 1441.46 3.48957 3.63655 0
M  V30 15159 H 1441.06 3.20586 1.92615 0
M  V30 15160 H 1443.35 5.07548 4.48778 0
M  V30 15161 H 1444.3 6.18673 3.44455 0
M  V30 15162 H 1444.71 4.44555 3.47895 0
M  V30 15163 N 1444.1 -0.461169 1.50702 0
M  V30 15164 C 1445.35 -1.21431 1.62427 0
M  V30 15165 C 1445.68 -1.91406 0.328228 0
M  V30 15166 O 1444.96 -1.82563 -0.670898 0
M  V30 15167 C 1445.24 -2.25016 2.8114 0
M  V30 15168 C 1445.09 -1.5928 4.20654 0
M  V30 15169 C 1446.41 -3.26234 2.95397 0
M  V30 15170 H 1443.53 -0.440113 0.59116 0
M  V30 15171 H 1446.17 -0.506726 1.83118 0
M  V30 15172 H 1444.32 -2.85363 2.63629 0
M  V30 15173 H 1446 -1.02454 4.49779 0
M  V30 15174 H 1444.24 -0.895665 4.24453 0
M  V30 15175 H 1444.91 -2.34602 4.99666 0
M  V30 15176 H 1447.39 -2.7592 3.1146 0
M  V30 15177 H 1446.26 -3.96031 3.80067 0
M  V30 15178 H 1446.52 -3.90943 2.06436 0
M  V30 15179 N 1445.58 -1.40446 -0.715026 0
M  V30 15180 C 1446.51 -1.43511 -1.84193 0
M  V30 15181 C 1447.49 -0.295969 -1.67505 0
M  V30 15182 O 1448.68 -0.504667 -1.87528 0
M  V30 15183 C 1445.81 -1.29751 -3.22152 0
M  V30 15184 C 1444.76 -2.41274 -3.53512 0
M  V30 15185 C 1444.09 -2.12591 -4.90621 0
M  V30 15186 C 1445.39 -3.83614 -3.54454 0
M  V30 15187 H 1447.08 -2.37819 -1.81885 0
M  V30 15188 H 1444.63 -1.14469 -0.873655 0
M  V30 15189 H 1446.58 -1.30511 -4.0068 0
M  V30 15190 H 1445.3 -0.319189 -3.25037 0
M  V30 15191 H 1443.96 -2.39764 -2.77324 0
M  V30 15192 H 1443.61 -1.13148 -4.90109 0
M  V30 15193 H 1443.31 -2.87308 -5.1257 0
M  V30 15194 H 1444.84 -2.15034 -5.71483 0
M  V30 15195 H 1446.25 -3.86945 -4.23021 0
M  V30 15196 H 1444.65 -4.57855 -3.87929 0
M  V30 15197 H 1445.72 -4.13159 -2.53827 0
M  V30 15198 N 1447.06 0.947303 -1.25952 0
M  V30 15199 C 1448.31 1.69279 -1.11135 0
M  V30 15200 C 1448.63 1.9139 0.346407 0
M  V30 15201 O 1447.89 1.48786 1.27126 0
M  V30 15202 C 1448.19 3.07652 -1.81892 0
M  V30 15203 C 1447.85 3.05317 -3.31802 0
M  V30 15204 C 1446.52 3.04387 -3.72695 0
M  V30 15205 C 1448.87 2.98088 -4.27543 0
M  V30 15206 C 1446.2 2.93987 -5.07729 0
M  V30 15207 C 1448.55 2.89229 -5.62609 0
M  V30 15208 C 1447.21 2.86639 -6.02822 0
M  V30 15209 H 1446.48 0.619435 -0.40667 0
M  V30 15210 H 1449.13 1.10621 -1.56318 0
M  V30 15211 H 1447.43 3.69898 -1.29161 0
M  V30 15212 H 1449.13 3.6417 -1.67873 0
M  V30 15213 H 1445.72 3.06817 -2.99268 0
M  V30 15214 H 1449.91 2.9792 -3.96935 0
M  V30 15215 H 1445.16 2.90355 -5.38056 0
M  V30 15216 H 1449.34 2.82598 -6.36483 0
M  V30 15217 H 1446.96 2.78336 -7.07413 0
M  V30 15218 N 1448.54 1.07657 1.15099 0
M  V30 15219 C 1449.5 0.703558 2.18135 0
M  V30 15220 C 1450.5 -0.257771 1.5872 0
M  V30 15221 O 1451.69 -0.0383211 1.74158 0
M  V30 15222 C 1448.82 0.0374978 3.40879 0
M  V30 15223 H 1450.02 1.61583 2.52648 0
M  V30 15224 H 1447.57 0.873484 1.29615 0
M  V30 15225 H 1448.3 -0.886868 3.11938 0
M  V30 15226 H 1448.09 0.728961 3.85264 0
M  V30 15227 H 1449.58 -0.208714 4.17078 0
M  V30 15228 N 1450.02 -1.31994 0.861122 0
M  V30 15229 C 1451.43 -1.79271 0.521437 0
M  V30 15230 C 1451.78 -1.71046 -0.96113 0
M  V30 15231 O 1450.9 -1.2729 -1.75003 0
M  V30 15232 C 1451.5 -3.25507 0.939731 0
M  V30 15233 C 1450.06 -3.70713 0.651845 0
M  V30 15234 C 1449.2 -2.52967 1.13592 0
M  V30 15235 H 1452.16 -1.19201 1.0477 0
M  V30 15236 H 1452.18 -3.79619 0.258754 0
M  V30 15237 H 1451.69 -3.3146 2.0188 0
M  V30 15238 H 1449.79 -3.70268 -0.416232 0
M  V30 15239 H 1449.9 -4.63236 1.22267 0
M  V30 15240 H 1448.27 -2.48558 0.555971 0
M  V30 15241 H 1449.05 -2.61671 2.22223 0
M  V30 15242 N 1451.49 -0.619688 -1.44906 0
M  V30 15243 C 1452.44 0.104373 -2.32366 0
M  V30 15244 C 1453.44 0.847423 -1.4668 0
M  V30 15245 O 1454.64 0.761618 -1.63093 0
M  V30 15246 H 1451.02 0.0525126 -0.750164 0
M  V30 15247 H 1452.99 -0.651525 -2.912 0
M  V30 15248 C 1451.74 1.08017 -3.30496 0
M  V30 15249 H 1451.06 0.517831 -3.96432 0
M  V30 15250 H 1452.5 1.5565 -3.94397 0
M  V30 15251 C 1450.96 2.15975 -2.58566 0
M  V30 15252 O 1451.49 3.23895 -2.37603 0
M  V30 15253 N 1449.7 1.91593 -2.18496 0
M  V30 15254 H 1449.24 1.03835 -2.35746 0
M  V30 15255 H 1449.2 2.64028 -1.70694 0
M  V30 15256 N 1452.97 1.53444 -0.359552 0
M  V30 15257 C 1454.22 2.00348 0.233109 0
M  V30 15258 C 1454.53 1.25104 1.50361 0
M  V30 15259 O 1455.74 1.62566 2.1745 0
M  V30 15260 C 1454.2 3.56871 0.465951 0
M  V30 15261 C 1453.8 4.40987 -0.789571 0
M  V30 15262 C 1455.55 4.12148 1.0166 0
M  V30 15263 C 1453.46 5.8905 -0.526646 0
M  V30 15264 H 1452.39 0.748502 0.0908851 0
M  V30 15265 H 1455.04 1.77182 -0.47736 0
M  V30 15266 H 1453.42 3.76167 1.23753 0
M  V30 15267 H 1454.59 4.33465 -1.56348 0
M  V30 15268 H 1452.91 3.96784 -1.263 0
M  V30 15269 H 1455.5 5.20395 1.22853 0
M  V30 15270 H 1455.85 3.66364 1.97694 0
M  V30 15271 H 1456.38 3.96626 0.305334 0
M  V30 15272 H 1453.12 6.39099 -1.45715 0
M  V30 15273 H 1452.64 5.99436 0.208875 0
M  V30 15274 H 1454.32 6.46826 -0.149889 0
M  V30 15275 N 1454.45 0.0885642 1.57351 0
M  V30 15276 C 1455.68 -0.584389 1.98163 0
M  V30 15277 C 1456.09 -1.62664 0.966281 0
M  V30 15278 O 1455.43 -1.83623 -0.053226 0
M  V30 15279 C 1455.49 -1.2959 3.35331 0
M  V30 15280 C 1455.16 -0.405168 4.552 0
M  V30 15281 C 1456.15 0.344053 5.1876 0
M  V30 15282 C 1453.84 -0.325136 5.01247 0
M  V30 15283 C 1455.83 1.16135 6.26731 0
M  V30 15284 C 1453.52 0.495821 6.09085 0
M  V30 15285 C 1454.52 1.23772 6.71691 0
M  V30 15286 O 1454.21 2.04511 7.77451 0
M  V30 15287 H 1453.94 -0.161852 0.656338 0
M  V30 15288 H 1456.49 0.162558 2.04756 0
M  V30 15289 H 1454.72 -2.08928 3.25401 0
M  V30 15290 H 1456.41 -1.86274 3.60634 0
M  V30 15291 H 1457.18 0.291916 4.84121 0
M  V30 15292 H 1453.06 -0.892245 4.52283 0
M  V30 15293 H 1456.6 1.74093 6.75528 0
M  V30 15294 H 1452.5 0.549463 6.43157 0
M  V30 15295 H 1453.27 1.97123 7.94409 0
M  V30 15296 N 1455.93 -1.56509 -0.185096 0
M  V30 15297 C 1457.17 -1.81474 -0.905263 0
M  V30 15298 C 1457.51 -0.664225 -1.82488 0
M  V30 15299 O 1456.78 0.33466 -1.91599 0
M  V30 15300 C 1457.07 -3.16754 -1.71287 0
M  V30 15301 C 1456.92 -4.42312 -0.817302 0
M  V30 15302 C 1458.24 -3.48828 -2.68342 0
M  V30 15303 H 1455.36 -0.660155 -0.327664 0
M  V30 15304 H 1458 -1.89219 -0.172129 0
M  V30 15305 H 1456.15 -3.10282 -2.33789 0
M  V30 15306 H 1457.82 -4.60839 -0.206218 0
M  V30 15307 H 1456.06 -4.33621 -0.124564 0
M  V30 15308 H 1456.73 -5.33487 -1.41758 0
M  V30 15309 H 1459.21 -3.55663 -2.15969 0
M  V30 15310 H 1458.09 -4.44585 -3.21924 0
M  V30 15311 H 1458.35 -2.72829 -3.47875 0
M  V30 15312 N 1457.41 0.45317 -1.50944 0
M  V30 15313 C 1458.34 1.55655 -1.74051 0
M  V30 15314 C 1459.32 1.59545 -0.58987 0
M  V30 15315 O 1460.5 1.75526 -0.830922 0
M  V30 15316 C 1457.63 2.93857 -1.85109 0
M  V30 15317 C 1456.59 3.04832 -3.00435 0
M  V30 15318 C 1455.91 4.44858 -2.96657 0
M  V30 15319 C 1457.21 2.80381 -4.40663 0
M  V30 15320 H 1458.91 1.36571 -2.66437 0
M  V30 15321 H 1456.45 0.655572 -1.28212 0
M  V30 15322 H 1458.41 3.70992 -1.99857 0
M  V30 15323 H 1457.13 3.14138 -0.893579 0
M  V30 15324 H 1455.79 2.30134 -2.85366 0
M  V30 15325 H 1455.44 4.62083 -1.98716 0
M  V30 15326 H 1455.14 4.53134 -3.7409 0
M  V30 15327 H 1456.66 5.23989 -3.13478 0
M  V30 15328 H 1458.07 3.47255 -4.56165 0
M  V30 15329 H 1456.47 3.00083 -5.19683 0
M  V30 15330 H 1457.54 1.76099 -4.51793 0
M  V30 15331 N 1458.88 1.40823 0.707568 0
M  V30 15332 C 1460.16 1.3003 1.46122 0
M  V30 15333 C 1460.54 -0.0776873 2.10957 0
M  V30 15334 O 1459.89 -1.09109 2.00767 0
M  V30 15335 C 1460.1 2.44498 2.49042 0
M  V30 15336 C 1461.45 2.85106 3.14642 0
M  V30 15337 O 1462.47 2.44149 2.59364 0
M  V30 15338 O 1461.33 3.55892 4.14733 0
M  V30 15339 H 1458.42 0.511082 0.650172 0
M  V30 15340 H 1460.97 1.52761 0.739062 0
M  V30 15341 H 1459.74 3.36502 1.99705 0
M  V30 15342 H 1459.37 2.23579 3.28783 0
M  V30 15343 N 1460.36 -0.94061 1.26453 0
M  V30 15344 C 1461.59 -1.71874 1.14643 0
M  V30 15345 C 1462 -1.86791 -0.300969 0
M  V30 15346 O 1461.34 -1.37529 -1.21784 0
M  V30 15347 C 1461.41 -3.14408 1.74321 0
M  V30 15348 C 1461.07 -3.22873 3.23422 0
M  V30 15349 C 1462.07 -3.06107 4.20231 0
M  V30 15350 C 1459.75 -3.46245 3.63895 0
M  V30 15351 C 1461.75 -3.12581 5.55492 0
M  V30 15352 C 1459.43 -3.52354 4.99289 0
M  V30 15353 C 1460.43 -3.35539 5.94897 0
M  V30 15354 O 1460.12 -3.41357 7.27826 0
M  V30 15355 H 1459.85 -0.544931 0.400033 0
M  V30 15356 H 1462.4 -1.18767 1.67581 0
M  V30 15357 H 1460.63 -3.6894 1.15846 0
M  V30 15358 H 1462.32 -3.74135 1.57409 0
M  V30 15359 H 1463.09 -2.87906 3.90302 0
M  V30 15360 H 1458.97 -3.58389 2.89962 0
M  V30 15361 H 1462.51 -2.99374 6.30096 0
M  V30 15362 H 1458.41 -3.70077 5.2888 0
M  V30 15363 H 1459.18 -3.57897 7.36106 0
M  V30 15364 N 1461.84 -1.08266 -1.14527 0
M  V30 15365 C 1462.77 -0.732968 -2.21698 0
M  V30 15366 C 1463.75 0.283917 -1.67714 0
M  V30 15367 O 1464.94 0.154607 -1.93584 0
M  V30 15368 C 1462.07 -0.139935 -3.47018 0
M  V30 15369 C 1461.02 -1.08501 -4.14019 0
M  V30 15370 C 1460.35 -0.354263 -5.33525 0
M  V30 15371 C 1461.65 -2.42254 -4.62721 0
M  V30 15372 H 1463.34 -1.629 -2.51205 0
M  V30 15373 H 1460.89 -0.784696 -1.20742 0
M  V30 15374 H 1462.84 0.1167 -4.21238 0
M  V30 15375 H 1461.56 0.791228 -3.16871 0
M  V30 15376 H 1460.22 -1.32672 -3.41751 0
M  V30 15377 H 1459.87 0.580658 -4.99637 0
M  V30 15378 H 1459.57 -0.984287 -5.79297 0
M  V30 15379 H 1461.09 -0.105648 -6.10509 0
M  V30 15380 H 1462.51 -2.22357 -5.28422 0
M  V30 15381 H 1460.91 -3.00935 -5.1919 0
M  V30 15382 H 1461.98 -3.03884 -3.77866 0
M  V30 15383 N 1463.32 1.31536 -0.86811 0
M  V30 15384 C 1464.27 2.30504 -0.311581 0
M  V30 15385 C 1465.26 1.59439 0.572332 0
M  V30 15386 O 1466.47 1.74059 0.458639 0
M  V30 15387 H 1462.84 0.747508 -0.0820745 0
M  V30 15388 H 1464.81 2.74919 -1.16026 0
M  V30 15389 C 1463.56 3.44459 0.473622 0
M  V30 15390 H 1462.89 3.99313 -0.197259 0
M  V30 15391 H 1464.33 4.15829 0.828393 0
M  V30 15392 C 1462.78 2.92929 1.66416 0
M  V30 15393 O 1463.31 2.91543 2.76344 0
M  V30 15394 N 1461.52 2.49154 1.49568 0
M  V30 15395 H 1461.07 2.50481 0.601408 0
M  V30 15396 H 1461.03 2.15032 2.29366 0
M  V30 15397 N 1464.8 0.627364 1.44575 0
M  V30 15398 C 1465.71 -0.0811184 2.3446 0
M  V30 15399 C 1466.72 -0.839668 1.52399 0
M  V30 15400 O 1467.9 -0.792784 1.8514 0
M  V30 15401 C 1464.96 -1.05296 3.30323 0
M  V30 15402 C 1464.03 -0.294201 4.28291 0
M  V30 15403 C 1463.26 -1.21975 5.19575 0
M  V30 15404 O 1463.48 -2.45834 5.14706 0
M  V30 15405 O 1462.42 -0.70611 5.97744 0
M  V30 15406 H 1466.24 0.658067 2.96485 0
M  V30 15407 H 1463.83 0.387565 1.44285 0
M  V30 15408 H 1465.71 -1.61218 3.89341 0
M  V30 15409 H 1464.38 -1.77283 2.70837 0
M  V30 15410 H 1463.29 0.307969 3.7283 0
M  V30 15411 H 1464.62 0.385567 4.90687 0
M  V30 15412 N 1466.28 -1.53251 0.367684 0
M  V30 15413 C 1467.5 -2.05705 -0.222047 0
M  V30 15414 C 1467.92 -1.24104 -1.4228 0
M  V30 15415 O 1467.28 -0.282228 -1.80305 0
M  V30 15416 C 1467.33 -3.56257 -0.613475 0
M  V30 15417 O 1467.05 -4.34765 0.539558 0
M  V30 15418 C 1468.55 -4.24976 -1.26137 0
M  V30 15419 H 1465.77 -0.66989 -0.0385799 0
M  V30 15420 H 1468.31 -1.97602 0.526663 0
M  V30 15421 H 1466.47 -3.64503 -1.3121 0
M  V30 15422 H 1466.88 -5.24027 0.222699 0
M  V30 15423 H 1468.36 -5.31628 -1.4858 0
M  V30 15424 H 1468.83 -3.78828 -2.2223 0
M  V30 15425 H 1469.44 -4.20987 -0.604121 0
M  V30 15426 N 1467.75 -0.0969077 -1.57302 0
M  V30 15427 C 1468.69 0.891431 -2.11154 0
M  V30 15428 C 1469.7 1.24482 -1.04919 0
M  V30 15429 O 1470.89 1.19762 -1.3236 0
M  V30 15430 C 1467.99 2.19998 -2.57787 0
M  V30 15431 C 1467.16 2.02165 -3.87876 0
M  V30 15432 C 1466.22 3.16549 -4.20337 0
M  V30 15433 O 1465.25 2.90432 -4.89528 0
M  V30 15434 N 1466.45 4.42369 -3.75885 0
M  V30 15435 H 1469.21 0.431477 -2.96578 0
M  V30 15436 H 1466.77 0.0881458 -1.6166 0
M  V30 15437 H 1468.77 2.95472 -2.76547 0
M  V30 15438 H 1467.34 2.57412 -1.77364 0
M  V30 15439 H 1466.56 1.11011 -3.78246 0
M  V30 15440 H 1467.84 1.87529 -4.7298 0
M  V30 15441 H 1467.24 4.66469 -3.20036 0
M  V30 15442 H 1465.8 5.14787 -3.99797 0
M  V30 15443 N 1469.23 1.56605 0.176793 0
M  V30 15444 C 1470.16 1.9254 1.24342 0
M  V30 15445 C 1471.18 0.81792 1.40762 0
M  V30 15446 O 1472.37 1.09636 1.40862 0
M  V30 15447 C 1469.47 2.15822 2.61293 0
M  V30 15448 C 1468.64 3.47035 2.66243 0
M  V30 15449 C 1467.7 3.5921 3.84519 0
M  V30 15450 O 1466.72 4.31876 3.70771 0
M  V30 15451 N 1467.93 2.93653 5.00748 0
M  V30 15452 H 1470.69 2.84635 0.938246 0
M  V30 15453 H 1468.25 1.57695 0.366597 0
M  V30 15454 H 1470.24 2.21237 3.38875 0
M  V30 15455 H 1468.81 1.30138 2.84223 0
M  V30 15456 H 1468.03 3.53326 1.74798 0
M  V30 15457 H 1469.32 4.33388 2.66557 0
M  V30 15458 H 1468.72 2.34476 5.14818 0
M  V30 15459 H 1467.28 3.04671 5.76211 0
M  V30 15460 N 1470.71 -0.445159 1.51182 0
M  V30 15461 C 1471.64 -1.5473 1.74874 0
M  V30 15462 C 1472.62 -1.5923 0.598323 0
M  V30 15463 O 1473.81 -1.75083 0.840219 0
M  V30 15464 C 1470.94 -2.92872 1.86664 0
M  V30 15465 C 1469.89 -3.03235 3.02048 0
M  V30 15466 C 1469.22 -4.43279 2.99012 0
M  V30 15467 C 1470.52 -2.7804 4.42144 0
M  V30 15468 H 1472.21 -1.35156 2.67158 0
M  V30 15469 H 1469.76 -0.648763 1.28558 0
M  V30 15470 H 1471.71 -3.69927 2.01822 0
M  V30 15471 H 1470.43 -3.1366 0.910225 0
M  V30 15472 H 1469.09 -2.28617 2.86583 0
M  V30 15473 H 1468.74 -4.61023 2.01163 0
M  V30 15474 H 1468.44 -4.51144 3.76488 0
M  V30 15475 H 1469.96 -5.22319 3.16252 0
M  V30 15476 H 1471.38 -3.44831 4.58 0
M  V30 15477 H 1469.77 -2.97323 5.21267 0
M  V30 15478 H 1470.84 -1.737 4.52721 0
M  V30 15479 N 1472.19 -1.41197 -0.700089 0
M  V30 15480 C 1473.42 -1.43658 -1.48896 0
M  V30 15481 C 1473.83 -0.0405771 -1.88756 0
M  V30 15482 O 1473.19 0.93909 -1.56484 0
M  V30 15483 C 1473.24 -2.34125 -2.75441 0
M  V30 15484 O 1472.96 -3.68291 -2.37261 0
M  V30 15485 C 1474.46 -2.45342 -3.69218 0
M  V30 15486 H 1471.68 -0.48945 -0.458999 0
M  V30 15487 H 1474.22 -1.85429 -0.862345 0
M  V30 15488 H 1472.38 -1.95674 -3.34351 0
M  V30 15489 H 1472.79 -4.16495 -3.18798 0
M  V30 15490 H 1474.27 -3.12818 -4.54807 0
M  V30 15491 H 1474.74 -1.48327 -4.13395 0
M  V30 15492 H 1475.35 -2.84409 -3.16214 0
M  V30 15493 N 1473.67 0.933891 -1.2695 0
M  V30 15494 C 1475.08 1.49578 -1.11728 0
M  V30 15495 C 1475.43 1.93895 0.299889 0
M  V30 15496 O 1474.55 1.806 1.19216 0
M  V30 15497 C 1475.15 2.71841 -2.02208 0
M  V30 15498 C 1473.71 3.24274 -1.9111 0
M  V30 15499 C 1472.85 1.97029 -1.95128 0
M  V30 15500 H 1475.8 0.748628 -1.39933 0
M  V30 15501 H 1475.83 3.46407 -1.57425 0
M  V30 15502 H 1475.34 2.39556 -3.05343 0
M  V30 15503 H 1473.44 3.61333 -0.909367 0
M  V30 15504 H 1473.55 3.90887 -2.77027 0
M  V30 15505 H 1471.92 2.13249 -1.39273 0
M  V30 15506 H 1472.7 1.67066 -2.99907 0
M  V30 15507 N 1475.14 1.08871 1.13951 0
M  V30 15508 C 1476.05 0.734869 2.22793 0
M  V30 15509 C 1477.07 -0.260699 1.72036 0
M  V30 15510 O 1478.25 -0.103461 2.01134 0
M  V30 15511 C 1475.31 0.154599 3.46355 0
M  V30 15512 C 1474.37 1.20539 4.1203 0
M  V30 15513 C 1473.6 0.652712 5.29694 0
M  V30 15514 O 1473.83 -0.526264 5.67967 0
M  V30 15515 O 1472.76 1.40503 5.85271 0
M  V30 15516 H 1476.59 1.64297 2.55422 0
M  V30 15517 H 1474.17 0.862716 1.21974 0
M  V30 15518 H 1476.05 -0.165962 4.21073 0
M  V30 15519 H 1474.73 -0.726592 3.1544 0
M  V30 15520 H 1473.64 1.57855 3.39164 0
M  V30 15521 H 1474.97 2.05902 4.47063 0
M  V30 15522 N 1476.62 -1.31073 0.875073 0
M  V30 15523 C 1477.87 -1.95791 0.484661 0
M  V30 15524 C 1478.18 -1.69907 -0.969074 0
M  V30 15525 O 1479.39 -2.28527 -1.46587 0
M  V30 15526 C 1477.85 -3.50532 0.815804 0
M  V30 15527 C 1477.45 -3.85249 2.28664 0
M  V30 15528 C 1479.2 -4.21615 0.494111 0
M  V30 15529 C 1477.1 -5.33124 2.55993 0
M  V30 15530 H 1476.03 -0.732806 0.177516 0
M  V30 15531 H 1478.69 -1.49169 1.06868 0
M  V30 15532 H 1477.07 -3.95673 0.16098 0
M  V30 15533 H 1478.24 -3.51051 2.98496 0
M  V30 15534 H 1476.56 -3.27244 2.57488 0
M  V30 15535 H 1479.15 -5.30417 0.675456 0
M  V30 15536 H 1479.5 -4.12437 -0.565815 0
M  V30 15537 H 1480.03 -3.82125 1.1057 0
M  V30 15538 H 1476.77 -5.47343 3.60688 0
M  V30 15539 H 1476.29 -5.68657 1.90761 0
M  V30 15540 H 1477.97 -6.00446 2.40984 0
M  V30 15541 N 1478.1 -0.635022 -1.4424 0
M  V30 15542 C 1479.05 0.0675707 -2.30701 0
M  V30 15543 C 1480.02 0.832919 -1.43707 0
M  V30 15544 O 1481.2 0.813177 -1.72604 0
M  V30 15545 C 1478.34 1.04053 -3.2904 0
M  V30 15546 C 1477.46 0.273191 -4.31135 0
M  V30 15547 C 1476.59 1.23831 -5.16565 0
M  V30 15548 C 1475.63 0.460359 -6.10366 0
M  V30 15549 N 1474.77 1.37614 -6.88481 0
M  V30 15550 H 1479.61 -0.675656 -2.90239 0
M  V30 15551 H 1477.14 -0.344971 -1.42998 0
M  V30 15552 H 1479.1 1.61805 -3.84545 0
M  V30 15553 H 1477.73 1.75084 -2.71193 0
M  V30 15554 H 1476.78 -0.420315 -3.78071 0
M  V30 15555 H 1478.1 -0.332548 -4.9769 0
M  V30 15556 H 1477.25 1.88704 -5.76607 0
M  V30 15557 H 1475.99 1.87797 -4.50093 0
M  V30 15558 H 1474.99 -0.201836 -5.49429 0
M  V30 15559 H 1476.22 -0.174639 -6.78875 0
M  V30 15560 H 1474.16 2.00294 -6.24675 0
M  V30 15561 H 1474.08 0.82452 -7.5149 0
M  V30 15562 H 1475.35 2.01359 -7.53044 0
M  V30 15563 N 1479.58 1.53054 -0.375806 0
M  V30 15564 C 1480.8 2.06296 0.213708 0
M  V30 15565 C 1481.23 1.24675 1.40846 0
M  V30 15566 O 1480.59 0.268371 1.79303 0
M  V30 15567 C 1480.63 3.55981 0.575301 0
M  V30 15568 O 1479.74 3.77023 1.67115 0
M  V30 15569 H 1479.08 0.66338 0.0286922 0
M  V30 15570 H 1481.61 1.97362 -0.539371 0
M  V30 15571 H 1481.62 3.99187 0.843431 0
M  V30 15572 H 1480.29 4.14829 -0.298258 0
M  V30 15573 H 1478.87 3.45712 1.39778 0
M  V30 15574 N 1481.06 0.105248 1.57248 0
M  V30 15575 C 1482 -0.850012 2.14577 0
M  V30 15576 C 1482.97 -1.27294 1.06703 0
M  V30 15577 O 1484.16 -1.35289 1.34542 0
M  V30 15578 C 1481.3 -2.09993 2.73856 0
M  V30 15579 C 1480.41 -1.72662 3.95995 0
M  V30 15580 C 1479.55 -2.92517 4.43404 0
M  V30 15581 C 1478.59 -2.5136 5.58108 0
M  V30 15582 N 1477.72 -3.64082 6.00324 0
M  V30 15583 H 1482.56 -0.354282 2.95887 0
M  V30 15584 H 1480.1 -0.163192 1.46192 0
M  V30 15585 H 1482.06 -2.83208 3.06348 0
M  V30 15586 H 1480.69 -2.57048 1.95259 0
M  V30 15587 H 1479.74 -0.893754 3.69752 0
M  V30 15588 H 1481.05 -1.38406 4.79213 0
M  V30 15589 H 1480.21 -3.73973 4.77734 0
M  V30 15590 H 1478.94 -3.2999 3.59107 0
M  V30 15591 H 1477.95 -1.68333 5.23397 0
M  V30 15592 H 1479.17 -2.15019 6.44161 0
M  V30 15593 H 1477.12 -4.01255 5.18971 0
M  V30 15594 H 1477.04 -3.33705 6.78363 0
M  V30 15595 H 1478.31 -4.46019 6.39287 0
M  V30 15596 N 1482.53 -1.56697 -0.168486 0
M  V30 15597 C 1483.5 -1.95744 -1.19235 0
M  V30 15598 C 1484.5 -0.841419 -1.37028 0
M  V30 15599 O 1485.69 -1.10842 -1.34386 0
M  V30 15600 C 1482.82 -2.25471 -2.55686 0
M  V30 15601 H 1484.01 -2.87368 -0.857892 0
M  V30 15602 H 1481.57 -1.50798 -0.411041 0
M  V30 15603 H 1482.3 -1.36571 -2.94141 0
M  V30 15604 H 1482.09 -3.06822 -2.44137 0
M  V30 15605 H 1483.58 -2.56593 -3.29469 0
M  V30 15606 N 1484.01 0.437135 -1.51416 0
M  V30 15607 C 1485.26 1.1835 -1.63328 0
M  V30 15608 C 1485.57 1.92343 -0.355455 0
M  V30 15609 O 1486.78 2.69183 -0.353951 0
M  V30 15610 C 1485.24 2.15235 -2.88447 0
M  V30 15611 C 1484.84 1.46889 -4.23235 0
M  V30 15612 C 1486.59 2.90303 -3.09716 0
M  V30 15613 C 1484.5 2.42259 -5.39504 0
M  V30 15614 H 1483.43 0.445467 -0.608338 0
M  V30 15615 H 1486.08 0.450528 -1.77883 0
M  V30 15616 H 1484.46 2.91968 -2.67527 0
M  V30 15617 H 1485.63 0.757128 -4.54537 0
M  V30 15618 H 1483.95 0.839725 -4.07845 0
M  V30 15619 H 1486.54 3.61747 -3.93756 0
M  V30 15620 H 1486.89 3.5166 -2.22802 0
M  V30 15621 H 1487.42 2.20677 -3.30978 0
M  V30 15622 H 1484.16 1.85591 -6.28678 0
M  V30 15623 H 1483.68 3.11488 -5.12577 0
M  V30 15624 H 1485.36 3.03384 -5.7146 0
M  V30 15625 N 1485.49 1.41566 0.692592 0
M  V30 15626 C 1486.74 1.40805 1.44978 0
M  V30 15627 C 1487.06 0.0191039 1.94991 0
M  V30 15628 O 1486.33 -0.939544 1.71899 0
M  V30 15629 H 1484.91 0.518293 0.537942 0
M  V30 15630 H 1487.57 1.76831 0.81956 0
M  V30 15631 H 1486.67 2.09706 2.31149 0
M  V30 15632 N 1486.97 -0.927146 1.27443 0
M  V30 15633 C 1488.2 -1.70648 1.1646 0
M  V30 15634 C 1488.61 -1.871 -0.28114 0
M  V30 15635 O 1487.95 -1.38813 -1.20319 0
M  V30 15636 C 1488.01 -3.12542 1.77646 0
M  V30 15637 C 1487.68 -3.19425 3.26828 0
M  V30 15638 C 1488.67 -3.01633 4.23454 0
M  V30 15639 C 1486.36 -3.42366 3.67547 0
M  V30 15640 C 1488.35 -3.06672 5.58776 0
M  V30 15641 C 1486.04 -3.47039 5.02998 0
M  V30 15642 C 1487.04 -3.2921 5.98423 0
M  V30 15643 O 1486.72 -3.33619 7.31405 0
M  V30 15644 H 1486.46 -0.540657 0.40579 0
M  V30 15645 H 1489.01 -1.16983 1.68832 0
M  V30 15646 H 1487.24 -3.67691 1.19752 0
M  V30 15647 H 1488.93 -3.72445 1.61369 0
M  V30 15648 H 1489.7 -2.8375 3.93333 0
M  V30 15649 H 1485.57 -3.55294 2.93747 0
M  V30 15650 H 1489.12 -2.92674 6.33236 0
M  V30 15651 H 1485.02 -3.64446 5.32775 0
M  V30 15652 H 1485.78 -3.5007 7.3986 0
M  V30 15653 N 1488.45 -1.09474 -1.13372 0
M  V30 15654 C 1489.38 -0.756441 -2.20908 0
M  V30 15655 C 1490.36 0.266113 -1.68006 0
M  V30 15656 O 1491.54 0.134067 -1.93737 0
M  V30 15657 C 1488.67 -0.176733 -3.4685 0
M  V30 15658 C 1487.63 -1.12886 -4.12845 0
M  V30 15659 C 1486.95 -0.410831 -5.33119 0
M  V30 15660 C 1488.25 -2.47148 -4.60125 0
M  V30 15661 H 1489.95 -1.65555 -2.49463 0
M  V30 15662 H 1487.49 -0.797458 -1.19902 0
M  V30 15663 H 1489.45 0.0720151 -4.21338 0
M  V30 15664 H 1488.17 0.757576 -3.17692 0
M  V30 15665 H 1486.83 -1.36289 -3.40325 0
M  V30 15666 H 1486.48 0.527632 -5.00225 0
M  V30 15667 H 1486.18 -1.04567 -5.78221 0
M  V30 15668 H 1487.7 -0.170394 -6.10362 0
M  V30 15669 H 1489.11 -2.27949 -5.26034 0
M  V30 15670 H 1487.51 -3.06425 -5.15969 0
M  V30 15671 H 1488.58 -3.07874 -3.74622 0
M  V30 15672 N 1489.92 1.30607 -0.882012 0
M  V30 15673 C 1490.87 2.3016 -0.336011 0
M  V30 15674 C 1491.87 1.60037 0.555389 0
M  V30 15675 O 1493.07 1.74536 0.440152 0
M  V30 15676 H 1489.45 0.746595 -0.0899982 0
M  V30 15677 H 1491.42 2.73673 -1.18936 0
M  V30 15678 C 1490.17 3.44942 0.437061 0
M  V30 15679 H 1489.49 3.99081 -0.2396 0
M  V30 15680 H 1490.93 4.16684 0.784242 0
M  V30 15681 C 1489.39 2.94678 1.633 0
M  V30 15682 O 1489.92 2.94457 2.73236 0
M  V30 15683 N 1488.13 2.50727 1.46917 0
M  V30 15684 H 1487.67 2.51105 0.574807 0
M  V30 15685 H 1487.63 2.17453 2.27072 0
M  V30 15686 N 1491.4 0.642663 1.43901 0
M  V30 15687 C 1492.63 0.159202 2.06287 0
M  V30 15688 C 1493.05 -1.17091 1.48105 0
M  V30 15689 O 1492.4 -1.72064 0.608302 0
M  V30 15690 C 1492.45 0.0506891 3.61464 0
M  V30 15691 O 1492.17 1.32821 4.17481 0
M  V30 15692 C 1493.68 -0.460103 4.40906 0
M  V30 15693 H 1490.9 0.085003 0.665594 0
M  V30 15694 H 1493.44 0.880328 1.84582 0
M  V30 15695 H 1491.59 -0.620938 3.82391 0
M  V30 15696 H 1492.01 1.18053 5.11042 0
M  V30 15697 H 1493.48 -0.48501 5.49865 0
M  V30 15698 H 1493.96 -1.4894 4.13175 0
M  V30 15699 H 1494.57 0.178668 4.24925 0
M  V30 15700 N 1492.88 -1.52852 0.383918 0
M  V30 15701 C 1494.13 -2.01112 -0.199594 0
M  V30 15702 C 1494.45 -1.27237 -1.47769 0
M  V30 15703 O 1493.72 -0.390873 -1.91961 0
M  V30 15704 H 1492.3 -0.743047 -0.0767466 0
M  V30 15705 H 1494.96 -1.8799 0.51437 0
M  V30 15706 H 1494.06 -3.09347 -0.413627 0
M  V30 15707 N 1494.36 -0.113586 -1.5719 0
M  V30 15708 C 1495.59 0.552789 -1.99067 0
M  V30 15709 C 1496 1.61106 -0.992038 0
M  V30 15710 O 1495.34 1.83684 0.0240065 0
M  V30 15711 C 1495.4 1.24239 -3.3735 0
M  V30 15712 C 1495.07 0.332699 -4.55787 0
M  V30 15713 C 1496.06 -0.42654 -5.18147 0
M  V30 15714 C 1493.75 0.245351 -5.017 0
M  V30 15715 C 1495.74 -1.26091 -6.24804 0
M  V30 15716 C 1493.43 -0.592659 -6.08219 0
M  V30 15717 C 1494.43 -1.34443 -6.69637 0
M  V30 15718 O 1494.12 -2.16853 -7.74099 0
M  V30 15719 H 1493.85 0.15139 -0.65883 0
M  V30 15720 H 1496.4 -0.195113 -2.04471 0
M  V30 15721 H 1494.63 2.03725 -3.28684 0
M  V30 15722 H 1496.32 1.80513 -3.63552 0
M  V30 15723 H 1497.09 -0.368898 -4.83595 0
M  V30 15724 H 1492.97 0.820178 -4.53645 0
M  V30 15725 H 1496.51 -1.84818 -6.72672 0
M  V30 15726 H 1492.41 -0.651714 -6.42202 0
M  V30 15727 H 1493.17 -2.09736 -7.91172 0
M  V30 15728 N 1495.84 1.56784 0.160173 0
M  V30 15729 C 1496.77 1.93848 1.22293 0
M  V30 15730 C 1497.78 0.832803 1.39886 0
M  V30 15731 O 1498.97 1.11124 1.39692 0
M  V30 15732 C 1496.07 2.18581 2.58989 0
M  V30 15733 C 1495.24 3.49839 2.62548 0
M  V30 15734 C 1494.3 3.63268 3.80687 0
M  V30 15735 O 1493.33 4.35785 3.6617 0
M  V30 15736 N 1494.53 2.98948 4.97605 0
M  V30 15737 H 1497.3 2.85614 0.908004 0
M  V30 15738 H 1494.86 1.58075 0.349851 0
M  V30 15739 H 1496.85 2.24819 3.36509 0
M  V30 15740 H 1495.42 1.33145 2.82827 0
M  V30 15741 H 1494.64 3.5516 1.7104 0
M  V30 15742 H 1495.93 4.3619 2.61945 0
M  V30 15743 H 1495.33 2.39924 5.12302 0
M  V30 15744 H 1493.88 3.10765 5.72947 0
M  V30 15745 N 1497.32 -0.429099 1.51646 0
M  V30 15746 C 1498.73 -0.766217 1.40005 0
M  V30 15747 C 1498.93 -1.95481 0.488837 0
M  V30 15748 O 1497.99 -2.52445 -0.0529101 0
M  V30 15749 C 1499.3 -1.03886 2.82185 0
M  V30 15750 C 1500.85 -1.1428 2.91392 0
M  V30 15751 C 1501.32 -1.44833 4.34497 0
M  V30 15752 N 1502.81 -1.5174 4.37641 0
M  V30 15753 C 1503.55 -1.76968 5.45408 0
M  V30 15754 N 1503.05 -1.99934 6.63324 0
M  V30 15755 N 1504.84 -1.78819 5.32898 0
M  V30 15756 H 1496.99 0.35358 2.09436 0
M  V30 15757 H 1499.25 0.0958189 0.943145 0
M  V30 15758 H 1498.96 -0.238103 3.50893 0
M  V30 15759 H 1498.83 -1.96434 3.22015 0
M  V30 15760 H 1501.22 -1.93418 2.22876 0
M  V30 15761 H 1501.3 -0.19614 2.55047 0
M  V30 15762 H 1500.94 -0.662201 5.03565 0
M  V30 15763 H 1500.87 -2.40718 4.68361 0
M  V30 15764 H 1503.37 -1.35862 3.52633 0
M  V30 15765 H 1503.68 -2.18578 7.41245 0
M  V30 15766 H 1502.02 -1.97239 6.66425 0
M  V30 15767 H 1505.21 -1.60402 4.3976 0
M  V30 15768 H 1505.39 -1.98142 6.16963 0
M  V30 15769 N 1498.79 -1.41931 -0.685074 0
M  V30 15770 C 1499.73 -1.40545 -1.81052 0
M  V30 15771 C 1500.74 -0.306024 -1.59898 0
M  V30 15772 O 1501.93 -0.568444 -1.69207 0
M  V30 15773 C 1499.03 -1.17194 -3.17992 0
M  V30 15774 C 1498.2 -2.39376 -3.66084 0
M  V30 15775 C 1497.26 -2.11725 -4.81725 0
M  V30 15776 O 1496.29 -2.84847 -4.92799 0
M  V30 15777 N 1497.49 -1.11399 -5.69711 0
M  V30 15778 H 1500.25 -2.37549 -1.8273 0
M  V30 15779 H 1497.81 -1.36679 -0.86779 0
M  V30 15780 H 1499.81 -0.966307 -3.92994 0
M  V30 15781 H 1498.38 -0.287499 -3.11275 0
M  V30 15782 H 1497.6 -2.75575 -2.81873 0
M  V30 15783 H 1498.88 -3.2076 -3.94956 0
M  V30 15784 H 1498.28 -0.509008 -5.63405 0
M  V30 15785 H 1496.84 -0.968239 -6.44568 0
M  V30 15786 N 1500.27 0.920374 -1.27933 0
M  V30 15787 C 1501.2 2.03882 -1.13817 0
M  V30 15788 C 1502.18 1.70058 -0.0376853 0
M  V30 15789 O 1503.37 1.93023 -0.213492 0
M  V30 15790 C 1500.5 3.38142 -0.792296 0
M  V30 15791 C 1499.45 3.86104 -1.84683 0
M  V30 15792 C 1498.78 5.17253 -1.35474 0
M  V30 15793 C 1500.08 4.0869 -3.25223 0
M  V30 15794 H 1501.77 2.15949 -2.07379 0
M  V30 15795 H 1499.32 1.03764 -0.998454 0
M  V30 15796 H 1501.27 4.15872 -0.680337 0
M  V30 15797 H 1499.99 3.26109 0.179029 0
M  V30 15798 H 1498.65 3.10573 -1.94782 0
M  V30 15799 H 1498.3 5.01618 -0.372666 0
M  V30 15800 H 1498 5.50314 -2.05982 0
M  V30 15801 H 1499.53 5.97545 -1.25587 0
M  V30 15802 H 1500.94 4.76965 -3.18083 0
M  V30 15803 H 1499.34 4.5307 -3.93507 0
M  V30 15804 H 1500.41 3.13729 -3.69733 0
M  V30 15805 N 1501.75 1.10074 1.1279 0
M  V30 15806 C 1502.7 0.740977 2.20482 0
M  V30 15807 C 1503.69 -0.261163 1.67375 0
M  V30 15808 O 1504.9 -0.121923 1.79587 0
M  V30 15809 H 1501.27 0.221666 0.718588 0
M  V30 15810 H 1503.24 1.65823 2.48083 0
M  V30 15811 C 1501.99 0.184934 3.47208 0
M  V30 15812 H 1501.32 0.947278 3.88416 0
M  V30 15813 H 1502.76 -0.0287769 4.2399 0
M  V30 15814 C 1501.21 -1.08145 3.19071 0
M  V30 15815 O 1501.74 -2.1636 3.38454 0
M  V30 15816 N 1499.95 -0.998609 2.72903 0
M  V30 15817 H 1499.5 -0.117906 2.5733 0
M  V30 15818 H 1499.46 -1.84664 2.54453 0
M  V30 15819 N 1503.23 -1.30138 0.888926 0
M  V30 15820 C 1504.46 -1.99853 0.523676 0
M  V30 15821 C 1504.87 -1.66783 -0.893312 0
M  V30 15822 O 1504.21 -0.903292 -1.59957 0
M  V30 15823 C 1504.27 -3.54055 0.623332 0
M  V30 15824 C 1503.93 -4.10652 2.00534 0
M  V30 15825 C 1504.93 -4.26353 2.97522 0
M  V30 15826 C 1502.62 -4.45938 2.3118 0
M  V30 15827 C 1504.61 -4.76557 4.23288 0
M  V30 15828 C 1502.3 -4.95841 3.57191 0
M  V30 15829 C 1503.3 -5.11103 4.53059 0
M  V30 15830 O 1502.98 -5.59927 5.76833 0
M  V30 15831 H 1502.72 -0.645553 0.200591 0
M  V30 15832 H 1505.27 -1.66899 1.19724 0
M  V30 15833 H 1503.5 -3.86551 -0.107221 0
M  V30 15834 H 1505.19 -4.05009 0.26879 0
M  V30 15835 H 1505.95 -3.9939 2.75159 0
M  V30 15836 H 1501.83 -4.33324 1.57326 0
M  V30 15837 H 1505.38 -4.88385 4.98123 0
M  V30 15838 H 1501.27 -5.22239 3.7939 0
M  V30 15839 H 1502.04 -5.78263 5.79271 0
M  V30 15840 N 1504.71 -0.650285 -1.43559 0
M  V30 15841 C 1505.65 0.043098 -2.3076 0
M  V30 15842 C 1506.62 0.81763 -1.44582 0
M  V30 15843 O 1507.81 0.794825 -1.73457 0
M  V30 15844 C 1504.95 1.00557 -3.30125 0
M  V30 15845 C 1504.06 0.227448 -4.31401 0
M  V30 15846 C 1503.2 1.18345 -5.17849 0
M  V30 15847 C 1502.23 0.395596 -6.1082 0
M  V30 15848 N 1501.37 1.30304 -6.89902 0
M  V30 15849 H 1506.21 -0.706402 -2.89506 0
M  V30 15850 H 1503.75 -0.360118 -1.42624 0
M  V30 15851 H 1505.71 1.57717 -3.8624 0
M  V30 15852 H 1504.34 1.72198 -2.73034 0
M  V30 15853 H 1503.39 -0.460391 -3.77604 0
M  V30 15854 H 1504.7 -0.385316 -4.9731 0
M  V30 15855 H 1503.85 1.82578 -5.78576 0
M  V30 15856 H 1502.59 1.83013 -4.52059 0
M  V30 15857 H 1501.6 -0.260099 -5.49184 0
M  V30 15858 H 1502.82 -0.246633 -6.78652 0
M  V30 15859 H 1500.77 1.93657 -6.26764 0
M  V30 15860 H 1500.69 0.744768 -7.52323 0
M  V30 15861 H 1501.95 1.93361 -7.55137 0
M  V30 15862 N 1506.18 1.52647 -0.392018 0
M  V30 15863 C 1507.13 2.23336 0.458815 0
M  V30 15864 C 1508.12 1.23825 1.02743 0
M  V30 15865 O 1509.31 1.49148 0.953089 0
M  V30 15866 C 1506.44 3.04566 1.58412 0
M  V30 15867 C 1505.52 4.11474 1.02711 0
M  V30 15868 N 1505.92 5.05423 0.195282 0
M  V30 15869 C 1504.21 4.26654 1.29934 0
M  V30 15870 C 1504.91 5.81591 -0.112738 0
M  V30 15871 N 1503.89 5.4137 0.491926 0
M  V30 15872 H 1507.69 2.93328 -0.183222 0
M  V30 15873 H 1505.21 1.61145 -0.201476 0
M  V30 15874 H 1507.2 3.53747 2.2061 0
M  V30 15875 H 1505.86 2.36109 2.22896 0
M  V30 15876 H 1506.87 5.17628 -0.167677 0
M  V30 15877 H 1503.55 3.69426 1.94501 0
M  V30 15878 H 1504.94 6.67276 -0.786879 0
M  V30 15879 N 1507.66 0.121921 1.57128 0
M  V30 15880 C 1508.89 -0.542225 1.99358 0
M  V30 15881 C 1509.3 -1.60578 1.00057 0
M  V30 15882 O 1508.64 -1.83694 -0.0142649 0
M  V30 15883 C 1508.71 -1.22448 3.38004 0
M  V30 15884 C 1508.37 -0.308522 4.55957 0
M  V30 15885 C 1509.37 0.454012 5.17914 0
M  V30 15886 C 1507.05 -0.218741 5.01823 0
M  V30 15887 C 1509.05 1.29403 6.24126 0
M  V30 15888 C 1506.73 0.624906 6.07896 0
M  V30 15889 C 1507.73 1.37992 6.68915 0
M  V30 15890 O 1507.42 2.20955 7.72938 0
M  V30 15891 H 1507.15 -0.147894 0.659624 0
M  V30 15892 H 1509.7 0.205954 2.04365 0
M  V30 15893 H 1507.93 -2.01979 3.2976 0
M  V30 15894 H 1509.62 -1.78583 3.64504 0
M  V30 15895 H 1510.39 0.394539 4.83393 0
M  V30 15896 H 1506.27 -0.796109 4.54074 0
M  V30 15897 H 1509.81 1.88382 6.71683 0
M  V30 15898 H 1505.71 0.685762 6.41847 0
M  V30 15899 H 1506.48 2.13929 7.90049 0
M  V30 15900 N 1509.14 -1.56867 -0.151857 0
M  V30 15901 C 1510.42 -1.7399 -0.893694 0
M  V30 15902 C 1510.8 -0.688628 -1.99552 0
M  V30 15903 O 1510.15 0.293289 -2.2661 0
M  V30 15904 C 1510.36 -3.1788 -1.44061 0
M  V30 15905 C 1511.7 -3.7942 -1.90592 0
M  V30 15906 O 1512.73 -3.21279 -1.53813 0
M  V30 15907 O 1511.59 -4.81549 -2.58404 0
M  V30 15908 H 1508.68 -0.711229 -0.421998 0
M  V30 15909 H 1511.23 -1.69137 -0.138162 0
M  V30 15910 H 1510 -3.85888 -0.648529 0
M  V30 15911 H 1509.62 -3.27139 -2.25978 0
M  V30 15912 N 1510.62 0.421051 -1.51871 0
M  V30 15913 C 1511.87 1.16677 -1.65018 0
M  V30 15914 C 1512.19 1.91329 -0.376596 0
M  V30 15915 O 1511.46 1.86221 0.608146 0
M  V30 15916 H 1510.04 0.433698 -0.608206 0
M  V30 15917 H 1512.7 0.48115 -1.88868 0
M  V30 15918 H 1511.8 1.88742 -2.48562 0
M  V30 15919 N 1512.1 1.42293 0.677538 0
M  V30 15920 C 1513.32 1.46214 1.47092 0
M  V30 15921 C 1513.75 0.0740989 1.87954 0
M  V30 15922 O 1513.1 -0.926831 1.55819 0
M  V30 15923 C 1513.15 2.39236 2.69812 0
M  V30 15924 O 1512.26 1.86183 3.6798 0
M  V30 15925 H 1511.6 0.495507 0.442006 0
M  V30 15926 H 1514.13 1.86952 0.831274 0
M  V30 15927 H 1514.14 2.55723 3.17915 0
M  V30 15928 H 1512.81 3.40081 2.39411 0
M  V30 15929 H 1511.39 1.79237 3.26999 0
M  V30 15930 N 1513.57 -0.913576 1.28419 0
M  V30 15931 C 1514.8 -1.69403 1.18263 0
M  V30 15932 C 1515.21 -1.87387 -0.26128 0
M  V30 15933 O 1514.56 -1.40082 -1.18839 0
M  V30 15934 C 1514.62 -3.1064 1.80951 0
M  V30 15935 C 1514.28 -3.15941 3.30198 0
M  V30 15936 C 1515.28 -2.97124 4.2663 0
M  V30 15937 C 1512.96 -3.38449 3.71157 0
M  V30 15938 C 1514.96 -3.00728 5.61998 0
M  V30 15939 C 1512.64 -3.41685 5.06651 0
M  V30 15940 C 1513.64 -3.22845 6.01881 0
M  V30 15941 O 1513.33 -3.25842 7.34903 0
M  V30 15942 H 1513.06 -0.536323 0.411502 0
M  V30 15943 H 1515.62 -1.15186 1.70063 0
M  V30 15944 H 1513.85 -3.664 1.23645 0
M  V30 15945 H 1515.54 -3.70712 1.6531 0
M  V30 15946 H 1516.3 -2.79562 3.96321 0
M  V30 15947 H 1512.18 -3.52158 2.97499 0
M  V30 15948 H 1515.72 -2.85941 6.36304 0
M  V30 15949 H 1511.62 -3.58775 5.3661 0
M  V30 15950 H 1512.39 -3.42203 7.43532 0
M  V30 15951 N 1515.05 -1.1067 -1.12204 0
M  V30 15952 C 1516.28 -0.873095 -1.88127 0
M  V30 15953 C 1516.7 0.571099 -1.79221 0
M  V30 15954 O 1516.06 1.40251 -1.14888 0
M  V30 15955 C 1516.11 -1.32922 -3.35208 0
M  V30 15956 O 1515.21 -0.495807 -4.09409 0
M  V30 15957 H 1514.55 -0.315138 -0.584452 0
M  V30 15958 H 1517.08 -1.47413 -1.41882 0
M  V30 15959 H 1517.09 -1.32023 -3.86049 0
M  V30 15960 H 1515.77 -2.38091 -3.41007 0
M  V30 15961 H 1514.35 -0.570216 -3.68515 0
M  V30 15962 N 1516.53 1.29665 -0.895815 0
M  V30 15963 C 1517.76 1.99862 -0.535043 0
M  V30 15964 C 1518.17 1.67077 0.879245 0
M  V30 15965 O 1517.53 0.913717 1.57979 0
M  V30 15966 C 1517.58 3.54396 -0.713132 0
M  V30 15967 O 1517.3 3.86018 -2.07175 0
M  V30 15968 C 1518.8 4.41862 -0.356792 0
M  V30 15969 H 1516.02 0.638693 -0.205699 0
M  V30 15970 H 1518.57 1.65293 -1.20409 0
M  V30 15971 H 1516.72 3.87292 -0.0913116 0
M  V30 15972 H 1517.14 4.80701 -2.09827 0
M  V30 15973 H 1518.61 5.49428 -0.532252 0
M  V30 15974 H 1519.09 4.3349 0.705914 0
M  V30 15975 H 1519.69 4.1443 -0.95539 0
M  V30 15976 N 1518.01 0.657889 1.43212 0
M  V30 15977 C 1519.26 0.173187 2.01758 0
M  V30 15978 C 1519.58 -1.21447 1.51924 0
M  V30 15979 O 1518.84 -1.82568 0.704807 0
M  V30 15980 C 1519.14 0.138025 3.57133 0
M  V30 15981 C 1518.8 1.46806 4.26332 0
M  V30 15982 C 1517.47 1.83227 4.44951 0
M  V30 15983 C 1519.82 2.34476 4.65478 0
M  V30 15984 C 1517.15 3.06975 4.99983 0
M  V30 15985 C 1519.5 3.57521 5.21883 0
M  V30 15986 C 1518.16 3.94132 5.38717 0
M  V30 15987 H 1517.43 0.0633735 0.738285 0
M  V30 15988 H 1520.08 0.849524 1.71626 0
M  V30 15989 H 1518.38 -0.621776 3.86835 0
M  V30 15990 H 1520.08 -0.253948 4.00195 0
M  V30 15991 H 1516.67 1.17469 4.12188 0
M  V30 15992 H 1520.85 2.07628 4.50782 0
M  V30 15993 H 1516.11 3.35383 5.11202 0
M  V30 15994 H 1520.28 4.25669 5.51161 0
M  V30 15995 H 1517.91 4.901 5.81125 0
M  V30 15996 N 1519.49 -1.52437 0.400108 0
M  V30 15997 C 1520.73 -2.01312 -0.178252 0
M  V30 15998 C 1521.06 -1.28797 -1.46411 0
M  V30 15999 O 1520.33 -0.411211 -1.91536 0
M  V30 16000 H 1518.91 -0.743819 -0.0688613 0
M  V30 16001 H 1521.57 -1.87434 0.53428 0
M  V30 16002 H 1520.66 -3.09768 -0.380793 0
M  V30 16003 N 1520.96 -0.130252 -1.57061 0
M  V30 16004 C 1521.87 0.829198 -2.19457 0
M  V30 16005 C 1522.89 1.2843 -1.17395 0
M  V30 16006 O 1524.07 1.34496 -1.49909 0
M  V30 16007 C 1521.13 2.05727 -2.79065 0
M  V30 16008 C 1520.19 1.65301 -3.962 0
M  V30 16009 C 1519.43 2.82253 -4.52956 0
M  V30 16010 O 1519.65 3.97999 -4.08598 0
M  V30 16011 O 1518.58 2.5869 -5.43473 0
M  V30 16012 H 1522.41 0.328139 -3.01922 0
M  V30 16013 H 1519.99 0.0959361 -1.49092 0
M  V30 16014 H 1521.88 2.7763 -3.17017 0
M  V30 16015 H 1520.55 2.54817 -1.99624 0
M  V30 16016 H 1519.46 0.904712 -3.62996 0
M  V30 16017 H 1520.79 1.20942 -4.7711 0
M  V30 16018 N 1522.44 1.56945 0.143535 0
M  V30 16019 C 1523.86 1.51688 0.496291 0
M  V30 16020 C 1524.06 0.839251 1.83191 0
M  V30 16021 O 1523.12 0.411235 2.49129 0
M  V30 16022 C 1524.43 2.96456 0.503402 0
M  V30 16023 C 1525.98 3.07414 0.588676 0
M  V30 16024 C 1526.45 4.53696 0.626416 0
M  V30 16025 N 1527.94 4.58054 0.688543 0
M  V30 16026 C 1528.68 5.68621 0.738786 0
M  V30 16027 N 1528.17 6.88748 0.748163 0
M  V30 16028 N 1529.97 5.56663 0.779931 0
M  V30 16029 H 1522.12 1.99392 -0.731901 0
M  V30 16030 H 1524.38 0.909546 -0.267263 0
M  V30 16031 H 1524.09 3.49304 -0.409845 0
M  V30 16032 H 1523.96 3.52593 1.34008 0
M  V30 16033 H 1526.35 2.54584 1.49234 0
M  V30 16034 H 1526.43 2.54315 -0.275213 0
M  V30 16035 H 1526.07 5.07165 -0.273108 0
M  V30 16036 H 1526 5.04581 1.50684 0
M  V30 16037 H 1528.49 3.71576 0.688455 0
M  V30 16038 H 1528.81 7.68767 0.788444 0
M  V30 16039 H 1527.15 6.91302 0.715982 0
M  V30 16040 H 1530.34 4.61727 0.769799 0
M  V30 16041 H 1530.52 6.42847 0.815621 0
M  V30 16042 N 1523.92 -0.412991 1.52093 0
M  V30 16043 C 1525.15 -1.1804 1.69558 0
M  V30 16044 C 1525.56 -1.84858 0.403007 0
M  V30 16045 O 1524.9 -1.72541 -0.630506 0
M  V30 16046 C 1524.96 -2.28876 2.7723 0
M  V30 16047 C 1524.63 -1.82226 4.19098 0
M  V30 16048 C 1525.63 -1.31216 5.03069 0
M  V30 16049 C 1523.31 -1.89177 4.65314 0
M  V30 16050 C 1525.3 -0.877743 6.31328 0
M  V30 16051 C 1522.99 -1.45347 5.93563 0
M  V30 16052 C 1523.99 -0.947302 6.76399 0
M  V30 16053 O 1523.68 -0.515315 8.02247 0
M  V30 16054 H 1523.41 -0.360882 0.571612 0
M  V30 16055 H 1525.96 -0.492521 1.99408 0
M  V30 16056 H 1524.19 -3.01015 2.42748 0
M  V30 16057 H 1525.88 -2.9065 2.83333 0
M  V30 16058 H 1526.65 -1.25221 4.68556 0
M  V30 16059 H 1522.53 -2.27518 4.00945 0
M  V30 16060 H 1526.07 -0.481977 6.95933 0
M  V30 16061 H 1521.97 -1.51019 6.27585 0
M  V30 16062 H 1522.74 -0.638973 8.16002 0
M  V30 16063 N 1525.4 -1.4265 -0.669982 0
M  V30 16064 C 1526.65 -1.43093 -1.42719 0
M  V30 16065 C 1526.97 -0.0501228 -1.94936 0
M  V30 16066 O 1526.24 0.912077 -1.73372 0
M  V30 16067 H 1524.82 -0.526785 -0.529628 0
M  V30 16068 H 1527.48 -1.78113 -0.791324 0
M  V30 16069 H 1526.58 -2.13357 -2.27783 0
M  V30 16070 N 1526.88 0.906753 -1.28902 0
M  V30 16071 C 1528.29 1.18635 -1.06761 0
M  V30 16072 C 1528.49 2.00643 0.185594 0
M  V30 16073 O 1527.55 2.3647 0.885324 0
M  V30 16074 C 1528.86 1.91414 -2.31907 0
M  V30 16075 C 1530.41 2.04269 -2.37156 0
M  V30 16076 C 1530.89 2.80458 -3.62088 0
M  V30 16077 N 1532.38 2.88016 -3.62769 0
M  V30 16078 C 1533.11 3.47485 -4.56116 0
M  V30 16079 N 1532.61 4.08178 -5.59788 0
M  V30 16080 N 1534.4 3.45092 -4.43698 0
M  V30 16081 H 1526.55 0.359413 -2.09337 0
M  V30 16082 H 1528.81 0.221688 -0.921715 0
M  V30 16083 H 1528.52 1.38587 -3.23244 0
M  V30 16084 H 1528.39 2.91929 -2.38867 0
M  V30 16085 H 1530.78 2.56275 -1.46312 0
M  V30 16086 H 1530.86 1.0291 -2.34186 0
M  V30 16087 H 1530.51 2.2913 -4.53279 0
M  V30 16088 H 1530.44 3.82147 -3.62314 0
M  V30 16089 H 1532.93 2.44902 -2.87805 0
M  V30 16090 H 1533.24 4.51557 -6.27149 0
M  V30 16091 H 1531.59 4.06661 -5.63606 0
M  V30 16092 H 1534.78 2.96891 -3.61903 0
M  V30 16093 H 1534.95 3.91145 -5.16633 0
M  V30 16094 N 1528.36 1.11264 1.11616 0
M  V30 16095 C 1529.3 0.764321 2.19684 0
M  V30 16096 C 1530.3 -0.243396 1.67642 0
M  V30 16097 O 1531.5 -0.102869 1.79706 0
M  V30 16098 H 1527.88 0.229275 0.716196 0
M  V30 16099 H 1529.85 1.68445 2.46311 0
M  V30 16100 C 1528.6 0.22175 3.46992 0
M  V30 16101 H 1527.92 0.988422 3.87389 0
M  V30 16102 H 1529.36 0.0161946 4.23997 0
M  V30 16103 C 1527.82 -1.04755 3.202 0
M  V30 16104 O 1528.35 -2.12758 3.4073 0
M  V30 16105 N 1526.56 -0.969608 2.73947 0
M  V30 16106 H 1526.1 -0.0906063 2.57441 0
M  V30 16107 H 1526.06 -1.81955 2.56397 0
M  V30 16108 N 1529.83 -1.29188 0.902679 0
M  V30 16109 C 1530.77 -2.26665 0.339964 0
M  V30 16110 C 1531.78 -1.54426 -0.515396 0
M  V30 16111 O 1532.97 -1.75384 -0.332071 0
M  V30 16112 C 1530.07 -3.34672 -0.533653 0
M  V30 16113 C 1529.24 -4.36393 0.296661 0
M  V30 16114 C 1528.3 -5.2372 -0.510264 0
M  V30 16115 O 1527.33 -5.69153 0.0732871 0
M  V30 16116 N 1528.53 -5.51373 -1.81572 0
M  V30 16117 H 1531.29 -2.75588 1.17778 0
M  V30 16118 H 1528.85 -1.42553 0.767474 0
M  V30 16119 H 1530.85 -3.90025 -1.07995 0
M  V30 16120 H 1529.42 -2.85543 -1.27216 0
M  V30 16121 H 1528.64 -3.80658 1.02436 0
M  V30 16122 H 1529.92 -5.0139 0.865191 0
M  V30 16123 H 1529.32 -5.16275 -2.31251 0
M  V30 16124 H 1527.88 -6.09528 -2.30908 0
M  V30 16125 N 1531.31 -0.665475 -1.42861 0
M  V30 16126 C 1532.56 -0.183521 -2.01265 0
M  V30 16127 C 1532.88 1.21103 -1.52837 0
M  V30 16128 O 1532.15 1.81135 -0.746109 0
M  V30 16129 H 1530.73 -0.0648565 -0.744179 0
M  V30 16130 H 1533.39 -0.859893 -1.74905 0
M  V30 16131 H 1532.49 -0.177589 -3.11594 0
M  V30 16132 N 1532.79 1.52222 -0.408187 0
M  V30 16133 C 1533.74 2.28544 0.432458 0
M  V30 16134 C 1534.73 1.33198 1.04665 0
M  V30 16135 O 1535.94 1.50661 0.984954 0
M  V30 16136 H 1532.31 0.735162 0.158241 0
M  V30 16137 H 1534.28 2.97493 -0.232482 0
M  V30 16138 C 1533.03 3.11864 1.53741 0
M  V30 16139 H 1532.36 3.851 1.07414 0
M  V30 16140 H 1533.8 3.68374 2.09945 0
M  V30 16141 C 1532.25 2.25367 2.50423 0
M  V30 16142 O 1532.78 1.89329 3.54285 0
M  V30 16143 N 1530.99 1.89155 2.2061 0
M  V30 16144 H 1530.54 2.18661 1.36181 0
M  V30 16145 H 1530.5 1.31574 2.85544 0
M  V30 16146 N 1534.27 0.138579 1.5699 0
M  V30 16147 C 1535.5 -0.521806 2.00212 0
M  V30 16148 C 1535.91 -1.58967 1.01857 0
M  V30 16149 O 1535.27 -1.82494 0.0143099 0
M  V30 16150 C 1535.32 -1.13014 3.4338 0
M  V30 16151 O 1535.04 -0.104938 4.37974 0
M  V30 16152 C 1536.54 -1.87195 4.01837 0
M  V30 16153 H 1533.76 -0.136564 0.656956 0
M  V30 16154 H 1536.3 0.230685 2.03195 0
M  V30 16155 H 1534.46 -1.8333 3.41275 0
M  V30 16156 H 1534.87 -0.54948 5.21614 0
M  V30 16157 H 1536.35 -2.25061 5.04035 0
M  V30 16158 H 1536.82 -2.75467 3.42074 0
M  V30 16159 H 1537.43 -1.21597 4.07547 0
M  V30 16160 N 1535.75 -1.57019 -0.13521 0
M  V30 16161 C 1536.99 -1.85146 -0.842178 0
M  V30 16162 C 1537.35 -0.724176 -1.78251 0
M  V30 16163 O 1536.64 0.277042 -1.89586 0
M  V30 16164 C 1536.83 -3.17358 -1.64373 0
M  V30 16165 C 1536.66 -4.42839 -0.782516 0
M  V30 16166 C 1535.43 -5.03349 -0.443581 0
M  V30 16167 C 1537.63 -5.14188 -0.107475 0
M  V30 16168 N 1535.61 -6.12392 0.429998 0
M  V30 16169 C 1536.98 -6.16834 0.62576 0
M  V30 16170 C 1539.04 -4.97891 -0.0293703 0
M  V30 16171 C 1537.74 -7.04947 1.42974 0
M  V30 16172 C 1539.77 -5.86478 0.761385 0
M  V30 16173 C 1539.13 -6.88615 1.48286 0
M  V30 16174 H 1535.23 -0.727972 -0.285624 0
M  V30 16175 H 1537.81 -1.94407 -0.106834 0
M  V30 16176 H 1535.98 -3.09223 -2.35023 0
M  V30 16177 H 1537.72 -3.33349 -2.29478 0
M  V30 16178 H 1534.47 -4.67098 -0.782098 0
M  V30 16179 H 1534.89 -6.71539 0.85816 0
M  V30 16180 H 1539.54 -4.18902 -0.572813 0
M  V30 16181 H 1537.25 -7.83356 1.9844 0
M  V30 16182 H 1540.84 -5.75936 0.823965 0
M  V30 16183 H 1539.72 -7.55977 2.08491 0
M  V30 16184 N 1537.22 0.404919 -1.52309 0
M  V30 16185 C 1538.15 1.50039 -1.78915 0
M  V30 16186 C 1539.14 1.57587 -0.640329 0
M  V30 16187 O 1540.32 1.72793 -0.886344 0
M  V30 16188 C 1537.45 2.87819 -1.94364 0
M  V30 16189 C 1536.4 2.9512 -3.09981 0
M  V30 16190 C 1535.73 4.35195 -3.10659 0
M  V30 16191 C 1537.03 2.66219 -4.4936 0
M  V30 16192 H 1538.72 1.28025 -2.70647 0
M  V30 16193 H 1536.27 0.61445 -1.30233 0
M  V30 16194 H 1538.22 3.64446 -2.11559 0
M  V30 16195 H 1536.95 3.11136 -0.993067 0
M  V30 16196 H 1535.61 2.20939 -2.92543 0
M  V30 16197 H 1535.25 4.55528 -2.13316 0
M  V30 16198 H 1534.95 4.41003 -3.88317 0
M  V30 16199 H 1536.48 5.1375 -3.29989 0
M  V30 16200 H 1537.89 3.32567 -4.66982 0
M  V30 16201 H 1536.29 2.83398 -5.28967 0
M  V30 16202 H 1537.36 1.61636 -4.57167 0
M  V30 16203 N 1538.7 1.43003 0.662408 0
M  V30 16204 C 1539.93 1.47555 1.45035 0
M  V30 16205 C 1540.35 0.0906083 1.88582 0
M  V30 16206 O 1539.7 -0.897271 1.58919 0
M  V30 16207 C 1539.75 2.41345 2.69137 0
M  V30 16208 O 1539.47 3.74453 2.27413 0
M  V30 16209 C 1540.98 2.55045 3.62584 0
M  V30 16210 H 1538.2 0.501448 0.44586 0
M  V30 16211 H 1540.74 1.8765 0.812879 0
M  V30 16212 H 1538.89 2.0447 3.29045 0
M  V30 16213 H 1539.31 4.24801 3.07643 0
M  V30 16214 H 1540.78 3.24766 4.46353 0
M  V30 16215 H 1541.26 1.59235 4.09318 0
M  V30 16216 H 1541.87 2.92693 3.08563 0
M  V30 16217 N 1540.18 -0.899904 1.29381 0
M  V30 16218 C 1541.14 -1.98554 1.14494 0
M  V30 16219 C 1542.14 -1.60599 0.0804732 0
M  V30 16220 O 1543.33 -1.71096 0.327395 0
M  V30 16221 C 1540.47 -3.32529 0.750818 0
M  V30 16222 H 1541.66 -2.13189 2.10928 0
M  V30 16223 H 1539.21 -1.08438 1.12565 0
M  V30 16224 H 1539.95 -3.23595 -0.213668 0
M  V30 16225 H 1539.73 -3.61443 1.51992 0
M  V30 16226 H 1541.22 -4.12195 0.669709 0
M  V30 16227 N 1541.66 -1.11854 -1.11024 0
M  V30 16228 C 1542.91 -0.870073 -1.82855 0
M  V30 16229 C 1543.23 0.604215 -1.84877 0
M  V30 16230 O 1542.49 1.46232 -1.30056 0
M  V30 16231 C 1542.79 -1.3823 -3.29586 0
M  V30 16232 C 1542.45 -2.87057 -3.4772 0
M  V30 16233 C 1541.12 -3.27696 -3.52376 0
M  V30 16234 C 1543.47 -3.8289 -3.53617 0
M  V30 16235 C 1540.8 -4.62886 -3.60491 0
M  V30 16236 C 1543.15 -5.17902 -3.63263 0
M  V30 16237 C 1541.81 -5.58092 -3.66182 0
M  V30 16238 H 1541.08 -0.318382 -0.669114 0
M  V30 16239 H 1543.73 -1.39769 -1.30908 0
M  V30 16240 H 1542.03 -0.775018 -3.84058 0
M  V30 16241 H 1543.73 -1.16634 -3.83663 0
M  V30 16242 H 1540.32 -2.54623 -3.44768 0
M  V30 16243 H 1544.5 -3.52591 -3.49275 0
M  V30 16244 H 1539.76 -4.93425 -3.61029 0
M  V30 16245 H 1543.93 -5.9199 -3.6677 0
M  V30 16246 H 1541.56 -6.62838 -3.72222 0
M  V30 16247 N 1543.14 1.28707 -0.909517 0
M  V30 16248 C 1544.38 1.95443 -0.541281 0
M  V30 16249 C 1544.72 1.71457 0.911934 0
M  V30 16250 O 1543.99 1.03312 1.64794 0
M  V30 16251 C 1544.27 3.50019 -0.846097 0
M  V30 16252 C 1544.13 3.83423 -2.35173 0
M  V30 16253 C 1545.45 4.3879 -0.339328 0
M  V30 16254 H 1542.56 0.709869 -0.198128 0
M  V30 16255 H 1545.21 1.52151 -1.13799 0
M  V30 16256 H 1543.36 3.87025 -0.338262 0
M  V30 16257 H 1545.03 3.5631 -2.92986 0
M  V30 16258 H 1543.27 3.30618 -2.80846 0
M  V30 16259 H 1543.94 4.91348 -2.51557 0
M  V30 16260 H 1546.42 4.08832 -0.774312 0
M  V30 16261 H 1545.29 5.45809 -0.581722 0
M  V30 16262 H 1545.56 4.35514 0.760244 0
M  V30 16263 N 1544.61 0.673042 1.42506 0
M  V30 16264 C 1545.54 0.00755467 2.33499 0
M  V30 16265 C 1546.53 -0.791161 1.50581 0
M  V30 16266 O 1547.71 -0.748668 1.79189 0
M  V30 16267 C 1544.84 -0.945638 3.34178 0
M  V30 16268 C 1543.79 -0.25564 4.27236 0
M  V30 16269 C 1543.12 -1.32165 5.18109 0
M  V30 16270 C 1544.42 0.864254 5.151 0
M  V30 16271 H 1546.11 0.767487 2.89396 0
M  V30 16272 H 1543.66 0.370524 1.39151 0
M  V30 16273 H 1545.61 -1.42026 3.96745 0
M  V30 16274 H 1544.34 -1.73697 2.76581 0
M  V30 16275 H 1543 0.19873 3.66061 0
M  V30 16276 H 1542.64 -2.10492 4.56839 0
M  V30 16277 H 1542.34 -0.865109 5.81197 0
M  V30 16278 H 1543.87 -1.79724 5.83551 0
M  V30 16279 H 1545.28 0.470924 5.71363 0
M  V30 16280 H 1543.68 1.24648 5.87012 0
M  V30 16281 H 1544.75 1.71378 4.53605 0
M  V30 16282 N 1546.09 -1.52004 0.416254 0
M  V30 16283 C 1547.04 -2.27206 -0.405723 0
M  V30 16284 C 1548.01 -1.29913 -1.03498 0
M  V30 16285 O 1549.19 -1.58786 -1.0579 0
M  V30 16286 C 1546.33 -3.10186 -1.51258 0
M  V30 16287 C 1545.45 -4.22445 -0.903539 0
M  V30 16288 C 1544.58 -4.92771 -1.98368 0
M  V30 16289 C 1543.62 -5.96983 -1.35196 0
M  V30 16290 N 1542.76 -6.60798 -2.37255 0
M  V30 16291 H 1547.6 -2.97016 0.241983 0
M  V30 16292 H 1545.14 -1.46514 0.131174 0
M  V30 16293 H 1547.09 -3.56606 -2.16537 0
M  V30 16294 H 1545.72 -2.42532 -2.13021 0
M  V30 16295 H 1544.78 -3.80144 -0.139607 0
M  V30 16296 H 1546.09 -4.97176 -0.402136 0
M  V30 16297 H 1545.24 -5.42633 -2.71357 0
M  V30 16298 H 1543.98 -4.17624 -2.51876 0
M  V30 16299 H 1542.99 -5.46434 -0.607431 0
M  V30 16300 H 1544.21 -6.74076 -0.824482 0
M  V30 16301 H 1542.16 -5.88476 -2.89882 0
M  V30 16302 H 1542.07 -7.31227 -1.91947 0
M  V30 16303 H 1543.34 -7.15296 -3.09792 0
M  V30 16304 N 1547.57 -0.146903 -1.56914 0
M  V30 16305 C 1548.8 0.511181 -2.00486 0
M  V30 16306 C 1549.21 1.58425 -1.02699 0
M  V30 16307 O 1548.57 1.82484 -0.0239878 0
M  V30 16308 C 1548.62 1.11191 -3.43975 0
M  V30 16309 O 1548.34 0.0817094 -4.38024 0
M  V30 16310 C 1549.84 1.85061 -4.02824 0
M  V30 16311 H 1547.06 0.133078 -0.657671 0
M  V30 16312 H 1549.61 -0.241457 -2.0307 0
M  V30 16313 H 1547.76 1.81517 -3.42243 0
M  V30 16314 H 1548.18 0.52181 -5.21898 0
M  V30 16315 H 1549.65 2.22385 -5.05222 0
M  V30 16316 H 1550.13 2.73649 -3.4353 0
M  V30 16317 H 1550.73 1.19434 -4.08186 0
M  V30 16318 N 1549.05 1.57088 0.126881 0
M  V30 16319 C 1550.3 1.84436 0.836048 0
M  V30 16320 C 1550.62 0.730824 1.80248 0
M  V30 16321 O 1549.88 -0.278509 1.93708 0
M  V30 16322 C 1550.18 3.18225 1.62688 0
M  V30 16323 C 1549.84 4.43648 0.80545 0
M  V30 16324 C 1548.51 4.77705 0.578901 0
M  V30 16325 C 1550.86 5.20682 0.232355 0
M  V30 16326 C 1548.19 5.86245 -0.231126 0
M  V30 16327 C 1550.54 6.30073 -0.564819 0
M  V30 16328 C 1549.2 6.62667 -0.801759 0
M  V30 16329 H 1548.47 0.674898 0.305932 0
M  V30 16330 H 1551.12 1.91245 0.0987618 0
M  V30 16331 H 1549.42 3.06956 2.43485 0
M  V30 16332 H 1551.12 3.36604 2.17942 0
M  V30 16333 H 1547.71 4.16959 0.99211 0
M  V30 16334 H 1551.89 4.94729 0.394616 0
M  V30 16335 H 1547.15 6.09928 -0.423998 0
M  V30 16336 H 1551.32 6.8895 -1.01592 0
M  V30 16337 H 1548.95 7.46605 -1.43126 0
M  V30 16338 N 1550.53 -0.396836 1.52522 0
M  V30 16339 C 1551.49 -1.46695 1.76106 0
M  V30 16340 C 1552.49 -1.47902 0.631005 0
M  V30 16341 O 1553.68 -1.4921 0.898995 0
M  V30 16342 C 1550.81 -2.86033 1.85467 0
M  V30 16343 H 1552 -1.27071 2.71649 0
M  V30 16344 H 1549.56 -0.628096 1.43125 0
M  V30 16345 H 1550.29 -3.11012 0.918816 0
M  V30 16346 H 1550.08 -2.86559 2.67631 0
M  V30 16347 H 1551.57 -3.63587 2.05412 0
M  V30 16348 N 1552.01 -1.43353 -0.654814 0
M  V30 16349 C 1552.94 -1.44353 -1.7803 0
M  V30 16350 C 1553.95 -0.339872 -1.59213 0
M  V30 16351 O 1555.14 -0.604207 -1.67963 0
M  V30 16352 C 1552.24 -1.23913 -3.15434 0
M  V30 16353 C 1551.41 -2.47088 -3.60924 0
M  V30 16354 C 1550.47 -2.21896 -4.77126 0
M  V30 16355 O 1549.5 -2.95236 -4.86646 0
M  V30 16356 N 1550.7 -1.23459 -5.6722 0
M  V30 16357 H 1553.46 -2.41372 -1.77651 0
M  V30 16358 H 1551.03 -1.38488 -0.838603 0
M  V30 16359 H 1553.02 -1.04945 -3.90856 0
M  V30 16360 H 1551.59 -0.35346 -3.10595 0
M  V30 16361 H 1550.81 -2.81492 -2.75964 0
M  V30 16362 H 1552.1 -3.29066 -3.88064 0
M  V30 16363 H 1551.49 -0.6284 -5.62199 0
M  V30 16364 H 1550.05 -1.10474 -6.4237 0
M  V30 16365 N 1553.48 0.89303 -1.29857 0
M  V30 16366 C 1554.45 1.97944 -1.15546 0
M  V30 16367 C 1555.45 1.60554 -0.088989 0
M  V30 16368 O 1556.64 1.7092 -0.336464 0
M  V30 16369 C 1553.77 3.32126 -0.768442 0
M  V30 16370 H 1554.96 2.12067 -2.12055 0
M  V30 16371 H 1552.51 1.0784 -1.13138 0
M  V30 16372 H 1553.25 3.23704 0.196504 0
M  V30 16373 H 1553.03 3.60631 -1.53907 0
M  V30 16374 H 1554.52 4.11834 -0.691559 0
M  V30 16375 N 1554.96 1.12442 1.10429 0
M  V30 16376 C 1556.38 0.860481 1.34417 0
M  V30 16377 C 1556.58 -0.509394 1.94955 0
M  V30 16378 O 1555.63 -1.25807 2.18927 0
M  V30 16379 C 1556.95 1.97694 2.26578 0
M  V30 16380 C 1558.49 2.00783 2.40115 0
M  V30 16381 C 1558.97 3.11663 3.35604 0
M  V30 16382 N 1560.46 3.11106 3.43173 0
M  V30 16383 C 1561.2 3.9354 4.1703 0
M  V30 16384 N 1560.69 4.85963 4.93773 0
M  V30 16385 N 1562.48 3.81677 4.12649 0
M  V30 16386 H 1554.64 2.00706 0.695036 0
M  V30 16387 H 1556.9 0.873398 0.368619 0
M  V30 16388 H 1556.6 2.96405 1.89306 0
M  V30 16389 H 1556.48 1.88217 3.26886 0
M  V30 16390 H 1558.87 1.02692 2.76656 0
M  V30 16391 H 1558.95 2.14335 1.39621 0
M  V30 16392 H 1558.59 4.09987 2.99789 0
M  V30 16393 H 1558.52 2.9535 4.35977 0
M  V30 16394 H 1561.01 2.4415 2.88442 0
M  V30 16395 H 1561.32 5.45373 5.47529 0
M  V30 16396 H 1559.67 4.89976 4.92898 0
M  V30 16397 H 1562.86 3.08808 3.51789 0
M  V30 16398 H 1563.03 4.46151 4.6995 0
M  V30 16399 N 1556.44 -1.28223 0.91633 0
M  V30 16400 C 1557.4 -2.25477 0.411423 0
M  V30 16401 C 1558.4 -1.53969 -0.463689 0
M  V30 16402 O 1559.59 -1.72151 -0.266379 0
M  V30 16403 C 1556.72 -3.38427 -0.409851 0
M  V30 16404 H 1557.92 -2.71656 1.27056 0
M  V30 16405 H 1555.47 -1.3995 0.695966 0
M  V30 16406 H 1556.21 -2.97614 -1.28828 0
M  V30 16407 H 1555.99 -3.91497 0.217435 0
M  V30 16408 H 1557.48 -4.10739 -0.753862 0
M  V30 16409 N 1557.92 -0.68059 -1.42147 0
M  V30 16410 C 1559.15 -0.213529 -2.05494 0
M  V30 16411 C 1559.56 1.13665 -1.51251 0
M  V30 16412 O 1558.9 1.71838 -0.649422 0
M  V30 16413 C 1558.96 -0.0774256 -3.59417 0
M  V30 16414 C 1558.62 -1.35724 -4.3638 0
M  V30 16415 C 1559.62 -2.29195 -4.66654 0
M  V30 16416 C 1557.31 -1.60645 -4.75918 0
M  V30 16417 C 1559.3 -3.45858 -5.35407 0
M  V30 16418 C 1556.99 -2.77597 -5.44411 0
M  V30 16419 C 1557.99 -3.70027 -5.74081 0
M  V30 16420 O 1557.67 -4.84933 -6.41167 0
M  V30 16421 H 1557.41 -0.100043 -0.668556 0
M  V30 16422 H 1559.96 -0.929384 -1.83171 0
M  V30 16423 H 1558.19 0.694062 -3.8042 0
M  V30 16424 H 1559.88 0.350509 -4.04384 0
M  V30 16425 H 1560.64 -2.11194 -4.36603 0
M  V30 16426 H 1556.52 -0.8957 -4.52215 0
M  V30 16427 H 1560.07 -4.18023 -5.58483 0
M  V30 16428 H 1555.96 -2.95521 -5.73879 0
M  V30 16429 H 1556.73 -4.84552 -6.5966 0
M  V30 16430 N 1559.4 1.51781 -0.424309 0
M  V30 16431 C 1560.64 2.01157 0.147925 0
M  V30 16432 C 1560.96 1.31369 1.44919 0
M  V30 16433 O 1562.16 1.71643 2.10359 0
M  V30 16434 C 1560.62 3.58526 0.31417 0
M  V30 16435 C 1560.23 4.37242 -0.975898 0
M  V30 16436 C 1561.97 4.16088 0.840876 0
M  V30 16437 C 1559.88 5.86287 -0.776009 0
M  V30 16438 H 1558.81 0.751684 0.0590568 0
M  V30 16439 H 1561.46 1.74998 -0.552079 0
M  V30 16440 H 1559.84 3.81077 1.07687 0
M  V30 16441 H 1561.02 4.26444 -1.74592 0
M  V30 16442 H 1559.33 3.9107 -1.43015 0
M  V30 16443 H 1561.93 5.25138 1.0067 0
M  V30 16444 H 1562.27 3.7442 1.81977 0
M  V30 16445 H 1562.8 3.97565 0.136836 0
M  V30 16446 H 1559.54 6.32343 -1.7269 0
M  V30 16447 H 1559.06 5.99783 -0.0455544 0
M  V30 16448 H 1560.74 6.45609 -0.424095 0
M  V30 16449 N 1560.87 0.155222 1.56834 0
M  V30 16450 C 1562.12 -0.493826 1.96386 0
M  V30 16451 C 1562.45 -1.6433 1.04048 0
M  V30 16452 O 1561.7 -1.9557 0.0713123 0
M  V30 16453 C 1562 -1.03346 3.42132 0
M  V30 16454 C 1561.67 -0.00157215 4.509 0
M  V30 16455 C 1560.33 0.282068 4.80373 0
M  V30 16456 C 1562.68 0.699684 5.16482 0
M  V30 16457 C 1560.01 1.27263 5.72731 0
M  V30 16458 C 1562.36 1.67912 6.09908 0
M  V30 16459 C 1561.03 1.97037 6.37756 0
M  V30 16460 H 1560.3 -0.180704 0.718629 0
M  V30 16461 H 1562.94 0.243789 1.89942 0
M  V30 16462 H 1561.25 -1.84857 3.45449 0
M  V30 16463 H 1562.95 -1.54437 3.70068 0
M  V30 16464 H 1559.54 -0.232824 4.27967 0
M  V30 16465 H 1563.72 0.493751 4.93838 0
M  V30 16466 H 1558.98 1.50464 5.92597 0
M  V30 16467 H 1563.15 2.22796 6.59799 0
M  V30 16468 H 1560.78 2.73944 7.09125 0
M  V30 16469 N 1562.35 -1.57153 -0.118549 0
M  V30 16470 C 1563.6 -1.84064 -0.824832 0
M  V30 16471 C 1563.91 -0.740941 -1.81023 0
M  V30 16472 O 1565.12 -0.896464 -2.56273 0
M  V30 16473 C 1563.58 -3.26338 -1.51761 0
M  V30 16474 C 1563.18 -4.44318 -0.573174 0
M  V30 16475 C 1564.93 -3.62496 -2.209 0
M  V30 16476 C 1562.83 -5.7762 -1.2692 0
M  V30 16477 H 1561.76 -0.686521 -0.311777 0
M  V30 16478 H 1564.42 -1.83336 -0.0775833 0
M  V30 16479 H 1562.8 -3.21537 -2.3115 0
M  V30 16480 H 1563.97 -4.60418 0.187529 0
M  V30 16481 H 1562.29 -4.16398 0.0112747 0
M  V30 16482 H 1564.88 -4.5936 -2.73666 0
M  V30 16483 H 1565.23 -2.89952 -2.9872 0
M  V30 16484 H 1565.76 -3.69084 -1.48399 0
M  V30 16485 H 1562.5 -6.53335 -0.532285 0
M  V30 16486 H 1562.02 -5.65406 -2.00191 0
M  V30 16487 H 1563.7 -6.21391 -1.80227 0
M  V30 16488 N 1563.83 0.388742 -1.5273 0
M  V30 16489 C 1565.11 1.14799 -1.58368 0
M  V30 16490 C 1565.49 2.07706 -0.377018 0
M  V30 16491 O 1564.83 2.1951 0.634634 0
M  V30 16492 C 1565.04 1.90745 -2.92262 0
M  V30 16493 C 1566.39 2.46098 -3.46007 0
M  V30 16494 O 1567.42 2.00901 -2.94138 0
M  V30 16495 O 1566.28 3.28658 -4.3663 0
M  V30 16496 H 1563.37 0.52529 -0.638748 0
M  V30 16497 H 1565.92 0.393874 -1.65066 0
M  V30 16498 H 1564.69 1.22806 -3.7153 0
M  V30 16499 H 1564.31 2.73118 -2.88951 0
M  V30 16500 N 1565.31 1.43698 0.647203 0
M  V30 16501 C 1566.22 1.51781 1.78884 0
M  V30 16502 C 1567.23 0.404498 1.69233 0
M  V30 16503 O 1568.41 0.659509 1.90296 0
M  V30 16504 C 1565.47 1.44408 3.15194 0
M  V30 16505 C 1564.54 2.6646 3.36597 0
M  V30 16506 C 1563.77 2.59429 4.66403 0
M  V30 16507 O 1563.99 1.64537 5.46154 0
M  V30 16508 O 1562.93 3.50027 4.89658 0
M  V30 16509 H 1566.75 2.48198 1.75019 0
M  V30 16510 H 1564.34 1.25766 0.806436 0
M  V30 16511 H 1566.22 1.42761 3.96481 0
M  V30 16512 H 1564.89 0.511292 3.19637 0
M  V30 16513 H 1563.8 2.73679 2.5505 0
M  V30 16514 H 1565.13 3.58732 3.37005 0
M  V30 16515 N 1566.79 -0.886131 1.30328 0
M  V30 16516 C 1567.75 -1.97328 1.16594 0
M  V30 16517 C 1568.75 -1.60504 0.0975023 0
M  V30 16518 O 1569.94 -1.70739 0.345524 0
M  V30 16519 C 1567.07 -3.31714 0.786045 0
M  V30 16520 H 1568.26 -2.1094 2.13177 0
M  V30 16521 H 1565.82 -1.07238 1.13708 0
M  V30 16522 H 1566.55 -3.23804 -0.179334 0
M  V30 16523 H 1566.34 -3.5981 1.55817 0
M  V30 16524 H 1567.83 -4.11461 0.71339 0
M  V30 16525 N 1568.26 -1.13026 -1.09832 0
M  V30 16526 C 1569.21 -0.772653 -2.14509 0
M  V30 16527 C 1570.2 0.231327 -1.59228 0
M  V30 16528 O 1571.39 0.0358767 -1.76964 0
M  V30 16529 C 1568.52 -0.235762 -3.42489 0
M  V30 16530 C 1567.61 -1.2684 -4.04688 0
M  V30 16531 N 1568 -2.46801 -4.41501 0
M  V30 16532 C 1566.29 -1.11521 -4.31832 0
M  V30 16533 C 1567 -3.12791 -4.90445 0
M  V30 16534 N 1565.97 -2.40224 -4.87641 0
M  V30 16535 H 1569.77 -1.68541 -2.40772 0
M  V30 16536 H 1567.29 -1.01195 -1.27017 0
M  V30 16537 H 1569.28 0.038649 -4.16882 0
M  V30 16538 H 1567.94 0.671377 -3.17683 0
M  V30 16539 H 1568.96 -2.84137 -4.32997 0
M  V30 16540 H 1565.63 -0.26589 -4.16652 0
M  V30 16541 H 1567.02 -4.14988 -5.28427 0
M  V30 16542 N 1569.74 1.27735 -0.923117 0
M  V30 16543 C 1570.99 1.93857 -0.556994 0
M  V30 16544 C 1571.3 1.73386 0.905346 0
M  V30 16545 O 1572.51 2.3381 1.38005 0
M  V30 16546 C 1570.97 3.47263 -0.94534 0
M  V30 16547 C 1570.57 3.76497 -2.42805 0
M  V30 16548 C 1572.32 4.1949 -0.65025 0
M  V30 16549 C 1570.23 5.23256 -2.75603 0
M  V30 16550 H 1569.16 0.725712 -0.204591 0
M  V30 16551 H 1571.81 1.451 -1.12331 0
M  V30 16552 H 1570.19 3.94803 -0.307721 0
M  V30 16553 H 1571.36 3.39731 -3.11319 0
M  V30 16554 H 1569.68 3.17463 -2.69456 0
M  V30 16555 H 1572.27 5.27544 -0.871851 0
M  V30 16556 H 1572.62 4.14253 0.412352 0
M  V30 16557 H 1573.15 3.77758 -1.24676 0
M  V30 16558 H 1569.89 5.33579 -3.80754 0
M  V30 16559 H 1569.41 5.61185 -2.11735 0
M  V30 16560 H 1571.09 5.91088 -2.63103 0
M  V30 16561 N 1571.22 0.688118 1.41784 0
M  V30 16562 C 1572.45 0.22475 2.05676 0
M  V30 16563 C 1572.86 -1.1232 1.51755 0
M  V30 16564 O 1572.22 -1.70041 0.662735 0
M  V30 16565 C 1572.27 0.165661 3.6112 0
M  V30 16566 O 1571.99 1.46035 4.13044 0
M  V30 16567 C 1573.49 -0.319599 4.42146 0
M  V30 16568 H 1570.71 0.106135 0.662553 0
M  V30 16569 H 1573.26 0.938605 1.81688 0
M  V30 16570 H 1571.41 -0.498968 3.84173 0
M  V30 16571 H 1571.83 1.34252 5.07027 0
M  V30 16572 H 1573.3 -0.30983 5.5113 0
M  V30 16573 H 1573.78 -1.3572 4.17704 0
M  V30 16574 H 1574.38 0.313764 4.24141 0
M  V30 16575 N 1572.7 -1.51554 0.432352 0
M  V30 16576 C 1573.63 -2.25369 -0.417328 0
M  V30 16577 C 1574.64 -1.29197 -0.990551 0
M  V30 16578 O 1575.83 -1.54985 -0.885539 0
M  V30 16579 C 1572.93 -2.99006 -1.59526 0
M  V30 16580 C 1572.11 -4.22234 -1.1418 0
M  V30 16581 C 1571.16 -4.78495 -2.18928 0
M  V30 16582 O 1570.19 -5.40465 -1.78566 0
M  V30 16583 N 1571.39 -4.62091 -3.51358 0
M  V30 16584 H 1574.16 -2.98926 0.215294 0
M  V30 16585 H 1571.72 -1.59783 0.26097 0
M  V30 16586 H 1573.71 -3.33532 -2.29212 0
M  V30 16587 H 1572.28 -2.28491 -2.13332 0
M  V30 16588 H 1571.5 -3.93259 -0.272182 0
M  V30 16589 H 1572.79 -5.02212 -0.816145 0
M  V30 16590 H 1572.19 -4.12718 -3.86885 0
M  V30 16591 H 1570.74 -5.00992 -4.16953 0
M  V30 16592 N 1574.18 -0.163538 -1.56749 0
M  V30 16593 C 1575.14 0.755801 -2.1638 0
M  V30 16594 C 1576.14 1.16359 -1.10982 0
M  V30 16595 O 1577.33 1.08182 -1.36537 0
M  V30 16596 C 1574.46 2.02775 -2.74035 0
M  V30 16597 H 1575.65 0.23681 -2.98964 0
M  V30 16598 H 1573.21 0.0859925 -1.56063 0
M  V30 16599 H 1573.94 2.59002 -1.95163 0
M  V30 16600 H 1573.73 1.74439 -3.5116 0
M  V30 16601 H 1575.22 2.684 -3.19923 0
M  V30 16602 N 1575.65 1.57214 0.110213 0
M  V30 16603 C 1576.58 2.04015 1.13579 0
M  V30 16604 C 1577.57 0.926215 1.42672 0
M  V30 16605 O 1578.75 1.19651 1.52962 0
M  V30 16606 C 1575.88 2.45187 2.45969 0
M  V30 16607 C 1574.83 3.60105 2.31319 0
M  V30 16608 C 1574.16 3.87205 3.68749 0
M  V30 16609 C 1575.46 4.91526 1.76635 0
M  V30 16610 H 1577.15 2.89944 0.746496 0
M  V30 16611 H 1574.7 1.39488 0.357642 0
M  V30 16612 H 1576.65 2.76534 3.17973 0
M  V30 16613 H 1575.38 1.56238 2.86805 0
M  V30 16614 H 1574.04 3.28981 1.61762 0
M  V30 16615 H 1573.68 2.95448 4.07087 0
M  V30 16616 H 1573.38 4.64563 3.59798 0
M  V30 16617 H 1574.91 4.21013 4.42245 0
M  V30 16618 H 1576.32 5.21351 2.38465 0
M  V30 16619 H 1574.72 5.72944 1.78482 0
M  V30 16620 H 1575.79 4.79456 0.724573 0
M  V30 16621 N 1577.13 -0.380637 1.52934 0
M  V30 16622 C 1578.38 -1.12207 1.67608 0
M  V30 16623 C 1578.69 -1.90891 0.426597 0
M  V30 16624 O 1579.9 -2.67684 0.453612 0
M  V30 16625 C 1578.36 -2.04381 2.96237 0
M  V30 16626 C 1577.96 -1.3108 4.28395 0
M  V30 16627 C 1579.71 -2.78608 3.20277 0
M  V30 16628 C 1577.62 -2.22069 5.48124 0
M  V30 16629 H 1576.55 -0.422582 0.624452 0
M  V30 16630 H 1579.2 -0.384198 1.79433 0
M  V30 16631 H 1577.58 -2.81838 2.78179 0
M  V30 16632 H 1578.75 -0.587907 4.57034 0
M  V30 16633 H 1577.07 -0.687778 4.10681 0
M  V30 16634 H 1579.66 -3.46883 4.0691 0
M  V30 16635 H 1580.01 -3.43149 2.35701 0
M  V30 16636 H 1580.54 -2.08241 3.3894 0
M  V30 16637 H 1577.28 -1.62131 6.35133 0
M  V30 16638 H 1576.8 -2.9225 5.23784 0
M  V30 16639 H 1578.48 -2.81966 5.82327 0
M  V30 16640 N 1578.61 -1.44039 -0.639573 0
M  V30 16641 C 1579.86 -1.47589 -1.39961 0
M  V30 16642 C 1580.21 -0.103692 -1.9212 0
M  V30 16643 O 1579.5 0.879803 -1.70206 0
M  V30 16644 C 1579.7 -2.46459 -2.5883 0
M  V30 16645 C 1579.53 -3.93157 -2.18306 0
M  V30 16646 C 1578.3 -4.61409 -2.05984 0
M  V30 16647 C 1580.5 -4.8261 -1.77741 0
M  V30 16648 N 1578.48 -5.9297 -1.58935 0
M  V30 16649 C 1579.85 -6.03549 -1.41875 0
M  V30 16650 C 1581.9 -4.69749 -1.65046 0
M  V30 16651 C 1580.61 -7.13054 -0.94584 0
M  V30 16652 C 1582.63 -5.79271 -1.1916 0
M  V30 16653 C 1581.99 -6.99345 -0.842389 0
M  V30 16654 H 1578.09 -0.595136 -0.507284 0
M  V30 16655 H 1580.68 -1.8031 -0.734598 0
M  V30 16656 H 1578.85 -2.15742 -3.22971 0
M  V30 16657 H 1580.58 -2.40359 -3.25592 0
M  V30 16658 H 1577.34 -4.16104 -2.26173 0
M  V30 16659 H 1577.76 -6.62841 -1.37733 0
M  V30 16660 H 1582.4 -3.77361 -1.90679 0
M  V30 16661 H 1580.12 -8.05259 -0.677011 0
M  V30 16662 H 1583.71 -5.71344 -1.09808 0
M  V30 16663 H 1582.59 -7.8265 -0.492752 0
M  V30 16664 N 1580.09 0.879207 -1.30796 0
M  V30 16665 C 1581.02 2.00158 -1.20246 0
M  V30 16666 C 1582 1.69852 -0.091769 0
M  V30 16667 O 1583.18 1.92246 -0.274792 0
M  V30 16668 C 1580.31 3.3545 -0.899472 0
M  V30 16669 C 1579.27 3.80033 -1.96873 0
M  V30 16670 C 1578.59 5.12681 -1.51861 0
M  V30 16671 C 1579.89 3.98136 -3.38061 0
M  V30 16672 H 1581.59 2.09242 -2.14145 0
M  V30 16673 H 1579.13 1.00535 -1.03096 0
M  V30 16674 H 1581.09 4.13497 -0.812299 0
M  V30 16675 H 1579.81 3.26513 0.075189 0
M  V30 16676 H 1578.47 3.04219 -2.04564 0
M  V30 16677 H 1578.12 5.00178 -0.532063 0
M  V30 16678 H 1577.82 5.43482 -2.23386 0
M  V30 16679 H 1579.34 5.93247 -1.44534 0
M  V30 16680 H 1580.76 4.66604 -3.33096 0
M  V30 16681 H 1579.15 4.40321 -4.07722 0
M  V30 16682 H 1580.22 3.01807 -3.79526 0
M  V30 16683 N 1581.57 1.13606 1.09231 0
M  V30 16684 C 1582.79 0.922667 1.85746 0
M  V30 16685 C 1583.22 -0.523381 1.80672 0
M  V30 16686 O 1582.58 -1.37156 1.18566 0
M  V30 16687 C 1582.62 1.41762 3.31566 0
M  V30 16688 O 1581.73 0.60418 4.0795 0
M  V30 16689 H 1581.07 0.330523 0.575891 0
M  V30 16690 H 1583.6 1.51123 1.37924 0
M  V30 16691 H 1583.61 1.42212 3.82413 0
M  V30 16692 H 1582.28 2.47048 3.34574 0
M  V30 16693 H 1580.86 0.667721 3.66873 0
M  V30 16694 N 1583.05 -1.27244 0.929878 0
M  V30 16695 C 1583.98 -2.25893 0.387967 0
M  V30 16696 C 1584.99 -1.55485 -0.482524 0
M  V30 16697 O 1586.18 -1.76049 -0.294795 0
M  V30 16698 C 1583.28 -3.35729 -0.462544 0
M  V30 16699 C 1582.45 -4.35665 0.38916 0
M  V30 16700 C 1581.51 -5.24685 -0.399061 0
M  V30 16701 O 1580.54 -5.68869 0.193996 0
M  V30 16702 N 1581.74 -5.551 -1.69836 0
M  V30 16703 H 1584.5 -2.73027 1.23597 0
M  V30 16704 H 1582.07 -1.40893 0.797539 0
M  V30 16705 H 1584.06 -3.92228 -0.996974 0
M  V30 16706 H 1582.63 -2.88177 -1.2113 0
M  V30 16707 H 1581.85 -3.78399 1.10488 0
M  V30 16708 H 1583.14 -4.99442 0.971349 0
M  V30 16709 H 1582.53 -5.21064 -2.20248 0
M  V30 16710 H 1581.09 -6.14289 -2.17927 0
M  V30 16711 N 1584.52 -0.695628 -1.41417 0
M  V30 16712 C 1585.94 -0.367185 -1.55319 0
M  V30 16713 C 1586.14 1.12584 -1.67114 0
M  V30 16714 O 1585.2 1.91166 -1.64959 0
M  V30 16715 C 1586.51 -1.11576 -2.79233 0
M  V30 16716 C 1588.06 -1.10011 -2.9303 0
M  V30 16717 C 1588.53 -1.83044 -4.19832 0
M  V30 16718 N 1590.02 -1.80014 -4.26789 0
M  V30 16719 C 1590.76 -2.33362 -5.23765 0
M  V30 16720 N 1590.25 -2.95182 -6.26769 0
M  V30 16721 N 1592.05 -2.23618 -5.15705 0
M  V30 16722 H 1584.2 -1.66398 -1.32006 0
M  V30 16723 H 1586.46 -0.702205 -0.636877 0
M  V30 16724 H 1586.17 -2.1706 -2.76727 0
M  V30 16725 H 1586.04 -0.694385 -3.70753 0
M  V30 16726 H 1588.43 -0.0535436 -2.95051 0
M  V30 16727 H 1588.51 -1.56055 -2.02683 0
M  V30 16728 H 1588.15 -2.8768 -4.18572 0
M  V30 16729 H 1588.08 -1.34434 -5.09151 0
M  V30 16730 H 1590.57 -1.34942 -3.52986 0
M  V30 16731 H 1590.89 -3.33456 -6.97156 0
M  V30 16732 H 1589.23 -2.99259 -6.27271 0
M  V30 16733 H 1592.42 -1.74994 -4.3416 0
M  V30 16734 H 1592.6 -2.65497 -5.91113 0
M  V30 16735 N 1586 1.51322 -0.440383 0
M  V30 16736 C 1586.93 2.25587 0.40537 0
M  V30 16737 C 1587.95 1.29721 0.983686 0
M  V30 16738 O 1589.14 1.55453 0.877308 0
M  V30 16739 C 1586.24 2.99848 1.57938 0
M  V30 16740 C 1585.41 4.22834 1.11939 0
M  V30 16741 C 1584.47 4.79649 2.16387 0
M  V30 16742 O 1583.49 5.41405 1.75697 0
M  V30 16743 N 1584.7 4.63948 3.48902 0
M  V30 16744 H 1587.46 2.98807 -0.231143 0
M  V30 16745 H 1585.02 1.59642 -0.26944 0
M  V30 16746 H 1587.01 3.34743 2.2744 0
M  V30 16747 H 1585.58 2.29619 2.12117 0
M  V30 16748 H 1584.8 3.93398 0.251323 0
M  V30 16749 H 1586.09 5.02637 0.7895 0
M  V30 16750 H 1585.49 4.14764 3.84691 0
M  V30 16751 H 1584.05 5.03196 4.14291 0
M  V30 16752 N 1587.48 0.171848 1.5666 0
M  V30 16753 C 1588.43 -0.758237 2.17989 0
M  V30 16754 C 1589.4 -1.22654 1.12006 0
M  V30 16755 O 1590.58 -1.29461 1.40159 0
M  V30 16756 C 1587.72 -1.98189 2.82516 0
M  V30 16757 C 1586.83 -1.55711 4.02962 0
M  V30 16758 C 1585.97 -2.73447 4.55412 0
M  V30 16759 C 1585.01 -2.27462 5.68267 0
M  V30 16760 N 1584.15 -3.38293 6.15225 0
M  V30 16761 H 1588.99 -0.228467 2.97123 0
M  V30 16762 H 1586.52 -0.10104 1.46753 0
M  V30 16763 H 1588.48 -2.6996 3.18084 0
M  V30 16764 H 1587.11 -2.48536 2.05985 0
M  V30 16765 H 1586.16 -0.736126 3.7321 0
M  V30 16766 H 1587.47 -1.17957 4.84652 0
M  V30 16767 H 1586.63 -3.53374 4.93165 0
M  V30 16768 H 1585.37 -3.14462 3.7278 0
M  V30 16769 H 1584.37 -1.45982 5.30065 0
M  V30 16770 H 1585.6 -1.87505 6.52701 0
M  V30 16771 H 1583.54 -3.78882 5.35522 0
M  V30 16772 H 1583.46 -3.04633 6.91907 0
M  V30 16773 H 1584.73 -4.18503 6.57629 0
M  V30 16774 N 1588.96 -1.5727 -0.101874 0
M  V30 16775 C 1590.23 -1.76745 -0.837888 0
M  V30 16776 C 1590.61 -0.751766 -1.9726 0
M  V30 16777 O 1589.96 0.221046 -2.27428 0
M  V30 16778 C 1590.17 -3.22302 -1.33875 0
M  V30 16779 C 1591.52 -3.85292 -1.78425 0
M  V30 16780 O 1592.54 -3.2601 -1.43514 0
M  V30 16781 O 1591.4 -4.89526 -2.42953 0
M  V30 16782 H 1588.5 -0.724294 -0.399157 0
M  V30 16783 H 1591.04 -1.69491 -0.0842821 0
M  V30 16784 H 1589.82 -3.87756 -0.525434 0
M  V30 16785 H 1589.44 -3.34162 -2.15456 0
M  V30 16786 N 1590.44 0.372521 -1.53134 0
M  V30 16787 C 1591.38 1.47633 -1.79742 0
M  V30 16788 C 1592.38 1.55752 -0.66617 0
M  V30 16789 O 1593.58 1.58721 -0.848979 0
M  V30 16790 H 1589.96 0.491677 -0.568997 0
M  V30 16791 H 1591.93 1.22392 -2.72145 0
M  V30 16792 C 1590.68 2.84559 -1.99803 0
M  V30 16793 H 1590 2.79069 -2.86288 0
M  V30 16794 H 1591.44 3.60989 -2.22402 0
M  V30 16795 C 1589.9 3.27861 -0.775162 0
M  V30 16796 O 1590.43 4.01681 0.0394991 0
M  V30 16797 N 1588.64 2.84326 -0.600573 0
M  V30 16798 H 1588.18 2.2442 -1.26466 0
M  V30 16799 H 1588.14 3.13655 0.216241 0
M  V30 16800 N 1591.91 1.44376 0.631925 0
M  V30 16801 C 1593.16 1.46827 1.38875 0
M  V30 16802 C 1593.48 0.101789 1.94734 0
M  V30 16803 O 1592.75 -0.86579 1.7573 0
M  V30 16804 H 1591.33 0.540642 0.515475 0
M  V30 16805 H 1593.99 1.80148 0.743822 0
M  V30 16806 H 1593.09 2.19321 2.22047 0
M  V30 16807 N 1593.39 -0.872258 1.31261 0
M  V30 16808 C 1594.63 -1.63914 1.22113 0
M  V30 16809 C 1595 -1.9076 -0.217873 0
M  V30 16810 O 1596.2 -2.65293 -0.432812 0
M  V30 16811 C 1594.47 -2.93498 2.03945 0
M  V30 16812 S 1596.03 -3.84391 2.11634 0
M  V30 16813 H 1592.84 -0.562434 0.434959 0
M  V30 16814 H 1595.45 -1.03435 1.65896 0
M  V30 16815 H 1594.15 -2.71695 3.07587 0
M  V30 16816 H 1593.68 -3.59004 1.60872 0
M  V30 16817 H 1595.7 -4.8012 1.25298 0
M  V30 16818 N 1594.87 -1.14184 -1.08627 0
M  V30 16819 C 1596.12 -0.908664 -1.80968 0
M  V30 16820 C 1596.44 0.564864 -1.86117 0
M  V30 16821 O 1595.7 1.4344 -1.33129 0
M  V30 16822 C 1596 -1.4519 -3.2658 0
M  V30 16823 C 1595.66 -2.94368 -3.41552 0
M  V30 16824 C 1594.33 -3.35096 -3.45346 0
M  V30 16825 C 1596.68 -3.90304 -3.45416 0
M  V30 16826 C 1594.01 -4.70428 -3.50591 0
M  V30 16827 C 1596.36 -5.25491 -3.52196 0
M  V30 16828 C 1595.02 -5.65734 -3.54262 0
M  V30 16829 H 1594.29 -0.332504 -0.66221 0
M  V30 16830 H 1596.94 -1.42514 -1.27914 0
M  V30 16831 H 1595.24 -0.856308 -3.82328 0
M  V30 16832 H 1596.94 -1.24746 -3.81103 0
M  V30 16833 H 1593.53 -2.61879 -3.3929 0
M  V30 16834 H 1597.72 -3.59921 -3.41718 0
M  V30 16835 H 1592.97 -5.00971 -3.50482 0
M  V30 16836 H 1597.15 -5.99637 -3.54131 0
M  V30 16837 H 1594.77 -6.70585 -3.58079 0
M  V30 16838 N 1596.35 1.26749 -0.936613 0
M  V30 16839 C 1597.76 1.46284 -0.638218 0
M  V30 16840 C 1597.96 1.84509 0.80986 0
M  V30 16841 O 1597.02 1.96399 1.58693 0
M  V30 16842 C 1598.33 2.54867 -1.59573 0
M  V30 16843 C 1599.88 2.68721 -1.60493 0
M  V30 16844 C 1600.36 3.80471 -2.54963 0
M  V30 16845 N 1601.85 3.87857 -2.53221 0
M  V30 16846 C 1602.58 4.73767 -3.23005 0
M  V30 16847 N 1602.08 5.641 -4.02198 0
M  V30 16848 N 1603.87 4.67574 -3.11979 0
M  V30 16849 H 1596.02 1.00224 -1.87267 0
M  V30 16850 H 1598.29 0.501478 -0.804502 0
M  V30 16851 H 1597.99 2.33594 -2.62919 0
M  V30 16852 H 1597.87 3.52433 -1.34427 0
M  V30 16853 H 1600.25 2.8937 -0.578729 0
M  V30 16854 H 1600.33 1.71613 -1.89691 0
M  V30 16855 H 1599.98 3.60575 -3.57698 0
M  V30 16856 H 1599.91 4.77026 -2.23056 0
M  V30 16857 H 1602.4 3.23272 -1.95714 0
M  V30 16858 H 1602.71 6.26535 -4.52409 0
M  V30 16859 H 1601.06 5.63866 -4.063 0
M  V30 16860 H 1604.25 3.96004 -2.49596 0
M  V30 16861 H 1604.42 5.34308 -3.66633 0
M  V30 16862 N 1597.83 0.703118 1.41046 0
M  V30 16863 C 1599.05 0.245088 2.05947 0
M  V30 16864 C 1599.48 -1.09988 1.52592 0
M  V30 16865 O 1598.83 -1.69015 0.656023 0
M  V30 16866 C 1598.88 0.221444 3.59919 0
M  V30 16867 O 1597.99 -0.801324 4.0454 0
M  V30 16868 H 1597.33 0.117862 0.653456 0
M  V30 16869 H 1599.86 0.960099 1.80674 0
M  V30 16870 H 1599.87 0.0548681 4.07963 0
M  V30 16871 H 1598.54 1.20301 3.98121 0
M  V30 16872 H 1597.12 -0.603489 3.67984 0
M  V30 16873 N 1599.3 -1.51086 0.448402 0
M  V30 16874 C 1600.53 -2.07081 -0.115038 0
M  V30 16875 C 1600.95 -1.31253 -1.34737 0
M  V30 16876 O 1600.31 -0.353613 -1.77818 0
M  V30 16877 C 1600.36 -3.58321 -0.404803 0
M  V30 16878 O 1599.46 -3.84567 -1.48936 0
M  V30 16879 H 1598.81 -0.663993 0.00299118 0
M  V30 16880 H 1601.34 -1.94564 0.632921 0
M  V30 16881 H 1601.35 -4.02756 -0.652013 0
M  V30 16882 H 1600.02 -4.12934 0.495838 0
M  V30 16883 H 1598.6 -3.51987 -1.23124 0
M  V30 16884 N 1600.78 -0.180154 -1.56567 0
M  V30 16885 C 1602.03 0.461606 -1.96758 0
M  V30 16886 C 1602.35 1.63179 -1.0676 0
M  V30 16887 O 1601.62 1.95429 -0.135762 0
M  V30 16888 H 1600.2 0.173526 -0.726566 0
M  V30 16889 H 1602.86 -0.2634 -1.93112 0
M  V30 16890 H 1601.96 0.815729 -3.01251 0
M  V30 16891 N 1602.26 1.57322 0.0935319 0
M  V30 16892 C 1603.49 1.90754 0.814111 0
M  V30 16893 C 1603.91 0.774571 1.71412 0
M  V30 16894 O 1603.27 -0.273775 1.79221 0
M  V30 16895 C 1603.32 3.23055 1.60211 0
M  V30 16896 O 1602.42 3.10755 2.71118 0
M  V30 16897 H 1601.76 0.625237 0.223552 0
M  V30 16898 H 1604.29 2.04486 0.068288 0
M  V30 16899 H 1604.3 3.56401 1.986 0
M  V30 16900 H 1602.98 4.05101 0.941607 0
M  V30 16901 H 1601.55 2.88926 2.35745 0
M  V30 16902 N 1603.74 -0.364395 1.53329 0
M  V30 16903 C 1604.67 -1.45243 1.8283 0
M  V30 16904 C 1605.65 -1.55834 0.681886 0
M  V30 16905 O 1606.83 -1.70383 0.931845 0
M  V30 16906 C 1603.96 -2.82565 2.01926 0
M  V30 16907 C 1602.92 -2.86797 3.17697 0
M  V30 16908 C 1602.24 -4.26806 3.22089 0
M  V30 16909 C 1603.54 -2.54212 4.56261 0
M  V30 16910 H 1605.24 -1.20804 2.73946 0
M  V30 16911 H 1602.78 -0.579705 1.31816 0
M  V30 16912 H 1604.74 -3.58709 2.21147 0
M  V30 16913 H 1603.46 -3.08394 1.07521 0
M  V30 16914 H 1602.12 -2.13105 2.98298 0
M  V30 16915 H 1601.77 -4.49712 2.25318 0
M  V30 16916 H 1601.47 -4.30553 3.99873 0
M  V30 16917 H 1602.99 -5.04821 3.43495 0
M  V30 16918 H 1604.41 -3.20069 4.75635 0
M  V30 16919 H 1602.8 -2.69273 5.36295 0
M  V30 16920 H 1603.87 -1.49458 4.61292 0
M  V30 16921 N 1605.22 -1.44709 -0.62426 0
M  V30 16922 C 1606.15 -1.54934 -1.74693 0
M  V30 16923 C 1607.13 -0.401897 -1.65284 0
M  V30 16924 O 1608.31 -0.622906 -1.83939 0
M  V30 16925 C 1605.44 -1.49976 -3.13248 0
M  V30 16926 C 1604.4 -2.63267 -3.37453 0
M  V30 16927 C 1603.72 -2.43362 -4.76108 0
M  V30 16928 C 1605.02 -4.0538 -3.2934 0
M  V30 16929 H 1606.72 -2.48905 -1.66393 0
M  V30 16930 H 1604.26 -1.19794 -0.799088 0
M  V30 16931 H 1606.22 -1.55729 -3.91569 0
M  V30 16932 H 1604.94 -0.525254 -3.22349 0
M  V30 16933 H 1603.6 -2.56915 -2.61515 0
M  V30 16934 H 1603.25 -1.44088 -4.81921 0
M  V30 16935 H 1602.95 -3.19324 -4.93261 0
M  V30 16936 H 1604.47 -2.50943 -5.56651 0
M  V30 16937 H 1605.88 -4.13064 -3.97556 0
M  V30 16938 H 1604.28 -4.81599 -3.58025 0
M  V30 16939 H 1605.35 -4.28465 -2.27038 0
M  V30 16940 N 1606.69 0.865285 -1.31722 0
M  V30 16941 C 1607.64 1.99433 -1.19704 0
M  V30 16942 C 1608.64 1.69079 -0.104255 0
M  V30 16943 O 1609.84 1.78017 -0.266466 0
M  V30 16944 H 1606.22 0.654244 -0.370768 0
M  V30 16945 H 1608.19 2.06699 -2.15216 0
M  V30 16946 C 1606.94 3.35142 -0.926027 0
M  V30 16947 H 1606.26 3.59022 -1.75906 0
M  V30 16948 H 1607.7 4.14722 -0.88214 0
M  V30 16949 C 1606.16 3.34848 0.37124 0
M  V30 16950 O 1606.69 3.77012 1.38654 0
M  V30 16951 N 1604.9 2.87979 0.389441 0
M  V30 16952 H 1604.44 2.53861 -0.437293 0
M  V30 16953 H 1604.4 2.88165 1.25731 0
M  V30 16954 N 1608.17 1.14759 1.0802 0
M  V30 16955 C 1609.12 0.833824 2.17141 0
M  V30 16956 C 1610.11 -0.189939 1.68332 0
M  V30 16957 O 1611.32 -0.0456447 1.79942 0
M  V30 16958 H 1607.7 0.251944 0.70854 0
M  V30 16959 H 1609.67 1.76196 2.40827 0
M  V30 16960 C 1608.42 0.33203 3.46111 0
M  V30 16961 H 1607.74 1.11117 3.84048 0
M  V30 16962 H 1609.18 0.151078 4.23731 0
M  V30 16963 C 1607.64 -0.945153 3.2337 0
M  V30 16964 O 1608.17 -2.0181 3.47326 0
M  V30 16965 N 1606.37 -0.881963 2.76893 0
M  V30 16966 H 1605.92 -0.00865768 2.57599 0
M  V30 16967 H 1605.88 -1.73706 2.62056 0
M  V30 16968 N 1609.65 -1.26251 0.943322 0
M  V30 16969 C 1610.61 -2.24554 0.459158 0
M  V30 16970 C 1611.61 -1.54918 -0.430926 0
M  V30 16971 O 1612.8 -1.72678 -0.229803 0
M  V30 16972 C 1609.94 -3.39221 -0.337973 0
M  V30 16973 H 1611.13 -2.689 1.32789 0
M  V30 16974 H 1608.68 -1.38442 0.725495 0
M  V30 16975 H 1609.42 -3.00279 -1.22486 0
M  V30 16976 H 1609.2 -3.90947 0.300428 0
M  V30 16977 H 1610.69 -4.12246 -0.666568 0
M  V30 16978 N 1611.13 -0.710588 -1.40671 0
M  V30 16979 C 1612.38 -0.244967 -2.00207 0
M  V30 16980 C 1612.69 1.16693 -1.56978 0
M  V30 16981 O 1613.9 1.73081 -2.09177 0
M  V30 16982 C 1612.35 -0.387049 -3.57813 0
M  V30 16983 C 1611.96 -1.80527 -4.10017 0
M  V30 16984 C 1613.71 0.0180338 -4.24496 0
M  V30 16985 C 1611.61 -1.89821 -5.60109 0
M  V30 16986 H 1610.54 -0.087831 -0.748867 0
M  V30 16987 H 1613.19 -0.880956 -1.6097 0
M  V30 16988 H 1611.58 0.317442 -3.94726 0
M  V30 16989 H 1612.75 -2.53974 -3.84492 0
M  V30 16990 H 1611.06 -2.16137 -3.55913 0
M  V30 16991 H 1613.66 -0.0307544 -5.34691 0
M  V30 16992 H 1614 1.05915 -4.02601 0
M  V30 16993 H 1614.54 -0.63672 -3.92671 0
M  V30 16994 H 1611.28 -2.92036 -5.86852 0
M  V30 16995 H 1610.8 -1.20779 -5.87514 0
M  V30 16996 H 1612.48 -1.66801 -6.25129 0
M  V30 16997 N 1612.61 1.50847 -0.456408 0
M  V30 16998 C 1613.55 2.28202 0.345341 0
M  V30 16999 C 1614.52 1.32611 1.00017 0
M  V30 17000 O 1615.71 1.61535 1.01543 0
M  V30 17001 C 1612.85 3.14087 1.42981 0
M  V30 17002 C 1611.96 4.24693 0.791217 0
M  V30 17003 C 1611.1 4.97857 1.85234 0
M  V30 17004 C 1610.14 6.00357 1.1932 0
M  V30 17005 N 1609.27 6.66856 2.19652 0
M  V30 17006 H 1614.11 2.9627 -0.320646 0
M  V30 17007 H 1611.65 1.46115 -0.169973 0
M  V30 17008 H 1613.61 3.62222 2.07006 0
M  V30 17009 H 1612.24 2.48095 2.06516 0
M  V30 17010 H 1611.29 3.8038 0.0387694 0
M  V30 17011 H 1612.6 4.98068 0.270177 0
M  V30 17012 H 1611.76 5.49636 2.56875 0
M  V30 17013 H 1610.5 4.24155 2.40715 0
M  V30 17014 H 1609.5 5.47853 0.462341 0
M  V30 17015 H 1610.73 6.76025 0.645473 0
M  V30 17016 H 1608.67 5.95955 2.74178 0
M  V30 17017 H 1608.59 7.36059 1.72492 0
M  V30 17018 H 1609.86 7.23259 2.90719 0
M  V30 17019 N 1614.09 0.188454 1.56469 0
M  V30 17020 C 1615.33 -0.451165 1.97 0
M  V30 17021 C 1615.65 -1.6261 1.07624 0
M  V30 17022 O 1614.92 -1.95354 0.146125 0
M  V30 17023 H 1613.5 -0.16967 0.727476 0
M  V30 17024 H 1616.17 0.273638 1.9297 0
M  V30 17025 H 1615.26 -0.799741 3.0168 0
M  V30 17026 N 1615.56 -1.5737 -0.0851874 0
M  V30 17027 C 1616.81 -1.86219 -0.7853 0
M  V30 17028 C 1617.13 -0.77857 -1.78783 0
M  V30 17029 O 1616.4 0.194176 -1.94935 0
M  V30 17030 H 1614.98 -0.687134 -0.293013 0
M  V30 17031 H 1617.64 -1.94793 -0.0644597 0
M  V30 17032 H 1616.74 -2.83286 -1.30978 0
M  V30 17033 N 1617.04 0.356258 -1.53521 0
M  V30 17034 C 1618.29 1.09953 -1.70406 0
M  V30 17035 C 1618.62 1.8869 -0.459304 0
M  V30 17036 O 1617.9 1.86751 0.54354 0
M  V30 17037 C 1618.18 2.05114 -2.95973 0
M  V30 17038 C 1618.03 1.29924 -4.30627 0
M  V30 17039 C 1619.35 3.0511 -3.17168 0
M  V30 17040 H 1616.47 0.398343 -0.620074 0
M  V30 17041 H 1619.11 0.379376 -1.86174 0
M  V30 17042 H 1617.26 2.66524 -2.82661 0
M  V30 17043 H 1618.93 0.71226 -4.55768 0
M  V30 17044 H 1617.18 0.601141 -4.29615 0
M  V30 17045 H 1617.85 1.99624 -5.1464 0
M  V30 17046 H 1620.32 2.53809 -3.29728 0
M  V30 17047 H 1619.2 3.68908 -4.06445 0
M  V30 17048 H 1619.46 3.75794 -2.32876 0
M  V30 17049 N 1618.52 1.45038 0.616577 0
M  V30 17050 C 1619.43 1.55542 1.75624 0
M  V30 17051 C 1620.45 0.440304 1.68337 0
M  V30 17052 O 1621.62 0.699725 1.88854 0
M  V30 17053 C 1618.69 1.51062 3.1206 0
M  V30 17054 C 1617.75 2.7354 3.30869 0
M  V30 17055 C 1616.98 2.69264 4.60796 0
M  V30 17056 O 1617.2 1.76085 5.42541 0
M  V30 17057 O 1616.14 3.60335 4.82123 0
M  V30 17058 H 1619.96 2.51854 1.69715 0
M  V30 17059 H 1617.55 1.27448 0.779578 0
M  V30 17060 H 1619.43 1.51138 3.93364 0
M  V30 17061 H 1618.11 0.578976 3.1848 0
M  V30 17062 H 1617.01 2.79027 2.49188 0
M  V30 17063 H 1618.35 3.65799 3.2932 0
M  V30 17064 N 1620 -0.858287 1.32179 0
M  V30 17065 C 1621.27 -1.59548 1.13154 0
M  V30 17066 C 1621.65 -2.0882 -0.309439 0
M  V30 17067 O 1621 -1.87536 -1.30547 0
M  V30 17068 C 1621.21 -2.74443 2.15597 0
M  V30 17069 C 1622.56 -3.44115 2.48737 0
M  V30 17070 O 1623.58 -2.84664 2.14114 0
M  V30 17071 O 1622.44 -4.51389 3.08074 0
M  V30 17072 H 1619.54 -0.702481 0.436405 0
M  V30 17073 H 1622.08 -0.902731 1.43697 0
M  V30 17074 H 1620.86 -2.35533 3.12473 0
M  V30 17075 H 1620.48 -3.51397 1.86028 0
M  V30 17076 N 1621.48 -1.1533 -1.07409 0
M  V30 17077 C 1622.39 -0.863514 -2.1813 0
M  V30 17078 C 1623.4 0.159954 -1.73263 0
M  V30 17079 O 1624.58 -0.0139818 -2.01395 0
M  V30 17080 C 1621.64 -0.356271 -3.44865 0
M  V30 17081 C 1620.7 -1.44356 -4.04302 0
M  V30 17082 C 1619.94 -0.960429 -5.24987 0
M  V30 17083 O 1620.16 0.194227 -5.70069 0
M  V30 17084 O 1619.09 -1.74387 -5.76084 0
M  V30 17085 H 1622.92 -1.78909 -2.45408 0
M  V30 17086 H 1620.5 -0.932362 -1.16736 0
M  V30 17087 H 1622.39 -0.0798183 -4.21324 0
M  V30 17088 H 1621.06 0.541445 -3.1914 0
M  V30 17089 H 1619.97 -1.77361 -3.29384 0
M  V30 17090 H 1621.3 -2.31617 -4.34298 0
M  V30 17091 N 1622.95 1.25748 -0.950004 0
M  V30 17092 C 1624.2 1.93622 -0.603186 0
M  V30 17093 C 1624.53 1.74271 0.856925 0
M  V30 17094 O 1623.81 1.08502 1.61423 0
M  V30 17095 C 1624.09 3.4715 -0.957024 0
M  V30 17096 C 1623.94 3.75747 -2.47253 0
M  V30 17097 C 1625.26 4.37488 -0.478754 0
M  V30 17098 H 1622.38 0.703206 -0.220612 0
M  V30 17099 H 1625.02 1.48453 -1.18582 0
M  V30 17100 H 1623.17 3.85753 -0.46122 0
M  V30 17101 H 1624.85 3.46808 -3.04174 0
M  V30 17102 H 1623.09 3.21516 -2.91222 0
M  V30 17103 H 1623.76 4.83097 -2.67061 0
M  V30 17104 H 1626.24 4.06162 -0.903987 0
M  V30 17105 H 1625.11 5.43682 -0.755073 0
M  V30 17106 H 1625.37 4.37712 0.621303 0
M  V30 17107 N 1624.43 0.718038 1.40292 0
M  V30 17108 C 1625.66 0.268326 2.05153 0
M  V30 17109 C 1626.07 -1.09075 1.54104 0
M  V30 17110 O 1625.43 -1.68597 0.698654 0
M  V30 17111 C 1625.48 0.242222 3.60688 0
M  V30 17112 O 1625.2 1.54764 4.09853 0
M  V30 17113 C 1626.7 -0.225741 4.42725 0
M  V30 17114 H 1623.92 0.120165 0.660153 0
M  V30 17115 H 1626.47 0.976933 1.79656 0
M  V30 17116 H 1624.62 -0.417367 3.85145 0
M  V30 17117 H 1625.04 1.44976 5.04066 0
M  V30 17118 H 1626.51 -0.192857 5.51663 0
M  V30 17119 H 1626.99 -1.26829 4.20489 0
M  V30 17120 H 1627.59 0.40366 4.2338 0
M  V30 17121 N 1625.91 -1.50602 0.464402 0
M  V30 17122 C 1626.84 -2.31252 -0.323263 0
M  V30 17123 C 1627.82 -1.37856 -0.996476 0
M  V30 17124 O 1629.01 -1.66777 -0.994933 0
M  V30 17125 C 1626.14 -3.17414 -1.40945 0
M  V30 17126 C 1625.09 -4.19307 -0.858226 0
M  V30 17127 C 1624.42 -4.94164 -2.0422 0
M  V30 17128 C 1625.72 -5.22148 0.125921 0
M  V30 17129 H 1627.41 -2.97349 0.34983 0
M  V30 17130 H 1624.96 -1.42997 0.169685 0
M  V30 17131 H 1626.91 -3.72627 -1.96791 0
M  V30 17132 H 1625.63 -2.49189 -2.11122 0
M  V30 17133 H 1624.29 -3.65185 -0.321785 0
M  V30 17134 H 1623.94 -4.22417 -2.7308 0
M  V30 17135 H 1623.64 -5.63083 -1.67963 0
M  V30 17136 H 1625.16 -5.5221 -2.60569 0
M  V30 17137 H 1626.58 -5.72272 -0.343136 0
M  V30 17138 H 1624.98 -5.98749 0.402433 0
M  V30 17139 H 1626.05 -4.73307 1.05399 0
M  V30 17140 N 1627.39 -0.19675 -1.56367 0
M  V30 17141 C 1628.61 0.450245 -2.02454 0
M  V30 17142 C 1629.04 1.54287 -1.07597 0
M  V30 17143 O 1628.4 1.81202 -0.0597529 0
M  V30 17144 C 1628.44 0.982087 -3.46969 0
M  V30 17145 O 1627.55 2.09489 -3.5523 0
M  V30 17146 H 1626.89 0.105022 -0.655642 0
M  V30 17147 H 1629.42 -0.308112 -2.02267 0
M  V30 17148 H 1629.43 1.29826 -3.86793 0
M  V30 17149 H 1628.1 0.18224 -4.15501 0
M  V30 17150 H 1626.68 1.78723 -3.27281 0
M  V30 17151 N 1628.87 1.57413 0.0768405 0
M  V30 17152 C 1629.83 2.02363 1.0762 0
M  V30 17153 C 1630.83 0.919879 1.3189 0
M  V30 17154 O 1632.02 1.18489 1.27695 0
M  V30 17155 C 1629.15 2.39995 2.42106 0
M  V30 17156 H 1630.34 2.91881 0.688889 0
M  V30 17157 H 1627.9 1.52938 0.322422 0
M  V30 17158 H 1628.63 1.53488 2.85678 0
M  V30 17159 H 1628.42 3.20534 2.25833 0
M  V30 17160 H 1629.91 2.75365 3.13948 0
M  V30 17161 N 1630.34 -0.348112 1.53707 0
M  V30 17162 C 1631.57 -1.10742 1.74412 0
M  V30 17163 C 1631.98 -1.82982 0.481049 0
M  V30 17164 O 1631.33 -1.7506 -0.556759 0
M  V30 17165 C 1631.39 -2.16911 2.86687 0
M  V30 17166 C 1631.05 -1.64286 4.26449 0
M  V30 17167 C 1632.05 -1.09761 5.08182 0
M  V30 17168 C 1629.73 -1.69271 4.72919 0
M  V30 17169 C 1631.73 -0.609186 6.34482 0
M  V30 17170 C 1629.41 -1.20041 5.99194 0
M  V30 17171 C 1630.41 -0.659566 6.79808 0
M  V30 17172 O 1630.1 -0.174591 8.0371 0
M  V30 17173 H 1629.83 -0.336313 0.586404 0
M  V30 17174 H 1632.39 -0.407502 2.01317 0
M  V30 17175 H 1630.62 -2.90449 2.55297 0
M  V30 17176 H 1632.31 -2.78371 2.95405 0
M  V30 17177 H 1633.07 -1.05235 4.73445 0
M  V30 17178 H 1628.95 -2.10308 4.10234 0
M  V30 17179 H 1632.49 -0.186374 6.97351 0
M  V30 17180 H 1628.39 -1.24265 6.33426 0
M  V30 17181 H 1629.16 -0.292303 8.17978 0
M  V30 17182 N 1631.82 -1.45363 -0.608876 0
M  V30 17183 C 1633.07 -1.48586 -1.364 0
M  V30 17184 C 1633.38 -0.131213 -1.95159 0
M  V30 17185 O 1634.59 -0.0410845 -2.71469 0
M  V30 17186 C 1633.05 -2.61694 -2.47071 0
M  V30 17187 C 1632.65 -4.03466 -1.94729 0
M  V30 17188 C 1634.4 -2.74162 -3.24091 0
M  V30 17189 C 1632.31 -5.07958 -3.02874 0
M  V30 17190 H 1631.24 -0.552893 -0.512665 0
M  V30 17191 H 1633.89 -1.71499 -0.65271 0
M  V30 17192 H 1632.27 -2.32062 -3.20879 0
M  V30 17193 H 1633.44 -4.4277 -1.27638 0
M  V30 17194 H 1631.76 -3.95436 -1.30457 0
M  V30 17195 H 1634.35 -3.494 -4.04752 0
M  V30 17196 H 1634.7 -1.80751 -3.75013 0
M  V30 17197 H 1635.23 -3.03313 -2.57383 0
M  V30 17198 H 1631.97 -6.03073 -2.56871 0
M  V30 17199 H 1631.49 -4.73225 -3.68535 0
M  V30 17200 H 1633.17 -5.3265 -3.67277 0
M  V30 17201 N 1633.3 0.851265 -1.32632 0
M  V30 17202 C 1634.53 1.63805 -1.26394 0
M  V30 17203 C 1634.94 1.88056 0.167454 0
M  V30 17204 O 1634.3 1.45196 1.10564 0
M  V30 17205 C 1634.35 2.9954 -2.02381 0
M  V30 17206 O 1634.07 2.76361 -3.39935 0
M  V30 17207 C 1635.57 3.93982 -2.03207 0
M  V30 17208 H 1632.79 0.510088 -0.435948 0
M  V30 17209 H 1635.34 1.06123 -1.74809 0
M  V30 17210 H 1633.49 3.53859 -1.5768 0
M  V30 17211 H 1633.91 3.62708 -3.78871 0
M  V30 17212 H 1635.38 4.86478 -2.60851 0
M  V30 17213 H 1635.86 4.27211 -1.01918 0
M  V30 17214 H 1636.46 3.45601 -2.47871 0
M  V30 17215 N 1634.78 1.15898 1.06796 0
M  V30 17216 C 1636.03 0.931848 1.78884 0
M  V30 17217 C 1636.34 -0.54197 1.87942 0
M  V30 17218 O 1637.55 -0.886848 2.56607 0
M  V30 17219 C 1636 1.61788 3.21485 0
M  V30 17220 C 1635.61 3.12911 3.2061 0
M  V30 17221 C 1637.35 1.47252 3.98142 0
M  V30 17222 C 1635.26 3.74275 4.579 0
M  V30 17223 H 1634.19 0.344998 0.670442 0
M  V30 17224 H 1636.84 1.38974 1.19827 0
M  V30 17225 H 1635.22 1.08769 3.80769 0
M  V30 17226 H 1636.4 3.72732 2.70938 0
M  V30 17227 H 1634.71 3.27273 2.57451 0
M  V30 17228 H 1637.31 1.90484 4.9962 0
M  V30 17229 H 1637.65 0.420766 4.14168 0
M  V30 17230 H 1638.19 1.97398 3.45367 0
M  V30 17231 H 1634.93 4.79376 4.47078 0
M  V30 17232 H 1634.45 3.19238 5.07786 0
M  V30 17233 H 1636.12 3.75532 5.26863 0
M  V30 17234 N 1636.26 -1.25243 0.956659 0
M  V30 17235 C 1637.22 -2.24054 0.482949 0
M  V30 17236 C 1638.22 -1.55367 -0.41447 0
M  V30 17237 O 1639.41 -1.72912 -0.211475 0
M  V30 17238 C 1636.54 -3.3956 -0.301975 0
M  V30 17239 H 1637.73 -2.67476 1.35634 0
M  V30 17240 H 1635.29 -1.37665 0.740138 0
M  V30 17241 H 1636.02 -3.01561 -1.19294 0
M  V30 17242 H 1635.81 -3.90607 0.341876 0
M  V30 17243 H 1637.3 -4.1293 -0.622807 0
M  V30 17244 N 1637.73 -0.725468 -1.3991 0
M  V30 17245 C 1638.66 -0.094211 -2.3331 0
M  V30 17246 C 1639.65 0.734728 -1.53414 0
M  V30 17247 O 1640.83 0.681647 -1.81844 0
M  V30 17248 C 1637.96 0.820958 -3.37457 0
M  V30 17249 C 1636.91 0.0968983 -4.2789 0
M  V30 17250 C 1636.24 1.12845 -5.22657 0
M  V30 17251 C 1637.54 -1.05483 -5.11537 0
M  V30 17252 H 1639.23 -0.874365 -2.86348 0
M  V30 17253 H 1636.78 -0.421913 -1.3768 0
M  V30 17254 H 1638.73 1.27203 -4.01743 0
M  V30 17255 H 1637.46 1.63312 -2.82837 0
M  V30 17256 H 1636.12 -0.334454 -3.65071 0
M  V30 17257 H 1635.76 1.93392 -4.64337 0
M  V30 17258 H 1635.46 0.648805 -5.84007 0
M  V30 17259 H 1636.99 1.57942 -5.89819 0
M  V30 17260 H 1638.4 -0.682657 -5.69221 0
M  V30 17261 H 1636.8 -1.46349 -5.81981 0
M  V30 17262 H 1637.87 -1.88095 -4.46932 0
M  V30 17263 N 1639.21 1.50354 -0.472382 0
M  V30 17264 C 1640.14 2.3142 0.310995 0
M  V30 17265 C 1641.12 1.38383 0.989151 0
M  V30 17266 O 1642.31 1.67303 0.986074 0
M  V30 17267 C 1639.44 3.18157 1.3926 0
M  V30 17268 C 1638.39 4.19756 0.835977 0
M  V30 17269 C 1637.72 4.9524 2.01597 0
M  V30 17270 C 1639.02 5.22074 -0.15361 0
M  V30 17271 H 1640.71 2.97159 -0.365595 0
M  V30 17272 H 1638.26 1.42905 -0.177266 0
M  V30 17273 H 1640.21 3.73666 1.94813 0
M  V30 17274 H 1638.94 2.50305 2.09798 0
M  V30 17275 H 1637.59 3.65351 0.302414 0
M  V30 17276 H 1637.24 4.2386 2.70836 0
M  V30 17277 H 1636.94 5.63966 1.64974 0
M  V30 17278 H 1638.47 5.53584 2.57637 0
M  V30 17279 H 1639.88 5.72446 0.312783 0
M  V30 17280 H 1638.28 5.98527 -0.43418 0
M  V30 17281 H 1639.35 4.72741 -1.07908 0
M  V30 17282 N 1640.69 0.205039 1.56261 0
M  V30 17283 C 1641.6 -0.723548 2.23164 0
M  V30 17284 C 1642.62 -1.22683 1.23389 0
M  V30 17285 O 1643.79 -1.27191 1.56155 0
M  V30 17286 C 1640.86 -1.92178 2.88563 0
M  V30 17287 C 1639.92 -1.46209 4.03635 0
M  V30 17288 C 1639.15 -2.60321 4.65906 0
M  V30 17289 O 1639.38 -3.78051 4.27122 0
M  V30 17290 O 1638.31 -2.32465 5.55197 0
M  V30 17291 H 1642.14 -0.183715 3.03144 0
M  V30 17292 H 1639.72 -0.0246933 1.4938 0
M  V30 17293 H 1641.6 -2.62188 3.29902 0
M  V30 17294 H 1640.28 -2.45003 2.11555 0
M  V30 17295 H 1639.18 -0.730492 3.66899 0
M  V30 17296 H 1640.52 -0.980402 4.82337 0
M  V30 17297 N 1642.17 -1.57451 -0.0684915 0
M  V30 17298 C 1643.42 -1.86595 -0.765856 0
M  V30 17299 C 1643.73 -0.798157 -1.78574 0
M  V30 17300 O 1644.94 -0.977541 -2.53291 0
M  V30 17301 C 1643.39 -3.31001 -1.41302 0
M  V30 17302 C 1643 -4.45917 -0.431528 0
M  V30 17303 C 1644.75 -3.6934 -2.09256 0
M  V30 17304 C 1642.65 -5.81366 -1.08479 0
M  V30 17305 H 1641.58 -0.696092 -0.289778 0
M  V30 17306 H 1644.23 -1.8349 -0.0192171 0
M  V30 17307 H 1642.62 -3.28728 -2.20803 0
M  V30 17308 H 1643.79 -4.59589 0.333913 0
M  V30 17309 H 1642.1 -4.16152 0.143743 0
M  V30 17310 H 1644.7 -4.67833 -2.58913 0
M  V30 17311 H 1645.04 -2.99308 -2.89344 0
M  V30 17312 H 1645.58 -3.73618 -1.36581 0
M  V30 17313 H 1642.32 -6.54698 -0.324162 0
M  V30 17314 H 1641.84 -5.71488 -1.82102 0
M  V30 17315 H 1643.52 -6.26811 -1.60367 0
M  V30 17316 N 1643.65 0.339955 -1.5389 0
M  V30 17317 C 1645.06 0.915362 -1.62721 0
M  V30 17318 C 1645.41 1.89434 -0.510798 0
M  V30 17319 O 1644.53 2.13403 0.3589 0
M  V30 17320 C 1645.13 1.66699 -2.94953 0
M  V30 17321 C 1643.69 2.19135 -3.06034 0
M  V30 17322 C 1642.84 1.01159 -2.5819 0
M  V30 17323 H 1645.79 0.11799 -1.58261 0
M  V30 17324 H 1645.81 2.53011 -2.84193 0
M  V30 17325 H 1645.32 0.954219 -3.76186 0
M  V30 17326 H 1643.42 2.93577 -2.29441 0
M  V30 17327 H 1643.53 2.4526 -4.11563 0
M  V30 17328 H 1641.9 1.38604 -2.13685 0
M  V30 17329 H 1642.68 0.313396 -3.41867 0
M  V30 17330 N 1645.13 1.45684 0.601159 0
M  V30 17331 C 1646.06 1.57694 1.72206 0
M  V30 17332 C 1647.04 0.428141 1.64624 0
M  V30 17333 O 1648.22 0.65209 1.82925 0
M  V30 17334 C 1645.35 1.54941 3.10822 0
M  V30 17335 C 1644.31 2.68603 3.33222 0
M  V30 17336 C 1643.63 2.50906 4.72176 0
M  V30 17337 C 1644.93 4.10568 3.22849 0
M  V30 17338 H 1646.63 2.51521 1.62412 0
M  V30 17339 H 1644.17 1.2105 0.779929 0
M  V30 17340 H 1646.12 1.61939 3.89042 0
M  V30 17341 H 1644.85 0.576471 3.21472 0
M  V30 17342 H 1643.51 2.61043 2.57394 0
M  V30 17343 H 1643.16 1.51736 4.79568 0
M  V30 17344 H 1642.86 3.27131 4.88118 0
M  V30 17345 H 1644.38 2.59767 5.52588 0
M  V30 17346 H 1645.79 4.19336 3.90935 0
M  V30 17347 H 1644.19 4.87234 3.50318 0
M  V30 17348 H 1645.26 4.32022 2.20192 0
M  V30 17349 N 1646.6 -0.84422 1.33082 0
M  V30 17350 C 1647.83 -1.63133 1.27261 0
M  V30 17351 C 1648.25 -1.88142 -0.157479 0
M  V30 17352 O 1647.6 -1.4578 -1.09793 0
M  V30 17353 C 1647.65 -2.98462 2.03967 0
M  V30 17354 O 1647.38 -2.74555 3.41396 0
M  V30 17355 C 1648.88 -3.92899 2.05293 0
M  V30 17356 H 1646.1 -0.507769 0.438647 0
M  V30 17357 H 1648.64 -1.05194 1.75369 0
M  V30 17358 H 1646.8 -3.53017 1.59554 0
M  V30 17359 H 1647.21 -3.60694 3.80789 0
M  V30 17360 H 1648.68 -4.85088 2.63427 0
M  V30 17361 H 1649.16 -4.26665 1.04183 0
M  V30 17362 H 1649.77 -3.44281 2.49701 0
M  V30 17363 N 1648.08 -1.16463 -1.0618 0
M  V30 17364 C 1649.33 -0.948248 -1.79265 0
M  V30 17365 C 1649.66 0.522578 -1.87037 0
M  V30 17366 O 1648.94 1.38772 -1.36282 0
M  V30 17367 C 1649.22 -1.57781 -3.23693 0
M  V30 17368 C 1649.07 -3.12005 -3.23995 0
M  V30 17369 C 1650.39 -1.27343 -4.21274 0
M  V30 17370 H 1647.51 -0.345907 -0.650782 0
M  V30 17371 H 1650.15 -1.4381 -1.24172 0
M  V30 17372 H 1648.3 -1.16126 -3.70738 0
M  V30 17373 H 1649.97 -3.62649 -2.85102 0
M  V30 17374 H 1648.22 -3.45276 -2.62615 0
M  V30 17375 H 1648.89 -3.51176 -4.25886 0
M  V30 17376 H 1651.36 -1.63396 -3.82676 0
M  V30 17377 H 1650.24 -1.73993 -5.20594 0
M  V30 17378 H 1650.5 -0.192469 -4.41681 0
M  V30 17379 N 1649.56 1.24734 -0.963288 0
M  V30 17380 C 1650.79 1.96745 -0.640234 0
M  V30 17381 C 1651.2 1.71503 0.789445 0
M  V30 17382 O 1650.56 0.996174 1.52914 0
M  V30 17383 C 1650.61 3.50118 -0.899987 0
M  V30 17384 O 1650.33 3.74494 -2.27346 0
M  V30 17385 C 1651.83 4.39349 -0.590511 0
M  V30 17386 H 1649.05 0.626892 -0.239266 0
M  V30 17387 H 1651.6 1.58678 -1.29002 0
M  V30 17388 H 1649.75 3.86264 -0.296478 0
M  V30 17389 H 1650.17 4.68902 -2.35013 0
M  V30 17390 H 1651.64 5.45834 -0.822744 0
M  V30 17391 H 1652.12 4.36622 0.475138 0
M  V30 17392 H 1652.72 4.08783 -1.17373 0
M  V30 17393 N 1651.04 0.732878 1.39523 0
M  V30 17394 C 1651.99 0.0676184 2.279 0
M  V30 17395 C 1652.97 -0.7148 1.44151 0
M  V30 17396 O 1654.16 -0.584158 1.67083 0
M  V30 17397 C 1651.29 -0.840482 3.32853 0
M  V30 17398 C 1650.38 -0.052326 4.24068 0
M  V30 17399 N 1650.77 0.973429 4.96345 0
M  V30 17400 C 1649.07 -0.282301 4.45106 0
M  V30 17401 C 1649.77 1.44851 5.63376 0
M  V30 17402 N 1648.74 0.767499 5.38155 0
M  V30 17403 H 1652.55 0.853533 2.81233 0
M  V30 17404 H 1650.06 0.567016 1.5218 0
M  V30 17405 H 1652.06 -1.33254 3.95031 0
M  V30 17406 H 1650.72 -1.62558 2.81078 0
M  V30 17407 H 1651.73 1.35474 4.99867 0
M  V30 17408 H 1648.41 -1.04237 4.04278 0
M  V30 17409 H 1649.8 2.30179 6.31242 0
M  V30 17410 N 1652.52 -1.50101 0.480349 0
M  V30 17411 C 1653.93 -1.8668 0.0274773 0
M  V30 17412 C 1654.28 -1.39442 -1.38023 0
M  V30 17413 O 1653.4 -0.763363 -2.02489 0
M  V30 17414 C 1654 -3.38773 0.043087 0
M  V30 17415 C 1652.56 -3.74728 -0.354352 0
M  V30 17416 C 1651.7 -2.7403 0.424583 0
M  V30 17417 H 1654.65 -1.42713 0.694172 0
M  V30 17418 H 1654.68 -3.72894 -0.756989 0
M  V30 17419 H 1654.19 -3.73123 1.06775 0
M  V30 17420 H 1652.29 -3.45981 -1.38303 0
M  V30 17421 H 1652.4 -4.79075 -0.0492608 0
M  V30 17422 H 1650.77 -2.54403 -0.122927 0
M  V30 17423 H 1651.55 -3.11225 1.44894 0
M  V30 17424 N 1653.99 -0.213323 -1.5615 0
M  V30 17425 C 1655.24 0.421221 -1.98377 0
M  V30 17426 C 1655.57 1.59998 -1.10065 0
M  V30 17427 O 1654.85 1.93869 -0.15654 0
M  V30 17428 C 1655.13 0.86375 -3.49587 0
M  V30 17429 C 1654.98 -0.318077 -4.48674 0
M  V30 17430 C 1656.3 1.72285 -4.04976 0
M  V30 17431 H 1653.42 0.151635 -0.721232 0
M  V30 17432 H 1656.06 -0.307907 -1.87488 0
M  V30 17433 H 1654.21 1.48503 -3.58998 0
M  V30 17434 H 1655.89 -0.956094 -4.51283 0
M  V30 17435 H 1654.13 -0.966881 -4.22888 0
M  V30 17436 H 1654.8 0.0343662 -5.51989 0
M  V30 17437 H 1657.28 1.19872 -3.98459 0
M  V30 17438 H 1656.15 2.0014 -5.11112 0
M  V30 17439 H 1656.41 2.68336 -3.51352 0
M  V30 17440 N 1655.47 1.57485 0.0601405 0
M  V30 17441 C 1656.72 1.88094 0.758192 0
M  V30 17442 C 1657.05 0.807138 1.76632 0
M  V30 17443 O 1656.33 -0.181347 1.93653 0
M  V30 17444 C 1656.61 3.29363 1.45574 0
M  V30 17445 C 1656.46 4.47408 0.463233 0
M  V30 17446 C 1657.78 3.69048 2.39773 0
M  V30 17447 H 1654.9 0.684106 0.274169 0
M  V30 17448 H 1657.54 1.89988 0.0212215 0
M  V30 17449 H 1655.69 3.27879 2.08393 0
M  V30 17450 H 1657.36 4.6102 -0.160641 0
M  V30 17451 H 1655.61 4.3324 -0.220408 0
M  V30 17452 H 1656.28 5.43065 0.989164 0
M  V30 17453 H 1658.75 3.71701 1.87024 0
M  V30 17454 H 1657.63 4.68761 2.85577 0
M  V30 17455 H 1657.89 2.9961 3.25094 0
M  V30 17456 N 1656.95 -0.331789 1.54068 0
M  V30 17457 C 1658.37 -0.675628 1.44594 0
M  V30 17458 C 1658.57 -1.91976 0.612166 0
M  V30 17459 O 1657.62 -2.5227 0.107742 0
M  V30 17460 C 1658.94 -0.857303 2.8822 0
M  V30 17461 C 1660.48 -0.955171 2.9807 0
M  V30 17462 C 1660.96 -1.16908 4.42828 0
M  V30 17463 N 1662.45 -1.23601 4.46405 0
M  V30 17464 C 1663.18 -1.41924 5.55558 0
M  V30 17465 N 1662.68 -1.57345 6.74696 0
M  V30 17466 N 1664.47 -1.44566 5.43191 0
M  V30 17467 H 1656.62 0.486058 2.06764 0
M  V30 17468 H 1658.89 0.155605 0.935142 0
M  V30 17469 H 1658.59 -0.0144659 3.51697 0
M  V30 17470 H 1658.47 -1.75558 3.33855 0
M  V30 17471 H 1660.85 -1.78852 2.34725 0
M  V30 17472 H 1660.94 -0.0335425 2.55778 0
M  V30 17473 H 1660.58 -0.340612 5.06757 0
M  V30 17474 H 1660.51 -2.10445 4.82722 0
M  V30 17475 H 1663 -1.13161 3.60559 0
M  V30 17476 H 1663.31 -1.70995 7.53645 0
M  V30 17477 H 1661.66 -1.54458 6.77619 0
M  V30 17478 H 1664.85 -1.3211 4.49071 0
M  V30 17479 H 1665.02 -1.58505 6.28315 0
M  V30 17480 N 1658.43 -1.46001 -0.593424 0
M  V30 17481 C 1659.38 -1.56106 -1.72434 0
M  V30 17482 C 1660.37 -0.430155 -1.63848 0
M  V30 17483 O 1661.58 -0.606618 -1.6947 0
M  V30 17484 H 1657.95 -0.490601 -0.569925 0
M  V30 17485 H 1659.92 -2.51214 -1.6104 0
M  V30 17486 C 1658.67 -1.55836 -3.10822 0
M  V30 17487 H 1657.99 -2.42189 -3.18095 0
M  V30 17488 H 1659.43 -1.66962 -3.89743 0
M  V30 17489 C 1657.89 -0.285146 -3.35691 0
M  V30 17490 O 1658.42 0.629115 -3.96743 0
M  V30 17491 N 1656.63 -0.176401 -2.90064 0
M  V30 17492 H 1656.18 -0.921281 -2.40562 0
M  V30 17493 H 1656.13 0.674636 -3.07077 0
M  V30 17494 N 1659.91 0.83715 -1.33527 0
M  V30 17495 C 1660.87 1.92865 -1.23837 0
M  V30 17496 C 1661.87 1.60032 -0.157005 0
M  V30 17497 O 1663.06 1.69339 -0.408654 0
M  V30 17498 C 1660.19 3.28568 -0.908617 0
M  V30 17499 H 1661.38 2.02883 -2.20859 0
M  V30 17500 H 1658.94 1.02944 -1.1761 0
M  V30 17501 H 1659.67 3.24246 0.0590328 0
M  V30 17502 H 1659.46 3.53779 -1.69064 0
M  V30 17503 H 1660.95 4.0853 -0.86561 0
M  V30 17504 N 1661.38 1.17024 1.05561 0
M  V30 17505 C 1662.31 0.906823 2.15172 0
M  V30 17506 C 1663.3 -0.149745 1.6944 0
M  V30 17507 O 1664.48 -0.000287092 1.942 0
M  V30 17508 C 1661.61 0.415251 3.44809 0
M  V30 17509 C 1660.56 1.41058 4.04088 0
M  V30 17510 C 1659.89 0.777109 5.29023 0
M  V30 17511 C 1661.19 2.78258 4.42007 0
M  V30 17512 H 1662.88 1.82347 2.37466 0
M  V30 17513 H 1660.43 0.878162 1.14124 0
M  V30 17514 H 1662.38 0.218407 4.20834 0
M  V30 17515 H 1661.11 -0.536924 3.22156 0
M  V30 17516 H 1659.77 1.5941 3.30127 0
M  V30 17517 H 1659.41 -0.181784 5.02671 0
M  V30 17518 H 1659.11 1.44151 5.69644 0
M  V30 17519 H 1660.64 0.590455 6.07738 0
M  V30 17520 H 1662.05 2.63645 5.09082 0
M  V30 17521 H 1660.45 3.41241 4.93634 0
M  V30 17522 H 1661.52 3.3295 3.52523 0
M  V30 17523 N 1662.86 -1.24221 0.969889 0
M  V30 17524 C 1664.11 -1.92353 0.632976 0
M  V30 17525 C 1664.44 -1.75801 -0.832131 0
M  V30 17526 O 1663.69 -1.10614 -1.6144 0
M  V30 17527 C 1663.99 -3.44365 0.956427 0
M  V30 17528 C 1663.66 -3.81088 2.41003 0
M  V30 17529 C 1662.32 -3.90823 2.80732 0
M  V30 17530 C 1664.67 -3.99002 3.35331 0
M  V30 17531 C 1662 -4.15891 4.13825 0
M  V30 17532 C 1664.35 -4.25567 4.68055 0
M  V30 17533 C 1663.02 -4.33522 5.07558 0
M  V30 17534 H 1662.29 -0.703869 0.231622 0
M  V30 17535 H 1664.93 -1.47461 1.22179 0
M  V30 17536 H 1663.24 -3.90759 0.285402 0
M  V30 17537 H 1664.93 -3.95293 0.674107 0
M  V30 17538 H 1661.52 -3.74077 2.09199 0
M  V30 17539 H 1665.71 -3.90881 3.0582 0
M  V30 17540 H 1660.96 -4.2027 4.44053 0
M  V30 17541 H 1665.14 -4.38372 5.41113 0
M  V30 17542 H 1662.77 -4.52699 6.10711 0
M  V30 17543 N 1664.34 -0.740267 -1.39132 0
M  V30 17544 C 1665.58 -0.295271 -2.02256 0
M  V30 17545 C 1665.94 1.09839 -1.57478 0
M  V30 17546 O 1667.15 1.64176 -2.12838 0
M  V30 17547 C 1665.42 -0.399327 -3.55162 0
M  V30 17548 S 1666.98 -0.0349493 -4.38786 0
M  V30 17549 H 1663.79 -0.115356 -0.70158 0
M  V30 17550 H 1666.4 -0.967946 -1.69856 0
M  V30 17551 H 1665.1 -1.41482 -3.85241 0
M  V30 17552 H 1664.63 0.290988 -3.92322 0
M  V30 17553 H 1666.65 1.17965 -4.81974 0
M  V30 17554 N 1665.82 1.49844 -0.488302 0
M  V30 17555 C 1666.75 2.31737 0.286432 0
M  V30 17556 C 1667.73 1.39424 0.974418 0
M  V30 17557 O 1668.91 1.68339 0.968274 0
M  V30 17558 C 1666.04 3.19616 1.35878 0
M  V30 17559 C 1665 4.20619 0.791409 0
M  V30 17560 C 1664.32 4.9735 1.96333 0
M  V30 17561 C 1665.62 5.21882 -0.208975 0
M  V30 17562 H 1667.32 2.96755 -0.397092 0
M  V30 17563 H 1664.86 1.42709 -0.192413 0
M  V30 17564 H 1666.82 3.75711 1.90838 0
M  V30 17565 H 1665.54 2.52516 2.07131 0
M  V30 17566 H 1664.2 3.65651 0.263647 0
M  V30 17567 H 1663.85 4.26708 2.66325 0
M  V30 17568 H 1663.55 5.65684 1.58983 0
M  V30 17569 H 1665.07 5.56286 2.51751 0
M  V30 17570 H 1666.49 5.72746 0.252049 0
M  V30 17571 H 1664.88 5.98033 -0.497638 0
M  V30 17572 H 1665.95 4.7157 -1.12916 0
M  V30 17573 N 1667.3 0.221601 1.56034 0
M  V30 17574 C 1668.21 -0.699837 2.23918 0
M  V30 17575 C 1669.22 -1.21367 1.24683 0
M  V30 17576 O 1670.4 -1.25527 1.57495 0
M  V30 17577 C 1667.46 -1.89107 2.90585 0
M  V30 17578 C 1666.52 -1.4192 4.05163 0
M  V30 17579 C 1665.76 -2.55365 4.68641 0
M  V30 17580 O 1665.98 -3.735 4.31108 0
M  V30 17581 O 1664.91 -2.26564 5.57631 0
M  V30 17582 H 1668.74 -0.151552 3.03322 0
M  V30 17583 H 1666.33 -0.0088482 1.49397 0
M  V30 17584 H 1668.21 -2.58674 3.32664 0
M  V30 17585 H 1666.88 -2.42745 2.14141 0
M  V30 17586 H 1665.79 -0.691536 3.67653 0
M  V30 17587 H 1667.12 -0.929189 4.8335 0
M  V30 17588 N 1668.77 -1.57515 -0.0517878 0
M  V30 17589 C 1670 -1.92845 -0.763249 0
M  V30 17590 C 1670.42 -0.819745 -1.69298 0
M  V30 17591 O 1669.78 0.226161 -1.79884 0
M  V30 17592 C 1669.83 -3.27189 -1.5159 0
M  V30 17593 O 1668.93 -3.17834 -2.62783 0
M  V30 17594 H 1668.28 -0.630944 -0.206896 0
M  V30 17595 H 1670.81 -2.04595 -0.0140481 0
M  V30 17596 H 1670.82 -3.61542 -1.89081 0
M  V30 17597 H 1669.49 -4.07455 -0.833871 0
M  V30 17598 H 1668.07 -2.95075 -2.28002 0
M  V30 17599 N 1670.25 0.323614 -1.54242 0
M  V30 17600 C 1671.22 1.38126 -1.82904 0
M  V30 17601 C 1672.22 1.44723 -0.700853 0
M  V30 17602 O 1673.41 1.44751 -0.969161 0
M  V30 17603 C 1670.54 2.76858 -1.98903 0
M  V30 17604 H 1671.73 1.13966 -2.77402 0
M  V30 17605 H 1669.28 0.559094 -1.45958 0
M  V30 17606 H 1670.02 3.06274 -1.06616 0
M  V30 17607 H 1669.8 2.73464 -2.80998 0
M  V30 17608 H 1671.29 3.53372 -2.22526 0
M  V30 17609 N 1671.73 1.46313 0.585673 0
M  V30 17610 C 1672.98 1.52682 1.34387 0
M  V30 17611 C 1673.33 0.174924 1.91603 0
M  V30 17612 O 1672.63 -0.816026 1.73354 0
M  V30 17613 C 1672.82 2.55895 2.49504 0
M  V30 17614 C 1672.65 4.00988 2.03564 0
M  V30 17615 C 1671.42 4.68736 1.88718 0
M  V30 17616 C 1673.62 4.88874 1.59707 0
M  V30 17617 N 1671.6 5.9846 1.36818 0
M  V30 17618 C 1672.97 6.08399 1.19377 0
M  V30 17619 C 1675.02 4.75551 1.47498 0
M  V30 17620 C 1673.73 7.16073 0.680543 0
M  V30 17621 C 1675.75 5.83294 0.975784 0
M  V30 17622 C 1675.12 7.01989 0.582251 0
M  V30 17623 H 1671.21 0.613553 0.484847 0
M  V30 17624 H 1673.8 1.82912 0.667171 0
M  V30 17625 H 1671.97 2.2758 3.14741 0
M  V30 17626 H 1673.7 2.52277 3.16446 0
M  V30 17627 H 1670.46 4.24212 2.10574 0
M  V30 17628 H 1670.88 6.67497 1.13037 0
M  V30 17629 H 1675.52 3.84178 1.76543 0
M  V30 17630 H 1673.24 8.07217 0.377678 0
M  V30 17631 H 1676.83 5.75025 0.885268 0
M  V30 17632 H 1675.71 7.8394 0.201937 0
M  V30 17633 N 1673.21 -0.830057 1.33969 0
M  V30 17634 C 1674.16 -1.94049 1.24955 0
M  V30 17635 C 1675.13 -1.65619 0.126279 0
M  V30 17636 O 1676.31 -1.88329 0.306049 0
M  V30 17637 C 1673.45 -3.30182 1.00367 0
M  V30 17638 C 1672.56 -3.70952 2.21402 0
M  V30 17639 C 1671.7 -4.95998 1.90157 0
M  V30 17640 C 1670.74 -5.29327 3.07374 0
M  V30 17641 N 1669.88 -6.45551 2.76059 0
M  V30 17642 H 1674.72 -2.01091 2.19923 0
M  V30 17643 H 1672.25 -0.983918 1.0935 0
M  V30 17644 H 1674.21 -4.08625 0.841516 0
M  V30 17645 H 1672.84 -3.22673 0.090692 0
M  V30 17646 H 1671.89 -2.8796 2.48563 0
M  V30 17647 H 1673.2 -3.91558 3.09004 0
M  V30 17648 H 1672.36 -5.8221 1.70636 0
M  V30 17649 H 1671.1 -4.77379 0.998045 0
M  V30 17650 H 1670.1 -4.41616 3.27499 0
M  V30 17651 H 1671.33 -5.4989 3.98495 0
M  V30 17652 H 1669.27 -6.28401 1.88275 0
M  V30 17653 H 1669.19 -6.66295 3.57193 0
M  V30 17654 H 1670.46 -7.34851 2.60026 0
M  V30 17655 N 1674.69 -1.17582 -1.04939 0
M  V30 17656 C 1675.92 -0.990398 -1.81656 0
M  V30 17657 C 1676.33 0.461324 -1.83077 0
M  V30 17658 O 1675.69 1.32037 -1.25986 0
M  V30 17659 C 1675.74 -1.52719 -3.27657 0
M  V30 17660 O 1675.46 -2.92206 -3.26415 0
M  V30 17661 C 1676.96 -1.38671 -4.21053 0
M  V30 17662 H 1674.18 -0.35024 -0.57234 0
M  V30 17663 H 1676.72 -1.5593 -1.32311 0
M  V30 17664 H 1674.88 -1.00026 -3.74264 0
M  V30 17665 H 1675.29 -3.17068 -4.17814 0
M  V30 17666 H 1676.77 -1.8104 -5.21468 0
M  V30 17667 H 1677.24 -0.334151 -4.37927 0
M  V30 17668 H 1677.85 -1.90393 -3.80303 0
M  V30 17669 N 1676.17 1.23705 -0.976463 0
M  V30 17670 C 1677.13 2.23257 -0.518533 0
M  V30 17671 C 1678.13 1.56006 0.3897 0
M  V30 17672 O 1679.32 1.73226 0.18394 0
M  V30 17673 C 1676.45 3.39997 0.247916 0
M  V30 17674 H 1677.64 2.65284 -1.39872 0
M  V30 17675 H 1675.2 1.3647 -0.761946 0
M  V30 17676 H 1675.93 3.03421 1.14482 0
M  V30 17677 H 1675.72 3.90013 -0.403975 0
M  V30 17678 H 1677.21 4.13868 0.557034 0
M  V30 17679 N 1677.64 0.747635 1.38738 0
M  V30 17680 C 1678.58 0.0762364 2.29073 0
M  V30 17681 C 1679.59 -0.690087 1.4745 0
M  V30 17682 O 1680.78 -0.53216 1.70383 0
M  V30 17683 C 1677.88 -0.916136 3.26282 0
M  V30 17684 C 1677.05 -0.2087 4.36902 0
M  V30 17685 C 1676.11 -1.11097 5.14338 0
M  V30 17686 O 1675.14 -0.583722 5.66199 0
M  V30 17687 N 1676.34 -2.43961 5.26748 0
M  V30 17688 H 1679.1 0.852024 2.87334 0
M  V30 17689 H 1676.66 0.597915 1.50455 0
M  V30 17690 H 1678.66 -1.52263 3.74964 0
M  V30 17691 H 1677.23 -1.59304 2.68963 0
M  V30 17692 H 1676.45 0.578435 3.89933 0
M  V30 17693 H 1677.73 0.281061 5.08023 0
M  V30 17694 H 1677.13 -2.89259 4.86154 0
M  V30 17695 H 1675.69 -2.99676 5.78824 0
M  V30 17696 N 1679.12 -1.49583 0.496242 0
M  V30 17697 C 1680.03 -2.32808 -0.289404 0
M  V30 17698 C 1681.05 -1.44324 -0.971933 0
M  V30 17699 O 1682.22 -1.77352 -0.954366 0
M  V30 17700 C 1679.29 -3.19645 -1.34269 0
M  V30 17701 C 1678.35 -4.23975 -0.6741 0
M  V30 17702 C 1677.58 -5.06661 -1.6772 0
M  V30 17703 O 1677.81 -4.90792 -2.90654 0
M  V30 17704 O 1676.74 -5.89091 -1.23514 0
M  V30 17705 H 1680.57 -3.01164 0.391664 0
M  V30 17706 H 1678.15 -1.47162 0.257652 0
M  V30 17707 H 1680.03 -3.73453 -1.9522 0
M  V30 17708 H 1678.71 -2.53989 -2.00677 0
M  V30 17709 H 1677.61 -3.74092 -0.0249732 0
M  V30 17710 H 1678.95 -4.92172 -0.0525442 0
M  V30 17711 N 1680.6 -0.229873 -1.55915 0
M  V30 17712 C 1681.85 0.398775 -1.98127 0
M  V30 17713 C 1682.17 1.597 -1.11897 0
M  V30 17714 O 1681.44 1.94898 -0.197868 0
M  V30 17715 H 1680.02 0.150323 -0.731719 0
M  V30 17716 H 1682.68 -0.324704 -1.92176 0
M  V30 17717 H 1681.78 0.719475 -3.03694 0
M  V30 17718 N 1682.08 1.5754 0.0434337 0
M  V30 17719 C 1683.35 1.79733 0.771713 0
M  V30 17720 C 1683.73 0.82446 1.94334 0
M  V30 17721 O 1683.08 -0.136485 2.28092 0
M  V30 17722 C 1683.29 3.27049 1.2182 0
M  V30 17723 C 1684.64 3.91648 1.64002 0
M  V30 17724 O 1685.66 3.31111 1.31315 0
M  V30 17725 O 1684.52 4.98206 2.24618 0
M  V30 17726 H 1681.62 0.73861 0.372001 0
M  V30 17727 H 1684.16 1.69687 0.0213187 0
M  V30 17728 H 1682.94 3.89439 0.381158 0
M  V30 17729 H 1682.56 3.41929 2.02905 0
M  V30 17730 N 1683.56 -0.31543 1.54411 0
M  V30 17731 C 1684.51 -1.3898 1.80745 0
M  V30 17732 C 1685.49 -1.46567 0.663849 0
M  V30 17733 O 1686.68 -1.50963 0.924084 0
M  V30 17734 C 1683.81 -2.7571 2.04546 0
M  V30 17735 C 1682.9 -2.72403 3.2505 0
M  V30 17736 N 1683.29 -2.38715 4.45925 0
M  V30 17737 C 1681.59 -3.03523 3.26787 0
M  V30 17738 C 1682.29 -2.44346 5.27892 0
M  V30 17739 N 1681.26 -2.81118 4.65268 0
M  V30 17740 H 1685.06 -1.11875 2.71774 0
M  V30 17741 H 1682.58 -0.523951 1.53716 0
M  V30 17742 H 1684.58 -3.53156 2.21554 0
M  V30 17743 H 1683.24 -3.03738 1.14775 0
M  V30 17744 H 1684.25 -2.11419 4.72782 0
M  V30 17745 H 1680.92 -3.3654 2.47076 0
M  V30 17746 H 1682.31 -2.21221 6.34437 0
M  V30 17747 N 1685.03 -1.46622 -0.577906 0
M  V30 17748 C 1686.28 -1.5188 -1.3333 0
M  V30 17749 C 1686.6 -0.173993 -1.94222 0
M  V30 17750 O 1685.87 0.799972 -1.78822 0
M  V30 17751 H 1684.45 -0.559401 -0.495055 0
M  V30 17752 H 1687.12 -1.82785 -0.676449 0
M  V30 17753 H 1686.21 -2.27411 -2.13754 0
M  V30 17754 N 1686.51 0.822941 -1.34408 0
M  V30 17755 C 1687.74 1.61607 -1.29992 0
M  V30 17756 C 1688.16 1.87695 0.123301 0
M  V30 17757 O 1687.52 1.45247 1.08504 0
M  V30 17758 C 1687.57 2.934 -2.09639 0
M  V30 17759 O 1686.67 3.85467 -1.4659 0
M  V30 17760 H 1686.01 0.491504 -0.446452 0
M  V30 17761 H 1688.54 1.02264 -1.7721 0
M  V30 17762 H 1688.55 3.42966 -2.20994 0
M  V30 17763 H 1687.23 2.73736 -3.13116 0
M  V30 17764 H 1685.81 3.43984 -1.43978 0
M  V30 17765 N 1687.99 1.18137 1.04314 0
M  V30 17766 C 1688.94 0.874118 2.10578 0
M  V30 17767 C 1689.92 -0.155094 1.60151 0
M  V30 17768 O 1691.12 0.0485958 1.76933 0
M  V30 17769 C 1688.25 0.3989 3.40975 0
M  V30 17770 C 1687.33 1.46004 3.98175 0
M  V30 17771 N 1687.72 2.67584 4.29223 0
M  V30 17772 C 1686.02 1.31997 4.2602 0
M  V30 17773 C 1686.72 3.35835 4.74963 0
M  V30 17774 N 1685.7 2.63216 4.75624 0
M  V30 17775 H 1689.5 1.79837 2.32456 0
M  V30 17776 H 1687.01 1.0714 1.22044 0
M  V30 17777 H 1689.01 0.160295 4.16592 0
M  V30 17778 H 1687.67 -0.519041 3.20525 0
M  V30 17779 H 1688.68 3.04473 4.18947 0
M  V30 17780 H 1685.36 0.464377 4.14909 0
M  V30 17781 H 1686.75 4.39727 5.08026 0
M  V30 17782 N 1689.47 -1.23186 0.98301 0
M  V30 17783 C 1690.71 -1.91955 0.65431 0
M  V30 17784 C 1691.05 -1.76482 -0.810419 0
M  V30 17785 O 1690.32 -1.12744 -1.5849 0
M  V30 17786 C 1690.61 -3.4449 1.04873 0
M  V30 17787 C 1690.46 -3.6906 2.57128 0
M  V30 17788 C 1691.78 -4.36065 0.594578 0
M  V30 17789 H 1688.9 -0.69711 0.239179 0
M  V30 17790 H 1691.54 -1.45257 1.22476 0
M  V30 17791 H 1689.69 -3.84394 0.563333 0
M  V30 17792 H 1691.36 -3.38622 3.13262 0
M  V30 17793 H 1689.6 -3.13681 2.99644 0
M  V30 17794 H 1690.27 -4.75846 2.79776 0
M  V30 17795 H 1692.75 -4.03622 1.01136 0
M  V30 17796 H 1691.63 -5.41489 0.898955 0
M  V30 17797 H 1691.89 -4.39206 -0.505033 0
M  V30 17798 N 1690.95 -0.754982 -1.38339 0
M  V30 17799 C 1692.18 -0.322156 -2.04073 0
M  V30 17800 C 1692.58 1.05488 -1.57063 0
M  V30 17801 O 1691.93 1.68154 -0.739597 0
M  V30 17802 C 1691.99 -0.267836 -3.58501 0
M  V30 17803 C 1691.65 -1.58665 -4.28572 0
M  V30 17804 C 1692.65 -2.53609 -4.53849 0
M  V30 17805 C 1690.34 -1.85647 -4.66734 0
M  V30 17806 C 1692.33 -3.73753 -5.16321 0
M  V30 17807 C 1690.02 -3.06065 -5.28931 0
M  V30 17808 C 1691.01 -3.99938 -5.53659 0
M  V30 17809 O 1690.7 -5.18238 -6.14561 0
M  V30 17810 H 1690.43 -0.135341 -0.662313 0
M  V30 17811 H 1692.99 -1.02517 -1.77987 0
M  V30 17812 H 1691.22 0.491434 -3.83565 0
M  V30 17813 H 1692.91 0.135662 -4.05673 0
M  V30 17814 H 1693.67 -2.3404 -4.24794 0
M  V30 17815 H 1689.55 -1.13415 -4.46831 0
M  V30 17816 H 1693.1 -4.47039 -5.35539 0
M  V30 17817 H 1688.99 -3.25526 -5.57408 0
M  V30 17818 H 1689.76 -5.18838 -6.33047 0
M  V30 17819 N 1692.42 1.49318 -0.504168 0
M  V30 17820 C 1693.65 2.06869 0.0359415 0
M  V30 17821 C 1694.07 1.3641 1.30529 0
M  V30 17822 O 1693.42 0.443416 1.77031 0
M  V30 17823 C 1693.48 3.60333 0.290233 0
M  V30 17824 O 1693.2 4.28141 -0.928801 0
M  V30 17825 C 1694.7 4.34606 0.873628 0
M  V30 17826 H 1691.92 0.670643 -0.0218893 0
M  V30 17827 H 1694.46 1.92058 -0.702432 0
M  V30 17828 H 1692.62 3.74836 0.978594 0
M  V30 17829 H 1693.03 5.19894 -0.693595 0
M  V30 17830 H 1694.5 5.42846 1.00112 0
M  V30 17831 H 1694.98 3.97297 1.87221 0
M  V30 17832 H 1695.59 4.24717 0.222638 0
M  V30 17833 N 1693.9 0.238138 1.5579 0
M  V30 17834 C 1694.85 -0.665098 2.21009 0
M  V30 17835 C 1695.82 -1.17793 1.17107 0
M  V30 17836 O 1697 -1.234 1.45523 0
M  V30 17837 C 1694.14 -1.86028 2.90667 0
M  V30 17838 C 1693.26 -1.3848 4.09203 0
M  V30 17839 C 1692.39 -2.53885 4.666 0
M  V30 17840 C 1691.43 -2.03155 5.77403 0
M  V30 17841 N 1690.57 -3.11895 6.2902 0
M  V30 17842 H 1695.41 -0.102242 2.97825 0
M  V30 17843 H 1692.95 -0.0387064 1.47049 0
M  V30 17844 H 1694.9 -2.56226 3.29248 0
M  V30 17845 H 1693.53 -2.39575 2.16341 0
M  V30 17846 H 1692.59 -0.577172 3.75996 0
M  V30 17847 H 1693.9 -0.972946 4.89219 0
M  V30 17848 H 1693.05 -3.32139 5.07709 0
M  V30 17849 H 1691.79 -2.98368 3.85782 0
M  V30 17850 H 1690.8 -1.23369 5.3578 0
M  V30 17851 H 1692.02 -1.59653 6.60067 0
M  V30 17852 H 1689.97 -3.55828 5.5111 0
M  V30 17853 H 1689.88 -2.75013 7.04204 0
M  V30 17854 H 1691.15 -3.90234 6.74787 0
M  V30 17855 N 1695.38 -1.57561 -0.0350783 0
M  V30 17856 C 1696.34 -2.05145 -1.02217 0
M  V30 17857 C 1697.34 -0.954524 -1.29404 0
M  V30 17858 O 1698.53 -1.21833 -1.24509 0
M  V30 17859 C 1695.67 -2.4633 -2.35658 0
M  V30 17860 H 1696.86 -2.93605 -0.61126 0
M  V30 17861 H 1694.41 -1.53739 -0.28176 0
M  V30 17862 H 1695.15 -1.61008 -2.81508 0
M  V30 17863 H 1694.93 -3.26408 -2.17256 0
M  V30 17864 H 1696.42 -2.83592 -3.06537 0
M  V30 17865 N 1696.86 0.307236 -1.54576 0
M  V30 17866 C 1697.79 1.38357 -1.88095 0
M  V30 17867 C 1698.77 1.53196 -0.739253 0
M  V30 17868 O 1699.95 1.66807 -0.99444 0
M  V30 17869 C 1697.08 2.74876 -2.12274 0
M  V30 17870 C 1696.04 2.74809 -3.28122 0
M  V30 17871 C 1695.36 4.14557 -3.37707 0
M  V30 17872 C 1696.66 2.37103 -4.65381 0
M  V30 17873 H 1698.36 1.10554 -2.78241 0
M  V30 17874 H 1695.9 0.530383 -1.33877 0
M  V30 17875 H 1697.86 3.50254 -2.34308 0
M  V30 17876 H 1696.58 3.04191 -1.18893 0
M  V30 17877 H 1695.24 2.01887 -3.06002 0
M  V30 17878 H 1694.89 4.41039 -2.41854 0
M  V30 17879 H 1694.59 4.15415 -4.15577 0
M  V30 17880 H 1696.11 4.91724 -3.61994 0
M  V30 17881 H 1697.53 3.02196 -4.87186 0
M  V30 17882 H 1695.92 2.49184 -5.45919 0
M  V30 17883 H 1696.99 1.32235 -4.66521 0
M  V30 17884 N 1698.34 1.46926 0.570122 0
M  V30 17885 C 1699.27 1.61311 1.68822 0
M  V30 17886 C 1700.25 0.462964 1.63678 0
M  V30 17887 O 1701.43 0.690745 1.815 0
M  V30 17888 C 1698.56 1.61499 3.07466 0
M  V30 17889 C 1697.52 2.7561 3.27449 0
M  V30 17890 C 1696.84 2.60865 4.66748 0
M  V30 17891 C 1698.14 4.17324 3.14067 0
M  V30 17892 H 1699.84 2.54909 1.5704 0
M  V30 17893 H 1697.38 1.22677 0.754077 0
M  V30 17894 H 1699.34 1.70155 3.8552 0
M  V30 17895 H 1698.06 0.64453 3.20177 0
M  V30 17896 H 1696.72 2.66444 2.51799 0
M  V30 17897 H 1696.37 1.61875 4.76241 0
M  V30 17898 H 1696.07 3.37411 4.81069 0
M  V30 17899 H 1697.59 2.7143 5.46954 0
M  V30 17900 H 1699 4.27534 3.81952 0
M  V30 17901 H 1697.4 4.94555 3.39905 0
M  V30 17902 H 1698.47 4.36596 2.10979 0
M  V30 17903 N 1699.82 -0.815801 1.34842 0
M  V30 17904 C 1700.78 -1.90871 1.2689 0
M  V30 17905 C 1701.78 -1.59762 0.182445 0
M  V30 17906 O 1702.97 -1.68667 0.435543 0
M  V30 17907 C 1700.1 -3.27081 0.960774 0
M  V30 17908 H 1701.29 -1.99343 2.24059 0
M  V30 17909 H 1698.85 -1.0106 1.19233 0
M  V30 17910 H 1699.58 -3.24299 -0.00744059 0
M  V30 17911 H 1699.37 -3.51045 1.74671 0
M  V30 17912 H 1700.86 -4.07101 0.930494 0
M  V30 17913 N 1701.29 -1.18689 -1.03686 0
M  V30 17914 C 1702.52 -1.00814 -1.80333 0
M  V30 17915 C 1702.93 0.446495 -1.83856 0
M  V30 17916 O 1702.27 1.32192 -1.27558 0
M  V30 17917 C 1702.34 -1.49133 -3.27108 0
M  V30 17918 C 1702 -2.97112 -3.47237 0
M  V30 17919 C 1703 -3.94938 -3.38113 0
M  V30 17920 C 1700.68 -3.35628 -3.7371 0
M  V30 17921 C 1702.68 -5.29274 -3.55172 0
M  V30 17922 C 1700.36 -4.70126 -3.90416 0
M  V30 17923 C 1701.36 -5.66758 -3.81148 0
M  V30 17924 O 1701.05 -6.98821 -3.97371 0
M  V30 17925 H 1700.78 -0.356077 -0.574617 0
M  V30 17926 H 1703.34 -1.57754 -1.31541 0
M  V30 17927 H 1701.57 -0.865624 -3.76887 0
M  V30 17928 H 1703.25 -1.27591 -3.85325 0
M  V30 17929 H 1704.02 -3.66527 -3.17621 0
M  V30 17930 H 1699.9 -2.6097 -3.8002 0
M  V30 17931 H 1703.44 -6.04684 -3.47854 0
M  V30 17932 H 1699.34 -4.98236 -4.10404 0
M  V30 17933 H 1700.11 -7.05779 -4.14509 0
M  V30 17934 N 1702.77 1.22662 -0.989529 0
M  V30 17935 C 1703.73 2.22695 -0.542183 0
M  V30 17936 C 1704.73 1.56411 0.373132 0
M  V30 17937 O 1705.92 1.73412 0.165556 0
M  V30 17938 C 1703.06 3.40241 0.211841 0
M  V30 17939 H 1704.25 2.63786 -1.42678 0
M  V30 17940 H 1701.8 1.35654 -0.776377 0
M  V30 17941 H 1702.54 3.04618 1.11257 0
M  V30 17942 H 1702.32 3.89563 -0.445319 0
M  V30 17943 H 1703.81 4.14436 0.513107 0
M  V30 17944 N 1704.25 0.762308 1.37937 0
M  V30 17945 C 1705.5 0.322369 1.99918 0
M  V30 17946 C 1705.82 -1.09843 1.60514 0
M  V30 17947 O 1705.08 -1.76837 0.83829 0
M  V30 17948 C 1705.38 0.402558 3.55126 0
M  V30 17949 C 1705.04 1.78025 4.14268 0
M  V30 17950 C 1703.71 2.15727 4.30134 0
M  V30 17951 C 1706.06 2.68359 4.46803 0
M  V30 17952 C 1703.39 3.43217 4.75835 0
M  V30 17953 C 1705.74 3.95248 4.93925 0
M  V30 17954 C 1704.4 4.33007 5.07997 0
M  V30 17955 H 1703.67 0.117963 0.73155 0
M  V30 17956 H 1706.32 0.974491 1.64851 0
M  V30 17957 H 1704.62 -0.333119 3.90381 0
M  V30 17958 H 1706.32 0.0436064 4.00976 0
M  V30 17959 H 1702.91 1.4772 4.02339 0
M  V30 17960 H 1707.1 2.40493 4.34139 0
M  V30 17961 H 1702.35 3.72379 4.84916 0
M  V30 17962 H 1706.53 4.6538 5.18068 0
M  V30 17963 H 1704.15 5.31856 5.4317 0
M  V30 17964 N 1705.73 -1.49049 0.51208 0
M  V30 17965 C 1706.69 -2.27838 -0.249491 0
M  V30 17966 C 1707.69 -1.34321 -0.884004 0
M  V30 17967 O 1708.88 -1.57379 -0.74682 0
M  V30 17968 C 1706.01 -3.12637 -1.35908 0
M  V30 17969 H 1707.21 -2.96625 0.442029 0
M  V30 17970 H 1704.76 -1.53996 0.267406 0
M  V30 17971 H 1705.49 -2.48441 -2.0844 0
M  V30 17972 H 1705.28 -3.81408 -0.909427 0
M  V30 17973 H 1706.77 -3.72117 -1.89523 0
M  V30 17974 N 1707.21 -0.246397 -1.55662 0
M  V30 17975 C 1708.14 0.647563 -2.24341 0
M  V30 17976 C 1709.12 1.1817 -1.22352 0
M  V30 17977 O 1710.3 1.22114 -1.51003 0
M  V30 17978 C 1707.43 1.84485 -2.94249 0
M  V30 17979 C 1706.39 1.4435 -4.02923 0
M  V30 17980 C 1705.71 2.72158 -4.60255 0
M  V30 17981 C 1707.01 0.614951 -5.18667 0
M  V30 17982 H 1708.71 0.0748803 -2.99306 0
M  V30 17983 H 1706.25 0.034575 -1.43958 0
M  V30 17984 H 1708.2 2.47588 -3.40995 0
M  V30 17985 H 1706.93 2.4429 -2.16772 0
M  V30 17986 H 1705.59 0.835811 -3.56945 0
M  V30 17987 H 1705.24 3.3016 -3.79478 0
M  V30 17988 H 1704.94 2.46028 -5.33614 0
M  V30 17989 H 1706.46 3.36161 -5.09734 0
M  V30 17990 H 1707.87 1.15028 -5.61642 0
M  V30 17991 H 1706.27 0.449729 -5.98412 0
M  V30 17992 H 1707.34 -0.372943 -4.83464 0
M  V30 17993 N 1708.68 1.57577 0.026722 0
M  V30 17994 C 1709.65 2.05684 1.01127 0
M  V30 17995 C 1710.65 0.961373 1.28896 0
M  V30 17996 O 1711.84 1.22491 1.23861 0
M  V30 17997 C 1708.97 2.47576 2.34348 0
M  V30 17998 H 1710.16 2.93925 0.595681 0
M  V30 17999 H 1707.71 1.53887 0.273603 0
M  V30 18000 H 1708.45 1.62498 2.80651 0
M  V30 18001 H 1708.23 3.27556 2.15521 0
M  V30 18002 H 1709.72 2.85214 3.05029 0
M  V30 18003 N 1710.16 -0.299034 1.54737 0
M  V30 18004 C 1711.41 -1.03195 1.73767 0
M  V30 18005 C 1711.73 -1.87731 0.527445 0
M  V30 18006 O 1711 -1.90465 -0.458242 0
M  V30 18007 H 1709.58 -0.383996 0.640747 0
M  V30 18008 H 1712.24 -0.329544 1.92094 0
M  V30 18009 H 1711.34 -1.68393 2.62774 0
M  V30 18010 N 1711.64 -1.47227 -0.562322 0
M  V30 18011 C 1712.59 -1.59729 -1.69084 0
M  V30 18012 C 1713.58 -0.464812 -1.62898 0
M  V30 18013 O 1714.79 -0.642429 -1.68145 0
M  V30 18014 H 1711.16 -0.502579 -0.559391 0
M  V30 18015 H 1713.13 -2.54573 -1.55676 0
M  V30 18016 C 1711.88 -1.62394 -3.07447 0
M  V30 18017 H 1711.21 -2.48882 -3.12887 0
M  V30 18018 H 1712.65 -1.75192 -3.86114 0
M  V30 18019 C 1711.1 -0.356287 -3.35011 0
M  V30 18020 O 1711.63 0.544818 -3.97988 0
M  V30 18021 N 1709.84 -0.237888 -2.89625 0
M  V30 18022 H 1709.39 -0.9721 -2.38554 0
M  V30 18023 H 1709.35 0.609348 -3.08438 0
M  V30 18024 N 1713.12 0.808639 -1.35273 0
M  V30 18025 C 1714.05 1.92839 -1.23878 0
M  V30 18026 C 1715.06 1.61987 -0.162543 0
M  V30 18027 O 1716.25 1.73593 -0.41564 0
M  V30 18028 C 1713.35 3.27158 -0.884369 0
M  V30 18029 C 1712.52 3.85931 -2.05855 0
M  V30 18030 C 1711.58 4.98652 -1.68025 0
M  V30 18031 O 1710.61 5.16188 -2.39871 0
M  V30 18032 N 1711.81 5.77363 -0.602684 0
M  V30 18033 H 1714.58 2.03141 -2.20349 0
M  V30 18034 H 1712.14 0.985956 -1.28415 0
M  V30 18035 H 1714.13 4.00033 -0.612814 0
M  V30 18036 H 1712.7 3.12599 -0.00940584 0
M  V30 18037 H 1711.92 3.05274 -2.49402 0
M  V30 18038 H 1713.21 4.21929 -2.84347 0
M  V30 18039 H 1712.61 5.657 -0.00570741 0
M  V30 18040 H 1711.16 6.50627 -0.390903 0
M  V30 18041 N 1714.6 1.19237 1.03055 0
M  V30 18042 C 1715.87 0.903353 1.7349 0
M  V30 18043 C 1716.25 -0.591365 2.02648 0
M  V30 18044 O 1715.6 -1.54906 1.67978 0
M  V30 18045 C 1715.81 1.7615 3.01284 0
M  V30 18046 C 1717.16 1.99477 3.74825 0
M  V30 18047 O 1718.18 1.73287 3.11207 0
M  V30 18048 O 1717.04 2.43628 4.89191 0
M  V30 18049 H 1714.14 0.336512 0.755439 0
M  V30 18050 H 1716.68 1.30041 1.09029 0
M  V30 18051 H 1715.45 2.77428 2.75952 0
M  V30 18052 H 1715.08 1.36361 3.73486 0
M  V30 18053 N 1716.07 -1.22136 0.99602 0
M  V30 18054 C 1717.02 -2.24178 0.54889 0
M  V30 18055 C 1717.99 -1.60692 -0.420391 0
M  V30 18056 O 1719.18 -1.88021 -0.324452 0
M  V30 18057 C 1716.32 -3.44865 -0.127239 0
M  V30 18058 C 1715.43 -4.22855 0.884153 0
M  V30 18059 C 1714.56 -5.30891 0.181219 0
M  V30 18060 C 1713.6 -6.00603 1.18077 0
M  V30 18061 N 1712.74 -7.00275 0.505927 0
M  V30 18062 H 1717.58 -2.61788 1.42377 0
M  V30 18063 H 1715.12 -1.28658 0.713124 0
M  V30 18064 H 1717.08 -4.1374 -0.536194 0
M  V30 18065 H 1715.71 -3.0801 -0.965892 0
M  V30 18066 H 1714.76 -3.53247 1.41141 0
M  V30 18067 H 1716.07 -4.70888 1.64518 0
M  V30 18068 H 1715.22 -6.06033 -0.284307 0
M  V30 18069 H 1713.96 -4.83841 -0.612289 0
M  V30 18070 H 1712.97 -5.2424 1.65689 0
M  V30 18071 H 1714.19 -6.4974 1.9752 0
M  V30 18072 H 1712.14 -6.55452 -0.268088 0
M  V30 18073 H 1712.06 -7.46329 1.20535 0
M  V30 18074 H 1713.32 -7.79474 0.0633069 0
M  V30 18075 N 1717.55 -0.769612 -1.37531 0
M  V30 18076 C 1718.97 -0.449 -1.53154 0
M  V30 18077 C 1719.17 1.03568 -1.72847 0
M  V30 18078 O 1718.22 1.82154 -1.74861 0
M  V30 18079 C 1719.54 -1.26221 -2.72926 0
M  V30 18080 C 1721.09 -1.2539 -2.86786 0
M  V30 18081 C 1721.56 -2.05041 -4.09539 0
M  V30 18082 N 1723.05 -2.02384 -4.16647 0
M  V30 18083 C 1723.79 -2.60798 -5.10658 0
M  V30 18084 N 1723.28 -3.27991 -6.10241 0
M  V30 18085 N 1725.08 -2.5064 -5.03126 0
M  V30 18086 H 1717.23 -1.73161 -1.23 0
M  V30 18087 H 1719.49 -0.734977 -0.598759 0
M  V30 18088 H 1719.2 -2.31423 -2.64832 0
M  V30 18089 H 1719.07 -0.889937 -3.66551 0
M  V30 18090 H 1721.46 -0.209869 -2.94353 0
M  V30 18091 H 1721.54 -1.6658 -1.94126 0
M  V30 18092 H 1721.18 -3.09464 -4.02734 0
M  V30 18093 H 1721.11 -1.61234 -5.01309 0
M  V30 18094 H 1723.6 -1.53464 -3.45337 0
M  V30 18095 H 1723.92 -3.69942 -6.785 0
M  V30 18096 H 1722.26 -3.32089 -6.10526 0
M  V30 18097 H 1725.45 -1.97762 -4.24273 0
M  V30 18098 H 1725.62 -2.96458 -5.76209 0
M  V30 18099 N 1719.03 1.48775 -0.519977 0
M  V30 18100 C 1719.98 2.29461 0.248242 0
M  V30 18101 C 1720.95 1.36734 0.943027 0
M  V30 18102 O 1722.13 1.65697 0.946003 0
M  V30 18103 C 1719.27 3.19868 1.29531 0
M  V30 18104 C 1718.39 4.27666 0.610379 0
M  V30 18105 C 1717.52 5.05266 1.63951 0
M  V30 18106 C 1716.56 6.04878 0.937496 0
M  V30 18107 N 1715.7 6.75573 1.91171 0
M  V30 18108 H 1720.54 2.94643 -0.446016 0
M  V30 18109 H 1718.07 1.45262 -0.231792 0
M  V30 18110 H 1720.03 3.70675 1.91456 0
M  V30 18111 H 1718.66 2.5663 1.95808 0
M  V30 18112 H 1717.71 3.80202 -0.122598 0
M  V30 18113 H 1719.03 4.98765 0.0586864 0
M  V30 18114 H 1718.18 5.60037 2.33332 0
M  V30 18115 H 1716.92 4.33983 2.22509 0
M  V30 18116 H 1715.92 5.49321 0.229562 0
M  V30 18117 H 1717.15 6.78155 0.358166 0
M  V30 18118 H 1715.09 6.07048 2.48655 0
M  V30 18119 H 1715.01 7.42712 1.41118 0
M  V30 18120 H 1716.28 7.34938 2.59781 0
M  V30 18121 N 1720.51 0.254649 1.55529 0
M  V30 18122 C 1721.42 -0.652184 2.25352 0
M  V30 18123 C 1722.43 -1.18695 1.2723 0
M  V30 18124 O 1723.61 -1.22158 1.60123 0
M  V30 18125 C 1720.68 -1.829 2.94531 0
M  V30 18126 C 1719.74 -1.33294 4.08082 0
M  V30 18127 C 1718.97 -2.45367 4.73952 0
M  V30 18128 O 1719.19 -3.64271 4.38933 0
M  V30 18129 O 1718.13 -2.14684 5.62311 0
M  V30 18130 H 1721.95 -0.0871786 3.03575 0
M  V30 18131 H 1719.54 0.0228432 1.49383 0
M  V30 18132 H 1721.42 -2.5156 3.38076 0
M  V30 18133 H 1720.09 -2.38148 2.19242 0
M  V30 18134 H 1719 -0.613396 3.69037 0
M  V30 18135 H 1720.33 -0.826454 4.85212 0
M  V30 18136 N 1721.99 -1.57589 -0.0183649 0
M  V30 18137 C 1723.23 -1.90038 -0.708056 0
M  V30 18138 C 1723.57 -0.853686 -1.7443 0
M  V30 18139 O 1722.84 0.12994 -1.94065 0
M  V30 18140 C 1723.12 -3.33107 -1.3679 0
M  V30 18141 C 1722.98 -4.48479 -0.344448 0
M  V30 18142 C 1724.3 -3.75276 -2.29904 0
M  V30 18143 H 1721.41 -0.691134 -0.255934 0
M  V30 18144 H 1724.06 -1.89978 0.0291579 0
M  V30 18145 H 1722.21 -3.33289 -1.99626 0
M  V30 18146 H 1723.88 -4.60432 0.282816 0
M  V30 18147 H 1722.12 -4.32503 0.335196 0
M  V30 18148 H 1722.79 -5.45497 -0.844832 0
M  V30 18149 H 1725.27 -3.76529 -1.77103 0
M  V30 18150 H 1724.14 -4.76168 -2.73049 0
M  V30 18151 H 1724.41 -3.08124 -3.17036 0
M  V30 18152 N 1723.46 0.290824 -1.54893 0
M  V30 18153 C 1724.39 1.36354 -1.89551 0
M  V30 18154 C 1725.38 1.52403 -0.75546 0
M  V30 18155 O 1726.56 1.65743 -1.01208 0
M  V30 18156 C 1723.69 2.72609 -2.15178 0
M  V30 18157 C 1722.64 2.71313 -3.31019 0
M  V30 18158 C 1721.97 4.10952 -3.42085 0
M  V30 18159 C 1723.27 2.32153 -4.6787 0
M  V30 18160 H 1724.96 1.07597 -2.79398 0
M  V30 18161 H 1722.51 0.516154 -1.34432 0
M  V30 18162 H 1724.46 3.47749 -2.3801 0
M  V30 18163 H 1723.19 3.02913 -1.22112 0
M  V30 18164 H 1721.85 1.9863 -3.08126 0
M  V30 18165 H 1721.49 4.38449 -2.46518 0
M  V30 18166 H 1721.19 4.10984 -4.1996 0
M  V30 18167 H 1722.72 4.87857 -3.67189 0
M  V30 18168 H 1724.13 2.97011 -4.90364 0
M  V30 18169 H 1722.53 2.4338 -5.48531 0
M  V30 18170 H 1723.6 1.27279 -4.67897 0
M  V30 18171 N 1724.94 1.47523 0.554506 0
M  V30 18172 C 1725.89 1.60213 1.66134 0
M  V30 18173 C 1726.86 0.445051 1.60027 0
M  V30 18174 O 1728.04 0.665449 1.7882 0
M  V30 18175 C 1725.18 1.62491 3.04452 0
M  V30 18176 C 1724.3 2.89134 3.20976 0
M  V30 18177 C 1723.43 2.82731 4.49707 0
M  V30 18178 C 1722.47 4.04187 4.59673 0
M  V30 18179 N 1721.61 3.96004 5.79763 0
M  V30 18180 H 1726.45 2.54744 1.54626 0
M  V30 18181 H 1723.99 1.26355 0.753189 0
M  V30 18182 H 1725.94 1.61795 3.84549 0
M  V30 18183 H 1724.57 0.714698 3.14789 0
M  V30 18184 H 1723.63 2.99685 2.34292 0
M  V30 18185 H 1724.94 3.79069 3.24203 0
M  V30 18186 H 1724.09 2.80299 5.38068 0
M  V30 18187 H 1722.83 1.90483 4.48963 0
M  V30 18188 H 1721.84 4.06921 3.69724 0
M  V30 18189 H 1723.06 4.97565 4.62175 0
M  V30 18190 H 1721.01 3.06561 5.79962 0
M  V30 18191 H 1720.92 4.7962 5.8438 0
M  V30 18192 H 1722.19 3.97593 6.70478 0
M  V30 18193 N 1726.42 -0.801453 1.357 0
M  V30 18194 C 1727.65 -1.59518 1.32547 0
M  V30 18195 C 1728.07 -1.87868 -0.0934243 0
M  V30 18196 O 1727.43 -1.46955 -1.06179 0
M  V30 18197 C 1727.48 -2.90028 2.14281 0
M  V30 18198 O 1726.58 -3.83086 1.52704 0
M  V30 18199 H 1725.92 -0.48434 0.454215 0
M  V30 18200 H 1728.45 -0.994315 1.78814 0
M  V30 18201 H 1728.46 -3.39406 2.26423 0
M  V30 18202 H 1727.14 -2.6872 3.17431 0
M  V30 18203 H 1725.71 -3.4165 1.49432 0
M  V30 18204 N 1727.9 -1.19782 -1.02421 0
M  V30 18205 C 1728.83 -0.963553 -2.12692 0
M  V30 18206 C 1729.81 0.104769 -1.69777 0
M  V30 18207 O 1730.99 -0.0512017 -1.94132 0
M  V30 18208 C 1728.12 -0.506525 -3.43586 0
M  V30 18209 C 1727.08 -1.51722 -4.00206 0
M  V30 18210 C 1726.4 -0.917097 -5.26776 0
M  V30 18211 C 1727.7 -2.89879 -4.34474 0
M  V30 18212 H 1729.4 -1.88579 -2.32547 0
M  V30 18213 H 1726.94 -0.908111 -1.11756 0
M  V30 18214 H 1728.9 -0.329907 -4.20107 0
M  V30 18215 H 1727.62 0.451322 -3.23467 0
M  V30 18216 H 1726.28 -1.68106 -3.25785 0
M  V30 18217 H 1725.93 0.0484457 -5.02977 0
M  V30 18218 H 1725.63 -1.59204 -5.65622 0
M  V30 18219 H 1727.15 -0.751379 -6.05959 0
M  V30 18220 H 1728.57 -2.7705 -5.01913 0
M  V30 18221 H 1726.96 -3.54209 -4.84413 0
M  V30 18222 H 1728.03 -3.42179 -3.43571 0
M  V30 18223 N 1729.38 1.21606 -1.00248 0
M  V30 18224 C 1730.33 2.2591 -0.553856 0
M  V30 18225 C 1731.32 1.64602 0.400323 0
M  V30 18226 O 1732.53 1.77936 0.271792 0
M  V30 18227 H 1728.9 0.734618 -0.160749 0
M  V30 18228 H 1730.87 2.61091 -1.44479 0
M  V30 18229 C 1729.62 3.47537 0.106293 0
M  V30 18230 H 1728.94 3.94981 -0.61889 0
M  V30 18231 H 1730.38 4.22262 0.383514 0
M  V30 18232 C 1728.84 3.08901 1.34469 0
M  V30 18233 O 1729.37 3.1916 2.43926 0
M  V30 18234 N 1727.58 2.63588 1.2235 0
M  V30 18235 H 1727.13 2.55441 0.332852 0
M  V30 18236 H 1727.08 2.38106 2.05312 0
M  V30 18237 N 1730.86 0.776895 1.37121 0
M  V30 18238 C 1731.77 0.167552 2.34001 0
M  V30 18239 C 1732.78 -0.673609 1.60432 0
M  V30 18240 O 1733.96 -0.592327 1.92493 0
M  V30 18241 C 1731.02 -0.697343 3.39615 0
M  V30 18242 C 1730.08 0.160869 4.28998 0
M  V30 18243 C 1729.32 -0.662841 5.29568 0
M  V30 18244 O 1729.54 -1.89962 5.37839 0
M  V30 18245 O 1728.47 -0.0693304 6.0186 0
M  V30 18246 H 1732.3 0.968247 2.87852 0
M  V30 18247 H 1729.88 0.538137 1.39372 0
M  V30 18248 H 1731.77 -1.19094 4.04221 0
M  V30 18249 H 1730.44 -1.47614 2.88083 0
M  V30 18250 H 1729.35 0.700941 3.67475 0
M  V30 18251 H 1730.68 0.902875 4.83848 0
M  V30 18252 N 1732.33 -1.48497 0.527859 0
M  V30 18253 C 1733.24 -2.3337 -0.239957 0
M  V30 18254 C 1734.26 -1.46353 -0.941101 0
M  V30 18255 O 1735.44 -1.79337 -0.916532 0
M  V30 18256 C 1732.5 -3.22421 -1.27458 0
M  V30 18257 C 1731.56 -4.25309 -0.584017 0
M  V30 18258 C 1730.79 -5.10105 -1.56935 0
M  V30 18259 O 1731.02 -4.96846 -2.80178 0
M  V30 18260 O 1729.95 -5.91578 -1.10991 0
M  V30 18261 H 1733.78 -3.00265 0.455458 0
M  V30 18262 H 1731.36 -1.46582 0.288809 0
M  V30 18263 H 1733.24 -3.7751 -1.87254 0
M  V30 18264 H 1731.92 -2.58189 -1.95244 0
M  V30 18265 H 1730.83 -3.7406 0.0543828 0
M  V30 18266 H 1732.16 -4.92173 0.0518646 0
M  V30 18267 N 1733.81 -0.262893 -1.55392 0
M  V30 18268 C 1734.77 0.616662 -2.20749 0
M  V30 18269 C 1735.77 1.09066 -1.18158 0
M  V30 18270 O 1736.96 0.992797 -1.4314 0
M  V30 18271 C 1734.1 1.84937 -2.86376 0
M  V30 18272 H 1735.29 0.0462013 -2.99864 0
M  V30 18273 H 1732.84 -0.013432 -1.56294 0
M  V30 18274 H 1733.58 2.46066 -2.1124 0
M  V30 18275 H 1733.36 1.51754 -3.61543 0
M  V30 18276 H 1734.85 2.47511 -3.36345 0
M  V30 18277 N 1735.29 1.57597 0.0100073 0
M  V30 18278 C 1736.54 1.90411 0.697968 0
M  V30 18279 C 1736.87 0.862924 1.73975 0
M  V30 18280 O 1736.14 -0.119646 1.94132 0
M  V30 18281 C 1736.43 3.33828 1.35022 0
M  V30 18282 C 1736.28 4.48656 0.320659 0
M  V30 18283 C 1737.6 3.7649 2.27911 0
M  V30 18284 H 1734.72 0.692482 0.252266 0
M  V30 18285 H 1737.36 1.89959 -0.0392325 0
M  V30 18286 H 1735.51 3.34343 1.97856 0
M  V30 18287 H 1737.18 4.60276 -0.30723 0
M  V30 18288 H 1735.42 4.32319 -0.358128 0
M  V30 18289 H 1736.1 5.45937 0.815891 0
M  V30 18290 H 1738.57 3.77463 1.75104 0
M  V30 18291 H 1737.45 4.77609 2.70519 0
M  V30 18292 H 1737.71 3.09801 3.15398 0
M  V30 18293 N 1736.77 -0.282606 1.55045 0
M  V30 18294 C 1737.71 -1.34908 1.87266 0
M  V30 18295 C 1738.68 -1.49528 0.72323 0
M  V30 18296 O 1739.87 -1.6409 0.973602 0
M  V30 18297 C 1737.01 -2.70603 2.14168 0
M  V30 18298 C 1736.12 -2.64284 3.41728 0
M  V30 18299 C 1735.26 -3.92094 3.58379 0
M  V30 18300 C 1734.3 -3.80246 4.79666 0
M  V30 18301 N 1733.43 -4.99871 4.93025 0
M  V30 18302 H 1738.27 -1.06731 2.78231 0
M  V30 18303 H 1735.81 -0.515845 1.37759 0
M  V30 18304 H 1737.77 -3.49542 2.27763 0
M  V30 18305 H 1736.4 -2.97003 1.26448 0
M  V30 18306 H 1735.45 -1.77108 3.36656 0
M  V30 18307 H 1736.76 -2.51425 4.30798 0
M  V30 18308 H 1735.92 -4.79473 3.7174 0
M  V30 18309 H 1734.66 -4.07808 2.67476 0
M  V30 18310 H 1733.66 -2.91251 4.66319 0
M  V30 18311 H 1734.89 -3.6606 5.71994 0
M  V30 18312 H 1732.83 -5.16014 4.0505 0
M  V30 18313 H 1732.75 -4.89507 5.76124 0
M  V30 18314 H 1734.02 -5.88849 5.10761 0
M  V30 18315 N 1738.25 -1.47815 -0.546675 0
M  V30 18316 C 1739.19 -1.61092 -1.65282 0
M  V30 18317 C 1740.16 -0.453531 -1.59788 0
M  V30 18318 O 1741.35 -0.674923 -1.78464 0
M  V30 18319 C 1738.49 -1.64103 -3.03585 0
M  V30 18320 C 1737.6 -2.90832 -3.19438 0
M  V30 18321 C 1736.74 -2.85112 -4.48201 0
M  V30 18322 C 1735.77 -4.06619 -4.57523 0
M  V30 18323 N 1734.91 -3.99073 -5.77655 0
M  V30 18324 H 1739.75 -2.55561 -1.53273 0
M  V30 18325 H 1737.29 -1.26752 -0.746477 0
M  V30 18326 H 1739.25 -1.63832 -3.83686 0
M  V30 18327 H 1737.88 -0.731382 -3.14405 0
M  V30 18328 H 1736.93 -3.00924 -2.327 0
M  V30 18329 H 1738.24 -3.80783 -3.22188 0
M  V30 18330 H 1737.39 -2.83149 -5.36574 0
M  V30 18331 H 1736.13 -1.92862 -4.47946 0
M  V30 18332 H 1735.14 -4.08876 -3.67561 0
M  V30 18333 H 1736.36 -5.00009 -4.5953 0
M  V30 18334 H 1734.31 -3.09633 -5.78328 0
M  V30 18335 H 1734.23 -4.82713 -5.81829 0
M  V30 18336 H 1735.49 -4.01143 -6.6836 0
M  V30 18337 N 1739.72 0.794246 -1.36123 0
M  V30 18338 C 1741 1.53967 -1.20638 0
M  V30 18339 C 1741.38 2.10058 0.209456 0
M  V30 18340 O 1740.73 1.93551 1.2145 0
M  V30 18341 C 1740.94 2.63844 -2.28445 0
M  V30 18342 C 1742.29 3.31855 -2.64872 0
M  V30 18343 O 1743.31 2.74124 -2.27452 0
M  V30 18344 O 1742.17 4.36177 -3.2926 0
M  V30 18345 H 1739.26 0.68086 -0.469424 0
M  V30 18346 H 1741.81 0.833144 -1.4784 0
M  V30 18347 H 1740.58 2.20357 -3.23355 0
M  V30 18348 H 1740.2 3.42121 -2.02581 0
M  V30 18349 N 1741.2 1.20323 1.01785 0
M  V30 18350 C 1742.15 0.947754 2.12416 0
M  V30 18351 C 1743.14 -0.100443 1.69102 0
M  V30 18352 O 1744.35 0.0498028 1.79931 0
M  V30 18353 H 1740.72 0.289148 0.694188 0
M  V30 18354 H 1742.7 1.88714 2.31149 0
M  V30 18355 C 1741.44 0.51503 3.43864 0
M  V30 18356 H 1740.77 1.31318 3.77618 0
M  V30 18357 H 1742.21 0.375476 4.22334 0
M  V30 18358 C 1740.67 -0.772413 3.27926 0
M  V30 18359 O 1741.2 -1.83115 3.57536 0
M  V30 18360 N 1739.4 -0.733948 2.81179 0
M  V30 18361 H 1738.95 0.127902 2.57282 0
M  V30 18362 H 1738.91 -1.59571 2.70896 0
M  V30 18363 N 1742.68 -1.21073 1.00892 0
M  V30 18364 C 1743.9 -1.94774 0.712588 0
M  V30 18365 C 1744.33 -1.73812 -0.719085 0
M  V30 18366 O 1743.69 -1.02747 -1.49374 0
M  V30 18367 C 1743.74 -3.45156 1.04402 0
M  V30 18368 O 1742.84 -4.12122 0.151433 0
M  V30 18369 H 1742.18 -0.608775 0.26512 0
M  V30 18370 H 1744.71 -1.53721 1.35022 0
M  V30 18371 H 1744.72 -3.95744 0.992511 0
M  V30 18372 H 1743.4 -3.59736 2.08716 0
M  V30 18373 H 1741.97 -3.71994 0.259805 0
M  V30 18374 N 1744.16 -0.784156 -1.36707 0
M  V30 18375 C 1745.4 -0.354658 -1.99675 0
M  V30 18376 C 1745.74 1.06948 -1.62098 0
M  V30 18377 O 1745.01 1.73798 -0.873192 0
M  V30 18378 C 1745.3 -0.512421 -3.56435 0
M  V30 18379 C 1745.15 -1.97987 -4.03883 0
M  V30 18380 C 1746.47 0.075762 -4.40035 0
M  V30 18381 H 1743.59 -0.130338 -0.725383 0
M  V30 18382 H 1746.23 -0.989515 -1.62199 0
M  V30 18383 H 1744.38 0.0280323 -3.8849 0
M  V30 18384 H 1746.05 -2.58098 -3.82339 0
M  V30 18385 H 1744.29 -2.48433 -3.55617 0
M  V30 18386 H 1744.96 -2.04125 -5.12871 0
M  V30 18387 H 1747.44 -0.385522 -4.1431 0
M  V30 18388 H 1746.32 -0.0646832 -5.48862 0
M  V30 18389 H 1746.58 1.16735 -4.2641 0
M  V30 18390 N 1745.64 1.48215 -0.535727 0
M  V30 18391 C 1746.59 2.26692 0.243856 0
M  V30 18392 C 1747.57 1.33054 0.904734 0
M  V30 18393 O 1748.76 1.57554 0.80659 0
M  V30 18394 C 1745.89 3.18278 1.28662 0
M  V30 18395 C 1744.98 4.19391 0.630241 0
M  V30 18396 N 1745.37 5.04983 -0.287346 0
M  V30 18397 C 1743.67 4.37096 0.886761 0
M  V30 18398 C 1744.37 5.77868 -0.666561 0
M  V30 18399 N 1743.34 5.43594 -0.0263142 0
M  V30 18400 H 1747.15 2.90247 -0.46197 0
M  V30 18401 H 1744.66 1.58491 -0.354153 0
M  V30 18402 H 1746.66 3.73164 1.85888 0
M  V30 18403 H 1745.32 2.5628 1.99376 0
M  V30 18404 H 1746.33 5.13674 -0.660285 0
M  V30 18405 H 1743 3.86283 1.58404 0
M  V30 18406 H 1744.39 6.56738 -1.4193 0
M  V30 18407 N 1747.11 0.27113 1.5525 0
M  V30 18408 C 1748.36 -0.340313 2.00533 0
M  V30 18409 C 1748.72 -1.53782 1.15623 0
M  V30 18410 O 1748.01 -1.90363 0.217368 0
M  V30 18411 C 1748.2 -0.776823 3.48856 0
M  V30 18412 C 1748.03 0.376843 4.48118 0
M  V30 18413 C 1746.8 0.859346 4.97939 0
M  V30 18414 C 1749 1.212 4.99815 0
M  V30 18415 N 1746.98 1.98289 5.80994 0
M  V30 18416 C 1748.35 2.1835 5.80279 0
M  V30 18417 C 1750.41 1.2458 4.82063 0
M  V30 18418 C 1749.11 3.18621 6.44882 0
M  V30 18419 C 1751.14 2.23693 5.47463 0
M  V30 18420 C 1750.5 3.19576 6.27734 0
M  V30 18421 H 1746.6 -0.0898119 0.776825 0
M  V30 18422 H 1749.18 0.394243 1.90667 0
M  V30 18423 H 1747.35 -1.48061 3.59072 0
M  V30 18424 H 1749.08 -1.36526 3.80976 0
M  V30 18425 H 1745.84 0.439328 4.71558 0
M  V30 18426 H 1746.26 2.54816 6.27214 0
M  V30 18427 H 1750.91 0.518302 4.19611 0
M  V30 18428 H 1748.62 3.92306 7.06486 0
M  V30 18429 H 1752.21 2.27044 5.3567 0
M  V30 18430 H 1751.09 3.95016 6.77445 0
M  V30 18431 N 1748.59 -1.576 -0.00164943 0
M  V30 18432 C 1749.5 -2.11748 -1.00995 0
M  V30 18433 C 1750.52 -1.06235 -1.37805 0
M  V30 18434 O 1751.69 -1.38127 -1.4657 0
M  V30 18435 C 1748.76 -2.60869 -2.2836 0
M  V30 18436 C 1747.82 -3.80976 -1.97879 0
M  V30 18437 C 1747.05 -4.27745 -3.19171 0
M  V30 18438 O 1747.28 -3.73856 -4.30799 0
M  V30 18439 O 1746.21 -5.19917 -3.03265 0
M  V30 18440 H 1750.04 -2.98117 -0.579667 0
M  V30 18441 H 1747.62 -1.47766 -0.220375 0
M  V30 18442 H 1749.5 -2.9267 -3.03187 0
M  V30 18443 H 1748.18 -1.77598 -2.7063 0
M  V30 18444 H 1747.09 -3.54151 -1.20533 0
M  V30 18445 H 1748.42 -4.65315 -1.60447 0
M  V30 18446 N 1750.07 0.274379 -1.55193 0
M  V30 18447 C 1751.49 0.621497 -1.47002 0
M  V30 18448 C 1751.69 1.89572 -0.682995 0
M  V30 18449 O 1750.74 2.51696 -0.201296 0
M  V30 18450 C 1752.06 0.749741 -2.91203 0
M  V30 18451 C 1753.6 0.843886 -3.01409 0
M  V30 18452 C 1754.08 1.00392 -4.46862 0
M  V30 18453 N 1755.57 1.06947 -4.50684 0
M  V30 18454 C 1756.3 1.21207 -5.60443 0
M  V30 18455 N 1755.8 1.32195 -6.80071 0
M  V30 18456 N 1757.59 1.24307 -5.48183 0
M  V30 18457 H 1749.74 -0.562462 -2.04817 0
M  V30 18458 H 1752.01 -0.190205 -0.928723 0
M  V30 18459 H 1751.71 -0.116074 -3.51508 0
M  V30 18460 H 1751.59 1.63046 -3.40141 0
M  V30 18461 H 1753.97 1.70017 -2.41202 0
M  V30 18462 H 1754.06 -0.061411 -2.55726 0
M  V30 18463 H 1753.7 0.152298 -5.07672 0
M  V30 18464 H 1753.63 1.92384 -4.902 0
M  V30 18465 H 1756.12 0.997012 -3.64511 0
M  V30 18466 H 1756.43 1.42906 -7.59472 0
M  V30 18467 H 1754.78 1.29202 -6.82885 0
M  V30 18468 H 1757.97 1.15352 -4.53665 0
M  V30 18469 H 1758.14 1.35076 -6.33765 0
M  V30 18470 N 1751.55 1.48103 0.538828 0
M  V30 18471 C 1752.96 1.49312 1.12085 0
M  V30 18472 C 1753.31 0.257965 1.94497 0
M  V30 18473 O 1752.44 -0.635654 2.06854 0
M  V30 18474 C 1753.03 2.70545 2.03939 0
M  V30 18475 C 1751.59 2.74654 2.57376 0
M  V30 18476 C 1750.74 2.42695 1.34144 0
M  V30 18477 H 1753.69 1.55347 0.324512 0
M  V30 18478 H 1753.71 2.4856 2.88094 0
M  V30 18479 H 1753.22 3.60424 1.4393 0
M  V30 18480 H 1751.32 1.8896 3.21131 0
M  V30 18481 H 1751.43 3.75846 2.97114 0
M  V30 18482 H 1749.8 1.93663 1.65429 0
M  V30 18483 H 1750.58 3.34804 0.759009 0
M  V30 18484 N 1753.03 -0.787016 1.36542 0
M  V30 18485 C 1753.96 -1.90844 1.26931 0
M  V30 18486 C 1754.97 -1.61707 0.188293 0
M  V30 18487 O 1756.16 -1.7291 0.443205 0
M  V30 18488 C 1753.26 -3.25709 0.936305 0
M  V30 18489 C 1752.43 -3.82607 2.11969 0
M  V30 18490 C 1751.49 -4.95916 1.75937 0
M  V30 18491 O 1750.52 -5.12307 2.48053 0
M  V30 18492 N 1751.72 -5.76331 0.694461 0
M  V30 18493 H 1754.49 -1.9961 2.23553 0
M  V30 18494 H 1752.05 -0.965401 1.29968 0
M  V30 18495 H 1754.04 -3.99008 0.676378 0
M  V30 18496 H 1752.61 -3.12544 0.0591364 0
M  V30 18497 H 1751.83 -3.01267 2.54227 0
M  V30 18498 H 1753.12 -4.17352 2.91024 0
M  V30 18499 H 1752.51 -5.65619 0.0957046 0
M  V30 18500 H 1751.07 -6.49923 0.494363 0
M  V30 18501 N 1754.5 -1.20861 -1.01145 0
M  V30 18502 C 1755.45 -0.962085 -2.09792 0
M  V30 18503 C 1756.42 0.109588 -1.65738 0
M  V30 18504 O 1757.61 -0.0362022 -1.90766 0
M  V30 18505 C 1754.75 -0.52586 -3.4107 0
M  V30 18506 C 1753.86 -1.66626 -3.98572 0
M  V30 18507 C 1752.99 -1.17983 -5.17932 0
M  V30 18508 C 1752.03 -2.29298 -5.67529 0
M  V30 18509 N 1751.17 -1.81836 -6.78145 0
M  V30 18510 H 1756.01 -1.89222 -2.30215 0
M  V30 18511 H 1753.55 -0.943108 -1.12889 0
M  V30 18512 H 1755.51 -0.25423 -4.16425 0
M  V30 18513 H 1754.14 0.367275 -3.20704 0
M  V30 18514 H 1753.19 -2.05268 -3.20264 0
M  V30 18515 H 1754.5 -2.50426 -4.3138 0
M  V30 18516 H 1753.65 -0.864477 -6.0051 0
M  V30 18517 H 1752.39 -0.311793 -4.86702 0
M  V30 18518 H 1751.4 -2.61644 -4.83552 0
M  V30 18519 H 1752.62 -3.16587 -6.00791 0
M  V30 18520 H 1750.57 -0.973665 -6.48734 0
M  V30 18521 H 1750.49 -2.59213 -7.10172 0
M  V30 18522 H 1751.75 -1.53315 -7.64274 0
M  V30 18523 N 1755.98 1.20536 -1.01532 0
M  V30 18524 C 1757.39 1.71594 -0.735687 0
M  V30 18525 C 1757.74 1.81469 0.745873 0
M  V30 18526 O 1756.87 1.47638 1.58215 0
M  V30 18527 C 1757.46 3.11654 -1.3288 0
M  V30 18528 C 1756.02 3.60027 -1.09806 0
M  V30 18529 C 1755.17 2.37266 -1.43528 0
M  V30 18530 H 1758.12 1.05568 -1.18495 0
M  V30 18531 H 1758.14 3.7365 -0.718725 0
M  V30 18532 H 1757.65 3.04434 -2.4071 0
M  V30 18533 H 1755.76 3.72581 -0.0373763 0
M  V30 18534 H 1755.87 4.44918 -1.77722 0
M  V30 18535 H 1754.23 2.39947 -0.854268 0
M  V30 18536 H 1755.02 2.32688 -2.5241 0
M  V30 18537 N 1757.46 0.791395 1.36289 0
M  V30 18538 C 1758.41 0.189246 2.30023 0
M  V30 18539 C 1759.38 -0.668045 1.52074 0
M  V30 18540 O 1760.56 -0.61631 1.80572 0
M  V30 18541 C 1757.7 -0.668391 3.38565 0
M  V30 18542 C 1756.82 0.207659 4.31501 0
M  V30 18543 C 1755.95 -0.656539 5.27127 0
M  V30 18544 C 1754.99 0.220845 6.11701 0
M  V30 18545 N 1754.13 -0.602449 6.99511 0
M  V30 18546 H 1758.97 0.994038 2.80932 0
M  V30 18547 H 1756.5 0.501759 1.38278 0
M  V30 18548 H 1758.46 -1.18064 4.00146 0
M  V30 18549 H 1757.09 -1.43859 2.88971 0
M  V30 18550 H 1756.14 0.837894 3.71057 0
M  V30 18551 H 1757.46 0.883613 4.90911 0
M  V30 18552 H 1756.61 -1.23452 5.94007 0
M  V30 18553 H 1755.35 -1.36611 4.68176 0
M  V30 18554 H 1754.35 0.811214 5.43782 0
M  V30 18555 H 1755.58 0.928049 6.72729 0
M  V30 18556 H 1753.52 -1.29628 6.43065 0
M  V30 18557 H 1753.44 0.015783 7.55998 0
M  V30 18558 H 1754.71 -1.16419 7.70757 0
M  V30 18559 N 1758.94 -1.47929 0.54358 0
M  V30 18560 C 1759.9 -2.28316 -0.201107 0
M  V30 18561 C 1760.9 -1.36165 -0.855313 0
M  V30 18562 O 1762.09 -1.58928 -0.71327 0
M  V30 18563 C 1759.22 -3.1545 -1.29245 0
M  V30 18564 H 1760.42 -2.9562 0.504848 0
M  V30 18565 H 1757.97 -1.53394 0.300011 0
M  V30 18566 H 1758.71 -2.52807 -2.03124 0
M  V30 18567 H 1758.49 -3.83251 -0.82832 0
M  V30 18568 H 1759.98 -3.76053 -1.81587 0
M  V30 18569 N 1760.42 -0.27936 -1.55104 0
M  V30 18570 C 1761.83 0.217569 -1.85428 0
M  V30 18571 C 1762.18 1.55117 -1.20138 0
M  V30 18572 O 1761.3 2.10751 -0.491229 0
M  V30 18573 C 1761.9 0.401547 -3.36412 0
M  V30 18574 C 1760.46 0.842706 -3.66845 0
M  V30 18575 C 1759.61 -0.0615565 -2.77232 0
M  V30 18576 H 1762.56 -0.501025 -1.50584 0
M  V30 18577 H 1762.58 1.23946 -3.59747 0
M  V30 18578 H 1762.09 -0.569224 -3.83903 0
M  V30 18579 H 1760.19 1.8248 -3.24857 0
M  V30 18580 H 1760.3 0.677088 -4.74291 0
M  V30 18581 H 1758.67 0.455486 -2.50594 0
M  V30 18582 H 1759.45 -1.02829 -3.27538 0
M  V30 18583 N 1761.9 1.57599 -0.0067085 0
M  V30 18584 C 1763.14 1.9114 0.677733 0
M  V30 18585 C 1763.47 0.881328 1.7305 0
M  V30 18586 O 1762.75 -0.099049 1.94248 0
M  V30 18587 C 1763.03 3.35241 1.31474 0
M  V30 18588 C 1762.89 4.4897 0.273055 0
M  V30 18589 C 1764.2 3.78886 2.23905 0
M  V30 18590 H 1761.32 0.695119 0.244907 0
M  V30 18591 H 1763.97 1.89907 -0.059378 0
M  V30 18592 H 1762.12 3.36423 1.94299 0
M  V30 18593 H 1763.79 4.59924 -0.356031 0
M  V30 18594 H 1762.03 4.31915 -0.403961 0
M  V30 18595 H 1762.7 5.46772 0.757941 0
M  V30 18596 H 1765.18 3.79299 1.7109 0
M  V30 18597 H 1764.05 4.80451 2.65439 0
M  V30 18598 H 1764.31 3.13129 3.12094 0
M  V30 18599 N 1763.37 -0.266145 1.55336 0
M  V30 18600 C 1764.62 -0.994862 1.75917 0
M  V30 18601 C 1764.94 -1.8657 0.567147 0
M  V30 18602 O 1764.21 -1.91394 -0.417738 0
M  V30 18603 H 1762.79 -0.370318 0.648748 0
M  V30 18604 H 1765.45 -0.288724 1.9275 0
M  V30 18605 H 1764.55 -1.62781 2.66287 0
M  V30 18606 N 1764.85 -1.48386 -0.530967 0
M  V30 18607 C 1765.8 -1.59236 -1.6318 0
M  V30 18608 C 1766.79 -0.449549 -1.54492 0
M  V30 18609 O 1767.98 -0.700935 -1.6253 0
M  V30 18610 C 1765.11 -1.6343 -3.01903 0
M  V30 18611 C 1764.19 -2.83188 -3.15699 0
M  V30 18612 N 1764.58 -4.07616 -2.99471 0
M  V30 18613 C 1762.88 -2.80499 -3.46751 0
M  V30 18614 C 1763.58 -4.87959 -3.16657 0
M  V30 18615 N 1762.56 -4.20757 -3.44186 0
M  V30 18616 H 1766.36 -2.53187 -1.49243 0
M  V30 18617 H 1763.87 -1.44744 -0.7364 0
M  V30 18618 H 1765.87 -1.69297 -3.80978 0
M  V30 18619 H 1764.53 -0.705948 -3.16933 0
M  V30 18620 H 1765.54 -4.38068 -2.76255 0
M  V30 18621 H 1762.22 -1.96916 -3.68145 0
M  V30 18622 H 1763.61 -5.96705 -3.08857 0
M  V30 18623 N 1766.33 0.779763 -1.36958 0
M  V30 18624 C 1767.58 1.53803 -1.31723 0
M  V30 18625 C 1767.9 1.94239 0.100663 0
M  V30 18626 O 1767.16 1.6372 1.07212 0
M  V30 18627 C 1767.46 2.82075 -2.19473 0
M  V30 18628 C 1767.12 2.6073 -3.67873 0
M  V30 18629 C 1765.79 2.54617 -4.08318 0
M  V30 18630 C 1768.14 2.41407 -4.61922 0
M  V30 18631 C 1765.47 2.2716 -5.40939 0
M  V30 18632 C 1767.82 2.15475 -5.94772 0
M  V30 18633 C 1766.48 2.07801 -6.3433 0
M  V30 18634 H 1765.75 0.562804 -0.482009 0
M  V30 18635 H 1768.4 0.898839 -1.69095 0
M  V30 18636 H 1766.7 3.50511 -1.75069 0
M  V30 18637 H 1768.4 3.39915 -2.12741 0
M  V30 18638 H 1764.99 2.66347 -3.35793 0
M  V30 18639 H 1769.18 2.45125 -4.31541 0
M  V30 18640 H 1764.43 2.19708 -5.7056 0
M  V30 18641 H 1768.61 1.9952 -6.67207 0
M  V30 18642 H 1766.23 1.86289 -7.37021 0
M  V30 18643 N 1767.81 1.21396 1.00503 0
M  V30 18644 C 1769.04 1.0556 1.77597 0
M  V30 18645 C 1769.45 -0.397591 1.84975 0
M  V30 18646 O 1768.79 -1.28764 1.31018 0
M  V30 18647 C 1768.85 1.57754 3.23039 0
M  V30 18648 C 1768.51 3.06214 3.39238 0
M  V30 18649 C 1769.51 4.03763 3.27523 0
M  V30 18650 C 1767.2 3.45418 3.6468 0
M  V30 18651 C 1769.19 5.38505 3.41015 0
M  V30 18652 C 1766.88 4.80312 3.77814 0
M  V30 18653 C 1767.88 5.76665 3.65988 0
M  V30 18654 O 1767.56 7.09111 3.78704 0
M  V30 18655 H 1767.3 0.371187 0.564975 0
M  V30 18656 H 1769.85 1.61186 1.27312 0
M  V30 18657 H 1768.08 0.965245 3.74459 0
M  V30 18658 H 1769.77 1.37762 3.81807 0
M  V30 18659 H 1770.53 3.74819 3.07791 0
M  V30 18660 H 1766.41 2.70954 3.72968 0
M  V30 18661 H 1769.96 6.13694 3.317 0
M  V30 18662 H 1765.85 5.08942 3.9705 0
M  V30 18663 H 1766.62 7.16521 3.95651 0
M  V30 18664 N 1769.29 -1.19996 1.0217 0
M  V30 18665 C 1770.2 -2.26634 0.606136 0
M  V30 18666 C 1771.21 -1.70262 -0.358746 0
M  V30 18667 O 1772.39 -2.00212 -0.218422 0
M  V30 18668 C 1769.45 -3.46672 -0.0439096 0
M  V30 18669 C 1768.51 -4.18254 0.967563 0
M  V30 18670 C 1767.75 -5.32561 0.348443 0
M  V30 18671 O 1767.97 -5.64024 -0.850508 0
M  V30 18672 O 1766.9 -5.92354 1.06772 0
M  V30 18673 H 1770.73 -2.64407 1.49407 0
M  V30 18674 H 1768.31 -1.26712 0.791483 0
M  V30 18675 H 1770.2 -4.19433 -0.406714 0
M  V30 18676 H 1768.87 -3.10764 -0.90596 0
M  V30 18677 H 1767.78 -3.47644 1.38183 0
M  V30 18678 H 1769.11 -4.58116 1.79975 0
M  V30 18679 N 1770.76 -0.798611 -1.35867 0
M  V30 18680 C 1772.17 -0.437243 -1.81508 0
M  V30 18681 C 1772.53 1.03987 -1.66376 0
M  V30 18682 O 1771.65 1.80751 -1.18988 0
M  V30 18683 C 1772.25 -0.786865 -3.29536 0
M  V30 18684 C 1770.8 -0.478204 -3.7335 0
M  V30 18685 C 1769.95 -1.01668 -2.5799 0
M  V30 18686 H 1772.9 -0.990957 -1.23959 0
M  V30 18687 H 1772.92 -0.0813864 -3.80413 0
M  V30 18688 H 1772.44 -1.86198 -3.40517 0
M  V30 18689 H 1770.54 0.588503 -3.67923 0
M  V30 18690 H 1770.65 -1.00525 -4.68435 0
M  V30 18691 H 1769.01 -0.439417 -2.50881 0
M  V30 18692 H 1769.8 -2.09775 -2.71753 0
M  V30 18693 N 1772.24 1.47639 -0.551417 0
M  V30 18694 C 1773.17 2.27972 0.236919 0
M  V30 18695 C 1774.19 1.3666 0.884752 0
M  V30 18696 O 1775.38 1.61532 0.75958 0
M  V30 18697 C 1772.48 3.10738 1.3526 0
M  V30 18698 C 1771.65 4.29972 0.802659 0
M  V30 18699 C 1770.71 4.94379 1.80212 0
M  V30 18700 O 1769.73 5.52946 1.35053 0
M  V30 18701 N 1770.94 4.8855 3.13526 0
M  V30 18702 H 1773.7 2.9627 -0.452154 0
M  V30 18703 H 1771.26 1.57204 -0.387116 0
M  V30 18704 H 1773.25 3.50692 2.01983 0
M  V30 18705 H 1771.82 2.44721 1.945 0
M  V30 18706 H 1771.04 3.94178 -0.0411825 0
M  V30 18707 H 1772.33 5.07109 0.41448 0
M  V30 18708 H 1771.73 4.42157 3.52865 0
M  V30 18709 H 1770.29 5.32541 3.75823 0
M  V30 18710 N 1773.72 0.287581 1.54954 0
M  V30 18711 C 1774.68 -0.581465 2.21702 0
M  V30 18712 C 1775.68 -1.07172 1.19878 0
M  V30 18713 O 1776.87 -0.969899 1.44702 0
M  V30 18714 C 1774.01 -1.80358 2.89282 0
M  V30 18715 H 1775.2 0.00151035 2.999 0
M  V30 18716 H 1772.75 0.0382953 1.56253 0
M  V30 18717 H 1773.49 -2.42674 2.15128 0
M  V30 18718 H 1773.27 -1.45983 3.63911 0
M  V30 18719 H 1774.76 -2.42129 3.4024 0
M  V30 18720 N 1775.2 -1.57593 0.0150662 0
M  V30 18721 C 1776.61 -1.79146 -0.525709 0
M  V30 18722 C 1776.96 -0.923985 -1.73081 0
M  V30 18723 O 1776.09 -0.130532 -2.16006 0
M  V30 18724 C 1776.68 -3.249 -0.960492 0
M  V30 18725 C 1775.24 -3.47497 -1.44647 0
M  V30 18726 C 1774.39 -2.74332 -0.404628 0
M  V30 18727 H 1777.34 -1.56857 0.241175 0
M  V30 18728 H 1777.36 -3.3384 -1.82568 0
M  V30 18729 H 1776.87 -3.88011 -0.0832025 0
M  V30 18730 H 1774.97 -2.8962 -2.34416 0
M  V30 18731 H 1775.08 -4.56199 -1.46354 0
M  V30 18732 H 1773.45 -2.39394 -0.869627 0
M  V30 18733 H 1774.23 -3.40151 0.463953 0
M  V30 18734 N 1776.68 0.257904 -1.55475 0
M  V30 18735 C 1777.9 1.00955 -1.81171 0
M  V30 18736 C 1778.33 1.78586 -0.590651 0
M  V30 18737 O 1777.68 1.75365 0.460105 0
M  V30 18738 C 1777.73 1.93188 -3.04485 0
M  V30 18739 O 1776.84 3.02194 -2.80628 0
M  V30 18740 H 1776.18 0.28785 -0.598363 0
M  V30 18741 H 1778.71 0.28223 -2.02644 0
M  V30 18742 H 1778.72 2.3486 -3.33624 0
M  V30 18743 H 1777.39 1.361 -3.93001 0
M  V30 18744 H 1775.97 2.64729 -2.62627 0
M  V30 18745 N 1778.15 1.48666 0.52309 0
M  V30 18746 C 1779.12 1.63211 1.60919 0
M  V30 18747 C 1780.12 0.505012 1.52664 0
M  V30 18748 O 1781.31 0.770967 1.56211 0
M  V30 18749 C 1778.44 1.60878 3.00551 0
M  V30 18750 H 1779.63 2.60061 1.4936 0
M  V30 18751 H 1777.19 1.37366 0.745674 0
M  V30 18752 H 1777.92 0.655306 3.1761 0
M  V30 18753 H 1777.71 2.4271 3.07952 0
M  V30 18754 H 1779.2 1.74263 3.79502 0
M  V30 18755 N 1779.63 -0.772489 1.37369 0
M  V30 18756 C 1780.54 -1.91679 1.35263 0
M  V30 18757 C 1781.56 -1.72161 0.252321 0
M  V30 18758 O 1782.73 -1.95409 0.487581 0
M  V30 18759 C 1779.8 -3.26792 1.15792 0
M  V30 18760 C 1778.86 -3.5897 2.35455 0
M  V30 18761 C 1778.09 -4.87636 2.16903 0
M  V30 18762 O 1778.32 -5.58627 1.15291 0
M  V30 18763 O 1777.25 -5.18859 3.05072 0
M  V30 18764 H 1781.08 -1.96408 2.31641 0
M  V30 18765 H 1778.66 -0.915136 1.18092 0
M  V30 18766 H 1780.54 -4.07611 1.06918 0
M  V30 18767 H 1779.22 -3.22918 0.224872 0
M  V30 18768 H 1778.13 -2.78389 2.49901 0
M  V30 18769 H 1779.46 -3.67586 3.27325 0
M  V30 18770 N 1781.11 -1.21927 -0.998575 0
M  V30 18771 C 1782.36 -1.04194 -1.73987 0
M  V30 18772 C 1782.69 0.4227 -1.89544 0
M  V30 18773 O 1781.96 1.31353 -1.43446 0
M  V30 18774 C 1782.25 -1.74717 -3.14874 0
M  V30 18775 C 1782.1 -3.28741 -3.07001 0
M  V30 18776 C 1783.42 -1.49495 -4.13931 0
M  V30 18777 H 1780.54 -0.379918 -0.631531 0
M  V30 18778 H 1783.18 -1.5019 -1.16374 0
M  V30 18779 H 1781.33 -1.35615 -3.64062 0
M  V30 18780 H 1783 -3.77252 -2.65478 0
M  V30 18781 H 1781.25 -3.58711 -2.43944 0
M  V30 18782 H 1781.92 -3.73258 -4.06672 0
M  V30 18783 H 1784.39 -1.83451 -3.73477 0
M  V30 18784 H 1783.27 -2.01344 -5.10639 0
M  V30 18785 H 1783.53 -0.426324 -4.4004 0
M  V30 18786 N 1782.59 1.19452 -1.02805 0
M  V30 18787 C 1783.5 2.2631 -0.618147 0
M  V30 18788 C 1784.51 1.70449 0.349712 0
M  V30 18789 O 1785.69 2.00325 0.207801 0
M  V30 18790 C 1782.76 3.46691 0.0255242 0
M  V30 18791 C 1781.82 4.17735 -0.98973 0
M  V30 18792 C 1781.05 5.32369 -0.376681 0
M  V30 18793 O 1781.27 5.64467 0.820584 0
M  V30 18794 O 1780.21 5.9178 -1.09911 0
M  V30 18795 H 1784.03 2.63611 -1.50807 0
M  V30 18796 H 1781.62 1.2629 -0.798192 0
M  V30 18797 H 1783.5 4.19643 0.384464 0
M  V30 18798 H 1782.17 3.1124 0.889467 0
M  V30 18799 H 1781.08 3.46906 -1.40024 0
M  V30 18800 H 1782.41 4.57155 -1.82402 0
M  V30 18801 N 1784.07 0.805805 1.35442 0
M  V30 18802 C 1785 0.16119 2.2763 0
M  V30 18803 C 1785.98 -0.672367 1.48047 0
M  V30 18804 O 1787.16 -0.639817 1.77309 0
M  V30 18805 C 1784.29 -0.776465 3.2968 0
M  V30 18806 C 1783.33 -0.022629 4.26494 0
M  V30 18807 S 1784.17 1.31288 5.19157 0
M  V30 18808 C 1785.32 0.379652 6.24748 0
M  V30 18809 H 1785.56 0.942806 2.81955 0
M  V30 18810 H 1783.09 0.600827 1.4223 0
M  V30 18811 H 1785.05 -1.31195 3.88971 0
M  V30 18812 H 1783.71 -1.53146 2.74235 0
M  V30 18813 H 1782.9 -0.734753 4.98615 0
M  V30 18814 H 1782.5 0.442875 3.71369 0
M  V30 18815 H 1784.8 -0.435371 6.761 0
M  V30 18816 H 1785.74 1.07003 6.99969 0
M  V30 18817 H 1786.15 -0.024306 5.64495 0
M  V30 18818 N 1785.54 -1.47344 0.559239 0
M  V30 18819 C 1786.77 -2.0686 0.0408612 0
M  V30 18820 C 1787.19 -1.4116 -1.25376 0
M  V30 18821 O 1786.54 -0.508814 -1.75264 0
M  V30 18822 C 1786.6 -3.61162 -0.156298 0
M  V30 18823 O 1786.32 -4.24399 1.08706 0
M  V30 18824 C 1787.82 -4.37549 -0.711725 0
M  V30 18825 H 1785.04 -0.669368 0.0467647 0
M  V30 18826 H 1787.58 -1.89318 0.773229 0
M  V30 18827 H 1785.74 -3.7821 -0.838802 0
M  V30 18828 H 1786.15 -5.16961 0.886072 0
M  V30 18829 H 1787.62 -5.46187 -0.798961 0
M  V30 18830 H 1788.1 -4.03972 -1.72346 0
M  V30 18831 H 1788.71 -4.25251 -0.0648534 0
M  V30 18832 N 1787.02 -0.295795 -1.54799 0
M  V30 18833 C 1788.25 0.32058 -2.04907 0
M  V30 18834 C 1788.67 1.47132 -1.17191 0
M  V30 18835 O 1788.03 1.80455 -0.174869 0
M  V30 18836 C 1788.08 0.759439 -3.52512 0
M  V30 18837 O 1787.18 1.86474 -3.67833 0
M  V30 18838 H 1786.52 0.0631128 -0.660994 0
M  V30 18839 H 1789.05 -0.436123 -1.99898 0
M  V30 18840 H 1789.06 1.04965 -3.94267 0
M  V30 18841 H 1787.74 -0.0823715 -4.15818 0
M  V30 18842 H 1786.32 1.57547 -3.37984 0
M  V30 18843 N 1788.5 1.57583 -0.0234236 0
M  V30 18844 C 1789.73 1.95577 0.66583 0
M  V30 18845 C 1790.14 0.898193 1.66521 0
M  V30 18846 O 1789.48 -0.129109 1.83246 0
M  V30 18847 C 1789.54 3.29685 1.43345 0
M  V30 18848 C 1789.21 4.53136 0.593048 0
M  V30 18849 C 1790.21 5.19739 -0.129251 0
M  V30 18850 C 1787.89 4.99473 0.532125 0
M  V30 18851 C 1789.88 6.30997 -0.901206 0
M  V30 18852 C 1787.57 6.10615 -0.24354 0
M  V30 18853 C 1788.57 6.76235 -0.958917 0
M  V30 18854 O 1788.26 7.85243 -1.72188 0
M  V30 18855 H 1787.99 0.649084 0.188853 0
M  V30 18856 H 1790.54 2.05253 -0.0777525 0
M  V30 18857 H 1788.77 3.16484 2.22205 0
M  V30 18858 H 1790.46 3.52623 2.01027 0
M  V30 18859 H 1791.23 4.84914 -0.0914812 0
M  V30 18860 H 1787.11 4.48207 1.0785 0
M  V30 18861 H 1790.65 6.82149 -1.46011 0
M  V30 18862 H 1786.55 6.44879 -0.283046 0
M  V30 18863 H 1787.32 8.0188 -1.64105 0
M  V30 18864 N 1789.98 -0.249655 1.5561 0
M  V30 18865 C 1791.23 -0.979529 1.77576 0
M  V30 18866 C 1791.56 -1.85078 0.588198 0
M  V30 18867 O 1790.83 -1.90052 -0.4136 0
M  V30 18868 C 1791.12 -1.84238 3.094 0
M  V30 18869 C 1790.97 -0.9995 4.38554 0
M  V30 18870 C 1792.29 -2.82536 3.37433 0
M  V30 18871 H 1789.41 -0.354681 0.646042 0
M  V30 18872 H 1792.05 -0.250224 1.88345 0
M  V30 18873 H 1790.2 -2.46419 3.0035 0
M  V30 18874 H 1791.87 -0.396599 4.59592 0
M  V30 18875 H 1790.11 -0.30376 4.32735 0
M  V30 18876 H 1790.79 -1.63697 5.27169 0
M  V30 18877 H 1793.26 -2.30491 3.46429 0
M  V30 18878 H 1792.14 -3.40033 4.30893 0
M  V30 18879 H 1792.4 -3.58859 2.58211 0
M  V30 18880 N 1791.46 -1.48941 -0.515198 0
M  V30 18881 C 1792.39 -1.67466 -1.62719 0
M  V30 18882 C 1793.37 -0.523393 -1.61847 0
M  V30 18883 O 1794.55 -0.757631 -1.78812 0
M  V30 18884 C 1791.68 -1.72799 -3.0126 0
M  V30 18885 C 1790.64 -2.87574 -3.16994 0
M  V30 18886 C 1789.96 -2.78008 -4.56745 0
M  V30 18887 C 1791.26 -4.28693 -2.98362 0
M  V30 18888 H 1792.96 -2.60562 -1.47471 0
M  V30 18889 H 1790.5 -1.25391 -0.708027 0
M  V30 18890 H 1792.46 -1.84346 -3.78939 0
M  V30 18891 H 1791.18 -0.762918 -3.17564 0
M  V30 18892 H 1789.84 -2.75606 -2.41737 0
M  V30 18893 H 1789.49 -1.79438 -4.69905 0
M  V30 18894 H 1789.19 -3.55033 -4.68215 0
M  V30 18895 H 1790.71 -2.91543 -5.36503 0
M  V30 18896 H 1792.13 -4.41416 -3.65821 0
M  V30 18897 H 1790.52 -5.0683 -3.21315 0
M  V30 18898 H 1791.59 -4.44125 -1.9463 0
M  V30 18899 N 1792.94 0.765193 -1.37777 0
M  V30 18900 C 1793.87 1.89247 -1.36777 0
M  V30 18901 C 1794.85 1.68463 -0.235389 0
M  V30 18902 O 1796.03 1.89225 -0.436733 0
M  V30 18903 C 1793.16 3.2662 -1.18053 0
M  V30 18904 C 1792.12 3.61981 -2.28372 0
M  V30 18905 C 1791.44 4.97967 -1.94765 0
M  V30 18906 C 1792.74 3.68053 -3.70587 0
M  V30 18907 H 1794.44 1.90341 -2.31108 0
M  V30 18908 H 1791.98 0.914355 -1.11245 0
M  V30 18909 H 1793.93 4.05125 -1.15982 0
M  V30 18910 H 1792.66 3.25976 -0.201803 0
M  V30 18911 H 1791.32 2.85788 -2.2961 0
M  V30 18912 H 1790.97 4.93869 -0.954052 0
M  V30 18913 H 1790.67 5.22594 -2.68642 0
M  V30 18914 H 1792.19 5.78864 -1.94292 0
M  V30 18915 H 1793.6 4.36696 -3.71443 0
M  V30 18916 H 1792 4.04183 -4.43572 0
M  V30 18917 H 1793.07 2.68556 -4.03739 0
M  V30 18918 N 1794.41 1.22455 0.992094 0
M  V30 18919 C 1795.38 0.996703 2.06394 0
M  V30 18920 C 1796.38 -0.0371659 1.60757 0
M  V30 18921 O 1797.57 0.20142 1.73032 0
M  V30 18922 C 1794.7 0.505675 3.37129 0
M  V30 18923 H 1795.89 1.94776 2.28041 0
M  V30 18924 H 1793.44 1.04335 1.16378 0
M  V30 18925 H 1794.18 -0.449697 3.21167 0
M  V30 18926 H 1793.96 1.25158 3.71588 0
M  V30 18927 H 1795.45 0.366535 4.15988 0
M  V30 18928 N 1795.89 -1.18905 1.03437 0
M  V30 18929 C 1797.12 -1.92398 0.752759 0
M  V30 18930 C 1797.53 -1.76048 -0.693091 0
M  V30 18931 O 1796.87 -1.08335 -1.48355 0
M  V30 18932 C 1796.93 -3.44392 1.03124 0
M  V30 18933 C 1796.6 -3.84516 2.46974 0
M  V30 18934 C 1797.6 -3.8882 3.4513 0
M  V30 18935 C 1795.28 -4.15996 2.81519 0
M  V30 18936 C 1797.27 -4.24043 4.75885 0
M  V30 18937 C 1794.96 -4.5089 4.12482 0
M  V30 18938 C 1795.96 -4.54889 5.09475 0
M  V30 18939 O 1795.65 -4.88973 6.38091 0
M  V30 18940 H 1795.38 -0.617814 0.274375 0
M  V30 18941 H 1797.93 -1.51828 1.38338 0
M  V30 18942 H 1796.16 -3.85172 0.343482 0
M  V30 18943 H 1797.85 -3.99127 0.738423 0
M  V30 18944 H 1798.62 -3.64645 3.1978 0
M  V30 18945 H 1794.5 -4.12064 2.06699 0
M  V30 18946 H 1798.04 -4.27079 5.51588 0
M  V30 18947 H 1793.94 -4.74525 4.37603 0
M  V30 18948 H 1794.71 -5.069 6.42647 0
M  V30 18949 N 1797.37 -0.812977 -1.35013 0
M  V30 18950 C 1798.3 -0.242397 -2.32238 0
M  V30 18951 C 1799.28 0.635676 -1.57776 0
M  V30 18952 O 1800.47 0.564621 -1.85811 0
M  V30 18953 C 1797.6 0.604686 -3.41995 0
M  V30 18954 C 1796.55 -0.17542 -4.2764 0
M  V30 18955 C 1795.88 0.793772 -5.28775 0
M  V30 18956 C 1797.18 -1.37802 -5.03794 0
M  V30 18957 H 1798.87 -1.0547 -2.80208 0
M  V30 18958 H 1796.42 -0.508619 -1.34718 0
M  V30 18959 H 1798.37 1.01396 -4.09019 0
M  V30 18960 H 1797.09 1.44994 -2.9265 0
M  V30 18961 H 1795.75 -0.565948 -3.62205 0
M  V30 18962 H 1795.4 1.63471 -4.75696 0
M  V30 18963 H 1795.1 0.276085 -5.86951 0
M  V30 18964 H 1796.62 1.20112 -5.9867 0
M  V30 18965 H 1798.04 -1.04328 -5.63727 0
M  V30 18966 H 1796.43 -1.83064 -5.71496 0
M  V30 18967 H 1797.5 -2.16138 -4.34065 0
M  V30 18968 N 1798.85 1.47045 -0.567045 0
M  V30 18969 C 1800.08 2.06835 -0.0518309 0
M  V30 18970 C 1800.49 1.41823 1.24626 0
M  V30 18971 O 1799.85 0.518102 1.74991 0
M  V30 18972 C 1799.9 3.6124 0.137142 0
M  V30 18973 O 1799.62 4.23817 -1.10955 0
M  V30 18974 C 1801.12 4.37921 0.688511 0
M  V30 18975 H 1798.34 0.669111 -0.0503138 0
M  V30 18976 H 1800.88 1.88906 -0.783258 0
M  V30 18977 H 1799.04 3.7865 0.818733 0
M  V30 18978 H 1799.45 5.16484 -0.913475 0
M  V30 18979 H 1800.93 5.46603 0.769984 0
M  V30 18980 H 1801.4 4.0488 1.70201 0
M  V30 18981 H 1802.01 4.25279 0.0423004 0
M  V30 18982 N 1800.33 0.304 1.5464 0
M  V30 18983 C 1801.29 -0.557917 2.22306 0
M  V30 18984 C 1802.29 -1.05895 1.21008 0
M  V30 18985 O 1803.48 -0.954497 1.45722 0
M  V30 18986 C 1800.61 -1.77279 2.91178 0
M  V30 18987 H 1801.8 0.0333187 2.99881 0
M  V30 18988 H 1799.36 0.0548659 1.56204 0
M  V30 18989 H 1800.09 -2.40378 2.17689 0
M  V30 18990 H 1799.88 -1.42115 3.65439 0
M  V30 18991 H 1801.37 -2.38507 3.42789 0
M  V30 18992 N 1801.8 -1.57568 0.0317802 0
M  V30 18993 C 1802.74 -2.07288 -0.977981 0
M  V30 18994 C 1803.75 -0.99682 -1.28714 0
M  V30 18995 O 1804.94 -1.27295 -1.25133 0
M  V30 18996 C 1802.04 -2.48469 -2.3047 0
M  V30 18997 C 1801.21 -3.79185 -2.18031 0
M  V30 18998 C 1800.27 -4.06888 -3.33659 0
M  V30 18999 O 1799.3 -4.771 -3.10426 0
M  V30 19000 N 1800.5 -3.57271 -4.57534 0
M  V30 19001 H 1803.26 -2.9454 -0.553743 0
M  V30 19002 H 1800.82 -1.61157 -0.154917 0
M  V30 19003 H 1802.82 -2.64092 -3.06655 0
M  V30 19004 H 1801.39 -1.66568 -2.64526 0
M  V30 19005 H 1800.61 -3.73333 -1.26556 0
M  V30 19006 H 1801.89 -4.64821 -2.06926 0
M  V30 19007 H 1801.29 -3.00474 -4.79303 0
M  V30 19008 H 1799.85 -3.78168 -5.30878 0
M  V30 19009 N 1803.28 0.241399 -1.5574 0
M  V30 19010 C 1804.69 0.810024 -1.68213 0
M  V30 19011 C 1805.04 1.85802 -0.630237 0
M  V30 19012 O 1804.17 2.15254 0.222457 0
M  V30 19013 C 1804.76 1.47603 -3.04957 0
M  V30 19014 C 1803.32 1.99229 -3.1935 0
M  V30 19015 C 1802.47 0.845339 -2.64101 0
M  V30 19016 H 1805.42 0.0171031 -1.58691 0
M  V30 19017 H 1805.44 2.34425 -2.99709 0
M  V30 19018 H 1804.95 0.713047 -3.81493 0
M  V30 19019 H 1803.06 2.78391 -2.47647 0
M  V30 19020 H 1803.17 2.1859 -4.26328 0
M  V30 19021 H 1801.53 1.24734 -2.22067 0
M  V30 19022 H 1802.32 0.0953468 -3.43168 0
M  V30 19023 N 1804.76 1.49212 0.507292 0
M  V30 19024 C 1805.72 1.64908 1.59179 0
M  V30 19025 C 1806.72 0.521176 1.5212 0
M  V30 19026 O 1807.91 0.787492 1.55384 0
M  V30 19027 C 1805.05 1.64057 2.98828 0
M  V30 19028 H 1806.24 2.6163 1.46593 0
M  V30 19029 H 1803.79 1.38149 0.731062 0
M  V30 19030 H 1804.53 0.688956 3.16897 0
M  V30 19031 H 1804.31 2.45963 3.0536 0
M  V30 19032 H 1805.8 1.78279 3.77633 0
M  V30 19033 N 1806.24 -0.757876 1.38181 0
M  V30 19034 C 1807.65 -1.33496 1.30521 0
M  V30 19035 C 1808 -1.96157 -0.0409405 0
M  V30 19036 O 1807.13 -1.94775 -0.942957 0
M  V30 19037 C 1807.72 -2.42725 2.36369 0
M  V30 19038 C 1806.28 -2.96165 2.323 0
M  V30 19039 C 1805.43 -1.69505 2.19461 0
M  V30 19040 H 1808.38 -0.557075 1.48601 0
M  V30 19041 H 1808.4 -3.22556 2.01836 0
M  V30 19042 H 1807.91 -1.97089 3.34331 0
M  V30 19043 H 1806.01 -3.4614 1.37904 0
M  V30 19044 H 1806.12 -3.50836 3.26269 0
M  V30 19045 H 1804.49 -1.92967 1.66241 0
M  V30 19046 H 1805.27 -1.25954 3.1936 0
M  V30 19047 N 1807.72 -1.22979 -0.985586 0
M  V30 19048 C 1808.94 -1.0853 -1.7615 0
M  V30 19049 C 1809.36 0.36363 -1.85265 0
M  V30 19050 O 1808.72 1.25173 -1.32808 0
M  V30 19051 C 1808.77 -1.69872 -3.19101 0
M  V30 19052 O 1808.49 -3.09098 -3.10467 0
M  V30 19053 C 1809.99 -1.60795 -4.1311 0
M  V30 19054 H 1807.21 -0.380086 -0.55297 0
M  V30 19055 H 1809.75 -1.62724 -1.2386 0
M  V30 19056 H 1807.91 -1.19724 -3.68436 0
M  V30 19057 H 1808.32 -3.38769 -4.00419 0
M  V30 19058 H 1809.8 -2.08428 -5.11138 0
M  V30 19059 H 1810.27 -0.565817 -4.3554 0
M  V30 19060 H 1810.88 -2.10284 -3.69676 0
M  V30 19061 N 1809.19 1.18355 -1.04066 0
M  V30 19062 C 1810.42 1.92816 -0.763979 0
M  V30 19063 C 1810.84 1.75658 0.672749 0
M  V30 19064 O 1810.2 1.06671 1.46598 0
M  V30 19065 C 1810.25 3.42267 -1.13516 0
M  V30 19066 O 1809.35 4.11576 -0.260646 0
M  V30 19067 H 1808.7 0.601532 -0.281167 0
M  V30 19068 H 1811.23 1.50087 -1.3905 0
M  V30 19069 H 1811.24 3.92973 -1.09709 0
M  V30 19070 H 1809.91 3.54076 -2.18181 0
M  V30 19071 H 1808.49 3.71174 -0.358342 0
M  V30 19072 N 1810.67 0.820125 1.3458 0
M  V30 19073 C 1811.58 0.241913 2.33349 0
M  V30 19074 C 1812.6 -0.622228 1.62494 0
M  V30 19075 O 1813.77 -0.530787 1.9428 0
M  V30 19076 C 1810.84 -0.588944 3.41661 0
M  V30 19077 C 1809.9 0.29727 4.2827 0
M  V30 19078 C 1809.13 -0.494028 5.31409 0
M  V30 19079 O 1809.36 -1.72755 5.4361 0
M  V30 19080 O 1808.29 0.122182 6.01776 0
M  V30 19081 H 1812.12 1.05934 2.84626 0
M  V30 19082 H 1809.7 0.582205 1.37589 0
M  V30 19083 H 1811.58 -1.06174 4.07805 0
M  V30 19084 H 1810.26 -1.38374 2.92633 0
M  V30 19085 H 1809.17 0.817495 3.65059 0
M  V30 19086 H 1810.5 1.05635 4.80731 0
M  V30 19087 N 1812.15 -1.46743 0.574835 0
M  V30 19088 C 1813.43 -1.95598 -0.00908149 0
M  V30 19089 C 1813.81 -1.5175 -1.46748 0
M  V30 19090 O 1813.16 -0.764502 -2.15331 0
M  V30 19091 C 1813.37 -3.48657 0.154756 0
M  V30 19092 C 1814.71 -4.24596 0.0185002 0
M  V30 19093 O 1815.74 -3.56103 0.0831904 0
M  V30 19094 O 1814.6 -5.4636 -0.123733 0
M  V30 19095 H 1811.69 -0.825219 -0.0542477 0
M  V30 19096 H 1814.24 -1.57063 0.6426 0
M  V30 19097 H 1813.01 -3.73433 1.16891 0
M  V30 19098 H 1812.63 -3.94001 -0.533724 0
M  V30 19099 N 1813.63 -0.312197 -1.54477 0
M  V30 19100 C 1814.56 0.551829 -2.26886 0
M  V30 19101 C 1815.54 1.12874 -1.27254 0
M  V30 19102 O 1816.72 1.15599 -1.56046 0
M  V30 19103 C 1813.85 1.71839 -3.01809 0
M  V30 19104 C 1812.81 1.27131 -4.08683 0
M  V30 19105 C 1812.13 2.52392 -4.71384 0
M  V30 19106 C 1813.43 0.394413 -5.20809 0
M  V30 19107 H 1815.13 -0.0521331 -2.99355 0
M  V30 19108 H 1812.67 -0.0265138 -1.43976 0
M  V30 19109 H 1814.63 2.32903 -3.5119 0
M  V30 19110 H 1813.35 2.34876 -2.26938 0
M  V30 19111 H 1812.01 0.683666 -3.60169 0
M  V30 19112 H 1811.66 3.13768 -3.93139 0
M  V30 19113 H 1811.36 2.23174 -5.43569 0
M  V30 19114 H 1812.88 3.14239 -5.23533 0
M  V30 19115 H 1814.3 0.911031 -5.66015 0
M  V30 19116 H 1812.69 0.195517 -5.99781 0
M  V30 19117 H 1813.76 -0.577661 -4.81447 0
M  V30 19118 N 1815.11 1.57549 -0.040136 0
M  V30 19119 C 1816.33 1.96557 0.645986 0
M  V30 19120 C 1816.75 0.91717 1.65026 0
M  V30 19121 O 1816.11 -0.0998395 1.82227 0
M  V30 19122 C 1816.16 3.35641 1.34266 0
M  V30 19123 O 1815.88 4.36461 0.378616 0
M  V30 19124 C 1817.38 3.89344 2.11957 0
M  V30 19125 H 1814.6 0.64713 0.177379 0
M  V30 19126 H 1817.14 2.0424 -0.103167 0
M  V30 19127 H 1815.3 3.29143 2.04312 0
M  V30 19128 H 1815.71 5.17157 0.874592 0
M  V30 19129 H 1817.19 4.88975 2.5614 0
M  V30 19130 H 1817.66 3.24178 2.96319 0
M  V30 19131 H 1818.27 3.99145 1.46845 0
M  V30 19132 N 1816.58 -0.233136 1.55866 0
M  V30 19133 C 1817.81 -0.980602 1.82754 0
M  V30 19134 C 1818.23 -1.77624 0.618988 0
M  V30 19135 O 1817.59 -1.76074 -0.432148 0
M  V30 19136 C 1817.64 -1.88319 3.07519 0
M  V30 19137 O 1816.74 -2.97692 2.85401 0
M  V30 19138 H 1816.09 -0.278295 0.602867 0
M  V30 19139 H 1818.62 -0.249956 2.03067 0
M  V30 19140 H 1818.63 -2.29523 3.37318 0
M  V30 19141 H 1817.3 -1.29831 3.95116 0
M  V30 19142 H 1815.88 -2.60517 2.66805 0
M  V30 19143 N 1818.06 -1.49479 -0.499372 0
M  V30 19144 C 1819.03 -1.6575 -1.58302 0
M  V30 19145 C 1820.03 -0.529236 -1.51841 0
M  V30 19146 O 1821.22 -0.795721 -1.54964 0
M  V30 19147 C 1818.35 -1.65639 -2.97954 0
M  V30 19148 H 1819.54 -2.62404 -1.45203 0
M  V30 19149 H 1817.09 -1.38535 -0.723725 0
M  V30 19150 H 1817.83 -0.705752 -3.16527 0
M  V30 19151 H 1817.61 -2.47578 -3.04051 0
M  V30 19152 H 1819.1 -1.80279 -3.76682 0
M  V30 19153 N 1819.54 0.750537 -1.38581 0
M  V30 19154 C 1820.77 1.53978 -1.38196 0
M  V30 19155 C 1821.18 1.8878 0.0274976 0
M  V30 19156 O 1820.54 1.52997 0.994894 0
M  V30 19157 C 1820.59 2.83702 -2.24043 0
M  V30 19158 O 1820.31 2.50384 -3.59499 0
M  V30 19159 C 1821.81 3.77823 -2.31872 0
M  V30 19160 H 1819.03 0.476345 -0.472585 0
M  V30 19161 H 1821.58 0.928634 -1.82199 0
M  V30 19162 H 1819.73 3.41187 -1.83494 0
M  V30 19163 H 1820.15 3.33605 -4.04732 0
M  V30 19164 H 1821.62 4.65788 -2.96218 0
M  V30 19165 H 1822.1 4.18474 -1.33327 0
M  V30 19166 H 1822.7 3.26262 -2.72824 0
M  V30 19167 N 1821.02 1.235 0.979051 0
M  V30 19168 C 1821.97 1.01485 2.09293 0
M  V30 19169 C 1822.96 -0.0465937 1.69336 0
M  V30 19170 O 1824.17 0.107021 1.79682 0
M  V30 19171 H 1820.54 0.311087 0.684638 0
M  V30 19172 H 1822.51 1.95972 2.25028 0
M  V30 19173 C 1821.26 0.624167 3.42052 0
M  V30 19174 H 1820.59 1.43265 3.73249 0
M  V30 19175 H 1822.03 0.509648 4.20926 0
M  V30 19176 C 1820.48 -0.667694 3.30217 0
M  V30 19177 O 1821.01 -1.71648 3.6318 0
M  V30 19178 N 1819.22 -0.644122 2.83372 0
M  V30 19179 H 1818.77 0.20969 2.56745 0
M  V30 19180 H 1818.73 -1.50872 2.75835 0
M  V30 19181 N 1822.5 -1.17802 1.04693 0
M  V30 19182 C 1823.75 -1.87271 0.749172 0
M  V30 19183 C 1824.06 -1.81614 -0.726342 0
M  V30 19184 O 1825.27 -2.46506 -1.13785 0
M  V30 19185 C 1823.72 -3.35992 1.28986 0
M  V30 19186 C 1823.33 -3.50163 2.79446 0
M  V30 19187 C 1825.07 -4.10821 1.06892 0
M  V30 19188 C 1822.98 -4.92878 3.26841 0
M  V30 19189 H 1821.91 -0.701451 0.276554 0
M  V30 19190 H 1824.56 -1.33065 1.26357 0
M  V30 19191 H 1822.94 -3.89705 0.703298 0
M  V30 19192 H 1824.12 -3.06692 3.43914 0
M  V30 19193 H 1822.43 -2.88747 3.00023 0
M  V30 19194 H 1825.03 -5.16098 1.39809 0
M  V30 19195 H 1825.37 -4.163 0.00644311 0
M  V30 19196 H 1825.91 -3.633 1.62043 0
M  V30 19197 H 1822.64 -4.92572 4.32497 0
M  V30 19198 H 1822.16 -5.3704 2.67112 0
M  V30 19199 H 1823.84 -5.61624 3.21227 0
M  V30 19200 N 1823.98 -0.827251 -1.34143 0
M  V30 19201 C 1825.22 -0.418003 -1.98445 0
M  V30 19202 C 1825.55 1.01737 -1.65418 0
M  V30 19203 O 1824.83 1.70932 -0.928042 0
M  V30 19204 C 1825.11 -0.625559 -3.54625 0
M  V30 19205 C 1824.97 -2.10736 -3.97379 0
M  V30 19206 C 1826.28 -0.0642701 -4.40053 0
M  V30 19207 H 1823.4 -0.15335 -0.72087 0
M  V30 19208 H 1826.05 -1.04062 -1.58969 0
M  V30 19209 H 1824.2 -0.095577 -3.88382 0
M  V30 19210 H 1825.87 -2.70131 -3.73934 0
M  V30 19211 H 1824.11 -2.59621 -3.47533 0
M  V30 19212 H 1824.78 -2.20338 -5.06118 0
M  V30 19213 H 1827.26 -0.517137 -4.12874 0
M  V30 19214 H 1826.13 -0.239267 -5.48378 0
M  V30 19215 H 1826.39 1.0311 -4.29908 0
M  V30 19216 N 1825.45 1.46436 -0.582609 0
M  V30 19217 C 1826.4 2.30308 0.150697 0
M  V30 19218 C 1827.37 1.40611 0.884185 0
M  V30 19219 O 1828.56 1.6956 0.874874 0
M  V30 19220 C 1825.7 3.25074 1.15847 0
M  V30 19221 C 1824.81 4.2987 0.428442 0
M  V30 19222 C 1823.94 5.11765 1.42373 0
M  V30 19223 C 1822.98 6.0831 0.680103 0
M  V30 19224 N 1822.12 6.83073 1.62345 0
M  V30 19225 H 1826.96 2.92487 -0.570583 0
M  V30 19226 H 1824.5 1.44148 -0.293195 0
M  V30 19227 H 1826.45 3.78462 1.75563 0
M  V30 19228 H 1825.08 2.64704 1.84747 0
M  V30 19229 H 1824.14 3.7934 -0.283744 0
M  V30 19230 H 1825.45 4.98566 -0.15291 0
M  V30 19231 H 1824.6 5.69429 2.09369 0
M  V30 19232 H 1823.34 4.4303 2.03902 0
M  V30 19233 H 1822.35 5.498 -0.00363067 0
M  V30 19234 H 1823.57 6.79064 0.0702152 0
M  V30 19235 H 1821.52 6.17048 2.22684 0
M  V30 19236 H 1821.43 7.48029 1.0949 0
M  V30 19237 H 1822.7 7.45295 2.28376 0
M  V30 19238 N 1826.93 0.320385 1.54309 0
M  V30 19239 C 1828.18 -0.276343 2.01514 0
M  V30 19240 C 1828.53 -1.50026 1.20457 0
M  V30 19241 O 1827.83 -1.89575 0.27782 0
M  V30 19242 C 1828.02 -0.665444 3.5115 0
M  V30 19243 C 1827.85 0.519217 4.46693 0
M  V30 19244 C 1826.62 1.01733 4.94953 0
M  V30 19245 C 1828.82 1.3704 4.95706 0
M  V30 19246 N 1826.8 2.16673 5.74392 0
M  V30 19247 C 1828.17 2.36701 5.73038 0
M  V30 19248 C 1830.22 1.39853 4.77855 0
M  V30 19249 C 1828.93 3.38976 6.34419 0
M  V30 19250 C 1830.95 2.40997 5.40069 0
M  V30 19251 C 1830.32 3.39385 6.17249 0
M  V30 19252 H 1826.41 -0.0650523 0.77929 0
M  V30 19253 H 1829 0.454702 1.89316 0
M  V30 19254 H 1827.17 -1.36563 3.636 0
M  V30 19255 H 1828.9 -1.24337 3.85127 0
M  V30 19256 H 1825.66 0.589128 4.69922 0
M  V30 19257 H 1826.08 2.74642 6.1879 0
M  V30 19258 H 1830.72 0.651536 4.1775 0
M  V30 19259 H 1828.44 4.14583 6.93647 0
M  V30 19260 H 1832.03 2.43971 5.28175 0
M  V30 19261 H 1830.91 4.16368 6.64535 0
M  V30 19262 N 1828.41 -1.57525 0.0484906 0
M  V30 19263 C 1829.66 -1.91761 -0.625335 0
M  V30 19264 C 1829.97 -0.928421 -1.72162 0
M  V30 19265 O 1831.18 -1.16273 -2.45342 0
M  V30 19266 C 1829.63 -3.40571 -1.1636 0
M  V30 19267 C 1829.24 -4.47889 -0.0995687 0
M  V30 19268 C 1830.99 -3.83845 -1.81282 0
M  V30 19269 C 1828.89 -5.87811 -0.650563 0
M  V30 19270 H 1827.82 -0.71567 -0.237346 0
M  V30 19271 H 1830.47 -1.83127 0.116944 0
M  V30 19272 H 1828.86 -3.44201 -1.95811 0
M  V30 19273 H 1830.03 -4.55846 0.673904 0
M  V30 19274 H 1828.34 -4.13939 0.452038 0
M  V30 19275 H 1830.94 -4.8575 -2.23497 0
M  V30 19276 H 1831.28 -3.19947 -2.66345 0
M  V30 19277 H 1831.82 -3.8272 -1.08491 0
M  V30 19278 H 1828.56 -6.55299 0.162371 0
M  V30 19279 H 1828.08 -5.83422 -1.39208 0
M  V30 19280 H 1829.76 -6.36979 -1.1343 0
M  V30 19281 N 1829.89 0.224867 -1.55988 0
M  V30 19282 C 1831.12 0.966727 -1.82926 0
M  V30 19283 C 1831.53 1.78078 -0.627177 0
M  V30 19284 O 1830.89 1.77966 0.404277 0
M  V30 19285 C 1830.94 1.88696 -3.08344 0
M  V30 19286 O 1830.66 1.10581 -4.23914 0
M  V30 19287 C 1832.16 2.74299 -3.48246 0
M  V30 19288 H 1829.38 0.283479 -0.608178 0
M  V30 19289 H 1831.92 0.241097 -2.03074 0
M  V30 19290 H 1830.08 2.56658 -2.90182 0
M  V30 19291 H 1830.49 1.73019 -4.95141 0
M  V30 19292 H 1831.97 3.34577 -4.39047 0
M  V30 19293 H 1832.44 3.46526 -2.69845 0
M  V30 19294 H 1833.05 2.11755 -3.68836 0
M  V30 19295 N 1831.37 1.49742 0.491438 0
M  V30 19296 C 1832.31 1.67115 1.59189 0
M  V30 19297 C 1833.28 0.512523 1.57995 0
M  V30 19298 O 1834.47 0.740693 1.75836 0
M  V30 19299 C 1831.61 1.75258 2.97286 0
M  V30 19300 C 1830.72 3.02488 3.08424 0
M  V30 19301 C 1829.86 3.0155 4.37311 0
M  V30 19302 C 1828.89 4.2332 4.42116 0
M  V30 19303 N 1828.03 4.20238 5.62445 0
M  V30 19304 H 1832.87 2.61073 1.43683 0
M  V30 19305 H 1830.41 1.29435 0.69892 0
M  V30 19306 H 1832.37 1.77959 3.77341 0
M  V30 19307 H 1831 0.847568 3.11474 0
M  V30 19308 H 1830.05 3.09353 2.21371 0
M  V30 19309 H 1831.36 3.92479 3.07834 0
M  V30 19310 H 1830.51 3.02868 5.25695 0
M  V30 19311 H 1829.25 2.09354 4.4048 0
M  V30 19312 H 1828.26 4.22236 3.52132 0
M  V30 19313 H 1829.48 5.1672 4.40656 0
M  V30 19314 H 1827.43 3.30884 5.66438 0
M  V30 19315 H 1827.35 5.03974 5.63512 0
M  V30 19316 H 1828.61 4.25672 6.53011 0
M  V30 19317 N 1832.84 -0.743177 1.38977 0
M  V30 19318 C 1833.78 -1.86709 1.32938 0
M  V30 19319 C 1834.79 -1.61027 0.239644 0
M  V30 19320 O 1835.98 -1.71413 0.497991 0
M  V30 19321 C 1833.08 -3.22566 1.03945 0
M  V30 19322 C 1832.25 -3.75669 2.24034 0
M  V30 19323 C 1831.31 -4.90068 1.91625 0
M  V30 19324 O 1830.34 -5.04156 2.64226 0
M  V30 19325 N 1831.54 -5.7383 0.877465 0
M  V30 19326 H 1834.3 -1.92397 2.2979 0
M  V30 19327 H 1831.86 -0.923564 1.32973 0
M  V30 19328 H 1833.86 -3.96654 0.802977 0
M  V30 19329 H 1832.43 -3.12198 0.15854 0
M  V30 19330 H 1831.65 -2.93027 2.63683 0
M  V30 19331 H 1832.93 -4.07882 3.04154 0
M  V30 19332 H 1832.33 -5.65028 0.275604 0
M  V30 19333 H 1830.89 -6.48021 0.700881 0
M  V30 19334 N 1834.32 -1.24018 -0.972487 0
M  V30 19335 C 1835.25 -0.986185 -2.06899 0
M  V30 19336 C 1836.27 0.0426574 -1.62744 0
M  V30 19337 O 1837.46 -0.193816 -1.77445 0
M  V30 19338 C 1834.56 -0.46551 -3.35688 0
M  V30 19339 C 1833.73 -1.55637 -4.08774 0
M  V30 19340 C 1832.79 -1.03918 -5.15837 0
M  V30 19341 O 1831.81 -1.72986 -5.42277 0
M  V30 19342 N 1833.02 0.128891 -5.80357 0
M  V30 19343 H 1835.78 -1.93025 -2.29263 0
M  V30 19344 H 1833.34 -1.14983 -1.13976 0
M  V30 19345 H 1835.33 -0.104379 -4.04565 0
M  V30 19346 H 1833.9 0.384166 -3.1023 0
M  V30 19347 H 1833.12 -2.08991 -3.3424 0
M  V30 19348 H 1834.41 -2.28973 -4.54366 0
M  V30 19349 H 1833.81 0.706438 -5.61272 0
M  V30 19350 H 1832.37 0.431211 -6.50372 0
M  V30 19351 N 1835.8 1.17245 -1.05316 0
M  V30 19352 C 1836.75 2.23357 -0.649174 0
M  V30 19353 C 1837.74 1.66152 0.33015 0
M  V30 19354 O 1838.95 1.78929 0.196078 0
M  V30 19355 H 1835.32 0.727139 -0.191762 0
M  V30 19356 H 1837.29 2.54728 -1.55423 0
M  V30 19357 C 1836.04 3.47676 -0.0412049 0
M  V30 19358 H 1835.37 3.92 -0.785858 0
M  V30 19359 H 1836.81 4.23509 0.204073 0
M  V30 19360 C 1835.27 3.14326 1.21247 0
M  V30 19361 O 1835.8 3.29218 2.3017 0
M  V30 19362 N 1834 2.68541 1.1106 0
M  V30 19363 H 1833.55 2.56622 0.224212 0
M  V30 19364 H 1833.51 2.466 1.95028 0
M  V30 19365 N 1837.28 0.834353 1.33702 0
M  V30 19366 C 1838.24 0.269618 2.27609 0
M  V30 19367 C 1839.24 -0.559065 1.50768 0
M  V30 19368 O 1840.43 -0.373511 1.70149 0
M  V30 19369 C 1837.56 -0.620682 3.35202 0
M  V30 19370 H 1838.76 1.09819 2.79069 0
M  V30 19371 H 1836.31 0.607087 1.44028 0
M  V30 19372 H 1837.04 -1.47187 2.88975 0
M  V30 19373 H 1836.83 -0.0278102 3.9209 0
M  V30 19374 H 1838.32 -1.00924 4.05221 0
M  V30 19375 N 1838.76 -1.46125 0.590367 0
M  V30 19376 C 1839.69 -2.2852 -0.176393 0
M  V30 19377 C 1840.7 -1.38958 -0.848208 0
M  V30 19378 O 1841.89 -1.63489 -0.716485 0
M  V30 19379 C 1838.99 -3.14214 -1.26974 0
M  V30 19380 C 1838.16 -4.31949 -0.688377 0
M  V30 19381 C 1837.22 -4.98983 -1.67041 0
M  V30 19382 O 1836.25 -5.56332 -1.20345 0
M  V30 19383 N 1837.45 -4.96691 -3.00463 0
M  V30 19384 H 1840.22 -2.94967 0.530546 0
M  V30 19385 H 1837.78 -1.56122 0.42866 0
M  V30 19386 H 1839.77 -3.55924 -1.92614 0
M  V30 19387 H 1838.34 -2.49792 -1.87944 0
M  V30 19388 H 1837.56 -3.93931 0.145677 0
M  V30 19389 H 1838.85 -5.0803 -0.279884 0
M  V30 19390 H 1838.24 -4.51357 -3.41018 0
M  V30 19391 H 1836.8 -5.42318 -3.61572 0
M  V30 19392 N 1840.23 -0.328564 -1.54137 0
M  V30 19393 C 1841.48 0.271967 -2.00262 0
M  V30 19394 C 1841.8 1.5226 -1.21827 0
M  V30 19395 O 1841.07 1.93245 -0.321415 0
M  V30 19396 H 1839.65 0.103484 -0.739797 0
M  V30 19397 H 1842.32 -0.446264 -1.89722 0
M  V30 19398 H 1841.41 0.52488 -3.07655 0
M  V30 19399 N 1841.71 1.57497 -0.0568439 0
M  V30 19400 C 1842.96 1.92533 0.614452 0
M  V30 19401 C 1843.28 0.936373 1.71047 0
M  V30 19402 O 1842.55 -0.0178803 1.95892 0
M  V30 19403 H 1841.13 0.710724 0.229958 0
M  V30 19404 H 1843.79 1.94583 -0.111181 0
M  V30 19405 H 1842.89 2.93928 1.04941 0
M  V30 19406 N 1843.19 -0.216591 1.56105 0
M  V30 19407 C 1844.44 -0.940249 1.79348 0
M  V30 19408 C 1844.77 -1.84135 0.626451 0
M  V30 19409 O 1844.02 -1.91796 -0.388932 0
M  V30 19410 C 1844.32 -1.80637 3.08391 0
M  V30 19411 C 1843.99 -1.05808 4.3831 0
M  V30 19412 C 1842.65 -0.851392 4.73608 0
M  V30 19413 C 1845 -0.530015 5.18498 0
M  V30 19414 C 1842.33 -0.104822 5.86606 0
M  V30 19415 C 1844.68 0.203236 6.32273 0
M  V30 19416 C 1843.34 0.42113 6.6617 0
M  V30 19417 H 1842.61 -0.344062 0.656279 0
M  V30 19418 H 1845.26 -0.208069 1.90366 0
M  V30 19419 H 1843.57 -2.60656 2.92516 0
M  V30 19420 H 1845.26 -2.36852 3.23577 0
M  V30 19421 H 1841.85 -1.22915 4.10597 0
M  V30 19422 H 1846.04 -0.677154 4.91659 0
M  V30 19423 H 1841.29 0.074177 6.11355 0
M  V30 19424 H 1845.47 0.619898 6.93636 0
M  V30 19425 H 1843.09 1.00155 7.53573 0
M  V30 19426 N 1844.67 -1.5 -0.48349 0
M  V30 19427 C 1845.89 -1.64376 -1.26473 0
M  V30 19428 C 1846.32 -0.321912 -1.85325 0
M  V30 19429 O 1845.68 0.712714 -1.66704 0
M  V30 19430 C 1845.72 -2.72803 -2.35819 0
M  V30 19431 O 1844.83 -2.33194 -3.40139 0
M  V30 19432 H 1844.17 -0.549589 -0.372624 0
M  V30 19433 H 1846.7 -1.963 -0.57684 0
M  V30 19434 H 1846.71 -2.95505 -2.8132 0
M  V30 19435 H 1845.38 -3.68745 -1.92353 0
M  V30 19436 H 1843.96 -2.20891 -3.00436 0
M  V30 19437 N 1846.15 0.735796 -1.39369 0
M  V30 19438 C 1847.37 1.53013 -1.40007 0
M  V30 19439 C 1847.8 1.881 0.00368376 0
M  V30 19440 O 1847.15 1.51853 0.990469 0
M  V30 19441 C 1847.2 2.79474 -2.27874 0
M  V30 19442 O 1846.31 3.75364 -1.70808 0
M  V30 19443 H 1845.65 0.462117 -0.476806 0
M  V30 19444 H 1848.18 0.907868 -1.83355 0
M  V30 19445 H 1848.19 3.28217 -2.42358 0
M  V30 19446 H 1846.86 2.53268 -3.29891 0
M  V30 19447 H 1845.44 3.34131 -1.65562 0
M  V30 19448 N 1847.63 1.24532 0.965897 0
M  V30 19449 C 1848.85 1.11318 1.74401 0
M  V30 19450 C 1849.27 -0.33411 1.8582 0
M  V30 19451 O 1848.63 -1.23044 1.34783 0
M  V30 19452 C 1848.68 1.74927 3.16358 0
M  V30 19453 O 1848.4 3.13998 3.05511 0
M  V30 19454 C 1849.9 1.67347 4.105 0
M  V30 19455 H 1847.12 0.388835 0.546853 0
M  V30 19456 H 1849.66 1.64674 1.21255 0
M  V30 19457 H 1847.82 1.2557 3.66485 0
M  V30 19458 H 1848.23 3.45097 3.94979 0
M  V30 19459 H 1849.71 2.16533 5.07757 0
M  V30 19460 H 1850.18 0.635036 4.34585 0
M  V30 19461 H 1850.79 2.16139 3.66284 0
M  V30 19462 N 1849.1 -1.16685 1.05936 0
M  V30 19463 C 1850.04 -2.20516 0.624931 0
M  V30 19464 C 1851.05 -1.59719 -0.315206 0
M  V30 19465 O 1852.24 -1.7818 -0.106761 0
M  V30 19466 C 1849.34 -3.38739 -0.10452 0
M  V30 19467 C 1848.51 -4.29097 0.848197 0
M  V30 19468 C 1847.57 -5.25961 0.158648 0
M  V30 19469 O 1846.6 -5.63619 0.795149 0
M  V30 19470 N 1847.8 -5.69961 -1.10115 0
M  V30 19471 H 1850.56 -2.58408 1.51807 0
M  V30 19472 H 1848.12 -1.31658 0.942216 0
M  V30 19473 H 1850.12 -4.00578 -0.576133 0
M  V30 19474 H 1848.69 -2.99382 -0.899414 0
M  V30 19475 H 1847.91 -3.64576 1.49927 0
M  V30 19476 H 1849.19 -4.86352 1.49463 0
M  V30 19477 H 1848.59 -5.41452 -1.63847 0
M  V30 19478 H 1847.15 -6.33908 -1.51669 0
M  V30 19479 N 1850.58 -0.841432 -1.33258 0
M  V30 19480 C 1851.86 -0.360204 -1.92255 0
M  V30 19481 C 1852.24 1.15474 -1.76717 0
M  V30 19482 O 1851.59 1.97035 -1.15713 0
M  V30 19483 C 1851.8 -0.809942 -3.39472 0
M  V30 19484 C 1853.14 -0.819444 -4.16618 0
M  V30 19485 O 1854.17 -0.753715 -3.48134 0
M  V30 19486 O 1853.03 -0.909553 -5.38878 0
M  V30 19487 H 1850.12 -0.102458 -0.820629 0
M  V30 19488 H 1852.67 -0.927455 -1.42114 0
M  V30 19489 H 1851.44 -1.85263 -3.44664 0
M  V30 19490 H 1851.06 -0.219406 -3.96994 0
M  V30 19491 N 1852.06 1.4581 -0.598108 0
M  V30 19492 C 1853.29 2.06679 -0.0956921 0
M  V30 19493 C 1853.7 1.44435 1.2159 0
M  V30 19494 O 1853.06 0.555104 1.73853 0
M  V30 19495 C 1853.11 3.61449 0.0604873 0
M  V30 19496 O 1852.83 4.21368 -1.1992 0
M  V30 19497 C 1854.33 4.39282 0.595466 0
M  V30 19498 H 1851.55 0.667893 -0.0644954 0
M  V30 19499 H 1854.1 1.87202 -0.823151 0
M  V30 19500 H 1852.25 3.80301 0.738231 0
M  V30 19501 H 1852.67 5.1443 -1.02282 0
M  V30 19502 H 1854.14 5.48114 0.653868 0
M  V30 19503 H 1854.62 4.084 1.61575 0
M  V30 19504 H 1855.22 4.25273 -0.0479171 0
M  V30 19505 N 1853.54 0.336733 1.53961 0
M  V30 19506 C 1854.78 -0.262248 2.01097 0
M  V30 19507 C 1855.12 -1.50745 1.22431 0
M  V30 19508 O 1854.39 -1.92012 0.310103 0
M  V30 19509 C 1854.67 -0.583219 3.55346 0
M  V30 19510 C 1854.53 0.67361 4.44727 0
M  V30 19511 C 1855.85 -1.39558 4.17386 0
M  V30 19512 H 1852.97 -0.0938423 0.731001 0
M  V30 19513 H 1855.61 0.455921 1.84449 0
M  V30 19514 H 1853.76 -1.19505 3.69663 0
M  V30 19515 H 1855.43 1.31168 4.42258 0
M  V30 19516 H 1853.67 1.29987 4.13867 0
M  V30 19517 H 1854.34 0.404382 5.50517 0
M  V30 19518 H 1856.82 -0.878292 4.06725 0
M  V30 19519 H 1855.7 -1.58892 5.25399 0
M  V30 19520 H 1855.96 -2.39567 3.71564 0
M  V30 19521 N 1855.02 -1.57465 0.0651956 0
M  V30 19522 C 1856.26 -1.93524 -0.606325 0
M  V30 19523 C 1856.59 -0.944947 -1.6966 0
M  V30 19524 O 1855.87 0.0268871 -1.94481 0
M  V30 19525 C 1856.15 -3.3989 -1.18941 0
M  V30 19526 C 1856.01 -4.49675 -0.106235 0
M  V30 19527 C 1857.32 -3.86935 -2.09689 0
M  V30 19528 H 1854.44 -0.703729 -0.218939 0
M  V30 19529 H 1857.09 -1.89556 0.12982 0
M  V30 19530 H 1855.24 -3.43402 -1.81679 0
M  V30 19531 H 1856.91 -4.58286 0.526483 0
M  V30 19532 H 1855.15 -4.30118 0.563985 0
M  V30 19533 H 1855.82 -5.49208 -0.554488 0
M  V30 19534 H 1858.3 -3.85387 -1.56895 0
M  V30 19535 H 1857.17 -4.89972 -2.47424 0
M  V30 19536 H 1857.43 -3.24496 -3.00258 0
M  V30 19537 N 1856.49 0.20831 -1.56217 0
M  V30 19538 C 1857.46 1.24178 -1.92646 0
M  V30 19539 C 1858.46 1.39125 -0.806274 0
M  V30 19540 O 1859.65 1.37163 -1.07386 0
M  V30 19541 C 1856.78 2.61342 -2.18891 0
M  V30 19542 H 1857.97 0.930748 -2.85091 0
M  V30 19543 H 1855.52 0.449285 -1.49703 0
M  V30 19544 H 1856.26 2.97521 -1.29041 0
M  V30 19545 H 1856.04 2.51866 -3.00509 0
M  V30 19546 H 1857.53 3.35892 -2.48125 0
M  V30 19547 N 1857.97 1.50255 0.475528 0
M  V30 19548 C 1858.9 1.71721 1.58222 0
M  V30 19549 C 1859.88 0.56612 1.60403 0
M  V30 19550 O 1861.07 0.804774 1.7674 0
M  V30 19551 C 1858.2 1.80726 2.96573 0
M  V30 19552 C 1857.15 2.95877 3.09258 0
M  V30 19553 C 1856.48 2.9002 4.49213 0
M  V30 19554 C 1857.78 4.36452 2.86891 0
M  V30 19555 H 1859.47 2.6438 1.40511 0
M  V30 19556 H 1857.02 1.27224 0.674533 0
M  V30 19557 H 1858.97 1.94328 3.73918 0
M  V30 19558 H 1857.69 0.846846 3.1543 0
M  V30 19559 H 1856.35 2.81918 2.34345 0
M  V30 19560 H 1856 1.91834 4.64982 0
M  V30 19561 H 1855.7 3.67322 4.58637 0
M  V30 19562 H 1857.23 3.05665 5.28584 0
M  V30 19563 H 1858.64 4.5096 3.53989 0
M  V30 19564 H 1857.04 5.15171 3.07765 0
M  V30 19565 H 1858.11 4.49129 1.82786 0
M  V30 19566 N 1859.45 -0.728395 1.39758 0
M  V30 19567 C 1860.4 -1.83374 1.35491 0
M  V30 19568 C 1861.38 -1.5918 0.234629 0
M  V30 19569 O 1862.58 -1.70571 0.472703 0
M  V30 19570 C 1859.7 -3.21373 1.20725 0
M  V30 19571 C 1858.79 -3.51373 2.37482 0
M  V30 19572 N 1859.18 -3.52269 3.6296 0
M  V30 19573 C 1857.48 -3.81769 2.30583 0
M  V30 19574 C 1858.18 -3.80252 4.40208 0
M  V30 19575 N 1857.16 -3.98359 3.6988 0
M  V30 19576 H 1860.96 -1.82381 2.30465 0
M  V30 19577 H 1858.47 -0.926941 1.33348 0
M  V30 19578 H 1860.47 -4.00509 1.15751 0
M  V30 19579 H 1859.13 -3.236 0.267072 0
M  V30 19580 H 1860.14 -3.33423 3.96295 0
M  V30 19581 H 1856.82 -3.91562 1.44862 0
M  V30 19582 H 1858.21 -3.87357 5.49003 0
M  V30 19583 N 1860.93 -1.25042 -0.959279 0
M  V30 19584 C 1861.89 -1.05107 -2.03679 0
M  V30 19585 C 1862.89 -0.0054691 -1.60799 0
M  V30 19586 O 1864.08 -0.247225 -1.72437 0
M  V30 19587 C 1861.21 -0.594881 -3.35669 0
M  V30 19588 H 1862.41 -2.00753 -2.22796 0
M  V30 19589 H 1859.96 -1.07384 -1.13571 0
M  V30 19590 H 1860.69 0.364387 -3.22246 0
M  V30 19591 H 1860.48 -1.34966 -3.68139 0
M  V30 19592 H 1861.97 -0.476698 -4.1487 0
M  V30 19593 N 1862.41 1.16121 -1.06553 0
M  V30 19594 C 1863.34 2.22761 -0.699976 0
M  V30 19595 C 1864.32 1.67274 0.308783 0
M  V30 19596 O 1865.5 1.93333 0.183328 0
M  V30 19597 C 1862.63 3.47187 -0.0884044 0
M  V30 19598 C 1861.59 4.15584 -1.02343 0
M  V30 19599 C 1860.91 5.33992 -0.275022 0
M  V30 19600 C 1862.21 4.66266 -2.35358 0
M  V30 19601 H 1863.91 2.53595 -1.59153 0
M  V30 19602 H 1861.45 1.21893 -0.766686 0
M  V30 19603 H 1863.41 4.21019 0.17922 0
M  V30 19604 H 1862.13 3.15661 0.838181 0
M  V30 19605 H 1860.79 3.43683 -1.27584 0
M  V30 19606 H 1860.44 4.9872 0.654765 0
M  V30 19607 H 1860.14 5.80695 -0.898181 0
M  V30 19608 H 1861.66 6.10598 -0.0150056 0
M  V30 19609 H 1863.07 5.31665 -2.14488 0
M  V30 19610 H 1861.47 5.236 -2.93195 0
M  V30 19611 H 1862.54 3.82335 -2.98241 0
M  V30 19612 N 1863.88 0.848487 1.3281 0
M  V30 19613 C 1865.11 0.46174 2.02195 0
M  V30 19614 C 1865.53 -0.932159 1.63378 0
M  V30 19615 O 1864.89 -1.6112 0.831266 0
M  V30 19616 C 1864.94 0.601234 3.55552 0
M  V30 19617 O 1864.04 -0.368549 4.1075 0
M  V30 19618 H 1863.39 0.186379 0.637306 0
M  V30 19619 H 1865.92 1.14598 1.69495 0
M  V30 19620 H 1865.93 0.486456 4.0509 0
M  V30 19621 H 1864.6 1.61773 3.83148 0
M  V30 19622 H 1863.18 -0.210525 3.72305 0
M  V30 19623 N 1865.36 -1.4549 0.605832 0
M  V30 19624 C 1866.31 -2.30518 -0.114038 0
M  V30 19625 C 1867.28 -1.42 -0.861703 0
M  V30 19626 O 1868.46 -1.7093 -0.847788 0
M  V30 19627 C 1865.6 -3.26876 -1.10661 0
M  V30 19628 C 1864.72 -4.30497 -0.359999 0
M  V30 19629 C 1863.85 -5.13965 -1.34214 0
M  V30 19630 C 1862.89 -6.09315 -0.58324 0
M  V30 19631 N 1862.03 -6.85569 -1.51457 0
M  V30 19632 H 1866.87 -2.91542 0.617043 0
M  V30 19633 H 1864.41 -1.43664 0.31609 0
M  V30 19634 H 1866.36 -3.81207 -1.69519 0
M  V30 19635 H 1864.99 -2.6761 -1.80512 0
M  V30 19636 H 1864.05 -3.78841 0.344058 0
M  V30 19637 H 1865.36 -4.98259 0.232208 0
M  V30 19638 H 1864.51 -5.72688 -2.00283 0
M  V30 19639 H 1863.25 -4.46218 -1.96828 0
M  V30 19640 H 1862.26 -5.49725 0.0910986 0
M  V30 19641 H 1863.48 -6.79089 0.0378268 0
M  V30 19642 H 1861.43 -6.20512 -2.12839 0
M  V30 19643 H 1861.34 -7.49677 -0.97576 0
M  V30 19644 H 1862.61 -7.48834 -2.1649 0
M  V30 19645 N 1866.84 -0.344893 -1.5378 0
M  V30 19646 C 1868.07 0.252193 -2.05055 0
M  V30 19647 C 1868.48 1.44657 -1.21947 0
M  V30 19648 O 1867.82 1.82018 -0.248012 0
M  V30 19649 C 1867.88 0.729619 -3.52018 0
M  V30 19650 C 1867.55 -0.345284 -4.55694 0
M  V30 19651 C 1868.54 -1.18843 -5.06135 0
M  V30 19652 C 1866.23 -0.499596 -4.99809 0
M  V30 19653 C 1868.22 -2.17141 -5.99273 0
M  V30 19654 C 1865.91 -1.48598 -5.92758 0
M  V30 19655 C 1866.91 -2.32033 -6.42378 0
M  V30 19656 O 1866.6 -3.28992 -7.33498 0
M  V30 19657 H 1866.33 0.0522523 -0.673978 0
M  V30 19658 H 1868.88 -0.495473 -1.99334 0
M  V30 19659 H 1867.11 1.52855 -3.55207 0
M  V30 19660 H 1868.8 1.2474 -3.86257 0
M  V30 19661 H 1869.57 -1.0803 -4.72816 0
M  V30 19662 H 1865.45 0.14 -4.60787 0
M  V30 19663 H 1868.99 -2.82303 -6.37927 0
M  V30 19664 H 1864.89 -1.59466 -6.25493 0
M  V30 19665 H 1865.66 -3.24479 -7.51436 0
M  V30 19666 N 1868.32 1.57428 -0.0735454 0
M  V30 19667 C 1869.57 1.93174 0.593996 0
M  V30 19668 C 1869.89 0.954462 1.70044 0
M  V30 19669 O 1869.16 0.00289765 1.959 0
M  V30 19670 H 1867.74 0.713123 0.222407 0
M  V30 19671 H 1870.4 1.94454 -0.131813 0
M  V30 19672 H 1869.5 2.95025 1.01818 0
M  V30 19673 N 1869.8 -0.200022 1.56326 0
M  V30 19674 C 1870.76 -1.23155 1.93302 0
M  V30 19675 C 1871.76 -1.38696 0.81364 0
M  V30 19676 O 1872.95 -1.36592 1.08112 0
M  V30 19677 C 1870.08 -2.60177 2.20274 0
M  V30 19678 H 1871.27 -0.915616 2.85581 0
M  V30 19679 H 1868.83 -0.44134 1.4994 0
M  V30 19680 H 1869.56 -2.96833 1.30617 0
M  V30 19681 H 1869.35 -2.50269 3.01841 0
M  V30 19682 H 1870.84 -3.34572 2.49903 0
M  V30 19683 N 1871.27 -1.50505 -0.467553 0
M  V30 19684 C 1872.24 -1.69071 -1.54751 0
M  V30 19685 C 1873.24 -0.561325 -1.50684 0
M  V30 19686 O 1874.43 -0.828412 -1.53242 0
M  V30 19687 C 1871.56 -1.71922 -2.94373 0
M  V30 19688 H 1872.75 -2.65425 -1.39605 0
M  V30 19689 H 1870.31 -1.40039 -0.694177 0
M  V30 19690 H 1871.04 -0.772734 -3.14959 0
M  V30 19691 H 1870.83 -2.53972 -2.98732 0
M  V30 19692 H 1872.32 -1.88228 -3.72773 0
M  V30 19693 N 1872.75 0.720973 -1.40142 0
M  V30 19694 C 1873.98 1.51012 -1.41431 0
M  V30 19695 C 1874.4 1.88796 -0.0125516 0
M  V30 19696 O 1873.75 1.55073 0.962217 0
M  V30 19697 C 1873.8 2.78886 -2.3001 0
M  V30 19698 O 1873.52 2.42703 -3.64729 0
M  V30 19699 C 1875.03 3.7282 -2.39834 0
M  V30 19700 H 1872.25 0.466214 -0.482582 0
M  V30 19701 H 1874.79 0.889777 -1.84128 0
M  V30 19702 H 1872.94 3.37219 -1.90689 0
M  V30 19703 H 1873.36 3.24945 -4.11717 0
M  V30 19704 H 1874.83 4.594 -3.06032 0
M  V30 19705 H 1875.31 4.15552 -1.42173 0
M  V30 19706 H 1875.92 3.20402 -2.79684 0
M  V30 19707 N 1874.23 1.25549 0.952634 0
M  V30 19708 C 1875.48 1.10416 1.69748 0
M  V30 19709 C 1875.81 -0.354517 1.91242 0
M  V30 19710 O 1875.06 -1.27756 1.48246 0
M  V30 19711 C 1875.36 1.80586 3.08421 0
M  V30 19712 C 1875.03 3.30504 3.06721 0
M  V30 19713 C 1873.69 3.71402 3.05965 0
M  V30 19714 C 1876.04 4.26275 2.99898 0
M  V30 19715 C 1873.37 5.06478 2.96137 0
M  V30 19716 C 1875.72 5.61378 2.91612 0
M  V30 19717 C 1874.38 6.01601 2.89192 0
M  V30 19718 H 1873.65 0.404041 0.621154 0
M  V30 19719 H 1876.3 1.55848 1.11283 0
M  V30 19720 H 1874.61 1.27592 3.70442 0
M  V30 19721 H 1876.3 1.66328 3.64878 0
M  V30 19722 H 1872.89 2.97965 3.08083 0
M  V30 19723 H 1877.08 3.95669 2.996 0
M  V30 19724 H 1872.33 5.3682 2.92633 0
M  V30 19725 H 1876.51 6.3528 2.85294 0
M  V30 19726 H 1874.13 7.06227 2.81333 0
M  V30 19727 N 1875.71 -1.15554 1.07168 0
M  V30 19728 C 1876.94 -1.90182 0.81477 0
M  V30 19729 C 1877.35 -1.77914 -0.631829 0
M  V30 19730 O 1876.71 -1.1298 -1.43324 0
M  V30 19731 C 1876.76 -3.40593 1.21155 0
M  V30 19732 O 1876.48 -3.52504 2.60139 0
M  V30 19733 C 1877.98 -4.32248 0.983675 0
M  V30 19734 H 1875.2 -0.602804 0.294735 0
M  V30 19735 H 1877.75 -1.46419 1.42764 0
M  V30 19736 H 1875.9 -3.82026 0.643041 0
M  V30 19737 H 1876.31 -4.45839 2.76275 0
M  V30 19738 H 1877.79 -5.3621 1.31084 0
M  V30 19739 H 1878.27 -4.39127 -0.0801022 0
M  V30 19740 H 1878.87 -3.96556 1.537 0
M  V30 19741 N 1877.19 -0.855519 -1.32358 0
M  V30 19742 C 1878.6 -0.545491 -1.49989 0
M  V30 19743 C 1878.8 0.923656 -1.79083 0
M  V30 19744 O 1877.86 1.70664 -1.86091 0
M  V30 19745 C 1879.17 -1.43323 -2.64347 0
M  V30 19746 C 1880.72 -1.43374 -2.78232 0
M  V30 19747 C 1881.2 -2.30671 -3.9567 0
M  V30 19748 N 1882.69 -2.28471 -4.02933 0
M  V30 19749 C 1883.42 -2.92746 -4.93039 0
M  V30 19750 N 1882.92 -3.66136 -5.88147 0
M  V30 19751 N 1884.71 -2.82129 -4.86168 0
M  V30 19752 H 1876.86 -1.80633 -1.11738 0
M  V30 19753 H 1879.12 -0.771568 -0.550805 0
M  V30 19754 H 1878.83 -2.47797 -2.49578 0
M  V30 19755 H 1878.7 -1.12125 -3.6015 0
M  V30 19756 H 1881.09 -0.396641 -2.92422 0
M  V30 19757 H 1881.17 -1.78588 -1.83139 0
M  V30 19758 H 1880.82 -3.3445 -3.82238 0
M  V30 19759 H 1880.75 -1.92789 -4.90041 0
M  V30 19760 H 1883.24 -1.75115 -3.34878 0
M  V30 19761 H 1883.55 -4.12344 -6.536 0
M  V30 19762 H 1881.9 -3.70244 -5.88171 0
M  V30 19763 H 1885.09 -2.24344 -4.10837 0
M  V30 19764 H 1885.26 -3.32502 -5.56189 0
M  V30 19765 N 1878.67 1.45167 -0.61354 0
M  V30 19766 C 1879.89 2.06565 -0.117608 0
M  V30 19767 C 1880.31 1.45716 1.20051 0
M  V30 19768 O 1879.67 0.573512 1.73254 0
M  V30 19769 C 1879.72 3.61493 0.0221474 0
M  V30 19770 O 1879.44 4.20072 -1.24383 0
M  V30 19771 C 1880.94 4.39889 0.548841 0
M  V30 19772 H 1878.16 0.667172 -0.0715756 0
M  V30 19773 H 1880.7 1.86318 -0.84296 0
M  V30 19774 H 1878.86 3.81063 0.697854 0
M  V30 19775 H 1879.27 5.13317 -1.07733 0
M  V30 19776 H 1880.75 5.48776 0.595696 0
M  V30 19777 H 1881.22 4.1009 1.57234 0
M  V30 19778 H 1881.83 4.25198 -0.0930203 0
M  V30 19779 N 1880.14 0.353044 1.53595 0
M  V30 19780 C 1881.39 -0.240073 2.00669 0
M  V30 19781 C 1881.71 -1.50303 1.24234 0
M  V30 19782 O 1880.98 -1.92709 0.352118 0
M  V30 19783 H 1879.56 -0.0917016 0.74135 0
M  V30 19784 H 1882.22 0.47639 1.88988 0
M  V30 19785 H 1881.32 -0.475869 3.08451 0
M  V30 19786 N 1881.62 -1.57387 0.0818932 0
M  V30 19787 C 1882.57 -2.13292 -0.881772 0
M  V30 19788 C 1883.54 -1.04801 -1.28864 0
M  V30 19789 O 1884.72 -1.32519 -1.37272 0
M  V30 19790 C 1881.86 -2.70708 -2.14035 0
M  V30 19791 C 1880.98 -3.93388 -1.78522 0
M  V30 19792 C 1880.11 -4.39013 -2.99067 0
M  V30 19793 C 1879.15 -5.54315 -2.59617 0
M  V30 19794 N 1878.29 -5.94853 -3.72954 0
M  V30 19795 H 1883.13 -2.95328 -0.398167 0
M  V30 19796 H 1880.66 -1.45934 -0.184876 0
M  V30 19797 H 1882.62 -3.0211 -2.87724 0
M  V30 19798 H 1881.25 -1.91421 -2.59919 0
M  V30 19799 H 1880.3 -3.68384 -0.948546 0
M  V30 19800 H 1881.62 -4.77106 -1.45505 0
M  V30 19801 H 1880.77 -4.72129 -3.81023 0
M  V30 19802 H 1879.51 -3.54169 -3.35284 0
M  V30 19803 H 1878.51 -5.2084 -1.76084 0
M  V30 19804 H 1879.74 -6.40898 -2.24558 0
M  V30 19805 H 1877.69 -5.12957 -4.08915 0
M  V30 19806 H 1877.6 -6.73335 -3.43739 0
M  V30 19807 H 1878.87 -6.32595 -4.5546 0
M  V30 19808 N 1883.1 0.191729 -1.56429 0
M  V30 19809 C 1884.06 1.22128 -1.93952 0
M  V30 19810 C 1885.06 1.38262 -0.820984 0
M  V30 19811 O 1886.25 1.36017 -1.08835 0
M  V30 19812 C 1883.38 2.59005 -2.21651 0
M  V30 19813 H 1884.58 0.900458 -2.86063 0
M  V30 19814 H 1882.13 0.433382 -1.50172 0
M  V30 19815 H 1882.87 2.96136 -1.32189 0
M  V30 19816 H 1882.65 2.48665 -3.03164 0
M  V30 19817 H 1884.14 3.33242 -2.51674 0
M  V30 19818 N 1884.58 1.50751 0.459565 0
M  V30 19819 C 1885.54 1.69889 1.53852 0
M  V30 19820 C 1886.54 0.569308 1.50385 0
M  V30 19821 O 1887.73 0.836527 1.528 0
M  V30 19822 C 1884.86 1.73481 2.93457 0
M  V30 19823 H 1886.06 2.66162 1.38195 0
M  V30 19824 H 1883.61 1.40405 0.686741 0
M  V30 19825 H 1884.34 0.789426 3.14545 0
M  V30 19826 H 1884.13 2.55553 2.97381 0
M  V30 19827 H 1885.62 1.90202 3.7177 0
M  V30 19828 N 1886.06 -0.713531 1.40522 0
M  V30 19829 C 1886.99 -1.83847 1.36868 0
M  V30 19830 C 1888 -1.60482 0.273746 0
M  V30 19831 O 1889.19 -1.70318 0.534238 0
M  V30 19832 C 1886.29 -3.20288 1.10764 0
M  V30 19833 C 1885.46 -3.70833 2.31952 0
M  V30 19834 C 1884.52 -4.85893 2.01977 0
M  V30 19835 O 1883.55 -4.98438 2.74861 0
M  V30 19836 N 1884.75 -5.7184 0.998985 0
M  V30 19837 H 1887.51 -1.87479 2.3382 0
M  V30 19838 H 1885.08 -0.895151 1.34902 0
M  V30 19839 H 1887.07 -3.94861 0.886932 0
M  V30 19840 H 1885.64 -3.11791 0.224726 0
M  V30 19841 H 1884.86 -2.87368 2.6984 0
M  V30 19842 H 1886.15 -4.01339 3.12738 0
M  V30 19843 H 1885.54 -5.64317 0.395392 0
M  V30 19844 H 1884.1 -6.46388 0.838178 0
M  V30 19845 N 1887.53 -1.26053 -0.945962 0
M  V30 19846 C 1888.78 -1.1148 -1.69411 0
M  V30 19847 C 1889.11 0.341927 -1.91166 0
M  V30 19848 O 1888.39 1.2515 -1.48888 0
M  V30 19849 C 1888.67 -1.87915 -3.07181 0
M  V30 19850 C 1888.52 -3.41466 -2.92781 0
M  V30 19851 C 1889.84 -1.66917 -4.07218 0
M  V30 19852 H 1886.96 -0.406361 -0.614849 0
M  V30 19853 H 1889.6 -1.54991 -1.099 0
M  V30 19854 H 1887.75 -1.50934 -3.57982 0
M  V30 19855 H 1889.43 -3.88172 -2.49238 0
M  V30 19856 H 1887.67 -3.68735 -2.2851 0
M  V30 19857 H 1888.34 -3.90171 -3.90475 0
M  V30 19858 H 1890.82 -1.99127 -3.6536 0
M  V30 19859 H 1889.69 -2.22821 -5.01639 0
M  V30 19860 H 1889.95 -0.612576 -4.37835 0
M  V30 19861 N 1889.01 1.14984 -1.07779 0
M  V30 19862 C 1890.24 1.89747 -0.824844 0
M  V30 19863 C 1890.65 1.78246 0.622385 0
M  V30 19864 O 1890.01 1.13739 1.42723 0
M  V30 19865 C 1890.06 3.39946 -1.2296 0
M  V30 19866 O 1889.78 3.5112 -2.62005 0
M  V30 19867 C 1891.28 4.31721 -1.00658 0
M  V30 19868 H 1888.5 0.601232 -0.297928 0
M  V30 19869 H 1891.05 1.4566 -1.43539 0
M  V30 19870 H 1889.2 3.81679 -0.663292 0
M  V30 19871 H 1889.62 4.44367 -2.78636 0
M  V30 19872 H 1891.09 5.35507 -1.33925 0
M  V30 19873 H 1891.57 4.39163 0.0568131 0
M  V30 19874 H 1892.17 3.95735 -1.55801 0
M  V30 19875 N 1890.49 0.862526 1.31902 0
M  V30 19876 C 1891.74 0.465956 1.96244 0
M  V30 19877 C 1892.05 -0.985243 1.68974 0
M  V30 19878 O 1893.26 -1.48761 2.27118 0
M  V30 19879 C 1891.71 0.782319 3.51294 0
M  V30 19880 C 1891.32 2.24978 3.87413 0
M  V30 19881 C 1893.07 0.453857 4.22067 0
M  V30 19882 C 1890.97 2.50894 5.35543 0
M  V30 19883 H 1889.9 0.170515 0.734466 0
M  V30 19884 H 1892.55 1.0544 1.50182 0
M  V30 19885 H 1890.94 0.123217 3.95808 0
M  V30 19886 H 1892.11 2.95132 3.53884 0
M  V30 19887 H 1890.42 2.54354 3.29687 0
M  V30 19888 H 1893.02 0.624812 5.31037 0
M  V30 19889 H 1893.36 -0.605145 4.11878 0
M  V30 19890 H 1893.9 1.06918 3.83162 0
M  V30 19891 H 1890.64 3.55449 5.5076 0
M  V30 19892 H 1890.16 1.85326 5.70451 0
M  V30 19893 H 1891.84 2.35244 6.02718 0
M  V30 19894 N 1891.97 -1.4484 0.62123 0
M  V30 19895 C 1892.9 -2.28843 -0.127881 0
M  V30 19896 C 1893.91 -1.40726 -0.818542 0
M  V30 19897 O 1895.1 -1.64972 -0.681645 0
M  V30 19898 C 1892.2 -3.16837 -1.20281 0
M  V30 19899 C 1891.38 -4.33312 -0.5966 0
M  V30 19900 C 1890.43 -5.02414 -1.56419 0
M  V30 19901 O 1889.46 -5.5876 -1.08517 0
M  V30 19902 N 1890.66 -5.02953 -2.8986 0
M  V30 19903 H 1893.43 -2.93775 0.592994 0
M  V30 19904 H 1890.99 -1.55178 0.461679 0
M  V30 19905 H 1892.98 -3.59929 -1.85021 0
M  V30 19906 H 1891.55 -2.53722 -1.82603 0
M  V30 19907 H 1890.77 -3.93533 0.229203 0
M  V30 19908 H 1892.06 -5.08509 -0.17206 0
M  V30 19909 H 1891.46 -4.58489 -3.31367 0
M  V30 19910 H 1890.01 -5.49866 -3.49987 0
M  V30 19911 N 1893.45 -0.361184 -1.53405 0
M  V30 19912 C 1894.67 0.233383 -2.06083 0
M  V30 19913 C 1895.1 1.42029 -1.23326 0
M  V30 19914 O 1894.45 1.79551 -0.251249 0
M  V30 19915 C 1894.5 0.609243 -3.55416 0
M  V30 19916 O 1893.61 1.70705 -3.75411 0
M  V30 19917 H 1892.95 0.035021 -0.663076 0
M  V30 19918 H 1895.48 -0.520514 -1.97868 0
M  V30 19919 H 1895.49 0.881483 -3.98364 0
M  V30 19920 H 1894.16 -0.25866 -4.15095 0
M  V30 19921 H 1892.74 1.4307 -3.44362 0
M  V30 19922 N 1894.92 1.57341 -0.0902386 0
M  V30 19923 C 1896.15 1.98934 0.586524 0
M  V30 19924 C 1896.57 0.968841 1.6123 0
M  V30 19925 O 1895.93 -0.0632868 1.8119 0
M  V30 19926 C 1895.98 3.39509 1.21516 0
M  V30 19927 O 1895.08 3.40203 2.331 0
M  V30 19928 H 1894.43 0.647009 0.14925 0
M  V30 19929 H 1896.96 2.03891 -0.170213 0
M  V30 19930 H 1896.97 3.77097 1.55762 0
M  V30 19931 H 1895.64 4.13308 0.463639 0
M  V30 19932 H 1894.22 3.14405 2.0051 0
M  V30 19933 N 1896.4 -0.183431 1.56529 0
M  V30 19934 C 1897.65 -0.900214 1.80944 0
M  V30 19935 C 1897.97 -1.83302 0.665246 0
M  V30 19936 O 1897.24 -1.9334 -0.315697 0
M  V30 19937 H 1895.82 -0.335409 0.667465 0
M  V30 19938 H 1898.48 -0.186146 1.94009 0
M  V30 19939 H 1897.58 -1.48437 2.74541 0
M  V30 19940 N 1897.88 -1.50992 -0.451564 0
M  V30 19941 C 1899.11 -1.66741 -1.22495 0
M  V30 19942 C 1899.52 -0.358787 -1.8536 0
M  V30 19943 O 1898.88 0.661312 -1.70097 0
M  V30 19944 C 1898.93 -2.77281 -2.31943 0
M  V30 19945 O 1898.65 -4.03072 -1.71652 0
M  V30 19946 C 1900.15 -3.04175 -3.22479 0
M  V30 19947 H 1897.37 -0.55994 -0.369741 0
M  V30 19948 H 1899.92 -1.97329 -0.536785 0
M  V30 19949 H 1898.07 -2.49332 -2.965 0
M  V30 19950 H 1898.49 -4.64354 -2.43875 0
M  V30 19951 H 1899.96 -3.85137 -3.95441 0
M  V30 19952 H 1900.44 -2.16015 -3.82406 0
M  V30 19953 H 1901.04 -3.33729 -2.63638 0
M  V30 19954 N 1899.36 0.706069 -1.40899 0
M  V30 19955 C 1900.61 1.46604 -1.39691 0
M  V30 19956 C 1900.93 1.945 -0.00244032 0
M  V30 19957 O 1900.19 1.69172 0.983828 0
M  V30 19958 C 1900.49 2.70045 -2.34116 0
M  V30 19959 C 1900.15 2.40863 -3.81177 0
M  V30 19960 C 1898.82 2.32615 -4.21241 0
M  V30 19961 C 1901.17 2.16582 -4.74069 0
M  V30 19962 C 1898.5 1.98167 -5.5222 0
M  V30 19963 C 1900.85 1.83645 -6.05357 0
M  V30 19964 C 1899.51 1.73885 -6.44454 0
M  V30 19965 H 1898.78 0.536463 -0.511164 0
M  V30 19966 H 1901.43 0.807941 -1.73622 0
M  V30 19967 H 1899.73 3.40738 -1.93403 0
M  V30 19968 H 1901.43 3.2816 -2.3046 0
M  V30 19969 H 1898.02 2.48173 -3.49439 0
M  V30 19970 H 1902.2 2.21905 -4.43928 0
M  V30 19971 H 1897.46 1.89155 -5.81404 0
M  V30 19972 H 1901.63 1.63873 -6.76845 0
M  V30 19973 H 1899.26 1.46959 -7.4586 0
M  V30 19974 N 1900.84 1.26553 0.939264 0
M  V30 19975 C 1902.06 1.15098 1.72532 0
M  V30 19976 C 1902.49 -0.289811 1.85854 0
M  V30 19977 O 1901.84 -1.20997 1.35017 0
M  V30 19978 C 1901.89 1.82703 3.10889 0
M  V30 19979 O 1901 1.11712 3.96981 0
M  V30 19980 H 1900.34 0.40095 0.529278 0
M  V30 19981 H 1902.87 1.67408 1.17625 0
M  V30 19982 H 1902.88 1.89603 3.61268 0
M  V30 19983 H 1901.55 2.87519 3.00509 0
M  V30 19984 H 1900.13 1.12801 3.5543 0
M  V30 19985 N 1902.31 -1.14411 1.08387 0
M  V30 19986 C 1903.54 -1.89848 0.835015 0
M  V30 19987 C 1903.96 -1.78034 -0.607091 0
M  V30 19988 O 1903.32 -1.12039 -1.42538 0
M  V30 19989 C 1903.37 -3.37818 1.26141 0
M  V30 19990 O 1902.47 -4.10325 0.41322 0
M  V30 19991 H 1901.82 -0.590682 0.303299 0
M  V30 19992 H 1904.35 -1.44823 1.44525 0
M  V30 19993 H 1904.36 -3.88631 1.24218 0
M  V30 19994 H 1903.03 -3.45735 2.31172 0
M  V30 19995 H 1901.61 -3.69589 0.495854 0
M  V30 19996 N 1903.79 -0.869509 -1.31443 0
M  V30 19997 C 1904.74 -0.323034 -2.28528 0
M  V30 19998 C 1905.71 0.578245 -1.5571 0
M  V30 19999 O 1906.89 0.509983 -1.83858 0
M  V30 20000 C 1904.03 0.469861 -3.41886 0
M  V30 20001 C 1903.15 -0.458883 -4.29556 0
M  V30 20002 C 1902.28 0.348092 -5.30058 0
M  V30 20003 C 1901.32 -0.577109 -6.09373 0
M  V30 20004 N 1900.46 0.193589 -7.01833 0
M  V30 20005 H 1905.3 -1.15614 -2.74659 0
M  V30 20006 H 1902.84 -0.581526 -1.35117 0
M  V30 20007 H 1904.79 0.945338 -4.06349 0
M  V30 20008 H 1903.42 1.26767 -2.96867 0
M  V30 20009 H 1902.48 -1.05281 -3.65541 0
M  V30 20010 H 1903.79 -1.16833 -4.84924 0
M  V30 20011 H 1902.94 0.886098 -6.00194 0
M  V30 20012 H 1901.68 1.09083 -4.75344 0
M  V30 20013 H 1900.69 -1.12687 -5.38128 0
M  V30 20014 H 1901.91 -1.31869 -6.66174 0
M  V30 20015 H 1899.86 0.919147 -6.49529 0
M  V30 20016 H 1899.77 -0.456525 -7.5462 0
M  V30 20017 H 1901.04 0.71284 -7.76234 0
M  V30 20018 N 1905.27 1.44508 -0.628902 0
M  V30 20019 C 1906.52 2.02066 -0.132502 0
M  V30 20020 C 1906.85 1.49446 1.24483 0
M  V30 20021 O 1906.1 0.667881 1.83951 0
M  V30 20022 C 1906.4 3.57339 -0.0660437 0
M  V30 20023 C 1906.07 4.29203 -1.38186 0
M  V30 20024 C 1904.73 4.48552 -1.74225 0
M  V30 20025 C 1907.08 4.70108 -2.25051 0
M  V30 20026 C 1904.41 5.06066 -2.96839 0
M  V30 20027 C 1906.76 5.2898 -3.46934 0
M  V30 20028 C 1905.42 5.46549 -3.83198 0
M  V30 20029 H 1904.69 0.739412 -0.048486 0
M  V30 20030 H 1907.34 1.73302 -0.814773 0
M  V30 20031 H 1905.65 3.85504 0.699588 0
M  V30 20032 H 1907.34 3.99602 0.334526 0
M  V30 20033 H 1903.93 4.14471 -1.09141 0
M  V30 20034 H 1908.12 4.54874 -1.98503 0
M  V30 20035 H 1903.37 5.17856 -3.25016 0
M  V30 20036 H 1907.55 5.59626 -4.14478 0
M  V30 20037 H 1905.17 5.90881 -4.78292 0
M  V30 20038 N 1906.75 0.369315 1.53212 0
M  V30 20039 C 1907.68 -0.510161 2.2345 0
M  V30 20040 C 1908.69 -1.04313 1.24991 0
M  V30 20041 O 1909.88 -0.948869 1.51191 0
M  V30 20042 C 1906.98 -1.71753 2.92154 0
M  V30 20043 C 1906.16 -1.31542 4.17152 0
M  V30 20044 C 1905.22 -2.38526 4.69033 0
M  V30 20045 O 1904.24 -2.00761 5.32619 0
M  V30 20046 N 1905.44 -3.70165 4.47167 0
M  V30 20047 H 1908.21 0.0915031 2.9956 0
M  V30 20048 H 1905.77 0.194676 1.60725 0
M  V30 20049 H 1907.76 -2.42808 3.23769 0
M  V30 20050 H 1906.33 -2.22598 2.19474 0
M  V30 20051 H 1905.55 -0.434563 3.91797 0
M  V30 20052 H 1906.84 -1.02311 4.98407 0
M  V30 20053 H 1906.24 -4.0362 3.96368 0
M  V30 20054 H 1904.79 -4.37313 4.83323 0
M  V30 20055 N 1908.23 -1.57291 0.0985816 0
M  V30 20056 C 1909.47 -1.94767 -0.56514 0
M  V30 20057 C 1909.81 -0.980722 -1.67617 0
M  V30 20058 O 1909.08 -0.0143714 -1.94495 0
M  V30 20059 C 1909.36 -3.42336 -1.11704 0
M  V30 20060 C 1909.22 -4.49799 -0.0108284 0
M  V30 20061 C 1910.54 -3.91296 -2.01434 0
M  V30 20062 H 1907.66 -0.708215 -0.203963 0
M  V30 20063 H 1910.3 -1.89238 0.169998 0
M  V30 20064 H 1908.45 -3.47179 -1.74354 0
M  V30 20065 H 1910.12 -4.57066 0.623574 0
M  V30 20066 H 1908.36 -4.28825 0.655093 0
M  V30 20067 H 1909.03 -5.50261 -0.437868 0
M  V30 20068 H 1911.51 -3.88628 -1.48685 0
M  V30 20069 H 1910.39 -4.9511 -2.36975 0
M  V30 20070 H 1910.65 -3.30792 -2.93307 0
M  V30 20071 N 1909.71 0.175127 -1.56624 0
M  V30 20072 C 1910.98 0.919424 -1.72644 0
M  V30 20073 C 1911.36 2.00553 -0.658929 0
M  V30 20074 O 1910.71 2.2615 0.326897 0
M  V30 20075 C 1910.92 1.48764 -3.15706 0
M  V30 20076 C 1912.27 1.96204 -3.76549 0
M  V30 20077 O 1913.29 1.58565 -3.1896 0
M  V30 20078 O 1912.15 2.65525 -4.7766 0
M  V30 20079 H 1909.25 0.43251 -0.704886 0
M  V30 20080 H 1911.79 0.163255 -1.68913 0
M  V30 20081 H 1910.56 0.705743 -3.84883 0
M  V30 20082 H 1910.19 2.3081 -3.23748 0
M  V30 20083 N 1911.18 1.5123 0.44355 0
M  V30 20084 C 1912.13 1.7266 1.55857 0
M  V30 20085 C 1913.13 0.59279 1.5869 0
M  V30 20086 O 1914.33 0.774014 1.62509 0
M  V30 20087 H 1910.71 0.545442 0.517684 0
M  V30 20088 H 1912.68 2.66139 1.34954 0
M  V30 20089 C 1911.43 1.86311 2.9357 0
M  V30 20090 H 1910.75 2.72958 2.9212 0
M  V30 20091 H 1912.19 2.0532 3.70971 0
M  V30 20092 C 1910.65 0.621377 3.3112 0
M  V30 20093 O 1911.18 -0.226833 4.01059 0
M  V30 20094 N 1909.38 0.467286 2.86818 0
M  V30 20095 H 1908.93 1.15859 2.30075 0
M  V30 20096 H 1908.89 -0.36232 3.12305 0
M  V30 20097 N 1912.66 -0.698586 1.41271 0
M  V30 20098 C 1913.61 -1.83387 1.43081 0
M  V30 20099 C 1914.6 -1.66554 0.309204 0
M  V30 20100 O 1915.81 -1.73452 0.481084 0
M  V30 20101 H 1912.18 -0.604271 0.447617 0
M  V30 20102 H 1914.16 -1.78977 2.38767 0
M  V30 20103 C 1912.9 -3.21385 1.32692 0
M  V30 20104 H 1912.23 -3.34952 2.18283 0
M  V30 20105 H 1913.67 -4.00907 1.38019 0
M  V30 20106 C 1912.13 -3.36877 0.0389378 0
M  V30 20107 O 1912.66 -3.91081 -0.917515 0
M  V30 20108 N 1910.86 -2.90578 -0.0361557 0
M  V30 20109 H 1910.41 -2.46654 0.742925 0
M  V30 20110 H 1910.37 -3.01322 -0.897353 0
M  V30 20111 N 1914.14 -1.27049 -0.93254 0
M  V30 20112 C 1915.09 -1.09183 -2.05382 0
M  V30 20113 C 1916.08 -0.0162863 -1.69392 0
M  V30 20114 O 1917.29 -0.173635 -1.79161 0
M  V30 20115 H 1913.66 -0.336282 -0.67262 0
M  V30 20116 H 1915.63 -2.04189 -2.17599 0
M  V30 20117 C 1914.38 -0.750687 -3.395 0
M  V30 20118 H 1913.71 -1.57019 -3.67675 0
M  V30 20119 H 1915.15 -0.665521 -4.18744 0
M  V30 20120 C 1913.6 0.544676 -3.32468 0
M  V30 20121 O 1914.13 1.58051 -3.69301 0
M  V30 20122 N 1912.34 0.538506 -2.85567 0
M  V30 20123 H 1911.89 -0.304834 -2.5579 0
M  V30 20124 H 1911.85 1.4053 -2.81245 0
M  V30 20125 N 1915.62 1.13835 -1.08993 0
M  V30 20126 C 1917.03 1.36999 -0.81874 0
M  V30 20127 C 1917.23 1.93296 0.569102 0
M  V30 20128 O 1916.29 2.14954 1.3248 0
M  V30 20129 C 1917.6 2.3255 -1.90634 0
M  V30 20130 C 1919.15 2.46175 -1.93305 0
M  V30 20131 C 1919.63 3.4503 -3.01195 0
M  V30 20132 N 1921.12 3.52577 -3.00406 0
M  V30 20133 C 1921.85 4.28934 -3.8053 0
M  V30 20134 N 1921.35 5.08484 -4.70549 0
M  V30 20135 N 1923.14 4.24191 -3.68807 0
M  V30 20136 H 1915.29 0.756425 -1.98474 0
M  V30 20137 H 1917.55 0.395302 -0.86165 0
M  V30 20138 H 1917.26 1.98331 -2.90444 0
M  V30 20139 H 1917.13 3.32519 -1.78076 0
M  V30 20140 H 1919.52 2.79683 -0.941359 0
M  V30 20141 H 1919.6 1.46146 -2.0994 0
M  V30 20142 H 1919.25 3.12254 -4.00574 0
M  V30 20143 H 1919.18 4.44853 -2.81803 0
M  V30 20144 H 1921.67 2.95814 -2.35165 0
M  V30 20145 H 1921.98 5.6404 -5.28279 0
M  V30 20146 H 1920.33 5.07732 -4.74588 0
M  V30 20147 H 1923.52 3.61118 -2.97844 0
M  V30 20148 H 1923.69 4.83447 -4.31489 0
M  V30 20149 N 1917.1 0.876467 1.3098 0
M  V30 20150 C 1918.03 0.352925 2.30817 0
M  V30 20151 C 1919.01 -0.559675 1.60629 0
M  V30 20152 O 1920.19 -0.475326 1.88293 0
M  V30 20153 C 1917.32 -0.440827 3.44491 0
M  V30 20154 C 1916.28 0.379253 4.26316 0
M  V30 20155 C 1915.6 -0.540582 5.3196 0
M  V30 20156 C 1916.9 1.61682 4.96645 0
M  V30 20157 H 1918.6 1.18719 2.74857 0
M  V30 20158 H 1916.14 0.572316 1.32138 0
M  V30 20159 H 1918.09 -0.817661 4.13391 0
M  V30 20160 H 1916.82 -1.30866 2.99235 0
M  V30 20161 H 1915.48 0.738117 3.59092 0
M  V30 20162 H 1915.13 -1.40588 4.82953 0
M  V30 20163 H 1914.83 0.00427133 5.876 0
M  V30 20164 H 1916.35 -0.914118 6.03719 0
M  V30 20165 H 1917.76 1.31105 5.58108 0
M  V30 20166 H 1916.16 2.10123 5.62111 0
M  V30 20167 H 1917.23 2.36602 4.23258 0
M  V30 20168 N 1918.57 -1.44173 0.636557 0
M  V30 20169 C 1919.5 -2.33442 -0.0518719 0
M  V30 20170 C 1920.48 -1.48519 -0.829226 0
M  V30 20171 O 1921.67 -1.77225 -0.794028 0
M  V30 20172 C 1918.8 -3.31663 -1.03038 0
M  V30 20173 C 1917.75 -4.26447 -0.364286 0
M  V30 20174 C 1917.08 -5.14577 -1.45308 0
M  V30 20175 C 1918.38 -5.17133 0.732884 0
M  V30 20176 H 1920.07 -2.91255 0.693589 0
M  V30 20177 H 1917.62 -1.40049 0.33499 0
M  V30 20178 H 1919.57 -3.93002 -1.52077 0
M  V30 20179 H 1918.3 -2.72071 -1.80679 0
M  V30 20180 H 1916.96 -3.66448 0.105505 0
M  V30 20181 H 1916.6 -4.51334 -2.22051 0
M  V30 20182 H 1916.3 -5.78807 -1.01274 0
M  V30 20183 H 1917.83 -5.78788 -1.94517 0
M  V30 20184 H 1919.24 -5.72376 0.325363 0
M  V30 20185 H 1917.64 -5.89994 1.09669 0
M  V30 20186 H 1918.71 -4.5782 1.59779 0
M  V30 20187 N 1920.05 -0.377435 -1.53014 0
M  V30 20188 C 1920.98 0.455103 -2.29022 0
M  V30 20189 C 1921.96 1.07375 -1.31926 0
M  V30 20190 O 1923.15 1.08877 -1.60809 0
M  V30 20191 C 1920.28 1.58883 -3.08826 0
M  V30 20192 C 1919.23 1.09683 -4.13707 0
M  V30 20193 C 1918.56 2.32172 -4.81664 0
M  V30 20194 C 1919.86 0.173165 -5.22013 0
M  V30 20195 H 1921.55 -0.179053 -2.98864 0
M  V30 20196 H 1919.1 -0.0875549 -1.43734 0
M  V30 20197 H 1921.05 2.17798 -3.60752 0
M  V30 20198 H 1919.77 2.2504 -2.36695 0
M  V30 20199 H 1918.43 0.530291 -3.62744 0
M  V30 20200 H 1918.08 2.96811 -4.06094 0
M  V30 20201 H 1917.78 1.99919 -5.52545 0
M  V30 20202 H 1919.31 2.91751 -5.3639 0
M  V30 20203 H 1920.72 0.670145 -5.6937 0
M  V30 20204 H 1919.12 -0.0590463 -6.00071 0
M  V30 20205 H 1920.19 -0.781339 -4.78564 0
M  V30 20206 N 1921.53 1.57237 -0.106922 0
M  V30 20207 C 1922.46 2.11718 0.877968 0
M  V30 20208 C 1923.48 1.0571 1.23812 0
M  V30 20209 O 1924.66 1.3312 1.18917 0
M  V30 20210 C 1921.76 2.59182 2.18352 0
M  V30 20211 C 1920.94 3.89156 1.99691 0
M  V30 20212 C 1920 4.22344 3.13866 0
M  V30 20213 O 1919.02 4.91367 2.87309 0
M  V30 20214 N 1920.22 3.78694 4.39967 0
M  V30 20215 H 1922.99 2.96846 0.412584 0
M  V30 20216 H 1920.55 1.61713 0.0778505 0
M  V30 20217 H 1922.54 2.78423 2.93706 0
M  V30 20218 H 1921.11 1.78999 2.56277 0
M  V30 20219 H 1920.33 3.78945 1.086 0
M  V30 20220 H 1921.62 4.74165 1.84514 0
M  V30 20221 H 1921.02 3.23 4.64422 0
M  V30 20222 H 1919.58 4.03067 5.12231 0
M  V30 20223 N 1923.01 -0.166818 1.56715 0
M  V30 20224 C 1923.94 -1.23113 1.93328 0
M  V30 20225 C 1924.95 -1.40238 0.826866 0
M  V30 20226 O 1926.14 -1.40161 1.10531 0
M  V30 20227 C 1923.24 -2.59914 2.17481 0
M  V30 20228 C 1922.42 -2.64028 3.48723 0
M  V30 20229 C 1921.47 -3.82224 3.61651 0
M  V30 20230 O 1920.5 -3.68014 4.34229 0
M  V30 20231 N 1921.7 -4.98868 2.96835 0
M  V30 20232 H 1924.47 -0.920103 2.85227 0
M  V30 20233 H 1922.03 -0.356548 1.57925 0
M  V30 20234 H 1924.02 -3.37459 2.2339 0
M  V30 20235 H 1922.59 -2.83389 1.31945 0
M  V30 20236 H 1921.81 -1.72544 3.54432 0
M  V30 20237 H 1923.1 -2.63792 4.35076 0
M  V30 20238 H 1922.5 -5.13314 2.3775 0
M  V30 20239 H 1921.05 -5.74259 3.08333 0
M  V30 20240 N 1924.49 -1.51463 -0.435524 0
M  V30 20241 C 1925.73 -1.64464 -1.18656 0
M  V30 20242 C 1926.07 -0.360669 -1.90821 0
M  V30 20243 O 1925.34 0.639814 -1.83675 0
M  V30 20244 C 1925.62 -2.84919 -2.20212 0
M  V30 20245 C 1925.48 -4.23297 -1.52117 0
M  V30 20246 C 1926.8 -3.00891 -3.21174 0
M  V30 20247 H 1923.91 -0.598545 -0.430015 0
M  V30 20248 H 1926.56 -1.83952 -0.475572 0
M  V30 20249 H 1924.71 -2.68435 -2.80847 0
M  V30 20250 H 1926.38 -4.51453 -0.948048 0
M  V30 20251 H 1924.62 -4.25912 -0.823493 0
M  V30 20252 H 1925.29 -5.03576 -2.26087 0
M  V30 20253 H 1927.77 -3.16099 -2.70594 0
M  V30 20254 H 1926.64 -3.86734 -3.89523 0
M  V30 20255 H 1926.91 -2.13041 -3.87383 0
M  V30 20256 N 1925.96 0.691085 -1.4164 0
M  V30 20257 C 1927.19 1.48481 -1.44804 0
M  V30 20258 C 1927.61 1.88016 -0.0561606 0
M  V30 20259 O 1926.97 1.54927 0.941657 0
M  V30 20260 C 1927.02 2.72083 -2.3665 0
M  V30 20261 O 1926.12 3.6974 -1.82663 0
M  V30 20262 H 1925.47 0.446714 -0.491267 0
M  V30 20263 H 1928 0.849076 -1.8615 0
M  V30 20264 H 1928.01 3.2034 -2.52678 0
M  V30 20265 H 1926.68 2.42645 -3.37781 0
M  V30 20266 H 1925.26 3.28695 -1.76108 0
M  V30 20267 N 1927.44 1.27542 0.925789 0
M  V30 20268 C 1928.37 1.12952 2.04363 0
M  V30 20269 C 1929.35 0.0304761 1.70073 0
M  V30 20270 O 1930.54 0.205307 1.93112 0
M  V30 20271 C 1927.67 0.777954 3.38475 0
M  V30 20272 C 1926.62 1.83044 3.86883 0
M  V30 20273 C 1925.95 1.3328 5.17823 0
M  V30 20274 C 1927.25 3.23488 4.10065 0
M  V30 20275 H 1928.94 2.06462 2.16827 0
M  V30 20276 H 1926.49 0.994046 1.04186 0
M  V30 20277 H 1928.44 0.662702 4.16156 0
M  V30 20278 H 1927.17 -0.192851 3.2603 0
M  V30 20279 H 1925.82 1.93463 3.11396 0
M  V30 20280 H 1925.47 0.351399 5.01771 0
M  V30 20281 H 1925.17 2.03648 5.51182 0
M  V30 20282 H 1926.7 1.23053 5.98072 0
M  V30 20283 H 1928.11 3.16058 4.7831 0
M  V30 20284 H 1926.51 3.91583 4.54734 0
M  V30 20285 H 1927.58 3.68399 3.15293 0
M  V30 20286 N 1928.92 -1.13255 1.09595 0
M  V30 20287 C 1930.33 -1.66118 0.852147 0
M  V30 20288 C 1930.68 -1.86177 -0.61909 0
M  V30 20289 O 1929.81 -1.58186 -1.47669 0
M  V30 20290 C 1930.4 -3.0176 1.54034 0
M  V30 20291 C 1928.96 -3.51608 1.34347 0
M  V30 20292 C 1928.11 -2.26815 1.59531 0
M  V30 20293 H 1931.06 -0.971539 1.25486 0
M  V30 20294 H 1931.08 -3.67812 0.974418 0
M  V30 20295 H 1930.59 -2.87129 2.6111 0
M  V30 20296 H 1928.69 -3.71439 0.293951 0
M  V30 20297 H 1928.81 -4.31618 2.07949 0
M  V30 20298 H 1927.17 -2.33492 1.01753 0
M  V30 20299 H 1927.95 -2.14748 2.6784 0
M  V30 20300 N 1930.4 -0.883401 -1.30514 0
M  V30 20301 C 1931.31 -0.352971 -2.31929 0
M  V30 20302 C 1932.32 0.543992 -1.65278 0
M  V30 20303 O 1933.5 0.437489 -1.96591 0
M  V30 20304 C 1930.57 0.425263 -3.44082 0
M  V30 20305 C 1929.63 -0.501265 -4.26363 0
M  V30 20306 C 1928.86 0.239923 -5.3316 0
M  V30 20307 O 1929.08 1.46622 -5.51233 0
M  V30 20308 O 1928.02 -0.409158 -6.00508 0
M  V30 20309 H 1931.84 -1.19393 -2.79247 0
M  V30 20310 H 1929.43 -0.647187 -1.34655 0
M  V30 20311 H 1931.31 0.865957 -4.12407 0
M  V30 20312 H 1929.98 1.24255 -2.98902 0
M  V30 20313 H 1928.89 -0.990738 -3.60743 0
M  V30 20314 H 1930.22 -1.28451 -4.75143 0
M  V30 20315 N 1931.88 1.43833 -0.644194 0
M  V30 20316 C 1932.81 2.33467 0.0394911 0
M  V30 20317 C 1933.79 1.48957 0.821339 0
M  V30 20318 O 1934.97 1.77644 0.784618 0
M  V30 20319 C 1932.1 3.32205 1.01277 0
M  V30 20320 C 1931.06 4.26634 0.341666 0
M  V30 20321 C 1930.38 5.15341 1.42577 0
M  V30 20322 C 1931.68 5.16737 -0.760299 0
M  V30 20323 H 1933.38 2.90883 -0.709025 0
M  V30 20324 H 1930.92 1.3987 -0.342413 0
M  V30 20325 H 1932.88 3.93803 1.49991 0
M  V30 20326 H 1931.6 2.73025 1.79234 0
M  V30 20327 H 1930.26 3.66387 -0.124937 0
M  V30 20328 H 1929.91 4.52505 2.19654 0
M  V30 20329 H 1929.61 5.79336 0.98203 0
M  V30 20330 H 1931.13 5.79811 1.91444 0
M  V30 20331 H 1932.54 5.72195 -0.355713 0
M  V30 20332 H 1930.94 5.89404 -1.12796 0
M  V30 20333 H 1932.01 4.56966 -1.62204 0
M  V30 20334 N 1933.35 0.385544 1.52811 0
M  V30 20335 C 1934.77 -0.0893152 1.86486 0
M  V30 20336 C 1935.12 -1.46473 1.30538 0
M  V30 20337 O 1934.24 -2.06866 0.635244 0
M  V30 20338 C 1934.84 -0.168846 3.38379 0
M  V30 20339 C 1933.4 -0.587992 3.71779 0
M  V30 20340 C 1932.54 0.252389 2.76149 0
M  V30 20341 H 1935.49 0.603569 1.46774 0
M  V30 20342 H 1935.51 -0.988694 3.6743 0
M  V30 20343 H 1935.03 0.832334 3.7907 0
M  V30 20344 H 1933.13 -1.59668 3.36656 0
M  V30 20345 H 1933.24 -0.34875 4.77829 0
M  V30 20346 H 1931.6 -0.281775 2.53137 0
M  V30 20347 H 1932.39 1.25148 3.19676 0
M  V30 20348 N 1934.83 -1.57178 0.115259 0
M  V30 20349 C 1936.08 -1.94681 -0.542571 0
M  V30 20350 C 1936.4 -0.999211 -1.67454 0
M  V30 20351 O 1935.67 -0.054836 -1.95823 0
M  V30 20352 H 1934.25 -0.718769 -0.203421 0
M  V30 20353 H 1936.91 -1.94036 0.183323 0
M  V30 20354 H 1936.01 -2.9762 -0.939599 0
M  V30 20355 N 1936.31 0.158505 -1.56801 0
M  V30 20356 C 1937.22 1.2157 -2.00644 0
M  V30 20357 C 1938.24 1.47694 -0.919914 0
M  V30 20358 O 1939.41 1.59591 -1.22853 0
M  V30 20359 C 1936.48 2.53191 -2.36844 0
M  V30 20360 C 1935.54 2.34816 -3.59389 0
M  V30 20361 C 1934.77 3.60161 -3.93853 0
M  V30 20362 O 1935 4.65871 -3.29121 0
M  V30 20363 O 1933.93 3.53508 -4.8715 0
M  V30 20364 H 1937.76 0.873512 -2.90867 0
M  V30 20365 H 1935.34 0.366356 -1.44839 0
M  V30 20366 H 1937.22 3.30812 -2.6104 0
M  V30 20367 H 1935.9 2.86963 -1.4978 0
M  V30 20368 H 1934.8 1.55184 -3.40395 0
M  V30 20369 H 1936.14 2.05964 -4.47034 0
M  V30 20370 N 1937.79 1.51692 0.427485 0
M  V30 20371 C 1939.02 1.68424 1.19653 0
M  V30 20372 C 1939.43 0.385349 1.85234 0
M  V30 20373 O 1938.77 -0.646942 1.71931 0
M  V30 20374 C 1938.83 2.75033 2.31511 0
M  V30 20375 C 1938.5 4.1734 1.86216 0
M  V30 20376 C 1939.49 5.01794 1.3601 0
M  V30 20377 C 1937.18 4.63488 1.93608 0
M  V30 20378 C 1939.17 6.30461 0.937946 0
M  V30 20379 C 1936.86 5.92149 1.51004 0
M  V30 20380 C 1937.86 6.75464 1.0118 0
M  V30 20381 O 1937.55 8.01718 0.591843 0
M  V30 20382 H 1937.28 0.568142 0.36632 0
M  V30 20383 H 1939.83 1.98929 0.511527 0
M  V30 20384 H 1938.06 2.39865 3.03318 0
M  V30 20385 H 1939.75 2.80546 2.9334 0
M  V30 20386 H 1940.52 4.6734 1.29686 0
M  V30 20387 H 1936.4 3.98755 2.31334 0
M  V30 20388 H 1939.94 6.95441 0.548362 0
M  V30 20389 H 1935.84 6.26116 1.57001 0
M  V30 20390 H 1936.6 8.15355 0.716808 0
M  V30 20391 N 1939.27 -0.683564 1.42004 0
M  V30 20392 C 1940.49 -1.47711 1.45589 0
M  V30 20393 C 1940.92 -1.87984 0.0661307 0
M  V30 20394 O 1940.28 -1.55425 -0.933428 0
M  V30 20395 C 1940.32 -2.70824 2.3809 0
M  V30 20396 O 1939.43 -3.68766 1.84622 0
M  V30 20397 H 1938.77 -0.444102 0.493629 0
M  V30 20398 H 1941.3 -0.839192 1.86598 0
M  V30 20399 H 1941.31 -3.18996 2.54373 0
M  V30 20400 H 1939.98 -2.4085 3.39063 0
M  V30 20401 H 1938.56 -3.27756 1.77849 0
M  V30 20402 N 1940.75 -1.28031 -0.919012 0
M  V30 20403 C 1941.68 -1.05827 -2.02178 0
M  V30 20404 C 1942.66 0.0240301 -1.62582 0
M  V30 20405 O 1943.84 -0.122854 -1.88099 0
M  V30 20406 C 1940.97 -0.607109 -3.33214 0
M  V30 20407 C 1940.01 -1.68527 -3.91792 0
M  V30 20408 S 1940.85 -3.27994 -4.23297 0
M  V30 20409 C 1942 -2.847 -5.57402 0
M  V30 20410 H 1942.24 -1.99194 -2.20702 0
M  V30 20411 H 1939.77 -1.1196 -1.06322 0
M  V30 20412 H 1941.73 -0.353498 -4.08975 0
M  V30 20413 H 1940.39 0.306635 -3.126 0
M  V30 20414 H 1939.58 -1.3211 -4.86377 0
M  V30 20415 H 1939.18 -1.89141 -3.22648 0
M  V30 20416 H 1941.47 -2.30544 -6.37068 0
M  V30 20417 H 1942.42 -3.78063 -5.98727 0
M  V30 20418 H 1942.83 -2.23575 -5.18338 0
M  V30 20419 N 1942.22 1.12672 -1.10194 0
M  V30 20420 C 1943.17 2.18326 -0.748496 0
M  V30 20421 C 1944.14 1.63824 0.274007 0
M  V30 20422 O 1945.33 1.90179 0.153852 0
M  V30 20423 C 1942.47 3.4461 -0.183772 0
M  V30 20424 C 1941.58 4.13178 -1.26127 0
M  V30 20425 C 1940.71 5.27103 -0.658462 0
M  V30 20426 C 1939.75 5.87533 -1.71672 0
M  V30 20427 N 1938.89 6.92876 -1.13435 0
M  V30 20428 H 1943.73 2.47906 -1.65369 0
M  V30 20429 H 1941.27 1.21715 -0.826064 0
M  V30 20430 H 1943.22 4.16887 0.161511 0
M  V30 20431 H 1941.85 3.15456 0.684657 0
M  V30 20432 H 1940.91 3.39105 -1.72372 0
M  V30 20433 H 1942.22 4.54163 -2.06246 0
M  V30 20434 H 1941.37 6.06132 -0.26248 0
M  V30 20435 H 1940.11 4.87389 0.174183 0
M  V30 20436 H 1939.12 5.07193 -2.12215 0
M  V30 20437 H 1940.34 6.29318 -2.55217 0
M  V30 20438 H 1938.29 6.55204 -0.323127 0
M  V30 20439 H 1938.2 7.32446 -1.8724 0
M  V30 20440 H 1939.47 7.75739 -0.764838 0
M  V30 20441 N 1943.7 0.89031 1.30043 0
M  V30 20442 C 1944.95 0.512208 1.96225 0
M  V30 20443 C 1945.28 -0.937287 1.70084 0
M  V30 20444 O 1944.56 -1.66309 1.00854 0
M  V30 20445 C 1944.84 0.794043 3.51236 0
M  V30 20446 C 1944.69 2.29456 3.86872 0
M  V30 20447 C 1946.01 0.274152 4.39245 0
M  V30 20448 H 1943.13 0.187568 0.712732 0
M  V30 20449 H 1945.77 1.11528 1.53823 0
M  V30 20450 H 1943.92 0.28077 3.87484 0
M  V30 20451 H 1945.59 2.87665 3.6062 0
M  V30 20452 H 1943.84 2.75907 3.34751 0
M  V30 20453 H 1944.51 2.44235 4.95029 0
M  V30 20454 H 1946.98 0.713535 4.09936 0
M  V30 20455 H 1945.86 0.500633 5.46612 0
M  V30 20456 H 1946.12 -0.824812 4.34338 0
M  V30 20457 N 1945.18 -1.43489 0.651812 0
M  V30 20458 C 1946.41 -2.06181 0.172334 0
M  V30 20459 C 1946.82 -1.48848 -1.16145 0
M  V30 20460 O 1946.18 -0.619246 -1.71673 0
M  V30 20461 C 1946.23 -3.61425 0.0737039 0
M  V30 20462 O 1945.95 -4.16627 1.35476 0
M  V30 20463 C 1947.45 -4.4119 -0.432019 0
M  V30 20464 H 1944.67 -0.665039 0.0892394 0
M  V30 20465 H 1947.22 -1.84018 0.892063 0
M  V30 20466 H 1945.37 -3.82779 -0.596577 0
M  V30 20467 H 1945.79 -5.1028 1.21305 0
M  V30 20468 H 1947.26 -5.50163 -0.449989 0
M  V30 20469 H 1947.74 -4.14115 -1.46306 0
M  V30 20470 H 1948.34 -4.24802 0.205721 0
M  V30 20471 N 1946.66 -0.393643 -1.52605 0
M  V30 20472 C 1947.91 0.186784 -2.01235 0
M  V30 20473 C 1948.23 1.46956 -1.28175 0
M  V30 20474 O 1947.5 1.91708 -0.403088 0
M  V30 20475 H 1946.08 0.0720137 -0.743521 0
M  V30 20476 H 1948.74 -0.52633 -1.87659 0
M  V30 20477 H 1947.83 0.393921 -3.09604 0
M  V30 20478 N 1948.14 1.57115 -0.123593 0
M  V30 20479 C 1949.05 2.19104 0.838493 0
M  V30 20480 C 1950.06 1.1685 1.28927 0
M  V30 20481 O 1951.24 1.49337 1.35131 0
M  V30 20482 C 1948.3 2.78191 2.06908 0
M  V30 20483 C 1947.36 3.95495 1.66979 0
M  V30 20484 C 1946.6 4.51755 2.84171 0
M  V30 20485 O 1946.82 4.06908 3.99728 0
M  V30 20486 O 1945.75 5.42372 2.60991 0
M  V30 20487 H 1949.58 3.0178 0.340935 0
M  V30 20488 H 1947.16 1.4905 0.102255 0
M  V30 20489 H 1949.05 3.15837 2.78971 0
M  V30 20490 H 1947.72 1.98542 2.55661 0
M  V30 20491 H 1946.63 3.62609 0.920091 0
M  V30 20492 H 1947.96 4.76593 1.22963 0
M  V30 20493 N 1949.61 -0.150187 1.56883 0
M  V30 20494 C 1950.86 -0.86163 1.82812 0
M  V30 20495 C 1951.18 -1.81849 0.703977 0
M  V30 20496 O 1950.45 -1.93966 -0.274616 0
M  V30 20497 H 1949.03 -0.321175 0.67443 0
M  V30 20498 H 1951.69 -0.144952 1.9436 0
M  V30 20499 H 1950.79 -1.4258 2.77628 0
M  V30 20500 N 1951.09 -1.51916 -0.419434 0
M  V30 20501 C 1952.33 -1.67139 -1.17661 0
M  V30 20502 C 1952.7 -0.387862 -1.88042 0
M  V30 20503 O 1953.9 -0.416066 -2.6556 0
M  V30 20504 C 1952.17 -2.853 -2.15264 0
M  V30 20505 S 1953.73 -3.2095 -2.99227 0
M  V30 20506 H 1950.55 -0.58866 -0.398748 0
M  V30 20507 H 1953.15 -1.89879 -0.46544 0
M  V30 20508 H 1951.85 -3.76975 -1.62228 0
M  V30 20509 H 1951.38 -2.64803 -2.90935 0
M  V30 20510 H 1953.4 -2.68772 -4.17104 0
M  V30 20511 N 1952.57 0.676023 -1.42365 0
M  V30 20512 C 1953.82 1.43821 -1.4298 0
M  V30 20513 C 1954.15 1.94147 -0.0455702 0
M  V30 20514 O 1953.42 1.70826 0.929976 0
M  V30 20515 C 1953.71 2.63612 -2.45318 0
M  V30 20516 C 1953.56 2.18926 -3.92927 0
M  V30 20517 C 1954.88 3.65827 -2.4466 0
M  V30 20518 H 1952 0.521622 -0.520653 0
M  V30 20519 H 1954.64 0.76837 -1.7377 0
M  V30 20520 H 1952.79 3.2076 -2.19193 0
M  V30 20521 H 1954.46 1.66955 -4.30028 0
M  V30 20522 H 1952.71 1.50512 -4.06852 0
M  V30 20523 H 1953.38 3.04965 -4.60109 0
M  V30 20524 H 1955.85 3.18393 -2.6789 0
M  V30 20525 H 1954.73 4.47226 -3.18245 0
M  V30 20526 H 1954.99 4.1687 -1.47213 0
M  V30 20527 N 1954.05 1.28517 0.912209 0
M  V30 20528 C 1955.28 1.18443 1.69277 0
M  V30 20529 C 1955.69 -0.259286 1.87415 0
M  V30 20530 O 1955.03 -1.1869 1.40208 0
M  V30 20531 C 1955.09 1.81281 3.10447 0
M  V30 20532 C 1954.76 3.30534 3.15589 0
M  V30 20533 C 1955.75 4.26946 2.9667 0
M  V30 20534 C 1953.44 3.71517 3.38053 0
M  V30 20535 C 1955.43 5.62317 3.0013 0
M  V30 20536 C 1953.12 5.07014 3.41145 0
M  V30 20537 C 1954.12 6.02224 3.22204 0
M  V30 20538 O 1953.8 7.35249 3.2506 0
M  V30 20539 H 1953.54 0.412073 0.535885 0
M  V30 20540 H 1956.09 1.70185 1.15005 0
M  V30 20541 H 1954.32 1.24035 3.66268 0
M  V30 20542 H 1956.01 1.65704 3.70536 0
M  V30 20543 H 1956.78 3.96618 2.7914 0
M  V30 20544 H 1952.65 2.97873 3.51842 0
M  V30 20545 H 1956.2 6.36608 2.85264 0
M  V30 20546 H 1952.1 5.36992 3.58204 0
M  V30 20547 H 1952.86 7.43896 3.41411 0
M  V30 20548 N 1955.53 -1.12086 1.1079 0
M  V30 20549 C 1956.46 -2.2001 0.78217 0
M  V30 20550 C 1957.44 -1.68305 -0.246488 0
M  V30 20551 O 1958.62 -1.9388 -0.111448 0
M  V30 20552 C 1955.75 -3.4662 0.2172 0
M  V30 20553 C 1954.71 -4.11499 1.17696 0
M  V30 20554 C 1954.03 -5.32604 0.47302 0
M  V30 20555 C 1955.33 -4.5721 2.52501 0
M  V30 20556 H 1957.03 -2.47514 1.68456 0
M  V30 20557 H 1954.57 -1.18964 0.811397 0
M  V30 20558 H 1956.53 -4.21394 -0.0228381 0
M  V30 20559 H 1955.25 -3.18555 -0.720448 0
M  V30 20560 H 1953.91 -3.38711 1.40252 0
M  V30 20561 H 1953.56 -5.00807 -0.469217 0
M  V30 20562 H 1953.26 -5.76961 1.11308 0
M  V30 20563 H 1954.78 -6.10122 0.241615 0
M  V30 20564 H 1956.19 -5.23338 2.34073 0
M  V30 20565 H 1954.59 -5.12357 3.12426 0
M  V30 20566 H 1955.66 -3.71003 3.12226 0
M  V30 20567 N 1957 -0.897194 -1.29569 0
M  V30 20568 C 1957.94 -0.330353 -2.26807 0
M  V30 20569 C 1958.95 0.521937 -1.54207 0
M  V30 20570 O 1960.14 0.339502 -1.75242 0
M  V30 20571 C 1957.24 0.547835 -3.34443 0
M  V30 20572 C 1956.41 -0.278159 -4.36515 0
M  V30 20573 C 1955.47 0.532461 -5.23499 0
M  V30 20574 O 1954.5 -0.0491596 -5.69179 0
M  V30 20575 N 1955.7 1.83908 -5.50598 0
M  V30 20576 H 1958.46 -1.16608 -2.76084 0
M  V30 20577 H 1956.02 -0.761424 -1.42877 0
M  V30 20578 H 1958.02 1.09647 -3.89563 0
M  V30 20579 H 1956.59 1.28425 -2.85001 0
M  V30 20580 H 1955.81 -1.00822 -3.81089 0
M  V30 20581 H 1957.09 -0.843929 -5.01752 0
M  V30 20582 H 1956.49 2.33437 -5.1529 0
M  V30 20583 H 1955.05 2.33489 -6.08544 0
M  V30 20584 N 1958.48 1.43142 -0.659413 0
M  V30 20585 C 1959.71 2.06087 -0.183265 0
M  V30 20586 C 1960.13 1.49462 1.15354 0
M  V30 20587 O 1959.48 0.628341 1.71342 0
M  V30 20588 C 1959.53 3.61381 -0.0928701 0
M  V30 20589 O 1959.25 4.15902 -1.37684 0
M  V30 20590 C 1960.76 4.41413 0.408616 0
M  V30 20591 H 1957.98 0.664557 -0.092765 0
M  V30 20592 H 1960.52 1.83542 -0.901809 0
M  V30 20593 H 1958.67 3.8309 0.576268 0
M  V30 20594 H 1959.09 5.09629 -1.24009 0
M  V30 20595 H 1960.56 5.50394 0.420806 0
M  V30 20596 H 1961.04 4.14885 1.44108 0
M  V30 20597 H 1961.65 4.24687 -0.228247 0
M  V30 20598 N 1959.96 0.40173 1.52394 0
M  V30 20599 C 1961.19 -0.178662 2.06629 0
M  V30 20600 C 1961.61 -1.3871 1.27048 0
M  V30 20601 O 1960.97 -1.78821 0.298765 0
M  V30 20602 C 1961.02 -0.514797 3.56906 0
M  V30 20603 O 1960.12 -1.60691 3.79805 0
M  V30 20604 H 1959.46 -0.0174284 0.663771 0
M  V30 20605 H 1961.99 0.572792 1.96419 0
M  V30 20606 H 1962 -0.775554 4.00561 0
M  V30 20607 H 1960.68 0.368624 4.14263 0
M  V30 20608 H 1959.25 -1.3389 3.48034 0
M  V30 20609 N 1961.44 -1.57047 0.131923 0
M  V30 20610 C 1962.37 -2.19006 -0.809859 0
M  V30 20611 C 1963.35 -1.13384 -1.26799 0
M  V30 20612 O 1964.53 -1.4167 -1.32827 0
M  V30 20613 C 1961.66 -2.79973 -2.05505 0
M  V30 20614 C 1960.62 -3.9129 -1.73424 0
M  V30 20615 C 1959.94 -4.39123 -3.05081 0
M  V30 20616 C 1961.24 -5.12783 -0.992535 0
M  V30 20617 H 1962.94 -2.97958 -0.293522 0
M  V30 20618 H 1960.48 -1.4332 -0.13974 0
M  V30 20619 H 1962.44 -3.2198 -2.71858 0
M  V30 20620 H 1961.16 -1.9833 -2.59486 0
M  V30 20621 H 1959.82 -3.49879 -1.09456 0
M  V30 20622 H 1959.47 -3.54322 -3.57022 0
M  V30 20623 H 1959.17 -5.14197 -2.84385 0
M  V30 20624 H 1960.69 -4.8379 -3.72531 0
M  V30 20625 H 1962.11 -5.51728 -1.55785 0
M  V30 20626 H 1960.5 -5.93522 -0.886062 0
M  V30 20627 H 1961.57 -4.84896 0.0184538 0
M  V30 20628 N 1962.92 0.141865 -1.5696 0
M  V30 20629 C 1963.86 1.175 -1.98651 0
M  V30 20630 C 1964.83 1.42409 -0.854918 0
M  V30 20631 O 1966.02 1.54658 -1.11738 0
M  V30 20632 C 1963.16 2.50222 -2.37661 0
M  V30 20633 C 1962.27 2.32443 -3.64135 0
M  V30 20634 C 1961.41 3.58236 -3.92225 0
M  V30 20635 C 1960.45 3.35516 -5.11952 0
M  V30 20636 N 1959.58 4.53452 -5.36027 0
M  V30 20637 H 1964.42 0.812473 -2.8671 0
M  V30 20638 H 1961.96 0.389721 -1.41844 0
M  V30 20639 H 1963.92 3.27616 -2.58309 0
M  V30 20640 H 1962.55 2.84412 -1.52675 0
M  V30 20641 H 1961.6 1.46078 -3.51234 0
M  V30 20642 H 1962.91 2.11618 -4.51685 0
M  V30 20643 H 1962.07 4.44057 -4.13399 0
M  V30 20644 H 1960.8 3.8207 -3.03106 0
M  V30 20645 H 1959.81 2.48084 -4.90647 0
M  V30 20646 H 1961.03 3.13075 -6.02628 0
M  V30 20647 H 1958.98 4.7745 -4.49864 0
M  V30 20648 H 1958.9 4.35648 -6.17856 0
M  V30 20649 H 1960.17 5.40472 -5.61703 0
M  V30 20650 N 1964.39 1.52136 0.411372 0
M  V30 20651 C 1965.62 1.69684 1.1786 0
M  V30 20652 C 1966.03 0.404974 1.84815 0
M  V30 20653 O 1965.38 -0.62867 1.72608 0
M  V30 20654 C 1965.44 2.77473 2.2858 0
M  V30 20655 C 1965.1 4.19291 1.81779 0
M  V30 20656 C 1966.1 5.03208 1.3068 0
M  V30 20657 C 1963.78 4.65515 1.88681 0
M  V30 20658 C 1965.78 6.31421 0.871024 0
M  V30 20659 C 1963.46 5.93718 1.44715 0
M  V30 20660 C 1964.46 6.76499 0.940104 0
M  V30 20661 O 1964.15 8.02301 0.506777 0
M  V30 20662 H 1963.88 0.571996 0.360273 0
M  V30 20663 H 1966.44 1.9946 0.490399 0
M  V30 20664 H 1964.67 2.43068 3.00757 0
M  V30 20665 H 1966.36 2.83642 2.90348 0
M  V30 20666 H 1967.12 4.68689 1.24722 0
M  V30 20667 H 1963 4.01186 2.27091 0
M  V30 20668 H 1966.54 6.95984 0.474571 0
M  V30 20669 H 1962.44 6.27746 1.50351 0
M  V30 20670 H 1963.21 8.1607 0.630289 0
M  V30 20671 N 1965.87 -0.668464 1.42721 0
M  V30 20672 C 1966.82 -1.80311 1.46938 0
M  V30 20673 C 1967.82 -1.65861 0.344463 0
M  V30 20674 O 1969.02 -1.72392 0.517768 0
M  V30 20675 H 1965.4 -0.59464 0.460333 0
M  V30 20676 H 1967.37 -1.73872 2.4251 0
M  V30 20677 C 1966.12 -3.18498 1.3948 0
M  V30 20678 H 1965.44 -3.30246 2.25338 0
M  V30 20679 H 1966.88 -3.9789 1.46492 0
M  V30 20680 C 1965.34 -3.36719 0.110386 0
M  V30 20681 O 1965.87 -3.92939 -0.834354 0
M  V30 20682 N 1964.07 -2.90589 0.0254882 0
M  V30 20683 H 1963.62 -2.45023 0.795077 0
M  V30 20684 H 1963.58 -3.03158 -0.833236 0
M  V30 20685 N 1967.35 -1.28999 -0.905381 0
M  V30 20686 C 1968.6 -1.16014 -1.64996 0
M  V30 20687 C 1968.91 0.288766 -1.93457 0
M  V30 20688 O 1970.12 0.539847 -2.66079 0
M  V30 20689 C 1968.58 -2.02866 -2.97276 0
M  V30 20690 C 1968.18 -3.52547 -2.76432 0
M  V30 20691 C 1969.93 -1.98591 -3.75182 0
M  V30 20692 C 1967.83 -4.31522 -4.04404 0
M  V30 20693 H 1966.76 -0.430598 -0.618952 0
M  V30 20694 H 1969.42 -1.53594 -1.00404 0
M  V30 20695 H 1967.8 -1.5815 -3.63049 0
M  V30 20696 H 1968.97 -4.05277 -2.19287 0
M  V30 20697 H 1967.29 -3.58435 -2.11928 0
M  V30 20698 H 1969.88 -2.54859 -4.70054 0
M  V30 20699 H 1970.23 -0.964577 -4.04971 0
M  V30 20700 H 1970.76 -2.41321 -3.16242 0
M  V30 20701 H 1967.5 -5.3427 -3.79784 0
M  V30 20702 H 1967.02 -3.83563 -4.61129 0
M  V30 20703 H 1968.7 -4.41885 -4.72596 0
M  V30 20704 N 1968.83 1.11497 -1.11383 0
M  V30 20705 C 1969.76 2.19592 -0.793827 0
M  V30 20706 C 1970.74 1.68433 0.237559 0
M  V30 20707 O 1971.93 1.93936 0.101164 0
M  V30 20708 C 1969.06 3.465 -0.235579 0
M  V30 20709 C 1968.01 4.10869 -1.19877 0
M  V30 20710 C 1967.34 5.32345 -0.501259 0
M  V30 20711 C 1968.64 4.55864 -2.54922 0
M  V30 20712 H 1970.33 2.46617 -1.69766 0
M  V30 20713 H 1967.88 1.18532 -0.817695 0
M  V30 20714 H 1969.83 4.214 0.000490272 0
M  V30 20715 H 1968.55 3.18932 0.703544 0
M  V30 20716 H 1967.21 3.37962 -1.42046 0
M  V30 20717 H 1966.86 5.01048 0.442652 0
M  V30 20718 H 1966.56 5.76363 -1.14367 0
M  V30 20719 H 1968.08 6.09985 -0.273968 0
M  V30 20720 H 1969.5 5.22089 -2.36845 0
M  V30 20721 H 1967.89 5.10693 -3.15139 0
M  V30 20722 H 1968.96 3.69342 -3.14189 0
M  V30 20723 N 1970.31 0.904053 1.29092 0
M  V30 20724 C 1971.72 0.580096 1.77459 0
M  V30 20725 C 1972.07 -0.904375 1.74113 0
M  V30 20726 O 1971.19 -1.70724 1.32975 0
M  V30 20727 C 1971.79 1.04624 3.22241 0
M  V30 20728 C 1970.35 0.773375 3.68369 0
M  V30 20729 C 1969.5 1.21848 2.49095 0
M  V30 20730 H 1972.45 1.08633 1.15692 0
M  V30 20731 H 1972.47 0.383425 3.78563 0
M  V30 20732 H 1971.98 2.12669 3.24644 0
M  V30 20733 H 1970.08 -0.294271 3.71436 0
M  V30 20734 H 1970.19 1.37431 4.58966 0
M  V30 20735 H 1968.56 0.63739 2.46596 0
M  V30 20736 H 1969.34 2.30706 2.54223 0
M  V30 20737 N 1971.79 -1.4279 0.666995 0
M  V30 20738 C 1972.7 -2.34594 -0.0164305 0
M  V30 20739 C 1973.71 -1.54657 -0.797322 0
M  V30 20740 O 1974.89 -1.87256 -0.741426 0
M  V30 20741 C 1971.95 -3.33102 -0.961469 0
M  V30 20742 C 1971.01 -4.28939 -0.17598 0
M  V30 20743 C 1970.25 -5.22741 -1.076 0
M  V30 20744 O 1970.47 -5.21289 -2.31546 0
M  V30 20745 O 1969.4 -5.99464 -0.541001 0
M  V30 20746 H 1973.23 -2.94557 0.739579 0
M  V30 20747 H 1970.81 -1.43162 0.427207 0
M  V30 20748 H 1972.7 -3.93639 -1.5042 0
M  V30 20749 H 1971.37 -2.75623 -1.69746 0
M  V30 20750 H 1970.28 -3.71839 0.410667 0
M  V30 20751 H 1971.61 -4.89438 0.520737 0
M  V30 20752 N 1973.26 -0.409806 -1.52179 0
M  V30 20753 C 1974.21 0.415351 -2.27032 0
M  V30 20754 C 1975.18 1.04048 -1.29473 0
M  V30 20755 O 1976.37 1.06462 -1.58336 0
M  V30 20756 C 1973.51 1.52571 -3.09542 0
M  V30 20757 C 1972.62 0.921439 -4.22059 0
M  V30 20758 C 1971.75 2.00455 -4.91926 0
M  V30 20759 C 1970.79 1.37725 -5.96404 0
M  V30 20760 N 1969.93 2.40054 -6.59787 0
M  V30 20761 H 1974.77 -0.22939 -2.97116 0
M  V30 20762 H 1972.31 -0.124962 -1.46568 0
M  V30 20763 H 1974.26 2.18046 -3.55685 0
M  V30 20764 H 1972.89 2.14047 -2.41627 0
M  V30 20765 H 1971.95 0.15572 -3.80081 0
M  V30 20766 H 1973.26 0.423208 -4.97001 0
M  V30 20767 H 1972.41 2.73655 -5.41477 0
M  V30 20768 H 1971.15 2.53644 -4.16552 0
M  V30 20769 H 1970.16 0.63059 -5.46172 0
M  V30 20770 H 1971.38 0.853049 -6.73721 0
M  V30 20771 H 1969.33 2.92374 -5.87242 0
M  V30 20772 H 1969.24 1.95045 -7.30406 0
M  V30 20773 H 1970.51 3.12822 -7.13977 0
M  V30 20774 N 1974.74 1.56975 -0.14025 0
M  V30 20775 C 1975.65 2.19981 0.815207 0
M  V30 20776 C 1976.67 1.18211 1.2768 0
M  V30 20777 O 1977.84 1.50762 1.33539 0
M  V30 20778 C 1974.91 2.80369 2.03946 0
M  V30 20779 C 1973.97 3.97244 1.62774 0
M  V30 20780 C 1973.2 4.54744 2.79363 0
M  V30 20781 O 1973.43 4.11124 3.9539 0
M  V30 20782 O 1972.36 5.45109 2.55224 0
M  V30 20783 H 1976.19 3.02125 0.308908 0
M  V30 20784 H 1973.77 1.4915 0.0864409 0
M  V30 20785 H 1975.65 3.18778 2.75606 0
M  V30 20786 H 1974.33 2.01243 2.53541 0
M  V30 20787 H 1973.23 3.63564 0.88158 0
M  V30 20788 H 1974.57 4.7787 1.17901 0
M  V30 20789 N 1976.22 -0.133539 1.57033 0
M  V30 20790 C 1977.13 -1.18362 2.02553 0
M  V30 20791 C 1978.15 -1.46212 0.943294 0
M  V30 20792 O 1979.32 -1.57616 1.25376 0
M  V30 20793 C 1976.39 -2.49391 2.40842 0
M  V30 20794 C 1975.45 -2.29068 3.63079 0
M  V30 20795 C 1974.68 -3.53849 3.99533 0
M  V30 20796 O 1974.9 -4.60576 3.36491 0
M  V30 20797 O 1973.84 -3.45713 4.92713 0
M  V30 20798 H 1977.66 -0.827128 2.9222 0
M  V30 20799 H 1975.25 -0.343267 1.45403 0
M  V30 20800 H 1977.13 -3.26617 2.66269 0
M  V30 20801 H 1975.81 -2.84544 1.54326 0
M  V30 20802 H 1974.71 -1.49749 3.42821 0
M  V30 20803 H 1976.05 -1.98826 4.50254 0
M  V30 20804 N 1977.7 -1.52352 -0.403298 0
M  V30 20805 C 1978.94 -1.66697 -1.14971 0
M  V30 20806 C 1979.27 -0.39978 -1.90347 0
M  V30 20807 O 1978.53 0.617431 -1.85705 0
M  V30 20808 C 1978.83 -2.84352 -2.16515 0
M  V30 20809 C 1978.49 -4.22348 -1.57903 0
M  V30 20810 C 1977.15 -4.59881 -1.41643 0
M  V30 20811 C 1979.51 -5.0832 -1.15154 0
M  V30 20812 C 1976.83 -5.81059 -0.811602 0
M  V30 20813 C 1979.19 -6.30109 -0.560875 0
M  V30 20814 C 1977.85 -6.66386 -0.385456 0
M  V30 20815 H 1977.12 -0.609988 -0.420708 0
M  V30 20816 H 1979.77 -1.86467 -0.436164 0
M  V30 20817 H 1978.07 -2.58941 -2.94036 0
M  V30 20818 H 1979.77 -2.92647 -2.74151 0
M  V30 20819 H 1976.36 -3.92774 -1.71543 0
M  V30 20820 H 1980.54 -4.79902 -1.26523 0
M  V30 20821 H 1975.8 -6.07786 -0.66376 0
M  V30 20822 H 1979.97 -6.96048 -0.221267 0
M  V30 20823 H 1977.6 -7.60152 0.0853049 0
M  V30 20824 N 1979.18 0.660885 -1.43074 0
M  V30 20825 C 1980.59 1.24187 -1.39407 0
M  V30 20826 C 1980.94 1.95973 -0.0942854 0
M  V30 20827 O 1980.06 2.00808 0.80654 0
M  V30 20828 C 1980.66 2.25865 -2.52528 0
M  V30 20829 C 1979.22 2.79459 -2.5215 0
M  V30 20830 C 1978.36 1.53984 -2.30617 0
M  V30 20831 H 1981.31 0.453383 -1.52086 0
M  V30 20832 H 1981.34 3.07886 -2.23577 0
M  V30 20833 H 1980.85 1.73589 -3.47114 0
M  V30 20834 H 1978.95 3.35818 -1.61422 0
M  V30 20835 H 1979.06 3.27526 -3.49662 0
M  V30 20836 H 1977.43 1.81056 -1.79139 0
M  V30 20837 H 1978.21 1.03654 -3.27278 0
M  V30 20838 N 1980.65 1.29477 0.898527 0
M  V30 20839 C 1981.9 1.17516 1.64913 0
M  V30 20840 C 1982.23 -0.273086 1.92573 0
M  V30 20841 O 1981.48 -1.21353 1.53531 0
M  V30 20842 C 1981.78 1.93505 3.00484 0
M  V30 20843 C 1981.45 3.43216 2.92427 0
M  V30 20844 C 1980.11 3.84044 2.89937 0
M  V30 20845 C 1982.46 4.38611 2.81548 0
M  V30 20846 C 1979.79 5.18582 2.74389 0
M  V30 20847 C 1982.14 5.73241 2.67539 0
M  V30 20848 C 1980.81 6.13326 2.63416 0
M  V30 20849 H 1980.08 0.430023 0.603458 0
M  V30 20850 H 1982.72 1.60427 1.04572 0
M  V30 20851 H 1981.03 1.43189 3.64698 0
M  V30 20852 H 1982.73 1.81654 3.57495 0
M  V30 20853 H 1979.32 3.10763 2.95168 0
M  V30 20854 H 1983.5 4.0802 2.82548 0
M  V30 20855 H 1978.76 5.48748 2.69602 0
M  V30 20856 H 1982.93 6.46808 2.58093 0
M  V30 20857 H 1980.56 7.17523 2.51126 0
M  V30 20858 N 1982.13 -1.10905 1.11972 0
M  V30 20859 C 1983.1 -2.1529 0.786324 0
M  V30 20860 C 1984.1 -1.59589 -0.196987 0
M  V30 20861 O 1985.29 -1.74177 0.0281964 0
M  V30 20862 C 1982.42 -3.40488 0.167611 0
M  V30 20863 H 1983.61 -2.46295 1.71111 0
M  V30 20864 H 1981.16 -1.26185 0.922332 0
M  V30 20865 H 1981.9 -3.15096 -0.76713 0
M  V30 20866 H 1981.68 -3.822 0.875514 0
M  V30 20867 H 1983.17 -4.17571 -0.0493303 0
M  V30 20868 N 1983.61 -0.910886 -1.2861 0
M  V30 20869 C 1984.54 -0.413998 -2.29801 0
M  V30 20870 C 1985.52 0.51689 -1.62056 0
M  V30 20871 O 1986.71 0.425236 -1.89487 0
M  V30 20872 C 1983.84 0.349336 -3.45539 0
M  V30 20873 C 1982.79 -0.49215 -4.25161 0
M  V30 20874 C 1982.12 0.399352 -5.33207 0
M  V30 20875 C 1983.42 -1.74792 -4.92184 0
M  V30 20876 H 1985.11 -1.25965 -2.71612 0
M  V30 20877 H 1982.66 -0.607149 -1.30575 0
M  V30 20878 H 1984.61 0.70777 -4.15414 0
M  V30 20879 H 1983.33 1.22887 -3.02599 0
M  V30 20880 H 1981.99 -0.833064 -3.57009 0
M  V30 20881 H 1981.64 1.27734 -4.86511 0
M  V30 20882 H 1981.34 -0.160062 -5.87382 0
M  V30 20883 H 1982.86 0.753731 -6.0593 0
M  V30 20884 H 1984.28 -1.45856 -5.54436 0
M  V30 20885 H 1982.68 -2.24952 -5.56342 0
M  V30 20886 H 1983.75 -2.4774 -4.16837 0
M  V30 20887 N 1985.09 1.42434 -0.674558 0
M  V30 20888 C 1986.34 2.01144 -0.196332 0
M  V30 20889 C 1986.66 1.53605 1.20127 0
M  V30 20890 O 1985.93 0.757627 1.80657 0
M  V30 20891 H 1984.51 0.743751 -0.0695937 0
M  V30 20892 H 1987.17 1.74354 -0.871013 0
M  V30 20893 H 1986.27 3.11475 -0.197426 0
M  V30 20894 N 1986.57 0.417871 1.51959 0
M  V30 20895 C 1987.81 -0.155282 2.02205 0
M  V30 20896 C 1988.15 -1.44044 1.3025 0
M  V30 20897 O 1987.42 -1.90098 0.411449 0
M  V30 20898 C 1987.7 -0.394038 3.57938 0
M  V30 20899 C 1987.56 0.908404 4.40532 0
M  V30 20900 C 1988.88 -1.17238 4.24197 0
M  V30 20901 H 1985.99 -0.0549616 0.734948 0
M  V30 20902 H 1988.64 0.553053 1.81773 0
M  V30 20903 H 1986.79 -0.997422 3.75478 0
M  V30 20904 H 1988.46 1.54427 4.34684 0
M  V30 20905 H 1986.7 1.51743 4.06395 0
M  V30 20906 H 1987.37 0.69563 5.47599 0
M  V30 20907 H 1989.85 -0.661461 4.10809 0
M  V30 20908 H 1988.72 -1.30818 5.33083 0
M  V30 20909 H 1988.99 -2.19534 3.83741 0
M  V30 20910 N 1988.04 -1.56898 0.148573 0
M  V30 20911 C 1988.98 -2.13971 -0.821526 0
M  V30 20912 C 1989.99 -1.08955 -1.20965 0
M  V30 20913 O 1991.18 -1.36226 -1.15346 0
M  V30 20914 C 1988.28 -2.6488 -2.11404 0
M  V30 20915 C 1987.45 -3.94313 -1.89303 0
M  V30 20916 C 1986.51 -4.30517 -3.02558 0
M  V30 20917 O 1985.54 -4.98812 -2.74181 0
M  V30 20918 N 1986.74 -3.90226 -4.29772 0
M  V30 20919 H 1989.5 -2.97836 -0.333735 0
M  V30 20920 H 1987.06 -1.61862 -0.0349479 0
M  V30 20921 H 1989.06 -2.86112 -2.8622 0
M  V30 20922 H 1987.63 -1.85731 -2.51441 0
M  V30 20923 H 1986.85 -3.81692 -0.985147 0
M  V30 20924 H 1988.13 -4.7889 -1.71877 0
M  V30 20925 H 1987.53 -3.352 -4.55694 0
M  V30 20926 H 1986.09 -4.16506 -5.01364 0
M  V30 20927 N 1989.52 0.125209 -1.57102 0
M  V30 20928 C 1990.75 0.848436 -1.88704 0
M  V30 20929 C 1991.17 1.73729 -0.739158 0
M  V30 20930 O 1990.52 1.80177 0.290278 0
M  V30 20931 C 1990.57 1.68704 -3.1972 0
M  V30 20932 O 1990.29 0.833978 -4.30089 0
M  V30 20933 C 1991.8 2.51596 -3.64985 0
M  V30 20934 H 1989.02 0.244227 -0.624975 0
M  V30 20935 H 1991.56 0.111462 -2.04196 0
M  V30 20936 H 1989.71 2.37684 -3.05917 0
M  V30 20937 H 1990.13 1.4118 -5.05142 0
M  V30 20938 H 1991.6 3.05978 -4.59436 0
M  V30 20939 H 1992.08 3.28664 -2.91336 0
M  V30 20940 H 1992.69 1.8787 -3.81556 0
M  V30 20941 N 1991 1.52564 0.395213 0
M  V30 20942 C 1991.93 1.79867 1.48897 0
M  V30 20943 C 1992.91 0.650351 1.57176 0
M  V30 20944 O 1994.1 0.897328 1.72226 0
M  V30 20945 C 1991.23 1.96192 2.86576 0
M  V30 20946 C 1990.18 3.11854 2.9314 0
M  V30 20947 C 1989.51 3.13424 4.33208 0
M  V30 20948 C 1990.81 4.51046 2.63353 0
M  V30 20949 H 1992.5 2.71457 1.26299 0
M  V30 20950 H 1990.05 1.30621 0.606145 0
M  V30 20951 H 1992 2.13875 3.63091 0
M  V30 20952 H 1990.72 1.01286 3.10498 0
M  V30 20953 H 1989.38 2.93944 2.19072 0
M  V30 20954 H 1989.03 2.16212 4.5416 0
M  V30 20955 H 1988.73 3.91117 4.38522 0
M  V30 20956 H 1990.25 3.33254 5.11639 0
M  V30 20957 H 1991.67 4.6909 3.29587 0
M  V30 20958 H 1990.07 5.3076 2.80024 0
M  V30 20959 H 1991.14 4.58187 1.58722 0
M  V30 20960 N 1992.48 -0.653289 1.43422 0
M  V30 20961 C 1993.89 -1.23446 1.40064 0
M  V30 20962 C 1994.24 -1.95921 0.104677 0
M  V30 20963 O 1993.37 -2.01233 -0.79588 0
M  V30 20964 C 1993.96 -2.24523 2.53722 0
M  V30 20965 C 1992.52 -2.78117 2.53629 0
M  V30 20966 C 1991.67 -1.52759 2.3143 0
M  V30 20967 H 1994.62 -0.445312 1.52324 0
M  V30 20968 H 1994.64 -3.06696 2.25207 0
M  V30 20969 H 1994.15 -1.71746 3.4803 0
M  V30 20970 H 1992.25 -3.34957 1.632 0
M  V30 20971 H 1992.36 -3.25667 3.51394 0
M  V30 20972 H 1990.73 -1.80104 1.80096 0
M  V30 20973 H 1991.51 -1.01917 3.27823 0
M  V30 20974 N 1993.96 -1.29952 -0.891648 0
M  V30 20975 C 1994.89 -1.11577 -2.00208 0
M  V30 20976 C 1995.9 -0.0609281 -1.62686 0
M  V30 20977 O 1997.09 -0.306271 -1.75853 0
M  V30 20978 C 1994.19 -0.678052 -3.32048 0
M  V30 20979 C 1993.36 -1.81318 -3.98048 0
M  V30 20980 C 1992.42 -1.36513 -5.08184 0
M  V30 20981 O 1991.45 -2.07122 -5.30178 0
M  V30 20982 N 1992.65 -0.240455 -5.80002 0
M  V30 20983 H 1995.42 -2.07214 -2.16523 0
M  V30 20984 H 1992.98 -1.21998 -1.06433 0
M  V30 20985 H 1994.97 -0.361457 -4.03083 0
M  V30 20986 H 1993.54 0.186094 -3.12046 0
M  V30 20987 H 1992.76 -2.29824 -3.20272 0
M  V30 20988 H 1994.05 -2.57406 -4.38885 0
M  V30 20989 H 1993.44 0.34806 -5.64628 0
M  V30 20990 H 1992 0.016726 -6.51798 0
M  V30 20991 N 1995.44 1.1031 -1.12559 0
M  V30 20992 C 1996.66 1.86078 -0.90458 0
M  V30 20993 C 1997.08 1.80726 0.546224 0
M  V30 20994 O 1996.44 1.1969 1.3777 0
M  V30 20995 C 1996.49 3.34425 -1.37268 0
M  V30 20996 O 1996.21 3.39691 -2.76661 0
M  V30 20997 C 1997.71 4.27063 -1.18879 0
M  V30 20998 H 1994.93 0.588055 -0.32316 0
M  V30 20999 H 1997.47 1.39441 -1.49588 0
M  V30 21000 H 1995.63 3.78523 -0.824578 0
M  V30 21001 H 1996.04 4.3215 -2.97232 0
M  V30 21002 H 1997.52 5.29345 -1.56518 0
M  V30 21003 H 1997.99 4.39009 -0.129502 0
M  V30 21004 H 1998.6 3.88771 -1.72445 0
M  V30 21005 N 1996.91 0.917694 1.28125 0
M  V30 21006 C 1998.15 0.56005 1.96578 0
M  V30 21007 C 1998.52 -0.880571 1.70616 0
M  V30 21008 O 1999.72 -1.34599 2.32673 0
M  V30 21009 C 1997.99 0.865324 3.46766 0
M  V30 21010 S 1999.55 0.61469 4.34473 0
M  V30 21011 H 1996.37 0.207088 0.680173 0
M  V30 21012 H 1998.97 1.18399 1.5557 0
M  V30 21013 H 1997.67 1.91167 3.63157 0
M  V30 21014 H 1997.2 0.23019 3.92726 0
M  V30 21015 H 1999.22 -0.532159 4.93338 0
M  V30 21016 N 1998.39 -1.42074 0.682102 0
M  V30 21017 C 1999.67 -1.95126 0.136033 0
M  V30 21018 C 2000.05 -1.62218 -1.35088 0
M  V30 21019 O 1999.4 -0.922124 -2.09067 0
M  V30 21020 C 1999.61 -3.46548 0.412954 0
M  V30 21021 C 2000.95 -4.23289 0.333404 0
M  V30 21022 O 2001.98 -3.54505 0.34711 0
M  V30 21023 O 2000.84 -5.45773 0.281884 0
M  V30 21024 H 1997.93 -0.826969 0.00711447 0
M  V30 21025 H 2000.48 -1.51864 0.757335 0
M  V30 21026 H 1999.25 -3.63733 1.4427 0
M  V30 21027 H 1998.87 -3.96875 -0.239993 0
M  V30 21028 N 1999.87 -0.425924 -1.51735 0
M  V30 21029 C 2000.78 0.39769 -2.31205 0
M  V30 21030 C 2001.8 1.0382 -1.39633 0
M  V30 21031 O 2002.97 1.03606 -1.72707 0
M  V30 21032 C 2000.04 1.49033 -3.13033 0
M  V30 21033 C 1999.1 0.871143 -4.20368 0
M  V30 21034 C 1998.33 1.91172 -4.98286 0
M  V30 21035 O 1998.55 3.13232 -4.76699 0
M  V30 21036 O 1997.49 1.5086 -5.82688 0
M  V30 21037 H 2001.31 -0.25075 -3.02663 0
M  V30 21038 H 1998.9 -0.188723 -1.48203 0
M  V30 21039 H 2000.78 2.12428 -3.6394 0
M  V30 21040 H 1999.46 2.12307 -2.44351 0
M  V30 21041 H 1998.36 0.199453 -3.73568 0
M  V30 21042 H 1999.7 0.282077 -4.91391 0
M  V30 21043 N 2001.35 1.56817 -0.156891 0
M  V30 21044 C 2002.76 1.83151 0.362283 0
M  V30 21045 C 2003.11 1.07606 1.64059 0
M  V30 21046 O 2002.23 0.324479 2.13953 0
M  V30 21047 C 2002.83 3.32228 0.664072 0
M  V30 21048 C 2001.39 3.59109 1.12773 0
M  V30 21049 C 2000.54 2.76861 0.155995 0
M  V30 21050 H 2003.49 1.54048 -0.381419 0
M  V30 21051 H 2003.51 3.48921 1.5177 0
M  V30 21052 H 2003.02 3.87184 -0.266475 0
M  V30 21053 H 2001.12 3.0955 2.07388 0
M  V30 21054 H 2001.23 4.67523 1.04687 0
M  V30 21055 H 1999.6 2.46251 0.650561 0
M  V30 21056 H 2000.38 3.34592 -0.768318 0
M  V30 21057 N 2002.83 -0.116876 1.57166 0
M  V30 21058 C 2003.77 -1.14325 2.00496 0
M  V30 21059 C 2004.74 -1.41031 0.877465 0
M  V30 21060 O 2005.93 -1.52861 1.14185 0
M  V30 21061 C 2003.07 -2.46409 2.41612 0
M  V30 21062 C 2002.18 -2.26621 3.67787 0
M  V30 21063 C 2001.32 -3.51951 3.97875 0
M  V30 21064 C 2000.35 -3.27329 5.17225 0
M  V30 21065 N 1999.49 -4.44867 5.43174 0
M  V30 21066 H 2004.33 -0.766757 2.87967 0
M  V30 21067 H 2001.87 -0.367106 1.42446 0
M  V30 21068 H 2003.83 -3.23465 2.63488 0
M  V30 21069 H 2002.46 -2.81947 1.5718 0
M  V30 21070 H 2001.51 -1.40472 3.53513 0
M  V30 21071 H 2002.82 -2.04405 4.54994 0
M  V30 21072 H 2001.97 -4.37424 4.20411 0
M  V30 21073 H 2000.71 -3.772 3.09147 0
M  V30 21074 H 1999.72 -2.40247 4.94532 0
M  V30 21075 H 2000.94 -3.03448 6.07533 0
M  V30 21076 H 1998.89 -4.70233 4.57403 0
M  V30 21077 H 1998.81 -4.25764 6.24709 0
M  V30 21078 H 2000.07 -5.31468 5.7023 0
M  V30 21079 N 2004.3 -1.52772 -0.387116 0
M  V30 21080 C 2005.27 -1.77036 -1.45571 0
M  V30 21081 C 2006.27 -0.64041 -1.47497 0
M  V30 21082 O 2007.46 -0.908478 -1.48635 0
M  V30 21083 C 2004.59 -1.87284 -2.84846 0
M  V30 21084 H 2005.78 -2.72452 -1.25339 0
M  V30 21085 H 2003.33 -1.43522 -0.61897 0
M  V30 21086 H 2004.07 -0.9386 -3.1042 0
M  V30 21087 H 2003.85 -2.6945 -2.84849 0
M  V30 21088 H 2005.34 -2.07723 -3.62272 0
M  V30 21089 N 2005.78 0.645673 -1.43767 0
M  V30 21090 C 2006.73 1.75163 -1.45952 0
M  V30 21091 C 2007.72 1.57541 -0.327037 0
M  V30 21092 O 2008.91 1.67525 -0.571347 0
M  V30 21093 C 2006.04 3.13787 -1.39257 0
M  V30 21094 C 2005.12 3.3693 -2.57564 0
M  V30 21095 N 2005.51 3.30508 -3.82881 0
M  V30 21096 C 2003.81 3.67676 -2.52449 0
M  V30 21097 C 2004.51 3.5394 -4.61629 0
M  V30 21098 N 2003.49 3.76116 -3.92476 0
M  V30 21099 H 2007.29 1.68634 -2.40707 0
M  V30 21100 H 2004.8 0.847619 -1.38525 0
M  V30 21101 H 2006.8 3.93079 -1.38905 0
M  V30 21102 H 2005.46 3.21492 -0.455285 0
M  V30 21103 H 2006.47 3.09751 -4.1506 0
M  V30 21104 H 2003.15 3.8245 -1.67445 0
M  V30 21105 H 2004.54 3.5469 -5.70653 0
M  V30 21106 N 2007.26 1.30423 0.884744 0
M  V30 21107 C 2008.49 1.22184 1.66969 0
M  V30 21108 C 2008.9 -0.215259 1.87569 0
M  V30 21109 O 2008.26 -1.14224 1.42335 0
M  V30 21110 C 2008.31 1.94692 3.04593 0
M  V30 21111 O 2008.03 3.32792 2.84923 0
M  V30 21112 C 2009.53 1.93114 3.99026 0
M  V30 21113 H 2006.75 0.422826 0.521018 0
M  V30 21114 H 2009.3 1.72052 1.10537 0
M  V30 21115 H 2007.45 1.48623 3.57757 0
M  V30 21116 H 2007.87 3.69517 3.72233 0
M  V30 21117 H 2009.34 2.48386 4.92959 0
M  V30 21118 H 2009.82 0.91013 4.29666 0
M  V30 21119 H 2010.42 2.38996 3.51797 0
M  V30 21120 N 2008.74 -1.09711 1.13142 0
M  V30 21121 C 2009.96 -1.86136 0.914785 0
M  V30 21122 C 2010.39 -1.80448 -0.531035 0
M  V30 21123 O 2009.75 -1.17983 -1.37658 0
M  V30 21124 C 2009.79 -3.32164 1.40356 0
M  V30 21125 O 2008.9 -4.08203 0.586881 0
M  V30 21126 H 2008.24 -0.577287 0.328079 0
M  V30 21127 H 2010.77 -1.38563 1.50537 0
M  V30 21128 H 2010.78 -3.83013 1.40589 0
M  V30 21129 H 2009.45 -3.35619 2.45628 0
M  V30 21130 H 2008.03 -3.67153 0.652163 0
M  V30 21131 N 2010.22 -0.924476 -1.27637 0
M  V30 21132 C 2011.46 -0.563219 -1.9451 0
M  V30 21133 C 2011.79 0.894968 -1.72686 0
M  V30 21134 O 2011.05 1.65323 -1.04722 0
M  V30 21135 C 2011.35 -0.831659 -3.47589 0
M  V30 21136 C 2011.01 -2.27108 -3.89529 0
M  V30 21137 C 2009.67 -2.6646 -4.0069 0
M  V30 21138 C 2012.03 -3.20729 -4.10832 0
M  V30 21139 C 2009.35 -3.98563 -4.3054 0
M  V30 21140 C 2011.71 -4.52409 -4.42164 0
M  V30 21141 C 2010.37 -4.91599 -4.51538 0
M  V30 21142 H 2009.64 -0.206096 -0.711762 0
M  V30 21143 H 2012.29 -1.16783 -1.51769 0
M  V30 21144 H 2010.59 -0.144345 -3.91534 0
M  V30 21145 H 2012.29 -0.531162 -3.97467 0
M  V30 21146 H 2008.88 -1.95577 -3.81376 0
M  V30 21147 H 2013.06 -2.9153 -4.01652 0
M  V30 21148 H 2008.32 -4.28614 -4.36005 0
M  V30 21149 H 2012.49 -5.24957 -4.57595 0
M  V30 21150 H 2010.12 -5.93994 -4.74421 0
M  V30 21151 N 2011.69 1.41711 -0.689627 0
M  V30 21152 C 2012.63 2.29192 0.018551 0
M  V30 21153 C 2013.64 1.44471 0.750468 0
M  V30 21154 O 2014.83 1.68037 0.602159 0
M  V30 21155 C 2011.93 3.22215 1.05027 0
M  V30 21156 C 2011.1 4.35665 0.389181 0
M  V30 21157 C 2010.16 5.09304 1.3227 0
M  V30 21158 O 2009.19 5.63301 0.817347 0
M  V30 21159 N 2010.39 5.16209 2.65533 0
M  V30 21160 H 2013.15 2.90611 -0.732482 0
M  V30 21161 H 2010.71 1.52798 -0.535191 0
M  V30 21162 H 2012.71 3.68347 1.67638 0
M  V30 21163 H 2011.28 2.62145 1.7029 0
M  V30 21164 H 2010.5 3.91991 -0.416702 0
M  V30 21165 H 2011.78 5.08751 -0.070752 0
M  V30 21166 H 2011.18 4.73777 3.09115 0
M  V30 21167 H 2009.74 5.65938 3.23354 0
M  V30 21168 N 2013.17 0.433965 1.51507 0
M  V30 21169 C 2014.42 -0.135114 2.01247 0
M  V30 21170 C 2014.73 -1.4408 1.32289 0
M  V30 21171 O 2015.94 -2.09262 1.72979 0
M  V30 21172 C 2014.4 -0.291335 3.58719 0
M  V30 21173 C 2014 1.00372 4.36611 0
M  V30 21174 C 2015.75 -0.814365 4.16615 0
M  V30 21175 C 2013.66 0.813324 5.85781 0
M  V30 21176 H 2012.59 -0.0542694 0.752044 0
M  V30 21177 H 2015.24 0.563211 1.74643 0
M  V30 21178 H 2013.62 -1.05258 3.81755 0
M  V30 21179 H 2014.79 1.77304 4.25323 0
M  V30 21180 H 2013.11 1.45503 3.90151 0
M  V30 21181 H 2015.7 -0.973246 5.25768 0
M  V30 21182 H 2016.05 -1.79589 3.75571 0
M  V30 21183 H 2016.58 -0.111519 3.97644 0
M  V30 21184 H 2013.32 1.76713 6.31231 0
M  V30 21185 H 2012.84 0.083744 5.99742 0
M  V30 21186 H 2014.52 0.465195 6.45325 0
M  V30 21187 N 2014.65 -1.56732 0.165206 0
M  V30 21188 C 2015.88 -2.01506 -0.490943 0
M  V30 21189 C 2016.3 -1.04466 -1.56424 0
M  V30 21190 O 2015.66 -0.0232331 -1.81285 0
M  V30 21191 C 2015.71 -3.4492 -1.05179 0
M  V30 21192 O 2014.81 -3.50937 -2.16603 0
M  V30 21193 H 2014.15 -0.653393 -0.11821 0
M  V30 21194 H 2016.68 -2.02846 0.267298 0
M  V30 21195 H 2016.69 -3.84099 -1.37593 0
M  V30 21196 H 2015.37 -4.15049 -0.265916 0
M  V30 21197 H 2013.94 -3.23613 -1.85281 0
M  V30 21198 N 2016.13 0.10854 -1.57226 0
M  V30 21199 C 2017.06 1.13362 -2.04135 0
M  V30 21200 C 2018.04 1.42573 -0.927733 0
M  V30 21201 O 2019.22 1.52835 -1.19813 0
M  V30 21202 C 2016.35 2.45708 -2.45449 0
M  V30 21203 C 2015.31 2.30935 -3.60351 0
M  V30 21204 C 2014.63 3.68337 -3.87597 0
M  V30 21205 C 2015.93 1.76112 -4.91713 0
M  V30 21206 H 2017.63 0.74341 -2.90024 0
M  V30 21207 H 2015.17 0.356157 -1.39526 0
M  V30 21208 H 2017.13 3.17679 -2.76872 0
M  V30 21209 H 2015.85 2.86639 -1.56544 0
M  V30 21210 H 2014.51 1.61411 -3.29153 0
M  V30 21211 H 2014.16 4.06772 -2.95881 0
M  V30 21212 H 2013.86 3.59303 -4.64946 0
M  V30 21213 H 2015.38 4.41797 -4.21483 0
M  V30 21214 H 2016.8 2.3791 -5.21605 0
M  V30 21215 H 2015.19 1.77872 -5.73133 0
M  V30 21216 H 2016.26 0.71947 -4.79533 0
M  V30 21217 N 2017.61 1.52975 0.379009 0
M  V30 21218 C 2018.83 1.72698 1.14849 0
M  V30 21219 C 2019.26 0.448814 1.82667 0
M  V30 21220 O 2018.61 -0.596182 1.71217 0
M  V30 21221 C 2018.66 2.884 2.16466 0
M  V30 21222 O 2017.77 2.56071 3.23267 0
M  V30 21223 H 2017.11 0.573952 0.333878 0
M  V30 21224 H 2019.64 1.99807 0.440243 0
M  V30 21225 H 2019.65 3.14183 2.60295 0
M  V30 21226 H 2018.32 3.8112 1.66494 0
M  V30 21227 H 2016.9 2.41063 2.84505 0
M  V30 21228 N 2019.08 -0.63804 1.44107 0
M  V30 21229 C 2020.33 -1.39979 1.46743 0
M  V30 21230 C 2020.66 -1.93957 0.0970287 0
M  V30 21231 O 2019.94 -1.73232 -0.884358 0
M  V30 21232 C 2020.22 -2.57015 2.52221 0
M  V30 21233 C 2020.07 -2.08431 3.98593 0
M  V30 21234 C 2021.39 -3.59212 2.54273 0
M  V30 21235 H 2018.51 -0.507635 0.534299 0
M  V30 21236 H 2021.15 -0.722028 1.75746 0
M  V30 21237 H 2019.3 -3.14835 2.2762 0
M  V30 21238 H 2020.98 -1.55494 4.34303 0
M  V30 21239 H 2019.22 -1.39672 4.107 0
M  V30 21240 H 2019.89 -2.92659 4.68033 0
M  V30 21241 H 2022.37 -3.11179 2.76237 0
M  V30 21242 H 2021.24 -4.38631 3.29991 0
M  V30 21243 H 2021.5 -4.12821 1.58214 0
M  V30 21244 N 2020.56 -1.3089 -0.877815 0
M  V30 21245 C 2021.79 -1.23199 -1.66844 0
M  V30 21246 C 2022.21 0.200808 -1.87025 0
M  V30 21247 O 2021.57 1.14417 -1.40636 0
M  V30 21248 C 2021.62 -1.97328 -3.01818 0
M  V30 21249 O 2020.72 -1.30526 -3.91199 0
M  V30 21250 H 2020.06 -0.425746 -0.509545 0
M  V30 21251 H 2022.59 -1.7283 -1.09504 0
M  V30 21252 H 2022.6 -2.06624 -3.51811 0
M  V30 21253 H 2021.28 -3.01529 -2.86449 0
M  V30 21254 H 2019.86 -1.29631 -3.49643 0
M  V30 21255 N 2022.04 1.0911 -1.13723 0
M  V30 21256 C 2023.27 1.8484 -0.922925 0
M  V30 21257 C 2023.68 1.81573 0.531774 0
M  V30 21258 O 2023.02 1.21252 1.37998 0
M  V30 21259 C 2023.08 3.33708 -1.33712 0
M  V30 21260 C 2022.75 3.60719 -2.8059 0
M  V30 21261 C 2023.74 3.56168 -3.78735 0
M  V30 21262 C 2021.43 3.8896 -3.17829 0
M  V30 21263 C 2023.42 3.79475 -5.1213 0
M  V30 21264 C 2021.11 4.11922 -4.51402 0
M  V30 21265 C 2022.11 4.07172 -5.48361 0
M  V30 21266 O 2021.8 4.29537 -6.79524 0
M  V30 21267 H 2021.53 0.590602 -0.328884 0
M  V30 21268 H 2024.08 1.38756 -1.51446 0
M  V30 21269 H 2022.31 3.80515 -0.688871 0
M  V30 21270 H 2024 3.90857 -1.09477 0
M  V30 21271 H 2024.77 3.34373 -3.51312 0
M  V30 21272 H 2020.65 3.91781 -2.42959 0
M  V30 21273 H 2024.19 3.75683 -5.87799 0
M  V30 21274 H 2020.09 4.33199 -4.78549 0
M  V30 21275 H 2020.86 4.46981 -6.85675 0
M  V30 21276 N 2023.52 0.931232 1.27145 0
M  V30 21277 C 2024.75 0.589956 1.98311 0
M  V30 21278 C 2025.16 -0.832836 1.69438 0
M  V30 21279 O 2024.52 -1.55399 0.956935 0
M  V30 21280 C 2024.57 0.810592 3.52295 0
M  V30 21281 O 2024.29 2.17741 3.80158 0
M  V30 21282 C 2025.79 0.478508 4.4071 0
M  V30 21283 H 2023.01 0.223234 0.632778 0
M  V30 21284 H 2025.56 1.24922 1.6191 0
M  V30 21285 H 2023.71 0.198081 3.86893 0
M  V30 21286 H 2024.12 2.23003 4.74731 0
M  V30 21287 H 2025.6 0.683566 5.47751 0
M  V30 21288 H 2026.08 -0.586102 4.35272 0
M  V30 21289 H 2026.68 1.06931 4.11638 0
M  V30 21290 N 2025 -1.41343 0.697132 0
M  V30 21291 C 2026.25 -2.00806 0.228308 0
M  V30 21292 C 2026.57 -1.55497 -1.17668 0
M  V30 21293 O 2025.84 -0.786272 -1.79428 0
M  V30 21294 H 2024.42 -0.74255 0.0814173 0
M  V30 21295 H 2027.08 -1.72946 0.898641 0
M  V30 21296 H 2026.17 -3.11121 0.246954 0
M  V30 21297 N 2026.48 -0.441993 -1.51275 0
M  V30 21298 C 2027.7 0.123815 -2.0703 0
M  V30 21299 C 2028.13 1.35293 -1.30681 0
M  V30 21300 O 2027.48 1.77966 -0.346072 0
M  V30 21301 C 2027.53 0.419988 -3.58146 0
M  V30 21302 O 2026.64 1.50565 -3.83932 0
M  V30 21303 H 2025.98 -0.00017643 -0.664 0
M  V30 21304 H 2028.51 -0.624668 -1.94831 0
M  V30 21305 H 2028.52 0.66908 -4.02476 0
M  V30 21306 H 2027.19 -0.478329 -4.1314 0
M  V30 21307 H 2025.77 1.24615 -3.51462 0
M  V30 21308 N 2027.95 1.56642 -0.173515 0
M  V30 21309 C 2029.37 1.58552 0.182625 0
M  V30 21310 C 2029.57 1.18895 1.62685 0
M  V30 21311 O 2028.63 0.901576 2.35856 0
M  V30 21312 C 2029.94 3.00533 -0.100181 0
M  V30 21313 C 2031.49 3.12976 -0.038567 0
M  V30 21314 C 2031.96 4.57053 -0.294392 0
M  V30 21315 N 2033.45 4.62566 -0.242245 0
M  V30 21316 C 2034.19 5.71901 -0.414333 0
M  V30 21317 N 2033.68 6.89785 -0.645597 0
M  V30 21318 N 2035.48 5.61009 -0.350085 0
M  V30 21319 H 2027.63 1.80706 -1.1162 0
M  V30 21320 H 2029.89 0.837643 -0.443912 0
M  V30 21321 H 2029.6 3.34031 -1.10073 0
M  V30 21322 H 2029.47 3.72281 0.607196 0
M  V30 21323 H 2031.86 2.79303 0.952559 0
M  V30 21324 H 2031.94 2.4366 -0.778688 0
M  V30 21325 H 2031.58 4.91435 -1.28274 0
M  V30 21326 H 2031.51 5.24531 0.466366 0
M  V30 21327 H 2034 3.77837 -0.0692351 0
M  V30 21328 H 2034.32 7.68991 -0.766299 0
M  V30 21329 H 2032.66 6.91643 -0.682238 0
M  V30 21330 H 2035.85 4.67791 -0.169986 0
M  V30 21331 H 2036.03 6.46163 -0.487625 0
M  V30 21332 N 2029.43 -0.1002 1.57281 0
M  V30 21333 C 2030.66 -0.82219 1.90407 0
M  V30 21334 C 2031.08 -1.71739 0.767297 0
M  V30 21335 O 2030.44 -1.79103 -0.281369 0
M  V30 21336 C 2030.49 -1.61579 3.22373 0
M  V30 21337 O 2029.59 -2.72433 3.09603 0
M  V30 21338 H 2028.93 -0.2262 0.624283 0
M  V30 21339 H 2031.46 -0.0769557 2.04455 0
M  V30 21340 H 2031.47 -2.00109 3.55556 0
M  V30 21341 H 2030.15 -0.958772 4.04698 0
M  V30 21342 H 2028.72 -2.36968 2.87925 0
M  V30 21343 N 2030.91 -1.53174 -0.370891 0
M  V30 21344 C 2031.87 -1.7857 -1.43685 0
M  V30 21345 C 2032.87 -0.656018 -1.4681 0
M  V30 21346 O 2034.06 -0.924191 -1.47663 0
M  V30 21347 C 2031.19 -1.90295 -2.82844 0
M  V30 21348 H 2032.39 -2.73766 -1.22442 0
M  V30 21349 H 2029.94 -1.4417 -0.603713 0
M  V30 21350 H 2030.68 -0.971472 -3.09407 0
M  V30 21351 H 2030.46 -2.72456 -2.81975 0
M  V30 21352 H 2031.95 -2.11554 -3.60048 0
M  V30 21353 N 2032.39 0.630389 -1.44443 0
M  V30 21354 C 2033.61 1.42206 -1.50971 0
M  V30 21355 C 2034.04 1.87609 -0.135854 0
M  V30 21356 O 2033.4 1.58782 0.8751 0
M  V30 21357 C 2033.44 2.61801 -2.47977 0
M  V30 21358 O 2032.55 3.6166 -1.98181 0
M  V30 21359 H 2031.89 0.425475 -0.509771 0
M  V30 21360 H 2034.42 0.769359 -1.89584 0
M  V30 21361 H 2034.43 3.09335 -2.66037 0
M  V30 21362 H 2033.1 2.281 -3.47769 0
M  V30 21363 H 2031.68 3.2093 -1.89891 0
M  V30 21364 N 2033.87 1.31354 0.870861 0
M  V30 21365 C 2034.81 1.18858 1.99939 0
M  V30 21366 C 2035.81 0.0970869 1.69122 0
M  V30 21367 O 2037.01 0.258917 1.78128 0
M  V30 21368 H 2033.39 0.367991 0.65581 0
M  V30 21369 H 2035.36 2.14338 2.07609 0
M  V30 21370 C 2034.11 0.911812 3.35531 0
M  V30 21371 H 2033.43 1.74383 3.59765 0
M  V30 21372 H 2034.87 0.864551 4.15092 0
M  V30 21373 C 2033.33 -0.385431 3.34688 0
M  V30 21374 O 2033.86 -1.40251 3.76421 0
M  V30 21375 N 2032.07 -0.401645 2.87811 0
M  V30 21376 H 2031.61 0.426528 2.54044 0
M  V30 21377 H 2031.57 -1.26952 2.87629 0
M  V30 21378 N 2035.34 -1.08505 1.143 0
M  V30 21379 C 2036.28 -2.14723 0.772624 0
M  V30 21380 C 2037.25 -1.60735 -0.245558 0
M  V30 21381 O 2038.44 -1.88017 -0.134851 0
M  V30 21382 C 2035.57 -3.38381 0.14695 0
M  V30 21383 C 2034.61 -4.11116 1.13514 0
M  V30 21384 S 2035.44 -4.64077 2.67194 0
M  V30 21385 C 2036.6 -5.91024 2.06013 0
M  V30 21386 H 2036.83 -2.45808 1.6723 0
M  V30 21387 H 2034.37 -1.20599 0.964118 0
M  V30 21388 H 2036.32 -4.09975 -0.207624 0
M  V30 21389 H 2034.99 -3.05496 -0.730138 0
M  V30 21390 H 2034.18 -4.99851 0.645359 0
M  V30 21391 H 2033.78 -3.45431 1.43366 0
M  V30 21392 H 2036.07 -6.62559 1.41497 0
M  V30 21393 H 2037.02 -6.44697 2.92867 0
M  V30 21394 H 2037.42 -5.43988 1.50788 0
M  V30 21395 N 2036.82 -0.937962 -1.26649 0
M  V30 21396 C 2037.78 -0.449635 -2.24746 0
M  V30 21397 C 2038.78 0.437489 -1.54734 0
M  V30 21398 O 2039.97 0.237121 -1.72579 0
M  V30 21399 C 2037.11 0.35235 -3.39074 0
M  V30 21400 H 2038.3 -1.31648 -2.6946 0
M  V30 21401 H 2035.85 -0.71962 -1.38749 0
M  V30 21402 H 2036.59 1.23758 -2.99757 0
M  V30 21403 H 2036.37 -0.283853 -3.91071 0
M  V30 21404 H 2037.86 0.684038 -4.1196 0
M  V30 21405 N 2038.3 1.40971 -0.704618 0
M  V30 21406 C 2039.55 2.00309 -0.236478 0
M  V30 21407 C 2039.86 1.56482 1.17358 0
M  V30 21408 O 2041.07 2.08442 1.73966 0
M  V30 21409 C 2039.52 3.57974 -0.371877 0
M  V30 21410 C 2039.13 4.10779 -1.78788 0
M  V30 21411 C 2040.88 4.24485 0.0360284 0
M  V30 21412 C 2038.78 5.60909 -1.87445 0
M  V30 21413 H 2037.71 0.749233 -0.0846557 0
M  V30 21414 H 2040.36 1.61342 -0.874125 0
M  V30 21415 H 2038.75 3.94587 0.334172 0
M  V30 21416 H 2039.92 3.85565 -2.52342 0
M  V30 21417 H 2038.23 3.56826 -2.14626 0
M  V30 21418 H 2040.83 5.34699 -0.00808813 0
M  V30 21419 H 2041.17 4.02149 1.07621 0
M  V30 21420 H 2041.71 3.92938 -0.620069 0
M  V30 21421 H 2038.45 5.88084 -2.89546 0
M  V30 21422 H 2037.97 5.88021 -1.18287 0
M  V30 21423 H 2039.65 6.25831 -1.6415 0
M  V30 21424 N 2039.78 0.45001 1.51039 0
M  V30 21425 C 2041.02 -0.112357 2.02489 0
M  V30 21426 C 2041.36 -1.41249 1.33276 0
M  V30 21427 O 2040.63 -1.89183 0.451679 0
M  V30 21428 C 2040.92 -0.318025 3.58693 0
M  V30 21429 C 2040.77 1.00164 4.38506 0
M  V30 21430 C 2042.09 -1.08213 4.26589 0
M  V30 21431 H 2039.21 -0.0393599 0.735948 0
M  V30 21432 H 2041.85 0.591485 1.80559 0
M  V30 21433 H 2040 -0.917553 3.77509 0
M  V30 21434 H 2041.67 1.63613 4.3131 0
M  V30 21435 H 2039.91 1.60329 4.03085 0
M  V30 21436 H 2040.58 0.811628 5.46001 0
M  V30 21437 H 2043.06 -0.574174 4.12119 0
M  V30 21438 H 2041.94 -1.19481 5.35738 0
M  V30 21439 H 2042.2 -2.11345 3.88311 0
M  V30 21440 N 2041.26 -1.56548 0.18182 0
M  V30 21441 C 2042.53 -1.88906 -0.507337 0
M  V30 21442 C 2042.91 -1.09334 -1.80581 0
M  V30 21443 O 2042.26 -0.190397 -2.27705 0
M  V30 21444 C 2042.47 -3.41085 -0.73904 0
M  V30 21445 C 2043.82 -4.11043 -1.06435 0
M  V30 21446 O 2044.84 -3.46461 -0.82722 0
M  V30 21447 O 2043.7 -5.2516 -1.51225 0
M  V30 21448 H 2040.8 -0.784135 -0.262794 0
M  V30 21449 H 2043.34 -1.68254 0.221041 0
M  V30 21450 H 2042.11 -3.90893 0.17847 0
M  V30 21451 H 2041.74 -3.67384 -1.52036 0
M  V30 21452 N 2042.73 0.0918577 -1.57332 0
M  V30 21453 C 2043.98 0.795934 -1.86528 0
M  V30 21454 C 2044.31 1.78222 -0.771388 0
M  V30 21455 O 2043.59 1.93248 0.220326 0
M  V30 21456 C 2043.87 1.5218 -3.26364 0
M  V30 21457 C 2043.72 0.553281 -4.46384 0
M  V30 21458 C 2045.04 2.4716 -3.64143 0
M  V30 21459 H 2042.16 0.287896 -0.678443 0
M  V30 21460 H 2044.8 0.0594952 -1.89907 0
M  V30 21461 H 2042.95 2.14956 -3.23614 0
M  V30 21462 H 2044.63 -0.0677239 -4.6125 0
M  V30 21463 H 2042.87 -0.133076 -4.33596 0
M  V30 21464 H 2043.54 1.09838 -5.40962 0
M  V30 21465 H 2046.02 1.94474 -3.67857 0
M  V30 21466 H 2044.89 2.94964 -4.62912 0
M  V30 21467 H 2045.15 3.31065 -2.92999 0
M  V30 21468 N 2044.21 1.53368 0.362763 0
M  V30 21469 C 2045.16 1.80005 1.44454 0
M  V30 21470 C 2046.13 0.644581 1.53083 0
M  V30 21471 O 2047.31 0.887051 1.68926 0
M  V30 21472 C 2044.45 1.99822 2.81363 0
M  V30 21473 C 2043.57 3.27539 2.81678 0
M  V30 21474 C 2042.7 3.37528 4.10181 0
M  V30 21475 C 2041.74 4.59266 4.04649 0
M  V30 21476 N 2040.88 4.66393 5.24806 0
M  V30 21477 H 2045.72 2.72311 1.2104 0
M  V30 21478 H 2043.26 1.34893 0.586708 0
M  V30 21479 H 2045.21 2.09299 3.60901 0
M  V30 21480 H 2043.84 1.10849 3.0317 0
M  V30 21481 H 2042.9 3.27001 1.94356 0
M  V30 21482 H 2044.21 4.17156 2.73464 0
M  V30 21483 H 2043.36 3.46331 4.98136 0
M  V30 21484 H 2042.1 2.45932 4.21152 0
M  V30 21485 H 2041.11 4.5056 3.15081 0
M  V30 21486 H 2042.33 5.52206 3.95278 0
M  V30 21487 H 2040.28 3.77699 5.36358 0
M  V30 21488 H 2040.19 5.49919 5.18773 0
M  V30 21489 H 2041.46 4.79484 6.14586 0
M  V30 21490 N 2045.69 -0.62272 1.44776 0
M  V30 21491 C 2046.62 -1.74744 1.46764 0
M  V30 21492 C 2047.6 -1.59307 0.325571 0
M  V30 21493 O 2048.79 -1.81076 0.523811 0
M  V30 21494 C 2045.91 -3.12411 1.30832 0
M  V30 21495 C 2044.96 -3.46476 2.4871 0
M  V30 21496 S 2045.79 -3.43011 4.11222 0
M  V30 21497 C 2046.95 -4.83284 3.97728 0
M  V30 21498 H 2047.18 -1.72792 2.41931 0
M  V30 21499 H 2044.71 -0.798067 1.32175 0
M  V30 21500 H 2046.67 -3.9185 1.22327 0
M  V30 21501 H 2045.33 -3.11894 0.371621 0
M  V30 21502 H 2044.53 -4.46675 2.33447 0
M  V30 21503 H 2044.13 -2.74519 2.53998 0
M  V30 21504 H 2046.42 -5.72719 3.61937 0
M  V30 21505 H 2047.36 -5.03602 4.97786 0
M  V30 21506 H 2047.77 -4.58254 3.29642 0
M  V30 21507 N 2047.17 -1.31814 -0.863883 0
M  V30 21508 C 2048.41 -1.22028 -1.61979 0
M  V30 21509 C 2048.75 0.219661 -1.92954 0
M  V30 21510 O 2048.02 1.15428 -1.56546 0
M  V30 21511 C 2048.31 -2.0707 -2.94608 0
M  V30 21512 C 2048.16 -3.59395 -2.70473 0
M  V30 21513 C 2049.48 -1.92477 -3.95779 0
M  V30 21514 H 2046.6 -0.444641 -0.587762 0
M  V30 21515 H 2049.24 -1.61666 -0.998202 0
M  V30 21516 H 2047.39 -1.73395 -3.47659 0
M  V30 21517 H 2049.06 -4.03237 -2.24048 0
M  V30 21518 H 2047.3 -3.82521 -2.04597 0
M  V30 21519 H 2047.97 -4.14213 -3.64871 0
M  V30 21520 H 2050.45 -2.21959 -3.51957 0
M  V30 21521 H 2049.33 -2.54272 -4.86453 0
M  V30 21522 H 2049.59 -0.889783 -4.33053 0
M  V30 21523 N 2048.65 1.07897 -1.14873 0
M  V30 21524 C 2049.87 1.84657 -0.944281 0
M  V30 21525 C 2050.3 1.8127 0.50226 0
M  V30 21526 O 2049.65 1.20159 1.35763 0
M  V30 21527 C 2049.7 3.29889 -1.45622 0
M  V30 21528 O 2048.81 4.07217 -0.651748 0
M  V30 21529 H 2048.15 0.571994 -0.337222 0
M  V30 21530 H 2050.68 1.36151 -1.52723 0
M  V30 21531 H 2050.69 3.80727 -1.46665 0
M  V30 21532 H 2049.36 3.31668 -2.50936 0
M  V30 21533 H 2047.94 3.66069 -0.710491 0
M  V30 21534 N 2050.12 0.944665 1.2615 0
M  V30 21535 C 2051.37 0.592919 1.93207 0
M  V30 21536 C 2051.69 -0.871356 1.74449 0
M  V30 21537 O 2050.96 -1.61953 1.10218 0
M  V30 21538 H 2049.54 0.216296 0.715 0
M  V30 21539 H 2052.21 1.20074 1.53519 0
M  V30 21540 H 2051.3 0.813682 3.01307 0
M  V30 21541 N 2051.6 -1.40596 0.712085 0
M  V30 21542 C 2052.85 -2.0095 0.250087 0
M  V30 21543 C 2053.18 -1.5645 -1.15558 0
M  V30 21544 O 2052.43 -0.773994 -1.79744 0
M  V30 21545 C 2052.73 -3.56346 0.27427 0
M  V30 21546 C 2052.4 -4.20416 1.62975 0
M  V30 21547 C 2051.06 -4.37632 2.0008 0
M  V30 21548 C 2053.41 -4.56187 2.52076 0
M  V30 21549 C 2050.74 -4.87899 3.2584 0
M  V30 21550 C 2053.09 -5.07853 3.77185 0
M  V30 21551 C 2051.76 -5.23277 4.14412 0
M  V30 21552 H 2051.03 -0.735327 0.0915134 0
M  V30 21553 H 2053.67 -1.68257 0.914427 0
M  V30 21554 H 2051.98 -3.88927 -0.473638 0
M  V30 21555 H 2053.67 -4.00873 -0.100977 0
M  V30 21556 H 2050.26 -4.07403 1.3312 0
M  V30 21557 H 2054.45 -4.42527 2.24686 0
M  V30 21558 H 2049.7 -4.98026 3.54655 0
M  V30 21559 H 2053.88 -5.34509 4.46401 0
M  V30 21560 H 2051.51 -5.6199 5.11929 0
M  V30 21561 N 2053.08 -0.458013 -1.50798 0
M  V30 21562 C 2054.33 0.10308 -2.01436 0
M  V30 21563 C 2054.64 1.41957 -1.34564 0
M  V30 21564 O 2055.85 2.06484 -1.76286 0
M  V30 21565 C 2054.3 0.234229 -3.59137 0
M  V30 21566 C 2053.91 -1.07305 -4.34959 0
M  V30 21567 C 2055.66 0.747982 -4.17858 0
M  V30 21568 C 2053.56 -0.906414 -5.84413 0
M  V30 21569 H 2052.49 0.0422981 -0.752813 0
M  V30 21570 H 2055.14 -0.590924 -1.73725 0
M  V30 21571 H 2053.53 0.991716 -3.83381 0
M  V30 21572 H 2054.7 -1.84048 -4.22449 0
M  V30 21573 H 2053.02 -1.51691 -3.87787 0
M  V30 21574 H 2055.61 0.889478 -5.2725 0
M  V30 21575 H 2055.96 1.73592 -3.7838 0
M  V30 21576 H 2056.49 0.048243 -3.97771 0
M  V30 21577 H 2053.23 -1.86733 -6.2834 0
M  V30 21578 H 2052.75 -0.179147 -5.99532 0
M  V30 21579 H 2054.43 -0.567802 -6.44504 0
M  V30 21580 N 2054.56 1.56449 -0.190119 0
M  V30 21581 C 2055.97 1.83879 0.323353 0
M  V30 21582 C 2056.32 1.11062 1.6174 0
M  V30 21583 O 2055.45 0.369789 2.13217 0
M  V30 21584 C 2056.04 3.33562 0.593453 0
M  V30 21585 C 2054.6 3.6142 1.05131 0
M  V30 21586 C 2053.75 2.77129 0.0972331 0
M  V30 21587 H 2056.7 1.53205 -0.414009 0
M  V30 21588 H 2056.72 3.52062 1.44335 0
M  V30 21589 H 2056.23 3.86532 -0.348543 0
M  V30 21590 H 2054.33 3.13879 2.00776 0
M  V30 21591 H 2054.45 4.69638 0.947464 0
M  V30 21592 H 2052.81 2.47576 0.598181 0
M  V30 21593 H 2053.59 3.32887 -0.839117 0
M  V30 21594 N 2056.04 -0.0835127 1.57379 0
M  V30 21595 C 2056.97 -1.101 2.05913 0
M  V30 21596 C 2057.95 -1.41079 0.950298 0
M  V30 21597 O 2059.13 -1.50909 1.2223 0
M  V30 21598 C 2056.26 -2.41772 2.49327 0
M  V30 21599 C 2055.22 -2.25173 3.63979 0
M  V30 21600 C 2054.54 -3.62124 3.93408 0
M  V30 21601 C 2055.84 -1.68267 4.94453 0
M  V30 21602 H 2057.54 -0.697176 2.9117 0
M  V30 21603 H 2055.08 -0.333914 1.40075 0
M  V30 21604 H 2057.04 -3.13234 2.81891 0
M  V30 21605 H 2055.76 -2.84112 1.61084 0
M  V30 21606 H 2054.42 -1.56154 3.3168 0
M  V30 21607 H 2054.07 -4.02013 3.02315 0
M  V30 21608 H 2053.77 -3.51861 4.70603 0
M  V30 21609 H 2055.29 -4.35036 4.28458 0
M  V30 21610 H 2056.71 -2.29582 5.25324 0
M  V30 21611 H 2055.1 -1.68731 5.7589 0
M  V30 21612 H 2056.17 -0.64309 4.80617 0
M  V30 21613 N 2057.52 -1.53558 -0.354624 0
M  V30 21614 C 2058.46 -1.80769 -1.43497 0
M  V30 21615 C 2059.43 -0.65269 -1.52739 0
M  V30 21616 O 2060.62 -0.895997 -1.68453 0
M  V30 21617 C 2057.76 -2.01311 -2.80299 0
M  V30 21618 C 2056.87 -3.29028 -2.79937 0
M  V30 21619 C 2056.01 -3.39698 -4.08385 0
M  V30 21620 C 2055.04 -4.61406 -4.02208 0
M  V30 21621 N 2054.18 -4.6917 -5.22326 0
M  V30 21622 H 2059.02 -2.72949 -1.19594 0
M  V30 21623 H 2056.56 -1.35202 -0.579546 0
M  V30 21624 H 2058.52 -2.1121 -3.59786 0
M  V30 21625 H 2057.15 -1.12456 -3.02578 0
M  V30 21626 H 2056.2 -3.28027 -1.92619 0
M  V30 21627 H 2057.51 -4.186 -2.71248 0
M  V30 21628 H 2056.66 -3.48968 -4.96292 0
M  V30 21629 H 2055.4 -2.48162 -4.19842 0
M  V30 21630 H 2054.41 -4.52225 -3.12687 0
M  V30 21631 H 2055.63 -5.54295 -3.92344 0
M  V30 21632 H 2053.58 -3.80538 -5.34347 0
M  V30 21633 H 2053.5 -5.52662 -5.15849 0
M  V30 21634 H 2054.76 -4.82736 -6.12034 0
M  V30 21635 N 2058.99 0.615033 -1.45104 0
M  V30 21636 C 2060.4 1.19689 -1.43288 0
M  V30 21637 C 2060.76 1.95574 -0.156585 0
M  V30 21638 O 2059.88 2.03272 0.742247 0
M  V30 21639 C 2060.48 2.17717 -2.59586 0
M  V30 21640 C 2059.03 2.71295 -2.60914 0
M  V30 21641 C 2058.18 1.46569 -2.35399 0
M  V30 21642 H 2061.13 0.404769 -1.53451 0
M  V30 21643 H 2061.15 3.00617 -2.33259 0
M  V30 21644 H 2060.67 1.62458 -3.52461 0
M  V30 21645 H 2058.77 3.30513 -1.72024 0
M  V30 21646 H 2058.88 3.16236 -3.59905 0
M  V30 21647 H 2057.24 1.75266 -1.84808 0
M  V30 21648 H 2058.03 0.931898 -3.3041 0
M  V30 21649 N 2060.47 1.3227 0.85688 0
M  V30 21650 C 2061.7 1.25698 1.6434 0
M  V30 21651 C 2062.11 -0.175425 1.87983 0
M  V30 21652 O 2061.47 -1.11179 1.44726 0
M  V30 21653 C 2061.52 2.0111 3.00395 0
M  V30 21654 O 2061.24 3.38761 2.778 0
M  V30 21655 C 2062.74 2.01535 3.9484 0
M  V30 21656 H 2059.96 0.433782 0.511932 0
M  V30 21657 H 2062.51 1.74358 1.06863 0
M  V30 21658 H 2060.66 1.56178 3.54524 0
M  V30 21659 H 2061.08 3.7733 3.64311 0
M  V30 21660 H 2062.55 2.58787 4.87579 0
M  V30 21661 H 2063.03 1.00106 4.27639 0
M  V30 21662 H 2063.63 2.46404 3.46648 0
M  V30 21663 N 2061.95 -1.07287 1.15444 0
M  V30 21664 C 2063.2 -1.80162 0.931099 0
M  V30 21665 C 2063.53 -1.8653 -0.540402 0
M  V30 21666 O 2062.8 -1.34951 -1.40066 0
M  V30 21667 C 2063.09 -3.25184 1.54685 0
M  V30 21668 C 2062.94 -3.26957 3.089 0
M  V30 21669 C 2064.26 -4.2247 1.23318 0
M  V30 21670 H 2061.38 -0.654053 0.339682 0
M  V30 21671 H 2064.02 -1.25539 1.42619 0
M  V30 21672 H 2062.17 -3.7183 1.12583 0
M  V30 21673 H 2063.84 -2.88549 3.59912 0
M  V30 21674 H 2062.08 -2.65898 3.42755 0
M  V30 21675 H 2062.76 -4.29218 3.47097 0
M  V30 21676 H 2065.23 -3.84218 1.59737 0
M  V30 21677 H 2064.11 -5.2223 1.69018 0
M  V30 21678 H 2064.37 -4.41844 0.150314 0
M  V30 21679 N 2063.43 -0.951342 -1.25647 0
M  V30 21680 C 2064.37 -0.467715 -2.26011 0
M  V30 21681 C 2065.34 0.478049 -1.59072 0
M  V30 21682 O 2066.53 0.392024 -1.86729 0
M  V30 21683 C 2063.67 0.251483 -3.44182 0
M  V30 21684 C 2062.78 -0.731135 -4.25768 0
M  V30 21685 C 2061.92 0.0102901 -5.31199 0
M  V30 21686 C 2060.96 -0.963479 -6.0447 0
M  V30 21687 N 2060.09 -0.253142 -7.01643 0
M  V30 21688 H 2064.93 -1.32847 -2.6675 0
M  V30 21689 H 2062.47 -0.666278 -1.31146 0
M  V30 21690 H 2064.43 0.685002 -4.11538 0
M  V30 21691 H 2063.06 1.07631 -3.04328 0
M  V30 21692 H 2062.11 -1.28314 -3.58106 0
M  V30 21693 H 2063.42 -1.47435 -4.76513 0
M  V30 21694 H 2062.58 0.502603 -6.04615 0
M  V30 21695 H 2061.32 0.78632 -4.81319 0
M  V30 21696 H 2060.32 -1.46682 -5.29872 0
M  V30 21697 H 2061.55 -1.73968 -6.56439 0
M  V30 21698 H 2059.49 0.50421 -6.54059 0
M  V30 21699 H 2059.41 -0.935511 -7.50189 0
M  V30 21700 H 2060.68 0.217742 -7.79196 0
M  V30 21701 N 2064.91 1.40216 -0.719531 0
M  V30 21702 C 2065.84 2.28192 -0.0185278 0
M  V30 21703 C 2066.82 1.43553 0.763632 0
M  V30 21704 O 2068 1.72961 0.749443 0
M  V30 21705 C 2065.13 3.24179 0.981108 0
M  V30 21706 C 2064.17 4.25518 0.289289 0
M  V30 21707 S 2065.01 5.26351 -0.985661 0
M  V30 21708 C 2066.16 6.25899 0.011772 0
M  V30 21709 H 2066.4 2.87299 -0.764643 0
M  V30 21710 H 2063.93 1.45709 -0.510709 0
M  V30 21711 H 2065.89 3.80005 1.55262 0
M  V30 21712 H 2064.55 2.64122 1.69995 0
M  V30 21713 H 2063.74 4.93045 1.04512 0
M  V30 21714 H 2063.34 3.73411 -0.209776 0
M  V30 21715 H 2065.63 6.72054 0.857313 0
M  V30 21716 H 2066.58 7.0529 -0.630218 0
M  V30 21717 H 2066.99 5.63238 0.377261 0
M  V30 21718 N 2066.38 0.466004 1.50553 0
M  V30 21719 C 2067.31 -0.320802 2.31286 0
M  V30 21720 C 2068.29 -0.995008 1.37962 0
M  V30 21721 O 2069.48 -0.993158 1.66883 0
M  V30 21722 C 2066.61 -1.40607 3.17564 0
M  V30 21723 C 2065.56 -0.853763 4.19398 0
M  V30 21724 C 2064.89 -2.03694 4.94381 0
M  V30 21725 C 2066.19 0.131478 5.22134 0
M  V30 21726 H 2067.88 0.352995 2.97312 0
M  V30 21727 H 2065.43 0.171207 1.42979 0
M  V30 21728 H 2067.38 -1.96395 3.72836 0
M  V30 21729 H 2066.11 -2.10857 2.49413 0
M  V30 21730 H 2064.77 -0.317899 3.65219 0
M  V30 21731 H 2064.41 -2.7263 4.22708 0
M  V30 21732 H 2064.11 -1.67364 5.63261 0
M  V30 21733 H 2065.64 -2.59982 5.52487 0
M  V30 21734 H 2067.05 -0.337046 5.72308 0
M  V30 21735 H 2065.45 0.408804 5.98706 0
M  V30 21736 H 2066.52 1.05903 4.73194 0
M  V30 21737 N 2067.86 -1.56346 0.198413 0
M  V30 21738 C 2068.77 -2.22855 -0.733001 0
M  V30 21739 C 2069.79 -1.22868 -1.23205 0
M  V30 21740 O 2070.96 -1.55615 -1.27852 0
M  V30 21741 C 2068.03 -2.87746 -1.93399 0
M  V30 21742 C 2067.09 -4.03012 -1.47919 0
M  V30 21743 C 2066.32 -4.64799 -2.62293 0
M  V30 21744 O 2066.55 -4.25516 -3.79859 0
M  V30 21745 O 2065.48 -5.54206 -2.34817 0
M  V30 21746 H 2069.31 -3.03063 -0.196563 0
M  V30 21747 H 2066.89 -1.49368 -0.0310254 0
M  V30 21748 H 2068.77 -3.28788 -2.63584 0
M  V30 21749 H 2067.45 -2.10514 -2.45897 0
M  V30 21750 H 2066.35 -3.66586 -0.746038 0
M  V30 21751 H 2067.69 -4.81917 -1.00084 0
M  V30 21752 N 2069.34 0.0751653 -1.57421 0
M  V30 21753 C 2070.76 0.429873 -1.53702 0
M  V30 21754 C 2070.96 1.79369 -0.918103 0
M  V30 21755 O 2070.01 2.47105 -0.519159 0
M  V30 21756 C 2071.33 0.374037 -2.98365 0
M  V30 21757 C 2072.87 0.454466 -3.09683 0
M  V30 21758 C 2073.35 0.428572 -4.5599 0
M  V30 21759 N 2074.84 0.488746 -4.60614 0
M  V30 21760 C 2075.57 0.49087 -5.71295 0
M  V30 21761 N 2075.07 0.448011 -6.9135 0
M  V30 21762 N 2076.86 0.537175 -5.59527 0
M  V30 21763 H 2069.01 -0.817897 -1.96021 0
M  V30 21764 H 2071.28 -0.306554 -0.897067 0
M  V30 21765 H 2070.98 -0.561323 -3.47192 0
M  V30 21766 H 2070.86 1.18551 -3.58086 0
M  V30 21767 H 2073.24 1.38025 -2.60832 0
M  V30 21768 H 2073.33 -0.385521 -2.52878 0
M  V30 21769 H 2072.97 -0.493347 -5.05498 0
M  V30 21770 H 2072.9 1.28605 -5.10655 0
M  V30 21771 H 2075.39 0.526255 -3.74218 0
M  V30 21772 H 2075.7 0.453464 -7.71468 0
M  V30 21773 H 2074.05 0.414751 -6.93761 0
M  V30 21774 H 2077.24 0.568327 -4.64637 0
M  V30 21775 H 2077.41 0.535362 -6.45785 0
M  V30 21776 N 2070.82 1.53744 0.346476 0
M  V30 21777 C 2072.04 1.75095 1.1116 0
M  V30 21778 C 2072.47 0.487459 1.81674 0
M  V30 21779 O 2071.83 -0.55973 1.72443 0
M  V30 21780 C 2071.87 2.92927 2.103 0
M  V30 21781 O 2070.98 2.62871 3.17762 0
M  V30 21782 H 2070.32 0.580905 0.321629 0
M  V30 21783 H 2072.85 2.00696 0.397762 0
M  V30 21784 H 2072.86 3.19633 2.53572 0
M  V30 21785 H 2071.53 3.84566 1.58372 0
M  V30 21786 H 2070.11 2.47043 2.79328 0
M  V30 21787 N 2072.3 -0.607329 1.45428 0
M  V30 21788 C 2073.24 -1.73916 1.54454 0
M  V30 21789 C 2074.24 -1.64251 0.4145 0
M  V30 21790 O 2075.44 -1.70041 0.59042 0
M  V30 21791 H 2071.82 -0.574581 0.48514 0
M  V30 21792 H 2073.79 -1.6343 2.49666 0
M  V30 21793 C 2072.54 -3.12295 1.52863 0
M  V30 21794 H 2071.86 -3.20392 2.39142 0
M  V30 21795 H 2073.3 -3.91318 1.63236 0
M  V30 21796 C 2071.76 -3.35948 0.2531 0
M  V30 21797 O 2072.29 -3.96125 -0.666944 0
M  V30 21798 N 2070.5 -2.90219 0.148714 0
M  V30 21799 H 2070.04 -2.4143 0.898284 0
M  V30 21800 H 2070 -3.06419 -0.703907 0
M  V30 21801 N 2073.77 -1.32722 -0.849853 0
M  V30 21802 C 2074.72 -1.18638 -1.94702 0
M  V30 21803 C 2075.71 -0.0920705 -1.60636 0
M  V30 21804 O 2076.9 -0.319065 -1.741 0
M  V30 21805 C 2074.03 -0.916528 -3.30839 0
M  V30 21806 C 2073.12 -2.05277 -3.71109 0
M  V30 21807 N 2073.51 -3.30178 -3.83166 0
M  V30 21808 C 2071.8 -1.95701 -4.00771 0
M  V30 21809 C 2072.51 -4.0463 -4.17911 0
M  V30 21810 N 2071.48 -3.3297 -4.29688 0
M  V30 21811 H 2075.28 -2.13324 -2.02163 0
M  V30 21812 H 2072.8 -1.24571 -1.04191 0
M  V30 21813 H 2074.79 -0.796576 -4.09219 0
M  V30 21814 H 2073.45 0.0219058 -3.24693 0
M  V30 21815 H 2074.47 -3.65057 -3.6736 0
M  V30 21816 H 2071.14 -1.09449 -4.02898 0
M  V30 21817 H 2072.53 -5.12361 -4.34668 0
M  V30 21818 N 2075.25 1.06673 -1.16011 0
M  V30 21819 C 2076.5 1.79666 -0.940641 0
M  V30 21820 C 2076.83 1.86814 0.530502 0
M  V30 21821 O 2076.11 1.35692 1.39348 0
M  V30 21822 C 2076.39 3.24359 -1.56407 0
M  V30 21823 C 2076.24 3.25315 -3.10629 0
M  V30 21824 C 2077.56 4.2181 -1.25556 0
M  V30 21825 H 2074.68 0.652242 -0.343145 0
M  V30 21826 H 2077.32 1.2478 -1.43282 0
M  V30 21827 H 2075.47 3.71227 -1.14553 0
M  V30 21828 H 2077.14 2.86637 -3.61438 0
M  V30 21829 H 2075.39 2.64077 -3.4416 0
M  V30 21830 H 2076.06 4.27371 -3.49368 0
M  V30 21831 H 2078.53 3.83365 -1.61772 0
M  V30 21832 H 2077.41 5.21326 -1.71785 0
M  V30 21833 H 2077.67 4.41758 -0.173744 0
M  V30 21834 N 2076.73 0.957992 1.25141 0
M  V30 21835 C 2077.96 0.631439 1.97554 0
M  V30 21836 C 2078.38 -0.790342 1.7069 0
M  V30 21837 O 2077.74 -1.53495 0.964826 0
M  V30 21838 C 2077.79 0.900403 3.49178 0
M  V30 21839 O 2076.89 -0.01911 4.12396 0
M  V30 21840 H 2076.23 0.23972 0.619217 0
M  V30 21841 H 2078.76 1.2855 1.59173 0
M  V30 21842 H 2078.77 0.828022 3.99509 0
M  V30 21843 H 2077.45 1.93663 3.68059 0
M  V30 21844 H 2076.02 0.105763 3.7275 0
M  V30 21845 N 2078.21 -1.39832 0.726957 0
M  V30 21846 C 2079.62 -1.54462 0.401692 0
M  V30 21847 C 2079.82 -1.6958 -1.08834 0
M  V30 21848 O 2078.88 -1.69177 -1.87444 0
M  V30 21849 C 2080.19 -2.76679 1.17769 0
M  V30 21850 C 2081.74 -2.90507 1.16511 0
M  V30 21851 C 2082.22 -4.1565 1.9235 0
M  V30 21852 N 2083.71 -4.22674 1.89476 0
M  V30 21853 C 2084.44 -5.18437 2.44971 0
M  V30 21854 N 2083.94 -6.20038 3.0907 0
M  V30 21855 N 2085.73 -5.10596 2.3505 0
M  V30 21856 H 2077.88 -1.28266 1.69297 0
M  V30 21857 H 2080.15 -0.621077 0.716217 0
M  V30 21858 H 2079.85 -2.71823 2.2317 0
M  V30 21859 H 2079.73 -3.69115 0.776799 0
M  V30 21860 H 2082.11 -2.94859 0.119254 0
M  V30 21861 H 2082.19 -1.99157 1.60531 0
M  V30 21862 H 2081.84 -4.1206 2.96933 0
M  V30 21863 H 2081.77 -5.0603 1.45743 0
M  V30 21864 H 2084.26 -3.49892 1.42772 0
M  V30 21865 H 2084.57 -6.89555 3.48903 0
M  V30 21866 H 2082.92 -6.20449 3.13158 0
M  V30 21867 H 2086.11 -4.30154 1.84622 0
M  V30 21868 H 2086.28 -5.85053 2.78599 0
M  V30 21869 N 2079.69 -0.473982 -1.50304 0
M  V30 21870 C 2080.91 0.0776132 -2.06754 0
M  V30 21871 C 2081.33 1.33251 -1.33752 0
M  V30 21872 O 2080.69 1.77889 -0.407659 0
M  V30 21873 C 2080.74 0.362773 -3.59675 0
M  V30 21874 O 2080.46 -0.842352 -4.29926 0
M  V30 21875 C 2081.96 0.961013 -4.32758 0
M  V30 21876 H 2079.18 -0.00837304 -0.670948 0
M  V30 21877 H 2081.72 -0.663594 -1.93434 0
M  V30 21878 H 2079.88 1.05392 -3.72789 0
M  V30 21879 H 2080.29 -0.588708 -5.21186 0
M  V30 21880 H 2081.77 1.11029 -5.40719 0
M  V30 21881 H 2082.24 1.95187 -3.93445 0
M  V30 21882 H 2082.85 0.308162 -4.24182 0
M  V30 21883 N 2081.16 1.56239 -0.206702 0
M  V30 21884 C 2082.07 2.2324 0.721172 0
M  V30 21885 C 2083.09 1.2352 1.22552 0
M  V30 21886 O 2084.27 1.56291 1.27025 0
M  V30 21887 C 2081.33 2.88767 1.91871 0
M  V30 21888 C 2080.39 4.03791 1.45779 0
M  V30 21889 C 2079.63 4.66183 2.59825 0
M  V30 21890 O 2079.85 4.27524 3.77597 0
M  V30 21891 O 2078.78 5.55444 2.31874 0
M  V30 21892 H 2082.61 3.03163 0.180488 0
M  V30 21893 H 2080.19 1.49382 0.0231036 0
M  V30 21894 H 2082.08 3.30181 2.61837 0
M  V30 21895 H 2080.75 2.11815 2.44777 0
M  V30 21896 H 2079.66 3.66976 0.726587 0
M  V30 21897 H 2080.99 4.82441 0.975269 0
M  V30 21898 N 2082.64 -0.0668159 1.57458 0
M  V30 21899 C 2083.89 -0.766159 1.87771 0
M  V30 21900 C 2084.22 -1.76973 0.799644 0
M  V30 21901 O 2083.5 -1.93574 -0.189554 0
M  V30 21902 C 2083.78 -1.46969 3.28743 0
M  V30 21903 C 2083.63 -0.482195 4.47208 0
M  V30 21904 C 2084.95 -2.41336 3.68029 0
M  V30 21905 H 2082.07 -0.277066 0.682937 0
M  V30 21906 H 2084.71 -0.0292751 1.89977 0
M  V30 21907 H 2082.86 -2.09781 3.26993 0
M  V30 21908 H 2084.53 0.141096 4.61084 0
M  V30 21909 H 2082.78 0.202041 4.33329 0
M  V30 21910 H 2083.45 -1.01218 5.42641 0
M  V30 21911 H 2085.92 -1.88598 3.70905 0
M  V30 21912 H 2084.8 -2.87562 4.67546 0
M  V30 21913 H 2085.06 -3.26361 2.98229 0
M  V30 21914 N 2084.12 -1.53926 -0.338317 0
M  V30 21915 C 2085.35 -1.75682 -1.1023 0
M  V30 21916 C 2085.77 -0.497087 -1.81413 0
M  V30 21917 O 2085.13 0.550577 -1.72738 0
M  V30 21918 C 2085.18 -2.94038 -2.08743 0
M  V30 21919 O 2084.28 -2.64552 -3.16364 0
M  V30 21920 H 2083.62 -0.582603 -0.318544 0
M  V30 21921 H 2086.15 -2.00904 -0.387113 0
M  V30 21922 H 2086.16 -3.20973 -2.51873 0
M  V30 21923 H 2084.84 -3.854 -1.56331 0
M  V30 21924 H 2083.41 -2.48521 -2.78014 0
M  V30 21925 N 2085.6 0.599608 -1.45748 0
M  V30 21926 C 2086.82 1.38971 -1.53954 0
M  V30 21927 C 2087.25 1.87278 -0.175618 0
M  V30 21928 O 2086.61 1.60602 0.841223 0
M  V30 21929 C 2086.66 2.56482 -2.53474 0
M  V30 21930 O 2085.76 3.57375 -2.05808 0
M  V30 21931 H 2085.1 0.414567 -0.518681 0
M  V30 21932 H 2087.63 0.728972 -1.91173 0
M  V30 21933 H 2087.64 3.03623 -2.72539 0
M  V30 21934 H 2086.32 2.20672 -3.52529 0
M  V30 21935 H 2084.89 3.1683 -1.96656 0
M  V30 21936 N 2087.08 1.33171 0.842803 0
M  V30 21937 C 2088.03 1.23072 1.97373 0
M  V30 21938 C 2089.02 0.132938 1.68878 0
M  V30 21939 O 2090.23 0.296643 1.77539 0
M  V30 21940 H 2086.6 0.381819 0.647857 0
M  V30 21941 H 2088.57 2.18694 2.03016 0
M  V30 21942 C 2087.32 0.982778 3.33522 0
M  V30 21943 H 2086.64 1.81975 3.55985 0
M  V30 21944 H 2088.08 0.952404 4.13165 0
M  V30 21945 C 2086.54 -0.314352 3.3543 0
M  V30 21946 O 2087.07 -1.32235 3.79311 0
M  V30 21947 N 2085.28 -0.340506 2.88598 0
M  V30 21948 H 2084.83 0.480318 2.53082 0
M  V30 21949 H 2084.78 -1.20822 2.90257 0
M  V30 21950 N 2088.56 -1.06056 1.16576 0
M  V30 21951 C 2089.51 -2.11853 0.842761 0
M  V30 21952 C 2090.49 -1.59903 -0.178851 0
M  V30 21953 O 2091.68 -1.76986 0.0223245 0
M  V30 21954 C 2088.81 -3.41529 0.348238 0
M  V30 21955 C 2087.9 -4.00299 1.40077 0
M  V30 21956 N 2088.29 -4.33148 2.61183 0
M  V30 21957 C 2086.59 -4.27932 1.25659 0
M  V30 21958 C 2087.29 -4.79896 3.28747 0
M  V30 21959 N 2086.26 -4.79479 2.56126 0
M  V30 21960 H 2090.06 -2.351 1.76366 0
M  V30 21961 H 2087.58 -1.23621 1.05317 0
M  V30 21962 H 2089.58 -4.16784 0.0984337 0
M  V30 21963 H 2088.24 -3.19719 -0.566566 0
M  V30 21964 H 2089.25 -4.23421 2.9822 0
M  V30 21965 H 2085.92 -4.15553 0.402732 0
M  V30 21966 H 2087.31 -5.14497 4.32137 0
M  V30 21967 N 2090.03 -0.964615 -1.24631 0
M  V30 21968 C 2091.28 -0.625742 -1.92905 0
M  V30 21969 C 2091.61 0.836529 -1.75259 0
M  V30 21970 O 2090.89 1.60146 -1.10379 0
M  V30 21971 C 2091.17 -0.997473 -3.46009 0
M  V30 21972 C 2091.02 -2.51621 -3.72836 0
M  V30 21973 C 2092.34 -0.529778 -4.369 0
M  V30 21974 H 2089.46 -0.228804 -0.700584 0
M  V30 21975 H 2092.1 -1.20306 -1.47059 0
M  V30 21976 H 2090.25 -0.506207 -3.85188 0
M  V30 21977 H 2091.93 -3.082 -3.43235 0
M  V30 21978 H 2090.17 -2.94954 -3.18095 0
M  V30 21979 H 2090.84 -2.72681 -4.79947 0
M  V30 21980 H 2093.32 -0.951326 -4.05079 0
M  V30 21981 H 2092.19 -0.818472 -5.42764 0
M  V30 21982 H 2092.45 0.570178 -4.38408 0
M  V30 21983 N 2091.51 1.39445 -0.734362 0
M  V30 21984 C 2092.44 2.33245 -0.109065 0
M  V30 21985 C 2093.42 1.53878 0.724945 0
M  V30 21986 O 2094.61 1.82274 0.670055 0
M  V30 21987 C 2091.74 3.37973 0.799454 0
M  V30 21988 C 2090.69 4.27943 0.0696508 0
M  V30 21989 C 2090.02 5.23365 1.09514 0
M  V30 21990 C 2091.32 5.10855 -1.08738 0
M  V30 21991 H 2093.01 2.85786 -0.892581 0
M  V30 21992 H 2090.56 1.37409 -0.430672 0
M  V30 21993 H 2092.51 4.02545 1.24643 0
M  V30 21994 H 2091.23 2.83871 1.61508 0
M  V30 21995 H 2089.89 3.64851 -0.357693 0
M  V30 21996 H 2089.54 4.65559 1.90432 0
M  V30 21997 H 2089.24 5.84408 0.611606 0
M  V30 21998 H 2090.77 5.90813 1.54183 0
M  V30 21999 H 2092.18 5.68775 -0.718888 0
M  V30 22000 H 2090.58 5.81038 -1.50051 0
M  V30 22001 H 2091.65 4.45725 -1.90937 0
M  V30 22002 N 2092.99 0.481946 1.5005 0
M  V30 22003 C 2094.24 -0.0710199 2.01575 0
M  V30 22004 C 2094.55 -1.39798 1.36806 0
M  V30 22005 O 2095.76 -2.03653 1.79549 0
M  V30 22006 C 2094.21 -0.177064 3.59464 0
M  V30 22007 C 2093.82 1.14212 4.33197 0
M  V30 22008 C 2095.57 -0.681409 4.18995 0
M  V30 22009 C 2093.47 0.999274 5.82897 0
M  V30 22010 H 2092.4 -0.0303162 0.75339 0
M  V30 22011 H 2095.05 0.618487 1.72763 0
M  V30 22012 H 2093.44 -0.930598 3.8491 0
M  V30 22013 H 2094.61 1.90745 4.19467 0
M  V30 22014 H 2092.92 1.57841 3.85325 0
M  V30 22015 H 2095.52 -0.805484 5.28598 0
M  V30 22016 H 2095.86 -1.6755 3.81094 0
M  V30 22017 H 2096.4 0.015045 3.97797 0
M  V30 22018 H 2093.14 1.96706 6.2529 0
M  V30 22019 H 2092.66 0.274505 5.99172 0
M  V30 22020 H 2094.34 0.670265 6.43519 0
M  V30 22021 N 2094.47 -1.56127 0.214985 0
M  V30 22022 C 2095.7 -2.02225 -0.422919 0
M  V30 22023 C 2096.11 -1.09413 -1.54355 0
M  V30 22024 O 2095.45 -0.0948108 -1.83455 0
M  V30 22025 C 2095.51 -3.44677 -1.02166 0
M  V30 22026 C 2095.17 -4.56985 -0.0372982 0
M  V30 22027 C 2096.17 -5.14305 0.760672 0
M  V30 22028 C 2093.86 -5.02237 0.0795528 0
M  V30 22029 C 2095.85 -6.15343 1.66226 0
M  V30 22030 C 2093.54 -6.03115 0.984683 0
M  V30 22031 C 2094.54 -6.59543 1.77459 0
M  V30 22032 O 2094.22 -7.58458 2.66451 0
M  V30 22033 H 2093.96 -0.66724 -0.108474 0
M  V30 22034 H 2096.51 -2.02782 0.326912 0
M  V30 22035 H 2094.74 -3.41169 -1.82046 0
M  V30 22036 H 2096.43 -3.74463 -1.56629 0
M  V30 22037 H 2097.19 -4.80198 0.68081 0
M  V30 22038 H 2093.07 -4.57999 -0.525143 0
M  V30 22039 H 2096.62 -6.59315 2.27925 0
M  V30 22040 H 2092.51 -6.36644 1.06559 0
M  V30 22041 H 2093.28 -7.75955 2.60453 0
M  V30 22042 N 2095.95 0.0584645 -1.57492 0
M  V30 22043 C 2096.88 1.0681 -2.07639 0
M  V30 22044 C 2097.86 1.3955 -0.972622 0
M  V30 22045 O 2099.04 1.48946 -1.24615 0
M  V30 22046 C 2096.17 2.37774 -2.53142 0
M  V30 22047 C 2095.13 2.19354 -3.67516 0
M  V30 22048 C 2094.45 3.5582 -3.9912 0
M  V30 22049 C 2095.75 1.60379 -4.97067 0
M  V30 22050 H 2097.45 0.650765 -2.92242 0
M  V30 22051 H 2094.99 0.311587 -1.40589 0
M  V30 22052 H 2096.94 3.08709 -2.86839 0
M  V30 22053 H 2095.67 2.81513 -1.65583 0
M  V30 22054 H 2094.33 1.50858 -3.34122 0
M  V30 22055 H 2093.98 3.97153 -3.08672 0
M  V30 22056 H 2093.68 3.4433 -4.76142 0
M  V30 22057 H 2095.2 4.28164 -4.35325 0
M  V30 22058 H 2096.61 2.21195 -5.2891 0
M  V30 22059 H 2095.01 1.59548 -5.78502 0
M  V30 22060 H 2096.08 0.566547 -4.81579 0
M  V30 22061 N 2097.42 1.54103 0.330149 0
M  V30 22062 C 2098.7 1.62635 1.0867 0
M  V30 22063 C 2099.08 0.456041 2.06115 0
M  V30 22064 O 2098.43 -0.550367 2.21773 0
M  V30 22065 C 2098.64 2.99332 1.79448 0
M  V30 22066 C 2099.99 3.55151 2.32708 0
M  V30 22067 O 2101.01 3.01594 1.89525 0
M  V30 22068 O 2099.87 4.4886 3.11749 0
M  V30 22069 H 2096.96 0.658337 0.500521 0
M  V30 22070 H 2099.51 1.66449 0.330568 0
M  V30 22071 H 2098.28 3.75947 1.08532 0
M  V30 22072 H 2097.9 2.99167 2.61887 0
M  V30 22073 N 2098.9 -0.59187 1.46064 0
M  V30 22074 C 2099.85 -1.70158 1.55933 0
M  V30 22075 C 2100.82 -1.61107 0.404181 0
M  V30 22076 O 2102 -1.80455 0.619725 0
M  V30 22077 C 2099.14 -3.08488 1.5469 0
M  V30 22078 C 2098.26 -3.2823 2.80872 0
M  V30 22079 C 2097.39 -4.56757 2.71195 0
M  V30 22080 C 2096.43 -4.6981 3.92358 0
M  V30 22081 N 2095.57 -5.89653 3.81121 0
M  V30 22082 H 2100.41 -1.61059 2.50727 0
M  V30 22083 H 2097.95 -0.785101 1.24397 0
M  V30 22084 H 2099.9 -3.88542 1.51956 0
M  V30 22085 H 2098.53 -3.16506 0.634355 0
M  V30 22086 H 2097.59 -2.41843 2.93626 0
M  V30 22087 H 2098.9 -3.33745 3.70696 0
M  V30 22088 H 2098.05 -5.45027 2.66515 0
M  V30 22089 H 2096.79 -4.53665 1.78996 0
M  V30 22090 H 2095.8 -3.7996 3.9738 0
M  V30 22091 H 2097.02 -4.74688 4.85642 0
M  V30 22092 H 2094.97 -5.87576 2.91702 0
M  V30 22093 H 2094.88 -5.96397 4.64593 0
M  V30 22094 H 2096.15 -6.80379 3.80401 0
M  V30 22095 N 2100.38 -1.33616 -0.835729 0
M  V30 22096 C 2101.63 -1.25436 -1.59354 0
M  V30 22097 C 2101.96 0.178683 -1.93376 0
M  V30 22098 O 2101.23 1.12082 -1.58959 0
M  V30 22099 C 2101.52 -2.13273 -2.9015 0
M  V30 22100 C 2101.37 -3.65051 -2.62789 0
M  V30 22101 C 2102.69 -2.00828 -3.91607 0
M  V30 22102 H 2099.81 -0.457008 -0.578198 0
M  V30 22103 H 2102.45 -1.63747 -0.963686 0
M  V30 22104 H 2100.6 -1.8073 -3.43902 0
M  V30 22105 H 2102.27 -4.07899 -2.15444 0
M  V30 22106 H 2100.52 -3.86775 -1.96437 0
M  V30 22107 H 2101.19 -4.2186 -3.56003 0
M  V30 22108 H 2103.66 -2.29375 -3.47169 0
M  V30 22109 H 2102.54 -2.64533 -4.8095 0
M  V30 22110 H 2102.8 -0.98144 -4.31069 0
M  V30 22111 N 2101.86 1.05436 -1.17136 0
M  V30 22112 C 2103.08 1.82612 -0.983237 0
M  V30 22113 C 2103.51 1.82295 0.463697 0
M  V30 22114 O 2102.87 1.23011 1.33184 0
M  V30 22115 C 2102.91 3.26726 -1.52587 0
M  V30 22116 O 2102.02 4.05743 -0.737979 0
M  V30 22117 H 2101.36 0.564713 -0.349279 0
M  V30 22118 H 2103.89 1.3288 -1.55576 0
M  V30 22119 H 2103.9 3.77531 -1.54708 0
M  V30 22120 H 2102.57 3.26271 -2.57915 0
M  V30 22121 H 2101.15 3.64479 -0.78798 0
M  V30 22122 N 2103.34 0.971211 1.24118 0
M  V30 22123 C 2104.28 0.496184 2.27246 0
M  V30 22124 C 2105.28 -0.442084 1.6353 0
M  V30 22125 O 2106.48 -0.316987 1.77187 0
M  V30 22126 H 2102.86 0.142002 0.738471 0
M  V30 22127 H 2104.83 1.37788 2.64683 0
M  V30 22128 C 2103.58 -0.194705 3.47154 0
M  V30 22129 H 2102.9 0.518169 3.96428 0
M  V30 22130 H 2104.34 -0.490853 4.21149 0
M  V30 22131 C 2102.8 -1.42287 3.05379 0
M  V30 22132 O 2103.33 -2.5197 3.12849 0
M  V30 22133 N 2101.54 -1.29018 2.60389 0
M  V30 22134 H 2101.08 -0.397753 2.54511 0
M  V30 22135 H 2101.04 -2.11305 2.32804 0
M  V30 22136 N 2104.81 -1.39054 0.741747 0
M  V30 22137 C 2105.75 -2.29103 0.0665251 0
M  V30 22138 C 2106.76 -1.47157 -0.696331 0
M  V30 22139 O 2107.95 -1.70156 -0.539378 0
M  V30 22140 C 2105.05 -3.25891 -0.929959 0
M  V30 22141 C 2104.22 -4.36809 -0.227219 0
M  V30 22142 C 2103.28 -5.13863 -1.13276 0
M  V30 22143 O 2102.31 -5.65946 -0.607718 0
M  V30 22144 N 2103.51 -5.25709 -2.46192 0
M  V30 22145 H 2106.27 -2.87692 0.839836 0
M  V30 22146 H 2103.83 -1.50707 0.591532 0
M  V30 22147 H 2105.83 -3.74315 -1.53851 0
M  V30 22148 H 2104.4 -2.68285 -1.60443 0
M  V30 22149 H 2103.62 -3.90175 0.5619 0
M  V30 22150 H 2104.9 -5.08138 0.259523 0
M  V30 22151 H 2104.3 -4.84923 -2.91318 0
M  V30 22152 H 2102.86 -5.77549 -3.02127 0
M  V30 22153 N 2106.29 -0.489897 -1.49792 0
M  V30 22154 C 2107.52 0.0556798 -2.06825 0
M  V30 22155 C 2107.94 1.31825 -1.35158 0
M  V30 22156 O 2107.29 1.77446 -0.426503 0
M  V30 22157 C 2107.34 0.324604 -3.6004 0
M  V30 22158 O 2107.06 -0.887904 -4.29008 0
M  V30 22159 C 2108.57 0.91506 -4.33753 0
M  V30 22160 H 2105.79 -0.0154889 -0.670821 0
M  V30 22161 H 2108.33 -0.684073 -1.92719 0
M  V30 22162 H 2106.48 1.01432 -3.73885 0
M  V30 22163 H 2106.9 -0.643954 -5.20532 0
M  V30 22164 H 2108.37 1.05288 -5.41866 0
M  V30 22165 H 2108.85 1.91003 -3.95493 0
M  V30 22166 H 2109.46 0.263155 -4.24485 0
M  V30 22167 N 2107.77 1.56011 -0.223262 0
M  V30 22168 C 2108.7 2.23355 0.680795 0
M  V30 22169 C 2109.68 1.20584 1.19973 0
M  V30 22170 O 2110.87 1.49174 1.24342 0
M  V30 22171 C 2108 2.91478 1.88833 0
M  V30 22172 C 2106.95 4.00736 1.50316 0
M  V30 22173 C 2106.28 4.56164 2.7896 0
M  V30 22174 C 2107.58 5.17697 0.69188 0
M  V30 22175 H 2109.27 2.99162 0.119304 0
M  V30 22176 H 2106.82 1.43891 0.055942 0
M  V30 22177 H 2108.77 3.37282 2.52623 0
M  V30 22178 H 2107.49 2.13121 2.47481 0
M  V30 22179 H 2106.15 3.55665 0.888708 0
M  V30 22180 H 2105.8 3.74535 3.35757 0
M  V30 22181 H 2105.5 5.29903 2.53922 0
M  V30 22182 H 2107.02 5.04687 3.43691 0
M  V30 22183 H 2108.44 5.59872 1.23353 0
M  V30 22184 H 2106.84 5.97679 0.538515 0
M  V30 22185 H 2107.91 4.83964 -0.301131 0
M  V30 22186 N 2109.25 -0.0501116 1.5752 0
M  V30 22187 C 2110.47 -0.761197 1.92926 0
M  V30 22188 C 2110.9 -1.69211 0.821546 0
M  V30 22189 O 2110.26 -1.79908 -0.224247 0
M  V30 22190 C 2110.3 -1.51241 3.27351 0
M  V30 22191 O 2109.41 -2.62445 3.18114 0
M  V30 22192 H 2108.75 -0.206224 0.631164 0
M  V30 22193 H 2111.28 -0.0118709 2.04597 0
M  V30 22194 H 2111.29 -1.88696 3.61743 0
M  V30 22195 H 2109.96 -0.829535 4.07543 0
M  V30 22196 H 2108.54 -2.27688 2.95318 0
M  V30 22197 N 2110.73 -1.54276 -0.321972 0
M  V30 22198 C 2111.66 -1.86766 -1.40146 0
M  V30 22199 C 2112.64 -0.724601 -1.53895 0
M  V30 22200 O 2113.82 -0.978478 -1.67748 0
M  V30 22201 C 2110.95 -2.09642 -2.76889 0
M  V30 22202 C 2109.91 -3.25485 -2.77927 0
M  V30 22203 C 2109.23 -3.33736 -4.17761 0
M  V30 22204 C 2110.53 -4.63097 -2.41533 0
M  V30 22205 H 2112.23 -2.77174 -1.13204 0
M  V30 22206 H 2109.77 -1.33364 -0.543134 0
M  V30 22207 H 2111.73 -2.30955 -3.52474 0
M  V30 22208 H 2110.45 -1.15985 -3.05311 0
M  V30 22209 H 2109.11 -3.04062 -2.04798 0
M  V30 22210 H 2108.76 -2.37634 -4.43327 0
M  V30 22211 H 2108.46 -4.11594 -4.19362 0
M  V30 22212 H 2109.98 -3.57285 -4.95156 0
M  V30 22213 H 2111.39 -4.84281 -3.06831 0
M  V30 22214 H 2109.79 -5.43516 -2.54382 0
M  V30 22215 H 2110.86 -4.65238 -1.3668 0
M  V30 22216 N 2112.2 0.584116 -1.46376 0
M  V30 22217 C 2113.45 1.34238 -1.51613 0
M  V30 22218 C 2113.78 1.93779 -0.167271 0
M  V30 22219 O 2113.03 1.76902 0.836914 0
M  V30 22220 C 2113.33 2.49232 -2.56161 0
M  V30 22221 C 2113 2.07692 -4.00219 0
M  V30 22222 C 2111.66 1.96078 -4.39439 0
M  V30 22223 C 2114.01 1.75625 -4.90719 0
M  V30 22224 C 2111.34 1.50653 -5.67028 0
M  V30 22225 C 2113.69 1.3168 -6.18743 0
M  V30 22226 C 2112.36 1.18641 -6.56872 0
M  V30 22227 H 2111.63 0.491211 -0.554791 0
M  V30 22228 H 2114.27 0.657889 -1.79845 0
M  V30 22229 H 2112.58 3.23121 -2.21585 0
M  V30 22230 H 2114.28 3.07448 -2.57443 0
M  V30 22231 H 2110.87 2.17665 -3.69215 0
M  V30 22232 H 2115.05 1.83484 -4.61137 0
M  V30 22233 H 2110.31 1.39201 -5.95343 0
M  V30 22234 H 2114.48 1.0592 -6.88298 0
M  V30 22235 H 2112.11 0.832188 -7.55631 0
M  V30 22236 N 2113.68 1.34058 0.828631 0
M  V30 22237 C 2114.93 1.26093 1.58451 0
M  V30 22238 C 2115.26 -0.170623 1.9375 0
M  V30 22239 O 2114.51 -1.13044 1.59748 0
M  V30 22240 C 2114.81 2.09161 2.89804 0
M  V30 22241 C 2114.48 3.58234 2.73823 0
M  V30 22242 C 2113.14 3.98873 2.69172 0
M  V30 22243 C 2115.49 4.52919 2.57903 0
M  V30 22244 C 2112.82 5.32398 2.46514 0
M  V30 22245 C 2115.17 5.86617 2.36777 0
M  V30 22246 C 2113.84 6.26426 2.30534 0
M  V30 22247 H 2113.11 0.461406 0.579815 0
M  V30 22248 H 2115.75 1.65745 0.959215 0
M  V30 22249 H 2114.06 1.62319 3.56595 0
M  V30 22250 H 2115.76 2.00349 3.47363 0
M  V30 22251 H 2112.35 3.25973 2.7828 0
M  V30 22252 H 2116.53 4.22423 2.60523 0
M  V30 22253 H 2111.79 5.62268 2.40135 0
M  V30 22254 H 2115.96 6.5958 2.23444 0
M  V30 22255 H 2113.59 7.29826 2.12738 0
M  V30 22256 N 2115.16 -1.04814 1.17694 0
M  V30 22257 C 2116.39 -1.8155 0.99233 0
M  V30 22258 C 2116.8 -1.83126 -0.459376 0
M  V30 22259 O 2116.16 -1.26127 -1.31903 0
M  V30 22260 C 2116.21 -3.27495 1.53067 0
M  V30 22261 O 2115.93 -3.26104 2.92554 0
M  V30 22262 C 2117.43 -4.20905 1.39119 0
M  V30 22263 H 2114.65 -0.571967 0.350849 0
M  V30 22264 H 2117.2 -1.32145 1.5607 0
M  V30 22265 H 2115.35 -3.74157 1.00424 0
M  V30 22266 H 2115.77 -4.17476 3.17512 0
M  V30 22267 H 2117.24 -5.21275 1.81595 0
M  V30 22268 H 2117.72 -4.37891 0.338812 0
M  V30 22269 H 2118.32 -3.801 1.90798 0
M  V30 22270 N 2116.64 -0.977779 -1.23601 0
M  V30 22271 C 2117.89 -0.646167 -1.9223 0
M  V30 22272 C 2118.22 0.817893 -1.76137 0
M  V30 22273 O 2117.49 1.58966 -1.12071 0
M  V30 22274 C 2117.78 -1.03412 -3.44932 0
M  V30 22275 C 2117.63 -2.55561 -3.70147 0
M  V30 22276 C 2118.95 -0.576087 -4.36313 0
M  V30 22277 H 2116.07 -0.236222 -0.698118 0
M  V30 22278 H 2118.71 -1.21859 -1.45775 0
M  V30 22279 H 2116.86 -0.547033 -3.84629 0
M  V30 22280 H 2118.53 -3.11824 -3.39947 0
M  V30 22281 H 2116.77 -2.98312 -3.14949 0
M  V30 22282 H 2117.45 -2.77756 -4.77028 0
M  V30 22283 H 2119.92 -0.994237 -4.04047 0
M  V30 22284 H 2118.8 -0.875993 -5.41865 0
M  V30 22285 H 2119.06 0.523647 -4.38988 0
M  V30 22286 N 2118.12 1.38658 -0.749111 0
M  V30 22287 C 2119.05 2.33116 -0.133797 0
M  V30 22288 C 2120.03 1.54639 0.708583 0
M  V30 22289 O 2121.21 1.82975 0.650684 0
M  V30 22290 C 2118.34 3.38802 0.763563 0
M  V30 22291 C 2117.3 4.27993 0.0242578 0
M  V30 22292 C 2116.62 5.24497 1.03957 0
M  V30 22293 C 2117.92 5.09673 -1.14151 0
M  V30 22294 H 2119.62 2.84823 -0.922842 0
M  V30 22295 H 2117.16 1.36944 -0.445221 0
M  V30 22296 H 2119.12 4.03844 1.20366 0
M  V30 22297 H 2117.84 2.85568 1.58488 0
M  V30 22298 H 2116.5 3.64451 -0.39637 0
M  V30 22299 H 2116.15 4.67552 1.85483 0
M  V30 22300 H 2115.85 5.85024 0.549587 0
M  V30 22301 H 2117.37 5.92415 1.47908 0
M  V30 22302 H 2118.79 5.6798 -0.779174 0
M  V30 22303 H 2117.18 5.79413 -1.56206 0
M  V30 22304 H 2118.25 4.43675 -1.95654 0
M  V30 22305 N 2119.6 0.497834 1.49531 0
M  V30 22306 C 2120.53 -0.318951 2.2697 0
M  V30 22307 C 2121.54 -0.933444 1.33382 0
M  V30 22308 O 2122.73 -0.81732 1.58689 0
M  V30 22309 C 2119.83 -1.46375 3.05659 0
M  V30 22310 C 2119 -0.957146 4.26799 0
M  V30 22311 C 2118.06 -1.97917 4.8756 0
M  V30 22312 O 2117.09 -1.54899 5.47718 0
M  V30 22313 N 2118.29 -3.30935 4.7693 0
M  V30 22314 H 2121.05 0.345053 2.97707 0
M  V30 22315 H 2118.62 0.330191 1.58497 0
M  V30 22316 H 2120.61 -2.14495 3.43182 0
M  V30 22317 H 2119.18 -2.03196 2.3755 0
M  V30 22318 H 2118.4 -0.100949 3.94071 0
M  V30 22319 H 2119.69 -0.597028 5.05285 0
M  V30 22320 H 2119.08 -3.68576 4.29149 0
M  V30 22321 H 2117.64 -3.94778 5.18646 0
M  V30 22322 N 2121.07 -1.5589 0.231532 0
M  V30 22323 C 2122.35 -1.90424 -0.446981 0
M  V30 22324 C 2122.73 -1.15023 -1.77011 0
M  V30 22325 O 2122.08 -0.262744 -2.26984 0
M  V30 22326 C 2122.29 -3.43264 -0.630152 0
M  V30 22327 C 2123.64 -4.14221 -0.933046 0
M  V30 22328 O 2124.66 -3.48918 -0.716578 0
M  V30 22329 O 2123.52 -5.29705 -1.34441 0
M  V30 22330 H 2120.61 -0.792099 -0.237715 0
M  V30 22331 H 2123.16 -1.67466 0.274458 0
M  V30 22332 H 2121.93 -3.90127 0.302739 0
M  V30 22333 H 2121.55 -3.72035 -1.40271 0
M  V30 22334 N 2122.55 0.0417572 -1.57545 0
M  V30 22335 C 2123.8 0.736189 -1.88966 0
M  V30 22336 C 2124.13 1.75678 -0.827697 0
M  V30 22337 O 2123.41 1.93851 0.158734 0
M  V30 22338 C 2123.69 1.4172 -3.3104 0
M  V30 22339 C 2123.54 0.410987 -4.47918 0
M  V30 22340 C 2124.86 2.3545 -3.71822 0
M  V30 22341 H 2121.98 0.266166 -0.687259 0
M  V30 22342 H 2124.62 -0.000952352 -1.9 0
M  V30 22343 H 2122.77 2.04552 -3.30289 0
M  V30 22344 H 2124.44 -0.214433 -4.60801 0
M  V30 22345 H 2122.69 -0.270954 -4.32953 0
M  V30 22346 H 2123.36 0.925718 -5.44182 0
M  V30 22347 H 2125.83 1.82673 -3.73858 0
M  V30 22348 H 2124.71 2.80087 -4.72062 0
M  V30 22349 H 2124.97 3.21575 -3.03384 0
M  V30 22350 N 2124.03 1.54445 0.313786 0
M  V30 22351 C 2125.44 1.64251 0.887611 0
M  V30 22352 C 2125.79 0.542877 1.8854 0
M  V30 22353 O 2124.92 -0.322627 2.13981 0
M  V30 22354 C 2125.51 2.97739 1.61668 0
M  V30 22355 C 2124.07 3.09709 2.13909 0
M  V30 22356 C 2123.22 2.5987 0.967618 0
M  V30 22357 H 2126.17 1.58438 0.091111 0
M  V30 22358 H 2126.19 2.88447 2.4815 0
M  V30 22359 H 2125.7 3.77752 0.890231 0
M  V30 22360 H 2123.8 2.34391 2.89641 0
M  V30 22361 H 2123.92 4.15667 2.38239 0
M  V30 22362 H 2122.28 2.16006 1.34957 0
M  V30 22363 H 2123.06 3.42349 0.255325 0
M  V30 22364 N 2125.51 -0.576345 1.46683 0
M  V30 22365 C 2126.75 -1.3363 1.52548 0
M  V30 22366 C 2127.09 -1.93371 0.179205 0
M  V30 22367 O 2126.36 -1.76827 -0.810088 0
M  V30 22368 C 2126.64 -2.46086 2.62895 0
M  V30 22369 C 2126.5 -1.91338 4.07075 0
M  V30 22370 C 2127.82 -3.48104 2.6928 0
M  V30 22371 H 2124.94 -0.484517 0.555349 0
M  V30 22372 H 2127.58 -0.646838 1.78651 0
M  V30 22373 H 2125.73 -3.04898 2.40769 0
M  V30 22374 H 2127.4 -1.36934 4.40507 0
M  V30 22375 H 2125.64 -1.22127 4.16254 0
M  V30 22376 H 2126.31 -2.72545 4.80024 0
M  V30 22377 H 2128.79 -2.99183 2.89187 0
M  V30 22378 H 2127.67 -4.2424 3.48298 0
M  V30 22379 H 2127.93 -4.05739 1.7558 0
M  V30 22380 N 2126.99 -1.34495 -0.82151 0
M  V30 22381 C 2128.4 -1.14208 -1.11484 0
M  V30 22382 C 2128.6 0.0554729 -2.01424 0
M  V30 22383 O 2127.66 0.730574 -2.417 0
M  V30 22384 C 2128.97 -2.43799 -1.76019 0
M  V30 22385 C 2130.52 -2.49868 -1.88508 0
M  V30 22386 C 2130.99 -3.79464 -2.56459 0
M  V30 22387 N 2132.48 -3.80632 -2.63957 0
M  V30 22388 C 2133.22 -4.77629 -3.17267 0
M  V30 22389 N 2132.72 -5.85009 -3.71129 0
M  V30 22390 N 2134.51 -4.65083 -3.15681 0
M  V30 22391 H 2126.66 -2.11223 -0.223307 0
M  V30 22392 H 2128.92 -0.93412 -0.161627 0
M  V30 22393 H 2128.63 -3.31528 -1.17397 0
M  V30 22394 H 2128.5 -2.57243 -2.75873 0
M  V30 22395 H 2130.89 -1.62577 -2.46278 0
M  V30 22396 H 2130.97 -2.4035 -0.875522 0
M  V30 22397 H 2130.61 -4.67146 -1.99342 0
M  V30 22398 H 2130.54 -3.86264 -3.57921 0
M  V30 22399 H 2133.04 -3.03038 -2.2578 0
M  V30 22400 H 2133.35 -6.55034 -4.10062 0
M  V30 22401 H 2131.69 -5.88721 -3.69369 0
M  V30 22402 H 2134.88 -3.80342 -2.72869 0
M  V30 22403 H 2135.06 -5.40842 -3.56922 0
M  V30 22404 N 2128.46 1.04188 -1.18248 0
M  V30 22405 C 2129.74 1.74344 -0.886757 0
M  V30 22406 C 2130.12 2.02074 0.610675 0
M  V30 22407 O 2129.47 1.66492 1.56501 0
M  V30 22408 C 2129.68 3.02952 -1.73267 0
M  V30 22409 C 2131.03 3.76712 -1.95892 0
M  V30 22410 O 2132.05 3.12847 -1.70309 0
M  V30 22411 O 2130.91 4.91493 -2.38949 0
M  V30 22412 H 2128 0.758616 -0.329288 0
M  V30 22413 H 2130.55 1.10265 -1.28995 0
M  V30 22414 H 2129.32 2.78587 -2.74782 0
M  V30 22415 H 2128.95 3.7477 -1.3279 0
M  V30 22416 N 2129.94 0.98432 1.23081 0
M  V30 22417 C 2130.87 0.547274 2.26996 0
M  V30 22418 C 2131.85 -0.421528 1.64794 0
M  V30 22419 O 2133.04 -0.314036 1.91644 0
M  V30 22420 C 2130.17 -0.147283 3.46988 0
M  V30 22421 C 2129.12 0.739194 4.21568 0
M  V30 22422 C 2128.45 -0.0877981 5.34628 0
M  V30 22423 C 2129.75 2.03191 4.81156 0
M  V30 22424 H 2131.44 1.41586 2.63806 0
M  V30 22425 H 2128.99 0.682245 1.26813 0
M  V30 22426 H 2130.94 -0.464368 4.18834 0
M  V30 22427 H 2129.67 -1.05035 3.09249 0
M  V30 22428 H 2128.32 1.03979 3.51545 0
M  V30 22429 H 2127.97 -0.99152 4.93131 0
M  V30 22430 H 2127.67 0.50225 5.8545 0
M  V30 22431 H 2129.2 -0.399175 6.09294 0
M  V30 22432 H 2130.61 1.77933 5.44989 0
M  V30 22433 H 2129.01 2.57006 5.4228 0
M  V30 22434 H 2130.08 2.71622 4.01684 0
M  V30 22435 N 2131.42 -1.38259 0.756453 0
M  V30 22436 C 2132.37 -2.3043 0.130645 0
M  V30 22437 C 2133.34 -1.50324 -0.70653 0
M  V30 22438 O 2134.52 -1.78945 -0.662065 0
M  V30 22439 C 2131.66 -3.36755 -0.754338 0
M  V30 22440 C 2130.78 -4.31889 0.0977771 0
M  V30 22441 C 2129.91 -5.25286 -0.790477 0
M  V30 22442 C 2128.95 -6.12065 0.0650988 0
M  V30 22443 N 2128.09 -6.97751 -0.780275 0
M  V30 22444 H 2132.93 -2.83371 0.92222 0
M  V30 22445 H 2130.46 -1.3951 0.466406 0
M  V30 22446 H 2132.42 -3.97012 -1.2821 0
M  V30 22447 H 2131.05 -2.85216 -1.51167 0
M  V30 22448 H 2130.1 -3.73069 0.743191 0
M  V30 22449 H 2131.42 -4.93001 0.758393 0
M  V30 22450 H 2130.57 -5.90673 -1.38529 0
M  V30 22451 H 2129.31 -4.64548 -1.48482 0
M  V30 22452 H 2128.31 -5.45671 0.672561 0
M  V30 22453 H 2129.54 -6.74873 0.756543 0
M  V30 22454 H 2127.48 -6.39558 -1.45951 0
M  V30 22455 H 2127.4 -7.55794 -0.176619 0
M  V30 22456 H 2128.67 -7.67545 -1.35997 0
M  V30 22457 N 2132.9 -0.505757 -1.49264 0
M  V30 22458 C 2134.31 -0.0591588 -1.86606 0
M  V30 22459 C 2134.66 1.35636 -1.41765 0
M  V30 22460 O 2133.79 2.01164 -0.797622 0
M  V30 22461 C 2134.38 -0.100581 -3.38651 0
M  V30 22462 C 2132.94 0.290698 -3.75276 0
M  V30 22463 C 2132.09 -0.471033 -2.7327 0
M  V30 22464 H 2135.04 -0.718294 -1.41514 0
M  V30 22465 H 2135.06 0.693588 -3.74125 0
M  V30 22466 H 2134.57 -1.13093 -3.71257 0
M  V30 22467 H 2132.67 1.3241 -3.48279 0
M  V30 22468 H 2132.78 -0.0320604 -4.79089 0
M  V30 22469 H 2131.15 0.0797288 -2.54575 0
M  V30 22470 H 2131.93 -1.50155 -3.0872 0
M  V30 22471 N 2134.38 1.55765 -0.239796 0
M  V30 22472 C 2135.34 2.19809 0.649364 0
M  V30 22473 C 2136.34 1.16526 1.10808 0
M  V30 22474 O 2137.53 1.41651 1.01394 0
M  V30 22475 C 2134.66 2.83599 1.89168 0
M  V30 22476 H 2135.85 2.99763 0.0907114 0
M  V30 22477 H 2133.41 1.56297 0.00977153 0
M  V30 22478 H 2134.14 2.07564 2.49174 0
M  V30 22479 H 2133.93 3.5925 1.57104 0
M  V30 22480 H 2135.42 3.32634 2.52477 0
M  V30 22481 N 2135.85 -0.0334016 1.57565 0
M  V30 22482 C 2137.1 -0.724102 1.88254 0
M  V30 22483 C 2137.42 -1.76752 0.837737 0
M  V30 22484 O 2138.62 -2.51051 1.03372 0
M  V30 22485 C 2137.08 -1.33894 3.34067 0
M  V30 22486 C 2136.69 -0.332091 4.46767 0
M  V30 22487 C 2138.43 -2.00977 3.7391 0
M  V30 22488 C 2136.34 -0.955024 5.83638 0
M  V30 22489 H 2135.27 -0.274201 0.702375 0
M  V30 22490 H 2137.92 0.0216608 1.83487 0
M  V30 22491 H 2136.3 -2.13426 3.33565 0
M  V30 22492 H 2137.47 0.436205 4.58731 0
M  V30 22493 H 2135.79 0.236407 4.15728 0
M  V30 22494 H 2138.39 -2.48428 4.73485 0
M  V30 22495 H 2138.73 -2.82605 3.05679 0
M  V30 22496 H 2139.26 -1.28225 3.76568 0
M  V30 22497 H 2136 -0.178244 6.55258 0
M  V30 22498 H 2135.52 -1.69326 5.75403 0
M  V30 22499 H 2137.2 -1.46364 6.30227 0
M  V30 22500 N 2137.33 -1.54609 -0.305591 0
M  V30 22501 C 2138.58 -1.73929 -1.04291 0
M  V30 22502 C 2138.91 -0.521093 -1.87078 0
M  V30 22503 O 2138.19 0.481847 -1.88437 0
M  V30 22504 C 2138.47 -3.02557 -1.95272 0
M  V30 22505 C 2138.32 -4.34666 -1.15695 0
M  V30 22506 C 2139.64 -3.27028 -2.94517 0
M  V30 22507 H 2136.76 -0.632835 -0.377741 0
M  V30 22508 H 2139.4 -1.87321 -0.317961 0
M  V30 22509 H 2137.55 -2.91271 -2.57087 0
M  V30 22510 H 2139.22 -4.57863 -0.562028 0
M  V30 22511 H 2137.47 -4.31359 -0.459568 0
M  V30 22512 H 2138.14 -5.20925 -1.82595 0
M  V30 22513 H 2140.61 -3.37894 -2.42831 0
M  V30 22514 H 2139.49 -4.18355 -3.55346 0
M  V30 22515 H 2139.75 -2.45106 -3.67934 0
M  V30 22516 N 2138.81 0.568558 -1.46987 0
M  V30 22517 C 2139.76 1.67655 -1.5862 0
M  V30 22518 C 2140.73 1.60444 -0.429761 0
M  V30 22519 O 2141.91 1.79446 -0.648355 0
M  V30 22520 C 2139.05 3.05988 -1.59578 0
M  V30 22521 C 2138.17 3.2372 -2.86058 0
M  V30 22522 C 2137.3 4.52385 -2.78427 0
M  V30 22523 C 2136.34 4.63509 -3.99782 0
M  V30 22524 N 2135.48 5.83515 -3.90454 0
M  V30 22525 H 2140.32 1.5705 -2.53257 0
M  V30 22526 H 2137.85 0.765211 -1.2563 0
M  V30 22527 H 2139.81 3.86076 -1.58118 0
M  V30 22528 H 2138.44 3.15456 -0.684628 0
M  V30 22529 H 2137.49 2.37141 -2.97436 0
M  V30 22530 H 2138.81 3.27806 -3.75959 0
M  V30 22531 H 2137.96 5.40718 -2.75152 0
M  V30 22532 H 2136.7 4.5076 -1.86191 0
M  V30 22533 H 2135.7 3.7359 -4.03374 0
M  V30 22534 H 2136.93 4.66902 -4.93132 0
M  V30 22535 H 2134.87 5.82861 -3.01013 0
M  V30 22536 H 2134.79 5.8893 -4.74022 0
M  V30 22537 H 2136.06 6.74241 -3.91177 0
M  V30 22538 N 2140.29 1.34929 0.814366 0
M  V30 22539 C 2141.53 1.27956 1.57338 0
M  V30 22540 C 2141.87 -0.147896 1.93636 0
M  V30 22541 O 2141.14 -1.09539 1.60722 0
M  V30 22542 C 2141.43 2.17862 2.8672 0
M  V30 22543 C 2141.28 3.69185 2.56948 0
M  V30 22544 C 2142.6 2.07033 3.88362 0
M  V30 22545 H 2139.72 0.466149 0.570854 0
M  V30 22546 H 2142.36 1.65259 0.937513 0
M  V30 22547 H 2140.51 1.86178 3.40984 0
M  V30 22548 H 2142.18 4.11275 2.08927 0
M  V30 22549 H 2140.42 3.89851 1.90259 0
M  V30 22550 H 2141.09 4.2747 3.49247 0
M  V30 22551 H 2143.57 2.34869 3.43476 0
M  V30 22552 H 2142.45 2.72151 4.76681 0
M  V30 22553 H 2142.71 1.04989 4.29453 0
M  V30 22554 N 2141.77 -1.0356 1.18799 0
M  V30 22555 C 2143 -1.80226 1.01006 0
M  V30 22556 C 2143.4 -1.83904 -0.444538 0
M  V30 22557 O 2142.75 -1.27698 -1.32056 0
M  V30 22558 C 2142.81 -3.26949 1.49481 0
M  V30 22559 C 2142.47 -3.46921 2.97481 0
M  V30 22560 C 2143.47 -3.37692 3.95297 0
M  V30 22561 C 2141.16 -3.73353 3.36025 0
M  V30 22562 C 2143.15 -3.54609 5.29652 0
M  V30 22563 C 2140.84 -3.89916 4.70541 0
M  V30 22564 C 2141.83 -3.80545 5.67164 0
M  V30 22565 O 2141.52 -3.96627 6.99244 0
M  V30 22566 H 2141.25 -0.574238 0.356688 0
M  V30 22567 H 2143.81 -1.31373 1.57894 0
M  V30 22568 H 2142.04 -3.76795 0.869635 0
M  V30 22569 H 2143.73 -3.85189 1.28001 0
M  V30 22570 H 2144.49 -3.1723 3.66865 0
M  V30 22571 H 2140.37 -3.79743 2.61374 0
M  V30 22572 H 2143.92 -3.47211 6.05054 0
M  V30 22573 H 2139.81 -4.09873 4.98672 0
M  V30 22574 H 2140.58 -4.13758 7.0622 0
M  V30 22575 N 2143.25 -0.990834 -1.22557 0
M  V30 22576 C 2144.52 -0.581554 -1.86755 0
M  V30 22577 C 2144.9 0.941178 -1.88958 0
M  V30 22578 O 2144.25 1.82226 -1.37862 0
M  V30 22579 C 2144.46 -1.19961 -3.27735 0
M  V30 22580 C 2145.81 -1.29885 -4.04246 0
M  V30 22581 O 2146.83 -1.15385 -3.36994 0
M  V30 22582 O 2145.69 -1.53066 -5.24626 0
M  V30 22583 H 2142.79 -0.197289 -0.803123 0
M  V30 22584 H 2145.33 -1.08658 -1.30351 0
M  V30 22585 H 2144.1 -2.24125 -3.20755 0
M  V30 22586 H 2143.73 -0.680045 -3.91741 0
M  V30 22587 N 2144.72 1.37856 -0.763775 0
M  V30 22588 C 2145.95 2.03864 -0.335144 0
M  V30 22589 C 2146.36 1.57732 1.04486 0
M  V30 22590 O 2145.7 0.750289 1.67679 0
M  V30 22591 C 2145.77 3.58323 -0.290657 0
M  V30 22592 C 2145.43 4.27554 -1.61391 0
M  V30 22593 C 2146.43 4.52225 -2.56494 0
M  V30 22594 C 2144.11 4.65542 -1.88615 0
M  V30 22595 C 2146.11 5.13931 -3.77033 0
M  V30 22596 C 2143.79 5.26971 -3.09426 0
M  V30 22597 C 2144.79 5.51102 -4.03455 0
M  V30 22598 O 2144.48 6.11248 -5.2214 0
M  V30 22599 H 2144.21 0.661438 -0.139556 0
M  V30 22600 H 2146.77 1.77331 -1.03648 0
M  V30 22601 H 2145 3.8387 0.467001 0
M  V30 22602 H 2146.68 4.05751 0.109828 0
M  V30 22603 H 2147.45 4.23296 -2.3674 0
M  V30 22604 H 2143.33 4.461 -1.16258 0
M  V30 22605 H 2146.87 5.32682 -4.5044 0
M  V30 22606 H 2142.77 5.55324 -3.29068 0
M  V30 22607 H 2143.54 6.29731 -5.22859 0
M  V30 22608 N 2146.2 0.513665 1.48994 0
M  V30 22609 C 2147.43 -0.0227356 2.06587 0
M  V30 22610 C 2147.84 -1.30207 1.37269 0
M  V30 22611 O 2147.18 -1.78134 0.448768 0
M  V30 22612 C 2147.24 -0.333871 3.57946 0
M  V30 22613 C 2146.91 0.849596 4.49033 0
M  V30 22614 C 2147.91 1.74357 4.89791 0
M  V30 22615 C 2145.59 1.05198 4.9116 0
M  V30 22616 C 2147.58 2.82398 5.71428 0
M  V30 22617 C 2145.27 2.13555 5.72571 0
M  V30 22618 C 2146.27 3.01989 6.12611 0
M  V30 22619 O 2145.96 4.08474 6.9239 0
M  V30 22620 H 2145.69 0.0229763 0.675609 0
M  V30 22621 H 2148.24 0.713941 1.92593 0
M  V30 22622 H 2146.47 -1.12431 3.69995 0
M  V30 22623 H 2148.16 -0.810396 3.97728 0
M  V30 22624 H 2148.93 1.59909 4.5788 0
M  V30 22625 H 2144.81 0.372979 4.59489 0
M  V30 22626 H 2148.35 3.51453 6.026 0
M  V30 22627 H 2144.25 2.27994 6.03895 0
M  V30 22628 H 2145.02 4.05982 7.10718 0
M  V30 22629 N 2147.68 -1.55636 0.248053 0
M  V30 22630 C 2148.59 -2.25074 -0.661731 0
M  V30 22631 C 2149.61 -1.26725 -1.19234 0
M  V30 22632 O 2150.78 -1.59603 -1.22836 0
M  V30 22633 C 2147.85 -2.93753 -1.84147 0
M  V30 22634 C 2146.91 -4.07514 -1.35022 0
M  V30 22635 C 2146.14 -4.72908 -2.47374 0
M  V30 22636 O 2146.36 -4.37385 -3.66129 0
M  V30 22637 O 2145.3 -5.61396 -2.17066 0
M  V30 22638 H 2149.12 -3.03535 -0.100047 0
M  V30 22639 H 2146.71 -1.49391 0.0165105 0
M  V30 22640 H 2148.59 -3.37007 -2.52991 0
M  V30 22641 H 2147.27 -2.18231 -2.39075 0
M  V30 22642 H 2146.17 -3.68774 -0.629034 0
M  V30 22643 H 2147.51 -4.84857 -0.847015 0
M  V30 22644 N 2149.16 0.0250451 -1.5758 0
M  V30 22645 C 2150.39 0.72671 -1.93718 0
M  V30 22646 C 2150.8 1.68677 -0.848148 0
M  V30 22647 O 2150.16 1.81658 0.175105 0
M  V30 22648 C 2150.21 1.4803 -3.29802 0
M  V30 22649 O 2149.93 0.55877 -4.34522 0
M  V30 22650 C 2151.43 2.27876 -3.80247 0
M  V30 22651 H 2148.65 0.203986 -0.639242 0
M  V30 22652 H 2151.19 -0.0186251 -2.04492 0
M  V30 22653 H 2149.35 2.17748 -3.20413 0
M  V30 22654 H 2149.76 1.08769 -5.13098 0
M  V30 22655 H 2151.24 2.7614 -4.77965 0
M  V30 22656 H 2151.71 3.09471 -3.11648 0
M  V30 22657 H 2152.32 1.63224 -3.92731 0
M  V30 22658 N 2150.64 1.54769 0.297388 0
M  V30 22659 C 2151.91 1.64904 1.05195 0
M  V30 22660 C 2152.29 0.499658 2.05102 0
M  V30 22661 O 2151.64 -0.503202 2.2289 0
M  V30 22662 C 2151.85 3.03071 1.73058 0
M  V30 22663 C 2153.2 3.60007 2.25123 0
M  V30 22664 O 2154.22 3.05546 1.83085 0
M  V30 22665 O 2153.08 4.55371 3.02158 0
M  V30 22666 H 2150.18 0.668805 0.486444 0
M  V30 22667 H 2152.72 1.67113 0.295187 0
M  V30 22668 H 2151.49 3.78165 1.00534 0
M  V30 22669 H 2151.12 3.04655 2.55482 0
M  V30 22670 N 2152.11 -0.560755 1.47286 0
M  V30 22671 C 2153.02 -1.69558 1.62133 0
M  V30 22672 C 2154.04 -1.66533 0.50425 0
M  V30 22673 O 2155.22 -1.86045 0.771315 0
M  V30 22674 C 2152.28 -3.06065 1.62865 0
M  V30 22675 C 2151.34 -3.20185 2.85972 0
M  V30 22676 C 2150.57 -4.5018 2.8666 0
M  V30 22677 O 2150.8 -5.35423 1.96669 0
M  V30 22678 O 2149.73 -4.68015 3.78478 0
M  V30 22679 H 2153.56 -1.59976 2.5815 0
M  V30 22680 H 2151.14 -0.730353 1.30331 0
M  V30 22681 H 2153.02 -3.87307 1.66046 0
M  V30 22682 H 2151.7 -3.16037 0.700143 0
M  V30 22683 H 2150.61 -2.38353 2.88337 0
M  V30 22684 H 2151.94 -3.15114 3.78106 0
M  V30 22685 N 2153.59 -1.35359 -0.807199 0
M  V30 22686 C 2154.84 -1.28598 -1.56425 0
M  V30 22687 C 2155.17 0.139777 -1.93997 0
M  V30 22688 O 2154.42 1.10489 -1.61526 0
M  V30 22689 C 2154.72 -2.13745 -2.8644 0
M  V30 22690 C 2154.39 -3.62545 -2.68089 0
M  V30 22691 C 2153.05 -4.03105 -2.62792 0
M  V30 22692 C 2155.4 -4.56965 -2.50664 0
M  V30 22693 C 2152.73 -5.36253 -2.38013 0
M  V30 22694 C 2155.08 -5.9031 -2.27415 0
M  V30 22695 C 2153.74 -6.30015 -2.20539 0
M  V30 22696 H 2153.01 -0.470572 -0.572401 0
M  V30 22697 H 2155.66 -1.6725 -0.932725 0
M  V30 22698 H 2153.97 -1.67972 -3.53967 0
M  V30 22699 H 2155.66 -2.0585 -3.44132 0
M  V30 22700 H 2152.25 -3.30359 -2.73059 0
M  V30 22701 H 2156.44 -4.26515 -2.53769 0
M  V30 22702 H 2151.69 -5.66017 -2.31159 0
M  V30 22703 H 2155.87 -6.63051 -2.12922 0
M  V30 22704 H 2153.49 -7.33118 -2.01101 0
M  V30 22705 N 2155.07 1.02928 -1.19346 0
M  V30 22706 C 2156.03 2.09361 -0.932765 0
M  V30 22707 C 2157.03 1.60567 0.086582 0
M  V30 22708 O 2158.22 1.73569 -0.148116 0
M  V30 22709 C 2155.35 3.38524 -0.401767 0
M  V30 22710 H 2156.55 2.33922 -1.87671 0
M  V30 22711 H 2154.1 1.19532 -1.00707 0
M  V30 22712 H 2154.84 3.19632 0.548245 0
M  V30 22713 H 2154.62 3.75261 -1.13672 0
M  V30 22714 H 2156.11 4.16919 -0.238443 0
M  V30 22715 N 2156.55 0.997319 1.2203 0
M  V30 22716 C 2157.8 0.671095 1.90208 0
M  V30 22717 C 2158.11 -0.800818 1.78455 0
M  V30 22718 O 2159.32 -1.23881 2.4159 0
M  V30 22719 C 2157.77 1.14983 3.41038 0
M  V30 22720 C 2157.38 2.64727 3.61419 0
M  V30 22721 C 2159.12 0.898134 4.1489 0
M  V30 22722 C 2157.03 3.06181 5.05972 0
M  V30 22723 H 2155.96 0.247312 0.712287 0
M  V30 22724 H 2158.61 1.20747 1.38176 0
M  V30 22725 H 2156.99 0.541553 3.92279 0
M  V30 22726 H 2158.17 3.30938 3.2065 0
M  V30 22727 H 2156.48 2.87827 3.00906 0
M  V30 22728 H 2159.08 1.18349 5.21438 0
M  V30 22729 H 2159.42 -0.165703 4.1597 0
M  V30 22730 H 2159.96 1.46882 3.6969 0
M  V30 22731 H 2156.69 4.11759 5.10034 0
M  V30 22732 H 2156.21 2.44676 5.47625 0
M  V30 22733 H 2157.89 2.97729 5.74427 0
M  V30 22734 N 2158.03 -1.37449 0.771075 0
M  V30 22735 C 2158.99 -2.28619 0.163149 0
M  V30 22736 C 2159.99 -1.47996 -0.628787 0
M  V30 22737 O 2161.18 -1.68221 -0.452475 0
M  V30 22738 C 2158.31 -3.31942 -0.776372 0
M  V30 22739 H 2159.5 -2.83888 0.966816 0
M  V30 22740 H 2157.06 -1.46703 0.53924 0
M  V30 22741 H 2157.79 -2.81794 -1.60507 0
M  V30 22742 H 2157.58 -3.91534 -0.210683 0
M  V30 22743 H 2159.07 -4.00072 -1.19717 0
M  V30 22744 N 2159.5 -0.52156 -1.4872 0
M  V30 22745 C 2160.41 0.249847 -2.33266 0
M  V30 22746 C 2161.43 0.947297 -1.45953 0
M  V30 22747 O 2162.61 0.924126 -1.78947 0
M  V30 22748 C 2159.67 1.28824 -3.21878 0
M  V30 22749 C 2158.73 0.602041 -4.25058 0
M  V30 22750 C 2157.97 1.59096 -5.09435 0
M  V30 22751 O 2158.19 2.82282 -4.95654 0
M  V30 22752 O 2157.12 1.13498 -5.91102 0
M  V30 22753 H 2160.95 -0.442725 -3.00456 0
M  V30 22754 H 2158.53 -0.282593 -1.46703 0
M  V30 22755 H 2160.42 1.88853 -3.76713 0
M  V30 22756 H 2159.09 1.96337 -2.57359 0
M  V30 22757 H 2158 -0.0385256 -3.7408 0
M  V30 22758 H 2159.33 -0.0310005 -4.9219 0
M  V30 22759 N 2160.98 1.55502 -0.256304 0
M  V30 22760 C 2162.21 2.03275 0.369154 0
M  V30 22761 C 2162.62 1.13467 1.514 0
M  V30 22762 O 2161.96 0.143417 1.83139 0
M  V30 22763 C 2162.03 3.47265 0.929919 0
M  V30 22764 C 2161.69 4.56923 -0.0838763 0
M  V30 22765 C 2162.69 5.12108 -0.896764 0
M  V30 22766 C 2160.37 5.0185 -0.212684 0
M  V30 22767 C 2162.37 6.1072 -1.82483 0
M  V30 22768 C 2160.05 6.00292 -1.14424 0
M  V30 22769 C 2161.05 6.54606 -1.94883 0
M  V30 22770 O 2160.74 7.51127 -2.86467 0
M  V30 22771 H 2160.47 0.669882 0.0907454 0
M  V30 22772 H 2163.02 2.01844 -0.380561 0
M  V30 22773 H 2161.25 3.45875 1.72937 0
M  V30 22774 H 2162.94 3.78484 1.46645 0
M  V30 22775 H 2163.71 4.78224 -0.807887 0
M  V30 22776 H 2159.59 4.59231 0.403528 0
M  V30 22777 H 2163.13 6.5304 -2.45325 0
M  V30 22778 H 2159.03 6.33595 -1.23401 0
M  V30 22779 H 2159.8 7.68777 -2.80935 0
M  V30 22780 N 2162.46 -0.0166879 1.57591 0
M  V30 22781 C 2163.41 -1.03177 2.08464 0
M  V30 22782 C 2164.4 -1.36659 1.00103 0
M  V30 22783 O 2165.61 -1.35419 1.18582 0
M  V30 22784 H 2161.98 -0.350315 0.66542 0
M  V30 22785 H 2163.95 -0.576996 2.92768 0
M  V30 22786 C 2162.7 -2.32023 2.58961 0
M  V30 22787 H 2162.03 -2.07123 3.41965 0
M  V30 22788 H 2163.47 -3.01365 2.98253 0
M  V30 22789 C 2161.93 -3.01849 1.49629 0
M  V30 22790 O 2162.46 -3.92175 0.8696 0
M  V30 22791 N 2160.66 -2.63388 1.2278 0
M  V30 22792 H 2160.21 -1.9002 1.73926 0
M  V30 22793 H 2160.17 -3.10424 0.498436 0
M  V30 22794 N 2163.94 -1.54924 -0.289176 0
M  V30 22795 C 2164.9 -1.85935 -1.34017 0
M  V30 22796 C 2165.9 -0.732916 -1.43126 0
M  V30 22797 O 2167.09 -1.00116 -1.42556 0
M  V30 22798 C 2164.22 -2.0502 -2.72359 0
M  V30 22799 H 2165.42 -2.79872 -1.07758 0
M  V30 22800 H 2162.97 -1.47168 -0.526442 0
M  V30 22801 H 2163.7 -1.13412 -3.03823 0
M  V30 22802 H 2163.49 -2.8702 -2.67136 0
M  V30 22803 H 2164.98 -2.30342 -3.48328 0
M  V30 22804 N 2165.42 0.552936 -1.47582 0
M  V30 22805 C 2166.83 1.13504 -1.48235 0
M  V30 22806 C 2167.18 1.94734 -0.239394 0
M  V30 22807 O 2166.3 2.06238 0.655364 0
M  V30 22808 C 2166.9 2.06511 -2.68586 0
M  V30 22809 C 2165.46 2.59985 -2.72185 0
M  V30 22810 C 2164.6 1.36454 -2.41404 0
M  V30 22811 H 2167.56 0.339321 -1.5503 0
M  V30 22812 H 2167.58 2.90453 -2.45799 0
M  V30 22813 H 2167.09 1.47363 -3.59034 0
M  V30 22814 H 2165.19 3.22919 -1.85887 0
M  V30 22815 H 2165.3 3.00687 -3.72994 0
M  V30 22816 H 2163.67 1.6727 -1.92076 0
M  V30 22817 H 2164.45 0.790922 -3.34065 0
M  V30 22818 N 2166.89 1.35785 0.800009 0
M  V30 22819 C 2168.13 1.30797 1.57072 0
M  V30 22820 C 2168.5 -0.11441 1.91659 0
M  V30 22821 O 2169.7 -0.288734 2.67245 0
M  V30 22822 C 2167.97 2.19516 2.82041 0
M  V30 22823 S 2169.53 2.32108 3.72386 0
M  V30 22824 H 2166.35 0.464734 0.538092 0
M  V30 22825 H 2168.95 1.71246 0.943139 0
M  V30 22826 H 2167.65 3.21828 2.54666 0
M  V30 22827 H 2167.18 1.80049 3.4978 0
M  V30 22828 H 2169.2 1.51075 4.72642 0
M  V30 22829 N 2168.37 -1.02294 1.19891 0
M  V30 22830 C 2169.6 -1.79941 1.03131 0
M  V30 22831 C 2170.02 -1.8346 -0.415201 0
M  V30 22832 O 2169.38 -1.26499 -1.29876 0
M  V30 22833 C 2169.43 -3.22565 1.61196 0
M  V30 22834 O 2168.53 -4.03644 0.845295 0
M  V30 22835 H 2167.87 -0.555254 0.364128 0
M  V30 22836 H 2170.4 -1.28709 1.59045 0
M  V30 22837 H 2170.41 -3.73296 1.64663 0
M  V30 22838 H 2169.09 -3.19318 2.66474 0
M  V30 22839 H 2167.67 -3.62262 0.884338 0
M  V30 22840 N 2169.85 -1.00378 -1.21499 0
M  V30 22841 C 2170.8 -0.563153 -2.23824 0
M  V30 22842 C 2171.77 0.410151 -1.60956 0
M  V30 22843 O 2172.95 0.312473 -1.88224 0
M  V30 22844 C 2170.09 0.105277 -3.44939 0
M  V30 22845 C 2169.21 -0.91106 -4.22284 0
M  V30 22846 C 2168.34 -0.215019 -5.30765 0
M  V30 22847 C 2167.38 -1.21899 -5.99839 0
M  V30 22848 N 2166.52 -0.550506 -6.99938 0
M  V30 22849 H 2171.36 -1.44041 -2.60876 0
M  V30 22850 H 2168.89 -0.721302 -1.28202 0
M  V30 22851 H 2170.85 0.509838 -4.14073 0
M  V30 22852 H 2169.48 0.946261 -3.08619 0
M  V30 22853 H 2168.53 -1.43387 -3.52341 0
M  V30 22854 H 2169.85 -1.67513 -4.69831 0
M  V30 22855 H 2169 0.245713 -6.06202 0
M  V30 22856 H 2167.74 0.581469 -4.84221 0
M  V30 22857 H 2166.74 -1.69024 -5.23174 0
M  V30 22858 H 2167.97 -2.01654 -6.48469 0
M  V30 22859 H 2165.91 0.226347 -6.55609 0
M  V30 22860 H 2165.83 -1.25285 -7.45547 0
M  V30 22861 H 2167.1 -0.112938 -7.79418 0
M  V30 22862 N 2171.33 1.37038 -0.778354 0
M  V30 22863 C 2172.61 1.93726 -0.270129 0
M  V30 22864 C 2172.99 1.71138 1.23592 0
M  V30 22865 O 2172.33 1.06396 2.02218 0
M  V30 22866 C 2172.54 3.4288 -0.650703 0
M  V30 22867 C 2173.89 4.19987 -0.624207 0
M  V30 22868 O 2174.92 3.51271 -0.590496 0
M  V30 22869 O 2173.77 5.42534 -0.657186 0
M  V30 22870 H 2170.87 0.824515 -0.0640657 0
M  V30 22871 H 2173.41 1.46286 -0.860152 0
M  V30 22872 H 2172.19 3.52931 -1.68984 0
M  V30 22873 H 2171.81 3.97585 -0.0339758 0
M  V30 22874 N 2172.81 0.529439 1.48441 0
M  V30 22875 C 2173.74 -0.222417 2.32438 0
M  V30 22876 C 2174.72 -0.935598 1.42058 0
M  V30 22877 O 2175.9 -0.921483 1.70945 0
M  V30 22878 C 2173.03 -1.27012 3.23242 0
M  V30 22879 C 2171.99 -0.675114 4.22642 0
M  V30 22880 C 2171.31 -1.82543 5.02576 0
M  V30 22881 C 2172.61 0.352815 5.21107 0
M  V30 22882 H 2174.31 0.478777 2.95547 0
M  V30 22883 H 2171.85 0.231695 1.42124 0
M  V30 22884 H 2173.81 -1.80405 3.80831 0
M  V30 22885 H 2172.53 -2.00089 2.58132 0
M  V30 22886 H 2171.19 -0.162711 3.66239 0
M  V30 22887 H 2170.84 -2.54456 4.33891 0
M  V30 22888 H 2170.54 -1.43323 5.69853 0
M  V30 22889 H 2172.06 -2.36315 5.63017 0
M  V30 22890 H 2173.48 -0.0940075 5.73223 0
M  V30 22891 H 2171.87 0.662368 5.96433 0
M  V30 22892 H 2172.94 1.25877 4.68277 0
M  V30 22893 N 2174.29 -1.55364 0.264547 0
M  V30 22894 C 2175.53 -1.98966 -0.354543 0
M  V30 22895 C 2175.85 -1.15427 -1.57168 0
M  V30 22896 O 2175.12 -0.241233 -1.94409 0
M  V30 22897 H 2173.7 -0.734885 -0.133986 0
M  V30 22898 H 2176.37 -1.91405 0.367431 0
M  V30 22899 H 2175.46 -3.05221 -0.651647 0
M  V30 22900 N 2175.76 0.00833021 -1.57598 0
M  V30 22901 C 2176.71 1.0207 -2.09008 0
M  V30 22902 C 2177.71 1.36126 -1.00826 0
M  V30 22903 O 2178.91 1.34788 -1.19298 0
M  V30 22904 H 2175.29 0.346781 -0.667268 0
M  V30 22905 H 2177.26 0.561462 -2.9307 0
M  V30 22906 C 2176.01 2.30647 -2.60187 0
M  V30 22907 H 2175.33 2.05307 -3.43059 0
M  V30 22908 H 2176.77 2.9978 -2.99847 0
M  V30 22909 C 2175.23 3.01051 -1.51227 0
M  V30 22910 O 2175.76 3.91708 -0.890385 0
M  V30 22911 N 2173.96 2.62734 -1.24175 0
M  V30 22912 H 2173.51 1.89095 -1.74931 0
M  V30 22913 H 2173.47 3.10155 -0.514892 0
M  V30 22914 N 2177.24 1.55075 0.280956 0
M  V30 22915 C 2178.2 1.86644 1.33029 0
M  V30 22916 C 2179.2 0.740496 1.42735 0
M  V30 22917 O 2180.39 1.00871 1.42023 0
M  V30 22918 C 2177.53 2.06462 2.71268 0
M  V30 22919 H 2178.72 2.80439 1.06273 0
M  V30 22920 H 2176.27 1.47445 0.51863 0
M  V30 22921 H 2177.01 1.15021 3.03217 0
M  V30 22922 H 2176.79 2.88433 2.65611 0
M  V30 22923 H 2178.28 2.32186 3.47101 0
M  V30 22924 O 2178.76 -0.426774 1.55759 0
M  V30 22925 H 2179.45 -1.07998 1.60799 0
M  V30 END ATOM
M  V30 BEGIN BOND
M  V30 END BOND
M  V30 END CTAB
M  END
$$$$
