drugbank_target|P29957 Alpha-amylase (DB02379; DB04164)
 OpenBabel12092119573D

  0  0  0     0  0            999 V3000
M  V30 BEGIN CTAB
M  V30 COUNTS 9965 10096 0 0 0
M  V30 BEGIN ATOM
M  V30 1 H -0.908 1.98254 -0.117106 0
M  V30 2 N 0 1.576 0 0
M  V30 3 C 0.933 2.03868 1.02534 0
M  V30 4 C 1.911 0.928543 1.3348 0
M  V30 5 O 3.095 1.19667 1.45644 0
M  V30 6 C 0.222 2.43627 2.35294 0
M  V30 7 C -0.732 3.65373 2.2001 0
M  V30 8 S 0.101 5.13292 1.52614 0
M  V30 9 C 1.257 5.56322 2.86805 0
M  V30 10 H 1.49 2.90518 0.631377 0
M  V30 11 H -0.977 1.52953 0.210867 0
M  V30 12 H 0.981 2.67203 3.11629 0
M  V30 13 H -0.358 1.57376 2.7183 0
M  V30 14 H -1.165 3.90944 3.18086 0
M  V30 15 H -1.563 3.418 1.51819 0
M  V30 16 H 0.729 5.58782 3.83104 0
M  V30 17 H 1.672 6.56266 2.65933 0
M  V30 18 H 2.08 4.83886 2.90714 0
M  V30 19 N 1.4781 -0.272755 1.55222 0
M  V30 20 C 2.4251 -1.33716 1.88119 0
M  V30 21 C 3.3951 -1.49066 0.73271 0
M  V30 22 O 4.5801 -1.63469 0.984002 0
M  V30 23 C 1.7201 -2.69238 2.15882 0
M  V30 24 C 0.8331 -2.62108 3.43399 0
M  V30 25 C -0.0319 -3.89811 3.60861 0
M  V30 26 C -0.9929 -3.77193 4.8207 0
M  V30 27 N -1.8559 -4.9673 4.96189 0
M  V30 28 H 2.9841 -1.04962 2.78903 0
M  V30 29 H 0.5211 -0.507088 1.38083 0
M  V30 30 H 2.4791 -3.48089 2.29978 0
M  V30 31 H 1.1091 -2.96194 1.28331 0
M  V30 32 H 0.1611 -1.74967 3.37773 0
M  V30 33 H 1.4731 -2.48685 4.32386 0
M  V30 34 H 0.6271 -4.77103 3.74777 0
M  V30 35 H -0.6339 -4.06102 2.7006 0
M  V30 36 H -1.6289 -2.88284 4.68159 0
M  V30 37 H -0.4039 -3.62421 5.74307 0
M  V30 38 H -2.4579 -5.13431 4.08319 0
M  V30 39 H -2.5409 -4.85839 5.79221 0
M  V30 40 H -1.2729 -5.85594 5.1449 0
M  V30 41 N 2.9562 -1.48159 -0.537278 0
M  V30 42 C 3.8862 -1.65029 -1.6519 0
M  V30 43 C 4.8672 -0.499281 -1.62607 0
M  V30 44 O 6.0522 -0.730972 -1.79918 0
M  V30 45 C 3.1822 -1.68303 -3.03795 0
M  V30 46 C 2.1362 -2.8283 -3.21234 0
M  V30 47 C 1.4622 -2.71189 -4.60826 0
M  V30 48 C 2.7622 -4.24211 -3.04701 0
M  V30 49 H 4.4562 -2.58341 -1.51328 0
M  V30 50 H 2.0022 -1.24325 -0.726585 0
M  V30 51 H 3.9552 -1.78693 -3.81637 0
M  V30 52 H 2.6792 -0.715635 -3.18663 0
M  V30 53 H 1.3382 -2.71983 -2.45807 0
M  V30 54 H 0.9862 -1.72435 -4.7252 0
M  V30 55 H 0.6862 -3.48035 -4.7344 0
M  V30 56 H 2.2102 -2.83537 -5.40777 0
M  V30 57 H 3.6242 -4.3593 -3.72341 0
M  V30 58 H 2.0212 -5.01998 -3.28813 0
M  V30 59 H 3.0912 -4.41184 -2.01209 0
M  V30 60 N 4.4343 0.785586 -1.36625 0
M  V30 61 C 5.3823 1.91978 -1.31329 0
M  V30 62 C 6.3763 1.68162 -0.204416 0
M  V30 63 O 7.5823 1.76122 -0.371645 0
M  V30 64 H 3.9573 0.631087 -0.408942 0
M  V30 65 H 5.9283 1.93562 -2.27104 0
M  V30 66 C 4.6773 3.29055 -1.12329 0
M  V30 67 H 4.0003 3.4795 -1.96903 0
M  V30 68 H 5.4403 4.08756 -1.12671 0
M  V30 69 C 3.8993 3.36461 0.171861 0
M  V30 70 O 4.4293 3.84576 1.16035 0
M  V30 71 N 2.6353 2.89782 0.217846 0
M  V30 72 H 2.1823 2.50819 -0.587183 0
M  V30 73 H 2.1403 2.95119 1.08408 0
M  V30 74 N 5.9124 1.20967 1.01018 0
M  V30 75 C 6.8594 0.964281 2.09691 0
M  V30 76 C 7.8294 -0.107853 1.65749 0
M  V30 77 O 9.0144 0.0381987 1.90762 0
M  V30 78 C 6.1544 0.52943 3.41015 0
M  V30 79 C 5.2674 1.67043 3.98398 0
M  V30 80 C 4.4024 1.18525 5.17808 0
M  V30 81 C 3.4414 2.29892 5.67288 0
M  V30 82 N 2.5784 1.82546 6.77954 0
M  V30 83 H 7.4184 1.89463 2.30017 0
M  V30 84 H 4.9554 0.944289 1.1279 0
M  V30 85 H 6.9134 0.258588 4.16398 0
M  V30 86 H 5.5434 -0.363919 3.20742 0
M  V30 87 H 4.5954 2.05603 3.20049 0
M  V30 88 H 5.9074 2.50877 4.31117 0
M  V30 89 H 5.0614 0.870762 6.00419 0
M  V30 90 H 3.8004 0.316887 4.86669 0
M  V30 91 H 2.8054 2.6215 4.83278 0
M  V30 92 H 4.0304 3.17216 6.00459 0
M  V30 93 H 1.9764 0.980454 6.48632 0
M  V30 94 H 1.8934 2.59956 7.09901 0
M  V30 95 H 3.1614 1.54115 7.64113 0
M  V30 96 N 7.3905 -1.2043 1.01659 0
M  V30 97 C 8.6395 -1.89118 0.701237 0
M  V30 98 C 8.9525 -1.79705 -0.772358 0
M  V30 99 O 10.1585 -2.43528 -1.20026 0
M  V30 100 C 8.6145 -3.39168 1.20388 0
M  V30 101 C 8.2225 -3.57166 2.70438 0
M  V30 102 C 9.9665 -4.1341 0.963953 0
M  V30 103 C 7.8735 -5.01042 3.14183 0
M  V30 104 H 6.8035 -0.708267 0.2586 0
M  V30 105 H 9.4545 -1.36239 1.22927 0
M  V30 106 H 7.8365 -3.91369 0.603824 0
M  V30 107 H 9.0105 -3.15351 3.35992 0
M  V30 108 H 7.3255 -2.96294 2.92572 0
M  V30 109 H 9.9225 -5.19491 1.26621 0
M  V30 110 H 10.2655 -4.16181 -0.099578 0
M  V30 111 H 10.7985 -3.67309 1.52738 0
M  V30 112 H 7.5375 -5.03426 4.19812 0
M  V30 113 H 7.0575 -5.43668 2.53348 0
M  V30 114 H 8.7365 -5.69623 3.0682 0
M  V30 115 N 8.8686 -0.792821 -1.36206 0
M  V30 116 C 10.1176 -0.363353 -1.984 0
M  V30 117 C 10.4306 1.07172 -1.63626 0
M  V30 118 O 11.6366 1.60362 -2.19081 0
M  V30 119 C 10.0926 -0.59872 -3.54885 0
M  V30 120 C 9.7006 -2.04543 -3.9858 0
M  V30 121 C 11.4446 -0.233926 -4.23855 0
M  V30 122 C 9.3516 -2.22727 -5.47856 0
M  V30 123 H 8.2816 -0.13212 -0.742334 0
M  V30 124 H 10.9326 -0.974935 -1.55458 0
M  V30 125 H 9.3146 0.0826222 -3.95914 0
M  V30 126 H 10.4886 -2.76345 -3.68741 0
M  V30 127 H 8.8036 -2.36879 -3.42458 0
M  V30 128 H 11.4006 -0.348027 -5.33566 0
M  V30 129 H 11.7436 0.818351 -4.08177 0
M  V30 130 H 12.2766 -0.868639 -3.882 0
M  V30 131 H 9.0156 -3.2635 -5.68486 0
M  V30 132 H 8.5356 -1.55434 -5.7931 0
M  V30 133 H 10.2146 -2.03607 -6.14128 0
M  V30 134 N 10.3467 1.47872 -0.545128 0
M  V30 135 C 11.5747 2.06889 -0.021084 0
M  V30 136 C 11.9897 1.39955 1.2672 0
M  V30 137 O 11.3467 0.492036 1.75742 0
M  V30 138 C 11.3977 3.60996 0.190817 0
M  V30 139 O 11.1187 4.25419 -1.04644 0
M  V30 140 C 12.6197 4.36849 0.753521 0
M  V30 141 H 9.8397 0.669785 -0.0403635 0
M  V30 142 H 12.3837 1.90049 -0.755095 0
M  V30 143 H 10.5387 3.77391 0.87492 0
M  V30 144 H 10.9527 5.17785 -0.836611 0
M  V30 145 H 12.4267 5.45399 0.851139 0
M  V30 146 H 12.9037 4.02306 1.762 0
M  V30 147 H 13.5097 4.25169 0.105503 0
M  V30 148 N 11.8248 0.280983 1.55075 0
M  V30 149 C 13.0528 -0.337293 2.04132 0
M  V30 150 C 13.4678 -1.4903 1.15912 0
M  V30 151 O 12.8248 -1.81606 0.180459 0
M  V30 152 C 12.8758 -0.812706 3.52246 0
M  V30 153 O 12.5968 0.294387 4.3711 0
M  V30 154 C 14.0978 -1.4982 4.17216 0
M  V30 155 H 11.3178 -0.0761638 0.666663 0
M  V30 156 H 13.8618 0.414787 2.00249 0
M  V30 157 H 12.0168 -1.51486 3.56554 0
M  V30 158 H 12.4308 -0.0721325 5.2445 0
M  V30 159 H 13.9048 -1.7822 5.22438 0
M  V30 160 H 14.3818 -2.43168 3.65741 0
M  V30 161 H 14.9878 -0.839742 4.16927 0
M  V30 162 N 13.3029 -1.57598 0.00835791 0
M  V30 163 C 14.2659 -2.07884 -0.965242 0
M  V30 164 C 15.2659 -0.989825 -1.26725 0
M  V30 165 O 16.4559 -1.25218 -1.21104 0
M  V30 166 C 13.5879 -2.52731 -2.28779 0
M  V30 167 H 14.7809 -2.95178 -0.530112 0
M  V30 168 H 12.3339 -1.54458 -0.239283 0
M  V30 169 H 13.0689 -1.68705 -2.76964 0
M  V30 170 H 12.8539 -3.32272 -2.08177 0
M  V30 171 H 14.3439 -2.91933 -2.98605 0
M  V30 172 N 14.781 0.264519 -1.55364 0
M  V30 173 C 16.029 0.993021 -1.76021 0
M  V30 174 C 16.35 1.86511 -0.569099 0
M  V30 175 O 15.62 1.91438 0.415735 0
M  V30 176 H 14.2 0.369639 -0.649135 0
M  V30 177 H 16.862 0.286707 -1.9278 0
M  V30 178 H 15.958 1.62502 -2.66457 0
M  V30 179 N 16.2591 1.48442 0.529413 0
M  V30 180 C 17.1891 1.65902 1.64313 0
M  V30 181 C 18.1701 0.507897 1.6234 0
M  V30 182 O 19.3551 0.740503 1.79528 0
M  V30 183 C 16.4851 1.69911 3.02898 0
M  V30 184 C 15.4391 2.8453 3.19729 0
M  V30 185 C 14.7651 2.73629 4.59381 0
M  V30 186 C 16.0651 4.25821 3.02447 0
M  V30 187 H 17.7591 2.5914 1.49955 0
M  V30 188 H 15.3051 1.24709 0.719982 0
M  V30 189 H 17.2581 1.80715 3.80684 0
M  V30 190 H 15.9821 0.732524 3.18279 0
M  V30 191 H 14.6411 2.73283 2.44361 0
M  V30 192 H 14.2891 1.74938 4.71599 0
M  V30 193 H 13.9891 3.50541 4.71588 0
M  V30 194 H 15.5131 2.86401 5.39265 0
M  V30 195 H 16.9271 4.37898 3.70024 0
M  V30 196 H 15.3241 5.03735 3.26146 0
M  V30 197 H 16.3941 4.42244 1.98867 0
M  V30 198 N 17.7372 -0.778329 1.37039 0
M  V30 199 C 18.9622 -1.57248 1.35233 0
M  V30 200 C 19.3872 -1.87999 -0.0615568 0
M  V30 201 O 18.7452 -1.48734 -1.03672 0
M  V30 202 C 18.7932 -2.86353 2.19167 0
M  V30 203 O 17.8972 -3.80442 1.59178 0
M  V30 204 H 17.2382 -0.476569 0.462362 0
M  V30 205 H 19.7682 -0.963853 1.80474 0
M  V30 206 H 19.7782 -3.35519 2.32145 0
M  V30 207 H 18.4532 -2.63299 3.21942 0
M  V30 208 H 17.0302 -3.39067 1.55203 0
M  V30 209 N 19.2153 -1.21501 -1.00376 0
M  V30 210 C 20.1453 -0.999478 -2.11028 0
M  V30 211 C 21.1263 0.0759671 -1.6993 0
M  V30 212 O 22.3113 -0.0841106 -1.94018 0
M  V30 213 C 19.4413 -0.564709 -3.42678 0
M  V30 214 C 18.3953 -1.58486 -3.97576 0
M  V30 215 C 17.7213 -1.00628 -5.25146 0
M  V30 216 C 19.0213 -2.97204 -4.29496 0
M  V30 217 H 20.7153 -1.92495 -2.29317 0
M  V30 218 H 18.2613 -0.92693 -1.102 0
M  V30 219 H 20.2143 -0.401091 -4.19487 0
M  V30 220 H 18.9383 0.396411 -3.24185 0
M  V30 221 H 17.5973 -1.73606 -3.22888 0
M  V30 222 H 17.2453 -0.0368439 -5.02987 0
M  V30 223 H 16.9453 -1.68771 -5.62841 0
M  V30 224 H 18.4693 -0.854015 -6.04598 0
M  V30 225 H 19.8833 -2.8552 -4.97143 0
M  V30 226 H 18.2803 -3.62372 -4.78338 0
M  V30 227 H 19.3503 -3.47956 -3.3772 0
M  V30 228 N 20.6934 1.19889 -1.02296 0
M  V30 229 C 21.9414 1.89046 -0.714558 0
M  V30 230 C 22.2624 1.79636 0.758681 0
M  V30 231 O 21.5324 1.20292 1.54618 0
M  V30 232 H 20.1124 0.699802 -0.261317 0
M  V30 233 H 22.7744 1.45574 -1.29592 0
M  V30 234 H 21.8704 2.95524 -1.0036 0
M  V30 235 N 22.1715 0.800033 1.35784 0
M  V30 236 C 23.1015 0.220184 2.3246 0
M  V30 237 C 24.0825 -0.65073 1.57161 0
M  V30 238 O 25.2675 -0.582359 1.85263 0
M  V30 239 C 22.3975 -0.637353 3.41402 0
M  V30 240 C 21.3515 0.134531 4.27789 0
M  V30 241 C 20.6775 -0.844285 5.27992 0
M  V30 242 C 21.9775 1.32979 5.05088 0
M  V30 243 H 23.6715 1.02787 2.81203 0
M  V30 244 H 21.2175 0.495717 1.35199 0
M  V30 245 H 23.1705 -1.05302 4.08031 0
M  V30 246 H 21.8945 -1.47785 2.91251 0
M  V30 247 H 20.5535 0.531296 3.6273 0
M  V30 248 H 20.2015 -1.68011 4.74111 0
M  V30 249 H 19.9015 -0.332184 5.8666 0
M  V30 250 H 21.4255 -1.2583 5.97494 0
M  V30 251 H 22.8395 0.98934 5.64699 0
M  V30 252 H 21.2365 1.77593 5.7322 0
M  V30 253 H 22.3065 2.11978 4.36111 0
M  V30 254 N 23.6496 -1.47581 0.552962 0
M  V30 255 C 24.5796 -2.32762 -0.185451 0
M  V30 256 C 25.5606 -1.43527 -0.912905 0
M  V30 257 O 26.7456 -1.72388 -0.894201 0
M  V30 258 C 23.8756 -3.25219 -1.21859 0
M  V30 259 C 22.8296 -4.23661 -0.607864 0
M  V30 260 C 22.1556 -5.05413 -1.74533 0
M  V30 261 C 23.4556 -5.20481 0.435582 0
M  V30 262 H 25.1496 -2.94749 0.525684 0
M  V30 263 H 22.6956 -1.41738 0.254251 0
M  V30 264 H 24.6486 -3.8365 -1.7433 0
M  V30 265 H 23.3726 -2.61279 -1.95961 0
M  V30 266 H 22.0316 -3.66451 -0.104489 0
M  V30 267 H 21.6796 -4.3788 -2.47529 0
M  V30 268 H 21.3796 -5.72059 -1.34249 0
M  V30 269 H 22.9036 -5.66701 -2.27338 0
M  V30 270 H 24.3176 -5.733 -0.00290157 0
M  V30 271 H 22.7146 -5.95305 0.757067 0
M  V30 272 H 23.7846 -4.66217 1.33303 0
M  V30 273 N 25.1277 -0.289203 -1.54924 0
M  V30 274 C 26.0577 0.58549 -2.2604 0
M  V30 275 C 27.0387 1.14753 -1.25562 0
M  V30 276 O 28.2237 1.17906 -1.54311 0
M  V30 277 C 25.3537 1.76305 -2.99222 0
M  V30 278 C 24.3077 1.33191 -4.06748 0
M  V30 279 C 23.6337 2.5937 -4.6758 0
M  V30 280 C 24.9337 0.471775 -5.20165 0
M  V30 281 H 26.6277 -0.00763532 -2.99399 0
M  V30 282 H 24.1737 -0.00511229 -1.43999 0
M  V30 283 H 26.1267 2.38097 -3.47689 0
M  V30 284 H 24.8507 2.38223 -2.23422 0
M  V30 285 H 23.5097 0.737121 -3.59113 0
M  V30 286 H 23.1577 3.19576 -3.88433 0
M  V30 287 H 22.8577 2.31228 -5.40192 0
M  V30 288 H 24.3817 3.21985 -5.18804 0
M  V30 289 H 25.7957 0.995056 -5.64599 0
M  V30 290 H 24.1927 0.284639 -5.99425 0
M  V30 291 H 25.2627 -0.506041 -4.82252 0
M  V30 292 N 26.6058 1.57591 -0.0167156 0
M  V30 293 C 28.0168 1.79201 0.523834 0
M  V30 294 C 28.3678 0.925796 1.72984 0
M  V30 295 O 27.4928 0.132792 2.15992 0
M  V30 296 C 28.0878 3.25 0.957091 0
M  V30 297 C 26.6468 3.47648 1.44283 0
M  V30 298 C 25.7938 2.74374 0.401757 0
M  V30 299 H 28.7448 1.56831 -0.242816 0
M  V30 300 H 28.7658 3.34031 1.82219 0
M  V30 301 H 28.2778 3.88019 0.0791415 0
M  V30 302 H 26.3788 2.89866 2.34113 0
M  V30 303 H 26.4918 4.56352 1.45877 0
M  V30 304 H 24.8558 2.39485 0.867121 0
M  V30 305 H 25.6388 3.40102 -0.467513 0
M  V30 306 N 28.0839 -0.256276 1.55502 0
M  V30 307 C 29.3089 -1.00766 1.81276 0
M  V30 308 C 29.7339 -1.78524 0.59252 0
M  V30 309 O 29.0919 -1.75413 -0.45827 0
M  V30 310 C 29.1399 -1.92869 3.04687 0
M  V30 311 O 28.2439 -3.019 2.80945 0
M  V30 312 H 27.5849 -0.287224 0.598664 0
M  V30 313 H 30.1149 -0.280109 2.02674 0
M  V30 314 H 30.1249 -2.34511 3.33869 0
M  V30 315 H 28.7999 -1.35689 3.93143 0
M  V30 316 H 27.3769 -2.64454 2.62904 0
M  V30 317 N 29.562 -1.4872 -0.521534 0
M  V30 318 C 30.811 -1.56419 -1.27341 0
M  V30 319 C 31.124 -0.246805 -1.94037 0
M  V30 320 O 32.33 -0.202122 -2.70747 0
M  V30 321 C 30.786 -2.75896 -2.31105 0
M  V30 322 C 30.394 -4.14311 -1.70441 0
M  V30 323 C 32.138 -2.92913 -3.07249 0
M  V30 324 C 30.045 -5.25038 -2.72194 0
M  V30 325 H 28.975 -0.582344 -0.478949 0
M  V30 326 H 31.626 -1.75071 -0.549779 0
M  V30 327 H 30.008 -2.50697 -3.06541 0
M  V30 328 H 31.182 -4.49564 -1.01136 0
M  V30 329 H 29.497 -4.02482 -1.06759 0
M  V30 330 H 32.094 -3.72805 -3.83302 0
M  V30 331 H 32.437 -2.02689 -3.63625 0
M  V30 332 H 32.97 -3.18054 -2.38928 0
M  V30 333 H 29.709 -6.17255 -2.20627 0
M  V30 334 H 29.229 -4.94263 -3.39801 0
M  V30 335 H 30.908 -5.53508 -3.35019 0
M  V30 336 N 31.0401 0.771051 -1.3745 0
M  V30 337 C 32.0031 1.86598 -1.33093 0
M  V30 338 C 33.0031 1.59076 -0.234845 0
M  V30 339 O 34.1931 1.67145 -0.490732 0
M  V30 340 C 31.3251 3.23747 -1.06773 0
M  V30 341 H 32.5181 1.91873 -2.30488 0
M  V30 342 H 30.0711 0.970876 -1.2249 0
M  V30 343 H 30.8061 3.24148 -0.099129 0
M  V30 344 H 30.5911 3.45115 -1.86112 0
M  V30 345 H 32.0811 4.03824 -1.06377 0
M  V30 346 N 32.5182 1.22032 0.997298 0
M  V30 347 C 33.7462 1.06841 1.7718 0
M  V30 348 C 34.1612 -0.381325 1.84909 0
M  V30 349 O 33.5182 -1.26437 1.31605 0
M  V30 350 C 33.5692 1.66814 3.20711 0
M  V30 351 O 33.2902 3.06116 3.13408 0
M  V30 352 C 34.7912 1.56838 4.14628 0
M  V30 353 H 32.0112 0.374782 0.556578 0
M  V30 354 H 34.5552 1.61532 1.2541 0
M  V30 355 H 32.7102 1.16196 3.69564 0
M  V30 356 H 33.1242 3.34926 4.0364 0
M  V30 357 H 34.5982 2.03532 5.13107 0
M  V30 358 H 35.0752 0.524155 4.36061 0
M  V30 359 H 35.6812 2.06741 3.7167 0
M  V30 360 N 33.9963 -1.19345 1.0293 0
M  V30 361 C 34.9593 -2.20793 0.615069 0
M  V30 362 C 35.9593 -1.57553 -0.321533 0
M  V30 363 O 37.1493 -1.73862 -0.108483 0
M  V30 364 C 34.2813 -3.40754 -0.0999222 0
M  V30 365 H 35.4743 -2.58955 1.51269 0
M  V30 366 H 33.0273 -1.3303 0.820534 0
M  V30 367 H 33.7623 -3.0811 -1.01187 0
M  V30 368 H 33.5473 -3.87889 0.57309 0
M  V30 369 H 35.0373 -4.15898 -0.376645 0
M  V30 370 N 35.4744 -0.807222 -1.35358 0
M  V30 371 C 36.7024 -0.400377 -2.02989 0
M  V30 372 C 37.1174 0.988859 -1.60832 0
M  V30 373 O 36.4744 1.63729 -0.806175 0
M  V30 374 C 36.5254 -0.474867 -3.58368 0
M  V30 375 O 36.2464 -1.80933 -3.98992 0
M  V30 376 C 37.7474 -0.0609112 -4.43258 0
M  V30 377 H 34.9674 -0.162587 -0.651004 0
M  V30 378 H 37.5114 -1.09102 -1.72965 0
M  V30 379 H 35.6664 0.167534 -3.87038 0
M  V30 380 H 36.0804 -1.77256 -4.9364 0
M  V30 381 H 37.5544 -0.164145 -5.51756 0
M  V30 382 H 38.0314 0.993831 -4.27808 0
M  V30 383 H 38.6374 -0.676492 -4.19885 0
M  V30 384 N 36.9525 1.47285 -0.560781 0
M  V30 385 C 38.3635 1.86258 -0.128343 0
M  V30 386 C 38.7145 1.46699 1.30284 0
M  V30 387 O 37.8395 0.871698 1.98067 0
M  V30 388 C 38.4345 3.38044 -0.22614 0
M  V30 389 C 36.9935 3.76096 0.151283 0
M  V30 390 C 36.1405 2.71335 -0.572084 0
M  V30 391 H 39.0915 1.38752 -0.770297 0
M  V30 392 H 39.1125 3.76441 0.554322 0
M  V30 393 H 38.6245 3.66806 -1.26788 0
M  V30 394 H 36.7255 3.52951 1.19399 0
M  V30 395 H 36.8385 4.78641 -0.209765 0
M  V30 396 H 35.2025 2.54696 -0.0147653 0
M  V30 397 H 35.9855 3.02938 -1.61504 0
M  V30 398 N 38.4306 0.297415 1.54768 0
M  V30 399 C 39.6586 -0.315623 2.04478 0
M  V30 400 C 40.0736 -1.47792 1.17486 0
M  V30 401 O 39.4306 -1.81404 0.19971 0
M  V30 402 C 39.4816 -0.7753 3.53088 0
M  V30 403 O 39.2026 0.340732 4.36773 0
M  V30 404 C 40.7036 -1.45386 4.18781 0
M  V30 405 H 37.9236 -0.0690887 0.667434 0
M  V30 406 H 40.4676 0.436003 1.99798 0
M  V30 407 H 38.6226 -1.47696 3.58141 0
M  V30 408 H 39.0366 -0.0165035 5.24497 0
M  V30 409 H 40.5106 -1.72669 5.24299 0
M  V30 410 H 40.9876 -2.39275 3.68299 0
M  V30 411 H 41.5936 -0.795475 4.17795 0
M  V30 412 N 39.9087 -1.5758 0.0250728 0
M  V30 413 C 41.1367 -1.9593 -0.664747 0
M  V30 414 C 41.5517 -0.901352 -1.65895 0
M  V30 415 O 40.9087 0.117255 -1.82123 0
M  V30 416 C 40.9597 -3.34342 -1.37468 0
M  V30 417 O 40.6807 -4.36079 -0.420324 0
M  V30 418 C 42.1817 -3.873 -2.1567 0
M  V30 419 H 39.4017 -0.645405 -0.183557 0
M  V30 420 H 41.9457 -2.04329 0.0836372 0
M  V30 421 H 40.1007 -3.27175 -2.0745 0
M  V30 422 H 40.5147 -5.16297 -0.923991 0
M  V30 423 H 41.9887 -4.86504 -2.60803 0
M  V30 424 H 42.4657 -3.21331 -2.99405 0
M  V30 425 H 43.0717 -3.97723 -1.50654 0
M  V30 426 N 41.3868 0.248026 -1.55636 0
M  V30 427 C 42.6338 0.976224 -1.77415 0
M  V30 428 C 42.9618 1.85361 -0.589193 0
M  V30 429 O 42.2168 1.90973 0.427529 0
M  V30 430 C 42.5158 1.86819 -3.04686 0
M  V30 431 C 42.1818 1.14625 -4.36087 0
M  V30 432 C 40.8438 0.946723 -4.71795 0
M  V30 433 C 43.1958 0.634463 -5.17324 0
M  V30 434 C 40.5238 0.223091 -5.86276 0
M  V30 435 C 42.8758 -0.0756959 -6.32555 0
M  V30 436 C 41.5398 -0.286711 -6.66884 0
M  V30 437 H 40.8098 0.357226 -0.649208 0
M  V30 438 H 43.4568 0.246415 -1.89908 0
M  V30 439 H 41.7618 2.66502 -2.872 0
M  V30 440 H 43.4588 2.43329 -3.18735 0
M  V30 441 H 40.0488 1.3117 -4.08035 0
M  V30 442 H 44.2328 0.77616 -4.90193 0
M  V30 443 H 39.4888 0.0491185 -6.1138 0
M  V30 444 H 43.6628 -0.479899 -6.94745 0
M  V30 445 H 41.2898 -0.849389 -7.5544 0
M  V30 446 N 42.8649 1.48995 0.513639 0
M  V30 447 C 44.1109 1.58076 1.27042 0
M  V30 448 C 44.4439 0.261026 1.92438 0
M  V30 449 O 43.7189 -0.734393 1.80103 0
M  V30 450 C 44.0019 2.73091 2.34719 0
M  V30 451 C 43.8549 4.14821 1.73907 0
M  V30 452 C 45.1739 2.83796 3.36375 0
M  V30 453 H 42.2929 0.575391 0.460536 0
M  V30 454 H 44.9349 1.81232 0.570516 0
M  V30 455 H 43.0849 2.53479 2.94416 0
M  V30 456 H 44.7569 4.45917 1.18135 0
M  V30 457 H 42.9999 4.21058 1.0437 0
M  V30 458 H 43.6709 4.91147 2.51949 0
M  V30 459 H 46.1469 3.01611 2.86653 0
M  V30 460 H 45.0229 3.65971 4.09093 0
M  V30 461 H 45.2839 1.92624 3.9793 0
M  V30 462 N 44.343 -0.763751 1.37857 0
M  V30 463 C 45.293 -1.86765 1.30777 0
M  V30 464 C 46.277 -1.59726 0.194015 0
M  V30 465 O 47.469 -1.7172 0.42911 0
M  V30 466 C 44.598 -3.24343 1.12502 0
M  V30 467 C 43.684 -3.57307 2.28456 0
M  V30 468 N 44.075 -3.61398 3.53871 0
M  V30 469 C 42.373 -3.87517 2.20786 0
M  V30 470 C 43.074 -3.91339 4.30382 0
M  V30 471 N 42.05 -4.07649 3.59615 0
M  V30 472 H 45.852 -1.88191 2.25746 0
M  V30 473 H 43.366 -0.9606 1.30944 0
M  V30 474 H 45.363 -4.03327 1.05514 0
M  V30 475 H 44.023 -3.24175 0.184574 0
M  V30 476 H 45.034 -3.43407 3.87675 0
M  V30 477 H 41.711 -3.95125 1.34844 0
M  V30 478 H 43.101 -4.01213 5.3896 0
M  V30 479 N 45.8211 -1.22559 -0.990812 0
M  V30 480 C 46.7511 -1.0218 -2.09956 0
M  V30 481 C 47.7321 0.0579394 -1.70001 0
M  V30 482 O 48.9171 -0.104684 -1.93918 0
M  V30 483 C 46.0471 -0.601023 -3.4206 0
M  V30 484 C 45.0011 -1.62694 -3.95872 0
M  V30 485 C 44.3271 -1.06193 -5.24049 0
M  V30 486 C 45.6271 -3.01743 -4.2632 0
M  V30 487 H 47.3211 -1.94916 -2.27262 0
M  V30 488 H 44.8671 -0.938566 -1.09211 0
M  V30 489 H 46.8201 -0.445561 -4.19038 0
M  V30 490 H 45.5441 0.362005 -3.24588 0
M  V30 491 H 44.2031 -1.77021 -3.21028 0
M  V30 492 H 43.8511 -0.0901903 -5.02919 0
M  V30 493 H 43.5511 -1.74732 -5.61019 0
M  V30 494 H 45.0751 -0.918092 -6.03658 0
M  V30 495 H 46.4891 -2.90777 -4.94087 0
M  V30 496 H 44.8861 -3.67425 -4.74467 0
M  V30 497 H 45.9561 -3.51518 -3.34011 0
M  V30 498 N 47.2992 1.18797 -1.03562 0
M  V30 499 C 48.5462 1.8865 -0.736023 0
M  V30 500 C 48.8742 1.80041 0.735889 0
M  V30 501 O 48.1292 1.19179 1.55225 0
M  V30 502 C 48.4282 3.38692 -1.14117 0
M  V30 503 C 48.0942 3.67504 -2.6125 0
M  V30 504 C 46.7562 3.75078 -3.01447 0
M  V30 505 C 49.1082 3.80293 -3.56408 0
M  V30 506 C 46.4362 3.92915 -4.35701 0
M  V30 507 C 48.7882 3.99645 -4.90374 0
M  V30 508 C 47.4522 4.05453 -5.30249 0
M  V30 509 H 46.7222 0.690321 -0.26933 0
M  V30 510 H 49.3692 1.40641 -1.29971 0
M  V30 511 H 47.6742 3.88645 -0.496202 0
M  V30 512 H 49.3712 3.91072 -0.886789 0
M  V30 513 H 45.9612 3.62223 -2.29113 0
M  V30 514 H 50.1452 3.73779 -3.26501 0
M  V30 515 H 45.4012 3.95653 -4.66121 0
M  V30 516 H 49.5752 4.08482 -5.64017 0
M  V30 517 H 47.2022 4.19027 -6.34288 0
M  V30 518 N 48.7773 0.814389 1.34928 0
M  V30 519 C 49.6873 0.231978 2.3345 0
M  V30 520 C 50.7033 -0.629139 1.62228 0
M  V30 521 O 51.8793 -0.539052 1.94052 0
M  V30 522 C 48.9443 -0.603482 3.41407 0
M  V30 523 C 48.0053 0.279037 4.28392 0
M  V30 524 C 47.2383 -0.516643 5.31193 0
M  V30 525 O 47.4613 -1.75068 5.4287 0
M  V30 526 O 46.3953 0.0965652 6.01823 0
M  V30 527 H 50.2213 1.04721 2.85074 0
M  V30 528 H 47.8063 0.576343 1.37836 0
M  V30 529 H 49.6883 -1.07908 4.0735 0
M  V30 530 H 48.3633 -1.39618 2.92042 0
M  V30 531 H 47.2703 0.801948 3.65403 0
M  V30 532 H 48.6033 1.03588 4.81176 0
M  V30 533 N 50.2554 -1.46986 0.568584 0
M  V30 534 C 51.5014 -2.0332 0.0571487 0
M  V30 535 C 51.8564 -1.43384 -1.28291 0
M  V30 536 O 51.1494 -0.584304 -1.82473 0
M  V30 537 C 51.3434 -3.57306 -0.081836 0
M  V30 538 C 51.1724 -4.32174 1.24321 0
M  V30 539 C 49.9424 -4.71633 1.81358 0
M  V30 540 C 52.1404 -4.66598 2.16312 0
M  V30 541 N 50.1224 -5.31191 3.07748 0
M  V30 542 C 51.4934 -5.26578 3.27285 0
M  V30 543 C 53.5484 -4.48527 2.16166 0
M  V30 544 C 52.2514 -5.70395 4.38226 0
M  V30 545 C 54.2774 -4.93351 3.26127 0
M  V30 546 C 53.6394 -5.5339 4.3582 0
M  V30 547 H 49.7384 -0.77943 0.063351 0
M  V30 548 H 52.3224 -1.79323 0.758378 0
M  V30 549 H 50.4934 -3.81046 -0.752207 0
M  V30 550 H 52.2254 -4.00282 -0.59637 0
M  V30 551 H 48.9804 -4.53946 1.35019 0
M  V30 552 H 49.4044 -5.65505 3.72201 0
M  V30 553 H 54.0464 -4.01456 1.32638 0
M  V30 554 H 51.7644 -6.16452 5.22506 0
M  V30 555 H 55.3504 -4.81131 3.27115 0
M  V30 556 H 54.2304 -5.87441 5.19503 0
M  V30 557 N 51.7335 -0.305618 -1.54608 0
M  V30 558 C 52.6815 0.584119 -2.25146 0
M  V30 559 C 53.6755 1.13326 -1.25911 0
M  V30 560 O 54.8815 1.08337 -1.43747 0
M  V30 561 H 51.2565 0.206983 -0.722954 0
M  V30 562 H 53.2275 -0.033291 -2.98381 0
M  V30 563 C 51.9765 1.74225 -3.009 0
M  V30 564 H 51.2995 1.32892 -3.77067 0
M  V30 565 H 52.7395 2.34077 -3.53531 0
M  V30 566 C 51.1985 2.64914 -2.0814 0
M  V30 567 O 51.7285 3.66137 -1.65246 0
M  V30 568 N 49.9345 2.3275 -1.74 0
M  V30 569 H 49.4815 1.50479 -2.09078 0
M  V30 570 H 49.4395 2.93694 -1.12211 0
M  V30 571 N 53.2116 1.57565 -0.0334293 0
M  V30 572 C 54.4576 1.93088 0.639417 0
M  V30 573 C 54.8126 0.910589 1.69488 0
M  V30 574 O 54.1056 -0.0727725 1.91462 0
M  V30 575 C 54.2996 3.33112 1.29504 0
M  V30 576 C 54.1286 4.48667 0.304604 0
M  V30 577 C 52.8986 5.05207 -0.0970777 0
M  V30 578 C 55.0966 5.1239 -0.442845 0
M  V30 579 N 53.0786 6.04286 -1.08223 0
M  V30 580 C 54.4496 6.06609 -1.28161 0
M  V30 581 C 56.5046 4.95352 -0.50308 0
M  V30 582 C 55.2076 6.85622 -2.17519 0
M  V30 583 C 57.2336 5.74978 -1.38401 0
M  V30 584 C 56.5956 6.68816 -2.21054 0
M  V30 585 H 52.6946 0.754335 0.206161 0
M  V30 586 H 55.2786 1.94435 -0.101613 0
M  V30 587 H 53.4496 3.32576 2.00618 0
M  V30 588 H 55.1816 3.55972 1.92525 0
M  V30 589 H 51.9366 4.72782 0.278255 0
M  V30 590 H 52.3606 6.58516 -1.57117 0
M  V30 591 H 57.0026 4.22625 0.121694 0
M  V30 592 H 54.7206 7.57652 -2.81049 0
M  V30 593 H 58.3066 5.63826 -1.43496 0
M  V30 594 H 57.1866 7.29355 -2.88116 0
M  V30 595 N 54.6897 -0.239769 1.55765 0
M  V30 596 C 55.6217 -1.32001 1.87372 0
M  V30 597 C 56.6347 -1.43944 0.760522 0
M  V30 598 O 57.8237 -1.45167 1.0387 0
M  V30 599 C 54.9237 -2.69779 2.05115 0
M  V30 600 C 54.0967 -2.80014 3.36022 0
M  V30 601 C 53.1557 -3.98684 3.4342 0
M  V30 602 O 52.1817 -3.87877 4.16582 0
M  V30 603 N 53.3837 -5.12176 2.73232 0
M  V30 604 H 56.1487 -1.0522 2.80622 0
M  V30 605 H 53.7097 -0.429857 1.56089 0
M  V30 606 H 55.7017 -3.47517 2.07399 0
M  V30 607 H 54.2717 -2.89237 1.18577 0
M  V30 608 H 53.4917 -1.88896 3.45994 0
M  V30 609 H 54.7797 -2.83808 4.22292 0
M  V30 610 H 54.1777 -5.2385 2.13536 0
M  V30 611 H 52.7347 -5.88022 2.81199 0
M  V30 612 N 56.1678 -1.49265 -0.50573 0
M  V30 613 C 57.4448 -1.49012 -1.26707 0
M  V30 614 C 57.8248 -0.215205 -2.1 0
M  V30 615 O 57.1728 0.802547 -2.13943 0
M  V30 616 C 57.3828 -2.7663 -2.12783 0
M  V30 617 C 58.7308 -3.25932 -2.72127 0
M  V30 618 O 59.7548 -2.77715 -2.23054 0
M  V30 619 O 58.6138 -4.09897 -3.61451 0
M  V30 620 H 55.7078 -0.596197 -0.57313 0
M  V30 621 H 58.2538 -1.61524 -0.52039 0
M  V30 622 H 57.0258 -3.60916 -1.5118 0
M  V30 623 H 56.6488 -2.66956 -2.94653 0
M  V30 624 N 57.6459 0.756429 -1.3826 0
M  V30 625 C 58.8919 1.51772 -1.34511 0
M  V30 626 C 59.2249 1.94089 0.0656691 0
M  V30 627 O 58.4999 1.65221 1.02626 0
M  V30 628 C 58.7829 2.77226 -2.29821 0
M  V30 629 C 58.6359 2.41065 -3.79747 0
M  V30 630 C 59.9549 3.79236 -2.23312 0
M  V30 631 H 57.0739 0.550578 -0.489931 0
M  V30 632 H 59.7159 0.866607 -1.69086 0
M  V30 633 H 57.8659 3.32784 -2.00467 0
M  V30 634 H 59.5379 1.91303 -4.19763 0
M  V30 635 H 57.7809 1.7356 -3.97567 0
M  V30 636 H 58.4519 3.3081 -4.41892 0
M  V30 637 H 60.9279 3.3321 -2.49219 0
M  V30 638 H 59.8039 4.64714 -2.92116 0
M  V30 639 H 60.0649 4.24615 -1.23102 0
M  V30 640 N 59.124 1.23083 0.984299 0
M  V30 641 C 60.087 1.00979 2.05757 0
M  V30 642 C 61.087 -0.0269573 1.60777 0
M  V30 643 O 62.277 0.212403 1.729 0
M  V30 644 C 59.409 0.527072 3.36801 0
M  V30 645 H 60.602 1.9622 2.26799 0
M  V30 646 H 58.155 1.05072 1.15714 0
M  V30 647 H 58.89 -0.429294 3.21446 0
M  V30 648 H 58.675 1.27515 3.70786 0
M  V30 649 H 60.165 0.392942 4.15747 0
M  V30 650 N 60.6021 -1.18246 1.0419 0
M  V30 651 C 61.5341 -2.2142 0.592088 0
M  V30 652 C 62.5471 -1.59233 -0.338909 0
M  V30 653 O 63.7361 -1.78002 -0.133231 0
M  V30 654 C 60.8361 -3.38546 -0.154854 0
M  V30 655 C 60.0091 -4.3031 0.784328 0
M  V30 656 C 59.0681 -5.26138 0.0804583 0
M  V30 657 O 58.0941 -5.64738 0.711292 0
M  V30 658 N 59.2961 -5.68261 -1.18574 0
M  V30 659 H 62.0611 -2.60636 1.47949 0
M  V30 660 H 59.6221 -1.33044 0.922544 0
M  V30 661 H 61.6141 -3.99678 -0.635606 0
M  V30 662 H 60.1841 -2.98012 -0.943811 0
M  V30 663 H 59.4041 -3.66764 1.44491 0
M  V30 664 H 60.6921 -4.8852 1.42218 0
M  V30 665 H 60.0901 -5.38957 -1.71876 0
M  V30 666 H 58.6471 -6.31584 -1.61074 0
M  V30 667 N 62.0802 -0.821533 -1.34494 0
M  V30 668 C 62.9902 -0.244355 -2.33324 0
M  V30 669 C 64.0062 0.620527 -1.62559 0
M  V30 670 O 65.1822 0.528754 -1.94335 0
M  V30 671 C 62.2472 0.585368 -3.41723 0
M  V30 672 C 61.3082 -0.301752 -4.28238 0
M  V30 673 C 60.5412 0.488466 -5.3146 0
M  V30 674 O 60.7642 1.72186 -5.4379 0
M  V30 675 O 59.6982 -0.12848 -6.01763 0
M  V30 676 H 63.5242 -1.06231 -2.84515 0
M  V30 677 H 61.1092 -0.583645 -1.37528 0
M  V30 678 H 62.9912 1.05747 -4.07916 0
M  V30 679 H 61.6662 1.38068 -2.92778 0
M  V30 680 H 60.5732 -0.821315 -3.64973 0
M  V30 681 H 61.9062 -1.06138 -4.8062 0
M  V30 682 N 63.5583 1.46682 -0.576371 0
M  V30 683 C 64.7983 2.04306 -0.0621356 0
M  V30 684 C 65.1623 1.4389 1.2712 0
M  V30 685 O 66.3633 1.92675 1.87429 0
M  V30 686 C 64.6343 3.57399 0.00927922 0
M  V30 687 S 66.1933 4.36309 0.466859 0
M  V30 688 H 63.0113 0.710167 -0.0344016 0
M  V30 689 H 65.6133 1.79807 -0.767437 0
M  V30 690 H 64.3173 3.98889 -0.965178 0
M  V30 691 H 63.8483 3.86424 0.737547 0
M  V30 692 H 65.8633 4.6533 1.72287 0
M  V30 693 N 65.0364 0.313813 1.54444 0
M  V30 694 C 65.9464 -0.565714 2.27677 0
M  V30 695 C 66.9624 -1.13754 1.31666 0
M  V30 696 O 68.1384 -1.15959 1.64668 0
M  V30 697 C 65.2034 -1.71528 3.01296 0
M  V30 698 C 64.2644 -1.17624 4.12872 0
M  V30 699 C 63.4974 -2.27102 4.8297 0
M  V30 700 O 63.7204 -3.47256 4.52514 0
M  V30 701 O 62.6544 -1.9307 5.70094 0
M  V30 702 H 66.4804 0.0287296 3.03686 0
M  V30 703 H 64.0654 0.0798312 1.49187 0
M  V30 704 H 65.9474 -2.38476 3.4743 0
M  V30 705 H 64.6224 -2.29608 2.2817 0
M  V30 706 H 63.5294 -0.472124 3.71109 0
M  V30 707 H 64.8624 -0.640695 4.88012 0
M  V30 708 N 66.5145 -1.57545 0.0417849 0
M  V30 709 C 67.4465 -2.07904 -0.964799 0
M  V30 710 C 68.4595 -1.00497 -1.28079 0
M  V30 711 O 69.6485 -1.28087 -1.24322 0
M  V30 712 C 66.7485 -2.49928 -2.28887 0
M  V30 713 C 65.9215 -3.80562 -2.15619 0
M  V30 714 C 64.9805 -4.08999 -3.31069 0
M  V30 715 O 64.0065 -4.79061 -3.0739 0
M  V30 716 N 65.2085 -3.6017 -4.55256 0
M  V30 717 H 67.9735 -2.94886 -0.535029 0
M  V30 718 H 65.5345 -1.61252 -0.144681 0
M  V30 719 H 67.5265 -2.66034 -3.04972 0
M  V30 720 H 66.0965 -1.68245 -2.63463 0
M  V30 721 H 65.3165 -3.74129 -1.24183 0
M  V30 722 H 66.6045 -4.66126 -2.03971 0
M  V30 723 H 66.0025 -3.03512 -4.77386 0
M  V30 724 H 64.5595 -3.81532 -5.28466 0
M  V30 725 N 67.9926 0.231505 -1.5589 0
M  V30 726 C 69.2226 0.973092 -1.82248 0
M  V30 727 C 69.6306 1.78845 -0.617328 0
M  V30 728 O 68.9736 1.78752 0.423499 0
M  V30 729 C 69.0356 1.94732 -3.02192 0
M  V30 730 C 68.6996 1.31743 -4.37599 0
M  V30 731 C 69.6966 0.712238 -5.14998 0
M  V30 732 C 67.3816 1.33218 -4.84312 0
M  V30 733 C 69.3756 0.130195 -6.37267 0
M  V30 734 C 67.0626 0.746286 -6.06526 0
M  V30 735 C 68.0606 0.146337 -6.82843 0
M  V30 736 O 67.7486 -0.430465 -8.02747 0
M  V30 737 H 67.4806 0.29125 -0.61004 0
M  V30 738 H 70.0346 0.254915 -2.03812 0
M  V30 739 H 68.2646 2.70422 -2.76422 0
M  V30 740 H 69.9536 2.55362 -3.15508 0
M  V30 741 H 70.7196 0.69324 -4.8002 0
M  V30 742 H 66.5986 1.78854 -4.24891 0
M  V30 743 H 70.1426 -0.33871 -6.96777 0
M  V30 744 H 66.0396 0.762663 -6.40979 0
M  V30 745 H 66.8076 -0.323818 -8.17859 0
M  V30 746 N 69.4707 1.49531 0.497807 0
M  V30 747 C 70.4007 1.6935 1.60757 0
M  V30 748 C 71.3817 0.542218 1.61227 0
M  V30 749 O 72.5667 0.778417 1.77917 0
M  V30 750 C 69.6967 1.76298 2.99226 0
M  V30 751 C 68.6507 2.91248 3.13622 0
M  V30 752 C 67.9767 2.83312 4.53474 0
M  V30 753 C 69.2767 4.3214 2.93346 0
M  V30 754 H 70.9707 2.62263 1.44425 0
M  V30 755 H 68.5167 1.26208 0.693367 0
M  V30 756 H 70.4697 1.88749 3.76765 0
M  V30 757 H 69.1937 0.799871 3.16654 0
M  V30 758 H 67.8527 2.78404 2.38509 0
M  V30 759 H 67.5007 1.84902 4.67782 0
M  V30 760 H 67.2007 3.60465 4.64046 0
M  V30 761 H 68.7247 2.97775 5.33069 0
M  V30 762 H 70.1387 4.45649 3.60652 0
M  V30 763 H 68.5357 5.1054 3.15387 0
M  V30 764 H 69.6057 4.46363 1.89441 0
M  V30 765 N 70.9488 -0.749086 1.3866 0
M  V30 766 C 72.1968 -1.50535 1.34847 0
M  V30 767 C 72.5178 -1.94909 -0.0595016 0
M  V30 768 O 71.7878 -1.67973 -1.00806 0
M  V30 769 H 70.3678 -0.558395 0.49619 0
M  V30 770 H 73.0298 -0.890165 1.73384 0
M  V30 771 H 72.1258 -2.39413 2.00219 0
M  V30 772 N 72.4269 -1.23603 -0.977757 0
M  V30 773 C 73.8379 -1.06424 -1.53398 0
M  V30 774 C 74.1889 0.367578 -1.92726 0
M  V30 775 O 73.3139 1.25465 -1.76316 0
M  V30 776 C 73.9089 -1.92568 -2.78753 0
M  V30 777 C 72.4679 -1.79642 -3.30765 0
M  V30 778 C 71.6149 -1.88111 -2.03739 0
M  V30 779 H 74.5659 -1.37227 -0.797152 0
M  V30 780 H 74.5869 -1.45203 -3.51705 0
M  V30 781 H 74.0989 -2.96771 -2.50098 0
M  V30 782 H 72.1999 -0.782325 -3.64294 0
M  V30 783 H 72.3129 -2.63174 -4.00345 0
M  V30 784 H 70.6769 -1.31723 -2.17994 0
M  V30 785 H 71.4599 -2.93875 -1.77461 0
M  V30 786 N 73.905 1.17692 -1.04816 0
M  V30 787 C 74.852 2.21581 -0.645797 0
M  V30 788 C 75.822 1.62367 0.350159 0
M  V30 789 O 77.007 1.89254 0.242433 0
M  V30 790 C 74.147 3.45092 -0.0227568 0
M  V30 791 C 73.26 4.18613 -1.06709 0
M  V30 792 C 72.395 5.29602 -0.411767 0
M  V30 793 C 71.434 5.94904 -1.44067 0
M  V30 794 N 70.571 6.97414 -0.809781 0
M  V30 795 H 75.411 2.55353 -1.5362 0
M  V30 796 H 72.948 1.25438 -0.768364 0
M  V30 797 H 74.906 4.15679 0.35588 0
M  V30 798 H 73.536 3.11917 0.831122 0
M  V30 799 H 72.588 3.46779 -1.5636 0
M  V30 800 H 73.9 4.63293 -1.84827 0
M  V30 801 H 73.054 6.06696 0.0206623 0
M  V30 802 H 71.793 4.86045 0.401438 0
M  V30 803 H 70.798 5.16544 -1.88316 0
M  V30 804 H 72.023 6.40542 -2.25571 0
M  V30 805 H 69.969 6.55998 -0.0170186 0
M  V30 806 H 69.886 7.40386 -1.52856 0
M  V30 807 H 71.154 7.78463 -0.401999 0
M  V30 808 N 75.3831 0.828654 1.34056 0
M  V30 809 C 76.6311 0.41863 1.97717 0
M  V30 810 C 76.9521 -1.02314 1.66002 0
M  V30 811 O 76.2221 -1.71119 0.953683 0
M  V30 812 H 74.8021 0.151809 0.731412 0
M  V30 813 H 77.4641 1.05936 1.63596 0
M  V30 814 H 76.5601 0.542318 3.07352 0
M  V30 815 N 76.8612 -1.46375 0.584142 0
M  V30 816 C 78.0912 -2.06461 0.0758195 0
M  V30 817 C 78.4992 -1.43322 -1.23512 0
M  V30 818 O 77.8422 -0.533216 -1.75791 0
M  V30 819 C 77.9042 -3.59131 -0.162773 0
M  V30 820 C 77.5682 -4.4447 1.06279 0
M  V30 821 C 78.5652 -4.80918 1.97519 0
M  V30 822 C 76.2502 -4.85584 1.28504 0
M  V30 823 C 78.2442 -5.57309 3.09331 0
M  V30 824 C 75.9312 -5.61734 2.4062 0
M  V30 825 C 76.9292 -5.9751 3.30863 0
M  V30 826 O 76.6172 -6.72121 4.41032 0
M  V30 827 H 76.3492 -0.673745 0.0551725 0
M  V30 828 H 78.9032 -1.88969 0.804984 0
M  V30 829 H 77.1332 -3.74936 -0.946565 0
M  V30 830 H 78.8222 -4.0114 -0.619782 0
M  V30 831 H 79.5882 -4.49732 1.81565 0
M  V30 832 H 75.4672 -4.57187 0.591702 0
M  V30 833 H 79.0112 -5.85152 3.79793 0
M  V30 834 H 74.9082 -5.92334 2.56537 0
M  V30 835 H 75.6762 -6.90547 4.39417 0
M  V30 836 N 78.3393 -0.321999 -1.54275 0
M  V30 837 C 79.3023 0.531975 -2.22941 0
M  V30 838 C 80.3023 1.04478 -1.22234 0
M  V30 839 O 81.4923 0.937452 -1.46825 0
M  V30 840 C 78.6243 1.73874 -2.93224 0
M  V30 841 H 79.8173 -0.0682612 -2.99822 0
M  V30 842 H 77.3703 -0.0730644 -1.56129 0
M  V30 843 H 78.1053 2.37825 -2.20476 0
M  V30 844 H 77.8903 1.37847 -3.6707 0
M  V30 845 H 79.3803 2.34496 -3.45545 0
M  V30 846 N 79.8174 1.5752 -0.0501392 0
M  V30 847 C 80.7804 2.1037 0.909786 0
M  V30 848 C 81.7804 1.02308 1.24056 0
M  V30 849 O 82.9704 1.28385 1.17741 0
M  V30 850 C 80.1024 2.58708 2.21998 0
M  V30 851 H 81.2954 2.96479 0.451665 0
M  V30 852 H 78.8484 1.55038 0.198248 0
M  V30 853 H 79.5834 1.75989 2.72394 0
M  V30 854 H 79.3684 3.37675 1.99295 0
M  V30 855 H 80.8584 2.99747 2.9076 0
M  V30 856 N 81.2955 -0.223234 1.56011 0
M  V30 857 C 82.5415 -0.949279 1.79211 0
M  V30 858 C 82.8745 -1.84054 0.619494 0
M  V30 859 O 82.1495 -1.90726 -0.381317 0
M  V30 860 C 82.4325 -1.78965 3.12479 0
M  V30 861 C 82.2855 -0.924997 4.40186 0
M  V30 862 C 83.6045 -2.76774 3.42175 0
M  V30 863 H 80.7235 -0.343676 0.651963 0
M  V30 864 H 83.3655 -0.218253 1.88742 0
M  V30 865 H 81.5155 -2.41291 3.04485 0
M  V30 866 H 83.1875 -0.318615 4.60198 0
M  V30 867 H 81.4305 -0.230344 4.33188 0
M  V30 868 H 82.1015 -1.54735 5.29869 0
M  V30 869 H 84.5775 -2.24584 3.50287 0
M  V30 870 H 83.4535 -3.32678 4.36597 0
M  V30 871 H 83.7145 -3.54429 2.64258 0
M  V30 872 N 82.7736 -1.49793 -0.48987 0
M  V30 873 C 83.7056 -1.63413 -1.60713 0
M  V30 874 C 84.7186 -0.516329 -1.54395 0
M  V30 875 O 85.9076 -0.788812 -1.60125 0
M  V30 876 C 83.0076 -1.58516 -2.99543 0
M  V30 877 C 82.1806 -2.86016 -3.30928 0
M  V30 878 C 81.2396 -2.74018 -4.49222 0
M  V30 879 O 80.2656 -3.47964 -4.50455 0
M  V30 880 N 81.4676 -1.86309 -5.4979 0
M  V30 881 H 84.2326 -2.59777 -1.49452 0
M  V30 882 H 81.7936 -1.47022 -0.677955 0
M  V30 883 H 83.7856 -1.48128 -3.76617 0
M  V30 884 H 82.3556 -0.69965 -3.0467 0
M  V30 885 H 81.5756 -3.10672 -2.42645 0
M  V30 886 H 82.8636 -3.70521 -3.487 0
M  V30 887 H 82.2616 -1.2551 -5.51601 0
M  V30 888 H 80.8186 -1.81837 -6.25922 0
M  V30 889 N 84.2517 0.741722 -1.39055 0
M  V30 890 C 85.4977 1.50336 -1.36113 0
M  V30 891 C 85.8307 1.94148 0.0450796 0
M  V30 892 O 85.1057 1.66301 1.00868 0
M  V30 893 C 85.3887 2.74773 -2.32749 0
M  V30 894 C 85.2417 2.37023 -3.82283 0
M  V30 895 C 86.5607 3.76846 -2.27322 0
M  V30 896 H 83.6797 0.545351 -0.495743 0
M  V30 897 H 86.3217 0.848624 -1.69995 0
M  V30 898 H 84.4717 3.30639 -2.03986 0
M  V30 899 H 86.1437 1.8684 -4.21768 0
M  V30 900 H 84.3867 1.69334 -3.99385 0
M  V30 901 H 85.0577 3.26104 -4.45376 0
M  V30 902 H 87.5337 3.30548 -2.5274 0
M  V30 903 H 86.4097 4.6159 -2.97028 0
M  V30 904 H 86.6707 4.23286 -1.27599 0
M  V30 905 N 85.7298 1.2412 0.971189 0
M  V30 906 C 86.9548 1.10667 1.75407 0
M  V30 907 C 87.3798 -0.337048 1.85056 0
M  V30 908 O 86.7378 -1.24396 1.31892 0
M  V30 909 C 86.7858 1.74726 3.15441 0
M  V30 910 O 85.8898 1.01566 3.99697 0
M  V30 911 H 85.2308 0.387341 0.539317 0
M  V30 912 H 87.7608 1.64358 1.2185 0
M  V30 913 H 87.7708 1.80341 3.6598 0
M  V30 914 H 86.4458 2.79773 3.07734 0
M  V30 915 H 85.0228 1.03713 3.58187 0
M  V30 916 N 87.2079 -1.17134 1.05439 0
M  V30 917 C 88.6189 -1.69084 0.791676 0
M  V30 918 C 88.9699 -1.83822 -0.685839 0
M  V30 919 O 88.0949 -1.52757 -1.53278 0
M  V30 920 C 88.6899 -3.07119 1.4305 0
M  V30 921 C 87.2489 -3.56225 1.21577 0
M  V30 922 C 86.3959 -2.32421 1.51247 0
M  V30 923 H 89.3469 -1.01617 1.219 0
M  V30 924 H 89.3679 -3.71087 0.84112 0
M  V30 925 H 88.8799 -2.9636 2.50584 0
M  V30 926 H 86.9809 -3.72257 0.159787 0
M  V30 927 H 87.0939 -4.38837 1.92246 0
M  V30 928 H 85.4579 -2.3701 0.932653 0
M  V30 929 H 86.2409 -2.24268 2.5992 0
M  V30 930 N 88.686 -0.835752 -1.33615 0
M  V30 931 C 90.097 -0.487099 -1.80234 0
M  V30 932 C 90.448 0.993627 -1.69179 0
M  V30 933 O 89.573 1.77403 -1.23924 0
M  V30 934 C 90.168 -0.877385 -3.27242 0
M  V30 935 C 88.727 -0.580915 -3.7189 0
M  V30 936 C 87.874 -1.0874 -2.5509 0
M  V30 937 H 90.825 -1.02474 -1.2118 0
M  V30 938 H 90.846 -0.186195 -3.80044 0
M  V30 939 H 90.358 -1.95512 -3.35256 0
M  V30 940 H 88.459 0.486881 -3.69405 0
M  V30 941 H 88.572 -1.13396 -4.65487 0
M  V30 942 H 86.936 -0.508392 -2.49575 0
M  V30 943 H 87.719 -2.17184 -2.65868 0
M  V30 944 N 90.1641 1.46063 -0.591896 0
M  V30 945 C 91.1121 2.32124 0.148739 0
M  V30 946 C 92.1061 1.45035 0.875286 0
M  V30 947 O 93.3121 1.61609 0.792632 0
M  V30 948 H 89.6871 0.749024 0.066832 0
M  V30 949 H 91.6581 2.92392 -0.595783 0
M  V30 950 C 90.4071 3.28373 1.1431 0
M  V30 951 H 89.7301 3.95371 0.59346 0
M  V30 952 H 91.1701 3.91352 1.63155 0
M  V30 953 C 89.6291 2.54393 2.20875 0
M  V30 954 O 90.1591 2.31373 3.28374 0
M  V30 955 N 88.3651 2.14797 1.95731 0
M  V30 956 H 87.9121 2.33719 1.08319 0
M  V30 957 H 87.8701 1.65619 2.67241 0
M  V30 958 N 91.6422 0.330177 1.54103 0
M  V30 959 C 92.5522 -0.541534 2.28264 0
M  V30 960 C 93.5682 -1.12351 1.32866 0
M  V30 961 O 94.7442 -1.14206 1.65888 0
M  V30 962 C 91.8092 -1.68322 3.03098 0
M  V30 963 C 90.8702 -1.13238 4.14096 0
M  V30 964 C 90.1032 -2.21966 4.85352 0
M  V30 965 O 90.3262 -3.42437 4.56172 0
M  V30 966 O 89.2602 -1.87013 5.7211 0
M  V30 967 H 93.0862 0.060938 3.03639 0
M  V30 968 H 90.6712 0.09565 1.49093 0
M  V30 969 H 92.5532 -2.34777 3.49939 0
M  V30 970 H 91.2282 -2.27176 2.30593 0
M  V30 971 H 90.1352 -0.432736 3.71589 0
M  V30 972 H 91.4682 -0.588898 4.88664 0
M  V30 973 N 93.1203 -1.57491 0.0584922 0
M  V30 974 C 94.0703 -2.08474 -0.923188 0
M  V30 975 C 95.0543 -0.991479 -1.26722 0
M  V30 976 O 96.2463 -1.25473 -1.24842 0
M  V30 977 C 93.3753 -2.6392 -2.19548 0
M  V30 978 C 92.4613 -3.80227 -1.87852 0
M  V30 979 N 92.8523 -4.89714 -1.26546 0
M  V30 980 C 91.1503 -3.89271 -2.17679 0
M  V30 981 C 91.8513 -5.70689 -1.12644 0
M  V30 982 N 90.8273 -5.18531 -1.63176 0
M  V30 983 H 94.6293 -2.90517 -0.444653 0
M  V30 984 H 92.1433 -1.61745 -0.145764 0
M  V30 985 H 94.1403 -2.98752 -2.9078 0
M  V30 986 H 92.8003 -1.83318 -2.68001 0
M  V30 987 H 93.8113 -5.09358 -0.936757 0
M  V30 988 H 90.4883 -3.19623 -2.68602 0
M  V30 989 H 91.8783 -6.6875 -0.6499 0
M  V30 990 N 94.5984 0.214957 -1.56127 0
M  V30 991 C 95.8474 0.936451 -1.78643 0
M  V30 992 C 96.1604 1.85237 -0.628229 0
M  V30 993 O 97.3664 2.613 -0.737186 0
M  V30 994 C 95.8224 1.7154 -3.16389 0
M  V30 995 C 95.4304 0.845299 -4.39953 0
M  V30 996 C 97.1744 2.42772 -3.48227 0
M  V30 997 C 95.0814 1.62198 -5.68723 0
M  V30 998 H 94.0114 0.353401 -0.666051 0
M  V30 999 H 96.6624 0.190169 -1.82512 0
M  V30 1000 H 95.0444 2.50484 -3.06715 0
M  V30 1001 H 96.2184 0.0959353 -4.607 0
M  V30 1002 H 94.5334 0.244789 -4.1568 0
M  V30 1003 H 97.1304 3.01394 -4.41663 0
M  V30 1004 H 97.4734 3.15984 -2.71035 0
M  V30 1005 H 98.0064 1.70813 -3.5926 0
M  V30 1006 H 94.7454 0.933011 -6.48826 0
M  V30 1007 H 94.2654 2.34579 -5.52026 0
M  V30 1008 H 95.9444 2.18095 -6.09133 0
M  V30 1009 N 96.0765 1.50051 0.48192 0
M  V30 1010 C 97.3045 1.64237 1.25832 0
M  V30 1011 C 97.7195 0.321336 1.86045 0
M  V30 1012 O 97.0765 -0.695478 1.68729 0
M  V30 1013 C 97.1275 2.72548 2.37487 0
M  V30 1014 O 96.8485 3.99529 1.79745 0
M  V30 1015 C 98.3495 2.9761 3.28547 0
M  V30 1016 H 95.5695 0.55237 0.380957 0
M  V30 1017 H 98.1135 1.96207 0.576467 0
M  V30 1018 H 96.2685 2.43303 3.01467 0
M  V30 1019 H 96.6825 4.59342 2.5319 0
M  V30 1020 H 98.1565 3.77084 4.03127 0
M  V30 1021 H 98.6335 2.0826 3.86684 0
M  V30 1022 H 99.2395 3.28345 2.70314 0
M  V30 1023 N 97.5546 -0.734337 1.39446 0
M  V30 1024 C 98.8026 -1.49096 1.36436 0
M  V30 1025 C 99.1236 -1.94961 -0.0388255 0
M  V30 1026 O 98.3936 -1.69033 -0.990191 0
M  V30 1027 H 96.9736 -0.5531 0.502085 0
M  V30 1028 H 99.6356 -0.871725 1.74319 0
M  V30 1029 H 98.7316 -2.37276 2.02747 0
M  V30 1030 N 99.0327 -1.24633 -0.964593 0
M  V30 1031 C 100.258 -1.11596 -1.74818 0
M  V30 1032 C 100.683 0.32723 -1.85232 0
M  V30 1033 O 100.041 1.23695 -1.32549 0
M  V30 1034 C 100.089 -1.76397 -3.1451 0
M  V30 1035 O 99.1927 -1.03685 -3.99153 0
M  V30 1036 H 98.5337 -0.390196 -0.537255 0
M  V30 1037 H 101.064 -1.65002 -1.20977 0
M  V30 1038 H 101.074 -1.8228 -3.65018 0
M  V30 1039 H 99.7487 -2.81401 -3.06246 0
M  V30 1040 H 98.3257 -1.05611 -3.57632 0
M  V30 1041 N 100.511 1.16574 -1.06058 0
M  V30 1042 C 101.443 2.2045 -0.627239 0
M  V30 1043 C 102.456 1.59752 0.313534 0
M  V30 1044 O 103.645 1.78192 0.104896 0
M  V30 1045 C 100.745 3.3875 0.100974 0
M  V30 1046 C 99.9178 4.29008 -0.852687 0
M  V30 1047 C 98.9768 5.25944 -0.164152 0
M  V30 1048 O 98.0028 5.63535 -0.801047 0
M  V30 1049 N 99.2048 5.70075 1.09518 0
M  V30 1050 H 101.97 2.58249 -1.52077 0
M  V30 1051 H 99.5308 1.3156 -0.943594 0
M  V30 1052 H 101.523 4.00638 0.57194 0
M  V30 1053 H 100.093 2.99476 0.89628 0
M  V30 1054 H 99.3128 3.64419 -1.50308 0
M  V30 1055 H 100.601 4.86195 -1.49972 0
M  V30 1056 H 99.9988 5.41624 1.6328 0
M  V30 1057 H 98.5558 6.34067 1.51006 0
M  V30 1058 N 101.989 0.842826 1.3317 0
M  V30 1059 C 103.235 0.450342 1.98352 0
M  V30 1060 C 103.59 -0.980508 1.65541 0
M  V30 1061 O 102.883 -1.67678 0.927065 0
M  V30 1062 C 103.077 0.612607 3.52111 0
M  V30 1063 C 102.906 2.05768 3.99862 0
M  V30 1064 C 101.676 2.69374 4.27511 0
M  V30 1065 C 103.874 3.02688 4.15794 0
M  V30 1066 N 101.856 4.04915 4.61429 0
M  V30 1067 C 103.227 4.23186 4.53115 0
M  V30 1068 C 105.282 2.99041 3.98094 0
M  V30 1069 C 103.985 5.40518 4.74587 0
M  V30 1070 C 106.011 4.15607 4.20743 0
M  V30 1071 C 105.373 5.3486 4.58371 0
M  V30 1072 H 101.472 0.213296 0.752349 0
M  V30 1073 H 104.056 1.09173 1.61212 0
M  V30 1074 H 102.227 0.000998822 3.884 0
M  V30 1075 H 103.959 0.191179 4.04248 0
M  V30 1076 H 100.714 2.20485 4.19146 0
M  V30 1077 H 101.138 4.74798 4.82593 0
M  V30 1078 H 105.78 2.0797 3.68114 0
M  V30 1079 H 103.498 6.3213 5.03425 0
M  V30 1080 H 107.084 4.14207 4.08563 0
M  V30 1081 H 105.964 6.23558 4.75547 0
M  V30 1082 N 103.467 -1.45747 0.599634 0
M  V30 1083 C 104.713 -2.03153 0.100263 0
M  V30 1084 C 105.068 -1.46073 -1.25221 0
M  V30 1085 O 104.361 -0.622878 -1.81193 0
M  V30 1086 C 104.555 -3.57399 -0.00602758 0
M  V30 1087 C 104.384 -4.2944 1.3346 0
M  V30 1088 C 103.154 -4.6768 1.91321 0
M  V30 1089 C 105.352 -4.61905 2.2616 0
M  V30 1090 N 103.334 -5.24544 3.18946 0
M  V30 1091 C 104.705 -5.19518 3.3838 0
M  V30 1092 C 106.76 -4.43841 2.25631 0
M  V30 1093 C 105.463 -5.60972 4.50226 0
M  V30 1094 C 107.489 -4.86322 3.36518 0
M  V30 1095 C 106.851 -5.44021 4.4746 0
M  V30 1096 H 102.95 -0.777911 0.0798696 0
M  V30 1097 H 105.534 -1.77674 0.796244 0
M  V30 1098 H 103.705 -3.82556 -0.671212 0
M  V30 1099 H 105.437 -4.01457 -0.51133 0
M  V30 1100 H 102.192 -4.5098 1.44617 0
M  V30 1101 H 102.616 -5.57483 3.84112 0
M  V30 1102 H 107.258 -3.98552 1.41123 0
M  V30 1103 H 104.976 -6.0523 5.35464 0
M  V30 1104 H 108.562 -4.74084 3.37247 0
M  V30 1105 H 107.442 -5.76289 5.31846 0
M  V30 1106 N 104.945 -0.338344 -1.53925 0
M  V30 1107 C 106.173 0.261298 -2.05243 0
M  V30 1108 C 106.588 1.44625 -1.21363 0
M  V30 1109 O 105.945 1.80811 -0.247736 0
M  V30 1110 C 105.996 0.681412 -3.5502 0
M  V30 1111 O 105.717 -0.456414 -4.35716 0
M  V30 1112 C 107.218 1.34232 -4.22489 0
M  V30 1113 H 104.438 0.0513685 -0.669031 0
M  V30 1114 H 106.982 -0.488822 -1.98572 0
M  V30 1115 H 105.137 1.38148 -3.61931 0
M  V30 1116 H 105.551 -0.122564 -5.24357 0
M  V30 1117 H 107.025 1.58708 -5.28693 0
M  V30 1118 H 107.502 2.29426 -3.74514 0
M  V30 1119 H 108.108 0.684424 -4.19757 0
M  V30 1120 N 106.423 1.57458 -0.0668435 0
M  V30 1121 C 107.839 1.56947 0.289772 0
M  V30 1122 C 108.039 1.07584 1.70376 0
M  V30 1123 O 107.095 0.739486 2.41429 0
M  V30 1124 C 108.408 3.0052 0.103943 0
M  V30 1125 C 109.956 3.12517 0.173857 0
M  V30 1126 C 110.431 4.57997 0.0163682 0
M  V30 1127 N 111.922 4.63144 0.0721352 0
M  V30 1128 C 112.657 5.73394 -0.0253794 0
M  V30 1129 N 112.153 6.92576 -0.176133 0
M  V30 1130 N 113.946 5.62091 0.0313305 0
M  V30 1131 H 106.097 1.87863 -0.991027 0
M  V30 1132 H 108.36 0.86583 -0.38606 0
M  V30 1133 H 108.066 3.40729 -0.871572 0
M  V30 1134 H 107.94 3.67304 0.858366 0
M  V30 1135 H 110.327 2.72197 1.13985 0
M  V30 1136 H 110.408 2.48381 -0.611586 0
M  V30 1137 H 110.052 4.99005 -0.946374 0
M  V30 1138 H 109.982 5.20158 0.821153 0
M  V30 1139 H 112.473 3.77436 0.187263 0
M  V30 1140 H 112.786 7.72418 -0.242821 0
M  V30 1141 H 111.131 6.94678 -0.211429 0
M  V30 1142 H 114.322 4.67867 0.147773 0
M  V30 1143 H 114.495 6.47982 -0.048121 0
M  V30 1144 N 107.901 -0.206675 1.56239 0
M  V30 1145 C 109.131 -0.943975 1.83773 0
M  V30 1146 C 109.539 -1.77841 0.645703 0
M  V30 1147 O 108.882 -1.79403 -0.395008 0
M  V30 1148 C 108.944 -1.899 3.05251 0
M  V30 1149 C 108.608 -1.24764 4.39639 0
M  V30 1150 C 109.605 -0.630216 5.16066 0
M  V30 1151 C 107.29 -1.25496 4.8637 0
M  V30 1152 C 109.284 -0.0287946 6.37393 0
M  V30 1153 C 106.971 -0.649698 6.07637 0
M  V30 1154 C 107.969 -0.0376845 6.8299 0
M  V30 1155 O 107.657 0.55812 8.0196 0
M  V30 1156 H 107.389 -0.281508 0.614597 0
M  V30 1157 H 109.943 -0.222458 2.04192 0
M  V30 1158 H 108.173 -2.6599 2.80689 0
M  V30 1159 H 109.862 -2.5031 3.1953 0
M  V30 1160 H 110.628 -0.616785 4.81062 0
M  V30 1161 H 106.507 -1.72072 4.27683 0
M  V30 1162 H 110.051 0.449518 6.9615 0
M  V30 1163 H 105.948 -0.660592 6.42111 0
M  V30 1164 H 106.716 0.453891 8.17241 0
M  V30 1165 N 109.379 -1.50304 -0.473955 0
M  V30 1166 C 110.311 -1.65109 -1.58971 0
M  V30 1167 C 111.324 -0.532676 -1.53839 0
M  V30 1168 O 112.513 -0.805751 -1.59279 0
M  V30 1169 C 109.613 -1.61684 -2.97845 0
M  V30 1170 C 108.786 -2.8951 -3.27876 0
M  V30 1171 C 107.845 -2.78768 -4.4629 0
M  V30 1172 O 106.871 -3.52722 -4.46739 0
M  V30 1173 N 108.073 -1.9213 -5.47783 0
M  V30 1174 H 110.838 -2.61347 -1.46689 0
M  V30 1175 H 108.399 -1.47732 -0.662324 0
M  V30 1176 H 110.391 -1.52114 -3.75024 0
M  V30 1177 H 108.961 -0.731925 -3.03911 0
M  V30 1178 H 108.181 -3.13228 -2.39336 0
M  V30 1179 H 109.469 -3.74199 -3.4475 0
M  V30 1180 H 108.867 -1.31353 -5.50239 0
M  V30 1181 H 107.424 -1.88466 -6.23958 0
M  V30 1182 N 110.857 0.726932 -1.39834 0
M  V30 1183 C 112.268 1.30558 -1.3346 0
M  V30 1184 C 112.619 1.962 -0.00273003 0
M  V30 1185 O 111.744 1.96826 0.899371 0
M  V30 1186 C 112.339 2.37404 -2.41713 0
M  V30 1187 C 110.898 2.90921 -2.38835 0
M  V30 1188 C 110.045 1.64578 -2.2318 0
M  V30 1189 H 112.996 0.523862 -1.49804 0
M  V30 1190 H 113.017 3.17984 -2.08966 0
M  V30 1191 H 112.529 1.89599 -3.38635 0
M  V30 1192 H 110.63 3.42985 -1.45575 0
M  V30 1193 H 110.743 3.43487 -3.33997 0
M  V30 1194 H 109.107 1.89219 -1.70494 0
M  V30 1195 H 109.89 1.18814 -3.22084 0
M  V30 1196 N 112.336 1.25143 0.95797 0
M  V30 1197 C 113.582 1.09855 1.70469 0
M  V30 1198 C 113.915 -0.360187 1.90831 0
M  V30 1199 O 113.19 -1.26568 1.47685 0
M  V30 1200 C 113.473 1.8497 3.08963 0
M  V30 1201 C 113.326 3.38652 2.96032 0
M  V30 1202 C 114.645 1.63016 4.08795 0
M  V30 1203 H 111.764 0.400465 0.618706 0
M  V30 1204 H 114.406 1.53933 1.11376 0
M  V30 1205 H 112.556 1.47505 3.59409 0
M  V30 1206 H 114.228 3.85772 2.52938 0
M  V30 1207 H 112.471 3.66534 2.32025 0
M  V30 1208 H 113.142 3.8642 3.94187 0
M  V30 1209 H 115.618 1.95625 3.67247 0
M  V30 1210 H 114.494 2.18015 5.03747 0
M  V30 1211 H 114.755 0.570692 4.38401 0
M  V30 1212 N 113.814 -1.1601 1.06675 0
M  V30 1213 C 115.039 -1.91068 0.806706 0
M  V30 1214 C 115.464 -1.77112 -0.633485 0
M  V30 1215 O 114.822 -1.09908 -1.44187 0
M  V30 1216 C 114.87 -3.39655 1.21106 0
M  V30 1217 O 113.974 -4.10893 0.352189 0
M  V30 1218 H 113.315 -0.595125 0.294486 0
M  V30 1219 H 115.845 -1.46955 1.42356 0
M  V30 1220 H 115.855 -3.90434 1.18428 0
M  V30 1221 H 114.53 -3.49132 2.26008 0
M  V30 1222 H 113.107 -3.70285 0.440868 0
M  V30 1223 N 115.292 -0.849877 -1.32721 0
M  V30 1224 C 116.522 -0.46408 -2.0132 0
M  V30 1225 C 116.93 0.94246 -1.64056 0
M  V30 1226 O 116.273 1.6257 -0.855379 0
M  V30 1227 C 116.335 -0.517887 -3.5575 0
M  V30 1228 C 115.999 -1.88248 -4.16427 0
M  V30 1229 C 116.996 -2.84726 -4.35002 0
M  V30 1230 C 114.681 -2.17832 -4.52609 0
M  V30 1231 C 116.675 -4.08945 -4.8892 0
M  V30 1232 C 114.362 -3.42304 -5.06232 0
M  V30 1233 C 115.36 -4.37677 -5.24335 0
M  V30 1234 O 115.048 -5.59946 -5.76815 0
M  V30 1235 H 114.78 -0.181327 -0.651227 0
M  V30 1236 H 117.334 -1.14713 -1.70382 0
M  V30 1237 H 115.564 0.221997 -3.86062 0
M  V30 1238 H 117.253 -0.148366 -4.05629 0
M  V30 1239 H 118.019 -2.63174 -4.07388 0
M  V30 1240 H 113.898 -1.44385 -4.37806 0
M  V30 1241 H 117.442 -4.83396 -5.02966 0
M  V30 1242 H 113.339 -3.63709 -5.33278 0
M  V30 1243 H 114.107 -5.61838 -5.95214 0
M  V30 1244 N 116.77 1.45427 -0.607355 0
M  V30 1245 C 117.68 2.34325 0.113463 0
M  V30 1246 C 118.696 1.51226 0.860617 0
M  V30 1247 O 119.872 1.84029 0.818255 0
M  V30 1248 C 116.937 3.28839 1.09844 0
M  V30 1249 C 115.998 4.27844 0.353271 0
M  V30 1250 C 115.231 5.17842 1.29133 0
M  V30 1251 O 115.454 5.11264 2.52913 0
M  V30 1252 O 114.388 5.96713 0.788523 0
M  V30 1253 H 118.214 2.97364 -0.617094 0
M  V30 1254 H 115.799 1.44807 -0.367619 0
M  V30 1255 H 117.681 3.8708 1.66575 0
M  V30 1256 H 116.356 2.68365 1.81003 0
M  V30 1257 H 115.263 3.7322 -0.256494 0
M  V30 1258 H 116.596 4.91173 -0.317822 0
M  V30 1259 N 118.248 0.346503 1.53744 0
M  V30 1260 C 119.178 -0.501193 2.28058 0
M  V30 1261 C 120.159 -1.10014 1.29734 0
M  V30 1262 O 121.344 -1.12097 1.58581 0
M  V30 1263 C 118.474 -1.65078 3.05559 0
M  V30 1264 C 117.428 -1.18003 4.11411 0
M  V30 1265 C 116.754 -2.41837 4.76884 0
M  V30 1266 C 118.054 -0.278394 5.21558 0
M  V30 1267 H 119.748 0.11875 2.99164 0
M  V30 1268 H 117.294 0.0585531 1.43881 0
M  V30 1269 H 119.247 -2.25028 3.56287 0
M  V30 1270 H 117.971 -2.29767 2.32109 0
M  V30 1271 H 116.63 -0.603331 3.61601 0
M  V30 1272 H 116.278 -3.0494 4.00026 0
M  V30 1273 H 115.978 -2.1102 5.48402 0
M  V30 1274 H 117.502 -3.02508 5.30397 0
M  V30 1275 H 118.916 -0.784823 5.67903 0
M  V30 1276 H 117.313 -0.0619707 6.00068 0
M  V30 1277 H 118.383 0.684677 4.80042 0
M  V30 1278 N 119.726 -1.57421 0.075193 0
M  V30 1279 C 120.658 -2.09904 -0.920483 0
M  V30 1280 C 121.671 -1.03191 -1.25918 0
M  V30 1281 O 122.86 -1.30695 -1.21577 0
M  V30 1282 C 119.96 -2.54726 -2.23534 0
M  V30 1283 C 119.133 -3.8505 -2.07498 0
M  V30 1284 C 118.192 -4.15929 -3.22319 0
M  V30 1285 O 117.218 -4.85474 -2.9716 0
M  V30 1286 N 118.42 -3.69745 -4.47514 0
M  V30 1287 H 121.185 -2.95954 -0.472359 0
M  V30 1288 H 118.746 -1.61523 -0.110444 0
M  V30 1289 H 120.738 -2.72443 -2.9926 0
M  V30 1290 H 119.308 -1.73795 -2.59835 0
M  V30 1291 H 118.528 -3.76679 -1.16219 0
M  V30 1292 H 119.816 -4.70348 -1.94038 0
M  V30 1293 H 119.214 -3.13569 -4.7084 0
M  V30 1294 H 117.771 -3.92655 -5.20255 0
M  V30 1295 N 121.204 0.198386 -1.56346 0
M  V30 1296 C 122.429 0.939682 -1.84891 0
M  V30 1297 C 122.854 1.76202 -0.658369 0
M  V30 1298 O 122.212 1.76993 0.392851 0
M  V30 1299 C 122.26 1.81428 -3.11635 0
M  V30 1300 O 121.364 2.91265 -2.91956 0
M  V30 1301 H 120.705 0.264807 -0.608912 0
M  V30 1302 H 123.235 0.204695 -2.03573 0
M  V30 1303 H 123.245 2.21958 -3.42343 0
M  V30 1304 H 121.92 1.21004 -3.97908 0
M  V30 1305 H 120.497 2.54514 -2.72538 0
M  V30 1306 N 122.682 1.50554 0.465978 0
M  V30 1307 C 124.098 1.38093 0.800154 0
M  V30 1308 C 124.298 0.440988 1.96615 0
M  V30 1309 O 123.354 -0.114499 2.5224 0
M  V30 1310 C 124.667 2.79565 1.10742 0
M  V30 1311 C 126.215 2.88516 1.21357 0
M  V30 1312 C 126.69 4.30833 1.55393 0
M  V30 1313 N 128.181 4.33807 1.62375 0
M  V30 1314 C 128.916 5.40927 1.90225 0
M  V30 1315 N 128.412 6.58247 2.16062 0
M  V30 1316 N 130.205 5.28376 1.9177 0
M  V30 1317 H 122.356 2.10237 -0.302366 0
M  V30 1318 H 124.619 0.945203 -0.0727746 0
M  V30 1319 H 124.325 3.50208 0.323661 0
M  V30 1320 H 124.199 3.17125 2.04234 0
M  V30 1321 H 126.586 2.1809 1.98799 0
M  V30 1322 H 126.667 2.54492 0.258321 0
M  V30 1323 H 126.311 5.01799 0.784889 0
M  V30 1324 H 126.241 4.62347 2.52076 0
M  V30 1325 H 128.732 3.49212 1.44427 0
M  V30 1326 H 129.045 7.3569 2.36601 0
M  V30 1327 H 127.39 6.61413 2.13444 0
M  V30 1328 H 130.581 4.35715 1.71085 0
M  V30 1329 H 130.754 6.11944 2.13139 0
M  V30 1330 N 124.16 -0.719506 1.40217 0
M  V30 1331 C 125.408 -1.47641 1.3801 0
M  V30 1332 C 125.729 -1.94992 -0.018145 0
M  V30 1333 O 124.999 -1.70073 -0.972207 0
M  V30 1334 H 123.579 -0.547744 0.507923 0
M  V30 1335 H 126.241 -0.853187 1.75233 0
M  V30 1336 H 125.337 -2.35112 2.05253 0
M  V30 1337 N 125.638 -1.25649 -0.95132 0
M  V30 1338 C 126.886 -1.10375 -1.69298 0
M  V30 1339 C 127.207 0.355339 -1.91735 0
M  V30 1340 O 126.477 1.25188 -1.50681 0
M  V30 1341 H 125.057 -0.405461 -0.627384 0
M  V30 1342 H 127.719 -1.57823 -1.14358 0
M  V30 1343 H 126.815 -1.61465 -2.67087 0
M  V30 1344 N 127.117 1.15442 -1.07289 0
M  V30 1345 C 128.065 2.22225 -0.686952 0
M  V30 1346 C 129.059 1.66688 0.30193 0
M  V30 1347 O 130.265 1.79236 0.165712 0
M  V30 1348 H 126.64 0.723783 -0.204064 0
M  V30 1349 H 128.611 2.52056 -1.5972 0
M  V30 1350 C 127.36 3.47556 -0.100149 0
M  V30 1351 H 126.683 3.90612 -0.852211 0
M  V30 1352 H 128.123 4.23794 0.132235 0
M  V30 1353 C 126.582 3.16337 1.159 0
M  V30 1354 O 127.112 3.33074 2.24555 0
M  V30 1355 N 125.318 2.70385 1.06491 0
M  V30 1356 H 124.865 2.56966 0.180668 0
M  V30 1357 H 124.823 2.49871 1.90819 0
M  V30 1358 N 128.595 0.856903 1.32268 0
M  V30 1359 C 130.011 0.547061 1.49931 0
M  V30 1360 C 130.211 -0.921781 1.7918 0
M  V30 1361 O 129.267 -1.70469 1.8627 0
M  V30 1362 C 130.58 1.43599 2.64196 0
M  V30 1363 C 132.128 1.43665 2.78081 0
M  V30 1364 C 132.603 2.31085 3.95428 0
M  V30 1365 N 134.094 2.28893 4.02694 0
M  V30 1366 C 134.829 2.93262 4.92732 0
M  V30 1367 N 134.325 3.66751 5.87763 0
M  V30 1368 N 136.118 2.82638 4.85873 0
M  V30 1369 H 128.269 1.8075 1.11549 0
M  V30 1370 H 130.532 0.772144 0.549997 0
M  V30 1371 H 130.238 2.48058 2.49319 0
M  V30 1372 H 130.112 1.12502 3.60032 0
M  V30 1373 H 132.499 0.399701 2.92381 0
M  V30 1374 H 132.58 1.7878 1.82952 0
M  V30 1375 H 132.224 3.34849 3.81888 0
M  V30 1376 H 132.154 1.93302 4.89839 0
M  V30 1377 H 134.645 1.75466 3.34694 0
M  V30 1378 H 134.958 4.13027 6.53168 0
M  V30 1379 H 133.303 3.70859 5.87783 0
M  V30 1380 H 136.494 2.24774 4.10602 0
M  V30 1381 H 136.667 3.33084 5.55841 0
M  V30 1382 N 130.073 -1.45103 0.615059 0
M  V30 1383 C 131.036 -2.29025 -0.0895485 0
M  V30 1384 C 132.036 -1.40174 -0.787906 0
M  V30 1385 O 133.226 -1.62217 -0.634933 0
M  V30 1386 C 130.358 -3.21376 -1.13711 0
M  V30 1387 H 131.551 -2.92807 0.648382 0
M  V30 1388 H 129.104 -1.51749 0.374444 0
M  V30 1389 H 129.839 -2.6241 -1.90556 0
M  V30 1390 H 129.624 -3.86834 -0.640475 0
M  V30 1391 H 131.114 -3.84459 -1.63036 0
M  V30 1392 N 131.551 -0.354651 -1.53558 0
M  V30 1393 C 132.483 0.5315 -2.22952 0
M  V30 1394 C 133.496 1.05503 -1.23988 0
M  V30 1395 O 134.685 0.963279 -1.50277 0
M  V30 1396 C 131.785 1.74538 -2.90499 0
M  V30 1397 C 130.958 1.35524 -4.15875 0
M  V30 1398 C 130.017 2.42999 -4.66731 0
M  V30 1399 O 129.043 2.05844 -5.30676 0
M  V30 1400 N 130.245 3.74423 -4.43608 0
M  V30 1401 H 133.01 -0.0628615 -2.99634 0
M  V30 1402 H 130.571 -0.179302 -1.60904 0
M  V30 1403 H 132.563 2.45892 -3.21433 0
M  V30 1404 H 131.133 2.24686 -2.17336 0
M  V30 1405 H 130.353 0.471998 -3.91364 0
M  V30 1406 H 131.641 1.07071 -4.97406 0
M  V30 1407 H 131.039 4.07391 -3.92491 0
M  V30 1408 H 129.596 4.41913 -4.7912 0
M  V30 1409 N 133.029 1.57378 -0.0835403 0
M  V30 1410 C 134.276 1.9393 0.58287 0
M  V30 1411 C 134.604 0.964455 1.68904 0
M  V30 1412 O 133.859 -0.0179474 1.95692 0
M  V30 1413 C 134.158 3.37063 1.1884 0
M  V30 1414 C 133.824 4.50424 0.207194 0
M  V30 1415 C 132.486 4.81159 -0.0627115 0
M  V30 1416 C 134.838 5.19136 -0.463426 0
M  V30 1417 C 132.166 5.77939 -1.01012 0
M  V30 1418 C 134.518 6.16931 -1.39924 0
M  V30 1419 C 133.182 6.46078 -1.67749 0
M  V30 1420 H 132.452 0.70964 0.213287 0
M  V30 1421 H 135.099 1.90856 -0.156916 0
M  V30 1422 H 133.404 3.3666 2.00418 0
M  V30 1423 H 135.101 3.6264 1.71153 0
M  V30 1424 H 131.691 4.2646 0.427747 0
M  V30 1425 H 135.875 4.95576 -0.268034 0
M  V30 1426 H 131.131 5.98842 -1.23283 0
M  V30 1427 H 135.305 6.69273 -1.92476 0
M  V30 1428 H 132.932 7.2088 -2.41321 0
M  V30 1429 N 134.507 -0.190092 1.56449 0
M  V30 1430 C 135.756 -0.907912 1.80111 0
M  V30 1431 C 136.069 -1.84214 0.657619 0
M  V30 1432 O 137.275 -2.60094 0.778663 0
M  V30 1433 C 135.731 -1.66485 3.19078 0
M  V30 1434 C 135.339 -0.7752 4.41242 0
M  V30 1435 C 137.083 -2.37201 3.52045 0
M  V30 1436 C 134.99 -1.53129 5.71231 0
M  V30 1437 H 133.92 -0.34276 0.671589 0
M  V30 1438 H 136.571 -0.161109 1.82791 0
M  V30 1439 H 134.953 -2.45572 3.10661 0
M  V30 1440 H 136.127 -0.0226298 4.60794 0
M  V30 1441 H 134.442 -0.178627 4.16017 0
M  V30 1442 H 137.039 -2.94329 4.46402 0
M  V30 1443 H 137.382 -3.11632 2.76028 0
M  V30 1444 H 137.915 -1.65075 3.61932 0
M  V30 1445 H 134.654 -0.82967 6.50228 0
M  V30 1446 H 134.174 -2.25767 5.55688 0
M  V30 1447 H 135.853 -2.08377 6.12526 0
M  V30 1448 N 135.985 -1.50799 -0.457987 0
M  V30 1449 C 137.262 -1.52968 -1.21902 0
M  V30 1450 C 137.642 -0.281906 -2.09209 0
M  V30 1451 O 136.99 0.734076 -2.16388 0
M  V30 1452 C 137.2 -2.8326 -2.03875 0
M  V30 1453 C 138.548 -3.34425 -2.6162 0
M  V30 1454 O 139.572 -2.8467 -2.14106 0
M  V30 1455 O 138.431 -4.21188 -3.48228 0
M  V30 1456 H 135.525 -0.614129 -0.553873 0
M  V30 1457 H 138.071 -1.63098 -0.468739 0
M  V30 1458 H 136.843 -3.65543 -1.39621 0
M  V30 1459 H 136.466 -2.76195 -2.8601 0
M  V30 1460 N 137.463 0.71206 -1.40597 0
M  V30 1461 C 138.396 1.83582 -1.35546 0
M  V30 1462 C 139.374 1.61032 -0.225284 0
M  V30 1463 O 140.558 1.83998 -0.409519 0
M  V30 1464 C 137.685 3.19983 -1.11034 0
M  V30 1465 C 136.731 3.61355 -2.2655 0
M  V30 1466 S 137.564 3.68062 -3.88961 0
M  V30 1467 C 138.72 5.07216 -3.66719 0
M  V30 1468 H 138.953 1.87586 -2.30648 0
M  V30 1469 H 136.486 0.879182 -1.26924 0
M  V30 1470 H 138.444 3.98734 -0.975761 0
M  V30 1471 H 137.105 3.13608 -0.175798 0
M  V30 1472 H 136.298 4.60403 -2.0505 0
M  V30 1473 H 135.9 2.8987 -2.36329 0
M  V30 1474 H 138.192 5.94238 -3.25404 0
M  V30 1475 H 139.135 5.33753 -4.6531 0
M  V30 1476 H 139.543 4.77976 -3.00332 0
M  V30 1477 N 138.941 1.26152 0.944643 0
M  V30 1478 C 140.187 1.11657 1.69294 0
M  V30 1479 C 140.52 -0.339926 1.91202 0
M  V30 1480 O 139.795 -1.24994 1.49019 0
M  V30 1481 C 140.078 1.88236 3.06984 0
M  V30 1482 C 139.931 3.41772 2.92424 0
M  V30 1483 C 141.25 1.67343 4.07043 0
M  V30 1484 H 138.369 0.407004 0.614424 0
M  V30 1485 H 141.011 1.55106 1.09737 0
M  V30 1486 H 139.161 1.51308 3.57824 0
M  V30 1487 H 140.833 3.88433 2.48832 0
M  V30 1488 H 139.076 3.68974 2.28124 0
M  V30 1489 H 139.747 3.90579 3.90067 0
M  V30 1490 H 142.223 1.99509 3.65151 0
M  V30 1491 H 141.099 2.23346 5.01406 0
M  V30 1492 H 141.36 0.617158 4.37771 0
M  V30 1493 N 140.419 -1.14872 1.07899 0
M  V30 1494 C 141.367 -2.21857 0.698727 0
M  V30 1495 C 142.361 -1.66845 -0.293086 0
M  V30 1496 O 143.567 -1.79321 -0.156204 0
M  V30 1497 H 139.942 -0.722691 0.207899 0
M  V30 1498 H 141.913 -2.51205 1.61054 0
M  V30 1499 C 140.662 -3.47498 0.11858 0
M  V30 1500 H 139.985 -3.90154 0.872914 0
M  V30 1501 H 141.425 -4.23858 -0.109759 0
M  V30 1502 C 139.884 -3.16947 -1.1422 0
M  V30 1503 O 140.414 -3.3426 -2.22785 0
M  V30 1504 N 138.62 -2.70946 -1.05055 0
M  V30 1505 H 138.167 -2.57058 -0.167038 0
M  V30 1506 H 138.125 -2.50879 -1.89491 0
M  V30 1507 N 141.898 -0.863906 -1.31812 0
M  V30 1508 C 143.314 -0.555004 -1.49639 0
M  V30 1509 C 143.514 0.912266 -1.79666 0
M  V30 1510 O 142.57 1.69479 -1.87171 0
M  V30 1511 C 143.883 -1.44998 -2.63431 0
M  V30 1512 C 145.431 -1.45138 -2.77316 0
M  V30 1513 C 145.906 -2.33179 -3.94197 0
M  V30 1514 N 147.397 -2.31025 -4.01474 0
M  V30 1515 C 148.132 -2.95871 -4.9117 0
M  V30 1516 N 147.628 -3.69863 -5.8581 0
M  V30 1517 N 149.421 -2.85211 -4.84367 0
M  V30 1518 H 141.572 -1.81339 -1.10589 0
M  V30 1519 H 143.835 -0.77505 -0.545895 0
M  V30 1520 H 143.541 -2.49377 -2.48 0
M  V30 1521 H 143.415 -1.14409 -3.59431 0
M  V30 1522 H 145.802 -0.415201 -2.92164 0
M  V30 1523 H 145.883 -1.79747 -1.82001 0
M  V30 1524 H 145.527 -3.3687 -3.80107 0
M  V30 1525 H 145.457 -1.95897 -4.88807 0
M  V30 1526 H 147.948 -1.77238 -3.33759 0
M  V30 1527 H 148.261 -4.16486 -6.50968 0
M  V30 1528 H 146.606 -3.73971 -5.85808 0
M  V30 1529 H 149.797 -2.26948 -4.09405 0
M  V30 1530 H 149.97 -3.36027 -5.54066 0
M  V30 1531 N 143.376 1.44774 -0.622745 0
M  V30 1532 C 144.616 2.04004 -0.127102 0
M  V30 1533 C 144.98 1.47862 1.22478 0
M  V30 1534 O 146.181 1.98541 1.81204 0
M  V30 1535 C 144.452 3.57247 -0.104429 0
M  V30 1536 S 146.011 4.37574 0.327814 0
M  V30 1537 H 142.829 0.708713 -0.0569776 0
M  V30 1538 H 145.431 1.77275 -0.824253 0
M  V30 1539 H 144.135 3.95616 -1.09159 0
M  V30 1540 H 143.666 3.88575 0.614236 0
M  V30 1541 H 145.681 4.70575 1.57395 0
M  V30 1542 N 144.854 0.36279 1.53368 0
M  V30 1543 C 146.079 -0.231226 2.06107 0
M  V30 1544 C 146.504 -1.419 1.23474 0
M  V30 1545 O 145.862 -1.79524 0.253128 0
M  V30 1546 C 145.91 -0.605523 3.5548 0
M  V30 1547 O 145.014 -1.70312 3.7559 0
M  V30 1548 H 144.355 -0.034327 0.663112 0
M  V30 1549 H 146.885 0.522584 1.97814 0
M  V30 1550 H 146.895 -0.877314 3.98456 0
M  V30 1551 H 145.57 0.263004 4.15068 0
M  V30 1552 H 144.147 -1.4271 3.44512 0
M  V30 1553 N 146.332 -1.57332 0.0918853 0
M  V30 1554 C 147.295 -2.12708 -0.85369 0
M  V30 1555 C 148.295 -1.05561 -1.213 0
M  V30 1556 O 149.485 -1.31461 -1.14296 0
M  V30 1557 C 146.617 -2.64503 -2.15061 0
M  V30 1558 H 147.81 -2.97573 -0.3729 0
M  V30 1559 H 145.363 -1.55509 -0.157072 0
M  V30 1560 H 146.098 -1.83149 -2.67632 0
M  V30 1561 H 145.883 -3.4284 -1.90272 0
M  V30 1562 H 147.373 -3.07351 -2.82711 0
M  V30 1563 N 147.81 0.181792 -1.56548 0
M  V30 1564 C 148.773 1.20894 -1.94724 0
M  V30 1565 C 149.773 1.37738 -0.829747 0
M  V30 1566 O 150.963 1.35323 -1.09697 0
M  V30 1567 C 148.095 2.57593 -2.23291 0
M  V30 1568 H 149.288 0.882275 -2.86629 0
M  V30 1569 H 146.841 0.423838 -1.50444 0
M  V30 1570 H 147.576 2.95291 -1.34067 0
M  V30 1571 H 147.361 2.46735 -3.04736 0
M  V30 1572 H 148.851 3.31637 -2.53785 0
M  V30 1573 N 149.288 1.51039 0.449983 0
M  V30 1574 C 150.536 1.62759 1.19808 0
M  V30 1575 C 150.857 0.339981 1.92013 0
M  V30 1576 O 150.127 -0.643606 1.85026 0
M  V30 1577 H 148.707 0.599811 0.445237 0
M  V30 1578 H 151.369 1.87914 0.517138 0
M  V30 1579 H 150.465 2.44911 1.93455 0
M  V30 1580 N 150.766 -0.704594 1.40972 0
M  V30 1581 C 152.012 -1.46675 1.40051 0
M  V30 1582 C 152.345 -1.94199 0.00641102 0
M  V30 1583 O 151.62 -1.68916 -0.964235 0
M  V30 1584 C 151.903 -2.68505 2.39952 0
M  V30 1585 C 151.756 -2.26805 3.88432 0
M  V30 1586 C 153.075 -3.70686 2.37233 0
M  V30 1587 H 150.194 -0.532015 0.510028 0
M  V30 1588 H 152.836 -0.803255 1.72185 0
M  V30 1589 H 150.986 -3.25114 2.1268 0
M  V30 1590 H 152.658 -1.75592 4.26574 0
M  V30 1591 H 150.901 -1.58685 4.03734 0
M  V30 1592 H 151.572 -3.14181 4.53866 0
M  V30 1593 H 154.048 -3.23731 2.61415 0
M  V30 1594 H 152.924 -4.53553 3.09162 0
M  V30 1595 H 153.185 -4.19754 1.38777 0
M  V30 1596 N 152.244 -1.26651 -0.937939 0
M  V30 1597 C 153.521 -1.0313 -1.66204 0
M  V30 1598 C 153.901 0.437256 -2.06522 0
M  V30 1599 O 153.249 1.41831 -1.79154 0
M  V30 1600 C 153.459 -1.98314 -2.87181 0
M  V30 1601 C 154.807 -2.27107 -3.58758 0
M  V30 1602 O 155.831 -1.96205 -2.97291 0
M  V30 1603 O 154.69 -2.79736 -4.69479 0
M  V30 1604 H 151.784 -0.392384 -0.727986 0
M  V30 1605 H 154.33 -1.37874 -0.989382 0
M  V30 1606 H 153.102 -2.97399 -2.54302 0
M  V30 1607 H 152.725 -1.64068 -3.6217 0
M  V30 1608 N 153.722 1.14298 -1.08507 0
M  V30 1609 C 154.971 1.84708 -0.810305 0
M  V30 1610 C 155.284 1.83903 0.666271 0
M  V30 1611 O 156.49 2.50112 1.05624 0
M  V30 1612 C 154.946 3.31572 -1.39957 0
M  V30 1613 C 154.554 3.40791 -2.90801 0
M  V30 1614 C 156.298 4.07087 -1.20334 0
M  V30 1615 C 154.205 4.81872 -3.4286 0
M  V30 1616 H 153.135 0.691985 -0.299454 0
M  V30 1617 H 155.786 1.28841 -1.30661 0
M  V30 1618 H 154.168 3.87183 -0.830976 0
M  V30 1619 H 155.342 2.95225 -3.53806 0
M  V30 1620 H 153.657 2.78732 -3.0935 0
M  V30 1621 H 156.254 5.11225 -1.56693 0
M  V30 1622 H 156.597 4.16054 -0.143237 0
M  V30 1623 H 157.13 3.57779 -1.73893 0
M  V30 1624 H 153.869 4.78094 -4.48449 0
M  V30 1625 H 153.389 5.27972 -2.84615 0
M  V30 1626 H 155.068 5.50765 -3.39509 0
M  V30 1627 N 155.201 0.870884 1.31352 0
M  V30 1628 C 156.431 0.496049 2.00557 0
M  V30 1629 C 156.839 -0.916241 1.65534 0
M  V30 1630 O 156.182 -1.61188 0.881134 0
M  V30 1631 C 156.244 0.574418 3.54881 0
M  V30 1632 C 155.908 1.94849 4.1338 0
M  V30 1633 C 156.905 2.91611 4.30417 0
M  V30 1634 C 154.59 2.25005 4.49086 0
M  V30 1635 C 156.584 4.16672 4.82352 0
M  V30 1636 C 154.271 3.50315 5.00722 0
M  V30 1637 C 155.269 4.45964 5.17306 0
M  V30 1638 O 154.957 5.69052 5.67833 0
M  V30 1639 H 154.689 0.191664 0.64826 0
M  V30 1640 H 157.243 1.17409 1.68536 0
M  V30 1641 H 155.473 -0.160549 3.86367 0
M  V30 1642 H 157.162 0.212879 4.05341 0
M  V30 1643 H 157.928 2.69622 4.03149 0
M  V30 1644 H 153.807 1.51332 4.35453 0
M  V30 1645 H 157.351 4.91336 4.95211 0
M  V30 1646 H 153.248 3.72147 5.27424 0
M  V30 1647 H 154.016 5.71236 5.86201 0
M  V30 1648 N 156.679 -1.44442 0.630414 0
M  V30 1649 C 157.925 -2.02351 0.134816 0
M  V30 1650 C 158.258 -1.4947 -1.23986 0
M  V30 1651 O 157.533 -0.678475 -1.82283 0
M  V30 1652 C 157.816 -3.59898 0.120707 0
M  V30 1653 C 157.669 -4.23063 1.52767 0
M  V30 1654 C 158.988 -4.36585 -0.555127 0
M  V30 1655 H 156.107 -0.73527 0.0504646 0
M  V30 1656 H 158.749 -1.72022 0.806751 0
M  V30 1657 H 156.899 -3.85868 -0.451477 0
M  V30 1658 H 158.571 -4.08202 2.14869 0
M  V30 1659 H 156.814 -3.80586 2.08175 0
M  V30 1660 H 157.485 -5.32071 1.46984 0
M  V30 1661 H 159.961 -4.16044 -0.0685429 0
M  V30 1662 H 158.837 -5.46294 -0.534185 0
M  V30 1663 H 159.098 -4.11138 -1.62535 0
M  V30 1664 N 158.157 -0.370918 -1.53173 0
M  V30 1665 C 159.434 0.273754 -1.93675 0
M  V30 1666 C 159.814 1.65938 -1.3049 0
M  V30 1667 O 159.162 2.23698 -0.465999 0
M  V30 1668 C 159.372 0.318602 -3.47543 0
M  V30 1669 C 160.72 0.556392 -4.20939 0
M  V30 1670 O 161.744 0.399587 -3.53952 0
M  V30 1671 O 160.603 0.862133 -5.39657 0
M  V30 1672 H 157.697 0.165448 -0.810281 0
M  V30 1673 H 160.243 -0.42409 -1.64315 0
M  V30 1674 H 159.015 -0.652687 -3.85818 0
M  V30 1675 H 158.638 1.06212 -3.83151 0
M  V30 1676 N 159.635 1.57281 -0.100228 0
M  V30 1677 C 160.863 1.98879 0.570509 0
M  V30 1678 C 161.278 0.979476 1.61405 0
M  V30 1679 O 160.635 -0.0302288 1.82475 0
M  V30 1680 C 160.686 3.4052 1.2136 0
M  V30 1681 O 160.407 4.37588 0.211786 0
M  V30 1682 C 161.908 3.97149 1.96945 0
M  V30 1683 H 159.128 0.653428 0.152555 0
M  V30 1684 H 161.672 2.03697 -0.18103 0
M  V30 1685 H 159.827 3.367 1.91603 0
M  V30 1686 H 160.241 5.20118 0.676607 0
M  V30 1687 H 161.715 4.98393 2.37294 0
M  V30 1688 H 162.192 3.3525 2.83733 0
M  V30 1689 H 162.798 4.04458 1.31506 0
M  V30 1690 N 161.113 -0.173488 1.56642 0
M  V30 1691 C 162.043 -1.2171 1.99271 0
M  V30 1692 C 163.024 -1.46289 0.867959 0
M  V30 1693 O 164.209 -1.5766 1.13388 0
M  V30 1694 C 161.339 -2.55651 2.35074 0
M  V30 1695 C 160.293 -2.45645 3.50489 0
M  V30 1696 C 159.619 -3.84056 3.72028 0
M  V30 1697 C 160.919 -1.96302 4.84007 0
M  V30 1698 H 162.613 -0.86275 2.867 0
M  V30 1699 H 160.159 -0.413571 1.37933 0
M  V30 1700 H 162.112 -3.2886 2.63494 0
M  V30 1701 H 160.836 -2.92869 1.44552 0
M  V30 1702 H 159.495 -1.7489 3.22194 0
M  V30 1703 H 159.143 -4.18664 2.788 0
M  V30 1704 H 158.843 -3.7823 4.49684 0
M  V30 1705 H 160.367 -4.58854 4.02846 0
M  V30 1706 H 161.781 -2.59284 5.11317 0
M  V30 1707 H 160.178 -2.01429 5.65284 0
M  V30 1708 H 161.248 -0.917226 4.76146 0
M  V30 1709 N 162.591 -1.51276 -0.441967 0
M  V30 1710 C 163.84 -1.6295 -1.18871 0
M  V30 1711 C 164.153 -0.349312 -1.92456 0
M  V30 1712 O 165.359 -0.345355 -2.69295 0
M  V30 1713 C 163.815 -2.87759 -2.16155 0
M  V30 1714 C 163.423 -4.22764 -1.48239 0
M  V30 1715 C 165.167 -3.08788 -2.91291 0
M  V30 1716 C 163.074 -5.38728 -2.4398 0
M  V30 1717 H 162.004 -0.606913 -0.447406 0
M  V30 1718 H 164.655 -1.77739 -0.456205 0
M  V30 1719 H 163.037 -2.66593 -2.92821 0
M  V30 1720 H 164.211 -4.54293 -0.771635 0
M  V30 1721 H 162.526 -4.07575 -0.852741 0
M  V30 1722 H 165.123 -3.92599 -3.63002 0
M  V30 1723 H 165.466 -2.21679 -3.5237 0
M  V30 1724 H 165.999 -3.30272 -2.21733 0
M  V30 1725 H 162.738 -6.28082 -1.87598 0
M  V30 1726 H 162.258 -5.1158 -3.13123 0
M  V30 1727 H 163.937 -5.70489 -3.05207 0
M  V30 1728 N 164.069 0.697108 -1.41344 0
M  V30 1729 C 165.017 1.83237 -1.43272 0
M  V30 1730 C 166.011 1.66522 -0.310947 0
M  V30 1731 O 167.217 1.73402 -0.482899 0
M  V30 1732 H 163.592 0.603802 -0.448249 0
M  V30 1733 H 165.563 1.78727 -2.38954 0
M  V30 1734 C 164.312 3.21245 -1.33029 0
M  V30 1735 H 163.635 3.34723 -2.18633 0
M  V30 1736 H 165.075 4.00763 -1.38439 0
M  V30 1737 C 163.534 3.36873 -0.0424635 0
M  V30 1738 O 164.064 3.91177 0.913421 0
M  V30 1739 N 162.27 2.90581 0.0331145 0
M  V30 1740 H 161.817 2.46577 -0.745506 0
M  V30 1741 H 161.775 3.01416 0.894199 0
M  V30 1742 N 165.547 1.27147 0.931209 0
M  V30 1743 C 166.497 1.06227 2.01742 0
M  V30 1744 C 167.481 -0.00859065 1.60898 0
M  V30 1745 O 168.673 0.209537 1.75755 0
M  V30 1746 C 165.802 0.707787 3.35924 0
M  V30 1747 C 164.888 1.81661 3.83223 0
M  V30 1748 N 165.279 3.05564 4.03069 0
M  V30 1749 C 163.577 1.70249 4.12227 0
M  V30 1750 C 164.278 3.77697 4.42403 0
M  V30 1751 N 163.254 3.0544 4.49675 0
M  V30 1752 H 167.056 2.00261 2.15111 0
M  V30 1753 H 164.57 1.1781 1.11779 0
M  V30 1754 H 166.567 0.539043 4.134 0
M  V30 1755 H 165.227 -0.224964 3.2392 0
M  V30 1756 H 166.238 3.41363 3.89476 0
M  V30 1757 H 162.915 0.840329 4.08956 0
M  V30 1758 H 164.305 4.84168 4.65866 0
M  V30 1759 N 167.025 -1.13721 1.09112 0
M  V30 1760 C 167.958 -2.18094 0.67158 0
M  V30 1761 C 168.936 -1.59414 -0.320299 0
M  V30 1762 O 170.12 -1.87183 -0.222444 0
M  V30 1763 C 167.247 -3.38698 -0.0111189 0
M  V30 1764 C 166.293 -4.15966 0.942055 0
M  V30 1765 S 167.126 -4.7604 2.45246 0
M  V30 1766 C 168.282 -5.99994 1.78208 0
M  V30 1767 H 168.515 -2.53344 1.55577 0
M  V30 1768 H 166.048 -1.24967 0.906789 0
M  V30 1769 H 168.006 -4.08559 -0.398716 0
M  V30 1770 H 166.667 -3.01756 -0.871905 0
M  V30 1771 H 165.86 -5.02318 0.411396 0
M  V30 1772 H 165.462 -3.51745 1.2709 0
M  V30 1773 H 167.754 -6.68441 1.10424 0
M  V30 1774 H 168.697 -6.57662 2.62463 0
M  V30 1775 H 169.105 -5.50432 1.25238 0
M  V30 1776 N 168.503 -0.877838 -1.30888 0
M  V30 1777 C 169.466 -0.344265 -2.266 0
M  V30 1778 C 170.466 0.50922 -1.52524 0
M  V30 1779 O 171.656 0.317398 -1.71284 0
M  V30 1780 C 168.788 0.510198 -3.37061 0
M  V30 1781 H 169.981 -1.1893 -2.7531 0
M  V30 1782 H 167.534 -0.654088 -1.41956 0
M  V30 1783 H 168.269 1.37612 -2.93655 0
M  V30 1784 H 168.054 -0.101047 -3.9197 0
M  V30 1785 H 169.544 0.875537 -4.08319 0
M  V30 1786 N 169.982 1.44106 -0.638065 0
M  V30 1787 C 170.945 2.29138 0.0531013 0
M  V30 1788 C 171.945 1.41409 0.765506 0
M  V30 1789 O 173.135 1.63206 0.609046 0
M  V30 1790 C 170.267 3.23144 1.08584 0
M  V30 1791 H 171.46 2.91739 -0.694883 0
M  V30 1792 H 169.013 1.51134 -0.398538 0
M  V30 1793 H 169.748 2.65408 1.86357 0
M  V30 1794 H 169.533 3.87804 0.578852 0
M  V30 1795 H 171.023 3.87004 1.56899 0
M  V30 1796 N 171.46 0.379036 1.52974 0
M  V30 1797 C 172.708 -0.206014 2.01047 0
M  V30 1798 C 173.029 -1.48175 1.26765 0
M  V30 1799 O 172.299 -1.92085 0.384743 0
M  V30 1800 H 170.879 -0.0791184 0.742798 0
M  V30 1801 H 173.541 0.508366 1.88153 0
M  V30 1802 H 172.637 -0.423501 3.09213 0
M  V30 1803 N 172.938 -1.57226 0.108567 0
M  V30 1804 C 174.163 -1.99604 -0.563303 0
M  V30 1805 C 174.588 -0.987563 -1.6009 0
M  V30 1806 O 173.946 0.0421687 -1.81251 0
M  V30 1807 C 173.994 -3.40902 -1.17552 0
M  V30 1808 O 173.098 -3.42896 -2.2912 0
M  V30 1809 H 172.439 -0.648704 -0.1417 0
M  V30 1810 H 174.969 -2.03679 0.193961 0
M  V30 1811 H 174.979 -3.78886 -1.51357 0
M  V30 1812 H 173.654 -4.1382 -0.415445 0
M  V30 1813 H 172.231 -3.1672 -1.96832 0
M  V30 1814 N 174.416 0.165178 -1.56732 0
M  V30 1815 C 175.664 0.879068 -1.8198 0
M  V30 1816 C 175.985 1.82514 -0.686561 0
M  V30 1817 O 175.255 1.93694 0.293146 0
M  V30 1818 H 173.835 0.327608 -0.671329 0
M  V30 1819 H 176.497 0.163526 -1.94213 0
M  V30 1820 H 175.593 1.45228 -2.76252 0
M  V30 1821 N 175.894 1.51508 0.433938 0
M  V30 1822 C 177.122 1.68157 1.20543 0
M  V30 1823 C 177.537 0.380362 1.84929 0
M  V30 1824 O 176.894 -0.641446 1.70856 0
M  V30 1825 C 176.945 2.79965 2.28696 0
M  V30 1826 O 176.666 4.05045 1.66943 0
M  V30 1827 C 178.167 3.07912 3.18912 0
M  V30 1828 H 175.387 0.56421 0.363191 0
M  V30 1829 H 177.931 1.97941 0.513754 0
M  V30 1830 H 176.086 2.5277 2.93574 0
M  V30 1831 H 176.5 4.67165 2.38448 0
M  V30 1832 H 177.974 3.89719 3.90926 0
M  V30 1833 H 178.451 2.20456 3.79863 0
M  V30 1834 H 179.057 3.36779 2.59731 0
M  V30 1835 N 177.372 -0.689602 1.41712 0
M  V30 1836 C 178.62 -1.4468 1.4111 0
M  V30 1837 C 178.941 -1.94986 0.0232196 0
M  V30 1838 O 178.211 -1.72097 -0.935913 0
M  V30 1839 H 176.791 -0.536847 0.519427 0
M  V30 1840 H 179.453 -0.815825 1.77004 0
M  V30 1841 H 178.549 -2.30706 2.10193 0
M  V30 1842 N 178.85 -1.27639 -0.924453 0
M  V30 1843 C 180.078 -1.16989 -1.70649 0
M  V30 1844 C 180.493 0.272869 -1.86818 0
M  V30 1845 O 179.85 1.18549 -1.38753 0
M  V30 1846 C 179.901 -1.85229 -3.10439 0
M  V30 1847 O 179.622 -3.23868 -2.95028 0
M  V30 1848 C 181.123 -1.80746 -4.04779 0
M  V30 1849 H 178.343 -0.406595 -0.53378 0
M  V30 1850 H 180.887 -1.68569 -1.15778 0
M  V30 1851 H 179.042 -1.37545 -3.6216 0
M  V30 1852 H 179.456 -3.57889 -3.83426 0
M  V30 1853 H 180.93 -2.33101 -5.00368 0
M  V30 1854 H 181.407 -0.777499 -4.32263 0
M  V30 1855 H 182.013 -2.28059 -3.58984 0
M  V30 1856 N 180.328 1.1314 -1.09713 0
M  V30 1857 C 181.291 2.16831 -0.742751 0
M  V30 1858 C 182.291 1.59159 0.229129 0
M  V30 1859 O 183.481 1.74199 0.00693237 0
M  V30 1860 C 180.613 3.40756 -0.0989168 0
M  V30 1861 H 181.806 2.49695 -1.66109 0
M  V30 1862 H 179.359 1.2802 -0.896699 0
M  V30 1863 H 180.094 3.13485 0.830514 0
M  V30 1864 H 179.879 3.83888 -0.798265 0
M  V30 1865 H 181.369 4.17386 0.133524 0
M  V30 1866 N 181.806 0.884767 1.30421 0
M  V30 1867 C 183.054 0.502112 1.95763 0
M  V30 1868 C 183.375 -0.951815 1.70192 0
M  V30 1869 O 182.645 -1.6692 1.0254 0
M  V30 1870 H 181.225 0.182694 0.724315 0
M  V30 1871 H 183.887 1.1278 1.58955 0
M  V30 1872 H 182.983 0.672188 3.04775 0
M  V30 1873 N 183.284 -1.43765 0.645699 0
M  V30 1874 C 184.232 -2.32516 -0.0624849 0
M  V30 1875 C 185.226 -1.48183 -0.820855 0
M  V30 1876 O 186.432 -1.64439 -0.732106 0
M  V30 1877 H 182.807 -0.750989 -0.0389864 0
M  V30 1878 H 184.778 -2.89979 0.703892 0
M  V30 1879 C 183.527 -3.32389 -1.02044 0
M  V30 1880 H 182.85 -3.97301 -0.446312 0
M  V30 1881 H 184.29 -3.97138 -1.48517 0
M  V30 1882 C 182.749 -2.62416 -2.11281 0
M  V30 1883 O 183.279 -2.434 -3.19561 0
M  V30 1884 N 181.485 -2.21913 -1.87624 0
M  V30 1885 H 181.032 -2.37578 -0.995703 0
M  V30 1886 H 180.99 -1.75424 -2.6091 0
M  V30 1887 N 184.763 -0.387143 -1.52771 0
M  V30 1888 C 185.988 0.198407 -2.06449 0
M  V30 1889 C 186.413 1.39918 -1.25716 0
M  V30 1890 O 185.771 1.79099 -0.281657 0
M  V30 1891 C 185.819 0.548893 -3.56398 0
M  V30 1892 O 184.923 1.64315 -3.78252 0
M  V30 1893 H 184.264 0.0237731 -0.663574 0
M  V30 1894 H 186.794 -0.553989 -1.96957 0
M  V30 1895 H 186.804 0.813812 -3.99801 0
M  V30 1896 H 185.479 -0.329005 -4.14597 0
M  V30 1897 H 184.056 1.37211 -3.46738 0
M  V30 1898 N 186.241 1.57166 -0.116904 0
M  V30 1899 C 187.488 1.95123 0.541603 0
M  V30 1900 C 187.816 1.00006 1.6682 0
M  V30 1901 O 187.071 0.0235658 1.95686 0
M  V30 1902 C 187.37 3.39508 1.11664 0
M  V30 1903 C 187.036 4.50762 0.111606 0
M  V30 1904 C 185.698 4.80918 -0.164758 0
M  V30 1905 C 188.05 5.18036 -0.573438 0
M  V30 1906 C 185.378 5.75666 -1.13249 0
M  V30 1907 C 187.73 6.13824 -1.52978 0
M  V30 1908 C 186.394 6.42374 -1.81415 0
M  V30 1909 H 185.664 0.714005 0.198187 0
M  V30 1910 H 188.311 1.9048 -0.197365 0
M  V30 1911 H 186.616 3.40835 1.93232 0
M  V30 1912 H 188.313 3.66189 1.63422 0
M  V30 1913 H 184.903 4.27272 0.337192 0
M  V30 1914 H 189.087 4.94896 -0.373092 0
M  V30 1915 H 184.343 5.96092 -1.35958 0
M  V30 1916 H 188.517 6.65039 -2.06629 0
M  V30 1917 H 186.144 7.15599 -2.56557 0
M  V30 1918 N 187.719 -0.156864 1.56817 0
M  V30 1919 C 188.967 -0.869404 1.82444 0
M  V30 1920 C 189.288 -1.82147 0.69623 0
M  V30 1921 O 188.558 -1.93847 -0.28287 0
M  V30 1922 H 187.138 -0.324043 0.673056 0
M  V30 1923 H 189.8 -0.153224 1.94297 0
M  V30 1924 H 188.896 -1.43761 2.77019 0
M  V30 1925 N 189.197 -1.51736 -0.425897 0
M  V30 1926 C 190.145 -1.74464 -1.53834 0
M  V30 1927 C 191.139 -0.611241 -1.57988 0
M  V30 1928 O 192.345 -0.792899 -1.61596 0
M  V30 1929 H 188.72 -0.551437 -0.511293 0
M  V30 1930 H 190.691 -2.67694 -1.31843 0
M  V30 1931 C 189.44 -1.8972 -2.91379 0
M  V30 1932 H 188.763 -2.76344 -2.88919 0
M  V30 1933 H 190.203 -2.09629 -3.68553 0
M  V30 1934 C 188.662 -0.65992 -3.30374 0
M  V30 1935 O 189.192 0.180083 -4.01296 0
M  V30 1936 N 187.398 -0.500677 -2.86254 0
M  V30 1937 H 186.945 -1.18532 -2.28709 0
M  V30 1938 H 186.903 0.325903 -3.12706 0
M  V30 1939 N 190.675 0.682077 -1.42076 0
M  V30 1940 C 191.622 1.79578 -1.44984 0
M  V30 1941 C 192.592 1.6332 -0.302614 0
M  V30 1942 O 193.777 1.83978 -0.505633 0
M  V30 1943 C 190.917 3.1756 -1.35091 0
M  V30 1944 C 190.03 3.45156 -2.59791 0
M  V30 1945 C 189.165 4.72826 -2.42093 0
M  V30 1946 C 188.204 4.93433 -3.62202 0
M  V30 1947 N 187.341 6.12338 -3.43491 0
M  V30 1948 H 192.181 1.76427 -2.40161 0
M  V30 1949 H 189.718 0.861376 -1.19242 0
M  V30 1950 H 191.676 3.97287 -1.27354 0
M  V30 1951 H 190.306 3.19854 -0.435133 0
M  V30 1952 H 189.358 2.59736 -2.77923 0
M  V30 1953 H 190.67 3.5628 -3.49094 0
M  V30 1954 H 189.824 5.60631 -2.319 0
M  V30 1955 H 188.563 4.63973 -1.50268 0
M  V30 1956 H 187.568 4.04073 -3.72834 0
M  V30 1957 H 188.793 5.04136 -4.54998 0
M  V30 1958 H 186.739 6.04672 -2.54377 0
M  V30 1959 H 186.656 6.2429 -4.26377 0
M  V30 1960 H 187.924 7.02841 -3.37097 0
M  V30 1961 N 192.153 1.28127 0.917671 0
M  V30 1962 C 193.378 1.18007 1.70555 0
M  V30 1963 C 193.803 -0.258257 1.86319 0
M  V30 1964 O 193.161 -1.1869 1.37049 0
M  V30 1965 C 193.209 1.87948 3.07746 0
M  V30 1966 O 192.313 1.18427 3.9503 0
M  V30 1967 H 191.654 0.409867 0.522403 0
M  V30 1968 H 194.184 1.69379 1.1477 0
M  V30 1969 H 194.194 1.95701 3.58001 0
M  V30 1970 H 192.869 2.92573 2.95591 0
M  V30 1971 H 191.446 1.18811 3.53466 0
M  V30 1972 N 193.631 -1.12557 1.10312 0
M  V30 1973 C 194.878 -1.84038 0.844759 0
M  V30 1974 C 195.206 -1.84026 -0.629668 0
M  V30 1975 O 194.461 -1.28026 -1.48013 0
M  V30 1976 C 194.76 -3.31462 1.33669 0
M  V30 1977 C 194.426 -3.51647 2.82232 0
M  V30 1978 C 193.088 -3.56864 3.22802 0
M  V30 1979 C 195.44 -3.58867 3.77974 0
M  V30 1980 C 192.768 -3.66844 4.57867 0
M  V30 1981 C 195.12 -3.70375 5.1284 0
M  V30 1982 C 193.784 -3.73848 5.52986 0
M  V30 1983 H 193.054 -0.673444 0.309119 0
M  V30 1984 H 195.701 -1.32824 1.37949 0
M  V30 1985 H 194.006 -3.85091 0.721949 0
M  V30 1986 H 195.703 -3.85236 1.11329 0
M  V30 1987 H 192.293 -3.48249 2.49842 0
M  V30 1988 H 196.477 -3.54107 3.47738 0
M  V30 1989 H 191.733 -3.67804 4.88396 0
M  V30 1990 H 195.907 -3.74904 5.86873 0
M  V30 1991 H 193.534 -3.81333 6.57639 0
M  V30 1992 N 195.109 -0.891671 -1.2995 0
M  V30 1993 C 196.52 -0.563104 -1.78006 0
M  V30 1994 C 196.871 0.920978 -1.73241 0
M  V30 1995 O 195.996 1.71987 -1.31337 0
M  V30 1996 C 196.591 -1.01539 -3.23226 0
M  V30 1997 C 195.15 -0.738124 -3.69092 0
M  V30 1998 C 194.297 -1.19461 -2.50249 0
M  V30 1999 H 197.248 -1.07522 -1.16725 0
M  V30 2000 H 197.269 -0.347217 -3.78912 0
M  V30 2001 H 196.781 -2.09555 -3.26662 0
M  V30 2002 H 194.882 0.329766 -3.71138 0
M  V30 2003 H 194.995 -1.33037 -4.60259 0
M  V30 2004 H 193.359 -0.613787 -2.47194 0
M  V30 2005 H 194.142 -2.28265 -2.56417 0
M  V30 2006 N 196.587 1.43421 -0.653314 0
M  V30 2007 C 197.836 2.01032 -0.164076 0
M  V30 2008 C 198.149 1.52147 1.22926 0
M  V30 2009 O 199.355 2.02031 1.81371 0
M  V30 2010 C 197.811 3.59082 -0.24252 0
M  V30 2011 C 197.419 4.1696 -1.63855 0
M  V30 2012 C 199.163 4.24079 0.18911 0
M  V30 2013 C 197.07 5.67304 -1.67092 0
M  V30 2014 H 196 0.751798 -0.0575769 0
M  V30 2015 H 198.651 1.6439 -0.815362 0
M  V30 2016 H 197.033 3.93125 0.476276 0
M  V30 2017 H 198.207 3.94416 -2.38271 0
M  V30 2018 H 196.522 3.64335 -2.01616 0
M  V30 2019 H 199.119 5.34381 0.184775 0
M  V30 2020 H 199.462 3.98005 1.22056 0
M  V30 2021 H 199.995 3.94918 -0.477938 0
M  V30 2022 H 196.734 5.98145 -2.68146 0
M  V30 2023 H 196.254 5.91904 -0.970014 0
M  V30 2024 H 197.933 6.31344 -1.4147 0
M  V30 2025 N 198.065 0.39524 1.52563 0
M  V30 2026 C 199.295 -0.184675 2.05773 0
M  V30 2027 C 199.703 -1.40571 1.26635 0
M  V30 2028 O 199.046 -1.81105 0.30769 0
M  V30 2029 C 199.108 -0.613551 3.54226 0
M  V30 2030 C 198.772 0.49484 4.54313 0
M  V30 2031 C 199.769 1.3541 5.01956 0
M  V30 2032 C 197.454 0.663565 4.97898 0
M  V30 2033 C 199.448 2.36716 5.91814 0
M  V30 2034 C 197.135 1.67996 5.87555 0
M  V30 2035 C 198.133 2.53017 6.34406 0
M  V30 2036 O 197.821 3.52917 7.22291 0
M  V30 2037 H 197.553 -0.030077 0.675331 0
M  V30 2038 H 200.107 0.560708 1.97599 0
M  V30 2039 H 198.337 -1.411 3.60038 0
M  V30 2040 H 200.026 -1.11981 3.90148 0
M  V30 2041 H 200.792 1.23509 4.6901 0
M  V30 2042 H 196.671 0.0114913 4.60999 0
M  V30 2043 H 200.215 3.03113 6.28306 0
M  V30 2044 H 196.112 1.79933 6.19915 0
M  V30 2045 H 196.88 3.48996 7.40367 0
M  V30 2046 N 199.544 -1.57102 0.125237 0
M  V30 2047 C 200.769 -2.0019 -0.542101 0
M  V30 2048 C 201.194 -1.00449 -1.59034 0
M  V30 2049 O 200.552 0.0229423 -1.81285 0
M  V30 2050 C 200.6 -3.42129 -1.13929 0
M  V30 2051 O 199.704 -3.45307 -2.2547 0
M  V30 2052 H 199.045 -0.650171 -0.134812 0
M  V30 2053 H 201.575 -2.03461 0.215553 0
M  V30 2054 H 201.585 -3.80471 -1.4733 0
M  V30 2055 H 200.26 -4.14237 -0.371531 0
M  V30 2056 H 198.837 -3.1879 -1.93462 0
M  V30 2057 N 201.022 0.148545 -1.56898 0
M  V30 2058 C 202.433 0.708766 -1.72723 0
M  V30 2059 C 202.784 1.81734 -0.739395 0
M  V30 2060 O 201.909 2.16194 0.0943169 0
M  V30 2061 C 202.504 1.29245 -3.13179 0
M  V30 2062 C 201.063 1.79925 -3.30611 0
M  V30 2063 C 200.21 0.687111 -2.68652 0
M  V30 2064 H 203.161 -0.0771063 -1.58513 0
M  V30 2065 H 203.182 2.16224 -3.13093 0
M  V30 2066 H 202.694 0.485382 -3.85053 0
M  V30 2067 H 200.795 2.63203 -2.63732 0
M  V30 2068 H 200.908 1.92903 -4.38549 0
M  V30 2069 H 199.272 1.11335 -2.29078 0
M  V30 2070 H 200.055 -0.108483 -3.43129 0
M  V30 2071 N 202.5 1.5196 0.417844 0
M  V30 2072 C 203.432 1.70895 1.52733 0
M  V30 2073 C 204.445 0.589405 1.51756 0
M  V30 2074 O 205.634 0.864312 1.56179 0
M  V30 2075 C 202.734 1.72627 2.91639 0
M  V30 2076 C 201.907 3.01479 3.16905 0
M  V30 2077 C 200.966 2.95139 4.35637 0
M  V30 2078 O 199.992 3.69059 4.3334 0
M  V30 2079 N 201.194 2.12328 5.40275 0
M  V30 2080 H 203.959 2.66612 1.36888 0
M  V30 2081 H 201.52 1.50089 0.607037 0
M  V30 2082 H 203.512 1.65928 3.6912 0
M  V30 2083 H 202.082 0.844216 3.00985 0
M  V30 2084 H 201.302 3.21895 2.27546 0
M  V30 2085 H 202.59 3.86736 3.30625 0
M  V30 2086 H 201.988 1.51685 5.44985 0
M  V30 2087 H 200.545 2.11494 6.16534 0
M  V30 2088 N 203.978 -0.674533 1.42435 0
M  V30 2089 C 205.255 -1.4305 1.33402 0
M  V30 2090 C 205.635 -2.11081 -0.0284674 0
M  V30 2091 O 204.983 -2.03257 -1.04397 0
M  V30 2092 C 205.193 -2.43272 2.50239 0
M  V30 2093 C 206.541 -3.07907 2.92367 0
M  V30 2094 O 207.565 -2.53599 2.50132 0
M  V30 2095 O 206.424 -4.0632 3.65467 0
M  V30 2096 H 203.518 -0.638076 0.526106 0
M  V30 2097 H 206.064 -0.703235 1.54443 0
M  V30 2098 H 204.836 -1.91803 3.41068 0
M  V30 2099 H 204.459 -3.23479 2.31186 0
M  V30 2100 N 205.456 -1.28612 -0.910864 0
M  V30 2101 C 206.703 -1.15934 -1.66029 0
M  V30 2102 C 207.031 0.291483 -1.92303 0
M  V30 2103 O 206.286 1.22816 -1.52364 0
M  V30 2104 C 206.585 -1.90624 -3.0232 0
M  V30 2105 C 206.251 -3.40405 -2.95695 0
M  V30 2106 C 204.913 -3.81255 -2.93595 0
M  V30 2107 C 207.265 -4.359 -2.85728 0
M  V30 2108 C 204.593 -5.15936 -2.79334 0
M  V30 2109 C 206.945 -5.70657 -2.73007 0
M  V30 2110 C 205.609 -6.10779 -2.69267 0
M  V30 2111 H 204.879 -0.424234 -0.607541 0
M  V30 2112 H 207.526 -1.5942 -1.06101 0
M  V30 2113 H 205.831 -1.39696 -3.6605 0
M  V30 2114 H 207.528 -1.78228 -3.59215 0
M  V30 2115 H 204.118 -3.07927 -2.98125 0
M  V30 2116 H 208.302 -4.053 -2.86436 0
M  V30 2117 H 203.558 -5.46146 -2.74835 0
M  V30 2118 H 207.732 -6.44311 -2.64264 0
M  V30 2119 H 205.359 -7.1509 -2.57974 0
M  V30 2120 N 206.934 1.1197 -1.10907 0
M  V30 2121 C 207.884 2.15946 -0.731538 0
M  V30 2122 C 208.868 1.58758 0.261699 0
M  V30 2123 O 210.06 1.76863 0.0696722 0
M  V30 2124 C 207.189 3.42877 -0.170299 0
M  V30 2125 C 206.275 4.07037 -1.19087 0
M  V30 2126 N 206.666 4.46135 -2.38322 0
M  V30 2127 C 204.964 4.33884 -1.03252 0
M  V30 2128 C 205.665 4.96331 -3.03366 0
M  V30 2129 N 204.641 4.9214 -2.30865 0
M  V30 2130 H 208.443 2.43947 -1.63912 0
M  V30 2131 H 205.957 1.28927 -0.987505 0
M  V30 2132 H 207.954 4.16732 0.118271 0
M  V30 2133 H 206.614 3.16343 0.731935 0
M  V30 2134 H 207.625 4.38345 -2.75815 0
M  V30 2135 H 204.302 4.17084 -0.186256 0
M  V30 2136 H 205.692 5.36257 -4.04818 0
M  V30 2137 N 208.412 0.89855 1.29475 0
M  V30 2138 C 209.322 0.379974 2.31502 0
M  V30 2139 C 210.338 -0.524695 1.659 0
M  V30 2140 O 211.514 -0.414551 1.97087 0
M  V30 2141 C 208.579 -0.385138 3.44554 0
M  V30 2142 C 207.64 0.550914 4.2575 0
M  V30 2143 C 206.873 -0.177778 5.33404 0
M  V30 2144 O 207.096 -1.40189 5.52904 0
M  V30 2145 O 206.03 0.479106 5.9999 0
M  V30 2146 H 209.856 1.22639 2.77837 0
M  V30 2147 H 207.441 0.662834 1.33891 0
M  V30 2148 H 209.323 -0.817841 4.13388 0
M  V30 2149 H 207.998 -1.20763 3.0033 0
M  V30 2150 H 206.905 1.03271 3.59564 0
M  V30 2151 H 208.238 1.33979 4.73614 0
M  V30 2152 N 209.89 -1.43072 0.660911 0
M  V30 2153 C 211.115 -2.06584 0.183805 0
M  V30 2154 C 211.54 -1.49257 -1.14472 0
M  V30 2155 O 210.898 -0.605528 -1.70889 0
M  V30 2156 C 210.946 -3.60418 0.114434 0
M  V30 2157 O 210.05 -4.01981 -0.921137 0
M  V30 2158 H 209.391 -0.656669 0.0983994 0
M  V30 2159 H 211.921 -1.83447 0.906006 0
M  V30 2160 H 211.931 -4.07946 -0.0663394 0
M  V30 2161 H 210.606 -4.01519 1.08422 0
M  V30 2162 H 209.183 -3.66029 -0.71253 0
M  V30 2163 N 211.368 -0.403325 -1.52352 0
M  V30 2164 C 212.608 0.173946 -2.03659 0
M  V30 2165 C 212.972 1.42869 -1.28267 0
M  V30 2166 O 214.173 2.08403 -1.69769 0
M  V30 2167 C 212.444 0.421478 -3.54906 0
M  V30 2168 S 214.003 0.967027 -4.28012 0
M  V30 2169 H 210.821 0.0477461 -0.709395 0
M  V30 2170 H 213.423 -0.554906 -1.87459 0
M  V30 2171 H 212.127 -0.498616 -4.0736 0
M  V30 2172 H 211.658 1.17837 -3.75337 0
M  V30 2173 H 213.673 2.24812 -4.4235 0
M  V30 2174 N 212.846 1.57033 -0.133567 0
M  V30 2175 C 214.074 2.00044 0.528195 0
M  V30 2176 C 214.489 1.01349 1.59291 0
M  V30 2177 O 213.846 0.00848369 1.82498 0
M  V30 2178 C 213.897 3.43018 1.1411 0
M  V30 2179 O 213.618 4.37939 0.11892 0
M  V30 2180 C 215.119 4.01237 1.88477 0
M  V30 2181 H 212.339 0.656517 0.138661 0
M  V30 2182 H 214.883 2.03267 -0.224196 0
M  V30 2183 H 213.038 3.40688 1.84418 0
M  V30 2184 H 213.452 5.21436 0.56613 0
M  V30 2185 H 214.926 5.03314 2.26669 0
M  V30 2186 H 215.403 3.41193 2.76558 0
M  V30 2187 H 216.009 4.07156 1.22898 0
M  V30 2188 N 214.325 -0.140222 1.56975 0
M  V30 2189 C 215.574 -0.850152 1.82908 0
M  V30 2190 C 215.887 -1.82028 0.715892 0
M  V30 2191 O 217.093 -2.57485 0.861016 0
M  V30 2192 C 215.549 -1.5625 3.24213 0
M  V30 2193 C 215.157 -0.63443 4.43485 0
M  V30 2194 C 216.901 -2.25881 3.59413 0
M  V30 2195 C 214.808 -1.34879 5.75814 0
M  V30 2196 H 213.738 -0.321221 0.682153 0
M  V30 2197 H 216.389 -0.102874 1.83211 0
M  V30 2198 H 214.771 -2.35565 3.18316 0
M  V30 2199 H 215.945 0.12398 4.60633 0
M  V30 2200 H 214.26 -0.0461836 4.16374 0
M  V30 2201 H 216.857 -2.79978 4.5554 0
M  V30 2202 H 217.2 -3.02693 2.85802 0
M  V30 2203 H 217.733 -1.53477 3.67001 0
M  V30 2204 H 214.472 -0.622385 6.52539 0
M  V30 2205 H 213.992 -2.07974 5.6259 0
M  V30 2206 H 215.671 -1.88784 6.18845 0
M  V30 2207 N 215.803 -1.52179 -0.40978 0
M  V30 2208 C 216.751 -1.76086 -1.51975 0
M  V30 2209 C 217.745 -0.627964 -1.57331 0
M  V30 2210 O 218.951 -0.809993 -1.60745 0
M  V30 2211 H 215.326 -0.556829 -0.505416 0
M  V30 2212 H 217.297 -2.69077 -1.28996 0
M  V30 2213 C 216.046 -1.92799 -2.8935 0
M  V30 2214 H 215.369 -2.79392 -2.85972 0
M  V30 2215 H 216.809 -2.13527 -3.66309 0
M  V30 2216 C 215.268 -0.694923 -3.29655 0
M  V30 2217 O 215.798 0.13751 -4.01465 0
M  V30 2218 N 214.004 -0.53101 -2.85707 0
M  V30 2219 H 213.551 -1.20952 -2.27439 0
M  V30 2220 H 213.509 0.292718 -3.13034 0
M  V30 2221 N 217.281 0.66697 -1.42791 0
M  V30 2222 C 218.229 1.80157 -1.47127 0
M  V30 2223 C 219.223 1.65825 -0.346199 0
M  V30 2224 O 220.429 1.72338 -0.519572 0
M  V30 2225 H 216.804 0.594158 -0.460956 0
M  V30 2226 H 218.775 1.73619 -2.42692 0
M  V30 2227 C 217.524 3.18351 -1.39813 0
M  V30 2228 H 216.847 3.3001 -2.25684 0
M  V30 2229 H 218.287 3.97736 -1.46908 0
M  V30 2230 C 216.746 3.36707 -0.11391 0
M  V30 2231 O 217.276 3.93027 0.830241 0
M  V30 2232 N 215.482 2.90586 -0.0285295 0
M  V30 2233 H 215.029 2.4494 -0.79764 0
M  V30 2234 H 214.987 3.03245 0.830063 0
M  V30 2235 N 218.759 1.29093 0.90403 0
M  V30 2236 C 219.984 1.19809 1.69294 0
M  V30 2237 C 220.409 -0.238481 1.86582 0
M  V30 2238 O 219.767 -1.1723 1.383 0
M  V30 2239 C 219.815 1.91202 3.05736 0
M  V30 2240 O 218.919 1.22611 3.93752 0
M  V30 2241 H 218.26 0.415385 0.518027 0
M  V30 2242 H 220.79 1.70586 1.12967 0
M  V30 2243 H 220.8 1.99487 3.55906 0
M  V30 2244 H 219.475 2.95692 2.92471 0
M  V30 2245 H 218.052 1.22554 3.52186 0
M  V30 2246 N 220.237 -1.11381 1.11499 0
M  V30 2247 C 221.514 -1.7955 0.775965 0
M  V30 2248 C 221.894 -1.97859 -0.73588 0
M  V30 2249 O 221.242 -1.56376 -1.66609 0
M  V30 2250 C 221.452 -3.13196 1.53977 0
M  V30 2251 C 222.8 -3.88227 1.71944 0
M  V30 2252 O 223.824 -3.22887 1.50407 0
M  V30 2253 O 222.683 -5.05477 2.07738 0
M  V30 2254 H 219.777 -0.777728 0.28119 0
M  V30 2255 H 222.323 -1.18118 1.21845 0
M  V30 2256 H 221.095 -2.95229 2.56818 0
M  V30 2257 H 220.718 -3.82342 1.09088 0
M  V30 2258 N 221.715 -0.905404 -1.28997 0
M  V30 2259 C 222.945 -0.549049 -1.99171 0
M  V30 2260 C 223.353 0.87203 -1.67906 0
M  V30 2261 O 222.696 1.58796 -0.923561 0
M  V30 2262 C 222.758 -0.668306 -3.53234 0
M  V30 2263 C 222.422 -2.0574 -4.08069 0
M  V30 2264 C 223.419 -3.0292 -4.22534 0
M  V30 2265 C 221.104 -2.36833 -4.42962 0
M  V30 2266 C 223.098 -4.29314 -4.71135 0
M  V30 2267 C 220.785 -3.63467 -4.91258 0
M  V30 2268 C 221.783 -4.59522 -5.053 0
M  V30 2269 O 221.471 -5.83907 -5.52546 0
M  V30 2270 H 221.203 -0.208784 -0.64295 0
M  V30 2271 H 223.757 -1.21836 -1.65363 0
M  V30 2272 H 221.987 0.0580547 -3.86656 0
M  V30 2273 H 223.676 -0.320273 -4.04634 0
M  V30 2274 H 224.442 -2.80216 -3.95859 0
M  V30 2275 H 220.321 -1.62824 -4.31288 0
M  V30 2276 H 223.865 -5.04293 -4.8201 0
M  V30 2277 H 219.762 -3.86 -5.17372 0
M  V30 2278 H 220.53 -5.86578 -5.70849 0
M  V30 2279 N 223.193 1.4272 -0.668489 0
M  V30 2280 C 224.441 2.01226 -0.187769 0
M  V30 2281 C 224.762 1.53092 1.2078 0
M  V30 2282 O 224.032 0.74993 1.80977 0
M  V30 2283 H 222.612 0.744041 -0.0664272 0
M  V30 2284 H 225.274 1.74723 -0.863583 0
M  V30 2285 H 224.37 3.11556 -0.184166 0
M  V30 2286 N 224.671 0.411399 1.52136 0
M  V30 2287 C 225.619 -0.427633 2.28635 0
M  V30 2288 C 226.613 -1.04383 1.33419 0
M  V30 2289 O 227.819 -0.981772 1.50868 0
M  V30 2290 H 224.194 -0.156689 0.735495 0
M  V30 2291 H 226.165 0.238761 2.97443 0
M  V30 2292 C 224.914 -1.53082 3.12188 0
M  V30 2293 H 224.237 -1.06601 3.85326 0
M  V30 2294 H 225.677 -2.09167 3.68816 0
M  V30 2295 C 224.136 -2.49946 2.25895 0
M  V30 2296 O 224.666 -3.53884 1.90076 0
M  V30 2297 N 222.872 -2.2021 1.8962 0
M  V30 2298 H 222.419 -1.35719 2.18948 0
M  V30 2299 H 222.377 -2.85266 1.32176 0
M  V30 2300 N 226.149 -1.5696 0.141893 0
M  V30 2301 C 227.426 -1.87553 -0.555281 0
M  V30 2302 C 227.806 -1.04699 -1.83306 0
M  V30 2303 O 227.154 -0.132346 -2.28116 0
M  V30 2304 C 227.364 -3.39093 -0.825664 0
M  V30 2305 C 228.712 -4.08199 -1.16869 0
M  V30 2306 O 229.736 -3.44242 -0.915185 0
M  V30 2307 O 228.595 -5.21139 -1.6455 0
M  V30 2308 H 225.689 -0.777188 -0.282679 0
M  V30 2309 H 228.235 -1.68763 0.17812 0
M  V30 2310 H 227.007 -3.91221 0.0788633 0
M  V30 2311 H 226.63 -3.63393 -1.61343 0
M  V30 2312 N 227.627 0.131896 -1.57047 0
M  V30 2313 C 229.043 0.485031 -1.52051 0
M  V30 2314 C 229.243 1.82563 -0.85281 0
M  V30 2315 O 228.299 2.48817 -0.429694 0
M  V30 2316 C 229.612 0.481409 -2.96821 0
M  V30 2317 C 231.16 0.565868 -3.07842 0
M  V30 2318 C 231.635 0.592762 -4.54148 0
M  V30 2319 N 233.126 0.654564 -4.58552 0
M  V30 2320 C 233.861 0.696608 -5.69153 0
M  V30 2321 N 233.357 0.697078 -6.89284 0
M  V30 2322 N 235.15 0.738639 -5.57226 0
M  V30 2323 H 227.301 -0.746664 -1.98843 0
M  V30 2324 H 229.564 -0.273999 -0.90754 0
M  V30 2325 H 229.27 -0.435731 -3.4899 0
M  V30 2326 H 229.144 1.3139 -3.53577 0
M  V30 2327 H 231.531 1.47343 -2.55684 0
M  V30 2328 H 231.612 -0.29406 -2.54104 0
M  V30 2329 H 231.256 -0.310701 -5.06949 0
M  V30 2330 H 231.186 1.46939 -5.05684 0
M  V30 2331 H 233.677 0.660887 -3.72076 0
M  V30 2332 H 233.99 0.731426 -7.69331 0
M  V30 2333 H 232.335 0.66471 -6.91814 0
M  V30 2334 H 235.526 0.735545 -4.62285 0
M  V30 2335 H 235.699 0.767938 -6.43434 0
M  V30 2336 N 229.106 1.52395 0.401703 0
M  V30 2337 C 230.336 1.70429 1.1678 0
M  V30 2338 C 230.744 0.416702 1.84554 0
M  V30 2339 O 230.087 -0.617697 1.73003 0
M  V30 2340 C 230.149 2.78919 2.26814 0
M  V30 2341 C 229.813 4.20437 1.79113 0
M  V30 2342 C 230.81 5.04028 1.27482 0
M  V30 2343 C 228.495 4.66704 1.85722 0
M  V30 2344 C 230.489 6.31961 0.830913 0
M  V30 2345 C 228.176 5.94625 1.40942 0
M  V30 2346 C 229.174 6.77082 0.897128 0
M  V30 2347 O 228.862 8.02607 0.455822 0
M  V30 2348 H 228.594 0.574272 0.356634 0
M  V30 2349 H 231.148 1.99767 0.477724 0
M  V30 2350 H 229.378 2.44973 2.99207 0
M  V30 2351 H 231.067 2.8548 2.88541 0
M  V30 2352 H 231.833 4.69471 1.21744 0
M  V30 2353 H 227.712 4.0262 2.24539 0
M  V30 2354 H 231.256 6.96271 0.430368 0
M  V30 2355 H 227.153 6.28688 1.46362 0
M  V30 2356 H 227.921 8.16453 0.578457 0
M  V30 2357 N 230.584 -0.659388 1.43143 0
M  V30 2358 C 232 -0.974337 1.26407 0
M  V30 2359 C 232.2 -2.007 0.179341 0
M  V30 2360 O 231.256 -2.4856 -0.444295 0
M  V30 2361 C 232.569 -1.46447 2.62628 0
M  V30 2362 C 234.117 -1.58144 2.7011 0
M  V30 2363 C 234.592 -2.1055 4.06734 0
M  V30 2364 N 236.083 -2.17861 4.08767 0
M  V30 2365 C 236.818 -2.59519 5.1131 0
M  V30 2366 N 236.314 -3.00518 6.24228 0
M  V30 2367 N 238.107 -2.59404 4.98664 0
M  V30 2368 H 230.258 0.0240528 2.12386 0
M  V30 2369 H 232.521 -0.0518065 0.946583 0
M  V30 2370 H 232.227 -0.780123 3.42939 0
M  V30 2371 H 232.101 -2.44058 2.87603 0
M  V30 2372 H 234.488 -2.25682 1.90136 0
M  V30 2373 H 234.569 -0.589828 2.48907 0
M  V30 2374 H 234.213 -1.43616 4.87172 0
M  V30 2375 H 234.143 -3.10531 4.25298 0
M  V30 2376 H 236.634 -1.88975 3.27257 0
M  V30 2377 H 236.947 -3.31036 6.98309 0
M  V30 2378 H 235.292 -2.98337 6.2771 0
M  V30 2379 H 238.483 -2.26747 4.09516 0
M  V30 2380 H 238.656 -2.91548 5.78709 0
M  V30 2381 N 232.062 -1.29571 -0.897171 0
M  V30 2382 C 233.308 -1.17863 -1.65034 0
M  V30 2383 C 233.641 0.268729 -1.92332 0
M  V30 2384 O 232.916 1.19378 -1.53555 0
M  V30 2385 C 233.199 -1.995 -2.99786 0
M  V30 2386 C 233.052 -3.5239 -2.79538 0
M  V30 2387 C 234.371 -1.82335 -4.00552 0
M  V30 2388 H 231.49 -0.429528 -0.598895 0
M  V30 2389 H 234.132 -1.59072 -1.03905 0
M  V30 2390 H 232.282 -1.64485 -3.51962 0
M  V30 2391 H 233.954 -3.97401 -2.34244 0
M  V30 2392 H 232.197 -3.77187 -2.14273 0
M  V30 2393 H 232.868 -4.04787 -3.75302 0
M  V30 2394 H 235.344 -2.12924 -3.57495 0
M  V30 2395 H 234.22 -2.41801 -4.92771 0
M  V30 2396 H 234.481 -0.779209 -4.35179 0
M  V30 2397 N 233.54 1.10788 -1.12088 0
M  V30 2398 C 234.472 2.16816 -0.743213 0
M  V30 2399 C 235.485 1.6119 0.228412 0
M  V30 2400 O 236.674 1.78497 0.0102931 0
M  V30 2401 C 233.774 3.38809 -0.0787313 0
M  V30 2402 C 232.947 4.23885 -1.0789 0
M  V30 2403 C 232.006 5.24334 -0.442713 0
M  V30 2404 O 231.032 5.58497 -1.09864 0
M  V30 2405 N 232.234 5.75079 0.791457 0
M  V30 2406 H 234.999 2.49825 -1.65552 0
M  V30 2407 H 232.56 1.26373 -1.012 0
M  V30 2408 H 234.552 4.03107 0.358766 0
M  V30 2409 H 233.122 3.03805 0.736275 0
M  V30 2410 H 232.342 3.55939 -1.69414 0
M  V30 2411 H 233.63 4.77562 -1.75533 0
M  V30 2412 H 233.028 5.49517 1.3434 0
M  V30 2413 H 231.585 6.4118 1.17183 0
M  V30 2414 N 235.018 0.912232 1.28515 0
M  V30 2415 C 235.966 0.389597 2.29314 0
M  V30 2416 C 236.96 -0.517915 1.61289 0
M  V30 2417 O 238.166 -0.399328 1.75515 0
M  V30 2418 H 234.541 0.107386 0.744293 0
M  V30 2419 H 236.512 1.25286 2.70825 0
M  V30 2420 C 235.261 -0.356496 3.45868 0
M  V30 2421 H 234.584 0.332608 3.98414 0
M  V30 2422 H 236.024 -0.686851 4.184 0
M  V30 2423 C 234.483 -1.56383 2.98406 0
M  V30 2424 O 235.013 -2.66294 3.00749 0
M  V30 2425 N 233.219 -1.41029 2.54085 0
M  V30 2426 H 232.766 -0.516089 2.52377 0
M  V30 2427 H 232.724 -2.21939 2.22689 0
M  V30 2428 N 236.496 -1.42363 0.676048 0
M  V30 2429 C 237.736 -2.03392 0.20273 0
M  V30 2430 C 238.1 -1.52306 -1.16906 0
M  V30 2431 O 239.301 -2.05129 -1.73711 0
M  V30 2432 C 237.572 -3.56614 0.236947 0
M  V30 2433 S 239.131 -4.38489 -0.165186 0
M  V30 2434 H 235.949 -0.70611 0.0832418 0
M  V30 2435 H 238.551 -1.74093 0.88948 0
M  V30 2436 H 237.255 -3.91293 1.23767 0
M  V30 2437 H 236.786 -3.90587 -0.469596 0
M  V30 2438 H 238.801 -4.76093 -1.39822 0
M  V30 2439 N 237.974 -0.419461 -1.51915 0
M  V30 2440 C 238.884 0.407528 -2.31033 0
M  V30 2441 C 239.9 1.04413 -1.3919 0
M  V30 2442 O 241.076 1.0434 -1.72265 0
M  V30 2443 C 238.141 1.50365 -3.12396 0
M  V30 2444 C 237.202 0.889029 -4.19994 0
M  V30 2445 C 236.435 1.93291 -4.97468 0
M  V30 2446 O 236.658 3.15259 -4.75361 0
M  V30 2447 O 235.592 1.53339 -5.8204 0
M  V30 2448 H 239.418 -0.237865 -3.02767 0
M  V30 2449 H 237.003 -0.182413 -1.48282 0
M  V30 2450 H 238.885 2.13975 -3.63032 0
M  V30 2451 H 237.56 2.13345 -2.43445 0
M  V30 2452 H 236.467 0.215353 -3.7348 0
M  V30 2453 H 237.8 0.302991 -4.91267 0
M  V30 2454 N 239.452 1.56882 -0.150215 0
M  V30 2455 C 240.382 2.19935 0.784284 0
M  V30 2456 C 241.363 1.14854 1.25469 0
M  V30 2457 O 242.548 1.43209 1.31168 0
M  V30 2458 C 239.678 2.82349 2.02229 0
M  V30 2459 C 238.632 3.93285 1.68853 0
M  V30 2460 C 237.958 4.42649 2.99944 0
M  V30 2461 C 239.258 5.13904 0.932714 0
M  V30 2462 H 240.952 2.9828 0.258781 0
M  V30 2463 H 238.498 1.43473 0.123029 0
M  V30 2464 H 240.451 3.25126 2.68088 0
M  V30 2465 H 239.175 2.0134 2.57157 0
M  V30 2466 H 237.834 3.5113 1.05371 0
M  V30 2467 H 237.482 3.58458 3.52869 0
M  V30 2468 H 237.182 5.17476 2.78374 0
M  V30 2469 H 238.706 4.88099 3.66868 0
M  V30 2470 H 240.12 5.53506 1.49345 0
M  V30 2471 H 238.517 5.94515 0.81684 0
M  V30 2472 H 239.587 4.84842 -0.0749568 0
M  V30 2473 N 240.93 -0.123565 1.57115 0
M  V30 2474 C 242.176 -0.833386 1.84885 0
M  V30 2475 C 242.509 -1.79742 0.735292 0
M  V30 2476 O 241.784 -1.92764 -0.25925 0
M  V30 2477 C 242.067 -1.5873 3.23228 0
M  V30 2478 C 241.92 -0.643183 4.45178 0
M  V30 2479 C 243.239 -2.54453 3.59085 0
M  V30 2480 H 240.358 -0.301518 0.6725 0
M  V30 2481 H 243 -0.097778 1.89748 0
M  V30 2482 H 241.15 -2.21438 3.19214 0
M  V30 2483 H 242.822 -0.0253015 4.61293 0
M  V30 2484 H 241.065 0.0456139 4.33776 0
M  V30 2485 H 241.736 -1.20724 5.38637 0
M  V30 2486 H 244.212 -2.01853 3.63861 0
M  V30 2487 H 243.088 -3.04238 4.5687 0
M  V30 2488 H 243.349 -3.36906 2.86264 0
M  V30 2489 N 242.408 -1.52605 -0.393616 0
M  V30 2490 C 243.656 -1.67093 -1.13685 0
M  V30 2491 C 243.977 -0.411011 -1.90619 0
M  V30 2492 O 243.247 0.574491 -1.87287 0
M  V30 2493 H 241.827 -0.615923 -0.422668 0
M  V30 2494 H 244.489 -1.89704 -0.447039 0
M  V30 2495 H 243.585 -2.51922 -1.84232 0
M  V30 2496 N 243.887 0.651787 -1.4349 0
M  V30 2497 C 244.817 1.77621 -1.51569 0
M  V30 2498 C 245.798 1.66022 -0.370253 0
M  V30 2499 O 246.983 1.85095 -0.587658 0
M  V30 2500 C 244.113 3.16056 -1.43966 0
M  V30 2501 C 243.067 3.4242 -2.56774 0
M  V30 2502 C 242.393 4.8067 -2.34223 0
M  V30 2503 C 243.693 3.37023 -3.99015 0
M  V30 2504 H 245.387 1.71117 -2.45681 0
M  V30 2505 H 242.933 0.821825 -1.18246 0
M  V30 2506 H 244.886 3.94472 -1.48221 0
M  V30 2507 H 243.61 3.23293 -0.463586 0
M  V30 2508 H 242.269 2.66375 -2.51873 0
M  V30 2509 H 241.917 4.84585 -1.34856 0
M  V30 2510 H 241.617 4.9927 -3.09844 0
M  V30 2511 H 243.141 5.61342 -2.40265 0
M  V30 2512 H 244.555 4.05374 -4.05395 0
M  V30 2513 H 242.952 3.67159 -4.74673 0
M  V30 2514 H 244.022 2.3518 -4.2405 0
M  V30 2515 N 245.365 1.30045 0.890287 0
M  V30 2516 C 246.328 1.15963 1.977 0
M  V30 2517 C 247.328 0.0923777 1.60534 0
M  V30 2518 O 248.518 0.340071 1.70848 0
M  V30 2519 C 245.65 0.775451 3.31963 0
M  V30 2520 H 246.843 2.12502 2.11619 0
M  V30 2521 H 244.396 1.13366 1.07601 0
M  V30 2522 H 245.131 -0.189671 3.23745 0
M  V30 2523 H 244.916 1.54668 3.60306 0
M  V30 2524 H 246.406 0.700251 4.11687 0
M  V30 2525 N 246.843 -1.10192 1.12674 0
M  V30 2526 C 248.12 -1.78717 0.794965 0
M  V30 2527 C 248.5 -1.98628 -0.714853 0
M  V30 2528 O 247.848 -1.58135 -1.64941 0
M  V30 2529 C 248.058 -3.11546 1.5729 0
M  V30 2530 C 249.406 -3.86382 1.76052 0
M  V30 2531 O 250.43 -3.21274 1.53823 0
M  V30 2532 O 249.289 -5.03246 2.13087 0
M  V30 2533 H 246.383 -0.774702 0.289423 0
M  V30 2534 H 248.929 -1.16819 1.23091 0
M  V30 2535 H 247.701 -2.92489 2.59935 0
M  V30 2536 H 247.324 -3.81164 1.13137 0
M  V30 2537 N 248.321 -0.919034 -1.28029 0
M  V30 2538 C 249.251 -0.428581 -2.29533 0
M  V30 2539 C 250.232 0.50659 -1.62381 0
M  V30 2540 O 251.417 0.413195 -1.89753 0
M  V30 2541 C 248.547 0.327388 -3.45753 0
M  V30 2542 C 247.501 -0.519137 -4.2484 0
M  V30 2543 C 246.827 0.365486 -5.33449 0
M  V30 2544 C 248.127 -1.77914 -4.91064 0
M  V30 2545 H 249.821 -1.27687 -2.70807 0
M  V30 2546 H 247.367 -0.615428 -1.30186 0
M  V30 2547 H 249.32 0.681378 -4.15855 0
M  V30 2548 H 248.044 1.20963 -3.03374 0
M  V30 2549 H 246.703 -0.855717 -3.56473 0
M  V30 2550 H 246.351 1.24642 -4.87312 0
M  V30 2551 H 246.051 -0.197356 -5.87268 0
M  V30 2552 H 247.575 0.715241 -6.06396 0
M  V30 2553 H 248.989 -1.49374 -5.53498 0
M  V30 2554 H 247.386 -2.2848 -5.54903 0
M  V30 2555 H 248.456 -2.50382 -4.15255 0
M  V30 2556 N 249.799 1.42003 -0.683588 0
M  V30 2557 C 251.076 1.95112 -0.138075 0
M  V30 2558 C 251.456 1.62359 1.34918 0
M  V30 2559 O 250.804 0.924311 2.08971 0
M  V30 2560 C 251.014 3.46505 -0.416581 0
M  V30 2561 C 252.362 4.23254 -0.337834 0
M  V30 2562 O 253.386 3.54468 -0.35082 0
M  V30 2563 O 252.245 5.45743 -0.287596 0
M  V30 2564 H 249.339 0.826961 -0.00797996 0
M  V30 2565 H 251.885 1.51784 -0.758924 0
M  V30 2566 H 250.657 3.63582 -1.4465 0
M  V30 2567 H 250.28 3.969 0.235839 0
M  V30 2568 N 251.277 0.427512 1.51691 0
M  V30 2569 C 252.505 -0.141191 2.06418 0
M  V30 2570 C 252.92 -1.37303 1.29589 0
M  V30 2571 O 252.277 -1.79059 0.352732 0
M  V30 2572 C 252.328 -0.473266 3.58389 0
M  V30 2573 O 252.049 0.709673 4.32314 0
M  V30 2574 C 253.55 -1.09371 4.29596 0
M  V30 2575 H 250.77 -0.0122747 0.670888 0
M  V30 2576 H 253.314 0.603764 1.95384 0
M  V30 2577 H 251.469 -1.16812 3.69369 0
M  V30 2578 H 251.883 0.42807 5.2275 0
M  V30 2579 H 253.357 -1.27613 5.37046 0
M  V30 2580 H 253.834 -2.072 3.87253 0
M  V30 2581 H 254.44 -0.43853 4.23033 0
M  V30 2582 N 252.755 -1.56801 0.158532 0
M  V30 2583 C 253.718 -2.16138 -0.762705 0
M  V30 2584 C 254.718 -1.1061 -1.16713 0
M  V30 2585 O 255.908 -1.36191 -1.08617 0
M  V30 2586 C 253.04 -2.73386 -2.03649 0
M  V30 2587 H 254.233 -2.98886 -0.246354 0
M  V30 2588 H 251.786 -1.56035 -0.0909744 0
M  V30 2589 H 252.521 -1.94335 -2.59623 0
M  V30 2590 H 252.306 -3.50601 -1.75559 0
M  V30 2591 H 253.796 -3.19065 -2.6942 0
M  V30 2592 N 254.233 0.115231 -1.57178 0
M  V30 2593 C 255.458 0.840354 -1.89612 0
M  V30 2594 C 255.883 1.72464 -0.750845 0
M  V30 2595 O 255.241 1.78826 0.298478 0
M  V30 2596 C 255.289 1.64654 -3.20814 0
M  V30 2597 O 254.393 2.7538 -3.06985 0
M  V30 2598 H 253.734 0.232158 -0.622092 0
M  V30 2599 H 256.264 0.0964977 -2.04372 0
M  V30 2600 H 256.274 2.03499 -3.53627 0
M  V30 2601 H 254.949 0.997416 -4.03763 0
M  V30 2602 H 253.526 2.3971 -2.85646 0
M  V30 2603 N 255.711 1.52812 0.385517 0
M  V30 2604 C 256.659 1.78482 1.49155 0
M  V30 2605 C 257.653 0.652914 1.56312 0
M  V30 2606 O 258.859 0.835464 1.59436 0
M  V30 2607 H 255.234 0.5648 0.496493 0
M  V30 2608 H 257.205 2.71095 1.24699 0
M  V30 2609 C 255.954 1.97378 2.86247 0
M  V30 2610 H 255.277 2.83907 2.81491 0
M  V30 2611 H 256.717 2.19327 3.62866 0
M  V30 2612 C 255.176 0.74728 3.28508 0
M  V30 2613 O 255.706 -0.0736232 4.01633 0
M  V30 2614 N 253.912 0.576396 2.84826 0
M  V30 2615 H 253.459 1.24555 2.25486 0
M  V30 2616 H 253.417 -0.24288 3.1346 0
M  V30 2617 N 257.189 -0.644168 1.43834 0
M  V30 2618 C 258.419 -1.42939 1.49171 0
M  V30 2619 C 258.827 -1.88874 0.111048 0
M  V30 2620 O 258.17 -1.60656 -0.8908 0
M  V30 2621 C 258.232 -2.69151 2.38324 0
M  V30 2622 C 257.896 -2.45097 3.85715 0
M  V30 2623 C 258.893 -2.07747 4.76589 0
M  V30 2624 C 256.578 -2.59141 4.30292 0
M  V30 2625 C 258.572 -1.8475 6.10038 0
M  V30 2626 C 256.259 -2.35759 5.63792 0
M  V30 2627 C 257.257 -1.9862 6.53482 0
M  V30 2628 O 256.945 -1.75489 7.84512 0
M  V30 2629 H 256.677 -0.445271 0.508635 0
M  V30 2630 H 259.231 -0.79621 1.8934 0
M  V30 2631 H 257.461 -3.3506 1.93058 0
M  V30 2632 H 259.15 -3.31123 2.3476 0
M  V30 2633 H 259.916 -1.96465 4.43426 0
M  V30 2634 H 255.795 -2.87022 3.60749 0
M  V30 2635 H 259.339 -1.55686 6.80006 0
M  V30 2636 H 255.236 -2.46646 5.9652 0
M  V30 2637 H 256.004 -1.89841 7.9618 0
M  V30 2638 N 258.668 -1.30515 -0.883378 0
M  V30 2639 C 259.914 -1.19607 -1.63774 0
M  V30 2640 C 260.247 0.248314 -1.92606 0
M  V30 2641 O 259.522 1.17742 -1.54813 0
M  V30 2642 C 259.805 -2.02669 -2.97653 0
M  V30 2643 C 259.658 -3.55335 -2.75784 0
M  V30 2644 C 260.977 -1.86573 -3.98596 0
M  V30 2645 H 258.096 -0.435856 -0.594305 0
M  V30 2646 H 260.738 -1.60165 -1.02212 0
M  V30 2647 H 258.888 -1.68208 -3.50197 0
M  V30 2648 H 260.56 -3.99863 -2.30016 0
M  V30 2649 H 258.803 -3.79438 -2.1026 0
M  V30 2650 H 259.474 -4.08745 -3.70988 0
M  V30 2651 H 261.95 -2.16703 -3.55217 0
M  V30 2652 H 260.826 -2.47014 -4.90179 0
M  V30 2653 H 261.087 -0.825321 -4.34328 0
M  V30 2654 N 260.146 1.09593 -1.13257 0
M  V30 2655 C 261.078 2.16015 -0.766167 0
M  V30 2656 C 262.091 1.61423 0.211303 0
M  V30 2657 O 263.28 1.78498 -0.00863946 0
M  V30 2658 C 260.38 3.38706 -0.114662 0
M  V30 2659 C 259.553 4.22717 -1.12379 0
M  V30 2660 C 258.612 5.23835 -0.498301 0
M  V30 2661 O 257.638 5.573 -1.15781 0
M  V30 2662 N 258.84 5.75886 0.730417 0
M  V30 2663 H 261.605 2.48055 -1.68193 0
M  V30 2664 H 259.166 1.25292 -1.02535 0
M  V30 2665 H 261.158 4.03464 0.315991 0
M  V30 2666 H 259.728 3.04569 0.704011 0
M  V30 2667 H 258.948 3.54122 -1.73179 0
M  V30 2668 H 260.236 4.75673 -1.80589 0
M  V30 2669 H 259.634 5.50911 1.28504 0
M  V30 2670 H 258.191 6.42387 1.10376 0
M  V30 2671 N 261.624 0.925811 1.2754 0
M  V30 2672 C 262.572 0.413897 2.28888 0
M  V30 2673 C 263.566 -0.500779 1.61829 0
M  V30 2674 O 264.772 -0.38069 1.75928 0
M  V30 2675 H 261.147 0.115274 0.743112 0
M  V30 2676 H 263.118 1.28151 2.69481 0
M  V30 2677 C 261.867 -0.319792 3.46226 0
M  V30 2678 H 261.19 0.374846 3.98039 0
M  V30 2679 H 262.63 -0.642435 4.19105 0
M  V30 2680 C 261.089 -1.53209 3.00048 0
M  V30 2681 O 261.619 -2.6309 3.03557 0
M  V30 2682 N 259.825 -1.38326 2.55566 0
M  V30 2683 H 259.372 -0.489292 2.5291 0
M  V30 2684 H 259.33 -2.19564 2.25031 0
M  V30 2685 N 263.102 -1.41638 0.69111 0
M  V30 2686 C 264.33 -2.05628 0.22909 0
M  V30 2687 C 264.745 -1.51992 -1.11999 0
M  V30 2688 O 264.102 -0.666322 -1.69901 0
M  V30 2689 C 264.153 -3.61084 0.173283 0
M  V30 2690 O 263.874 -4.12735 1.46907 0
M  V30 2691 C 265.375 -4.42213 -0.310266 0
M  V30 2692 H 262.595 -0.662327 0.107534 0
M  V30 2693 H 265.139 -1.81489 0.942438 0
M  V30 2694 H 263.294 -3.84278 -0.490858 0
M  V30 2695 H 263.708 -5.06743 1.35322 0
M  V30 2696 H 265.182 -5.51194 -0.298196 0
M  V30 2697 H 265.659 -4.1799 -1.34838 0
M  V30 2698 H 266.265 -4.24074 0.322716 0
M  V30 2699 N 264.58 -0.43555 -1.51462 0
M  V30 2700 C 265.829 0.133007 -2.01261 0
M  V30 2701 C 266.142 1.43942 -1.32439 0
M  V30 2702 O 267.348 2.09081 -1.73198 0
M  V30 2703 C 265.804 0.287581 -3.58749 0
M  V30 2704 C 265.412 -1.00829 -4.36506 0
M  V30 2705 C 267.156 0.810004 -4.167 0
M  V30 2706 C 265.063 -0.819454 -5.85695 0
M  V30 2707 H 263.993 0.0534822 -0.752101 0
M  V30 2708 H 266.644 -0.565038 -1.74584 0
M  V30 2709 H 265.026 1.04859 -3.81865 0
M  V30 2710 H 266.2 -1.77749 -4.25138 0
M  V30 2711 H 264.515 -1.45911 -3.89999 0
M  V30 2712 H 267.112 0.967743 -5.2587 0
M  V30 2713 H 267.455 1.79196 -3.75758 0
M  V30 2714 H 267.988 0.107357 -3.97655 0
M  V30 2715 H 264.727 -1.77374 -6.31046 0
M  V30 2716 H 264.247 -0.0900208 -5.99732 0
M  V30 2717 H 265.926 -0.471949 -6.45276 0
M  V30 2718 N 266.058 1.56714 -0.166846 0
M  V30 2719 C 267.021 2.16539 0.751232 0
M  V30 2720 C 268.021 1.11228 1.16125 0
M  V30 2721 O 269.211 1.36765 1.07894 0
M  V30 2722 C 266.343 2.74462 2.02196 0
M  V30 2723 H 267.536 2.99013 0.230499 0
M  V30 2724 H 265.089 1.56081 0.0826982 0
M  V30 2725 H 265.824 1.95709 2.58589 0
M  V30 2726 H 265.609 3.51527 1.73698 0
M  V30 2727 H 267.099 3.20489 2.67725 0
M  V30 2728 N 267.536 -0.106894 1.57237 0
M  V30 2729 C 268.499 -1.11466 2.0027 0
M  V30 2730 C 269.499 -1.33623 0.894519 0
M  V30 2731 O 270.689 -1.29935 1.16028 0
M  V30 2732 C 267.821 -2.46646 2.35327 0
M  V30 2733 H 269.014 -0.744516 2.90512 0
M  V30 2734 H 266.567 -0.351576 1.52295 0
M  V30 2735 H 267.302 -2.88558 1.48003 0
M  V30 2736 H 267.087 -2.31915 3.16161 0
M  V30 2737 H 268.577 -3.19151 2.69318 0
M  V30 2738 N 269.014 -1.53014 -0.377408 0
M  V30 2739 C 270.244 -1.72265 -1.14054 0
M  V30 2740 C 270.652 -0.44601 -1.83868 0
M  V30 2741 O 269.995 0.590095 -1.73964 0
M  V30 2742 C 270.057 -2.82492 -2.22348 0
M  V30 2743 C 269.721 -4.23233 -1.72402 0
M  V30 2744 C 270.718 -5.05992 -1.19448 0
M  V30 2745 C 268.403 -4.696 -1.78273 0
M  V30 2746 C 270.397 -6.33203 -0.730268 0
M  V30 2747 C 268.084 -5.96792 -1.31464 0
M  V30 2748 C 269.082 -6.78424 -0.789297 0
M  V30 2749 O 268.77 -8.0323 -0.328077 0
M  V30 2750 H 268.502 -0.579873 -0.347453 0
M  V30 2751 H 271.056 -2.00502 -0.445882 0
M  V30 2752 H 269.286 -2.49702 -2.95272 0
M  V30 2753 H 270.975 -2.90034 -2.83963 0
M  V30 2754 H 271.741 -4.71349 -1.14259 0
M  V30 2755 H 267.62 -4.06142 -2.18106 0
M  V30 2756 H 271.164 -6.96868 -0.319542 0
M  V30 2757 H 267.061 -6.30937 -1.36342 0
M  V30 2758 H 267.829 -8.1727 -0.448493 0
M  V30 2759 N 270.492 0.636531 -1.44174 0
M  V30 2760 C 271.741 1.39213 -1.45954 0
M  V30 2761 C 272.054 1.95374 -0.0939119 0
M  V30 2762 O 273.26 2.71498 0.0107767 0
M  V30 2763 C 271.716 2.52025 -2.56927 0
M  V30 2764 C 271.324 2.024 -3.99673 0
M  V30 2765 C 273.068 3.29269 -2.67922 0
M  V30 2766 C 270.975 3.12521 -5.0208 0
M  V30 2767 H 269.905 0.523132 -0.542999 0
M  V30 2768 H 272.556 0.685349 -1.70221 0
M  V30 2769 H 270.938 3.25253 -2.25891 0
M  V30 2770 H 272.112 1.36073 -4.40251 0
M  V30 2771 H 270.427 1.37987 -3.92872 0
M  V30 2772 H 273.024 4.11352 -3.41605 0
M  V30 2773 H 273.367 3.78397 -1.73555 0
M  V30 2774 H 273.9 2.63129 -2.98342 0
M  V30 2775 H 270.639 2.68343 -5.98057 0
M  V30 2776 H 270.159 3.77507 -4.66099 0
M  V30 2777 H 271.838 3.77385 -5.25538 0
M  V30 2778 N 271.97 1.30982 0.876444 0
M  V30 2779 C 272.918 1.18006 2.00443 0
M  V30 2780 C 273.912 0.0898871 1.69161 0
M  V30 2781 O 275.118 0.251333 1.78237 0
M  V30 2782 H 271.493 0.365196 0.65737 0
M  V30 2783 H 273.464 2.13453 2.0852 0
M  V30 2784 C 272.213 0.897521 3.35916 0
M  V30 2785 H 271.536 1.7285 3.60504 0
M  V30 2786 H 272.976 0.846874 4.15456 0
M  V30 2787 C 271.435 -0.399674 3.34521 0
M  V30 2788 O 271.965 -1.41852 3.7582 0
M  V30 2789 N 270.171 -0.413893 2.87637 0
M  V30 2790 H 269.718 0.41571 2.54224 0
M  V30 2791 H 269.676 -1.28175 2.87086 0
M  V30 2792 N 273.449 -1.08991 1.13837 0
M  V30 2793 C 274.726 -1.77863 0.813876 0
M  V30 2794 C 275.106 -1.99375 -0.693746 0
M  V30 2795 O 274.454 -1.59875 -1.63255 0
M  V30 2796 C 274.664 -3.0986 1.60586 0
M  V30 2797 C 276.012 -3.84493 1.8014 0
M  V30 2798 O 277.036 -3.19624 1.57222 0
M  V30 2799 O 275.895 -5.00957 2.18413 0
M  V30 2800 H 272.989 -0.771589 0.297624 0
M  V30 2801 H 275.535 -1.15507 1.24323 0
M  V30 2802 H 274.307 -2.89715 2.63022 0
M  V30 2803 H 273.93 -3.79942 1.17173 0
M  V30 2804 N 274.927 -0.932562 -1.27047 0
M  V30 2805 C 275.857 -0.452902 -2.29066 0
M  V30 2806 C 276.838 0.489338 -1.62909 0
M  V30 2807 O 278.023 0.393046 -1.90181 0
M  V30 2808 C 275.153 0.290698 -3.46081 0
M  V30 2809 C 274.107 -0.564168 -4.24265 0
M  V30 2810 C 273.433 0.308886 -5.33807 0
M  V30 2811 C 274.733 -1.83112 -4.89149 0
M  V30 2812 H 276.427 -1.30552 -2.69437 0
M  V30 2813 H 273.973 -0.629201 -1.29526 0
M  V30 2814 H 275.926 0.637233 -4.16554 0
M  V30 2815 H 274.65 1.17738 -3.0464 0
M  V30 2816 H 273.309 -0.893477 -3.55545 0
M  V30 2817 H 272.957 1.19467 -4.88607 0
M  V30 2818 H 272.657 -0.259633 -5.87026 0
M  V30 2819 H 274.181 0.650884 -6.07121 0
M  V30 2820 H 275.595 -1.55236 -5.51883 0
M  V30 2821 H 273.992 -2.34353 -5.52448 0
M  V30 2822 H 275.062 -2.54772 -4.12576 0
M  V30 2823 N 276.405 1.4127 -0.698611 0
M  V30 2824 C 277.337 2.292 0.00399731 0
M  V30 2825 C 278.35 1.44944 0.741279 0
M  V30 2826 O 279.539 1.68416 0.591477 0
M  V30 2827 C 276.639 3.22875 1.02979 0
M  V30 2828 C 275.812 4.35904 0.36151 0
M  V30 2829 C 274.871 5.10134 1.29033 0
M  V30 2830 O 273.897 5.63809 0.781562 0
M  V30 2831 N 275.099 5.17885 2.6225 0
M  V30 2832 H 277.864 2.9014 -0.750921 0
M  V30 2833 H 275.425 1.52455 -0.544882 0
M  V30 2834 H 277.417 3.69404 1.65296 0
M  V30 2835 H 275.987 2.63221 1.68622 0
M  V30 2836 H 275.207 3.91719 -0.441584 0
M  V30 2837 H 276.495 5.08696 -0.103055 0
M  V30 2838 H 275.893 4.7573 3.061 0
M  V30 2839 H 274.45 5.6798 3.19754 0
M  V30 2840 N 277.883 0.443576 1.51229 0
M  V30 2841 C 278.846 -0.353132 2.26463 0
M  V30 2842 C 279.846 -0.944338 1.3015 0
M  V30 2843 O 281.036 -0.817813 1.5381 0
M  V30 2844 C 278.168 -1.50023 3.06114 0
M  V30 2845 H 279.361 0.3063 2.98332 0
M  V30 2846 H 276.914 0.196902 1.55055 0
M  V30 2847 H 277.649 -2.19553 2.38677 0
M  V30 2848 H 277.434 -1.08241 3.76864 0
M  V30 2849 H 278.924 -2.06296 3.63087 0
M  V30 2850 N 279.361 -1.56624 0.175154 0
M  V30 2851 C 280.61 -1.96173 -0.468921 0
M  V30 2852 C 280.923 -1.06401 -1.64128 0
M  V30 2853 O 282.129 -1.35648 -2.35185 0
M  V30 2854 C 280.585 -3.48833 -0.885633 0
M  V30 2855 C 280.193 -4.47237 0.261343 0
M  V30 2856 C 281.937 -3.97194 -1.49791 0
M  V30 2857 C 279.844 -5.9114 -0.175214 0
M  V30 2858 H 278.774 -0.732455 -0.178958 0
M  V30 2859 H 281.425 -1.81591 0.263997 0
M  V30 2860 H 279.807 -3.58848 -1.67464 0
M  V30 2861 H 280.981 -4.4894 1.03871 0
M  V30 2862 H 279.296 -4.08956 0.783827 0
M  V30 2863 H 281.893 -5.02167 -1.83665 0
M  V30 2864 H 282.236 -3.40351 -2.39722 0
M  V30 2865 H 282.769 -3.90212 -0.773267 0
M  V30 2866 H 279.508 -6.51865 0.689414 0
M  V30 2867 H 279.028 -5.92735 -0.91786 0
M  V30 2868 H 280.707 -6.44044 -0.617792 0
M  V30 2869 N 280.839 0.0985539 -1.57292 0
M  V30 2870 C 282.087 0.801092 -1.85545 0
M  V30 2871 C 282.408 1.79438 -0.763353 0
M  V30 2872 O 281.678 1.94763 0.21073 0
M  V30 2873 H 280.258 0.29884 -0.684619 0
M  V30 2874 H 282.92 0.0810064 -1.94732 0
M  V30 2875 H 282.016 1.3338 -2.82163 0
M  V30 2876 N 282.317 1.53212 0.369288 0
M  V30 2877 C 283.563 1.69466 1.11397 0
M  V30 2878 C 283.896 0.443257 1.89074 0
M  V30 2879 O 283.171 -0.559386 1.86282 0
M  V30 2880 C 283.454 2.9422 2.07621 0
M  V30 2881 C 283.307 4.29508 1.33577 0
M  V30 2882 C 284.626 3.14565 3.07794 0
M  V30 2883 H 281.745 0.616667 0.403597 0
M  V30 2884 H 284.387 1.85845 0.395179 0
M  V30 2885 H 282.537 2.80387 2.68916 0
M  V30 2886 H 284.209 4.55147 0.750955 0
M  V30 2887 H 282.452 4.29088 0.637618 0
M  V30 2888 H 283.123 5.12926 2.03989 0
M  V30 2889 H 285.599 3.2756 2.56601 0
M  V30 2890 H 284.475 4.03297 3.72348 0
M  V30 2891 H 284.736 2.29675 3.77759 0
M  V30 2892 N 283.795 -0.628877 1.44509 0
M  V30 2893 C 284.742 -1.74074 1.51549 0
M  V30 2894 C 285.712 -1.62084 0.363021 0
M  V30 2895 O 286.897 -1.81975 0.573567 0
M  V30 2896 C 284.037 -3.12328 1.46784 0
M  V30 2897 C 283.15 -3.35277 2.72422 0
M  V30 2898 C 282.285 -4.63515 2.59475 0
M  V30 2899 C 281.324 -4.7965 3.80266 0
M  V30 2900 N 280.461 -5.99168 3.65981 0
M  V30 2901 H 285.301 -1.67392 2.46544 0
M  V30 2902 H 282.838 -0.816527 1.22357 0
M  V30 2903 H 284.796 -3.92286 1.42012 0
M  V30 2904 H 283.426 -3.18018 0.553544 0
M  V30 2905 H 282.478 -2.49242 2.87372 0
M  V30 2906 H 283.79 -3.43078 3.62076 0
M  V30 2907 H 282.944 -5.51638 2.52548 0
M  V30 2908 H 281.683 -4.58076 1.67384 0
M  V30 2909 H 280.688 -3.89957 3.87574 0
M  V30 2910 H 281.913 -4.86902 4.73395 0
M  V30 2911 H 279.859 -5.94814 2.76644 0
M  V30 2912 H 279.776 -6.08035 4.49254 0
M  V30 2913 H 281.044 -6.89846 3.6295 0
M  V30 2914 N 285.273 -1.31445 -0.869486 0
M  V30 2915 C 286.521 -1.20918 -1.61936 0
M  V30 2916 C 286.842 0.232683 -1.93607 0
M  V30 2917 O 286.112 1.15352 -1.58338 0
M  V30 2918 H 284.692 -0.44454 -0.600328 0
M  V30 2919 H 287.354 -1.64776 -1.0409 0
M  V30 2920 H 286.45 -1.78124 -2.56278 0
M  V30 2921 N 286.751 1.08385 -1.14413 0
M  V30 2922 C 287.998 1.80776 -0.912482 0
M  V30 2923 C 288.326 1.86236 0.560934 0
M  V30 2924 O 287.581 1.33431 1.43159 0
M  V30 2925 C 287.88 3.26273 -1.45879 0
M  V30 2926 C 287.546 3.4093 -2.95089 0
M  V30 2927 C 286.208 3.44638 -3.35824 0
M  V30 2928 C 288.56 3.44591 -3.91033 0
M  V30 2929 C 285.888 3.49597 -4.71167 0
M  V30 2930 C 288.24 3.51086 -5.26233 0
M  V30 2931 C 286.904 3.53067 -5.6648 0
M  V30 2932 H 286.174 0.661507 -0.333901 0
M  V30 2933 H 288.821 1.27613 -1.42784 0
M  V30 2934 H 287.126 3.82146 -0.864376 0
M  V30 2935 H 288.823 3.80839 -1.2555 0
M  V30 2936 H 285.413 3.38736 -2.62594 0
M  V30 2937 H 289.597 3.40957 -3.60641 0
M  V30 2938 H 284.853 3.49424 -5.0171 0
M  V30 2939 H 289.027 3.52864 -6.00383 0
M  V30 2940 H 286.654 3.56662 -6.71339 0
M  V30 2941 N 288.23 0.939286 1.26551 0
M  V30 2942 C 289.646 0.641304 1.46149 0
M  V30 2943 C 289.846 -0.805964 1.84679 0
M  V30 2944 O 288.902 -1.58278 1.96734 0
M  V30 2945 C 290.215 1.6011 2.54529 0
M  V30 2946 C 291.763 1.6106 2.68382 0
M  V30 2947 C 292.238 2.55765 3.79932 0
M  V30 2948 N 293.729 2.5404 3.87322 0
M  V30 2949 C 294.464 3.24004 4.73085 0
M  V30 2950 N 293.96 4.03388 5.63249 0
M  V30 2951 N 295.753 3.12965 4.66914 0
M  V30 2952 H 287.904 1.87478 0.998285 0
M  V30 2953 H 290.167 0.805559 0.499779 0
M  V30 2954 H 289.873 2.63412 2.33039 0
M  V30 2955 H 289.747 1.35171 3.52149 0
M  V30 2956 H 292.134 0.584835 2.89247 0
M  V30 2957 H 292.215 1.90053 1.71212 0
M  V30 2958 H 291.859 3.58458 3.5982 0
M  V30 2959 H 291.789 2.24063 4.76554 0
M  V30 2960 H 294.28 1.96396 3.22858 0
M  V30 2961 H 294.593 4.5373 6.25579 0
M  V30 2962 H 292.938 4.07489 5.63008 0
M  V30 2963 H 296.129 2.50432 3.95476 0
M  V30 2964 H 296.302 3.67759 5.33533 0
M  V30 2965 N 289.708 -1.40897 0.706093 0
M  V30 2966 C 290.955 -2.01054 0.241531 0
M  V30 2967 C 291.283 -1.55956 -1.16223 0
M  V30 2968 O 290.538 -0.766336 -1.80072 0
M  V30 2969 C 290.837 -3.5646 0.259099 0
M  V30 2970 C 290.503 -4.21106 1.61184 0
M  V30 2971 C 289.165 -4.38479 1.98216 0
M  V30 2972 C 291.517 -4.57256 2.50132 0
M  V30 2973 C 288.845 -4.89282 3.2376 0
M  V30 2974 C 291.197 -5.09454 3.7502 0
M  V30 2975 C 289.861 -5.25037 4.12181 0
M  V30 2976 H 289.131 -0.73571 0.0883825 0
M  V30 2977 H 291.778 -1.68645 0.907257 0
M  V30 2978 H 290.083 -3.88721 -0.490189 0
M  V30 2979 H 291.78 -4.00826 -0.11804 0
M  V30 2980 H 288.37 -4.07966 1.31384 0
M  V30 2981 H 292.554 -4.43479 2.228 0
M  V30 2982 H 287.81 -4.99531 3.52532 0
M  V30 2983 H 291.984 -5.36404 4.44121 0
M  V30 2984 H 289.611 -5.64164 5.09532 0
M  V30 2985 N 291.186 -0.45159 -1.50991 0
M  V30 2986 C 292.463 0.170707 -1.94854 0
M  V30 2987 C 292.843 1.58788 -1.39103 0
M  V30 2988 O 292.191 2.20913 -0.583921 0
M  V30 2989 C 292.401 0.133929 -3.48743 0
M  V30 2990 C 293.749 0.33248 -4.23296 0
M  V30 2991 O 294.773 0.211403 -3.55572 0
M  V30 2992 O 293.632 0.57486 -5.43468 0
M  V30 2993 H 290.726 0.122264 -0.817912 0
M  V30 2994 H 293.272 -0.510594 -1.61836 0
M  V30 2995 H 292.044 -0.856283 -3.81816 0
M  V30 2996 H 291.667 0.857529 -3.88242 0
M  V30 2997 N 292.664 1.56529 -0.183458 0
M  V30 2998 C 293.627 2.17324 0.728223 0
M  V30 2999 C 294.627 1.12453 1.14939 0
M  V30 3000 O 295.817 1.37902 1.06437 0
M  V30 3001 C 292.949 2.76591 1.99274 0
M  V30 3002 H 294.142 2.99241 0.198772 0
M  V30 3003 H 291.695 1.5616 0.0661391 0
M  V30 3004 H 292.43 1.98441 2.56499 0
M  V30 3005 H 292.215 3.5335 1.69959 0
M  V30 3006 H 293.705 3.23311 2.6431 0
M  V30 3007 N 294.142 -0.090211 1.57342 0
M  V30 3008 C 295.367 -0.810082 1.90925 0
M  V30 3009 C 295.792 -1.71248 0.778187 0
M  V30 3010 O 295.15 -1.79278 -0.269991 0
M  V30 3011 C 295.198 -1.59529 3.23393 0
M  V30 3012 O 294.302 -2.70461 3.11327 0
M  V30 3013 H 293.643 -0.222231 0.625707 0
M  V30 3014 H 296.173 -0.0639716 2.045 0
M  V30 3015 H 296.183 -1.97847 3.5682 0
M  V30 3016 H 294.858 -0.933055 4.05299 0
M  V30 3017 H 293.435 -2.35135 2.89423 0
M  V30 3018 N 295.62 -1.53406 -0.361157 0
M  V30 3019 C 296.567 -1.80156 -1.44265 0
M  V30 3020 C 297.537 -0.646183 -1.53015 0
M  V30 3021 O 298.722 -0.888818 -1.68833 0
M  V30 3022 C 295.862 -2.00116 -2.81154 0
M  V30 3023 C 294.975 -3.27833 -2.81335 0
M  V30 3024 C 294.11 -3.37957 -4.09828 0
M  V30 3025 C 293.149 -4.59689 -4.04168 0
M  V30 3026 N 292.286 -4.66942 -5.24318 0
M  V30 3027 H 297.126 -2.72438 -1.20754 0
M  V30 3028 H 294.663 -1.34954 -0.585296 0
M  V30 3029 H 296.621 -2.09677 -3.60682 0
M  V30 3030 H 295.251 -1.11167 -3.03054 0
M  V30 3031 H 294.303 -3.27204 -1.94014 0
M  V30 3032 H 295.615 -4.17442 -2.73027 0
M  V30 3033 H 294.769 -3.46853 -4.97773 0
M  V30 3034 H 293.508 -2.46372 -4.20894 0
M  V30 3035 H 292.513 -4.50889 -3.14609 0
M  V30 3036 H 293.738 -5.5262 -3.947 0
M  V30 3037 H 291.684 -3.7826 -5.35962 0
M  V30 3038 H 291.601 -5.50462 -5.18197 0
M  V30 3039 H 292.869 -4.80127 -6.14084 0
M  V30 3040 N 297.098 0.621204 -1.44841 0
M  V30 3041 C 298.048 1.72663 -1.48901 0
M  V30 3042 C 299.032 1.56964 -0.353702 0
M  V30 3043 O 300.224 1.66532 -0.599669 0
M  V30 3044 C 297.353 3.11381 -1.44557 0
M  V30 3045 C 296.439 3.32514 -2.6324 0
M  V30 3046 N 296.83 3.23969 -3.8843 0
M  V30 3047 C 295.128 3.63343 -2.58647 0
M  V30 3048 C 295.829 3.46062 -4.67564 0
M  V30 3049 N 294.805 3.69407 -3.98797 0
M  V30 3050 H 298.607 1.64529 -2.43531 0
M  V30 3051 H 296.121 0.82401 -1.39942 0
M  V30 3052 H 298.118 3.90667 -1.4555 0
M  V30 3053 H 296.778 3.20674 -0.509731 0
M  V30 3054 H 297.789 3.02669 -4.20252 0
M  V30 3055 H 294.466 3.79556 -1.73906 0
M  V30 3056 H 295.856 3.44963 -5.76585 0
M  V30 3057 N 298.576 1.31904 0.862503 0
M  V30 3058 C 299.822 1.22197 1.61851 0
M  V30 3059 C 300.155 -0.217641 1.92977 0
M  V30 3060 O 299.43 -1.15264 1.56666 0
M  V30 3061 C 299.713 2.07378 2.94391 0
M  V30 3062 C 299.566 3.59678 2.70096 0
M  V30 3063 C 300.885 1.92891 3.95577 0
M  V30 3064 H 298.004 0.445255 0.587296 0
M  V30 3065 H 300.646 1.6177 0.99651 0
M  V30 3066 H 298.796 1.73758 3.47477 0
M  V30 3067 H 300.468 4.03472 2.23625 0
M  V30 3068 H 298.711 3.82735 2.04197 0
M  V30 3069 H 299.382 4.14595 3.64438 0
M  V30 3070 H 301.858 2.22327 3.51724 0
M  V30 3071 H 300.734 2.54781 4.86187 0
M  V30 3072 H 300.995 0.894315 4.3296 0
M  V30 3073 N 300.054 -1.07777 1.14986 0
M  V30 3074 C 301.017 -2.13041 0.845358 0
M  V30 3075 C 302.017 -1.60071 -0.152931 0
M  V30 3076 O 303.207 -1.74033 0.0761879 0
M  V30 3077 C 300.339 -3.39896 0.261383 0
M  V30 3078 H 301.532 -2.41485 1.77834 0
M  V30 3079 H 299.085 -1.23595 0.956757 0
M  V30 3080 H 299.82 -3.17091 -0.68 0
M  V30 3081 H 299.605 -3.79642 0.980514 0
M  V30 3082 H 301.095 -4.17548 0.0657687 0
M  V30 3083 N 301.532 -0.945985 -1.26051 0
M  V30 3084 C 302.495 -0.463897 -2.24456 0
M  V30 3085 C 303.495 0.427655 -1.55009 0
M  V30 3086 O 304.685 0.226157 -1.72726 0
M  V30 3087 C 301.817 0.330812 -3.39291 0
M  V30 3088 H 303.01 -1.33357 -2.68619 0
M  V30 3089 H 300.563 -0.728416 -1.38289 0
M  V30 3090 H 301.298 1.21852 -3.00537 0
M  V30 3091 H 301.083 -0.308679 -3.90883 0
M  V30 3092 H 302.573 0.657865 -4.12386 0
M  V30 3093 N 303.011 1.40521 -0.713556 0
M  V30 3094 C 304.236 2.05759 -0.26035 0
M  V30 3095 C 304.661 1.53403 1.08854 0
M  V30 3096 O 304.019 0.668535 1.68524 0
M  V30 3097 C 304.067 3.59745 -0.248122 0
M  V30 3098 O 303.171 4.05123 0.77131 0
M  V30 3099 H 302.512 0.652564 -0.122703 0
M  V30 3100 H 305.042 1.79958 -0.973467 0
M  V30 3101 H 305.052 4.07911 -0.0851129 0
M  V30 3102 H 303.727 3.97218 -1.2325 0
M  V30 3103 H 302.304 3.68422 0.57619 0
M  V30 3104 N 304.489 0.459591 1.5075 0
M  V30 3105 C 305.766 -0.160371 1.94941 0
M  V30 3106 C 306.146 -1.58048 1.39943 0
M  V30 3107 O 305.494 -2.206 0.595629 0
M  V30 3108 C 305.704 -0.115432 3.48809 0
M  V30 3109 C 307.052 -0.310026 4.23467 0
M  V30 3110 O 308.076 -0.192543 3.55679 0
M  V30 3111 O 306.935 -0.546031 5.43765 0
M  V30 3112 H 304.029 -0.117925 0.818549 0
M  V30 3113 H 306.575 0.519169 1.61563 0
M  V30 3114 H 305.347 0.87652 3.81357 0
M  V30 3115 H 304.97 -0.836928 3.88692 0
M  V30 3116 N 305.967 -1.56429 0.191757 0
M  V30 3117 C 307.216 -1.9666 -0.448088 0
M  V30 3118 C 307.529 -1.08136 -1.62991 0
M  V30 3119 O 308.735 -1.38135 -2.33733 0
M  V30 3120 C 307.191 -3.49753 -0.848585 0
M  V30 3121 C 306.799 -4.46935 0.308764 0
M  V30 3122 C 308.543 -3.9876 -1.4557 0
M  V30 3123 C 306.45 -5.91293 -0.112506 0
M  V30 3124 H 305.38 -0.734312 -0.171179 0
M  V30 3125 H 308.031 -1.81301 0.283242 0
M  V30 3126 H 306.413 -3.60604 -1.63649 0
M  V30 3127 H 307.587 -4.47813 1.08627 0
M  V30 3128 H 305.902 -4.08102 0.827158 0
M  V30 3129 H 308.499 -5.04086 -1.78328 0
M  V30 3130 H 308.842 -3.42875 -2.36099 0
M  V30 3131 H 309.375 -3.9101 -0.731836 0
M  V30 3132 H 306.114 -6.51097 0.758514 0
M  V30 3133 H 305.634 -5.93676 -0.854941 0
M  V30 3134 H 307.313 -6.44663 -0.549448 0
M  V30 3135 N 307.445 0.0818655 -1.57387 0
M  V30 3136 C 308.377 1.12484 -1.997 0
M  V30 3137 C 309.39 1.35564 -0.90146 0
M  V30 3138 O 310.579 1.33982 -1.17945 0
M  V30 3139 C 307.679 2.47778 -2.31213 0
M  V30 3140 C 306.852 2.44793 -3.62485 0
M  V30 3141 C 305.911 3.62117 -3.81782 0
M  V30 3142 O 304.937 3.44005 -4.53486 0
M  V30 3143 N 306.139 4.82094 -3.23367 0
M  V30 3144 H 308.904 0.764585 -2.89783 0
M  V30 3145 H 306.465 0.270664 -1.59621 0
M  V30 3146 H 308.457 3.24891 -2.41304 0
M  V30 3147 H 307.027 2.75843 -1.4707 0
M  V30 3148 H 306.247 1.53134 -3.6324 0
M  V30 3149 H 307.535 2.39889 -4.48699 0
M  V30 3150 H 306.933 4.99713 -2.65148 0
M  V30 3151 H 305.49 5.56753 -3.38923 0
M  V30 3152 N 308.923 1.53595 0.353017 0
M  V30 3153 C 310.148 1.7462 1.11904 0
M  V30 3154 C 310.573 0.479721 1.8188 0
M  V30 3155 O 309.931 -0.567066 1.72204 0
M  V30 3156 C 309.979 2.92029 2.11545 0
M  V30 3157 O 309.083 2.61516 3.18878 0
M  V30 3158 H 308.424 0.579531 0.324099 0
M  V30 3159 H 310.954 2.00525 0.406301 0
M  V30 3160 H 310.964 3.18551 2.5493 0
M  V30 3161 H 309.639 3.83888 1.60008 0
M  V30 3162 H 308.216 2.45852 2.80377 0
M  V30 3163 N 310.401 -0.613514 1.45168 0
M  V30 3164 C 311.331 -1.7354 1.56225 0
M  V30 3165 C 312.312 -1.64981 0.41414 0
M  V30 3166 O 313.497 -1.83472 0.636526 0
M  V30 3167 C 310.627 -3.12128 1.52295 0
M  V30 3168 C 309.581 -3.35491 2.65762 0
M  V30 3169 C 308.907 -4.74291 2.46885 0
M  V30 3170 C 310.207 -3.26325 4.0781 0
M  V30 3171 H 311.901 -1.64543 2.50132 0
M  V30 3172 H 309.447 -0.790185 1.20383 0
M  V30 3173 H 311.4 -3.90404 1.58628 0
M  V30 3174 H 310.124 -3.2195 0.549139 0
M  V30 3175 H 308.783 -2.59603 2.58847 0
M  V30 3176 H 308.431 -4.80839 1.47657 0
M  V30 3177 H 308.131 -4.9088 3.22972 0
M  V30 3178 H 309.655 -5.54775 2.55063 0
M  V30 3179 H 311.069 -3.94483 4.16 0
M  V30 3180 H 309.466 -3.54445 4.8424 0
M  V30 3181 H 310.536 -2.23855 4.30136 0
M  V30 3182 N 311.879 -1.3236 -0.855495 0
M  V30 3183 C 312.812 -1.15559 -1.96777 0
M  V30 3184 C 313.79 -0.0552681 -1.62506 0
M  V30 3185 O 314.974 -0.214419 -1.87277 0
M  V30 3186 C 312.101 -0.768851 -3.29858 0
M  V30 3187 C 311.147 -1.87429 -3.83109 0
M  V30 3188 S 311.98 -3.48243 -4.06801 0
M  V30 3189 C 313.136 -3.11539 -5.42858 0
M  V30 3190 H 313.369 -2.09717 -2.10727 0
M  V30 3191 H 310.902 -1.17011 -1.00737 0
M  V30 3192 H 312.86 -0.55248 -4.06765 0
M  V30 3193 H 311.521 0.153857 -3.13723 0
M  V30 3194 H 310.714 -1.55667 -4.79358 0
M  V30 3195 H 310.316 -2.04647 -3.13042 0
M  V30 3196 H 312.608 -2.61331 -6.2507 0
M  V30 3197 H 313.551 -4.06806 -5.79582 0
M  V30 3198 H 313.959 -2.48582 -5.06821 0
M  V30 3199 N 313.357 1.07166 -1.15556 0
M  V30 3200 C 314.32 2.12589 -0.856644 0
M  V30 3201 C 315.32 1.6015 0.14444 0
M  V30 3202 O 316.51 1.7399 -0.0854163 0
M  V30 3203 C 313.642 3.39753 -0.279405 0
M  V30 3204 H 314.835 2.40539 -1.79112 0
M  V30 3205 H 312.388 1.23086 -0.963298 0
M  V30 3206 H 313.123 3.17447 0.663174 0
M  V30 3207 H 312.908 3.79117 -1.00063 0
M  V30 3208 H 314.398 4.17507 -0.0879113 0
M  V30 3209 N 314.835 0.952656 1.25548 0
M  V30 3210 C 315.782 0.47008 2.25962 0
M  V30 3211 C 316.752 -0.476384 1.59122 0
M  V30 3212 O 317.937 -0.39007 1.8677 0
M  V30 3213 C 315.077 -0.247881 3.44209 0
M  V30 3214 C 314.19 0.735591 4.25691 0
M  V30 3215 C 313.325 -0.0047306 5.312 0
M  V30 3216 C 312.364 0.969805 6.04368 0
M  V30 3217 N 311.501 0.260486 7.01617 0
M  V30 3218 H 316.341 1.33126 2.66611 0
M  V30 3219 H 313.878 0.66765 1.31076 0
M  V30 3220 H 315.836 -0.680695 4.1161 0
M  V30 3221 H 314.466 -1.07312 3.0444 0
M  V30 3222 H 313.518 1.28689 3.57971 0
M  V30 3223 H 314.83 1.47934 4.76358 0
M  V30 3224 H 313.984 -0.496275 6.04667 0
M  V30 3225 H 312.723 -0.781282 4.81401 0
M  V30 3226 H 311.728 1.47237 5.29718 0
M  V30 3227 H 312.953 1.74655 6.56256 0
M  V30 3228 H 310.899 -0.497364 6.54112 0
M  V30 3229 H 310.816 0.943362 7.50091 0
M  V30 3230 H 312.084 -0.209587 7.79218 0
M  V30 3231 N 316.313 -1.40141 0.720998 0
M  V30 3232 C 317.559 -2.01084 0.263231 0
M  V30 3233 C 317.892 -1.57052 -1.14229 0
M  V30 3234 O 317.167 -0.793027 -1.77599 0
M  V30 3235 C 317.45 -3.58401 0.349344 0
M  V30 3236 C 317.303 -4.12491 1.79363 0
M  V30 3237 C 318.622 -4.39231 -0.276351 0
M  V30 3238 H 315.741 -0.730572 0.0971228 0
M  V30 3239 H 318.383 -1.66543 0.914518 0
M  V30 3240 H 316.533 -3.87958 -0.205165 0
M  V30 3241 H 318.205 -3.93711 2.40394 0
M  V30 3242 H 316.448 -3.66576 2.31958 0
M  V30 3243 H 317.119 -5.21646 1.80524 0
M  V30 3244 H 319.595 -4.15637 0.196184 0
M  V30 3245 H 318.471 -5.48586 -0.185681 0
M  V30 3246 H 318.732 -4.20643 -1.36059 0
M  V30 3247 N 317.792 -0.46758 -1.50504 0
M  V30 3248 C 318.74 0.342482 -2.30065 0
M  V30 3249 C 319.734 0.993596 -1.37201 0
M  V30 3250 O 320.94 0.925102 -1.54408 0
M  V30 3251 H 317.315 0.129283 -0.740803 0
M  V30 3252 H 319.286 -0.34899 -2.96352 0
M  V30 3253 C 318.035 1.4139 -3.17654 0
M  V30 3254 H 317.358 0.922264 -3.89017 0
M  V30 3255 H 318.798 1.95335 -3.76325 0
M  V30 3256 C 317.257 2.4139 -2.35016 0
M  V30 3257 O 317.787 3.46586 -2.03079 0
M  V30 3258 N 315.993 2.13021 -1.97662 0
M  V30 3259 H 315.54 1.27499 -2.23834 0
M  V30 3260 H 315.498 2.80164 -1.42673 0
M  V30 3261 N 319.27 1.56325 -0.20005 0
M  V30 3262 C 320.518 1.97329 0.436547 0
M  V30 3263 C 320.839 1.08826 1.61808 0
M  V30 3264 O 320.109 0.160604 1.95241 0
M  V30 3265 H 318.689 0.728714 0.164272 0
M  V30 3266 H 321.351 1.92761 -0.287937 0
M  V30 3267 H 320.447 3.02264 0.777353 0
M  V30 3268 N 320.748 -0.0735177 1.57428 0
M  V30 3269 C 321.973 -0.789787 1.91774 0
M  V30 3270 C 322.398 -1.70413 0.796306 0
M  V30 3271 O 321.756 -1.79555 -0.250961 0
M  V30 3272 C 321.804 -1.5609 3.25067 0
M  V30 3273 O 320.908 -2.67144 3.14178 0
M  V30 3274 H 320.249 -0.215582 0.628029 0
M  V30 3275 H 322.779 -0.0422781 2.04556 0
M  V30 3276 H 322.789 -1.94052 3.58898 0
M  V30 3277 H 321.464 -0.890015 4.06265 0
M  V30 3278 H 320.041 -2.32052 2.91901 0
M  V30 3279 N 322.226 -1.5378 -0.344866 0
M  V30 3280 C 323.637 -1.62428 -0.920552 0
M  V30 3281 C 323.988 -0.504747 -1.89596 0
M  V30 3282 O 323.113 0.365711 -2.13287 0
M  V30 3283 C 323.708 -2.94419 -1.67639 0
M  V30 3284 C 322.267 -3.05333 -2.20111 0
M  V30 3285 C 321.414 -2.57866 -1.01982 0
M  V30 3286 H 324.365 -1.58222 -0.123042 0
M  V30 3287 H 324.386 -2.83384 -2.53917 0
M  V30 3288 H 323.898 -3.7588 -0.966224 0
M  V30 3289 H 321.999 -2.28502 -2.94308 0
M  V30 3290 H 322.112 -4.10778 -2.46573 0
M  V30 3291 H 320.476 -2.13241 -1.39285 0
M  V30 3292 H 321.259 -3.41765 -0.324308 0
M  V30 3293 N 323.704 0.605807 -1.45491 0
M  V30 3294 C 324.95 1.36679 -1.49823 0
M  V30 3295 C 325.283 1.93693 -0.140175 0
M  V30 3296 O 324.558 1.75158 0.845581 0
M  V30 3297 C 324.841 2.51337 -2.57879 0
M  V30 3298 C 324.694 1.99508 -4.03134 0
M  V30 3299 C 326.013 3.53463 -2.62205 0
M  V30 3300 H 323.132 0.495617 -0.545466 0
M  V30 3301 H 325.774 0.682732 -1.7731 0
M  V30 3302 H 323.924 3.09691 -2.34571 0
M  V30 3303 H 325.596 1.45789 -4.37656 0
M  V30 3304 H 323.839 1.30496 -4.13707 0
M  V30 3305 H 324.51 2.82169 -4.74431 0
M  V30 3306 H 326.986 3.04953 -2.83095 0
M  V30 3307 H 325.862 4.31178 -3.39672 0
M  V30 3308 H 326.123 4.09197 -1.67363 0
M  V30 3309 N 325.182 1.32811 0.848464 0
M  V30 3310 C 326.428 1.23907 1.60546 0
M  V30 3311 C 326.761 -0.197161 1.93197 0
M  V30 3312 O 326.036 -1.13596 1.5788 0
M  V30 3313 C 326.319 2.10489 2.92175 0
M  V30 3314 C 326.172 3.62522 2.66266 0
M  V30 3315 C 327.491 1.97075 3.93509 0
M  V30 3316 H 324.61 0.451459 0.58254 0
M  V30 3317 H 327.252 1.62818 0.979296 0
M  V30 3318 H 325.402 1.77434 3.45614 0
M  V30 3319 H 327.074 4.05821 2.19334 0
M  V30 3320 H 325.317 3.84879 2.00126 0
M  V30 3321 H 325.988 4.18437 3.6002 0
M  V30 3322 H 328.464 2.26045 3.49346 0
M  V30 3323 H 327.34 2.59923 4.83457 0
M  V30 3324 H 327.601 0.940186 4.31987 0
M  V30 3325 N 326.66 -1.06551 1.16123 0
M  V30 3326 C 327.907 -1.79302 0.941126 0
M  V30 3327 C 328.235 -1.87105 -0.531235 0
M  V30 3328 O 327.49 -1.35692 -1.41018 0
M  V30 3329 C 327.789 -3.23911 1.51052 0
M  V30 3330 C 327.455 -3.36193 3.00475 0
M  V30 3331 C 326.117 -3.39252 3.41265 0
M  V30 3332 C 328.469 -3.38326 3.96465 0
M  V30 3333 C 325.797 -3.42057 4.76669 0
M  V30 3334 C 328.149 -3.4267 5.31752 0
M  V30 3335 C 326.813 -3.4401 5.72026 0
M  V30 3336 H 326.083 -0.656111 0.344382 0
M  V30 3337 H 328.73 -1.25325 1.44796 0
M  V30 3338 H 327.035 -3.80723 0.925063 0
M  V30 3339 H 328.732 -3.78793 1.31593 0
M  V30 3340 H 325.322 -3.34516 2.6795 0
M  V30 3341 H 329.506 -3.35176 3.6602 0
M  V30 3342 H 324.762 -3.41398 5.07206 0
M  V30 3343 H 328.936 -3.43268 6.05921 0
M  V30 3344 H 326.563 -3.45937 6.76928 0
M  V30 3345 N 328.138 -0.959301 -1.25041 0
M  V30 3346 C 329.07 -0.440543 -2.24926 0
M  V30 3347 C 330.083 0.446131 -1.56568 0
M  V30 3348 O 331.272 0.253657 -1.76689 0
M  V30 3349 C 328.372 0.38412 -3.36716 0
M  V30 3350 C 327.545 -0.490658 -4.34639 0
M  V30 3351 C 326.604 0.276587 -5.25473 0
M  V30 3352 O 325.63 -0.326614 -5.68262 0
M  V30 3353 N 326.832 1.56844 -5.5891 0
M  V30 3354 H 329.597 -1.29931 -2.70071 0
M  V30 3355 H 327.158 -0.830181 -1.38995 0
M  V30 3356 H 329.15 0.905228 -3.94446 0
M  V30 3357 H 327.72 1.14377 -2.90924 0
M  V30 3358 H 326.94 -1.19282 -3.7572 0
M  V30 3359 H 328.228 -1.08756 -4.97041 0
M  V30 3360 H 327.626 2.08036 -5.26059 0
M  V30 3361 H 326.183 2.03541 -6.19205 0
M  V30 3362 N 329.616 1.39756 -0.72842 0
M  V30 3363 C 330.526 2.34444 -0.0855374 0
M  V30 3364 C 331.542 1.57976 0.729356 0
M  V30 3365 O 332.718 1.90301 0.659346 0
M  V30 3366 C 329.783 3.36965 0.815798 0
M  V30 3367 C 328.844 4.29299 -0.0105996 0
M  V30 3368 C 328.077 5.26923 0.84781 0
M  V30 3369 O 328.3 5.30859 2.08673 0
M  V30 3370 O 327.234 6.01249 0.279969 0
M  V30 3371 H 331.06 2.91065 -0.866892 0
M  V30 3372 H 328.645 1.4117 -0.48902 0
M  V30 3373 H 330.527 3.99804 1.33171 0
M  V30 3374 H 329.202 2.82739 1.57608 0
M  V30 3375 H 328.109 3.69703 -0.571877 0
M  V30 3376 H 329.442 4.86712 -0.73295 0
M  V30 3377 N 331.094 0.475555 1.50254 0
M  V30 3378 C 332.34 -0.0780073 2.0265 0
M  V30 3379 C 332.673 -1.38968 1.35652 0
M  V30 3380 O 331.948 -1.8839 0.483691 0
M  V30 3381 C 332.231 -0.257161 3.59181 0
M  V30 3382 C 332.084 1.07585 4.36744 0
M  V30 3383 C 333.403 -1.00965 4.28362 0
M  V30 3384 H 330.522 -0.0268758 0.73651 0
M  V30 3385 H 333.164 0.622015 1.7953 0
M  V30 3386 H 331.314 -0.853412 3.79011 0
M  V30 3387 H 332.986 1.70902 4.28474 0
M  V30 3388 H 331.229 1.6714 4.00308 0
M  V30 3389 H 331.9 0.904088 5.44546 0
M  V30 3390 H 334.376 -0.504214 4.13034 0
M  V30 3391 H 333.252 -1.10381 5.37687 0
M  V30 3392 H 333.513 -2.04731 3.91839 0
M  V30 3393 N 332.573 -1.56217 0.208337 0
M  V30 3394 C 333.822 -1.97124 -0.427204 0
M  V30 3395 C 334.135 -1.09859 -1.61835 0
M  V30 3396 O 335.341 -1.40606 -2.32255 0
M  V30 3397 C 333.797 -3.50633 -0.811442 0
M  V30 3398 C 333.405 -4.46582 0.35615 0
M  V30 3399 C 335.149 -4.00282 -1.41332 0
M  V30 3400 C 333.056 -5.91379 -0.0497852 0
M  V30 3401 H 331.986 -0.736086 -0.163381 0
M  V30 3402 H 334.637 -1.8099 0.302456 0
M  V30 3403 H 333.019 -3.62319 -1.59815 0
M  V30 3404 H 334.193 -4.46636 1.1337 0
M  V30 3405 H 332.508 -4.07202 0.870396 0
M  V30 3406 H 335.105 -5.0595 -1.72972 0
M  V30 3407 H 335.448 -3.45359 -2.32449 0
M  V30 3408 H 335.981 -3.91764 -0.690323 0
M  V30 3409 H 332.72 -6.50255 0.827529 0
M  V30 3410 H 332.24 -5.94549 -0.791926 0
M  V30 3411 H 333.919 -6.45209 -0.481042 0
M  V30 3412 N 334.051 0.0651679 -1.57465 0
M  V30 3413 C 335.328 0.79644 -1.78651 0
M  V30 3414 C 335.708 1.95454 -0.797566 0
M  V30 3415 O 335.056 2.27882 0.167946 0
M  V30 3416 C 335.266 1.26322 -3.25337 0
M  V30 3417 C 336.614 1.6939 -3.89348 0
M  V30 3418 O 337.638 1.35872 -3.29268 0
M  V30 3419 O 336.497 2.31471 -4.95059 0
M  V30 3420 H 333.591 0.382157 -0.733407 0
M  V30 3421 H 336.137 0.0447311 -1.69641 0
M  V30 3422 H 334.909 0.434859 -3.88876 0
M  V30 3423 H 334.532 2.07604 -3.39096 0
M  V30 3424 N 335.529 1.53961 0.336706 0
M  V30 3425 C 336.461 1.78751 1.4346 0
M  V30 3426 C 337.474 0.669019 1.48418 0
M  V30 3427 O 338.663 0.945884 1.51378 0
M  V30 3428 C 335.763 1.87844 2.82078 0
M  V30 3429 C 334.936 3.17854 3.00479 0
M  V30 3430 C 333.995 3.17816 4.19379 0
M  V30 3431 O 333.021 3.91511 4.13168 0
M  V30 3432 N 334.223 2.40669 5.2826 0
M  V30 3433 H 336.988 2.73493 1.22563 0
M  V30 3434 H 334.549 1.53096 0.526625 0
M  V30 3435 H 336.541 1.85261 3.59806 0
M  V30 3436 H 335.111 1.00257 2.96086 0
M  V30 3437 H 334.331 3.33504 2.10163 0
M  V30 3438 H 335.619 4.03718 3.0966 0
M  V30 3439 H 335.017 1.8036 5.36178 0
M  V30 3440 H 333.574 2.43877 6.04456 0
M  V30 3441 N 337.007 -0.598083 1.45811 0
M  V30 3442 C 338.255 -1.35413 1.50026 0
M  V30 3443 C 338.576 -1.94444 0.147177 0
M  V30 3444 O 337.846 -1.77701 -0.824571 0
M  V30 3445 H 336.426 -0.502727 0.552517 0
M  V30 3446 H 339.088 -0.701606 1.81834 0
M  V30 3447 H 338.184 -2.16871 2.2444 0
M  V30 3448 N 338.485 -1.33259 -0.841409 0
M  V30 3449 C 339.733 -1.24326 -1.59334 0
M  V30 3450 C 340.054 0.191564 -1.94057 0
M  V30 3451 O 339.324 1.11967 -1.60749 0
M  V30 3452 H 337.904 -0.457174 -0.590763 0
M  V30 3453 H 340.566 -1.66947 -1.00571 0
M  V30 3454 H 339.662 -1.8352 -2.52442 0
M  V30 3455 N 339.963 1.05934 -1.16686 0
M  V30 3456 C 340.873 2.17014 -0.891183 0
M  V30 3457 C 341.889 1.73453 0.137907 0
M  V30 3458 O 343.065 2.01361 -0.039592 0
M  V30 3459 C 340.13 3.44384 -0.400099 0
M  V30 3460 C 339.191 4.02433 -1.49486 0
M  V30 3461 C 338.424 5.23723 -1.02711 0
M  V30 3462 O 338.647 5.7027 0.121716 0
M  V30 3463 O 337.581 5.7382 -1.81699 0
M  V30 3464 H 341.407 2.43113 -1.82015 0
M  V30 3465 H 338.992 1.15541 -0.947132 0
M  V30 3466 H 340.874 4.21189 -0.133392 0
M  V30 3467 H 339.549 3.19802 0.500817 0
M  V30 3468 H 338.456 3.27102 -1.81535 0
M  V30 3469 H 339.789 4.31317 -2.37121 0
M  V30 3470 N 341.441 0.965919 1.2453 0
M  V30 3471 C 342.404 0.499547 2.2369 0
M  V30 3472 C 343.404 -0.40294 1.5567 0
M  V30 3473 O 344.594 -0.19865 1.73064 0
M  V30 3474 C 341.726 -0.276792 3.39774 0
M  V30 3475 H 342.919 1.37613 2.66463 0
M  V30 3476 H 340.472 0.750324 1.37112 0
M  V30 3477 H 341.207 -1.17055 3.02438 0
M  V30 3478 H 340.992 0.370826 3.90343 0
M  V30 3479 H 342.482 -0.592175 4.1338 0
M  V30 3480 N 342.919 -1.39368 0.735821 0
M  V30 3481 C 344.165 -2.00794 0.284544 0
M  V30 3482 C 344.498 -1.58255 -1.12557 0
M  V30 3483 O 343.773 -0.811819 -1.76748 0
M  V30 3484 C 344.056 -3.58011 0.387337 0
M  V30 3485 C 343.909 -4.10566 1.83728 0
M  V30 3486 C 345.228 -4.395 -0.22975 0
M  V30 3487 H 342.347 -0.729501 0.104866 0
M  V30 3488 H 344.989 -1.65564 0.93213 0
M  V30 3489 H 343.139 -3.88154 -0.164006 0
M  V30 3490 H 344.811 -3.91139 2.44556 0
M  V30 3491 H 343.054 -3.64095 2.35833 0
M  V30 3492 H 343.725 -5.19702 1.86047 0
M  V30 3493 H 346.201 -4.15406 0.240257 0
M  V30 3494 H 345.077 -5.48752 -0.127485 0
M  V30 3495 H 345.338 -4.22062 -1.3159 0
M  V30 3496 N 344.397 -0.483516 -1.5 0
M  V30 3497 C 345.645 0.067027 -2.01989 0
M  V30 3498 C 345.966 1.3909 -1.36671 0
M  V30 3499 O 345.236 1.88978 -0.516152 0
M  V30 3500 H 343.816 0.0277606 -0.746484 0
M  V30 3501 H 346.478 -0.636773 -1.84204 0
M  V30 3502 H 345.574 0.209484 -3.11396 0
M  V30 3503 N 345.875 1.56104 -0.216619 0
M  V30 3504 C 346.838 2.18819 0.681962 0
M  V30 3505 C 347.838 1.14866 1.12528 0
M  V30 3506 O 349.028 1.40128 1.03488 0
M  V30 3507 C 346.16 2.80756 1.93362 0
M  V30 3508 H 347.353 2.99595 0.135254 0
M  V30 3509 H 344.906 1.56265 0.0330003 0
M  V30 3510 H 345.641 2.03837 2.52232 0
M  V30 3511 H 345.426 3.56876 1.62426 0
M  V30 3512 H 346.916 3.28844 2.57393 0
M  V30 3513 N 347.353 -0.0568162 1.57498 0
M  V30 3514 C 348.578 -0.769402 1.92601 0
M  V30 3515 C 349.003 -1.69559 0.814336 0
M  V30 3516 O 348.361 -1.79811 -0.231903 0
M  V30 3517 C 348.409 -1.52634 3.26704 0
M  V30 3518 O 347.513 -2.63797 3.16994 0
M  V30 3519 H 346.854 -0.208909 0.63028 0
M  V30 3520 H 349.384 -0.0205798 2.0459 0
M  V30 3521 H 349.394 -1.90234 3.60936 0
M  V30 3522 H 348.069 -0.846875 4.07186 0
M  V30 3523 H 346.646 -2.28943 2.94346 0
M  V30 3524 N 348.832 -1.54138 -0.328536 0
M  V30 3525 C 349.742 -1.86192 -1.42723 0
M  V30 3526 C 350.758 -0.753382 -1.56844 0
M  V30 3527 O 351.934 -1.04718 -1.72035 0
M  V30 3528 C 348.999 -2.07824 -2.77507 0
M  V30 3529 C 348.06 -3.31641 -2.72603 0
M  V30 3530 C 347.293 -3.52232 -4.00959 0
M  V30 3531 O 347.516 -2.7636 -4.9898 0
M  V30 3532 O 346.45 -4.45699 -4.0452 0
M  V30 3533 H 350.276 -2.79608 -1.18547 0
M  V30 3534 H 347.861 -1.3998 -0.522104 0
M  V30 3535 H 349.743 -2.23411 -3.57303 0
M  V30 3536 H 348.418 -1.17596 -3.01584 0
M  V30 3537 H 347.325 -3.21444 -1.91376 0
M  V30 3538 H 348.658 -4.2191 -2.53481 0
M  V30 3539 N 350.31 0.590341 -1.46126 0
M  V30 3540 C 351.54 1.37304 -1.54373 0
M  V30 3541 C 351.948 1.88332 -0.181071 0
M  V30 3542 O 351.291 1.63852 0.830559 0
M  V30 3543 C 351.353 2.6012 -2.48149 0
M  V30 3544 C 351.017 2.30613 -3.94546 0
M  V30 3545 C 352.014 1.89915 -4.83971 0
M  V30 3546 C 349.699 2.42993 -4.39613 0
M  V30 3547 C 351.693 1.61981 -6.16475 0
M  V30 3548 C 349.38 2.14672 -5.72153 0
M  V30 3549 C 350.378 1.7423 -6.60404 0
M  V30 3550 O 350.066 1.46251 -7.90485 0
M  V30 3551 H 349.798 0.426086 -0.524811 0
M  V30 3552 H 352.352 0.72539 -1.92165 0
M  V30 3553 H 350.582 3.27664 -2.05361 0
M  V30 3554 H 352.271 3.22182 -2.46887 0
M  V30 3555 H 353.037 1.79872 -4.50412 0
M  V30 3556 H 348.916 2.73435 -3.71153 0
M  V30 3557 H 352.46 1.30341 -6.85315 0
M  V30 3558 H 348.357 2.24337 -6.05263 0
M  V30 3559 H 349.125 1.6016 -8.02677 0
M  V30 3560 N 351.788 1.33704 0.83433 0
M  V30 3561 C 352.718 1.26967 1.95963 0
M  V30 3562 C 353.699 0.149337 1.69443 0
M  V30 3563 O 354.884 0.339852 1.91203 0
M  V30 3564 C 352.014 1.01275 3.32206 0
M  V30 3565 C 350.968 2.09652 3.73136 0
M  V30 3566 C 350.294 1.69166 5.07235 0
M  V30 3567 C 351.594 3.51372 3.86439 0
M  V30 3568 H 353.288 2.2112 2.01857 0
M  V30 3569 H 350.834 1.06447 0.969793 0
M  V30 3570 H 352.787 0.952106 4.10503 0
M  V30 3571 H 351.511 0.0356203 3.26581 0
M  V30 3572 H 350.17 2.14766 2.97104 0
M  V30 3573 H 349.818 0.701437 4.98085 0
M  V30 3574 H 349.518 2.41694 5.35591 0
M  V30 3575 H 351.042 1.64576 5.88003 0
M  V30 3576 H 352.456 3.48734 4.55036 0
M  V30 3577 H 350.853 4.22425 4.26236 0
M  V30 3578 H 351.923 3.89546 2.88759 0
M  V30 3579 N 353.266 -1.05314 1.17247 0
M  V30 3580 C 354.491 -1.82509 0.985148 0
M  V30 3581 C 354.916 -1.82343 -0.461788 0
M  V30 3582 O 354.274 -1.23151 -1.33055 0
M  V30 3583 C 354.322 -3.26566 1.52929 0
M  V30 3584 O 353.426 -4.05666 0.742225 0
M  V30 3585 H 352.767 -0.564347 0.349869 0
M  V30 3586 H 355.297 -1.32718 1.55715 0
M  V30 3587 H 355.307 -3.77369 1.55103 0
M  V30 3588 H 353.982 -3.26001 2.58256 0
M  V30 3589 H 352.559 -3.64397 0.791794 0
M  V30 3590 N 354.744 -0.972509 -1.24016 0
M  V30 3591 C 355.972 -0.654803 -1.96265 0
M  V30 3592 C 356.387 0.776708 -1.72083 0
M  V30 3593 O 355.744 1.52171 -1.00748 0
M  V30 3594 C 355.795 -0.92592 -3.49441 0
M  V30 3595 O 355.516 -2.30116 -3.72798 0
M  V30 3596 C 357.017 -0.623068 -4.38899 0
M  V30 3597 H 354.237 -0.243907 -0.6251 0
M  V30 3598 H 356.781 -1.30175 -1.57717 0
M  V30 3599 H 354.936 -0.325108 -3.86033 0
M  V30 3600 H 355.35 -2.38483 -4.67147 0
M  V30 3601 H 356.824 -0.863189 -5.45209 0
M  V30 3602 H 357.301 0.442754 -4.36963 0
M  V30 3603 H 357.907 -1.204 -4.07902 0
M  V30 3604 N 356.222 1.38976 -0.743202 0
M  V30 3605 C 357.47 1.99948 -0.29417 0
M  V30 3606 C 357.791 1.59279 1.12495 0
M  V30 3607 O 357.061 0.844808 1.76748 0
M  V30 3608 H 355.641 0.739473 -0.105774 0
M  V30 3609 H 358.303 1.699 -0.954986 0
M  V30 3610 H 357.399 3.10142 -0.349056 0
M  V30 3611 N 357.7 0.491464 1.49741 0
M  V30 3612 C 358.63 -0.28154 2.31796 0
M  V30 3613 C 359.611 -0.971473 1.3963 0
M  V30 3614 O 360.796 -0.964719 1.68543 0
M  V30 3615 C 357.926 -1.35203 3.19902 0
M  V30 3616 C 356.88 -0.782529 4.20786 0
M  V30 3617 C 356.206 -1.95283 4.97764 0
M  V30 3618 C 357.506 0.21999 5.21837 0
M  V30 3619 H 359.2 0.403355 2.96671 0
M  V30 3620 H 356.746 0.195425 1.42668 0
M  V30 3621 H 358.699 -1.90045 3.76113 0
M  V30 3622 H 357.423 -2.06598 2.52953 0
M  V30 3623 H 356.082 -0.255928 3.65706 0
M  V30 3624 H 355.73 -2.65423 4.2727 0
M  V30 3625 H 355.43 -1.57789 5.66018 0
M  V30 3626 H 356.954 -2.50577 5.56816 0
M  V30 3627 H 358.368 -0.23996 5.72798 0
M  V30 3628 H 356.765 0.51026 5.97927 0
M  V30 3629 H 357.835 1.13911 4.7133 0
M  V30 3630 N 359.178 -1.55987 0.224894 0
M  V30 3631 C 360.424 -1.98684 -0.406502 0
M  V30 3632 C 360.757 -1.11248 -1.59177 0
M  V30 3633 O 360.032 -0.170909 -1.93748 0
M  V30 3634 C 360.315 -3.50218 -0.837808 0
M  V30 3635 C 360.168 -4.48426 0.351332 0
M  V30 3636 C 361.487 -4.06243 -1.69278 0
M  V30 3637 H 358.606 -0.722337 -0.146283 0
M  V30 3638 H 361.248 -1.87255 0.321799 0
M  V30 3639 H 359.398 -3.60089 -1.45837 0
M  V30 3640 H 361.07 -4.50562 0.989526 0
M  V30 3641 H 359.313 -4.22159 0.998207 0
M  V30 3642 H 359.984 -5.52 0.00655905 0
M  V30 3643 H 362.46 -3.99337 -1.16914 0
M  V30 3644 H 361.336 -5.12581 -1.96346 0
M  V30 3645 H 361.597 -3.53332 -2.65723 0
M  V30 3646 N 360.656 0.0484629 -1.57525 0
M  V30 3647 C 361.884 0.755421 -1.92616 0
M  V30 3648 C 362.299 1.69919 -0.822984 0
M  V30 3649 O 361.656 1.81378 0.202085 0
M  V30 3650 C 361.707 1.52915 -3.27566 0
M  V30 3651 O 361.428 0.62329 -4.33644 0
M  V30 3652 C 362.929 2.33502 -3.76818 0
M  V30 3653 H 360.149 0.213465 -0.63614 0
M  V30 3654 H 362.693 0.0117698 -2.04497 0
M  V30 3655 H 360.848 2.22486 -3.17142 0
M  V30 3656 H 361.262 1.16383 -5.11425 0
M  V30 3657 H 362.736 2.83214 -4.73808 0
M  V30 3658 H 363.213 3.14068 -3.07014 0
M  V30 3659 H 363.819 1.69043 -3.90262 0
M  V30 3660 N 362.134 1.5431 0.320358 0
M  V30 3661 C 363.044 1.86946 1.41734 0
M  V30 3662 C 364.06 0.761689 1.56443 0
M  V30 3663 O 365.236 1.05629 1.71477 0
M  V30 3664 C 362.301 2.09293 2.76401 0
M  V30 3665 C 361.362 3.33082 2.70841 0
M  V30 3666 C 360.595 3.54353 3.99086 0
M  V30 3667 O 360.818 2.79002 4.97508 0
M  V30 3668 O 359.752 4.47838 4.0215 0
M  V30 3669 H 363.578 2.80232 1.17062 0
M  V30 3670 H 361.163 1.40255 0.514673 0
M  V30 3671 H 363.045 2.25303 3.56113 0
M  V30 3672 H 361.72 1.19194 3.00956 0
M  V30 3673 H 360.627 3.22454 1.89668 0
M  V30 3674 H 361.96 4.23249 2.5124 0
M  V30 3675 N 363.613 -0.582584 1.46437 0
M  V30 3676 C 364.86 -1.34079 1.51753 0
M  V30 3677 C 365.188 -1.93762 0.169299 0
M  V30 3678 O 364.443 -1.76989 -0.835062 0
M  V30 3679 C 364.742 -2.48964 2.56421 0
M  V30 3680 C 364.408 -2.07273 4.00436 0
M  V30 3681 C 363.07 -1.95618 4.39644 0
M  V30 3682 C 365.422 -1.75111 4.90903 0
M  V30 3683 C 362.75 -1.5006 5.67185 0
M  V30 3684 C 365.102 -1.31032 6.18881 0
M  V30 3685 C 363.766 -1.17954 6.56996 0
M  V30 3686 H 363.036 -0.49063 0.555304 0
M  V30 3687 H 365.683 -0.656007 1.79913 0
M  V30 3688 H 363.988 -3.22889 2.21923 0
M  V30 3689 H 365.685 -3.07178 2.57765 0
M  V30 3690 H 362.275 -2.17279 3.69443 0
M  V30 3691 H 366.459 -1.83001 4.61329 0
M  V30 3692 H 361.715 -1.38577 5.95488 0
M  V30 3693 H 365.889 -1.052 6.88408 0
M  V30 3694 H 363.516 -0.824279 7.55718 0
M  V30 3695 N 365.091 -1.34144 -0.827227 0
M  V30 3696 C 366.038 -1.25364 -1.93785 0
M  V30 3697 C 367.008 -0.129774 -1.65592 0
M  V30 3698 O 368.193 -0.310024 -1.88264 0
M  V30 3699 C 365.333 -1.01064 -3.2997 0
M  V30 3700 C 364.446 -2.22185 -3.70484 0
M  V30 3701 C 363.581 -1.91203 -4.95595 0
M  V30 3702 C 362.62 -3.08491 -5.28677 0
M  V30 3703 N 361.757 -2.77421 -6.44967 0
M  V30 3704 H 366.597 -2.20347 -2.00627 0
M  V30 3705 H 364.134 -1.09558 -0.981608 0
M  V30 3706 H 366.092 -0.850139 -4.08446 0
M  V30 3707 H 364.722 -0.0975026 -3.22653 0
M  V30 3708 H 363.774 -2.4917 -2.87434 0
M  V30 3709 H 365.086 -3.0983 -3.90905 0
M  V30 3710 H 364.24 -1.71864 -5.81848 0
M  V30 3711 H 362.979 -1.00812 -4.77167 0
M  V30 3712 H 361.984 -3.28431 -4.40923 0
M  V30 3713 H 363.209 -3.99655 -5.49047 0
M  V30 3714 H 361.155 -1.89601 -6.28003 0
M  V30 3715 H 361.072 -3.58598 -6.6554 0
M  V30 3716 H 362.34 -2.61577 -7.34301 0
M  V30 3717 N 366.569 1.04691 -1.17803 0
M  V30 3718 C 367.799 1.81183 -0.992788 0
M  V30 3719 C 368.207 1.8347 0.462098 0
M  V30 3720 O 367.55 1.2643 1.33271 0
M  V30 3721 C 367.612 3.28363 -1.46349 0
M  V30 3722 C 367.276 3.49749 -2.94151 0
M  V30 3723 C 368.273 3.41456 -3.92051 0
M  V30 3724 C 365.958 3.76548 -3.32441 0
M  V30 3725 C 367.952 3.59656 -5.26238 0
M  V30 3726 C 365.639 3.94396 -4.66792 0
M  V30 3727 C 366.637 3.8595 -5.635 0
M  V30 3728 O 366.325 4.03294 -6.9542 0
M  V30 3729 H 366.057 0.577622 -0.351182 0
M  V30 3730 H 368.611 1.32876 -1.5663 0
M  V30 3731 H 366.841 3.77609 -0.833574 0
M  V30 3732 H 368.53 3.86395 -1.24313 0
M  V30 3733 H 369.296 3.20723 -3.63815 0
M  V30 3734 H 365.175 3.82224 -2.57732 0
M  V30 3735 H 368.719 3.52979 -6.01707 0
M  V30 3736 H 364.616 4.14622 -4.94731 0
M  V30 3737 H 365.384 4.2049 -7.02232 0
M  V30 3738 N 368.047 0.979072 1.23499 0
M  V30 3739 C 369.272 0.664845 1.96455 0
M  V30 3740 C 369.697 -0.761287 1.72006 0
M  V30 3741 O 369.055 -1.51837 0.990713 0
M  V30 3742 C 369.103 0.959479 3.47601 0
M  V30 3743 O 368.207 0.0508168 4.12369 0
M  V30 3744 H 367.548 0.250185 0.615064 0
M  V30 3745 H 370.078 1.31231 1.5697 0
M  V30 3746 H 370.088 0.895642 3.98048 0
M  V30 3747 H 368.763 1.99876 3.64723 0
M  V30 3748 H 367.34 0.16895 3.72517 0
M  V30 3749 N 369.525 -1.3858 0.750561 0
M  V30 3750 C 370.753 -2.04471 0.316098 0
M  V30 3751 C 371.168 -1.56606 -1.05452 0
M  V30 3752 O 370.525 -0.737784 -1.66922 0
M  V30 3753 C 370.576 -3.60025 0.326275 0
M  V30 3754 O 370.297 -4.06133 1.6428 0
M  V30 3755 C 371.798 -4.43131 -0.122429 0
M  V30 3756 H 369.018 -0.65717 0.135528 0
M  V30 3757 H 371.562 -1.77329 1.01857 0
M  V30 3758 H 369.717 -3.86014 -0.327431 0
M  V30 3759 H 370.131 -5.00547 1.56693 0
M  V30 3760 H 371.605 -5.51963 -0.0641473 0
M  V30 3761 H 372.082 -4.23333 -1.16988 0
M  V30 3762 H 372.688 -4.22323 0.50229 0
M  V30 3763 N 371.003 -0.499398 -1.49478 0
M  V30 3764 C 371.913 0.284489 -2.32869 0
M  V30 3765 C 372.929 0.968885 -1.44529 0
M  V30 3766 O 374.105 0.95062 -1.77553 0
M  V30 3767 C 371.17 1.33594 -3.19928 0
M  V30 3768 C 370.231 0.665149 -4.24116 0
M  V30 3769 C 369.464 1.6665 -5.07014 0
M  V30 3770 O 369.687 2.89618 -4.91404 0
M  V30 3771 O 368.621 1.22271 -5.8935 0
M  V30 3772 H 372.447 -0.39802 -3.01081 0
M  V30 3773 H 370.032 -0.260758 -1.47107 0
M  V30 3774 H 371.914 1.94431 -3.73864 0
M  V30 3775 H 370.589 2.0014 -2.54412 0
M  V30 3776 H 369.496 0.0170769 -3.74096 0
M  V30 3777 H 370.829 0.0421555 -4.92182 0
M  V30 3778 N 372.481 1.55866 -0.233164 0
M  V30 3779 C 373.411 2.23783 0.666599 0
M  V30 3780 C 374.392 1.21343 1.19205 0
M  V30 3781 O 375.577 1.4996 1.23392 0
M  V30 3782 C 372.707 2.92671 1.86978 0
M  V30 3783 C 371.661 4.01682 1.47768 0
M  V30 3784 C 370.987 4.57926 2.76058 0
M  V30 3785 C 372.287 5.18126 0.658993 0
M  V30 3786 H 373.981 2.99232 0.100306 0
M  V30 3787 H 371.527 1.43924 0.046804 0
M  V30 3788 H 373.48 3.3888 2.50476 0
M  V30 3789 H 372.204 2.14688 2.46123 0
M  V30 3790 H 370.863 3.56222 0.866106 0
M  V30 3791 H 370.511 3.76659 3.33372 0
M  V30 3792 H 370.211 5.31505 2.50552 0
M  V30 3793 H 371.735 5.06859 3.40479 0
M  V30 3794 H 373.149 5.60644 1.19795 0
M  V30 3795 H 371.546 5.98009 0.500552 0
M  V30 3796 H 372.616 4.83763 -0.331856 0
M  V30 3797 N 373.959 -0.0401083 1.57549 0
M  V30 3798 C 375.207 -0.731677 1.8839 0
M  V30 3799 C 375.528 -1.76481 0.829425 0
M  V30 3800 O 374.798 -1.95411 -0.1383 0
M  V30 3801 H 373.378 -0.273225 0.695239 0
M  V30 3802 H 376.04 -0.00867725 1.94898 0
M  V30 3803 H 375.136 -1.22816 2.86919 0
M  V30 3804 N 375.437 -1.54477 -0.31217 0
M  V30 3805 C 376.385 -1.85395 -1.40469 0
M  V30 3806 C 377.379 -0.726749 -1.53019 0
M  V30 3807 O 378.585 -0.910582 -1.55269 0
M  V30 3808 H 374.96 -0.587845 -0.46898 0
M  V30 3809 H 376.931 -2.76736 -1.11623 0
M  V30 3810 C 375.68 -2.10811 -2.76503 0
M  V30 3811 H 375.003 -2.97014 -2.67625 0
M  V30 3812 H 376.443 -2.3639 -3.51988 0
M  V30 3813 C 374.902 -0.903165 -3.24568 0
M  V30 3814 O 375.432 -0.118085 -4.01526 0
M  V30 3815 N 373.638 -0.711634 -2.81752 0
M  V30 3816 H 373.185 -1.35171 -2.19286 0
M  V30 3817 H 373.143 0.0930473 -3.14262 0
M  V30 3818 N 376.915 0.57481 -1.46744 0
M  V30 3819 C 378.143 1.35856 -1.56047 0
M  V30 3820 C 378.558 1.87691 -0.204365 0
M  V30 3821 O 377.915 1.64049 0.79963 0
M  V30 3822 C 377.966 2.54066 -2.57163 0
M  V30 3823 O 377.687 2.04377 -3.87507 0
M  V30 3824 C 379.188 3.46514 -2.76483 0
M  V30 3825 H 376.408 0.414754 -0.527466 0
M  V30 3826 H 378.952 0.698035 -1.92218 0
M  V30 3827 H 377.107 3.16092 -2.23974 0
M  V30 3828 H 377.521 2.81419 -4.4261 0
M  V30 3829 H 378.995 4.25919 -3.51137 0
M  V30 3830 H 379.472 3.98951 -1.83671 0
M  V30 3831 H 380.078 2.90318 -3.10799 0
M  V30 3832 N 378.394 1.34581 0.820102 0
M  V30 3833 C 379.641 1.27096 1.57648 0
M  V30 3834 C 379.969 -0.158317 1.93855 0
M  V30 3835 O 379.224 -1.12028 1.60463 0
M  V30 3836 C 379.523 2.10997 2.8847 0
M  V30 3837 C 379.189 3.59966 2.71543 0
M  V30 3838 C 377.851 4.00575 2.66634 0
M  V30 3839 C 380.203 4.54548 2.55021 0
M  V30 3840 C 377.531 5.33953 2.43128 0
M  V30 3841 C 379.883 5.88109 2.33047 0
M  V30 3842 C 378.547 6.27878 2.26552 0
M  V30 3843 H 377.817 0.465078 0.576874 0
M  V30 3844 H 380.464 1.6635 0.948671 0
M  V30 3845 H 378.769 1.6458 3.55557 0
M  V30 3846 H 380.466 2.0255 3.46084 0
M  V30 3847 H 377.056 3.27733 2.76205 0
M  V30 3848 H 381.24 4.24069 2.57835 0
M  V30 3849 H 376.496 5.63781 2.3656 0
M  V30 3850 H 380.67 6.60985 2.19251 0
M  V30 3851 H 378.297 7.31162 2.081 0
M  V30 3852 N 379.872 -1.04064 1.18357 0
M  V30 3853 C 381.288 -1.2947 0.933258 0
M  V30 3854 C 381.488 -1.97466 -0.401169 0
M  V30 3855 O 380.544 -2.25528 -1.13549 0
M  V30 3856 C 381.857 -2.15337 2.09882 0
M  V30 3857 C 383.405 -2.28683 2.13712 0
M  V30 3858 C 383.88 -3.17917 3.29686 0
M  V30 3859 N 385.371 -3.25504 3.29547 0
M  V30 3860 C 386.106 -3.94706 4.15926 0
M  V30 3861 N 385.602 -4.66239 5.12439 0
M  V30 3862 N 387.395 -3.90986 4.0384 0
M  V30 3863 H 379.546 -0.583359 2.04232 0
M  V30 3864 H 381.809 -0.319921 0.892387 0
M  V30 3865 H 381.515 -1.72682 3.06389 0
M  V30 3866 H 381.389 -3.16015 2.05947 0
M  V30 3867 H 383.776 -2.70575 1.17784 0
M  V30 3868 H 383.857 -1.27596 2.21705 0
M  V30 3869 H 383.501 -2.76736 4.25887 0
M  V30 3870 H 383.431 -4.19036 3.1893 0
M  V30 3871 H 385.922 -2.74547 2.59677 0
M  V30 3872 H 386.235 -5.16638 5.74722 0
M  V30 3873 H 384.58 -4.65143 5.16398 0
M  V30 3874 H 387.771 -3.34234 3.27727 0
M  V30 3875 H 387.944 -4.44646 4.71375 0
M  V30 3876 N 381.35 -0.985608 -1.22978 0
M  V30 3877 C 382.298 -0.522631 -2.26652 0
M  V30 3878 C 383.292 0.422998 -1.64034 0
M  V30 3879 O 384.498 0.296319 -1.77544 0
M  V30 3880 H 380.873 -0.150597 -0.736766 0
M  V30 3881 H 382.844 -1.40863 -2.63059 0
M  V30 3882 C 381.593 0.154238 -3.47358 0
M  V30 3883 H 380.916 -0.564329 -3.95797 0
M  V30 3884 H 382.356 0.441744 -4.21693 0
M  V30 3885 C 380.815 1.38719 -3.07016 0
M  V30 3886 O 381.345 2.48307 -3.15764 0
M  V30 3887 N 379.551 1.25975 -2.61875 0
M  V30 3888 H 379.098 0.368068 -2.54957 0
M  V30 3889 H 379.056 2.08578 -2.3525 0
M  V30 3890 N 382.828 1.3818 -0.7579 0
M  V30 3891 C 384.076 1.99624 -0.315361 0
M  V30 3892 C 384.397 1.60464 1.10799 0
M  V30 3893 O 383.667 0.863507 1.75842 0
M  V30 3894 H 382.247 0.73831 -0.113611 0
M  V30 3895 H 384.909 1.68878 -0.972952 0
M  V30 3896 H 384.005 3.09754 -0.381931 0
M  V30 3897 N 384.306 0.507319 1.49211 0
M  V30 3898 C 385.531 -0.033725 2.07373 0
M  V30 3899 C 385.956 -1.29485 1.36437 0
M  V30 3900 O 385.314 -1.76294 0.423087 0
M  V30 3901 C 385.362 -0.263945 3.59633 0
M  V30 3902 O 384.466 -1.33737 3.90113 0
M  V30 3903 H 383.807 0.0290331 0.663365 0
M  V30 3904 H 386.337 0.708749 1.91932 0
M  V30 3905 H 386.347 -0.493536 4.05004 0
M  V30 3906 H 385.022 0.657424 4.10671 0
M  V30 3907 H 383.599 -1.09224 3.56545 0
M  V30 3908 N 385.784 -1.5574 0.241426 0
M  V30 3909 C 386.714 -2.24133 -0.654722 0
M  V30 3910 C 387.695 -1.21974 -1.1856 0
M  V30 3911 O 388.88 -1.50612 -1.22595 0
M  V30 3912 C 386.01 -2.93659 -1.85423 0
M  V30 3913 C 384.964 -4.0246 -1.45636 0
M  V30 3914 C 384.29 -4.59383 -2.73626 0
M  V30 3915 C 385.59 -5.18468 -0.631506 0
M  V30 3916 H 387.284 -2.99281 -0.0844353 0
M  V30 3917 H 384.83 -1.43947 -0.0391707 0
M  V30 3918 H 386.783 -3.40203 -2.48676 0
M  V30 3919 H 385.507 -2.15991 -2.44981 0
M  V30 3920 H 384.166 -3.56676 -0.847202 0
M  V30 3921 H 383.814 -3.78422 -3.3137 0
M  V30 3922 H 383.514 -5.32826 -2.4773 0
M  V30 3923 H 385.038 -5.08658 -3.37786 0
M  V30 3924 H 386.452 -5.61272 -1.1682 0
M  V30 3925 H 384.849 -5.98266 -0.468831 0
M  V30 3926 H 385.919 -4.8358 0.357506 0
M  V30 3927 N 387.262 0.0317525 -1.57568 0
M  V30 3928 C 388.225 1.01783 -2.0536 0
M  V30 3929 C 389.225 1.29203 -0.957253 0
M  V30 3930 O 390.415 1.24251 -1.22095 0
M  V30 3931 C 387.547 2.35137 -2.46827 0
M  V30 3932 H 388.74 0.605062 -2.93733 0
M  V30 3933 H 386.293 0.278514 -1.53799 0
M  V30 3934 H 387.028 2.81168 -1.61602 0
M  V30 3935 H 386.813 2.16566 -3.26866 0
M  V30 3936 H 388.303 3.05938 -2.84239 0
M  V30 3937 N 388.74 1.54641 0.303973 0
M  V30 3938 C 389.986 1.74969 1.03718 0
M  V30 3939 C 390.341 0.527461 1.85029 0
M  V30 3940 O 389.634 -0.480143 1.85486 0
M  V30 3941 C 389.828 2.97753 1.97681 0
M  V30 3942 C 389.657 4.318 1.25613 0
M  V30 3943 C 388.427 4.95616 0.984518 0
M  V30 3944 C 390.625 5.10021 0.662081 0
M  V30 3945 N 388.607 6.13455 0.233794 0
M  V30 3946 C 389.978 6.19984 0.0439736 0
M  V30 3947 C 392.033 4.94663 0.566835 0
M  V30 3948 C 390.736 7.16264 -0.66016 0
M  V30 3949 C 392.762 5.91271 -0.123637 0
M  V30 3950 C 392.124 7.00601 -0.730608 0
M  V30 3951 H 388.223 0.692873 0.362562 0
M  V30 3952 H 390.807 1.92116 0.316135 0
M  V30 3953 H 388.978 2.82036 2.6704 0
M  V30 3954 H 390.71 3.06621 2.64132 0
M  V30 3955 H 387.465 4.55921 1.28191 0
M  V30 3956 H 387.889 6.76879 -0.127996 0
M  V30 3957 H 392.531 4.10267 1.02181 0
M  V30 3958 H 390.249 8.00204 -1.12691 0
M  V30 3959 H 393.835 5.81466 -0.197236 0
M  V30 3960 H 392.715 7.7407 -1.2564 0
M  V30 3961 N 390.218 -0.567019 1.47046 0
M  V30 3962 C 391.148 -1.68482 1.61667 0
M  V30 3963 C 392.129 -1.6358 0.466418 0
M  V30 3964 O 393.314 -1.81354 0.694574 0
M  V30 3965 C 390.444 -3.07124 1.62148 0
M  V30 3966 C 389.398 -3.26867 2.76301 0
M  V30 3967 C 388.724 -4.66196 2.61849 0
M  V30 3968 C 390.024 -3.13186 4.17986 0
M  V30 3969 H 391.718 -1.56502 2.5524 0
M  V30 3970 H 389.264 -0.751486 1.22836 0
M  V30 3971 H 391.217 -3.8516 1.70968 0
M  V30 3972 H 389.941 -3.2004 0.651287 0
M  V30 3973 H 388.6 -2.51237 2.66975 0
M  V30 3974 H 388.248 -4.75898 1.62879 0
M  V30 3975 H 387.948 -4.80356 3.38425 0
M  V30 3976 H 389.472 -5.46379 2.72584 0
M  V30 3977 H 390.886 -3.81049 4.2834 0
M  V30 3978 H 389.283 -3.3886 4.95272 0
M  V30 3979 H 390.353 -2.10057 4.3704 0
M  V30 3980 N 391.696 -1.35014 -0.812953 0
M  V30 3981 C 392.921 -1.31187 -1.60639 0
M  V30 3982 C 393.346 0.109382 -1.87782 0
M  V30 3983 O 392.704 1.07424 -1.46047 0
M  V30 3984 C 392.752 -2.11809 -2.91838 0
M  V30 3985 O 391.856 -1.49444 -3.8437 0
M  V30 3986 H 391.197 -0.450084 -0.488181 0
M  V30 3987 H 393.727 -1.77963 -1.00947 0
M  V30 3988 H 393.737 -2.23531 -3.41318 0
M  V30 3989 H 392.412 -3.15137 -2.71407 0
M  V30 3990 H 390.989 -1.46524 -3.42907 0
M  V30 3991 N 393.175 1.03435 -1.18907 0
M  V30 3992 C 394.123 2.13703 -0.918353 0
M  V30 3993 C 395.117 1.68947 0.123767 0
M  V30 3994 O 396.323 1.79983 -0.0249701 0
M  V30 3995 H 392.698 0.698112 -0.279542 0
M  V30 3996 H 394.669 2.33731 -1.85506 0
M  V30 3997 C 393.418 3.44542 -0.467532 0
M  V30 3998 H 392.741 3.79394 -1.26095 0
M  V30 3999 H 394.181 4.22812 -0.317164 0
M  V30 4000 C 392.64 3.26829 0.817588 0
M  V30 4001 O 393.17 3.54975 1.88031 0
M  V30 4002 N 391.376 2.80139 0.772677 0
M  V30 4003 H 390.923 2.57434 -0.0923883 0
M  V30 4004 H 390.881 2.68668 1.63294 0
M  V30 4005 N 394.653 0.992116 1.22453 0
M  V30 4006 C 395.9 0.667534 1.91181 0
M  V30 4007 C 396.228 -0.800317 1.77271 0
M  V30 4008 O 395.483 -1.59421 1.13505 0
M  V30 4009 C 395.782 1.01832 3.42586 0
M  V30 4010 C 395.448 2.47831 3.76684 0
M  V30 4011 C 394.11 2.87729 3.85701 0
M  V30 4012 C 396.462 3.42466 3.92895 0
M  V30 4013 C 393.79 4.21252 4.08367 0
M  V30 4014 C 396.142 4.75648 4.17064 0
M  V30 4015 C 394.806 5.15288 4.24305 0
M  V30 4016 H 394.076 0.244268 0.699581 0
M  V30 4017 H 396.723 1.24816 1.45235 0
M  V30 4018 H 395.028 0.355769 3.90181 0
M  V30 4019 H 396.725 0.745228 3.94014 0
M  V30 4020 H 393.315 2.15905 3.70247 0
M  V30 4021 H 397.499 3.12814 3.85307 0
M  V30 4022 H 392.755 4.51554 4.122 0
M  V30 4023 H 396.929 5.48924 4.2855 0
M  V30 4024 H 394.556 6.18769 4.41621 0
M  V30 4025 N 396.131 -1.37776 0.765217 0
M  V30 4026 C 397.379 -1.99454 0.325943 0
M  V30 4027 C 397.7 -1.61049 -1.09947 0
M  V30 4028 O 396.97 -0.872821 -1.75381 0
M  V30 4029 H 395.55 -0.737697 0.117525 0
M  V30 4030 H 398.212 -1.68359 0.981895 0
M  V30 4031 H 397.308 -3.09547 0.398353 0
M  V30 4032 N 397.609 -0.515225 -1.4894 0
M  V30 4033 C 398.519 0.259774 -2.33157 0
M  V30 4034 C 399.535 0.953501 -1.45548 0
M  V30 4035 O 400.711 0.931735 -1.78552 0
M  V30 4036 C 397.776 1.30193 -3.21326 0
M  V30 4037 C 396.837 0.620129 -4.24797 0
M  V30 4038 C 396.07 1.61263 -5.08753 0
M  V30 4039 O 396.293 2.84389 -4.94448 0
M  V30 4040 O 395.227 1.16013 -5.90614 0
M  V30 4041 H 399.053 -0.429932 -3.00641 0
M  V30 4042 H 396.638 -0.276346 -1.46822 0
M  V30 4043 H 398.52 1.90455 -3.75905 0
M  V30 4044 H 397.195 1.97431 -2.56521 0
M  V30 4045 H 396.102 -0.0226019 -3.74093 0
M  V30 4046 H 397.435 -0.0100493 -4.92199 0
M  V30 4047 N 399.087 1.5561 -0.249682 0
M  V30 4048 C 400.335 1.98618 0.373548 0
M  V30 4049 C 400.656 1.13919 1.58264 0
M  V30 4050 O 399.926 0.222637 1.94631 0
M  V30 4051 H 398.506 0.733571 0.141006 0
M  V30 4052 H 401.168 1.91748 -0.349117 0
M  V30 4053 H 400.264 3.04584 0.680796 0
M  V30 4054 N 400.565 -0.0233959 1.57583 0
M  V30 4055 C 401.811 -0.708611 1.90657 0
M  V30 4056 C 402.166 -1.7266 0.848895 0
M  V30 4057 O 401.459 -1.91075 -0.141749 0
M  V30 4058 C 401.653 -1.41428 3.28227 0
M  V30 4059 C 401.482 -0.466155 4.47277 0
M  V30 4060 C 400.252 -0.085117 5.05228 0
M  V30 4061 C 402.45 0.257836 5.13653 0
M  V30 4062 N 400.432 0.863672 6.07794 0
M  V30 4063 C 401.803 1.06209 6.10835 0
M  V30 4064 C 403.858 0.324174 4.96844 0
M  V30 4065 C 402.561 1.9266 6.93018 0
M  V30 4066 C 404.587 1.17583 5.79593 0
M  V30 4067 C 403.949 1.96799 6.7635 0
M  V30 4068 H 400.048 -0.233222 0.746412 0
M  V30 4069 H 402.632 0.0314512 1.94675 0
M  V30 4070 H 400.803 -2.12477 3.25128 0
M  V30 4071 H 402.535 -2.05233 3.488 0
M  V30 4072 H 399.29 -0.448516 4.71471 0
M  V30 4073 H 399.714 1.33274 6.63752 0
M  V30 4074 H 404.356 -0.273975 4.21911 0
M  V30 4075 H 402.074 2.53552 7.67292 0
M  V30 4076 H 405.66 1.23076 5.68633 0
M  V30 4077 H 404.54 2.61635 7.39268 0
M  V30 4078 N 402.043 -1.548 -0.295768 0
M  V30 4079 C 403.291 -1.73985 -1.02828 0
M  V30 4080 C 403.612 -0.531406 -1.87619 0
M  V30 4081 O 402.882 0.454221 -1.90561 0
M  V30 4082 H 401.462 -0.641556 -0.382642 0
M  V30 4083 H 404.124 -1.92163 -0.325489 0
M  V30 4084 H 403.22 -2.63129 -1.67838 0
M  V30 4085 N 403.521 0.559213 -1.47345 0
M  V30 4086 C 404.768 1.31648 -1.53867 0
M  V30 4087 C 405.096 1.93468 -0.200104 0
M  V30 4088 O 404.351 1.78295 0.806799 0
M  V30 4089 C 404.65 2.44853 -2.6035 0
M  V30 4090 C 404.316 2.00876 -4.03683 0
M  V30 4091 C 402.978 1.88599 -4.42701 0
M  V30 4092 C 405.33 1.67279 -4.93626 0
M  V30 4093 C 402.658 1.41017 -5.69501 0
M  V30 4094 C 405.01 1.21169 -6.20887 0
M  V30 4095 C 403.674 1.07487 -6.58789 0
M  V30 4096 H 402.944 0.481734 -0.56304 0
M  V30 4097 H 405.591 0.627301 -1.80934 0
M  V30 4098 H 403.896 3.19318 -2.27032 0
M  V30 4099 H 405.593 3.03039 -2.62619 0
M  V30 4100 H 402.183 2.11374 -3.72853 0
M  V30 4101 H 406.367 1.75638 -4.64182 0
M  V30 4102 H 401.623 1.29086 -5.97618 0
M  V30 4103 H 405.797 0.942345 -6.89995 0
M  V30 4104 H 403.424 0.703946 -7.56934 0
M  V30 4105 N 404.999 1.35443 0.805782 0
M  V30 4106 C 405.932 1.22783 1.92353 0
M  V30 4107 C 406.91 0.115543 1.62189 0
M  V30 4108 O 408.094 0.283778 1.86352 0
M  V30 4109 C 405.221 0.890746 3.26777 0
M  V30 4110 C 404.267 2.01519 3.75889 0
M  V30 4111 S 405.1 3.63101 3.93596 0
M  V30 4112 C 406.256 3.31472 5.30921 0
M  V30 4113 H 406.489 2.17394 2.02798 0
M  V30 4114 H 404.022 1.20669 0.963245 0
M  V30 4115 H 405.98 0.703068 4.04434 0
M  V30 4116 H 404.641 -0.0373152 3.14078 0
M  V30 4117 H 403.834 1.7335 4.7325 0
M  V30 4118 H 403.436 2.16124 3.05231 0
M  V30 4119 H 405.728 2.8435 6.1494 0
M  V30 4120 H 406.671 4.28036 5.64084 0
M  V30 4121 H 407.079 2.67221 4.97246 0
M  V30 4122 N 406.477 -1.02803 1.19454 0
M  V30 4123 C 407.888 -1.57667 0.999899 0
M  V30 4124 C 408.239 -1.91041 -0.446956 0
M  V30 4125 O 407.364 -1.70978 -1.32648 0
M  V30 4126 C 407.959 -2.86477 1.80877 0
M  V30 4127 C 406.518 -3.37911 1.65811 0
M  V30 4128 C 405.665 -2.11343 1.79526 0
M  V30 4129 H 408.616 -0.853214 1.33813 0
M  V30 4130 H 408.637 -3.57408 1.30536 0
M  V30 4131 H 408.149 -2.62155 2.86175 0
M  V30 4132 H 406.25 -3.67218 0.63102 0
M  V30 4133 H 406.363 -4.10885 2.46395 0
M  V30 4134 H 404.727 -2.23254 1.22596 0
M  V30 4135 H 405.51 -1.89461 2.86285 0
M  V30 4136 N 407.956 -0.998596 -1.21925 0
M  V30 4137 C 409.181 -0.696015 -1.95372 0
M  V30 4138 C 409.606 0.733826 -1.73195 0
M  V30 4139 O 408.964 1.50242 -1.01474 0
M  V30 4140 C 409.012 -1.01466 -3.4603 0
M  V30 4141 O 408.116 -0.116415 -4.12236 0
M  V30 4142 H 407.457 -0.259938 -0.611006 0
M  V30 4143 H 409.987 -1.33711 -1.54863 0
M  V30 4144 H 409.997 -0.958855 -3.96573 0
M  V30 4145 H 408.672 -2.05653 -3.61497 0
M  V30 4146 H 407.249 -0.228193 -3.72201 0
M  V30 4147 N 409.434 1.37368 -0.772513 0
M  V30 4148 C 410.659 2.0447 -0.347386 0
M  V30 4149 C 411.084 1.57882 1.0225 0
M  V30 4150 O 410.442 0.73941 1.65537 0
M  V30 4151 C 410.49 3.58369 -0.400479 0
M  V30 4152 O 409.594 4.0803 0.598789 0
M  V30 4153 H 408.935 0.646773 -0.15027 0
M  V30 4154 H 411.465 1.75667 -1.04892 0
M  V30 4155 H 411.475 4.07183 -0.258045 0
M  V30 4156 H 410.15 3.91633 -1.39986 0
M  V30 4157 H 408.727 3.70534 0.419411 0
M  V30 4158 N 410.912 0.523116 1.48665 0
M  V30 4159 C 412.137 -0.0117284 2.07397 0
M  V30 4160 C 412.562 -1.28031 1.37803 0
M  V30 4161 O 411.92 -1.75836 0.441762 0
M  V30 4162 C 411.968 -0.225786 3.59892 0
M  V30 4163 O 411.072 -1.29592 3.91509 0
M  V30 4164 H 410.413 0.0360673 0.66302 0
M  V30 4165 H 412.943 0.729066 1.9117 0
M  V30 4166 H 412.953 -0.450552 4.05505 0
M  V30 4167 H 411.628 0.700944 4.09951 0
M  V30 4168 H 410.205 -1.05436 3.57684 0
M  V30 4169 N 412.39 -1.55475 0.257931 0
M  V30 4170 C 413.353 -2.20551 -0.623706 0
M  V30 4171 C 414.353 -1.17809 -1.09443 0
M  V30 4172 O 415.543 -1.42823 -0.997362 0
M  V30 4173 C 412.675 -2.85784 -1.8585 0
M  V30 4174 H 413.868 -2.99848 -0.0557743 0
M  V30 4175 H 411.421 -1.56298 0.0084422 0
M  V30 4176 H 412.156 -2.10453 -2.46739 0
M  V30 4177 H 411.941 -3.61057 -1.52907 0
M  V30 4178 H 413.431 -3.35553 -2.48584 0
M  V30 4179 N 413.868 0.0150385 -1.57593 0
M  V30 4180 C 415.114 0.704043 -1.90187 0
M  V30 4181 C 415.447 1.74249 -0.857366 0
M  V30 4182 O 414.722 1.94092 0.125843 0
M  V30 4183 C 415.005 1.36087 -3.33395 0
M  V30 4184 C 414.858 0.334981 -4.48551 0
M  V30 4185 C 416.177 2.29112 -3.7576 0
M  V30 4186 H 413.296 0.254475 -0.691673 0
M  V30 4187 H 415.938 -0.0331678 -1.89971 0
M  V30 4188 H 414.088 1.98922 -3.3371 0
M  V30 4189 H 415.76 -0.292534 -4.60372 0
M  V30 4190 H 414.003 -0.344325 -4.32431 0
M  V30 4191 H 414.674 0.833316 -5.45674 0
M  V30 4192 H 417.15 1.76308 -3.76902 0
M  V30 4193 H 416.026 2.72043 -4.76743 0
M  V30 4194 H 416.287 3.16385 -3.08793 0
M  V30 4195 N 415.346 1.54954 0.287554 0
M  V30 4196 C 416.592 1.75132 1.02257 0
M  V30 4197 C 416.925 0.542858 1.86458 0
M  V30 4198 O 416.2 -0.459856 1.88986 0
M  V30 4199 C 416.483 3.04812 1.91733 0
M  V30 4200 C 416.336 4.35985 1.10622 0
M  V30 4201 C 417.655 3.30438 2.90687 0
M  V30 4202 H 414.774 0.637194 0.370341 0
M  V30 4203 H 417.416 1.87678 0.296111 0
M  V30 4204 H 415.566 2.94247 2.53675 0
M  V30 4205 H 417.238 4.58487 0.508636 0
M  V30 4206 H 415.481 4.31865 0.409271 0
M  V30 4207 H 416.152 5.23017 1.76513 0
M  V30 4208 H 418.628 3.40701 2.38877 0
M  V30 4209 H 417.504 4.22467 3.50447 0
M  V30 4210 H 417.765 2.49377 3.65053 0
M  V30 4211 N 416.824 -0.551391 1.4764 0
M  V30 4212 C 418.071 -1.3083 1.54563 0
M  V30 4213 C 418.399 -1.93359 0.210361 0
M  V30 4214 O 417.654 -1.78721 -0.797332 0
M  V30 4215 C 417.953 -2.43469 2.61644 0
M  V30 4216 C 417.619 -1.98732 4.04742 0
M  V30 4217 C 416.281 -1.86248 4.43695 0
M  V30 4218 C 418.633 -1.64659 4.94507 0
M  V30 4219 C 415.961 -1.37995 5.70241 0
M  V30 4220 C 418.313 -1.17875 6.21521 0
M  V30 4221 C 416.977 -1.03992 6.5935 0
M  V30 4222 H 416.247 -0.478741 0.565587 0
M  V30 4223 H 418.894 -0.617697 1.81264 0
M  V30 4224 H 417.199 -3.18109 2.28722 0
M  V30 4225 H 418.896 -3.01642 2.64222 0
M  V30 4226 H 415.486 -2.09393 3.73968 0
M  V30 4227 H 419.67 -1.73174 4.65107 0
M  V30 4228 H 414.926 -1.25915 5.98294 0
M  V30 4229 H 419.1 -0.905739 6.90485 0
M  V30 4230 H 416.727 -0.663794 7.57296 0
M  V30 4231 N 418.302 -1.35869 -0.798587 0
M  V30 4232 C 419.548 -1.2978 -1.55836 0
M  V30 4233 C 419.881 0.125322 -1.93795 0
M  V30 4234 O 419.156 1.07658 -1.61987 0
M  V30 4235 C 419.439 -2.21188 -2.84162 0
M  V30 4236 C 419.292 -3.72155 -2.52628 0
M  V30 4237 C 420.611 -2.11545 -3.85923 0
M  V30 4238 H 417.73 -0.472769 -0.565383 0
M  V30 4239 H 420.372 -1.66341 -0.918192 0
M  V30 4240 H 418.522 -1.90139 -3.38791 0
M  V30 4241 H 420.194 -4.13682 -2.04121 0
M  V30 4242 H 418.437 -3.92042 -1.85704 0
M  V30 4243 H 419.108 -4.31511 -3.44242 0
M  V30 4244 H 421.584 -2.38855 -3.40716 0
M  V30 4245 H 420.46 -2.77688 -4.73477 0
M  V30 4246 H 420.721 -1.09987 -4.282 0
M  V30 4247 N 419.78 1.02168 -1.19998 0
M  V30 4248 C 421.057 1.72816 -0.916191 0
M  V30 4249 C 421.437 2.03081 0.576325 0
M  V30 4250 O 420.785 1.69122 1.53656 0
M  V30 4251 C 420.995 2.9997 -1.78378 0
M  V30 4252 C 422.343 3.73336 -2.02251 0
M  V30 4253 O 423.367 3.09914 -1.75589 0
M  V30 4254 O 422.226 4.87371 -2.47249 0
M  V30 4255 H 419.32 0.752924 -0.342103 0
M  V30 4256 H 421.866 1.08062 -1.30846 0
M  V30 4257 H 420.638 2.73888 -2.79466 0
M  V30 4258 H 420.261 3.72464 -1.39126 0
M  V30 4259 N 421.258 1.00505 1.21394 0
M  V30 4260 C 422.206 0.558623 2.25792 0
M  V30 4261 C 423.2 -0.396848 1.64686 0
M  V30 4262 O 424.406 -0.268035 1.77993 0
M  V30 4263 H 420.781 0.1623 0.734277 0
M  V30 4264 H 422.752 1.4503 2.60785 0
M  V30 4265 C 421.501 -0.0989574 3.47559 0
M  V30 4266 H 420.824 0.627225 3.94849 0
M  V30 4267 H 422.264 -0.3746 4.22342 0
M  V30 4268 C 420.723 -1.33817 3.09184 0
M  V30 4269 O 421.253 -2.43252 3.19674 0
M  V30 4270 N 419.459 -1.21793 2.63846 0
M  V30 4271 H 419.006 -0.32746 2.5551 0
M  V30 4272 H 418.964 -2.04809 2.38539 0
M  V30 4273 N 422.737 -1.36956 0.779787 0
M  V30 4274 C 423.687 -2.27539 0.144892 0
M  V30 4275 C 424.671 -1.46493 -0.665488 0
M  V30 4276 O 425.863 -1.68968 -0.527141 0
M  V30 4277 C 422.992 -3.35512 -0.727082 0
M  V30 4278 C 422.078 -4.24001 0.0915642 0
M  V30 4279 N 422.469 -4.92757 1.14125 0
M  V30 4280 C 420.767 -4.45807 -0.131141 0
M  V30 4281 C 421.468 -5.58138 1.6388 0
M  V30 4282 N 420.444 -5.35241 0.94962 0
M  V30 4283 H 424.246 -2.78176 0.948446 0
M  V30 4284 H 421.76 -1.50169 0.618315 0
M  V30 4285 H 423.757 -3.99324 -1.19776 0
M  V30 4286 H 422.417 -2.86431 -1.52929 0
M  V30 4287 H 423.428 -4.94984 1.52353 0
M  V30 4288 H 420.105 -4.07582 -0.904621 0
M  V30 4289 H 421.495 -6.23071 2.51461 0
M  V30 4290 N 424.215 -0.530993 -1.48385 0
M  V30 4291 C 425.492 0.0671788 -1.95485 0
M  V30 4292 C 425.872 1.51191 -1.47324 0
M  V30 4293 O 425.22 2.17507 -0.700202 0
M  V30 4294 C 425.43 -0.0511206 -3.48963 0
M  V30 4295 C 426.778 0.107632 -4.24464 0
M  V30 4296 O 427.802 0.0226248 -3.56193 0
M  V30 4297 O 426.661 0.285972 -5.45751 0
M  V30 4298 H 423.755 0.0787365 -0.823243 0
M  V30 4299 H 426.301 -0.595662 -1.58902 0
M  V30 4300 H 425.073 -1.05747 -3.7674 0
M  V30 4301 H 424.696 0.650525 -3.92242 0
M  V30 4302 N 425.693 1.55336 -0.266172 0
M  V30 4303 C 426.641 2.23587 0.641228 0
M  V30 4304 C 427.635 1.22986 1.16494 0
M  V30 4305 O 428.841 1.40943 1.1196 0
M  V30 4306 H 425.216 0.717452 0.225315 0
M  V30 4307 H 427.187 2.9837 0.0426561 0
M  V30 4308 C 425.936 2.96369 1.81826 0
M  V30 4309 H 425.259 3.73563 1.42445 0
M  V30 4310 H 426.699 3.47459 2.42998 0
M  V30 4311 C 425.158 2.0133 2.70125 0
M  V30 4312 O 425.688 1.55875 3.70224 0
M  V30 4313 N 423.894 1.6802 2.37102 0
M  V30 4314 H 423.441 2.05181 1.55751 0
M  V30 4315 H 423.399 1.047 2.96454 0
M  V30 4316 N 427.171 -0.0066808 1.57599 0
M  V30 4317 C 428.103 -1.02827 2.04839 0
M  V30 4318 C 429.116 -1.31108 0.965113 0
M  V30 4319 O 430.305 -1.28202 1.24203 0
M  V30 4320 C 427.405 -2.36464 2.42771 0
M  V30 4321 C 426.578 -2.27219 3.73751 0
M  V30 4322 C 425.637 -3.43489 3.98625 0
M  V30 4323 O 424.663 -3.21976 4.69382 0
M  V30 4324 N 425.865 -4.66116 3.46 0
M  V30 4325 H 428.63 -0.625455 2.93101 0
M  V30 4326 H 426.191 -0.194198 1.60731 0
M  V30 4327 H 428.183 -3.13008 2.56531 0
M  V30 4328 H 426.753 -2.68512 1.60063 0
M  V30 4329 H 425.973 -1.35629 3.70133 0
M  V30 4330 H 427.261 -2.18208 4.59633 0
M  V30 4331 H 426.659 -4.86493 2.88688 0
M  V30 4332 H 425.216 -5.39949 3.65101 0
M  V30 4333 N 428.649 -1.55105 -0.279332 0
M  V30 4334 C 430.065 -1.46803 -0.626187 0
M  V30 4335 C 430.265 -0.676939 -1.89789 0
M  V30 4336 O 429.321 -0.19326 -2.51759 0
M  V30 4337 C 430.634 -2.90962 -0.759034 0
M  V30 4338 C 432.182 -3.01138 -0.853504 0
M  V30 4339 C 432.657 -4.46539 -1.01818 0
M  V30 4340 N 434.148 -4.50341 -1.08386 0
M  V30 4341 C 434.883 -5.60053 -1.22996 0
M  V30 4342 N 434.379 -6.79645 -1.34366 0
M  V30 4343 N 436.172 -5.47783 -1.26056 0
M  V30 4344 H 428.323 -2.04996 0.555921 0
M  V30 4345 H 430.586 -0.929325 0.187239 0
M  V30 4346 H 430.292 -3.51544 0.104852 0
M  V30 4347 H 430.166 -3.39619 -1.64131 0
M  V30 4348 H 432.553 -2.40658 -1.70786 0
M  V30 4349 H 432.634 -2.55745 0.0532466 0
M  V30 4350 H 432.278 -5.0762 -0.168504 0
M  V30 4351 H 432.208 -4.89583 -1.93948 0
M  V30 4352 H 434.699 -3.64191 -1.00864 0
M  V30 4353 H 435.012 -7.59012 -1.4533 0
M  V30 4354 H 433.357 -6.82469 -1.31382 0
M  V30 4355 H 436.548 -4.53294 -1.168 0
M  V30 4356 H 436.721 -6.33331 -1.37098 0
M  V30 4357 N 430.127 0.543554 -1.4793 0
M  V30 4358 C 431.375 1.29752 -1.54948 0
M  V30 4359 C 431.696 1.93764 -0.219242 0
M  V30 4360 O 430.966 1.80639 0.75805 0
M  V30 4361 H 429.546 0.481874 -0.570795 0
M  V30 4362 H 432.208 0.633636 -1.84312 0
M  V30 4363 H 431.304 2.08392 -2.32334 0
M  V30 4364 N 431.605 1.3629 0.791371 0
M  V30 4365 C 432.555 1.26988 1.89362 0
M  V30 4366 C 433.539 0.161795 1.60084 0
M  V30 4367 O 434.731 0.394426 1.72549 0
M  V30 4368 C 431.86 1.05944 3.26544 0
M  V30 4369 C 430.946 2.21211 3.61838 0
M  V30 4370 N 431.337 3.46518 3.68455 0
M  V30 4371 C 429.635 2.12933 3.91887 0
M  V30 4372 C 430.336 4.2241 3.99931 0
M  V30 4373 N 429.312 3.51329 4.14812 0
M  V30 4374 H 433.114 2.21908 1.92702 0
M  V30 4375 H 430.628 1.28982 0.986787 0
M  V30 4376 H 432.625 0.973666 4.05371 0
M  V30 4377 H 431.285 0.119223 3.24481 0
M  V30 4378 H 432.296 3.80677 3.51148 0
M  V30 4379 H 428.973 1.26855 3.97761 0
M  V30 4380 H 430.363 5.30767 4.1199 0
M  V30 4381 N 433.083 -1.0153 1.20538 0
M  V30 4382 C 434.331 -1.74803 1.01432 0
M  V30 4383 C 434.652 -1.8963 -0.454456 0
M  V30 4384 O 433.922 -1.43975 -1.32846 0
M  V30 4385 H 432.502 -0.647598 0.372324 0
M  V30 4386 H 435.164 -1.22402 1.5167 0
M  V30 4387 H 434.26 -2.75114 1.47373 0
M  V30 4388 N 434.561 -1.01147 -1.20859 0
M  V30 4389 C 435.809 -0.696486 -1.89719 0
M  V30 4390 C 436.13 0.775788 -1.78904 0
M  V30 4391 O 435.4 1.55759 -1.18811 0
M  V30 4392 H 433.98 -0.254628 -0.702263 0
M  V30 4393 H 436.642 -1.28197 -1.46804 0
M  V30 4394 H 435.738 -0.975357 -2.96468 0
M  V30 4395 N 436.039 1.36541 -0.78704 0
M  V30 4396 C 437.002 2.28413 -0.189778 0
M  V30 4397 C 438.002 1.48719 0.611499 0
M  V30 4398 O 439.192 1.68737 0.432842 0
M  V30 4399 C 436.324 3.32824 0.737638 0
M  V30 4400 H 437.517 2.82743 -0.999831 0
M  V30 4401 H 435.07 1.46065 -0.556298 0
M  V30 4402 H 435.805 2.83646 1.57212 0
M  V30 4403 H 435.59 3.91752 0.165044 0
M  V30 4404 H 437.08 4.0144 1.15047 0
M  V30 4405 N 437.518 0.538854 1.48102 0
M  V30 4406 C 438.766 0.00798599 2.02098 0
M  V30 4407 C 439.087 -1.33922 1.41739 0
M  V30 4408 O 438.357 -1.86932 0.585934 0
M  V30 4409 H 436.937 -3.62179e-05 0.747 0
M  V30 4410 H 439.599 0.7047 1.81714 0
M  V30 4411 H 438.695 -0.0937672 3.11959 0
M  V30 4412 N 438.996 -1.55193 0.274407 0
M  V30 4413 C 439.944 -2.23924 -0.629362 0
M  V30 4414 C 440.938 -1.23602 -1.1584 0
M  V30 4415 O 442.144 -1.41535 -1.11211 0
M  V30 4416 H 438.519 -0.718637 -0.221507 0
M  V30 4417 H 440.49 -2.98388 -0.0268322 0
M  V30 4418 C 439.239 -2.97329 -1.80252 0
M  V30 4419 H 438.562 -3.74313 -1.40462 0
M  V30 4420 H 440.002 -3.48743 -2.41152 0
M  V30 4421 C 438.461 -2.0276 -2.69054 0
M  V30 4422 O 438.991 -1.57836 -3.69392 0
M  V30 4423 N 437.197 -1.69275 -2.36208 0
M  V30 4424 H 436.744 -2.06004 -1.54661 0
M  V30 4425 H 436.702 -1.06271 -2.95895 0
M  V30 4426 N 440.474 -0.00167713 -1.576 0
M  V30 4427 C 441.72 0.683832 -1.90923 0
M  V30 4428 C 442.053 1.7333 -0.875799 0
M  V30 4429 O 441.328 1.94215 0.10525 0
M  V30 4430 C 441.611 1.32543 -3.3482 0
M  V30 4431 C 441.464 0.287387 -4.48881 0
M  V30 4432 C 442.783 2.25114 -3.78169 0
M  V30 4433 H 439.902 0.247125 -0.694333 0
M  V30 4434 H 442.544 -0.0533149 -1.89925 0
M  V30 4435 H 440.694 1.95372 -3.35801 0
M  V30 4436 H 442.366 -0.341346 -4.60035 0
M  V30 4437 H 440.609 -0.39017 -4.32042 0
M  V30 4438 H 441.28 0.775393 -5.46527 0
M  V30 4439 H 443.756 1.723 -3.7875 0
M  V30 4440 H 442.632 2.66971 -4.79602 0
M  V30 4441 H 442.893 3.13092 -3.12131 0
M  V30 4442 N 441.952 1.55251 0.271103 0
M  V30 4443 C 443.201 1.75151 1.00025 0
M  V30 4444 C 443.514 0.561041 1.87381 0
M  V30 4445 O 444.72 0.642506 2.63788 0
M  V30 4446 C 443.176 3.09999 1.82835 0
M  V30 4447 C 442.784 4.3662 1.00336 0
M  V30 4448 C 444.528 3.39249 2.55168 0
M  V30 4449 C 442.435 5.62506 1.82595 0
M  V30 4450 H 441.365 0.652877 0.377183 0
M  V30 4451 H 444.016 1.81708 0.255843 0
M  V30 4452 H 442.398 2.97485 2.61378 0
M  V30 4453 H 443.572 4.60055 0.261959 0
M  V30 4454 H 441.887 4.14527 0.394486 0
M  V30 4455 H 444.484 4.3051 3.1712 0
M  V30 4456 H 444.827 2.59467 3.2555 0
M  V30 4457 H 445.36 3.52869 1.83653 0
M  V30 4458 H 442.099 6.45041 1.16631 0
M  V30 4459 H 441.619 5.43211 2.54327 0
M  V30 4460 H 443.298 6.00875 2.39913 0
M  V30 4461 N 443.43 -0.535701 1.48216 0
M  V30 4462 C 444.658 -1.31671 1.59594 0
M  V30 4463 C 445.073 -1.87083 0.254056 0
M  V30 4464 O 444.43 -1.66112 -0.755854 0
M  V30 4465 C 444.481 -2.47158 2.63809 0
M  V30 4466 O 444.202 -1.94032 3.92789 0
M  V30 4467 C 445.703 -3.39062 2.85573 0
M  V30 4468 H 442.923 -0.400623 0.538277 0
M  V30 4469 H 445.467 -0.646827 1.94001 0
M  V30 4470 H 443.622 -3.10043 2.32276 0
M  V30 4471 H 444.036 -2.69585 4.49916 0
M  V30 4472 H 445.51 -4.16459 3.62306 0
M  V30 4473 H 445.987 -3.93941 1.94184 0
M  V30 4474 H 446.593 -2.81975 3.18387 0
M  V30 4475 N 444.908 -1.36708 -0.784132 0
M  V30 4476 C 446.155 -1.31231 -1.54222 0
M  V30 4477 C 446.483 0.106864 -1.94206 0
M  V30 4478 O 445.738 1.07734 -1.63376 0
M  V30 4479 C 446.037 -2.18571 -2.82774 0
M  V30 4480 C 445.703 -3.67039 -2.61903 0
M  V30 4481 C 444.365 -4.07503 -2.55919 0
M  V30 4482 C 446.717 -4.61149 -2.4288 0
M  V30 4483 C 444.045 -5.40211 -2.28886 0
M  V30 4484 C 446.397 -5.94081 -2.17373 0
M  V30 4485 C 445.061 -6.33664 -2.09825 0
M  V30 4486 H 444.331 -0.48021 -0.56434 0
M  V30 4487 H 446.978 -1.68807 -0.904233 0
M  V30 4488 H 445.283 -1.73949 -3.51068 0
M  V30 4489 H 446.98 -2.11655 -3.40592 0
M  V30 4490 H 443.57 -3.34941 -2.67418 0
M  V30 4491 H 447.754 -4.30756 -2.46501 0
M  V30 4492 H 443.01 -5.69855 -2.21529 0
M  V30 4493 H 447.184 -6.66566 -2.01649 0
M  V30 4494 H 444.811 -7.36423 -1.88641 0
M  V30 4495 N 446.386 1.0089 -1.21074 0
M  V30 4496 C 447.296 2.13039 -0.982425 0
M  V30 4497 C 448.312 1.73881 0.0642161 0
M  V30 4498 O 449.488 2.01012 -0.12496 0
M  V30 4499 C 446.553 3.42377 -0.545803 0
M  V30 4500 C 445.614 3.95731 -1.6642 0
M  V30 4501 C 444.847 5.18896 -1.24832 0
M  V30 4502 O 445.07 5.70273 -0.120265 0
M  V30 4503 O 444.004 5.65597 -2.05873 0
M  V30 4504 H 447.83 2.35175 -1.92163 0
M  V30 4505 H 445.415 1.1142 -0.995285 0
M  V30 4506 H 447.297 4.20244 -0.311912 0
M  V30 4507 H 445.972 3.21639 0.364727 0
M  V30 4508 H 444.879 3.19108 -1.95246 0
M  V30 4509 H 446.212 4.20872 -2.55201 0
M  V30 4510 N 447.864 1.01787 1.20321 0
M  V30 4511 C 449.141 0.622978 1.85414 0
M  V30 4512 C 449.521 -0.898887 1.91006 0
M  V30 4513 O 448.869 -1.79112 1.41884 0
M  V30 4514 C 449.079 1.27226 3.24984 0
M  V30 4515 C 450.427 1.3885 4.01255 0
M  V30 4516 O 451.451 1.22857 3.34342 0
M  V30 4517 O 450.31 1.64705 5.2109 0
M  V30 4518 H 447.404 0.215116 0.798533 0
M  V30 4519 H 449.95 1.11533 1.27901 0
M  V30 4520 H 448.722 2.31209 3.15687 0
M  V30 4521 H 448.345 0.767069 3.90131 0
M  V30 4522 N 449.342 -1.36122 0.79427 0
M  V30 4523 C 450.59 -1.98718 0.368177 0
M  V30 4524 C 450.911 -1.63345 -1.06506 0
M  V30 4525 O 450.181 -0.909825 -1.73491 0
M  V30 4526 H 448.761 -0.735038 0.133146 0
M  V30 4527 H 451.423 -1.66239 1.01739 0
M  V30 4528 H 450.519 -3.08633 0.463923 0
M  V30 4529 N 450.82 -0.546701 -1.47814 0
M  V30 4530 C 452.236 -0.205717 -1.58269 0
M  V30 4531 C 452.436 1.29153 -1.54667 0
M  V30 4532 O 451.492 2.07098 -1.44453 0
M  V30 4533 C 452.805 -0.823065 -2.89216 0
M  V30 4534 C 454.353 -0.793328 -3.02779 0
M  V30 4535 C 454.828 -1.38955 -4.36412 0
M  V30 4536 N 456.319 -1.35227 -4.43021 0
M  V30 4537 C 457.054 -1.78333 -5.44963 0
M  V30 4538 N 456.55 -2.29246 -6.53772 0
M  V30 4539 N 458.343 -1.69467 -5.35945 0
M  V30 4540 H 450.494 -1.5196 -1.48398 0
M  V30 4541 H 452.757 -0.633078 -0.705632 0
M  V30 4542 H 452.463 -1.8749 -2.97558 0
M  V30 4543 H 452.337 -0.309915 -3.75925 0
M  V30 4544 H 454.724 0.249784 -2.94041 0
M  V30 4545 H 454.805 -1.34412 -2.17639 0
M  V30 4546 H 454.449 -2.43168 -4.45906 0
M  V30 4547 H 454.379 -0.814291 -5.20266 0
M  V30 4548 H 456.87 -0.979739 -3.64979 0
M  V30 4549 H 457.183 -2.60089 -7.27718 0
M  V30 4550 H 455.528 -2.3325 -6.5469 0
M  V30 4551 H 458.719 -1.29477 -4.49837 0
M  V30 4552 H 458.892 -2.03381 -6.15256 0
M  V30 4553 N 452.299 1.55045 -0.282633 0
M  V30 4554 C 453.229 2.2579 0.595066 0
M  V30 4555 C 454.21 1.25074 1.15284 0
M  V30 4556 O 455.395 1.5381 1.18559 0
M  V30 4557 C 452.525 2.98472 1.77572 0
M  V30 4558 C 451.479 4.0618 1.34914 0
M  V30 4559 C 450.805 4.66477 2.6135 0
M  V30 4560 C 452.105 5.1996 0.493821 0
M  V30 4561 H 453.799 2.994 0.00505653 0
M  V30 4562 H 451.345 1.44 0.000992001 0
M  V30 4563 H 453.298 3.46677 2.39568 0
M  V30 4564 H 452.022 2.2241 2.39168 0
M  V30 4565 H 450.681 3.58797 0.752338 0
M  V30 4566 H 450.329 3.87074 3.2122 0
M  V30 4567 H 450.029 5.39207 2.33516 0
M  V30 4568 H 451.553 5.17435 3.24181 0
M  V30 4569 H 452.967 5.64172 1.01898 0
M  V30 4570 H 451.364 5.99299 0.310047 0
M  V30 4571 H 452.434 4.82462 -0.485593 0
M  V30 4572 N 453.777 0.010035 1.57597 0
M  V30 4573 C 455.007 -0.682422 1.95004 0
M  V30 4574 C 455.415 -1.67278 0.884014 0
M  V30 4575 O 454.758 -1.83129 -0.144672 0
M  V30 4576 C 454.82 -1.46141 3.28456 0
M  V30 4577 C 454.484 -0.631523 4.52615 0
M  V30 4578 C 455.481 0.0850905 5.1983 0
M  V30 4579 C 453.166 -0.574539 4.99003 0
M  V30 4580 C 455.16 0.847566 6.3174 0
M  V30 4581 C 452.847 0.191655 6.10799 0
M  V30 4582 C 453.845 0.901432 6.77025 0
M  V30 4583 O 453.533 1.65511 7.86677 0
M  V30 4584 H 453.265 -0.194361 0.647456 0
M  V30 4585 H 455.819 0.060312 2.05311 0
M  V30 4586 H 454.049 -2.24885 3.14585 0
M  V30 4587 H 455.738 -2.04016 3.50902 0
M  V30 4588 H 456.504 0.0502812 4.84974 0
M  V30 4589 H 452.383 -1.11654 4.47274 0
M  V30 4590 H 455.927 1.4021 6.83364 0
M  V30 4591 H 451.824 0.228249 6.45096 0
M  V30 4592 H 452.592 1.57287 8.03245 0
M  V30 4593 N 455.255 -1.55392 -0.262866 0
M  V30 4594 C 456.532 -1.67204 -1.01499 0
M  V30 4595 C 456.912 -0.545186 -2.03939 0
M  V30 4596 O 456.26 0.453467 -2.23955 0
M  V30 4597 C 456.47 -3.06847 -1.6627 0
M  V30 4598 C 457.818 -3.64928 -2.17054 0
M  V30 4599 O 458.842 -3.09545 -1.76239 0
M  V30 4600 O 457.701 -4.61984 -2.91947 0
M  V30 4601 H 454.795 -0.679467 -0.471438 0
M  V30 4602 H 457.341 -1.67729 -0.257918 0
M  V30 4603 H 456.113 -3.80309 -0.920915 0
M  V30 4604 H 455.736 -3.10266 -2.48638 0
M  V30 4605 N 456.733 0.527833 -1.48498 0
M  V30 4606 C 457.663 1.64136 -1.66077 0
M  V30 4607 C 458.644 1.62286 -0.509625 0
M  V30 4608 O 459.829 1.79449 -0.742413 0
M  V30 4609 C 456.959 3.02717 -1.70234 0
M  V30 4610 C 455.913 3.19426 -2.8487 0
M  V30 4611 C 455.239 4.5909 -2.74118 0
M  V30 4612 C 456.539 3.01993 -4.26142 0
M  V30 4613 H 458.233 1.4968 -2.593 0
M  V30 4614 H 455.779 0.718654 -1.24785 0
M  V30 4615 H 457.732 3.80491 -1.8112 0
M  V30 4616 H 456.456 3.18201 -0.735911 0
M  V30 4617 H 455.115 2.4407 -2.73542 0
M  V30 4618 H 454.763 4.71413 -1.7544 0
M  V30 4619 H 454.463 4.71214 -3.51042 0
M  V30 4620 H 455.987 5.3896 -2.86974 0
M  V30 4621 H 457.401 3.69558 -4.38292 0
M  V30 4622 H 455.798 3.2561 -5.04082 0
M  V30 4623 H 456.868 1.98396 -4.42456 0
M  V30 4624 N 458.211 1.37122 0.776871 0
M  V30 4625 C 459.174 1.32301 1.8716 0
M  V30 4626 C 460.174 0.228099 1.59174 0
M  V30 4627 O 461.364 0.483642 1.67352 0
M  V30 4628 C 458.496 1.054 3.24197 0
M  V30 4629 H 459.689 2.29673 1.92848 0
M  V30 4630 H 457.242 1.22077 0.97606 0
M  V30 4631 H 457.977 0.0853872 3.24188 0
M  V30 4632 H 457.762 1.84648 3.45901 0
M  V30 4633 H 459.252 1.04664 4.04271 0
M  V30 4634 N 459.689 -1.00246 1.21608 0
M  V30 4635 C 460.637 -2.11193 0.97469 0
M  V30 4636 C 461.631 -1.69216 -0.0789303 0
M  V30 4637 O 462.837 -1.79853 0.0726806 0
M  V30 4638 H 459.212 -0.690455 0.297953 0
M  V30 4639 H 461.183 -2.2873 1.91638 0
M  V30 4640 C 459.932 -3.43182 0.558717 0
M  V30 4641 H 459.255 -3.75918 1.3611 0
M  V30 4642 H 460.695 -4.21823 0.429154 0
M  V30 4643 C 459.154 -3.28882 -0.730648 0
M  V30 4644 O 459.684 -3.59835 -1.78554 0
M  V30 4645 N 457.89 -2.8209 -0.698131 0
M  V30 4646 H 457.437 -2.57099 0.16061 0
M  V30 4647 H 457.395 -2.72903 -1.56113 0
M  V30 4648 N 461.167 -1.02423 -1.1978 0
M  V30 4649 C 462.413 -0.719051 -1.89625 0
M  V30 4650 C 462.746 0.750083 -1.7913 0
M  V30 4651 O 462.021 1.54574 -1.18056 0
M  V30 4652 C 462.304 -1.16499 -3.40735 0
M  V30 4653 C 462.157 -2.695 -3.60125 0
M  V30 4654 C 463.476 -0.742166 -4.33797 0
M  V30 4655 H 460.595 -0.26269 -0.688595 0
M  V30 4656 H 463.237 -1.27333 -1.41018 0
M  V30 4657 H 461.387 -0.69341 -3.82262 0
M  V30 4658 H 463.059 -3.24569 -3.278 0
M  V30 4659 H 461.302 -3.10113 -3.03336 0
M  V30 4660 H 461.973 -2.95757 -4.66081 0
M  V30 4661 H 464.449 -1.1477 -3.99959 0
M  V30 4662 H 463.325 -1.08213 -5.38127 0
M  V30 4663 H 463.586 0.355747 -4.40666 0
M  V30 4664 N 462.645 1.35699 -0.801477 0
M  V30 4665 C 463.892 1.98913 -0.379459 0
M  V30 4666 C 464.22 1.63592 1.05204 0
M  V30 4667 O 463.475 0.888563 1.74365 0
M  V30 4668 C 463.774 3.53828 -0.504041 0
M  V30 4669 C 463.44 4.09002 -1.8981 0
M  V30 4670 C 462.102 4.23783 -2.27951 0
M  V30 4671 C 464.454 4.38939 -2.81038 0
M  V30 4672 C 461.782 4.65816 -3.56696 0
M  V30 4673 C 464.134 4.82409 -4.09224 0
M  V30 4674 C 462.798 4.95395 -4.4737 0
M  V30 4675 H 462.068 0.727874 -0.138854 0
M  V30 4676 H 464.715 1.61994 -1.02128 0
M  V30 4677 H 463.02 3.91175 0.221242 0
M  V30 4678 H 464.717 4.00687 -0.158361 0
M  V30 4679 H 461.307 3.97946 -1.59176 0
M  V30 4680 H 465.491 4.27077 -2.52821 0
M  V30 4681 H 460.747 4.74059 -3.86106 0
M  V30 4682 H 464.921 5.04535 -4.80018 0
M  V30 4683 H 462.548 5.27724 -5.47185 0
M  V30 4684 N 464.123 0.554532 1.47522 0
M  V30 4685 C 465.056 -0.242442 2.26908 0
M  V30 4686 C 466.034 -0.922722 1.33883 0
M  V30 4687 O 467.218 -0.942244 1.63261 0
M  V30 4688 C 464.345 -1.34525 3.10839 0
M  V30 4689 C 463.391 -0.773805 4.19422 0
M  V30 4690 S 464.224 0.377525 5.34168 0
M  V30 4691 C 465.38 -0.727164 6.21662 0
M  V30 4692 H 465.613 0.431218 2.94156 0
M  V30 4693 H 463.146 0.3408 1.50592 0
M  V30 4694 H 465.104 -1.97683 3.59766 0
M  V30 4695 H 463.765 -1.99073 2.42958 0
M  V30 4696 H 462.958 -1.60187 4.77866 0
M  V30 4697 H 462.56 -0.218448 3.73361 0
M  V30 4698 H 464.852 -1.61992 6.57849 0
M  V30 4699 H 465.795 -0.180135 7.07871 0
M  V30 4700 H 466.203 -1.01863 5.55233 0
M  V30 4701 N 465.601 -1.54893 0.290851 0
M  V30 4702 C 466.531 -2.26103 -0.583084 0
M  V30 4703 C 467.512 -1.25684 -1.14619 0
M  V30 4704 O 468.697 -1.54436 -1.17741 0
M  V30 4705 C 465.827 -2.99409 -1.75987 0
M  V30 4706 C 464.781 -4.0689 -1.32758 0
M  V30 4707 C 464.107 -4.67856 -2.58872 0
M  V30 4708 C 465.407 -5.20215 -0.46624 0
M  V30 4709 H 467.101 -2.99398 0.0108214 0
M  V30 4710 H 464.647 -1.43998 0.00664468 0
M  V30 4711 H 466.6 -3.47943 -2.37727 0
M  V30 4712 H 465.324 -2.23675 -2.37985 0
M  V30 4713 H 463.983 -3.59191 -0.733299 0
M  V30 4714 H 463.631 -3.88772 -3.19163 0
M  V30 4715 H 463.331 -5.40438 -2.30653 0
M  V30 4716 H 464.855 -5.19147 -3.21433 0
M  V30 4717 H 466.269 -5.64704 -0.989047 0
M  V30 4718 H 464.666 -5.99455 -0.27826 0
M  V30 4719 H 465.736 -4.82198 0.511173 0
M  V30 4720 N 467.08 -0.0183926 -1.57589 0
M  V30 4721 C 468.043 0.951986 -2.08494 0
M  V30 4722 C 469.043 1.26092 -0.997874 0
M  V30 4723 O 470.233 1.20304 -1.25987 0
M  V30 4724 C 467.365 2.27165 -2.54182 0
M  V30 4725 H 468.558 0.511307 -2.95509 0
M  V30 4726 H 466.111 0.229444 -1.54607 0
M  V30 4727 H 466.846 2.75884 -1.70465 0
M  V30 4728 H 466.631 2.06057 -3.33591 0
M  V30 4729 H 468.121 2.9674 -2.93828 0
M  V30 4730 N 468.558 1.5553 0.254621 0
M  V30 4731 C 469.788 1.80784 1.00004 0
M  V30 4732 C 470.196 0.59071 1.79742 0
M  V30 4733 O 469.539 -0.449988 1.78103 0
M  V30 4734 C 469.601 2.99268 1.99196 0
M  V30 4735 C 469.265 4.35595 1.38224 0
M  V30 4736 C 470.262 5.13884 0.788611 0
M  V30 4737 C 467.947 4.82281 1.40393 0
M  V30 4738 C 469.941 6.37004 0.224783 0
M  V30 4739 C 467.628 6.05351 0.836243 0
M  V30 4740 C 468.626 6.82551 0.24769 0
M  V30 4741 O 468.314 8.03297 -0.311249 0
M  V30 4742 H 468.046 0.60565 0.300274 0
M  V30 4743 H 470.6 2.03411 0.285143 0
M  V30 4744 H 468.83 2.72377 2.74496 0
M  V30 4745 H 470.519 3.11682 2.60018 0
M  V30 4746 H 471.285 4.78938 0.764423 0
M  V30 4747 H 467.164 4.22189 1.85142 0
M  V30 4748 H 470.708 6.97203 -0.235235 0
M  V30 4749 H 466.605 6.39776 0.857733 0
M  V30 4750 H 467.373 8.1825 -0.20237 0
M  V30 4751 N 470.036 -0.519951 1.48776 0
M  V30 4752 C 471.447 -1.10177 1.50725 0
M  V30 4753 C 471.798 -1.94153 0.282678 0
M  V30 4754 O 470.923 -2.07645 -0.609298 0
M  V30 4755 C 471.518 -2.00482 2.73116 0
M  V30 4756 C 470.077 -2.53862 2.77905 0
M  V30 4757 C 469.224 -1.31047 2.44381 0
M  V30 4758 H 472.175 -0.30473 1.55747 0
M  V30 4759 H 472.196 -2.8491 2.52203 0
M  V30 4760 H 471.708 -1.39335 3.62225 0
M  V30 4761 H 469.809 -3.18702 1.93029 0
M  V30 4762 H 469.922 -2.9231 3.79594 0
M  V30 4763 H 468.286 -1.62953 1.95751 0
M  V30 4764 H 469.069 -0.71637 3.35743 0
M  V30 4765 N 471.514 -1.37532 -0.769588 0
M  V30 4766 C 472.744 -1.35861 -1.55645 0
M  V30 4767 C 473.152 0.0574398 -1.89113 0
M  V30 4768 O 472.495 1.03021 -1.52093 0
M  V30 4769 C 472.557 -2.13431 -2.89288 0
M  V30 4770 C 472.221 -3.62378 -2.78444 0
M  V30 4771 C 473.218 -4.56215 -2.49326 0
M  V30 4772 C 470.903 -4.05529 -2.96398 0
M  V30 4773 C 472.897 -5.91181 -2.38294 0
M  V30 4774 C 470.584 -5.40579 -2.84987 0
M  V30 4775 C 471.582 -6.33218 -2.55975 0
M  V30 4776 O 471.27 -7.65787 -2.44594 0
M  V30 4777 H 471.002 -0.467001 -0.48876 0
M  V30 4778 H 473.556 -1.81505 -0.961515 0
M  V30 4779 H 471.786 -1.62481 -3.50909 0
M  V30 4780 H 473.475 -2.04368 -3.50697 0
M  V30 4781 H 474.241 -4.24187 -2.35139 0
M  V30 4782 H 470.12 -3.33781 -3.1798 0
M  V30 4783 H 473.664 -6.63457 -2.15571 0
M  V30 4784 H 469.561 -5.72209 -2.98743 0
M  V30 4785 H 470.329 -7.76132 -2.59927 0
M  V30 4786 N 472.992 0.995999 -1.22138 0
M  V30 4787 C 474.24 1.73167 -1.042 0
M  V30 4788 C 474.561 1.90329 0.42423 0
M  V30 4789 O 473.831 1.4607 1.30539 0
M  V30 4790 H 472.411 0.641593 -0.38258 0
M  V30 4791 H 475.073 1.19974 -1.53598 0
M  V30 4792 H 474.169 2.72734 -1.51731 0
M  V30 4793 N 474.47 1.03057 1.19235 0
M  V30 4794 C 475.7 0.746613 1.92638 0
M  V30 4795 C 476.108 -0.698708 1.75826 0
M  V30 4796 O 475.451 -1.487 1.07861 0
M  V30 4797 C 475.513 1.02024 3.44719 0
M  V30 4798 C 475.177 2.45745 3.85303 0
M  V30 4799 C 476.174 3.43887 3.8992 0
M  V30 4800 C 473.859 2.8019 4.16892 0
M  V30 4801 C 475.853 4.74529 4.2556 0
M  V30 4802 C 473.54 4.1104 4.52205 0
M  V30 4803 C 474.538 5.0802 4.56513 0
M  V30 4804 O 474.226 6.36527 4.91008 0
M  V30 4805 H 473.958 0.272401 0.618687 0
M  V30 4806 H 476.512 1.37853 1.52269 0
M  V30 4807 H 474.742 0.331184 3.85279 0
M  V30 4808 H 476.431 0.725677 3.9936 0
M  V30 4809 H 477.197 3.18614 3.65664 0
M  V30 4810 H 473.076 2.05382 4.12722 0
M  V30 4811 H 476.62 5.50222 4.28838 0
M  V30 4812 H 472.517 4.36086 4.7592 0
M  V30 4813 H 473.285 6.41025 5.08949 0
M  V30 4814 N 475.948 -1.35272 0.808662 0
M  V30 4815 C 477.359 -1.81179 0.450688 0
M  V30 4816 C 477.71 -1.67143 -1.02751 0
M  V30 4817 O 476.835 -1.20325 -1.79864 0
M  V30 4818 C 477.43 -3.28943 0.811275 0
M  V30 4819 C 475.989 -3.72985 0.505871 0
M  V30 4820 C 475.136 -2.57229 1.03578 0
M  V30 4821 H 478.087 -1.2322 1.00012 0
M  V30 4822 H 478.108 -3.80342 0.109588 0
M  V30 4823 H 477.62 -3.39127 1.88718 0
M  V30 4824 H 475.721 -3.68349 -0.561209 0
M  V30 4825 H 475.834 -4.67677 1.03995 0
M  V30 4826 H 474.198 -2.50548 0.458005 0
M  V30 4827 H 474.981 -2.7019 2.11784 0
M  V30 4828 N 477.426 -0.562348 -1.47226 0
M  V30 4829 C 478.373 0.182461 -2.30078 0
M  V30 4830 C 479.343 0.903503 -1.39377 0
M  V30 4831 O 480.528 0.898188 -1.68337 0
M  V30 4832 C 477.668 1.20322 -3.23445 0
M  V30 4833 C 476.781 0.487717 -4.29238 0
M  V30 4834 C 475.916 1.49422 -5.09752 0
M  V30 4835 C 474.955 0.763976 -6.07314 0
M  V30 4836 N 474.092 1.71755 -6.80768 0
M  V30 4837 H 478.932 -0.530169 -2.93246 0
M  V30 4838 H 476.469 -0.273276 -1.44539 0
M  V30 4839 H 478.427 1.80768 -3.76004 0
M  V30 4840 H 477.057 1.88382 -2.6213 0
M  V30 4841 H 476.109 -0.231374 -3.79696 0
M  V30 4842 H 477.421 -0.0841003 -4.98729 0
M  V30 4843 H 476.575 2.17206 -5.66486 0
M  V30 4844 H 475.314 2.09995 -4.40174 0
M  V30 4845 H 474.319 0.0722344 -5.49753 0
M  V30 4846 H 475.544 0.16391 -6.78902 0
M  V30 4847 H 473.49 2.31177 -6.13916 0
M  V30 4848 H 473.407 1.19802 -7.46447 0
M  V30 4849 H 474.675 2.38638 -7.42073 0
M  V30 4850 N 478.904 1.54736 -0.299062 0
M  V30 4851 C 480.15 2.00397 0.311244 0
M  V30 4852 C 480.483 1.18716 1.53688 0
M  V30 4853 O 479.758 0.263154 1.92712 0
M  V30 4854 C 480.041 3.53817 0.669761 0
M  V30 4855 C 479.894 4.46239 -0.564882 0
M  V30 4856 C 481.213 4.13856 1.49702 0
M  V30 4857 H 478.332 0.728493 0.111653 0
M  V30 4858 H 480.974 1.85506 -0.410774 0
M  V30 4859 H 479.124 3.66637 1.28491 0
M  V30 4860 H 480.796 4.45328 -1.20337 0
M  V30 4861 H 479.039 4.16916 -1.19849 0
M  V30 4862 H 479.71 5.5134 -0.269918 0
M  V30 4863 H 482.186 4.04461 0.977284 0
M  V30 4864 H 481.062 5.21365 1.71666 0
M  V30 4865 H 481.323 3.65608 2.48563 0
M  V30 4866 N 480.382 0.0267497 1.57577 0
M  V30 4867 C 481.315 -0.99059 2.05579 0
M  V30 4868 C 482.293 -1.31884 0.951065 0
M  V30 4869 O 483.477 -1.43592 1.22121 0
M  V30 4870 C 480.604 -2.31125 2.47586 0
M  V30 4871 C 479.65 -2.13777 3.69055 0
M  V30 4872 S 480.483 -1.4388 5.15809 0
M  V30 4873 C 481.639 -2.77321 5.6111 0
M  V30 4874 H 481.872 -0.581976 2.91548 0
M  V30 4875 H 479.405 -0.184876 1.53289 0
M  V30 4876 H 481.363 -3.07049 2.72454 0
M  V30 4877 H 480.024 -2.6912 1.61967 0
M  V30 4878 H 479.217 -3.11405 3.96287 0
M  V30 4879 H 478.819 -1.45996 3.44327 0
M  V30 4880 H 481.111 -3.73565 5.65204 0
M  V30 4881 H 482.054 -2.54756 6.60685 0
M  V30 4882 H 482.462 -2.82459 4.88751 0
M  V30 4883 N 481.861 -1.55662 -0.24637 0
M  V30 4884 C 483.086 -1.81914 -0.996093 0
M  V30 4885 C 483.511 -0.603875 -1.78143 0
M  V30 4886 O 482.869 0.447091 -1.75701 0
M  V30 4887 C 482.917 -3.05908 -1.90925 0
M  V30 4888 O 482.021 -2.82861 -3.00105 0
M  V30 4889 H 481.362 -0.600481 -0.283406 0
M  V30 4890 H 483.892 -2.02848 -0.267199 0
M  V30 4891 H 483.902 -3.35356 -2.3238 0
M  V30 4892 H 482.577 -3.93999 -1.33183 0
M  V30 4893 H 481.154 -2.64583 -2.62775 0
M  V30 4894 N 483.339 0.512053 -1.4905 0
M  V30 4895 C 484.564 1.2959 -1.6193 0
M  V30 4896 C 484.989 1.85906 -0.286454 0
M  V30 4897 O 484.347 1.65312 0.744426 0
M  V30 4898 C 484.395 2.40987 -2.68249 0
M  V30 4899 O 483.499 3.44531 -2.26654 0
M  V30 4900 H 482.84 0.383053 -0.542371 0
M  V30 4901 H 485.37 0.614231 -1.95162 0
M  V30 4902 H 485.38 2.86913 -2.90078 0
M  V30 4903 H 484.055 1.99361 -3.65004 0
M  V30 4904 H 482.632 3.046 -2.15112 0
M  V30 4905 N 484.817 1.37938 0.762283 0
M  V30 4906 C 486.047 1.36685 1.54922 0
M  V30 4907 C 486.455 -0.0474099 1.89141 0
M  V30 4908 O 485.798 -1.02213 1.52638 0
M  V30 4909 C 485.86 2.14963 2.88152 0
M  V30 4910 C 485.524 3.6385 2.76518 0
M  V30 4911 C 486.521 4.57531 2.46904 0
M  V30 4912 C 484.206 4.07095 2.94243 0
M  V30 4913 C 486.2 5.92436 2.35156 0
M  V30 4914 C 483.887 5.42083 2.82116 0
M  V30 4915 C 484.885 6.34567 2.52614 0
M  V30 4916 O 484.573 7.67073 2.40529 0
M  V30 4917 H 484.305 0.469586 0.486276 0
M  V30 4918 H 486.859 1.82012 0.951876 0
M  V30 4919 H 485.089 1.6434 3.50042 0
M  V30 4920 H 486.778 2.06224 3.49609 0
M  V30 4921 H 487.544 4.25428 2.32886 0
M  V30 4922 H 483.423 3.35462 3.16206 0
M  V30 4923 H 486.967 6.64591 2.12049 0
M  V30 4924 H 482.864 5.73785 2.95704 0
M  V30 4925 H 483.632 7.77499 2.55807 0
M  V30 4926 N 486.295 -0.989507 1.22664 0
M  V30 4927 C 487.572 -1.70326 0.961688 0
M  V30 4928 C 487.952 -2.04537 -0.522279 0
M  V30 4929 O 487.3 -1.73136 -1.49118 0
M  V30 4930 C 487.51 -2.95135 1.86269 0
M  V30 4931 C 488.858 -3.67842 2.12078 0
M  V30 4932 O 489.882 -3.0515 1.83745 0
M  V30 4933 O 488.741 -4.80644 2.60083 0
M  V30 4934 H 485.835 -0.743589 0.361946 0
M  V30 4935 H 488.381 -1.04555 1.33665 0
M  V30 4936 H 487.153 -2.66382 2.8663 0
M  V30 4937 H 486.776 -3.68645 1.48952 0
M  V30 4938 N 487.773 -1.03688 -1.18687 0
M  V30 4939 C 489.02 -0.73803 -1.88572 0
M  V30 4940 C 489.348 0.733973 -1.8012 0
M  V30 4941 O 488.603 1.55098 -1.19344 0
M  V30 4942 C 488.902 -1.14477 -3.3857 0
M  V30 4943 C 488.568 -2.61641 -3.67226 0
M  V30 4944 C 487.23 -3.01846 -3.74757 0
M  V30 4945 C 489.582 -3.56812 -3.79914 0
M  V30 4946 C 486.91 -4.36118 -3.92451 0
M  V30 4947 C 489.262 -4.90799 -3.99123 0
M  V30 4948 C 487.926 -5.3068 -4.04888 0
M  V30 4949 H 487.196 -0.270064 -0.690034 0
M  V30 4950 H 489.843 -1.3012 -1.40503 0
M  V30 4951 H 488.148 -0.500337 -3.88592 0
M  V30 4952 H 489.845 -0.89095 -3.90977 0
M  V30 4953 H 486.435 -2.29498 -3.61979 0
M  V30 4954 H 490.619 -3.26899 -3.73431 0
M  V30 4955 H 485.875 -4.66542 -3.95157 0
M  V30 4956 H 490.049 -5.64451 -4.07882 0
M  V30 4957 H 487.676 -6.34733 -4.18351 0
M  V30 4958 N 489.251 1.34841 -0.815825 0
M  V30 4959 C 490.201 2.27075 -0.205169 0
M  V30 4960 C 491.185 1.48205 0.626414 0
M  V30 4961 O 492.377 1.70306 0.482157 0
M  V30 4962 C 489.506 3.37322 0.637871 0
M  V30 4963 C 488.592 4.23609 -0.203948 0
M  V30 4964 N 488.983 4.89558 -1.27149 0
M  V30 4965 C 487.281 4.45998 0.0128971 0
M  V30 4966 C 487.982 5.53597 -1.7862 0
M  V30 4967 N 486.958 5.32535 -1.0912 0
M  V30 4968 H 490.76 2.75563 -1.02187 0
M  V30 4969 H 488.274 1.48477 -0.657912 0
M  V30 4970 H 490.271 4.02359 1.09146 0
M  V30 4971 H 488.931 2.90385 1.45281 0
M  V30 4972 H 489.942 4.9077 -1.65423 0
M  V30 4973 H 486.619 4.09837 0.79624 0
M  V30 4974 H 488.009 6.16184 -2.67892 0
M  V30 4975 N 490.729 0.570148 1.46925 0
M  V30 4976 C 491.977 0.0508523 2.02036 0
M  V30 4977 C 492.298 -1.30885 1.44548 0
M  V30 4978 O 491.568 -1.85647 0.625453 0
M  V30 4979 H 490.148 0.0158088 0.746833 0
M  V30 4980 H 492.81 0.743086 1.80178 0
M  V30 4981 H 491.906 -0.027575 3.12088 0
M  V30 4982 N 492.207 -1.54576 0.307264 0
M  V30 4983 C 493.484 -1.92377 -0.353605 0
M  V30 4984 C 493.864 -1.23517 -1.71192 0
M  V30 4985 O 493.212 -0.373101 -2.25433 0
M  V30 4986 C 493.422 -3.45928 -0.462039 0
M  V30 4987 C 494.77 -4.18278 -0.729975 0
M  V30 4988 O 495.794 -3.51997 -0.545605 0
M  V30 4989 O 494.653 -5.3563 -1.08454 0
M  V30 4990 H 491.747 -0.802747 -0.198812 0
M  V30 4991 H 494.293 -1.65929 0.355783 0
M  V30 4992 H 493.065 -3.88187 0.492592 0
M  V30 4993 H 492.688 -3.78431 -1.21965 0
M  V30 4994 N 493.685 -0.035106 -1.57561 0
M  V30 4995 C 494.913 0.652258 -1.9635 0
M  V30 4996 C 495.328 1.65317 -0.911897 0
M  V30 4997 O 494.685 1.82194 0.105657 0
M  V30 4998 C 494.736 1.35337 -3.35211 0
M  V30 4999 O 494.457 0.392548 -4.36338 0
M  V30 5000 C 495.958 2.13199 -3.88666 0
M  V30 5001 H 493.178 0.179444 -0.646561 0
M  V30 5002 H 495.722 -0.0966459 -2.04271 0
M  V30 5003 H 493.877 2.05362 -3.28489 0
M  V30 5004 H 494.291 0.891097 -5.16875 0
M  V30 5005 H 495.765 2.577 -4.88154 0
M  V30 5006 H 496.242 2.97353 -3.23231 0
M  V30 5007 H 496.848 1.48118 -3.98674 0
M  V30 5008 N 495.163 1.55791 0.238111 0
M  V30 5009 C 496.44 1.68798 0.98826 0
M  V30 5010 C 496.82 0.577562 2.03045 0
M  V30 5011 O 496.168 -0.41778 2.24648 0
M  V30 5012 C 496.378 3.09454 1.61367 0
M  V30 5013 C 497.726 3.68335 2.11221 0
M  V30 5014 O 498.75 3.1231 1.71292 0
M  V30 5015 O 497.609 4.6657 2.84561 0
M  V30 5016 H 494.703 0.686881 0.460568 0
M  V30 5017 H 497.249 1.68118 0.231202 0
M  V30 5018 H 496.021 3.81726 0.860295 0
M  V30 5019 H 495.644 3.14182 2.4367 0
M  V30 5020 N 496.642 -0.504142 1.49319 0
M  V30 5021 C 497.605 -1.5883 1.65244 0
M  V30 5022 C 498.605 -1.52009 0.524386 0
M  V30 5023 O 499.795 -1.55218 0.79077 0
M  V30 5024 C 496.927 -2.98481 1.64687 0
M  V30 5025 H 498.12 -1.4604 2.61939 0
M  V30 5026 H 495.673 -0.728144 1.38303 0
M  V30 5027 H 496.408 -3.16751 0.695644 0
M  V30 5028 H 496.193 -3.0484 2.46607 0
M  V30 5029 H 497.683 -3.77256 1.79075 0
M  V30 5030 N 498.12 -1.38341 -0.754957 0
M  V30 5031 C 499.368 -1.34208 -1.51105 0
M  V30 5032 C 499.689 0.0677634 -1.94882 0
M  V30 5033 O 498.959 1.01517 -1.67544 0
M  V30 5034 H 497.539 -0.493819 -0.560493 0
M  V30 5035 H 500.201 -1.73005 -0.897507 0
M  V30 5036 H 499.297 -1.99203 -2.4026 0
M  V30 5037 N 499.598 0.982988 -1.23187 0
M  V30 5038 C 500.846 1.72052 -1.06031 0
M  V30 5039 C 501.167 1.90769 0.404019 0
M  V30 5040 O 500.437 1.47446 1.28982 0
M  V30 5041 H 499.017 0.637499 -0.389363 0
M  V30 5042 H 501.679 1.18338 -1.54862 0
M  V30 5043 H 500.775 2.7111 -1.54615 0
M  V30 5044 N 501.076 1.04316 1.18135 0
M  V30 5045 C 502.487 0.775505 1.69832 0
M  V30 5046 C 502.838 -0.703348 1.8316 0
M  V30 5047 O 501.963 -1.54729 1.51287 0
M  V30 5048 C 502.558 1.40112 3.0847 0
M  V30 5049 C 501.117 1.18172 3.57368 0
M  V30 5050 C 500.264 1.49022 2.33854 0
M  V30 5051 H 503.215 1.20925 1.02775 0
M  V30 5052 H 503.236 0.805672 3.71873 0
M  V30 5053 H 502.748 2.47744 2.98738 0
M  V30 5054 H 500.849 0.124258 3.72393 0
M  V30 5055 H 500.962 1.8805 4.40652 0
M  V30 5056 H 499.326 0.909995 2.37889 0
M  V30 5057 H 500.109 2.57768 2.26738 0
M  V30 5058 N 502.554 -1.34406 0.822964 0
M  V30 5059 C 503.502 -2.31428 0.233165 0
M  V30 5060 C 504.496 -1.57404 -0.626118 0
M  V30 5061 O 505.702 -1.72402 -0.517453 0
M  V30 5062 H 502.077 -0.749863 0.0566557 0
M  V30 5063 H 504.048 -2.78699 1.06628 0
M  V30 5064 C 502.797 -3.42653 -0.590264 0
M  V30 5065 H 502.12 -3.99753 0.0616129 0
M  V30 5066 H 503.56 -4.12778 -0.969054 0
M  V30 5067 C 502.019 -2.87112 -1.76262 0
M  V30 5068 O 502.549 -2.81995 -2.8608 0
M  V30 5069 N 500.755 -2.43934 -1.57938 0
M  V30 5070 H 500.302 -2.48296 -0.686078 0
M  V30 5071 H 500.26 -2.07123 -2.36532 0
M  V30 5072 N 504.032 -0.577932 -1.46621 0
M  V30 5073 C 505.278 -0.0617793 -2.02706 0
M  V30 5074 C 505.611 1.29294 -1.44903 0
M  V30 5075 O 504.886 1.8461 -0.61232 0
M  V30 5076 C 505.169 0.00911824 -3.60099 0
M  V30 5077 C 505.022 -1.37416 -4.28295 0
M  V30 5078 C 506.341 0.712159 -4.343 0
M  V30 5079 H 503.46 -0.0239246 -0.736612 0
M  V30 5080 H 506.102 -0.744211 -1.74818 0
M  V30 5081 H 504.252 0.590292 -3.83989 0
M  V30 5082 H 505.924 -2.00013 -4.15683 0
M  V30 5083 H 504.167 -1.94319 -3.87843 0
M  V30 5084 H 504.838 -1.27707 -5.37024 0
M  V30 5085 H 507.314 0.218486 -4.15526 0
M  V30 5086 H 506.19 0.730782 -5.44014 0
M  V30 5087 H 506.451 1.77251 -4.05012 0
M  V30 5088 N 505.51 1.54411 -0.315457 0
M  V30 5089 C 506.921 1.85885 0.174265 0
M  V30 5090 C 507.272 1.23723 1.52273 0
M  V30 5091 O 506.397 0.540246 2.09548 0
M  V30 5092 C 506.992 3.37257 0.322981 0
M  V30 5093 C 505.551 3.68711 0.756922 0
M  V30 5094 C 504.698 2.77013 -0.126195 0
M  V30 5095 H 507.649 1.49374 -0.536007 0
M  V30 5096 H 507.67 3.62539 1.15522 0
M  V30 5097 H 507.182 3.82471 -0.658602 0
M  V30 5098 H 505.283 3.29024 1.74854 0
M  V30 5099 H 505.396 4.75741 0.566291 0
M  V30 5100 H 503.76 2.51588 0.39692 0
M  V30 5101 H 504.543 3.25051 -1.1044 0
M  V30 5102 N 506.988 0.0434614 1.5754 0
M  V30 5103 C 508.234 -0.632971 1.92669 0
M  V30 5104 C 508.567 -1.70947 0.921446 0
M  V30 5105 O 507.842 -1.94426 -0.0537202 0
M  V30 5106 C 508.125 -1.23619 3.38216 0
M  V30 5107 C 507.978 -0.168274 4.49485 0
M  V30 5108 C 509.297 -2.15008 3.84005 0
M  V30 5109 H 506.416 -0.228629 0.700641 0
M  V30 5110 H 509.058 0.103651 1.89717 0
M  V30 5111 H 507.208 -1.864 3.40863 0
M  V30 5112 H 508.88 0.463196 4.58969 0
M  V30 5113 H 507.123 0.504581 4.30855 0
M  V30 5114 H 507.794 -0.630218 5.48391 0
M  V30 5115 H 510.27 -1.62198 3.83185 0
M  V30 5116 H 509.146 -2.54161 4.86511 0
M  V30 5117 H 509.407 -3.04707 3.20322 0
M  V30 5118 N 508.466 -1.55915 -0.229846 0
M  V30 5119 C 509.416 -1.8813 -1.28807 0
M  V30 5120 C 510.4 -0.743621 -1.42685 0
M  V30 5121 O 511.592 -1.00588 -1.4564 0
M  V30 5122 C 508.721 -2.19431 -2.64017 0
M  V30 5123 C 507.807 -3.39569 -2.54074 0
M  V30 5124 N 508.198 -4.58404 -2.13774 0
M  V30 5125 C 506.496 -3.43019 -2.85051 0
M  V30 5126 C 507.197 -5.40557 -2.1488 0
M  V30 5127 N 506.173 -4.80054 -2.55047 0
M  V30 5128 H 509.975 -2.77527 -0.967261 0
M  V30 5129 H 507.489 -1.5637 -0.438433 0
M  V30 5130 H 509.486 -2.40681 -3.40409 0
M  V30 5131 H 508.146 -1.31341 -2.9695 0
M  V30 5132 H 509.157 -4.83716 -1.8504 0
M  V30 5133 H 505.834 -2.65249 -3.22411 0
M  V30 5134 H 507.224 -6.45666 -1.85918 0
M  V30 5135 N 509.944 0.496216 -1.49584 0
M  V30 5136 C 510.892 1.61805 -1.67098 0
M  V30 5137 C 511.886 1.60667 -0.536877 0
M  V30 5138 O 513.092 1.65118 -0.716654 0
M  V30 5139 H 509.467 0.53646 -0.526986 0
M  V30 5140 H 511.438 1.44187 -2.61252 0
M  V30 5141 C 510.187 2.99912 -1.75921 0
M  V30 5142 H 509.51 3.01496 -2.62565 0
M  V30 5143 H 510.95 3.77931 -1.92209 0
M  V30 5144 C 509.409 3.33092 -0.505088 0
M  V30 5145 O 509.939 4.00019 0.367085 0
M  V30 5146 N 508.145 2.88278 -0.366599 0
M  V30 5147 H 507.692 2.33989 -1.07735 0
M  V30 5148 H 507.65 3.10846 0.47142 0
M  V30 5149 N 511.423 1.38739 0.74761 0
M  V30 5150 C 512.371 1.36573 1.88283 0
M  V30 5151 C 513.365 0.250712 1.67534 0
M  V30 5152 O 514.571 0.420073 1.7503 0
M  V30 5153 H 510.946 0.42619 0.619569 0
M  V30 5154 H 512.917 2.32356 1.87226 0
M  V30 5155 C 511.666 1.21361 3.25832 0
M  V30 5156 H 510.989 2.06424 3.42388 0
M  V30 5157 H 512.429 1.23901 4.05493 0
M  V30 5158 C 510.888 -0.0790099 3.36807 0
M  V30 5159 O 511.418 -1.05385 3.8763 0
M  V30 5160 N 509.624 -0.13785 2.90273 0
M  V30 5161 H 509.171 0.656128 2.49104 0
M  V30 5162 H 509.129 -1.00228 2.97996 0
M  V30 5163 N 512.901 -0.976442 1.23707 0
M  V30 5164 C 514.149 -1.71487 1.06942 0
M  V30 5165 C 514.47 -1.9098 -0.393897 0
M  V30 5166 O 513.74 -1.48128 -1.28198 0
M  V30 5167 H 512.32 -0.635425 0.392739 0
M  V30 5168 H 514.982 -1.17515 1.55487 0
M  V30 5169 H 514.078 -2.70286 1.56051 0
M  V30 5170 N 514.379 -1.04941 -1.1758 0
M  V30 5171 C 515.327 -0.64204 -2.23563 0
M  V30 5172 C 516.321 0.335453 -1.66045 0
M  V30 5173 O 517.527 0.20179 -1.78865 0
M  V30 5174 H 513.902 -0.18944 -0.727748 0
M  V30 5175 H 515.873 -1.54609 -2.55223 0
M  V30 5176 C 514.622 -0.0301051 -3.47687 0
M  V30 5177 H 513.945 -0.773339 -3.92249 0
M  V30 5178 H 515.385 0.217592 -4.23441 0
M  V30 5179 C 513.844 1.2225 -3.13937 0
M  V30 5180 O 514.374 2.3122 -3.28482 0
M  V30 5181 N 512.58 1.11917 -2.68185 0
M  V30 5182 H 512.127 0.232403 -2.5655 0
M  V30 5183 H 512.085 1.95814 -2.45976 0
M  V30 5184 N 515.857 1.33968 -0.830081 0
M  V30 5185 C 516.787 2.31911 -0.271911 0
M  V30 5186 C 517.768 1.58571 0.61556 0
M  V30 5187 O 518.953 1.86514 0.540946 0
M  V30 5188 C 516.083 3.42737 0.561146 0
M  V30 5189 C 515.037 4.27383 -0.229789 0
M  V30 5190 C 514.363 5.29742 0.726463 0
M  V30 5191 C 515.663 5.02 -1.44197 0
M  V30 5192 H 517.357 2.78844 -1.09025 0
M  V30 5193 H 514.903 1.34061 -0.52571 0
M  V30 5194 H 516.856 4.10276 0.961867 0
M  V30 5195 H 515.58 2.94471 1.41261 0
M  V30 5196 H 514.239 3.61456 -0.611964 0
M  V30 5197 H 513.887 4.77736 1.57408 0
M  V30 5198 H 513.587 5.87255 0.20142 0
M  V30 5199 H 515.111 6.00149 1.12489 0
M  V30 5200 H 516.525 5.62355 -1.11488 0
M  V30 5201 H 514.922 5.69122 -1.90317 0
M  V30 5202 H 515.992 4.31281 -2.2164 0
M  V30 5203 N 517.335 0.585699 1.46312 0
M  V30 5204 C 518.245 -0.148236 2.34131 0
M  V30 5205 C 519.261 -0.882972 1.49932 0
M  V30 5206 O 520.437 -0.845484 1.82794 0
M  V30 5207 C 517.502 -1.14714 3.27172 0
M  V30 5208 C 516.563 -0.416746 4.27272 0
M  V30 5209 C 515.796 -1.36806 5.15868 0
M  V30 5210 O 516.019 -2.60475 5.07454 0
M  V30 5211 O 514.953 -0.877018 5.95476 0
M  V30 5212 H 518.779 0.572882 2.98248 0
M  V30 5213 H 516.364 0.346082 1.45336 0
M  V30 5214 H 518.246 -1.72303 3.84564 0
M  V30 5215 H 516.921 -1.84967 2.65648 0
M  V30 5216 H 515.828 0.201061 3.73559 0
M  V30 5217 H 517.161 0.244872 4.9159 0
M  V30 5218 N 518.813 -1.54241 0.323641 0
M  V30 5219 C 520.053 -2.0248 -0.279502 0
M  V30 5220 C 520.417 -1.20672 -1.49339 0
M  V30 5221 O 521.618 -1.58715 -2.1694 0
M  V30 5222 C 519.889 -3.52238 -0.605266 0
M  V30 5223 S 521.448 -4.22411 -1.18805 0
M  V30 5224 H 518.266 -0.705957 -0.0845313 0
M  V30 5225 H 520.868 -1.90089 0.456781 0
M  V30 5226 H 519.572 -4.094 0.286339 0
M  V30 5227 H 519.103 -3.6871 -1.37174 0
M  V30 5228 H 521.118 -4.30075 -2.47487 0
M  V30 5229 N 520.291 -0.0518155 -1.57515 0
M  V30 5230 C 521.538 0.621823 -1.92716 0
M  V30 5231 C 521.866 1.70813 -0.930229 0
M  V30 5232 O 521.121 1.95616 0.0573708 0
M  V30 5233 C 521.42 1.25607 -3.34601 0
M  V30 5234 C 521.086 0.297901 -4.49915 0
M  V30 5235 C 519.748 0.034243 -4.81188 0
M  V30 5236 C 522.1 -0.358738 -5.19964 0
M  V30 5237 C 519.428 -0.893479 -5.79857 0
M  V30 5238 C 521.78 -1.27466 -6.19625 0
M  V30 5239 C 520.444 -1.54698 -6.49326 0
M  V30 5240 H 519.714 0.227541 -0.705199 0
M  V30 5241 H 522.361 -0.118432 -1.91133 0
M  V30 5242 H 520.666 2.07161 -3.32553 0
M  V30 5243 H 522.363 1.78424 -3.59118 0
M  V30 5244 H 518.953 0.513581 -4.25512 0
M  V30 5245 H 523.137 -0.168133 -4.96015 0
M  V30 5246 H 518.393 -1.11193 -6.01204 0
M  V30 5247 H 522.567 -1.78953 -6.73015 0
M  V30 5248 H 520.194 -2.26748 -7.25596 0
M  V30 5249 N 521.769 1.56035 0.221574 0
M  V30 5250 C 522.732 1.91584 1.2581 0
M  V30 5251 C 523.732 0.794425 1.39805 0
M  V30 5252 O 524.922 1.06217 1.38071 0
M  V30 5253 C 522.054 2.16663 2.63192 0
M  V30 5254 H 523.247 2.8429 0.954935 0
M  V30 5255 H 520.8 1.49316 0.461988 0
M  V30 5256 H 521.535 1.26508 2.98607 0
M  V30 5257 H 521.32 2.98358 2.5441 0
M  V30 5258 H 522.81 2.45262 3.37988 0
M  V30 5259 N 523.247 -0.488276 1.49845 0
M  V30 5260 C 524.472 -1.26997 1.63971 0
M  V30 5261 C 524.897 -1.85427 0.315994 0
M  V30 5262 O 524.255 -1.66475 -0.718032 0
M  V30 5263 C 524.303 -2.36689 2.72049 0
M  V30 5264 O 523.407 -3.40882 2.32107 0
M  V30 5265 H 522.748 -0.374376 0.548396 0
M  V30 5266 H 525.278 -0.583104 1.96115 0
M  V30 5267 H 525.288 -2.82262 2.94605 0
M  V30 5268 H 523.963 -1.93529 3.68129 0
M  V30 5269 H 522.54 -3.01139 2.19931 0
M  V30 5270 N 524.725 -1.39134 -0.740242 0
M  V30 5271 C 525.673 -1.3757 -1.87556 0
M  V30 5272 C 526.667 -0.259593 -1.67399 0
M  V30 5273 O 527.873 -0.429349 -1.74804 0
M  V30 5274 H 524.248 -0.42947 -0.6173 0
M  V30 5275 H 526.219 -2.33345 -1.85991 0
M  V30 5276 C 524.968 -1.23087 -3.25184 0
M  V30 5277 H 524.291 -2.08237 -3.41288 0
M  V30 5278 H 525.731 -1.26049 -4.0483 0
M  V30 5279 C 524.19 0.0611471 -3.36845 0
M  V30 5280 O 524.72 1.03328 -3.88183 0
M  V30 5281 N 522.926 0.122454 -2.90342 0
M  V30 5282 H 522.473 -0.669329 -2.48752 0
M  V30 5283 H 522.431 0.986463 -2.98523 0
M  V30 5284 N 526.204 0.969867 -1.24223 0
M  V30 5285 C 527.45 1.71582 -1.09231 0
M  V30 5286 C 527.805 1.88898 0.365432 0
M  V30 5287 O 527.098 1.43781 1.2664 0
M  V30 5288 C 527.292 3.10883 -1.76314 0
M  V30 5289 C 527.121 3.07155 -3.2846 0
M  V30 5290 C 525.891 3.11757 -3.97663 0
M  V30 5291 C 528.089 2.895 -4.25082 0
M  V30 5292 N 526.071 2.98025 -5.36707 0
M  V30 5293 C 527.442 2.84041 -5.51109 0
M  V30 5294 C 529.497 2.74064 -4.15684 0
M  V30 5295 C 528.2 2.64725 -6.68815 0
M  V30 5296 C 530.226 2.56115 -5.33066 0
M  V30 5297 C 529.588 2.51363 -6.58024 0
M  V30 5298 H 525.687 0.636496 -0.454309 0
M  V30 5299 H 528.271 1.15004 -1.57106 0
M  V30 5300 H 526.442 3.65657 -1.30955 0
M  V30 5301 H 528.174 3.74171 -1.54201 0
M  V30 5302 H 524.929 3.20352 -3.48814 0
M  V30 5303 H 525.353 2.94405 -6.09635 0
M  V30 5304 H 529.995 2.76521 -3.19837 0
M  V30 5305 H 527.713 2.61011 -7.64787 0
M  V30 5306 H 531.299 2.45119 -5.27644 0
M  V30 5307 H 530.179 2.37651 -7.47323 0
M  V30 5308 N 527.682 1.05563 1.17022 0
M  V30 5309 C 528.629 0.659893 2.21165 0
M  V30 5310 C 529.599 -0.339813 1.62587 0
M  V30 5311 O 530.784 -0.230378 1.89404 0
M  V30 5312 C 527.924 0.0447297 3.45071 0
M  V30 5313 C 527.037 1.09372 4.17926 0
M  V30 5314 C 526.172 0.445481 5.29329 0
M  V30 5315 C 525.211 1.47852 5.93975 0
M  V30 5316 N 524.348 0.854172 6.96885 0
M  V30 5317 H 529.188 1.55243 2.54369 0
M  V30 5318 H 526.725 0.776336 1.24946 0
M  V30 5319 H 528.683 -0.329404 4.15898 0
M  V30 5320 H 527.313 -0.811244 3.1244 0
M  V30 5321 H 526.365 1.58564 3.45777 0
M  V30 5322 H 527.677 1.87773 4.62107 0
M  V30 5323 H 526.831 0.0179688 6.06697 0
M  V30 5324 H 525.57 -0.370481 4.86291 0
M  V30 5325 H 524.575 1.91601 5.15334 0
M  V30 5326 H 525.8 2.29645 6.39093 0
M  V30 5327 H 523.746 0.0587882 6.55974 0
M  V30 5328 H 523.663 1.57567 7.39397 0
M  V30 5329 H 524.931 0.451559 7.78191 0
M  V30 5330 N 529.16 -1.33526 0.837174 0
M  V30 5331 C 530.4 -1.99649 0.438115 0
M  V30 5332 C 530.764 -1.64879 -0.983816 0
M  V30 5333 O 531.965 -2.23956 -1.48651 0
M  V30 5334 C 530.236 -3.51431 0.650461 0
M  V30 5335 S 531.795 -4.37431 0.346371 0
M  V30 5336 H 528.613 -0.69162 0.164872 0
M  V30 5337 H 531.215 -1.62556 1.08609 0
M  V30 5338 H 529.919 -3.74225 1.68475 0
M  V30 5339 H 529.45 -3.93398 -0.0117309 0
M  V30 5340 H 531.465 -4.89132 -0.834504 0
M  V30 5341 N 530.638 -0.59345 -1.46 0
M  V30 5342 C 531.548 0.135817 -2.34207 0
M  V30 5343 C 532.564 0.875008 -1.50398 0
M  V30 5344 O 533.74 0.835778 -1.83239 0
M  V30 5345 C 530.805 1.12977 -3.27776 0
M  V30 5346 C 529.866 0.394081 -4.27487 0
M  V30 5347 C 529.099 1.34068 -5.16586 0
M  V30 5348 O 529.322 2.5778 -5.08828 0
M  V30 5349 O 528.256 0.845426 -5.95933 0
M  V30 5350 H 532.082 -0.588691 -2.9794 0
M  V30 5351 H 529.667 -0.353784 -1.45151 0
M  V30 5352 H 531.549 1.70261 -3.85473 0
M  V30 5353 H 530.224 1.83556 -2.66625 0
M  V30 5354 H 529.131 -0.220869 -3.73447 0
M  V30 5355 H 530.464 -0.270939 -4.91454 0
M  V30 5356 N 532.116 1.54067 -0.331816 0
M  V30 5357 C 533.066 2.21363 0.546101 0
M  V30 5358 C 534.05 1.19698 1.07523 0
M  V30 5359 O 535.242 1.45293 1.01088 0
M  V30 5360 C 532.371 2.98115 1.70242 0
M  V30 5361 C 531.457 4.07127 1.18779 0
M  V30 5362 N 531.848 5.04267 0.393465 0
M  V30 5363 C 530.146 4.21226 1.46576 0
M  V30 5364 C 530.847 5.81585 0.115572 0
M  V30 5365 N 529.823 5.39022 0.703987 0
M  V30 5366 H 533.625 2.93821 -0.0679751 0
M  V30 5367 H 531.139 1.61812 -0.138085 0
M  V30 5368 H 533.136 3.44818 2.34321 0
M  V30 5369 H 531.796 2.27181 2.31989 0
M  V30 5370 H 532.807 5.17888 0.0355757 0
M  V30 5371 H 529.484 3.61509 2.08848 0
M  V30 5372 H 530.874 6.6985 -0.524426 0
M  V30 5373 N 533.594 0.0601682 1.57485 0
M  V30 5374 C 535.01 -0.296422 1.56823 0
M  V30 5375 C 535.21 -1.70831 1.0686 0
M  V30 5376 O 534.266 -2.4174 0.729245 0
M  V30 5377 C 535.579 -0.116681 3.00474 0
M  V30 5378 C 537.127 -0.187103 3.1244 0
M  V30 5379 C 537.602 -0.035783 4.57986 0
M  V30 5380 N 539.093 -0.0917676 4.63109 0
M  V30 5381 C 539.828 0.00107251 5.734 0
M  V30 5382 N 539.324 0.146773 6.92645 0
M  V30 5383 N 541.117 -0.0551577 5.62073 0
M  V30 5384 H 533.268 0.983055 1.88281 0
M  V30 5385 H 535.531 0.382386 0.867459 0
M  V30 5386 H 535.237 0.85712 3.41096 0
M  V30 5387 H 535.111 -0.873929 3.66936 0
M  V30 5388 H 537.498 -1.15138 2.71712 0
M  V30 5389 H 537.579 0.601052 2.48638 0
M  V30 5390 H 537.223 0.925212 4.99402 0
M  V30 5391 H 537.153 -0.843196 5.19806 0
M  V30 5392 H 539.644 -0.203261 3.77353 0
M  V30 5393 H 539.957 0.210076 7.72514 0
M  V30 5394 H 538.302 0.181979 6.94762 0
M  V30 5395 H 541.493 -0.167605 4.678 0
M  V30 5396 H 541.666 0.020652 6.47997 0
M  V30 5397 N 535.072 -1.5615 -0.213296 0
M  V30 5398 C 536.318 -1.80718 -0.933402 0
M  V30 5399 C 536.673 -0.634441 -1.81639 0
M  V30 5400 O 535.966 0.371182 -1.8797 0
M  V30 5401 C 536.16 -3.08772 -1.79985 0
M  V30 5402 C 535.989 -4.38389 -1.00224 0
M  V30 5403 C 534.759 -5.00513 -0.693885 0
M  V30 5404 C 536.957 -5.13013 -0.363598 0
M  V30 5405 N 534.939 -6.13774 0.124266 0
M  V30 5406 C 536.31 -6.19186 0.31757 0
M  V30 5407 C 538.365 -4.97126 -0.277468 0
M  V30 5408 C 537.068 -7.11197 1.07664 0
M  V30 5409 C 539.094 -5.89544 0.468155 0
M  V30 5410 C 538.456 -6.95149 1.13784 0
M  V30 5411 H 534.555 -0.712833 -0.321549 0
M  V30 5412 H 537.139 -1.93633 -0.203588 0
M  V30 5413 H 535.31 -2.97126 -2.50142 0
M  V30 5414 H 537.042 -3.21499 -2.45806 0
M  V30 5415 H 533.797 -4.62619 -1.01391 0
M  V30 5416 H 534.221 -6.74981 0.522418 0
M  V30 5417 H 538.863 -4.15526 -0.78087 0
M  V30 5418 H 536.581 -7.92273 1.59153 0
M  V30 5419 H 540.167 -5.79327 0.535911 0
M  V30 5420 H 539.047 -7.65428 1.70557 0
M  V30 5421 N 536.55 0.480323 -1.50102 0
M  V30 5422 C 537.775 1.26126 -1.64642 0
M  V30 5423 C 538.2 1.85257 -0.325823 0
M  V30 5424 O 537.558 1.66854 0.709194 0
M  V30 5425 C 537.606 2.35243 -2.73301 0
M  V30 5426 O 536.71 3.39646 -2.33911 0
M  V30 5427 H 536.051 0.371463 -0.550374 0
M  V30 5428 H 538.581 0.572696 -1.96421 0
M  V30 5429 H 538.591 2.80695 -2.96098 0
M  V30 5430 H 537.266 1.91574 -3.6915 0
M  V30 5431 H 535.843 2.99969 -2.21525 0
M  V30 5432 N 538.028 1.39524 0.732853 0
M  V30 5433 C 539.258 1.3994 1.51988 0
M  V30 5434 C 539.666 -0.00727973 1.89199 0
M  V30 5435 O 539.009 -0.989521 1.54771 0
M  V30 5436 C 539.071 2.21026 2.83527 0
M  V30 5437 C 538.735 3.69633 2.68738 0
M  V30 5438 C 539.732 4.62665 2.37143 0
M  V30 5439 C 537.417 4.13244 2.85542 0
M  V30 5440 C 539.411 5.97291 2.22536 0
M  V30 5441 C 537.098 5.47945 2.70554 0
M  V30 5442 C 538.096 6.39783 2.39097 0
M  V30 5443 O 537.784 7.72002 2.24204 0
M  V30 5444 H 537.516 0.479795 0.476206 0
M  V30 5445 H 540.07 1.8399 0.913054 0
M  V30 5446 H 538.3 1.71728 3.46477 0
M  V30 5447 H 539.989 2.13594 3.45156 0
M  V30 5448 H 540.755 4.30272 2.2381 0
M  V30 5449 H 536.634 3.42094 3.09019 0
M  V30 5450 H 540.178 6.68939 1.97905 0
M  V30 5451 H 536.075 5.79928 2.83466 0
M  V30 5452 H 536.843 7.8275 2.39258 0
M  V30 5453 N 539.506 -0.963266 1.24736 0
M  V30 5454 C 540.755 -1.70115 1.08369 0
M  V30 5455 C 541.068 -1.91939 -0.376688 0
M  V30 5456 O 542.274 -2.6334 -0.660624 0
M  V30 5457 C 540.73 -3.06218 1.89099 0
M  V30 5458 C 540.338 -2.92221 3.39574 0
M  V30 5459 C 542.082 -3.83848 1.81275 0
M  V30 5460 C 539.989 -4.23662 4.12631 0
M  V30 5461 H 538.919 -0.637944 0.401924 0
M  V30 5462 H 541.57 -1.07304 1.48856 0
M  V30 5463 H 539.952 -3.69884 1.41429 0
M  V30 5464 H 541.126 -2.37541 3.94856 0
M  V30 5465 H 539.441 -2.28054 3.48397 0
M  V30 5466 H 542.038 -4.81188 2.33158 0
M  V30 5467 H 542.381 -4.08949 0.778895 0
M  V30 5468 H 542.914 -3.26918 2.26649 0
M  V30 5469 H 539.653 -4.03753 5.16395 0
M  V30 5470 H 539.173 -4.78141 3.62135 0
M  V30 5471 H 540.852 -4.92256 4.19873 0
M  V30 5472 N 540.985 -1.06182 -1.16461 0
M  V30 5473 C 541.948 -0.675723 -2.19013 0
M  V30 5474 C 542.948 0.277963 -1.58379 0
M  V30 5475 O 544.138 0.0604962 -1.74095 0
M  V30 5476 C 541.27 0.00591459 -3.40899 0
M  V30 5477 H 542.463 -1.58353 -2.54685 0
M  V30 5478 H 540.016 -0.856908 -1.30716 0
M  V30 5479 H 540.751 0.92652 -3.10783 0
M  V30 5480 H 540.536 -0.67984 -3.86161 0
M  V30 5481 H 542.026 0.26181 -4.16778 0
M  V30 5482 N 542.463 1.3308 -0.844243 0
M  V30 5483 C 543.711 1.97215 -0.441676 0
M  V30 5484 C 544.032 1.67185 1.0037 0
M  V30 5485 O 543.302 0.973588 1.69994 0
M  V30 5486 H 541.882 0.72959 -0.160335 0
M  V30 5487 H 544.544 1.62348 -1.07838 0
M  V30 5488 H 543.64 3.06698 -0.57815 0
M  V30 5489 N 543.941 0.601185 1.45683 0
M  V30 5490 C 545.189 0.0936957 2.01883 0
M  V30 5491 C 545.51 -1.2779 1.47291 0
M  V30 5492 O 544.78 -1.84279 0.664691 0
M  V30 5493 H 543.36 0.0316466 0.746329 0
M  V30 5494 H 546.022 0.781137 1.78562 0
M  V30 5495 H 545.118 0.0386297 3.12076 0
M  V30 5496 N 545.419 -1.53889 0.339982 0
M  V30 5497 C 546.665 -2.01152 -0.258003 0
M  V30 5498 C 546.998 -1.22749 -1.50487 0
M  V30 5499 O 546.273 -0.314156 -1.91946 0
M  V30 5500 C 546.556 -3.55468 -0.575717 0
M  V30 5501 C 546.409 -4.44584 0.682996 0
M  V30 5502 C 547.728 -4.1768 -1.38677 0
M  V30 5503 H 544.847 -0.731198 -0.0922992 0
M  V30 5504 H 547.489 -1.84352 0.459814 0
M  V30 5505 H 545.639 -3.69914 -1.18725 0
M  V30 5506 H 547.311 -4.41981 1.32102 0
M  V30 5507 H 545.554 -4.13592 1.3086 0
M  V30 5508 H 546.225 -5.5043 0.416001 0
M  V30 5509 H 548.701 -4.0691 -0.869705 0
M  V30 5510 H 547.577 -5.25734 -1.57783 0
M  V30 5511 H 547.838 -3.72069 -2.38782 0
M  V30 5512 N 546.897 -0.0685191 -1.57451 0
M  V30 5513 C 548.174 0.642167 -1.84758 0
M  V30 5514 C 548.554 1.87991 -0.960344 0
M  V30 5515 O 547.902 2.28485 -0.0257894 0
M  V30 5516 C 548.112 0.982946 -3.34872 0
M  V30 5517 C 549.46 1.35784 -4.02303 0
M  V30 5518 O 550.484 1.07477 -3.39598 0
M  V30 5519 O 549.343 1.88681 -5.12895 0
M  V30 5520 H 546.437 0.318625 -0.763156 0
M  V30 5521 H 548.983 -0.0992015 -1.6941 0
M  V30 5522 H 547.755 0.10372 -3.91163 0
M  V30 5523 H 547.378 1.78119 -3.55471 0
M  V30 5524 N 548.375 1.56261 0.205012 0
M  V30 5525 C 549.622 1.8004 0.926927 0
M  V30 5526 C 549.95 0.640086 1.83666 0
M  V30 5527 O 549.205 -0.374702 1.92079 0
M  V30 5528 C 549.504 3.09722 1.78345 0
M  V30 5529 C 549.17 4.39082 1.02555 0
M  V30 5530 C 547.832 4.74226 0.816256 0
M  V30 5531 C 550.184 5.18877 0.491559 0
M  V30 5532 C 547.512 5.86668 0.0613287 0
M  V30 5533 C 549.864 6.32105 -0.250107 0
M  V30 5534 C 548.528 6.6584 -0.470508 0
M  V30 5535 H 547.798 0.658812 0.339187 0
M  V30 5536 H 550.445 1.90515 0.19395 0
M  V30 5537 H 548.75 2.9444 2.5848 0
M  V30 5538 H 550.447 3.25324 2.34446 0
M  V30 5539 H 547.037 4.11497 1.19868 0
M  V30 5540 H 551.221 4.92147 0.640684 0
M  V30 5541 H 546.477 6.11283 -0.119501 0
M  V30 5542 H 550.651 6.93157 -0.671307 0
M  V30 5543 H 548.278 7.5281 -1.05739 0
M  V30 5544 N 549.853 -0.472356 1.50355 0
M  V30 5545 C 551.269 -0.806001 1.37753 0
M  V30 5546 C 551.469 -1.968 0.432649 0
M  V30 5547 O 550.525 -2.52189 -0.12519 0
M  V30 5548 C 551.838 -1.11926 2.79093 0
M  V30 5549 C 553.386 -1.22579 2.87999 0
M  V30 5550 C 553.861 -1.57218 4.3017 0
M  V30 5551 N 555.352 -1.64212 4.33115 0
M  V30 5552 C 556.087 -1.92517 5.40116 0
M  V30 5553 N 555.583 -2.1885 6.57325 0
M  V30 5554 N 557.376 -1.94008 5.27558 0
M  V30 5555 H 549.527 0.293451 2.10363 0
M  V30 5556 H 551.79 0.0687672 0.945503 0
M  V30 5557 H 551.496 -0.338504 3.50067 0
M  V30 5558 H 551.37 -2.05577 3.16256 0
M  V30 5559 H 553.757 -1.99722 2.17245 0
M  V30 5560 H 553.838 -0.269107 2.54381 0
M  V30 5561 H 553.482 -0.806154 5.01461 0
M  V30 5562 H 553.412 -2.54034 4.61275 0
M  V30 5563 H 555.903 -1.45906 3.48597 0
M  V30 5564 H 556.216 -2.39718 7.3468 0
M  V30 5565 H 554.561 -2.16245 6.60502 0
M  V30 5566 H 557.752 -1.72931 4.34986 0
M  V30 5567 H 557.925 -2.15731 6.11035 0
M  V30 5568 N 551.331 -1.39911 -0.725443 0
M  V30 5569 C 552.279 -1.39552 -1.86086 0
M  V30 5570 C 553.273 -0.277334 -1.67114 0
M  V30 5571 O 554.479 -0.447865 -1.74339 0
M  V30 5572 H 550.854 -0.435993 -0.612711 0
M  V30 5573 H 552.825 -2.35305 -1.83505 0
M  V30 5574 C 551.574 -1.26529 -3.2386 0
M  V30 5575 H 550.897 -2.11845 -3.3906 0
M  V30 5576 H 552.337 -1.30336 -4.03471 0
M  V30 5577 C 550.796 0.0254168 -3.3689 0
M  V30 5578 O 551.326 0.992048 -3.89257 0
M  V30 5579 N 549.532 0.0916528 -2.90455 0
M  V30 5580 H 549.079 -0.695675 -2.48028 0
M  V30 5581 H 549.037 0.954745 -2.99553 0
M  V30 5582 N 552.809 0.956637 -1.25245 0
M  V30 5583 C 553.757 2.0743 -1.0524 0
M  V30 5584 C 554.751 1.69392 0.0160725 0
M  V30 5585 O 555.957 1.7946 -0.139382 0
M  V30 5586 H 552.332 0.678921 -0.323373 0
M  V30 5587 H 554.303 2.2146 -1.99995 0
M  V30 5588 C 553.052 3.40872 -0.685702 0
M  V30 5589 H 552.375 3.70607 -1.49968 0
M  V30 5590 H 553.815 4.19939 -0.585415 0
M  V30 5591 C 552.274 3.31367 0.608082 0
M  V30 5592 O 552.804 3.66214 1.65076 0
M  V30 5593 N 551.01 2.84486 0.592955 0
M  V30 5594 H 550.557 2.56326 -0.25592 0
M  V30 5595 H 550.515 2.78509 1.45877 0
M  V30 5596 N 554.287 1.06798 1.15896 0
M  V30 5597 C 555.515 0.808694 1.90441 0
M  V30 5598 C 555.93 -0.637506 1.77711 0
M  V30 5599 O 555.287 -1.43684 1.12522 0
M  V30 5600 C 555.338 1.20068 3.40978 0
M  V30 5601 O 555.059 2.59013 3.53333 0
M  V30 5602 C 556.56 0.96987 4.3256 0
M  V30 5603 H 553.78 0.292809 0.603742 0
M  V30 5604 H 556.324 1.42296 1.46874 0
M  V30 5605 H 554.479 0.630842 3.82229 0
M  V30 5606 H 554.893 2.7485 4.46719 0
M  V30 5607 H 556.367 1.29371 5.36626 0
M  V30 5608 H 556.844 -0.0941209 4.39099 0
M  V30 5609 H 557.45 1.52433 3.97044 0
M  V30 5610 N 555.766 -1.3263 0.851289 0
M  V30 5611 C 556.729 -2.27247 0.298541 0
M  V30 5612 C 557.729 -1.51467 -0.539847 0
M  V30 5613 O 558.919 -1.7061 -0.351843 0
M  V30 5614 C 556.051 -3.35964 -0.578004 0
M  V30 5615 H 557.244 -2.7765 1.13359 0
M  V30 5616 H 554.797 -1.43245 0.625354 0
M  V30 5617 H 555.532 -2.90823 -1.435 0
M  V30 5618 H 555.317 -3.92094 0.0220539 0
M  V30 5619 H 556.807 -4.06472 -0.957626 0
M  V30 5620 N 557.244 -0.608902 -1.45362 0
M  V30 5621 C 558.521 -0.0365378 -1.95566 0
M  V30 5622 C 558.901 1.43169 -1.55131 0
M  V30 5623 O 558.249 2.1349 -0.814513 0
M  V30 5624 C 558.459 -0.236026 -3.48201 0
M  V30 5625 C 559.807 -0.117518 -4.24437 0
M  V30 5626 O 560.831 -0.166217 -3.55812 0
M  V30 5627 O 559.69 -0.00372127 -5.465 0
M  V30 5628 H 556.784 0.0349874 -0.82626 0
M  V30 5629 H 559.33 -0.679055 -1.55521 0
M  V30 5630 H 558.102 -1.25569 -3.70605 0
M  V30 5631 H 557.725 0.441691 -3.95139 0
M  V30 5632 N 558.722 1.53707 -0.348139 0
M  V30 5633 C 559.67 2.26671 0.521808 0
M  V30 5634 C 560.664 1.28988 1.09811 0
M  V30 5635 O 561.87 1.4668 1.04332 0
M  V30 5636 H 558.245 0.728387 0.186968 0
M  V30 5637 H 560.216 2.98176 -0.115563 0
M  V30 5638 C 558.965 3.05591 1.6586 0
M  V30 5639 H 558.288 3.80589 1.22443 0
M  V30 5640 H 559.728 3.59851 2.24239 0
M  V30 5641 C 558.187 2.15366 2.59073 0
M  V30 5642 O 558.717 1.7528 3.61441 0
M  V30 5643 N 556.923 1.80352 2.27863 0
M  V30 5644 H 556.47 2.13149 1.44656 0
M  V30 5645 H 556.428 1.20268 2.90488 0
M  V30 5646 N 560.2 0.0768682 1.57412 0
M  V30 5647 C 561.446 -0.585926 1.94778 0
M  V30 5648 C 561.801 -1.66912 0.956982 0
M  V30 5649 O 561.094 -1.9159 -0.0199454 0
M  V30 5650 C 561.288 -1.20268 3.36557 0
M  V30 5651 C 561.117 -0.18076 4.49337 0
M  V30 5652 C 559.887 0.236362 5.04747 0
M  V30 5653 C 562.085 0.583978 5.10974 0
M  V30 5654 N 560.067 1.24846 6.01071 0
M  V30 5655 C 561.438 1.44841 6.02844 0
M  V30 5656 C 563.493 0.639492 4.93776 0
M  V30 5657 C 562.196 2.36343 6.79363 0
M  V30 5658 C 564.222 1.54204 5.70942 0
M  V30 5659 C 563.584 2.39414 6.62465 0
M  V30 5660 H 559.683 -0.185281 0.759734 0
M  V30 5661 H 562.267 0.155193 1.9408 0
M  V30 5662 H 560.438 -1.9137 3.37982 0
M  V30 5663 H 562.17 -1.82636 3.61146 0
M  V30 5664 H 558.925 -0.14777 4.73369 0
M  V30 5665 H 559.349 1.75217 6.53933 0
M  V30 5666 H 563.991 -0.00510074 4.228 0
M  V30 5667 H 561.709 3.01836 7.49614 0
M  V30 5668 H 565.295 1.5899 5.59655 0
M  V30 5669 H 564.175 3.0812 7.21132 0
M  V30 5670 N 561.678 -1.56367 -0.196722 0
M  V30 5671 C 562.641 -1.93561 -1.22746 0
M  V30 5672 C 563.641 -0.816566 -1.38524 0
M  V30 5673 O 564.831 -1.084 -1.36363 0
M  V30 5674 C 561.963 -2.20823 -2.59712 0
M  V30 5675 H 563.156 -2.85774 -0.909586 0
M  V30 5676 H 560.709 -1.50032 -0.438174 0
M  V30 5677 H 561.444 -1.31243 -2.96557 0
M  V30 5678 H 561.229 -3.02368 -2.49632 0
M  V30 5679 H 562.719 -2.50608 -3.34044 0
M  V30 5680 N 563.156 0.464375 -1.50603 0
M  V30 5681 C 564.402 1.21776 -1.62168 0
M  V30 5682 C 564.735 1.91476 -0.324154 0
M  V30 5683 O 564.01 1.8242 0.674782 0
M  V30 5684 C 564.293 2.25614 -2.80661 0
M  V30 5685 C 564.146 1.60175 -4.20314 0
M  V30 5686 C 565.465 3.26862 -2.94702 0
M  V30 5687 H 562.584 0.44137 -0.590222 0
M  V30 5688 H 565.226 0.510623 -1.8301 0
M  V30 5689 H 563.376 2.85923 -2.63021 0
M  V30 5690 H 565.048 1.03411 -4.4956 0
M  V30 5691 H 563.291 0.904697 -4.24261 0
M  V30 5692 H 563.962 2.35665 -4.99165 0
M  V30 5693 H 566.438 2.76582 -3.10872 0
M  V30 5694 H 565.314 3.96839 -3.79223 0
M  V30 5695 H 565.575 3.91382 -2.05603 0
M  V30 5696 N 564.634 1.40294 0.718013 0
M  V30 5697 C 565.862 1.4175 1.50714 0
M  V30 5698 C 566.277 0.0165366 1.88793 0
M  V30 5699 O 565.634 -0.958942 1.55276 0
M  V30 5700 C 565.685 2.30598 2.784 0
M  V30 5701 O 565.406 3.6524 2.41932 0
M  V30 5702 C 566.907 2.4062 3.72313 0
M  V30 5703 H 564.127 0.483565 0.465194 0
M  V30 5704 H 566.671 1.84316 0.885889 0
M  V30 5705 H 564.826 1.91401 3.36815 0
M  V30 5706 H 565.24 4.12402 3.24076 0
M  V30 5707 H 566.714 3.07001 4.58753 0
M  V30 5708 H 567.191 1.4305 4.15251 0
M  V30 5709 H 567.797 2.80359 3.19811 0
M  V30 5710 N 566.112 -0.949982 1.2575 0
M  V30 5711 C 567.06 -2.06869 1.06339 0
M  V30 5712 C 568.054 -1.69399 -0.00708901 0
M  V30 5713 O 569.26 -1.79383 0.148897 0
M  V30 5714 H 565.635 -0.677197 0.326969 0
M  V30 5715 H 567.606 -2.20396 2.01167 0
M  V30 5716 C 566.355 -3.40503 0.703769 0
M  V30 5717 H 565.678 -3.69807 1.51931 0
M  V30 5718 H 567.118 -4.19623 0.607677 0
M  V30 5719 C 565.577 -3.31685 -0.5905 0
M  V30 5720 O 566.107 -3.67085 -1.63131 0
M  V30 5721 N 564.313 -2.84797 -0.577859 0
M  V30 5722 H 563.86 -2.56186 0.26951 0
M  V30 5723 H 563.818 -2.79279 -1.44398 0
M  V30 5724 N 567.59 -1.07411 -1.15328 0
M  V30 5725 C 568.836 -0.808666 -1.86634 0
M  V30 5726 C 569.191 0.65816 -1.80793 0
M  V30 5727 O 568.484 1.47689 -1.22059 0
M  V30 5728 C 568.678 -1.25191 -3.34757 0
M  V30 5729 C 568.507 -2.76028 -3.55019 0
M  V30 5730 C 567.277 -3.43644 -3.70455 0
M  V30 5731 C 569.475 -3.74224 -3.5279 0
M  V30 5732 N 567.457 -4.83117 -3.78776 0
M  V30 5733 C 568.828 -4.9954 -3.67233 0
M  V30 5734 C 570.883 -3.67373 -3.36068 0
M  V30 5735 C 569.586 -6.18819 -3.66682 0
M  V30 5736 C 571.612 -4.86116 -3.36816 0
M  V30 5737 C 570.974 -6.10266 -3.51789 0
M  V30 5738 H 567.073 -0.348478 -0.700062 0
M  V30 5739 H 569.657 -1.37049 -1.38295 0
M  V30 5740 H 567.828 -0.717775 -3.8171 0
M  V30 5741 H 569.56 -0.933936 -3.93776 0
M  V30 5742 H 566.315 -2.94051 -3.71256 0
M  V30 5743 H 566.739 -5.55705 -3.86679 0
M  V30 5744 H 571.381 -2.72334 -3.2341 0
M  V30 5745 H 569.099 -7.14179 -3.78118 0
M  V30 5746 H 572.685 -4.82492 -3.25103 0
M  V30 5747 H 571.565 -7.00609 -3.52301 0
M  V30 5748 N 569.068 1.32177 -0.85831 0
M  V30 5749 C 570.314 1.97813 -0.47346 0
M  V30 5750 C 570.669 1.66674 0.961122 0
M  V30 5751 O 569.962 0.94657 1.66585 0
M  V30 5752 C 570.156 3.51372 -0.653658 0
M  V30 5753 C 569.985 3.97433 -2.1042 0
M  V30 5754 C 568.755 4.24338 -2.74345 0
M  V30 5755 C 570.953 4.12233 -3.0752 0
M  V30 5756 N 568.935 4.56672 -4.10272 0
M  V30 5757 C 570.306 4.48146 -4.28445 0
M  V30 5758 C 572.361 3.94577 -3.03667 0
M  V30 5759 C 571.064 4.68246 -5.4602 0
M  V30 5760 C 573.09 4.15864 -4.20489 0
M  V30 5761 C 572.452 4.52098 -5.40173 0
M  V30 5762 H 568.551 0.749808 -0.222061 0
M  V30 5763 H 571.135 1.59927 -1.11047 0
M  V30 5764 H 569.306 3.88372 -0.0463267 0
M  V30 5765 H 571.038 4.03998 -0.238343 0
M  V30 5766 H 567.793 4.16544 -2.25362 0
M  V30 5767 H 568.217 4.77019 -4.80398 0
M  V30 5768 H 572.859 3.65662 -2.12252 0
M  V30 5769 H 570.577 4.96014 -6.37962 0
M  V30 5770 H 574.163 4.03702 -4.18947 0
M  V30 5771 H 573.043 4.68238 -6.29065 0
M  V30 5772 N 570.547 0.616602 1.45037 0
M  V30 5773 C 571.824 0.0469086 1.95544 0
M  V30 5774 C 572.204 -1.42345 1.55888 0
M  V30 5775 O 571.552 -2.13055 0.825824 0
M  V30 5776 C 571.762 0.254489 3.48071 0
M  V30 5777 C 573.11 0.140025 4.24369 0
M  V30 5778 O 574.134 0.185084 3.55719 0
M  V30 5779 O 572.993 0.0327034 5.4649 0
M  V30 5780 H 570.087 -0.0306051 0.826433 0
M  V30 5781 H 572.633 0.687293 1.55159 0
M  V30 5782 H 571.405 1.27532 3.69934 0
M  V30 5783 H 571.028 -0.42073 3.95368 0
M  V30 5784 N 572.025 -1.5352 0.356285 0
M  V30 5785 C 572.973 -2.26945 -0.50978 0
M  V30 5786 C 573.967 -1.29569 -1.09125 0
M  V30 5787 O 575.173 -1.47231 -1.03552 0
M  V30 5788 H 571.548 -0.729368 -0.183102 0
M  V30 5789 H 573.519 -2.98111 0.131374 0
M  V30 5790 C 572.268 -3.06466 -1.64237 0
M  V30 5791 H 571.591 -3.81233 -1.20423 0
M  V30 5792 H 573.031 -3.61035 -2.22327 0
M  V30 5793 C 571.49 -2.16737 -2.57928 0
M  V30 5794 O 572.02 -1.77195 -3.60507 0
M  V30 5795 N 570.226 -1.81558 -2.26903 0
M  V30 5796 H 569.773 -2.13913 -1.43524 0
M  V30 5797 H 569.731 -1.21806 -2.89846 0
M  V30 5798 N 573.503 -0.0852151 -1.57369 0
M  V30 5799 C 574.731 0.58946 -1.98325 0
M  V30 5800 C 575.146 1.62333 -0.96403 0
M  V30 5801 O 574.503 1.82438 0.0476395 0
M  V30 5802 C 574.554 1.24604 -3.39347 0
M  V30 5803 O 574.275 0.253532 -4.37366 0
M  V30 5804 C 575.776 2.00726 -3.95252 0
M  V30 5805 H 572.996 0.158783 -0.651942 0
M  V30 5806 H 575.54 -0.161584 -2.03861 0
M  V30 5807 H 573.695 1.94808 -3.34856 0
M  V30 5808 H 574.109 0.726207 -5.19448 0
M  V30 5809 H 575.583 2.42039 -4.96106 0
M  V30 5810 H 576.06 2.86919 -3.32527 0
M  V30 5811 H 576.666 1.3536 -4.03185 0
M  V30 5812 N 574.981 1.5647 0.188427 0
M  V30 5813 C 575.929 1.95971 1.25293 0
M  V30 5814 C 576.923 0.846047 1.4676 0
M  V30 5815 O 578.129 1.03109 1.47542 0
M  V30 5816 H 574.504 0.623253 0.420784 0
M  V30 5817 H 576.475 2.84731 0.892792 0
M  V30 5818 C 575.224 2.32116 2.58877 0
M  V30 5819 H 574.547 3.17341 2.43176 0
M  V30 5820 H 575.987 2.63613 3.3209 0
M  V30 5821 C 574.446 1.15823 3.16365 0
M  V30 5822 O 574.976 0.436785 3.99318 0
M  V30 5823 N 573.182 0.933278 2.75206 0
M  V30 5824 H 572.729 1.52169 2.07852 0
M  V30 5825 H 572.687 0.156976 3.14008 0
M  V30 5826 N 576.459 -0.456382 1.50847 0
M  V30 5827 C 577.407 -1.57318 1.71329 0
M  V30 5828 C 578.401 -1.59187 0.579287 0
M  V30 5829 O 579.607 -1.6316 0.76018 0
M  V30 5830 H 575.982 -0.5223 0.541024 0
M  V30 5831 H 577.953 -1.3721 2.64983 0
M  V30 5832 C 576.702 -2.95142 1.83811 0
M  V30 5833 H 576.025 -2.94428 2.70467 0
M  V30 5834 H 577.465 -3.72702 2.02161 0
M  V30 5835 C 575.924 -3.31636 0.593224 0
M  V30 5836 O 576.454 -4.00852 -0.260898 0
M  V30 5837 N 574.66 -2.87205 0.442902 0
M  V30 5838 H 574.207 -2.31051 1.13901 0
M  V30 5839 H 574.165 -3.11986 -0.38884 0
M  V30 5840 N 577.937 -1.40673 -0.710563 0
M  V30 5841 C 578.869 -1.37256 -1.83558 0
M  V30 5842 C 579.882 -0.277133 -1.60424 0
M  V30 5843 O 581.071 -0.537831 -1.70205 0
M  V30 5844 C 578.171 -1.1144 -3.20054 0
M  V30 5845 C 577.344 -2.32734 -3.70342 0
M  V30 5846 C 576.403 -2.03002 -4.85465 0
M  V30 5847 O 575.429 -2.75912 -4.97857 0
M  V30 5848 N 576.631 -1.01105 -5.71627 0
M  V30 5849 H 579.396 -2.34215 -1.86985 0
M  V30 5850 H 576.957 -1.35091 -0.892301 0
M  V30 5851 H 578.949 -0.895265 -3.94673 0
M  V30 5852 H 577.519 -0.231307 -3.11743 0
M  V30 5853 H 576.739 -2.70446 -2.86798 0
M  V30 5854 H 578.027 -3.13584 -4.00678 0
M  V30 5855 H 577.425 -0.407303 -5.64232 0
M  V30 5856 H 575.982 -0.85182 -6.4621 0
M  V30 5857 N 579.415 0.9433 -1.26252 0
M  V30 5858 C 580.664 1.68369 -1.11062 0
M  V30 5859 C 580.977 1.92514 0.346104 0
M  V30 5860 O 582.183 2.64358 0.618646 0
M  V30 5861 C 580.639 3.03171 -1.93946 0
M  V30 5862 C 580.247 2.86782 -3.4418 0
M  V30 5863 C 581.991 3.80916 -1.87359 0
M  V30 5864 C 579.898 4.17044 -4.19319 0
M  V30 5865 H 578.828 0.631469 -0.412023 0
M  V30 5866 H 581.479 1.04922 -1.50544 0
M  V30 5867 H 579.861 3.67587 -1.47296 0
M  V30 5868 H 581.035 2.31229 -3.98585 0
M  V30 5869 H 579.35 2.22482 -3.51981 0
M  V30 5870 H 581.947 4.77417 -2.40784 0
M  V30 5871 H 582.29 4.07658 -0.843857 0
M  V30 5872 H 582.823 3.2327 -2.31821 0
M  V30 5873 H 579.562 3.95487 -5.22753 0
M  V30 5874 H 579.082 4.72319 -3.69696 0
M  V30 5875 H 580.761 4.85513 -4.27651 0
M  V30 5876 N 580.893 1.08022 1.14757 0
M  V30 5877 C 582.118 0.82895 1.90114 0
M  V30 5878 C 582.543 -0.612772 1.77839 0
M  V30 5879 O 581.901 -1.42895 1.11583 0
M  V30 5880 C 581.949 1.25062 3.38219 0
M  V30 5881 O 581.053 0.400119 4.10454 0
M  V30 5882 H 580.394 0.301412 0.591648 0
M  V30 5883 H 582.924 1.44062 1.45284 0
M  V30 5884 H 582.934 1.22977 3.89025 0
M  V30 5885 H 581.609 2.30067 3.46471 0
M  V30 5886 H 580.186 0.484052 3.69745 0
M  V30 5887 N 582.371 -1.3172 0.865308 0
M  V30 5888 C 583.618 -1.96876 0.473931 0
M  V30 5889 C 583.946 -1.68425 -0.972786 0
M  V30 5890 O 583.201 -0.970742 -1.69927 0
M  V30 5891 C 583.5 -3.5102 0.672283 0
M  V30 5892 C 583.166 -3.9948 2.09108 0
M  V30 5893 C 581.828 -4.12425 2.4791 0
M  V30 5894 C 584.18 -4.2503 3.0166 0
M  V30 5895 C 581.508 -4.48267 3.78515 0
M  V30 5896 C 583.86 -4.62335 4.31774 0
M  V30 5897 C 582.524 -4.73486 4.70497 0
M  V30 5898 H 581.794 -0.72042 0.173424 0
M  V30 5899 H 584.441 -1.56937 1.0974 0
M  V30 5900 H 582.746 -3.91785 -0.034356 0
M  V30 5901 H 584.443 -3.99475 0.349353 0
M  V30 5902 H 581.033 -3.89898 1.77981 0
M  V30 5903 H 585.217 -4.14529 2.7291 0
M  V30 5904 H 580.473 -4.55097 4.08285 0
M  V30 5905 H 584.647 -4.81058 5.03543 0
M  V30 5906 H 582.274 -5.01016 5.71741 0
M  V30 5907 N 583.85 -0.624285 -1.44708 0
M  V30 5908 C 585.098 -0.125802 -2.01708 0
M  V30 5909 C 585.418 1.2543 -1.49306 0
M  V30 5910 O 584.689 1.83198 -0.693924 0
M  V30 5911 H 583.269 -0.0435161 -0.745731 0
M  V30 5912 H 585.931 -0.809446 -1.77296 0
M  V30 5913 H 585.027 -0.0882734 -3.11975 0
M  V30 5914 N 585.328 1.53329 -0.364422 0
M  V30 5915 C 586.744 1.59594 -0.0133165 0
M  V30 5916 C 586.944 1.37959 1.46865 0
M  V30 5917 O 586 1.18418 2.2301 0
M  V30 5918 C 587.313 2.97032 -0.468213 0
M  V30 5919 C 588.861 3.10138 -0.422334 0
M  V30 5920 C 589.336 4.49986 -0.853024 0
M  V30 5921 N 590.827 4.56098 -0.808037 0
M  V30 5922 C 591.562 5.62495 -1.11299 0
M  V30 5923 N 591.058 6.7665 -1.48717 0
M  V30 5924 N 592.851 5.52473 -1.03586 0
M  V30 5925 H 585.002 1.65644 -1.32951 0
M  V30 5926 H 587.265 0.77684 -0.543345 0
M  V30 5927 H 586.971 3.18 -1.5023 0
M  V30 5928 H 586.845 3.76918 0.145775 0
M  V30 5929 H 589.232 2.88881 0.602622 0
M  V30 5930 H 589.313 2.32263 -1.0718 0
M  V30 5931 H 588.957 4.7198 -1.87609 0
M  V30 5932 H 588.887 5.26289 -0.180819 0
M  V30 5933 H 591.378 3.74131 -0.532361 0
M  V30 5934 H 591.691 7.53776 -1.70415 0
M  V30 5935 H 590.036 6.78044 -1.52581 0
M  V30 5936 H 593.227 4.6217 -0.742736 0
M  V30 5937 H 593.4 6.35295 -1.27686 0
M  V30 5938 N 586.806 0.0935595 1.57322 0
M  V30 5939 C 588.054 -0.569383 1.93913 0
M  V30 5940 C 588.375 -1.68817 0.976009 0
M  V30 5941 O 587.645 -1.9588 0.0278099 0
M  V30 5942 H 586.225 -0.21332 0.715894 0
M  V30 5943 H 588.887 0.156531 1.9427 0
M  V30 5944 H 587.983 -0.980577 2.96296 0
M  V30 5945 N 588.284 -1.56567 -0.180126 0
M  V30 5946 C 589.509 -1.85975 -0.918041 0
M  V30 5947 C 589.934 -0.678888 -1.75422 0
M  V30 5948 O 589.292 0.372168 -1.77439 0
M  V30 5949 C 589.34 -3.13731 -1.77779 0
M  V30 5950 O 588.444 -2.95335 -2.87838 0
M  V30 5951 H 587.785 -0.61196 -0.257683 0
M  V30 5952 H 590.315 -2.03798 -0.180923 0
M  V30 5953 H 590.325 -3.4491 -2.17948 0
M  V30 5954 H 589 -3.99293 -1.16352 0
M  V30 5955 H 587.577 -2.7549 -2.51316 0
M  V30 5956 N 589.762 0.448376 -1.51087 0
M  V30 5957 C 590.987 1.22605 -1.6728 0
M  V30 5958 C 591.412 1.84524 -0.365045 0
M  V30 5959 O 590.77 1.6832 0.673642 0
M  V30 5960 C 590.818 2.29393 -2.78229 0
M  V30 5961 O 589.922 3.34608 -2.41063 0
M  V30 5962 H 589.263 0.359705 -0.558129 0
M  V30 5963 H 591.793 0.530903 -1.97592 0
M  V30 5964 H 591.803 2.74352 -3.01986 0
M  V30 5965 H 590.478 1.83701 -3.73131 0
M  V30 5966 H 589.055 2.95202 -2.27838 0
M  V30 5967 N 591.24 1.41047 0.703093 0
M  V30 5968 C 592.488 1.39723 1.4602 0
M  V30 5969 C 592.809 0.00461257 1.94999 0
M  V30 5970 O 592.079 -0.952292 1.71196 0
M  V30 5971 H 590.659 0.514281 0.541779 0
M  V30 5972 H 593.321 1.76217 0.832678 0
M  V30 5973 H 592.417 2.07982 2.32701 0
M  V30 5974 N 592.718 -0.936591 1.26751 0
M  V30 5975 C 593.668 -2.0219 1.05371 0
M  V30 5976 C 594.652 -1.60893 -0.0154112 0
M  V30 5977 O 595.844 -1.75843 0.202085 0
M  V30 5978 C 592.973 -3.36222 0.693541 0
M  V30 5979 C 592.059 -3.8399 1.80035 0
M  V30 5980 N 592.45 -4.0436 3.03852 0
M  V30 5981 C 590.748 -4.12945 1.685 0
M  V30 5982 C 591.449 -4.44 3.75818 0
M  V30 5983 N 590.425 -4.50966 3.03531 0
M  V30 5984 H 594.227 -2.15958 1.99347 0
M  V30 5985 H 591.741 -1.12277 1.17335 0
M  V30 5986 H 593.738 -4.13625 0.521513 0
M  V30 5987 H 592.398 -3.23821 -0.238693 0
M  V30 5988 H 593.409 -3.9092 3.39709 0
M  V30 5989 H 590.086 -4.09308 0.822986 0
M  V30 5990 H 591.476 -4.67914 4.82189 0
M  V30 5991 N 594.196 -1.08629 -1.14182 0
M  V30 5992 C 595.129 -0.662329 -2.18377 0
M  V30 5993 C 596.107 0.327054 -1.59277 0
M  V30 5994 O 597.291 0.230376 -1.87087 0
M  V30 5995 C 594.418 0.0254765 -3.3869 0
M  V30 5996 C 593.464 -0.924414 -4.16361 0
M  V30 5997 S 594.297 -2.43226 -4.77076 0
M  V30 5998 C 595.453 -1.75663 -6.00744 0
M  V30 5999 H 595.686 -1.54501 -2.54001 0
M  V30 6000 H 593.219 -0.901484 -1.2535 0
M  V30 6001 H 595.177 0.416032 -4.08386 0
M  V30 6002 H 593.838 0.884689 -3.01384 0
M  V30 6003 H 593.031 -0.390099 -5.02488 0
M  V30 6004 H 592.633 -1.25598 -3.5228 0
M  V30 6005 H 594.925 -1.07589 -6.68903 0
M  V30 6006 H 595.868 -2.59673 -6.58768 0
M  V30 6007 H 596.276 -1.22903 -5.50958 0
M  V30 6008 N 595.674 1.31259 -0.872281 0
M  V30 6009 C 596.637 2.26744 -0.334656 0
M  V30 6010 C 597.637 1.52307 0.515681 0
M  V30 6011 O 598.827 1.71148 0.324656 0
M  V30 6012 C 595.959 3.36841 0.524482 0
M  V30 6013 H 597.152 2.75812 -1.17762 0
M  V30 6014 H 594.705 1.42232 -0.648064 0
M  V30 6015 H 595.44 2.93069 1.38855 0
M  V30 6016 H 595.225 3.92009 -0.0844299 0
M  V30 6017 H 596.715 4.07944 0.892838 0
M  V30 6018 N 597.152 0.631951 1.44375 0
M  V30 6019 C 598.401 0.134214 2.01253 0
M  V30 6020 C 598.714 -1.25171 1.50305 0
M  V30 6021 O 599.92 -1.8435 1.99317 0
M  V30 6022 C 598.376 0.189187 3.59402 0
M  V30 6023 C 597.984 1.57647 4.19346 0
M  V30 6024 C 599.728 -0.252044 4.23751 0
M  V30 6025 C 597.635 1.58651 5.69722 0
M  V30 6026 H 596.565 0.0464101 0.75257 0
M  V30 6027 H 599.216 0.790868 1.65582 0
M  V30 6028 H 597.598 -0.534584 3.92375 0
M  V30 6029 H 598.772 2.32389 3.97909 0
M  V30 6030 H 597.087 1.96186 3.67288 0
M  V30 6031 H 599.684 -0.264084 5.34047 0
M  V30 6032 H 600.027 -1.27951 3.96149 0
M  V30 6033 H 600.56 0.41926 3.95584 0
M  V30 6034 H 597.299 2.59237 6.0206 0
M  V30 6035 H 596.819 0.882039 5.93279 0
M  V30 6036 H 598.498 1.32082 6.33375 0
M  V30 6037 N 598.631 -1.53133 0.372548 0
M  V30 6038 C 599.579 -2.27473 -0.485681 0
M  V30 6039 C 600.573 -1.30719 -1.07745 0
M  V30 6040 O 601.779 -1.48321 -1.01985 0
M  V30 6041 H 598.154 -0.731269 -0.175356 0
M  V30 6042 H 600.125 -2.97955 0.162986 0
M  V30 6043 C 598.874 -3.08191 -1.60978 0
M  V30 6044 H 598.197 -3.82488 -1.16373 0
M  V30 6045 H 599.637 -3.63373 -2.18485 0
M  V30 6046 C 598.096 -2.19461 -2.55614 0
M  V30 6047 O 598.626 -1.81008 -3.58607 0
M  V30 6048 N 596.832 -1.83955 -2.24965 0
M  V30 6049 H 596.379 -2.15423 -1.41247 0
M  V30 6050 H 596.337 -1.24874 -2.88538 0
M  V30 6051 N 600.109 -0.101901 -1.5727 0
M  V30 6052 C 601.056 0.854577 -2.14396 0
M  V30 6053 C 602.026 1.27521 -1.06432 0
M  V30 6054 O 603.211 1.35575 -1.34253 0
M  V30 6055 C 600.351 2.10576 -2.73408 0
M  V30 6056 C 599.464 1.73504 -3.95626 0
M  V30 6057 C 598.599 2.9346 -4.42781 0
M  V30 6058 C 597.638 2.52547 -5.57572 0
M  V30 6059 N 596.775 3.65359 -5.99547 0
M  V30 6060 H 601.615 0.360578 -2.9581 0
M  V30 6061 H 599.152 0.166303 -1.46157 0
M  V30 6062 H 601.11 2.83859 -3.05745 0
M  V30 6063 H 599.74 2.57463 -1.94711 0
M  V30 6064 H 598.792 0.901622 -3.6956 0
M  V30 6065 H 600.104 1.39426 -4.78917 0
M  V30 6066 H 599.258 3.74988 -4.76937 0
M  V30 6067 H 597.997 3.30753 -3.58404 0
M  V30 6068 H 597.002 1.69446 -5.23037 0
M  V30 6069 H 598.227 2.1639 -6.43702 0
M  V30 6070 H 596.173 4.02358 -5.18116 0
M  V30 6071 H 596.09 3.35148 -6.77652 0
M  V30 6072 H 597.358 4.47378 -6.38336 0
M  V30 6073 N 601.587 1.56661 0.17182 0
M  V30 6074 C 602.497 1.99604 1.2327 0
M  V30 6075 C 603.513 0.907333 1.4847 0
M  V30 6076 O 604.689 1.21492 1.60629 0
M  V30 6077 C 601.754 2.34685 2.55194 0
M  V30 6078 C 600.815 3.57381 2.3786 0
M  V30 6079 C 600.048 3.90779 3.63494 0
M  V30 6080 O 600.271 3.25152 4.6865 0
M  V30 6081 O 599.205 4.84129 3.57634 0
M  V30 6082 H 603.031 2.90114 0.898192 0
M  V30 6083 H 600.616 1.44522 0.378647 0
M  V30 6084 H 602.498 2.5822 3.33017 0
M  V30 6085 H 601.173 1.47336 2.88225 0
M  V30 6086 H 600.08 3.39064 1.5807 0
M  V30 6087 H 601.413 4.45268 2.09754 0
M  V30 6088 N 603.065 -0.440357 1.51323 0
M  V30 6089 C 604.342 -1.20109 1.5438 0
M  V30 6090 C 604.722 -2.08866 0.306303 0
M  V30 6091 O 604.07 -2.1723 -0.708773 0
M  V30 6092 C 604.28 -2.00555 2.8562 0
M  V30 6093 C 605.628 -2.577 3.37455 0
M  V30 6094 O 606.652 -2.10769 2.8715 0
M  V30 6095 O 605.511 -3.43289 4.25224 0
M  V30 6096 H 602.605 -0.546668 0.620551 0
M  V30 6097 H 605.151 -0.449672 1.63634 0
M  V30 6098 H 603.923 -1.35346 3.67147 0
M  V30 6099 H 603.546 -2.82768 2.79514 0
M  V30 6100 N 604.543 -1.41418 -0.695603 0
M  V30 6101 C 605.768 -1.44329 -1.48942 0
M  V30 6102 C 606.193 -0.0501579 -1.88033 0
M  V30 6103 O 605.551 0.946598 -1.54626 0
M  V30 6104 C 605.599 -2.3578 -2.72837 0
M  V30 6105 O 604.703 -1.81482 -3.70322 0
M  V30 6106 H 604.044 -0.489838 -0.44828 0
M  V30 6107 H 606.574 -1.85878 -0.855014 0
M  V30 6108 H 606.584 -2.51654 -3.21145 0
M  V30 6109 H 605.259 -3.37005 -2.43722 0
M  V30 6110 H 603.836 -1.75058 -3.29255 0
M  V30 6111 N 606.021 0.929856 -1.27246 0
M  V30 6112 C 607.249 1.71144 -1.16265 0
M  V30 6113 C 607.664 1.867 0.280786 0
M  V30 6114 O 607.021 1.38249 1.19136 0
M  V30 6115 C 607.072 3.11222 -1.83911 0
M  V30 6116 O 606.793 2.96398 -3.22614 0
M  V30 6117 C 608.294 4.05541 -1.79028 0
M  V30 6118 H 605.514 0.535499 -0.404328 0
M  V30 6119 H 608.058 1.16492 -1.68077 0
M  V30 6120 H 606.213 3.6274 -1.36009 0
M  V30 6121 H 606.627 3.8494 -3.56261 0
M  V30 6122 H 608.101 5.01351 -2.30978 0
M  V30 6123 H 608.578 4.32589 -0.759168 0
M  V30 6124 H 609.184 3.59947 -2.26535 0
M  V30 6125 N 607.499 1.09233 1.13605 0
M  V30 6126 C 608.429 0.751738 2.21068 0
M  V30 6127 C 609.41 -0.269688 1.67948 0
M  V30 6128 O 610.595 -0.13819 1.93708 0
M  V30 6129 C 607.725 0.16935 3.46887 0
M  V30 6130 C 606.679 1.12007 4.13084 0
M  V30 6131 C 606.005 0.399483 5.33206 0
M  V30 6132 C 607.305 2.46168 4.6065 0
M  V30 6133 H 608.999 1.65024 2.49815 0
M  V30 6134 H 606.545 0.794905 1.20072 0
M  V30 6135 H 608.498 -0.0809824 4.21322 0
M  V30 6136 H 607.222 -0.764335 3.1753 0
M  V30 6137 H 605.881 1.35564 3.40614 0
M  V30 6138 H 605.529 -0.538277 5.00112 0
M  V30 6139 H 605.229 1.03337 5.78442 0
M  V30 6140 H 606.753 0.157403 6.10397 0
M  V30 6141 H 608.167 2.26829 5.26518 0
M  V30 6142 H 606.564 3.05326 5.1662 0
M  V30 6143 H 607.634 3.07076 3.75276 0
M  V30 6144 N 608.977 -1.30795 0.87923 0
M  V30 6145 C 610.205 -2.00527 0.509548 0
M  V30 6146 C 610.62 -1.65944 -0.90045 0
M  V30 6147 O 609.977 -0.893525 -1.5913 0
M  V30 6148 C 610.028 -3.55276 0.667943 0
M  V30 6149 O 609.749 -3.88625 2.02242 0
M  V30 6150 C 611.25 -4.4228 0.300494 0
M  V30 6151 H 608.47 -0.641261 0.197549 0
M  V30 6152 H 611.014 -1.66813 1.18295 0
M  V30 6153 H 609.169 -3.87377 0.0419843 0
M  V30 6154 H 609.583 -4.83334 2.03688 0
M  V30 6155 H 611.057 -5.50061 0.462242 0
M  V30 6156 H 611.534 -4.32556 -0.76106 0
M  V30 6157 H 612.14 -4.15613 0.902536 0
M  V30 6158 N 610.455 -0.639598 -1.44038 0
M  V30 6159 C 611.418 0.0506628 -2.29144 0
M  V30 6160 C 612.418 0.764001 -1.41491 0
M  V30 6161 O 613.608 0.607309 -1.63271 0
M  V30 6162 C 610.74 1.0824 -3.2326 0
M  V30 6163 H 611.933 -0.697987 -2.91664 0
M  V30 6164 H 609.486 -0.400146 -1.51091 0
M  V30 6165 H 610.221 1.86075 -2.65606 0
M  V30 6166 H 610.006 0.574725 -3.87865 0
M  V30 6167 H 611.496 1.56487 -3.87171 0
M  V30 6168 N 611.933 1.52934 -0.380664 0
M  V30 6169 C 613.161 2.05886 0.204599 0
M  V30 6170 C 613.576 1.25305 1.41223 0
M  V30 6171 O 612.933 0.297504 1.80059 0
M  V30 6172 C 612.984 3.56764 0.583249 0
M  V30 6173 O 612.705 4.34292 -0.576398 0
M  V30 6174 C 614.206 4.2603 1.2253 0
M  V30 6175 H 611.426 0.670193 0.0328991 0
M  V30 6176 H 613.97 1.97148 -0.543397 0
M  V30 6177 H 612.125 3.65603 1.28115 0
M  V30 6178 H 612.539 5.23819 -0.267119 0
M  V30 6179 H 614.013 5.32868 1.44068 0
M  V30 6180 H 614.49 3.80698 2.19011 0
M  V30 6181 H 615.096 4.21485 0.568407 0
M  V30 6182 N 613.412 0.11024 1.57214 0
M  V30 6183 C 614.658 -0.550684 1.9518 0
M  V30 6184 C 614.991 -1.66885 0.993122 0
M  V30 6185 O 614.266 -1.94479 0.0287907 0
M  V30 6186 C 614.549 -1.09163 3.43155 0
M  V30 6187 C 614.402 0.0225198 4.49794 0
M  V30 6188 C 615.721 -1.98527 3.92778 0
M  V30 6189 H 612.84 -0.198706 0.709708 0
M  V30 6190 H 615.482 0.184024 1.89107 0
M  V30 6191 H 613.632 -1.71775 3.48462 0
M  V30 6192 H 615.304 0.657443 4.56591 0
M  V30 6193 H 613.547 0.686868 4.28328 0
M  V30 6194 H 614.218 -0.39706 5.5057 0
M  V30 6195 H 616.694 -1.458 3.8972 0
M  V30 6196 H 615.57 -2.33298 4.96853 0
M  V30 6197 H 615.831 -2.90846 3.32958 0
M  V30 6198 N 614.89 -1.56749 -0.16351 0
M  V30 6199 C 615.822 -1.93587 -1.22705 0
M  V30 6200 C 616.835 -0.829824 -1.40063 0
M  V30 6201 O 618.024 -1.10826 -1.39928 0
M  V30 6202 C 615.124 -2.1803 -2.59454 0
M  V30 6203 C 614.297 -3.4928 -2.63292 0
M  V30 6204 C 613.356 -3.62457 -3.8146 0
M  V30 6205 O 612.382 -4.35004 -3.67096 0
M  V30 6206 N 613.584 -2.97888 -4.9824 0
M  V30 6207 H 616.349 -2.8542 -0.914081 0
M  V30 6208 H 613.91 -1.58 -0.353214 0
M  V30 6209 H 615.902 -2.24102 -3.36987 0
M  V30 6210 H 614.472 -1.32543 -2.8311 0
M  V30 6211 H 613.692 -3.54795 -1.71796 0
M  V30 6212 H 614.98 -4.35632 -2.62873 0
M  V30 6213 H 614.378 -2.38833 -5.12811 0
M  V30 6214 H 612.935 -3.09545 -5.73607 0
M  V30 6215 N 616.368 0.432326 -1.51554 0
M  V30 6216 C 617.596 1.20364 -1.68286 0
M  V30 6217 C 618.011 1.84888 -0.38233 0
M  V30 6218 O 617.368 1.70924 0.639627 0
M  V30 6219 C 617.419 2.28398 -2.80208 0
M  V30 6220 O 617.14 1.66512 -4.05223 0
M  V30 6221 C 618.641 3.18584 -3.08251 0
M  V30 6222 H 615.861 0.36259 -0.564596 0
M  V30 6223 H 618.405 0.511647 -1.97996 0
M  V30 6224 H 616.56 2.93305 -2.53083 0
M  V30 6225 H 616.974 2.37951 -4.67418 0
M  V30 6226 H 618.448 3.90511 -3.90135 0
M  V30 6227 H 618.925 3.79628 -2.2086 0
M  V30 6228 H 619.531 2.59372 -3.37055 0
M  V30 6229 N 617.846 1.41785 0.688094 0
M  V30 6230 C 619.123 1.32031 1.44316 0
M  V30 6231 C 619.503 -0.0486079 2.11044 0
M  V30 6232 O 618.851 -1.06332 2.02252 0
M  V30 6233 C 619.061 2.47906 2.45649 0
M  V30 6234 C 620.409 2.89415 3.10683 0
M  V30 6235 O 621.433 2.477 2.55975 0
M  V30 6236 O 620.292 3.61573 4.09789 0
M  V30 6237 H 617.386 0.519994 0.643067 0
M  V30 6238 H 619.932 1.53765 0.71794 0
M  V30 6239 H 618.704 3.39222 1.95048 0
M  V30 6240 H 618.327 2.28089 3.25671 0
M  V30 6241 N 619.324 -0.923095 1.27737 0
M  V30 6242 C 620.257 -2.02515 1.05181 0
M  V30 6243 C 621.235 -1.62574 -0.0292204 0
M  V30 6244 O 622.419 -1.88137 0.116848 0
M  V30 6245 C 619.546 -3.33407 0.596468 0
M  V30 6246 C 618.592 -3.92328 1.67276 0
M  V30 6247 S 619.425 -4.24342 3.26641 0
M  V30 6248 C 620.581 -5.58308 2.82919 0
M  V30 6249 H 620.814 -2.21336 1.98488 0
M  V30 6250 H 618.347 -1.06679 1.1162 0
M  V30 6251 H 620.305 -4.09086 0.34044 0
M  V30 6252 H 618.966 -3.125 -0.316614 0
M  V30 6253 H 618.159 -4.86797 1.30556 0
M  V30 6254 H 617.761 -3.2325 1.8811 0
M  V30 6255 H 620.053 -6.37801 2.28509 0
M  V30 6256 H 620.996 -5.99931 3.7615 0
M  V30 6257 H 621.404 -5.19049 2.21919 0
M  V30 6258 N 620.802 -1.09834 -1.13024 0
M  V30 6259 C 621.765 -0.745058 -2.16752 0
M  V30 6260 C 622.765 0.227435 -1.59183 0
M  V30 6261 O 623.955 0.0050786 -1.74199 0
M  V30 6262 C 621.087 -0.102543 -3.40746 0
M  V30 6263 H 622.28 -1.66375 -2.49518 0
M  V30 6264 H 619.833 -0.898061 -1.27924 0
M  V30 6265 H 620.568 0.827177 -3.13573 0
M  V30 6266 H 620.353 -0.80235 -3.83803 0
M  V30 6267 H 621.843 0.129082 -4.174 0
M  V30 6268 N 622.28 1.30327 -0.886154 0
M  V30 6269 C 623.505 2.0079 -0.519425 0
M  V30 6270 C 623.93 1.65979 0.885013 0
M  V30 6271 O 623.288 0.877043 1.58675 0
M  V30 6272 C 623.336 3.53686 -0.702758 0
M  V30 6273 O 622.44 4.11637 0.250828 0
M  V30 6274 H 621.781 0.63171 -0.204544 0
M  V30 6275 H 624.311 1.66145 -1.19402 0
M  V30 6276 H 624.321 4.03531 -0.602207 0
M  V30 6277 H 622.996 3.78361 -1.72673 0
M  V30 6278 H 621.573 3.72755 0.103873 0
M  V30 6279 N 623.758 0.647228 1.43697 0
M  V30 6280 C 625.006 0.157876 2.01482 0
M  V30 6281 C 625.327 -1.23039 1.51282 0
M  V30 6282 O 624.597 -1.82071 0.722982 0
M  V30 6283 H 623.177 0.0553745 0.744945 0
M  V30 6284 H 625.839 0.83755 1.75986 0
M  V30 6285 H 624.935 0.137895 3.11795 0
M  V30 6286 N 625.236 -1.5273 0.388769 0
M  V30 6287 C 626.168 -2.24081 -0.481704 0
M  V30 6288 C 627.181 -1.26307 -1.02715 0
M  V30 6289 O 628.37 -1.52386 -0.929565 0
M  V30 6290 C 625.47 -2.94315 -1.68024 0
M  V30 6291 C 624.643 -4.18791 -1.26226 0
M  V30 6292 C 623.702 -4.72028 -2.32542 0
M  V30 6293 O 622.728 -5.35129 -1.93972 0
M  V30 6294 N 623.93 -4.51838 -3.64448 0
M  V30 6295 H 626.695 -2.9942 0.129591 0
M  V30 6296 H 624.256 -1.60465 0.2151 0
M  V30 6297 H 626.248 -3.26831 -2.38671 0
M  V30 6298 H 624.818 -2.22287 -2.19789 0
M  V30 6299 H 624.038 -3.92318 -0.384703 0
M  V30 6300 H 625.326 -4.99668 -0.959647 0
M  V30 6301 H 624.724 -4.01468 -3.98547 0
M  V30 6302 H 623.281 -4.88845 -4.31131 0
M  V30 6303 N 626.714 -0.118576 -1.57153 0
M  V30 6304 C 627.944 0.546466 -1.99242 0
M  V30 6305 C 628.352 1.60791 -0.997148 0
M  V30 6306 O 627.695 1.83691 0.0181745 0
M  V30 6307 C 627.757 1.23167 -3.37743 0
M  V30 6308 C 627.421 0.318226 -4.55891 0
M  V30 6309 C 628.418 -0.442988 -5.18009 0
M  V30 6310 C 626.103 0.229421 -5.01776 0
M  V30 6311 C 628.097 -1.28074 -6.244 0
M  V30 6312 C 625.784 -0.611966 -6.08028 0
M  V30 6313 C 626.782 -1.36568 -6.69207 0
M  V30 6314 O 626.47 -2.1931 -7.73407 0
M  V30 6315 H 626.202 0.149297 -0.659307 0
M  V30 6316 H 628.756 -0.201603 -2.04408 0
M  V30 6317 H 626.986 2.0268 -3.29329 0
M  V30 6318 H 628.675 1.79358 -3.64123 0
M  V30 6319 H 629.441 -0.38425 -4.83475 0
M  V30 6320 H 625.32 0.805771 -4.53903 0
M  V30 6321 H 628.864 -1.86952 -6.72082 0
M  V30 6322 H 624.761 -0.6721 -6.41991 0
M  V30 6323 H 625.529 -2.12247 -7.90502 0
M  V30 6324 N 628.193 1.56834 0.155195 0
M  V30 6325 C 629.433 1.84701 0.875488 0
M  V30 6326 C 629.797 0.701747 1.78716 0
M  V30 6327 O 630.998 0.861263 2.54629 0
M  V30 6328 C 629.269 3.1773 1.63654 0
M  V30 6329 S 630.828 3.67128 2.40338 0
M  V30 6330 H 627.646 0.647856 0.292923 0
M  V30 6331 H 630.248 1.95026 0.136024 0
M  V30 6332 H 628.952 3.99059 0.958117 0
M  V30 6333 H 628.483 3.10388 2.41708 0
M  V30 6334 H 630.498 3.35739 3.65368 0
M  V30 6335 N 629.671 -0.424282 1.51781 0
M  V30 6336 C 630.619 -1.53649 1.74628 0
M  V30 6337 C 631.613 -1.57923 0.612922 0
M  V30 6338 O 632.819 -1.61511 0.794618 0
M  V30 6339 H 629.194 -0.510706 0.551981 0
M  V30 6340 H 631.165 -1.31558 2.67834 0
M  V30 6341 C 629.914 -2.91177 1.9003 0
M  V30 6342 H 629.237 -2.88625 2.76651 0
M  V30 6343 H 630.677 -3.6833 2.10021 0
M  V30 6344 C 629.136 -3.30303 0.663435 0
M  V30 6345 O 629.666 -4.01315 -0.175812 0
M  V30 6346 N 627.872 -2.86201 0.503723 0
M  V30 6347 H 627.419 -2.28583 1.18776 0
M  V30 6348 H 627.377 -3.12741 -0.322575 0
M  V30 6349 N 631.149 -1.42148 -0.680565 0
M  V30 6350 C 632.395 -1.42521 -1.44277 0
M  V30 6351 C 632.728 -0.0393718 -1.9416 0
M  V30 6352 O 632.003 0.935425 -1.70529 0
M  V30 6353 C 632.286 -2.44475 -2.64394 0
M  V30 6354 C 632.139 -3.92226 -2.20179 0
M  V30 6355 C 633.458 -2.43491 -3.66606 0
M  V30 6356 H 630.577 -0.518985 -0.523282 0
M  V30 6357 H 633.219 -1.73524 -0.773914 0
M  V30 6358 H 631.369 -2.18168 -3.21458 0
M  V30 6359 H 633.041 -4.29493 -1.68327 0
M  V30 6360 H 631.284 -4.0637 -1.5181 0
M  V30 6361 H 631.955 -4.59133 -3.06433 0
M  V30 6362 H 634.431 -2.66872 -3.19247 0
M  V30 6363 H 633.307 -3.16816 -4.4824 0
M  V30 6364 H 633.568 -1.45881 -4.17338 0
M  V30 6365 N 632.627 0.916307 -1.28225 0
M  V30 6366 C 633.557 2.0352 -1.14464 0
M  V30 6367 C 634.538 1.70045 -0.0430844 0
M  V30 6368 O 635.723 1.92954 -0.219619 0
M  V30 6369 C 632.853 3.37889 -0.803027 0
M  V30 6370 C 631.807 3.85516 -1.85908 0
M  V30 6371 C 631.133 5.1682 -1.37116 0
M  V30 6372 C 632.433 4.07655 -3.26519 0
M  V30 6373 H 634.127 2.1529 -2.08064 0
M  V30 6374 H 631.673 1.03446 -1.00174 0
M  V30 6375 H 633.626 4.15654 -0.693537 0
M  V30 6376 H 632.35 3.26164 0.168674 0
M  V30 6377 H 631.009 3.09953 -1.95767 0
M  V30 6378 H 630.657 5.01497 -0.38859 0
M  V30 6379 H 630.357 5.49657 -2.07728 0
M  V30 6380 H 631.881 5.97143 -1.27484 0
M  V30 6381 H 633.295 4.75953 -3.19596 0
M  V30 6382 H 631.692 4.51818 -3.94943 0
M  V30 6383 H 632.762 3.12553 -3.70727 0
M  V30 6384 N 634.105 1.10431 1.1244 0
M  V30 6385 C 635.052 0.753103 2.18167 0
M  V30 6386 C 636.022 -0.270549 1.63882 0
M  V30 6387 O 637.207 -0.149837 1.90211 0
M  V30 6388 C 634.347 0.191046 3.44571 0
M  V30 6389 C 633.46 1.26999 4.12911 0
M  V30 6390 C 632.595 0.669586 5.26963 0
M  V30 6391 C 631.634 1.72912 5.87169 0
M  V30 6392 N 630.771 1.14898 6.92635 0
M  V30 6393 H 635.611 1.65892 2.47556 0
M  V30 6394 H 633.148 0.828631 1.21541 0
M  V30 6395 H 635.106 -0.152712 4.1692 0
M  V30 6396 H 633.736 -0.677997 3.15599 0
M  V30 6397 H 632.788 1.73087 3.3874 0
M  V30 6398 H 634.1 2.07204 4.53727 0
M  V30 6399 H 633.254 0.275274 6.06075 0
M  V30 6400 H 631.993 -0.163895 4.87425 0
M  V30 6401 H 630.998 2.13286 5.06744 0
M  V30 6402 H 632.223 2.56544 6.28778 0
M  V30 6403 H 630.169 0.336956 6.55134 0
M  V30 6404 H 630.086 1.88786 7.32049 0
M  V30 6405 H 631.354 0.78121 7.75576 0
M  V30 6406 N 635.583 -1.29855 0.893053 0
M  V30 6407 C 636.831 -1.9544 0.514566 0
M  V30 6408 C 637.152 -1.70795 -0.940959 0
M  V30 6409 O 636.422 -1.03601 -1.66264 0
M  V30 6410 H 635.002 -0.723137 0.187302 0
M  V30 6411 H 637.664 -1.58234 1.13789 0
M  V30 6412 H 636.76 -3.04341 0.691581 0
M  V30 6413 N 637.061 -0.65484 -1.43351 0
M  V30 6414 C 637.971 0.0363603 -2.34572 0
M  V30 6415 C 638.987 0.810432 -1.53974 0
M  V30 6416 O 640.163 0.757308 -1.86619 0
M  V30 6417 C 637.228 0.989733 -3.32273 0
M  V30 6418 C 636.289 0.212414 -4.28774 0
M  V30 6419 C 635.522 1.12038 -5.21808 0
M  V30 6420 O 635.745 2.35967 -5.19303 0
M  V30 6421 O 634.679 0.59191 -5.98982 0
M  V30 6422 H 638.505 -0.714527 -2.95175 0
M  V30 6423 H 636.09 -0.415029 -1.4352 0
M  V30 6424 H 637.972 1.53759 -3.92347 0
M  V30 6425 H 636.647 1.72082 -2.74171 0
M  V30 6426 H 635.554 -0.379062 -3.72175 0
M  V30 6427 H 636.887 -0.479138 -4.89862 0
M  V30 6428 N 638.539 1.52521 -0.396863 0
M  V30 6429 C 639.469 2.29582 0.425941 0
M  V30 6430 C 640.45 1.33281 1.05689 0
M  V30 6431 O 641.635 1.62181 1.06823 0
M  V30 6432 C 638.765 3.10821 1.54943 0
M  V30 6433 C 637.719 4.15069 1.04413 0
M  V30 6434 C 637.045 4.84578 2.26028 0
M  V30 6435 C 638.345 5.22191 0.106767 0
M  V30 6436 H 640.039 2.98612 -0.217045 0
M  V30 6437 H 637.585 1.43611 -0.105826 0
M  V30 6438 H 639.538 3.63492 2.13193 0
M  V30 6439 H 638.262 2.39538 2.22011 0
M  V30 6440 H 636.921 3.63389 0.484118 0
M  V30 6441 H 636.569 4.09835 2.91623 0
M  V30 6442 H 636.269 5.55043 1.92876 0
M  V30 6443 H 637.793 5.40056 2.84906 0
M  V30 6444 H 639.207 5.70176 0.597685 0
M  V30 6445 H 637.604 5.99947 -0.135352 0
M  V30 6446 H 638.674 4.77531 -0.842134 0
M  V30 6447 N 640.017 0.126909 1.57088 0
M  V30 6448 C 641.242 -0.53997 2.00248 0
M  V30 6449 C 641.667 -1.58927 1.00618 0
M  V30 6450 O 641.025 -1.81288 -0.0210131 0
M  V30 6451 C 641.073 -1.13565 3.4225 0
M  V30 6452 O 640.177 -2.25103 3.45547 0
M  V30 6453 H 639.518 -0.13412 0.650314 0
M  V30 6454 H 642.048 0.217718 2.03438 0
M  V30 6455 H 642.058 -1.46925 3.80627 0
M  V30 6456 H 640.733 -0.367122 4.14277 0
M  V30 6457 H 639.31 -1.93123 3.18995 0
M  V30 6458 N 641.495 -1.56914 -0.146875 0
M  V30 6459 C 642.458 -1.97368 -1.16526 0
M  V30 6460 C 643.458 -0.860223 -1.35856 0
M  V30 6461 O 644.648 -1.12684 -1.32846 0
M  V30 6462 C 641.78 -2.28974 -2.52555 0
M  V30 6463 H 642.973 -2.88523 -0.818209 0
M  V30 6464 H 640.526 -1.5135 -0.390221 0
M  V30 6465 H 641.261 -1.40611 -2.92231 0
M  V30 6466 H 641.046 -3.10157 -2.39886 0
M  V30 6467 H 642.536 -2.61109 -3.25902 0
M  V30 6468 N 642.974 0.416227 -1.52004 0
M  V30 6469 C 644.251 1.17637 -1.56272 0
M  V30 6470 C 644.631 2.08352 -0.339493 0
M  V30 6471 O 643.979 2.1833 0.674124 0
M  V30 6472 C 644.189 1.95986 -2.88774 0
M  V30 6473 C 645.537 2.52299 -3.41512 0
M  V30 6474 O 646.561 2.06174 -2.90467 0
M  V30 6475 O 645.42 3.3648 -4.30631 0
M  V30 6476 H 642.514 0.536726 -0.629169 0
M  V30 6477 H 645.06 0.423583 -1.64329 0
M  V30 6478 H 643.832 1.29487 -3.69254 0
M  V30 6479 H 643.455 2.78285 -2.83978 0
M  V30 6480 N 644.452 1.42507 0.673017 0
M  V30 6481 C 645.415 1.4582 1.76831 0
M  V30 6482 C 646.415 0.345542 1.57043 0
M  V30 6483 O 647.605 0.606447 1.63303 0
M  V30 6484 C 644.737 1.29158 3.15485 0
M  V30 6485 H 645.93 2.43345 1.7528 0
M  V30 6486 H 643.483 1.28981 0.882817 0
M  V30 6487 H 644.218 0.325626 3.22661 0
M  V30 6488 H 644.003 2.09797 3.31252 0
M  V30 6489 H 645.493 1.34363 3.95394 0
M  V30 6490 N 645.93 -0.909495 1.28709 0
M  V30 6491 C 646.877 -2.01245 1.13 0
M  V30 6492 C 647.847 -1.6608 0.0259684 0
M  V30 6493 O 649.032 -1.89835 0.191687 0
M  V30 6494 C 646.172 -3.35644 0.802315 0
M  V30 6495 C 645.285 -3.83653 1.98582 0
M  V30 6496 C 644.42 -5.06582 1.59837 0
M  V30 6497 C 643.459 -5.46934 2.74827 0
M  V30 6498 N 642.596 -6.61053 2.36546 0
M  V30 6499 H 647.436 -2.14013 2.0737 0
M  V30 6500 H 644.973 -1.0482 1.03205 0
M  V30 6501 H 646.931 -4.12963 0.593057 0
M  V30 6502 H 645.561 -3.22631 -0.104457 0
M  V30 6503 H 644.613 -3.02454 2.30708 0
M  V30 6504 H 645.925 -4.09515 2.84779 0
M  V30 6505 H 645.079 -5.91457 1.35143 0
M  V30 6506 H 643.818 -4.82537 0.707753 0
M  V30 6507 H 642.823 -4.60599 3.00215 0
M  V30 6508 H 644.048 -5.72965 3.64538 0
M  V30 6509 H 641.994 -6.3863 1.49959 0
M  V30 6510 H 641.911 -6.86662 3.16277 0
M  V30 6511 H 643.179 -7.49221 2.15146 0
M  V30 6512 N 647.408 -1.11026 -1.11852 0
M  V30 6513 C 648.633 -0.879064 -1.87849 0
M  V30 6514 C 649.058 0.565406 -1.79401 0
M  V30 6515 O 648.416 1.39886 -1.15333 0
M  V30 6516 C 648.464 -1.33985 -3.34784 0
M  V30 6517 O 647.568 -0.508803 -4.09249 0
M  V30 6518 H 646.909 -0.316992 -0.583448 0
M  V30 6519 H 649.439 -1.47863 -1.41413 0
M  V30 6520 H 649.449 -1.33248 -3.85628 0
M  V30 6521 H 648.124 -2.39172 -3.40249 0
M  V30 6522 H 646.701 -0.581913 -3.68332 0
M  V30 6523 N 648.886 1.2938 -0.899927 0
M  V30 6524 C 650.126 1.97332 -0.532871 0
M  V30 6525 C 650.49 1.69385 0.904029 0
M  V30 6526 O 651.691 2.30793 1.37797 0
M  V30 6527 C 649.962 3.47927 -0.817393 0
M  V30 6528 S 651.521 4.3528 -0.55468 0
M  V30 6529 H 648.339 0.682966 -0.197683 0
M  V30 6530 H 650.941 1.57189 -1.16241 0
M  V30 6531 H 649.645 3.65761 -1.86138 0
M  V30 6532 H 649.176 3.93006 -0.175978 0
M  V30 6533 H 651.191 4.92557 0.600182 0
M  V30 6534 N 650.364 0.662433 1.43002 0
M  V30 6535 C 651.589 0.186003 2.06564 0
M  V30 6536 C 652.014 -1.14314 1.49379 0
M  V30 6537 O 651.372 -1.70824 0.607346 0
M  V30 6538 C 651.42 0.118269 3.60406 0
M  V30 6539 O 650.524 -0.916859 4.02079 0
M  V30 6540 H 649.865 0.0990981 0.656563 0
M  V30 6541 H 652.395 0.907958 1.8335 0
M  V30 6542 H 652.405 -0.0619981 4.07953 0
M  V30 6543 H 651.08 1.08849 4.01403 0
M  V30 6544 H 649.657 -0.708635 3.66105 0
M  V30 6545 N 651.842 -1.52309 0.404946 0
M  V30 6546 C 653.09 -2.01368 -0.17186 0
M  V30 6547 C 653.411 -1.29261 -1.46002 0
M  V30 6548 O 652.681 -0.41729 -1.91404 0
M  V30 6549 H 651.261 -0.744034 -0.0664993 0
M  V30 6550 H 653.923 -1.87263 0.540228 0
M  V30 6551 H 653.019 -3.09888 -0.370957 0
M  V30 6552 N 653.32 -0.135238 -1.57019 0
M  V30 6553 C 654.23 0.822226 -2.19719 0
M  V30 6554 C 655.246 1.28057 -1.17802 0
M  V30 6555 O 656.422 1.3402 -1.50335 0
M  V30 6556 C 653.487 2.0484 -2.79717 0
M  V30 6557 C 652.548 1.64042 -3.96723 0
M  V30 6558 C 651.781 2.80814 -4.53849 0
M  V30 6559 O 652.004 3.967 -4.0986 0
M  V30 6560 O 650.938 2.56963 -5.44292 0
M  V30 6561 H 654.764 0.318552 -3.02025 0
M  V30 6562 H 652.349 0.0912021 -1.49121 0
M  V30 6563 H 654.231 2.76622 -3.17897 0
M  V30 6564 H 652.906 2.54182 -2.00432 0
M  V30 6565 H 651.813 0.893182 -3.63281 0
M  V30 6566 H 653.146 1.19426 -4.77492 0
M  V30 6567 N 654.798 1.5699 0.138552 0
M  V30 6568 C 656.044 1.84081 0.85099 0
M  V30 6569 C 656.377 0.718107 1.80435 0
M  V30 6570 O 655.652 -0.277633 1.92508 0
M  V30 6571 C 655.935 3.21699 1.61808 0
M  V30 6572 C 655.788 4.44544 0.685633 0
M  V30 6573 C 657.107 3.5664 2.57868 0
M  V30 6574 H 654.226 0.669592 0.307922 0
M  V30 6575 H 656.868 1.89646 0.11588 0
M  V30 6576 H 655.018 3.17086 2.24474 0
M  V30 6577 H 656.69 4.61248 0.0693179 0
M  V30 6578 H 654.933 4.338 -0.00421993 0
M  V30 6579 H 655.604 5.3746 1.25858 0
M  V30 6580 H 658.08 3.61918 2.05316 0
M  V30 6581 H 656.956 4.53946 3.08584 0
M  V30 6582 H 657.217 2.83036 3.39622 0
M  V30 6583 N 656.276 -0.40816 1.52223 0
M  V30 6584 C 657.525 -1.15212 1.65557 0
M  V30 6585 C 657.838 -1.9163 0.392096 0
M  V30 6586 O 659.044 -2.68458 0.405256 0
M  V30 6587 C 657.5 -2.09691 2.92502 0
M  V30 6588 C 657.108 -1.38785 4.25961 0
M  V30 6589 C 658.852 -2.8434 3.152 0
M  V30 6590 C 656.759 -2.31919 5.44029 0
M  V30 6591 H 655.689 -0.433776 0.616729 0
M  V30 6592 H 658.34 -0.4165 1.78711 0
M  V30 6593 H 656.722 -2.8681 2.7305 0
M  V30 6594 H 657.896 -0.670248 4.55899 0
M  V30 6595 H 656.211 -0.761741 4.09373 0
M  V30 6596 H 658.808 -3.54166 4.00587 0
M  V30 6597 H 659.151 -3.47344 2.29473 0
M  V30 6598 H 659.684 -2.14321 3.35129 0
M  V30 6599 H 656.423 -1.7356 6.32105 0
M  V30 6600 H 655.943 -3.0165 5.18428 0
M  V30 6601 H 657.622 -2.92424 5.77146 0
M  V30 6602 N 657.755 -1.42862 -0.66545 0
M  V30 6603 C 658.983 -1.47246 -1.45349 0
M  V30 6604 C 659.398 -0.0865944 -1.88601 0
M  V30 6605 O 658.755 0.900652 -1.58728 0
M  V30 6606 C 658.806 -2.40772 -2.6965 0
M  V30 6607 O 658.527 -3.73968 -2.2821 0
M  V30 6608 C 660.028 -2.54272 -3.63126 0
M  V30 6609 H 657.248 -0.500497 -0.446927 0
M  V30 6610 H 659.792 -1.87477 -0.816871 0
M  V30 6611 H 657.947 -2.0377 -3.29479 0
M  V30 6612 H 658.361 -4.24146 -3.08546 0
M  V30 6613 H 659.835 -3.23815 -4.47043 0
M  V30 6614 H 660.312 -1.58364 -4.09656 0
M  V30 6615 H 660.918 -2.92036 -3.09185 0
M  V30 6616 N 659.233 0.902656 -1.29189 0
M  V30 6617 C 660.479 1.65532 -1.17163 0
M  V30 6618 C 660.812 1.92216 0.276879 0
M  V30 6619 O 660.087 1.53048 1.20027 0
M  V30 6620 C 660.37 3.00629 -1.98228 0
M  V30 6621 C 660.223 2.81029 -3.51202 0
M  V30 6622 C 661.542 4.01321 -1.80635 0
M  V30 6623 H 658.661 0.60071 -0.426985 0
M  V30 6624 H 661.303 1.04578 -1.5863 0
M  V30 6625 H 659.453 3.52656 -1.62991 0
M  V30 6626 H 661.125 2.35927 -3.96404 0
M  V30 6627 H 659.368 2.1587 -3.76275 0
M  V30 6628 H 660.039 3.77014 -4.03192 0
M  V30 6629 H 662.515 3.58394 -2.11406 0
M  V30 6630 H 661.391 4.93792 -2.3971 0
M  V30 6631 H 661.652 4.35505 -0.760754 0
M  V30 6632 N 660.711 1.11618 1.11262 0
M  V30 6633 C 661.659 0.771291 2.1944 0
M  V30 6634 C 662.653 -0.238073 1.67719 0
M  V30 6635 O 663.859 -0.0971628 1.79738 0
M  V30 6636 H 660.234 0.231548 0.715465 0
M  V30 6637 H 662.205 1.69226 2.45775 0
M  V30 6638 C 660.954 0.232765 3.4692 0
M  V30 6639 H 660.277 1.00072 3.87073 0
M  V30 6640 H 661.717 0.0296561 4.2399 0
M  V30 6641 C 660.176 -1.03738 3.20531 0
M  V30 6642 O 660.706 -2.11675 3.41404 0
M  V30 6643 N 658.912 -0.960906 2.74253 0
M  V30 6644 H 658.459 -0.0824323 2.57468 0
M  V30 6645 H 658.417 -1.8114 2.56974 0
M  V30 6646 N 662.189 -1.289 0.906776 0
M  V30 6647 C 663.414 -1.99939 0.551303 0
M  V30 6648 C 663.839 -1.67366 -0.858496 0
M  V30 6649 O 663.197 -0.902176 -1.57259 0
M  V30 6650 C 663.245 -3.52523 0.758937 0
M  V30 6651 O 662.349 -4.11983 -0.185308 0
M  V30 6652 H 661.69 -0.628376 0.214568 0
M  V30 6653 H 664.22 -1.64225 1.2203 0
M  V30 6654 H 664.23 -4.02522 0.666329 0
M  V30 6655 H 662.905 -3.75566 1.78671 0
M  V30 6656 H 661.482 -3.72873 -0.0445577 0
M  V30 6657 N 663.667 -0.670007 -1.42649 0
M  V30 6658 C 664.944 -0.119451 -1.95235 0
M  V30 6659 C 665.324 1.36461 -1.61064 0
M  V30 6660 O 664.672 2.09843 -0.904329 0
M  V30 6661 C 664.882 -0.383498 -3.46887 0
M  V30 6662 C 666.23 -0.297431 -4.23557 0
M  V30 6663 O 667.254 -0.31698 -3.54787 0
M  V30 6664 O 666.113 -0.235507 -5.45992 0
M  V30 6665 H 663.207 -8.85474e-05 -0.827 0
M  V30 6666 H 665.753 -0.744406 -1.52501 0
M  V30 6667 H 664.525 -1.41174 -3.64946 0
M  V30 6668 H 664.148 0.273702 -3.96657 0
M  V30 6669 N 665.145 1.52092 -0.413018 0
M  V30 6670 C 666.393 2.01456 0.161178 0
M  V30 6671 C 666.714 1.30034 1.45314 0
M  V30 6672 O 665.984 0.427435 1.9118 0
M  V30 6673 H 664.564 0.744376 0.0625526 0
M  V30 6674 H 667.226 1.86974 -0.550151 0
M  V30 6675 H 666.322 3.1008 0.354517 0
M  V30 6676 N 666.623 0.143563 1.56945 0
M  V30 6677 C 667.851 -0.515447 2.00377 0
M  V30 6678 C 668.266 -1.58643 1.02361 0
M  V30 6679 O 667.623 -1.82489 0.0201039 0
M  V30 6680 C 667.674 -1.11923 3.43737 0
M  V30 6681 O 667.395 -0.0910318 4.38005 0
M  V30 6682 C 668.896 -1.85918 4.02429 0
M  V30 6683 H 666.116 -0.134478 0.657386 0
M  V30 6684 H 668.66 0.237135 2.0312 0
M  V30 6685 H 666.815 -1.82245 3.41856 0
M  V30 6686 H 667.229 -0.532916 5.21786 0
M  V30 6687 H 668.703 -2.2346 5.04747 0
M  V30 6688 H 669.18 -2.7438 3.42947 0
M  V30 6689 H 669.786 -1.20303 4.07931 0
M  V30 6690 N 668.101 -1.57061 -0.130224 0
M  V30 6691 C 669.35 -1.83446 -0.838488 0
M  V30 6692 C 669.663 -0.727468 -1.81569 0
M  V30 6693 O 670.869 -0.877394 -2.56932 0
M  V30 6694 C 669.325 -3.25201 -1.54182 0
M  V30 6695 C 668.933 -4.4388 -0.606178 0
M  V30 6696 C 670.677 -3.60844 -2.23588 0
M  V30 6697 C 668.584 -5.76661 -1.31209 0
M  V30 6698 H 667.514 -0.684185 -0.316871 0
M  V30 6699 H 670.165 -1.83273 -0.0912059 0
M  V30 6700 H 668.547 -3.1981 -2.33533 0
M  V30 6701 H 669.721 -4.60545 0.153308 0
M  V30 6702 H 668.036 -4.16395 -0.0196705 0
M  V30 6703 H 670.633 -4.57313 -2.77072 0
M  V30 6704 H 670.976 -2.87724 -3.00867 0
M  V30 6705 H 671.509 -3.67971 -1.51137 0
M  V30 6706 H 668.248 -6.52922 -0.580823 0
M  V30 6707 H 667.768 -5.63902 -2.04387 0
M  V30 6708 H 669.447 -6.20035 -1.8484 0
M  V30 6709 N 669.579 0.400081 -1.52437 0
M  V30 6710 C 670.527 1.50851 -1.7705 0
M  V30 6711 C 671.521 1.56928 -0.637969 0
M  V30 6712 O 672.727 1.60226 -0.820212 0
M  V30 6713 H 669.102 0.50186 -0.560036 0
M  V30 6714 H 671.073 1.27281 -2.69893 0
M  V30 6715 C 669.822 2.88117 -1.94638 0
M  V30 6716 H 669.145 2.84187 -2.81208 0
M  V30 6717 H 670.585 3.64942 -2.15855 0
M  V30 6718 C 669.044 3.29206 -0.715899 0
M  V30 6719 O 669.574 4.01544 0.111944 0
M  V30 6720 N 667.78 2.85363 -0.549191 0
M  V30 6721 H 667.327 2.26664 -1.22397 0
M  V30 6722 H 667.285 3.13214 0.27278 0
M  V30 6723 N 671.057 1.43213 0.657864 0
M  V30 6724 C 671.987 1.50815 1.78262 0
M  V30 6725 C 672.968 0.363211 1.66177 0
M  V30 6726 O 674.153 0.579806 1.85343 0
M  V30 6727 C 671.283 1.42625 3.16663 0
M  V30 6728 C 670.237 2.5532 3.43505 0
M  V30 6729 C 669.563 2.32184 4.81658 0
M  V30 6730 C 670.863 3.97583 3.38711 0
M  V30 6731 H 672.557 2.44954 1.72157 0
M  V30 6732 H 670.103 1.17896 0.82683 0
M  V30 6733 H 672.056 1.46548 3.95097 0
M  V30 6734 H 670.78 0.449877 3.23487 0
M  V30 6735 H 669.439 2.50742 2.6744 0
M  V30 6736 H 669.087 1.32801 4.85153 0
M  V30 6737 H 668.787 3.07724 5.00579 0
M  V30 6738 H 670.311 2.37883 5.62356 0
M  V30 6739 H 671.725 4.03673 4.07089 0
M  V30 6740 H 670.122 4.73112 3.69168 0
M  V30 6741 H 671.192 4.23049 2.36976 0
M  V30 6742 N 672.536 -0.895792 1.29666 0
M  V30 6743 C 673.484 -2.02173 1.15017 0
M  V30 6744 C 674.478 -1.69276 0.0647651 0
M  V30 6745 O 675.684 -1.7859 0.224846 0
M  V30 6746 H 672.059 -0.662719 0.355397 0
M  V30 6747 H 674.03 -2.11666 2.10334 0
M  V30 6748 C 672.779 -3.37212 0.847555 0
M  V30 6749 H 672.102 -3.6303 1.67479 0
M  V30 6750 H 673.542 -4.16668 0.785106 0
M  V30 6751 C 672.001 -3.33891 -0.44929 0
M  V30 6752 O 672.531 -3.73673 -1.47415 0
M  V30 6753 N 670.737 -2.86991 -0.456547 0
M  V30 6754 H 670.284 -2.54813 0.377925 0
M  V30 6755 H 670.242 -2.85152 -1.32423 0
M  V30 6756 N 674.014 -1.12206 -1.10668 0
M  V30 6757 C 675.263 -0.870595 -1.81944 0
M  V30 6758 C 675.576 0.605447 -1.85994 0
M  V30 6759 O 676.782 0.973433 -2.53449 0
M  V30 6760 C 675.238 -1.50783 -3.26791 0
M  V30 6761 C 674.846 -3.01849 -3.31046 0
M  V30 6762 C 676.59 -1.33653 -4.02911 0
M  V30 6763 C 674.497 -3.58518 -4.70339 0
M  V30 6764 H 673.427 -0.322043 -0.681765 0
M  V30 6765 H 676.078 -1.34827 -1.24475 0
M  V30 6766 H 674.46 -0.957825 -3.84242 0
M  V30 6767 H 675.634 -3.63321 -2.83433 0
M  V30 6768 H 673.949 -3.18346 -2.68411 0
M  V30 6769 H 676.546 -1.73416 -5.05797 0
M  V30 6770 H 676.889 -0.279949 -4.15358 0
M  V30 6771 H 677.422 -1.85562 -3.51868 0
M  V30 6772 H 674.161 -4.63925 -4.63091 0
M  V30 6773 H 673.681 -3.01819 -5.18329 0
M  V30 6774 H 675.36 -3.57434 -5.39305 0
M  V30 6775 N 675.492 1.28418 -0.913599 0
M  V30 6776 C 676.74 1.94596 -0.545594 0
M  V30 6777 C 677.061 1.7227 0.913668 0
M  V30 6778 O 676.331 1.06233 1.64595 0
M  V30 6779 H 674.911 0.720065 -0.198783 0
M  V30 6780 H 677.573 1.56404 -1.16292 0
M  V30 6781 H 676.669 3.03202 -0.739911 0
M  V30 6782 N 676.97 0.677563 1.42291 0
M  V30 6783 C 677.933 0.0101085 2.29198 0
M  V30 6784 C 678.933 -0.726219 1.43467 0
M  V30 6785 O 680.123 -0.563807 1.64824 0
M  V30 6786 C 677.255 -0.996316 3.26016 0
M  V30 6787 H 678.448 0.775071 2.89711 0
M  V30 6788 H 676.001 0.440065 1.49977 0
M  V30 6789 H 676.736 -1.78967 2.70446 0
M  V30 6790 H 676.521 -0.471687 3.89253 0
M  V30 6791 H 678.011 -1.46167 3.91184 0
M  V30 6792 N 678.448 -1.51871 0.421078 0
M  V30 6793 C 679.694 -2.02894 -0.143346 0
M  V30 6794 C 680.049 -1.30054 -1.41787 0
M  V30 6795 O 679.342 -0.401776 -1.8734 0
M  V30 6796 C 679.536 -3.54764 -0.433292 0
M  V30 6797 C 679.365 -4.42316 0.811584 0
M  V30 6798 C 678.135 -4.872 1.34033 0
M  V30 6799 C 680.333 -4.85631 1.69313 0
M  V30 6800 N 678.315 -5.58915 2.53944 0
M  V30 6801 C 679.686 -5.56248 2.7384 0
M  V30 6802 C 681.741 -4.67634 1.70947 0
M  V30 6803 C 680.444 -6.10777 3.79927 0
M  V30 6804 C 682.47 -5.23068 2.7596 0
M  V30 6805 C 681.832 -5.93617 3.79207 0
M  V30 6806 H 677.931 -0.78188 -0.0137104 0
M  V30 6807 H 680.515 -1.85919 0.578105 0
M  V30 6808 H 678.686 -3.71787 -1.12378 0
M  V30 6809 H 680.418 -3.92464 -0.987644 0
M  V30 6810 H 677.173 -4.65035 0.896606 0
M  V30 6811 H 677.597 -5.99408 3.14704 0
M  V30 6812 H 682.239 -4.12566 0.9246 0
M  V30 6813 H 679.957 -6.64909 4.59262 0
M  V30 6814 H 683.543 -5.11005 2.78147 0
M  V30 6815 H 682.423 -6.35743 4.5913 0
M  V30 6816 N 679.926 -0.151884 -1.56866 0
M  V30 6817 C 681.203 0.543328 -1.87902 0
M  V30 6818 C 681.583 1.82636 -1.05864 0
M  V30 6819 O 680.931 2.28028 -0.146868 0
M  V30 6820 C 681.141 0.804056 -3.39611 0
M  V30 6821 C 682.489 1.14267 -4.08935 0
M  V30 6822 O 683.513 0.893248 -3.44818 0
M  V30 6823 O 682.372 1.61229 -5.22176 0
M  V30 6824 H 679.466 0.277724 -0.778973 0
M  V30 6825 H 682.012 -0.188862 -1.68646 0
M  V30 6826 H 680.784 -0.103772 -3.91162 0
M  V30 6827 H 680.407 1.59025 -3.64413 0
M  V30 6828 N 681.404 1.57128 0.121893 0
M  V30 6829 C 682.367 1.99197 1.13372 0
M  V30 6830 C 683.367 0.881728 1.3447 0
M  V30 6831 O 684.557 1.14783 1.31036 0
M  V30 6832 C 681.689 2.32963 2.4888 0
M  V30 6833 H 682.882 2.89788 0.772204 0
M  V30 6834 H 680.435 1.51952 0.366093 0
M  V30 6835 H 681.17 1.45243 2.89957 0
M  V30 6836 H 680.955 3.13934 2.34921 0
M  V30 6837 H 682.445 2.66261 3.21706 0
M  V30 6838 N 682.882 -0.391992 1.52647 0
M  V30 6839 C 683.815 -1.50019 1.71958 0
M  V30 6840 C 684.793 -1.5238 0.567365 0
M  V30 6841 O 685.977 -1.70831 0.796806 0
M  V30 6842 C 683.104 -2.88496 1.77447 0
M  V30 6843 C 682.15 -3.03974 2.99169 0
M  V30 6844 S 682.983 -2.75487 4.59203 0
M  V30 6845 C 684.139 -4.16163 4.67503 0
M  V30 6846 H 684.372 -1.33413 2.65685 0
M  V30 6847 H 681.905 -0.584674 1.42902 0
M  V30 6848 H 683.863 -3.68296 1.81296 0
M  V30 6849 H 682.524 -3.02431 0.848188 0
M  V30 6850 H 681.717 -4.05328 2.99542 0
M  V30 6851 H 681.319 -2.32062 2.93297 0
M  V30 6852 H 683.611 -5.10048 4.45934 0
M  V30 6853 H 684.554 -4.20806 5.69498 0
M  V30 6854 H 684.962 -4.01933 3.96371 0
M  V30 6855 N 684.36 -1.4356 -0.65026 0
M  V30 6856 C 685.323 -1.48615 -1.74489 0
M  V30 6857 C 686.323 -0.370483 -1.56474 0
M  V30 6858 O 687.513 -0.632351 -1.62317 0
M  V30 6859 C 684.645 -1.34161 -3.13391 0
M  V30 6860 H 685.838 -2.46103 -1.71387 0
M  V30 6861 H 683.391 -1.30369 -0.862186 0
M  V30 6862 H 684.126 -0.376918 -3.22102 0
M  V30 6863 H 683.911 -2.1504 -3.27872 0
M  V30 6864 H 685.401 -1.40637 -3.93206 0
M  V30 6865 N 685.838 0.888903 -1.30139 0
M  V30 6866 C 687.087 1.63507 -1.18103 0
M  V30 6867 C 687.4 1.93808 0.264141 0
M  V30 6868 O 688.606 2.66744 0.505966 0
M  V30 6869 C 687.062 2.94673 -2.0663 0
M  V30 6870 C 686.67 2.71926 -3.56034 0
M  V30 6871 C 688.414 3.72626 -2.03346 0
M  V30 6872 C 686.321 3.98884 -4.3663 0
M  V30 6873 H 685.251 0.613426 -0.438435 0
M  V30 6874 H 687.902 0.984427 -1.54859 0
M  V30 6875 H 686.284 3.61009 -1.62754 0
M  V30 6876 H 687.458 2.14116 -4.08033 0
M  V30 6877 H 685.773 2.07353 -3.61101 0
M  V30 6878 H 688.37 4.66775 -2.60816 0
M  V30 6879 H 688.713 4.03712 -1.016 0
M  V30 6880 H 689.246 3.13147 -2.45324 0
M  V30 6881 H 685.985 3.72959 -5.39056 0
M  V30 6882 H 685.505 4.56214 -3.89396 0
M  V30 6883 H 687.184 4.66938 -4.47859 0
M  V30 6884 N 687.317 1.12792 1.10072 0
M  V30 6885 C 688.267 0.768086 2.14673 0
M  V30 6886 C 689.251 -0.234716 1.59179 0
M  V30 6887 O 690.443 -0.039643 1.76956 0
M  V30 6888 C 687.572 0.228472 3.42539 0
M  V30 6889 C 686.658 1.25979 4.04957 0
M  V30 6890 N 687.049 2.4586 4.42025 0
M  V30 6891 C 685.347 1.10602 4.32069 0
M  V30 6892 C 686.048 3.11747 4.9111 0
M  V30 6893 N 685.024 2.39185 4.88151 0
M  V30 6894 H 688.826 1.68029 2.4113 0
M  V30 6895 H 686.34 1.00925 1.27232 0
M  V30 6896 H 688.337 -0.0475216 4.16873 0
M  V30 6897 H 686.997 -0.678136 3.1754 0
M  V30 6898 H 688.008 2.83215 4.33601 0
M  V30 6899 H 684.685 0.257021 4.16708 0
M  V30 6900 H 686.075 4.13862 5.29309 0
M  V30 6901 N 688.795 -1.27931 0.920396 0
M  V30 6902 C 689.742 -2.27085 0.412422 0
M  V30 6903 C 690.712 -1.57858 -0.516725 0
M  V30 6904 O 691.897 -1.85717 -0.437475 0
M  V30 6905 C 689.037 -3.43466 -0.335399 0
M  V30 6906 C 688.15 -4.27425 0.627017 0
M  V30 6907 C 687.285 -5.31016 -0.139916 0
M  V30 6908 C 686.324 -6.06641 0.815683 0
M  V30 6909 N 685.461 -7.02052 0.0818439 0
M  V30 6910 H 690.301 -2.69913 1.26298 0
M  V30 6911 H 687.838 -1.32732 0.634076 0
M  V30 6912 H 689.796 -4.09744 -0.785226 0
M  V30 6913 H 688.426 -3.01611 -1.15025 0
M  V30 6914 H 687.478 -3.6113 1.19537 0
M  V30 6915 H 688.79 -4.79969 1.35763 0
M  V30 6916 H 687.944 -6.03208 -0.649998 0
M  V30 6917 H 686.683 -4.79257 -0.903543 0
M  V30 6918 H 685.688 -5.33294 1.33708 0
M  V30 6919 H 686.913 -6.60489 1.57897 0
M  V30 6920 H 684.859 -6.52634 -0.663671 0
M  V30 6921 H 684.776 -7.52249 0.752163 0
M  V30 6922 H 686.044 -7.78432 -0.407825 0
M  V30 6923 N 690.273 -0.685099 -1.4193 0
M  V30 6924 C 691.221 -0.00165985 -2.326 0
M  V30 6925 C 692.215 0.779678 -1.50391 0
M  V30 6926 O 693.421 0.68648 -1.66395 0
M  V30 6927 H 689.796 0.0182616 -0.751778 0
M  V30 6928 H 691.767 -0.783592 -2.87928 0
M  V30 6929 C 690.516 0.928385 -3.35077 0
M  V30 6930 H 689.839 0.336578 -3.98381 0
M  V30 6931 H 691.279 1.37509 -4.01083 0
M  V30 6932 C 689.738 2.03964 -2.68142 0
M  V30 6933 O 690.268 3.12727 -2.5212 0
M  V30 6934 N 688.474 1.81433 -2.27003 0
M  V30 6935 H 688.021 0.929807 -2.40234 0
M  V30 6936 H 687.979 2.55973 -1.82552 0
M  V30 6937 N 691.751 1.51645 -0.429126 0
M  V30 6938 C 692.714 2.26116 0.374726 0
M  V30 6939 C 693.714 1.29242 0.956714 0
M  V30 6940 O 694.904 1.53022 0.832452 0
M  V30 6941 C 692.036 3.04669 1.52937 0
M  V30 6942 H 693.229 2.9861 -0.277818 0
M  V30 6943 H 690.782 1.55236 -0.182097 0
M  V30 6944 H 691.517 2.36571 2.21821 0
M  V30 6945 H 691.302 3.75814 1.11833 0
M  V30 6946 H 692.792 3.61102 2.09751 0
M  V30 6947 N 693.229 0.160201 1.56784 0
M  V30 6948 C 694.176 -0.774416 2.1742 0
M  V30 6949 C 695.146 -1.23483 1.11091 0
M  V30 6950 O 696.331 -1.30499 1.39193 0
M  V30 6951 C 693.471 -2.00283 2.81035 0
M  V30 6952 C 692.584 -1.58701 4.01793 0
M  V30 6953 C 691.719 -2.76824 4.53367 0
M  V30 6954 C 690.758 -2.31679 5.66561 0
M  V30 6955 N 689.895 -3.42856 6.12694 0
M  V30 6956 H 694.735 -0.250542 2.96945 0
M  V30 6957 H 692.272 -0.111943 1.46673 0
M  V30 6958 H 694.23 -2.72316 3.16069 0
M  V30 6959 H 692.86 -2.5006 2.04132 0
M  V30 6960 H 691.912 -0.76384 3.72652 0
M  V30 6961 H 693.224 -1.21555 4.83762 0
M  V30 6962 H 692.378 -3.57029 4.90525 0
M  V30 6963 H 691.117 -3.17223 3.70433 0
M  V30 6964 H 690.122 -1.49917 5.28966 0
M  V30 6965 H 691.347 -1.9235 6.5129 0
M  V30 6966 H 689.293 -3.82852 5.32692 0
M  V30 6967 H 689.21 -3.09767 6.89624 0
M  V30 6968 H 690.478 -4.23379 6.545 0
M  V30 6969 N 694.707 -1.5719 -0.113559 0
M  V30 6970 C 695.637 -2.03772 -1.14013 0
M  V30 6971 C 696.618 -0.923176 -1.42869 0
M  V30 6972 O 697.803 -1.19325 -1.53216 0
M  V30 6973 C 694.933 -2.44663 -2.4649 0
M  V30 6974 C 693.887 -3.59612 -2.32085 0
M  V30 6975 C 693.213 -3.8642 -3.69573 0
M  V30 6976 C 694.513 -4.91149 -1.7768 0
M  V30 6977 H 696.207 -2.89785 -0.752665 0
M  V30 6978 H 693.753 -1.39412 -0.360609 0
M  V30 6979 H 695.706 -2.75857 -3.18561 0
M  V30 6980 H 694.43 -1.55628 -2.87137 0
M  V30 6981 H 693.089 -3.28636 -1.62461 0
M  V30 6982 H 692.737 -2.94581 -4.07715 0
M  V30 6983 H 692.437 -4.63797 -3.60786 0
M  V30 6984 H 693.961 -4.2007 -4.4314 0
M  V30 6985 H 695.375 -5.20843 -2.39574 0
M  V30 6986 H 693.772 -5.72562 -1.79701 0
M  V30 6987 H 694.842 -4.79301 -0.734776 0
M  V30 6988 N 696.185 0.383891 -1.52853 0
M  V30 6989 C 697.133 1.48965 -1.7864 0
M  V30 6990 C 698.127 1.56242 -0.654577 0
M  V30 6991 O 699.333 1.59347 -0.83716 0
M  V30 6992 H 695.708 0.495892 -0.565328 0
M  V30 6993 H 697.679 1.24411 -2.71228 0
M  V30 6994 C 696.428 2.86036 -1.97683 0
M  V30 6995 H 695.751 2.81188 -2.84206 0
M  V30 6996 H 697.191 3.62632 -2.19713 0
M  V30 6997 C 695.65 3.28428 -0.750776 0
M  V30 6998 O 696.18 4.0164 0.0693491 0
M  V30 6999 N 694.386 2.84765 -0.579427 0
M  V30 7000 H 693.933 2.25353 -1.24795 0
M  V30 7001 H 693.891 3.13486 0.239544 0
M  V30 7002 N 697.663 1.43903 0.642637 0
M  V30 7003 C 698.891 1.4954 1.42988 0
M  V30 7004 C 699.306 0.116588 1.8844 0
M  V30 7005 O 698.663 -0.875285 1.60141 0
M  V30 7006 C 698.714 2.45031 2.65785 0
M  V30 7007 O 698.435 3.77551 2.22232 0
M  V30 7008 C 699.936 2.60017 3.59035 0
M  V30 7009 H 697.156 0.507544 0.438907 0
M  V30 7010 H 699.7 1.88752 0.786942 0
M  V30 7011 H 697.855 2.08985 3.26196 0
M  V30 7012 H 698.269 4.29001 3.01759 0
M  V30 7013 H 699.743 3.30887 4.41835 0
M  V30 7014 H 700.22 1.64861 4.07084 0
M  V30 7015 H 700.826 2.96918 3.045 0
M  V30 7016 N 699.141 -0.881989 1.30609 0
M  V30 7017 C 700.366 -1.67236 1.22665 0
M  V30 7018 C 700.791 -1.8696 -0.206777 0
M  V30 7019 O 700.149 -1.4027 -1.14865 0
M  V30 7020 C 700.197 -3.02446 1.96363 0
M  V30 7021 O 699.301 -3.91614 1.29276 0
M  V30 7022 H 698.642 -0.510902 0.424117 0
M  V30 7023 H 701.172 -1.10055 1.72479 0
M  V30 7024 H 701.182 -3.52468 2.055 0
M  V30 7025 H 699.857 -2.8741 3.00613 0
M  V30 7026 H 698.434 -3.50055 1.28514 0
M  V30 7027 N 700.619 -1.13374 -1.09472 0
M  V30 7028 C 701.844 -0.918711 -1.85942 0
M  V30 7029 C 702.269 0.527225 -1.8056 0
M  V30 7030 O 701.627 1.37408 -1.18274 0
M  V30 7031 C 701.675 -1.41056 -3.31867 0
M  V30 7032 O 700.779 -0.595496 -4.08078 0
M  V30 7033 H 700.12 -0.329297 -0.576593 0
M  V30 7034 H 702.65 -1.50829 -1.38245 0
M  V30 7035 H 702.66 -1.41398 -3.82715 0
M  V30 7036 H 701.335 -2.46335 -3.35099 0
M  V30 7037 H 699.912 -0.659911 -3.67014 0
M  V30 7038 N 702.098 1.27442 -0.927168 0
M  V30 7039 C 703.061 2.2512 -0.430525 0
M  V30 7040 C 704.061 1.54357 0.450619 0
M  V30 7041 O 705.251 1.72371 0.251774 0
M  V30 7042 C 702.383 3.38763 0.381144 0
M  V30 7043 H 703.576 2.70569 -1.29354 0
M  V30 7044 H 701.129 1.39355 -0.707806 0
M  V30 7045 H 701.864 2.98695 1.263 0
M  V30 7046 H 701.649 3.91298 -0.250618 0
M  V30 7047 H 703.139 4.11364 0.719012 0
M  V30 7048 N 703.576 0.692616 1.41565 0
M  V30 7049 C 704.801 0.229776 2.06123 0
M  V30 7050 C 705.226 -1.11119 1.5177 0
M  V30 7051 O 704.584 -1.69498 0.643444 0
M  V30 7052 C 704.632 0.19469 3.60074 0
M  V30 7053 O 703.736 -0.831366 4.03933 0
M  V30 7054 H 703.077 0.113002 0.654314 0
M  V30 7055 H 705.607 0.946645 1.81383 0
M  V30 7056 H 705.617 0.0245487 4.07993 0
M  V30 7057 H 704.292 1.17339 3.99004 0
M  V30 7058 H 702.869 -0.630819 3.67526 0
M  V30 7059 N 705.054 -1.51416 0.437162 0
M  V30 7060 C 706.279 -2.0699 -0.130424 0
M  V30 7061 C 706.704 -1.30249 -1.35709 0
M  V30 7062 O 706.062 -0.340388 -1.78076 0
M  V30 7063 C 706.11 -3.5801 -0.43142 0
M  V30 7064 O 705.214 -3.8345 -1.5179 0
M  V30 7065 H 704.555 -0.663997 -0.00194339 0
M  V30 7066 H 707.085 -1.95029 0.618445 0
M  V30 7067 H 707.095 -4.02261 -0.681926 0
M  V30 7068 H 705.77 -4.13291 0.465137 0
M  V30 7069 H 704.347 -3.51062 -1.25737 0
M  V30 7070 N 706.532 -0.168513 -1.56696 0
M  V30 7071 C 707.76 0.483503 -2.01171 0
M  V30 7072 C 708.175 1.56994 -1.04872 0
M  V30 7073 O 707.532 1.82434 -0.0491337 0
M  V30 7074 C 707.583 1.0644 -3.45475 0
M  V30 7075 O 707.304 0.0213375 -4.38095 0
M  V30 7076 C 708.805 1.79493 -4.05336 0
M  V30 7077 H 706.025 0.124002 -0.659443 0
M  V30 7078 H 708.569 -0.269419 -2.02717 0
M  V30 7079 H 706.724 1.76784 -3.44712 0
M  V30 7080 H 707.138 0.449837 -5.22567 0
M  V30 7081 H 708.612 2.15401 -5.08238 0
M  V30 7082 H 709.089 2.68889 -3.47269 0
M  V30 7083 H 709.695 1.13798 -4.09793 0
M  V30 7084 N 708.01 1.57248 0.105221 0
M  V30 7085 C 708.92 2.04653 1.14693 0
M  V30 7086 C 709.936 0.969488 1.44489 0
M  V30 7087 O 711.112 1.28196 1.55331 0
M  V30 7088 C 708.177 2.45297 2.45011 0
M  V30 7089 C 707.238 3.67148 2.22489 0
M  V30 7090 C 706.471 4.05844 3.46592 0
M  V30 7091 O 706.694 3.44736 4.54437 0
M  V30 7092 O 705.628 4.98862 3.36779 0
M  V30 7093 H 709.454 2.93663 0.774336 0
M  V30 7094 H 707.039 1.45998 0.31701 0
M  V30 7095 H 708.921 2.72112 3.21766 0
M  V30 7096 H 707.596 1.59429 2.81717 0
M  V30 7097 H 706.503 3.45463 1.43547 0
M  V30 7098 H 707.836 4.53764 1.9068 0
M  V30 7099 N 709.488 -0.375779 1.53054 0
M  V30 7100 C 710.713 -1.14484 1.7294 0
M  V30 7101 C 711.138 -1.82572 0.452668 0
M  V30 7102 O 710.496 -1.71343 -0.592567 0
M  V30 7103 C 710.544 -2.15857 2.88857 0
M  V30 7104 O 709.648 -3.22725 2.56753 0
M  V30 7105 H 708.989 -0.332666 0.574656 0
M  V30 7106 H 711.519 -0.436025 1.999 0
M  V30 7107 H 711.529 -2.59631 3.14731 0
M  V30 7108 H 710.204 -1.65689 3.81471 0
M  V30 7109 H 708.781 -2.83996 2.41663 0
M  V30 7110 N 710.966 -1.44241 -0.634997 0
M  V30 7111 C 712.243 -1.37296 -1.39317 0
M  V30 7112 C 712.623 -0.0297532 -2.11079 0
M  V30 7113 O 711.971 0.987524 -2.06059 0
M  V30 7114 C 712.181 -2.56853 -2.36279 0
M  V30 7115 C 713.529 -3.00747 -2.99728 0
M  V30 7116 O 714.553 -2.5703 -2.46605 0
M  V30 7117 O 713.412 -3.76533 -3.96087 0
M  V30 7118 H 710.506 -0.543503 -0.623325 0
M  V30 7119 H 713.052 -1.56324 -0.660376 0
M  V30 7120 H 711.824 -3.46228 -1.82324 0
M  V30 7121 H 711.447 -2.40019 -3.16981 0
M  V30 7122 N 712.444 0.87505 -1.31075 0
M  V30 7123 C 713.69 1.63006 -1.21657 0
M  V30 7124 C 714.045 1.91088 0.224306 0
M  V30 7125 O 713.338 1.52779 1.15625 0
M  V30 7126 C 713.532 2.96948 -1.98888 0
M  V30 7127 C 713.361 2.81944 -3.50339 0
M  V30 7128 C 712.131 2.814 -4.19693 0
M  V30 7129 C 714.329 2.57171 -4.45385 0
M  V30 7130 N 712.311 2.57392 -5.57335 0
M  V30 7131 C 713.682 2.42379 -5.7066 0
M  V30 7132 C 715.737 2.42474 -4.34868 0
M  V30 7133 C 714.44 2.14385 -6.86609 0
M  V30 7134 C 716.466 2.15868 -5.50595 0
M  V30 7135 C 715.828 2.0186 -6.74857 0
M  V30 7136 H 711.927 0.601043 -0.500271 0
M  V30 7137 H 714.511 1.03033 -1.65204 0
M  V30 7138 H 712.682 3.54936 -1.57718 0
M  V30 7139 H 714.414 3.61702 -1.81531 0
M  V30 7140 H 711.169 2.93596 -3.71616 0
M  V30 7141 H 711.593 2.48373 -6.29794 0
M  V30 7142 H 716.235 2.52035 -3.39468 0
M  V30 7143 H 713.953 2.03562 -7.82041 0
M  V30 7144 H 717.539 2.05304 -5.44372 0
M  V30 7145 H 716.419 1.81562 -7.62892 0
M  V30 7146 N 713.922 1.13953 1.08869 0
M  V30 7147 C 714.854 0.779906 2.15523 0
M  V30 7148 C 715.867 -0.20102 1.61554 0
M  V30 7149 O 717.056 0.0200049 1.78489 0
M  V30 7150 C 714.156 0.136226 3.38626 0
M  V30 7151 C 713.329 1.15069 4.21993 0
M  V30 7152 C 712.388 0.531645 5.23507 0
M  V30 7153 O 711.414 1.19327 5.56552 0
M  V30 7154 N 712.616 -0.693734 5.7634 0
M  V30 7155 H 715.381 1.69769 2.46979 0
M  V30 7156 H 712.942 1.03331 1.24637 0
M  V30 7157 H 714.934 -0.290295 4.03658 0
M  V30 7158 H 713.504 -0.684603 3.05011 0
M  V30 7159 H 712.724 1.75431 3.53012 0
M  V30 7160 H 714.012 1.83614 4.74514 0
M  V30 7161 H 713.41 -1.24994 5.51718 0
M  V30 7162 H 711.967 -1.06283 6.43076 0
M  V30 7163 N 715.4 -1.26948 0.933913 0
M  V30 7164 C 716.816 -1.46419 0.635103 0
M  V30 7165 C 717.016 -1.84336 -0.813785 0
M  V30 7166 O 716.072 -1.96061 -1.59111 0
M  V30 7167 C 717.385 -2.55206 1.5903 0
M  V30 7168 C 718.933 -2.69062 1.5992 0
M  V30 7169 C 719.408 -3.81013 2.54152 0
M  V30 7170 N 720.899 -3.88395 2.52395 0
M  V30 7171 C 721.634 -4.74454 3.21996 0
M  V30 7172 N 721.13 -5.64954 4.00997 0
M  V30 7173 N 722.923 -4.68237 3.10983 0
M  V30 7174 H 715.074 -1.00622 1.87053 0
M  V30 7175 H 717.337 -0.503189 0.803433 0
M  V30 7176 H 717.043 -2.34153 2.62422 0
M  V30 7177 H 716.917 -3.52719 1.33677 0
M  V30 7178 H 719.304 -2.89492 0.572569 0
M  V30 7179 H 719.385 -1.72016 1.89325 0
M  V30 7180 H 719.029 -3.61336 3.5693 0
M  V30 7181 H 718.959 -4.77499 2.22041 0
M  V30 7182 H 721.45 -3.23687 1.95025 0
M  V30 7183 H 721.763 -6.27496 4.51074 0
M  V30 7184 H 720.108 -5.6473 4.05099 0
M  V30 7185 H 723.299 -3.96535 2.48753 0
M  V30 7186 H 723.472 -5.35087 3.65494 0
M  V30 7187 N 716.879 -0.700114 -1.41195 0
M  V30 7188 C 718.107 -0.242179 -2.05478 0
M  V30 7189 C 718.522 1.11029 -1.52702 0
M  V30 7190 O 717.879 1.69473 -0.677127 0
M  V30 7191 C 717.93 -0.196271 -3.60967 0
M  V30 7192 O 717.651 -1.49532 -4.11791 0
M  V30 7193 C 719.152 0.282102 -4.42401 0
M  V30 7194 H 716.372 -0.111749 -0.661629 0
M  V30 7195 H 718.916 -0.953975 -1.80885 0
M  V30 7196 H 717.071 0.46638 -3.84582 0
M  V30 7197 H 717.485 -1.38545 -5.05871 0
M  V30 7198 H 718.959 0.263093 -5.51373 0
M  V30 7199 H 719.436 1.32174 -4.1884 0
M  V30 7200 H 720.042 -0.349712 -4.2386 0
M  V30 7201 N 718.357 1.51182 -0.445186 0
M  V30 7202 C 719.603 2.02452 0.11882 0
M  V30 7203 C 719.936 1.32824 1.41673 0
M  V30 7204 O 719.211 0.445637 1.89326 0
M  V30 7205 C 719.494 3.5859 0.329475 0
M  V30 7206 C 719.347 4.38823 -0.987638 0
M  V30 7207 C 720.666 4.26241 1.09575 0
M  V30 7208 H 717.785 0.735819 0.0417092 0
M  V30 7209 H 720.427 1.80747 -0.585718 0
M  V30 7210 H 718.577 3.77214 0.9296 0
M  V30 7211 H 720.249 4.3183 -1.62235 0
M  V30 7212 H 718.492 4.03594 -1.59041 0
M  V30 7213 H 719.163 5.46257 -0.794192 0
M  V30 7214 H 721.639 4.11934 0.587328 0
M  V30 7215 H 720.515 5.35354 1.21191 0
M  V30 7216 H 720.776 3.87635 2.12584 0
M  V30 7217 N 719.835 0.176821 1.56605 0
M  V30 7218 C 721.084 -0.466833 1.96223 0
M  V30 7219 C 721.397 -1.64015 1.06576 0
M  V30 7220 O 722.603 -2.3504 1.35898 0
M  V30 7221 C 721.059 -0.881921 3.48927 0
M  V30 7222 C 720.667 0.266102 4.47209 0
M  V30 7223 C 722.411 -1.49368 3.97353 0
M  V30 7224 C 720.318 -0.168923 5.91159 0
M  V30 7225 H 719.248 -0.178178 0.732645 0
M  V30 7226 H 721.899 0.265929 1.81563 0
M  V30 7227 H 720.281 -1.67082 3.59026 0
M  V30 7228 H 721.455 1.04349 4.4883 0
M  V30 7229 H 719.77 0.788178 4.08872 0
M  V30 7230 H 722.367 -1.8313 5.02362 0
M  V30 7231 H 722.71 -2.3936 3.40606 0
M  V30 7232 H 723.243 -0.769114 3.90294 0
M  V30 7233 H 719.982 0.696351 6.51791 0
M  V30 7234 H 719.502 -0.911552 5.92833 0
M  V30 7235 H 721.181 -0.610938 6.44109 0
M  V30 7236 N 721.313 -1.57302 -0.09688 0
M  V30 7237 C 722.56 -1.85997 -0.800699 0
M  V30 7238 C 722.888 -0.765089 -1.7882 0
M  V30 7239 O 722.143 0.241492 -1.94204 0
M  V30 7240 C 722.442 -3.21272 -1.56586 0
M  V30 7241 C 722.108 -4.45104 -0.72064 0
M  V30 7242 C 720.77 -4.78723 -0.487632 0
M  V30 7243 C 723.122 -5.2103 -0.132948 0
M  V30 7244 C 720.45 -5.85697 0.34296 0
M  V30 7245 C 722.802 -6.28881 0.684957 0
M  V30 7246 C 721.466 -6.61017 0.928073 0
M  V30 7247 H 720.736 -0.680613 -0.292997 0
M  V30 7248 H 723.383 -1.91399 -0.0622474 0
M  V30 7249 H 721.688 -3.11547 -2.37583 0
M  V30 7250 H 723.385 -3.40702 -2.11478 0
M  V30 7251 H 719.975 -4.18777 -0.912359 0
M  V30 7252 H 724.159 -4.95392 -0.300132 0
M  V30 7253 H 719.415 -6.09008 0.540317 0
M  V30 7254 H 723.589 -6.86886 1.14721 0
M  V30 7255 H 721.216 -7.43738 1.57348 0
M  V30 7256 N 722.791 0.367657 -1.53252 0
M  V30 7257 C 724.04 1.10782 -1.68554 0
M  V30 7258 C 724.353 1.90523 -0.442765 0
M  V30 7259 O 725.559 2.6729 -0.47629 0
M  V30 7260 C 724.015 2.01863 -2.97959 0
M  V30 7261 C 723.623 1.27443 -4.29491 0
M  V30 7262 C 725.367 2.75883 -3.22628 0
M  V30 7263 C 723.274 2.17414 -5.49987 0
M  V30 7264 H 722.204 0.417272 -0.628013 0
M  V30 7265 H 724.855 0.368971 -1.79752 0
M  V30 7266 H 723.237 2.7947 -2.80558 0
M  V30 7267 H 724.411 0.549138 -4.57516 0
M  V30 7268 H 722.726 0.652935 -4.11249 0
M  V30 7269 H 725.323 3.43421 -4.09837 0
M  V30 7270 H 725.666 3.41138 -2.38601 0
M  V30 7271 H 726.199 2.0536 -3.40693 0
M  V30 7272 H 722.938 1.5674 -6.36485 0
M  V30 7273 H 722.458 2.87799 -5.26243 0
M  V30 7274 H 724.137 2.77019 -5.84696 0
M  V30 7275 N 724.269 1.44576 0.627338 0
M  V30 7276 C 725.217 1.52039 1.76031 0
M  V30 7277 C 726.211 0.391796 1.64807 0
M  V30 7278 O 727.417 0.5669 1.7084 0
M  V30 7279 H 723.792 0.477165 0.581221 0
M  V30 7280 H 725.763 2.47387 1.6686 0
M  V30 7281 C 724.512 1.48539 3.14375 0
M  V30 7282 H 723.835 2.34699 3.23661 0
M  V30 7283 H 725.275 1.57821 3.93534 0
M  V30 7284 C 723.734 0.20672 3.36265 0
M  V30 7285 O 724.264 -0.72154 3.95167 0
M  V30 7286 N 722.47 0.108654 2.90397 0
M  V30 7287 H 722.017 0.864884 2.42647 0
M  V30 7288 H 721.975 -0.746121 3.05418 0
M  V30 7289 N 725.747 -0.868086 1.31537 0
M  V30 7290 C 726.71 -1.95703 1.19302 0
M  V30 7291 C 727.71 -1.60355 0.119612 0
M  V30 7292 O 728.9 -1.70247 0.36902 0
M  V30 7293 C 726.032 -3.30599 0.831684 0
M  V30 7294 H 727.225 -2.07982 2.16064 0
M  V30 7295 H 724.778 -1.05661 1.15176 0
M  V30 7296 H 725.513 -3.2402 -0.134694 0
M  V30 7297 H 725.298 -3.57629 1.60761 0
M  V30 7298 H 726.788 -4.10439 0.770026 0
M  V30 7299 N 727.225 -1.14528 -1.08264 0
M  V30 7300 C 728.157 -0.791325 -2.15106 0
M  V30 7301 C 729.17 0.192449 -1.61659 0
M  V30 7302 O 730.359 -0.0294704 -1.78476 0
M  V30 7303 C 727.459 -0.154183 -3.38549 0
M  V30 7304 C 726.632 -1.17305 -4.21377 0
M  V30 7305 C 725.691 -0.559401 -5.23218 0
M  V30 7306 O 724.717 -1.22277 -5.55911 0
M  V30 7307 N 725.919 0.663159 -5.767 0
M  V30 7308 H 728.684 -1.71076 -2.46075 0
M  V30 7309 H 726.245 -1.0399 -1.24087 0
M  V30 7310 H 728.237 0.268884 -4.03806 0
M  V30 7311 H 726.807 0.668418 -3.0537 0
M  V30 7312 H 726.027 -1.773 -3.52077 0
M  V30 7313 H 727.315 -1.86128 -4.73533 0
M  V30 7314 H 726.713 1.22066 -5.52373 0
M  V30 7315 H 725.27 1.02871 -6.43631 0
M  V30 7316 N 728.703 1.26451 -0.940633 0
M  V30 7317 C 729.931 1.97868 -0.604642 0
M  V30 7318 C 730.346 1.70051 0.820251 0
M  V30 7319 O 729.703 0.96843 1.54686 0
M  V30 7320 C 729.754 3.51684 -0.836689 0
M  V30 7321 O 729.475 3.78533 -2.20554 0
M  V30 7322 C 730.976 4.40343 -0.511169 0
M  V30 7323 H 728.196 0.631105 -0.227919 0
M  V30 7324 H 730.74 1.60979 -1.26119 0
M  V30 7325 H 728.895 3.86736 -0.226759 0
M  V30 7326 H 729.309 4.73065 -2.26517 0
M  V30 7327 H 730.783 5.47229 -0.724157 0
M  V30 7328 H 731.26 4.35694 0.553815 0
M  V30 7329 H 731.866 4.10834 -1.0998 0
M  V30 7330 N 730.181 0.707592 1.40822 0
M  V30 7331 C 731.113 0.0105968 2.29198 0
M  V30 7332 C 732.126 -0.732035 1.45414 0
M  V30 7333 O 733.315 -0.580741 1.68789 0
M  V30 7334 C 730.415 -1.00921 3.23525 0
M  V30 7335 C 729.588 -0.333747 4.36125 0
M  V30 7336 C 728.647 -1.25783 5.10945 0
M  V30 7337 O 727.673 -0.745646 5.64295 0
M  V30 7338 N 728.875 -2.58947 5.19545 0
M  V30 7339 H 731.64 0.76938 2.89656 0
M  V30 7340 H 729.201 0.554579 1.52105 0
M  V30 7341 H 731.193 -1.6294 3.70449 0
M  V30 7342 H 729.763 -1.66942 2.6429 0
M  V30 7343 H 728.983 0.466518 3.9143 0
M  V30 7344 H 730.271 0.135444 5.0862 0
M  V30 7345 H 729.669 -3.03065 4.7767 0
M  V30 7346 H 728.226 -3.16131 5.70004 0
M  V30 7347 N 731.66 -1.50943 0.453197 0
M  V30 7348 C 732.885 -2.07116 -0.108463 0
M  V30 7349 C 733.31 -1.31681 -1.3432 0
M  V30 7350 O 732.668 -0.359256 -1.77705 0
M  V30 7351 C 732.716 -3.58447 -0.393424 0
M  V30 7352 O 731.82 -3.85038 -1.47714 0
M  V30 7353 H 731.161 -0.66398 0.0050993 0
M  V30 7354 H 733.691 -1.94362 0.639095 0
M  V30 7355 H 733.701 -4.02961 -0.639222 0
M  V30 7356 H 732.376 -4.12774 0.508946 0
M  V30 7357 H 730.953 -3.52376 -1.22006 0
M  V30 7358 N 733.138 -0.185124 -1.56509 0
M  V30 7359 C 734.386 0.455357 -1.96903 0
M  V30 7360 C 734.707 1.62839 -1.07277 0
M  V30 7361 O 733.977 1.95385 -0.141966 0
M  V30 7362 H 732.557 0.171218 -0.727113 0
M  V30 7363 H 735.219 -0.26953 -1.93027 0
M  V30 7364 H 734.315 0.80616 -3.01509 0
M  V30 7365 N 734.616 1.57351 0.0885366 0
M  V30 7366 C 735.548 1.99221 1.13329 0
M  V30 7367 C 736.561 0.895705 1.35945 0
M  V30 7368 O 737.75 1.17376 1.34481 0
M  V30 7369 C 734.85 2.3016 2.48756 0
M  V30 7370 C 734.023 3.61444 2.46327 0
M  V30 7371 C 733.082 3.80244 3.63732 0
M  V30 7372 O 732.108 4.52024 3.45924 0
M  V30 7373 N 733.31 3.2132 4.8346 0
M  V30 7374 H 736.075 2.89456 0.776862 0
M  V30 7375 H 733.636 1.59505 0.277428 0
M  V30 7376 H 735.628 2.39925 3.25911 0
M  V30 7377 H 734.198 1.459 2.76464 0
M  V30 7378 H 733.418 3.62588 1.54673 0
M  V30 7379 H 734.706 4.47678 2.41789 0
M  V30 7380 H 734.104 2.63028 5.00832 0
M  V30 7381 H 732.661 3.3656 5.58185 0
M  V30 7382 N 736.094 -0.359525 1.53444 0
M  V30 7383 C 737.371 -1.11756 1.6053 0
M  V30 7384 C 737.751 -2.06949 0.416587 0
M  V30 7385 O 737.099 -2.20681 -0.592628 0
M  V30 7386 C 737.309 -1.85133 2.95849 0
M  V30 7387 C 738.657 -2.3945 3.50641 0
M  V30 7388 O 739.681 -1.95251 2.97918 0
M  V30 7389 O 738.54 -3.20266 4.42823 0
M  V30 7390 H 735.634 -0.513005 0.648656 0
M  V30 7391 H 738.18 -0.362301 1.65787 0
M  V30 7392 H 736.952 -1.15694 3.73806 0
M  V30 7393 H 736.575 -2.67554 2.9411 0
M  V30 7394 N 737.572 -1.44907 -0.619662 0
M  V30 7395 C 738.505 -1.47133 -1.74434 0
M  V30 7396 C 739.483 -0.328933 -1.59238 0
M  V30 7397 O 740.667 -0.527632 -1.80965 0
M  V30 7398 C 737.794 -1.31491 -3.12134 0
M  V30 7399 C 736.84 -2.49441 -3.4595 0
M  V30 7400 S 737.673 -4.11945 -3.42142 0
M  V30 7401 C 738.829 -3.98747 -4.82443 0
M  V30 7402 H 739.062 -2.42295 -1.7228 0
M  V30 7403 H 736.595 -1.32343 -0.795276 0
M  V30 7404 H 738.553 -1.23153 -3.91591 0
M  V30 7405 H 737.214 -0.378203 -3.11815 0
M  V30 7406 H 736.407 -2.3439 -4.46181 0
M  V30 7407 H 736.009 -2.54577 -2.73982 0
M  V30 7408 H 738.301 -3.63145 -5.71954 0
M  V30 7409 H 739.244 -4.98848 -5.0255 0
M  V30 7410 H 739.652 -3.30608 -4.57557 0
M  V30 7411 N 739.05 0.861098 -1.31996 0
M  V30 7412 C 740.297 1.61481 -1.22188 0
M  V30 7413 C 740.625 1.93276 0.217853 0
M  V30 7414 O 739.88 1.56942 1.16909 0
M  V30 7415 C 740.179 2.94822 -2.02027 0
M  V30 7416 C 739.845 2.82483 -3.51446 0
M  V30 7417 C 738.507 2.78825 -3.92186 0
M  V30 7418 C 740.859 2.68878 -4.46491 0
M  V30 7419 C 738.187 2.59433 -5.26224 0
M  V30 7420 C 740.539 2.51022 -5.80664 0
M  V30 7421 C 739.203 2.45753 -6.20614 0
M  V30 7422 H 738.473 0.590902 -0.447119 0
M  V30 7423 H 741.12 0.999376 -1.63355 0
M  V30 7424 H 739.425 3.6045 -1.53569 0
M  V30 7425 H 741.122 3.52149 -1.91812 0
M  V30 7426 H 737.712 2.86152 -3.19085 0
M  V30 7427 H 741.896 2.70754 -4.1594 0
M  V30 7428 H 737.152 2.53784 -5.5624 0
M  V30 7429 H 741.326 2.39473 -6.53931 0
M  V30 7430 H 738.953 2.30485 -7.24417 0
M  V30 7431 N 740.528 1.15101 1.07655 0
M  V30 7432 C 741.777 0.918528 1.79572 0
M  V30 7433 C 742.09 -0.555922 1.87534 0
M  V30 7434 O 743.296 -0.905893 2.55941 0
M  V30 7435 C 741.752 1.59394 3.22679 0
M  V30 7436 C 741.36 3.1052 3.22927 0
M  V30 7437 C 743.104 1.44289 3.99225 0
M  V30 7438 C 741.011 3.70862 4.60668 0
M  V30 7439 H 739.941 0.340006 0.672987 0
M  V30 7440 H 742.592 1.38079 1.20857 0
M  V30 7441 H 740.974 1.05936 3.81567 0
M  V30 7442 H 742.148 3.70708 2.737 0
M  V30 7443 H 740.463 3.25351 2.59876 0
M  V30 7444 H 743.06 1.86766 5.01022 0
M  V30 7445 H 743.403 0.389975 4.14469 0
M  V30 7446 H 743.936 1.94826 3.46825 0
M  V30 7447 H 740.675 4.7604 4.50628 0
M  V30 7448 H 740.195 3.15456 5.10145 0
M  V30 7449 H 741.874 3.71607 5.29639 0
M  V30 7450 N 742.006 -1.2595 0.947325 0
M  V30 7451 C 743.422 -1.45737 0.650597 0
M  V30 7452 C 743.622 -1.85189 -0.794188 0
M  V30 7453 O 742.678 -1.97738 -1.57022 0
M  V30 7454 C 743.991 -2.53505 1.61728 0
M  V30 7455 C 745.539 -2.67351 1.62765 0
M  V30 7456 C 746.014 -3.78296 2.58179 0
M  V30 7457 N 747.505 -3.85696 2.56501 0
M  V30 7458 C 748.24 -4.71012 3.2701 0
M  V30 7459 N 747.736 -5.60669 4.06966 0
M  V30 7460 N 749.529 -4.64912 3.15932 0
M  V30 7461 H 741.68 -0.986327 1.8811 0
M  V30 7462 H 743.943 -0.494639 0.808725 0
M  V30 7463 H 743.649 -2.31357 2.6489 0
M  V30 7464 H 743.523 -3.51281 1.3741 0
M  V30 7465 H 745.91 -2.88869 0.603241 0
M  V30 7466 H 745.991 -1.69998 1.91139 0
M  V30 7467 H 745.635 -3.5753 3.60742 0
M  V30 7468 H 745.565 -4.75117 2.27093 0
M  V30 7469 H 748.056 -3.21601 1.98447 0
M  V30 7470 H 748.369 -6.22677 4.57704 0
M  V30 7471 H 746.714 -5.60402 4.11066 0
M  V30 7472 H 749.905 -3.93874 2.52945 0
M  V30 7473 H 750.078 -5.3118 3.71149 0
M  V30 7474 N 743.484 -0.715051 -1.40445 0
M  V30 7475 C 744.732 -0.253826 -2.005 0
M  V30 7476 C 745.053 1.15681 -1.5698 0
M  V30 7477 O 744.323 1.78414 -0.809027 0
M  V30 7478 H 742.903 -0.0908537 -0.741454 0
M  V30 7479 H 745.565 -0.920561 -1.7179 0
M  V30 7480 H 744.661 -0.286499 -3.10782 0
M  V30 7481 N 744.962 1.50701 -0.461195 0
M  V30 7482 C 746.21 2.01867 0.0970051 0
M  V30 7483 C 746.531 1.34591 1.41104 0
M  V30 7484 O 745.801 0.488041 1.89723 0
M  V30 7485 H 744.381 0.74599 0.0388392 0
M  V30 7486 H 747.043 1.85129 -0.609357 0
M  V30 7487 H 746.139 3.11051 0.255688 0
M  V30 7488 N 746.441 0.193421 1.56409 0
M  V30 7489 C 747.69 -0.445995 1.96707 0
M  V30 7490 C 748.003 -1.62876 1.08309 0
M  V30 7491 O 749.209 -2.33586 1.38383 0
M  V30 7492 C 747.665 -0.844863 3.49843 0
M  V30 7493 C 747.273 0.31352 4.46902 0
M  V30 7494 C 749.017 -1.45146 3.98915 0
M  V30 7495 C 746.924 -0.106214 5.91305 0
M  V30 7496 H 745.854 -0.170398 0.734493 0
M  V30 7497 H 748.505 0.285172 1.81271 0
M  V30 7498 H 746.887 -1.63265 3.60778 0
M  V30 7499 H 748.061 1.09103 4.47698 0
M  V30 7500 H 746.376 0.8315 4.08014 0
M  V30 7501 H 748.973 -1.77792 5.04276 0
M  V30 7502 H 749.316 -2.35734 3.43126 0
M  V30 7503 H 749.849 -0.727675 3.91088 0
M  V30 7504 H 746.588 0.765442 6.51016 0
M  V30 7505 H 746.108 -0.848623 5.93766 0
M  V30 7506 H 747.787 -0.542588 6.44721 0
M  V30 7507 N 747.919 -1.57396 -0.0801906 0
M  V30 7508 C 749.196 -1.77883 -0.813451 0
M  V30 7509 C 749.576 -0.778879 -1.96206 0
M  V30 7510 O 748.924 0.189683 -2.27711 0
M  V30 7511 C 749.134 -3.24116 -1.2942 0
M  V30 7512 C 750.482 -3.87714 -1.73098 0
M  V30 7513 O 751.506 -3.27956 -1.39007 0
M  V30 7514 O 750.365 -4.92828 -2.36184 0
M  V30 7515 H 747.459 -0.729727 -0.389138 0
M  V30 7516 H 750.005 -1.69591 -0.0609166 0
M  V30 7517 H 748.777 -3.88443 -0.471947 0
M  V30 7518 H 748.4 -3.371 -2.1083 0
M  V30 7519 N 749.397 0.351382 -1.53633 0
M  V30 7520 C 750.347 1.4316 -1.77452 0
M  V30 7521 C 751.331 1.48076 -0.62946 0
M  V30 7522 O 752.523 1.53078 -0.888599 0
M  V30 7523 C 749.652 2.80409 -1.98055 0
M  V30 7524 C 748.738 2.79915 -3.18604 0
M  V30 7525 N 749.129 2.49057 -4.40232 0
M  V30 7526 C 747.427 3.11067 -3.19614 0
M  V30 7527 C 748.128 2.566 -5.22045 0
M  V30 7528 N 747.104 2.919 -4.5858 0
M  V30 7529 H 750.906 1.18188 -2.69089 0
M  V30 7530 H 748.42 0.559684 -1.52451 0
M  V30 7531 H 750.417 3.58231 -2.13251 0
M  V30 7532 H 749.077 3.06334 -1.07655 0
M  V30 7533 H 750.088 2.22395 -4.67719 0
M  V30 7534 H 746.765 3.42215 -2.39154 0
M  V30 7535 H 748.155 2.35968 -6.29101 0
M  V30 7536 N 750.875 1.45233 0.611969 0
M  V30 7537 C 751.838 1.53189 1.70487 0
M  V30 7538 C 752.838 0.411839 1.55437 0
M  V30 7539 O 754.028 0.675164 1.60584 0
M  V30 7540 C 751.16 1.42422 3.09723 0
M  V30 7541 H 752.353 2.5056 1.64802 0
M  V30 7542 H 749.906 1.32609 0.827318 0
M  V30 7543 H 750.641 0.462185 3.2099 0
M  V30 7544 H 750.426 2.23658 3.22055 0
M  V30 7545 H 751.916 1.51012 3.89339 0
M  V30 7546 N 752.353 -0.854086 1.3245 0
M  V30 7547 C 753.583 -1.63836 1.25862 0
M  V30 7548 C 753.991 -1.88383 -0.175588 0
M  V30 7549 O 753.334 -1.45353 -1.1233 0
M  V30 7550 C 753.396 -3.02068 1.94923 0
M  V30 7551 C 753.06 -3.0056 3.44257 0
M  V30 7552 C 754.057 -2.77368 4.39731 0
M  V30 7553 C 751.742 -3.21177 3.862 0
M  V30 7554 C 753.736 -2.74797 5.75122 0
M  V30 7555 C 751.423 -3.18234 5.217 0
M  V30 7556 C 752.421 -2.95072 6.15972 0
M  V30 7557 O 752.109 -2.92003 7.48992 0
M  V30 7558 H 751.841 -0.517007 0.435523 0
M  V30 7559 H 754.395 -1.07314 1.75137 0
M  V30 7560 H 752.625 -3.60382 1.40219 0
M  V30 7561 H 754.314 -3.62791 1.82037 0
M  V30 7562 H 755.08 -2.61205 4.08653 0
M  V30 7563 H 750.959 -3.38231 3.13243 0
M  V30 7564 H 754.503 -2.56638 6.48678 0
M  V30 7565 H 750.4 -3.33941 5.52407 0
M  V30 7566 H 751.168 -3.07953 7.58358 0
M  V30 7567 N 753.831 -1.1567 -1.07043 0
M  V30 7568 C 754.794 -0.858906 -2.12498 0
M  V30 7569 C 755.794 0.142735 -1.60165 0
M  V30 7570 O 756.984 -0.0872678 -1.73981 0
M  V30 7571 C 754.116 -0.283021 -3.39723 0
M  V30 7572 H 755.309 -1.79368 -2.40348 0
M  V30 7573 H 752.862 -0.964608 -1.22984 0
M  V30 7574 H 753.597 0.659796 -3.17517 0
M  V30 7575 H 753.382 -1.00467 -3.7901 0
M  V30 7576 H 754.872 -0.0923543 -4.17498 0
M  V30 7577 N 755.309 1.25446 -0.953992 0
M  V30 7578 C 756.257 2.27909 -0.46478 0
M  V30 7579 C 757.251 1.62904 0.464607 0
M  V30 7580 O 758.457 1.76733 0.341407 0
M  V30 7581 H 754.832 0.74036 -0.131798 0
M  V30 7582 H 756.803 2.66559 -1.34122 0
M  V30 7583 C 755.552 3.46853 0.242589 0
M  V30 7584 H 754.875 3.97105 -0.463418 0
M  V30 7585 H 756.315 4.20432 0.548919 0
M  V30 7586 C 754.774 3.03386 1.46487 0
M  V30 7587 O 755.304 3.09342 2.56262 0
M  V30 7588 N 753.51 2.58584 1.32599 0
M  V30 7589 H 753.057 2.53938 0.432834 0
M  V30 7590 H 753.015 2.29866 2.14497 0
M  V30 7591 N 756.787 0.722489 1.40064 0
M  V30 7592 C 757.75 0.0830209 2.2905 0
M  V30 7593 C 758.75 -0.680208 1.45705 0
M  V30 7594 O 759.94 -0.511084 1.66534 0
M  V30 7595 C 757.072 -0.892092 3.29021 0
M  V30 7596 H 758.265 0.866848 2.87099 0
M  V30 7597 H 755.818 0.487556 1.48501 0
M  V30 7598 H 756.553 -1.70273 2.76003 0
M  V30 7599 H 756.338 -0.34761 3.90556 0
M  V30 7600 H 757.828 -1.33648 3.95636 0
M  V30 7601 N 758.265 -1.50454 0.469181 0
M  V30 7602 C 759.213 -2.30101 -0.340033 0
M  V30 7603 C 760.207 -1.37306 -0.992135 0
M  V30 7604 O 761.413 -1.54506 -0.923458 0
M  V30 7605 H 757.788 -0.740941 -0.128495 0
M  V30 7606 H 759.759 -2.96315 0.352144 0
M  V30 7607 C 758.508 -3.17804 -1.41052 0
M  V30 7608 H 757.831 -3.89115 -0.918124 0
M  V30 7609 H 759.271 -3.76533 -1.94934 0
M  V30 7610 C 757.73 -2.35272 -2.4114 0
M  V30 7611 O 758.26 -2.03448 -3.4637 0
M  V30 7612 N 756.466 -1.97889 -2.1281 0
M  V30 7613 H 756.013 -2.2397 -1.27261 0
M  V30 7614 H 755.971 -1.42971 -2.80012 0
M  V30 7615 N 759.743 -0.201713 -1.56304 0
M  V30 7616 C 760.673 0.71155 -2.22394 0
M  V30 7617 C 761.654 1.21625 -1.18917 0
M  V30 7618 O 762.839 1.26388 -1.47444 0
M  V30 7619 C 759.969 1.92837 -2.88845 0
M  V30 7620 C 758.923 1.55831 -3.98623 0
M  V30 7621 C 758.249 2.85228 -4.52271 0
M  V30 7622 C 759.549 0.763249 -5.16693 0
M  V30 7623 H 761.243 0.160573 -2.98969 0
M  V30 7624 H 758.789 0.0757916 -1.438 0
M  V30 7625 H 760.742 2.57253 -3.33764 0
M  V30 7626 H 759.466 2.50398 -2.09686 0
M  V30 7627 H 758.125 0.9377 -3.54405 0
M  V30 7628 H 757.773 3.40893 -3.69866 0
M  V30 7629 H 757.473 2.6121 -5.26349 0
M  V30 7630 H 758.997 3.50622 -4.99897 0
M  V30 7631 H 760.411 1.31066 -5.58117 0
M  V30 7632 H 758.808 0.620935 -5.96879 0
M  V30 7633 H 759.878 -0.234322 -4.84334 0
M  V30 7634 N 761.222 1.57436 0.0718424 0
M  V30 7635 C 762.47 1.86878 0.769484 0
M  V30 7636 C 762.791 0.7937 1.78116 0
M  V30 7637 O 762.061 -0.177642 1.95093 0
M  V30 7638 H 760.641 0.689593 0.287177 0
M  V30 7639 H 763.303 1.94841 0.0479427 0
M  V30 7640 H 762.399 2.84387 1.28572 0
M  V30 7641 N 762.7 -0.34323 1.53817 0
M  V30 7642 C 764.116 -0.686355 1.44088 0
M  V30 7643 C 764.316 -1.92426 0.597882 0
M  V30 7644 O 763.372 -2.52343 0.0889918 0
M  V30 7645 C 764.685 -0.878698 2.87575 0
M  V30 7646 C 766.233 -0.977296 2.97352 0
M  V30 7647 C 766.708 -1.20195 4.41947 0
M  V30 7648 N 768.199 -1.26915 4.45474 0
M  V30 7649 C 768.934 -1.46049 5.54488 0
M  V30 7650 N 768.43 -1.62354 6.73508 0
M  V30 7651 N 770.223 -1.48599 5.42102 0
M  V30 7652 H 762.374 0.470679 2.07119 0
M  V30 7653 H 764.637 0.148652 0.936273 0
M  V30 7654 H 764.343 -0.040602 3.51677 0
M  V30 7655 H 764.217 -1.78034 3.32541 0
M  V30 7656 H 766.604 -1.80591 2.3339 0
M  V30 7657 H 766.685 -0.0525498 2.55746 0
M  V30 7658 H 766.329 -0.378262 5.06489 0
M  V30 7659 H 766.259 -2.14027 4.81145 0
M  V30 7660 H 768.75 -1.15837 3.59708 0
M  V30 7661 H 769.063 -1.76591 7.52353 0
M  V30 7662 H 767.408 -1.5949 6.76453 0
M  V30 7663 H 770.599 -1.35443 4.48077 0
M  V30 7664 H 770.772 -1.6317 6.2712 0
M  V30 7665 N 764.178 -1.45556 -0.604258 0
M  V30 7666 C 765.126 -1.5482 -1.7359 0
M  V30 7667 C 766.12 -0.417966 -1.64163 0
M  V30 7668 O 767.326 -0.594007 -1.69916 0
M  V30 7669 H 763.701 -0.486352 -0.573556 0
M  V30 7670 H 765.672 -2.5001 -1.62903 0
M  V30 7671 C 764.421 -1.53521 -3.11972 0
M  V30 7672 H 763.744 -2.39818 -3.19886 0
M  V30 7673 H 765.184 -1.64061 -3.90973 0
M  V30 7674 C 763.643 -0.260191 -3.35894 0
M  V30 7675 O 764.173 0.658582 -3.96265 0
M  V30 7676 N 762.379 -0.154839 -2.90187 0
M  V30 7677 H 761.926 -0.903378 -2.4124 0
M  V30 7678 H 761.884 0.697437 -3.06567 0
M  V30 7679 N 765.656 0.84705 -1.32902 0
M  V30 7680 C 766.896 1.61554 -1.25218 0
M  V30 7681 C 767.26 1.91141 0.18143 0
M  V30 7682 O 768.461 2.6607 0.382106 0
M  V30 7683 C 766.732 2.89553 -2.09509 0
M  V30 7684 S 768.291 3.80283 -2.18931 0
M  V30 7685 H 765.109 0.554031 -0.445613 0
M  V30 7686 H 767.711 1.00251 -1.67839 0
M  V30 7687 H 766.415 2.65776 -3.12716 0
M  V30 7688 H 765.946 3.55868 -1.67694 0
M  V30 7689 H 767.961 4.77641 -1.34438 0
M  V30 7690 N 767.134 1.16236 1.06428 0
M  V30 7691 C 768.066 0.825446 2.1382 0
M  V30 7692 C 769.079 -0.166707 1.61944 0
M  V30 7693 O 770.268 0.0578606 1.78406 0
M  V30 7694 C 767.368 0.208023 3.38261 0
M  V30 7695 C 766.541 1.23994 4.19457 0
M  V30 7696 C 765.6 0.642569 5.22262 0
M  V30 7697 O 764.626 1.31106 5.53895 0
M  V30 7698 N 765.828 -0.571327 5.77682 0
M  V30 7699 H 768.593 1.7497 2.43322 0
M  V30 7700 H 766.154 1.05951 1.22417 0
M  V30 7701 H 768.146 -0.204608 4.04182 0
M  V30 7702 H 766.716 -0.619752 3.06395 0
M  V30 7703 H 765.936 1.82879 3.49212 0
M  V30 7704 H 767.224 1.93638 4.70512 0
M  V30 7705 H 766.622 -1.13263 5.54245 0
M  V30 7706 H 765.179 -0.926187 6.45186 0
M  V30 7707 N 768.612 -1.24939 0.960631 0
M  V30 7708 C 769.84 -1.96881 0.636045 0
M  V30 7709 C 770.255 -1.71334 -0.793093 0
M  V30 7710 O 769.612 -0.992917 -1.53125 0
M  V30 7711 C 769.663 -3.50309 0.892533 0
M  V30 7712 O 769.384 -3.74977 2.26548 0
M  V30 7713 C 770.885 -4.39474 0.581159 0
M  V30 7714 H 768.105 -0.627399 0.237931 0
M  V30 7715 H 770.649 -1.58952 1.28664 0
M  V30 7716 H 768.804 -3.86326 0.288257 0
M  V30 7717 H 769.218 -4.69401 2.34014 0
M  V30 7718 H 770.692 -5.46008 0.811125 0
M  V30 7719 H 771.169 -4.3652 -0.48443 0
M  V30 7720 H 771.775 -4.09032 1.16502 0
M  V30 7721 N 770.09 -0.729906 -1.39679 0
M  V30 7722 C 771.315 -0.284345 -2.05442 0
M  V30 7723 C 771.74 1.07056 -1.54663 0
M  V30 7724 O 771.098 1.67732 -0.688157 0
M  V30 7725 C 771.146 -0.290089 -3.59431 0
M  V30 7726 O 770.25 0.723978 -4.05995 0
M  V30 7727 H 769.591 -0.130311 -0.651088 0
M  V30 7728 H 772.121 -0.994403 -1.78809 0
M  V30 7729 H 772.131 -0.132712 -4.07784 0
M  V30 7730 H 770.806 -1.27877 -3.95753 0
M  V30 7731 H 769.383 0.533154 -3.69069 0
M  V30 7732 N 771.568 1.50203 -0.477153 0
M  V30 7733 C 772.516 2.30278 0.327826 0
M  V30 7734 C 773.51 1.37831 0.984839 0
M  V30 7735 O 774.716 1.54994 0.915251 0
M  V30 7736 H 771.091 0.741612 0.124564 0
M  V30 7737 H 773.062 2.96124 -0.367853 0
M  V30 7738 C 771.811 3.18548 1.39365 0
M  V30 7739 H 771.134 3.89596 0.897475 0
M  V30 7740 H 772.574 3.77561 1.92934 0
M  V30 7741 C 771.033 2.36548 2.39889 0
M  V30 7742 O 771.563 2.05282 3.45286 0
M  V30 7743 N 769.769 1.99015 2.11758 0
M  V30 7744 H 769.316 2.24641 1.26071 0
M  V30 7745 H 769.274 1.44454 2.7925 0
M  V30 7746 N 773.046 0.209999 1.56195 0
M  V30 7747 C 774.293 -0.424813 1.97994 0
M  V30 7748 C 774.621 -1.60589 1.09733 0
M  V30 7749 O 773.876 -1.95201 0.139693 0
M  V30 7750 C 774.175 -0.91312 3.45539 0
M  V30 7751 C 773.841 0.156187 4.50629 0
M  V30 7752 C 772.503 0.449966 4.79092 0
M  V30 7753 C 774.855 0.879959 5.13718 0
M  V30 7754 C 772.183 1.47223 5.67928 0
M  V30 7755 C 774.535 1.89148 6.0366 0
M  V30 7756 C 773.199 2.1923 6.30472 0
M  V30 7757 H 772.469 -0.15545 0.724511 0
M  V30 7758 H 775.116 0.310095 1.88973 0
M  V30 7759 H 773.421 -1.72658 3.51705 0
M  V30 7760 H 775.118 -1.41395 3.75245 0
M  V30 7761 H 771.708 -0.0829466 4.2852 0
M  V30 7762 H 775.892 0.66623 4.91808 0
M  V30 7763 H 771.148 1.71105 5.86969 0
M  V30 7764 H 775.322 2.45745 6.516 0
M  V30 7765 H 772.949 2.98587 6.99107 0
M  V30 7766 N 774.524 -1.57472 -0.0634922 0
M  V30 7767 C 775.434 -2.07621 -1.09227 0
M  V30 7768 C 776.45 -1.00746 -1.41867 0
M  V30 7769 O 777.626 -1.32269 -1.51878 0
M  V30 7770 C 774.691 -2.51707 -2.38421 0
M  V30 7771 C 773.752 -3.72917 -2.12676 0
M  V30 7772 C 772.985 -4.14891 -3.3571 0
M  V30 7773 O 773.208 -3.56663 -4.45137 0
M  V30 7774 O 772.142 -5.07616 -3.23434 0
M  V30 7775 H 775.968 -2.95612 -0.696205 0
M  V30 7776 H 773.553 -1.46787 -0.27819 0
M  V30 7777 H 775.435 -2.80547 -3.14438 0
M  V30 7778 H 774.11 -1.66842 -2.77391 0
M  V30 7779 H 773.017 -3.49148 -1.34337 0
M  V30 7780 H 774.35 -4.5866 -1.78583 0
M  V30 7781 N 776.003 0.335068 -1.53997 0
M  V30 7782 C 777.243 1.0827 -1.7337 0
M  V30 7783 C 777.607 1.85618 -0.490913 0
M  V30 7784 O 778.808 2.62864 -0.561799 0
M  V30 7785 C 777.079 1.99212 -2.96731 0
M  V30 7786 S 778.638 2.81083 -3.36954 0
M  V30 7787 H 775.456 0.365698 -0.609743 0
M  V30 7788 H 778.058 0.360079 -1.92155 0
M  V30 7789 H 776.762 1.41204 -3.85344 0
M  V30 7790 H 776.293 2.75898 -2.80436 0
M  V30 7791 H 778.308 4.01657 -2.91352 0
M  V30 7792 N 777.481 1.45874 0.596531 0
M  V30 7793 C 778.444 1.54988 1.68853 0
M  V30 7794 C 779.444 0.428302 1.54991 0
M  V30 7795 O 780.634 0.692158 1.59859 0
M  V30 7796 C 777.766 1.457 3.08195 0
M  V30 7797 H 778.959 2.52294 1.62135 0
M  V30 7798 H 776.512 1.33479 0.813206 0
M  V30 7799 H 777.247 0.496204 3.20481 0
M  V30 7800 H 777.032 2.27061 3.19665 0
M  V30 7801 H 778.522 1.55133 3.87716 0
M  V30 7802 N 778.959 -0.83999 1.33349 0
M  V30 7803 C 779.892 -1.95415 1.17848 0
M  V30 7804 C 780.87 -1.6243 0.0742296 0
M  V30 7805 O 782.054 -1.87014 0.23626 0
M  V30 7806 C 779.181 -3.28938 0.807295 0
M  V30 7807 C 778.227 -3.80895 1.91888 0
M  V30 7808 S 779.06 -4.02709 3.52967 0
M  V30 7809 C 780.216 -5.39185 3.17853 0
M  V30 7810 H 780.449 -2.08265 2.12162 0
M  V30 7811 H 777.982 -0.993643 1.18178 0
M  V30 7812 H 779.94 -4.06093 0.599914 0
M  V30 7813 H 778.601 -3.13881 -0.117234 0
M  V30 7814 H 777.794 -4.77508 1.6125 0
M  V30 7815 H 777.396 -3.10633 2.08286 0
M  V30 7816 H 779.688 -6.21978 2.68608 0
M  V30 7817 H 780.631 -5.74795 4.13542 0
M  V30 7818 H 781.039 -5.03885 2.5448 0
M  V30 7819 N 780.437 -1.16799 -1.0581 0
M  V30 7820 C 781.848 -0.95945 -1.60161 0
M  V30 7821 C 782.199 0.49543 -1.89842 0
M  V30 7822 O 781.324 1.36957 -1.67546 0
M  V30 7823 C 781.919 -1.73527 -2.90987 0
M  V30 7824 C 780.478 -1.57158 -3.42021 0
M  V30 7825 C 779.625 -1.74089 -2.15843 0
M  V30 7826 H 782.576 -1.31598 -0.886992 0
M  V30 7827 H 782.597 -1.21397 -3.60615 0
M  V30 7828 H 782.109 -2.79411 -2.69353 0
M  V30 7829 H 780.21 -0.537361 -3.68705 0
M  V30 7830 H 780.323 -2.35858 -4.17022 0
M  V30 7831 H 778.687 -1.16874 -2.26302 0
M  V30 7832 H 779.47 -2.81371 -1.96686 0
M  V30 7833 N 781.915 1.24427 -0.967243 0
M  V30 7834 C 783.164 1.91789 -0.624478 0
M  V30 7835 C 783.477 1.76448 0.844129 0
M  V30 7836 O 784.683 2.38495 1.2974 0
M  V30 7837 C 783.139 3.43743 -1.06626 0
M  V30 7838 C 782.747 3.67771 -2.55829 0
M  V30 7839 C 784.491 4.16958 -0.79662 0
M  V30 7840 C 782.398 5.13293 -2.93742 0
M  V30 7841 H 781.328 0.71811 -0.229856 0
M  V30 7842 H 783.979 1.41081 -1.17339 0
M  V30 7843 H 782.361 3.93484 -0.445663 0
M  V30 7844 H 783.535 3.28631 -3.23015 0
M  V30 7845 H 781.85 3.07841 -2.80398 0
M  V30 7846 H 784.447 5.24171 -1.05589 0
M  V30 7847 H 784.79 4.15442 0.267163 0
M  V30 7848 H 785.323 3.73164 -1.37816 0
M  V30 7849 H 782.062 5.19931 -3.9919 0
M  V30 7850 H 781.582 5.53433 -2.3124 0
M  V30 7851 H 783.261 5.81521 -2.83623 0
M  V30 7852 N 783.393 0.737304 1.3929 0
M  V30 7853 C 784.809 0.413132 1.5416 0
M  V30 7854 C 785.009 -1.07574 1.70382 0
M  V30 7855 O 784.065 -1.86185 1.70562 0
M  V30 7856 C 785.378 1.19817 2.75798 0
M  V30 7857 C 786.926 1.18662 2.89635 0
M  V30 7858 C 787.401 1.95427 4.14213 0
M  V30 7859 N 788.892 1.92605 4.21257 0
M  V30 7860 C 789.627 2.48808 5.16606 0
M  V30 7861 N 789.123 3.13659 6.1773 0
M  V30 7862 N 790.916 2.38829 5.08839 0
M  V30 7863 H 783.067 1.70243 1.27008 0
M  V30 7864 H 785.33 0.720802 0.61575 0
M  V30 7865 H 785.036 2.25179 2.70161 0
M  V30 7866 H 784.91 0.804144 3.68529 0
M  V30 7867 H 787.297 0.141112 2.94762 0
M  V30 7868 H 787.378 1.62003 1.97961 0
M  V30 7869 H 787.022 2.9998 4.09847 0
M  V30 7870 H 786.952 1.4949 5.04936 0
M  V30 7871 H 789.443 1.45362 3.48824 0
M  V30 7872 H 789.756 3.54006 6.8695 0
M  V30 7873 H 788.101 3.17749 6.1811 0
M  V30 7874 H 791.292 1.87806 4.28773 0
M  V30 7875 H 791.465 2.82929 5.82971 0
M  V30 7876 N 784.871 -1.49948 0.485112 0
M  V30 7877 C 785.821 -2.25734 -0.320658 0
M  V30 7878 C 786.805 -1.29907 -0.949373 0
M  V30 7879 O 787.997 -1.54725 -0.859601 0
M  V30 7880 C 785.126 -3.13728 -1.39391 0
M  V30 7881 C 784.212 -4.1701 -0.772225 0
M  V30 7882 N 784.603 -5.05667 0.115782 0
M  V30 7883 C 782.901 -4.33834 -1.03461 0
M  V30 7884 C 783.602 -5.79798 0.47004 0
M  V30 7885 N 782.578 -5.4337 -0.158204 0
M  V30 7886 H 786.38 -2.91647 0.36319 0
M  V30 7887 H 783.894 -1.59602 0.300154 0
M  V30 7888 H 785.891 -3.66639 -1.98447 0
M  V30 7889 H 784.551 -2.49365 -2.0796 0
M  V30 7890 H 785.562 -5.15619 0.485557 0
M  V30 7891 H 782.239 -3.80684 -1.71424 0
M  V30 7892 H 783.629 -6.61177 1.19558 0
M  V30 7893 N 786.349 -0.21828 -1.56081 0
M  V30 7894 C 787.297 0.709679 -2.21509 0
M  V30 7895 C 788.291 1.20221 -1.19346 0
M  V30 7896 O 789.497 1.16241 -1.37433 0
M  V30 7897 H 785.872 0.247271 -0.710184 0
M  V30 7898 H 787.843 0.134386 -2.98097 0
M  V30 7899 C 786.592 1.90853 -2.90638 0
M  V30 7900 H 785.915 1.53865 -3.69006 0
M  V30 7901 H 787.355 2.53568 -3.39822 0
M  V30 7902 C 785.814 2.76189 -1.92929 0
M  V30 7903 O 786.344 3.74842 -1.44416 0
M  V30 7904 N 784.55 2.42157 -1.6065 0
M  V30 7905 H 784.097 1.61987 -2.00294 0
M  V30 7906 H 784.055 2.99534 -0.955347 0
M  V30 7907 N 787.827 1.57504 0.0551401 0
M  V30 7908 C 788.775 2.05884 1.08233 0
M  V30 7909 C 789.769 0.967383 1.39061 0
M  V30 7910 O 790.975 1.15242 1.38273 0
M  V30 7911 H 787.35 0.656673 0.366449 0
M  V30 7912 H 789.321 2.91273 0.648269 0
M  V30 7913 C 788.07 2.53221 2.38273 0
M  V30 7914 H 787.393 3.36809 2.15406 0
M  V30 7915 H 788.833 2.9081 3.08554 0
M  V30 7916 C 787.292 1.42218 3.05411 0
M  V30 7917 O 787.822 0.773638 3.9418 0
M  V30 7918 N 786.028 1.16316 2.66306 0
M  V30 7919 H 785.575 1.69237 1.94207 0
M  V30 7920 H 785.533 0.422534 3.11548 0
M  V30 7921 N 789.305 -0.326896 1.54172 0
M  V30 7922 C 790.235 -1.40741 1.86317 0
M  V30 7923 C 791.216 -1.54125 0.719684 0
M  V30 7924 O 792.401 -1.6806 0.973117 0
M  V30 7925 C 789.531 -2.77557 2.08757 0
M  V30 7926 C 788.485 -2.78965 3.24596 0
M  V30 7927 C 787.811 -4.18824 3.32401 0
M  V30 7928 C 789.111 -2.4301 4.62324 0
M  V30 7929 H 790.805 -1.14088 2.76811 0
M  V30 7930 H 788.351 -0.547389 1.3319 0
M  V30 7931 H 790.304 -3.53209 2.29829 0
M  V30 7932 H 789.028 -3.0568 1.15009 0
M  V30 7933 H 787.687 -2.05767 3.03406 0
M  V30 7934 H 787.335 -4.44083 2.36218 0
M  V30 7935 H 787.035 -4.20673 4.10253 0
M  V30 7936 H 788.559 -4.96294 3.55703 0
M  V30 7937 H 789.973 -3.08375 4.83299 0
M  V30 7938 H 788.37 -2.56116 5.42701 0
M  V30 7939 H 789.44 -1.38165 4.64799 0
M  V30 7940 N 790.784 -1.46188 -0.588786 0
M  V30 7941 C 791.731 -1.56292 -1.69828 0
M  V30 7942 C 792.701 -0.407581 -1.61022 0
M  V30 7943 O 793.886 -0.623532 -1.80324 0
M  V30 7944 C 791.026 -1.55341 -3.08161 0
M  V30 7945 C 790.139 -2.81564 -3.27636 0
M  V30 7946 C 789.274 -2.72158 -4.56183 0
M  V30 7947 C 788.313 -3.93348 -4.68981 0
M  V30 7948 N 787.45 -3.82365 -5.88848 0
M  V30 7949 H 792.29 -2.51066 -1.6053 0
M  V30 7950 H 789.827 -1.24562 -0.782474 0
M  V30 7951 H 791.785 -1.52776 -3.88221 0
M  V30 7952 H 790.415 -0.641034 -3.16371 0
M  V30 7953 H 789.467 -2.94136 -2.41223 0
M  V30 7954 H 790.779 -3.714 -3.32962 0
M  V30 7955 H 789.933 -2.67665 -5.44464 0
M  V30 7956 H 788.672 -1.79953 -4.53286 0
M  V30 7957 H 787.677 -3.98181 -3.7912 0
M  V30 7958 H 788.902 -4.86643 -4.73662 0
M  V30 7959 H 786.848 -2.92942 -5.86959 0
M  V30 7960 H 786.765 -4.65851 -5.95415 0
M  V30 7961 H 788.033 -3.81836 -6.79575 0
M  V30 7962 N 792.262 0.832906 -1.33792 0
M  V30 7963 C 793.21 1.96455 -1.24532 0
M  V30 7964 C 794.204 1.68774 -0.145455 0
M  V30 7965 O 795.41 1.77314 -0.309797 0
M  V30 7966 H 791.785 0.645008 -0.386611 0
M  V30 7967 H 793.756 2.01389 -2.20193 0
M  V30 7968 C 792.505 3.32784 -1.00748 0
M  V30 7969 H 791.828 3.54626 -1.84609 0
M  V30 7970 H 793.268 4.12447 -0.98301 0
M  V30 7971 C 791.727 3.35654 0.289475 0
M  V30 7972 O 792.257 3.80281 1.29419 0
M  V30 7973 N 790.463 2.88843 0.3191 0
M  V30 7974 H 790.01 2.52719 -0.499069 0
M  V30 7975 H 789.968 2.91145 1.18667 0
M  V30 7976 N 793.74 1.17359 1.05189 0
M  V30 7977 C 794.986 0.963413 1.78455 0
M  V30 7978 C 795.319 -0.506703 1.87473 0
M  V30 7979 O 794.594 -1.37611 1.37453 0
M  V30 7980 C 794.877 1.60519 3.22344 0
M  V30 7981 C 794.73 3.14741 3.21338 0
M  V30 7982 C 796.049 1.3091 4.20179 0
M  V30 7983 H 793.168 0.351412 0.647826 0
M  V30 7984 H 795.81 1.44858 1.22948 0
M  V30 7985 H 793.96 1.19265 3.69741 0
M  V30 7986 H 795.632 3.65053 2.82017 0
M  V30 7987 H 793.875 3.4749 2.59679 0
M  V30 7988 H 794.546 3.54775 4.22894 0
M  V30 7989 H 797.022 1.66635 3.81277 0
M  V30 7990 H 795.898 1.784 5.191 0
M  V30 7991 H 796.159 0.229908 4.41502 0
M  V30 7992 N 795.218 -1.23913 0.973828 0
M  V30 7993 C 796.446 -1.96195 0.656891 0
M  V30 7994 C 796.861 -1.72166 -0.774876 0
M  V30 7995 O 796.218 -1.0091 -1.52064 0
M  V30 7996 C 796.269 -3.49342 0.929638 0
M  V30 7997 O 795.99 -3.72553 2.30512 0
M  V30 7998 C 797.491 -4.38833 0.627739 0
M  V30 7999 H 794.711 -0.624841 0.244572 0
M  V30 8000 H 797.255 -1.57579 1.30343 0
M  V30 8001 H 795.41 -3.85999 0.329216 0
M  V30 8002 H 795.824 -4.66893 2.3898 0
M  V30 8003 H 797.298 -5.45117 0.868991 0
M  V30 8004 H 797.775 -4.37009 -0.438104 0
M  V30 8005 H 798.381 -4.07773 1.20834 0
M  V30 8006 N 796.696 -0.74468 -1.38897 0
M  V30 8007 C 797.924 -0.307428 -2.04603 0
M  V30 8008 C 798.339 1.06115 -1.56157 0
M  V30 8009 O 797.696 1.67233 -0.730701 0
M  V30 8010 C 797.747 -0.31101 -3.6016 0
M  V30 8011 O 797.468 -1.62557 -4.06825 0
M  V30 8012 C 798.969 0.141213 -4.43075 0
M  V30 8013 H 796.189 -0.132741 -0.657739 0
M  V30 8014 H 798.733 -1.01104 -1.77759 0
M  V30 8015 H 796.888 0.343792 -3.85872 0
M  V30 8016 H 797.302 -1.54569 -5.01207 0
M  V30 8017 H 798.776 0.0875449 -5.51931 0
M  V30 8018 H 799.253 1.18782 -4.22833 0
M  V30 8019 H 799.859 -0.484383 -4.22533 0
M  V30 8020 N 798.174 1.49689 -0.493057 0
M  V30 8021 C 799.399 2.07331 0.0535114 0
M  V30 8022 C 799.824 1.35196 1.30781 0
M  V30 8023 O 799.182 0.406246 1.7669 0
M  V30 8024 C 799.23 3.59364 0.29825 0
M  V30 8025 O 798.334 3.88819 1.37454 0
M  V30 8026 H 797.675 0.663612 -0.0227018 0
M  V30 8027 H 800.205 1.926 -0.690402 0
M  V30 8028 H 800.215 4.04515 0.532159 0
M  V30 8029 H 798.89 4.1128 -0.618207 0
M  V30 8030 H 797.467 3.55487 1.12621 0
M  V30 8031 N 799.652 0.226554 1.55963 0
M  V30 8032 C 801.063 -0.280381 1.84583 0
M  V30 8033 C 801.414 -1.59105 1.14804 0
M  V30 8034 O 800.539 -2.12297 0.419414 0
M  V30 8035 C 801.134 -0.515499 3.34855 0
M  V30 8036 C 799.693 -0.966733 3.63774 0
M  V30 8037 C 798.84 -0.0325753 2.77281 0
M  V30 8038 H 801.791 0.449626 1.52197 0
M  V30 8039 H 801.812 -1.36085 3.55332 0
M  V30 8040 H 801.324 0.438594 3.85614 0
M  V30 8041 H 799.425 -1.93401 3.18476 0
M  V30 8042 H 799.538 -0.837679 4.7172 0
M  V30 8043 H 797.902 -0.540279 2.48904 0
M  V30 8044 H 798.685 0.916524 3.30839 0
M  V30 8045 N 801.13 -1.57531 -0.0467866 0
M  V30 8046 C 802.376 -1.89584 -0.736837 0
M  V30 8047 C 802.731 -0.82317 -1.73901 0
M  V30 8048 O 802.024 0.170098 -1.90843 0
M  V30 8049 C 802.218 -3.26091 -1.46285 0
M  V30 8050 C 802.047 -4.46536 -0.532502 0
M  V30 8051 C 800.817 -5.05046 -0.160109 0
M  V30 8052 C 803.015 -5.13979 0.181555 0
M  V30 8053 N 800.997 -6.09009 0.773349 0
M  V30 8054 C 802.368 -6.12345 0.971297 0
M  V30 8055 C 804.423 -4.9727 0.250382 0
M  V30 8056 C 803.126 -6.95802 1.82351 0
M  V30 8057 C 805.152 -5.81275 1.08965 0
M  V30 8058 C 804.514 -6.79197 1.86737 0
M  V30 8059 H 800.613 -0.742868 -0.244277 0
M  V30 8060 H 803.197 -1.947 0.0025481 0
M  V30 8061 H 801.368 -3.21938 -2.1728 0
M  V30 8062 H 803.1 -3.45715 -2.10389 0
M  V30 8063 H 799.855 -4.70754 -0.518457 0
M  V30 8064 H 800.279 -6.65658 1.23406 0
M  V30 8065 H 804.921 -4.21458 -0.336578 0
M  V30 8066 H 802.639 -7.70971 2.42134 0
M  V30 8067 H 806.225 -5.70397 1.14621 0
M  V30 8068 H 805.105 -7.4307 2.50631 0
M  V30 8069 N 802.608 0.318715 -1.54344 0
M  V30 8070 C 803.555 1.39242 -1.84066 0
M  V30 8071 C 804.525 1.51175 -0.688134 0
M  V30 8072 O 805.71 1.66318 -0.935039 0
M  V30 8073 C 802.85 2.75528 -2.07794 0
M  V30 8074 C 801.963 2.72187 -3.35467 0
M  V30 8075 C 801.098 4.00352 -3.4913 0
M  V30 8076 C 800.137 3.91338 -4.7066 0
M  V30 8077 N 799.274 5.11242 -4.81224 0
M  V30 8078 H 804.114 1.13196 -2.75664 0
M  V30 8079 H 801.651 0.547857 -1.36517 0
M  V30 8080 H 803.609 3.54763 -2.19543 0
M  V30 8081 H 802.239 2.99873 -1.19482 0
M  V30 8082 H 801.291 1.84917 -3.3243 0
M  V30 8083 H 802.603 2.61411 -4.24812 0
M  V30 8084 H 801.757 4.88019 -3.60448 0
M  V30 8085 H 800.496 4.1394 -2.57886 0
M  V30 8086 H 799.501 3.02055 -4.59394 0
M  V30 8087 H 800.726 3.7931 -5.63294 0
M  V30 8088 H 798.672 5.25327 -3.92897 0
M  V30 8089 H 798.589 5.0282 -5.64543 0
M  V30 8090 H 799.857 6.0061 -4.96879 0
M  V30 8091 N 804.086 1.46499 0.581025 0
M  V30 8092 C 805.049 1.5677 1.672 0
M  V30 8093 C 806.049 0.444716 1.54528 0
M  V30 8094 O 807.239 0.709074 1.59116 0
M  V30 8095 C 804.371 1.4896 3.06633 0
M  V30 8096 H 805.564 2.54 1.5945 0
M  V30 8097 H 803.117 1.34334 0.799003 0
M  V30 8098 H 803.852 0.530168 3.19937 0
M  V30 8099 H 803.637 2.30439 3.17239 0
M  V30 8100 H 805.127 1.59237 3.86048 0
M  V30 8101 N 805.565 -0.825799 1.34232 0
M  V30 8102 C 806.513 -1.95792 1.25572 0
M  V30 8103 C 807.507 -1.68695 0.154404 0
M  V30 8104 O 808.713 -1.77147 0.319196 0
M  V30 8105 H 805.088 -0.642949 0.390027 0
M  V30 8106 H 807.059 -2.00219 2.21258 0
M  V30 8107 C 805.808 -3.32245 1.02511 0
M  V30 8108 H 805.131 -3.53642 1.86487 0
M  V30 8109 H 806.571 -4.1192 1.00487 0
M  V30 8110 C 805.03 -3.35803 -0.27167 0
M  V30 8111 O 805.56 -3.80962 -1.274 0
M  V30 8112 N 803.766 -2.89008 -0.303778 0
M  V30 8113 H 803.313 -2.52451 0.512464 0
M  V30 8114 H 803.271 -2.9177 -1.17121 0
M  V30 8115 N 807.043 -1.17915 -1.04565 0
M  V30 8116 C 808.32 -0.881187 -1.74627 0
M  V30 8117 C 808.7 0.617123 -2.01878 0
M  V30 8118 O 808.048 1.57032 -1.65991 0
M  V30 8119 C 808.258 -1.72299 -3.03503 0
M  V30 8120 C 809.606 -1.94688 -3.77335 0
M  V30 8121 O 810.63 -1.6931 -3.13389 0
M  V30 8122 O 809.489 -2.37379 -4.92253 0
M  V30 8123 H 806.583 -0.326864 -0.759664 0
M  V30 8124 H 809.129 -1.28642 -1.10676 0
M  V30 8125 H 807.901 -2.73891 -2.79462 0
M  V30 8126 H 807.524 -1.31593 -3.75192 0
M  V30 8127 N 808.521 1.23394 -0.980386 0
M  V30 8128 C 809.469 2.26872 -0.513018 0
M  V30 8129 C 810.463 1.63853 0.429948 0
M  V30 8130 O 811.669 1.77417 0.303842 0
M  V30 8131 H 808.044 0.737398 -0.147473 0
M  V30 8132 H 810.015 2.63654 -1.39746 0
M  V30 8133 C 808.764 3.47289 0.168962 0
M  V30 8134 H 808.087 3.96033 -0.547546 0
M  V30 8135 H 809.527 4.21502 0.459616 0
M  V30 8136 C 807.986 3.06425 1.40019 0
M  V30 8137 O 808.516 3.14708 2.49643 0
M  V30 8138 N 806.722 2.61339 1.27084 0
M  V30 8139 H 806.269 2.54799 0.378872 0
M  V30 8140 H 806.227 2.34364 2.09573 0
M  V30 8141 N 809.999 0.752036 1.385 0
M  V30 8142 C 811.229 0.317812 2.04141 0
M  V30 8143 C 811.637 -1.05822 1.56839 0
M  V30 8144 O 810.98 -1.68311 0.736016 0
M  V30 8145 C 811.042 0.260205 3.58557 0
M  V30 8146 C 810.706 1.57753 4.28909 0
M  V30 8147 C 811.703 2.52642 4.54387 0
M  V30 8148 C 809.388 1.84653 4.67128 0
M  V30 8149 C 811.382 3.72653 5.17116 0
M  V30 8150 C 809.069 3.04938 5.29581 0
M  V30 8151 C 810.067 3.98759 5.54509 0
M  V30 8152 O 809.755 5.16929 6.15662 0
M  V30 8153 H 809.487 0.133931 0.6626 0
M  V30 8154 H 812.041 1.02138 1.78205 0
M  V30 8155 H 810.271 -0.499596 3.83459 0
M  V30 8156 H 811.96 -0.144295 4.05643 0
M  V30 8157 H 812.726 2.33135 4.25292 0
M  V30 8158 H 808.605 1.12464 4.47071 0
M  V30 8159 H 812.149 4.45898 5.36489 0
M  V30 8160 H 808.046 3.24339 5.58099 0
M  V30 8161 H 808.814 5.1749 6.3415 0
M  V30 8162 N 811.477 -1.49425 0.500989 0
M  V30 8163 C 812.407 -2.31971 -0.266775 0
M  V30 8164 C 813.388 -1.40245 -0.962563 0
M  V30 8165 O 814.573 -1.69154 -0.953968 0
M  V30 8166 C 811.703 -3.20757 -1.33163 0
M  V30 8167 C 810.657 -4.21275 -0.75572 0
M  V30 8168 C 809.983 -4.98997 -1.92109 0
M  V30 8169 C 811.283 -5.21686 0.253213 0
M  V30 8170 H 812.977 -2.96408 0.422237 0
M  V30 8171 H 810.523 -1.4254 0.204505 0
M  V30 8172 H 812.476 -3.77315 -1.87646 0
M  V30 8173 H 811.2 -2.54263 -2.04983 0
M  V30 8174 H 809.859 -3.65861 -0.232637 0
M  V30 8175 H 809.507 -4.28951 -2.62698 0
M  V30 8176 H 809.207 -5.67011 -1.54182 0
M  V30 8177 H 810.731 -5.584 -2.47026 0
M  V30 8178 H 812.145 -5.72939 -0.203483 0
M  V30 8179 H 810.542 -5.9759 0.548322 0
M  V30 8180 H 811.612 -4.70596 1.16909 0
M  V30 8181 N 812.955 -0.234822 -1.55841 0
M  V30 8182 C 814.232 0.442961 -1.90518 0
M  V30 8183 C 814.612 1.76768 -1.15397 0
M  V30 8184 O 813.96 2.26928 -0.267534 0
M  V30 8185 C 814.17 0.622905 -3.43396 0
M  V30 8186 C 815.518 0.9243 -4.14417 0
M  V30 8187 O 816.542 0.709211 -3.49068 0
M  V30 8188 O 815.401 1.33323 -5.29988 0
M  V30 8189 H 812.495 0.236042 -0.792599 0
M  V30 8190 H 815.041 -0.277992 -1.67408 0
M  V30 8191 H 813.813 -0.310973 -3.90062 0
M  V30 8192 H 813.436 1.39485 -3.7233 0
M  V30 8193 N 814.433 1.57553 0.0384317 0
M  V30 8194 C 815.679 1.89973 0.726772 0
M  V30 8195 C 816.034 0.832381 1.73462 0
M  V30 8196 O 815.327 -0.159975 1.90931 0
M  V30 8197 C 815.521 3.26862 1.44554 0
M  V30 8198 C 815.35 4.46812 0.508814 0
M  V30 8199 C 814.12 5.05124 0.133323 0
M  V30 8200 C 816.318 5.13876 -0.20881 0
M  V30 8201 N 814.3 6.08591 -0.805636 0
M  V30 8202 C 815.671 6.11821 -1.00376 0
M  V30 8203 C 817.726 4.9713 -0.276749 0
M  V30 8204 C 816.429 6.94825 -1.86038 0
M  V30 8205 C 818.455 5.80689 -1.12047 0
M  V30 8206 C 817.817 6.78197 -1.90337 0
M  V30 8207 H 813.916 0.744153 0.240334 0
M  V30 8208 H 816.5 1.94696 -0.0128735 0
M  V30 8209 H 814.671 3.23085 2.1557 0
M  V30 8210 H 816.403 3.46826 2.08552 0
M  V30 8211 H 813.158 4.71022 0.493484 0
M  V30 8212 H 813.582 6.64994 -1.26935 0
M  V30 8213 H 818.224 4.21631 0.314222 0
M  V30 8214 H 815.942 7.69676 -2.46219 0
M  V30 8215 H 819.528 5.69782 -1.17645 0
M  V30 8216 H 818.408 7.41731 -2.54569 0
M  V30 8217 N 815.911 -0.310526 1.54511 0
M  V30 8218 C 817.141 -1.06456 1.77061 0
M  V30 8219 C 817.549 -1.81755 0.525528 0
M  V30 8220 O 816.892 -1.76365 -0.513904 0
M  V30 8221 C 816.954 -2.09856 2.91892 0
M  V30 8222 C 816.618 -1.53838 4.30329 0
M  V30 8223 C 817.615 -0.973358 5.10707 0
M  V30 8224 C 815.3 -1.57688 4.76906 0
M  V30 8225 C 817.294 -0.454283 6.35779 0
M  V30 8226 C 814.981 -1.05393 6.01943 0
M  V30 8227 C 815.979 -0.493595 6.81214 0
M  V30 8228 O 815.667 0.0214506 8.03897 0
M  V30 8229 H 815.399 -0.321913 0.594431 0
M  V30 8230 H 817.953 -0.358289 2.02251 0
M  V30 8231 H 816.183 -2.84137 2.62304 0
M  V30 8232 H 817.872 -2.71085 3.02106 0
M  V30 8233 H 818.638 -0.936588 4.75871 0
M  V30 8234 H 814.517 -2.00242 4.1524 0
M  V30 8235 H 818.061 -0.0162657 6.97598 0
M  V30 8236 H 813.958 -1.08782 6.36268 0
M  V30 8237 H 814.726 -0.0927478 8.18447 0
M  V30 8238 N 817.389 -1.46805 -0.573248 0
M  V30 8239 C 818.637 -1.52302 -1.32847 0
M  V30 8240 C 818.958 -0.180159 -1.94166 0
M  V30 8241 O 818.228 0.794291 -1.79075 0
M  V30 8242 H 816.808 -0.56097 -0.493276 0
M  V30 8243 H 819.47 -1.82998 -0.670642 0
M  V30 8244 H 818.566 -2.28089 -2.13031 0
M  V30 8245 N 818.867 0.818669 -1.34668 0
M  V30 8246 C 820.116 1.57017 -1.26604 0
M  V30 8247 C 820.429 1.94936 0.161036 0
M  V30 8248 O 821.635 2.69051 0.36386 0
M  V30 8249 C 820.091 2.83305 -2.2196 0
M  V30 8250 C 819.699 2.52671 -3.69948 0
M  V30 8251 C 821.443 3.61324 -2.22813 0
M  V30 8252 C 819.35 3.75178 -4.5716 0
M  V30 8253 H 818.28 0.589323 -0.470335 0
M  V30 8254 H 820.931 0.900956 -1.59859 0
M  V30 8255 H 819.313 3.51874 -1.81661 0
M  V30 8256 H 820.487 1.92186 -4.18809 0
M  V30 8257 H 818.802 1.8792 -3.71584 0
M  V30 8258 H 821.399 4.52294 -2.85192 0
M  V30 8259 H 821.742 3.97759 -1.22857 0
M  V30 8260 H 822.275 2.99703 -2.61578 0
M  V30 8261 H 819.014 3.43861 -5.58068 0
M  V30 8262 H 818.534 4.34931 -4.13031 0
M  V30 8263 H 820.213 4.42542 -4.71981 0
M  V30 8264 N 820.346 1.18468 1.03938 0
M  V30 8265 C 821.256 0.927889 2.1547 0
M  V30 8266 C 822.272 -0.108447 1.73662 0
M  V30 8267 O 823.448 0.0737636 2.01265 0
M  V30 8268 C 820.513 0.458494 3.43655 0
M  V30 8269 C 819.574 1.56295 3.99838 0
M  V30 8270 C 818.807 1.11586 5.21904 0
M  V30 8271 O 819.03 -0.0249057 5.70395 0
M  V30 8272 O 817.964 1.91412 5.70653 0
M  V30 8273 H 821.79 1.86116 2.39989 0
M  V30 8274 H 819.375 0.966607 1.13917 0
M  V30 8275 H 821.257 0.204861 4.20902 0
M  V30 8276 H 819.932 -0.446464 3.20606 0
M  V30 8277 H 818.839 1.87061 3.23974 0
M  V30 8278 H 820.172 2.44408 4.2723 0
M  V30 8279 N 821.824 -1.22873 0.986916 0
M  V30 8280 C 822.772 -2.26597 0.525043 0
M  V30 8281 C 823.766 -1.64079 -0.421252 0
M  V30 8282 O 824.972 -1.77576 -0.294429 0
M  V30 8283 H 821.347 -0.736606 0.151381 0
M  V30 8284 H 823.318 -2.62909 1.41142 0
M  V30 8285 C 822.067 -3.47374 -0.150542 0
M  V30 8286 H 821.39 -3.95737 0.568541 0
M  V30 8287 H 822.83 -4.21739 -0.437256 0
M  V30 8288 C 821.289 -3.07163 -1.38392 0
M  V30 8289 O 821.819 -3.16028 -2.47971 0
M  V30 8290 N 820.025 -2.62009 -1.25697 0
M  V30 8291 H 819.572 -2.54996 -0.365355 0
M  V30 8292 H 819.53 -2.35472 -2.08327 0
M  V30 8293 N 823.302 -0.75937 -1.38099 0
M  V30 8294 C 824.55 -0.317485 -1.99591 0
M  V30 8295 C 824.871 1.10628 -1.60581 0
M  V30 8296 O 824.141 1.7575 -0.865378 0
M  V30 8297 H 822.721 -0.114397 -0.738189 0
M  V30 8298 H 825.383 -0.974749 -1.68774 0
M  V30 8299 H 824.479 -0.385227 -3.09713 0
M  V30 8300 N 824.78 1.49157 -0.508906 0
M  V30 8301 C 825.712 2.272 0.302115 0
M  V30 8302 C 826.725 1.3407 0.923529 0
M  V30 8303 O 827.914 1.5929 0.805532 0
M  V30 8304 C 825.014 3.06736 1.44105 0
M  V30 8305 C 824.187 4.27497 0.925477 0
M  V30 8306 C 823.246 4.89014 1.94297 0
M  V30 8307 O 822.272 5.48851 1.50834 0
M  V30 8308 N 823.474 4.7937 3.2739 0
M  V30 8309 H 826.239 2.97443 -0.367115 0
M  V30 8310 H 823.8 1.58248 -0.341933 0
M  V30 8311 H 825.792 3.44763 2.11944 0
M  V30 8312 H 824.362 2.3905 2.0143 0
M  V30 8313 H 823.582 3.94135 0.0717301 0
M  V30 8314 H 824.87 5.05714 0.55955 0
M  V30 8315 H 824.268 4.31869 3.65384 0
M  V30 8316 H 822.825 5.21559 3.90922 0
M  V30 8317 N 826.258 0.243083 1.55714 0
M  V30 8318 C 827.483 -0.389944 2.03701 0
M  V30 8319 C 827.908 -1.51025 1.12129 0
M  V30 8320 O 827.266 -1.80944 0.11352 0
M  V30 8321 C 827.314 -0.878649 3.49731 0
M  V30 8322 O 826.418 -1.98851 3.61292 0
M  V30 8323 H 825.759 -0.0855115 0.658471 0
M  V30 8324 H 828.289 0.368023 2.01263 0
M  V30 8325 H 828.299 -1.18287 3.90477 0
M  V30 8326 H 826.974 -0.0588107 4.15858 0
M  V30 8327 H 825.551 -1.68928 3.32442 0
M  V30 8328 N 827.736 -1.57571 -0.0300757 0
M  V30 8329 C 828.961 -1.93879 -0.736601 0
M  V30 8330 C 829.386 -0.842998 -1.68152 0
M  V30 8331 O 828.744 0.20135 -1.80178 0
M  V30 8332 C 828.792 -3.29247 -1.47066 0
M  V30 8333 O 827.896 -3.21426 -2.58378 0
M  V30 8334 H 827.237 -0.633735 -0.198181 0
M  V30 8335 H 829.767 -2.04595 0.0141485 0
M  V30 8336 H 829.777 -3.64113 -1.84081 0
M  V30 8337 H 828.452 -4.08565 -0.77764 0
M  V30 8338 H 827.029 -2.98189 -2.23914 0
M  V30 8339 N 829.214 0.302327 -1.54673 0
M  V30 8340 C 830.124 1.39542 -1.88587 0
M  V30 8341 C 831.14 1.55543 -0.779895 0
M  V30 8342 O 832.316 1.70233 -1.07623 0
M  V30 8343 C 829.381 2.7394 -2.12504 0
M  V30 8344 C 828.442 2.66935 -3.3622 0
M  V30 8345 C 827.675 3.94923 -3.58987 0
M  V30 8346 O 827.898 4.94218 -2.84789 0
M  V30 8347 O 826.832 3.96896 -4.52501 0
M  V30 8348 H 830.658 1.13784 -2.81579 0
M  V30 8349 H 828.243 0.49827 -1.40846 0
M  V30 8350 H 830.125 3.5346 -2.29443 0
M  V30 8351 H 828.8 2.99544 -1.22698 0
M  V30 8352 H 827.707 1.85892 -3.24646 0
M  V30 8353 H 829.04 2.46283 -4.26152 0
M  V30 8354 N 830.692 1.47107 0.565454 0
M  V30 8355 C 831.655 1.58535 1.65527 0
M  V30 8356 C 832.655 0.461081 1.54048 0
M  V30 8357 O 833.845 0.725911 1.58355 0
M  V30 8358 C 830.977 1.52204 3.05036 0
M  V30 8359 H 832.17 2.55676 1.56747 0
M  V30 8360 H 829.723 1.35174 0.78471 0
M  V30 8361 H 830.458 0.564071 3.19357 0
M  V30 8362 H 830.243 2.3379 3.14777 0
M  V30 8363 H 831.733 1.63322 3.84338 0
M  V30 8364 N 832.17 -0.811516 1.35101 0
M  V30 8365 C 833.08 -1.95475 1.29718 0
M  V30 8366 C 834.096 -1.72813 0.202909 0
M  V30 8367 O 835.272 -1.96725 0.431414 0
M  V30 8368 C 832.337 -3.29975 1.06385 0
M  V30 8369 C 831.398 -3.65566 2.25077 0
M  V30 8370 C 830.631 -4.93648 2.02848 0
M  V30 8371 O 830.854 -5.617 0.992442 0
M  V30 8372 O 829.788 -5.27384 2.90087 0
M  V30 8373 H 833.614 -2.02961 2.25921 0
M  V30 8374 H 831.199 -0.948583 1.15422 0
M  V30 8375 H 833.081 -4.10506 0.951999 0
M  V30 8376 H 831.756 -3.2343 0.132294 0
M  V30 8377 H 830.663 -2.85432 2.41825 0
M  V30 8378 H 831.996 -3.7681 3.16662 0
M  V30 8379 N 833.648 -1.19017 -1.03309 0
M  V30 8380 C 834.896 -0.988258 -1.76289 0
M  V30 8381 C 835.217 0.482557 -1.88935 0
M  V30 8382 O 834.487 1.34969 -1.41987 0
M  V30 8383 H 833.067 -0.36267 -0.653054 0
M  V30 8384 H 835.729 -1.49836 -1.2464 0
M  V30 8385 H 834.825 -1.43273 -2.77271 0
M  V30 8386 N 835.127 1.22348 -0.993418 0
M  V30 8387 C 836.352 1.95666 -0.687727 0
M  V30 8388 C 836.777 1.72883 0.741161 0
M  V30 8389 O 836.135 1.00837 1.50671 0
M  V30 8390 C 836.183 3.46457 -0.99998 0
M  V30 8391 O 835.287 4.12281 -0.0989386 0
M  V30 8392 H 834.628 0.612102 -0.257346 0
M  V30 8393 H 837.158 1.55428 -1.33054 0
M  V30 8394 H 837.168 3.96976 -0.942035 0
M  V30 8395 H 835.843 3.62365 -2.04118 0
M  V30 8396 H 834.42 3.72295 -0.212413 0
M  V30 8397 N 836.605 0.766683 1.37694 0
M  V30 8398 C 837.568 0.155849 2.2867 0
M  V30 8399 C 838.568 -0.633509 1.47795 0
M  V30 8400 O 839.758 -0.457844 1.68076 0
M  V30 8401 C 836.89 -0.786965 3.31692 0
M  V30 8402 H 838.083 0.957748 2.84196 0
M  V30 8403 H 835.636 0.534554 1.46875 0
M  V30 8404 H 836.371 -1.61406 2.8128 0
M  V30 8405 H 836.156 -0.223182 3.91464 0
M  V30 8406 H 837.646 -1.20994 3.99688 0
M  V30 8407 N 838.083 -1.48885 0.516809 0
M  V30 8408 C 839.311 -2.06892 -0.0184017 0
M  V30 8409 C 839.726 -1.37511 -1.29368 0
M  V30 8410 O 839.083 -0.458409 -1.76649 0
M  V30 8411 C 839.134 -3.60566 -0.259673 0
M  V30 8412 O 838.855 -4.27338 0.965065 0
M  V30 8413 C 840.356 -4.35331 -0.836751 0
M  V30 8414 H 837.576 -0.670433 0.0275743 0
M  V30 8415 H 840.12 -1.91455 0.718689 0
M  V30 8416 H 838.275 -3.75653 -0.94678 0
M  V30 8417 H 838.689 -5.19287 0.737647 0
M  V30 8418 H 840.163 -5.43675 -0.955065 0
M  V30 8419 H 840.64 -3.9887 -1.83845 0
M  V30 8420 H 841.246 -4.2489 -0.186622 0
M  V30 8421 N 839.561 -0.251338 -1.55583 0
M  V30 8422 C 840.838 0.422729 -1.90977 0
M  V30 8423 C 841.218 1.75534 -1.17265 0
M  V30 8424 O 840.566 2.26632 -0.291588 0
M  V30 8425 C 840.776 0.586448 -3.44037 0
M  V30 8426 C 842.124 0.880294 -4.15375 0
M  V30 8427 O 843.148 0.672148 -3.49801 0
M  V30 8428 O 842.007 1.27694 -5.31372 0
M  V30 8429 H 839.101 0.227622 -0.795058 0
M  V30 8430 H 841.647 -0.295733 -1.67103 0
M  V30 8431 H 840.419 -0.352327 -3.89711 0
M  V30 8432 H 840.042 1.35528 -3.73789 0
M  V30 8433 N 841.039 1.57585 0.0217189 0
M  V30 8434 C 842.285 1.90733 0.706582 0
M  V30 8435 C 842.64 0.850732 1.7257 0
M  V30 8436 O 841.933 -0.139715 1.9109 0
M  V30 8437 C 842.127 3.28377 1.41079 0
M  V30 8438 C 841.956 4.47327 0.461395 0
M  V30 8439 C 840.726 5.05237 0.0797404 0
M  V30 8440 C 842.924 5.13626 -0.263302 0
M  V30 8441 N 840.906 6.07702 -0.870139 0
M  V30 8442 C 842.277 6.10722 -1.06859 0
M  V30 8443 C 844.332 4.96809 -0.329461 0
M  V30 8444 C 843.035 6.92813 -1.93397 0
M  V30 8445 C 845.061 5.79468 -1.18199 0
M  V30 8446 C 844.423 6.7614 -1.97519 0
M  V30 8447 H 840.522 0.74666 0.232427 0
M  V30 8448 H 843.106 1.94671 -0.0335228 0
M  V30 8449 H 841.277 3.25354 2.12131 0
M  V30 8450 H 843.009 3.49018 2.04862 0
M  V30 8451 H 839.764 4.71519 0.443498 0
M  V30 8452 H 840.188 6.6361 -1.33981 0
M  V30 8453 H 844.83 4.2194 0.269485 0
M  V30 8454 H 842.548 7.67022 -2.54369 0
M  V30 8455 H 846.134 5.68502 -1.23681 0
M  V30 8456 H 845.014 7.38989 -2.62421 0
M  V30 8457 N 842.517 -0.29412 1.54831 0
M  V30 8458 C 843.745 -1.04724 1.78439 0
M  V30 8459 C 844.16 -1.80695 0.547239 0
M  V30 8460 O 843.517 -1.75989 -0.483141 0
M  V30 8461 C 843.568 -2.02242 2.99634 0
M  V30 8462 O 843.289 -1.29352 4.18568 0
M  V30 8463 C 844.79 -2.89537 3.35683 0
M  V30 8464 H 842.01 -0.310285 0.594949 0
M  V30 8465 H 844.554 -0.331306 2.01798 0
M  V30 8466 H 842.709 -2.69328 2.78462 0
M  V30 8467 H 843.123 -1.94901 4.86943 0
M  V30 8468 H 844.597 -3.538 4.23709 0
M  V30 8469 H 845.074 -3.58201 2.54143 0
M  V30 8470 H 845.68 -2.27973 3.59038 0
M  V30 8471 N 843.995 -1.47404 -0.557645 0
M  V30 8472 C 845.223 -1.57622 -1.34026 0
M  V30 8473 C 845.638 -0.226256 -1.87439 0
M  V30 8474 O 844.995 0.78043 -1.64971 0
M  V30 8475 C 845.046 -2.60111 -2.51047 0
M  V30 8476 O 844.767 -3.89866 -1.99841 0
M  V30 8477 C 846.268 -2.80508 -3.43264 0
M  V30 8478 H 843.488 -0.532271 -0.40857 0
M  V30 8479 H 846.032 -1.93019 -0.675555 0
M  V30 8480 H 844.187 -2.27648 -3.13457 0
M  V30 8481 H 844.601 -4.45864 -2.76234 0
M  V30 8482 H 846.075 -3.56084 -4.21792 0
M  V30 8483 H 846.552 -1.88314 -3.9678 0
M  V30 8484 H 847.158 -3.14166 -2.86671 0
M  V30 8485 N 845.473 0.80434 -1.35529 0
M  V30 8486 C 846.421 1.93769 -1.28671 0
M  V30 8487 C 847.415 1.68428 -0.181222 0
M  V30 8488 O 848.621 1.76617 -0.347338 0
M  V30 8489 H 844.996 0.636663 -0.400206 0
M  V30 8490 H 846.967 1.96673 -2.24415 0
M  V30 8491 C 845.716 3.30572 -1.07784 0
M  V30 8492 H 845.039 3.5063 -1.9209 0
M  V30 8493 H 846.479 4.1027 -1.07027 0
M  V30 8494 C 844.938 3.36193 0.218213 0
M  V30 8495 O 845.468 3.82941 1.21323 0
M  V30 8496 N 843.674 2.89455 0.257761 0
M  V30 8497 H 843.221 2.51604 -0.552562 0
M  V30 8498 H 843.179 2.93597 1.12465 0
M  V30 8499 N 846.951 1.19563 1.02676 0
M  V30 8500 C 848.197 1.00105 1.76371 0
M  V30 8501 C 848.53 -0.466823 1.88506 0
M  V30 8502 O 847.805 -1.34665 1.40341 0
M  V30 8503 C 848.088 1.67321 3.18866 0
M  V30 8504 C 847.941 3.21486 3.1459 0
M  V30 8505 C 849.26 1.39794 4.17308 0
M  V30 8506 H 846.379 0.365075 0.640226 0
M  V30 8507 H 849.021 1.47433 1.19848 0
M  V30 8508 H 847.171 1.27081 3.67128 0
M  V30 8509 H 848.843 3.70953 2.7421 0
M  V30 8510 H 847.086 3.5292 2.52249 0
M  V30 8511 H 847.757 3.63665 4.15273 0
M  V30 8512 H 850.233 1.74685 3.77657 0
M  V30 8513 H 849.109 1.89371 5.15199 0
M  V30 8514 H 849.37 0.323505 4.40915 0
M  V30 8515 N 848.429 -1.21819 0.999893 0
M  V30 8516 C 849.675 -1.91325 0.690373 0
M  V30 8517 C 850.03 -1.76323 -0.769929 0
M  V30 8518 O 849.323 -1.12585 -1.55033 0
M  V30 8519 C 849.517 -3.4193 1.04012 0
M  V30 8520 C 849.346 -3.71585 2.53287 0
M  V30 8521 C 848.116 -3.91219 3.19806 0
M  V30 8522 C 850.314 -3.75502 3.5143 0
M  V30 8523 N 848.296 -4.08246 4.58485 0
M  V30 8524 C 849.667 -3.97753 4.75597 0
M  V30 8525 C 851.722 -3.58383 3.45638 0
M  V30 8526 C 850.425 -4.04662 5.94677 0
M  V30 8527 C 852.451 -3.66555 4.64103 0
M  V30 8528 C 851.813 -3.89263 5.87072 0
M  V30 8529 H 847.912 -0.720484 0.304018 0
M  V30 8530 H 850.496 -1.46595 1.28133 0
M  V30 8531 H 848.667 -3.85452 0.477671 0
M  V30 8532 H 850.399 -3.98846 0.685864 0
M  V30 8533 H 847.154 -3.88917 2.7026 0
M  V30 8534 H 847.578 -4.20673 5.30437 0
M  V30 8535 H 852.22 -3.39807 2.51576 0
M  V30 8536 H 849.938 -4.22039 6.89136 0
M  V30 8537 H 853.524 -3.54639 4.61218 0
M  V30 8538 H 852.404 -3.95424 6.77207 0
M  V30 8539 N 849.908 -0.773975 -1.37286 0
M  V30 8540 C 851.319 -0.404433 -1.82267 0
M  V30 8541 C 851.67 1.06971 -1.64474 0
M  V30 8542 O 850.795 1.82867 -1.15708 0
M  V30 8543 C 851.39 -0.727298 -3.30902 0
M  V30 8544 C 849.949 -0.410784 -3.74152 0
M  V30 8545 C 849.096 -0.969983 -2.59782 0
M  V30 8546 H 852.047 -0.968437 -1.25726 0
M  V30 8547 H 852.068 -0.0127575 -3.80498 0
M  V30 8548 H 851.58 -1.80026 -3.4382 0
M  V30 8549 H 849.681 0.65477 -3.66802 0
M  V30 8550 H 849.794 -0.920592 -4.70172 0
M  V30 8551 H 848.158 -0.394094 -2.51633 0
M  V30 8552 H 848.941 -2.04839 -2.75492 0
M  V30 8553 N 851.386 1.48609 -0.524698 0
M  V30 8554 C 852.349 2.28041 0.230166 0
M  V30 8555 C 853.349 1.35065 0.872584 0
M  V30 8556 O 854.539 1.58007 0.73345 0
M  V30 8557 C 851.671 3.13778 1.33252 0
M  V30 8558 H 852.864 2.96239 -0.467161 0
M  V30 8559 H 850.417 1.53763 -0.280452 0
M  V30 8560 H 851.152 2.502 2.06327 0
M  V30 8561 H 850.937 3.82165 0.877058 0
M  V30 8562 H 852.427 3.7371 1.86362 0
M  V30 8563 N 852.864 0.259585 1.55447 0
M  V30 8564 C 854.112 -0.360893 1.98852 0
M  V30 8565 C 854.433 -1.57535 1.14924 0
M  V30 8566 O 853.703 -1.94485 0.235025 0
M  V30 8567 H 852.283 -0.136332 0.734454 0
M  V30 8568 H 854.945 0.361319 1.91522 0
M  V30 8569 H 854.041 -0.661388 3.05012 0
M  V30 8570 N 854.342 -1.57594 -0.0133615 0
M  V30 8571 C 855.588 -1.91105 -0.696457 0
M  V30 8572 C 855.943 -0.859872 -1.72116 0
M  V30 8573 O 855.236 0.129579 -1.91161 0
M  V30 8574 C 855.43 -3.29121 -1.39336 0
M  V30 8575 C 855.259 -4.47565 -0.437666 0
M  V30 8576 C 854.029 -5.05272 -0.0529454 0
M  V30 8577 C 856.227 -5.13479 0.290537 0
M  V30 8578 N 854.209 -6.07232 0.902355 0
M  V30 8579 C 855.58 -6.10147 1.10097 0
M  V30 8580 C 857.635 -4.96627 0.355804 0
M  V30 8581 C 856.338 -6.91778 1.97069 0
M  V30 8582 C 858.364 -5.78833 1.21271 0
M  V30 8583 C 857.726 -6.75083 2.01102 0
M  V30 8584 H 853.825 -0.747882 -0.228464 0
M  V30 8585 H 856.409 -1.94651 0.0438462 0
M  V30 8586 H 854.58 -3.26474 -2.10403 0
M  V30 8587 H 856.312 -3.501 -2.03008 0
M  V30 8588 H 853.067 -4.71747 -0.418486 0
M  V30 8589 H 853.491 -6.6289 1.37498 0
M  V30 8590 H 858.133 -4.22077 -0.247105 0
M  V30 8591 H 855.851 -7.65662 2.58433 0
M  V30 8592 H 859.437 -5.67838 1.26694 0
M  V30 8593 H 858.317 -7.37587 2.66337 0
M  V30 8594 N 855.82 0.285905 -1.54985 0
M  V30 8595 C 857.068 1.01718 -1.74636 0
M  V30 8596 C 857.389 1.87277 -0.543342 0
M  V30 8597 O 856.659 1.90847 0.442078 0
M  V30 8598 H 855.239 0.378549 -0.643979 0
M  V30 8599 H 857.901 0.313247 -1.92366 0
M  V30 8600 H 856.997 1.66159 -2.64192 0
M  V30 8601 N 857.298 1.47698 0.54982 0
M  V30 8602 C 858.261 1.60282 1.63837 0
M  V30 8603 C 859.261 0.477394 1.5355 0
M  V30 8604 O 860.451 0.742665 1.57576 0
M  V30 8605 C 857.583 1.55431 3.03404 0
M  V30 8606 H 858.776 2.57325 1.54026 0
M  V30 8607 H 856.329 1.35999 0.770329 0
M  V30 8608 H 857.064 0.597912 3.1874 0
M  V30 8609 H 856.849 2.37116 3.12279 0
M  V30 8610 H 858.339 1.6739 3.82584 0
M  V30 8611 N 858.776 -0.797141 1.35954 0
M  V30 8612 C 859.686 -1.94088 1.31784 0
M  V30 8613 C 860.702 -1.72588 0.221227 0
M  V30 8614 O 861.878 -1.96256 0.452255 0
M  V30 8615 C 858.943 -3.28828 1.09878 0
M  V30 8616 C 858.004 -3.63158 2.28942 0
M  V30 8617 C 857.237 -4.91469 2.08072 0
M  V30 8618 O 857.46 -5.60616 1.05196 0
M  V30 8619 O 856.394 -5.24277 2.95664 0
M  V30 8620 H 860.22 -2.00554 2.28061 0
M  V30 8621 H 857.805 -0.936288 1.16422 0
M  V30 8622 H 859.687 -4.09473 0.995485 0
M  V30 8623 H 858.362 -3.23271 0.16659 0
M  V30 8624 H 857.269 -2.82851 2.44839 0
M  V30 8625 H 858.602 -3.7343 3.20641 0
M  V30 8626 N 860.254 -1.20106 -1.0204 0
M  V30 8627 C 861.201 -0.946468 -2.10501 0
M  V30 8628 C 862.171 0.121902 -1.65652 0
M  V30 8629 O 863.356 -0.0220244 -1.90787 0
M  V30 8630 C 860.496 -0.500499 -3.41451 0
M  V30 8631 C 859.609 -1.63659 -3.998 0
M  V30 8632 C 858.744 -1.14131 -5.18794 0
M  V30 8633 C 857.783 -2.25074 -5.69217 0
M  V30 8634 N 856.92 -1.76791 -6.79477 0
M  V30 8635 H 861.76 -1.87506 -2.31615 0
M  V30 8636 H 859.297 -0.934693 -1.13587 0
M  V30 8637 H 861.255 -0.223276 -4.16602 0
M  V30 8638 H 859.885 0.391099 -3.20422 0
M  V30 8639 H 858.937 -2.02882 -3.21781 0
M  V30 8640 H 860.249 -2.47213 -4.33229 0
M  V30 8641 H 859.403 -0.819826 -6.01135 0
M  V30 8642 H 858.142 -0.275615 -4.86921 0
M  V30 8643 H 857.147 -2.58043 -4.85483 0
M  V30 8644 H 858.372 -3.12114 -6.03127 0
M  V30 8645 H 856.318 -0.925428 -6.4944 0
M  V30 8646 H 856.235 -2.53928 -7.12079 0
M  V30 8647 H 857.503 -1.47631 -7.65392 0
M  V30 8648 N 861.732 1.21287 -1.00634 0
M  V30 8649 C 862.96 1.94385 -0.708678 0
M  V30 8650 C 863.375 1.7416 0.728957 0
M  V30 8651 O 862.732 1.04906 1.49335 0
M  V30 8652 C 862.783 3.46755 -1.02193 0
M  V30 8653 O 862.504 3.6631 -2.40309 0
M  V30 8654 C 864.005 4.37014 -0.743867 0
M  V30 8655 H 861.225 0.618136 -0.261052 0
M  V30 8656 H 863.769 1.54067 -1.34475 0
M  V30 8657 H 861.924 3.8499 -0.431441 0
M  V30 8658 H 862.338 4.60393 -2.51274 0
M  V30 8659 H 863.812 5.42621 -1.01321 0
M  V30 8660 H 864.289 4.38017 0.322084 0
M  V30 8661 H 864.895 4.04426 -1.31603 0
M  V30 8662 N 863.21 0.781244 1.36873 0
M  V30 8663 C 864.456 0.350407 1.9975 0
M  V30 8664 C 864.789 -1.07293 1.6187 0
M  V30 8665 O 864.064 -1.73983 0.869491 0
M  V30 8666 C 864.347 0.504834 3.56544 0
M  V30 8667 C 864.2 1.97127 4.04303 0
M  V30 8668 C 865.519 -0.0851272 4.40018 0
M  V30 8669 H 862.638 0.128794 0.725659 0
M  V30 8670 H 865.28 0.98606 1.6241 0
M  V30 8671 H 863.43 -0.0363006 3.88483 0
M  V30 8672 H 865.102 2.57284 3.82887 0
M  V30 8673 H 863.345 2.47676 3.56145 0
M  V30 8674 H 864.016 2.03033 5.13305 0
M  V30 8675 H 866.492 0.376704 4.14391 0
M  V30 8676 H 865.368 0.0530015 5.48874 0
M  V30 8677 H 865.629 -1.17642 4.2616 0
M  V30 8678 N 864.689 -1.48329 0.532571 0
M  V30 8679 C 865.637 -2.31336 -0.242133 0
M  V30 8680 C 866.631 -1.41391 -0.933006 0
M  V30 8681 O 867.837 -1.58284 -0.857096 0
M  V30 8682 H 864.212 -0.745724 -0.0969536 0
M  V30 8683 H 866.183 -2.94555 0.477504 0
M  V30 8684 C 864.932 -3.23501 -1.27446 0
M  V30 8685 H 864.255 -3.92659 -0.752261 0
M  V30 8686 H 865.695 -3.84461 -1.78789 0
M  V30 8687 C 864.154 -2.45288 -2.30944 0
M  V30 8688 O 864.684 -2.17955 -3.37429 0
M  V30 8689 N 862.89 -2.06737 -2.04226 0
M  V30 8690 H 862.437 -2.29166 -1.17647 0
M  V30 8691 H 862.395 -1.54719 -2.73696 0
M  V30 8692 N 866.167 -0.267825 -1.55308 0
M  V30 8693 C 867.395 0.354587 -2.03839 0
M  V30 8694 C 867.81 1.50007 -1.14644 0
M  V30 8695 O 867.167 1.81752 -0.165055 0
M  V30 8696 C 867.218 0.84254 -3.51544 0
M  V30 8697 O 866.939 -0.257318 -4.37344 0
M  V30 8698 C 868.44 1.53351 -4.15931 0
M  V30 8699 H 865.66 0.0818131 -0.665994 0
M  V30 8700 H 868.204 -0.397795 -2.00594 0
M  V30 8701 H 866.359 1.54503 -3.55257 0
M  V30 8702 H 866.773 0.116593 -5.2437 0
M  V30 8703 H 868.247 1.82643 -5.20908 0
M  V30 8704 H 868.724 2.4626 -3.63666 0
M  V30 8705 H 869.33 0.87506 -4.162 0
M  V30 8706 N 867.645 1.57599 0.00500368 0
M  V30 8707 C 868.922 1.81561 0.727654 0
M  V30 8708 C 869.302 0.871604 1.92266 0
M  V30 8709 O 868.65 -0.0808232 2.28357 0
M  V30 8710 C 868.86 3.29922 1.13809 0
M  V30 8711 C 870.208 3.95531 1.54403 0
M  V30 8712 O 871.232 3.34215 1.23202 0
M  V30 8713 O 870.091 5.03535 2.12402 0
M  V30 8714 H 867.185 0.747462 0.353878 0
M  V30 8715 H 869.731 1.69688 -0.0200667 0
M  V30 8716 H 868.503 3.90253 0.286078 0
M  V30 8717 H 868.126 3.46775 1.94507 0
M  V30 8718 N 869.123 -0.277682 1.55134 0
M  V30 8719 C 870.371 -1.00791 1.75173 0
M  V30 8720 C 870.692 -1.86987 0.553266 0
M  V30 8721 O 869.962 -1.91079 -0.43195 0
M  V30 8722 H 868.542 -0.375129 0.645978 0
M  V30 8723 H 871.204 -0.303041 1.9253 0
M  V30 8724 H 870.3 -1.64756 2.6507 0
M  V30 8725 N 870.601 -1.47988 -0.541979 0
M  V30 8726 C 871.848 -1.55393 -1.29843 0
M  V30 8727 C 872.176 -0.222668 -1.93221 0
M  V30 8728 O 871.431 0.785936 -1.79225 0
M  V30 8729 C 871.73 -2.63189 -2.41798 0
M  V30 8730 C 871.396 -4.05999 -1.96151 0
M  V30 8731 C 870.058 -4.44872 -1.83419 0
M  V30 8732 C 872.41 -4.95545 -1.61507 0
M  V30 8733 C 869.738 -5.71108 -1.34361 0
M  V30 8734 C 872.09 -6.22259 -1.13915 0
M  V30 8735 C 870.754 -6.59998 -0.997911 0
M  V30 8736 H 870.024 -0.568623 -0.47513 0
M  V30 8737 H 872.671 -1.81654 -0.606142 0
M  V30 8738 H 870.976 -2.30743 -3.16647 0
M  V30 8739 H 872.673 -2.66138 -2.99953 0
M  V30 8740 H 869.263 -3.75294 -2.07008 0
M  V30 8741 H 873.447 -4.662 -1.70209 0
M  V30 8742 H 868.703 -5.99083 -1.22103 0
M  V30 8743 H 872.877 -6.91048 -0.861755 0
M  V30 8744 H 870.504 -7.57704 -0.615561 0
M  V30 8745 N 872.079 0.78992 -1.36375 0
M  V30 8746 C 873.327 1.54472 -1.30319 0
M  V30 8747 C 873.648 1.94647 0.117338 0
M  V30 8748 O 872.918 1.64906 1.05748 0
M  V30 8749 H 871.498 0.572879 -0.479394 0
M  V30 8750 H 874.16 0.941245 -1.70665 0
M  V30 8751 H 873.256 2.45252 -1.93024 0
M  V30 8752 N 873.557 1.20646 1.01402 0
M  V30 8753 C 874.803 1.0197 1.753 0
M  V30 8754 C 875.136 -0.446803 1.8899 0
M  V30 8755 O 874.411 -1.33169 1.41762 0
M  V30 8756 C 874.694 1.70693 3.17074 0
M  V30 8757 C 874.547 3.24805 3.11162 0
M  V30 8758 C 875.866 1.44212 4.15802 0
M  V30 8759 H 872.985 0.371844 0.636318 0
M  V30 8760 H 875.627 1.48696 1.18277 0
M  V30 8761 H 873.777 1.30968 3.65759 0
M  V30 8762 H 875.449 3.73841 2.70261 0
M  V30 8763 H 873.692 3.55576 2.48492 0
M  V30 8764 H 874.363 3.68049 4.11393 0
M  V30 8765 H 876.839 1.7868 3.75783 0
M  V30 8766 H 875.715 1.94825 5.13161 0
M  V30 8767 H 875.976 0.370252 4.40547 0
M  V30 8768 N 875.035 -1.20752 1.01276 0
M  V30 8769 C 876.263 -1.94006 0.718976 0
M  V30 8770 C 876.678 -1.74544 -0.719711 0
M  V30 8771 O 876.035 -1.05697 -1.48776 0
M  V30 8772 C 876.086 -3.46208 1.04031 0
M  V30 8773 O 875.807 -3.65031 2.42248 0
M  V30 8774 C 877.308 -4.36614 0.767032 0
M  V30 8775 H 874.528 -0.616743 0.264327 0
M  V30 8776 H 877.072 -1.53352 1.3529 0
M  V30 8777 H 875.227 -3.84756 0.451852 0
M  V30 8778 H 875.641 -4.59054 2.53712 0
M  V30 8779 H 877.115 -5.42076 1.04198 0
M  V30 8780 H 877.592 -4.38182 -0.298851 0
M  V30 8781 H 878.198 -4.03723 1.33746 0
M  V30 8782 N 876.513 -0.788492 -1.36457 0
M  V30 8783 C 877.924 -0.423742 -1.81828 0
M  V30 8784 C 878.275 1.05221 -1.65599 0
M  V30 8785 O 877.4 1.8163 -1.17641 0
M  V30 8786 C 877.995 -0.762354 -3.30112 0
M  V30 8787 C 876.554 -0.450445 -3.73695 0
M  V30 8788 C 875.701 -0.997482 -2.58738 0
M  V30 8789 H 878.652 -0.981718 -1.24692 0
M  V30 8790 H 878.673 -0.0531136 -3.80463 0
M  V30 8791 H 878.185 -1.83662 -3.41891 0
M  V30 8792 H 876.286 0.615829 -3.67476 0
M  V30 8793 H 876.399 -0.970408 -4.69169 0
M  V30 8794 H 874.763 -0.420761 -2.51201 0
M  V30 8795 H 875.546 -2.07749 -2.73304 0
M  V30 8796 N 877.991 1.48044 -0.54043 0
M  V30 8797 C 878.921 2.32597 0.205178 0
M  V30 8798 C 879.902 1.42748 0.925041 0
M  V30 8799 O 881.087 1.71624 0.908784 0
M  V30 8800 C 878.217 3.24175 1.24612 0
M  V30 8801 C 877.171 4.23131 0.64376 0
M  V30 8802 C 876.497 5.03915 1.78812 0
M  V30 8803 C 877.797 5.20831 -0.39144 0
M  V30 8804 H 879.491 2.95184 -0.500676 0
M  V30 8805 H 877.037 1.41948 -0.242225 0
M  V30 8806 H 878.99 3.82158 1.77576 0
M  V30 8807 H 877.714 2.59608 1.98169 0
M  V30 8808 H 876.373 3.66349 0.135554 0
M  V30 8809 H 876.021 4.35765 2.51232 0
M  V30 8810 H 875.721 5.709 1.39094 0
M  V30 8811 H 877.245 5.64753 2.32134 0
M  V30 8812 H 878.659 5.73277 0.0515064 0
M  V30 8813 H 877.056 5.95926 -0.706569 0
M  V30 8814 H 878.126 4.6733 -1.29345 0
M  V30 8815 N 879.47 0.276058 1.55163 0
M  V30 8816 C 880.418 -0.626978 2.2399 0
M  V30 8817 C 881.412 -1.15708 1.23725 0
M  V30 8818 O 882.618 -1.1106 1.41653 0
M  V30 8819 H 878.993 -0.220742 0.718872 0
M  V30 8820 H 880.964 -0.0236569 2.98391 0
M  V30 8821 C 879.713 -1.79935 2.97521 0
M  V30 8822 H 879.036 -1.40064 3.74463 0
M  V30 8823 H 880.476 -2.40781 3.48999 0
M  V30 8824 C 878.935 -2.68838 2.03046 0
M  V30 8825 O 879.465 -3.69224 1.58229 0
M  V30 8826 N 877.671 -2.36028 1.69527 0
M  V30 8827 H 877.218 -1.54442 2.06169 0
M  V30 8828 H 877.176 -2.95782 1.06586 0
M  V30 8829 N 880.948 -1.576 0.00335426 0
M  V30 8830 C 882.197 -1.89892 -0.680001 0
M  V30 8831 C 882.51 -0.878731 -1.7475 0
M  V30 8832 O 883.716 -1.09199 -2.48572 0
M  V30 8833 C 882.172 -3.37098 -1.26066 0
M  V30 8834 C 881.78 -4.4742 -0.227807 0
M  V30 8835 C 883.524 -3.78495 -1.92202 0
M  V30 8836 C 881.431 -5.85706 -0.81865 0
M  V30 8837 H 880.361 -0.708578 -0.257746 0
M  V30 8838 H 883.012 -1.83387 0.0644472 0
M  V30 8839 H 881.394 -3.38451 -2.05589 0
M  V30 8840 H 882.568 -4.57589 0.54307 0
M  V30 8841 H 880.883 -4.15064 0.333297 0
M  V30 8842 H 883.48 -4.7915 -2.37318 0
M  V30 8843 H 883.823 -3.12187 -2.75399 0
M  V30 8844 H 884.356 -3.79456 -1.19408 0
M  V30 8845 H 881.095 -6.55495 -0.0253787 0
M  V30 8846 H 880.615 -5.79196 -1.55861 0
M  V30 8847 H 882.294 -6.33469 -1.31627 0
M  V30 8848 N 882.426 0.269451 -1.5528 0
M  V30 8849 C 883.672 0.997946 -1.77236 0
M  V30 8850 C 884.027 1.83808 -0.568546 0
M  V30 8851 O 883.32 1.8651 0.438706 0
M  V30 8852 C 883.514 1.91 -3.02082 0
M  V30 8853 C 883.343 1.15963 -4.34491 0
M  V30 8854 C 882.113 0.873873 -4.97686 0
M  V30 8855 C 884.311 0.548307 -5.11369 0
M  V30 8856 N 882.293 0.0970863 -6.13823 0
M  V30 8857 C 883.664 -0.0941413 -6.19929 0
M  V30 8858 C 885.719 0.456507 -4.95803 0
M  V30 8859 C 884.422 -0.819547 -7.14616 0
M  V30 8860 C 886.448 -0.255315 -5.90849 0
M  V30 8861 C 885.81 -0.886488 -6.988 0
M  V30 8862 H 881.909 0.347038 -0.700777 0
M  V30 8863 H 884.493 0.273262 -1.92773 0
M  V30 8864 H 882.664 2.60691 -2.87915 0
M  V30 8865 H 884.396 2.57237 -3.12428 0
M  V30 8866 H 881.151 1.18003 -4.58663 0
M  V30 8867 H 881.575 -0.278741 -6.76426 0
M  V30 8868 H 886.217 0.930164 -4.12441 0
M  V30 8869 H 883.935 -1.30488 -7.97495 0
M  V30 8870 H 887.521 -0.32671 -5.80882 0
M  V30 8871 H 886.401 -1.42851 -7.71079 0
M  V30 8872 N 883.904 1.48273 0.534124 0
M  V30 8873 C 885.152 1.55771 1.28762 0
M  V30 8874 C 885.473 0.231575 1.9362 0
M  V30 8875 O 884.743 -0.746533 1.81118 0
M  V30 8876 H 883.323 0.573851 0.47823 0
M  V30 8877 H 885.985 1.84712 0.621888 0
M  V30 8878 H 885.081 2.33657 2.06908 0
M  V30 8879 N 885.382 -0.782676 1.36792 0
M  V30 8880 C 886.292 -1.92679 1.33835 0
M  V30 8881 C 887.308 -1.72344 0.23952 0
M  V30 8882 O 888.484 -1.95766 0.473045 0
M  V30 8883 C 885.549 -3.27644 1.1336 0
M  V30 8884 C 884.61 -3.6071 2.32781 0
M  V30 8885 C 883.843 -4.89234 2.13273 0
M  V30 8886 O 884.066 -5.59468 1.11136 0
M  V30 8887 O 883 -5.21112 3.01208 0
M  V30 8888 H 886.826 -1.98124 2.30175 0
M  V30 8889 H 884.411 -0.923887 1.17408 0
M  V30 8890 H 886.293 -4.08394 1.03886 0
M  V30 8891 H 884.968 -3.23076 0.200868 0
M  V30 8892 H 883.875 -2.80238 2.47825 0
M  V30 8893 H 885.208 -3.70008 3.24584 0
M  V30 8894 N 886.86 -1.21182 -1.00761 0
M  V30 8895 C 887.81 -0.936247 -2.0789 0
M  V30 8896 C 888.794 0.107482 -1.60541 0
M  V30 8897 O 889.986 -0.1011 -1.76711 0
M  V30 8898 C 887.115 -0.499949 -3.3964 0
M  V30 8899 C 886.201 -1.5776 -3.93666 0
M  V30 8900 N 886.592 -2.80208 -4.2109 0
M  V30 8901 C 884.89 -1.44586 -4.21913 0
M  V30 8902 C 885.591 -3.49787 -4.64784 0
M  V30 8903 N 884.567 -2.7722 -4.676 0
M  V30 8904 H 888.369 -1.86659 -2.27015 0
M  V30 8905 H 885.883 -1.10716 -1.1881 0
M  V30 8906 H 887.88 -0.283897 -4.15932 0
M  V30 8907 H 886.54 0.423659 -3.21924 0
M  V30 8908 H 887.551 -3.16776 -4.09724 0
M  V30 8909 H 884.228 -0.587346 -4.13348 0
M  V30 8910 H 885.618 -4.54615 -4.94747 0
M  V30 8911 N 888.338 1.20213 -1.01915 0
M  V30 8912 C 889.568 1.93341 -0.728197 0
M  V30 8913 C 889.976 1.75151 0.715454 0
M  V30 8914 O 889.319 1.06437 1.49722 0
M  V30 8915 C 889.381 3.45677 -0.9873 0
M  V30 8916 C 889.045 3.8763 -2.42057 0
M  V30 8917 C 890.042 3.93184 -3.40151 0
M  V30 8918 C 887.727 4.19547 -2.76199 0
M  V30 8919 C 889.721 4.30069 -4.70446 0
M  V30 8920 C 887.408 4.56106 -4.06707 0
M  V30 8921 C 888.406 4.6134 -5.03641 0
M  V30 8922 O 888.094 4.97059 -6.31813 0
M  V30 8923 H 887.826 0.621258 -0.266485 0
M  V30 8924 H 890.38 1.53577 -1.36393 0
M  V30 8925 H 888.61 3.85578 -0.294405 0
M  V30 8926 H 890.299 4.00035 -0.687536 0
M  V30 8927 H 891.065 3.68687 -3.15111 0
M  V30 8928 H 886.944 4.14663 -2.01434 0
M  V30 8929 H 890.488 4.34069 -5.46105 0
M  V30 8930 H 886.385 4.80059 -4.31525 0
M  V30 8931 H 887.153 5.15043 -6.36139 0
M  V30 8932 N 889.816 0.795718 1.36037 0
M  V30 8933 C 891.062 0.380668 1.99806 0
M  V30 8934 C 891.417 -1.03783 1.62009 0
M  V30 8935 O 890.71 -1.70819 0.867831 0
M  V30 8936 C 890.904 0.489038 3.54038 0
M  V30 8937 C 890.733 1.91652 4.06817 0
M  V30 8938 C 889.503 2.54252 4.36674 0
M  V30 8939 C 891.701 2.87956 4.26129 0
M  V30 8940 N 889.683 3.88523 4.75314 0
M  V30 8941 C 891.054 4.07074 4.67644 0
M  V30 8942 C 893.109 2.8493 4.08313 0
M  V30 8943 C 891.812 5.23583 4.93208 0
M  V30 8944 C 893.838 4.00632 4.35027 0
M  V30 8945 C 893.2 5.18496 4.76804 0
M  V30 8946 H 889.299 0.186842 0.759351 0
M  V30 8947 H 891.883 1.03465 1.64933 0
M  V30 8948 H 890.054 -0.134893 3.88166 0
M  V30 8949 H 891.786 0.0496256 4.0467 0
M  V30 8950 H 888.541 2.05685 4.26604 0
M  V30 8951 H 888.965 4.57623 4.98909 0
M  V30 8952 H 893.607 1.94964 3.75165 0
M  V30 8953 H 891.325 6.14129 5.25234 0
M  V30 8954 H 894.911 3.99659 4.22805 0
M  V30 8955 H 893.791 6.06538 4.97073 0
M  V30 8956 N 891.294 -1.47756 0.548274 0
M  V30 8957 C 892.227 -2.26804 -0.252059 0
M  V30 8958 C 893.205 -1.3349 -0.928389 0
M  V30 8959 O 894.389 -1.6286 -0.949156 0
M  V30 8960 C 891.516 -3.10266 -1.35841 0
M  V30 8961 C 890.562 -4.1909 -0.791578 0
M  V30 8962 S 891.395 -5.34323 0.354878 0
M  V30 8963 C 892.551 -6.21348 -0.753511 0
M  V30 8964 H 892.784 -2.94336 0.418744 0
M  V30 8965 H 890.317 -1.50735 0.334413 0
M  V30 8966 H 892.275 -3.58925 -1.99207 0
M  V30 8967 H 890.936 -2.42112 -2.00101 0
M  V30 8968 H 890.129 -4.77183 -1.62212 0
M  V30 8969 H 889.731 -3.73266 -0.234274 0
M  V30 8970 H 892.023 -6.57156 -1.6478 0
M  V30 8971 H 892.966 -7.07788 -0.210141 0
M  V30 8972 H 893.374 -5.54797 -1.04216 0
M  V30 8973 N 892.772 -0.284283 -1.55015 0
M  V30 8974 C 893.702 0.592663 -2.25853 0
M  V30 8975 C 894.683 1.15151 -1.25197 0
M  V30 8976 O 895.868 1.18395 -1.53936 0
M  V30 8977 C 892.998 1.77254 -2.98661 0
M  V30 8978 C 891.952 1.34482 -4.06323 0
M  V30 8979 C 891.278 2.60853 -4.66754 0
M  V30 8980 C 892.578 0.488288 -5.20013 0
M  V30 8981 H 894.272 0.00187041 -2.994 0
M  V30 8982 H 891.818 -0.000540402 -1.44 0
M  V30 8983 H 893.771 2.39199 -3.46932 0
M  V30 8984 H 892.495 2.38931 -2.22664 0
M  V30 8985 H 891.154 0.748519 -3.58877 0
M  V30 8986 H 890.802 3.20808 -3.87416 0
M  V30 8987 H 890.502 2.32942 -5.39455 0
M  V30 8988 H 892.026 3.23631 -5.1778 0
M  V30 8989 H 893.44 1.01298 -5.6428 0
M  V30 8990 H 891.837 0.303669 -5.99331 0
M  V30 8991 H 892.907 -0.490727 -4.8241 0
M  V30 8992 N 894.251 1.57596 -0.0117121 0
M  V30 8993 C 895.528 1.82323 0.708356 0
M  V30 8994 C 895.908 0.891947 1.91331 0
M  V30 8995 O 895.256 -0.0565984 2.2843 0
M  V30 8996 C 895.466 3.31111 1.10303 0
M  V30 8997 C 896.814 3.97147 1.50199 0
M  V30 8998 O 897.838 3.35503 1.1965 0
M  V30 8999 O 896.697 5.0576 2.07049 0
M  V30 9000 H 893.791 0.751173 0.345931 0
M  V30 9001 H 896.337 1.69657 -0.0380632 0
M  V30 9002 H 895.109 3.90534 0.24467 0
M  V30 9003 H 894.732 3.48818 1.90818 0
M  V30 9004 N 895.729 -0.261212 1.5542 0
M  V30 9005 C 896.975 -0.992699 1.76843 0
M  V30 9006 C 897.308 -1.8551 0.574428 0
M  V30 9007 O 896.583 -1.89739 -0.427713 0
M  V30 9008 C 896.866 -1.86532 3.08022 0
M  V30 9009 C 896.719 -1.03206 4.378 0
M  V30 9010 C 898.038 -2.85036 3.35324 0
M  V30 9011 H 895.157 -0.359473 0.643388 0
M  V30 9012 H 897.799 -0.264214 1.88154 0
M  V30 9013 H 895.949 -2.48644 2.9851 0
M  V30 9014 H 897.621 -0.430743 4.59285 0
M  V30 9015 H 895.864 -0.335911 4.32497 0
M  V30 9016 H 896.535 -1.6761 5.25938 0
M  V30 9017 H 899.011 -2.3306 3.44706 0
M  V30 9018 H 897.887 -3.43226 4.28354 0
M  V30 9019 H 898.148 -3.60768 2.55537 0
M  V30 9020 N 897.207 -1.48554 -0.526253 0
M  V30 9021 C 898.484 -1.47252 -1.28748 0
M  V30 9022 C 898.864 -0.186245 -2.10277 0
M  V30 9023 O 898.212 0.831954 -2.12816 0
M  V30 9024 C 898.422 -2.73672 -2.16575 0
M  V30 9025 C 899.77 -3.22151 -2.76593 0
M  V30 9026 O 900.794 -2.74614 -2.2686 0
M  V30 9027 O 899.653 -4.04877 -3.67066 0
M  V30 9028 H 896.747 -0.588242 -0.581292 0
M  V30 9029 H 899.293 -1.60792 -0.5426 0
M  V30 9030 H 898.065 -3.58798 -1.56139 0
M  V30 9031 H 897.688 -2.6287 -2.98304 0
M  V30 9032 N 898.685 0.775411 -1.37205 0
M  V30 9033 C 899.618 1.8957 -1.27037 0
M  V30 9034 C 900.596 1.61891 -0.151643 0
M  V30 9035 O 901.78 1.85673 -0.325218 0
M  V30 9036 C 898.907 3.24712 -0.963316 0
M  V30 9037 C 897.953 3.71306 -2.09842 0
M  V30 9038 S 898.786 3.8541 -3.71778 0
M  V30 9039 C 899.942 5.23406 -3.43216 0
M  V30 9040 H 900.175 1.97905 -2.21857 0
M  V30 9041 H 897.708 0.936127 -1.22784 0
M  V30 9042 H 899.666 4.02768 -0.792983 0
M  V30 9043 H 898.327 3.14083 -0.0326561 0
M  V30 9044 H 897.52 4.69271 -1.83849 0
M  V30 9045 H 897.122 3.00341 -2.2287 0
M  V30 9046 H 899.414 6.08454 -2.97977 0
M  V30 9047 H 900.357 5.54409 -4.40495 0
M  V30 9048 H 900.765 4.9117 -2.78231 0
M  V30 9049 N 900.163 1.21714 1.00117 0
M  V30 9050 C 901.44 0.945391 1.71236 0
M  V30 9051 C 901.82 -0.541772 2.0403 0
M  V30 9052 O 901.168 -1.50763 1.71705 0
M  V30 9053 C 901.378 1.83444 2.96899 0
M  V30 9054 C 902.726 2.08558 3.69849 0
M  V30 9055 O 903.75 1.80824 3.06889 0
M  V30 9056 O 902.609 2.55485 4.83104 0
M  V30 9057 H 899.703 0.354834 0.747009 0
M  V30 9058 H 902.249 1.32661 1.05825 0
M  V30 9059 H 901.021 2.84075 2.69105 0
M  V30 9060 H 900.644 1.45428 3.70049 0
M  V30 9061 N 901.641 -1.19671 1.02551 0
M  V30 9062 C 902.881 -1.90971 0.728668 0
M  V30 9063 C 903.245 -1.7762 -0.729057 0
M  V30 9064 O 904.446 -2.43484 -1.13882 0
M  V30 9065 C 902.717 -3.3794 1.16323 0
M  V30 9066 S 904.276 -4.27493 0.989722 0
M  V30 9067 H 901.094 -0.659617 0.265381 0
M  V30 9068 H 903.696 -1.44698 1.31463 0
M  V30 9069 H 902.4 -3.45181 2.21986 0
M  V30 9070 H 901.931 -3.89243 0.570417 0
M  V30 9071 H 903.946 -4.96096 -0.101666 0
M  V30 9072 N 903.119 -0.802921 -1.35613 0
M  V30 9073 C 904.344 -0.392846 -2.03645 0
M  V30 9074 C 904.769 0.987075 -1.6012 0
M  V30 9075 O 904.127 1.63849 -0.776101 0
M  V30 9076 C 904.175 -0.480208 -3.57388 0
M  V30 9077 O 903.279 0.507751 -4.09262 0
M  V30 9078 H 902.62 -0.16464 -0.643265 0
M  V30 9079 H 905.15 -1.08779 -1.73287 0
M  V30 9080 H 905.16 -0.348683 -4.06507 0
M  V30 9081 H 903.835 -1.48675 -3.88418 0
M  V30 9082 H 902.412 0.336769 -3.71376 0
M  V30 9083 N 904.597 1.47463 -0.556102 0
M  V30 9084 C 905.544 2.29998 0.192213 0
M  V30 9085 C 906.514 1.38993 0.909403 0
M  V30 9086 O 907.699 1.67954 0.905316 0
M  V30 9087 C 904.839 3.22932 1.21692 0
M  V30 9088 C 903.952 4.29027 0.505908 0
M  V30 9089 C 903.087 5.09114 1.51581 0
M  V30 9090 C 902.126 6.06984 0.789714 0
M  V30 9091 N 901.263 6.80033 1.74639 0
M  V30 9092 H 906.103 2.93468 -0.517734 0
M  V30 9093 H 903.64 1.44654 -0.267147 0
M  V30 9094 H 905.598 3.75234 1.8236 0
M  V30 9095 H 904.228 2.61329 1.89491 0
M  V30 9096 H 903.28 3.7979 -0.215276 0
M  V30 9097 H 904.592 4.9876 -0.062958 0
M  V30 9098 H 903.746 5.6556 2.19606 0
M  V30 9099 H 902.485 4.3928 2.11859 0
M  V30 9100 H 901.49 5.49717 0.0955382 0
M  V30 9101 H 902.715 6.78827 0.192688 0
M  V30 9102 H 900.661 6.12931 2.33777 0
M  V30 9103 H 900.578 7.45933 1.22965 0
M  V30 9104 H 901.846 7.41054 2.41782 0
M  V30 9105 N 906.075 0.2925 1.54862 0
M  V30 9106 C 907.038 -0.574423 2.21885 0
M  V30 9107 C 908.038 -1.06791 1.20218 0
M  V30 9108 O 909.228 -0.9653 1.45009 0
M  V30 9109 C 906.36 -1.79438 2.89853 0
M  V30 9110 H 907.553 0.0110319 2.99898 0
M  V30 9111 H 905.106 0.043256 1.5624 0
M  V30 9112 H 905.841 -2.4199 2.15897 0
M  V30 9113 H 905.626 -1.44827 3.64373 0
M  V30 9114 H 907.116 -2.41048 3.41007 0
M  V30 9115 N 907.553 -1.57587 0.0200696 0
M  V30 9116 C 908.799 -1.91708 -0.661503 0
M  V30 9117 C 909.132 -0.895968 -1.72296 0
M  V30 9118 O 908.407 0.082577 -1.94325 0
M  V30 9119 C 908.69 -3.36344 -1.28627 0
M  V30 9120 C 908.543 -4.49186 -0.234982 0
M  V30 9121 C 909.862 -3.80771 -2.20685 0
M  V30 9122 H 906.981 -0.69717 -0.239005 0
M  V30 9123 H 909.623 -1.8985 0.0754764 0
M  V30 9124 H 907.773 -3.38058 -1.91439 0
M  V30 9125 H 909.445 -4.59606 0.395011 0
M  V30 9126 H 907.688 -4.31557 0.440565 0
M  V30 9127 H 908.359 -5.47395 -0.711558 0
M  V30 9128 H 910.835 -3.80735 -1.67868 0
M  V30 9129 H 909.711 -4.82685 -2.61356 0
M  V30 9130 H 909.972 -3.15764 -3.09428 0
M  V30 9131 N 909.032 0.252966 -1.55557 0
M  V30 9132 C 909.98 1.33289 -1.90622 0
M  V30 9133 C 910.974 1.50133 -0.784638 0
M  V30 9134 O 912.18 1.51679 -0.969196 0
M  V30 9135 H 908.555 0.446196 -0.605321 0
M  V30 9136 H 910.526 1.00977 -2.80796 0
M  V30 9137 C 909.275 2.68254 -2.21213 0
M  V30 9138 H 908.598 2.5609 -3.07014 0
M  V30 9139 H 910.038 3.42707 -2.49656 0
M  V30 9140 C 908.497 3.20884 -1.02642 0
M  V30 9141 O 909.027 4.00783 -0.271292 0
M  V30 9142 N 907.233 2.7883 -0.818682 0
M  V30 9143 H 906.78 2.13966 -1.43444 0
M  V30 9144 H 906.738 3.14388 -0.0269989 0
M  V30 9145 N 910.51 1.48831 0.518367 0
M  V30 9146 C 911.758 1.57128 1.27103 0
M  V30 9147 C 912.079 0.252098 1.93364 0
M  V30 9148 O 911.349 -0.727281 1.819 0
M  V30 9149 H 909.929 0.578891 0.472116 0
M  V30 9150 H 912.591 1.85361 0.602262 0
M  V30 9151 H 911.687 2.35838 2.04418 0
M  V30 9152 N 911.988 -0.768124 1.37614 0
M  V30 9153 C 913.234 -1.52823 1.34226 0
M  V30 9154 C 913.589 -1.92266 -0.0717482 0
M  V30 9155 O 912.882 -1.61484 -1.03119 0
M  V30 9156 C 913.076 -2.80204 2.21856 0
M  V30 9157 C 912.905 -2.53213 3.71636 0
M  V30 9158 C 911.675 -2.47159 4.40727 0
M  V30 9159 C 913.873 -2.20965 4.64413 0
M  V30 9160 N 911.855 -2.12289 5.76026 0
M  V30 9161 C 913.226 -1.96264 5.88116 0
M  V30 9162 C 915.281 -2.07151 4.52761 0
M  V30 9163 C 913.984 -1.59145 7.01474 0
M  V30 9164 C 916.01 -1.71432 5.66008 0
M  V30 9165 C 915.372 -1.47594 6.88764 0
M  V30 9166 H 911.471 -0.559388 0.546451 0
M  V30 9167 H 914.055 -0.895795 1.72869 0
M  V30 9168 H 912.226 -3.4128 1.85424 0
M  V30 9169 H 913.958 -3.46133 2.097 0
M  V30 9170 H 910.713 -2.63137 3.93772 0
M  V30 9171 H 911.137 -1.97541 6.47539 0
M  V30 9172 H 915.779 -2.24262 3.58422 0
M  V30 9173 H 913.497 -1.40773 7.95744 0
M  V30 9174 H 917.083 -1.61397 5.58965 0
M  V30 9175 H 915.963 -1.20365 7.74908 0
M  V30 9176 N 913.466 -1.22244 -0.994698 0
M  V30 9177 C 914.713 -1.04591 -1.73398 0
M  V30 9178 C 915.041 0.419223 -1.89928 0
M  V30 9179 O 914.296 1.32714 -1.43824 0
M  V30 9180 C 914.595 -1.70014 -3.14372 0
M  V30 9181 C 914.261 -3.19903 -3.17762 0
M  V30 9182 C 912.923 -3.60803 -3.18394 0
M  V30 9183 C 915.275 -4.15851 -3.14194 0
M  V30 9184 C 912.603 -4.96135 -3.13157 0
M  V30 9185 C 914.955 -5.51157 -3.10498 0
M  V30 9186 C 913.619 -5.91439 -3.09445 0
M  V30 9187 H 912.889 -0.382725 -0.63451 0
M  V30 9188 H 915.536 -1.51981 -1.16508 0
M  V30 9189 H 913.841 -1.14945 -3.7456 0
M  V30 9190 H 915.538 -1.53848 -3.70313 0
M  V30 9191 H 912.128 -2.87336 -3.18019 0
M  V30 9192 H 916.312 -3.85272 -3.12857 0
M  V30 9193 H 911.568 -5.26578 -3.10685 0
M  V30 9194 H 915.742 -6.2523 -3.06692 0
M  V30 9195 H 913.369 -6.96271 -3.05141 0
M  V30 9196 N 914.944 1.19125 -1.03184 0
M  V30 9197 C 915.854 2.26112 -0.625329 0
M  V30 9198 C 916.87 1.7056 0.344298 0
M  V30 9199 O 918.046 2.0039 0.20144 0
M  V30 9200 C 915.111 3.46697 0.0145169 0
M  V30 9201 C 914.172 4.17419 -1.00299 0
M  V30 9202 C 913.405 5.32247 -0.393581 0
M  V30 9203 O 913.628 5.64724 0.802659 0
M  V30 9204 O 912.562 5.91428 -1.1179 0
M  V30 9205 H 916.388 2.63131 -1.51643 0
M  V30 9206 H 913.973 1.26036 -0.802197 0
M  V30 9207 H 915.855 4.19762 0.371139 0
M  V30 9208 H 914.53 3.11521 0.879581 0
M  V30 9209 H 913.437 3.4646 -1.41125 0
M  V30 9210 H 914.77 4.56573 -1.83852 0
M  V30 9211 N 916.422 0.810101 1.35185 0
M  V30 9212 C 917.352 0.237453 2.32289 0
M  V30 9213 C 918.333 -0.639032 1.5764 0
M  V30 9214 O 919.518 -0.568575 1.8569 0
M  V30 9215 C 916.648 -0.611964 3.41866 0
M  V30 9216 C 915.602 0.166318 4.27677 0
M  V30 9217 C 914.928 -0.805024 5.28605 0
M  V30 9218 C 916.228 1.36729 5.04086 0
M  V30 9219 H 917.922 1.04874 2.80432 0
M  V30 9220 H 915.468 0.505751 1.34826 0
M  V30 9221 H 917.421 -1.02267 4.08802 0
M  V30 9222 H 916.145 -1.45617 2.92341 0
M  V30 9223 H 914.804 0.558238 3.62325 0
M  V30 9224 H 914.452 -1.64483 4.75347 0
M  V30 9225 H 914.152 -0.288577 5.86891 0
M  V30 9226 H 915.676 -1.21386 5.98413 0
M  V30 9227 H 917.09 1.03128 5.63948 0
M  V30 9228 H 915.487 1.81848 5.71884 0
M  V30 9229 H 916.557 2.15214 4.34524 0
M  V30 9230 N 917.9 -1.47166 0.563914 0
M  V30 9231 C 918.847 -2.30097 -0.180013 0
M  V30 9232 C 919.817 -1.39473 -0.902019 0
M  V30 9233 O 921.002 -1.68432 -0.896396 0
M  V30 9234 C 918.142 -3.23573 -1.19978 0
M  V30 9235 C 917.255 -4.2929 -0.483149 0
M  V30 9236 C 916.39 -5.0991 -1.48879 0
M  V30 9237 C 915.429 -6.07395 -0.757513 0
M  V30 9238 N 914.566 -6.8095 -1.71031 0
M  V30 9239 H 919.406 -2.93189 0.53329 0
M  V30 9240 H 916.943 -1.4451 0.274814 0
M  V30 9241 H 918.901 -3.76196 -1.80368 0
M  V30 9242 H 917.531 -2.6233 -1.88103 0
M  V30 9243 H 916.583 -3.79671 0.235414 0
M  V30 9244 H 917.895 -4.9872 0.0894075 0
M  V30 9245 H 917.049 -5.66717 -2.16603 0
M  V30 9246 H 915.788 -4.40397 -2.09527 0
M  V30 9247 H 914.793 -5.4976 -0.0663841 0
M  V30 9248 H 916.018 -6.78919 -0.156685 0
M  V30 9249 H 913.964 -6.14162 -2.30524 0
M  V30 9250 H 913.881 -7.46574 -1.19007 0
M  V30 9251 H 915.149 -7.42326 -2.37849 0
M  V30 9252 N 919.378 -0.300708 -1.54705 0
M  V30 9253 C 920.341 0.562648 -2.22187 0
M  V30 9254 C 921.341 1.06152 -1.20782 0
M  V30 9255 O 922.531 0.957596 -1.45519 0
M  V30 9256 C 919.663 1.77899 -2.908 0
M  V30 9257 H 920.856 -0.0269361 -2.99888 0
M  V30 9258 H 918.409 -0.0515412 -1.56215 0
M  V30 9259 H 919.144 2.40841 -2.17177 0
M  V30 9260 H 918.929 1.42892 -3.65136 0
M  V30 9261 H 920.419 2.39236 -3.42281 0
M  V30 9262 N 920.856 1.57574 -0.0284266 0
M  V30 9263 C 922.103 1.91772 0.650364 0
M  V30 9264 C 922.431 0.904769 1.72175 0
M  V30 9265 O 921.686 -0.0864038 1.95509 0
M  V30 9266 C 921.985 3.32699 1.3056 0
M  V30 9267 C 921.651 4.49423 0.364658 0
M  V30 9268 C 920.313 4.81084 0.105672 0
M  V30 9269 C 922.665 5.20439 -0.28151 0
M  V30 9270 C 919.993 5.81119 -0.8073 0
M  V30 9271 C 922.345 6.21449 -1.18253 0
M  V30 9272 C 921.009 6.51551 -1.45042 0
M  V30 9273 H 920.279 0.701744 0.237985 0
M  V30 9274 H 922.926 1.91288 -0.0900448 0
M  V30 9275 H 921.231 3.29441 2.12075 0
M  V30 9276 H 922.928 3.5643 1.83736 0
M  V30 9277 H 919.518 4.24703 0.576692 0
M  V30 9278 H 923.702 4.9621 -0.0944806 0
M  V30 9279 H 918.958 6.02788 -1.02256 0
M  V30 9280 H 923.132 6.75597 -1.68942 0
M  V30 9281 H 920.759 7.28882 -2.15951 0
M  V30 9282 N 922.334 -0.244713 1.55689 0
M  V30 9283 C 923.583 -0.970373 1.76824 0
M  V30 9284 C 923.896 -1.86402 0.592764 0
M  V30 9285 O 925.102 -2.62659 0.687186 0
M  V30 9286 C 923.558 -1.77547 3.13058 0
M  V30 9287 C 923.166 -0.929104 4.3826 0
M  V30 9288 C 924.91 -2.49373 3.43531 0
M  V30 9289 C 922.817 -1.73021 5.65524 0
M  V30 9290 H 921.747 -0.366048 0.659185 0
M  V30 9291 H 924.398 -0.224964 1.82116 0
M  V30 9292 H 922.78 -2.56291 3.01879 0
M  V30 9293 H 923.954 -0.183836 4.60433 0
M  V30 9294 H 922.269 -0.324071 4.15137 0
M  V30 9295 H 924.866 -3.09767 4.35831 0
M  V30 9296 H 925.209 -3.21099 2.64955 0
M  V30 9297 H 925.742 -1.77637 3.55935 0
M  V30 9298 H 922.481 -1.05666 6.46927 0
M  V30 9299 H 922.001 -2.45071 5.47449 0
M  V30 9300 H 923.68 -2.2968 6.0486 0
M  V30 9301 N 923.813 -1.49104 -0.510467 0
M  V30 9302 C 924.76 -1.65074 -1.61305 0
M  V30 9303 C 925.73 -0.492362 -1.58635 0
M  V30 9304 O 926.915 -0.718241 -1.76765 0
M  V30 9305 C 924.055 -1.71457 -2.99493 0
M  V30 9306 C 923.168 -2.98536 -3.12251 0
M  V30 9307 C 922.303 -2.95957 -4.41116 0
M  V30 9308 C 921.342 -4.17655 -4.47471 0
M  V30 9309 N 920.479 -4.13041 -5.67751 0
M  V30 9310 H 925.319 -2.59222 -1.46996 0
M  V30 9311 H 922.856 -1.28535 -0.715346 0
M  V30 9312 H 924.814 -1.7314 -3.79577 0
M  V30 9313 H 923.444 -0.807834 -3.12528 0
M  V30 9314 H 922.496 -3.06509 -2.25292 0
M  V30 9315 H 923.808 -3.88527 -3.12807 0
M  V30 9316 H 922.962 -2.96149 -5.2951 0
M  V30 9317 H 921.701 -2.03728 -4.4311 0
M  V30 9318 H 920.706 -4.17717 -3.57481 0
M  V30 9319 H 921.931 -5.11066 -4.472 0
M  V30 9320 H 919.877 -3.23643 -5.70606 0
M  V30 9321 H 919.794 -4.96757 -5.69884 0
M  V30 9322 H 921.062 -4.17322 -6.58379 0
M  V30 9323 N 925.291 0.760815 -1.38019 0
M  V30 9324 C 926.239 1.89578 -1.34771 0
M  V30 9325 C 927.233 1.67766 -0.234714 0
M  V30 9326 O 928.439 1.75423 -0.403352 0
M  V30 9327 H 924.814 0.623608 -0.420258 0
M  V30 9328 H 926.785 1.89434 -2.30558 0
M  V30 9329 C 925.534 3.26976 -1.18246 0
M  V30 9330 H 924.857 3.44342 -2.03147 0
M  V30 9331 H 926.297 4.06657 -1.20026 0
M  V30 9332 C 924.756 3.36717 0.111145 0
M  V30 9333 O 925.286 3.86607 1.09079 0
M  V30 9334 N 923.492 2.90128 0.165542 0
M  V30 9335 H 923.039 2.49719 -0.632328 0
M  V30 9336 H 922.997 2.97026 1.03067 0
M  V30 9337 N 926.769 1.22769 0.988202 0
M  V30 9338 C 928.017 1.05301 1.725 0
M  V30 9339 C 928.338 -0.412103 1.90596 0
M  V30 9340 O 927.608 -1.29606 1.46898 0
M  V30 9341 H 926.188 0.386658 0.639144 0
M  V30 9342 H 928.85 1.54359 1.18993 0
M  V30 9343 H 927.946 1.53465 2.71763 0
M  V30 9344 N 928.247 -1.18576 1.03814 0
M  V30 9345 C 929.179 -2.21607 0.585055 0
M  V30 9346 C 930.192 -1.59125 -0.343963 0
M  V30 9347 O 931.381 -1.77959 -0.138882 0
M  V30 9348 C 928.481 -3.38495 -0.165602 0
M  V30 9349 C 927.654 -4.30557 0.770662 0
M  V30 9350 C 926.713 -5.26161 0.0637534 0
M  V30 9351 O 925.739 -5.64961 0.693359 0
M  V30 9352 N 926.941 -5.67882 -1.20377 0
M  V30 9353 H 929.706 -2.61104 1.47121 0
M  V30 9354 H 927.267 -1.33336 0.918316 0
M  V30 9355 H 929.259 -3.99474 -0.648292 0
M  V30 9356 H 927.829 -2.97711 -0.953268 0
M  V30 9357 H 927.049 -3.67221 1.43326 0
M  V30 9358 H 928.337 -4.88969 1.40667 0
M  V30 9359 H 927.735 -5.38409 -1.73586 0
M  V30 9360 H 926.292 -6.31069 -1.63079 0
M  V30 9361 N 929.725 -0.817259 -1.34754 0
M  V30 9362 C 930.973 -0.401852 -1.98065 0
M  V30 9363 C 931.294 1.03718 -1.65129 0
M  V30 9364 O 930.564 1.71921 -0.939141 0
M  V30 9365 H 929.144 -0.145603 -0.732672 0
M  V30 9366 H 931.806 -1.04545 -1.64488 0
M  V30 9367 H 930.902 -0.516241 -3.07801 0
M  V30 9368 N 931.203 1.46865 -0.571711 0
M  V30 9369 C 932.449 2.03307 -0.0614759 0
M  V30 9370 C 932.804 1.43657 1.27986 0
M  V30 9371 O 932.097 0.588186 1.82348 0
M  V30 9372 C 932.291 3.57323 0.0742311 0
M  V30 9373 C 932.12 4.31909 -1.2524 0
M  V30 9374 C 930.89 4.71246 -1.82361 0
M  V30 9375 C 933.088 4.66137 -2.17304 0
M  V30 9376 N 931.07 5.30535 -3.08878 0
M  V30 9377 C 932.441 5.25881 -3.28404 0
M  V30 9378 C 934.496 4.48066 -2.1712 0
M  V30 9379 C 933.199 5.69461 -4.39439 0
M  V30 9380 C 935.225 4.92656 -3.27176 0
M  V30 9381 C 934.587 5.52461 -4.36997 0
M  V30 9382 H 930.686 0.779293 -0.0650098 0
M  V30 9383 H 933.27 1.79161 -0.762192 0
M  V30 9384 H 931.441 3.81206 0.744095 0
M  V30 9385 H 933.173 4.00408 0.587849 0
M  V30 9386 H 929.928 4.53658 -1.35985 0
M  V30 9387 H 930.352 5.64711 -3.73404 0
M  V30 9388 H 934.994 4.01173 -1.33492 0
M  V30 9389 H 932.712 6.15338 -5.23817 0
M  V30 9390 H 936.298 4.80433 -3.28139 0
M  V30 9391 H 935.178 5.86334 -5.20752 0
M  V30 9392 N 932.681 0.308908 1.54543 0
M  V30 9393 C 933.591 -0.572939 2.27496 0
M  V30 9394 C 934.607 -1.14171 1.31305 0
M  V30 9395 O 935.783 -1.16481 1.64299 0
M  V30 9396 C 932.848 -1.72483 3.0075 0
M  V30 9397 C 931.909 -1.18934 4.12496 0
M  V30 9398 C 931.142 -2.28634 4.82247 0
M  V30 9399 O 931.365 -3.48691 4.5141 0
M  V30 9400 O 930.299 -1.94879 5.69478 0
M  V30 9401 H 934.125 0.0190877 3.03694 0
M  V30 9402 H 931.71 0.0750943 1.49211 0
M  V30 9403 H 933.592 -2.39578 3.46671 0
M  V30 9404 H 932.267 -2.30332 2.2744 0
M  V30 9405 H 931.174 -0.483904 3.70957 0
M  V30 9406 H 932.507 -0.656185 4.87806 0
M  V30 9407 N 934.159 -1.57557 0.0367827 0
M  V30 9408 C 935.387 -1.96419 -0.650168 0
M  V30 9409 C 935.802 -0.913656 -1.6522 0
M  V30 9410 O 935.159 0.103718 -1.82205 0
M  V30 9411 C 935.21 -3.35355 -1.3498 0
M  V30 9412 O 934.931 -4.36379 -0.387905 0
M  V30 9413 C 936.432 -3.88892 -2.12786 0
M  V30 9414 H 933.652 -0.646751 -0.178756 0
M  V30 9415 H 936.196 -2.04261 0.0988197 0
M  V30 9416 H 934.351 -3.28708 -2.05012 0
M  V30 9417 H 934.765 -5.16969 -0.885596 0
M  V30 9418 H 936.239 -4.88428 -2.5718 0
M  V30 9419 H 936.716 -3.23547 -2.97008 0
M  V30 9420 H 937.322 -3.98831 -1.47694 0
M  V30 9421 N 935.637 0.236453 -1.55816 0
M  V30 9422 C 936.6 1.27633 -1.90375 0
M  V30 9423 C 937.6 1.40557 -0.781048 0
M  V30 9424 O 938.79 1.39078 -1.04895 0
M  V30 9425 C 935.922 2.65247 -2.14142 0
M  V30 9426 H 937.115 0.982019 -2.83366 0
M  V30 9427 H 934.668 0.476215 -1.48869 0
M  V30 9428 H 935.403 2.99801 -1.23653 0
M  V30 9429 H 935.188 2.57246 -2.95917 0
M  V30 9430 H 936.678 3.40313 -2.42026 0
M  V30 9431 N 937.115 1.49373 0.502552 0
M  V30 9432 C 938.364 1.58028 1.25339 0
M  V30 9433 C 938.677 0.271494 1.93707 0
M  V30 9434 O 939.883 0.236584 2.70467 0
M  V30 9435 C 938.339 2.78817 2.27572 0
M  V30 9436 C 937.947 4.16448 1.65151 0
M  V30 9437 C 939.691 2.96802 3.03494 0
M  V30 9438 C 937.598 5.28461 2.65486 0
M  V30 9439 H 936.528 0.588396 0.471494 0
M  V30 9440 H 939.179 1.75756 0.52744 0
M  V30 9441 H 937.561 2.5458 3.03323 0
M  V30 9442 H 938.735 4.50816 0.954029 0
M  V30 9443 H 937.05 4.03809 1.01625 0
M  V30 9444 H 939.647 3.77656 3.78524 0
M  V30 9445 H 939.99 2.07303 3.61014 0
M  V30 9446 H 940.523 3.21071 2.34858 0
M  V30 9447 H 937.262 6.20015 2.12749 0
M  V30 9448 H 936.782 4.9855 3.33479 0
M  V30 9449 H 938.461 5.5773 3.27943 0
M  V30 9450 N 938.594 -0.753485 1.38421 0
M  V30 9451 C 939.557 -1.84888 1.35459 0
M  V30 9452 C 940.557 -1.58764 0.255083 0
M  V30 9453 O 941.747 -1.66507 0.511978 0
M  V30 9454 C 938.879 -3.22361 1.10888 0
M  V30 9455 H 940.072 -1.88922 2.32913 0
M  V30 9456 H 937.625 -0.955199 1.23716 0
M  V30 9457 H 938.36 -3.23996 0.1404 0
M  V30 9458 H 938.145 -3.42717 1.90492 0
M  V30 9459 H 939.635 -4.02437 1.1151 0
M  V30 9460 N 940.072 -1.23292 -0.981677 0
M  V30 9461 C 941.004 -0.970782 -2.07626 0
M  V30 9462 C 942.017 0.0547506 -1.62708 0
M  V30 9463 O 943.206 -0.180623 -1.77584 0
M  V30 9464 C 940.306 -0.44055 -3.36024 0
M  V30 9465 C 939.479 -1.52595 -4.09919 0
M  V30 9466 C 938.538 -1.00082 -5.16595 0
M  V30 9467 O 937.564 -1.68951 -5.43548 0
M  V30 9468 N 938.766 0.172017 -5.80245 0
M  V30 9469 H 941.531 -1.91316 -2.30691 0
M  V30 9470 H 939.092 -1.14133 -1.14828 0
M  V30 9471 H 941.084 -0.0743111 -4.04632 0
M  V30 9472 H 939.654 0.407211 -3.09936 0
M  V30 9473 H 938.874 -2.06501 -3.35784 0
M  V30 9474 H 940.162 -2.2559 -4.56055 0
M  V30 9475 H 939.56 0.748129 -5.60731 0
M  V30 9476 H 938.117 0.479532 -6.50034 0
M  V30 9477 N 941.55 1.18024 -1.04442 0
M  V30 9478 C 942.827 1.8398 -0.664125 0
M  V30 9479 C 943.207 1.92961 0.856116 0
M  V30 9480 O 942.555 1.45839 1.75907 0
M  V30 9481 C 942.765 3.22069 -1.34433 0
M  V30 9482 C 944.113 3.98063 -1.47754 0
M  V30 9483 O 945.137 3.31523 -1.30274 0
M  V30 9484 O 943.996 5.17291 -1.76272 0
M  V30 9485 H 941.09 0.793543 -0.23285 0
M  V30 9486 H 943.636 1.25385 -1.14354 0
M  V30 9487 H 942.408 3.10458 -2.38184 0
M  V30 9488 H 942.031 3.88325 -0.853782 0
M  V30 9489 N 943.028 0.824394 1.34319 0
M  V30 9490 C 943.976 0.235628 2.31403 0
M  V30 9491 C 944.97 -0.624443 1.57471 0
M  V30 9492 O 946.176 -0.515618 1.72457 0
M  V30 9493 H 942.551 0.0574537 0.749802 0
M  V30 9494 H 944.522 1.06925 2.78585 0
M  V30 9495 C 943.271 -0.586617 3.42716 0
M  V30 9496 H 942.594 0.0658669 3.99746 0
M  V30 9497 H 944.034 -0.964661 4.1288 0
M  V30 9498 C 942.493 -1.75957 2.87299 0
M  V30 9499 O 943.023 -2.8578 2.82299 0
M  V30 9500 N 941.229 -1.57678 2.44102 0
M  V30 9501 H 940.776 -0.683436 2.48369 0
M  V30 9502 H 940.734 -2.36311 2.07375 0
M  V30 9503 N 944.506 -1.46559 0.579492 0
M  V30 9504 C 945.469 -2.28739 -0.145371 0
M  V30 9505 C 946.469 -1.38211 -0.821854 0
M  V30 9506 O 947.659 -1.6062 -0.674302 0
M  V30 9507 C 944.791 -3.18507 -1.21515 0
M  V30 9508 H 945.984 -2.94301 0.576786 0
M  V30 9509 H 943.537 -1.52616 0.337327 0
M  V30 9510 H 944.272 -2.57685 -1.96899 0
M  V30 9511 H 944.057 -3.85157 -0.734616 0
M  V30 9512 H 945.547 -3.80369 -1.72363 0
M  V30 9513 N 945.984 -0.3171 -1.54377 0
M  V30 9514 C 947.395 0.172287 -1.85903 0
M  V30 9515 C 947.746 1.52141 -1.23885 0
M  V30 9516 O 946.871 2.0949 -0.542476 0
M  V30 9517 C 947.466 0.319392 -3.37291 0
M  V30 9518 C 946.025 0.752998 -3.68791 0
M  V30 9519 C 945.172 -0.129143 -2.76999 0
M  V30 9520 H 948.123 -0.537597 -1.49317 0
M  V30 9521 H 948.144 1.15137 -3.62662 0
M  V30 9522 H 947.656 -0.662671 -3.82401 0
M  V30 9523 H 945.757 1.74504 -3.2921 0
M  V30 9524 H 945.87 0.561228 -4.75801 0
M  V30 9525 H 944.234 0.394242 -2.5163 0
M  V30 9526 H 945.017 -1.10785 -3.24933 0
M  V30 9527 N 947.462 1.57535 -0.0451378 0
M  V30 9528 C 948.692 1.96476 0.638814 0
M  V30 9529 C 949.1 0.921056 1.65267 0
M  V30 9530 O 948.443 -0.103843 1.83406 0
M  V30 9531 C 948.505 3.31629 1.38788 0
M  V30 9532 C 948.169 4.5391 0.530545 0
M  V30 9533 C 949.166 5.19512 -0.200864 0
M  V30 9534 C 946.851 5.00159 0.463242 0
M  V30 9535 C 948.845 6.29695 -0.988078 0
M  V30 9536 C 946.532 6.10221 -0.327665 0
M  V30 9537 C 947.53 6.74849 -1.05202 0
M  V30 9538 O 947.218 7.82795 -1.82993 0
M  V30 9539 H 946.95 0.651625 0.17989 0
M  V30 9540 H 949.504 2.05126 -0.106031 0
M  V30 9541 H 947.734 3.19516 2.17822 0
M  V30 9542 H 949.423 3.5536 1.96148 0
M  V30 9543 H 950.189 4.84742 -0.158299 0
M  V30 9544 H 946.068 4.49651 1.01663 0
M  V30 9545 H 949.612 6.80072 -1.55397 0
M  V30 9546 H 945.509 6.44428 -0.37189 0
M  V30 9547 H 946.277 7.99542 -1.7514 0
M  V30 9548 N 948.94 -0.228186 1.55939 0
M  V30 9549 C 950.168 -0.970618 1.8272 0
M  V30 9550 C 950.583 -1.78212 0.623385 0
M  V30 9551 O 949.94 -1.77879 -0.408063 0
M  V30 9552 C 949.991 -1.89352 3.07942 0
M  V30 9553 O 949.712 -1.11483 4.23678 0
M  V30 9554 C 951.213 -2.75039 3.47661 0
M  V30 9555 H 948.433 -0.284772 0.607574 0
M  V30 9556 H 950.977 -0.245419 2.03022 0
M  V30 9557 H 949.132 -2.57275 2.89635 0
M  V30 9558 H 949.546 -1.74073 4.94772 0
M  V30 9559 H 951.02 -3.35511 4.38334 0
M  V30 9560 H 951.497 -3.471 2.69106 0
M  V30 9561 H 952.103 -2.1254 3.68384 0
M  V30 9562 N 950.418 -1.49637 -0.494624 0
M  V30 9563 C 951.643 -1.63431 -1.27691 0
M  V30 9564 C 952.068 -0.30813 -1.85559 0
M  V30 9565 O 951.426 0.725083 -1.66169 0
M  V30 9566 C 951.474 -2.71043 -2.3784 0
M  V30 9567 O 950.578 -2.3066 -3.41862 0
M  V30 9568 H 949.919 -0.546804 -0.376698 0
M  V30 9569 H 952.449 -1.95866 -0.591413 0
M  V30 9570 H 952.459 -2.93406 -2.83508 0
M  V30 9571 H 951.134 -3.67306 -1.95088 0
M  V30 9572 H 949.711 -2.18652 -3.02069 0
M  V30 9573 N 951.896 0.746133 -1.38819 0
M  V30 9574 C 953.124 1.53539 -1.38685 0
M  V30 9575 C 953.539 1.88788 0.0215039 0
M  V30 9576 O 952.896 1.53312 0.990031 0
M  V30 9577 C 952.947 2.8299 -2.24942 0
M  V30 9578 O 952.668 2.49242 -3.60292 0
M  V30 9579 C 954.169 3.77085 -2.3307 0
M  V30 9580 H 951.389 0.474842 -0.474095 0
M  V30 9581 H 953.933 0.922844 -1.82493 0
M  V30 9582 H 952.088 3.40603 -1.84576 0
M  V30 9583 H 952.502 3.32319 -4.05789 0
M  V30 9584 H 953.976 4.64845 -2.97696 0
M  V30 9585 H 954.453 4.18049 -1.34655 0
M  V30 9586 H 955.059 3.25394 -2.73859 0
M  V30 9587 N 953.375 1.23811 0.975125 0
M  V30 9588 C 954.323 1.02149 2.0897 0
M  V30 9589 C 955.317 -0.0412172 1.6935 0
M  V30 9590 O 956.523 0.112726 1.79647 0
M  V30 9591 H 952.898 0.313259 0.683647 0
M  V30 9592 H 954.869 1.96686 2.24404 0
M  V30 9593 C 953.618 0.635023 3.41852 0
M  V30 9594 H 952.941 1.44449 3.72793 0
M  V30 9595 H 954.381 0.52301 4.20762 0
M  V30 9596 C 952.84 -0.657207 3.30428 0
M  V30 9597 O 953.37 -1.70494 3.63723 0
M  V30 9598 N 951.576 -0.635122 2.83575 0
M  V30 9599 H 951.123 0.21784 2.56677 0
M  V30 9600 H 951.081 -1.49995 2.76313 0
M  V30 9601 N 954.853 -1.17469 1.05066 0
M  V30 9602 C 955.803 -2.19388 0.620713 0
M  V30 9603 C 956.787 -1.5722 -0.34214 0
M  V30 9604 O 957.979 -1.76279 -0.159574 0
M  V30 9605 C 955.108 -3.433 -0.00438518 0
M  V30 9606 C 954.194 -4.12569 0.982218 0
M  V30 9607 N 954.585 -4.57683 2.15313 0
M  V30 9608 C 952.883 -4.38575 0.810416 0
M  V30 9609 C 953.584 -5.11124 2.77719 0
M  V30 9610 N 952.56 -5.0325 2.05525 0
M  V30 9611 H 956.362 -2.51971 1.51287 0
M  V30 9612 H 953.876 -1.33784 0.920625 0
M  V30 9613 H 955.873 -4.15591 -0.330161 0
M  V30 9614 H 954.533 -3.12209 -0.89195 0
M  V30 9615 H 955.544 -4.51812 2.53154 0
M  V30 9616 H 952.221 -4.17492 -0.0262078 0
M  V30 9617 H 953.611 -5.56161 3.77008 0
M  V30 9618 N 956.331 -0.831506 -1.3388 0
M  V30 9619 C 957.264 -0.2046 -2.27281 0
M  V30 9620 C 958.242 0.643992 -1.49303 0
M  V30 9621 O 959.426 0.605863 -1.78498 0
M  V30 9622 C 956.553 0.713409 -3.31101 0
M  V30 9623 C 955.599 -0.0587654 -4.2646 0
M  V30 9624 S 956.432 -1.41172 -5.16557 0
M  V30 9625 C 957.588 -0.498807 -6.23909 0
M  V30 9626 H 957.821 -0.996442 -2.80104 0
M  V30 9627 H 955.354 -0.62786 -1.41058 0
M  V30 9628 H 957.312 1.23748 -3.91403 0
M  V30 9629 H 955.973 1.47885 -2.77108 0
M  V30 9630 H 955.166 0.639466 -4.99927 0
M  V30 9631 H 954.768 -0.513665 -3.70456 0
M  V30 9632 H 957.06 0.306268 -6.76807 0
M  V30 9633 H 958.003 -1.20342 -6.97799 0
M  V30 9634 H 958.411 -0.0834242 -5.64438 0
M  V30 9635 N 957.809 1.4625 -0.587256 0
M  V30 9636 C 958.772 2.28812 0.133238 0
M  V30 9637 C 959.772 1.38645 0.814513 0
M  V30 9638 O 960.962 1.60975 0.665774 0
M  V30 9639 C 958.094 3.19147 1.19824 0
M  V30 9640 H 959.287 2.93991 -0.592386 0
M  V30 9641 H 956.84 1.52435 -0.345416 0
M  V30 9642 H 957.575 2.58725 1.95529 0
M  V30 9643 H 957.36 3.85541 0.71418 0
M  V30 9644 H 958.85 3.81278 1.70344 0
M  V30 9645 N 959.287 0.325282 1.54207 0
M  V30 9646 C 960.219 -0.57395 2.21897 0
M  V30 9647 C 961.232 -1.0785 1.21952 0
M  V30 9648 O 962.421 -0.991782 1.48411 0
M  V30 9649 C 959.521 -1.8005 2.87115 0
M  V30 9650 C 958.694 -1.43435 4.13213 0
M  V30 9651 C 957.753 -2.51862 4.62009 0
M  V30 9652 O 956.779 -2.15934 5.26651 0
M  V30 9653 N 957.981 -3.8282 4.36382 0
M  V30 9654 H 960.746 0.00566918 2.99699 0
M  V30 9655 H 958.307 0.148563 1.61217 0
M  V30 9656 H 960.299 -2.51981 3.16682 0
M  V30 9657 H 958.869 -2.28792 2.13009 0
M  V30 9658 H 958.089 -0.546598 3.90392 0
M  V30 9659 H 959.377 -1.16544 4.95273 0
M  V30 9660 H 958.775 -4.14807 3.84645 0
M  V30 9661 H 957.332 -4.50976 4.70599 0
M  V30 9662 N 960.765 -1.57509 0.0534917 0
M  V30 9663 C 962.005 -1.94654 -0.623641 0
M  V30 9664 C 962.369 -0.93184 -1.67871 0
M  V30 9665 O 963.57 -1.19031 -2.41009 0
M  V30 9666 C 961.841 -3.36575 -1.20216 0
M  V30 9667 S 963.4 -3.95677 -1.89697 0
M  V30 9668 H 960.218 -0.680893 -0.20471 0
M  V30 9669 H 962.82 -1.95113 0.122982 0
M  V30 9670 H 961.524 -4.08223 -0.422177 0
M  V30 9671 H 961.055 -3.39617 -1.98555 0
M  V30 9672 H 963.07 -3.81092 -3.17779 0
M  V30 9673 N 962.243 0.219913 -1.56058 0
M  V30 9674 C 963.491 0.942199 -1.78793 0
M  V30 9675 C 963.812 1.84804 -0.622284 0
M  V30 9676 O 963.082 1.9255 0.360735 0
M  V30 9677 H 961.662 0.350895 -0.659455 0
M  V30 9678 H 964.324 0.231376 -1.93522 0
M  V30 9679 H 963.42 1.54804 -2.71002 0
M  V30 9680 N 963.721 1.49897 0.486681 0
M  V30 9681 C 964.668 1.67619 1.58658 0
M  V30 9682 C 965.638 0.517537 1.57831 0
M  V30 9683 O 966.823 0.746272 1.756 0
M  V30 9684 C 963.963 1.762 2.96728 0
M  V30 9685 C 963.076 3.03465 3.07462 0
M  V30 9686 C 962.211 3.02937 4.36351 0
M  V30 9687 C 961.25 4.24721 4.4077 0
M  V30 9688 N 960.387 4.22021 5.61108 0
M  V30 9689 H 965.227 2.61528 1.42853 0
M  V30 9690 H 962.764 1.29657 0.694807 0
M  V30 9691 H 964.722 1.79156 3.76774 0
M  V30 9692 H 963.352 0.857452 3.11203 0
M  V30 9693 H 962.404 3.10054 2.20387 0
M  V30 9694 H 963.716 3.93454 3.06586 0
M  V30 9695 H 962.87 3.04536 5.24731 0
M  V30 9696 H 961.609 2.10751 4.39813 0
M  V30 9697 H 960.614 4.23352 3.5079 0
M  V30 9698 H 961.839 5.18116 4.39013 0
M  V30 9699 H 959.785 3.3268 5.65385 0
M  V30 9700 H 959.702 5.05761 5.61909 0
M  V30 9701 H 960.97 4.27743 6.51656 0
M  V30 9702 N 965.199 -0.738761 1.39212 0
M  V30 9703 C 966.448 -1.49368 1.35543 0
M  V30 9704 C 966.761 -1.95543 -0.0471091 0
M  V30 9705 O 967.967 -2.70714 -0.206376 0
M  V30 9706 C 966.423 -2.69882 2.381 0
M  V30 9707 C 966.031 -2.30672 3.8405 0
M  V30 9708 C 967.775 -3.47718 2.435 0
M  V30 9709 C 965.682 -3.47886 4.78256 0
M  V30 9710 H 964.612 -0.560898 0.503894 0
M  V30 9711 H 967.263 -0.806221 1.6484 0
M  V30 9712 H 965.645 -3.40684 2.01867 0
M  V30 9713 H 966.819 -1.67441 4.29302 0
M  V30 9714 H 965.134 -1.65936 3.81909 0
M  V30 9715 H 967.731 -4.34897 3.11077 0
M  V30 9716 H 968.074 -3.89919 1.45838 0
M  V30 9717 H 968.607 -2.83942 2.78606 0
M  V30 9718 H 965.346 -3.10739 5.77167 0
M  V30 9719 H 964.866 -4.10111 4.37686 0
M  V30 9720 H 966.545 -4.14271 4.96979 0
M  V30 9721 N 966.677 -1.24326 -0.968545 0
M  V30 9722 C 967.625 -1.03256 -2.08425 0
M  V30 9723 C 968.619 0.0322356 -1.69369 0
M  V30 9724 O 969.825 -0.122251 -1.79584 0
M  V30 9725 H 966.2 -0.31688 -0.681976 0
M  V30 9726 H 968.171 -1.97873 -2.23358 0
M  V30 9727 C 966.92 -0.653144 -3.4151 0
M  V30 9728 H 966.243 -1.46424 -3.72021 0
M  V30 9729 H 967.683 -0.545316 -4.20479 0
M  V30 9730 C 966.142 0.639674 -3.30771 0
M  V30 9731 O 966.672 1.68563 -3.64622 0
M  V30 9732 N 964.878 0.620074 -2.83907 0
M  V30 9733 H 964.425 -0.231449 -2.56558 0
M  V30 9734 H 964.383 1.48528 -2.77104 0
M  V30 9735 N 968.156 1.1691 -1.05688 0
M  V30 9736 C 969.103 2.21095 -0.662246 0
M  V30 9737 C 970.073 1.62623 0.338083 0
M  V30 9738 O 971.258 1.89428 0.228362 0
M  V30 9739 C 968.398 3.45066 -0.0484018 0
M  V30 9740 C 967.511 4.17809 -1.09817 0
M  V30 9741 C 966.646 5.29281 -0.451114 0
M  V30 9742 C 965.685 5.93817 -1.48484 0
M  V30 9743 N 964.822 6.96793 -0.861588 0
M  V30 9744 H 969.662 2.54204 -1.55513 0
M  V30 9745 H 967.199 1.24863 -0.777665 0
M  V30 9746 H 969.157 4.15932 0.324978 0
M  V30 9747 H 967.787 3.12526 0.807918 0
M  V30 9748 H 966.839 3.45608 -1.58932 0
M  V30 9749 H 968.151 4.61907 -1.88265 0
M  V30 9750 H 967.305 6.06695 -0.0244251 0
M  V30 9751 H 966.044 4.8633 0.365306 0
M  V30 9752 H 965.049 5.1513 -1.92149 0
M  V30 9753 H 966.274 6.38848 -2.30325 0
M  V30 9754 H 964.22 6.55967 -0.0657688 0
M  V30 9755 H 964.137 7.39229 -1.58354 0
M  V30 9756 H 965.405 7.78142 -0.45984 0
M  V30 9757 N 969.634 0.838594 1.33437 0
M  V30 9758 C 970.881 0.434169 1.97791 0
M  V30 9759 C 971.209 -1.00652 1.66431 0
M  V30 9760 O 970.464 -1.71848 0.936309 0
M  V30 9761 C 970.763 0.601425 3.52303 0
M  V30 9762 C 970.429 2.01017 4.03612 0
M  V30 9763 C 969.091 2.39551 4.17336 0
M  V30 9764 C 971.443 2.93035 4.31022 0
M  V30 9765 C 968.771 3.69406 4.55802 0
M  V30 9766 C 971.123 4.22372 4.7094 0
M  V30 9767 C 969.787 4.60862 4.82869 0
M  V30 9768 H 969.057 0.158874 0.723768 0
M  V30 9769 H 971.704 1.06556 1.59116 0
M  V30 9770 H 970.009 -0.113284 3.91636 0
M  V30 9771 H 971.706 0.268798 4.00098 0
M  V30 9772 H 968.296 1.7009 3.93405 0
M  V30 9773 H 972.48 2.64503 4.19943 0
M  V30 9774 H 967.736 3.99033 4.63231 0
M  V30 9775 H 971.91 4.93749 4.91106 0
M  V30 9776 H 969.537 5.6153 5.12433 0
M  V30 9777 N 971.112 -1.45937 0.595003 0
M  V30 9778 C 972.022 -2.34221 -0.133325 0
M  V30 9779 C 973.038 -1.50491 -0.873407 0
M  V30 9780 O 974.214 -1.83328 -0.833828 0
M  V30 9781 C 971.279 -3.27896 -1.12628 0
M  V30 9782 C 970.34 -4.27529 -0.389532 0
M  V30 9783 C 969.573 -5.16729 -1.33519 0
M  V30 9784 O 969.796 -5.09102 -2.57238 0
M  V30 9785 O 968.73 -5.96023 -0.839084 0
M  V30 9786 H 972.556 -2.97877 0.591861 0
M  V30 9787 H 970.141 -1.45113 0.355329 0
M  V30 9788 H 972.023 -3.85654 -1.69851 0
M  V30 9789 H 970.698 -2.6682 -1.83272 0
M  V30 9790 H 969.605 -3.73424 0.224843 0
M  V30 9791 H 970.938 -4.91425 0.276169 0
M  V30 9792 N 972.59 -0.333456 -1.54032 0
M  V30 9793 C 973.837 0.266133 -2.00744 0
M  V30 9794 C 974.165 1.51361 -1.22148 0
M  V30 9795 O 973.42 1.93473 -0.294368 0
M  V30 9796 C 973.719 0.63565 -3.51702 0
M  V30 9797 C 973.385 -0.513786 -4.47963 0
M  V30 9798 C 972.047 -0.829253 -4.74001 0
M  V30 9799 C 974.399 -1.2854 -5.05101 0
M  V30 9800 C 971.727 -1.91888 -5.54433 0
M  V30 9801 C 974.079 -2.3652 -5.86721 0
M  V30 9802 C 972.743 -2.68637 -6.11057 0
M  V30 9803 H 972.013 0.097385 -0.734573 0
M  V30 9804 H 974.66 -0.459282 -1.85911 0
M  V30 9805 H 972.965 1.44163 -3.64313 0
M  V30 9806 H 974.662 1.11129 -3.85294 0
M  V30 9807 H 971.252 -0.25784 -4.27824 0
M  V30 9808 H 975.436 -1.05494 -4.84958 0
M  V30 9809 H 970.692 -2.17208 -5.71516 0
M  V30 9810 H 974.866 -2.96747 -6.30011 0
M  V30 9811 H 972.493 -3.53197 -6.73169 0
M  V30 9812 N 974.068 1.57479 -0.061844 0
M  V30 9813 C 975.016 2.13346 0.926629 0
M  V30 9814 C 976.01 1.06787 1.31502 0
M  V30 9815 O 977.216 1.25181 1.29343 0
M  V30 9816 H 973.591 0.682046 0.316729 0
M  V30 9817 H 975.562 2.95279 0.430424 0
M  V30 9818 C 974.311 2.70198 2.18834 0
M  V30 9819 H 973.634 3.51859 1.89829 0
M  V30 9820 H 975.074 3.12897 2.86132 0
M  V30 9821 C 973.533 1.64481 2.9402 0
M  V30 9822 O 974.063 1.0639 3.87355 0
M  V30 9823 N 972.269 1.35749 2.56944 0
M  V30 9824 H 971.816 1.83177 1.81119 0
M  V30 9825 H 971.774 0.652469 3.07555 0
M  V30 9826 N 975.546 -0.211634 1.56173 0
M  V30 9827 C 976.494 -1.28188 1.94089 0
M  V30 9828 C 977.488 -1.47999 0.824167 0
M  V30 9829 O 978.694 -1.49056 1.00907 0
M  V30 9830 H 975.069 -0.42999 0.616938 0
M  V30 9831 H 977.04 -0.934962 2.83374 0
M  V30 9832 C 975.789 -2.62294 2.28248 0
M  V30 9833 H 975.112 -2.4786 3.13696 0
M  V30 9834 H 976.552 -3.35967 2.58655 0
M  V30 9835 C 975.011 -3.18049 1.11113 0
M  V30 9836 O 975.541 -3.99923 0.377458 0
M  V30 9837 N 973.747 -2.76561 0.892321 0
M  V30 9838 H 973.294 -2.10088 1.49067 0
M  V30 9839 H 973.252 -3.14206 0.110344 0
M  V30 9840 N 977.024 -1.50153 -0.478725 0
M  V30 9841 C 978.249 -1.64776 -1.2595 0
M  V30 9842 C 978.674 -0.327794 -1.85222 0
M  V30 9843 O 978.032 0.707418 -1.66929 0
M  V30 9844 C 978.08 -2.73551 -2.34952 0
M  V30 9845 O 977.184 -2.34273 -3.39397 0
M  V30 9846 H 976.525 -0.550769 -0.370877 0
M  V30 9847 H 979.055 -1.96482 -0.570605 0
M  V30 9848 H 979.065 -2.96397 -2.8038 0
M  V30 9849 H 977.74 -3.69354 -1.91181 0
M  V30 9850 H 976.317 -2.21844 -2.99733 0
M  V30 9851 N 978.502 0.731368 -1.39602 0
M  V30 9852 C 979.75 1.48805 -1.36753 0
M  V30 9853 C 980.071 1.94969 0.034676 0
M  V30 9854 O 979.341 1.69243 0.986591 0
M  V30 9855 H 977.921 0.55203 -0.503261 0
M  V30 9856 H 980.583 0.868013 -1.74504 0
M  V30 9857 H 979.679 2.36844 -2.03252 0
M  V30 9858 N 979.98 1.24838 0.961938 0
M  V30 9859 C 981.226 1.09313 1.70817 0
M  V30 9860 C 981.559 -0.366244 1.90715 0
M  V30 9861 O 980.834 -1.27036 1.47282 0
M  V30 9862 C 981.117 1.83988 3.09549 0
M  V30 9863 C 980.97 3.3771 2.97106 0
M  V30 9864 C 982.289 1.61718 4.09311 0
M  V30 9865 H 979.408 0.398498 0.619974 0
M  V30 9866 H 982.05 1.53579 1.11864 0
M  V30 9867 H 980.2 1.46363 3.59875 0
M  V30 9868 H 981.872 3.84967 2.54161 0
M  V30 9869 H 980.115 3.65795 2.33187 0
M  V30 9870 H 980.786 3.85166 3.95412 0
M  V30 9871 H 983.262 1.94458 3.67866 0
M  V30 9872 H 982.138 2.16415 5.04436 0
M  V30 9873 H 982.399 0.55677 4.3858 0
M  V30 9874 N 981.458 -1.16348 1.06306 0
M  V30 9875 C 982.704 -1.87158 0.781007 0
M  V30 9876 C 983.037 -1.81499 -0.690784 0
M  V30 9877 O 982.312 -1.23074 -1.50609 0
M  V30 9878 C 982.595 -3.3672 1.27639 0
M  V30 9879 C 982.448 -3.51069 2.81194 0
M  V30 9880 C 983.767 -4.31122 0.884388 0
M  V30 9881 H 980.886 -0.679586 0.285187 0
M  V30 9882 H 983.528 -1.36756 1.31901 0
M  V30 9883 H 981.678 -3.79775 0.818715 0
M  V30 9884 H 983.35 -3.16952 3.35171 0
M  V30 9885 H 981.593 -2.92976 3.19918 0
M  V30 9886 H 982.264 -4.56105 3.10921 0
M  V30 9887 H 984.74 -3.95969 1.27858 0
M  V30 9888 H 983.616 -5.34279 1.25847 0
M  V30 9889 H 983.877 -4.41598 -0.210673 0
M  V30 9890 N 982.937 -0.845659 -1.3299 0
M  V30 9891 C 984.186 -0.440928 -1.96822 0
M  V30 9892 C 984.499 1.00668 -1.67706 0
M  V30 9893 O 985.705 1.51641 -2.25205 0
M  V30 9894 C 984.161 -0.73752 -3.52262 0
M  V30 9895 C 983.769 -2.20026 -3.90247 0
M  V30 9896 C 985.513 -0.400072 -4.22611 0
M  V30 9897 C 983.42 -2.44054 -5.38694 0
M  V30 9898 H 982.35 -0.161148 -0.736578 0
M  V30 9899 H 985.001 -1.03519 -1.51513 0
M  V30 9900 H 983.383 -0.0728025 -3.95933 0
M  V30 9901 H 984.557 -2.90602 -3.57613 0
M  V30 9902 H 982.872 -2.50135 -3.32899 0
M  V30 9903 H 985.469 -0.557136 -5.3179 0
M  V30 9904 H 985.812 0.657547 -4.11074 0
M  V30 9905 H 986.345 -1.0203 -3.84493 0
M  V30 9906 H 983.084 -3.48407 -5.55241 0
M  V30 9907 H 982.604 -1.78047 -5.72765 0
M  V30 9908 H 984.283 -2.27549 -6.05665 0
M  V30 9909 N 984.415 1.45619 -0.602734 0
M  V30 9910 C 985.831 1.57368 -0.26599 0
M  V30 9911 C 986.031 1.59485 1.23154 0
M  V30 9912 O 985.087 1.52254 2.01432 0
M  V30 9913 C 986.4 2.85863 -0.932881 0
M  V30 9914 C 987.948 2.9953 -0.908344 0
M  V30 9915 C 988.423 4.30789 -1.55515 0
M  V30 9916 N 989.914 4.37536 -1.52042 0
M  V30 9917 C 990.649 5.37758 -1.99008 0
M  V30 9918 N 990.145 6.44544 -2.54038 0
M  V30 9919 N 991.938 5.29085 -1.89805 0
M  V30 9920 H 984.089 1.42489 -1.57514 0
M  V30 9921 H 986.352 0.680948 -0.659556 0
M  V30 9922 H 986.058 2.90183 -1.98713 0
M  V30 9923 H 985.932 3.74467 -0.453209 0
M  V30 9924 H 988.319 2.9478 0.137344 0
M  V30 9925 H 988.4 2.12349 -1.42623 0
M  V30 9926 H 988.044 4.36297 -2.60014 0
M  V30 9927 H 987.974 5.16778 -1.01232 0
M  V30 9928 H 990.465 3.60972 -1.11837 0
M  V30 9929 H 990.778 7.17258 -2.87682 0
M  V30 9930 H 989.123 6.45308 -2.58075 0
M  V30 9931 H 992.314 4.44566 -1.46556 0
M  V30 9932 H 992.487 6.07043 -2.26722 0
M  V30 9933 N 985.893 0.34162 1.53853 0
M  V30 9934 C 987.118 -0.259608 2.05769 0
M  V30 9935 C 987.543 -1.43588 1.21507 0
M  V30 9936 O 986.901 -1.79856 0.228364 0
M  V30 9937 C 986.949 -0.654455 3.54611 0
M  V30 9938 O 986.053 -1.75472 3.73207 0
M  V30 9939 H 985.394 -0.0434621 0.662576 0
M  V30 9940 H 987.924 0.495274 1.98515 0
M  V30 9941 H 987.934 -0.932142 3.97209 0
M  V30 9942 H 986.609 0.205779 4.15391 0
M  V30 9943 H 985.186 -1.47444 3.42512 0
M  V30 9944 N 987.371 -1.57444 0.0701946 0
M  V30 9945 C 988.618 -1.93429 -0.59929 0
M  V30 9946 C 988.946 -0.9501 -1.69715 0
M  V30 9947 O 988.201 0.0345377 -1.9567 0
M  V30 9948 C 988.5 -3.36044 -1.21694 0
M  V30 9949 C 988.166 -4.50232 -0.245374 0
M  V30 9950 C 986.828 -4.81195 0.0219161 0
M  V30 9951 C 989.18 -5.1951 0.419396 0
M  V30 9952 C 986.508 -5.78775 0.96109 0
M  V30 9953 C 988.86 -6.18095 1.34688 0
M  V30 9954 C 987.524 -6.47477 1.62265 0
M  V30 9955 H 986.794 -0.707807 -0.219296 0
M  V30 9956 H 989.441 -1.90982 0.14073 0
M  V30 9957 H 987.746 -3.34948 -2.03265 0
M  V30 9958 H 989.443 -3.61176 -1.74221 0
M  V30 9959 H 986.033 -4.26082 -0.463887 0
M  V30 9960 H 990.217 -4.95785 0.226009 0
M  V30 9961 H 985.473 -5.99865 1.18202 0
M  V30 9962 H 989.647 -6.7088 1.86795 0
M  V30 9963 H 987.274 -7.229 2.352 0
M  V30 9964 O 988.888 0.0704711 -1.61346 0
M  V30 9965 H 989.579 0.696202 -1.80756 0
M  V30 END ATOM
M  V30 BEGIN BOND
M  V30 END BOND
M  V30 END CTAB
M  END
$$$$
