drugbank_target|Q9HTQ2 Alanine racemase, catabolic (DB03252; DB03801)
 OpenBabel12092120003D

  0  0  0     0  0            999 V3000
M  V30 BEGIN CTAB
M  V30 COUNTS 5474 5537 0 0 0
M  V30 BEGIN ATOM
M  V30 1 H -0.908 1.98254 -0.117106 0
M  V30 2 N 0 1.576 0 0
M  V30 3 C 0.933 2.03868 1.02534 0
M  V30 4 C 1.911 0.928543 1.3348 0
M  V30 5 O 3.095 1.19667 1.45644 0
M  V30 6 C 0.222 2.43627 2.35294 0
M  V30 7 C -0.732 3.65373 2.2001 0
M  V30 8 S 0.101 5.13292 1.52614 0
M  V30 9 C 1.257 5.56322 2.86805 0
M  V30 10 H 1.49 2.90518 0.631377 0
M  V30 11 H -0.977 1.52953 0.210867 0
M  V30 12 H 0.981 2.67203 3.11629 0
M  V30 13 H -0.358 1.57376 2.7183 0
M  V30 14 H -1.165 3.90944 3.18086 0
M  V30 15 H -1.563 3.418 1.51819 0
M  V30 16 H 0.729 5.58782 3.83104 0
M  V30 17 H 1.672 6.56266 2.65933 0
M  V30 18 H 2.08 4.83886 2.90714 0
M  V30 19 N 1.4781 -0.272755 1.55222 0
M  V30 20 C 2.8941 -0.619959 1.47067 0
M  V30 21 C 3.0941 -1.895 0.684978 0
M  V30 22 O 2.1501 -2.51675 0.203931 0
M  V30 23 C 3.4631 -0.746693 2.91282 0
M  V30 24 C 5.0111 -0.840731 3.01497 0
M  V30 25 C 5.4861 -0.99924 4.46967 0
M  V30 26 N 6.9771 -1.06476 4.50796 0
M  V30 27 C 7.7121 -1.20621 5.6057 0
M  V30 28 N 7.2081 -1.31483 6.80209 0
M  V30 29 N 9.0011 -1.23733 5.48312 0
M  V30 30 H 1.1521 0.564606 2.04758 0
M  V30 31 H 3.4151 0.191177 0.928523 0
M  V30 32 H 3.1211 0.119753 3.51496 0
M  V30 33 H 2.9951 -1.6269 3.40311 0
M  V30 34 H 5.3821 -1.69764 2.41379 0
M  V30 35 H 5.4631 0.0640874 2.5572 0
M  V30 36 H 5.1071 -0.146984 5.07687 0
M  V30 37 H 5.0371 -1.91871 4.90401 0
M  V30 38 H 7.5281 -0.993196 3.64615 0
M  V30 39 H 7.8411 -1.42111 7.59621 0
M  V30 40 H 6.1861 -1.28487 6.8302 0
M  V30 41 H 9.3771 -1.14877 4.53785 0
M  V30 42 H 9.5501 -1.34412 6.33906 0
M  V30 43 N 2.9562 -1.48159 -0.537278 0
M  V30 44 C 4.3672 -1.49429 -1.11928 0
M  V30 45 C 4.7182 -0.26 -1.9447 0
M  V30 46 O 3.8432 0.633489 -2.0692 0
M  V30 47 C 4.4382 -2.70758 -2.03656 0
M  V30 48 C 2.9972 -2.74923 -2.57088 0
M  V30 49 C 2.1442 -2.42835 -1.3389 0
M  V30 50 H 5.0952 -1.55381 -0.322886 0
M  V30 51 H 5.1162 -2.48861 -2.87834 0
M  V30 52 H 4.6282 -3.60575 -1.43553 0
M  V30 53 H 2.7292 -1.89296 -3.20933 0
M  V30 54 H 2.8422 -3.76157 -2.9672 0
M  V30 55 H 1.2062 -1.93836 -1.65226 0
M  V30 56 H 1.9892 -3.34884 -0.755504 0
M  V30 57 N 4.4343 0.785586 -1.36625 0
M  V30 58 C 5.3973 1.87999 -1.31107 0
M  V30 59 C 6.3973 1.59316 -0.217959 0
M  V30 60 O 7.5873 1.67656 -0.472977 0
M  V30 61 C 4.7193 3.24861 -1.03334 0
M  V30 62 H 5.9123 1.94307 -2.2844 0
M  V30 63 H 3.4653 0.983813 -1.21453 0
M  V30 64 H 4.2003 3.24235 -0.0647432 0
M  V30 65 H 3.9853 3.4707 -1.82441 0
M  V30 66 H 5.4753 4.04929 -1.02088 0
M  V30 67 N 5.9124 1.20967 1.01018 0
M  V30 68 C 7.3284 0.965905 1.27053 0
M  V30 69 C 7.5284 -0.350785 1.98423 0
M  V30 70 O 6.5844 -1.07773 2.28344 0
M  V30 71 C 7.8974 2.15294 2.09926 0
M  V30 72 C 9.4454 2.19463 2.23171 0
M  V30 73 C 9.9204 3.3767 3.09424 0
M  V30 74 N 11.4114 3.37724 3.17012 0
M  V30 75 C 12.1464 4.25837 3.83993 0
M  V30 76 N 11.6424 5.24138 4.53047 0
M  V30 77 N 13.4354 4.1366 3.80581 0
M  V30 78 H 5.5864 2.0565 0.531194 0
M  V30 79 H 7.8494 0.90024 0.297106 0
M  V30 80 H 7.5554 3.10684 1.64828 0
M  V30 81 H 7.4294 2.13923 3.10672 0
M  V30 82 H 9.8164 1.24632 2.6749 0
M  V30 83 H 9.8974 2.2488 1.21912 0
M  V30 84 H 9.5414 4.32791 2.65808 0
M  V30 85 H 9.4714 3.29491 4.10784 0
M  V30 86 H 11.9624 2.6658 2.6785 0
M  V30 87 H 12.2754 5.87684 5.01844 0
M  V30 88 H 10.6204 5.28068 4.5185 0
M  V30 89 H 13.8114 3.36127 3.25785 0
M  V30 90 H 13.9844 4.82538 4.32505 0
M  V30 91 N 7.3905 -1.2043 1.01659 0
M  V30 92 C 8.3535 -2.21433 0.591616 0
M  V30 93 C 9.3535 -1.57203 -0.338226 0
M  V30 94 O 10.5435 -1.73737 -0.126918 0
M  V30 95 C 7.6755 -3.40628 -0.136058 0
M  V30 96 H 8.8685 -2.60545 1.48514 0
M  V30 97 H 6.4215 -1.33893 0.806379 0
M  V30 98 H 7.1565 -3.07019 -1.04449 0
M  V30 99 H 6.9415 -3.88475 0.531917 0
M  V30 100 H 8.4315 -4.15475 -0.420735 0
M  V30 101 N 8.8686 -0.792821 -1.36206 0
M  V30 102 C 9.7986 -0.207853 -2.32573 0
M  V30 103 C 10.7796 0.659055 -1.56813 0
M  V30 104 O 11.9646 0.592176 -1.84951 0
M  V30 105 C 9.0946 0.655449 -3.41059 0
M  V30 106 C 8.0486 -0.111842 -4.27854 0
M  V30 107 C 7.3746 0.872274 -5.27537 0
M  V30 108 C 8.6746 -1.30299 -5.05786 0
M  V30 109 H 10.3686 -1.01294 -2.81744 0
M  V30 110 H 7.9146 -0.48854 -1.3546 0
M  V30 111 H 9.8676 1.07464 -4.07467 0
M  V30 112 H 8.5916 1.49328 -2.90463 0
M  V30 113 H 7.2506 -0.512053 -3.63006 0
M  V30 114 H 6.8986 1.70523 -4.73214 0
M  V30 115 H 6.5986 0.363291 -5.86476 0
M  V30 116 H 8.1226 1.28996 -5.96818 0
M  V30 117 H 9.5366 -0.959379 -5.65216 0
M  V30 118 H 7.9336 -1.7455 -5.74154 0
M  V30 119 H 9.0036 -2.09663 -4.37229 0
M  V30 120 N 10.3467 1.47872 -0.545128 0
M  V30 121 C 11.5957 2.01695 -0.0145033 0
M  V30 122 C 11.9087 1.42609 1.33873 0
M  V30 123 O 13.1147 1.88021 1.95858 0
M  V30 124 C 11.5707 3.59892 0.0245068 0
M  V30 125 C 11.1787 4.27966 -1.32475 0
M  V30 126 C 12.9227 4.21507 0.50316 0
M  V30 127 C 10.8297 5.78136 -1.2455 0
M  V30 128 H 9.7597 0.753998 -0.00165172 0
M  V30 129 H 12.4107 1.69985 -0.691175 0
M  V30 130 H 10.7927 3.88509 0.766575 0
M  V30 131 H 11.9667 4.11003 -2.08357 0
M  V30 132 H 10.2817 3.78286 -1.74036 0
M  V30 133 H 12.8787 5.31538 0.580656 0
M  V30 134 H 13.2217 3.87855 1.51243 0
M  V30 135 H 13.7547 3.97376 -0.183681 0
M  V30 136 H 10.4937 6.16388 -2.23039 0
M  V30 137 H 10.0137 5.97469 -0.528282 0
M  V30 138 H 11.6927 6.40099 -0.942488 0
M  V30 139 N 11.8248 0.280983 1.55075 0
M  V30 140 C 13.1018 -0.386207 1.91749 0
M  V30 141 C 13.4818 -1.73264 1.20594 0
M  V30 142 O 12.8298 -2.26034 0.334784 0
M  V30 143 C 13.0398 -0.520687 3.45094 0
M  V30 144 C 14.3878 -0.800865 4.16979 0
M  V30 145 O 15.4118 -0.605271 3.5102 0
M  V30 146 O 14.2708 -1.1753 5.33712 0
M  V30 147 H 11.3648 -0.212408 0.799257 0
M  V30 148 H 13.9108 0.327568 1.66509 0
M  V30 149 H 12.6828 0.426633 3.88967 0
M  V30 150 H 12.3058 -1.2837 3.76307 0
M  V30 151 N 13.3029 -1.57598 0.00835791 0
M  V30 152 C 14.2329 -2.1198 -0.979113 0
M  V30 153 C 15.2139 -1.03091 -1.35301 0
M  V30 154 O 16.3989 -1.30818 -1.43528 0
M  V30 155 C 13.5289 -2.62995 -2.26828 0
M  V30 156 C 12.4829 -3.76485 -2.03576 0
M  V30 157 C 11.8089 -4.13846 -3.38579 0
M  V30 158 C 13.1089 -5.0342 -1.39161 0
M  V30 159 H 14.8029 -2.94738 -0.526281 0
M  V30 160 H 12.3489 -1.41783 -0.251704 0
M  V30 161 H 14.3019 -2.99669 -2.96271 0
M  V30 162 H 13.0259 -1.7737 -2.7424 0
M  V30 163 H 11.6849 -3.40217 -1.36557 0
M  V30 164 H 11.3329 -3.25232 -3.83709 0
M  V30 165 H 11.0329 -4.90312 -3.23834 0
M  V30 166 H 12.5569 -4.53086 -4.09323 0
M  V30 167 H 13.9709 -5.37812 -1.98573 0
M  V30 168 H 12.3679 -5.84746 -1.34878 0
M  V30 169 H 13.4379 -4.83548 -0.361868 0
M  V30 170 N 14.781 0.264519 -1.55364 0
M  V30 171 C 15.713 1.34965 -1.85248 0
M  V30 172 C 16.726 1.45136 -0.737525 0
M  V30 173 O 17.915 1.46801 -1.01547 0
M  V30 174 C 15.015 2.73008 -2.00797 0
M  V30 175 C 14.188 2.85324 -3.31525 0
M  V30 176 C 13.247 4.04097 -3.37034 0
M  V30 177 O 12.273 3.94455 -4.10358 0
M  V30 178 N 13.475 5.16458 -2.65049 0
M  V30 179 H 16.24 1.09672 -2.78913 0
M  V30 180 H 13.801 0.454635 -1.55386 0
M  V30 181 H 15.793 3.50772 -2.01844 0
M  V30 182 H 14.363 2.91087 -1.1396 0
M  V30 183 H 13.583 1.94377 -3.42945 0
M  V30 184 H 14.871 2.9049 -4.17724 0
M  V30 185 H 14.269 5.27181 -2.05175 0
M  V30 186 H 12.826 5.92422 -2.71809 0
M  V30 187 N 16.2591 1.48442 0.529413 0
M  V30 188 C 17.2221 1.62524 1.61612 0
M  V30 189 C 18.2221 0.498509 1.52877 0
M  V30 190 O 19.4121 0.76431 1.56537 0
M  V30 191 C 16.5441 1.59597 3.01233 0
M  V30 192 H 17.7371 2.59423 1.50465 0
M  V30 193 H 15.2901 1.37047 0.751514 0
M  V30 194 H 16.0251 0.641781 3.17886 0
M  V30 195 H 15.8101 2.41397 3.08982 0
M  V30 196 H 17.3001 1.72646 3.80241 0
M  V30 197 N 17.7372 -0.778329 1.37039 0
M  V30 198 C 18.6672 -1.90546 1.34962 0
M  V30 199 C 19.6482 -1.68681 0.219274 0
M  V30 200 O 20.8332 -1.89634 0.418624 0
M  V30 201 C 17.9632 -3.27734 1.14925 0
M  V30 202 C 16.9172 -3.64147 2.24902 0
M  V30 203 C 16.2432 -4.99806 1.89996 0
M  V30 204 C 17.5432 -3.71579 3.67051 0
M  V30 205 H 19.2372 -1.92541 2.29277 0
M  V30 206 H 16.7832 -0.924948 1.10366 0
M  V30 207 H 18.7362 -4.06215 1.12104 0
M  V30 208 H 17.4602 -3.26154 0.170631 0
M  V30 209 H 16.1192 -2.8797 2.26868 0
M  V30 210 H 15.7672 -4.94759 0.906796 0
M  V30 211 H 15.4672 -5.25139 2.63634 0
M  V30 212 H 16.9912 -5.80694 1.88749 0
M  V30 213 H 18.4052 -4.40227 3.67251 0
M  V30 214 H 16.8022 -4.08405 4.39688 0
M  V30 215 H 17.8722 -2.72404 4.01154 0
M  V30 216 N 19.2153 -1.21501 -1.00376 0
M  V30 217 C 20.6313 -0.972629 -1.26539 0
M  V30 218 C 20.8313 0.340257 -1.98606 0
M  V30 219 O 19.8873 1.06561 -2.28913 0
M  V30 220 C 21.2003 -2.16404 -2.08781 0
M  V30 221 C 22.7483 -2.20643 -2.22004 0
M  V30 222 C 23.2233 -3.39306 -3.07629 0
M  V30 223 N 24.7143 -3.39401 -3.15217 0
M  V30 224 C 25.4493 -4.27867 -3.81729 0
M  V30 225 N 24.9453 -5.26533 -4.5026 0
M  V30 226 N 26.7383 -4.15672 -3.78382 0
M  V30 227 H 18.8893 -2.05929 -0.520281 0
M  V30 228 H 21.1523 -0.901803 -0.292328 0
M  V30 229 H 20.8583 -3.11554 -1.63178 0
M  V30 230 H 20.7323 -2.15567 -3.09533 0
M  V30 231 H 23.1193 -1.26048 -2.66825 0
M  V30 232 H 23.2003 -2.25523 -1.20718 0
M  V30 233 H 22.8443 -4.34195 -2.63509 0
M  V30 234 H 22.7743 -3.31665 -4.09031 0
M  V30 235 H 25.2653 -2.67997 -2.66432 0
M  V30 236 H 25.5783 -5.90337 -4.98721 0
M  V30 237 H 23.9233 -5.30457 -4.49044 0
M  V30 238 H 27.1143 -3.3785 -3.23998 0
M  V30 239 H 27.2873 -4.84825 -4.2994 0
M  V30 240 N 20.6934 1.19889 -1.02296 0
M  V30 241 C 21.6434 2.20777 -0.56934 0
M  V30 242 C 22.6274 1.56379 0.378741 0
M  V30 243 O 23.8194 1.75859 0.200673 0
M  V30 244 C 20.9484 3.43196 0.0845077 0
M  V30 245 C 20.0344 4.14749 -0.88566 0
M  V30 246 N 20.4254 4.62584 -2.04573 0
M  V30 247 C 18.7234 4.40347 -0.707835 0
M  V30 248 C 19.4244 5.17466 -2.65714 0
M  V30 249 N 18.4004 5.0791 -1.93723 0
M  V30 250 H 22.2024 2.55434 -1.45365 0
M  V30 251 H 19.7164 1.35897 -0.88915 0
M  V30 252 H 21.7134 4.14707 0.427067 0
M  V30 253 H 20.3734 3.10042 0.964574 0
M  V30 254 H 21.3844 4.57597 -2.4254 0
M  V30 255 H 18.0614 4.17317 0.12364 0
M  V30 256 H 19.4514 5.64808 -3.63925 0
M  V30 257 N 22.1715 0.800033 1.35784 0
M  V30 258 C 23.1195 0.193851 2.31791 0
M  V30 259 C 24.1135 -0.652744 1.56319 0
M  V30 260 O 25.3195 -0.546641 1.71499 0
M  V30 261 H 21.6945 0.04392 0.750716 0
M  V30 262 H 23.6655 1.01883 2.80468 0
M  V30 263 C 22.4145 -0.648338 3.41602 0
M  V30 264 H 21.7375 -0.00624665 3.998 0
M  V30 265 H 23.1775 -1.03898 4.11073 0
M  V30 266 C 21.6365 -1.8111 2.84079 0
M  V30 267 O 22.1665 -2.90825 2.77099 0
M  V30 268 N 20.3725 -1.62056 2.41218 0
M  V30 269 H 19.9195 -0.728123 2.47095 0
M  V30 270 H 19.8775 -2.40013 2.03079 0
M  V30 271 N 23.6496 -1.47581 0.552962 0
M  V30 272 C 24.8796 -2.06575 0.0320091 0
M  V30 273 C 25.2876 -1.4067 -1.26525 0
M  V30 274 O 24.6306 -0.495808 -1.76883 0
M  V30 275 C 24.6926 -3.58705 -0.238913 0
M  V30 276 C 24.3566 -4.46625 0.968272 0
M  V30 277 C 25.3536 -4.85 1.87274 0
M  V30 278 C 23.0386 -4.88201 1.18175 0
M  V30 279 C 25.0326 -5.63745 2.9744 0
M  V30 280 C 22.7196 -5.66712 2.28651 0
M  V30 281 C 23.7176 -6.04394 3.18114 0
M  V30 282 O 23.4056 -6.81324 4.26676 0
M  V30 283 H 23.1376 -0.674763 0.0408689 0
M  V30 284 H 25.6916 -1.90634 0.764719 0
M  V30 285 H 23.9216 -3.72844 -1.02588 0
M  V30 286 H 25.6106 -3.99735 -0.704731 0
M  V30 287 H 26.3766 -4.53482 1.71984 0
M  V30 288 H 22.2556 -4.58339 0.494593 0
M  V30 289 H 25.7996 -5.93077 3.67296 0
M  V30 290 H 21.6966 -5.97642 2.43915 0
M  V30 291 H 22.4646 -6.99712 4.24671 0
M  V30 292 N 25.1277 -0.289203 -1.54924 0
M  V30 293 C 26.5437 0.0645403 -1.59469 0
M  V30 294 C 26.7437 1.53419 -1.30632 0
M  V30 295 O 25.7997 2.2852 -1.074 0
M  V30 296 C 27.1127 -0.32278 -2.98963 0
M  V30 297 C 28.6607 -0.270564 -3.11828 0
M  V30 298 C 29.1357 -0.632532 -4.53611 0
M  V30 299 N 30.6267 -0.584617 -4.59496 0
M  V30 300 C 31.3617 -0.837314 -5.67254 0
M  V30 301 N 30.8577 -1.15536 -6.83098 0
M  V30 302 N 32.6507 -0.765166 -5.56868 0
M  V30 303 H 24.8017 -1.24714 -1.71931 0
M  V30 304 H 27.0647 -0.504809 -0.802416 0
M  V30 305 H 26.7707 -1.34541 -3.24948 0
M  V30 306 H 26.6447 0.32944 -3.75759 0
M  V30 307 H 29.0317 0.742805 -2.85598 0
M  V30 308 H 29.1127 -0.957242 -2.37214 0
M  V30 309 H 28.7567 -1.64365 -4.80569 0
M  V30 310 H 28.6867 0.07609 -5.26545 0
M  V30 311 H 31.1777 -0.349248 -3.76283 0
M  V30 312 H 31.4907 -1.33447 -7.61191 0
M  V30 313 H 29.8357 -1.19328 -6.84679 0
M  V30 314 H 33.0267 -0.516432 -4.65243 0
M  V30 315 H 33.1997 -0.965477 -6.40767 0
M  V30 316 N 26.6058 1.57591 -0.0167156 0
M  V30 317 C 27.5358 2.12496 0.967858 0
M  V30 318 C 28.5168 1.03807 1.34752 0
M  V30 319 O 29.7018 1.31577 1.42833 0
M  V30 320 C 26.8318 2.64194 2.25431 0
M  V30 321 C 25.7858 3.77559 2.01576 0
M  V30 322 C 25.1118 4.15636 3.36379 0
M  V30 323 C 26.4118 5.04151 1.36489 0
M  V30 324 H 28.1058 2.95013 0.510643 0
M  V30 325 H 25.6518 1.41915 0.244181 0
M  V30 326 H 27.6048 3.01236 2.94678 0
M  V30 327 H 26.3288 1.78821 2.73296 0
M  V30 328 H 24.9878 3.40937 1.34751 0
M  V30 329 H 24.6358 3.27263 3.81979 0
M  V30 330 H 24.3358 4.92022 3.21229 0
M  V30 331 H 25.8598 4.5525 4.06915 0
M  V30 332 H 27.2738 5.38857 1.95718 0
M  V30 333 H 25.6708 5.85453 1.31776 0
M  V30 334 H 26.7408 4.83733 0.336219 0
M  V30 335 N 28.0839 -0.256276 1.55502 0
M  V30 336 C 29.0469 -1.30047 1.88734 0
M  V30 337 C 30.0469 -1.4154 0.763086 0
M  V30 338 O 31.2369 -1.40403 1.03115 0
M  V30 339 C 28.3689 -2.67953 2.10747 0
M  V30 340 H 29.5619 -1.01802 2.82093 0
M  V30 341 H 27.1149 -0.495134 1.4825 0
M  V30 342 H 27.8499 -3.01351 1.19825 0
M  V30 343 H 27.6349 -2.60993 2.92617 0
M  V30 344 H 29.1249 -3.43368 2.37673 0
M  V30 345 N 29.562 -1.4872 -0.521534 0
M  V30 346 C 30.978 -1.35028 -0.850855 0
M  V30 347 C 31.178 -0.367712 -1.98116 0
M  V30 348 O 30.234 0.208037 -2.51642 0
M  V30 349 C 31.547 -2.75263 -1.21041 0
M  V30 350 C 33.095 -2.83813 -1.31981 0
M  V30 351 C 33.57 -4.24769 -1.71276 0
M  V30 352 N 35.061 -4.27482 -1.78363 0
M  V30 353 C 35.796 -5.33494 -2.1017 0
M  V30 354 N 35.292 -6.49775 -2.40343 0
M  V30 355 N 37.085 -5.20894 -2.11248 0
M  V30 356 H 29.236 -2.11214 0.22413 0
M  V30 357 H 31.499 -0.947252 0.0376439 0
M  V30 358 H 31.205 -3.48765 -0.453415 0
M  V30 359 H 31.079 -3.09327 -2.15863 0
M  V30 360 H 33.466 -2.10561 -2.06756 0
M  V30 361 H 33.547 -2.53358 -0.352596 0
M  V30 362 H 33.191 -4.9854 -0.970588 0
M  V30 363 H 33.121 -4.52673 -2.69062 0
M  V30 364 H 35.612 -3.43611 -1.57288 0
M  V30 365 H 35.925 -7.26402 -2.63743 0
M  V30 366 H 34.27 -6.53035 -2.37844 0
M  V30 367 H 37.461 -4.29065 -1.87139 0
M  V30 368 H 37.634 -6.03612 -2.35704 0
M  V30 369 N 31.0401 0.771051 -1.3745 0
M  V30 370 C 31.9501 1.91538 -1.35464 0
M  V30 371 C 32.9661 1.72134 -0.254123 0
M  V30 372 O 34.1421 1.95358 -0.489626 0
M  V30 373 C 31.2071 3.26671 -1.16134 0
M  V30 374 C 30.2681 3.58723 -2.35831 0
M  V30 375 C 29.5011 4.87409 -2.17413 0
M  V30 376 O 29.7241 5.58506 -1.15876 0
M  V30 377 O 28.6581 5.18539 -3.05615 0
M  V30 378 H 32.4841 1.96165 -2.31847 0
M  V30 379 H 30.0691 0.9139 -1.18187 0
M  V30 380 H 31.9511 4.07499 -1.07345 0
M  V30 381 H 30.6261 3.22894 -0.228251 0
M  V30 382 H 29.5331 2.78127 -2.50192 0
M  V30 383 H 30.8661 3.67243 -3.27709 0
M  V30 384 N 32.5182 1.22032 0.997298 0
M  V30 385 C 33.4812 0.987909 2.06816 0
M  V30 386 C 34.4812 -0.0440084 1.6074 0
M  V30 387 O 35.6712 0.194053 1.73116 0
M  V30 388 C 32.8032 0.49132 3.37341 0
M  V30 389 H 33.9962 1.93803 2.28868 0
M  V30 390 H 31.5492 1.03838 1.16822 0
M  V30 391 H 32.2842 -0.463364 3.20973 0
M  V30 392 H 32.0692 1.23575 3.72118 0
M  V30 393 H 33.5592 0.348824 4.16141 0
M  V30 394 N 33.9963 -1.19345 1.0293 0
M  V30 395 C 35.2243 -1.92997 0.745644 0
M  V30 396 C 35.6393 -1.75519 -0.695589 0
M  V30 397 O 34.9963 -1.07737 -1.47306 0
M  V30 398 C 35.0473 -3.44741 1.08792 0
M  V30 399 O 34.7683 -3.61658 2.47256 0
M  V30 400 C 36.2693 -4.35515 0.827129 0
M  V30 401 H 33.4893 -0.613042 0.272801 0
M  V30 402 H 36.0333 -1.51473 1.3739 0
M  V30 403 H 34.1883 -3.84097 0.504832 0
M  V30 404 H 34.6023 -4.55514 2.60015 0
M  V30 405 H 36.0763 -5.40589 1.11658 0
M  V30 406 H 36.5533 -4.38552 -0.238436 0
M  V30 407 H 37.1593 -4.01841 1.39297 0
M  V30 408 N 35.4744 -0.807222 -1.35358 0
M  V30 409 C 36.7224 -0.387122 -1.98358 0
M  V30 410 C 37.0434 1.04942 -1.64354 0
M  V30 411 O 36.3134 1.72615 -0.926339 0
M  V30 412 H 34.8934 -0.140154 -0.733734 0
M  V30 413 H 37.5554 -1.0332 -1.6526 0
M  V30 414 H 36.6514 -0.493352 -3.08176 0
M  V30 415 N 36.9525 1.47285 -0.560781 0
M  V30 416 C 37.9155 2.28535 0.174488 0
M  V30 417 C 38.9155 1.37153 0.839388 0
M  V30 418 O 40.1055 1.59748 0.694702 0
M  V30 419 C 37.2375 3.16934 1.25561 0
M  V30 420 H 38.4305 2.95012 -0.539262 0
M  V30 421 H 35.9835 1.53034 -0.317865 0
M  V30 422 H 36.7185 2.55157 2.00164 0
M  V30 423 H 36.5035 3.8419 0.783604 0
M  V30 424 H 37.9935 3.78143 1.77193 0
M  V30 425 N 38.4306 0.297415 1.54768 0
M  V30 426 C 39.8466 -0.0560823 1.59501 0
M  V30 427 C 40.0466 -1.52725 1.31444 0
M  V30 428 O 39.1026 -2.27947 1.08611 0
M  V30 429 C 40.4156 0.338631 2.98787 0
M  V30 430 C 41.9636 0.287097 3.11681 0
M  V30 431 C 42.4386 0.656579 4.53269 0
M  V30 432 N 43.9296 0.608977 4.59179 0
M  V30 433 C 44.6646 0.867385 5.66802 0
M  V30 434 N 44.1606 1.19157 6.82476 0
M  V30 435 N 45.9536 0.794687 5.56454 0
M  V30 436 H 38.1046 1.25624 1.71267 0
M  V30 437 H 40.3676 0.509057 0.799728 0
M  V30 438 H 40.0736 1.36263 3.2423 0
M  V30 439 H 39.9476 -0.309508 3.75928 0
M  V30 440 H 42.3346 -0.727649 2.85988 0
M  V30 441 H 42.4156 0.969809 2.36703 0
M  V30 442 H 42.0596 1.66912 4.7969 0
M  V30 443 H 41.9896 -0.0481649 5.26578 0
M  V30 444 H 44.4806 0.369198 3.76092 0
M  V30 445 H 44.7936 1.37482 7.60473 0
M  V30 446 H 43.1386 1.22958 6.84037 0
M  V30 447 H 46.3296 0.541098 4.64962 0
M  V30 448 H 46.5026 0.999445 6.40246 0
M  V30 449 N 39.9087 -1.5758 0.0250728 0
M  V30 450 C 40.8717 -2.08896 -0.943139 0
M  V30 451 C 41.8717 -1.00321 -1.25668 0
M  V30 452 O 43.0617 -1.26495 -1.19769 0
M  V30 453 C 40.1937 -2.55143 -2.26086 0
M  V30 454 H 41.3867 -2.95723 -0.498775 0
M  V30 455 H 38.9397 -1.54703 -0.222888 0
M  V30 456 H 39.6747 -1.71633 -2.75159 0
M  V30 457 H 39.4597 -3.34461 -2.04641 0
M  V30 458 H 40.9497 -2.95083 -2.95492 0
M  V30 459 N 41.3868 0.248026 -1.55636 0
M  V30 460 C 42.3168 1.31079 -1.93237 0
M  V30 461 C 43.2978 1.50264 -0.797174 0
M  V30 462 O 44.4828 1.62891 -1.05737 0
M  V30 463 C 41.6128 2.66575 -2.22609 0
M  V30 464 C 40.5668 2.62087 -3.3837 0
M  V30 465 C 39.8928 4.01369 -3.53281 0
M  V30 466 C 41.1928 2.19171 -4.7409 0
M  V30 467 H 42.8868 0.998556 -2.82257 0
M  V30 468 H 40.4328 0.47891 -1.35803 0
M  V30 469 H 42.3858 3.41057 -2.47503 0
M  V30 470 H 41.1098 2.99432 -1.30414 0
M  V30 471 H 39.7688 1.90063 -3.13483 0
M  V30 472 H 39.4168 4.31489 -2.58508 0
M  V30 473 H 39.1168 3.99254 -4.31127 0
M  V30 474 H 40.6408 4.77552 -3.80495 0
M  V30 475 H 42.0548 2.83384 -4.98363 0
M  V30 476 H 40.4518 2.2817 -5.5503 0
M  V30 477 H 41.5218 1.14336 -4.71227 0
M  V30 478 N 42.8649 1.48995 0.513639 0
M  V30 479 C 43.8279 1.64229 1.59879 0
M  V30 480 C 44.8279 0.514696 1.5234 0
M  V30 481 O 46.0179 0.78087 1.55718 0
M  V30 482 C 43.1499 1.62783 2.99524 0
M  V30 483 H 44.3429 2.61004 1.47705 0
M  V30 484 H 41.8959 1.37837 0.736936 0
M  V30 485 H 42.6309 0.675461 3.17188 0
M  V30 486 H 42.4159 2.4466 3.06404 0
M  V30 487 H 43.9059 1.76669 3.78388 0
M  V30 488 N 44.343 -0.763751 1.37857 0
M  V30 489 C 45.589 -1.52483 1.33704 0
M  V30 490 C 45.922 -1.94051 -0.0759612 0
M  V30 491 O 45.197 -1.64675 -1.03501 0
M  V30 492 C 45.48 -2.78441 2.28348 0
M  V30 493 C 45.333 -2.43075 3.78463 0
M  V30 494 C 46.652 -3.80415 2.21298 0
M  V30 495 H 43.771 -0.553169 0.487005 0
M  V30 496 H 46.413 -0.875562 1.68624 0
M  V30 497 H 44.563 -3.33842 1.987 0
M  V30 498 H 46.235 -1.93527 4.18742 0
M  V30 499 H 44.478 -1.75666 3.96641 0
M  V30 500 H 45.149 -3.33149 4.40132 0
M  V30 501 H 47.625 -3.34527 2.47449 0
M  V30 502 H 46.501 -4.66257 2.89647 0
M  V30 503 H 46.762 -4.25262 1.20849 0
M  V30 504 N 45.8211 -1.22559 -0.990812 0
M  V30 505 C 47.0701 -1.04553 -1.72486 0
M  V30 506 C 47.3831 0.419349 -1.91052 0
M  V30 507 O 48.5891 0.719121 -2.61803 0
M  V30 508 C 47.0451 -1.82231 -3.10355 0
M  V30 509 C 46.6531 -3.32981 -2.99713 0
M  V30 510 C 48.3971 -1.7268 -3.87791 0
M  V30 511 C 46.3041 -4.03091 -4.32748 0
M  V30 512 H 45.2341 -0.387614 -0.646739 0
M  V30 513 H 47.8851 -1.46429 -1.10593 0
M  V30 514 H 46.2671 -1.33155 -3.72942 0
M  V30 515 H 47.4411 -3.89466 -2.46278 0
M  V30 516 H 45.7561 -3.43231 -2.35758 0
M  V30 517 H 48.3531 -2.22381 -4.86262 0
M  V30 518 H 48.6961 -0.687607 -4.10582 0
M  V30 519 H 49.2291 -2.1931 -3.31885 0
M  V30 520 H 45.9681 -5.07273 -4.15156 0
M  V30 521 H 45.4881 -3.51394 -4.86089 0
M  V30 522 H 47.1671 -4.08804 -5.01486 0
M  V30 523 N 47.2992 1.18797 -1.03562 0
M  V30 524 C 48.2462 2.22253 -0.622259 0
M  V30 525 C 49.2162 1.61987 0.36736 0
M  V30 526 O 50.4012 1.88986 0.262492 0
M  V30 527 C 47.5412 3.45097 0.0138462 0
M  V30 528 C 46.6542 4.19722 -1.02263 0
M  V30 529 C 45.7892 5.30009 -0.355573 0
M  V30 530 C 44.8282 5.96399 -1.37749 0
M  V30 531 N 43.9652 6.98234 -0.735766 0
M  V30 532 H 48.8052 2.56968 -1.50903 0
M  V30 533 H 46.3422 1.26245 -0.755017 0
M  V30 534 H 48.3002 4.15279 0.399948 0
M  V30 535 H 46.9302 3.11018 0.864158 0
M  V30 536 H 45.9822 3.48418 -1.52673 0
M  V30 537 H 47.2942 4.65227 -1.79903 0
M  V30 538 H 46.4482 6.0664 0.0850095 0
M  V30 539 H 45.1872 4.85592 0.452967 0
M  V30 540 H 44.1922 5.18512 -1.82826 0
M  V30 541 H 45.4172 6.42899 -2.18764 0
M  V30 542 H 43.3632 6.55979 0.0525597 0
M  V30 543 H 43.2802 7.41965 -1.44995 0
M  V30 544 H 44.5482 7.78845 -0.31941 0
M  V30 545 N 48.7773 0.814389 1.34928 0
M  V30 546 C 49.7403 0.235759 2.27984 0
M  V30 547 C 50.7403 -0.581412 1.49921 0
M  V30 548 O 51.9303 -0.398758 1.69575 0
M  V30 549 C 49.0623 -0.670433 3.34242 0
M  V30 550 H 50.2553 1.05659 2.80671 0
M  V30 551 H 47.8083 0.585614 1.44915 0
M  V30 552 H 48.5433 -1.51466 2.86755 0
M  V30 553 H 48.3283 -0.0860822 3.92005 0
M  V30 554 H 49.8183 -1.06935 4.03676 0
M  V30 555 N 50.2554 -1.46986 0.568584 0
M  V30 556 C 51.5324 -1.95592 -0.0174074 0
M  V30 557 C 51.9124 -1.51124 -1.47393 0
M  V30 558 O 51.2604 -0.755329 -2.15655 0
M  V30 559 C 51.4704 -3.48719 0.139913 0
M  V30 560 C 52.8184 -4.246 0.000426376 0
M  V30 561 O 53.8424 -3.56135 0.0680316 0
M  V30 562 O 52.7014 -5.46302 -0.146988 0
M  V30 563 H 49.7954 -0.82498 -0.0577599 0
M  V30 564 H 52.3414 -1.57335 0.635909 0
M  V30 565 H 51.1134 -3.73927 1.15301 0
M  V30 566 H 50.7364 -3.93771 -0.550491 0
M  V30 567 N 51.7335 -0.305618 -1.54608 0
M  V30 568 C 52.6965 0.555591 -2.22364 0
M  V30 569 C 53.6965 1.05768 -1.21119 0
M  V30 570 O 54.8865 0.952972 -1.45822 0
M  V30 571 C 52.0185 1.76974 -2.91364 0
M  V30 572 H 53.2115 -0.0364572 -2.99878 0
M  V30 573 H 50.7645 -0.0565007 -1.56198 0
M  V30 574 H 51.4995 2.40151 -2.17941 0
M  V30 575 H 51.2845 1.41732 -3.65588 0
M  V30 576 H 52.7745 2.38148 -3.43038 0
M  V30 577 N 53.2116 1.57565 -0.0334293 0
M  V30 578 C 54.4416 1.95996 0.653398 0
M  V30 579 C 54.8496 0.908749 1.65947 0
M  V30 580 O 54.1926 -0.117471 1.83324 0
M  V30 581 C 54.2546 3.30589 1.41249 0
M  V30 582 C 53.9186 4.53503 0.564263 0
M  V30 583 C 54.9156 5.19647 -0.16225 0
M  V30 584 C 52.6006 4.99801 0.500398 0
M  V30 585 C 54.5946 6.30412 -0.941255 0
M  V30 586 C 52.2816 6.10448 -0.282308 0
M  V30 587 C 53.2796 6.75612 -1.00184 0
M  V30 588 O 52.9676 7.84134 -1.77171 0
M  V30 589 H 52.6996 0.65027 0.184728 0
M  V30 590 H 55.2536 2.05199 -0.0907841 0
M  V30 591 H 53.4836 3.17888 2.20191 0
M  V30 592 H 55.1726 3.53892 1.98784 0
M  V30 593 H 55.9386 4.84846 -0.12227 0
M  V30 594 H 51.8176 4.48883 1.05002 0
M  V30 595 H 55.3616 6.81208 -1.50339 0
M  V30 596 H 51.2586 6.44686 -0.323989 0
M  V30 597 H 52.0266 8.00822 -1.69194 0
M  V30 598 N 54.6897 -0.239769 1.55765 0
M  V30 599 C 55.9377 -0.964892 1.77579 0
M  V30 600 C 56.2587 -1.85582 0.598699 0
M  V30 601 O 55.5287 -1.92075 -0.385226 0
M  V30 602 H 54.1087 -0.359265 0.654933 0
M  V30 603 H 56.7707 -0.256001 1.93211 0
M  V30 604 H 55.8667 -1.58243 2.69009 0
M  V30 605 N 56.1678 -1.49265 -0.50573 0
M  V30 606 C 57.1178 -1.6198 -1.60457 0
M  V30 607 C 58.1018 -0.47568 -1.53708 0
M  V30 608 O 59.2938 -0.728392 -1.61318 0
M  V30 609 C 56.4228 -1.68526 -2.99089 0
M  V30 610 C 55.5088 -2.885 -3.10852 0
M  V30 611 N 55.8998 -4.12635 -2.92517 0
M  V30 612 C 54.1978 -2.86338 -3.41945 0
M  V30 613 C 54.8988 -4.93258 -3.08337 0
M  V30 614 N 53.8748 -4.26533 -3.37003 0
M  V30 615 H 57.6768 -2.55681 -1.44928 0
M  V30 616 H 55.1908 -1.45972 -0.711752 0
M  V30 617 H 57.1878 -1.75732 -3.78053 0
M  V30 618 H 55.8478 -0.759584 -3.1569 0
M  V30 619 H 56.8588 -4.42689 -2.68787 0
M  V30 620 H 53.5358 -2.03129 -3.64753 0
M  V30 621 H 54.9258 -6.01856 -2.98695 0
M  V30 622 N 57.6459 0.756429 -1.3826 0
M  V30 623 C 58.8939 1.51248 -1.34047 0
M  V30 624 C 59.2149 1.94875 0.0698372 0
M  V30 625 O 58.4849 1.67436 1.01696 0
M  V30 626 H 57.0649 0.561018 -0.493222 0
M  V30 627 H 59.7269 0.899347 -1.7291 0
M  V30 628 H 58.8229 2.40472 -1.98947 0
M  V30 629 N 59.124 1.23083 0.984299 0
M  V30 630 C 60.087 1.00979 2.05757 0
M  V30 631 C 61.087 -0.0269573 1.60777 0
M  V30 632 O 62.277 0.212403 1.729 0
M  V30 633 C 59.409 0.527072 3.36801 0
M  V30 634 H 60.602 1.9622 2.26799 0
M  V30 635 H 58.155 1.05072 1.15714 0
M  V30 636 H 58.89 -0.429294 3.21446 0
M  V30 637 H 58.675 1.27515 3.70786 0
M  V30 638 H 60.165 0.392942 4.15747 0
M  V30 639 N 60.6021 -1.18246 1.0419 0
M  V30 640 C 61.8481 -1.88536 0.747122 0
M  V30 641 C 62.1811 -1.80223 -0.723409 0
M  V30 642 O 61.4561 -1.20337 -1.52804 0
M  V30 643 C 61.7391 -3.38968 1.21544 0
M  V30 644 C 61.5921 -3.56084 2.74816 0
M  V30 645 C 62.9111 -4.32648 0.806482 0
M  V30 646 H 60.0301 -0.684619 0.272883 0
M  V30 647 H 62.6721 -1.39113 1.29413 0
M  V30 648 H 60.8221 -3.8119 0.750081 0
M  V30 649 H 62.4941 -3.22946 3.29399 0
M  V30 650 H 60.7371 -2.98699 3.14582 0
M  V30 651 H 61.4081 -4.61639 3.02644 0
M  V30 652 H 63.8841 -3.98211 1.20695 0
M  V30 653 H 62.7601 -5.36462 1.1619 0
M  V30 654 H 63.0211 -4.41146 -0.29029 0
M  V30 655 N 62.0802 -0.821533 -1.34494 0
M  V30 656 C 63.4962 -0.507117 -1.51329 0
M  V30 657 C 63.6962 0.968964 -1.76673 0
M  V30 658 O 62.7522 1.75348 -1.81685 0
M  V30 659 C 64.0652 -1.36544 -2.67911 0
M  V30 660 C 65.6132 -1.36242 -2.81793 0
M  V30 661 C 66.0882 -2.2052 -4.01416 0
M  V30 662 N 67.5792 -2.18136 -4.08621 0
M  V30 663 C 68.3142 -2.80095 -5.00334 0
M  V30 664 N 67.8102 -3.51039 -5.9728 0
M  V30 665 N 69.6032 -2.69656 -4.93196 0
M  V30 666 H 61.7542 -1.77729 -1.16302 0
M  V30 667 H 64.0172 -0.757291 -0.570276 0
M  V30 668 H 63.7232 -2.41361 -2.55808 0
M  V30 669 H 63.5972 -1.02917 -3.62888 0
M  V30 670 H 65.9842 -0.322041 -2.93338 0
M  V30 671 H 66.0652 -1.73866 -1.87628 0
M  V30 672 H 65.7092 -3.24607 -3.90631 0
M  V30 673 H 65.6392 -1.80247 -4.94791 0
M  V30 674 H 68.1302 -1.6653 -3.39229 0
M  V30 675 H 68.4432 -3.95565 -6.63889 0
M  V30 676 H 66.7882 -3.55145 -5.97409 0
M  V30 677 H 69.9792 -2.13808 -4.16418 0
M  V30 678 H 70.1522 -3.1823 -5.64476 0
M  V30 679 N 63.5583 1.46682 -0.576371 0
M  V30 680 C 64.7983 2.04306 -0.0621356 0
M  V30 681 C 65.1623 1.4389 1.2712 0
M  V30 682 O 66.3633 1.92675 1.87429 0
M  V30 683 C 64.6343 3.57399 0.00927922 0
M  V30 684 S 66.1933 4.36309 0.466859 0
M  V30 685 H 63.0113 0.710167 -0.0344016 0
M  V30 686 H 65.6133 1.79807 -0.767437 0
M  V30 687 H 64.3173 3.98889 -0.965178 0
M  V30 688 H 63.8483 3.86424 0.737547 0
M  V30 689 H 65.8633 4.6533 1.72287 0
M  V30 690 N 65.0364 0.313813 1.54444 0
M  V30 691 C 65.9994 -0.54379 2.22656 0
M  V30 692 C 66.9994 -1.05124 1.21678 0
M  V30 693 O 68.1894 -0.945225 1.46325 0
M  V30 694 C 65.3214 -1.75427 2.92298 0
M  V30 695 H 66.5144 0.0523599 2.99854 0
M  V30 696 H 64.0674 0.0647834 1.56166 0
M  V30 697 H 64.8024 -2.38991 2.19211 0
M  V30 698 H 64.5874 -1.39791 3.66334 0
M  V30 699 H 66.0774 -2.36325 3.44297 0
M  V30 700 N 66.5145 -1.57545 0.0417849 0
M  V30 701 C 67.4245 -2.14451 -0.951213 0
M  V30 702 C 68.4405 -1.09992 -1.34825 0
M  V30 703 O 69.6165 -1.42114 -1.42708 0
M  V30 704 C 66.6815 -2.67063 -2.21084 0
M  V30 705 C 65.7425 -3.86284 -1.87304 0
M  V30 706 C 64.9755 -4.36378 -3.07261 0
M  V30 707 O 65.1985 -3.85587 -4.20332 0
M  V30 708 O 64.1325 -5.28077 -2.88822 0
M  V30 709 H 67.9585 -2.99601 -0.497287 0
M  V30 710 H 65.5435 -1.48317 -0.179567 0
M  V30 711 H 67.4255 -3.00914 -2.95006 0
M  V30 712 H 66.1005 -1.84989 -2.65633 0
M  V30 713 H 65.0075 -3.57338 -1.10727 0
M  V30 714 H 66.3405 -4.6956 -1.47562 0
M  V30 715 N 67.9926 0.231505 -1.5589 0
M  V30 716 C 68.9556 1.27028 -1.90779 0
M  V30 717 C 69.9556 1.40308 -0.785507 0
M  V30 718 O 71.1456 1.38744 -1.05336 0
M  V30 719 C 68.2776 2.64566 -2.14983 0
M  V30 720 H 69.4706 0.973017 -2.83677 0
M  V30 721 H 67.0236 0.471486 -1.49019 0
M  V30 722 H 67.7586 2.99406 -1.24604 0
M  V30 723 H 67.5436 2.56305 -2.96732 0
M  V30 724 H 69.0336 3.39543 -2.43105 0
M  V30 725 N 69.4707 1.49531 0.497807 0
M  V30 726 C 70.4007 1.6935 1.60757 0
M  V30 727 C 71.3817 0.542218 1.61227 0
M  V30 728 O 72.5667 0.778417 1.77917 0
M  V30 729 C 69.6967 1.76298 2.99226 0
M  V30 730 C 68.6507 2.91248 3.13622 0
M  V30 731 C 67.9767 2.83312 4.53474 0
M  V30 732 C 69.2767 4.3214 2.93346 0
M  V30 733 H 70.9707 2.62263 1.44425 0
M  V30 734 H 68.5167 1.26208 0.693367 0
M  V30 735 H 70.4697 1.88749 3.76765 0
M  V30 736 H 69.1937 0.799871 3.16654 0
M  V30 737 H 67.8527 2.78404 2.38509 0
M  V30 738 H 67.5007 1.84902 4.67782 0
M  V30 739 H 67.2007 3.60465 4.64046 0
M  V30 740 H 68.7247 2.97775 5.33069 0
M  V30 741 H 70.1387 4.45649 3.60652 0
M  V30 742 H 68.5357 5.1054 3.15387 0
M  V30 743 H 69.6057 4.46363 1.89441 0
M  V30 744 N 70.9488 -0.749086 1.3866 0
M  V30 745 C 71.9118 -1.84457 1.36045 0
M  V30 746 C 72.9118 -1.58682 0.260122 0
M  V30 747 O 74.1018 -1.66343 0.517261 0
M  V30 748 C 71.2338 -3.22008 1.11911 0
M  V30 749 H 72.4268 -1.88182 2.33512 0
M  V30 750 H 69.9798 -0.951266 1.24019 0
M  V30 751 H 70.7148 -3.2395 0.150686 0
M  V30 752 H 70.4998 -3.42111 1.91579 0
M  V30 753 H 71.9898 -4.0208 1.12788 0
M  V30 754 N 72.4269 -1.23603 -0.977757 0
M  V30 755 C 73.3899 -1.02069 -2.05218 0
M  V30 756 C 74.3899 0.0184305 -1.60789 0
M  V30 757 O 75.5799 -0.221569 -1.72785 0
M  V30 758 C 72.7119 -0.544926 -3.36517 0
M  V30 759 H 73.9049 -1.9742 -2.25755 0
M  V30 760 H 71.4579 -1.05684 -1.15155 0
M  V30 761 H 72.1929 0.412241 -3.21669 0
M  V30 762 H 71.9779 -1.2948 -3.70105 0
M  V30 763 H 73.4679 -0.414985 -4.15533 0
M  V30 764 N 73.905 1.17692 -1.04816 0
M  V30 765 C 74.815 2.25229 -0.65643 0
M  V30 766 C 75.831 1.71018 0.320761 0
M  V30 767 O 77.007 2.00649 0.173805 0
M  V30 768 C 74.072 3.46684 -0.0332629 0
M  V30 769 C 73.133 4.15997 -1.06042 0
M  V30 770 C 72.366 5.31654 -0.466893 0
M  V30 771 O 72.589 5.65777 0.724758 0
M  V30 772 O 71.523 5.89831 -1.1993 0
M  V30 773 H 75.349 2.61016 -1.55255 0
M  V30 774 H 72.934 1.24919 -0.81949 0
M  V30 775 H 74.816 4.20234 0.313256 0
M  V30 776 H 73.491 3.12703 0.836566 0
M  V30 777 H 72.398 3.44482 -1.45886 0
M  V30 778 H 73.731 4.53996 -1.90127 0
M  V30 779 N 75.3831 0.828654 1.34056 0
M  V30 780 C 76.3461 0.259927 2.27721 0
M  V30 781 C 77.3461 -0.565478 1.50529 0
M  V30 782 O 78.5361 -0.38075 1.69988 0
M  V30 783 C 75.6681 -0.634944 3.34935 0
M  V30 784 H 76.8611 1.0863 2.79534 0
M  V30 785 H 74.4141 0.600951 1.44285 0
M  V30 786 H 75.1491 -1.48416 2.88346 0
M  V30 787 H 74.9341 -0.0444999 3.92075 0
M  V30 788 H 76.4241 -1.02648 4.04788 0
M  V30 789 N 76.8612 -1.46375 0.584142 0
M  V30 790 C 78.1382 -1.956 0.0033388 0
M  V30 791 C 78.5182 -1.52679 -1.45782 0
M  V30 792 O 77.8662 -0.77816 -2.14842 0
M  V30 793 C 78.0762 -3.48551 0.176891 0
M  V30 794 C 79.4242 -4.24576 0.0454609 0
M  V30 795 O 80.4482 -3.56043 0.105801 0
M  V30 796 O 79.3072 -5.46427 -0.0890376 0
M  V30 797 H 76.4012 -0.825547 -0.0490066 0
M  V30 798 H 78.9472 -1.56652 0.65256 0
M  V30 799 H 77.7192 -3.72683 1.1926 0
M  V30 800 H 77.3422 -3.94332 -0.508695 0
M  V30 801 N 78.3393 -0.321999 -1.54275 0
M  V30 802 C 79.5873 0.280489 -2.00144 0
M  V30 803 C 79.9083 1.52777 -1.21178 0
M  V30 804 O 79.1783 1.9338 -0.313187 0
M  V30 805 H 77.7583 0.106632 -0.73935 0
M  V30 806 H 80.4203 -0.438184 -1.8991 0
M  V30 807 H 79.5163 0.537972 -3.07428 0
M  V30 808 N 79.8174 1.5752 -0.0501392 0
M  V30 809 C 81.0644 1.9265 0.623874 0
M  V30 810 C 81.3924 0.928411 1.70912 0
M  V30 811 O 80.6474 -0.0594525 1.9561 0
M  V30 812 C 80.9464 3.34467 1.25963 0
M  V30 813 C 80.6124 4.49883 0.302689 0
M  V30 814 C 79.2744 4.81184 0.0393636 0
M  V30 815 C 81.6264 5.20002 -0.353205 0
M  V30 816 C 78.9544 5.79951 -0.887308 0
M  V30 817 C 81.3064 6.1976 -1.26806 0
M  V30 818 C 79.9704 6.49491 -1.54007 0
M  V30 819 H 79.2404 0.704957 0.228292 0
M  V30 820 H 81.8874 1.91146 -0.116398 0
M  V30 821 H 80.1924 3.32333 2.07514 0
M  V30 822 H 81.8894 3.58928 1.78806 0
M  V30 823 H 78.4794 4.25457 0.518109 0
M  V30 824 H 82.6634 4.96033 -0.162854 0
M  V30 825 H 77.9194 6.01322 -1.10553 0
M  V30 826 H 82.0934 6.73205 -1.78236 0
M  V30 827 H 79.7204 7.25837 -2.25976 0
M  V30 828 N 81.2955 -0.223234 1.56011 0
M  V30 829 C 82.2585 -1.26014 1.9145 0
M  V30 830 C 83.2585 -1.3989 0.792937 0
M  V30 831 O 84.4485 -1.38184 1.0607 0
M  V30 832 C 81.5805 -2.63422 2.16383 0
M  V30 833 H 82.7735 -0.95796 2.84189 0
M  V30 834 H 80.3265 -0.463576 1.49267 0
M  V30 835 H 81.0615 -2.98741 1.2619 0
M  V30 836 H 80.8465 -2.54728 2.98088 0
M  V30 837 H 82.3365 -3.38249 2.44903 0
M  V30 838 N 82.7736 -1.49793 -0.48987 0
M  V30 839 C 84.0196 -1.60078 -1.24511 0
M  V30 840 C 84.3526 -0.291608 -1.91998 0
M  V30 841 O 83.6276 0.705647 -1.81248 0
M  V30 842 C 83.9106 -2.76791 -2.30345 0
M  V30 843 C 83.7636 -4.17535 -1.67286 0
M  V30 844 C 85.0826 -2.89111 -3.31817 0
M  V30 845 H 82.2016 -0.582645 -0.451324 0
M  V30 846 H 84.8436 -1.82117 -0.541612 0
M  V30 847 H 82.9936 -2.5813 -2.90346 0
M  V30 848 H 84.6656 -4.4774 -1.11026 0
M  V30 849 H 82.9086 -4.22665 -0.976577 0
M  V30 850 H 83.5796 -4.95094 -2.44103 0
M  V30 851 H 86.0556 -3.06133 -2.81819 0
M  V30 852 H 84.9316 -3.72433 -4.03219 0
M  V30 853 H 85.1926 -1.9893 -3.94815 0
M  V30 854 N 84.2517 0.741722 -1.39055 0
M  V30 855 C 85.2147 1.83733 -1.37021 0
M  V30 856 C 86.2147 1.58542 -0.268534 0
M  V30 857 O 87.4047 1.66067 -0.526076 0
M  V30 858 C 84.5367 3.2141 -1.13617 0
M  V30 859 H 85.7297 1.86941 -2.34506 0
M  V30 860 H 83.2827 0.944676 -1.24521 0
M  V30 861 H 84.0177 3.23865 -0.167863 0
M  V30 862 H 83.8027 3.4109 -1.93391 0
M  V30 863 H 85.2927 4.01477 -1.14918 0
M  V30 864 N 85.7298 1.2412 0.971189 0
M  V30 865 C 86.9698 1.09066 1.7287 0
M  V30 866 C 87.3338 -0.364794 1.88503 0
M  V30 867 O 88.5348 -0.636748 2.61149 0
M  V30 868 C 86.8058 1.80629 3.08396 0
M  V30 869 S 88.3648 1.81263 3.99611 0
M  V30 870 H 85.1828 0.390145 0.594397 0
M  V30 871 H 87.7848 1.57397 1.15959 0
M  V30 872 H 86.4888 2.85647 2.94676 0
M  V30 873 H 86.0198 1.32617 3.70373 0
M  V30 874 H 88.0348 0.877804 4.88374 0
M  V30 875 N 87.2079 -1.17134 1.05439 0
M  V30 876 C 88.4569 -1.86791 0.761049 0
M  V30 877 C 88.7699 -1.82072 -0.714795 0
M  V30 878 O 89.9759 -2.47223 -1.12218 0
M  V30 879 C 88.4319 -3.35166 1.31117 0
M  V30 880 C 88.0399 -3.48381 2.81664 0
M  V30 881 C 89.7839 -4.10134 1.09499 0
M  V30 882 C 87.6909 -4.90793 3.29964 0
M  V30 883 H 86.6209 -0.699681 0.281002 0
M  V30 884 H 89.2719 -1.3226 1.27199 0
M  V30 885 H 87.6539 -3.8925 0.72803 0
M  V30 886 H 88.8279 -3.04502 3.45855 0
M  V30 887 H 87.1429 -2.86836 3.01851 0
M  V30 888 H 89.7399 -5.152 1.43084 0
M  V30 889 H 90.0829 -4.16287 0.0328772 0
M  V30 890 H 90.6159 -3.62264 1.64346 0
M  V30 891 H 87.3549 -4.89816 4.35616 0
M  V30 892 H 86.8749 -5.35333 2.70516 0
M  V30 893 H 88.5539 -5.59573 3.24787 0
M  V30 894 N 88.686 -0.835752 -1.33615 0
M  V30 895 C 89.596 -0.269088 -2.33052 0
M  V30 896 C 90.612 0.603251 -1.63208 0
M  V30 897 O 91.788 0.508112 -1.94885 0
M  V30 898 C 88.853 0.549091 -3.42324 0
M  V30 899 C 87.914 -0.347156 -4.27894 0
M  V30 900 C 87.147 0.43207 -5.31948 0
M  V30 901 O 87.37 1.66409 -5.45586 0
M  V30 902 O 86.304 -0.192298 -6.01593 0
M  V30 903 H 90.13 -1.09243 -2.83372 0
M  V30 904 H 87.715 -0.598198 -1.36901 0
M  V30 905 H 89.597 1.01414 -4.09015 0
M  V30 906 H 88.272 1.34955 -2.94226 0
M  V30 907 H 87.179 -0.859979 -3.64081 0
M  V30 908 H 88.512 -1.1123 -4.79467 0
M  V30 909 N 90.1641 1.46063 -0.591896 0
M  V30 910 C 91.0741 2.34192 0.13831 0
M  V30 911 C 92.0901 1.50305 0.876608 0
M  V30 912 O 93.2661 1.8315 0.837728 0
M  V30 913 C 90.3311 3.27656 1.13326 0
M  V30 914 C 89.3921 4.27445 0.39863 0
M  V30 915 C 88.6251 5.16443 1.34618 0
M  V30 916 O 88.8481 5.08553 2.58321 0
M  V30 917 O 87.7821 5.95843 0.851768 0
M  V30 918 H 91.6081 2.98002 -0.58552 0
M  V30 919 H 89.1931 1.45188 -0.352239 0
M  V30 920 H 91.0751 3.85291 1.70671 0
M  V30 921 H 89.7501 2.6643 1.83839 0
M  V30 922 H 88.6571 3.73471 -0.216895 0
M  V30 923 H 89.9901 4.91482 -0.265709 0
M  V30 924 N 91.6422 0.330177 1.54103 0
M  V30 925 C 92.8902 -0.269871 2.0029 0
M  V30 926 C 93.2112 -1.52133 1.21986 0
M  V30 927 O 92.4812 -1.93212 0.323438 0
M  V30 928 H 91.0612 -0.10271 0.739905 0
M  V30 929 H 93.7232 0.448249 1.89675 0
M  V30 930 H 92.8192 -0.52166 3.07709 0
M  V30 931 N 93.1203 -1.57491 0.0584922 0
M  V30 932 C 94.0503 -2.14988 -0.911178 0
M  V30 933 C 95.0313 -1.07343 -1.31952 0
M  V30 934 O 96.2163 -1.35318 -1.39294 0
M  V30 935 C 93.3463 -2.70078 -2.18347 0
M  V30 936 C 92.3003 -3.82771 -1.91495 0
M  V30 937 C 91.6263 -4.24408 -3.25241 0
M  V30 938 C 92.9263 -5.07592 -1.23075 0
M  V30 939 H 94.6203 -2.96263 -0.432246 0
M  V30 940 H 92.1663 -1.42512 -0.206469 0
M  V30 941 H 94.1193 -3.08943 -2.86587 0
M  V30 942 H 92.8433 -1.86005 -2.68458 0
M  V30 943 H 91.5023 -3.44389 -1.25664 0
M  V30 944 H 91.1503 -3.37275 -3.73168 0
M  V30 945 H 90.8503 -5.00366 -3.08071 0
M  V30 946 H 92.3743 -4.65879 -3.94701 0
M  V30 947 H 93.7883 -5.43857 -1.81362 0
M  V30 948 H 92.1853 -5.88741 -1.16207 0
M  V30 949 H 93.2553 -4.84454 -0.207847 0
M  V30 950 N 94.5984 0.214957 -1.56127 0
M  V30 951 C 95.5084 1.28727 -1.96129 0
M  V30 952 C 96.5244 1.50916 -0.866044 0
M  V30 953 O 97.7004 1.63918 -1.17016 0
M  V30 954 C 94.7654 2.61569 -2.27558 0
M  V30 955 C 93.8264 2.47625 -3.50685 0
M  V30 956 C 93.0594 3.74132 -3.80606 0
M  V30 957 O 93.2824 4.77438 -3.12104 0
M  V30 958 O 92.2164 3.70849 -4.74083 0
M  V30 959 H 96.0424 0.977855 -2.87527 0
M  V30 960 H 93.6274 0.418358 -1.43423 0
M  V30 961 H 95.5094 3.40012 -2.48938 0
M  V30 962 H 94.1844 2.92178 -1.39332 0
M  V30 963 H 93.0914 1.67361 -3.34576 0
M  V30 964 H 94.4244 2.21954 -4.39315 0
M  V30 965 N 96.0765 1.50051 0.48192 0
M  V30 966 C 97.0065 1.71046 1.58951 0
M  V30 967 C 97.9875 0.559288 1.60642 0
M  V30 968 O 99.1725 0.797243 1.77081 0
M  V30 969 C 96.3025 1.79462 2.97339 0
M  V30 970 C 95.2565 2.94558 3.10515 0
M  V30 971 C 94.5825 2.88105 4.50444 0
M  V30 972 C 95.8825 4.35227 2.88747 0
M  V30 973 H 97.5765 2.6378 1.41635 0
M  V30 974 H 95.1225 1.26936 0.679942 0
M  V30 975 H 97.0755 1.92734 3.74742 0
M  V30 976 H 95.7995 0.833412 3.15788 0
M  V30 977 H 94.4585 2.80918 2.35543 0
M  V30 978 H 94.1065 1.89853 4.65795 0
M  V30 979 H 93.8065 3.65366 4.60197 0
M  V30 980 H 95.3305 3.03412 5.29881 0
M  V30 981 H 96.7445 4.49449 3.55905 0
M  V30 982 H 95.1415 5.13856 3.09955 0
M  V30 983 H 96.2115 4.48347 1.84696 0
M  V30 984 N 97.5546 -0.734337 1.39446 0
M  V30 985 C 98.9706 -1.03997 1.21065 0
M  V30 986 C 99.1706 -2.01369 0.0727019 0
M  V30 987 O 98.2266 -2.45856 -0.575426 0
M  V30 988 C 99.5396 -1.60163 2.54496 0
M  V30 989 C 101.088 -1.7224 2.61347 0
M  V30 990 C 101.563 -2.31814 3.95002 0
M  V30 991 N 103.054 -2.39223 3.96644 0
M  V30 992 C 103.789 -2.86258 4.96834 0
M  V30 993 N 103.285 -3.33184 6.07421 0
M  V30 994 N 105.078 -2.85473 4.84213 0
M  V30 995 H 97.2286 -0.0885624 2.12215 0
M  V30 996 H 99.4916 -0.10191 0.942506 0
M  V30 997 H 99.1976 -0.960811 3.38321 0
M  V30 998 H 99.0716 -2.5896 2.74262 0
M  V30 999 H 101.459 -2.35443 1.77906 0
M  V30 1000 H 101.54 -0.720939 2.4543 0
M  V30 1001 H 101.184 -1.69238 4.78875 0
M  V30 1002 H 101.114 -3.32638 4.08239 0
M  V30 1003 H 103.605 -2.06057 3.16779 0
M  V30 1004 H 103.918 -3.67586 6.7978 0
M  V30 1005 H 102.263 -3.31191 6.11013 0
M  V30 1006 H 105.454 -2.48136 3.96921 0
M  V30 1007 H 105.627 -3.21814 5.62441 0
M  V30 1008 N 99.0327 -1.24633 -0.964593 0
M  V30 1009 C 99.9427 -1.05859 -2.09359 0
M  V30 1010 C 100.959 0.00148855 -1.74 0
M  V30 1011 O 102.135 -0.197346 -2.00431 0
M  V30 1012 C 99.1997 -0.668879 -3.40187 0
M  V30 1013 C 98.2607 -1.80578 -3.89474 0
M  V30 1014 C 97.4937 -1.43457 -5.14058 0
M  V30 1015 O 97.7167 -0.325775 -5.69469 0
M  V30 1016 O 96.6507 -2.2613 -5.57807 0
M  V30 1017 H 100.477 -2.00516 -2.28094 0
M  V30 1018 H 98.0617 -1.03481 -1.0776 0
M  V30 1019 H 99.9437 -0.463211 -4.18846 0
M  V30 1020 H 98.6187 0.248536 -3.22744 0
M  V30 1021 H 97.5257 -2.06623 -3.11862 0
M  V30 1022 H 98.8587 -2.70208 -4.11398 0
M  V30 1023 N 100.511 1.16574 -1.06058 0
M  V30 1024 C 101.474 2.19085 -0.673392 0
M  V30 1025 C 102.474 1.5835 0.279648 0
M  V30 1026 O 103.664 1.74088 0.0623488 0
M  V30 1027 C 100.796 3.40899 0.00954234 0
M  V30 1028 H 101.989 2.54853 -1.58081 0
M  V30 1029 H 99.5418 1.30808 -0.855516 0
M  V30 1030 H 100.277 3.10684 0.929826 0
M  V30 1031 H 100.062 3.86233 -0.67573 0
M  V30 1032 H 101.552 4.1675 0.266245 0
M  V30 1033 N 101.989 0.842826 1.3317 0
M  V30 1034 C 103.237 0.439577 1.97262 0
M  V30 1035 C 103.558 -1.00548 1.67078 0
M  V30 1036 O 102.828 -1.70098 0.971779 0
M  V30 1037 H 101.408 0.159558 0.72976 0
M  V30 1038 H 104.07 1.07665 1.62463 0
M  V30 1039 H 103.166 0.574886 3.0676 0
M  V30 1040 N 103.467 -1.45747 0.599634 0
M  V30 1041 C 104.716 -2.01502 0.0893511 0
M  V30 1042 C 105.029 -1.4748 -1.28488 0
M  V30 1043 O 106.235 -1.95161 -1.88745 0
M  V30 1044 C 104.691 -3.59735 0.109082 0
M  V30 1045 C 104.299 -4.22754 1.48267 0
M  V30 1046 C 106.043 -4.23085 -0.346374 0
M  V30 1047 C 103.95 -5.73115 1.45921 0
M  V30 1048 H 102.88 -0.753417 0.0296347 0
M  V30 1049 H 105.531 -1.67303 0.753788 0
M  V30 1050 H 103.913 -3.91087 -0.621854 0
M  V30 1051 H 105.087 -4.02987 2.23468 0
M  V30 1052 H 103.402 -3.71567 1.87955 0
M  V30 1053 H 105.999 -5.33327 -0.38298 0
M  V30 1054 H 106.342 -3.93201 -1.36743 0
M  V30 1055 H 106.875 -3.9642 0.331038 0
M  V30 1056 H 103.614 -6.07685 2.45762 0
M  V30 1057 H 103.134 -5.95097 0.749665 0
M  V30 1058 H 104.813 -6.3616 1.17941 0
M  V30 1059 N 104.945 -0.338344 -1.53925 0
M  V30 1060 C 106.361 0.0137736 -1.59594 0
M  V30 1061 C 106.561 1.49186 -1.35447 0
M  V30 1062 O 105.617 2.24987 -1.14616 0
M  V30 1063 C 106.93 -0.41773 -2.97784 0
M  V30 1064 C 108.478 -0.369633 -3.1081 0
M  V30 1065 C 108.953 -0.776524 -4.51369 0
M  V30 1066 N 110.444 -0.730506 -4.57403 0
M  V30 1067 C 111.179 -1.01736 -5.64303 0
M  V30 1068 N 110.675 -1.3721 -6.79077 0
M  V30 1069 N 112.468 -0.941942 -5.54151 0
M  V30 1070 H 104.619 -1.3012 -1.67876 0
M  V30 1071 H 106.882 -0.530082 -0.78595 0
M  V30 1072 H 106.588 -1.44811 -3.20504 0
M  V30 1073 H 106.462 0.209729 -3.76616 0
M  V30 1074 H 108.849 0.651568 -2.87817 0
M  V30 1075 H 108.93 -1.03223 -2.34049 0
M  V30 1076 H 108.574 -1.79571 -4.75096 0
M  V30 1077 H 108.504 -0.0914649 -5.26521 0
M  V30 1078 H 110.995 -0.468783 -3.74981 0
M  V30 1079 H 111.308 -1.57597 -7.5656 0
M  V30 1080 H 109.653 -1.4105 -6.80536 0
M  V30 1081 H 112.844 -0.664184 -4.63364 0
M  V30 1082 H 113.017 -1.16884 -6.37371 0
M  V30 1083 N 106.423 1.57458 -0.0668435 0
M  V30 1084 C 107.355 2.09413 0.931601 0
M  V30 1085 C 108.368 1.02522 1.26464 0
M  V30 1086 O 109.557 1.30049 1.22269 0
M  V30 1087 C 106.657 2.53537 2.24882 0
M  V30 1088 C 105.83 3.83944 2.09537 0
M  V30 1089 C 104.889 4.14214 3.2452 0
M  V30 1090 O 103.915 4.83891 2.9973 0
M  V30 1091 N 105.117 3.67367 4.49469 0
M  V30 1092 H 107.882 2.95699 0.488048 0
M  V30 1093 H 105.443 1.61462 0.119009 0
M  V30 1094 H 107.435 2.70853 3.00701 0
M  V30 1095 H 106.005 1.72415 2.60753 0
M  V30 1096 H 105.225 3.76057 1.18215 0
M  V30 1097 H 106.513 4.69312 1.96529 0
M  V30 1098 H 105.911 3.11068 4.72497 0
M  V30 1099 H 104.468 3.89891 5.2233 0
M  V30 1100 N 107.901 -0.206675 1.56239 0
M  V30 1101 C 109.312 -0.772383 1.69974 0
M  V30 1102 C 109.663 -1.84353 0.671436 0
M  V30 1103 O 108.788 -2.15695 -0.174491 0
M  V30 1104 C 109.383 -1.40779 3.08167 0
M  V30 1105 C 107.942 -1.92072 3.23706 0
M  V30 1106 C 107.089 -0.786347 2.65917 0
M  V30 1107 H 110.04 0.0182223 1.5869 0
M  V30 1108 H 110.061 -2.27696 3.04852 0
M  V30 1109 H 109.573 -0.627958 3.82986 0
M  V30 1110 H 107.674 -2.7281 2.53782 0
M  V30 1111 H 107.787 -2.09046 4.31087 0
M  V30 1112 H 106.151 -1.1976 2.24788 0
M  V30 1113 H 106.934 -0.0189416 3.43295 0
M  V30 1114 N 109.379 -1.50304 -0.473955 0
M  V30 1115 C 110.628 -1.60392 -1.22301 0
M  V30 1116 C 110.941 -0.308411 -1.93153 0
M  V30 1117 O 112.147 -0.288156 -2.69966 0
M  V30 1118 C 110.603 -2.83109 -2.2221 0
M  V30 1119 C 110.211 -4.19524 -1.57173 0
M  V30 1120 C 111.955 -3.0254 -2.97775 0
M  V30 1121 C 109.862 -5.33431 -2.55353 0
M  V30 1122 H 108.792 -0.597286 -0.460179 0
M  V30 1123 H 111.443 -1.76731 -0.493803 0
M  V30 1124 H 109.825 -2.60322 -2.9841 0
M  V30 1125 H 110.999 -4.52554 -0.867824 0
M  V30 1126 H 109.314 -4.05674 -0.939002 0
M  V30 1127 H 111.911 -3.84811 -3.71248 0
M  V30 1128 H 112.254 -2.14154 -3.56992 0
M  V30 1129 H 112.787 -3.25494 -2.28688 0
M  V30 1130 H 109.526 -6.23962 -2.00878 0
M  V30 1131 H 109.046 -5.04823 -3.23904 0
M  V30 1132 H 110.725 -5.63887 -3.17239 0
M  V30 1133 N 110.857 0.726932 -1.39834 0
M  V30 1134 C 111.787 1.85405 -1.41941 0
M  V30 1135 C 112.768 1.67751 -0.281728 0
M  V30 1136 O 113.953 1.8795 -0.488717 0
M  V30 1137 C 111.083 3.23243 -1.2701 0
M  V30 1138 C 110.037 3.55549 -2.38262 0
M  V30 1139 C 109.363 4.9241 -2.08415 0
M  V30 1140 C 110.663 3.577 -3.80589 0
M  V30 1141 H 112.357 1.83899 -2.36266 0
M  V30 1142 H 109.903 0.883349 -1.13723 0
M  V30 1143 H 111.856 4.01775 -1.27103 0
M  V30 1144 H 110.58 3.25296 -0.291564 0
M  V30 1145 H 109.239 2.79351 -2.37399 0
M  V30 1146 H 108.887 4.91052 -1.0898 0
M  V30 1147 H 108.587 5.14992 -2.82943 0
M  V30 1148 H 110.111 5.73289 -2.10171 0
M  V30 1149 H 111.525 4.26293 -3.83337 0
M  V30 1150 H 109.922 3.91804 -4.54543 0
M  V30 1151 H 110.992 2.57328 -4.10987 0
M  V30 1152 N 112.336 1.25143 0.95797 0
M  V30 1153 C 113.266 1.07711 2.07173 0
M  V30 1154 C 114.247 -0.0128462 1.70095 0
M  V30 1155 O 115.432 0.156061 1.93572 0
M  V30 1156 C 112.562 0.691503 3.40346 0
M  V30 1157 C 111.516 1.73132 3.9142 0
M  V30 1158 C 110.842 1.20049 5.21049 0
M  V30 1159 C 112.142 3.1294 4.1817 0
M  V30 1160 H 113.836 2.00873 2.22014 0
M  V30 1161 H 111.382 0.967191 1.06684 0
M  V30 1162 H 113.335 0.556505 4.17709 0
M  V30 1163 H 112.059 -0.275819 3.25433 0
M  V30 1164 H 110.718 1.8547 3.16222 0
M  V30 1165 H 110.366 0.223499 5.02503 0
M  V30 1166 H 110.066 1.89545 5.56189 0
M  V30 1167 H 111.59 1.07782 6.01012 0
M  V30 1168 H 113.004 3.03775 4.86203 0
M  V30 1169 H 111.401 3.79875 4.64559 0
M  V30 1170 H 112.471 3.6025 3.24573 0
M  V30 1171 N 113.814 -1.1601 1.06675 0
M  V30 1172 C 114.744 -2.22688 0.702307 0
M  V30 1173 C 115.725 -1.67306 -0.307032 0
M  V30 1174 O 116.91 -1.93352 -0.181305 0
M  V30 1175 C 114.04 -3.47178 0.092038 0
M  V30 1176 C 112.994 -4.15477 1.02777 0
M  V30 1177 C 112.32 -5.33963 0.28061 0
M  V30 1178 C 113.62 -4.66019 2.35846 0
M  V30 1179 H 115.314 -2.53429 1.59419 0
M  V30 1180 H 112.86 -1.21813 0.767961 0
M  V30 1181 H 114.813 -4.21037 -0.174814 0
M  V30 1182 H 113.537 -3.15749 -0.834877 0
M  V30 1183 H 112.196 -3.43549 1.27944 0
M  V30 1184 H 111.844 -4.98788 -0.649545 0
M  V30 1185 H 111.544 -5.806 0.904258 0
M  V30 1186 H 113.068 -6.10596 0.021396 0
M  V30 1187 H 114.482 -5.3144 2.15045 0
M  V30 1188 H 112.879 -5.23293 2.93743 0
M  V30 1189 H 113.949 -3.82023 2.98641 0
M  V30 1190 N 115.292 -0.849877 -1.32721 0
M  V30 1191 C 116.202 -0.293791 -2.32753 0
M  V30 1192 C 117.218 0.585906 -1.63839 0
M  V30 1193 O 118.394 0.487413 -1.95413 0
M  V30 1194 C 115.459 0.512752 -3.42887 0
M  V30 1195 C 114.52 -0.39252 -4.27502 0
M  V30 1196 C 113.753 0.375625 -5.32377 0
M  V30 1197 O 113.976 1.60613 -5.4732 0
M  V30 1198 O 112.91 -0.256094 -6.01355 0
M  V30 1199 H 116.736 -1.12242 -2.82197 0
M  V30 1200 H 114.321 -0.612685 -1.36259 0
M  V30 1201 H 116.203 0.970704 -4.10067 0
M  V30 1202 H 114.878 1.31826 -2.95641 0
M  V30 1203 H 113.785 -0.898547 -3.63149 0
M  V30 1204 H 115.118 -1.16309 -4.7826 0
M  V30 1205 N 116.77 1.45427 -0.607355 0
M  V30 1206 C 118.018 2.01841 -0.102253 0
M  V30 1207 C 118.339 1.47832 1.27164 0
M  V30 1208 O 117.609 0.672497 1.83995 0
M  V30 1209 H 116.189 0.746188 -0.0348101 0
M  V30 1210 H 118.851 1.78229 -0.7887 0
M  V30 1211 H 117.947 3.12057 -0.0518585 0
M  V30 1212 N 118.248 0.346503 1.53744 0
M  V30 1213 C 119.495 -0.249104 2.00962 0
M  V30 1214 C 119.823 -1.5032 1.23426 0
M  V30 1215 O 119.078 -1.93217 0.310761 0
M  V30 1216 C 119.377 -0.605809 3.52228 0
M  V30 1217 C 119.043 0.551747 4.47512 0
M  V30 1218 C 117.705 0.86941 4.73281 0
M  V30 1219 C 120.057 1.32818 5.03993 0
M  V30 1220 C 117.385 1.96582 5.52786 0
M  V30 1221 C 119.737 2.41486 5.84694 0
M  V30 1222 C 118.401 2.73808 6.08757 0
M  V30 1223 H 117.671 -0.0911538 0.735372 0
M  V30 1224 H 120.318 0.475027 1.85515 0
M  V30 1225 H 118.623 -1.4107 3.65522 0
M  V30 1226 H 120.32 -1.07858 3.86222 0
M  V30 1227 H 116.91 0.294102 4.2759 0
M  V30 1228 H 121.094 1.09602 4.84047 0
M  V30 1229 H 116.35 2.22045 5.69654 0
M  V30 1230 H 120.524 3.02078 6.27473 0
M  V30 1231 H 118.151 3.58892 6.7015 0
M  V30 1232 N 119.726 -1.57421 0.075193 0
M  V30 1233 C 120.973 -1.93618 -0.593146 0
M  V30 1234 C 121.301 -0.955484 -1.69413 0
M  V30 1235 O 120.556 0.0283251 -1.9568 0
M  V30 1236 C 120.855 -3.36428 -1.20626 0
M  V30 1237 C 120.521 -4.50307 -0.231078 0
M  V30 1238 C 119.183 -4.81186 0.0371936 0
M  V30 1239 C 121.535 -5.19374 0.435888 0
M  V30 1240 C 118.863 -5.78466 0.979461 0
M  V30 1241 C 121.215 -6.17665 1.3665 0
M  V30 1242 C 119.879 -6.46958 1.6432 0
M  V30 1243 H 119.149 -0.708499 -0.217047 0
M  V30 1244 H 121.796 -1.90937 0.146793 0
M  V30 1245 H 120.101 -3.35592 -2.02201 0
M  V30 1246 H 121.798 -3.61727 -1.73073 0
M  V30 1247 H 118.388 -4.26227 -0.450357 0
M  V30 1248 H 122.572 -4.95711 0.241748 0
M  V30 1249 H 117.828 -5.99487 1.20106 0
M  V30 1250 H 122.002 -6.70284 1.88924 0
M  V30 1251 H 119.629 -7.2215 2.37494 0
M  V30 1252 N 121.204 0.198386 -1.56346 0
M  V30 1253 C 122.114 1.2664 -1.97483 0
M  V30 1254 C 123.13 1.49989 -0.882002 0
M  V30 1255 O 124.306 1.62668 -1.18748 0
M  V30 1256 C 121.371 2.59141 -2.30319 0
M  V30 1257 C 120.432 2.43892 -3.53292 0
M  V30 1258 C 119.665 3.70074 -3.84553 0
M  V30 1259 O 119.888 4.74101 -3.1715 0
M  V30 1260 O 118.822 3.658 -4.7799 0
M  V30 1261 H 122.648 0.947304 -2.88548 0
M  V30 1262 H 120.233 0.403123 -1.43859 0
M  V30 1263 H 122.115 3.37352 -2.5253 0
M  V30 1264 H 120.79 2.90684 -1.42423 0
M  V30 1265 H 119.697 1.63803 -3.36332 0
M  V30 1266 H 121.03 2.17282 -4.41644 0
M  V30 1267 N 122.682 1.50554 0.465978 0
M  V30 1268 C 123.645 1.69233 1.54574 0
M  V30 1269 C 124.645 0.562901 1.50626 0
M  V30 1270 O 125.835 0.830016 1.53155 0
M  V30 1271 C 122.967 1.7223 2.94193 0
M  V30 1272 H 124.16 2.65571 1.39327 0
M  V30 1273 H 121.713 1.40111 0.692711 0
M  V30 1274 H 122.448 0.77603 3.14878 0
M  V30 1275 H 122.233 2.54285 2.98466 0
M  V30 1276 H 123.723 1.88618 3.72576 0
M  V30 1277 N 124.16 -0.719506 1.40217 0
M  V30 1278 C 125.385 -1.51371 1.4178 0
M  V30 1279 C 125.81 -1.88091 0.0182355 0
M  V30 1280 O 125.168 -1.52997 -0.972707 0
M  V30 1281 C 125.216 -2.768 2.31115 0
M  V30 1282 O 124.32 -3.73349 1.7517 0
M  V30 1283 H 123.661 -0.456529 0.482159 0
M  V30 1284 H 126.191 -0.88644 1.844 0
M  V30 1285 H 126.201 -3.25371 2.46167 0
M  V30 1286 H 124.876 -2.49407 3.3282 0
M  V30 1287 H 123.453 -3.32179 1.69444 0
M  V30 1288 N 125.638 -1.25649 -0.95132 0
M  V30 1289 C 126.548 -1.08073 -2.08224 0
M  V30 1290 C 127.564 -0.0169666 -1.73992 0
M  V30 1291 O 128.74 -0.218593 -2.0021 0
M  V30 1292 C 125.805 -0.704922 -3.39458 0
M  V30 1293 C 124.866 -1.84699 -3.87537 0
M  V30 1294 C 124.099 -1.48902 -5.12508 0
M  V30 1295 O 124.322 -0.386156 -5.69091 0
M  V30 1296 O 123.256 -2.32033 -5.55378 0
M  V30 1297 H 127.082 -2.02924 -2.25954 0
M  V30 1298 H 124.667 -1.04618 -1.06656 0
M  V30 1299 H 126.549 -0.507609 -4.18332 0
M  V30 1300 H 125.224 0.214291 -3.2299 0
M  V30 1301 H 124.131 -2.09919 -3.09653 0
M  V30 1302 H 125.464 -2.74557 -4.08509 0
M  V30 1303 N 127.117 1.15442 -1.07289 0
M  V30 1304 C 128.047 2.22312 -0.714107 0
M  V30 1305 C 129.028 1.67467 0.298155 0
M  V30 1306 O 130.213 1.93445 0.171048 0
M  V30 1307 C 127.343 3.47124 -0.110448 0
M  V30 1308 C 126.297 4.14926 -1.04979 0
M  V30 1309 C 125.623 5.33807 -0.308924 0
M  V30 1310 C 126.923 4.64762 -2.38314 0
M  V30 1311 H 128.617 2.5258 -1.6076 0
M  V30 1312 H 126.163 1.21404 -0.77441 0
M  V30 1313 H 128.116 4.21124 0.152482 0
M  V30 1314 H 126.84 3.16187 0.81812 0
M  V30 1315 H 125.499 3.42866 -1.29764 0
M  V30 1316 H 125.147 4.99126 0.623084 0
M  V30 1317 H 124.847 5.80113 -0.935036 0
M  V30 1318 H 126.371 6.10576 -0.0537771 0
M  V30 1319 H 127.785 5.30292 -2.1786 0
M  V30 1320 H 126.182 5.21728 -2.96514 0
M  V30 1321 H 127.252 3.80434 -3.00663 0
M  V30 1322 N 128.595 0.856903 1.32268 0
M  V30 1323 C 129.505 0.306131 2.32594 0
M  V30 1324 C 130.521 -0.577209 1.64147 0
M  V30 1325 O 131.697 -0.477043 1.95669 0
M  V30 1326 C 128.762 -0.494561 3.43154 0
M  V30 1327 C 127.823 0.415186 4.27288 0
M  V30 1328 C 127.056 -0.347387 5.32568 0
M  V30 1329 O 127.279 -1.57708 5.48165 0
M  V30 1330 O 126.213 0.287982 6.01211 0
M  V30 1331 H 130.039 1.13737 2.81598 0
M  V30 1332 H 127.624 0.619902 1.35932 0
M  V30 1333 H 129.506 -0.948944 4.10576 0
M  V30 1334 H 128.181 -1.30257 2.96336 0
M  V30 1335 H 127.088 0.917793 3.62667 0
M  V30 1336 H 128.421 1.18844 4.77637 0
M  V30 1337 N 130.073 -1.45103 0.615059 0
M  V30 1338 C 131.003 -2.33339 -0.0865619 0
M  V30 1339 C 131.984 -1.4727 -0.851209 0
M  V30 1340 O 133.169 -1.76026 -0.820281 0
M  V30 1341 C 130.299 -3.30095 -1.07956 0
M  V30 1342 C 129.253 -4.25858 -0.427628 0
M  V30 1343 C 128.579 -5.12361 -1.5294 0
M  V30 1344 C 129.879 -5.18165 0.655944 0
M  V30 1345 H 131.573 -2.92254 0.650224 0
M  V30 1346 H 129.119 -1.40532 0.314138 0
M  V30 1347 H 131.072 -3.90698 -1.57901 0
M  V30 1348 H 129.796 -2.69355 -1.84703 0
M  V30 1349 H 128.455 -3.66564 0.0510292 0
M  V30 1350 H 128.103 -4.47984 -2.28734 0
M  V30 1351 H 127.803 -5.77238 -1.09865 0
M  V30 1352 H 129.327 -5.75833 -2.03098 0
M  V30 1353 H 130.741 -5.72796 0.240257 0
M  V30 1354 H 129.138 -5.91559 1.00888 0
M  V30 1355 H 130.208 -4.60144 1.52957 0
M  V30 1356 N 131.551 -0.354651 -1.53558 0
M  V30 1357 C 132.8 0.239504 -2.00273 0
M  V30 1358 C 133.113 1.50759 -1.24623 0
M  V30 1359 O 134.319 2.17968 -1.61871 0
M  V30 1360 C 132.775 0.477341 -3.5672 0
M  V30 1361 C 132.383 -0.775488 -4.41237 0
M  V30 1362 C 134.127 1.02975 -4.11821 0
M  V30 1363 C 132.034 -0.507838 -5.89216 0
M  V30 1364 H 130.964 0.0932743 -0.748208 0
M  V30 1365 H 133.615 -0.471701 -1.77334 0
M  V30 1366 H 131.997 1.24953 -3.7577 0
M  V30 1367 H 133.171 -1.54963 -4.33962 0
M  V30 1368 H 131.486 -1.25033 -3.97185 0
M  V30 1369 H 134.083 1.24513 -5.2 0
M  V30 1370 H 134.426 1.98862 -3.65731 0
M  V30 1371 H 134.959 0.317994 -3.96527 0
M  V30 1372 H 131.698 -1.43674 -6.39561 0
M  V30 1373 H 131.218 0.228011 -5.99366 0
M  V30 1374 H 132.897 -0.129238 -6.46871 0
M  V30 1375 N 133.029 1.57378 -0.0835403 0
M  V30 1376 C 134.275 1.94217 0.583733 0
M  V30 1377 C 134.608 0.964653 1.68547 0
M  V30 1378 O 133.883 -0.00422258 1.945 0
M  V30 1379 C 134.166 3.41253 1.14972 0
M  V30 1380 C 134.019 4.49768 0.0538277 0
M  V30 1381 C 135.338 3.89352 2.05166 0
M  V30 1382 H 132.457 0.706233 0.210724 0
M  V30 1383 H 135.099 1.89392 -0.1519 0
M  V30 1384 H 133.249 3.45496 1.77665 0
M  V30 1385 H 134.921 4.57641 -0.579851 0
M  V30 1386 H 133.164 4.29432 -0.614068 0
M  V30 1387 H 133.835 5.49817 0.490452 0
M  V30 1388 H 136.311 3.87189 1.52393 0
M  V30 1389 H 135.187 4.92822 2.41698 0
M  V30 1390 H 135.448 3.27973 2.96456 0
M  V30 1391 N 134.507 -0.190092 1.56449 0
M  V30 1392 C 135.47 -1.21925 1.9408 0
M  V30 1393 C 136.47 -1.38176 0.822431 0
M  V30 1394 O 137.66 -1.35903 1.08977 0
M  V30 1395 C 134.792 -2.58773 2.21922 0
M  V30 1396 H 135.985 -0.897464 2.86157 0
M  V30 1397 H 133.538 -0.43181 1.50217 0
M  V30 1398 H 134.273 -2.95998 1.32499 0
M  V30 1399 H 134.058 -2.48348 3.03424 0
M  V30 1400 H 135.548 -3.32978 2.52022 0
M  V30 1401 N 135.985 -1.50799 -0.457987 0
M  V30 1402 C 136.935 -1.67003 -1.55222 0
M  V30 1403 C 137.919 -0.52434 -1.52117 0
M  V30 1404 O 139.111 -0.779345 -1.58919 0
M  V30 1405 C 136.24 -1.77956 -2.93576 0
M  V30 1406 C 135.326 -2.98243 -3.01516 0
M  V30 1407 N 135.717 -4.21732 -2.79241 0
M  V30 1408 C 134.015 -2.97072 -3.32662 0
M  V30 1409 C 134.716 -5.02817 -2.92489 0
M  V30 1410 N 133.692 -4.37038 -3.23262 0
M  V30 1411 H 137.494 -2.60163 -1.36721 0
M  V30 1412 H 135.008 -1.48163 -0.664952 0
M  V30 1413 H 137.005 -1.87671 -3.72271 0
M  V30 1414 H 135.665 -0.859634 -3.13114 0
M  V30 1415 H 136.676 -4.51016 -2.54567 0
M  V30 1416 H 133.353 -2.14631 -3.58106 0
M  V30 1417 H 134.743 -6.11054 -2.79396 0
M  V30 1418 N 137.463 0.71206 -1.40597 0
M  V30 1419 C 138.74 1.46536 -1.29563 0
M  V30 1420 C 139.12 2.10931 0.0844217 0
M  V30 1421 O 138.468 2.00418 1.0975 0
M  V30 1422 C 138.678 2.49821 -2.43701 0
M  V30 1423 C 140.026 3.15551 -2.841 0
M  V30 1424 O 141.05 2.60142 -2.4332 0
M  V30 1425 O 139.909 4.15867 -3.54566 0
M  V30 1426 H 137.003 0.651801 -0.509004 0
M  V30 1427 H 139.549 0.743935 -1.52524 0
M  V30 1428 H 138.321 2.00778 -3.35863 0
M  V30 1429 H 137.944 3.29495 -2.22528 0
M  V30 1430 N 138.941 1.26152 0.944643 0
M  V30 1431 C 140.188 1.11492 1.69044 0
M  V30 1432 C 140.516 -0.342366 1.91463 0
M  V30 1433 O 139.771 -1.26812 1.49054 0
M  V30 1434 C 140.07 1.82541 3.07268 0
M  V30 1435 C 139.736 3.32445 3.04616 0
M  V30 1436 C 138.398 3.73337 3.036 0
M  V30 1437 C 140.75 4.28171 2.97185 0
M  V30 1438 C 138.078 5.08348 2.92915 0
M  V30 1439 C 140.43 5.63218 2.88041 0
M  V30 1440 C 139.094 6.03426 2.85366 0
M  V30 1441 H 138.364 0.407977 0.618576 0
M  V30 1442 H 141.011 1.56551 1.10291 0
M  V30 1443 H 139.316 1.29941 3.69625 0
M  V30 1444 H 141.013 1.68642 3.63815 0
M  V30 1445 H 137.603 2.99915 3.06185 0
M  V30 1446 H 141.787 3.97563 2.97081 0
M  V30 1447 H 137.043 5.38667 2.89219 0
M  V30 1448 H 141.217 6.37078 2.81254 0
M  V30 1449 H 138.844 7.07999 2.76842 0
M  V30 1450 N 140.419 -1.14872 1.07899 0
M  V30 1451 C 141.665 -1.86289 0.81657 0
M  V30 1452 C 142.02 -1.8107 -0.65049 0
M  V30 1453 O 141.313 -1.22684 -1.47171 0
M  V30 1454 C 141.507 -3.34223 1.26609 0
M  V30 1455 C 141.336 -3.53846 2.77531 0
M  V30 1456 C 140.106 -3.68995 3.45212 0
M  V30 1457 C 142.304 -3.51201 3.75716 0
M  V30 1458 N 140.286 -3.76725 4.84718 0
M  V30 1459 C 141.657 -3.65112 5.01092 0
M  V30 1460 C 143.712 -3.34507 3.68794 0
M  V30 1461 C 142.415 -3.64056 6.20368 0
M  V30 1462 C 144.441 -3.34752 4.8754 0
M  V30 1463 C 143.803 -3.49199 6.11751 0
M  V30 1464 H 139.902 -0.698579 0.351443 0
M  V30 1465 H 142.486 -1.37713 1.37634 0
M  V30 1466 H 140.657 -3.81402 0.73395 0
M  V30 1467 H 142.389 -3.93377 0.95062 0
M  V30 1468 H 139.144 -3.70006 2.95622 0
M  V30 1469 H 139.568 -3.8432 5.5734 0
M  V30 1470 H 144.21 -3.22253 2.73702 0
M  V30 1471 H 141.928 -3.75087 7.15776 0
M  V30 1472 H 145.514 -3.23055 4.83866 0
M  V30 1473 H 144.394 -3.49328 7.02097 0
M  V30 1474 N 141.898 -0.863906 -1.31812 0
M  V30 1475 C 143.138 -0.47825 -1.98726 0
M  V30 1476 C 143.502 0.950397 -1.66828 0
M  V30 1477 O 144.703 1.44109 -2.26905 0
M  V30 1478 C 142.974 -0.721134 -3.50049 0
M  V30 1479 S 144.533 -0.434432 -4.36644 0
M  V30 1480 H 141.351 -0.178773 -0.688158 0
M  V30 1481 H 143.953 -1.11862 -1.60334 0
M  V30 1482 H 142.657 -1.75981 -3.70755 0
M  V30 1483 H 142.188 -0.0675315 -3.93342 0
M  V30 1484 H 144.203 0.735786 -4.90714 0
M  V30 1485 N 143.376 1.44774 -0.622745 0
M  V30 1486 C 144.622 2.0242 -0.124083 0
M  V30 1487 C 144.955 1.4881 1.24777 0
M  V30 1488 O 144.23 0.668799 1.8264 0
M  V30 1489 C 144.513 3.59957 -0.101619 0
M  V30 1490 C 144.366 4.23867 -1.50521 0
M  V30 1491 C 145.685 4.36284 0.578272 0
M  V30 1492 H 142.804 0.735528 -0.0465645 0
M  V30 1493 H 145.446 1.72447 -0.797617 0
M  V30 1494 H 143.596 3.85623 0.471934 0
M  V30 1495 H 145.268 4.09336 -2.12701 0
M  V30 1496 H 143.511 3.81684 -2.06154 0
M  V30 1497 H 144.182 5.32843 -1.4416 0
M  V30 1498 H 146.658 4.16001 0.0906057 0
M  V30 1499 H 145.534 5.46004 0.563149 0
M  V30 1500 H 145.795 4.10271 1.64713 0
M  V30 1501 N 144.854 0.36279 1.53368 0
M  V30 1502 C 146.1 -0.228113 2.01513 0
M  V30 1503 C 146.433 -1.48648 1.2497 0
M  V30 1504 O 145.708 -1.91459 0.342616 0
M  V30 1505 C 145.991 -0.522884 3.56284 0
M  V30 1506 C 145.844 0.74892 4.43521 0
M  V30 1507 C 147.163 -1.32461 4.19693 0
M  V30 1508 H 144.282 -0.0814343 0.732487 0
M  V30 1509 H 146.924 0.48713 1.83649 0
M  V30 1510 H 145.074 -1.1322 3.71636 0
M  V30 1511 H 146.746 1.38648 4.39971 0
M  V30 1512 H 144.989 1.36986 4.11603 0
M  V30 1513 H 145.66 0.497667 5.49752 0
M  V30 1514 H 148.136 -0.809203 4.08156 0
M  V30 1515 H 147.012 -1.49961 5.28018 0
M  V30 1516 H 147.273 -2.33232 3.75573 0
M  V30 1517 N 146.332 -1.57332 0.0918853 0
M  V30 1518 C 147.282 -2.10385 -0.87876 0
M  V30 1519 C 148.266 -1.01814 -1.24591 0
M  V30 1520 O 149.458 -1.28093 -1.22152 0
M  V30 1521 C 146.587 -2.68517 -2.13901 0
M  V30 1522 C 145.673 -3.84126 -1.79744 0
M  V30 1523 N 146.064 -4.92288 -1.1613 0
M  V30 1524 C 144.362 -3.93801 -2.09373 0
M  V30 1525 C 145.063 -5.7295 -1.00513 0
M  V30 1526 N 144.039 -5.21876 -1.5214 0
M  V30 1527 H 147.841 -2.91395 -0.38293 0
M  V30 1528 H 145.355 -1.62017 -0.111423 0
M  V30 1529 H 147.352 -3.04852 -2.84378 0
M  V30 1530 H 146.012 -1.88961 -2.64053 0
M  V30 1531 H 147.023 -5.1123 -0.828504 0
M  V30 1532 H 143.7 -3.25249 -2.61762 0
M  V30 1533 H 145.09 -6.69978 -0.507902 0
M  V30 1534 N 147.81 0.181792 -1.56548 0
M  V30 1535 C 149.05 0.906711 -1.83189 0
M  V30 1536 C 149.414 1.79882 -0.671312 0
M  V30 1537 O 150.615 2.56054 -0.81792 0
M  V30 1538 C 148.886 1.69023 -3.14906 0
M  V30 1539 S 150.445 2.46535 -3.62996 0
M  V30 1540 H 147.263 0.303877 -0.642791 0
M  V30 1541 H 149.865 0.169107 -1.94767 0
M  V30 1542 H 148.569 1.02571 -3.97376 0
M  V30 1543 H 148.1 2.46941 -3.06241 0
M  V30 1544 H 150.115 3.71014 -3.29489 0
M  V30 1545 N 149.288 1.51039 0.449983 0
M  V30 1546 C 150.251 1.70863 1.5277 0
M  V30 1547 C 151.251 0.578846 1.5002 0
M  V30 1548 O 152.441 0.846213 1.52266 0
M  V30 1549 C 149.573 1.75341 2.9235 0
M  V30 1550 H 150.766 2.67034 1.36502 0
M  V30 1551 H 148.319 1.40838 0.677812 0
M  V30 1552 H 149.054 0.809383 3.14037 0
M  V30 1553 H 148.839 2.57436 2.95752 0
M  V30 1554 H 150.329 1.92559 3.70555 0
M  V30 1555 N 150.766 -0.704594 1.40972 0
M  V30 1556 C 152.012 -1.46546 1.41053 0
M  V30 1557 C 152.367 -1.92393 0.0159714 0
M  V30 1558 O 151.66 -1.66017 -0.956506 0
M  V30 1559 C 151.854 -2.698 2.34399 0
M  V30 1560 C 151.683 -2.36008 3.82793 0
M  V30 1561 C 150.453 -2.26812 4.51536 0
M  V30 1562 C 152.651 -1.99565 4.74003 0
M  V30 1563 N 150.633 -1.8581 5.85105 0
M  V30 1564 C 152.004 -1.69251 5.96451 0
M  V30 1565 C 154.059 -1.86296 4.61734 0
M  V30 1566 C 152.762 -1.27003 7.07999 0
M  V30 1567 C 154.788 -1.45452 5.73234 0
M  V30 1568 C 154.15 -1.16043 6.94776 0
M  V30 1569 H 150.249 -0.533896 0.571383 0
M  V30 1570 H 152.833 -0.816061 1.76773 0
M  V30 1571 H 151.004 -3.32473 2.00789 0
M  V30 1572 H 152.736 -3.36214 2.25261 0
M  V30 1573 H 149.491 -2.44913 4.05357 0
M  V30 1574 H 149.915 -1.67817 6.55871 0
M  V30 1575 H 154.557 -2.0769 3.68273 0
M  V30 1576 H 152.275 -1.04353 8.01334 0
M  V30 1577 H 155.861 -1.35748 5.65742 0
M  V30 1578 H 154.741 -0.84915 7.79589 0
M  V30 1579 N 152.244 -1.26651 -0.937939 0
M  V30 1580 C 153.176 -1.04283 -2.04102 0
M  V30 1581 C 154.189 -0.00221014 -1.628 0
M  V30 1582 O 155.378 -0.242645 -1.76843 0
M  V30 1583 C 152.478 -0.557846 -3.34277 0
M  V30 1584 C 151.651 -1.66843 -4.04329 0
M  V30 1585 C 150.71 -1.18095 -5.12777 0
M  V30 1586 O 149.736 -1.87865 -5.37304 0
M  V30 1587 N 150.938 -0.0311006 -5.80492 0
M  V30 1588 H 153.703 -1.9927 -2.23856 0
M  V30 1589 H 151.264 -1.1808 -1.10764 0
M  V30 1590 H 153.256 -0.215836 -4.04124 0
M  V30 1591 H 151.826 0.298523 -3.11171 0
M  V30 1592 H 151.046 -2.18123 -3.28353 0
M  V30 1593 H 152.334 -2.41408 -4.47883 0
M  V30 1594 H 151.732 0.551486 -5.63005 0
M  V30 1595 H 150.289 0.251809 -6.51313 0
M  V30 1596 N 153.722 1.14298 -1.08507 0
M  V30 1597 C 154.652 2.21542 -0.737646 0
M  V30 1598 C 155.633 1.67773 0.280377 0
M  V30 1599 O 156.818 1.93616 0.150521 0
M  V30 1600 C 153.948 3.46988 -0.147259 0
M  V30 1601 C 152.902 4.13789 -1.09374 0
M  V30 1602 C 152.228 5.33449 -0.365524 0
M  V30 1603 C 153.528 4.62208 -2.4323 0
M  V30 1604 H 155.222 2.5086 -1.6343 0
M  V30 1605 H 152.768 1.20576 -0.787243 0
M  V30 1606 H 154.721 4.21262 0.107808 0
M  V30 1607 H 153.445 3.17037 0.784538 0
M  V30 1608 H 152.104 3.4147 -1.33393 0
M  V30 1609 H 151.752 4.99759 0.57011 0
M  V30 1610 H 151.452 5.79088 -0.996512 0
M  V30 1611 H 152.976 6.10485 -0.118534 0
M  V30 1612 H 154.39 5.27952 -2.23472 0
M  V30 1613 H 152.787 5.18553 -3.02031 0
M  V30 1614 H 153.857 3.77224 -3.04681 0
M  V30 1615 N 155.201 0.870884 1.31352 0
M  V30 1616 C 156.111 0.330783 2.32256 0
M  V30 1617 C 157.127 -0.559767 1.6475 0
M  V30 1618 O 158.303 -0.456263 1.96164 0
M  V30 1619 C 155.368 -0.458137 3.4366 0
M  V30 1620 C 154.429 0.460482 4.26823 0
M  V30 1621 C 153.662 -0.290881 5.32907 0
M  V30 1622 O 153.885 -1.51885 5.49806 0
M  V30 1623 O 152.819 0.351732 6.00871 0
M  V30 1624 H 156.645 1.16718 2.80376 0
M  V30 1625 H 154.23 0.634285 1.35267 0
M  V30 1626 H 156.112 -0.905343 4.1156 0
M  V30 1627 H 154.787 -1.27106 2.97701 0
M  V30 1628 H 153.694 0.956207 3.61673 0
M  V30 1629 H 155.027 1.23903 4.7635 0
M  V30 1630 N 156.679 -1.44442 0.630414 0
M  V30 1631 C 157.642 -2.29107 -0.0652523 0
M  V30 1632 C 158.642 -1.41002 -0.772995 0
M  V30 1633 O 159.832 -1.62881 -0.617692 0
M  V30 1634 C 156.964 -3.22564 -1.10296 0
M  V30 1635 H 158.157 -2.92103 0.679401 0
M  V30 1636 H 155.71 -1.51343 0.390517 0
M  V30 1637 H 156.445 -2.64416 -1.87762 0
M  V30 1638 H 156.23 -3.87491 -0.59941 0
M  V30 1639 H 157.72 -3.86167 -1.5895 0
M  V30 1640 N 158.157 -0.370918 -1.53173 0
M  V30 1641 C 159.406 0.218249 -2.00516 0
M  V30 1642 C 159.719 1.49429 -1.26215 0
M  V30 1643 O 160.925 2.16239 -1.64174 0
M  V30 1644 C 159.381 0.43948 -3.57207 0
M  V30 1645 C 158.989 -0.822244 -4.4039 0
M  V30 1646 C 160.733 0.986012 -4.1289 0
M  V30 1647 C 158.64 -0.570304 -5.88644 0
M  V30 1648 H 157.57 0.0853333 -0.749156 0
M  V30 1649 H 160.221 -0.490483 -1.76823 0
M  V30 1650 H 158.603 1.20961 -3.77074 0
M  V30 1651 H 159.777 -1.59557 -4.32294 0
M  V30 1652 H 158.092 -1.29238 -3.95836 0
M  V30 1653 H 160.689 1.18991 -5.21292 0
M  V30 1654 H 161.032 1.94972 -3.6782 0
M  V30 1655 H 161.565 0.27592 -3.96842 0
M  V30 1656 H 158.304 -1.50449 -6.38001 0
M  V30 1657 H 157.824 0.164427 -5.99575 0
M  V30 1658 H 159.503 -0.19784 -6.46697 0
M  V30 1659 N 159.635 1.57281 -0.100228 0
M  V30 1660 C 160.545 2.17833 0.870965 0
M  V30 1661 C 161.561 1.14921 1.30649 0
M  V30 1662 O 162.737 1.47313 1.37335 0
M  V30 1663 C 159.802 2.75085 2.1102 0
M  V30 1664 C 158.863 3.9297 1.72838 0
M  V30 1665 C 158.096 4.47482 2.90854 0
M  V30 1666 O 158.319 4.00922 4.05731 0
M  V30 1667 O 157.253 5.38433 2.69023 0
M  V30 1668 H 161.079 3.0124 0.38575 0
M  V30 1669 H 158.664 1.48881 0.124397 0
M  V30 1670 H 160.546 3.11656 2.83634 0
M  V30 1671 H 159.221 1.94721 2.58584 0
M  V30 1672 H 158.128 3.61201 0.973883 0
M  V30 1673 H 159.461 4.74713 1.30033 0
M  V30 1674 N 161.113 -0.173488 1.56642 0
M  V30 1675 C 162.529 -0.525174 1.50712 0
M  V30 1676 C 162.729 -1.8476 0.804107 0
M  V30 1677 O 161.785 -2.49869 0.363574 0
M  V30 1678 C 163.098 -0.559937 2.95441 0
M  V30 1679 C 164.646 -0.647288 3.06234 0
M  V30 1680 C 165.121 -0.712963 4.52417 0
M  V30 1681 N 166.612 -0.775911 4.56655 0
M  V30 1682 C 167.347 -0.847264 5.67106 0
M  V30 1683 N 166.843 -0.879585 6.87194 0
M  V30 1684 N 168.636 -0.886117 5.55071 0
M  V30 1685 H 160.787 0.693681 2.00753 0
M  V30 1686 H 163.05 0.249841 0.914485 0
M  V30 1687 H 162.756 0.343049 3.50023 0
M  V30 1688 H 162.63 -1.40718 3.49969 0
M  V30 1689 H 165.017 -1.5407 2.51687 0
M  V30 1690 H 165.098 0.226586 2.54794 0
M  V30 1691 H 164.742 0.176183 5.07594 0
M  V30 1692 H 164.672 -1.60295 5.0161 0
M  V30 1693 H 167.163 -0.759304 3.70193 0
M  V30 1694 H 167.476 -0.935144 7.67121 0
M  V30 1695 H 165.821 -0.847898 6.89808 0
M  V30 1696 H 169.012 -0.857853 4.60172 0
M  V30 1697 H 169.185 -0.938263 6.41171 0
M  V30 1698 N 162.591 -1.51276 -0.441967 0
M  V30 1699 C 163.554 -1.7167 -1.51862 0
M  V30 1700 C 164.554 -0.586793 -1.49711 0
M  V30 1701 O 165.744 -0.854276 -1.51815 0
M  V30 1702 C 162.876 -1.76889 -2.91416 0
M  V30 1703 H 164.069 -2.67754 -1.35084 0
M  V30 1704 H 161.622 -1.41196 -0.670333 0
M  V30 1705 H 162.357 -0.826026 -3.13604 0
M  V30 1706 H 162.142 -2.59001 -2.94382 0
M  V30 1707 H 163.632 -1.94522 -3.69528 0
M  V30 1708 N 164.069 0.697108 -1.41344 0
M  V30 1709 C 165.294 1.49096 -1.44171 0
M  V30 1710 C 165.719 1.88038 -0.0481568 0
M  V30 1711 O 165.077 1.54525 0.948243 0
M  V30 1712 C 165.125 2.73088 -2.3549 0
M  V30 1713 O 164.229 3.70514 -1.81088 0
M  V30 1714 H 163.57 0.448801 -0.489361 0
M  V30 1715 H 166.1 0.856992 -1.85787 0
M  V30 1716 H 166.11 3.21413 -2.51312 0
M  V30 1717 H 164.785 2.44081 -3.36745 0
M  V30 1718 H 163.362 3.29441 -1.74708 0
M  V30 1719 N 165.547 1.27147 0.931209 0
M  V30 1720 C 166.477 1.12081 2.04842 0
M  V30 1721 C 167.458 0.0232364 1.70084 0
M  V30 1722 O 168.643 0.197085 1.93197 0
M  V30 1723 C 165.773 0.76354 3.38803 0
M  V30 1724 C 164.727 1.81396 3.87659 0
M  V30 1725 C 164.053 1.31075 5.18385 0
M  V30 1726 C 165.353 3.21739 4.11438 0
M  V30 1727 H 167.047 2.05537 2.17703 0
M  V30 1728 H 164.593 0.989603 1.04608 0
M  V30 1729 H 166.546 0.644982 4.16435 0
M  V30 1730 H 165.27 -0.206727 3.25945 0
M  V30 1731 H 163.929 1.92136 3.12217 0
M  V30 1732 H 163.577 0.330037 5.01916 0
M  V30 1733 H 163.277 2.013 5.52044 0
M  V30 1734 H 164.801 1.20506 5.98591 0
M  V30 1735 H 166.215 3.14019 4.79651 0
M  V30 1736 H 164.612 3.89644 4.56397 0
M  V30 1737 H 165.682 3.67054 3.16859 0
M  V30 1738 N 167.025 -1.13721 1.09112 0
M  V30 1739 C 167.988 -2.17222 0.731241 0
M  V30 1740 C 168.988 -1.59035 -0.237566 0
M  V30 1741 O 170.178 -1.74192 -0.0161704 0
M  V30 1742 C 167.31 -3.40804 0.0808443 0
M  V30 1743 H 168.503 -2.50573 1.64783 0
M  V30 1744 H 166.056 -1.28493 0.889897 0
M  V30 1745 H 166.791 -3.1304 -0.847127 0
M  V30 1746 H 166.576 -3.84306 0.777896 0
M  V30 1747 H 168.066 -4.1731 -0.155657 0
M  V30 1748 N 168.503 -0.877838 -1.30888 0
M  V30 1749 C 169.919 -0.570844 -1.49042 0
M  V30 1750 C 170.119 0.893159 -1.80624 0
M  V30 1751 O 169.175 1.67485 -1.88958 0
M  V30 1752 C 170.488 -1.47784 -2.61878 0
M  V30 1753 C 172.036 -1.48071 -2.75761 0
M  V30 1754 C 172.511 -2.37347 -3.91702 0
M  V30 1755 N 174.002 -2.35271 -3.99001 0
M  V30 1756 C 174.737 -3.01063 -4.88004 0
M  V30 1757 N 174.233 -3.76055 -5.81854 0
M  V30 1758 N 176.026 -2.90332 -4.81315 0
M  V30 1759 H 168.177 -1.82502 -1.0866 0
M  V30 1760 H 170.44 -0.780797 -0.537644 0
M  V30 1761 H 170.146 -2.51993 -2.45341 0
M  V30 1762 H 170.02 -1.18215 -3.58197 0
M  V30 1763 H 172.407 -0.446166 -2.91708 0
M  V30 1764 H 172.488 -1.81668 -1.80085 0
M  V30 1765 H 172.132 -3.40883 -3.76512 0
M  V30 1766 H 172.062 -2.01071 -4.86701 0
M  V30 1767 H 174.553 -1.80768 -3.3186 0
M  V30 1768 H 174.866 -4.23366 -6.46514 0
M  V30 1769 H 173.211 -3.80163 -5.81808 0
M  V30 1770 H 176.402 -2.31278 -4.06974 0
M  V30 1771 H 176.575 -3.41885 -5.50471 0
M  V30 1772 N 169.982 1.44106 -0.638065 0
M  V30 1773 C 171.393 1.85316 -0.226894 0
M  V30 1774 C 171.744 1.53399 1.22324 0
M  V30 1775 O 170.869 0.975463 1.93167 0
M  V30 1776 C 171.464 3.3637 -0.405013 0
M  V30 1777 C 170.023 3.76369 -0.0482902 0
M  V30 1778 C 169.17 2.67921 -0.715108 0
M  V30 1779 H 172.121 1.34474 -0.842764 0
M  V30 1780 H 172.142 3.7885 0.354 0
M  V30 1781 H 171.654 3.59569 -1.46053 0
M  V30 1782 H 169.755 3.58784 1.00522 0
M  V30 1783 H 169.868 4.76856 -0.463187 0
M  V30 1784 H 168.232 2.54259 -0.149753 0
M  V30 1785 H 169.015 2.93951 -1.77335 0
M  V30 1786 N 171.46 0.379036 1.52974 0
M  V30 1787 C 172.39 -0.452706 2.29069 0
M  V30 1788 C 173.371 -1.07237 1.32039 0
M  V30 1789 O 174.556 -1.08708 1.60923 0
M  V30 1790 C 171.686 -1.5856 3.08992 0
M  V30 1791 C 170.64 -1.0925 4.13822 0
M  V30 1792 C 169.966 -2.31668 4.81907 0
M  V30 1793 C 171.266 -0.167702 5.22031 0
M  V30 1794 H 172.96 0.182181 2.98845 0
M  V30 1795 H 170.506 0.0890592 1.43724 0
M  V30 1796 H 172.459 -2.1742 3.6098 0
M  V30 1797 H 171.183 -2.24792 2.36931 0
M  V30 1798 H 169.842 -0.526494 3.628 0
M  V30 1799 H 169.49 -2.96386 4.06404 0
M  V30 1800 H 169.19 -1.9934 5.52754 0
M  V30 1801 H 170.714 -2.91189 5.36695 0
M  V30 1802 H 172.128 -0.664186 5.6944 0
M  V30 1803 H 170.525 0.0653265 6.00064 0
M  V30 1804 H 171.595 0.786347 4.78482 0
M  V30 1805 N 172.938 -1.57226 0.108567 0
M  V30 1806 C 173.886 -2.16002 -0.862885 0
M  V30 1807 C 174.88 -1.10644 -1.28274 0
M  V30 1808 O 176.086 -1.28966 -1.2557 0
M  V30 1809 H 172.461 -0.691148 -0.296342 0
M  V30 1810 H 174.432 -2.96427 -0.342575 0
M  V30 1811 C 173.181 -2.76576 -2.10716 0
M  V30 1812 H 172.504 -3.5734 -1.793 0
M  V30 1813 H 173.944 -3.21253 -2.76717 0
M  V30 1814 C 172.403 -1.73137 -2.89007 0
M  V30 1815 O 172.933 -1.17842 -3.84026 0
M  V30 1816 N 171.139 -1.43317 -2.52801 0
M  V30 1817 H 170.686 -1.88473 -1.75601 0
M  V30 1818 H 170.644 -0.743485 -3.05483 0
M  V30 1819 N 174.416 0.165178 -1.56732 0
M  V30 1820 C 175.662 0.882112 -1.82611 0
M  V30 1821 C 175.995 1.81628 -0.687378 0
M  V30 1822 O 175.27 1.92009 0.310267 0
M  V30 1823 C 175.553 1.67245 -3.18906 0
M  V30 1824 C 175.406 0.760987 -4.43316 0
M  V30 1825 C 176.725 2.63884 -3.52212 0
M  V30 1826 H 173.844 0.319242 -0.664269 0
M  V30 1827 H 176.486 0.148052 -1.89422 0
M  V30 1828 H 174.636 2.29824 -3.1323 0
M  V30 1829 H 176.308 0.147596 -4.61064 0
M  V30 1830 H 174.551 0.0694102 -4.33744 0
M  V30 1831 H 175.222 1.34962 -5.35247 0
M  V30 1832 H 177.698 2.11429 -3.58381 0
M  V30 1833 H 176.574 3.16245 -4.48643 0
M  V30 1834 H 176.835 3.44377 -2.77231 0
M  V30 1835 N 175.894 1.51508 0.433938 0
M  V30 1836 C 177.14 1.65549 1.18173 0
M  V30 1837 C 177.495 0.368751 1.88833 0
M  V30 1838 O 176.788 -0.635616 1.8075 0
M  V30 1839 C 176.982 2.79928 2.22205 0
M  V30 1840 C 176.811 4.19601 1.61756 0
M  V30 1841 C 175.581 4.85489 1.40101 0
M  V30 1842 C 177.779 5.02574 1.09194 0
M  V30 1843 N 175.761 6.09266 0.752859 0
M  V30 1844 C 177.132 6.17381 0.569255 0
M  V30 1845 C 179.187 4.88079 0.984025 0
M  V30 1846 C 177.89 7.19282 -0.0507472 0
M  V30 1847 C 179.916 5.90191 0.377912 0
M  V30 1848 C 179.278 7.04272 -0.134216 0
M  V30 1849 H 175.377 0.659653 0.419979 0
M  V30 1850 H 177.961 1.88746 0.477818 0
M  V30 1851 H 176.132 2.5839 2.89982 0
M  V30 1852 H 177.864 2.83132 2.89168 0
M  V30 1853 H 174.619 4.43417 1.66369 0
M  V30 1854 H 175.043 6.75528 0.446123 0
M  V30 1855 H 179.685 4.00131 1.36583 0
M  V30 1856 H 177.403 8.06876 -0.444676 0
M  V30 1857 H 180.989 5.81045 0.296269 0
M  V30 1858 H 179.869 7.81933 -0.59585 0
M  V30 1859 N 177.372 -0.689602 1.41712 0
M  V30 1860 C 178.302 -1.81577 1.46806 0
M  V30 1861 C 179.283 -1.66945 0.326105 0
M  V30 1862 O 180.468 -1.86588 0.538377 0
M  V30 1863 C 177.598 -3.19762 1.35535 0
M  V30 1864 C 176.552 -3.49107 2.47605 0
M  V30 1865 C 175.878 -4.86711 2.21397 0
M  V30 1866 C 177.178 -3.47483 3.89939 0
M  V30 1867 H 178.872 -1.7757 2.41058 0
M  V30 1868 H 176.418 -0.852887 1.16025 0
M  V30 1869 H 178.371 -3.98263 1.3771 0
M  V30 1870 H 177.095 -3.24409 0.377708 0
M  V30 1871 H 175.754 -2.72959 2.44722 0
M  V30 1872 H 175.402 -4.8799 1.21961 0
M  V30 1873 H 175.102 -5.0731 2.96497 0
M  V30 1874 H 176.626 -5.67515 2.25297 0
M  V30 1875 H 178.04 -4.1598 3.94505 0
M  V30 1876 H 176.437 -3.79615 4.64771 0
M  V30 1877 H 177.507 -2.46341 4.17665 0
M  V30 1878 N 178.85 -1.27639 -0.924453 0
M  V30 1879 C 179.797 -1.10644 -2.0255 0
M  V30 1880 C 180.767 -0.00658438 -1.66099 0
M  V30 1881 O 181.952 -0.16952 -1.90045 0
M  V30 1882 C 179.092 -0.76309 -3.36557 0
M  V30 1883 C 178.205 -1.94091 -3.85944 0
M  V30 1884 C 177.34 -1.53914 -5.08413 0
M  V30 1885 C 176.379 -2.68425 -5.50104 0
M  V30 1886 N 175.516 -2.28815 -6.63768 0
M  V30 1887 H 180.356 -2.04858 -2.16419 0
M  V30 1888 H 177.893 -1.01974 -1.06017 0
M  V30 1889 H 179.851 -0.544822 -4.13627 0
M  V30 1890 H 178.481 0.142102 -3.22487 0
M  V30 1891 H 177.533 -2.27162 -3.05125 0
M  V30 1892 H 178.845 -2.7998 -4.12811 0
M  V30 1893 H 177.999 -1.28231 -5.92994 0
M  V30 1894 H 176.738 -0.651391 -4.8333 0
M  V30 1895 H 175.743 -2.94819 -4.64071 0
M  V30 1896 H 176.968 -3.57826 -5.7718 0
M  V30 1897 H 174.914 -1.42495 -6.40337 0
M  V30 1898 H 174.831 -3.08242 -6.90306 0
M  V30 1899 H 176.099 -2.06387 -7.51681 0
M  V30 1900 N 180.328 1.1314 -1.09713 0
M  V30 1901 C 181.261 2.17735 -0.683137 0
M  V30 1902 C 182.239 1.59582 0.311841 0
M  V30 1903 O 183.423 1.87298 0.212514 0
M  V30 1904 C 180.55 3.38699 -0.00684324 0
M  V30 1905 C 179.596 4.1546 -0.964102 0
M  V30 1906 S 180.429 4.74733 -2.47767 0
M  V30 1907 C 181.585 5.9904 -1.81387 0
M  V30 1908 H 181.818 2.52515 -1.56918 0
M  V30 1909 H 179.351 1.24484 -0.913404 0
M  V30 1910 H 181.309 4.08765 0.377044 0
M  V30 1911 H 179.97 3.02214 0.85589 0
M  V30 1912 H 179.163 5.02093 -0.43803 0
M  V30 1913 H 178.765 3.51066 -1.28953 0
M  V30 1914 H 181.057 6.67846 -1.13967 0
M  V30 1915 H 182 6.56261 -2.65947 0
M  V30 1916 H 182.408 5.4976 -1.28155 0
M  V30 1917 N 181.806 0.884767 1.30421 0
M  V30 1918 C 183.083 0.423185 1.90967 0
M  V30 1919 C 183.463 -1.09605 1.80416 0
M  V30 1920 O 182.811 -1.93126 1.22125 0
M  V30 1921 C 183.021 0.921056 3.36627 0
M  V30 1922 C 184.369 0.955903 4.137 0
M  V30 1923 O 185.393 0.867706 3.4547 0
M  V30 1924 O 184.252 1.08614 5.35598 0
M  V30 1925 H 181.346 0.129369 0.816819 0
M  V30 1926 H 183.892 0.973653 1.3899 0
M  V30 1927 H 182.664 1.96489 3.3839 0
M  V30 1928 H 182.287 0.349741 3.96059 0
M  V30 1929 N 183.284 -1.43765 0.645699 0
M  V30 1930 C 184.509 -2.06767 0.161883 0
M  V30 1931 C 184.934 -1.48034 -1.16049 0
M  V30 1932 O 184.292 -0.587369 -1.71522 0
M  V30 1933 C 184.34 -3.60519 0.0762003 0
M  V30 1934 O 183.444 -4.00982 -0.963721 0
M  V30 1935 H 182.785 -0.657675 0.091429 0
M  V30 1936 H 185.315 -1.84397 0.886499 0
M  V30 1937 H 185.325 -4.07853 -0.109604 0
M  V30 1938 H 184 -4.02646 1.04157 0
M  V30 1939 H 182.577 -3.65253 -0.751312 0
M  V30 1940 N 184.763 -0.387143 -1.52771 0
M  V30 1941 C 186.011 0.195349 -2.01154 0
M  V30 1942 C 186.332 1.475 -1.27549 0
M  V30 1943 O 185.602 1.91878 -0.394924 0
M  V30 1944 H 184.182 0.075178 -0.743207 0
M  V30 1945 H 186.844 -0.518337 -1.87881 0
M  V30 1946 H 185.94 0.407096 -3.09434 0
M  V30 1947 N 186.241 1.57166 -0.116904 0
M  V30 1948 C 187.174 2.10912 0.871291 0
M  V30 1949 C 188.152 1.025 1.26224 0
M  V30 1950 O 189.336 1.3014 1.36366 0
M  V30 1951 C 186.463 2.6041 2.16574 0
M  V30 1952 C 185.509 3.80687 1.92302 0
M  V30 1953 S 186.342 5.23199 1.14119 0
M  V30 1954 C 187.498 5.76064 2.44748 0
M  V30 1955 H 187.731 2.94401 0.414138 0
M  V30 1956 H 185.264 1.54096 0.096829 0
M  V30 1957 H 187.222 2.89583 2.9095 0
M  V30 1958 H 185.883 1.77106 2.59408 0
M  V30 1959 H 185.076 4.13462 2.8821 0
M  V30 1960 H 184.678 3.5212 1.26047 0
M  V30 1961 H 186.97 5.8566 3.406 0
M  V30 1962 H 187.913 6.74184 2.16521 0
M  V30 1963 H 188.321 5.04117 2.54019 0
M  V30 1964 N 187.719 -0.156864 1.56817 0
M  V30 1965 C 188.669 -1.19891 1.93934 0
M  V30 1966 C 189.653 -1.39061 0.809372 0
M  V30 1967 O 190.845 -1.40789 1.07273 0
M  V30 1968 C 187.974 -2.53493 2.31508 0
M  V30 1969 C 187.06 -2.37957 3.51052 0
M  V30 1970 N 187.451 -1.92158 4.67877 0
M  V30 1971 C 185.749 -2.68739 3.55943 0
M  V30 1972 C 186.45 -1.8943 5.49992 0
M  V30 1973 N 185.426 -2.32375 4.91429 0
M  V30 1974 H 189.228 -0.836746 2.81737 0
M  V30 1975 H 186.742 -0.365012 1.58245 0
M  V30 1976 H 188.739 -3.28811 2.56299 0
M  V30 1977 H 187.399 -2.905 1.45051 0
M  V30 1978 H 188.41 -1.62274 4.91821 0
M  V30 1979 H 185.087 -3.09687 2.80001 0
M  V30 1980 H 186.477 -1.55596 6.53636 0
M  V30 1981 N 189.197 -1.51736 -0.425897 0
M  V30 1982 C 190.613 -1.40166 -0.76326 0
M  V30 1983 C 190.813 -0.492962 -1.95377 0
M  V30 1984 O 189.869 0.0475815 -2.52455 0
M  V30 1985 C 191.182 -2.82403 -1.03291 0
M  V30 1986 C 192.73 -2.91632 -1.13665 0
M  V30 1987 C 193.205 -4.34801 -1.43916 0
M  V30 1988 N 194.696 -4.3796 -1.50816 0
M  V30 1989 C 195.431 -5.4578 -1.75817 0
M  V30 1990 N 194.927 -6.63744 -1.98534 0
M  V30 1991 N 196.72 -5.33274 -1.77694 0
M  V30 1992 H 188.871 -2.09361 0.358 0
M  V30 1993 H 191.134 -0.942941 0.0978094 0
M  V30 1994 H 190.84 -3.50943 -0.230696 0
M  V30 1995 H 190.714 -3.22428 -1.95754 0
M  V30 1996 H 193.101 -2.23284 -1.92947 0
M  V30 1997 H 193.182 -2.55088 -0.190756 0
M  V30 1998 H 192.826 -5.03703 -0.65157 0
M  V30 1999 H 192.756 -4.68868 -2.39729 0
M  V30 2000 H 195.247 -3.52919 -1.35118 0
M  V30 2001 H 195.56 -7.41704 -2.17013 0
M  V30 2002 H 193.905 -6.66839 -1.95832 0
M  V30 2003 H 197.096 -4.40098 -1.59473 0
M  V30 2004 H 197.269 -6.1738 -1.9684 0
M  V30 2005 N 190.675 0.682077 -1.42076 0
M  V30 2006 C 191.921 1.44428 -1.42367 0
M  V30 2007 C 192.254 1.94164 -0.0373056 0
M  V30 2008 O 191.529 1.70429 0.937239 0
M  V30 2009 C 191.812 2.64654 -2.44194 0
M  V30 2010 C 191.665 2.20596 -3.91991 0
M  V30 2011 C 192.984 3.66865 -2.431 0
M  V30 2012 H 190.103 0.523834 -0.518428 0
M  V30 2013 H 192.745 0.77576 -1.73442 0
M  V30 2014 H 190.895 3.2169 -2.17826 0
M  V30 2015 H 192.567 1.68783 -4.29313 0
M  V30 2016 H 190.81 1.52242 -4.06208 0
M  V30 2017 H 191.481 3.06921 -4.58807 0
M  V30 2018 H 193.957 3.19531 -2.66532 0
M  V30 2019 H 192.833 4.48577 -3.16339 0
M  V30 2020 H 193.094 4.17493 -1.45437 0
M  V30 2021 N 192.153 1.28127 0.917671 0
M  V30 2022 C 193.401 1.14825 1.66312 0
M  V30 2023 C 193.722 -0.304379 1.9261 0
M  V30 2024 O 192.992 -1.21149 1.53947 0
M  V30 2025 H 191.572 0.421953 0.616413 0
M  V30 2026 H 194.234 1.608 1.10134 0
M  V30 2027 H 193.33 1.68489 2.62712 0
M  V30 2028 N 193.631 -1.12557 1.10312 0
M  V30 2029 C 194.878 -1.84038 0.844759 0
M  V30 2030 C 195.206 -1.84026 -0.629668 0
M  V30 2031 O 194.461 -1.28026 -1.48013 0
M  V30 2032 C 194.76 -3.31462 1.33669 0
M  V30 2033 C 194.426 -3.51647 2.82232 0
M  V30 2034 C 193.088 -3.56864 3.22802 0
M  V30 2035 C 195.44 -3.58867 3.77974 0
M  V30 2036 C 192.768 -3.66844 4.57867 0
M  V30 2037 C 195.12 -3.70375 5.1284 0
M  V30 2038 C 193.784 -3.73848 5.52986 0
M  V30 2039 H 193.054 -0.673444 0.309119 0
M  V30 2040 H 195.701 -1.32824 1.37949 0
M  V30 2041 H 194.006 -3.85091 0.721949 0
M  V30 2042 H 195.703 -3.85236 1.11329 0
M  V30 2043 H 192.293 -3.48249 2.49842 0
M  V30 2044 H 196.477 -3.54107 3.47738 0
M  V30 2045 H 191.733 -3.67804 4.88396 0
M  V30 2046 H 195.907 -3.74904 5.86873 0
M  V30 2047 H 193.534 -3.81333 6.57639 0
M  V30 2048 N 195.109 -0.891671 -1.2995 0
M  V30 2049 C 196.356 -0.513501 -1.95881 0
M  V30 2050 C 196.684 0.938655 -1.70351 0
M  V30 2051 O 195.939 1.67936 -1.00478 0
M  V30 2052 C 196.238 -0.742868 -3.49594 0
M  V30 2053 C 195.904 -2.17114 -3.95186 0
M  V30 2054 C 194.566 -2.56169 -4.07346 0
M  V30 2055 C 196.918 -3.10162 -4.18866 0
M  V30 2056 C 194.246 -3.87469 -4.4055 0
M  V30 2057 C 196.598 -4.41001 -4.53542 0
M  V30 2058 C 195.262 -4.79941 -4.63911 0
M  V30 2059 H 194.532 -0.187903 -0.71678 0
M  V30 2060 H 197.179 -1.1288 -1.54694 0
M  V30 2061 H 195.484 -0.044586 -3.91775 0
M  V30 2062 H 197.181 -0.429767 -3.9869 0
M  V30 2063 H 193.771 -1.85801 -3.86233 0
M  V30 2064 H 197.955 -2.81206 -4.08946 0
M  V30 2065 H 193.211 -4.17371 -4.46779 0
M  V30 2066 H 197.385 -5.13133 -4.70815 0
M  V30 2067 H 195.012 -5.81719 -4.89395 0
M  V30 2068 N 196.587 1.43421 -0.653314 0
M  V30 2069 C 197.998 1.85065 -0.246537 0
M  V30 2070 C 198.349 1.54688 1.2069 0
M  V30 2071 O 197.474 0.995896 1.92122 0
M  V30 2072 C 198.069 3.35922 -0.440666 0
M  V30 2073 C 196.628 3.76297 -0.0882064 0
M  V30 2074 C 195.775 2.67147 -0.743484 0
M  V30 2075 H 198.726 1.33572 -0.856979 0
M  V30 2076 H 198.747 3.79204 0.313798 0
M  V30 2077 H 198.259 3.58 -1.49858 0
M  V30 2078 H 196.36 3.5983 0.96711 0
M  V30 2079 H 196.473 4.76338 -0.513738 0
M  V30 2080 H 194.837 2.54086 -0.176712 0
M  V30 2081 H 195.62 2.92053 -1.80443 0
M  V30 2082 N 198.065 0.39524 1.52563 0
M  V30 2083 C 198.975 -0.444232 2.30356 0
M  V30 2084 C 199.991 -1.06615 1.37511 0
M  V30 2085 O 201.167 -1.07067 1.70583 0
M  V30 2086 C 198.232 -1.55315 3.09964 0
M  V30 2087 C 197.293 -0.955734 4.18526 0
M  V30 2088 C 196.526 -2.01181 4.9433 0
M  V30 2089 O 196.749 -3.22781 4.70285 0
M  V30 2090 O 195.683 -1.62579 5.79527 0
M  V30 2091 H 199.509 0.189667 3.03107 0
M  V30 2092 H 197.094 0.1588 1.48554 0
M  V30 2093 H 198.976 -2.19724 3.59582 0
M  V30 2094 H 197.651 -2.17191 2.4002 0
M  V30 2095 H 196.558 -0.274743 3.7309 0
M  V30 2096 H 197.891 -0.381109 4.90722 0
M  V30 2097 N 199.544 -1.57102 0.125237 0
M  V30 2098 C 200.821 -1.86953 -0.575142 0
M  V30 2099 C 201.201 -1.02749 -1.84407 0
M  V30 2100 O 200.549 -0.108144 -2.28244 0
M  V30 2101 C 200.759 -3.38198 -0.861583 0
M  V30 2102 C 202.107 -4.06937 -1.21192 0
M  V30 2103 O 203.131 -3.43252 -0.951645 0
M  V30 2104 O 201.99 -5.19364 -1.70068 0
M  V30 2105 H 199.084 -0.774147 -0.290906 0
M  V30 2106 H 201.63 -1.68942 0.160211 0
M  V30 2107 H 200.402 -3.91282 0.0373647 0
M  V30 2108 H 200.025 -3.61661 -1.65188 0
M  V30 2109 N 201.022 0.148545 -1.56898 0
M  V30 2110 C 202.269 0.861418 -1.83264 0
M  V30 2111 C 202.597 1.81239 -0.705883 0
M  V30 2112 O 201.852 1.93305 0.305212 0
M  V30 2113 C 202.151 1.67064 -3.1595 0
M  V30 2114 C 201.817 0.866591 -4.42494 0
M  V30 2115 C 200.479 0.644762 -4.76861 0
M  V30 2116 C 202.831 0.30418 -5.20312 0
M  V30 2117 C 200.159 -0.15021 -5.86508 0
M  V30 2118 C 202.511 -0.477824 -6.30793 0
M  V30 2119 C 201.175 -0.710244 -6.63711 0
M  V30 2120 H 200.445 0.315215 -0.670612 0
M  V30 2121 H 203.092 0.125142 -1.91091 0
M  V30 2122 H 201.397 2.47698 -3.03567 0
M  V30 2123 H 203.094 2.22566 -3.33565 0
M  V30 2124 H 199.684 1.04955 -4.15551 0
M  V30 2125 H 203.868 0.462844 -4.94137 0
M  V30 2126 H 199.124 -0.339796 -6.10455 0
M  V30 2127 H 203.298 -0.92076 -6.90286 0
M  V30 2128 H 200.925 -1.3281 -7.48509 0
M  V30 2129 N 202.5 1.5196 0.417844 0
M  V30 2130 C 203.725 1.69717 1.1921 0
M  V30 2131 C 204.15 0.402148 1.83751 0
M  V30 2132 O 203.508 -0.639593 1.69643 0
M  V30 2133 C 203.556 2.82794 2.2374 0
M  V30 2134 O 202.66 2.47756 3.29683 0
M  V30 2135 H 202.001 0.565263 0.348387 0
M  V30 2136 H 204.531 1.98621 0.490985 0
M  V30 2137 H 204.541 3.07452 2.68212 0
M  V30 2138 H 203.216 3.76756 1.76146 0
M  V30 2139 H 201.793 2.33739 2.90552 0
M  V30 2140 N 203.978 -0.674533 1.42435 0
M  V30 2141 C 204.941 -1.76986 1.45632 0
M  V30 2142 C 205.941 -1.5708 0.343871 0
M  V30 2143 O 207.131 -1.63367 0.604709 0
M  V30 2144 C 204.263 -3.15623 1.28822 0
M  V30 2145 H 205.456 -1.75539 2.43158 0
M  V30 2146 H 203.009 -0.884189 1.28887 0
M  V30 2147 H 203.744 -3.22696 0.322193 0
M  V30 2148 H 203.529 -3.31475 2.09444 0
M  V30 2149 H 205.019 -3.95537 1.33942 0
M  V30 2150 N 205.456 -1.28612 -0.910864 0
M  V30 2151 C 206.419 -1.12803 -1.9952 0
M  V30 2152 C 207.419 -0.0668264 -1.60661 0
M  V30 2153 O 208.609 -0.312847 -1.71368 0
M  V30 2154 C 205.741 -0.72254 -3.33155 0
M  V30 2155 H 206.934 -2.09109 -2.14973 0
M  V30 2156 H 204.487 -1.11639 -1.09391 0
M  V30 2157 H 205.222 0.241152 -3.23402 0
M  V30 2158 H 205.007 -1.48916 -3.62721 0
M  V30 2159 H 206.497 -0.634666 -4.12749 0
M  V30 2160 N 206.934 1.1197 -1.10907 0
M  V30 2161 C 207.884 2.15946 -0.731538 0
M  V30 2162 C 208.868 1.58758 0.261699 0
M  V30 2163 O 210.06 1.76863 0.0696722 0
M  V30 2164 C 207.189 3.42877 -0.170299 0
M  V30 2165 C 206.275 4.07037 -1.19087 0
M  V30 2166 N 206.666 4.46135 -2.38322 0
M  V30 2167 C 204.964 4.33884 -1.03252 0
M  V30 2168 C 205.665 4.96331 -3.03366 0
M  V30 2169 N 204.641 4.9214 -2.30865 0
M  V30 2170 H 208.443 2.43947 -1.63912 0
M  V30 2171 H 205.957 1.28927 -0.987505 0
M  V30 2172 H 207.954 4.16732 0.118271 0
M  V30 2173 H 206.614 3.16343 0.731935 0
M  V30 2174 H 207.625 4.38345 -2.75815 0
M  V30 2175 H 204.302 4.17084 -0.186256 0
M  V30 2176 H 205.692 5.36257 -4.04818 0
M  V30 2177 N 208.412 0.89855 1.29475 0
M  V30 2178 C 209.322 0.379974 2.31502 0
M  V30 2179 C 210.338 -0.524695 1.659 0
M  V30 2180 O 211.514 -0.414551 1.97087 0
M  V30 2181 C 208.579 -0.385138 3.44554 0
M  V30 2182 C 207.64 0.550914 4.2575 0
M  V30 2183 C 206.873 -0.177778 5.33404 0
M  V30 2184 O 207.096 -1.40189 5.52904 0
M  V30 2185 O 206.03 0.479106 5.9999 0
M  V30 2186 H 209.856 1.22639 2.77837 0
M  V30 2187 H 207.441 0.662834 1.33891 0
M  V30 2188 H 209.323 -0.817841 4.13388 0
M  V30 2189 H 207.998 -1.20763 3.0033 0
M  V30 2190 H 206.905 1.03271 3.59564 0
M  V30 2191 H 208.238 1.33979 4.73614 0
M  V30 2192 N 209.89 -1.43072 0.660911 0
M  V30 2193 C 211.306 -1.56169 0.329173 0
M  V30 2194 C 211.506 -1.64317 -1.16629 0
M  V30 2195 O 210.562 -1.60245 -1.95135 0
M  V30 2196 C 211.875 -2.81873 1.04729 0
M  V30 2197 C 213.423 -2.95627 1.02828 0
M  V30 2198 C 213.898 -4.24174 1.72744 0
M  V30 2199 N 215.389 -4.31055 1.69545 0
M  V30 2200 C 216.124 -5.29304 2.20511 0
M  V30 2201 N 215.62 -6.33786 2.79799 0
M  V30 2202 N 217.413 -5.21008 2.10966 0
M  V30 2203 H 209.564 -1.36027 1.63127 0
M  V30 2204 H 211.827 -0.653823 0.686454 0
M  V30 2205 H 211.533 -2.81942 2.10242 0
M  V30 2206 H 211.407 -3.72338 0.603702 0
M  V30 2207 H 213.794 -2.95094 -0.0184742 0
M  V30 2208 H 213.875 -2.06431 1.51063 0
M  V30 2209 H 213.519 -4.25467 2.7738 0
M  V30 2210 H 213.449 -5.1228 1.2197 0
M  V30 2211 H 215.94 -3.56174 1.26288 0
M  V30 2212 H 216.253 -7.05086 3.16344 0
M  V30 2213 H 214.598 -6.34387 2.83863 0
M  V30 2214 H 217.789 -4.38301 1.64347 0
M  V30 2215 H 217.962 -5.97416 2.50993 0
M  V30 2216 N 211.368 -0.403325 -1.52352 0
M  V30 2217 C 212.298 0.416205 -2.29761 0
M  V30 2218 C 213.279 1.05123 -1.33728 0
M  V30 2219 O 214.464 1.06134 -1.62632 0
M  V30 2220 C 211.594 1.53624 -3.11475 0
M  V30 2221 C 210.548 1.02653 -4.15507 0
M  V30 2222 C 209.874 2.23971 -4.85532 0
M  V30 2223 C 211.174 0.08463 -5.22231 0
M  V30 2224 H 212.868 -0.229701 -2.98518 0
M  V30 2225 H 210.414 -0.111913 -1.43564 0
M  V30 2226 H 212.367 2.1165 -3.64393 0
M  V30 2227 H 211.091 2.20994 -2.40477 0
M  V30 2228 H 209.75 0.46871 -3.63591 0
M  V30 2229 H 209.398 2.89883 -4.11068 0
M  V30 2230 H 209.098 1.90521 -5.55856 0
M  V30 2231 H 210.622 2.82614 -5.41259 0
M  V30 2232 H 212.036 0.573509 -5.70424 0
M  V30 2233 H 210.433 -0.160783 -5.99885 0
M  V30 2234 H 211.503 -0.86237 -4.7717 0
M  V30 2235 N 212.846 1.57033 -0.133567 0
M  V30 2236 C 214.262 1.58035 0.222944 0
M  V30 2237 C 214.462 1.14713 1.6566 0
M  V30 2238 O 213.518 0.841218 2.38075 0
M  V30 2239 C 214.831 3.00691 -0.0236116 0
M  V30 2240 C 216.379 3.12973 0.0411512 0
M  V30 2241 C 216.854 4.57654 -0.177899 0
M  V30 2242 N 218.345 4.63033 -0.124365 0
M  V30 2243 C 219.08 5.72771 -0.268553 0
M  V30 2244 N 218.576 6.91206 -0.46972 0
M  V30 2245 N 220.369 5.61718 -0.2071 0
M  V30 2246 H 212.52 1.8349 -1.06981 0
M  V30 2247 H 214.783 0.848677 -0.422436 0
M  V30 2248 H 214.489 3.36726 -1.0153 0
M  V30 2249 H 214.363 3.70614 0.701808 0
M  V30 2250 H 216.75 2.76787 1.02338 0
M  V30 2251 H 216.831 2.45564 -0.716383 0
M  V30 2252 H 216.475 4.94542 -1.15717 0
M  V30 2253 H 216.405 5.23173 0.599797 0
M  V30 2254 H 218.896 3.7789 0.027011 0
M  V30 2255 H 219.209 7.70693 -0.570212 0
M  V30 2256 H 217.554 6.93156 -0.505876 0
M  V30 2257 H 220.745 4.68072 -0.0507986 0
M  V30 2258 H 220.918 6.47195 -0.322909 0
M  V30 2259 N 214.325 -0.140222 1.56975 0
M  V30 2260 C 215.288 -1.15689 1.97861 0
M  V30 2261 C 216.288 -1.3549 0.865974 0
M  V30 2262 O 217.478 -1.32367 1.13246 0
M  V30 2263 C 214.61 -2.51582 2.30042 0
M  V30 2264 H 215.803 -0.805971 2.88867 0
M  V30 2265 H 213.356 -0.383801 1.51515 0
M  V30 2266 H 214.091 -2.91632 1.41849 0
M  V30 2267 H 213.876 -2.38569 3.11171 0
M  V30 2268 H 215.366 -3.24792 2.62488 0
M  V30 2269 N 215.803 -1.52179 -0.40978 0
M  V30 2270 C 217.028 -1.70347 -1.18308 0
M  V30 2271 C 217.453 -0.411887 -1.83535 0
M  V30 2272 O 216.811 0.630587 -1.6998 0
M  V30 2273 C 216.859 -2.83977 -2.22238 0
M  V30 2274 O 215.963 -2.495 -3.28365 0
M  V30 2275 H 215.304 -0.567103 -0.345384 0
M  V30 2276 H 217.834 -1.98879 -0.480445 0
M  V30 2277 H 217.844 -3.0887 -2.66577 0
M  V30 2278 H 216.519 -3.77685 -1.74146 0
M  V30 2279 H 215.096 -2.35277 -2.89308 0
M  V30 2280 N 217.281 0.66697 -1.42791 0
M  V30 2281 C 218.529 1.42417 -1.43394 0
M  V30 2282 C 218.85 1.94925 -0.0542373 0
M  V30 2283 O 218.12 1.73564 0.908415 0
M  V30 2284 H 216.7 0.528515 -0.527902 0
M  V30 2285 H 219.362 0.787562 -1.78279 0
M  V30 2286 H 218.458 2.27333 -2.13837 0
M  V30 2287 N 218.759 1.29093 0.90403 0
M  V30 2288 C 219.706 1.13853 2.00764 0
M  V30 2289 C 220.676 0.0330084 1.66067 0
M  V30 2290 O 221.861 0.199733 1.89752 0
M  V30 2291 C 219.001 0.816537 3.35301 0
M  V30 2292 C 218.114 2.00206 3.82807 0
M  V30 2293 C 217.249 1.61983 5.059 0
M  V30 2294 C 216.288 2.77143 5.45764 0
M  V30 2295 N 215.425 2.39346 6.60044 0
M  V30 2296 H 220.265 2.08276 2.13132 0
M  V30 2297 H 217.802 1.03648 1.04381 0
M  V30 2298 H 219.76 0.610557 4.12708 0
M  V30 2299 H 218.39 -0.090779 3.22672 0
M  V30 2300 H 217.442 2.31988 3.01473 0
M  V30 2301 H 218.754 2.86512 4.08304 0
M  V30 2302 H 217.908 1.37649 5.90879 0
M  V30 2303 H 216.647 0.728202 4.82233 0
M  V30 2304 H 215.652 3.02165 4.59322 0
M  V30 2305 H 216.877 3.66964 5.71414 0
M  V30 2306 H 214.823 1.52665 6.37989 0
M  V30 2307 H 214.74 3.19185 6.85315 0
M  V30 2308 H 216.008 2.1832 7.48303 0
M  V30 2309 N 220.237 -1.11381 1.11499 0
M  V30 2310 C 221.483 -1.83403 0.865512 0
M  V30 2311 C 221.816 -1.84459 -0.607329 0
M  V30 2312 O 221.091 -1.29811 -1.44842 0
M  V30 2313 C 221.374 -3.30552 1.42855 0
M  V30 2314 C 221.227 -3.37886 2.96906 0
M  V30 2315 C 222.546 -4.26643 1.08 0
M  V30 2316 H 219.665 -0.665879 0.31587 0
M  V30 2317 H 222.307 -1.30601 1.37998 0
M  V30 2318 H 220.457 -3.75648 0.990985 0
M  V30 2319 H 222.129 -3.01343 3.49271 0
M  V30 2320 H 220.372 -2.78088 3.32941 0
M  V30 2321 H 221.043 -4.41458 3.31389 0
M  V30 2322 H 223.519 -3.89729 1.45775 0
M  V30 2323 H 222.395 -5.27986 1.50072 0
M  V30 2324 H 222.656 -4.42099 -0.00915037 0
M  V30 2325 N 221.715 -0.905404 -1.28997 0
M  V30 2326 C 222.678 -0.392253 -2.25819 0
M  V30 2327 C 223.678 0.476753 -1.5357 0
M  V30 2328 O 224.868 0.280994 -1.71919 0
M  V30 2329 C 222 0.438588 -3.38067 0
M  V30 2330 H 223.193 -1.24743 -2.72725 0
M  V30 2331 H 220.746 -0.684051 -1.40536 0
M  V30 2332 H 221.481 1.31352 -2.96508 0
M  V30 2333 H 221.266 -0.184167 -3.91667 0
M  V30 2334 H 222.756 0.78873 -4.10084 0
M  V30 2335 N 223.193 1.4272 -0.668489 0
M  V30 2336 C 224.14 2.30796 0.0137489 0
M  V30 2337 C 225.11 1.4561 0.799177 0
M  V30 2338 O 226.295 1.74453 0.772702 0
M  V30 2339 C 223.435 3.31377 0.963507 0
M  V30 2340 C 222.548 4.31655 0.172569 0
M  V30 2341 C 221.683 5.19312 1.1175 0
M  V30 2342 C 220.722 6.11274 0.317886 0
M  V30 2343 N 219.859 6.91504 1.2152 0
M  V30 2344 H 224.699 2.88585 -0.743161 0
M  V30 2345 H 222.236 1.42154 -0.378226 0
M  V30 2346 H 224.194 3.88214 1.52792 0
M  V30 2347 H 222.824 2.75202 1.68712 0
M  V30 2348 H 221.876 3.76988 -0.508374 0
M  V30 2349 H 223.188 4.96779 -0.448527 0
M  V30 2350 H 222.342 5.80851 1.75206 0
M  V30 2351 H 221.081 4.5435 1.77249 0
M  V30 2352 H 220.086 5.48809 -0.329918 0
M  V30 2353 H 221.311 6.78283 -0.332917 0
M  V30 2354 H 219.257 6.29176 1.85671 0
M  V30 2355 H 219.174 7.53209 0.649036 0
M  V30 2356 H 220.442 7.57535 1.83742 0
M  V30 2357 N 224.671 0.411399 1.52136 0
M  V30 2358 C 225.92 -0.165009 2.01024 0
M  V30 2359 C 226.233 -1.4603 1.30133 0
M  V30 2360 O 227.439 -2.1181 1.69849 0
M  V30 2361 C 225.895 -0.344618 3.58246 0
M  V30 2362 C 225.503 0.938716 4.38055 0
M  V30 2363 C 227.247 -0.876195 4.15359 0
M  V30 2364 C 225.154 0.726172 5.86925 0
M  V30 2365 H 224.084 -0.0654407 0.751155 0
M  V30 2366 H 226.735 0.537192 1.75461 0
M  V30 2367 H 225.117 -1.10921 3.80148 0
M  V30 2368 H 226.291 1.70963 4.27912 0
M  V30 2369 H 224.606 1.39688 3.92271 0
M  V30 2370 H 227.203 -1.05128 5.24263 0
M  V30 2371 H 227.546 -1.85152 3.7286 0
M  V30 2372 H 228.079 -0.170607 3.97434 0
M  V30 2373 H 224.818 1.67312 6.33788 0
M  V30 2374 H 224.338 -0.00540283 5.998 0
M  V30 2375 H 226.017 0.369231 6.45946 0
M  V30 2376 N 226.149 -1.5696 0.141893 0
M  V30 2377 C 227.395 -1.9625 -0.511248 0
M  V30 2378 C 227.728 -1.02654 -1.64851 0
M  V30 2379 O 227.003 -0.0679676 -1.94381 0
M  V30 2380 C 227.286 -3.45285 -1.02227 0
M  V30 2381 C 227.139 -4.49658 0.113138 0
M  V30 2382 C 228.458 -3.96698 -1.90574 0
M  V30 2383 H 225.577 -0.713567 -0.184367 0
M  V30 2384 H 228.219 -1.88698 0.222087 0
M  V30 2385 H 226.369 -3.51852 -1.64719 0
M  V30 2386 H 228.041 -4.55174 0.749302 0
M  V30 2387 H 226.284 -4.26857 0.773026 0
M  V30 2388 H 226.955 -5.51258 -0.286053 0
M  V30 2389 H 229.431 -3.92578 -1.37918 0
M  V30 2390 H 228.307 -5.01453 -2.2324 0
M  V30 2391 H 228.568 -3.3875 -2.84079 0
M  V30 2392 N 227.627 0.131896 -1.57047 0
M  V30 2393 C 228.56 1.19236 -1.94571 0
M  V30 2394 C 229.538 1.40782 -0.813576 0
M  V30 2395 O 230.722 1.55148 -1.07058 0
M  V30 2396 C 227.849 2.54858 -2.23081 0
M  V30 2397 C 226.895 2.49817 -3.45679 0
M  V30 2398 S 227.728 1.95036 -4.98719 0
M  V30 2399 C 228.884 3.32357 -5.30367 0
M  V30 2400 H 229.117 0.872297 -2.84215 0
M  V30 2401 H 226.65 0.338134 -1.50652 0
M  V30 2402 H 228.608 3.32898 -2.40185 0
M  V30 2403 H 227.269 2.84047 -1.34074 0
M  V30 2404 H 226.462 3.49688 -3.62952 0
M  V30 2405 H 226.064 1.79892 -3.27895 0
M  V30 2406 H 228.356 4.28525 -5.2476 0
M  V30 2407 H 229.299 3.19923 -6.31708 0
M  V30 2408 H 229.707 3.3019 -4.57859 0
M  V30 2409 N 229.106 1.52395 0.401703 0
M  V30 2410 C 230.039 1.70999 1.51111 0
M  V30 2411 C 231.017 0.55765 1.52738 0
M  V30 2412 O 232.201 0.785912 1.71335 0
M  V30 2413 C 229.328 1.75607 2.8962 0
M  V30 2414 C 228.374 2.97227 3.05873 0
M  V30 2415 S 229.207 4.57439 2.78405 0
M  V30 2416 C 230.363 4.64844 4.19131 0
M  V30 2417 H 230.596 2.6483 1.35102 0
M  V30 2418 H 228.129 1.42527 0.593762 0
M  V30 2419 H 230.087 1.78947 3.69443 0
M  V30 2420 H 228.748 0.828914 3.02965 0
M  V30 2421 H 227.941 2.96955 4.07227 0
M  V30 2422 H 227.543 2.91813 2.33925 0
M  V30 2423 H 229.835 4.42677 5.12877 0
M  V30 2424 H 230.778 5.66807 4.24424 0
M  V30 2425 H 231.186 3.93804 4.04448 0
M  V30 2426 N 230.584 -0.659388 1.43143 0
M  V30 2427 C 231.809 -1.45221 1.48073 0
M  V30 2428 C 232.234 -1.87845 0.097995 0
M  V30 2429 O 231.592 -1.56985 -0.90694 0
M  V30 2430 C 231.64 -2.66748 2.42647 0
M  V30 2431 O 230.744 -3.65583 1.90848 0
M  V30 2432 H 230.085 -0.435669 0.501088 0
M  V30 2433 H 232.615 -0.807432 1.87994 0
M  V30 2434 H 232.625 -3.14637 2.59745 0
M  V30 2435 H 231.3 -2.35067 3.43098 0
M  V30 2436 H 229.877 -3.24693 1.83381 0
M  V30 2437 N 232.062 -1.29571 -0.897171 0
M  V30 2438 C 233.012 -1.11539 -1.98855 0
M  V30 2439 C 233.996 -0.0340716 -1.60864 0
M  V30 2440 O 235.188 -0.256062 -1.75138 0
M  V30 2441 C 232.317 -0.796603 -3.3393 0
M  V30 2442 C 231.403 -1.91758 -3.78272 0
M  V30 2443 N 231.794 -3.16143 -3.94826 0
M  V30 2444 C 230.092 -1.81119 -4.07568 0
M  V30 2445 C 230.793 -3.89293 -4.32233 0
M  V30 2446 N 229.769 -3.17255 -4.41419 0
M  V30 2447 H 233.571 -2.05894 -2.09726 0
M  V30 2448 H 231.085 -1.20732 -1.08616 0
M  V30 2449 H 233.082 -0.648459 -4.11826 0
M  V30 2450 H 231.742 0.139003 -3.24402 0
M  V30 2451 H 232.753 -3.5157 -3.80288 0
M  V30 2452 H 229.43 -0.948461 -4.06584 0
M  V30 2453 H 230.82 -4.9635 -4.52865 0
M  V30 2454 N 233.54 1.10788 -1.12088 0
M  V30 2455 C 234.787 1.82671 -0.873931 0
M  V30 2456 C 235.115 1.85004 0.600311 0
M  V30 2457 O 234.37 1.30365 1.45957 0
M  V30 2458 C 234.669 3.29294 -1.38926 0
M  V30 2459 C 234.335 3.47113 -2.87791 0
M  V30 2460 C 232.997 3.51684 -3.28439 0
M  V30 2461 C 235.349 3.52808 -3.83635 0
M  V30 2462 C 232.677 3.59513 -4.63646 0
M  V30 2463 C 235.029 3.62169 -5.18668 0
M  V30 2464 C 233.693 3.65003 -5.58864 0
M  V30 2465 H 232.963 0.668441 -0.319794 0
M  V30 2466 H 235.61 1.30613 -1.40045 0
M  V30 2467 H 233.915 3.83894 -0.783122 0
M  V30 2468 H 235.612 3.83416 -1.17443 0
M  V30 2469 H 232.202 3.4423 -2.5535 0
M  V30 2470 H 236.386 3.4853 -3.53328 0
M  V30 2471 H 231.642 3.59987 -4.94185 0
M  V30 2472 H 235.816 3.6552 -5.92763 0
M  V30 2473 H 233.443 3.70822 -6.63623 0
M  V30 2474 N 235.018 0.912232 1.28515 0
M  V30 2475 C 236.243 0.559774 1.99703 0
M  V30 2476 C 236.668 -0.851393 1.67729 0
M  V30 2477 O 236.026 -1.56875 0.908834 0
M  V30 2478 C 236.074 0.773874 3.52198 0
M  V30 2479 O 235.178 -0.167842 4.12058 0
M  V30 2480 H 234.519 0.21723 0.627461 0
M  V30 2481 H 237.049 1.22725 1.63706 0
M  V30 2482 H 237.059 0.683386 4.02236 0
M  V30 2483 H 235.734 1.80261 3.74805 0
M  V30 2484 H 234.311 -0.0287509 3.72889 0
M  V30 2485 N 236.496 -1.42363 0.676048 0
M  V30 2486 C 237.912 -1.55811 0.345718 0
M  V30 2487 C 238.112 -1.65544 -1.14879 0
M  V30 2488 O 237.168 -1.62306 -1.93424 0
M  V30 2489 C 238.481 -2.80746 1.07713 0
M  V30 2490 C 240.029 -2.9452 1.05958 0
M  V30 2491 C 240.504 -4.22318 1.77233 0
M  V30 2492 N 241.995 -4.29233 1.74108 0
M  V30 2493 C 242.73 -5.26935 2.26113 0
M  V30 2494 N 242.226 -6.30783 2.86505 0
M  V30 2495 N 244.019 -5.18741 2.1648 0
M  V30 2496 H 236.17 -1.34289 1.6456 0
M  V30 2497 H 238.433 -0.646506 0.69335 0
M  V30 2498 H 238.139 -2.79696 2.13221 0
M  V30 2499 H 238.013 -3.71676 0.64316 0
M  V30 2500 H 240.4 -2.95097 0.0128255 0
M  V30 2501 H 240.481 -2.04817 1.53244 0
M  V30 2502 H 240.125 -4.22502 2.81877 0
M  V30 2503 H 240.055 -5.10958 1.27396 0
M  V30 2504 H 242.546 -3.54814 1.30059 0
M  V30 2505 H 242.859 -7.01691 3.23805 0
M  V30 2506 H 241.204 -6.31341 2.90575 0
M  V30 2507 H 244.395 -4.36533 1.68987 0
M  V30 2508 H 244.568 -5.94721 2.57316 0
M  V30 2509 N 237.974 -0.419461 -1.51915 0
M  V30 2510 C 238.937 0.389116 -2.25873 0
M  V30 2511 C 239.937 0.964924 -1.28631 0
M  V30 2512 O 241.127 0.842179 -1.52489 0
M  V30 2513 C 238.259 1.54874 -3.03689 0
M  V30 2514 H 239.452 -0.258799 -2.98781 0
M  V30 2515 H 237.005 -0.172209 -1.55348 0
M  V30 2516 H 237.74 2.23323 -2.35154 0
M  V30 2517 H 237.525 1.14223 -3.75094 0
M  V30 2518 H 239.015 2.12046 -3.59759 0
M  V30 2519 N 239.452 1.56882 -0.150215 0
M  V30 2520 C 240.729 1.87844 0.545327 0
M  V30 2521 C 241.109 1.0567 1.82749 0
M  V30 2522 O 240.457 0.144442 2.28043 0
M  V30 2523 C 240.667 3.39526 0.80767 0
M  V30 2524 C 242.015 4.08814 1.14703 0
M  V30 2525 O 243.039 3.44723 0.896917 0
M  V30 2526 O 241.898 5.22004 1.61784 0
M  V30 2527 H 238.992 0.778677 0.278553 0
M  V30 2528 H 241.538 1.68666 -0.187068 0
M  V30 2529 H 240.31 3.91173 -0.0996096 0
M  V30 2530 H 239.933 3.64243 1.59413 0
M  V30 2531 N 240.93 -0.123565 1.57115 0
M  V30 2532 C 241.84 -1.17074 2.033 0
M  V30 2533 C 242.856 -1.4561 0.952559 0
M  V30 2534 O 244.032 -1.56817 1.26374 0
M  V30 2535 C 241.097 -2.47857 2.42421 0
M  V30 2536 C 240.158 -2.26758 3.64526 0
M  V30 2537 C 239.391 -3.51305 4.01771 0
M  V30 2538 O 239.614 -4.5843 3.39409 0
M  V30 2539 O 238.548 -3.42578 4.94898 0
M  V30 2540 H 242.374 -0.808555 2.92739 0
M  V30 2541 H 239.959 -0.334027 1.45618 0
M  V30 2542 H 241.841 -3.2492 2.68338 0
M  V30 2543 H 240.516 -2.83558 1.5613 0
M  V30 2544 H 239.423 -1.47569 3.43765 0
M  V30 2545 H 240.756 -1.95963 4.51508 0
M  V30 2546 N 242.408 -1.52605 -0.393616 0
M  V30 2547 C 243.338 -1.80022 -1.48709 0
M  V30 2548 C 244.319 -0.651995 -1.57108 0
M  V30 2549 O 245.504 -0.89913 -1.72132 0
M  V30 2550 C 242.634 -1.96492 -2.86371 0
M  V30 2551 C 241.588 -3.12161 -2.92813 0
M  V30 2552 C 240.914 -3.13877 -4.3288 0
M  V30 2553 C 242.214 -4.51322 -2.6288 0
M  V30 2554 H 243.908 -2.71589 -1.26015 0
M  V30 2555 H 241.454 -1.30684 -0.604778 0
M  V30 2556 H 243.407 -2.14255 -3.62867 0
M  V30 2557 H 242.131 -1.01611 -3.10391 0
M  V30 2558 H 240.79 -2.94173 -2.18764 0
M  V30 2559 H 240.438 -2.16687 -4.53933 0
M  V30 2560 H 240.138 -3.91576 -4.38112 0
M  V30 2561 H 241.662 -3.33789 -5.1129 0
M  V30 2562 H 243.076 -4.69435 -3.29096 0
M  V30 2563 H 241.473 -5.31053 -2.79468 0
M  V30 2564 H 242.543 -4.58353 -1.58242 0
M  V30 2565 N 243.887 0.651787 -1.4349 0
M  V30 2566 C 245.164 1.40909 -1.35661 0
M  V30 2567 C 245.544 2.11099 -0.00511733 0
M  V30 2568 O 244.892 2.04892 1.0115 0
M  V30 2569 C 245.102 2.3926 -2.54078 0
M  V30 2570 C 246.45 3.03217 -2.97228 0
M  V30 2571 O 247.474 2.49588 -2.54135 0
M  V30 2572 O 246.333 4.00455 -3.71885 0
M  V30 2573 H 243.427 0.629625 -0.536191 0
M  V30 2574 H 245.973 0.678575 -1.55542 0
M  V30 2575 H 244.745 1.86352 -3.44076 0
M  V30 2576 H 244.368 3.1976 -2.36303 0
M  V30 2577 N 245.365 1.30045 0.890287 0
M  V30 2578 C 246.605 1.19839 1.65584 0
M  V30 2579 C 246.969 -0.244175 1.90441 0
M  V30 2580 O 248.17 -0.469378 2.6467 0
M  V30 2581 C 246.441 1.99876 2.96284 0
M  V30 2582 S 248 2.06309 3.87275 0
M  V30 2583 H 244.818 0.427157 0.568382 0
M  V30 2584 H 247.42 1.64453 1.05715 0
M  V30 2585 H 246.124 3.03809 2.75913 0
M  V30 2586 H 245.655 1.55903 3.61189 0
M  V30 2587 H 247.67 1.18661 4.81803 0
M  V30 2588 N 246.843 -1.10192 1.12674 0
M  V30 2589 C 248.254 -1.63707 0.897604 0
M  V30 2590 C 248.605 -1.87812 -0.567546 0
M  V30 2591 O 247.73 -1.62196 -1.43253 0
M  V30 2592 C 248.325 -2.974 1.62292 0
M  V30 2593 C 246.884 -3.47772 1.43986 0
M  V30 2594 C 246.031 -2.22332 1.65722 0
M  V30 2595 H 248.982 -0.936587 1.28116 0
M  V30 2596 H 249.003 -3.64986 1.07541 0
M  V30 2597 H 248.515 -2.79824 2.68924 0
M  V30 2598 H 246.616 -3.70487 0.396206 0
M  V30 2599 H 246.729 -4.25723 2.19765 0
M  V30 2600 H 245.093 -2.30599 1.08149 0
M  V30 2601 H 245.876 -2.07285 2.73657 0
M  V30 2602 N 248.321 -0.919034 -1.28029 0
M  V30 2603 C 249.737 -0.617972 -1.4715 0
M  V30 2604 C 249.937 0.835242 -1.83374 0
M  V30 2605 O 248.993 1.61388 -1.94191 0
M  V30 2606 C 250.306 -1.56041 -2.57044 0
M  V30 2607 C 251.854 -1.56769 -2.7091 0
M  V30 2608 C 252.329 -2.49688 -3.83953 0
M  V30 2609 N 253.82 -2.47845 -3.91314 0
M  V30 2610 C 254.555 -3.16437 -4.78179 0
M  V30 2611 N 254.051 -3.94376 -5.69596 0
M  V30 2612 N 255.844 -3.05498 -4.71834 0
M  V30 2613 H 247.995 -1.85866 -1.02798 0
M  V30 2614 H 250.258 -0.797506 -0.512531 0
M  V30 2615 H 249.964 -2.59671 -2.372 0
M  V30 2616 H 249.838 -1.29551 -3.54255 0
M  V30 2617 H 252.225 -0.538745 -2.90141 0
M  V30 2618 H 252.306 -1.87305 -1.74214 0
M  V30 2619 H 251.95 -3.52688 -3.65477 0
M  V30 2620 H 251.88 -2.16453 -4.80058 0
M  V30 2621 H 254.371 -1.91234 -3.25941 0
M  V30 2622 H 254.684 -4.43721 -6.32718 0
M  V30 2623 H 253.029 -3.98481 -5.69419 0
M  V30 2624 H 256.22 -2.44108 -3.99411 0
M  V30 2625 H 256.393 -3.59225 -5.39316 0
M  V30 2626 N 249.799 1.42003 -0.683588 0
M  V30 2627 C 251.027 2.05746 -0.218182 0
M  V30 2628 C 251.442 1.51396 1.12804 0
M  V30 2629 O 250.799 0.657303 1.70252 0
M  V30 2630 C 250.85 3.61171 -0.154131 0
M  V30 2631 O 250.571 4.13508 -1.44716 0
M  V30 2632 C 252.072 4.42042 0.333713 0
M  V30 2633 H 249.292 0.662888 -0.10402 0
M  V30 2634 H 251.836 1.81987 -0.9328 0
M  V30 2635 H 249.991 3.84012 0.511231 0
M  V30 2636 H 250.405 5.07453 -1.32632 0
M  V30 2637 H 251.879 5.51028 0.327423 0
M  V30 2638 H 252.356 4.17269 1.37053 0
M  V30 2639 H 252.962 4.24239 -0.300222 0
M  V30 2640 N 251.277 0.427512 1.51691 0
M  V30 2641 C 252.187 -0.39527 2.31246 0
M  V30 2642 C 253.203 -1.03674 1.39742 0
M  V30 2643 O 254.379 -1.03425 1.72816 0
M  V30 2644 C 251.444 -1.48706 3.13189 0
M  V30 2645 C 250.505 -0.866743 4.20459 0
M  V30 2646 C 249.738 -1.90651 4.98486 0
M  V30 2647 O 249.961 -3.12733 4.77026 0
M  V30 2648 O 248.895 -1.5025 5.82845 0
M  V30 2649 H 252.721 0.253918 3.02637 0
M  V30 2650 H 250.306 0.190274 1.48183 0
M  V30 2651 H 252.188 -2.12047 3.64162 0
M  V30 2652 H 250.863 -2.12051 2.44573 0
M  V30 2653 H 249.77 -0.195544 3.73589 0
M  V30 2654 H 251.103 -0.276934 4.9142 0
M  V30 2655 N 252.755 -1.56801 0.158532 0
M  V30 2656 C 253.665 -2.20916 -0.789518 0
M  V30 2657 C 254.681 -1.1969 -1.26294 0
M  V30 2658 O 255.857 -1.52308 -1.31773 0
M  V30 2659 C 252.922 -2.82727 -2.00665 0
M  V30 2660 C 251.983 -3.99114 -1.58134 0
M  V30 2661 C 251.216 -4.57968 -2.74045 0
M  V30 2662 O 251.439 -4.15704 -3.90572 0
M  V30 2663 O 250.373 -5.48047 -2.48855 0
M  V30 2664 H 254.199 -3.02464 -0.273681 0
M  V30 2665 H 251.784 -1.4924 -0.0690548 0
M  V30 2666 H 253.666 -3.21968 -2.71872 0
M  V30 2667 H 252.341 -2.04184 -2.51179 0
M  V30 2668 H 251.248 -3.64567 -0.839155 0
M  V30 2669 H 252.581 -4.79212 -1.12325 0
M  V30 2670 N 254.233 0.115231 -1.57178 0
M  V30 2671 C 255.165 1.16694 -1.97269 0
M  V30 2672 C 256.178 1.37445 -0.872502 0
M  V30 2673 O 257.367 1.36454 -1.15077 0
M  V30 2674 C 254.467 2.52627 -2.25905 0
M  V30 2675 C 253.64 2.52427 -3.57211 0
M  V30 2676 C 252.699 3.70134 -3.74016 0
M  V30 2677 O 251.725 3.53546 -4.46087 0
M  V30 2678 N 252.927 4.88844 -3.13068 0
M  V30 2679 H 255.692 0.82588 -2.88096 0
M  V30 2680 H 253.253 0.304461 -1.59011 0
M  V30 2681 H 255.245 3.29937 -2.34359 0
M  V30 2682 H 253.815 2.789 -1.41186 0
M  V30 2683 H 253.035 1.60805 -3.5991 0
M  V30 2684 H 254.323 2.49353 -4.43509 0
M  V30 2685 H 253.721 5.05225 -2.54489 0
M  V30 2686 H 252.278 5.63817 -3.27037 0
M  V30 2687 N 255.711 1.52812 0.385517 0
M  V30 2688 C 256.641 1.80808 1.47752 0
M  V30 2689 C 257.622 0.660318 1.5676 0
M  V30 2690 O 258.807 0.908246 1.71652 0
M  V30 2691 C 255.937 1.98008 2.85324 0
M  V30 2692 C 254.891 3.13709 2.91154 0
M  V30 2693 C 254.217 3.16169 4.31209 0
M  V30 2694 C 255.517 4.52709 2.60483 0
M  V30 2695 H 257.211 2.72253 1.24573 0
M  V30 2696 H 254.757 1.31003 0.597839 0
M  V30 2697 H 256.71 2.16176 3.61726 0
M  V30 2698 H 255.434 1.03255 3.09848 0
M  V30 2699 H 254.093 2.95329 2.17201 0
M  V30 2700 H 253.741 2.19092 4.52778 0
M  V30 2701 H 253.441 3.93894 4.36029 0
M  V30 2702 H 254.965 3.36496 5.09512 0
M  V30 2703 H 256.379 4.71173 3.26602 0
M  V30 2704 H 254.776 5.32528 2.76648 0
M  V30 2705 H 255.846 4.59186 1.55809 0
M  V30 2706 N 257.189 -0.644168 1.43834 0
M  V30 2707 C 258.152 -1.73857 1.49353 0
M  V30 2708 C 259.152 -1.56315 0.377112 0
M  V30 2709 O 260.342 -1.62048 0.639226 0
M  V30 2710 C 257.474 -3.12819 1.35488 0
M  V30 2711 H 258.667 -1.70342 2.46827 0
M  V30 2712 H 256.22 -0.856652 1.30733 0
M  V30 2713 H 256.955 -3.2194 0.390569 0
M  V30 2714 H 256.74 -3.26958 2.16428 0
M  V30 2715 H 258.23 -3.92606 1.42302 0
M  V30 2716 N 258.668 -1.30515 -0.883378 0
M  V30 2717 C 259.631 -1.1701 -1.97082 0
M  V30 2718 C 260.631 -0.10089 -1.60483 0
M  V30 2719 O 261.821 -0.349127 -1.70666 0
M  V30 2720 C 258.953 -0.793045 -3.31547 0
M  V30 2721 H 260.146 -2.13622 -2.10489 0
M  V30 2722 H 257.699 -1.13935 -1.06998 0
M  V30 2723 H 258.434 0.172499 -3.23841 0
M  V30 2724 H 258.219 -1.56576 -3.5948 0
M  V30 2725 H 259.709 -0.722073 -4.1131 0
M  V30 2726 N 260.146 1.09593 -1.13257 0
M  V30 2727 C 261.393 1.81734 -0.893257 0
M  V30 2728 C 261.721 1.8563 0.580656 0
M  V30 2729 O 260.976 1.31906 1.44566 0
M  V30 2730 C 261.275 3.27802 -1.42411 0
M  V30 2731 C 260.941 3.44041 -2.91456 0
M  V30 2732 C 259.603 3.48181 -3.3215 0
M  V30 2733 C 261.955 3.48719 -3.87356 0
M  V30 2734 C 259.283 3.54575 -4.67433 0
M  V30 2735 C 261.635 3.56648 -5.2248 0
M  V30 2736 C 260.299 3.59055 -5.62704 0
M  V30 2737 H 259.569 0.665011 -0.326866 0
M  V30 2738 H 262.216 1.2912 -1.41422 0
M  V30 2739 H 260.521 3.83042 -0.823795 0
M  V30 2740 H 262.218 3.82149 -1.21503 0
M  V30 2741 H 258.808 3.41502 -2.58987 0
M  V30 2742 H 262.992 3.44763 -3.57004 0
M  V30 2743 H 258.248 3.54725 -4.97976 0
M  V30 2744 H 262.422 3.59212 -5.96607 0
M  V30 2745 H 260.049 3.63763 -6.67518 0
M  V30 2746 N 261.624 0.925811 1.2754 0
M  V30 2747 C 262.587 0.428129 2.25166 0
M  V30 2748 C 263.587 -0.452261 1.54309 0
M  V30 2749 O 264.777 -0.253608 1.72344 0
M  V30 2750 C 261.909 -0.384749 3.38722 0
M  V30 2751 H 263.102 1.29066 2.70706 0
M  V30 2752 H 260.655 0.706323 1.3943 0
M  V30 2753 H 261.39 -1.26618 2.98561 0
M  V30 2754 H 261.175 0.246454 3.91325 0
M  V30 2755 H 262.665 -0.723389 4.11287 0
M  V30 2756 N 263.102 -1.41638 0.69111 0
M  V30 2757 C 264.065 -2.29178 0.0319786 0
M  V30 2758 C 265.065 -1.44153 -0.712496 0
M  V30 2759 O 266.255 -1.65354 -0.548053 0
M  V30 2760 C 263.387 -3.26952 -0.965161 0
M  V30 2761 H 264.58 -2.88959 0.802681 0
M  V30 2762 H 262.133 -1.4955 0.454356 0
M  V30 2763 H 262.868 -2.72142 -1.76378 0
M  V30 2764 H 262.653 -3.89685 -0.434522 0
M  V30 2765 H 264.143 -3.92561 -1.42428 0
M  V30 2766 N 264.58 -0.43555 -1.51462 0
M  V30 2767 C 265.543 0.365137 -2.26273 0
M  V30 2768 C 266.543 0.951227 -1.29647 0
M  V30 2769 O 267.733 0.825958 -1.53374 0
M  V30 2770 C 264.865 1.51645 -3.05314 0
M  V30 2771 H 266.058 -0.290474 -2.9849 0
M  V30 2772 H 263.611 -0.188676 -1.55157 0
M  V30 2773 H 264.346 2.20816 -2.3751 0
M  V30 2774 H 264.131 1.10238 -3.76284 0
M  V30 2775 H 265.621 2.08218 -3.61987 0
M  V30 2776 N 266.058 1.56714 -0.166846 0
M  V30 2777 C 267.283 2.01557 0.488833 0
M  V30 2778 C 267.708 1.0463 1.56314 0
M  V30 2779 O 267.066 0.0251304 1.81283 0
M  V30 2780 C 267.114 3.4503 1.04818 0
M  V30 2781 O 266.218 3.51163 2.16236 0
M  V30 2782 H 265.559 0.653516 0.117526 0
M  V30 2783 H 268.089 2.02818 -0.269421 0
M  V30 2784 H 268.099 3.84243 1.37191 0
M  V30 2785 H 266.774 4.15077 0.261572 0
M  V30 2786 H 265.351 3.23807 1.84942 0
M  V30 2787 N 267.536 -0.106894 1.57237 0
M  V30 2788 C 268.468 -1.15646 1.97885 0
M  V30 2789 C 269.481 -1.36981 0.879779 0
M  V30 2790 O 270.67 -1.35841 1.15799 0
M  V30 2791 C 267.77 -2.51425 2.27241 0
M  V30 2792 C 266.943 -2.50529 3.58545 0
M  V30 2793 C 266.002 -3.68145 3.75973 0
M  V30 2794 O 265.028 -3.51176 4.47956 0
M  V30 2795 N 266.23 -4.87177 3.15656 0
M  V30 2796 H 268.995 -0.81059 2.8853 0
M  V30 2797 H 266.556 -0.296024 1.59171 0
M  V30 2798 H 268.548 -3.28689 2.36105 0
M  V30 2799 H 267.118 -2.78147 1.42663 0
M  V30 2800 H 266.338 -1.58894 3.60758 0
M  V30 2801 H 267.626 -2.46997 4.44826 0
M  V30 2802 H 267.024 -5.03868 2.57165 0
M  V30 2803 H 265.581 -5.62075 3.30023 0
M  V30 2804 N 269.014 -1.53014 -0.377408 0
M  V30 2805 C 270.262 -1.6829 -1.11906 0
M  V30 2806 C 270.583 -0.431206 -1.90173 0
M  V30 2807 O 269.853 0.554595 -1.87886 0
M  V30 2808 H 268.433 -0.620371 -0.416112 0
M  V30 2809 H 271.095 -1.90167 -0.426893 0
M  V30 2810 H 270.191 -2.53862 -1.8155 0
M  V30 2811 N 270.492 0.636531 -1.44174 0
M  V30 2812 C 271.422 1.76003 -1.53444 0
M  V30 2813 C 272.403 1.65619 -0.387841 0
M  V30 2814 O 273.588 1.84461 -0.607257 0
M  V30 2815 C 270.718 3.14511 -1.4731 0
M  V30 2816 C 269.672 3.39677 -2.60391 0
M  V30 2817 C 268.998 4.78159 -2.39308 0
M  V30 2818 C 270.298 3.32772 -4.02567 0
M  V30 2819 H 271.992 1.68501 -2.47483 0
M  V30 2820 H 269.538 0.809237 -1.19111 0
M  V30 2821 H 271.491 3.92878 -1.52397 0
M  V30 2822 H 270.215 3.22783 -0.49785 0
M  V30 2823 H 268.874 2.63688 -2.54684 0
M  V30 2824 H 268.522 4.83128 -1.39988 0
M  V30 2825 H 268.222 4.95956 -3.15122 0
M  V30 2826 H 269.746 5.58762 -2.46205 0
M  V30 2827 H 271.16 4.01051 -4.09672 0
M  V30 2828 H 269.557 3.62104 -4.7854 0
M  V30 2829 H 270.627 2.30669 -4.2652 0
M  V30 2830 N 271.97 1.30982 0.876444 0
M  V30 2831 C 272.88 1.2003 2.01569 0
M  V30 2832 C 273.896 0.11838 1.73597 0
M  V30 2833 O 275.072 0.33495 1.98595 0
M  V30 2834 C 272.137 0.901637 3.34771 0
M  V30 2835 C 271.198 2.06979 3.76109 0
M  V30 2836 C 270.431 1.78529 5.02954 0
M  V30 2837 O 270.654 0.717296 5.65872 0
M  V30 2838 O 269.588 2.64019 5.40905 0
M  V30 2839 H 273.414 2.15753 2.13739 0
M  V30 2840 H 270.999 1.10658 1.00375 0
M  V30 2841 H 272.881 0.750645 4.1466 0
M  V30 2842 H 271.556 -0.0256141 3.2369 0
M  V30 2843 H 270.463 2.27616 2.96887 0
M  V30 2844 H 271.796 2.97907 3.91807 0
M  V30 2845 N 273.449 -1.08991 1.13837 0
M  V30 2846 C 274.697 -1.80899 0.901098 0
M  V30 2847 C 275.018 -1.86356 -0.574134 0
M  V30 2848 O 274.288 -1.35235 -1.41733 0
M  V30 2849 H 272.868 -0.669966 0.330386 0
M  V30 2850 H 275.53 -1.318 1.43578 0
M  V30 2851 H 274.626 -2.83929 1.29578 0
M  V30 2852 N 274.927 -0.932562 -1.27047 0
M  V30 2853 C 275.837 -0.441219 -2.30414 0
M  V30 2854 C 276.853 0.480525 -1.67233 0
M  V30 2855 O 278.029 0.362151 -1.98117 0
M  V30 2856 C 275.094 0.293651 -3.45454 0
M  V30 2857 C 274.155 -0.663601 -4.2414 0
M  V30 2858 C 273.388 0.0362932 -5.33688 0
M  V30 2859 O 273.611 1.2548 -5.56427 0
M  V30 2860 O 272.545 -0.638015 -5.98509 0
M  V30 2861 H 276.371 -1.29962 -2.74488 0
M  V30 2862 H 273.956 -0.6981 -1.32087 0
M  V30 2863 H 275.838 0.707951 -4.15411 0
M  V30 2864 H 274.513 1.12758 -3.03426 0
M  V30 2865 H 273.42 -1.12768 -3.56699 0
M  V30 2866 H 274.753 -1.46489 -4.69896 0
M  V30 2867 N 276.405 1.4127 -0.698611 0
M  V30 2868 C 277.654 2.00408 -0.227949 0
M  V30 2869 C 277.967 1.55981 1.18023 0
M  V30 2870 O 279.173 2.07699 1.74852 0
M  V30 2871 C 277.629 3.58129 -0.356636 0
M  V30 2872 C 277.237 4.11536 -1.77037 0
M  V30 2873 C 278.981 4.24466 0.0540969 0
M  V30 2874 C 276.888 5.61701 -1.85055 0
M  V30 2875 H 275.818 0.749586 -0.0814657 0
M  V30 2876 H 278.469 1.61713 -0.867249 0
M  V30 2877 H 276.851 3.94442 0.350965 0
M  V30 2878 H 278.025 3.86636 -2.50698 0
M  V30 2879 H 276.34 3.57736 -2.13105 0
M  V30 2880 H 278.937 5.34698 0.0146723 0
M  V30 2881 H 279.28 4.01687 1.09332 0
M  V30 2882 H 279.813 3.93198 -0.603337 0
M  V30 2883 H 276.552 5.89312 -2.8704 0
M  V30 2884 H 276.072 5.88519 -1.15783 0
M  V30 2885 H 277.751 6.26524 -1.61484 0
M  V30 2886 N 277.883 0.443576 1.51229 0
M  V30 2887 C 279.108 -0.121648 2.07043 0
M  V30 2888 C 279.533 -1.35156 1.30823 0
M  V30 2889 O 278.891 -1.7793 0.347934 0
M  V30 2890 C 278.939 -0.41624 3.5819 0
M  V30 2891 O 278.043 -1.50163 3.8409 0
M  V30 2892 H 277.384 0.000871367 0.663999 0
M  V30 2893 H 279.914 0.626706 1.94765 0
M  V30 2894 H 279.924 -0.664867 4.02546 0
M  V30 2895 H 278.599 0.482653 4.1309 0
M  V30 2896 H 277.176 -1.24248 3.51592 0
M  V30 2897 N 279.361 -1.56624 0.175154 0
M  V30 2898 C 280.291 -2.21155 -0.749195 0
M  V30 2899 C 281.272 -1.16836 -1.23626 0
M  V30 2900 O 282.457 -1.45277 -1.28873 0
M  V30 2901 C 279.587 -2.8553 -1.97711 0
M  V30 2902 C 278.541 -3.95921 -1.62575 0
M  V30 2903 C 277.867 -4.47365 -2.92864 0
M  V30 2904 C 279.167 -5.15323 -0.850838 0
M  V30 2905 H 280.861 -2.98653 -0.211295 0
M  V30 2906 H 278.407 -1.43651 -0.100188 0
M  V30 2907 H 280.36 -3.2935 -2.62881 0
M  V30 2908 H 279.084 -2.05406 -2.53921 0
M  V30 2909 H 277.743 -3.52762 -0.997719 0
M  V30 2910 H 277.391 -3.64027 -3.47122 0
M  V30 2911 H 277.091 -5.21839 -2.70106 0
M  V30 2912 H 278.615 -4.93873 -3.59056 0
M  V30 2913 H 280.029 -5.55812 -1.40521 0
M  V30 2914 H 278.426 -5.95739 -0.722154 0
M  V30 2915 H 279.496 -4.84661 0.152082 0
M  V30 2916 N 280.839 0.0985539 -1.57292 0
M  V30 2917 C 282.255 0.45267 -1.53046 0
M  V30 2918 C 282.455 1.80713 -0.891342 0
M  V30 2919 O 281.511 2.4785 -0.482375 0
M  V30 2920 C 282.824 0.418341 -2.97776 0
M  V30 2921 C 284.372 0.500443 -3.08973 0
M  V30 2922 C 284.847 0.496297 -4.55303 0
M  V30 2923 N 286.338 0.557151 -4.59837 0
M  V30 2924 C 287.073 0.575726 -5.70502 0
M  V30 2925 N 286.569 0.550714 -6.90608 0
M  V30 2926 N 288.362 0.620277 -5.58667 0
M  V30 2927 H 280.513 -0.788673 -1.97215 0
M  V30 2928 H 282.776 -0.293188 -0.901524 0
M  V30 2929 H 282.482 -0.509659 -3.47988 0
M  V30 2930 H 282.356 1.2386 -3.56284 0
M  V30 2931 H 284.743 1.41886 -2.58751 0
M  V30 2932 H 284.824 -0.347894 -2.53423 0
M  V30 2933 H 284.468 -0.418162 -5.06176 0
M  V30 2934 H 284.398 1.3618 -5.08687 0
M  V30 2935 H 286.889 0.581816 -3.73394 0
M  V30 2936 H 287.202 0.568075 -7.70709 0
M  V30 2937 H 285.547 0.517816 -6.93068 0
M  V30 2938 H 288.738 0.637322 -4.63741 0
M  V30 2939 H 288.911 0.631283 -6.44918 0
M  V30 2940 N 282.317 1.53212 0.369288 0
M  V30 2941 C 283.265 1.80054 1.47253 0
M  V30 2942 C 284.259 0.669456 1.55611 0
M  V30 2943 O 285.465 0.852328 1.58541 0
M  V30 2944 H 281.84 0.570034 0.490475 0
M  V30 2945 H 283.811 2.72403 1.21817 0
M  V30 2946 C 282.56 2.00403 2.84137 0
M  V30 2947 H 281.883 2.86876 2.78464 0
M  V30 2948 H 283.323 2.23164 3.60519 0
M  V30 2949 C 281.782 0.782081 3.27697 0
M  V30 2950 O 282.312 -0.0310205 4.01688 0
M  V30 2951 N 280.518 0.606573 2.84199 0
M  V30 2952 H 280.065 1.26939 2.24152 0
M  V30 2953 H 280.023 -0.20962 3.137 0
M  V30 2954 N 283.795 -0.628877 1.44509 0
M  V30 2955 C 285.02 -1.42048 1.5112 0
M  V30 2956 C 285.445 -1.87594 0.137818 0
M  V30 2957 O 284.803 -1.58873 -0.873437 0
M  V30 2958 C 284.851 -2.61541 2.48251 0
M  V30 2959 O 283.955 -3.61453 1.98559 0
M  V30 2960 H 283.296 -0.424942 0.510216 0
M  V30 2961 H 285.826 -0.767374 1.89664 0
M  V30 2962 H 285.836 -3.09057 2.66361 0
M  V30 2963 H 284.511 -2.27736 3.48007 0
M  V30 2964 H 283.088 -3.20731 1.90227 0
M  V30 2965 N 285.273 -1.31445 -0.869486 0
M  V30 2966 C 286.684 -1.19042 -1.43826 0
M  V30 2967 C 287.035 0.202919 -1.95148 0
M  V30 2968 O 286.16 1.10071 -1.86315 0
M  V30 2969 C 286.755 -2.15499 -2.6143 0
M  V30 2970 C 285.314 -2.07028 -3.14351 0
M  V30 2971 C 284.461 -2.04701 -1.87063 0
M  V30 2972 H 287.412 -1.43489 -0.677984 0
M  V30 2973 H 287.433 -1.74488 -3.38134 0
M  V30 2974 H 286.945 -3.16899 -2.24046 0
M  V30 2975 H 285.046 -1.08825 -3.56354 0
M  V30 2976 H 285.159 -2.96157 -3.766 0
M  V30 2977 H 283.523 -1.49724 -2.06046 0
M  V30 2978 H 284.306 -3.07857 -1.51917 0
M  V30 2979 N 286.751 1.08385 -1.14413 0
M  V30 2980 C 287.714 2.13486 -0.834048 0
M  V30 2981 C 288.714 1.59988 0.161418 0
M  V30 2982 O 289.904 1.74071 -0.0669575 0
M  V30 2983 C 287.036 3.4003 -0.243354 0
M  V30 2984 H 288.229 2.42425 -1.7655 0
M  V30 2985 H 285.782 1.24101 -0.950189 0
M  V30 2986 H 286.517 3.16726 0.696807 0
M  V30 2987 H 286.302 3.80157 -0.960367 0
M  V30 2988 H 287.792 4.17577 -0.0436242 0
M  V30 2989 N 288.23 0.939286 1.26551 0
M  V30 2990 C 289.476 0.586715 1.94128 0
M  V30 2991 C 289.809 -0.8717 1.73537 0
M  V30 2992 O 289.084 -1.62339 1.07127 0
M  V30 2993 C 289.367 0.927497 3.4795 0
M  V30 2994 C 289.22 2.44052 3.77834 0
M  V30 2995 C 290.539 0.441569 4.37879 0
M  V30 2996 H 287.658 0.21463 0.705055 0
M  V30 2997 H 290.3 1.17316 1.49455 0
M  V30 2998 H 288.45 0.428431 3.8613 0
M  V30 2999 H 290.122 3.01216 3.4938 0
M  V30 3000 H 288.365 2.8848 3.23978 0
M  V30 3001 H 289.036 2.62947 4.85348 0
M  V30 3002 H 291.512 0.869448 4.06915 0
M  V30 3003 H 290.388 0.708856 5.44304 0
M  V30 3004 H 290.649 -0.658467 4.37169 0
M  V30 3005 N 289.708 -1.40897 0.706093 0
M  V30 3006 C 290.638 -2.33418 0.0620085 0
M  V30 3007 C 291.619 -1.52385 -0.755827 0
M  V30 3008 O 292.804 -1.80886 -0.706674 0
M  V30 3009 C 289.934 -3.36293 -0.867445 0
M  V30 3010 C 288.888 -4.27716 -0.155932 0
M  V30 3011 C 288.214 -5.2105 -1.20046 0
M  V30 3012 C 289.514 -5.12944 0.984149 0
M  V30 3013 H 291.208 -2.87527 0.83477 0
M  V30 3014 H 288.754 -1.38249 0.402875 0
M  V30 3015 H 290.707 -3.99949 -1.32735 0
M  V30 3016 H 289.431 -2.80556 -1.67199 0
M  V30 3017 H 288.09 -3.65498 0.284047 0
M  V30 3018 H 287.738 -4.61624 -1.99781 0
M  V30 3019 H 287.438 -5.83056 -0.729328 0
M  V30 3020 H 288.962 -5.87584 -1.66066 0
M  V30 3021 H 290.376 -5.70109 0.604048 0
M  V30 3022 H 288.773 -5.83945 1.38304 0
M  V30 3023 H 289.843 -4.49485 1.81911 0
M  V30 3024 N 291.186 -0.45159 -1.50991 0
M  V30 3025 C 292.434 0.109857 -2.01801 0
M  V30 3026 C 292.755 1.41958 -1.3369 0
M  V30 3027 O 292.025 1.9003 -0.475951 0
M  V30 3028 H 290.605 0.0435884 -0.745727 0
M  V30 3029 H 293.267 -0.597557 -1.85514 0
M  V30 3030 H 292.363 0.275489 -3.10882 0
M  V30 3031 N 292.664 1.56529 -0.183458 0
M  V30 3032 C 293.91 1.98304 0.452466 0
M  V30 3033 C 294.265 1.06799 1.60037 0
M  V30 3034 O 293.558 0.110049 1.91284 0
M  V30 3035 C 293.752 3.43939 0.971637 0
M  V30 3036 C 293.581 4.49528 -0.124425 0
M  V30 3037 C 292.351 5.01981 -0.578168 0
M  V30 3038 C 294.549 5.05836 -0.929207 0
M  V30 3039 N 292.531 5.91219 -1.65327 0
M  V30 3040 C 293.902 5.91632 -1.85396 0
M  V30 3041 C 295.957 4.88302 -0.972929 0
M  V30 3042 C 294.66 6.61768 -2.81878 0
M  V30 3043 C 296.686 5.59168 -1.92574 0
M  V30 3044 C 296.048 6.44701 -2.83795 0
M  V30 3045 H 292.147 0.770551 0.133324 0
M  V30 3046 H 294.731 1.92581 -0.286473 0
M  V30 3047 H 292.902 3.50184 1.68006 0
M  V30 3048 H 294.634 3.72702 1.5772 0
M  V30 3049 H 291.389 4.73282 -0.173639 0
M  V30 3050 H 291.813 6.40543 -2.19167 0
M  V30 3051 H 296.455 4.21861 -0.28168 0
M  V30 3052 H 294.173 7.27415 -3.51984 0
M  V30 3053 H 297.759 5.47582 -1.96583 0
M  V30 3054 H 296.639 6.98573 -3.56322 0
M  V30 3055 N 294.142 -0.090211 1.57342 0
M  V30 3056 C 295.553 -0.644173 1.75235 0
M  V30 3057 C 295.904 -1.78865 0.806335 0
M  V30 3058 O 295.029 -2.16395 -0.0140128 0
M  V30 3059 C 295.624 -1.17532 3.1776 0
M  V30 3060 C 294.183 -1.67531 3.37061 0
M  V30 3061 C 293.33 -0.58693 2.71017 0
M  V30 3062 H 296.281 0.135884 1.58117 0
M  V30 3063 H 296.302 -2.04455 3.20902 0
M  V30 3064 H 295.814 -0.342138 3.86589 0
M  V30 3065 H 293.915 -2.53234 2.73319 0
M  V30 3066 H 294.028 -1.76493 4.45406 0
M  V30 3067 H 292.392 -1.02756 2.33052 0
M  V30 3068 H 293.175 0.235758 3.4249 0
M  V30 3069 N 295.62 -1.53406 -0.361157 0
M  V30 3070 C 296.567 -1.80156 -1.44265 0
M  V30 3071 C 297.537 -0.646183 -1.53015 0
M  V30 3072 O 298.722 -0.888818 -1.68833 0
M  V30 3073 C 295.862 -2.00116 -2.81154 0
M  V30 3074 C 294.975 -3.27833 -2.81335 0
M  V30 3075 C 294.11 -3.37957 -4.09828 0
M  V30 3076 C 293.149 -4.59689 -4.04168 0
M  V30 3077 N 292.286 -4.66942 -5.24318 0
M  V30 3078 H 297.126 -2.72438 -1.20754 0
M  V30 3079 H 294.663 -1.34954 -0.585296 0
M  V30 3080 H 296.621 -2.09677 -3.60682 0
M  V30 3081 H 295.251 -1.11167 -3.03054 0
M  V30 3082 H 294.303 -3.27204 -1.94014 0
M  V30 3083 H 295.615 -4.17442 -2.73027 0
M  V30 3084 H 294.769 -3.46853 -4.97773 0
M  V30 3085 H 293.508 -2.46372 -4.20894 0
M  V30 3086 H 292.513 -4.50889 -3.14609 0
M  V30 3087 H 293.738 -5.5262 -3.947 0
M  V30 3088 H 291.684 -3.7826 -5.35962 0
M  V30 3089 H 291.601 -5.50462 -5.18197 0
M  V30 3090 H 292.869 -4.80127 -6.14084 0
M  V30 3091 N 297.098 0.621204 -1.44841 0
M  V30 3092 C 298.344 1.3826 -1.48365 0
M  V30 3093 C 298.677 1.93831 -0.119624 0
M  V30 3094 O 297.952 1.74251 0.864111 0
M  V30 3095 C 298.235 2.54058 -2.55199 0
M  V30 3096 C 298.088 2.03772 -4.00995 0
M  V30 3097 C 299.407 3.56225 -2.58442 0
M  V30 3098 H 296.526 0.501374 -0.540179 0
M  V30 3099 H 299.168 0.7015 -1.76576 0
M  V30 3100 H 297.318 3.12162 -2.31274 0
M  V30 3101 H 298.99 1.50423 -4.36086 0
M  V30 3102 H 297.233 1.34876 -4.12299 0
M  V30 3103 H 297.904 2.87185 -4.71411 0
M  V30 3104 H 300.38 3.07939 -2.79844 0
M  V30 3105 H 299.256 4.34756 -3.3508 0
M  V30 3106 H 299.517 4.10949 -1.63013 0
M  V30 3107 N 298.576 1.31904 0.862503 0
M  V30 3108 C 299.987 1.19803 1.43193 0
M  V30 3109 C 300.338 -0.192567 1.95253 0
M  V30 3110 O 299.463 -1.09081 1.86896 0
M  V30 3111 C 300.058 2.16883 2.60283 0
M  V30 3112 C 298.617 2.08692 3.13248 0
M  V30 3113 C 297.764 2.05691 1.85975 0
M  V30 3114 H 300.715 1.43846 0.670365 0
M  V30 3115 H 300.736 1.76278 3.37204 0
M  V30 3116 H 300.248 3.18083 2.22363 0
M  V30 3117 H 298.349 1.10713 3.55771 0
M  V30 3118 H 298.462 2.9815 3.75025 0
M  V30 3119 H 296.826 1.50814 2.05249 0
M  V30 3120 H 297.609 3.08659 1.50282 0
M  V30 3121 N 300.054 -1.07777 1.14986 0
M  V30 3122 C 301.279 -1.84558 0.946213 0
M  V30 3123 C 301.704 -1.81323 -0.500362 0
M  V30 3124 O 301.062 -1.20301 -1.35637 0
M  V30 3125 C 301.11 -3.29736 1.45968 0
M  V30 3126 O 300.214 -4.07149 0.65601 0
M  V30 3127 H 299.555 -0.571641 0.33782 0
M  V30 3128 H 302.085 -1.35991 1.52865 0
M  V30 3129 H 302.095 -3.80574 1.47063 0
M  V30 3130 H 300.77 -3.31406 2.51283 0
M  V30 3131 H 299.347 -3.65994 0.714322 0
M  V30 3132 N 301.532 -0.945985 -1.26051 0
M  V30 3133 C 302.809 -0.513816 -1.88731 0
M  V30 3134 C 303.189 1.00872 -1.8544 0
M  V30 3135 O 302.537 1.8708 -1.312 0
M  V30 3136 C 302.747 -1.08062 -3.31849 0
M  V30 3137 C 304.095 -1.1522 -4.08668 0
M  V30 3138 O 305.119 -1.03155 -3.40936 0
M  V30 3139 O 303.978 -1.34044 -5.29806 0
M  V30 3140 H 301.072 -0.168193 -0.809716 0
M  V30 3141 H 303.618 -1.03886 -1.34186 0
M  V30 3142 H 302.39 -2.1241 -3.2863 0
M  V30 3143 H 302.013 -0.538307 -3.93939 0
M  V30 3144 N 303.011 1.40521 -0.713556 0
M  V30 3145 C 304.257 2.01714 -0.261382 0
M  V30 3146 C 304.612 1.55562 1.13217 0
M  V30 3147 O 303.905 0.764893 1.7567 0
M  V30 3148 C 304.099 3.56317 -0.278 0
M  V30 3149 C 303.928 4.17476 -1.67163 0
M  V30 3150 C 302.698 4.50998 -2.2788 0
M  V30 3151 C 304.896 4.42472 -2.6215 0
M  V30 3152 N 302.878 4.9754 -3.5962 0
M  V30 3153 C 304.249 4.90985 -3.78594 0
M  V30 3154 C 306.304 4.24508 -2.60188 0
M  V30 3155 C 305.007 5.2342 -4.9338 0
M  V30 3156 C 307.033 4.58043 -3.741 0
M  V30 3157 C 306.395 5.06743 -4.89276 0
M  V30 3158 H 302.494 0.769104 -0.141434 0
M  V30 3159 H 305.078 1.70785 -0.934915 0
M  V30 3160 H 303.249 3.8668 0.36509 0
M  V30 3161 H 304.981 4.0425 0.190695 0
M  V30 3162 H 301.736 4.38062 -1.79997 0
M  V30 3163 H 302.16 5.25196 -4.27198 0
M  V30 3164 H 306.802 3.86078 -1.72348 0
M  V30 3165 H 304.52 5.60765 -5.81866 0
M  V30 3166 H 308.106 4.45785 -3.73854 0
M  V30 3167 H 306.986 5.32204 -5.75959 0
M  V30 3168 N 304.489 0.459591 1.5075 0
M  V30 3169 C 305.735 -0.0994966 2.02556 0
M  V30 3170 C 306.068 -1.40399 1.3417 0
M  V30 3171 O 305.343 -1.88892 0.463683 0
M  V30 3172 C 305.626 -0.295242 3.58888 0
M  V30 3173 C 305.479 1.02947 4.37861 0
M  V30 3174 C 306.798 -1.05502 4.27267 0
M  V30 3175 H 303.917 -0.034686 0.736183 0
M  V30 3176 H 306.559 0.602938 1.8018 0
M  V30 3177 H 304.709 -0.893563 3.78084 0
M  V30 3178 H 306.381 1.66348 4.30263 0
M  V30 3179 H 304.624 1.62885 4.02058 0
M  V30 3180 H 305.295 0.846281 5.45474 0
M  V30 3181 H 307.771 -0.547993 4.12476 0
M  V30 3182 H 306.647 -1.16077 5.36486 0
M  V30 3183 H 306.908 -2.08875 3.89645 0
M  V30 3184 N 305.967 -1.56429 0.191757 0
M  V30 3185 C 307.383 -1.58754 -0.164137 0
M  V30 3186 C 307.583 -1.20782 -1.61288 0
M  V30 3187 O 306.639 -0.928999 -2.34789 0
M  V30 3188 C 307.952 -3.00396 0.135195 0
M  V30 3189 C 309.5 -3.1291 0.0750351 0
M  V30 3190 C 309.975 -4.56679 0.347632 0
M  V30 3191 N 311.466 -4.62252 0.296131 0
M  V30 3192 C 312.201 -5.71379 0.480948 0
M  V30 3193 N 311.697 -6.88986 0.725933 0
M  V30 3194 N 313.49 -5.60563 0.415435 0
M  V30 3195 H 305.641 -1.79393 1.13718 0
M  V30 3196 H 307.904 -0.832414 0.453643 0
M  V30 3197 H 307.61 -3.32726 1.13958 0
M  V30 3198 H 307.484 -3.72963 -0.563773 0
M  V30 3199 H 309.871 -2.80394 -0.919948 0
M  V30 3200 H 309.952 -2.42736 0.807029 0
M  V30 3201 H 309.596 -4.89907 1.33992 0
M  V30 3202 H 309.526 -5.25039 -0.405212 0
M  V30 3203 H 312.017 -3.7773 0.113259 0
M  V30 3204 H 312.33 -7.68046 0.855857 0
M  V30 3205 H 310.675 -6.90801 0.762788 0
M  V30 3206 H 313.866 -4.67561 0.224486 0
M  V30 3207 H 314.039 -6.45551 0.562889 0
M  V30 3208 N 307.445 0.0818655 -1.57387 0
M  V30 3209 C 308.856 0.634871 -1.75574 0
M  V30 3210 C 309.207 1.78435 -0.815809 0
M  V30 3211 O 308.332 2.164 0.0025366 0
M  V30 3212 C 308.927 1.15845 -3.18379 0
M  V30 3213 C 307.486 1.65741 -3.37945 0
M  V30 3214 C 306.633 0.572549 -2.71325 0
M  V30 3215 H 309.584 -0.144268 -1.58043 0
M  V30 3216 H 309.605 2.02751 -3.21982 0
M  V30 3217 H 309.117 0.321631 -3.86765 0
M  V30 3218 H 307.218 2.51781 -2.74658 0
M  V30 3219 H 307.331 1.74129 -4.46336 0
M  V30 3220 H 305.695 1.01518 -2.33594 0
M  V30 3221 H 306.478 -0.253918 -3.4236 0
M  V30 3222 N 308.923 1.53595 0.353017 0
M  V30 3223 C 310.171 1.70049 1.09215 0
M  V30 3224 C 310.492 0.461406 1.89463 0
M  V30 3225 O 309.762 -0.524633 1.88744 0
M  V30 3226 H 308.342 0.626912 0.40619 0
M  V30 3227 H 311.004 1.90822 0.396585 0
M  V30 3228 H 310.1 2.56718 1.77488 0
M  V30 3229 N 310.401 -0.613514 1.45168 0
M  V30 3230 C 311.65 -1.36874 1.4815 0
M  V30 3231 C 311.963 -1.952 0.124982 0
M  V30 3232 O 313.169 -2.71481 0.0324176 0
M  V30 3233 C 311.625 -2.47905 2.60904 0
M  V30 3234 C 311.233 -1.96016 4.02842 0
M  V30 3235 C 312.977 -3.24965 2.73126 0
M  V30 3236 C 310.884 -3.04494 5.06988 0
M  V30 3237 H 309.814 -0.514428 0.551253 0
M  V30 3238 H 312.465 -0.658182 1.7129 0
M  V30 3239 H 310.847 -3.21618 2.31037 0
M  V30 3240 H 312.021 -1.29051 4.4236 0
M  V30 3241 H 310.336 -1.31719 3.95018 0
M  V30 3242 H 312.933 -4.05865 3.48106 0
M  V30 3243 H 313.276 -3.75588 1.79553 0
M  V30 3244 H 313.809 -2.5835 3.0249 0
M  V30 3245 H 310.548 -2.58795 6.0225 0
M  V30 3246 H 310.068 -3.70044 4.72046 0
M  V30 3247 H 311.747 -3.68976 5.31475 0
M  V30 3248 N 311.879 -1.3236 -0.855495 0
M  V30 3249 C 312.809 -1.23833 -1.97958 0
M  V30 3250 C 313.79 -0.122361 -1.69659 0
M  V30 3251 O 314.975 -0.30939 -1.9172 0
M  V30 3252 C 312.105 -0.959772 -3.33775 0
M  V30 3253 C 311.059 -2.03689 -3.76424 0
M  V30 3254 C 310.385 -1.61075 -5.09862 0
M  V30 3255 C 311.685 -3.4518 -3.9198 0
M  V30 3256 H 313.379 -2.1788 -2.0535 0
M  V30 3257 H 310.925 -1.04891 -0.986605 0
M  V30 3258 H 312.878 -0.886678 -4.11966 0
M  V30 3259 H 311.602 0.0163404 -3.26596 0
M  V30 3260 H 310.261 -2.10012 -3.00484 0
M  V30 3261 H 309.909 -0.622107 -4.99138 0
M  V30 3262 H 309.609 -2.33143 -5.39368 0
M  V30 3263 H 311.133 -1.55201 -5.90546 0
M  V30 3264 H 312.547 -3.4145 -4.60526 0
M  V30 3265 H 310.944 -4.1559 -4.32903 0
M  V30 3266 H 312.014 -3.84903 -2.94919 0
M  V30 3267 N 313.357 1.07166 -1.15556 0
M  V30 3268 C 314.287 2.16403 -0.877046 0
M  V30 3269 C 315.268 1.69217 0.173111 0
M  V30 3270 O 316.453 1.94181 0.027084 0
M  V30 3271 C 313.583 3.45349 -0.367632 0
M  V30 3272 C 312.537 4.05995 -1.35468 0
M  V30 3273 C 311.863 5.30045 -0.704038 0
M  V30 3274 C 313.163 4.45804 -2.72132 0
M  V30 3275 H 314.857 2.39959 -1.79053 0
M  V30 3276 H 312.403 1.15325 -0.862331 0
M  V30 3277 H 314.356 4.21095 -0.160317 0
M  V30 3278 H 313.08 3.21385 0.581326 0
M  V30 3279 H 311.739 3.32296 -1.54839 0
M  V30 3280 H 311.387 5.02373 0.251128 0
M  V30 3281 H 311.087 5.71579 -1.36277 0
M  V30 3282 H 312.611 6.08495 -0.50654 0
M  V30 3283 H 314.025 5.12671 -2.56595 0
M  V30 3284 H 312.422 4.98296 -3.34397 0
M  V30 3285 H 313.492 3.57083 -3.28054 0
M  V30 3286 N 314.835 0.952656 1.25548 0
M  V30 3287 C 316.065 0.622592 1.96996 0
M  V30 3288 C 316.473 -0.809112 1.71026 0
M  V30 3289 O 315.816 -1.55258 0.981861 0
M  V30 3290 C 315.878 0.798946 3.5051 0
M  V30 3291 C 315.542 2.20744 4.00151 0
M  V30 3292 C 316.539 3.18394 4.11001 0
M  V30 3293 C 314.224 2.5311 4.33867 0
M  V30 3294 C 316.218 4.46504 4.54877 0
M  V30 3295 C 313.905 3.8145 4.7743 0
M  V30 3296 C 314.903 4.77959 4.87897 0
M  V30 3297 O 314.591 6.04012 5.30494 0
M  V30 3298 H 314.323 0.232503 0.634758 0
M  V30 3299 H 316.877 1.2789 1.60728 0
M  V30 3300 H 315.107 0.0854903 3.86605 0
M  V30 3301 H 316.796 0.47023 4.03167 0
M  V30 3302 H 317.562 2.94715 3.85186 0
M  V30 3303 H 313.441 1.78719 4.24948 0
M  V30 3304 H 316.985 5.21835 4.62962 0
M  V30 3305 H 312.882 4.04936 5.0269 0
M  V30 3306 H 313.65 6.0736 5.48685 0
M  V30 3307 N 316.313 -1.40141 0.720998 0
M  V30 3308 C 317.561 -2.0039 0.262323 0
M  V30 3309 C 317.882 -1.57469 -1.15015 0
M  V30 3310 O 317.152 -0.816582 -1.78069 0
M  V30 3311 H 315.732 -0.741063 0.093996 0
M  V30 3312 H 318.394 -1.71398 0.927835 0
M  V30 3313 H 317.49 -3.10658 0.299671 0
M  V30 3314 N 317.792 -0.46758 -1.50504 0
M  V30 3315 C 318.755 0.317059 -2.26996 0
M  V30 3316 C 319.755 0.923513 -1.31635 0
M  V30 3317 O 320.945 0.793239 -1.55091 0
M  V30 3318 C 318.077 1.45134 -3.08462 0
M  V30 3319 H 319.27 -0.353723 -2.97807 0
M  V30 3320 H 316.823 -0.221545 -1.54722 0
M  V30 3321 H 317.558 2.15728 -2.4214 0
M  V30 3322 H 317.343 1.02232 -3.78538 0
M  V30 3323 H 318.833 2.00493 -3.66323 0
M  V30 3324 N 319.27 1.56325 -0.20005 0
M  V30 3325 C 320.498 2.02105 0.442874 0
M  V30 3326 C 320.913 1.08014 1.5485 0
M  V30 3327 O 320.27 0.0858797 1.82298 0
M  V30 3328 C 320.321 3.47549 0.994583 0
M  V30 3329 O 320.042 4.38049 -0.0669322 0
M  V30 3330 C 321.543 4.0887 1.7129 0
M  V30 3331 H 318.763 0.661807 0.110691 0
M  V30 3332 H 321.307 2.02134 -0.310207 0
M  V30 3333 H 319.462 3.48204 1.69803 0
M  V30 3334 H 319.876 5.23368 0.344462 0
M  V30 3335 H 321.35 5.12475 2.05118 0
M  V30 3336 H 321.827 3.52615 2.61838 0
M  V30 3337 H 322.433 4.12002 1.05518 0
M  V30 3338 N 320.748 -0.0735177 1.57428 0
M  V30 3339 C 322.159 -0.625551 1.75908 0
M  V30 3340 C 322.51 -1.78 0.825261 0
M  V30 3341 O 321.635 -2.16398 0.00893964 0
M  V30 3342 C 322.23 -1.14155 3.18989 0
M  V30 3343 C 320.789 -1.63946 3.38819 0
M  V30 3344 C 319.936 -0.558151 2.71625 0
M  V30 3345 H 322.887 0.152647 1.57964 0
M  V30 3346 H 322.908 -2.0104 3.23053 0
M  V30 3347 H 322.42 -0.301116 3.8693 0
M  V30 3348 H 320.521 -2.50321 2.7599 0
M  V30 3349 H 320.634 -1.71759 4.47253 0
M  V30 3350 H 318.998 -1.00278 2.34129 0
M  V30 3351 H 319.781 0.272071 3.4222 0
M  V30 3352 N 322.226 -1.5378 -0.344866 0
M  V30 3353 C 323.473 -1.70963 -1.08526 0
M  V30 3354 C 323.801 -0.472126 -1.88683 0
M  V30 3355 O 323.056 0.546116 -1.87926 0
M  V30 3356 C 323.355 -2.92407 -2.05506 0
M  V30 3357 C 323.021 -4.28066 -1.41671 0
M  V30 3358 C 321.683 -4.64951 -1.2399 0
M  V30 3359 C 324.035 -5.12344 -0.956726 0
M  V30 3360 C 321.363 -5.83733 -0.589277 0
M  V30 3361 C 323.715 -6.3179 -0.320015 0
M  V30 3362 C 322.379 -6.67372 -0.130881 0
M  V30 3363 H 321.649 -0.625598 -0.397124 0
M  V30 3364 H 324.296 -1.87995 -0.36469 0
M  V30 3365 H 322.601 -2.69973 -2.8394 0
M  V30 3366 H 324.298 -3.02895 -2.62784 0
M  V30 3367 H 320.888 -3.99034 -1.56429 0
M  V30 3368 H 325.072 -4.8438 -1.08118 0
M  V30 3369 H 320.328 -6.09877 -0.431344 0
M  V30 3370 H 324.502 -6.96386 0.0445072 0
M  V30 3371 H 322.129 -7.59273 0.375318 0
M  V30 3372 N 323.704 0.605807 -1.45491 0
M  V30 3373 C 324.614 1.74466 -1.56839 0
M  V30 3374 C 325.63 1.68006 -0.452772 0
M  V30 3375 O 326.806 1.8833 -0.713708 0
M  V30 3376 C 323.871 3.10931 -1.53371 0
M  V30 3377 C 322.932 3.28832 -2.75986 0
M  V30 3378 C 322.165 4.58787 -2.72673 0
M  V30 3379 O 322.388 5.4122 -1.80102 0
M  V30 3380 O 321.322 4.79438 -3.63899 0
M  V30 3381 H 325.148 1.67843 -2.53106 0
M  V30 3382 H 322.733 0.770108 -1.28022 0
M  V30 3383 H 324.615 3.92233 -1.54051 0
M  V30 3384 H 323.29 3.18042 -0.602572 0
M  V30 3385 H 322.197 2.47112 -2.80867 0
M  V30 3386 H 323.53 3.26599 -3.68231 0
M  V30 3387 N 325.182 1.32811 0.848464 0
M  V30 3388 C 326.598 1.11937 1.13764 0
M  V30 3389 C 326.798 -0.0960789 2.01271 0
M  V30 3390 O 325.854 -0.779165 2.40178 0
M  V30 3391 C 327.167 2.402 1.809 0
M  V30 3392 C 328.715 2.46016 1.93508 0
M  V30 3393 C 329.19 3.74215 2.64059 0
M  V30 3394 N 330.681 3.75232 2.71579 0
M  V30 3395 C 331.416 4.71134 3.26833 0
M  V30 3396 N 330.912 5.77406 3.8285 0
M  V30 3397 N 332.705 4.58623 3.24995 0
M  V30 3398 H 324.856 2.1073 0.265855 0
M  V30 3399 H 327.119 0.930671 0.180431 0
M  V30 3400 H 326.825 3.29093 1.24058 0
M  V30 3401 H 326.699 2.51628 2.81004 0
M  V30 3402 H 329.086 1.57577 2.49506 0
M  V30 3403 H 329.167 2.38536 0.923811 0
M  V30 3404 H 328.811 4.63031 2.08722 0
M  V30 3405 H 328.741 3.78968 3.65637 0
M  V30 3406 H 331.232 2.98423 2.31845 0
M  V30 3407 H 331.545 6.46632 4.23187 0
M  V30 3408 H 329.89 5.81152 3.81165 0
M  V30 3409 H 333.081 3.74762 2.80484 0
M  V30 3410 H 333.254 5.33535 3.67756 0
M  V30 3411 N 326.66 -1.06551 1.16123 0
M  V30 3412 C 327.623 -2.12132 0.867906 0
M  V30 3413 C 328.623 -1.60224 -0.135944 0
M  V30 3414 O 329.813 -1.73943 0.0946422 0
M  V30 3415 C 326.945 -3.396 0.297419 0
M  V30 3416 H 328.138 -2.39586 1.80385 0
M  V30 3417 H 325.691 -1.22574 0.969812 0
M  V30 3418 H 326.426 -3.17794 -0.64633 0
M  V30 3419 H 326.211 -3.78581 1.02073 0
M  V30 3420 H 327.701 -4.17455 0.110052 0
M  V30 3421 N 328.138 -0.959301 -1.25041 0
M  V30 3422 C 329.088 -0.453888 -2.23436 0
M  V30 3423 C 330.072 0.459461 -1.542 0
M  V30 3424 O 331.264 0.291752 -1.74579 0
M  V30 3425 C 328.393 0.262667 -3.42294 0
M  V30 3426 C 327.479 -0.669022 -4.1879 0
M  V30 3427 N 327.87 -1.80267 -4.72586 0
M  V30 3428 C 326.168 -0.47814 -4.4343 0
M  V30 3429 C 326.869 -2.38475 -5.3057 0
M  V30 3430 N 325.845 -1.67078 -5.17287 0
M  V30 3431 H 329.647 -1.319 -2.6264 0
M  V30 3432 H 327.161 -0.817358 -1.40332 0
M  V30 3433 H 329.158 0.641911 -4.11929 0
M  V30 3434 H 327.818 1.12432 -3.04613 0
M  V30 3435 H 328.829 -2.18442 -4.69578 0
M  V30 3436 H 325.506 0.340249 -4.16111 0
M  V30 3437 H 326.896 -3.34094 -5.8295 0
M  V30 3438 N 329.616 1.39756 -0.72842 0
M  V30 3439 C 331.027 1.83498 -0.344289 0
M  V30 3440 C 331.378 1.60868 1.12321 0
M  V30 3441 O 330.503 1.09634 1.86573 0
M  V30 3442 C 331.098 3.33114 -0.618112 0
M  V30 3443 C 329.657 3.753 -0.287549 0
M  V30 3444 C 328.804 2.62831 -0.884048 0
M  V30 3445 H 331.755 1.28842 -0.926578 0
M  V30 3446 H 331.776 3.80334 0.112349 0
M  V30 3447 H 331.288 3.49553 -1.68625 0
M  V30 3448 H 329.389 3.64451 0.775012 0
M  V30 3449 H 329.502 4.72945 -0.765512 0
M  V30 3450 H 327.866 2.52792 -0.311149 0
M  V30 3451 H 328.649 2.82078 -1.95671 0
M  V30 3452 N 331.094 0.475555 1.50254 0
M  V30 3453 C 332.024 -0.30611 2.31485 0
M  V30 3454 C 333.005 -0.986228 1.38591 0
M  V30 3455 O 334.19 -0.982541 1.67511 0
M  V30 3456 C 331.32 -1.38588 3.1845 0
M  V30 3457 C 330.274 -0.827115 4.19932 0
M  V30 3458 C 329.6 -2.00551 4.95665 0
M  V30 3459 C 330.9 0.16463 5.2204 0
M  V30 3460 H 332.594 0.371866 2.97082 0
M  V30 3461 H 330.14 0.180282 1.42867 0
M  V30 3462 H 332.093 -1.94023 3.74076 0
M  V30 3463 H 330.817 -2.09269 2.50747 0
M  V30 3464 H 329.476 -0.294702 3.65414 0
M  V30 3465 H 329.124 -2.6994 4.2443 0
M  V30 3466 H 328.824 -1.63784 5.64313 0
M  V30 3467 H 330.348 -2.56468 5.54127 0
M  V30 3468 H 331.762 -0.300699 5.72511 0
M  V30 3469 H 330.159 0.446813 5.98434 0
M  V30 3470 H 331.229 1.08905 4.72512 0
M  V30 3471 N 332.573 -1.56217 0.208337 0
M  V30 3472 C 333.536 -2.18455 -0.693557 0
M  V30 3473 C 334.536 -1.14268 -1.13135 0
M  V30 3474 O 335.726 -1.39577 -1.0423 0
M  V30 3475 C 332.858 -2.79727 -1.94848 0
M  V30 3476 H 334.051 -2.99519 -0.15114 0
M  V30 3477 H 331.604 -1.56245 -0.041287 0
M  V30 3478 H 332.339 -2.02497 -2.53309 0
M  V30 3479 H 332.124 -3.56009 -1.64316 0
M  V30 3480 H 333.614 -3.27475 -2.59133 0
M  V30 3481 N 334.051 0.0651679 -1.57465 0
M  V30 3482 C 335.328 0.79644 -1.78651 0
M  V30 3483 C 335.708 1.95454 -0.797566 0
M  V30 3484 O 335.056 2.27882 0.167946 0
M  V30 3485 C 335.266 1.26322 -3.25337 0
M  V30 3486 C 336.614 1.6939 -3.89348 0
M  V30 3487 O 337.638 1.35872 -3.29268 0
M  V30 3488 O 336.497 2.31471 -4.95059 0
M  V30 3489 H 333.591 0.382157 -0.733407 0
M  V30 3490 H 336.137 0.0447311 -1.69641 0
M  V30 3491 H 334.909 0.434859 -3.88876 0
M  V30 3492 H 334.532 2.07604 -3.39096 0
M  V30 3493 N 335.529 1.53961 0.336706 0
M  V30 3494 C 336.945 1.44378 0.680241 0
M  V30 3495 C 337.145 0.606034 1.9217 0
M  V30 3496 O 336.201 0.099688 2.52303 0
M  V30 3497 C 337.514 2.87945 0.8665 0
M  V30 3498 C 339.062 2.97763 0.964682 0
M  V30 3499 C 339.537 4.42453 1.18321 0
M  V30 3500 N 341.028 4.46008 1.25025 0
M  V30 3501 C 341.763 5.55102 1.43697 0
M  V30 3502 N 341.259 6.7419 1.59498 0
M  V30 3503 N 343.052 5.42727 1.463 0
M  V30 3504 H 335.203 2.06918 -0.479455 0
M  V30 3505 H 337.466 0.935634 -0.152619 0
M  V30 3506 H 337.172 3.51691 0.0256937 0
M  V30 3507 H 337.046 3.33293 1.76623 0
M  V30 3508 H 339.433 2.34153 1.796 0
M  V30 3509 H 339.514 2.55766 0.041708 0
M  V30 3510 H 339.158 5.06645 0.356788 0
M  V30 3511 H 339.088 4.82048 2.11985 0
M  V30 3512 H 341.579 3.60196 1.14312 0
M  V30 3513 H 341.892 7.53095 1.734 0
M  V30 3514 H 340.237 6.77123 1.56621 0
M  V30 3515 H 343.428 4.48647 1.33543 0
M  V30 3516 H 343.601 6.27806 1.6051 0
M  V30 3517 N 337.007 -0.598083 1.45811 0
M  V30 3518 C 337.937 -1.71873 1.58057 0
M  V30 3519 C 338.918 -1.64533 0.431615 0
M  V30 3520 O 340.103 -1.82787 0.65595 0
M  V30 3521 C 337.233 -3.10495 1.55597 0
M  V30 3522 C 336.187 -3.32654 2.69305 0
M  V30 3523 C 335.513 -4.71646 2.51902 0
M  V30 3524 C 336.813 -3.21981 4.11248 0
M  V30 3525 H 338.507 -1.61881 2.51863 0
M  V30 3526 H 336.053 -0.777372 1.21214 0
M  V30 3527 H 338.006 -3.88699 1.6276 0
M  V30 3528 H 336.73 -3.2135 0.583255 0
M  V30 3529 H 335.389 -2.56843 2.61586 0
M  V30 3530 H 335.037 -4.79246 1.52748 0
M  V30 3531 H 334.737 -4.87426 3.2816 0
M  V30 3532 H 336.261 -5.52038 2.60933 0
M  V30 3533 H 337.675 -3.90049 4.20161 0
M  V30 3534 H 336.072 -3.49289 4.87972 0
M  V30 3535 H 337.142 -2.1928 4.32486 0
M  V30 3536 N 338.485 -1.33259 -0.841409 0
M  V30 3537 C 339.901 -1.12538 -1.13169 0
M  V30 3538 C 340.101 0.0854037 -2.01319 0
M  V30 3539 O 339.157 0.766417 -2.40587 0
M  V30 3540 C 340.47 -2.41156 -1.79623 0
M  V30 3541 C 342.018 -2.47038 -1.922 0
M  V30 3542 C 342.493 -3.7561 -2.6207 0
M  V30 3543 N 343.984 -3.76667 -2.69585 0
M  V30 3544 C 344.719 -4.72861 -3.2433 0
M  V30 3545 N 344.215 -5.79428 -3.79783 0
M  V30 3546 N 346.008 -4.6034 -3.22558 0
M  V30 3547 H 338.159 -2.10868 -0.254676 0
M  V30 3548 H 340.422 -0.931615 -0.175493 0
M  V30 3549 H 340.128 -3.29747 -1.22311 0
M  V30 3550 H 340.002 -2.53114 -2.79666 0
M  V30 3551 H 342.389 -1.58898 -2.48667 0
M  V30 3552 H 342.47 -2.39022 -0.911148 0
M  V30 3553 H 342.114 -4.64131 -2.06263 0
M  V30 3554 H 342.044 -3.80902 -3.63622 0
M  V30 3555 H 344.535 -2.99648 -2.30259 0
M  V30 3556 H 344.848 -6.48867 -4.19752 0
M  V30 3557 H 343.193 -5.83166 -3.78078 0
M  V30 3558 H 346.384 -3.76244 -2.78492 0
M  V30 3559 H 346.557 -5.35478 -3.64921 0
M  V30 3560 N 339.963 1.05934 -1.16686 0
M  V30 3561 C 341.374 1.60263 -0.957745 0
M  V30 3562 C 341.725 1.89789 0.49745 0
M  V30 3563 O 340.85 1.67401 1.37135 0
M  V30 3564 C 341.445 2.91172 -1.73218 0
M  V30 3565 C 340.004 3.42188 -1.56794 0
M  V30 3566 C 339.151 2.16028 -1.73859 0
M  V30 3567 H 342.102 0.888392 -1.31504 0
M  V30 3568 H 342.123 3.60744 -1.21014 0
M  V30 3569 H 341.635 2.6965 -2.79124 0
M  V30 3570 H 339.736 3.68762 -0.533437 0
M  V30 3571 H 339.849 4.17273 -2.35414 0
M  V30 3572 H 338.213 2.26426 -1.16633 0
M  V30 3573 H 338.996 1.96985 -2.81161 0
M  V30 3574 N 341.441 0.965919 1.2453 0
M  V30 3575 C 342.687 0.62776 1.92839 0
M  V30 3576 C 343.02 -0.834694 1.75347 0
M  V30 3577 O 342.295 -1.60031 1.10546 0
M  V30 3578 C 342.578 1.00109 3.45905 0
M  V30 3579 C 342.431 2.52011 3.72573 0
M  V30 3580 C 343.75 0.53435 4.36844 0
M  V30 3581 H 340.869 0.229537 0.700344 0
M  V30 3582 H 343.511 1.2046 1.46933 0
M  V30 3583 H 341.661 0.510238 3.85135 0
M  V30 3584 H 343.333 3.08559 3.42912 0
M  V30 3585 H 341.576 2.95287 3.17786 0
M  V30 3586 H 342.247 2.73183 4.79661 0
M  V30 3587 H 344.723 0.955565 4.04979 0
M  V30 3588 H 343.599 0.824152 5.42678 0
M  V30 3589 H 343.86 -0.565589 4.38467 0
M  V30 3590 N 342.919 -1.39368 0.735821 0
M  V30 3591 C 343.852 -2.28155 0.0451175 0
M  V30 3592 C 344.83 -1.44433 -0.746852 0
M  V30 3593 O 346.014 -1.73823 -0.729237 0
M  V30 3594 C 343.141 -3.253 -0.943266 0
M  V30 3595 C 342.187 -4.25826 -0.239685 0
M  V30 3596 S 343.02 -5.25166 1.04693 0
M  V30 3597 C 344.176 -6.2587 0.0611639 0
M  V30 3598 H 344.409 -2.86388 0.79807 0
M  V30 3599 H 341.942 -1.45104 0.527653 0
M  V30 3600 H 343.9 -3.81789 -1.50824 0
M  V30 3601 H 342.561 -2.66085 -1.66906 0
M  V30 3602 H 341.754 -4.94229 -0.987596 0
M  V30 3603 H 341.356 -3.73141 0.253274 0
M  V30 3604 H 343.648 -6.73007 -0.778941 0
M  V30 3605 H 344.591 -7.04508 0.712362 0
M  V30 3606 H 344.999 -5.63639 -0.311602 0
M  V30 3607 N 344.397 -0.483516 -1.5 0
M  V30 3608 C 345.625 0.0644831 -2.06799 0
M  V30 3609 C 346.04 1.32399 -1.34596 0
M  V30 3610 O 345.397 1.77626 -0.418946 0
M  V30 3611 C 345.448 0.339927 -3.59898 0
M  V30 3612 O 345.169 -0.869635 -4.29382 0
M  V30 3613 C 346.67 0.933515 -4.33359 0
M  V30 3614 H 343.89 -0.0126333 -0.670881 0
M  V30 3615 H 346.434 -0.675864 -1.93009 0
M  V30 3616 H 344.589 1.03022 -3.7345 0
M  V30 3617 H 345.003 -0.62179 -5.20801 0
M  V30 3618 H 346.477 1.07593 -5.41413 0
M  V30 3619 H 346.954 1.92685 -3.94676 0
M  V30 3620 H 347.56 0.281221 -4.24369 0
M  V30 3621 N 345.875 1.56104 -0.216619 0
M  V30 3622 C 346.805 2.23063 0.690296 0
M  V30 3623 C 347.786 1.20072 1.20485 0
M  V30 3624 O 348.971 1.48643 1.24976 0
M  V30 3625 C 346.101 2.90672 1.90072 0
M  V30 3626 C 345.055 4.00092 1.5202 0
M  V30 3627 C 344.381 4.54972 2.80899 0
M  V30 3628 C 345.681 5.17398 0.71391 0
M  V30 3629 H 347.375 2.99109 0.132038 0
M  V30 3630 H 344.921 1.43866 0.0620664 0
M  V30 3631 H 346.874 3.36204 2.54057 0
M  V30 3632 H 345.598 2.12066 2.48386 0
M  V30 3633 H 344.257 3.55283 0.903839 0
M  V30 3634 H 343.905 3.73102 3.37348 0
M  V30 3635 H 343.605 5.28817 2.56176 0
M  V30 3636 H 345.129 5.0322 3.45836 0
M  V30 3637 H 346.543 5.59342 1.25735 0
M  V30 3638 H 344.94 5.97444 0.563951 0
M  V30 3639 H 346.01 4.84088 -0.280527 0
M  V30 3640 N 347.353 -0.0568162 1.57498 0
M  V30 3641 C 348.263 -1.08346 2.08083 0
M  V30 3642 C 349.279 -1.41439 1.01346 0
M  V30 3643 O 350.455 -1.51316 1.32912 0
M  V30 3644 C 347.52 -2.37352 2.52715 0
M  V30 3645 C 346.581 -2.11093 3.73816 0
M  V30 3646 C 345.814 -3.33949 4.1631 0
M  V30 3647 O 346.037 -4.43622 3.58547 0
M  V30 3648 O 344.971 -3.21279 5.08983 0
M  V30 3649 H 348.797 -0.683667 2.95905 0
M  V30 3650 H 346.382 -0.271965 1.46904 0
M  V30 3651 H 348.264 -3.13246 2.81877 0
M  V30 3652 H 346.939 -2.76681 1.68016 0
M  V30 3653 H 345.846 -1.32856 3.49714 0
M  V30 3654 H 347.179 -1.76637 4.59413 0
M  V30 3655 N 348.832 -1.54138 -0.328536 0
M  V30 3656 C 350.057 -1.76378 -1.09112 0
M  V30 3657 C 350.482 -0.508596 -1.81094 0
M  V30 3658 O 349.84 0.539598 -1.73084 0
M  V30 3659 C 349.888 -2.95358 -2.06872 0
M  V30 3660 O 348.992 -2.66556 -3.14677 0
M  V30 3661 H 348.333 -0.584614 -0.314838 0
M  V30 3662 H 350.863 -2.01146 -0.374348 0
M  V30 3663 H 350.873 -3.22566 -2.4983 0
M  V30 3664 H 349.548 -3.86385 -1.5388 0
M  V30 3665 H 348.125 -2.50282 -2.7643 0
M  V30 3666 N 350.31 0.590341 -1.46126 0
M  V30 3667 C 351.257 1.69994 -1.56111 0
M  V30 3668 C 352.227 1.61065 -0.405867 0
M  V30 3669 O 353.412 1.8039 -0.621613 0
M  V30 3670 C 350.552 3.08326 -1.55013 0
M  V30 3671 C 349.665 3.27936 -2.81215 0
M  V30 3672 C 348.8 4.56473 -2.71673 0
M  V30 3673 C 347.839 4.694 -3.92849 0
M  V30 3674 N 346.976 5.89254 -3.81738 0
M  V30 3675 H 351.816 1.60797 -2.50895 0
M  V30 3676 H 349.353 0.783799 -1.24479 0
M  V30 3677 H 351.311 3.88383 -1.52362 0
M  V30 3678 H 349.941 3.16439 -0.637667 0
M  V30 3679 H 348.993 2.41536 -2.93879 0
M  V30 3680 H 350.305 3.33357 -3.71045 0
M  V30 3681 H 349.459 5.44748 -2.67085 0
M  V30 3682 H 348.198 4.53477 -1.7947 0
M  V30 3683 H 347.203 3.79544 -3.97777 0
M  V30 3684 H 348.428 4.7418 -4.86138 0
M  V30 3685 H 346.374 5.87271 -2.92317 0
M  V30 3686 H 346.291 5.95911 -4.65217 0
M  V30 3687 H 347.559 6.79981 -3.81112 0
M  V30 3688 N 351.788 1.33704 0.83433 0
M  V30 3689 C 353.034 1.25603 1.59222 0
M  V30 3690 C 353.367 -0.176659 1.93395 0
M  V30 3691 O 352.642 -1.11915 1.59076 0
M  V30 3692 C 352.925 2.13576 2.89926 0
M  V30 3693 C 352.778 3.65326 2.62406 0
M  V30 3694 C 354.097 2.01238 3.91397 0
M  V30 3695 H 351.216 0.457613 0.577719 0
M  V30 3696 H 353.858 1.63848 0.961972 0
M  V30 3697 H 352.008 1.8109 3.43713 0
M  V30 3698 H 353.68 4.08124 2.15017 0
M  V30 3699 H 351.923 3.8698 1.96033 0
M  V30 3700 H 352.594 4.22232 3.55562 0
M  V30 3701 H 355.07 2.29738 3.46929 0
M  V30 3702 H 353.946 2.65036 4.80673 0
M  V30 3703 H 354.207 0.985951 4.30966 0
M  V30 3704 N 353.266 -1.05314 1.17247 0
M  V30 3705 C 354.515 -1.77685 0.954521 0
M  V30 3706 C 354.828 -1.88616 -0.518025 0
M  V30 3707 O 356.034 -2.57714 -0.854144 0
M  V30 3708 C 354.49 -3.19402 1.65863 0
M  V30 3709 C 354.098 -3.16605 3.16963 0
M  V30 3710 C 355.842 -3.96237 1.52303 0
M  V30 3711 C 353.749 -4.53103 3.80068 0
M  V30 3712 H 352.679 -0.666 0.353496 0
M  V30 3713 H 355.33 -1.1805 1.40486 0
M  V30 3714 H 353.712 -3.79355 1.13602 0
M  V30 3715 H 354.886 -2.66176 3.76148 0
M  V30 3716 H 353.201 -2.53268 3.30521 0
M  V30 3717 H 355.798 -4.97157 1.96822 0
M  V30 3718 H 356.141 -4.136 0.473401 0
M  V30 3719 H 356.674 -3.42829 2.01775 0
M  V30 3720 H 353.413 -4.40946 4.85023 0
M  V30 3721 H 352.933 -5.03686 3.2567 0
M  V30 3722 H 354.612 -5.22045 3.82202 0
M  V30 3723 N 354.744 -0.972509 -1.24016 0
M  V30 3724 C 355.969 -0.654417 -1.96805 0
M  V30 3725 C 356.394 0.770398 -1.716 0
M  V30 3726 O 355.752 1.52361 -0.982647 0
M  V30 3727 C 355.8 -0.941031 -3.48105 0
M  V30 3728 O 354.904 -0.0289472 -4.1239 0
M  V30 3729 H 354.245 -0.24692 -0.616382 0
M  V30 3730 H 356.775 -1.30396 -1.57664 0
M  V30 3731 H 356.785 -0.87452 -3.98517 0
M  V30 3732 H 355.46 -1.97939 -3.65777 0
M  V30 3733 H 354.037 -0.149192 -3.72601 0
M  V30 3734 N 356.222 1.38976 -0.743202 0
M  V30 3735 C 357.468 2.0064 -0.295189 0
M  V30 3736 C 357.801 1.5885 1.11716 0
M  V30 3737 O 357.076 0.821181 1.76315 0
M  V30 3738 C 357.359 3.578 -0.406318 0
M  V30 3739 C 357.212 4.09586 -1.85903 0
M  V30 3740 C 358.531 4.39616 0.206439 0
M  V30 3741 H 355.65 0.728935 -0.108733 0
M  V30 3742 H 358.292 1.65067 -0.940897 0
M  V30 3743 H 356.442 3.88235 0.143419 0
M  V30 3744 H 358.114 3.89837 -2.46627 0
M  V30 3745 H 356.357 3.6284 -2.3776 0
M  V30 3746 H 357.028 5.18708 -1.888 0
M  V30 3747 H 359.504 4.15273 -0.262283 0
M  V30 3748 H 358.38 5.48812 0.0983819 0
M  V30 3749 H 358.641 4.22754 1.2935 0
M  V30 3750 N 357.7 0.491464 1.49741 0
M  V30 3751 C 359.116 0.146835 1.58923 0
M  V30 3752 C 359.316 -1.34804 1.49767 0
M  V30 3753 O 358.372 -2.12317 1.36667 0
M  V30 3754 C 359.685 0.715157 2.92072 0
M  V30 3755 C 361.233 0.680407 3.05515 0
M  V30 3756 C 361.708 1.22663 4.41269 0
M  V30 3757 N 363.199 1.18691 4.47735 0
M  V30 3758 C 363.934 1.57984 5.51207 0
M  V30 3759 N 363.43 2.04824 6.6183 0
M  V30 3760 N 365.223 1.49459 5.41866 0
M  V30 3761 H 357.374 1.46347 1.53936 0
M  V30 3762 H 359.637 0.606453 0.728642 0
M  V30 3763 H 359.343 1.76317 3.04311 0
M  V30 3764 H 359.217 0.17018 3.76816 0
M  V30 3765 H 361.604 -0.358743 2.92911 0
M  V30 3766 H 361.685 1.26242 2.22478 0
M  V30 3767 H 361.329 2.26451 4.54623 0
M  V30 3768 H 361.259 0.620637 5.2293 0
M  V30 3769 H 363.75 0.843605 3.68364 0
M  V30 3770 H 364.063 2.32901 7.3687 0
M  V30 3771 H 362.408 2.08791 6.62896 0
M  V30 3772 H 365.599 1.12692 4.54333 0
M  V30 3773 H 365.772 1.80406 6.22381 0
M  V30 3774 N 359.178 -1.55987 0.224894 0
M  V30 3775 C 360.455 -1.90232 -0.455083 0
M  V30 3776 C 360.835 -1.14269 -1.77499 0
M  V30 3777 O 360.183 -0.253079 -2.27094 0
M  V30 3778 C 360.393 -3.42993 -0.644758 0
M  V30 3779 C 361.741 -4.13821 -0.950669 0
M  V30 3780 O 362.765 -3.4861 -0.731423 0
M  V30 3781 O 361.624 -5.29128 -1.36695 0
M  V30 3782 H 358.718 -0.79108 -0.241084 0
M  V30 3783 H 361.264 -1.67581 0.267327 0
M  V30 3784 H 360.036 -3.90252 0.28613 0
M  V30 3785 H 359.659 -3.71434 -1.41853 0
M  V30 3786 N 360.656 0.0484629 -1.57525 0
M  V30 3787 C 361.586 1.0549 -2.08313 0
M  V30 3788 C 362.567 1.38929 -0.981463 0
M  V30 3789 O 363.752 1.48151 -1.25558 0
M  V30 3790 C 360.882 2.36162 -2.54646 0
M  V30 3791 C 359.836 2.17016 -3.68901 0
M  V30 3792 C 359.162 3.53278 -4.01371 0
M  V30 3793 C 360.462 1.57219 -4.98076 0
M  V30 3794 H 362.156 0.632195 -2.92649 0
M  V30 3795 H 359.702 0.302654 -1.40784 0
M  V30 3796 H 361.655 3.06882 -2.88793 0
M  V30 3797 H 360.379 2.80456 -1.67368 0
M  V30 3798 H 359.038 1.48733 -3.35073 0
M  V30 3799 H 358.686 3.95185 -3.11188 0
M  V30 3800 H 358.386 3.41299 -4.78318 0
M  V30 3801 H 359.91 4.25391 -4.38035 0
M  V30 3802 H 361.324 2.17832 -5.30304 0
M  V30 3803 H 359.721 1.55871 -5.79503 0
M  V30 3804 H 360.791 0.535956 -4.81929 0
M  V30 3805 N 362.134 1.5431 0.320358 0
M  V30 3806 C 363.545 1.63872 0.894594 0
M  V30 3807 C 363.896 0.534847 1.88769 0
M  V30 3808 O 363.021 -0.331732 2.13842 0
M  V30 3809 C 363.616 2.97049 1.62934 0
M  V30 3810 C 362.175 3.08796 2.15226 0
M  V30 3811 C 361.322 2.59456 0.978671 0
M  V30 3812 H 364.273 1.58398 0.0978544 0
M  V30 3813 H 364.294 2.87388 2.49376 0
M  V30 3814 H 363.806 3.7737 0.906302 0
M  V30 3815 H 361.907 2.33156 2.90636 0
M  V30 3816 H 362.02 4.14649 2.40006 0
M  V30 3817 H 360.384 2.1543 1.35875 0
M  V30 3818 H 361.167 3.42237 0.269895 0
M  V30 3819 N 363.613 -0.582584 1.46437 0
M  V30 3820 C 364.576 -1.67366 1.56592 0
M  V30 3821 C 365.576 -1.54575 0.443072 0
M  V30 3822 O 366.766 -1.59191 0.707381 0
M  V30 3823 C 363.898 -3.06791 1.48634 0
M  V30 3824 H 365.091 -1.5972 2.5383 0
M  V30 3825 H 362.644 -0.800432 1.34249 0
M  V30 3826 H 363.379 -3.19993 0.526763 0
M  V30 3827 H 363.164 -3.17484 2.30101 0
M  V30 3828 H 364.654 -3.86218 1.58826 0
M  V30 3829 N 365.091 -1.34144 -0.827227 0
M  V30 3830 C 366.339 -1.26009 -1.58007 0
M  V30 3831 C 366.66 0.170971 -1.94249 0
M  V30 3832 O 365.93 1.10256 -1.61927 0
M  V30 3833 H 364.51 -0.463414 -0.585881 0
M  V30 3834 H 367.172 -1.68005 -0.987951 0
M  V30 3835 H 366.268 -1.86187 -2.50481 0
M  V30 3836 N 366.569 1.04691 -1.17803 0
M  V30 3837 C 367.479 2.16057 -0.914151 0
M  V30 3838 C 368.495 1.73589 0.119503 0
M  V30 3839 O 369.671 2.01308 -0.0609468 0
M  V30 3840 C 366.736 3.4394 -0.436603 0
M  V30 3841 C 365.797 4.00825 -1.53746 0
M  V30 3842 C 365.03 5.22604 -1.0826 0
M  V30 3843 O 365.253 5.70367 0.0612244 0
M  V30 3844 O 364.187 5.7186 -1.87775 0
M  V30 3845 H 368.013 2.41169 -1.84584 0
M  V30 3846 H 365.598 1.1453 -0.959334 0
M  V30 3847 H 367.48 4.21024 -0.178057 0
M  V30 3848 H 366.155 3.20316 0.466869 0
M  V30 3849 H 365.062 3.25158 -1.84995 0
M  V30 3850 H 366.395 4.28778 -2.41683 0
M  V30 3851 N 368.047 0.979072 1.23499 0
M  V30 3852 C 369.458 0.684391 1.73704 0
M  V30 3853 C 369.809 -0.799448 1.79174 0
M  V30 3854 O 368.934 -1.62531 1.42873 0
M  V30 3855 C 369.529 1.23564 3.15464 0
M  V30 3856 C 368.088 0.99063 3.6313 0
M  V30 3857 C 367.235 1.36416 2.41425 0
M  V30 3858 H 370.186 1.15307 1.09041 0
M  V30 3859 H 370.207 0.607417 3.7562 0
M  V30 3860 H 369.719 2.31561 3.1145 0
M  V30 3861 H 367.82 -0.0733136 3.72528 0
M  V30 3862 H 367.933 1.64427 4.5 0
M  V30 3863 H 366.297 0.782616 2.42378 0
M  V30 3864 H 367.08 2.45387 2.40083 0
M  V30 3865 N 369.525 -1.3858 0.750561 0
M  V30 3866 C 370.771 -2.00481 0.305825 0
M  V30 3867 C 371.104 -1.5944 -1.10872 0
M  V30 3868 O 370.379 -0.83052 -1.75877 0
M  V30 3869 C 370.662 -3.5758 0.425287 0
M  V30 3870 C 370.515 -4.08594 1.88072 0
M  V30 3871 C 371.834 -4.39719 -0.183122 0
M  V30 3872 H 368.953 -0.728348 0.112598 0
M  V30 3873 H 371.595 -1.64566 0.949638 0
M  V30 3874 H 369.745 -3.88306 -0.122828 0
M  V30 3875 H 371.417 -3.88523 2.48691 0
M  V30 3876 H 369.66 -3.61574 2.39681 0
M  V30 3877 H 370.331 -5.177 1.91548 0
M  V30 3878 H 372.807 -4.15128 0.284303 0
M  V30 3879 H 371.683 -5.48856 -0.0692757 0
M  V30 3880 H 371.944 -4.23434 -1.27106 0
M  V30 3881 N 371.003 -0.499398 -1.49478 0
M  V30 3882 C 372.251 0.0455996 -2.02049 0
M  V30 3883 C 372.572 1.37633 -1.38138 0
M  V30 3884 O 371.842 1.8842 -0.536166 0
M  V30 3885 H 370.422 0.0198416 -0.746736 0
M  V30 3886 H 373.084 -0.656274 -1.83519 0
M  V30 3887 H 372.18 0.176445 -3.11601 0
M  V30 3888 N 372.481 1.55866 -0.233164 0
M  V30 3889 C 373.711 2.02704 0.399325 0
M  V30 3890 C 374.119 1.11204 1.53069 0
M  V30 3891 O 373.462 0.116182 1.83332 0
M  V30 3892 C 373.524 3.45844 0.981429 0
M  V30 3893 C 373.188 4.56997 -0.0159561 0
M  V30 3894 C 374.185 5.13384 -0.820552 0
M  V30 3895 C 371.87 5.0211 -0.138072 0
M  V30 3896 C 373.864 6.13365 -1.73386 0
M  V30 3897 C 371.551 6.01926 -1.0549 0
M  V30 3898 C 372.549 6.57431 -1.85132 0
M  V30 3899 O 372.237 7.55302 -2.75272 0
M  V30 3900 H 371.969 0.668459 0.100692 0
M  V30 3901 H 374.523 2.02387 -0.35052 0
M  V30 3902 H 372.753 3.43267 1.78058 0
M  V30 3903 H 374.442 3.76262 1.52255 0
M  V30 3904 H 375.208 4.79372 -0.736721 0
M  V30 3905 H 371.087 4.5858 0.471737 0
M  V30 3906 H 374.631 6.56614 -2.35592 0
M  V30 3907 H 370.528 6.35359 -1.1397 0
M  V30 3908 H 371.296 7.72867 -2.69477 0
M  V30 3909 N 373.959 -0.0401083 1.57549 0
M  V30 3910 C 375.207 -0.731677 1.8839 0
M  V30 3911 C 375.528 -1.76481 0.829425 0
M  V30 3912 O 374.798 -1.95411 -0.1383 0
M  V30 3913 H 373.378 -0.273225 0.695239 0
M  V30 3914 H 376.04 -0.00867725 1.94898 0
M  V30 3915 H 375.136 -1.22816 2.86919 0
M  V30 3916 N 375.437 -1.54477 -0.31217 0
M  V30 3917 C 376.4 -1.83923 -1.36766 0
M  V30 3918 C 377.4 -0.711563 -1.44199 0
M  V30 3919 O 378.59 -0.979866 -1.44029 0
M  V30 3920 C 375.722 -2.0095 -2.75376 0
M  V30 3921 H 376.915 -2.78239 -1.11906 0
M  V30 3922 H 374.468 -1.46369 -0.548257 0
M  V30 3923 H 375.203 -1.08883 -3.05475 0
M  V30 3924 H 374.988 -2.83018 -2.71373 0
M  V30 3925 H 376.478 -2.2514 -3.51713 0
M  V30 3926 N 376.915 0.57481 -1.46744 0
M  V30 3927 C 378.331 0.898981 -1.31873 0
M  V30 3928 C 378.531 1.99313 -0.29605 0
M  V30 3929 O 377.587 2.50728 0.298621 0
M  V30 3930 C 378.9 1.30886 -2.7072 0
M  V30 3931 C 380.448 1.42127 -2.78871 0
M  V30 3932 C 380.923 1.86478 -4.18318 0
M  V30 3933 N 382.414 1.93658 -4.20774 0
M  V30 3934 C 383.149 2.29267 -5.2557 0
M  V30 3935 N 382.645 2.63612 -6.40688 0
M  V30 3936 N 384.438 2.29889 -5.1294 0
M  V30 3937 H 376.589 -0.147839 -2.11885 0
M  V30 3938 H 378.852 -0.00347013 -0.947994 0
M  V30 3939 H 378.558 0.578853 -3.46904 0
M  V30 3940 H 378.432 2.26874 -3.01343 0
M  V30 3941 H 380.819 2.14213 -2.0297 0
M  V30 3942 H 380.9 0.443705 -2.51922 0
M  V30 3943 H 380.544 1.14968 -4.94717 0
M  V30 3944 H 380.474 2.85207 -4.42679 0
M  V30 3945 H 382.965 1.69574 -3.37718 0
M  V30 3946 H 383.278 2.89759 -7.16421 0
M  V30 3947 H 381.623 2.61232 -6.44036 0
M  V30 3948 H 384.814 2.02485 -4.22039 0
M  V30 3949 H 384.987 2.57312 -5.94722 0
M  V30 3950 N 378.394 1.34581 0.820102 0
M  V30 3951 C 379.624 1.29991 1.6058 0
M  V30 3952 C 380.032 -0.127588 1.88769 0
M  V30 3953 O 379.375 -1.08595 1.48165 0
M  V30 3954 C 379.437 2.02548 2.9701 0
M  V30 3955 C 379.101 3.51794 2.91701 0
M  V30 3956 C 380.098 4.46647 2.66087 0
M  V30 3957 C 377.783 3.94249 3.11245 0
M  V30 3958 C 379.777 5.81929 2.60071 0
M  V30 3959 C 377.464 5.2963 3.04853 0
M  V30 3960 C 378.462 6.23282 2.793 0
M  V30 3961 O 378.15 7.56181 2.72847 0
M  V30 3962 H 377.882 0.448539 0.505756 0
M  V30 3963 H 380.436 1.77811 1.02822 0
M  V30 3964 H 378.666 1.49345 3.56697 0
M  V30 3965 H 380.355 1.91211 3.58041 0
M  V30 3966 H 381.121 4.15168 2.5072 0
M  V30 3967 H 377 3.21749 3.30149 0
M  V30 3968 H 380.544 6.54999 2.40046 0
M  V30 3969 H 376.441 5.60727 3.19774 0
M  V30 3970 H 377.209 7.6595 2.88553 0
M  V30 3971 N 379.872 -1.04064 1.18357 0
M  V30 3972 C 381.097 -1.81454 1.00445 0
M  V30 3973 C 381.522 -1.82823 -0.442423 0
M  V30 3974 O 380.88 -1.24555 -1.31741 0
M  V30 3975 C 380.928 -3.24925 1.56384 0
M  V30 3976 O 380.032 -4.04856 0.785209 0
M  V30 3977 H 379.373 -0.560604 0.355835 0
M  V30 3978 H 381.903 -1.31059 1.57114 0
M  V30 3979 H 381.913 -3.75702 1.59097 0
M  V30 3980 H 380.588 -3.23244 2.61699 0
M  V30 3981 H 379.165 -3.63537 0.830399 0
M  V30 3982 N 381.35 -0.985608 -1.22978 0
M  V30 3983 C 382.578 -0.675582 -1.95559 0
M  V30 3984 C 382.993 0.758413 -1.72897 0
M  V30 3985 O 382.35 1.51094 -1.02357 0
M  V30 3986 C 382.401 -0.96293 -3.48439 0
M  V30 3987 O 382.122 -2.34057 -3.70336 0
M  V30 3988 C 383.623 -0.669585 -4.38214 0
M  V30 3989 H 380.843 -0.250523 -0.622478 0
M  V30 3990 H 383.387 -1.3184 -1.56328 0
M  V30 3991 H 381.542 -0.366033 -3.85667 0
M  V30 3992 H 381.956 -2.43424 -4.64591 0
M  V30 3993 H 383.43 -0.920967 -5.44263 0
M  V30 3994 H 383.907 0.396383 -4.37408 0
M  V30 3995 H 384.513 -1.2472 -4.06602 0
M  V30 3996 N 382.828 1.3818 -0.7579 0
M  V30 3997 C 383.738 2.3421 -0.135247 0
M  V30 3998 C 384.754 1.59487 0.695683 0
M  V30 3999 O 385.93 1.91657 0.618832 0
M  V30 4000 C 382.995 3.3862 0.744139 0
M  V30 4001 C 382.056 4.2918 -0.101658 0
M  V30 4002 C 381.289 5.28603 0.735851 0
M  V30 4003 O 381.512 5.35166 1.97366 0
M  V30 4004 O 380.446 6.01707 0.152372 0
M  V30 4005 H 384.272 2.8916 -0.928436 0
M  V30 4006 H 381.857 1.40101 -0.518855 0
M  V30 4007 H 383.739 4.02539 1.2466 0
M  V30 4008 H 382.414 2.86019 1.51575 0
M  V30 4009 H 381.321 3.68407 -0.650167 0
M  V30 4010 H 382.654 4.85048 -0.836024 0
M  V30 4011 N 384.306 0.507319 1.49211 0
M  V30 4012 C 385.722 0.163682 1.58758 0
M  V30 4013 C 385.922 -1.33208 1.51188 0
M  V30 4014 O 384.978 -2.10855 1.38911 0
M  V30 4015 C 386.291 0.746095 2.91297 0
M  V30 4016 C 387.839 0.712773 3.04776 0
M  V30 4017 C 388.314 1.27336 4.39943 0
M  V30 4018 N 389.805 1.23433 4.46451 0
M  V30 4019 C 390.54 1.63821 5.495 0
M  V30 4020 N 390.036 2.11832 6.5962 0
M  V30 4021 N 391.829 1.55198 5.4025 0
M  V30 4022 H 383.98 1.47972 1.52375 0
M  V30 4023 H 386.243 0.614147 0.722168 0
M  V30 4024 H 385.949 1.79534 3.02424 0
M  V30 4025 H 385.823 0.210137 3.76614 0
M  V30 4026 H 388.21 -0.327656 2.93275 0
M  V30 4027 H 388.291 1.28595 2.21127 0
M  V30 4028 H 387.935 2.3126 4.52196 0
M  V30 4029 H 387.865 0.676066 5.22242 0
M  V30 4030 H 390.356 0.882627 3.67448 0
M  V30 4031 H 390.669 2.40703 7.34358 0
M  V30 4032 H 389.014 2.1581 6.60644 0
M  V30 4033 H 392.205 1.17505 4.53112 0
M  V30 4034 H 392.378 1.86997 6.20432 0
M  V30 4035 N 385.784 -1.5574 0.241426 0
M  V30 4036 C 387.009 -2.0366 -0.392111 0
M  V30 4037 C 387.434 -1.11969 -1.51144 0
M  V30 4038 O 386.792 -0.111594 -1.80956 0
M  V30 4039 C 386.84 -3.49638 -0.882371 0
M  V30 4040 O 385.944 -3.6108 -1.99235 0
M  V30 4041 H 385.285 -0.658379 -0.0862122 0
M  V30 4042 H 387.815 -2.01302 0.365881 0
M  V30 4043 H 387.825 -3.90351 -1.18702 0
M  V30 4044 H 386.5 -4.15852 -0.0632361 0
M  V30 4045 H 385.077 -3.32262 -1.69282 0
M  V30 4046 N 387.262 0.0317525 -1.57568 0
M  V30 4047 C 388.194 1.06073 -2.03178 0
M  V30 4048 C 389.207 1.32627 -0.944132 0
M  V30 4049 O 390.396 1.30162 -1.22148 0
M  V30 4050 C 387.496 2.40297 -2.38978 0
M  V30 4051 C 386.669 2.33137 -3.70089 0
M  V30 4052 C 385.728 3.49787 -3.9311 0
M  V30 4053 O 384.754 3.29403 -4.64201 0
M  V30 4054 N 385.956 4.71562 -3.38541 0
M  V30 4055 H 388.721 0.672006 -2.92069 0
M  V30 4056 H 386.282 0.219745 -1.60402 0
M  V30 4057 H 388.274 3.1705 -2.51518 0
M  V30 4058 H 386.844 2.71024 -1.55771 0
M  V30 4059 H 386.064 1.415 -3.67928 0
M  V30 4060 H 387.352 2.25493 -4.56104 0
M  V30 4061 H 386.75 4.91024 -2.80912 0
M  V30 4062 H 385.307 5.45689 -3.56464 0
M  V30 4063 N 388.74 1.54641 0.303973 0
M  V30 4064 C 390.156 1.45788 0.649463 0
M  V30 4065 C 390.356 0.64666 1.90842 0
M  V30 4066 O 389.412 0.153183 2.52035 0
M  V30 4067 C 390.725 2.89718 0.805227 0
M  V30 4068 C 392.273 2.99742 0.901305 0
M  V30 4069 C 392.748 4.44863 1.08909 0
M  V30 4070 N 394.239 4.48559 1.15536 0
M  V30 4071 C 394.974 5.58026 1.3189 0
M  V30 4072 N 394.47 6.77422 1.45161 0
M  V30 4073 N 396.263 5.45708 1.34755 0
M  V30 4074 H 388.414 2.05854 -0.523237 0
M  V30 4075 H 390.677 0.932186 -0.172431 0
M  V30 4076 H 390.383 3.51666 -0.0489108 0
M  V30 4077 H 390.257 3.36964 1.69513 0
M  V30 4078 H 392.644 2.3791 1.74593 0
M  V30 4079 H 392.725 2.55797 -0.0125531 0
M  V30 4080 H 392.369 5.07288 0.249241 0
M  V30 4081 H 392.299 4.86436 2.01713 0
M  V30 4082 H 394.79 3.6254 1.06646 0
M  V30 4083 H 395.103 7.56604 1.57387 0
M  V30 4084 H 393.448 6.80292 1.42223 0
M  V30 4085 H 396.639 4.51378 1.23996 0
M  V30 4086 H 396.812 6.3107 1.47157 0
M  V30 4087 N 390.218 -0.567019 1.47046 0
M  V30 4088 C 391.467 -1.32091 1.5243 0
M  V30 4089 C 391.78 -1.94704 0.187021 0
M  V30 4090 O 392.986 -2.7124 0.118771 0
M  V30 4091 C 391.442 -2.39479 2.68659 0
M  V30 4092 C 391.05 -1.831 4.08874 0
M  V30 4093 C 392.794 -3.16111 2.83327 0
M  V30 4094 C 390.701 -2.8821 5.16419 0
M  V30 4095 H 389.631 -0.496629 0.56734 0
M  V30 4096 H 392.282 -0.603354 1.73297 0
M  V30 4097 H 390.664 -3.14105 2.41152 0
M  V30 4098 H 391.838 -1.14913 4.46242 0
M  V30 4099 H 390.153 -1.19085 3.99008 0
M  V30 4100 H 392.75 -3.94585 3.60842 0
M  V30 4101 H 393.093 -3.69686 1.91411 0
M  V30 4102 H 393.626 -2.48595 3.10556 0
M  V30 4103 H 390.365 -2.39504 6.10179 0
M  V30 4104 H 389.885 -3.54839 4.8358 0
M  V30 4105 H 391.564 -3.51881 5.42945 0
M  V30 4106 N 391.696 -1.35014 -0.812953 0
M  V30 4107 C 392.944 -1.27678 -1.56661 0
M  V30 4108 C 393.265 0.150359 -1.94419 0
M  V30 4109 O 392.535 1.08532 -1.63088 0
M  V30 4110 H 391.115 -0.469602 -0.580933 0
M  V30 4111 H 393.777 -1.69043 -0.970076 0
M  V30 4112 H 392.873 -1.88833 -2.48492 0
M  V30 4113 N 393.175 1.03435 -1.18907 0
M  V30 4114 C 394.421 1.77005 -0.989798 0
M  V30 4115 C 394.754 1.88205 0.478816 0
M  V30 4116 O 394.029 1.39481 1.35556 0
M  V30 4117 C 394.312 3.19925 -1.65287 0
M  V30 4118 C 394.165 3.1663 -3.19477 0
M  V30 4119 C 395.484 4.18189 -1.37134 0
M  V30 4120 H 392.603 0.642538 -0.360991 0
M  V30 4121 H 395.245 1.20784 -1.46667 0
M  V30 4122 H 393.395 3.67929 -1.24741 0
M  V30 4123 H 395.067 2.76567 -3.692 0
M  V30 4124 H 393.31 2.54491 -3.51307 0
M  V30 4125 H 393.981 4.1758 -3.61013 0
M  V30 4126 H 396.457 3.78761 -1.72276 0
M  V30 4127 H 395.333 5.16394 -1.86087 0
M  V30 4128 H 395.594 4.41112 -0.295424 0
M  V30 4129 N 394.653 0.992116 1.22453 0
M  V30 4130 C 395.899 0.668523 1.91464 0
M  V30 4131 C 396.232 -0.797313 1.77078 0
M  V30 4132 O 395.507 -1.5765 1.13916 0
M  V30 4133 C 395.79 1.07424 3.43703 0
M  V30 4134 C 395.643 2.59857 3.67143 0
M  V30 4135 C 396.962 0.626891 4.35612 0
M  V30 4136 H 394.081 0.244341 0.695318 0
M  V30 4137 H 396.723 1.2355 1.44345 0
M  V30 4138 H 394.873 0.591816 3.83966 0
M  V30 4139 H 396.545 3.15764 3.3629 0
M  V30 4140 H 394.788 3.01961 3.11451 0
M  V30 4141 H 395.459 2.83296 4.73759 0
M  V30 4142 H 397.935 1.04125 4.02861 0
M  V30 4143 H 396.811 0.939076 5.40807 0
M  V30 4144 H 397.072 -0.472457 4.39568 0
M  V30 4145 N 396.131 -1.37776 0.765217 0
M  V30 4146 C 397.094 -2.28686 0.153416 0
M  V30 4147 C 398.094 -1.47727 -0.635081 0
M  V30 4148 O 399.284 -1.68027 -0.459632 0
M  V30 4149 C 396.416 -3.31608 -0.790495 0
M  V30 4150 H 397.609 -2.84297 0.954723 0
M  V30 4151 H 395.162 -1.46932 0.53299 0
M  V30 4152 H 395.897 -2.81109 -1.61705 0
M  V30 4153 H 395.682 -3.9144 -0.227348 0
M  V30 4154 H 397.172 -3.99559 -1.21419 0
M  V30 4155 N 397.609 -0.515225 -1.4894 0
M  V30 4156 C 398.542 0.302518 -2.26186 0
M  V30 4157 C 399.52 0.957895 -1.31389 0
M  V30 4158 O 400.704 0.985198 -1.60705 0
M  V30 4159 C 397.831 1.42719 -3.07163 0
M  V30 4160 C 396.877 0.884736 -4.17223 0
M  V30 4161 S 397.71 -0.235767 -5.34981 0
M  V30 4162 C 398.866 0.891731 -6.19515 0
M  V30 4163 H 399.099 -0.353076 -2.95196 0
M  V30 4164 H 396.632 -0.300753 -1.51443 0
M  V30 4165 H 398.59 2.07152 -3.54398 0
M  V30 4166 H 397.251 2.05445 -2.37595 0
M  V30 4167 H 396.444 1.72801 -4.73451 0
M  V30 4168 H 396.046 0.317362 -3.72651 0
M  V30 4169 H 398.338 1.79377 -6.53322 0
M  V30 4170 H 399.281 0.367751 -7.07144 0
M  V30 4171 H 399.689 1.16548 -5.52338 0
M  V30 4172 N 399.087 1.5561 -0.249682 0
M  V30 4173 C 400.335 1.98618 0.373548 0
M  V30 4174 C 400.656 1.13919 1.58264 0
M  V30 4175 O 399.926 0.222637 1.94631 0
M  V30 4176 H 398.506 0.733571 0.141006 0
M  V30 4177 H 401.168 1.91748 -0.349117 0
M  V30 4178 H 400.264 3.04584 0.680796 0
M  V30 4179 N 400.565 -0.0233959 1.57583 0
M  V30 4180 C 401.795 -0.723631 1.93513 0
M  V30 4181 C 402.203 -1.69115 0.848333 0
M  V30 4182 O 401.546 -1.82781 -0.183484 0
M  V30 4183 C 401.608 -1.53075 3.25282 0
M  V30 4184 C 401.272 -0.727388 4.51174 0
M  V30 4185 C 402.269 -0.0251924 5.19894 0
M  V30 4186 C 399.954 -0.680256 4.97672 0
M  V30 4187 C 401.948 0.713374 6.33395 0
M  V30 4188 C 399.635 0.0620523 6.11068 0
M  V30 4189 C 400.633 0.757622 6.78785 0
M  V30 4190 O 400.321 1.48787 7.90011 0
M  V30 4191 H 400.053 -0.208051 0.643188 0
M  V30 4192 H 402.607 0.0167489 2.05393 0
M  V30 4193 H 400.837 -2.31508 3.09744 0
M  V30 4194 H 402.526 -2.11413 3.46496 0
M  V30 4195 H 403.292 -0.0526003 4.84971 0
M  V30 4196 H 399.171 -1.21116 4.44805 0
M  V30 4197 H 402.715 1.25683 6.86185 0
M  V30 4198 H 398.612 0.0913634 6.45435 0
M  V30 4199 H 399.38 1.40213 8.06401 0
M  V30 4200 N 402.043 -1.548 -0.295768 0
M  V30 4201 C 403.006 -1.85363 -1.34808 0
M  V30 4202 C 404.006 -0.726817 -1.43436 0
M  V30 4203 O 405.196 -0.995088 -1.42981 0
M  V30 4204 C 402.328 -2.03859 -2.73229 0
M  V30 4205 H 403.521 -2.7941 -1.08949 0
M  V30 4206 H 401.074 -1.46942 -0.532702 0
M  V30 4207 H 401.809 -1.12117 -3.04303 0
M  V30 4208 H 401.594 -2.8588 -2.68356 0
M  V30 4209 H 403.084 -2.28857 -3.49305 0
M  V30 4210 N 403.521 0.559213 -1.47345 0
M  V30 4211 C 404.798 1.31997 -1.44348 0
M  V30 4212 C 405.178 2.1064 -0.139358 0
M  V30 4213 O 404.526 2.1091 0.879153 0
M  V30 4214 C 404.736 2.22618 -2.68779 0
M  V30 4215 C 406.084 2.83701 -3.1591 0
M  V30 4216 O 407.108 2.32921 -2.69493 0
M  V30 4217 O 405.967 3.75993 -3.966 0
M  V30 4218 H 403.061 0.594251 -0.575147 0
M  V30 4219 H 405.607 0.578282 -1.59543 0
M  V30 4220 H 404.379 1.64093 -3.55231 0
M  V30 4221 H 404.002 3.04085 -2.5616 0
M  V30 4222 N 404.999 1.35443 0.805782 0
M  V30 4223 C 406.247 1.28507 1.55982 0
M  V30 4224 C 406.568 -0.140046 1.94496 0
M  V30 4225 O 405.838 -1.07666 1.63661 0
M  V30 4226 H 404.418 0.472676 0.578434 0
M  V30 4227 H 407.08 1.69555 0.961098 0
M  V30 4228 H 406.176 1.90148 2.47488 0
M  V30 4229 N 406.477 -1.02803 1.19454 0
M  V30 4230 C 407.707 -1.79581 1.02149 0
M  V30 4231 C 408.115 -1.84182 -0.432851 0
M  V30 4232 O 407.458 -1.28534 -1.31243 0
M  V30 4233 C 407.52 -3.25993 1.51554 0
M  V30 4234 C 407.184 -3.45025 2.99678 0
M  V30 4235 C 408.181 -3.35175 3.97434 0
M  V30 4236 C 405.866 -3.71212 3.38389 0
M  V30 4237 C 407.86 -3.51238 5.31893 0
M  V30 4238 C 405.547 -3.8692 4.73008 0
M  V30 4239 C 406.545 -3.76936 5.69569 0
M  V30 4240 O 406.233 -3.92179 7.01748 0
M  V30 4241 H 405.965 -0.571962 0.360327 0
M  V30 4242 H 408.519 -1.30367 1.58725 0
M  V30 4243 H 406.749 -3.76235 0.893543 0
M  V30 4244 H 408.438 -3.84368 1.30444 0
M  V30 4245 H 409.204 -3.14895 3.68872 0
M  V30 4246 H 405.083 -3.78075 2.6378 0
M  V30 4247 H 408.627 -3.43362 6.07247 0
M  V30 4248 H 404.524 -4.06699 5.01265 0
M  V30 4249 H 405.292 -4.09265 7.08833 0
M  V30 4250 N 407.956 -0.998596 -1.21925 0
M  V30 4251 C 409.367 -0.711939 -1.72593 0
M  V30 4252 C 409.718 0.770842 -1.80423 0
M  V30 4253 O 408.843 1.60237 -1.4544 0
M  V30 4254 C 409.438 -1.28567 -3.13458 0
M  V30 4255 C 407.997 -1.04828 -3.61508 0
M  V30 4256 C 407.144 -1.4024 -2.39224 0
M  V30 4257 H 410.095 -1.17027 -1.07193 0
M  V30 4258 H 410.116 -0.667098 -3.74607 0
M  V30 4259 H 409.628 -2.36486 -3.07727 0
M  V30 4260 H 407.729 0.0140383 -3.72597 0
M  V30 4261 H 407.842 -1.71566 -4.47328 0
M  V30 4262 H 406.206 -0.821077 -2.41103 0
M  V30 4263 H 406.989 -2.49176 -2.36149 0
M  V30 4264 N 409.434 1.37368 -0.772513 0
M  V30 4265 C 410.85 1.53059 -0.452231 0
M  V30 4266 C 411.05 1.73065 1.03203 0
M  V30 4267 O 410.106 1.75245 1.81784 0
M  V30 4268 C 411.419 2.72659 -1.26797 0
M  V30 4269 C 412.967 2.86521 -1.25995 0
M  V30 4270 C 413.442 4.09105 -2.05905 0
M  V30 4271 N 414.933 4.16219 -2.03263 0
M  V30 4272 C 415.668 5.10107 -2.61875 0
M  V30 4273 N 415.164 6.09547 -3.29278 0
M  V30 4274 N 416.957 5.02596 -2.51701 0
M  V30 4275 H 409.108 1.22634 -1.7342 0
M  V30 4276 H 411.371 0.597206 -0.736239 0
M  V30 4277 H 411.077 2.64343 -2.31982 0
M  V30 4278 H 410.951 3.66363 -0.897672 0
M  V30 4279 H 413.338 2.94308 -0.216081 0
M  V30 4280 H 413.419 1.93774 -1.66989 0
M  V30 4281 H 413.063 4.0208 -3.10313 0
M  V30 4282 H 412.993 5.00968 -1.62292 0
M  V30 4283 H 415.484 3.45012 -1.54192 0
M  V30 4284 H 415.797 6.77718 -3.71374 0
M  V30 4285 H 414.142 6.09824 -3.33377 0
M  V30 4286 H 417.333 4.23855 -1.98657 0
M  V30 4287 H 417.506 5.75582 -2.97673 0
M  V30 4288 N 410.912 0.523116 1.48665 0
M  V30 4289 C 411.862 -0.263106 2.26477 0
M  V30 4290 C 412.846 -0.916005 1.32281 0
M  V30 4291 O 414.038 -0.819946 1.56863 0
M  V30 4292 C 411.167 -1.31361 3.17174 0
M  V30 4293 C 410.253 -0.665849 4.1884 0
M  V30 4294 N 410.644 0.244434 5.05209 0
M  V30 4295 C 408.942 -0.923863 4.36326 0
M  V30 4296 C 409.643 0.617443 5.78414 0
M  V30 4297 N 408.619 -0.0198686 5.43596 0
M  V30 4298 H 412.421 0.437295 2.90629 0
M  V30 4299 H 409.935 0.340675 1.58787 0
M  V30 4300 H 411.932 -1.89052 3.71571 0
M  V30 4301 H 410.592 -2.01546 2.54576 0
M  V30 4302 H 411.603 0.616621 5.14216 0
M  V30 4303 H 408.28 -1.6168 3.84923 0
M  V30 4304 H 409.67 1.36346 6.57921 0
M  V30 4305 N 412.39 -1.55475 0.257931 0
M  V30 4306 C 413.353 -2.20551 -0.623706 0
M  V30 4307 C 414.353 -1.17809 -1.09443 0
M  V30 4308 O 415.543 -1.42823 -0.997362 0
M  V30 4309 C 412.675 -2.85784 -1.8585 0
M  V30 4310 H 413.868 -2.99848 -0.0557743 0
M  V30 4311 H 411.421 -1.56298 0.0084422 0
M  V30 4312 H 412.156 -2.10453 -2.46739 0
M  V30 4313 H 411.941 -3.61057 -1.52907 0
M  V30 4314 H 413.431 -3.35553 -2.48584 0
M  V30 4315 N 413.868 0.0150385 -1.57593 0
M  V30 4316 C 414.831 0.995996 -2.06428 0
M  V30 4317 C 415.831 1.2818 -0.970903 0
M  V30 4318 O 417.021 1.22949 -1.23406 0
M  V30 4319 C 414.153 2.32506 -2.49307 0
M  V30 4320 H 415.346 0.573873 -2.94358 0
M  V30 4321 H 412.899 0.262186 -1.54085 0
M  V30 4322 H 413.634 2.79438 -1.64575 0
M  V30 4323 H 413.419 2.13087 -3.29145 0
M  V30 4324 H 414.909 3.02906 -2.87468 0
M  V30 4325 N 415.346 1.54954 0.287554 0
M  V30 4326 C 416.623 1.65569 1.04146 0
M  V30 4327 C 417.003 0.512672 2.0478 0
M  V30 4328 O 416.351 -0.489038 2.23205 0
M  V30 4329 C 416.561 3.04163 1.71131 0
M  V30 4330 C 417.909 3.61429 2.22832 0
M  V30 4331 O 418.933 3.06702 1.81141 0
M  V30 4332 O 417.792 4.57281 2.9926 0
M  V30 4333 H 414.886 0.671881 0.482188 0
M  V30 4334 H 417.432 1.67297 0.28457 0
M  V30 4335 H 416.204 3.78796 0.981303 0
M  V30 4336 H 415.827 3.06271 2.53543 0
M  V30 4337 N 416.824 -0.551391 1.4764 0
M  V30 4338 C 418.072 -1.30572 1.54258 0
M  V30 4339 C 418.393 -1.93877 0.208963 0
M  V30 4340 O 417.663 -1.80234 -0.767619 0
M  V30 4341 H 416.243 -0.484894 0.568231 0
M  V30 4342 H 418.905 -0.643402 1.83974 0
M  V30 4343 H 418.001 -2.09621 2.31226 0
M  V30 4344 N 418.302 -1.35869 -0.798587 0
M  V30 4345 C 419.53 -1.32722 -1.58722 0
M  V30 4346 C 419.945 0.0935631 -1.88568 0
M  V30 4347 O 419.302 1.04784 -1.49421 0
M  V30 4348 C 419.353 -2.13974 -2.91371 0
M  V30 4349 O 419.074 -3.50514 -2.62815 0
M  V30 4350 C 420.575 -2.18504 -3.85708 0
M  V30 4351 H 417.795 -0.45562 -0.492596 0
M  V30 4352 H 420.339 -1.78837 -0.991843 0
M  V30 4353 H 418.494 -1.71438 -3.47402 0
M  V30 4354 H 418.908 -3.92806 -3.47568 0
M  V30 4355 H 420.382 -2.79732 -4.75872 0
M  V30 4356 H 420.859 -1.18597 -4.22885 0
M  V30 4357 H 421.465 -2.61236 -3.35612 0
M  V30 4358 N 419.78 1.02168 -1.19998 0
M  V30 4359 C 420.71 2.12488 -0.96804 0
M  V30 4360 C 421.691 1.69799 0.101185 0
M  V30 4361 O 422.876 1.94121 -0.0552993 0
M  V30 4362 C 420.006 3.43479 -0.513776 0
M  V30 4363 C 418.96 3.99884 -1.52566 0
M  V30 4364 C 418.286 5.26582 -0.928214 0
M  V30 4365 C 419.586 4.33861 -2.90795 0
M  V30 4366 H 421.28 2.32149 -1.89069 0
M  V30 4367 H 418.826 1.11564 -0.910468 0
M  V30 4368 H 420.779 4.20036 -0.338774 0
M  V30 4369 H 419.503 3.23561 0.444493 0
M  V30 4370 H 418.162 3.25429 -1.68794 0
M  V30 4371 H 417.81 5.02986 0.0378289 0
M  V30 4372 H 417.51 5.65284 -1.60397 0
M  V30 4373 H 419.034 6.05799 -0.764167 0
M  V30 4374 H 420.448 5.01327 -2.78109 0
M  V30 4375 H 418.845 4.83664 -3.55231 0
M  V30 4376 H 419.915 3.42848 -3.42904 0
M  V30 4377 N 421.258 1.00505 1.21394 0
M  V30 4378 C 422.504 0.688793 1.90745 0
M  V30 4379 C 422.837 -0.778486 1.77914 0
M  V30 4380 O 422.112 -1.56433 1.15581 0
M  V30 4381 C 422.395 1.11063 3.42545 0
M  V30 4382 C 422.248 2.63737 3.64367 0
M  V30 4383 C 423.567 0.673059 4.34923 0
M  V30 4384 H 420.686 0.251702 0.692687 0
M  V30 4385 H 423.328 1.25074 1.43026 0
M  V30 4386 H 421.478 0.632508 3.83317 0
M  V30 4387 H 423.15 3.19313 3.32922 0
M  V30 4388 H 421.393 3.05248 3.08231 0
M  V30 4389 H 422.064 2.88305 4.70727 0
M  V30 4390 H 424.54 1.08392 4.01734 0
M  V30 4391 H 423.416 0.996383 5.39781 0
M  V30 4392 H 423.677 -0.425808 4.40045 0
M  V30 4393 N 422.737 -1.36956 0.779787 0
M  V30 4394 C 423.984 -1.99491 0.347766 0
M  V30 4395 C 424.312 -1.61898 -1.07793 0
M  V30 4396 O 423.567 -0.86071 -1.75756 0
M  V30 4397 C 423.866 -3.54585 0.447686 0
M  V30 4398 C 423.532 -4.1197 1.83279 0
M  V30 4399 C 422.194 -4.27356 2.2118 0
M  V30 4400 C 424.546 -4.43354 2.74019 0
M  V30 4401 C 421.874 -4.71432 3.4924 0
M  V30 4402 C 424.226 -4.88858 4.01497 0
M  V30 4403 C 422.89 -5.0245 4.39432 0
M  V30 4404 H 422.16 -0.729991 0.127257 0
M  V30 4405 H 424.807 -1.63599 0.995376 0
M  V30 4406 H 423.112 -3.90773 -0.283447 0
M  V30 4407 H 424.809 -4.00888 0.0945948 0
M  V30 4408 H 421.399 -4.00428 1.52825 0
M  V30 4409 H 425.583 -4.31045 2.45995 0
M  V30 4410 H 420.839 -4.80141 3.78516 0
M  V30 4411 H 425.013 -5.12108 4.71931 0
M  V30 4412 H 422.64 -5.36362 5.38721 0
M  V30 4413 N 424.215 -0.530993 -1.48385 0
M  V30 4414 C 425.464 0.00474348 -2.01699 0
M  V30 4415 C 425.777 1.35227 -1.41325 0
M  V30 4416 O 426.983 1.97643 -1.86144 0
M  V30 4417 C 425.439 0.0588473 -3.59852 0
M  V30 4418 C 425.047 -1.28385 -4.2921 0
M  V30 4419 C 426.791 0.543358 -4.21008 0
M  V30 4420 C 424.698 -1.19028 -5.79298 0
M  V30 4421 H 423.628 0.00554317 -0.75398 0
M  V30 4422 H 426.279 -0.674924 -1.70637 0
M  V30 4423 H 424.661 0.803612 -3.8776 0
M  V30 4424 H 425.835 -2.04426 -4.12973 0
M  V30 4425 H 424.15 -1.70418 -3.7993 0
M  V30 4426 H 426.747 0.631351 -5.3096 0
M  V30 4427 H 427.09 1.54937 -3.86394 0
M  V30 4428 H 427.623 -0.145754 -3.97533 0
M  V30 4429 H 424.362 -2.17147 -6.18488 0
M  V30 4430 H 423.882 -0.471246 -5.97946 0
M  V30 4431 H 425.561 -0.881365 -6.40969 0
M  V30 4432 N 425.693 1.55336 -0.266172 0
M  V30 4433 C 426.97 1.91372 0.404486 0
M  V30 4434 C 427.35 1.18935 1.74407 0
M  V30 4435 O 426.698 0.3132 2.26343 0
M  V30 4436 C 426.908 3.44581 0.553593 0
M  V30 4437 C 428.256 4.16196 0.840618 0
M  V30 4438 O 429.28 3.50426 0.638739 0
M  V30 4439 O 428.139 5.32567 1.22618 0
M  V30 4440 H 425.233 0.797194 0.220025 0
M  V30 4441 H 427.779 1.66813 -0.311664 0
M  V30 4442 H 426.551 3.89357 -0.389498 0
M  V30 4443 H 426.174 3.75065 1.31955 0
M  V30 4444 N 427.171 -0.0066808 1.57599 0
M  V30 4445 C 428.419 -0.691552 1.899 0
M  V30 4446 C 428.74 -1.74682 0.866672 0
M  V30 4447 O 428.01 -1.95661 -0.0968189 0
M  V30 4448 H 426.59 -0.258416 0.700878 0
M  V30 4449 H 429.252 0.0326655 1.94873 0
M  V30 4450 H 428.348 -1.16702 2.8946 0
M  V30 4451 N 428.649 -1.55105 -0.279332 0
M  V30 4452 C 429.596 -1.8755 -1.34513 0
M  V30 4453 C 430.566 -0.726384 -1.49375 0
M  V30 4454 O 431.751 -0.977063 -1.63884 0
M  V30 4455 C 428.891 -2.14738 -2.70151 0
M  V30 4456 C 428.004 -3.42285 -2.63562 0
M  V30 4457 C 427.139 -3.59206 -3.91337 0
M  V30 4458 C 426.178 -4.80467 -3.79233 0
M  V30 4459 N 425.315 -4.94079 -4.98829 0
M  V30 4460 H 430.155 -2.78456 -1.06143 0
M  V30 4461 H 427.692 -1.37867 -0.512936 0
M  V30 4462 H 429.65 -2.28501 -3.49061 0
M  V30 4463 H 428.28 -1.27075 -2.96735 0
M  V30 4464 H 427.332 -3.37029 -1.76397 0
M  V30 4465 H 428.644 -4.31328 -2.50515 0
M  V30 4466 H 427.798 -3.72751 -4.78687 0
M  V30 4467 H 426.537 -2.68337 -4.07243 0
M  V30 4468 H 425.542 -4.66932 -2.90266 0
M  V30 4469 H 426.767 -5.72765 -3.64852 0
M  V30 4470 H 424.713 -4.06139 -5.15158 0
M  V30 4471 H 424.63 -5.77156 -4.8829 0
M  V30 4472 H 425.898 -5.12003 -5.8777 0
M  V30 4473 N 430.127 0.543554 -1.4793 0
M  V30 4474 C 431.538 1.12561 -1.48953 0
M  V30 4475 C 431.889 1.94578 -0.251754 0
M  V30 4476 O 431.014 2.0665 0.642255 0
M  V30 4477 C 431.609 2.04801 -2.69892 0
M  V30 4478 C 430.168 2.58251 -2.73831 0
M  V30 4479 C 429.315 1.34918 -2.42265 0
M  V30 4480 H 432.266 0.32947 -1.55242 0
M  V30 4481 H 432.287 2.88886 -2.47639 0
M  V30 4482 H 431.799 1.4508 -3.59963 0
M  V30 4483 H 429.9 3.21732 -1.87934 0
M  V30 4484 H 430.013 2.98312 -3.74895 0
M  V30 4485 H 428.377 1.66046 -1.93134 0
M  V30 4486 H 429.16 0.769693 -3.3456 0
M  V30 4487 N 431.605 1.3629 0.791371 0
M  V30 4488 C 432.853 1.30154 1.5461 0
M  V30 4489 C 433.174 -0.119409 1.94634 0
M  V30 4490 O 432.444 -1.05924 1.64794 0
M  V30 4491 H 431.024 0.478784 0.573389 0
M  V30 4492 H 433.686 1.70565 0.94306 0
M  V30 4493 H 432.782 1.92762 2.45457 0
M  V30 4494 N 433.083 -1.0153 1.20538 0
M  V30 4495 C 434.499 -1.27461 0.96051 0
M  V30 4496 C 434.699 -1.98273 -0.359193 0
M  V30 4497 O 433.755 -2.27886 -1.0874 0
M  V30 4498 C 435.068 -2.10837 2.14402 0
M  V30 4499 C 436.616 -2.24099 2.18515 0
M  V30 4500 C 437.091 -3.10852 3.36355 0
M  V30 4501 N 438.582 -3.18441 3.36377 0
M  V30 4502 C 439.317 -3.85795 4.24205 0
M  V30 4503 N 438.813 -4.55264 5.22213 0
M  V30 4504 N 440.606 -3.82331 4.12043 0
M  V30 4505 H 432.757 -0.539907 2.05423 0
M  V30 4506 H 435.02 -0.30092 0.898972 0
M  V30 4507 H 434.726 -1.66144 3.09983 0
M  V30 4508 H 434.6 -3.11576 2.12604 0
M  V30 4509 H 436.987 -2.68016 1.23497 0
M  V30 4510 H 437.068 -1.22865 2.24361 0
M  V30 4511 H 436.712 -2.6764 4.31661 0
M  V30 4512 H 436.642 -4.12177 3.27746 0
M  V30 4513 H 439.133 -2.68978 2.65442 0
M  V30 4514 H 439.446 -5.04331 5.85551 0
M  V30 4515 H 437.791 -4.54085 5.26148 0
M  V30 4516 H 440.982 -3.27207 3.34743 0
M  V30 4517 H 441.155 -4.34547 4.807 0
M  V30 4518 N 434.561 -1.01147 -1.20859 0
M  V30 4519 C 435.491 -0.597663 -2.25722 0
M  V30 4520 C 436.472 0.384744 -1.65692 0
M  V30 4521 O 437.657 0.271303 -1.92296 0
M  V30 4522 C 434.787 0.0700149 -3.47229 0
M  V30 4523 C 433.741 -0.832843 -4.19819 0
M  V30 4524 C 433.067 -0.0312202 -5.34691 0
M  V30 4525 C 434.367 -2.1385 -4.76514 0
M  V30 4526 H 436.061 -1.47423 -2.60589 0
M  V30 4527 H 433.607 -0.710301 -1.25263 0
M  V30 4528 H 435.56 0.37103 -4.19763 0
M  V30 4529 H 434.284 0.981259 -3.11511 0
M  V30 4530 H 432.943 -1.11778 -3.49144 0
M  V30 4531 H 432.591 0.881515 -4.95215 0
M  V30 4532 H 432.291 -0.632434 -5.84187 0
M  V30 4533 H 433.815 0.26346 -6.10031 0
M  V30 4534 H 435.229 -1.9002 -5.40893 0
M  V30 4535 H 433.626 -2.69012 -5.36426 0
M  V30 4536 H 434.696 -2.80495 -3.95538 0
M  V30 4537 N 436.039 1.36541 -0.78704 0
M  V30 4538 C 437.285 1.99599 -0.358872 0
M  V30 4539 C 437.618 1.62323 1.06606 0
M  V30 4540 O 436.893 0.876858 1.73613 0
M  V30 4541 C 437.176 3.56327 -0.519944 0
M  V30 4542 C 437.029 4.03464 -1.98839 0
M  V30 4543 C 438.348 4.4005 0.0664737 0
M  V30 4544 H 435.467 0.725107 -0.131869 0
M  V30 4545 H 438.109 1.6199 -0.992936 0
M  V30 4546 H 436.259 3.88495 0.0198321 0
M  V30 4547 H 437.931 3.81793 -2.58905 0
M  V30 4548 H 436.174 3.55092 -2.49183 0
M  V30 4549 H 436.845 5.12439 -2.05207 0
M  V30 4550 H 439.321 4.14228 -0.394267 0
M  V30 4551 H 438.197 5.48847 -0.0762682 0
M  V30 4552 H 438.458 4.26655 1.15835 0
M  V30 4553 N 437.518 0.538854 1.48102 0
M  V30 4554 C 438.766 0.00798599 2.02098 0
M  V30 4555 C 439.087 -1.33922 1.41739 0
M  V30 4556 O 438.357 -1.86932 0.585934 0
M  V30 4557 H 436.937 -3.62179e-05 0.747 0
M  V30 4558 H 439.599 0.7047 1.81714 0
M  V30 4559 H 438.695 -0.0937672 3.11959 0
M  V30 4560 N 438.996 -1.55193 0.274407 0
M  V30 4561 C 440.412 -1.59401 -0.0797543 0
M  V30 4562 C 440.612 -1.29162 -1.54659 0
M  V30 4563 O 439.668 -1.05215 -2.29534 0
M  V30 4564 C 440.981 -2.99257 0.294238 0
M  V30 4565 C 442.529 -3.12072 0.240796 0
M  V30 4566 C 443.004 -4.54194 0.589218 0
M  V30 4567 N 444.495 -4.60033 0.540744 0
M  V30 4568 C 445.23 -5.68027 0.783147 0
M  V30 4569 N 444.726 -6.8417 1.09013 0
M  V30 4570 N 446.519 -5.57572 0.711993 0
M  V30 4571 H 438.67 -1.73113 1.23067 0
M  V30 4572 H 440.933 -0.807197 0.497129 0
M  V30 4573 H 440.639 -3.26217 1.31435 0
M  V30 4574 H 440.513 -3.75427 -0.365281 0
M  V30 4575 H 442.9 -2.84877 -0.770024 0
M  V30 4576 H 442.981 -2.38117 0.934563 0
M  V30 4577 H 442.625 -4.82115 1.59772 0
M  V30 4578 H 442.555 -5.26448 -0.126331 0
M  V30 4579 H 445.046 -3.76599 0.313327 0
M  V30 4580 H 445.359 -7.6243 1.26178 0
M  V30 4581 H 443.704 -6.85787 1.12789 0
M  V30 4582 H 446.895 -4.65714 0.472014 0
M  V30 4583 H 447.068 -6.41659 0.90429 0
M  V30 4584 N 440.474 -0.00167713 -1.576 0
M  V30 4585 C 441.72 0.683832 -1.90923 0
M  V30 4586 C 442.053 1.7333 -0.875799 0
M  V30 4587 O 441.328 1.94215 0.10525 0
M  V30 4588 C 441.611 1.32543 -3.3482 0
M  V30 4589 C 441.464 0.287387 -4.48881 0
M  V30 4590 C 442.783 2.25114 -3.78169 0
M  V30 4591 H 439.902 0.247125 -0.694333 0
M  V30 4592 H 442.544 -0.0533149 -1.89925 0
M  V30 4593 H 440.694 1.95372 -3.35801 0
M  V30 4594 H 442.366 -0.341346 -4.60035 0
M  V30 4595 H 440.609 -0.39017 -4.32042 0
M  V30 4596 H 441.28 0.775393 -5.46527 0
M  V30 4597 H 443.756 1.723 -3.7875 0
M  V30 4598 H 442.632 2.66971 -4.79602 0
M  V30 4599 H 442.893 3.13092 -3.12131 0
M  V30 4600 N 441.952 1.55251 0.271103 0
M  V30 4601 C 443.177 1.80306 1.02491 0
M  V30 4602 C 443.602 0.575457 1.79081 0
M  V30 4603 O 442.96 -0.474987 1.74967 0
M  V30 4604 C 443.008 3.02832 1.95768 0
M  V30 4605 O 442.112 2.78051 3.04568 0
M  V30 4606 H 441.453 0.595896 0.292923 0
M  V30 4607 H 443.983 2.02397 0.299436 0
M  V30 4608 H 443.993 3.31616 2.37686 0
M  V30 4609 H 442.668 3.9183 1.39434 0
M  V30 4610 H 441.245 2.60369 2.66951 0
M  V30 4611 N 443.43 -0.535701 1.48216 0
M  V30 4612 C 444.363 -1.65726 1.56876 0
M  V30 4613 C 445.341 -1.57094 0.419542 0
M  V30 4614 O 446.525 -1.77648 0.630352 0
M  V30 4615 C 443.652 -3.04096 1.49142 0
M  V30 4616 C 442.698 -3.31105 2.68834 0
M  V30 4617 S 443.531 -3.18001 4.30854 0
M  V30 4618 C 444.687 -4.58828 4.25709 0
M  V30 4619 H 444.92 -1.58129 2.51759 0
M  V30 4620 H 442.453 -0.718218 1.36678 0
M  V30 4621 H 444.411 -3.839 1.45366 0
M  V30 4622 H 443.072 -3.09139 0.556067 0
M  V30 4623 H 442.265 -4.32033 2.59545 0
M  V30 4624 H 441.867 -2.58961 2.69843 0
M  V30 4625 H 444.159 -5.5023 3.95289 0
M  V30 4626 H 445.102 -4.73172 5.26796 0
M  V30 4627 H 445.51 -4.37883 3.56257 0
M  V30 4628 N 444.908 -1.36708 -0.784132 0
M  V30 4629 C 446.185 -1.21776 -1.53069 0
M  V30 4630 C 446.565 0.193876 -2.10208 0
M  V30 4631 O 445.913 1.20012 -1.94446 0
M  V30 4632 C 446.123 -2.30395 -2.62143 0
M  V30 4633 C 447.471 -2.67325 -3.29882 0
M  V30 4634 O 448.495 -2.29478 -2.7243 0
M  V30 4635 O 447.354 -3.32485 -4.33724 0
M  V30 4636 H 444.448 -0.474459 -0.677361 0
M  V30 4637 H 446.994 -1.48454 -0.82216 0
M  V30 4638 H 445.766 -3.2498 -2.17953 0
M  V30 4639 H 445.389 -2.05112 -3.40609 0
M  V30 4640 N 446.386 1.0089 -1.21074 0
M  V30 4641 C 447.319 2.09279 -0.909806 0
M  V30 4642 C 448.297 1.61986 0.141145 0
M  V30 4643 O 449.481 1.88495 0.0130332 0
M  V30 4644 C 446.608 3.36723 -0.365374 0
M  V30 4645 C 445.654 4.02919 -1.39852 0
M  V30 4646 S 446.487 4.45835 -2.96633 0
M  V30 4647 C 447.643 5.76471 -2.43786 0
M  V30 4648 H 447.876 2.34484 -1.82769 0
M  V30 4649 H 445.409 1.14115 -1.04006 0
M  V30 4650 H 447.367 4.10459 -0.0578203 0
M  V30 4651 H 446.028 3.09577 0.531136 0
M  V30 4652 H 445.221 4.94634 -0.967117 0
M  V30 4653 H 444.823 3.35441 -1.65395 0
M  V30 4654 H 447.115 6.52027 -1.84029 0
M  V30 4655 H 448.058 6.24418 -3.33928 0
M  V30 4656 H 448.466 5.33104 -1.85636 0
M  V30 4657 N 447.864 1.01787 1.20321 0
M  V30 4658 C 448.794 0.609625 2.25401 0
M  V30 4659 C 449.775 -0.375951 1.65893 0
M  V30 4660 O 450.96 -0.261101 1.92437 0
M  V30 4661 C 448.09 -0.0515995 3.47262 0
M  V30 4662 C 447.044 0.855095 4.19371 0
M  V30 4663 C 446.37 0.0595757 5.34667 0
M  V30 4664 C 447.67 2.16374 4.75373 0
M  V30 4665 H 449.364 1.48803 2.59804 0
M  V30 4666 H 446.91 0.716934 1.24884 0
M  V30 4667 H 448.863 -0.348764 4.19954 0
M  V30 4668 H 447.587 -0.964726 3.12027 0
M  V30 4669 H 446.246 1.13628 3.48546 0
M  V30 4670 H 445.894 -0.85524 4.95676 0
M  V30 4671 H 445.594 0.663406 5.83843 0
M  V30 4672 H 447.118 -0.231105 6.10162 0
M  V30 4673 H 448.532 1.92885 5.39878 0
M  V30 4674 H 446.929 2.71853 5.34991 0
M  V30 4675 H 447.999 2.82589 3.94045 0
M  V30 4676 N 449.342 -1.36122 0.79427 0
M  V30 4677 C 450.57 -2.03362 0.380989 0
M  V30 4678 C 450.985 -1.59881 -1.00416 0
M  V30 4679 O 450.342 -0.790515 -1.6449 0
M  V30 4680 C 450.393 -3.58804 0.440649 0
M  V30 4681 O 450.114 -4.007 1.77118 0
M  V30 4682 C 451.615 -4.43296 0.0186117 0
M  V30 4683 H 448.835 -0.652526 0.156367 0
M  V30 4684 H 451.379 -1.73998 1.07447 0
M  V30 4685 H 449.534 -3.8686 -0.204458 0
M  V30 4686 H 449.948 -4.95309 1.72538 0
M  V30 4687 H 451.422 -5.51887 0.111488 0
M  V30 4688 H 451.899 -4.2684 -1.03461 0
M  V30 4689 H 452.505 -4.20512 0.636395 0
M  V30 4690 N 450.82 -0.546701 -1.47814 0
M  V30 4691 C 452.066 -0.0187684 -2.02791 0
M  V30 4692 C 452.399 1.32338 -1.42128 0
M  V30 4693 O 451.674 1.85867 -0.573023 0
M  V30 4694 C 451.957 0.0854985 -3.59998 0
M  V30 4695 C 451.81 -1.283 -4.31114 0
M  V30 4696 C 453.129 0.80412 -4.32691 0
M  V30 4697 H 450.248 -0.0082946 -0.736953 0
M  V30 4698 H 452.89 -0.706962 -1.76358 0
M  V30 4699 H 451.04 0.671609 -3.82651 0
M  V30 4700 H 452.712 -1.91151 -4.19832 0
M  V30 4701 H 450.955 -1.86049 -3.91878 0
M  V30 4702 H 451.626 -1.16287 -5.39612 0
M  V30 4703 H 454.102 0.306576 -4.14969 0
M  V30 4704 H 452.978 0.846011 -5.42341 0
M  V30 4705 H 453.239 1.85802 -4.01161 0
M  V30 4706 N 452.299 1.55045 -0.282633 0
M  V30 4707 C 453.576 1.9179 0.384166 0
M  V30 4708 C 453.956 1.20778 1.73136 0
M  V30 4709 O 453.304 0.33719 2.25998 0
M  V30 4710 C 453.514 3.45149 0.517014 0
M  V30 4711 C 454.862 4.17064 0.796427 0
M  V30 4712 O 455.886 3.51084 0.601535 0
M  V30 4713 O 454.745 5.33837 1.16962 0
M  V30 4714 H 451.839 0.799483 0.211558 0
M  V30 4715 H 454.385 1.66474 -0.32934 0
M  V30 4716 H 453.157 3.88922 -0.430772 0
M  V30 4717 H 452.78 3.76443 1.2797 0
M  V30 4718 N 453.777 0.010035 1.57597 0
M  V30 4719 C 454.707 -0.976857 2.12084 0
M  V30 4720 C 455.688 -1.35191 1.03235 0
M  V30 4721 O 456.873 -1.43389 1.3097 0
M  V30 4722 C 454.003 -2.26548 2.63236 0
M  V30 4723 C 452.957 -2.03175 3.76701 0
M  V30 4724 C 452.283 -3.38138 4.14206 0
M  V30 4725 C 453.583 -1.38625 5.03568 0
M  V30 4726 H 455.277 -0.523145 2.94794 0
M  V30 4727 H 452.823 -0.250195 1.4181 0
M  V30 4728 H 454.776 -2.95952 2.99984 0
M  V30 4729 H 453.5 -2.74051 1.77661 0
M  V30 4730 H 452.159 -1.36195 3.40362 0
M  V30 4731 H 451.807 -3.83363 3.25641 0
M  V30 4732 H 451.507 -3.23312 4.90656 0
M  V30 4733 H 453.031 -4.08841 4.53521 0
M  V30 4734 H 454.445 -1.98 5.38023 0
M  V30 4735 H 452.842 -1.34256 5.84889 0
M  V30 4736 H 453.912 -0.356722 4.83586 0
M  V30 4737 N 455.255 -1.55392 -0.262866 0
M  V30 4738 C 456.483 -1.80513 -1.01108 0
M  V30 4739 C 456.898 -0.583533 -1.79556 0
M  V30 4740 O 456.255 0.447585 -1.76926 0
M  V30 4741 C 456.306 -3.03648 -1.96164 0
M  V30 4742 O 456.027 -4.2109 -1.20893 0
M  V30 4743 C 457.528 -3.41448 -2.82715 0
M  V30 4744 H 454.748 -0.601079 -0.298236 0
M  V30 4745 H 457.292 -2.02425 -0.290582 0
M  V30 4746 H 455.447 -2.83832 -2.63663 0
M  V30 4747 H 455.861 -4.90771 -1.85051 0
M  V30 4748 H 457.335 -4.30751 -3.45192 0
M  V30 4749 H 457.812 -2.61308 -3.53008 0
M  V30 4750 H 458.418 -3.63559 -2.20693 0
M  V30 4751 N 456.733 0.527833 -1.48498 0
M  V30 4752 C 458.01 1.28905 -1.47115 0
M  V30 4753 C 458.39 2.10297 -0.184007 0
M  V30 4754 O 457.738 2.12728 0.834218 0
M  V30 4755 C 457.948 2.16866 -2.73441 0
M  V30 4756 C 459.296 2.76936 -3.21857 0
M  V30 4757 O 460.32 2.27152 -2.74373 0
M  V30 4758 O 459.179 3.67496 -4.04486 0
M  V30 4759 H 456.273 0.581918 -0.587623 0
M  V30 4760 H 458.819 0.544311 -1.60734 0
M  V30 4761 H 457.591 1.56521 -3.58632 0
M  V30 4762 H 457.214 2.98583 -2.62553 0
M  V30 4763 N 458.211 1.37122 0.776871 0
M  V30 4764 C 459.161 1.28989 1.88005 0
M  V30 4765 C 460.145 0.178765 1.59904 0
M  V30 4766 O 461.337 0.412705 1.72121 0
M  V30 4767 C 458.466 1.09402 3.25402 0
M  V30 4768 C 457.552 2.25036 3.59471 0
M  V30 4769 N 457.943 3.50407 3.64759 0
M  V30 4770 C 456.241 2.17078 3.89607 0
M  V30 4771 C 456.942 4.26628 3.95428 0
M  V30 4772 N 455.918 3.55709 4.11062 0
M  V30 4773 H 459.72 2.2394 1.90337 0
M  V30 4774 H 457.234 1.30021 0.973052 0
M  V30 4775 H 459.231 1.01661 4.04315 0
M  V30 4776 H 457.891 0.153632 3.24336 0
M  V30 4777 H 458.902 3.8438 3.47091 0
M  V30 4778 H 455.579 1.31067 3.96393 0
M  V30 4779 H 456.969 5.35107 4.06338 0
M  V30 4780 N 459.689 -1.00246 1.21608 0
M  V30 4781 C 461.1 -1.55511 1.03312 0
M  V30 4782 C 461.451 -1.91946 -0.406332 0
M  V30 4783 O 460.576 -1.73753 -1.28992 0
M  V30 4784 C 461.171 -2.82576 1.86913 0
M  V30 4785 C 459.73 -3.34318 1.72941 0
M  V30 4786 C 458.877 -2.07487 1.83968 0
M  V30 4787 H 461.828 -0.824638 1.35593 0
M  V30 4788 H 461.849 -3.54559 1.38087 0
M  V30 4789 H 461.361 -2.56026 2.91672 0
M  V30 4790 H 459.462 -3.65797 0.70877 0
M  V30 4791 H 459.575 -4.05566 2.55055 0
M  V30 4792 H 457.939 -2.20603 1.27304 0
M  V30 4793 H 458.722 -1.83346 2.9024 0
M  V30 4794 N 461.167 -1.02423 -1.1978 0
M  V30 4795 C 462.099 -0.559152 -2.22275 0
M  V30 4796 C 463.112 0.36251 -1.58713 0
M  V30 4797 O 464.301 0.159641 -1.77785 0
M  V30 4798 C 461.401 0.205094 -3.38279 0
M  V30 4799 C 460.574 -0.720361 -4.31427 0
M  V30 4800 C 459.633 -0.00234368 -5.262 0
M  V30 4801 O 458.659 -0.627378 -5.65732 0
M  V30 4802 N 459.861 1.26996 -5.66438 0
M  V30 4803 H 462.626 -1.44064 -2.62804 0
M  V30 4804 H 460.187 -0.902692 -1.34399 0
M  V30 4805 H 462.179 0.694868 -3.9869 0
M  V30 4806 H 460.749 0.987947 -2.96578 0
M  V30 4807 H 459.969 -1.39031 -3.68869 0
M  V30 4808 H 461.257 -1.3495 -4.90577 0
M  V30 4809 H 460.655 1.79858 -5.36347 0
M  V30 4810 H 459.212 1.70432 -6.29123 0
M  V30 4811 N 462.645 1.35699 -0.801477 0
M  V30 4812 C 463.608 2.28199 -0.213994 0
M  V30 4813 C 464.608 1.49359 0.595691 0
M  V30 4814 O 465.798 1.69186 0.414921 0
M  V30 4815 C 462.93 3.33587 0.702297 0
M  V30 4816 H 464.123 2.81666 -1.02976 0
M  V30 4817 H 461.676 1.45467 -0.571759 0
M  V30 4818 H 462.411 2.85297 1.54195 0
M  V30 4819 H 462.196 3.91906 0.123484 0
M  V30 4820 H 463.686 4.02638 1.10783 0
M  V30 4821 N 464.123 0.554532 1.47522 0
M  V30 4822 C 465.371 0.0294208 2.02079 0
M  V30 4823 C 465.692 -1.32411 1.43151 0
M  V30 4824 O 464.962 -1.863 0.605728 0
M  V30 4825 H 463.542 0.00788672 0.746958 0
M  V30 4826 H 466.204 0.723934 1.80956 0
M  V30 4827 H 465.3 -0.0606745 3.12041 0
M  V30 4828 N 465.601 -1.54893 0.290851 0
M  V30 4829 C 466.531 -2.26103 -0.583084 0
M  V30 4830 C 467.512 -1.25684 -1.14619 0
M  V30 4831 O 468.697 -1.54436 -1.17741 0
M  V30 4832 C 465.827 -2.99409 -1.75987 0
M  V30 4833 C 464.781 -4.0689 -1.32758 0
M  V30 4834 C 464.107 -4.67856 -2.58872 0
M  V30 4835 C 465.407 -5.20215 -0.46624 0
M  V30 4836 H 467.101 -2.99398 0.0108214 0
M  V30 4837 H 464.647 -1.43998 0.00664468 0
M  V30 4838 H 466.6 -3.47943 -2.37727 0
M  V30 4839 H 465.324 -2.23675 -2.37985 0
M  V30 4840 H 463.983 -3.59191 -0.733299 0
M  V30 4841 H 463.631 -3.88772 -3.19163 0
M  V30 4842 H 463.331 -5.40438 -2.30653 0
M  V30 4843 H 464.855 -5.19147 -3.21433 0
M  V30 4844 H 466.269 -5.64704 -0.989047 0
M  V30 4845 H 464.666 -5.99455 -0.27826 0
M  V30 4846 H 465.736 -4.82198 0.511173 0
M  V30 4847 N 467.08 -0.0183926 -1.57589 0
M  V30 4848 C 468.328 0.661253 -1.90976 0
M  V30 4849 C 468.649 1.73281 -0.894353 0
M  V30 4850 O 467.919 1.9579 0.0656788 0
M  V30 4851 H 466.499 0.247233 -0.704901 0
M  V30 4852 H 469.161 -0.0636639 -1.94796 0
M  V30 4853 H 468.257 1.12083 -2.9128 0
M  V30 4854 N 468.558 1.5553 0.254621 0
M  V30 4855 C 469.783 1.81383 1.00573 0
M  V30 4856 C 470.208 0.594419 1.78461 0
M  V30 4857 O 469.566 -0.456403 1.75461 0
M  V30 4858 C 469.614 3.04892 1.92545 0
M  V30 4859 O 468.718 2.81266 3.01601 0
M  V30 4860 H 468.059 0.598969 0.286587 0
M  V30 4861 H 470.589 2.02703 0.277952 0
M  V30 4862 H 470.599 3.34119 2.34155 0
M  V30 4863 H 469.274 3.93287 1.3527 0
M  V30 4864 H 467.851 2.63185 2.64174 0
M  V30 4865 N 470.036 -0.519951 1.48776 0
M  V30 4866 C 471.452 -0.849418 1.35119 0
M  V30 4867 C 471.652 -1.98077 0.36982 0
M  V30 4868 O 470.708 -2.51664 -0.205359 0
M  V30 4869 C 472.021 -1.20748 2.75391 0
M  V30 4870 C 473.569 -1.31679 2.83954 0
M  V30 4871 C 474.044 -1.70824 4.24951 0
M  V30 4872 N 475.535 -1.77908 4.27672 0
M  V30 4873 C 476.27 -2.09603 5.33717 0
M  V30 4874 N 475.766 -2.39652 6.5003 0
M  V30 4875 N 477.559 -2.10694 5.21119 0
M  V30 4876 H 469.71 0.226377 2.1119 0
M  V30 4877 H 471.973 0.0386519 0.947212 0
M  V30 4878 H 471.679 -0.449703 3.48813 0
M  V30 4879 H 471.553 -2.15534 3.09556 0
M  V30 4880 H 473.94 -2.06532 2.10781 0
M  V30 4881 H 474.021 -0.3499 2.53396 0
M  V30 4882 H 473.665 -0.965282 4.98643 0
M  V30 4883 H 473.595 -2.6858 4.52959 0
M  V30 4884 H 476.086 -1.56923 3.43779 0
M  V30 4885 H 476.399 -2.6297 7.26682 0
M  V30 4886 H 474.744 -2.37149 6.53288 0
M  V30 4887 H 477.935 -1.86682 4.29264 0
M  V30 4888 H 478.108 -2.35062 6.03863 0
M  V30 4889 N 471.514 -1.37532 -0.769588 0
M  V30 4890 C 472.76 -1.33057 -1.53048 0
M  V30 4891 C 473.093 0.0841865 -1.94017 0
M  V30 4892 O 472.368 1.04198 -1.64235 0
M  V30 4893 C 472.651 -2.27166 -2.79406 0
M  V30 4894 C 472.504 -3.77429 -2.44677 0
M  V30 4895 C 473.823 -2.19683 -3.81349 0
M  V30 4896 H 470.942 -0.484655 -0.555228 0
M  V30 4897 H 473.584 -1.68251 -0.882702 0
M  V30 4898 H 471.734 -1.97283 -3.34682 0
M  V30 4899 H 473.406 -4.17918 -1.953 0
M  V30 4900 H 471.649 -3.95892 -1.77346 0
M  V30 4901 H 472.32 -4.38716 -3.35011 0
M  V30 4902 H 474.796 -2.46029 -3.35573 0
M  V30 4903 H 473.672 -2.87668 -4.67481 0
M  V30 4904 H 473.933 -1.19045 -4.25771 0
M  V30 4905 N 472.992 0.995999 -1.22138 0
M  V30 4906 C 473.902 2.11985 -1.00496 0
M  V30 4907 C 474.918 1.7394 0.0457701 0
M  V30 4908 O 476.094 2.00868 -0.146273 0
M  V30 4909 C 473.159 3.41779 -0.582086 0
M  V30 4910 C 472.22 3.93943 -1.70608 0
M  V30 4911 C 471.453 5.17542 -1.30328 0
M  V30 4912 O 471.676 5.70114 -0.180743 0
M  V30 4913 O 470.61 5.63382 -2.11861 0
M  V30 4914 H 474.436 2.33123 -1.94647 0
M  V30 4915 H 472.021 1.10358 -1.00705 0
M  V30 4916 H 473.903 4.1989 -0.356467 0
M  V30 4917 H 472.578 3.22007 0.330592 0
M  V30 4918 H 471.485 3.17019 -1.98619 0
M  V30 4919 H 472.818 4.18141 -2.59651 0
M  V30 4920 N 474.47 1.03057 1.19235 0
M  V30 4921 C 475.4 0.633497 2.24742 0
M  V30 4922 C 476.381 -0.358335 1.66283 0
M  V30 4923 O 477.566 -0.240676 1.92703 0
M  V30 4924 C 474.696 -0.0147648 3.47297 0
M  V30 4925 C 473.65 0.899527 4.18441 0
M  V30 4926 C 472.976 0.116281 5.34574 0
M  V30 4927 C 474.276 2.21404 4.73051 0
M  V30 4928 H 475.97 1.5155 2.58211 0
M  V30 4929 H 473.516 0.73014 1.24117 0
M  V30 4930 H 475.469 -0.304202 4.20301 0
M  V30 4931 H 474.193 -0.931577 3.13032 0
M  V30 4932 H 472.852 1.17319 3.47321 0
M  V30 4933 H 472.5 -0.802619 4.96555 0
M  V30 4934 H 472.2 0.725293 5.83107 0
M  V30 4935 H 473.724 -0.166376 6.10373 0
M  V30 4936 H 475.138 1.98601 5.37802 0
M  V30 4937 H 473.535 2.77512 5.32078 0
M  V30 4938 H 474.605 2.86752 3.91026 0
M  V30 4939 N 475.948 -1.35272 0.808662 0
M  V30 4940 C 477.194 -1.99434 0.399717 0
M  V30 4941 C 477.549 -1.62992 -1.02232 0
M  V30 4942 O 476.842 -0.884091 -1.69983 0
M  V30 4943 C 477.036 -3.53556 0.522798 0
M  V30 4944 C 476.865 -4.04969 1.95525 0
M  V30 4945 C 475.635 -4.34228 2.58407 0
M  V30 4946 C 477.833 -4.23362 2.92009 0
M  V30 4947 N 475.815 -4.71585 3.93041 0
M  V30 4948 C 477.186 -4.63739 4.11517 0
M  V30 4949 C 479.241 -4.05576 2.88813 0
M  V30 4950 C 477.944 -4.88189 5.28265 0
M  V30 4951 C 479.97 -4.31184 4.04765 0
M  V30 4952 C 479.332 -4.71834 5.23022 0
M  V30 4953 H 475.431 -0.757534 0.19408 0
M  V30 4954 H 478.015 -1.63939 1.05034 0
M  V30 4955 H 476.186 -3.88277 -0.0978471 0
M  V30 4956 H 477.918 -4.04604 0.0882378 0
M  V30 4957 H 474.673 -4.24621 2.09747 0
M  V30 4958 H 475.097 -4.9452 4.62363 0
M  V30 4959 H 479.739 -3.73288 1.98535 0
M  V30 4960 H 477.457 -5.1935 6.19113 0
M  V30 4961 H 481.043 -4.18972 4.03675 0
M  V30 4962 H 479.923 -4.91263 6.11253 0
M  V30 4963 N 477.426 -0.562348 -1.47226 0
M  V30 4964 C 478.674 -0.0401371 -2.0206 0
M  V30 4965 C 478.995 1.3165 -1.43852 0
M  V30 4966 O 478.265 1.85976 -0.615599 0
M  V30 4967 H 476.845 -0.0118479 -0.746906 0
M  V30 4968 H 479.507 -0.73352 -1.8057 0
M  V30 4969 H 478.603 0.0441254 -3.12069 0
M  V30 4970 N 478.904 1.54736 -0.299062 0
M  V30 4971 C 480.315 1.8569 0.193971 0
M  V30 4972 C 480.666 1.22101 1.53577 0
M  V30 4973 O 479.791 0.51799 2.10109 0
M  V30 4974 C 480.386 3.36895 0.358733 0
M  V30 4975 C 478.945 3.67887 0.795986 0
M  V30 4976 C 478.092 2.77131 -0.096807 0
M  V30 4977 H 481.043 1.49934 -0.520134 0
M  V30 4978 H 481.064 3.61294 1.19361 0
M  V30 4979 H 480.576 3.83148 -0.617998 0
M  V30 4980 H 478.677 3.27151 1.78334 0
M  V30 4981 H 478.79 4.75114 0.616718 0
M  V30 4982 H 477.154 2.51153 0.423581 0
M  V30 4983 H 477.937 3.26204 -1.06986 0
M  V30 4984 N 480.382 0.0267497 1.57577 0
M  V30 4985 C 481.33 -0.973923 2.11229 0
M  V30 4986 C 482.324 -1.33849 1.03831 0
M  V30 4987 O 483.53 -1.321 1.22269 0
M  V30 4988 H 479.905 -0.331844 0.674821 0
M  V30 4989 H 481.876 -0.496092 2.94247 0
M  V30 4990 C 480.625 -2.24798 2.65257 0
M  V30 4991 H 479.948 -1.9762 3.47543 0
M  V30 4992 H 481.388 -2.93031 3.06445 0
M  V30 4993 C 479.847 -2.97611 1.57891 0
M  V30 4994 O 480.377 -3.89629 0.97735 0
M  V30 4995 N 478.583 -2.59905 1.29992 0
M  V30 4996 H 478.13 -1.85154 1.79097 0
M  V30 4997 H 478.088 -3.08932 0.583798 0
M  V30 4998 N 481.861 -1.55662 -0.24637 0
M  V30 4999 C 483.107 -1.77782 -0.975779 0
M  V30 5000 C 483.44 -0.592103 -1.84953 0
M  V30 5001 O 482.715 0.409588 -1.90138 0
M  V30 5002 C 482.998 -3.09788 -1.83584 0
M  V30 5003 C 482.851 -4.38764 -0.990241 0
M  V30 5004 C 484.17 -3.38029 -2.81823 0
M  V30 5005 H 481.289 -0.646789 -0.353317 0
M  V30 5006 H 483.931 -1.88398 -0.246248 0
M  V30 5007 H 482.081 -3.00869 -2.45784 0
M  V30 5008 H 483.753 -4.59675 -0.386897 0
M  V30 5009 H 481.996 -4.32798 -0.294626 0
M  V30 5010 H 482.667 -5.27514 -1.62584 0
M  V30 5011 H 485.143 -3.46915 -2.2976 0
M  V30 5012 H 484.019 -4.3161 -3.39122 0
M  V30 5013 H 484.28 -2.58968 -3.58313 0
M  V30 5014 N 483.339 0.512053 -1.4905 0
M  V30 5015 C 484.75 1.09376 -1.51307 0
M  V30 5016 C 485.101 1.94 -0.292971 0
M  V30 5017 O 484.226 2.07965 0.598277 0
M  V30 5018 C 484.821 1.99031 -2.74176 0
M  V30 5019 C 483.38 2.52385 -2.79247 0
M  V30 5020 C 482.527 1.29749 -2.45073 0
M  V30 5021 H 485.478 0.296467 -1.55906 0
M  V30 5022 H 485.499 2.83569 -2.53711 0
M  V30 5023 H 485.011 1.37412 -3.62959 0
M  V30 5024 H 483.112 3.17673 -1.94716 0
M  V30 5025 H 483.225 2.90293 -3.81139 0
M  V30 5026 H 481.589 1.61912 -1.96612 0
M  V30 5027 H 482.372 0.698555 -3.36118 0
M  V30 5028 N 484.817 1.37938 0.762283 0
M  V30 5029 C 486.063 1.33866 1.52341 0
M  V30 5030 C 486.396 -0.0738961 1.94059 0
M  V30 5031 O 485.671 -1.03326 1.64785 0
M  V30 5032 C 485.954 2.28644 2.78197 0
M  V30 5033 C 485.807 3.78722 2.42672 0
M  V30 5034 C 487.126 2.21702 3.80179 0
M  V30 5035 H 484.245 0.487593 0.55265 0
M  V30 5036 H 486.887 1.68717 0.873767 0
M  V30 5037 H 485.037 1.99055 3.33631 0
M  V30 5038 H 486.709 4.18948 1.93081 0
M  V30 5039 H 484.952 3.96827 1.75244 0
M  V30 5040 H 485.623 4.40486 3.3268 0
M  V30 5041 H 488.099 2.47805 3.34263 0
M  V30 5042 H 486.975 2.90143 4.65949 0
M  V30 5043 H 487.236 1.21301 4.25133 0
M  V30 5044 N 486.295 -0.989507 1.22664 0
M  V30 5045 C 487.543 -1.72612 1.05117 0
M  V30 5046 C 487.864 -1.90552 -0.414131 0
M  V30 5047 O 487.134 -1.4676 -1.29762 0
M  V30 5048 H 485.714 -0.639555 0.385977 0
M  V30 5049 H 488.376 -1.19158 1.54232 0
M  V30 5050 H 487.472 -2.71926 1.53175 0
M  V30 5051 N 487.773 -1.03688 -1.18687 0
M  V30 5052 C 488.736 -0.629115 -2.20397 0
M  V30 5053 C 489.736 0.311495 -1.57754 0
M  V30 5054 O 490.926 0.0974107 -1.73927 0
M  V30 5055 C 488.058 0.0782231 -3.4081 0
M  V30 5056 H 489.251 -1.52915 -2.57987 0
M  V30 5057 H 486.804 -0.828988 -1.32505 0
M  V30 5058 H 487.539 0.992233 -3.08748 0
M  V30 5059 H 487.324 -0.597776 -3.87517 0
M  V30 5060 H 488.814 0.350156 -4.16129 0
M  V30 5061 N 489.251 1.34841 -0.815825 0
M  V30 5062 C 490.181 2.32187 -0.247298 0
M  V30 5063 C 491.162 1.5791 0.632344 0
M  V30 5064 O 492.347 1.8593 0.560698 0
M  V30 5065 C 489.477 3.42122 0.597466 0
M  V30 5066 C 488.431 4.27602 -0.184446 0
M  V30 5067 C 487.757 5.28942 0.782609 0
M  V30 5068 C 489.057 5.03502 -1.38865 0
M  V30 5069 H 490.751 2.79985 -1.06061 0
M  V30 5070 H 488.297 1.34611 -0.511461 0
M  V30 5071 H 490.25 4.09232 1.00533 0
M  V30 5072 H 488.974 2.92956 1.44376 0
M  V30 5073 H 487.633 3.62085 -0.573592 0
M  V30 5074 H 487.281 4.7604 1.62466 0
M  V30 5075 H 486.981 5.87008 0.263695 0
M  V30 5076 H 488.505 5.98922 1.18848 0
M  V30 5077 H 489.919 5.63506 -1.05518 0
M  V30 5078 H 488.316 5.71108 -1.8427 0
M  V30 5079 H 489.386 4.33608 -2.17054 0
M  V30 5080 N 490.729 0.570148 1.46925 0
M  V30 5081 C 491.692 -0.159933 2.28641 0
M  V30 5082 C 492.692 -0.830638 1.37685 0
M  V30 5083 O 493.882 -0.684516 1.60187 0
M  V30 5084 C 491.014 -1.2354 3.17727 0
M  V30 5085 H 492.207 0.558035 2.94662 0
M  V30 5086 H 489.76 0.327603 1.52828 0
M  V30 5087 H 490.495 -1.98535 2.56426 0
M  V30 5088 H 490.28 -0.759125 3.84681 0
M  V30 5089 H 491.77 -1.74782 3.79264 0
M  V30 5090 N 492.207 -1.54576 0.307264 0
M  V30 5091 C 493.17 -2.22423 -0.553224 0
M  V30 5092 C 494.17 -1.21231 -1.05639 0
M  V30 5093 O 495.36 -1.45923 -0.951419 0
M  V30 5094 C 492.492 -2.91552 -1.76664 0
M  V30 5095 H 493.685 -2.99874 0.0396484 0
M  V30 5096 H 491.238 -1.56192 0.0581629 0
M  V30 5097 H 491.973 -2.18196 -2.39918 0
M  V30 5098 H 491.758 -3.65738 -1.41343 0
M  V30 5099 H 493.248 -3.43292 -2.37783 0
M  V30 5100 N 493.685 -0.035106 -1.57561 0
M  V30 5101 C 494.617 0.973604 -2.07494 0
M  V30 5102 C 495.63 1.28504 -0.999534 0
M  V30 5103 O 496.819 1.24864 -1.27559 0
M  V30 5104 C 493.919 2.29945 -2.48955 0
M  V30 5105 C 493.092 2.1723 -3.79644 0
M  V30 5106 C 492.151 3.328 -4.07592 0
M  V30 5107 O 491.177 3.09418 -4.77754 0
M  V30 5108 N 492.379 4.56779 -3.58236 0
M  V30 5109 H 495.144 0.547525 -2.94656 0
M  V30 5110 H 492.705 0.151515 -1.61189 0
M  V30 5111 H 494.697 3.06097 -2.64739 0
M  V30 5112 H 493.267 2.64173 -1.67126 0
M  V30 5113 H 492.487 1.25768 -3.73599 0
M  V30 5114 H 493.775 2.05945 -4.65257 0
M  V30 5115 H 493.173 4.78668 -3.01485 0
M  V30 5116 H 491.73 5.30079 -3.79288 0
M  V30 5117 N 495.163 1.55791 0.238111 0
M  V30 5118 C 496.41 1.78033 0.964907 0
M  V30 5119 C 496.738 0.600984 1.84982 0
M  V30 5120 O 495.993 -0.41536 1.91241 0
M  V30 5121 C 496.292 3.05869 1.84875 0
M  V30 5122 C 495.958 4.36808 1.11846 0
M  V30 5123 C 494.62 4.72388 0.916662 0
M  V30 5124 C 496.972 5.17717 0.60151 0
M  V30 5125 C 494.3 5.86406 0.185756 0
M  V30 5126 C 496.652 6.32494 -0.115972 0
M  V30 5127 C 495.316 6.66688 -0.329168 0
M  V30 5128 H 494.586 0.651469 0.353085 0
M  V30 5129 H 497.233 1.90061 0.234318 0
M  V30 5130 H 495.538 2.88891 2.64668 0
M  V30 5131 H 497.235 3.20278 2.41294 0
M  V30 5132 H 493.825 4.08862 1.28569 0
M  V30 5133 H 498.009 4.90678 0.744932 0
M  V30 5134 H 493.265 6.11399 0.0101886 0
M  V30 5135 H 497.439 6.94425 -0.524127 0
M  V30 5136 H 495.066 7.54884 -0.897474 0
M  V30 5137 N 496.642 -0.504142 1.49319 0
M  V30 5138 C 497.89 -1.25598 1.58334 0
M  V30 5139 C 498.211 -1.93114 0.270538 0
M  V30 5140 O 497.481 -1.82585 -0.709891 0
M  V30 5141 H 496.061 -0.466571 0.58337 0
M  V30 5142 H 498.723 -0.584547 1.85928 0
M  V30 5143 H 497.819 -2.02159 2.37778 0
M  V30 5144 N 498.12 -1.38341 -0.754957 0
M  V30 5145 C 499.345 -1.37882 -1.5493 0
M  V30 5146 C 499.77 0.0296385 -1.88077 0
M  V30 5147 O 499.128 1.01133 -1.50472 0
M  V30 5148 C 499.176 -2.23996 -2.82592 0
M  V30 5149 O 498.28 -1.65612 -3.77686 0
M  V30 5150 H 497.621 -0.470384 -0.468652 0
M  V30 5151 H 500.151 -1.82084 -0.933082 0
M  V30 5152 H 500.161 -2.37806 -3.3153 0
M  V30 5153 H 498.836 -3.26365 -2.57796 0
M  V30 5154 H 497.413 -1.60936 -3.36384 0
M  V30 5155 N 499.598 0.982988 -1.23187 0
M  V30 5156 C 500.847 1.71817 -1.05649 0
M  V30 5157 C 501.16 1.91315 0.407176 0
M  V30 5158 O 502.366 2.62256 0.702436 0
M  V30 5159 C 500.822 3.09188 -1.84203 0
M  V30 5160 C 500.43 2.97586 -3.34882 0
M  V30 5161 C 502.174 3.86684 -1.75146 0
M  V30 5162 C 500.081 4.30173 -4.05839 0
M  V30 5163 H 499.011 0.644258 -0.391724 0
M  V30 5164 H 501.662 1.09659 -1.4713 0
M  V30 5165 H 500.044 3.72087 -1.35527 0
M  V30 5166 H 501.218 2.43793 -3.91026 0
M  V30 5167 H 499.533 2.33567 -3.44725 0
M  V30 5168 H 502.13 4.84836 -2.25473 0
M  V30 5169 H 502.473 4.10136 -0.713737 0
M  V30 5170 H 503.006 3.30482 -2.21419 0
M  V30 5171 H 499.745 4.11918 -5.09906 0
M  V30 5172 H 499.265 4.83841 -3.54482 0
M  V30 5173 H 500.944 4.98873 -4.11989 0
M  V30 5174 N 501.076 1.04316 1.18135 0
M  V30 5175 C 502.487 0.775505 1.69832 0
M  V30 5176 C 502.838 -0.703348 1.8316 0
M  V30 5177 O 501.963 -1.54729 1.51287 0
M  V30 5178 C 502.558 1.40112 3.0847 0
M  V30 5179 C 501.117 1.18172 3.57368 0
M  V30 5180 C 500.264 1.49022 2.33854 0
M  V30 5181 H 503.215 1.20925 1.02775 0
M  V30 5182 H 503.236 0.805672 3.71873 0
M  V30 5183 H 502.748 2.47744 2.98738 0
M  V30 5184 H 500.849 0.124258 3.72393 0
M  V30 5185 H 500.962 1.8805 4.40652 0
M  V30 5186 H 499.326 0.909995 2.37889 0
M  V30 5187 H 500.109 2.57768 2.26738 0
M  V30 5188 N 502.554 -1.34406 0.822964 0
M  V30 5189 C 503.784 -2.02214 0.423424 0
M  V30 5190 C 504.192 -1.62124 -0.975322 0
M  V30 5191 O 503.535 -0.822452 -1.6426 0
M  V30 5192 C 503.597 -3.56721 0.446107 0
M  V30 5193 C 503.261 -4.20136 1.79819 0
M  V30 5194 C 504.258 -4.4065 2.75904 0
M  V30 5195 C 501.943 -4.56906 2.08669 0
M  V30 5196 C 503.937 -4.9706 3.99012 0
M  V30 5197 C 501.624 -5.13026 3.32036 0
M  V30 5198 C 502.622 -5.33047 4.27024 0
M  V30 5199 O 502.31 -5.87979 5.48211 0
M  V30 5200 H 502.042 -0.654748 0.168169 0
M  V30 5201 H 504.596 -1.72659 1.11257 0
M  V30 5202 H 502.826 -3.85537 -0.299734 0
M  V30 5203 H 504.515 -4.05845 0.0666114 0
M  V30 5204 H 505.281 -4.12607 2.54912 0
M  V30 5205 H 501.16 -4.40626 1.35535 0
M  V30 5206 H 504.704 -5.12603 4.73164 0
M  V30 5207 H 500.601 -5.40498 3.52891 0
M  V30 5208 H 501.369 -6.06413 5.49732 0
M  V30 5209 N 504.032 -0.577932 -1.46621 0
M  V30 5210 C 504.964 0.195801 -2.28362 0
M  V30 5211 C 505.977 0.859983 -1.38232 0
M  V30 5212 O 507.166 0.730349 -1.62875 0
M  V30 5213 C 504.266 1.29639 -3.13124 0
M  V30 5214 C 503.439 0.725049 -4.31349 0
M  V30 5215 C 502.498 1.71274 -4.97546 0
M  V30 5216 O 501.524 1.25067 -5.5529 0
M  V30 5217 N 502.726 3.04672 -4.94121 0
M  V30 5218 H 505.491 -0.505468 -2.95407 0
M  V30 5219 H 503.052 -0.415381 -1.56481 0
M  V30 5220 H 505.044 1.95631 -3.54275 0
M  V30 5221 H 503.614 1.90059 -2.48186 0
M  V30 5222 H 502.834 -0.112205 -3.9404 0
M  V30 5223 H 504.122 0.323034 -5.07774 0
M  V30 5224 H 503.52 3.4484 -4.48444 0
M  V30 5225 H 502.077 3.66166 -5.39227 0
M  V30 5226 N 505.51 1.54411 -0.315457 0
M  V30 5227 C 506.44 2.27002 0.547039 0
M  V30 5228 C 507.421 1.27492 1.12605 0
M  V30 5229 O 508.606 1.5629 1.15269 0
M  V30 5230 C 505.736 3.02171 1.71201 0
M  V30 5231 C 504.69 4.0895 1.26268 0
M  V30 5232 C 504.016 4.71915 2.51396 0
M  V30 5233 C 505.316 5.20891 0.383419 0
M  V30 5234 H 507.01 2.99343 -0.0584517 0
M  V30 5235 H 504.556 1.4397 -0.0295527 0
M  V30 5236 H 506.509 3.51681 2.32161 0
M  V30 5237 H 505.233 2.27433 2.34397 0
M  V30 5238 H 503.892 3.60312 0.676062 0
M  V30 5239 H 503.54 3.93801 3.12937 0
M  V30 5240 H 503.24 5.44039 2.22026 0
M  V30 5241 H 504.764 5.24195 3.13133 0
M  V30 5242 H 506.178 5.66206 0.899082 0
M  V30 5243 H 504.575 5.99821 0.182857 0
M  V30 5244 H 505.645 4.81324 -0.587821 0
M  V30 5245 N 506.988 0.0434614 1.5754 0
M  V30 5246 C 507.918 -0.931651 2.14109 0
M  V30 5247 C 508.899 -1.32971 1.06079 0
M  V30 5248 O 510.084 -1.40579 1.33982 0
M  V30 5249 C 507.214 -2.20914 2.67982 0
M  V30 5250 C 506.168 -1.95139 3.80926 0
M  V30 5251 C 505.494 -3.29276 4.21285 0
M  V30 5252 C 506.794 -1.27913 5.06395 0
M  V30 5253 H 508.488 -0.460497 2.95837 0
M  V30 5254 H 506.034 -0.220058 1.42309 0
M  V30 5255 H 507.987 -2.89522 3.06194 0
M  V30 5256 H 506.711 -2.70221 1.83434 0
M  V30 5257 H 505.37 -1.28945 3.43175 0
M  V30 5258 H 505.018 -3.76369 3.33699 0
M  V30 5259 H 504.718 -3.12831 4.97404 0
M  V30 5260 H 506.242 -3.99129 4.62091 0
M  V30 5261 H 507.656 -1.86544 5.42102 0
M  V30 5262 H 506.053 -1.2182 5.87605 0
M  V30 5263 H 507.123 -0.254066 4.84234 0
M  V30 5264 N 508.466 -1.55915 -0.229846 0
M  V30 5265 C 509.706 -1.80314 -0.962614 0
M  V30 5266 C 510.07 -0.61568 -1.81861 0
M  V30 5267 O 511.271 -0.738795 -2.58448 0
M  V30 5268 C 509.542 -3.0956 -1.78627 0
M  V30 5269 S 511.101 -3.55243 -2.57581 0
M  V30 5270 H 507.919 -0.633142 -0.323499 0
M  V30 5271 H 510.521 -1.94155 -0.228919 0
M  V30 5272 H 509.225 -3.94033 -1.14742 0
M  V30 5273 H 508.756 -2.98503 -2.56241 0
M  V30 5274 H 510.771 -3.17924 -3.80971 0
M  V30 5275 N 509.944 0.496216 -1.49584 0
M  V30 5276 C 510.892 1.61805 -1.67098 0
M  V30 5277 C 511.886 1.60667 -0.536877 0
M  V30 5278 O 513.092 1.65118 -0.716654 0
M  V30 5279 H 509.467 0.53646 -0.526986 0
M  V30 5280 H 511.438 1.44187 -2.61252 0
M  V30 5281 C 510.187 2.99912 -1.75921 0
M  V30 5282 H 509.51 3.01496 -2.62565 0
M  V30 5283 H 510.95 3.77931 -1.92209 0
M  V30 5284 C 509.409 3.33092 -0.505088 0
M  V30 5285 O 509.939 4.00019 0.367085 0
M  V30 5286 N 508.145 2.88278 -0.366599 0
M  V30 5287 H 507.692 2.33989 -1.07735 0
M  V30 5288 H 507.65 3.10846 0.47142 0
M  V30 5289 N 511.423 1.38739 0.74761 0
M  V30 5290 C 512.353 1.39173 1.87492 0
M  V30 5291 C 513.334 0.256794 1.6815 0
M  V30 5292 O 514.519 0.460762 1.88655 0
M  V30 5293 C 511.649 1.22197 3.25093 0
M  V30 5294 C 510.603 2.32957 3.59047 0
M  V30 5295 C 509.929 2.01082 4.95449 0
M  V30 5296 C 511.229 3.75237 3.6331 0
M  V30 5297 H 512.923 2.3351 1.87386 0
M  V30 5298 H 510.469 1.12399 0.900134 0
M  V30 5299 H 512.422 1.21124 4.03617 0
M  V30 5300 H 511.146 0.243241 3.25693 0
M  V30 5301 H 509.805 2.33226 2.82845 0
M  V30 5302 H 509.453 1.01678 4.92616 0
M  V30 5303 H 509.153 2.75267 5.19136 0
M  V30 5304 H 510.677 2.01638 5.76346 0
M  V30 5305 H 512.091 3.76966 4.31937 0
M  V30 5306 H 510.488 4.48677 3.98509 0
M  V30 5307 H 511.558 4.07122 2.634 0
M  V30 5308 N 512.901 -0.976442 1.23707 0
M  V30 5309 C 513.848 -2.06952 1.02174 0
M  V30 5310 C 514.818 -1.65984 -0.0621034 0
M  V30 5311 O 516.003 -1.90584 0.0907906 0
M  V30 5312 C 513.143 -3.39425 0.62327 0
M  V30 5313 C 512.256 -3.9364 1.77966 0
M  V30 5314 C 511.391 -5.14343 1.3276 0
M  V30 5315 C 510.43 -5.60733 2.45449 0
M  V30 5316 N 509.567 -6.72662 2.01172 0
M  V30 5317 H 514.407 -2.24704 1.95734 0
M  V30 5318 H 511.944 -1.10143 0.975034 0
M  V30 5319 H 513.902 -4.15526 0.37332 0
M  V30 5320 H 512.532 -3.21624 -0.275329 0
M  V30 5321 H 511.584 -3.14258 2.14351 0
M  V30 5322 H 512.896 -4.24035 2.62671 0
M  V30 5323 H 512.05 -5.97789 1.03601 0
M  V30 5324 H 510.789 -4.8561 0.450975 0
M  V30 5325 H 509.794 -4.75865 2.75378 0
M  V30 5326 H 511.019 -5.91483 3.33654 0
M  V30 5327 H 508.965 -6.45681 1.15895 0
M  V30 5328 H 508.882 -7.02462 2.79434 0
M  V30 5329 H 510.15 -7.59572 1.75129 0
M  V30 5330 N 514.379 -1.04941 -1.1758 0
M  V30 5331 C 515.795 -0.770282 -1.39781 0
M  V30 5332 C 515.995 0.636417 -1.91186 0
M  V30 5333 O 515.051 1.39923 -2.10185 0
M  V30 5334 C 516.364 -1.82376 -2.3908 0
M  V30 5335 C 517.912 -1.84569 -2.52791 0
M  V30 5336 C 518.387 -2.88933 -3.55361 0
M  V30 5337 N 519.878 -2.8788 -3.62877 0
M  V30 5338 C 520.613 -3.65282 -4.41992 0
M  V30 5339 N 520.109 -4.52461 -5.24643 0
M  V30 5340 N 521.902 -3.53732 -4.36841 0
M  V30 5341 H 514.053 -1.95705 -0.825438 0
M  V30 5342 H 516.316 -0.847284 -0.425222 0
M  V30 5343 H 516.022 -2.83323 -2.08376 0
M  V30 5344 H 515.896 -1.66327 -3.38549 0
M  V30 5345 H 518.283 -0.842879 -2.82807 0
M  V30 5346 H 518.364 -2.04696 -1.53406 0
M  V30 5347 H 518.008 -3.89398 -3.26085 0
M  V30 5348 H 517.938 -2.66059 -4.54445 0
M  V30 5349 H 520.429 -2.24666 -3.03864 0
M  V30 5350 H 520.742 -5.08211 -5.82187 0
M  V30 5351 H 519.087 -4.56524 -5.24033 0
M  V30 5352 H 522.278 -2.85021 -3.71323 0
M  V30 5353 H 522.451 -4.14302 -4.98255 0
M  V30 5354 N 515.857 1.33968 -0.830081 0
M  V30 5355 C 517.103 1.98357 -0.422191 0
M  V30 5356 C 517.436 1.65633 1.01387 0
M  V30 5357 O 516.711 0.931648 1.70735 0
M  V30 5358 C 516.994 3.54492 -0.633043 0
M  V30 5359 C 516.847 3.96934 -2.11574 0
M  V30 5360 C 518.166 4.40039 -0.0735584 0
M  V30 5361 H 515.285 0.720544 -0.154871 0
M  V30 5362 H 517.927 1.58749 -1.04397 0
M  V30 5363 H 516.077 3.88361 -0.103775 0
M  V30 5364 H 517.749 3.73363 -2.7092 0
M  V30 5365 H 515.992 3.46984 -2.60354 0
M  V30 5366 H 516.663 5.05651 -2.21406 0
M  V30 5367 H 519.139 4.12764 -0.52585 0
M  V30 5368 H 518.015 5.48327 -0.250841 0
M  V30 5369 H 518.276 4.30124 1.02202 0
M  V30 5370 N 517.335 0.585699 1.46312 0
M  V30 5371 C 518.746 0.159938 1.86014 0
M  V30 5372 C 519.097 -1.27775 1.48889 0
M  V30 5373 O 518.222 -1.96559 0.90519 0
M  V30 5374 C 518.817 0.283485 3.37612 0
M  V30 5375 C 517.376 -0.0874256 3.76298 0
M  V30 5376 C 516.523 0.618055 2.70325 0
M  V30 5377 H 519.474 0.793737 1.37425 0
M  V30 5378 H 519.495 -0.490348 3.77327 0
M  V30 5379 H 519.007 1.32995 3.64601 0
M  V30 5380 H 517.108 -1.13391 3.54927 0
M  V30 5381 H 517.221 0.290975 4.78216 0
M  V30 5382 H 515.585 0.057993 2.54634 0
M  V30 5383 H 516.368 1.66623 3.00153 0
M  V30 5384 N 518.813 -1.54241 0.323641 0
M  V30 5385 C 520.229 -1.59574 -0.0290018 0
M  V30 5386 C 520.429 -1.34017 -1.50472 0
M  V30 5387 O 519.485 -1.12464 -2.26071 0
M  V30 5388 C 520.798 -2.98169 0.389295 0
M  V30 5389 C 522.346 -3.11148 0.339958 0
M  V30 5390 C 522.821 -4.5209 0.733418 0
M  V30 5391 N 524.312 -4.5808 0.686827 0
M  V30 5392 C 525.047 -5.65248 0.963464 0
M  V30 5393 N 524.543 -6.80355 1.30724 0
M  V30 5394 N 526.336 -5.55025 0.88902 0
M  V30 5395 H 518.487 -1.6911 1.28512 0
M  V30 5396 H 520.75 -0.790972 0.522558 0
M  V30 5397 H 520.456 -3.21871 1.41746 0
M  V30 5398 H 520.33 -3.76399 -0.245657 0
M  V30 5399 H 522.717 -2.87182 -0.679002 0
M  V30 5400 H 522.798 -2.35023 1.00985 0
M  V30 5401 H 522.442 -4.76788 1.75029 0
M  V30 5402 H 522.372 -5.26584 0.0412189 0
M  V30 5403 H 524.863 -3.75411 0.43298 0
M  V30 5404 H 525.176 -7.58029 1.5037 0
M  V30 5405 H 523.521 -6.81851 1.3455 0
M  V30 5406 H 526.712 -4.63977 0.619939 0
M  V30 5407 H 526.885 -6.38458 1.10797 0
M  V30 5408 N 520.291 -0.0518155 -1.57515 0
M  V30 5409 C 521.537 0.622745 -1.93002 0
M  V30 5410 C 521.87 1.70456 -0.930499 0
M  V30 5411 O 521.145 1.94452 0.0434086 0
M  V30 5412 C 521.428 1.21824 -3.38867 0
M  V30 5413 C 521.281 0.144434 -4.49568 0
M  V30 5414 C 522.6 2.12968 -3.8514 0
M  V30 5415 H 519.719 0.22491 -0.701844 0
M  V30 5416 H 522.361 -0.113711 -1.89659 0
M  V30 5417 H 520.511 1.8459 -3.41846 0
M  V30 5418 H 522.183 -0.48753 -4.58717 0
M  V30 5419 H 520.426 -0.527424 -4.30582 0
M  V30 5420 H 521.097 0.601127 -5.48717 0
M  V30 5421 H 523.573 1.60163 -3.8404 0
M  V30 5422 H 522.449 2.51578 -4.87852 0
M  V30 5423 H 522.71 3.03004 -3.21934 0
M  V30 5424 N 521.769 1.56035 0.221574 0
M  V30 5425 C 522.999 1.82864 0.961468 0
M  V30 5426 C 523.407 0.628703 1.78449 0
M  V30 5427 O 522.75 -0.412109 1.79018 0
M  V30 5428 C 522.812 3.03425 1.92804 0
M  V30 5429 C 522.476 4.38429 1.28954 0
M  V30 5430 C 523.473 5.15441 0.679431 0
M  V30 5431 C 521.158 4.85151 1.30131 0
M  V30 5432 C 523.152 6.37337 0.0896148 0
M  V30 5433 C 520.839 6.06989 0.707651 0
M  V30 5434 C 521.837 6.82923 0.102855 0
M  V30 5435 O 521.525 8.02456 -0.48157 0
M  V30 5436 H 521.257 0.611883 0.28736 0
M  V30 5437 H 523.811 2.0397 0.241932 0
M  V30 5438 H 522.041 2.78138 2.68656 0
M  V30 5439 H 523.73 3.17127 2.53348 0
M  V30 5440 H 524.496 4.80452 0.662661 0
M  V30 5441 H 520.375 4.26021 1.76145 0
M  V30 5442 H 523.919 6.96547 -0.383069 0
M  V30 5443 H 519.816 6.41451 0.721834 0
M  V30 5444 H 520.584 8.17636 -0.375887 0
M  V30 5445 N 523.247 -0.488276 1.49845 0
M  V30 5446 C 524.472 -1.26997 1.63971 0
M  V30 5447 C 524.897 -1.85427 0.315994 0
M  V30 5448 O 524.255 -1.66475 -0.718032 0
M  V30 5449 C 524.303 -2.36689 2.72049 0
M  V30 5450 O 523.407 -3.40882 2.32107 0
M  V30 5451 H 522.748 -0.374376 0.548396 0
M  V30 5452 H 525.278 -0.583104 1.96115 0
M  V30 5453 H 525.288 -2.82262 2.94605 0
M  V30 5454 H 523.963 -1.93529 3.68129 0
M  V30 5455 H 522.54 -3.01139 2.19931 0
M  V30 5456 N 524.725 -1.39134 -0.740242 0
M  V30 5457 C 525.973 -1.35803 -1.49673 0
M  V30 5458 C 526.294 0.0470897 -1.94943 0
M  V30 5459 O 525.564 0.997347 -1.68611 0
M  V30 5460 H 524.144 -0.499736 -0.555224 0
M  V30 5461 H 526.806 -1.73947 -0.879107 0
M  V30 5462 H 525.902 -2.0174 -2.38133 0
M  V30 5463 N 526.204 0.969867 -1.24223 0
M  V30 5464 C 527.167 2.04564 -1.03373 0
M  V30 5465 C 528.167 1.60798 0.00819206 0
M  V30 5466 O 529.357 1.72641 -0.232567 0
M  V30 5467 C 526.489 3.36163 -0.566343 0
M  V30 5468 H 527.682 2.24494 -1.98853 0
M  V30 5469 H 525.235 1.1448 -1.06415 0
M  V30 5470 H 525.97 3.21925 0.391751 0
M  V30 5471 H 525.755 3.69273 -1.31834 0
M  V30 5472 H 527.245 4.1526 -0.441435 0
M  V30 5473 O 527.721 1.18047 1.10214 0
M  V30 5474 H 528.412 0.921332 1.70385 0
M  V30 END ATOM
M  V30 BEGIN BOND
M  V30 END BOND
M  V30 END CTAB
M  END
$$$$
