drugbank_drug|DB00036 DB00036 sequence
 OpenBabel12092119113D

  0  0  0     0  0            999 V3000
M  V30 BEGIN CTAB
M  V30 COUNTS 6227 6300 0 0 0
M  V30 BEGIN ATOM
M  V30 1 H -0.908 1.98254 -0.117106 0
M  V30 2 N 0 1.576 0 0
M  V30 3 C 0.963 2.07369 0.976253 0
M  V30 4 C 1.963 0.98309 1.27248 0
M  V30 5 O 3.153 1.24574 1.21766 0
M  V30 6 C 0.285 2.51514 2.30116 0
M  V30 7 H 1.478 2.94892 0.545759 0
M  V30 8 H -0.969 1.54328 0.247471 0
M  V30 9 H -0.234 1.67234 2.77855 0
M  V30 10 H -0.449 3.31163 2.09937 0
M  V30 11 H 1.041 2.90345 3.00149 0
M  V30 12 N 1.4781 -0.272755 1.55222 0
M  V30 13 C 2.4261 -1.35705 1.88909 0
M  V30 14 C 3.4201 -1.5112 0.765456 0
M  V30 15 O 4.6261 -1.52901 0.949802 0
M  V30 16 H 1.0011 -0.453868 0.59959 0
M  V30 17 H 2.9721 -1.04544 2.79487 0
M  V30 18 C 1.7211 -2.71049 2.17779 0
M  V30 19 H 1.0441 -2.59979 3.03728 0
M  V30 20 H 2.4841 -3.45858 2.45272 0
M  V30 21 C 0.9431 -3.22165 0.985473 0
M  V30 22 O 1.4731 -4.01096 0.220233 0
M  V30 23 N -0.3209 -2.7985 0.783108 0
M  V30 24 H -0.7739 -2.15775 1.40708 0
M  V30 25 H -0.8159 -3.14397 -0.0130392 0
M  V30 26 N 2.9562 -1.48159 -0.537278 0
M  V30 27 C 3.9192 -1.61665 -1.62472 0
M  V30 28 C 4.9192 -0.490395 -1.5314 0
M  V30 29 O 6.1092 -0.755998 -1.5694 0
M  V30 30 C 3.2412 -1.57997 -3.02076 0
M  V30 31 H 4.4342 -2.58621 -1.51839 0
M  V30 32 H 1.9872 -1.36647 -0.758771 0
M  V30 33 H 2.7222 -0.624913 -3.18222 0
M  V30 34 H 2.5072 -2.39755 -3.10258 0
M  V30 35 H 3.9972 -1.70627 -3.81151 0
M  V30 36 N 4.4343 0.785586 -1.36625 0
M  V30 37 C 5.6813 1.54362 -1.31067 0
M  V30 38 C 6.0093 1.94195 0.10893 0
M  V30 39 O 5.2643 1.63262 1.07908 0
M  V30 40 C 5.5633 2.83007 -2.1827 0
M  V30 41 C 5.2293 2.62294 -3.6676 0
M  V30 42 C 3.8913 2.56353 -4.0723 0
M  V30 43 C 6.2433 2.43371 -4.6089 0
M  V30 44 C 3.5713 2.29461 -5.39967 0
M  V30 45 C 5.9233 2.18005 -5.93849 0
M  V30 46 C 4.5873 2.105 -6.3344 0
M  V30 47 H 3.8573 0.564851 -0.479609 0
M  V30 48 H 6.5043 0.906028 -1.68711 0
M  V30 49 H 4.8093 3.51253 -1.73576 0
M  V30 50 H 6.5063 3.40817 -2.11292 0
M  V30 51 H 3.0963 2.67774 -3.34656 0
M  V30 52 H 7.2803 2.46959 -4.30494 0
M  V30 53 H 2.5363 2.22135 -5.69619 0
M  V30 54 H 6.7103 2.02359 -6.66351 0
M  V30 55 H 4.3373 1.89425 -7.36222 0
M  V30 56 N 5.9124 1.20967 1.01018 0
M  V30 57 C 6.8424 0.988272 2.11555 0
M  V30 58 C 7.8234 -0.0849778 1.69888 0
M  V30 59 O 9.0084 0.0738202 1.9406 0
M  V30 60 C 6.1384 0.546528 3.42973 0
M  V30 61 C 5.0924 1.56375 3.9841 0
M  V30 62 C 4.4184 0.97842 5.25672 0
M  V30 63 C 5.7184 2.94922 4.31066 0
M  V30 64 H 7.4124 1.91276 2.30334 0
M  V30 65 H 4.9584 0.921073 1.1069 0
M  V30 66 H 6.9114 0.378839 4.19694 0
M  V30 67 H 5.6354 -0.413598 3.23971 0
M  V30 68 H 4.2944 1.71891 3.23804 0
M  V30 69 H 3.9424 0.0101688 5.02999 0
M  V30 70 H 3.6424 1.65784 5.63728 0
M  V30 71 H 5.1664 0.821939 6.05043 0
M  V30 72 H 6.5804 2.8288 4.9865 0
M  V30 73 H 4.9774 3.5983 4.80253 0
M  V30 74 H 6.0474 3.4616 3.39561 0
M  V30 75 N 7.3905 -1.2043 1.01659 0
M  V30 76 C 8.3005 -2.2689 0.596484 0
M  V30 77 C 9.3165 -1.70107 -0.36599 0
M  V30 78 O 10.4925 -2.00117 -0.226942 0
M  V30 79 C 7.5575 -3.4665 -0.0586659 0
M  V30 80 C 6.6185 -4.18662 0.949751 0
M  V30 81 C 5.8515 -5.32705 0.32577 0
M  V30 82 O 6.0745 -5.63656 -0.874509 0
M  V30 83 O 5.0085 -5.92803 1.04249 0
M  V30 84 H 8.8345 -2.65041 1.4828 0
M  V30 85 H 6.4195 -1.27048 0.786082 0
M  V30 86 H 8.3015 -4.19256 -0.424564 0
M  V30 87 H 6.9765 -3.10375 -0.91918 0
M  V30 88 H 5.8835 -3.48229 1.36702 0
M  V30 89 H 7.2165 -4.58878 1.78023 0
M  V30 90 N 8.8686 -0.792821 -1.36206 0
M  V30 91 C 9.7786 -0.194808 -2.3379 0
M  V30 92 C 10.7946 0.654869 -1.61206 0
M  V30 93 O 11.9706 0.569856 -1.9317 0
M  V30 94 C 9.0356 0.657721 -3.40404 0
M  V30 95 C 8.0966 -0.210849 -4.28782 0
M  V30 96 C 7.3296 0.601086 -5.30304 0
M  V30 97 O 7.5526 1.83682 -5.40016 0
M  V30 98 O 6.4866 -0.000808277 -6.019 0
M  V30 99 H 10.3126 -1.00172 -2.86704 0
M  V30 100 H 7.8976 -0.554341 -1.38735 0
M  V30 101 H 9.7796 1.14375 -4.05581 0
M  V30 102 H 8.4546 1.44247 -2.89784 0
M  V30 103 H 7.3616 -0.743714 -3.66633 0
M  V30 104 H 8.6946 -0.959195 -4.82763 0
M  V30 105 N 10.3467 1.47872 -0.545128 0
M  V30 106 C 11.2767 2.32661 0.197793 0
M  V30 107 C 12.2577 1.43041 0.920504 0
M  V30 108 O 13.4427 1.71912 0.90333 0
M  V30 109 C 10.5727 3.24569 1.23582 0
M  V30 110 C 9.5267 4.23333 0.630323 0
M  V30 111 C 8.8527 5.0448 1.77211 0
M  V30 112 C 10.1527 5.20704 -0.407974 0
M  V30 113 H 11.8467 2.95024 -0.510045 0
M  V30 114 H 9.3927 1.4187 -0.246731 0
M  V30 115 H 11.3457 3.8272 1.76362 0
M  V30 116 H 10.0697 2.60236 1.97344 0
M  V30 117 H 8.7287 3.6639 0.123922 0
M  V30 118 H 8.3767 4.36561 2.49847 0
M  V30 119 H 8.0767 5.71339 1.37281 0
M  V30 120 H 9.6007 5.65487 2.3034 0
M  V30 121 H 11.0147 5.7329 0.033305 0
M  V30 122 H 9.4117 5.95699 -0.725486 0
M  V30 123 H 10.4817 4.66917 -1.30828 0
M  V30 124 N 11.8248 0.280983 1.55075 0
M  V30 125 C 13.2408 -0.0729964 1.59433 0
M  V30 126 C 13.4408 -1.5411 1.29817 0
M  V30 127 O 12.4968 -2.29086 1.06187 0
M  V30 128 C 13.8098 0.306921 2.9913 0
M  V30 129 C 15.3578 0.254023 3.11968 0
M  V30 130 C 15.8328 0.608467 4.5394 0
M  V30 131 N 17.3238 0.560241 4.59799 0
M  V30 132 C 18.0588 0.80722 5.6769 0
M  V30 133 N 17.5548 1.11912 6.83701 0
M  V30 134 N 19.3478 0.735623 5.57266 0
M  V30 135 H 11.4988 1.238 1.7259 0
M  V30 136 H 13.7618 0.500547 0.805082 0
M  V30 137 H 13.4678 1.32816 3.25657 0
M  V30 138 H 13.3418 -0.349363 3.75579 0
M  V30 139 H 15.7288 -0.75794 2.852 0
M  V30 140 H 15.8098 0.944649 2.37718 0
M  V30 141 H 15.4538 1.61814 4.81434 0
M  V30 142 H 15.3838 -0.104013 5.26497 0
M  V30 143 H 17.8748 0.329288 3.76463 0
M  V30 144 H 18.1878 1.29409 7.61888 0
M  V30 145 H 16.5328 1.15695 6.85303 0
M  V30 146 H 19.7238 0.491752 4.6551 0
M  V30 147 H 19.8968 0.931482 6.4127 0
M  V30 148 N 13.3029 -1.57598 0.00835791 0
M  V30 149 C 14.7139 -1.7892 -0.53333 0
M  V30 150 C 15.0649 -0.916609 -1.73473 0
M  V30 151 O 14.1899 -0.121336 -2.1606 0
M  V30 152 C 14.7849 -3.24488 -0.974313 0
M  V30 153 C 13.3439 -3.46878 -1.46125 0
M  V30 154 C 12.4909 -2.74157 -0.416302 0
M  V30 155 H 15.4419 -1.56958 0.234495 0
M  V30 156 H 15.4629 -3.3306 -1.83988 0
M  V30 157 H 14.9749 -3.87972 -0.099718 0
M  V30 158 H 13.0759 -2.8862 -2.35646 0
M  V30 159 H 13.1889 -4.55572 -1.48295 0
M  V30 160 H 11.5529 -2.39022 -0.87981 0
M  V30 161 H 12.3359 -3.40345 0.44947 0
M  V30 162 N 14.781 0.264519 -1.55364 0
M  V30 163 C 16.029 0.993021 -1.76021 0
M  V30 164 C 16.35 1.86511 -0.569099 0
M  V30 165 O 15.62 1.91438 0.415735 0
M  V30 166 H 14.2 0.369639 -0.649135 0
M  V30 167 H 16.862 0.286707 -1.9278 0
M  V30 168 H 15.958 1.62502 -2.66457 0
M  V30 169 N 16.2591 1.48442 0.529413 0
M  V30 170 C 17.4841 1.60406 1.31471 0
M  V30 171 C 17.9091 0.264738 1.86228 0
M  V30 172 O 17.2671 -0.763668 1.64432 0
M  V30 173 C 17.3151 2.65419 2.44101 0
M  V30 174 O 16.4191 2.22618 3.47153 0
M  V30 175 H 15.7601 0.537863 0.389357 0
M  V30 176 H 18.2901 1.94432 0.636965 0
M  V30 177 H 18.3001 2.86709 2.90279 0
M  V30 178 H 16.9751 3.62652 2.03608 0
M  V30 179 H 15.5521 2.11543 3.0709 0
M  V30 180 N 17.7372 -0.778329 1.37039 0
M  V30 181 C 18.6672 -1.90546 1.34962 0
M  V30 182 C 19.6482 -1.68681 0.219274 0
M  V30 183 O 20.8332 -1.89634 0.418624 0
M  V30 184 C 17.9632 -3.27734 1.14925 0
M  V30 185 C 16.9172 -3.64147 2.24902 0
M  V30 186 C 16.2432 -4.99806 1.89996 0
M  V30 187 C 17.5432 -3.71579 3.67051 0
M  V30 188 H 19.2372 -1.92541 2.29277 0
M  V30 189 H 16.7832 -0.924948 1.10366 0
M  V30 190 H 18.7362 -4.06215 1.12104 0
M  V30 191 H 17.4602 -3.26154 0.170631 0
M  V30 192 H 16.1192 -2.8797 2.26868 0
M  V30 193 H 15.7672 -4.94759 0.906796 0
M  V30 194 H 15.4672 -5.25139 2.63634 0
M  V30 195 H 16.9912 -5.80694 1.88749 0
M  V30 196 H 18.4052 -4.40227 3.67251 0
M  V30 197 H 16.8022 -4.08405 4.39688 0
M  V30 198 H 17.8722 -2.72404 4.01154 0
M  V30 199 N 19.2153 -1.21501 -1.00376 0
M  V30 200 C 20.1253 -0.991447 -2.12621 0
M  V30 201 C 21.1413 0.0568446 -1.73907 0
M  V30 202 O 22.3173 -0.13348 -2.00957 0
M  V30 203 C 19.3823 -0.560312 -3.42142 0
M  V30 204 C 18.4433 -1.68096 -3.95022 0
M  V30 205 C 17.6763 -1.2703 -5.18362 0
M  V30 206 O 17.8993 -0.144438 -5.70217 0
M  V30 207 O 16.8333 -2.08269 -5.64719 0
M  V30 208 H 20.6593 -1.93158 -2.34358 0
M  V30 209 H 18.2443 -0.999999 -1.10997 0
M  V30 210 H 20.1263 -0.329724 -4.20108 0
M  V30 211 H 18.8013 0.351089 -3.2179 0
M  V30 212 H 17.7083 -1.96597 -3.18278 0
M  V30 213 H 19.0413 -2.56983 -4.19786 0
M  V30 214 N 20.6934 1.19889 -1.02296 0
M  V30 215 C 22.1094 1.41462 -0.738954 0
M  V30 216 C 22.3094 1.89721 0.678846 0
M  V30 217 O 21.3654 2.07016 1.4457 0
M  V30 218 C 22.6784 2.43083 -1.77005 0
M  V30 219 C 24.2264 2.5684 -1.78892 0
M  V30 220 C 24.7014 3.61709 -2.80945 0
M  V30 221 N 26.1924 3.69199 -2.79725 0
M  V30 222 C 26.9274 4.50019 -3.55345 0
M  V30 223 N 26.4234 5.34592 -4.40662 0
M  V30 224 N 28.2164 4.44612 -3.43914 0
M  V30 225 H 20.3674 0.868827 -1.93817 0
M  V30 226 H 22.6304 0.44399 -0.837602 0
M  V30 227 H 22.3364 2.14636 -2.78612 0
M  V30 228 H 22.2104 3.4217 -1.58744 0
M  V30 229 H 24.5974 2.84614 -0.779674 0
M  V30 230 H 24.6784 1.57927 -2.01228 0
M  V30 231 H 24.3224 3.34678 -3.82038 0
M  V30 232 H 24.2524 4.60259 -2.5587 0
M  V30 233 H 26.7434 3.08794 -2.17842 0
M  V30 234 H 27.0564 5.93363 -4.95116 0
M  V30 235 H 25.4014 5.34073 -4.44737 0
M  V30 236 H 28.5924 3.7758 -2.76679 0
M  V30 237 H 28.7654 5.0736 -4.031 0
M  V30 238 N 22.1715 0.800033 1.35784 0
M  V30 239 C 23.0815 0.207204 2.33683 0
M  V30 240 C 24.0975 -0.64631 1.61551 0
M  V30 241 O 25.2735 -0.559604 1.93469 0
M  V30 242 C 22.3385 -0.639659 3.40748 0
M  V30 243 C 21.3995 0.233585 4.28664 0
M  V30 244 C 20.6325 -0.572954 5.30616 0
M  V30 245 O 20.8555 -1.80816 5.40982 0
M  V30 246 O 19.7895 0.0327285 6.01891 0
M  V30 247 H 23.6155 1.01692 2.86169 0
M  V30 248 H 21.2005 0.561691 1.38439 0
M  V30 249 H 23.0825 -1.12223 4.06182 0
M  V30 250 H 21.7575 -1.42708 2.90544 0
M  V30 251 H 20.6645 0.763147 3.66233 0
M  V30 252 H 21.9975 0.984784 4.82248 0
M  V30 253 N 23.6496 -1.47581 0.552962 0
M  V30 254 C 24.8896 -2.04379 0.0296245 0
M  V30 255 C 25.2536 -1.4185 -1.29393 0
M  V30 256 O 26.4546 -1.89669 -1.90471 0
M  V30 257 C 24.7256 -3.57339 -0.0661371 0
M  V30 258 S 26.2846 -4.35511 -0.536213 0
M  V30 259 H 23.1026 -0.710625 0.0230991 0
M  V30 260 H 25.7046 -1.81005 0.738734 0
M  V30 261 H 24.4086 -4.00374 0.901596 0
M  V30 262 H 23.9396 -3.85202 -0.798931 0
M  V30 263 H 25.9546 -4.6253 -1.79668 0
M  V30 264 N 25.1277 -0.289203 -1.54924 0
M  V30 265 C 26.0747 0.592115 -2.23075 0
M  V30 266 C 27.0447 1.13881 -1.20915 0
M  V30 267 O 28.2297 1.18551 -1.495 0
M  V30 268 C 25.3697 1.76376 -2.96623 0
M  V30 269 C 24.4827 1.24959 -4.13533 0
M  V30 270 C 23.6177 2.38416 -4.74691 0
M  V30 271 C 22.6567 1.84072 -5.83767 0
M  V30 272 N 21.7937 2.91057 -6.38929 0
M  V30 273 H 26.6337 0.00432038 -2.98 0
M  V30 274 H 24.1707 -0.00963529 -1.47097 0
M  V30 275 H 26.1287 2.45268 -3.3749 0
M  V30 276 H 24.7587 2.32337 -2.24097 0
M  V30 277 H 23.8107 0.453307 -3.77689 0
M  V30 278 H 25.1227 0.811662 -4.92152 0
M  V30 279 H 24.2767 3.15276 -5.18349 0
M  V30 280 H 23.0157 2.8553 -3.95378 0
M  V30 281 H 22.0207 1.05697 -5.39545 0
M  V30 282 H 23.2457 1.37877 -6.64956 0
M  V30 283 H 21.1917 3.37526 -5.62505 0
M  V30 284 H 21.1087 2.51724 -7.12861 0
M  V30 285 H 22.3767 3.6785 -6.87246 0
M  V30 286 N 26.6058 1.57591 -0.0167156 0
M  V30 287 C 27.5158 2.1291 0.98521 0
M  V30 288 C 28.5318 1.07834 1.36557 0
M  V30 289 O 29.7078 1.39826 1.44951 0
M  V30 290 C 26.7728 2.63512 2.25305 0
M  V30 291 C 25.8338 3.83256 1.93426 0
M  V30 292 C 25.0668 4.31435 3.14165 0
M  V30 293 O 25.2898 3.78851 4.26413 0
M  V30 294 O 24.2238 5.23416 2.97186 0
M  V30 295 H 28.0498 2.98772 0.544888 0
M  V30 296 H 25.6348 1.48012 0.203141 0
M  V30 297 H 27.5168 2.96183 2.99756 0
M  V30 298 H 26.1918 1.8074 2.68542 0
M  V30 299 H 25.0988 3.55531 1.16398 0
M  V30 300 H 26.4318 4.67153 1.55013 0
M  V30 301 N 28.0839 -0.256276 1.55502 0
M  V30 302 C 28.9939 -1.33882 1.92647 0
M  V30 303 C 30.0099 -1.53159 0.825727 0
M  V30 304 O 31.1859 -1.66963 1.12629 0
M  V30 305 C 28.2509 -2.6751 2.20543 0
M  V30 306 C 27.3119 -2.56836 3.43997 0
M  V30 307 C 26.5449 -3.84092 3.70553 0
M  V30 308 O 26.7679 -4.85545 2.99336 0
M  V30 309 O 25.7019 -3.83288 4.64084 0
M  V30 310 H 29.5279 -1.05374 2.84833 0
M  V30 311 H 27.1129 -0.456237 1.42263 0
M  V30 312 H 28.9949 -3.46492 2.39835 0
M  V30 313 H 27.6699 -2.9577 1.31536 0
M  V30 314 H 26.5769 -1.76172 3.30021 0
M  V30 315 H 27.9099 -2.33523 4.33275 0
M  V30 316 N 29.562 -1.4872 -0.521534 0
M  V30 317 C 30.494 -1.59968 -1.64143 0
M  V30 318 C 31.507 -0.483463 -1.55456 0
M  V30 319 O 32.696 -0.75467 -1.61762 0
M  V30 320 C 29.796 -1.52127 -3.02838 0
M  V30 321 C 28.969 -2.78932 -3.36921 0
M  V30 322 C 28.028 -2.64428 -4.54933 0
M  V30 323 O 27.054 -3.38331 -4.57735 0
M  V30 324 N 28.256 -1.74606 -5.53618 0
M  V30 325 H 31.021 -2.56548 -1.54929 0
M  V30 326 H 28.582 -1.45551 -0.708988 0
M  V30 327 H 30.574 -1.40106 -3.79674 0
M  V30 328 H 29.144 -0.634868 -3.06085 0
M  V30 329 H 28.364 -3.05455 -2.4918 0
M  V30 330 H 29.652 -3.63041 -3.56481 0
M  V30 331 H 29.05 -1.13782 -5.54139 0
M  V30 332 H 27.607 -1.6852 -6.29638 0
M  V30 333 N 31.0401 0.771051 -1.3745 0
M  V30 334 C 32.2801 1.54264 -1.34096 0
M  V30 335 C 32.6441 1.91858 0.0737639 0
M  V30 336 O 33.8451 2.67797 0.23203 0
M  V30 337 C 32.1161 2.77326 -2.25445 0
M  V30 338 S 33.6751 3.67383 -2.39948 0
M  V30 339 H 30.4931 0.528122 -0.476034 0
M  V30 340 H 33.0951 0.906633 -1.73206 0
M  V30 341 H 31.7991 2.47788 -3.27153 0
M  V30 342 H 31.3301 3.45886 -1.87421 0
M  V30 343 H 33.3451 4.69334 -1.61059 0
M  V30 344 N 32.5182 1.22032 0.997298 0
M  V30 345 C 33.7432 1.06921 1.77715 0
M  V30 346 C 34.1682 -0.376226 1.84299 0
M  V30 347 O 33.5262 -1.27165 1.29223 0
M  V30 348 C 33.5742 1.67996 3.19076 0
M  V30 349 O 32.6782 0.930653 4.01762 0
M  V30 350 H 32.0192 0.375814 0.547412 0
M  V30 351 H 34.5492 1.61737 1.25309 0
M  V30 352 H 34.5592 1.72538 3.69723 0
M  V30 353 H 33.2342 2.73182 3.13599 0
M  V30 354 H 31.8112 0.960917 3.60307 0
M  V30 355 N 33.9963 -1.19345 1.0293 0
M  V30 356 C 35.2433 -1.89038 0.726008 0
M  V30 357 C 35.5713 -1.79649 -0.745427 0
M  V30 358 O 34.8263 -1.18354 -1.55855 0
M  V30 359 C 35.1253 -3.39292 1.12319 0
M  V30 360 C 34.7913 -3.68885 2.59297 0
M  V30 361 C 33.4533 -3.76671 2.99453 0
M  V30 362 C 35.8053 -3.82178 3.54386 0
M  V30 363 C 33.1333 -3.9522 4.33611 0
M  V30 364 C 35.4853 -4.0224 4.88248 0
M  V30 365 C 34.1493 -4.08259 5.28092 0
M  V30 366 H 33.4193 -0.691739 0.265665 0
M  V30 367 H 36.0663 -1.41328 1.29223 0
M  V30 368 H 34.3713 -3.88903 0.475584 0
M  V30 369 H 36.0683 -3.91536 0.866037 0
M  V30 370 H 32.6583 -3.63433 2.27189 0
M  V30 371 H 36.8423 -3.75505 3.24514 0
M  V30 372 H 32.0983 -3.98119 4.64016 0
M  V30 373 H 36.2723 -4.11468 5.61843 0
M  V30 374 H 33.8993 -4.22384 6.32057 0
M  V30 375 N 35.4744 -0.807222 -1.35358 0
M  V30 376 C 36.3844 -0.219594 -2.3357 0
M  V30 377 C 37.4004 0.637734 -1.61892 0
M  V30 378 O 38.5764 0.549336 -1.93763 0
M  V30 379 C 35.6414 0.62158 -3.41083 0
M  V30 380 C 34.7024 -0.256315 -4.28534 0
M  V30 381 C 33.9354 0.544807 -5.30912 0
M  V30 382 O 34.1584 1.77944 -5.41934 0
M  V30 383 O 33.0924 -0.0646478 -6.01865 0
M  V30 384 H 36.9184 -1.03208 -2.85625 0
M  V30 385 H 34.5034 -0.569025 -1.38139 0
M  V30 386 H 36.3854 1.10067 -4.06772 0
M  V30 387 H 35.0604 1.41165 -2.91297 0
M  V30 388 H 33.9674 -0.782559 -3.65823 0
M  V30 389 H 35.3004 -1.01034 -4.81719 0
M  V30 390 N 36.9525 1.47285 -0.560781 0
M  V30 391 C 37.8625 2.33846 0.187954 0
M  V30 392 C 38.8785 1.48412 0.908293 0
M  V30 393 O 40.0545 1.81332 0.876388 0
M  V30 394 C 37.1195 3.25178 1.2025 0
M  V30 395 C 36.1805 4.26504 0.489208 0
M  V30 396 C 35.4135 5.13472 1.45542 0
M  V30 397 O 35.6365 5.02959 2.6905 0
M  V30 398 O 34.5705 5.93902 0.977963 0
M  V30 399 H 38.3965 2.99177 -0.522177 0
M  V30 400 H 35.9815 1.45903 -0.321364 0
M  V30 401 H 37.8635 3.81584 1.78805 0
M  V30 402 H 36.5385 2.6247 1.89449 0
M  V30 403 H 35.4455 3.73847 -0.137627 0
M  V30 404 H 36.7785 4.91935 -0.161399 0
M  V30 405 N 38.4306 0.297415 1.54768 0
M  V30 406 C 39.3936 -0.567375 2.22066 0
M  V30 407 C 40.3936 -1.06409 1.20556 0
M  V30 408 O 41.5836 -0.960691 1.45315 0
M  V30 409 C 38.7156 -1.78517 2.90421 0
M  V30 410 H 39.9086 0.0205534 2.99893 0
M  V30 411 H 37.4616 0.0482163 1.56226 0
M  V30 412 H 38.1966 -2.41303 2.16664 0
M  V30 413 H 37.9816 -1.43669 3.64831 0
M  V30 414 H 39.4716 -2.39964 3.41771 0
M  V30 415 N 39.9087 -1.5758 0.0250728 0
M  V30 416 C 41.3247 -1.56124 -0.331282 0
M  V30 417 C 41.5247 -1.03029 -1.73169 0
M  V30 418 O 40.5807 -0.675215 -2.43305 0
M  V30 419 C 41.8937 -3.00139 -0.183584 0
M  V30 420 C 43.4417 -3.11946 -0.256654 0
M  V30 421 C 43.9167 -4.57793 -0.137792 0
M  V30 422 N 45.4077 -4.6279 -0.194904 0
M  V30 423 C 46.1427 -5.7326 -0.126655 0
M  V30 424 N 45.6387 -6.928 -0.00755288 0
M  V30 425 N 47.4317 -5.61811 -0.180348 0
M  V30 426 H 39.5827 -1.90424 0.94087 0
M  V30 427 H 41.8457 -0.875761 0.362968 0
M  V30 428 H 41.5517 -3.4292 0.780927 0
M  V30 429 H 41.4257 -3.64899 -0.955448 0
M  V30 430 H 43.8127 -2.69079 -1.21162 0
M  V30 431 H 43.8937 -2.49915 0.545517 0
M  V30 432 H 43.5377 -5.01339 0.813739 0
M  V30 433 H 43.4677 -5.17798 -0.958775 0
M  V30 434 H 45.9587 -3.76807 -0.287267 0
M  V30 435 H 46.2717 -7.72791 0.0379428 0
M  V30 436 H 44.6167 -6.94995 0.0271731 0
M  V30 437 H 47.8077 -4.6731 -0.271767 0
M  V30 438 H 47.9807 -6.47882 -0.123697 0
M  V30 439 N 41.3868 0.248026 -1.55636 0
M  V30 440 C 42.2968 1.32859 -1.93354 0
M  V30 441 C 43.3128 1.52719 -0.833838 0
M  V30 442 O 44.4888 1.66363 -1.13513 0
M  V30 443 C 41.5538 2.66337 -2.21958 0
M  V30 444 C 40.6148 2.55008 -3.45354 0
M  V30 445 C 39.8478 3.82121 -3.72584 0
M  V30 446 O 40.0708 4.83951 -3.01907 0
M  V30 447 O 39.0048 3.80822 -4.6611 0
M  V30 448 H 42.8308 1.03862 -2.85388 0
M  V30 449 H 40.4158 0.448686 -1.42503 0
M  V30 450 H 42.2978 3.45216 -2.4167 0
M  V30 451 H 40.9728 2.95068 -1.33103 0
M  V30 452 H 39.8798 1.7442 -3.30951 0
M  V30 453 H 41.2128 2.31222 -4.34508 0
M  V30 454 N 42.8649 1.48995 0.513639 0
M  V30 455 C 44.1139 1.57093 1.2651 0
M  V30 456 C 44.4269 0.257091 1.93903 0
M  V30 457 O 45.6329 0.216478 2.70636 0
M  V30 458 C 44.0889 2.77118 2.29638 0
M  V30 459 C 43.6969 4.15209 1.68241 0
M  V30 460 C 45.4409 2.94538 3.05692 0
M  V30 461 C 43.3479 5.26474 2.69406 0
M  V30 462 H 42.2779 0.584876 0.475854 0
M  V30 463 H 44.9289 1.7536 0.540487 0
M  V30 464 H 43.3109 2.52319 3.05207 0
M  V30 465 H 44.4849 4.50094 0.987505 0
M  V30 466 H 42.7999 4.03042 1.04623 0
M  V30 467 H 45.3969 3.74832 3.8132 0
M  V30 468 H 45.7399 2.04614 3.62545 0
M  V30 469 H 46.2729 3.19316 2.37238 0
M  V30 470 H 43.0119 6.18417 2.17351 0
M  V30 471 H 42.5319 4.96058 3.37175 0
M  V30 472 H 44.2109 5.55277 3.32078 0
M  V30 473 N 44.343 -0.763751 1.37857 0
M  V30 474 C 45.59 -1.52257 1.33506 0
M  V30 475 C 45.918 -1.94343 -0.078022 0
M  V30 476 O 45.173 -1.64958 -1.05297 0
M  V30 477 C 45.472 -2.79499 2.22745 0
M  V30 478 C 45.138 -2.56426 3.70886 0
M  V30 479 C 43.8 -2.49842 4.11257 0
M  V30 480 C 46.152 -2.36008 4.64704 0
M  V30 481 C 43.48 -2.20841 5.43549 0
M  V30 482 C 45.832 -2.0853 5.97242 0
M  V30 483 C 44.496 -2.00396 6.36709 0
M  V30 484 H 43.766 -0.557149 0.488534 0
M  V30 485 H 46.413 -0.879073 1.70131 0
M  V30 486 H 44.718 -3.48447 1.79142 0
M  V30 487 H 46.415 -3.37413 2.16688 0
M  V30 488 H 43.005 -2.62416 3.38874 0
M  V30 489 H 47.189 -2.40079 4.34368 0
M  V30 490 H 42.445 -2.13045 5.73081 0
M  V30 491 H 46.619 -1.91732 6.69486 0
M  V30 492 H 44.246 -1.77688 7.39142 0
M  V30 493 N 45.8211 -1.22559 -0.990812 0
M  V30 494 C 46.7681 -0.997519 -2.0813 0
M  V30 495 C 47.7381 0.0814702 -1.659 0
M  V30 496 O 48.9231 -0.0685424 -1.90677 0
M  V30 497 C 46.0631 -0.583615 -3.40129 0
M  V30 498 C 45.1761 -1.7336 -3.9569 0
M  V30 499 C 44.3111 -1.26748 -5.15857 0
M  V30 500 C 43.3501 -2.38888 -5.63559 0
M  V30 501 N 42.4871 -1.93308 -6.74964 0
M  V30 502 H 47.3271 -1.93099 -2.26973 0
M  V30 503 H 44.8641 -0.962114 -1.11273 0
M  V30 504 H 46.8221 -0.324801 -4.15934 0
M  V30 505 H 45.4521 0.312845 -3.2128 0
M  V30 506 H 44.5041 -2.10669 -3.16738 0
M  V30 507 H 45.8161 -2.57704 -4.27071 0
M  V30 508 H 44.9701 -0.966173 -5.98957 0
M  V30 509 H 43.7091 -0.394272 -4.86104 0
M  V30 510 H 42.7141 -2.69805 -4.79046 0
M  V30 511 H 43.9391 -3.26728 -5.95336 0
M  V30 512 H 41.8851 -1.08352 -6.4699 0
M  V30 513 H 41.8021 -2.71217 -7.05675 0
M  V30 514 H 43.0701 -1.66252 -7.61564 0
M  V30 515 N 47.2992 1.18797 -1.03562 0
M  V30 516 C 48.5762 1.84469 -0.650434 0
M  V30 517 C 48.9562 1.92319 0.870433 0
M  V30 518 O 48.3042 1.44528 1.76986 0
M  V30 519 C 48.5142 3.2306 -1.32036 0
M  V30 520 C 49.8622 3.9915 -1.44792 0
M  V30 521 O 50.8862 3.32481 -1.27806 0
M  V30 522 O 49.7452 5.18587 -1.72423 0
M  V30 523 H 46.8392 0.795251 -0.226946 0
M  V30 524 H 49.3852 1.26231 -1.13419 0
M  V30 525 H 48.1572 3.1222 -2.3587 0
M  V30 526 H 47.7802 3.88949 -0.8249 0
M  V30 527 N 48.7773 0.814389 1.34928 0
M  V30 528 C 49.7403 0.235759 2.27984 0
M  V30 529 C 50.7403 -0.581412 1.49921 0
M  V30 530 O 51.9303 -0.398758 1.69575 0
M  V30 531 C 49.0623 -0.670433 3.34242 0
M  V30 532 H 50.2553 1.05659 2.80671 0
M  V30 533 H 47.8083 0.585614 1.44915 0
M  V30 534 H 48.5433 -1.51466 2.86755 0
M  V30 535 H 48.3283 -0.0860822 3.92005 0
M  V30 536 H 49.8183 -1.06935 4.03676 0
M  V30 537 N 50.2554 -1.46986 0.568584 0
M  V30 538 C 51.1654 -2.33942 -0.17555 0
M  V30 539 C 52.1814 -1.48891 -0.90041 0
M  V30 540 O 53.3574 -1.81794 -0.86676 0
M  V30 541 C 50.4224 -3.25811 -1.18524 0
M  V30 542 C 49.4834 -4.26757 -0.466582 0
M  V30 543 C 48.7164 -5.14236 -1.42817 0
M  V30 544 O 48.9394 -5.04379 -2.66379 0
M  V30 545 O 47.8734 -5.94412 -0.946453 0
M  V30 546 H 51.6994 -2.98896 0.538036 0
M  V30 547 H 49.2844 -1.4573 0.329097 0
M  V30 548 H 51.1664 -3.82527 -1.76779 0
M  V30 549 H 49.8414 -2.63471 -1.88055 0
M  V30 550 H 48.7484 -3.73769 0.157451 0
M  V30 551 H 50.0814 -4.91843 0.187485 0
M  V30 552 N 51.7335 -0.305618 -1.54608 0
M  V30 553 C 53.1495 0.0476228 -1.59529 0
M  V30 554 C 53.3495 1.52025 -1.32252 0
M  V30 555 O 52.4055 2.27368 -1.09818 0
M  V30 556 C 53.7185 -0.354471 -2.98603 0
M  V30 557 C 55.2665 -0.303622 -3.11524 0
M  V30 558 C 55.7415 -0.680608 -4.52915 0
M  V30 559 N 57.2325 -0.63332 -4.5885 0
M  V30 560 C 57.9675 -0.897432 -5.66334 0
M  V30 561 N 57.4635 -1.22775 -6.81834 0
M  V30 562 N 59.2565 -0.824186 -5.56025 0
M  V30 563 H 51.4075 -1.2653 -1.70599 0
M  V30 564 H 53.6705 -0.513291 -0.797017 0
M  V30 565 H 53.3765 -1.3798 -3.23503 0
M  V30 566 H 53.2505 0.289568 -3.76087 0
M  V30 567 H 55.6375 0.712472 -2.8637 0
M  V30 568 H 55.7185 -0.982348 -2.36185 0
M  V30 569 H 55.3625 -1.69453 -4.78799 0
M  V30 570 H 55.2925 0.0202385 -5.26596 0
M  V30 571 H 57.7835 -0.389138 -3.75891 0
M  V30 572 H 58.0965 -1.41513 -7.59733 0
M  V30 573 H 56.4415 -1.26583 -6.83375 0
M  V30 574 H 59.6325 -0.565748 -4.64669 0
M  V30 575 H 59.8055 -1.03338 -6.39707 0
M  V30 576 N 53.2116 1.57565 -0.0334293 0
M  V30 577 C 54.4396 1.9628 0.654347 0
M  V30 578 C 54.8546 0.910138 1.65414 0
M  V30 579 O 54.2116 -0.107595 1.82183 0
M  V30 580 C 54.2626 3.35067 1.35693 0
M  V30 581 O 53.9836 4.36296 0.397191 0
M  V30 582 C 55.4846 3.88439 2.13613 0
M  V30 583 H 52.7046 0.646369 0.180132 0
M  V30 584 H 55.2486 2.04282 -0.0944721 0
M  V30 585 H 53.4036 3.2827 2.05712 0
M  V30 586 H 53.8176 5.1678 0.896597 0
M  V30 587 H 55.2916 4.8788 2.58219 0
M  V30 588 H 55.7686 3.22914 2.97696 0
M  V30 589 H 56.3746 3.98516 1.48543 0
M  V30 590 N 54.6897 -0.239769 1.55765 0
M  V30 591 C 55.6367 -1.29696 1.90913 0
M  V30 592 C 56.6067 -1.47478 0.764164 0
M  V30 593 O 57.7917 -1.61345 1.01845 0
M  V30 594 C 54.9317 -2.64598 2.21544 0
M  V30 595 C 54.0447 -2.54765 3.48882 0
M  V30 596 C 53.1797 -3.82069 3.69049 0
M  V30 597 C 52.2187 -3.66883 4.89963 0
M  V30 598 N 51.3557 -4.86094 5.06614 0
M  V30 599 H 56.1957 -0.990224 2.81067 0
M  V30 600 H 53.7327 -0.477684 1.39128 0
M  V30 601 H 55.6907 -3.43132 2.3731 0
M  V30 602 H 54.3207 -2.93405 1.34585 0
M  V30 603 H 53.3727 -1.67763 3.41409 0
M  V30 604 H 54.6847 -2.39457 4.37563 0
M  V30 605 H 53.8387 -4.69046 3.84812 0
M  V30 606 H 52.5777 -4.00282 2.78614 0
M  V30 607 H 51.5827 -2.78289 4.74168 0
M  V30 608 H 52.8077 -3.50157 5.81865 0
M  V30 609 H 50.7537 -5.04655 4.19117 0
M  V30 610 H 50.6707 -4.73443 5.89396 0
M  V30 611 H 51.9387 -5.74549 5.26795 0
M  V30 612 N 56.1678 -1.49265 -0.50573 0
M  V30 613 C 57.0978 -1.68495 -1.61653 0
M  V30 614 C 58.0788 -0.53366 -1.61512 0
M  V30 615 O 59.2638 -0.76897 -1.78327 0
M  V30 616 C 56.3938 -1.74709 -3.00157 0
M  V30 617 C 55.3478 -2.89581 -3.15162 0
M  V30 618 C 54.6738 -2.80903 -4.5497 0
M  V30 619 C 55.9738 -4.30578 -2.95634 0
M  V30 620 H 57.6678 -2.61493 -1.45814 0
M  V30 621 H 55.2138 -1.25838 -0.70005 0
M  V30 622 H 57.1668 -1.86748 -3.77761 0
M  V30 623 H 55.8908 -0.783067 -3.17074 0
M  V30 624 H 54.5498 -2.77136 -2.39982 0
M  V30 625 H 54.1978 -1.82419 -4.68756 0
M  V30 626 H 53.8978 -3.57999 -4.65951 0
M  V30 627 H 55.4218 -2.94944 -5.34641 0
M  V30 628 H 56.8358 -4.4373 -3.63011 0
M  V30 629 H 55.2328 -5.0886 -3.18091 0
M  V30 630 H 56.3028 -4.45352 -1.91806 0
M  V30 631 N 57.6459 0.756429 -1.3826 0
M  V30 632 C 58.8929 1.51547 -1.34312 0
M  V30 633 C 59.2209 1.94382 0.0677144 0
M  V30 634 O 58.4759 1.65514 1.04421 0
M  V30 635 C 58.7749 2.78313 -2.24224 0
M  V30 636 C 58.4409 2.54455 -3.72241 0
M  V30 637 C 57.1029 2.47657 -4.12576 0
M  V30 638 C 59.4549 2.3354 -4.65949 0
M  V30 639 C 56.7829 2.17956 -5.44713 0
M  V30 640 C 59.1349 2.05359 -5.9834 0
M  V30 641 C 57.7989 1.97016 -6.37762 0
M  V30 642 H 57.0689 0.55455 -0.491482 0
M  V30 643 H 59.7159 0.870039 -1.70595 0
M  V30 644 H 58.0209 3.47492 -1.80987 0
M  V30 645 H 59.7179 3.36259 -2.18474 0
M  V30 646 H 56.3079 2.60616 -3.40261 0
M  V30 647 H 60.4919 2.37772 -4.35635 0
M  V30 648 H 55.7479 2.10003 -5.74203 0
M  V30 649 H 59.9219 1.88179 -6.70494 0
M  V30 650 H 57.5489 1.73766 -7.40074 0
M  V30 651 N 59.124 1.23083 0.984299 0
M  V30 652 C 60.37 1.07221 1.72845 0
M  V30 653 C 60.725 -0.387453 1.88458 0
M  V30 654 O 60.018 -1.28309 1.42293 0
M  V30 655 C 60.212 1.72673 3.1292 0
M  V30 656 C 60.041 3.24853 3.10967 0
M  V30 657 C 58.811 3.93998 3.16376 0
M  V30 658 C 61.009 4.21674 2.94441 0
M  V30 659 N 58.991 5.33192 3.04268 0
M  V30 660 C 60.362 5.47756 2.90453 0
M  V30 661 C 62.417 4.12457 2.78897 0
M  V30 662 C 61.12 6.6568 2.72512 0
M  V30 663 C 63.146 5.3004 2.62319 0
M  V30 664 C 62.508 6.55046 2.59026 0
M  V30 665 H 58.607 0.44685 0.641755 0
M  V30 666 H 61.191 1.55753 1.16829 0
M  V30 667 H 59.362 1.26679 3.67161 0
M  V30 668 H 61.094 1.49824 3.75945 0
M  V30 669 H 57.849 3.45052 3.24401 0
M  V30 670 H 58.273 6.06157 3.015 0
M  V30 671 H 62.915 3.16588 2.80235 0
M  V30 672 H 60.633 7.61689 2.69919 0
M  V30 673 H 64.219 5.24747 2.5126 0
M  V30 674 H 63.099 7.44498 2.46357 0
M  V30 675 N 60.6021 -1.18246 1.0419 0
M  V30 676 C 61.8511 -1.87588 0.741194 0
M  V30 677 C 62.1641 -1.81303 -0.734066 0
M  V30 678 O 63.3701 -2.46019 -1.14834 0
M  V30 679 C 61.8261 -3.36538 1.27555 0
M  V30 680 C 61.4341 -3.51349 2.77953 0
M  V30 681 C 63.1781 -4.11273 1.05143 0
M  V30 682 C 61.0851 -4.94265 3.2474 0
M  V30 683 H 60.0151 -0.702622 0.273565 0
M  V30 684 H 62.6661 -1.33601 1.25789 0
M  V30 685 H 61.0481 -3.9 0.686703 0
M  V30 686 H 62.2221 -3.08153 3.42605 0
M  V30 687 H 60.5371 -2.90022 2.98791 0
M  V30 688 H 63.1341 -5.16689 1.37611 0
M  V30 689 H 63.4771 -4.16298 -0.0112774 0
M  V30 690 H 64.0101 -3.63987 1.60495 0
M  V30 691 H 60.7491 -4.94408 4.30396 0
M  V30 692 H 60.2691 -5.38172 2.64823 0
M  V30 693 H 61.9481 -5.62987 3.18834 0
M  V30 694 N 62.0802 -0.821533 -1.34494 0
M  V30 695 C 63.3052 -0.420873 -2.03085 0
M  V30 696 C 63.7302 0.964915 -1.61465 0
M  V30 697 O 63.0882 1.62763 -0.798607 0
M  V30 698 C 63.1362 -0.529414 -3.56693 0
M  V30 699 O 62.2402 0.451302 -4.09923 0
M  V30 700 H 61.5812 -0.173489 -0.640935 0
M  V30 701 H 64.1112 -1.11157 -1.71771 0
M  V30 702 H 64.1212 -0.404671 -4.05988 0
M  V30 703 H 62.7962 -1.54014 -3.86332 0
M  V30 704 H 61.3732 0.285558 -3.71805 0
M  V30 705 N 63.5583 1.46682 -0.576371 0
M  V30 706 C 64.7883 2.06498 -0.0648694 0
M  V30 707 C 65.1963 1.42665 1.24271 0
M  V30 708 O 64.5393 0.523886 1.76071 0
M  V30 709 C 64.6013 3.5904 0.181816 0
M  V30 710 C 64.2653 4.45028 -1.0392 0
M  V30 711 C 65.2623 4.81959 -1.94966 0
M  V30 712 C 62.9473 4.86259 -1.25927 0
M  V30 713 C 64.9413 5.58942 -3.06371 0
M  V30 714 C 62.6283 5.63002 -2.37638 0
M  V30 715 C 63.6263 5.99257 -3.2769 0
M  V30 716 O 63.3143 6.7445 -4.37461 0
M  V30 717 H 63.0463 0.674028 -0.0515987 0
M  V30 718 H 65.6003 1.89393 -0.794951 0
M  V30 719 H 63.8303 3.74429 0.966436 0
M  V30 720 H 65.5193 4.00806 0.641047 0
M  V30 721 H 66.2853 4.50689 -1.79177 0
M  V30 722 H 62.1643 4.57494 -0.567448 0
M  V30 723 H 65.7083 5.87158 -3.76684 0
M  V30 724 H 61.6053 5.93686 -2.53392 0
M  V30 725 H 62.3733 6.92867 -4.35749 0
M  V30 726 N 65.0364 0.313813 1.54444 0
M  V30 727 C 66.2614 -0.296681 2.05267 0
M  V30 728 C 66.6864 -1.45757 1.18897 0
M  V30 729 O 66.0444 -1.80239 0.195886 0
M  V30 730 C 66.0924 -0.71831 3.53373 0
M  V30 731 O 65.1964 -1.82175 3.69981 0
M  V30 732 H 64.5374 -0.0554061 0.661684 0
M  V30 733 H 67.0674 0.459387 1.99376 0
M  V30 734 H 67.0774 -1.00364 3.95463 0
M  V30 735 H 65.7524 0.130821 4.15694 0
M  V30 736 H 64.3294 -1.53598 3.39797 0
M  V30 737 N 66.5145 -1.57545 0.0417849 0
M  V30 738 C 67.7915 -1.83642 -0.673433 0
M  V30 739 C 68.1715 -0.928298 -1.89594 0
M  V30 740 O 67.5195 0.0129955 -2.28496 0
M  V30 741 C 67.7295 -3.33155 -1.03964 0
M  V30 742 C 69.0775 -3.99941 -1.42592 0
M  V30 743 O 70.1015 -3.37725 -1.13226 0
M  V30 744 O 68.9605 -5.09619 -1.9736 0
M  V30 745 H 66.0545 -0.757638 -0.331533 0
M  V30 746 H 68.6005 -1.69554 0.070433 0
M  V30 747 H 67.3725 -3.9093 -0.170098 0
M  V30 748 H 66.9955 -3.52396 -1.84126 0
M  V30 749 N 67.9926 0.231505 -1.5589 0
M  V30 750 C 69.2406 0.955461 -1.78088 0
M  V30 751 C 69.5616 1.85262 -0.608533 0
M  V30 752 O 68.8316 1.92277 0.375035 0
M  V30 753 H 67.4116 0.355787 -0.656829 0
M  V30 754 H 70.0736 0.245751 -1.93344 0
M  V30 755 H 69.1696 1.56814 -2.69844 0
M  V30 756 N 69.4707 1.49531 0.497807 0
M  V30 757 C 70.7477 1.49682 1.25915 0
M  V30 758 C 71.1277 0.226339 2.09883 0
M  V30 759 O 70.4757 -0.791189 2.14365 0
M  V30 760 C 70.6857 2.77755 2.11313 0
M  V30 761 C 72.0337 3.27371 2.70395 0
M  V30 762 O 73.0577 2.78894 2.21578 0
M  V30 763 O 71.9167 4.11808 3.59272 0
M  V30 764 H 69.0107 0.599228 0.56996 0
M  V30 765 H 71.5567 1.61798 0.511816 0
M  V30 766 H 70.3287 3.61713 1.49264 0
M  V30 767 H 69.9517 2.68515 2.93233 0
M  V30 768 N 70.9488 -0.749086 1.3866 0
M  V30 769 C 71.8808 -1.87273 1.32142 0
M  V30 770 C 72.8938 -1.61127 0.232787 0
M  V30 771 O 74.0828 -1.71623 0.49069 0
M  V30 772 C 71.1828 -3.23005 1.02571 0
M  V30 773 C 70.3558 -3.7662 2.22433 0
M  V30 774 C 69.4148 -4.90879 1.89537 0
M  V30 775 O 68.4408 -5.05276 2.62078 0
M  V30 776 N 69.6428 -5.74198 0.853031 0
M  V30 777 H 72.4078 -1.93373 2.28969 0
M  V30 778 H 69.9688 -0.929216 1.32579 0
M  V30 779 H 71.9608 -3.96992 0.786085 0
M  V30 780 H 70.5308 -3.12262 0.145249 0
M  V30 781 H 69.7508 -2.94147 2.62434 0
M  V30 782 H 71.0388 -4.09173 3.02415 0
M  V30 783 H 70.4368 -5.6514 0.25155 0
M  V30 784 H 68.9938 -6.48313 0.67329 0
M  V30 785 N 72.4269 -1.23603 -0.977757 0
M  V30 786 C 73.6669 -1.08148 -1.73446 0
M  V30 787 C 74.0309 0.374785 -1.88307 0
M  V30 788 O 75.2319 0.650588 -2.60808 0
M  V30 789 C 73.5029 -1.78991 -3.0935 0
M  V30 790 S 75.0619 -1.79141 -4.00567 0
M  V30 791 H 71.8799 -0.386987 -0.596458 0
M  V30 792 H 74.4819 -1.5678 -1.16792 0
M  V30 793 H 73.1859 -2.8408 -2.96187 0
M  V30 794 H 72.7169 -1.30651 -3.71071 0
M  V30 795 H 74.7319 -0.851892 -4.88833 0
M  V30 796 N 73.905 1.17692 -1.04816 0
M  V30 797 C 74.868 2.19787 -0.650117 0
M  V30 798 C 75.868 1.58044 0.296427 0
M  V30 799 O 77.058 1.74012 0.0808097 0
M  V30 800 C 74.19 3.40869 0.0456987 0
M  V30 801 H 75.383 2.56516 -1.5537 0
M  V30 802 H 72.936 1.31708 -0.841594 0
M  V30 803 H 73.671 3.09681 0.962726 0
M  V30 804 H 73.456 3.86928 -0.634727 0
M  V30 805 H 74.946 4.16445 0.310432 0
M  V30 806 N 75.3831 0.828654 1.34056 0
M  V30 807 C 76.6081 0.431637 2.02859 0
M  V30 808 C 77.0331 -0.956339 1.61975 0
M  V30 809 O 76.3911 -1.62338 0.807228 0
M  V30 810 C 76.4391 0.548323 3.56407 0
M  V30 811 O 75.5431 -0.429556 4.10157 0
M  V30 812 H 74.8841 0.176886 0.640006 0
M  V30 813 H 77.4141 1.12066 1.71179 0
M  V30 814 H 77.4241 0.426196 4.05768 0
M  V30 815 H 76.0991 1.5606 3.8551 0
M  V30 816 H 74.6761 -0.265836 3.71951 0
M  V30 817 N 76.8612 -1.46375 0.584142 0
M  V30 818 C 78.0862 -2.07268 0.0740405 0
M  V30 819 C 78.5112 -1.42979 -1.22223 0
M  V30 820 O 77.8692 -0.514092 -1.73859 0
M  V30 821 C 77.9172 -3.60518 -0.0767769 0
M  V30 822 O 77.0212 -3.96533 -1.13292 0
M  V30 823 H 76.3622 -0.660961 0.0634524 0
M  V30 824 H 78.8922 -1.87991 0.807492 0
M  V30 825 H 78.9022 -4.07021 -0.282489 0
M  V30 826 H 77.5772 -4.06702 0.86986 0
M  V30 827 H 76.1542 -3.61738 -0.905553 0
M  V30 828 N 78.3393 -0.321999 -1.54275 0
M  V30 829 C 79.7503 0.166384 -1.85957 0
M  V30 830 C 80.1013 1.51747 -1.24367 0
M  V30 831 O 79.2263 2.09317 -0.549124 0
M  V30 832 C 79.8213 0.308681 -3.37391 0
M  V30 833 C 78.3803 0.741286 -3.69028 0
M  V30 834 C 77.5273 -0.137937 -2.76957 0
M  V30 835 H 80.4783 -0.542335 -1.49146 0
M  V30 836 H 80.4993 1.13984 -3.63026 0
M  V30 837 H 80.0113 -0.674809 -3.82188 0
M  V30 838 H 78.1123 1.73458 -3.29762 0
M  V30 839 H 78.2253 0.546118 -4.75977 0
M  V30 840 H 76.5893 0.386251 -2.51754 0
M  V30 841 H 77.3723 -1.11816 -3.2458 0
M  V30 842 N 79.8174 1.5752 -0.0501392 0
M  V30 843 C 81.0574 1.94521 0.627783 0
M  V30 844 C 81.4214 0.928265 1.68069 0
M  V30 845 O 82.6224 1.18517 2.41261 0
M  V30 846 C 80.8934 3.36319 1.20932 0
M  V30 847 S 82.4524 3.95272 1.90539 0
M  V30 848 H 79.2704 0.680456 0.206158 0
M  V30 849 H 81.8724 1.95139 -0.118829 0
M  V30 850 H 80.5764 4.08132 0.430865 0
M  V30 851 H 80.1074 3.39193 1.99277 0
M  V30 852 H 82.1224 3.80415 3.18589 0
M  V30 853 N 81.2955 -0.223234 1.56011 0
M  V30 854 C 82.2275 -1.30006 1.88762 0
M  V30 855 C 83.2405 -1.43129 0.775746 0
M  V30 856 O 84.4295 -1.44057 1.05403 0
M  V30 857 C 81.5295 -2.67589 2.07965 0
M  V30 858 C 80.7025 -2.76434 3.38973 0
M  V30 859 C 79.7615 -3.95019 3.47629 0
M  V30 860 O 78.7875 -3.83436 4.20672 0
M  V30 861 N 79.9895 -5.09249 2.78649 0
M  V30 862 H 82.7545 -1.02238 2.81722 0
M  V30 863 H 80.3155 -0.413278 1.56536 0
M  V30 864 H 82.3075 -3.45297 2.11073 0
M  V30 865 H 80.8775 -2.87964 1.21638 0
M  V30 866 H 80.0975 -1.85216 3.47978 0
M  V30 867 H 81.3855 -2.79313 4.25278 0
M  V30 868 H 80.7835 -5.21556 2.19081 0
M  V30 869 H 79.3405 -5.85007 2.8742 0
M  V30 870 N 82.7736 -1.49793 -0.48987 0
M  V30 871 C 83.7216 -1.67783 -1.61095 0
M  V30 872 C 84.7156 -0.543683 -1.60438 0
M  V30 873 O 85.9216 -0.723647 -1.64813 0
M  V30 874 H 82.2966 -0.529255 -0.534222 0
M  V30 875 H 84.2676 -2.61861 -1.43078 0
M  V30 876 C 83.0166 -1.77191 -2.99164 0
M  V30 877 H 82.3396 -2.63841 -3.0038 0
M  V30 878 H 83.7796 -1.93809 -3.77113 0
M  V30 879 C 82.2386 -0.519203 -3.32875 0
M  V30 880 O 82.7686 0.350124 -4.00171 0
M  V30 881 N 80.9746 -0.378816 -2.8812 0
M  V30 882 H 80.5216 -1.08725 -2.33531 0
M  V30 883 H 80.4796 0.458239 -3.11043 0
M  V30 884 N 84.2517 0.741722 -1.39055 0
M  V30 885 C 85.4997 1.49818 -1.35643 0
M  V30 886 C 85.8207 1.94938 0.0491642 0
M  V30 887 O 85.0907 1.68505 0.999141 0
M  V30 888 H 83.6707 0.555755 -0.499144 0
M  V30 889 H 86.3327 0.880957 -1.73854 0
M  V30 890 H 85.4287 2.38348 -2.01486 0
M  V30 891 N 85.7298 1.2412 0.971189 0
M  V30 892 C 86.9778 1.07668 1.71032 0
M  V30 893 C 87.2988 -0.385797 1.91146 0
M  V30 894 O 86.5688 -1.27569 1.4867 0
M  V30 895 H 85.1488 0.395429 0.633755 0
M  V30 896 H 87.8108 1.55984 1.16855 0
M  V30 897 H 86.9068 1.57195 2.69622 0
M  V30 898 N 87.2079 -1.17134 1.05439 0
M  V30 899 C 88.4329 -1.91913 0.786396 0
M  V30 900 C 88.8579 -1.7643 -0.652234 0
M  V30 901 O 88.2159 -1.08372 -1.45345 0
M  V30 902 C 88.2639 -3.40921 1.17497 0
M  V30 903 O 87.3679 -4.11244 0.308589 0
M  V30 904 H 86.7089 -0.598215 0.288158 0
M  V30 905 H 89.2389 -1.48457 1.4079 0
M  V30 906 H 89.2489 -3.91668 1.14281 0
M  V30 907 H 87.9239 -3.5151 2.22292 0
M  V30 908 H 86.5009 -3.70731 0.40157 0
M  V30 909 N 88.686 -0.835752 -1.33615 0
M  V30 910 C 89.926 -0.43599 -1.99696 0
M  V30 911 C 90.29 0.98557 -1.64774 0
M  V30 912 O 91.491 1.48889 -2.23798 0
M  V30 913 C 89.762 -0.646721 -3.515 0
M  V30 914 S 91.321 -0.341715 -4.37467 0
M  V30 915 H 88.139 -0.164136 -0.691795 0
M  V30 916 H 90.741 -1.08436 -1.62671 0
M  V30 917 H 89.445 -1.68077 -3.74404 0
M  V30 918 H 88.976 0.0159173 -3.93397 0
M  V30 919 H 90.991 0.839708 -4.89043 0
M  V30 920 N 90.1641 1.46063 -0.591896 0
M  V30 921 C 91.1111 2.30399 0.136069 0
M  V30 922 C 92.0811 1.41169 0.875238 0
M  V30 923 O 93.2661 1.70112 0.86409 0
M  V30 924 C 90.4061 3.25804 1.13781 0
M  V30 925 C 89.5191 4.30134 0.401137 0
M  V30 926 C 88.6541 5.12659 1.39121 0
M  V30 927 C 87.6931 6.0873 0.641462 0
M  V30 928 N 86.8301 6.8409 1.58004 0
M  V30 929 H 91.6701 2.92118 -0.589144 0
M  V30 930 H 89.2071 1.43959 -0.302342 0
M  V30 931 H 91.1651 3.79569 1.73156 0
M  V30 932 H 89.7951 2.65872 1.83062 0
M  V30 933 H 88.8471 3.79152 -0.307826 0
M  V30 934 H 90.1591 4.98458 -0.184565 0
M  V30 935 H 89.3131 5.70747 2.05749 0
M  V30 936 H 88.0521 4.44316 2.01084 0
M  V30 937 H 87.0571 5.49786 -0.0385419 0
M  V30 938 H 88.2821 6.79095 0.0270945 0
M  V30 939 H 86.2281 6.18449 2.18761 0
M  V30 940 H 86.1451 7.48709 1.04738 0
M  V30 941 H 87.4131 7.4673 2.23639 0
M  V30 942 N 91.6422 0.330177 1.54103 0
M  V30 943 C 92.9192 -0.325007 1.92881 0
M  V30 944 C 93.2992 -1.6934 1.26045 0
M  V30 945 O 92.6472 -2.24855 0.406526 0
M  V30 946 C 92.8572 -0.410634 3.46576 0
M  V30 947 C 94.2052 -0.667801 4.19316 0
M  V30 948 O 95.2292 -0.49329 3.52768 0
M  V30 949 O 94.0882 -1.00491 5.37181 0
M  V30 950 H 91.1822 -0.186873 0.80561 0
M  V30 951 H 93.7282 0.380376 1.65382 0
M  V30 952 H 92.5002 0.550164 3.87413 0
M  V30 953 H 92.1232 -1.16333 3.802 0
M  V30 954 N 93.1203 -1.57491 0.0584922 0
M  V30 955 C 94.0523 -2.08916 -0.942694 0
M  V30 956 C 95.0653 -1.0185 -1.27006 0
M  V30 957 O 96.2543 -1.29398 -1.22957 0
M  V30 958 C 93.3543 -2.52341 -2.26224 0
M  V30 959 C 92.5273 -3.82827 -2.1157 0
M  V30 960 C 91.5863 -4.12487 -3.26712 0
M  V30 961 O 90.6123 -4.82295 -3.02292 0
M  V30 962 N 91.8143 -3.64978 -4.5141 0
M  V30 963 H 94.5793 -2.95437 -0.503722 0
M  V30 964 H 92.1403 -1.61397 -0.12757 0
M  V30 965 H 94.1323 -2.69254 -3.02133 0
M  V30 966 H 92.7023 -1.7103 -2.61663 0
M  V30 967 H 91.9223 -3.75425 -1.20208 0
M  V30 968 H 93.2103 -4.68263 -1.99015 0
M  V30 969 H 92.6083 -3.08558 -4.7414 0
M  V30 970 H 91.1653 -3.87115 -5.2439 0
M  V30 971 N 94.5984 0.214957 -1.56127 0
M  V30 972 C 95.5284 1.2695 -1.95974 0
M  V30 973 C 96.5094 1.48539 -0.828868 0
M  V30 974 O 97.6944 1.60611 -1.09168 0
M  V30 975 C 94.8244 2.61794 -2.28214 0
M  V30 976 C 93.7784 2.54851 -3.43853 0
M  V30 977 C 93.1044 3.93785 -3.61715 0
M  V30 978 C 94.4044 2.09065 -4.78632 0
M  V30 979 H 96.0984 0.93846 -2.84312 0
M  V30 980 H 93.6444 0.449996 -1.36788 0
M  V30 981 H 95.5974 3.35731 -2.54682 0
M  V30 982 H 94.3214 2.96599 -1.36736 0
M  V30 983 H 92.9804 1.8337 -3.17444 0
M  V30 984 H 92.6284 4.25908 -2.67602 0
M  V30 985 H 92.3284 3.90019 -4.39498 0
M  V30 986 H 93.8524 4.69374 -3.90539 0
M  V30 987 H 95.2664 2.7275 -5.04262 0
M  V30 988 H 93.6634 2.16346 -5.59745 0
M  V30 989 H 94.7334 1.04315 -4.73547 0
M  V30 990 N 96.0765 1.50051 0.48192 0
M  V30 991 C 97.0085 1.64263 1.59844 0
M  V30 992 C 98.0215 0.52451 1.54119 0
M  V30 993 O 99.2105 0.797293 1.59704 0
M  V30 994 C 96.3105 1.60102 2.98698 0
M  V30 995 C 95.4835 2.87767 3.29407 0
M  V30 996 C 94.5425 2.76397 4.47762 0
M  V30 997 O 93.5685 3.50348 4.48603 0
M  V30 998 N 94.7705 1.89222 5.48794 0
M  V30 999 H 97.5355 2.60566 1.48073 0
M  V30 1000 H 95.0965 1.47379 0.670149 0
M  V30 1001 H 97.0885 1.50123 3.75826 0
M  V30 1002 H 95.6585 0.715798 3.04294 0
M  V30 1003 H 94.8785 3.11954 2.40994 0
M  V30 1004 H 96.1665 3.72365 3.4673 0
M  V30 1005 H 95.5645 1.28434 5.50928 0
M  V30 1006 H 94.1215 1.85154 6.24949 0
M  V30 1007 N 97.5546 -0.734337 1.39446 0
M  V30 1008 C 98.7796 -1.52866 1.40167 0
M  V30 1009 C 99.2046 -1.881 -0.00171513 0
M  V30 1010 O 98.5626 -1.51957 -0.988879 0
M  V30 1011 C 98.6106 -2.79235 2.28167 0
M  V30 1012 O 97.7146 -3.75185 1.71201 0
M  V30 1013 H 97.0556 -0.461618 0.477289 0
M  V30 1014 H 99.5856 -0.905949 1.8345 0
M  V30 1015 H 99.5956 -3.27963 2.42702 0
M  V30 1016 H 98.2706 -2.52923 3.30156 0
M  V30 1017 H 96.8476 -3.33958 1.65912 0
M  V30 1018 N 99.0327 -1.24633 -0.964593 0
M  V30 1019 C 100.263 -1.11339 -1.74032 0
M  V30 1020 C 100.671 0.336593 -1.86182 0
M  V30 1021 O 100.014 1.24389 -1.35178 0
M  V30 1022 C 100.076 -1.68284 -3.1768 0
M  V30 1023 C 99.7397 -3.17196 -3.28992 0
M  V30 1024 C 100.737 -4.14308 -3.14078 0
M  V30 1025 C 98.4217 -3.57215 -3.53133 0
M  V30 1026 C 100.416 -5.4942 -3.23135 0
M  V30 1027 C 98.1027 -4.92468 -3.61827 0
M  V30 1028 C 99.1007 -5.8838 -3.46841 0
M  V30 1029 O 98.7887 -7.21173 -3.55197 0
M  V30 1030 H 98.5207 -0.389551 -0.552472 0
M  V30 1031 H 101.075 -1.65282 -1.21946 0
M  V30 1032 H 99.3047 -1.08777 -3.71085 0
M  V30 1033 H 100.994 -1.50234 -3.77074 0
M  V30 1034 H 101.76 -3.84731 -2.95308 0
M  V30 1035 H 97.6387 -2.83063 -3.63863 0
M  V30 1036 H 101.183 -6.24263 -3.11355 0
M  V30 1037 H 97.0797 -5.21714 -3.80111 0
M  V30 1038 H 97.8477 -7.29135 -3.71892 0
M  V30 1039 N 100.511 1.16574 -1.06058 0
M  V30 1040 C 101.76 1.86385 -0.770944 0
M  V30 1041 C 102.073 1.82448 0.705129 0
M  V30 1042 O 103.279 2.47815 1.10905 0
M  V30 1043 C 101.735 3.34466 -1.32893 0
M  V30 1044 C 101.343 3.46883 -2.83507 0
M  V30 1045 C 103.087 4.09548 -1.11672 0
M  V30 1046 C 100.994 4.89036 -3.32562 0
M  V30 1047 H 99.9238 0.698181 -0.284709 0
M  V30 1048 H 102.575 1.31583 -1.27899 0
M  V30 1049 H 100.957 3.88859 -0.748662 0
M  V30 1050 H 102.131 3.02663 -3.47465 0
M  V30 1051 H 100.446 2.85232 -3.03368 0
M  V30 1052 H 103.043 5.14434 -1.45814 0
M  V30 1053 H 103.386 4.16264 -0.0549535 0
M  V30 1054 H 103.919 3.61387 -1.66265 0
M  V30 1055 H 100.658 4.87499 -4.38207 0
M  V30 1056 H 100.178 5.3389 -2.73351 0
M  V30 1057 H 101.857 5.57843 -3.2775 0
M  V30 1058 N 101.989 0.842826 1.3317 0
M  V30 1059 C 103.229 0.446574 1.99462 0
M  V30 1060 C 103.593 -0.976818 1.65295 0
M  V30 1061 O 104.794 -1.477 2.24584 0
M  V30 1062 C 103.065 0.665353 3.51152 0
M  V30 1063 S 104.624 0.364911 4.3728 0
M  V30 1064 H 101.442 0.167803 0.690915 0
M  V30 1065 H 104.044 1.09297 1.62094 0
M  V30 1066 H 102.748 1.7006 3.73507 0
M  V30 1067 H 102.279 0.00494568 3.934 0
M  V30 1068 H 104.294 -0.813761 4.89482 0
M  V30 1069 N 103.467 -1.45747 0.599634 0
M  V30 1070 C 104.714 -2.02292 0.0917284 0
M  V30 1071 C 105.042 -1.46906 -1.27472 0
M  V30 1072 O 104.297 -0.630652 -1.8526 0
M  V30 1073 C 104.596 -3.57399 -0.00602758 0
M  V30 1074 C 104.262 -4.31902 1.29503 0
M  V30 1075 C 102.924 -4.51974 1.65144 0
M  V30 1076 C 105.276 -4.74551 2.15525 0
M  V30 1077 C 102.604 -5.11949 2.86574 0
M  V30 1078 C 104.956 -5.35868 3.36196 0
M  V30 1079 C 103.62 -5.54165 3.72099 0
M  V30 1080 H 102.89 -0.740239 0.0335658 0
M  V30 1081 H 105.537 -1.7491 0.779661 0
M  V30 1082 H 103.842 -3.84014 -0.777183 0
M  V30 1083 H 105.539 -3.98846 -0.415038 0
M  V30 1084 H 102.129 -4.16588 1.00761 0
M  V30 1085 H 106.313 -4.58784 1.8929 0
M  V30 1086 H 101.569 -5.24305 3.14507 0
M  V30 1087 H 105.743 -5.6787 4.03109 0
M  V30 1088 H 103.37 -6.00406 4.6628 0
M  V30 1089 N 104.945 -0.338344 -1.53925 0
M  V30 1090 C 106.185 0.260168 -2.02737 0
M  V30 1091 C 106.549 1.48181 -1.22092 0
M  V30 1092 O 107.75 2.15416 -1.60777 0
M  V30 1093 C 106.021 0.571627 -3.52799 0
M  V30 1094 S 107.58 1.14769 -4.23525 0
M  V30 1095 H 104.398 0.077791 -0.706732 0
M  V30 1096 H 107 -0.474899 -1.89644 0
M  V30 1097 H 105.704 -0.325392 -4.09108 0
M  V30 1098 H 105.235 1.3365 -3.70002 0
M  V30 1099 H 107.25 2.43372 -4.32417 0
M  V30 1100 N 106.423 1.57458 -0.0668435 0
M  V30 1101 C 107.353 2.15468 0.899764 0
M  V30 1102 C 108.334 1.08042 1.31381 0
M  V30 1103 O 109.519 1.36054 1.38574 0
M  V30 1104 C 106.649 2.71232 2.16911 0
M  V30 1105 C 105.603 3.83781 1.89463 0
M  V30 1106 C 104.929 4.26127 3.22986 0
M  V30 1107 C 106.229 5.08238 1.20381 0
M  V30 1108 H 107.923 2.96488 0.416529 0
M  V30 1109 H 105.469 1.4262 0.198908 0
M  V30 1110 H 107.422 3.10458 2.84945 0
M  V30 1111 H 106.146 1.87426 2.67468 0
M  V30 1112 H 104.805 3.45051 1.23836 0
M  V30 1113 H 104.453 3.39249 3.71374 0
M  V30 1114 H 104.153 5.01993 3.05413 0
M  V30 1115 H 105.677 4.67966 3.92225 0
M  V30 1116 H 107.091 5.44811 1.78475 0
M  V30 1117 H 105.488 5.89349 1.13083 0
M  V30 1118 H 106.558 4.84558 0.182153 0
M  V30 1119 N 107.901 -0.206675 1.56239 0
M  V30 1120 C 109.312 -0.772383 1.69974 0
M  V30 1121 C 109.663 -1.84353 0.671436 0
M  V30 1122 O 108.788 -2.15695 -0.174491 0
M  V30 1123 C 109.383 -1.40779 3.08167 0
M  V30 1124 C 107.942 -1.92072 3.23706 0
M  V30 1125 C 107.089 -0.786347 2.65917 0
M  V30 1126 H 110.04 0.0182223 1.5869 0
M  V30 1127 H 110.061 -2.27696 3.04852 0
M  V30 1128 H 109.573 -0.627958 3.82986 0
M  V30 1129 H 107.674 -2.7281 2.53782 0
M  V30 1130 H 107.787 -2.09046 4.31087 0
M  V30 1131 H 106.151 -1.1976 2.24788 0
M  V30 1132 H 106.934 -0.0189416 3.43295 0
M  V30 1133 N 109.379 -1.50304 -0.473955 0
M  V30 1134 C 110.342 -1.6841 -1.55469 0
M  V30 1135 C 111.342 -0.554905 -1.50922 0
M  V30 1136 O 112.532 -0.821882 -1.53593 0
M  V30 1137 C 109.664 -1.70667 -2.95102 0
M  V30 1138 H 110.857 -2.64828 -1.40733 0
M  V30 1139 H 108.41 -1.39742 -0.700132 0
M  V30 1140 H 109.145 -0.75932 -3.15285 0
M  V30 1141 H 108.93 -2.52698 -2.9981 0
M  V30 1142 H 110.42 -1.8664 -3.73571 0
M  V30 1143 N 110.857 0.726932 -1.39834 0
M  V30 1144 C 112.104 1.48664 -1.37496 0
M  V30 1145 C 112.432 1.94482 0.0264678 0
M  V30 1146 O 111.687 1.67692 1.00886 0
M  V30 1147 C 111.986 2.73495 -2.30077 0
M  V30 1148 C 111.652 2.46502 -3.77555 0
M  V30 1149 C 110.314 2.3885 -4.17737 0
M  V30 1150 C 112.666 2.23604 -4.70798 0
M  V30 1151 C 109.994 2.06352 -5.49214 0
M  V30 1152 C 112.346 1.92622 -6.02561 0
M  V30 1153 C 111.01 1.83444 -6.41798 0
M  V30 1154 H 110.28 0.544001 -0.503135 0
M  V30 1155 H 112.927 0.833657 -1.72402 0
M  V30 1156 H 111.232 3.43575 -1.88317 0
M  V30 1157 H 112.929 3.31549 -2.25558 0
M  V30 1158 H 109.519 2.5334 -3.45712 0
M  V30 1159 H 113.703 2.28479 -4.40581 0
M  V30 1160 H 108.959 1.97776 -5.78528 0
M  V30 1161 H 113.133 1.73914 -6.74334 0
M  V30 1162 H 110.76 1.58029 -7.43593 0
M  V30 1163 N 112.336 1.25143 0.95797 0
M  V30 1164 C 113.246 1.06968 2.08794 0
M  V30 1165 C 114.262 0.00773911 1.73998 0
M  V30 1166 O 115.438 0.207972 2.00323 0
M  V30 1167 C 112.503 0.68691 3.39827 0
M  V30 1168 C 111.564 1.82641 3.88511 0
M  V30 1169 C 110.797 1.46181 5.1329 0
M  V30 1170 O 111.02 0.355971 5.69288 0
M  V30 1171 O 109.954 2.29085 5.566 0
M  V30 1172 H 113.78 2.01723 2.27027 0
M  V30 1173 H 111.365 1.04051 1.07209 0
M  V30 1174 H 113.247 0.485417 4.18595 0
M  V30 1175 H 111.922 -0.231417 3.22872 0
M  V30 1176 H 110.829 2.08274 3.10762 0
M  V30 1177 H 112.162 2.72386 4.09959 0
M  V30 1178 N 113.814 -1.1601 1.06675 0
M  V30 1179 C 115.062 -1.86264 0.784229 0
M  V30 1180 C 115.383 -1.82328 -0.691488 0
M  V30 1181 O 114.653 -1.25947 -1.50047 0
M  V30 1182 H 113.233 -0.689621 0.28711 0
M  V30 1183 H 115.895 -1.40664 1.34906 0
M  V30 1184 H 114.991 -2.91595 1.11259 0
M  V30 1185 N 115.292 -0.849877 -1.32721 0
M  V30 1186 C 116.708 -0.539102 -1.50219 0
M  V30 1187 C 116.908 0.931271 -1.78689 0
M  V30 1188 O 115.964 1.71455 -1.85363 0
M  V30 1189 C 117.277 -1.42196 -2.64954 0
M  V30 1190 C 118.825 -1.42189 -2.78839 0
M  V30 1191 C 119.3 -2.28985 -3.96648 0
M  V30 1192 N 120.791 -2.26754 -4.03902 0
M  V30 1193 C 121.526 -2.90644 -4.94281 0
M  V30 1194 N 121.022 -3.63629 -5.897 0
M  V30 1195 N 122.815 -2.80057 -4.87365 0
M  V30 1196 H 114.966 -1.80156 -1.12506 0
M  V30 1197 H 117.229 -0.769217 -0.554085 0
M  V30 1198 H 116.935 -2.46733 -2.50631 0
M  V30 1199 H 116.809 -1.10591 -3.60624 0
M  V30 1200 H 119.196 -0.38419 -2.92588 0
M  V30 1201 H 119.277 -1.77807 -1.83898 0
M  V30 1202 H 118.921 -3.32819 -3.83658 0
M  V30 1203 H 118.851 -1.90702 -4.90857 0
M  V30 1204 H 121.342 -1.73688 -3.3562 0
M  V30 1205 H 121.655 -4.09558 -6.55349 0
M  V30 1206 H 120 -3.67737 -5.89741 0
M  V30 1207 H 123.191 -2.22593 -4.11789 0
M  V30 1208 H 123.364 -3.30132 -5.57599 0
M  V30 1209 N 116.77 1.45427 -0.607355 0
M  V30 1210 C 117.718 2.32269 0.12411 0
M  V30 1211 C 118.712 1.45955 0.859854 0
M  V30 1212 O 119.918 1.6244 0.775447 0
M  V30 1213 H 116.293 0.749691 0.0588839 0
M  V30 1214 H 118.264 2.91743 -0.626762 0
M  V30 1215 C 117.013 3.29567 1.1082 0
M  V30 1216 H 116.336 3.95978 0.551492 0
M  V30 1217 H 117.776 3.93061 1.58995 0
M  V30 1218 C 116.235 2.56722 2.18164 0
M  V30 1219 O 116.765 2.34842 3.25902 0
M  V30 1220 N 114.971 2.16861 1.93442 0
M  V30 1221 H 114.518 2.34855 1.05834 0
M  V30 1222 H 114.476 1.68444 2.65469 0
M  V30 1223 N 118.248 0.346503 1.53744 0
M  V30 1224 C 119.488 -0.249413 2.02873 0
M  V30 1225 C 119.852 -1.47532 1.22876 0
M  V30 1226 O 121.053 -2.1456 1.61918 0
M  V30 1227 C 119.324 -0.552909 3.53097 0
M  V30 1228 S 120.883 -1.12521 4.24128 0
M  V30 1229 H 117.701 -0.074042 0.707134 0
M  V30 1230 H 120.303 0.48495 1.8939 0
M  V30 1231 H 119.007 0.347083 4.0893 0
M  V30 1232 H 118.538 -1.31686 3.70705 0
M  V30 1233 H 120.553 -2.41075 4.33702 0
M  V30 1234 N 119.726 -1.57421 0.075193 0
M  V30 1235 C 120.636 -2.1642 -0.905511 0
M  V30 1236 C 121.652 -1.12828 -1.32461 0
M  V30 1237 O 122.828 -1.45109 -1.39661 0
M  V30 1238 C 119.893 -2.71693 -2.15369 0
M  V30 1239 C 118.954 -3.90171 -1.79068 0
M  V30 1240 C 118.187 -4.42798 -2.97936 0
M  V30 1241 O 118.41 -3.94416 -4.12058 0
M  V30 1242 O 117.344 -5.34085 -2.77555 0
M  V30 1243 H 121.17 -3.00588 -0.433626 0
M  V30 1244 H 118.755 -1.48664 -0.148067 0
M  V30 1245 H 120.637 -3.07104 -2.88557 0
M  V30 1246 H 119.312 -1.90582 -2.61649 0
M  V30 1247 H 118.219 -3.59606 -1.03122 0
M  V30 1248 H 119.552 -4.72584 -1.37569 0
M  V30 1249 N 121.204 0.198386 -1.56346 0
M  V30 1250 C 122.432 0.935572 -1.84539 0
M  V30 1251 C 122.847 1.76989 -0.657281 0
M  V30 1252 O 122.204 1.78626 0.374043 0
M  V30 1253 C 122.255 1.8344 -3.11499 0
M  V30 1254 O 121.976 1.03377 -4.25728 0
M  V30 1255 C 123.477 2.68355 -3.52846 0
M  V30 1256 H 120.697 0.273126 -0.612897 0
M  V30 1257 H 123.241 0.20663 -2.03453 0
M  V30 1258 H 121.396 2.51701 -2.94492 0
M  V30 1259 H 121.81 1.64599 -4.98003 0
M  V30 1260 H 123.284 3.27085 -4.44657 0
M  V30 1261 H 123.761 3.41901 -2.75681 0
M  V30 1262 H 124.367 2.05471 -3.72373 0
M  V30 1263 N 122.682 1.50554 0.465978 0
M  V30 1264 C 123.632 1.66177 1.56106 0
M  V30 1265 C 124.616 0.516265 1.52393 0
M  V30 1266 O 125.808 0.770906 1.5933 0
M  V30 1267 C 122.937 1.76396 2.94515 0
M  V30 1268 C 122.023 2.9664 3.03093 0
M  V30 1269 N 122.414 4.20245 2.81474 0
M  V30 1270 C 120.712 2.95304 3.34233 0
M  V30 1271 C 121.413 5.01259 2.95151 0
M  V30 1272 N 120.389 4.35318 3.25576 0
M  V30 1273 H 124.191 2.59434 1.38099 0
M  V30 1274 H 121.705 1.47808 0.6728 0
M  V30 1275 H 123.702 1.85694 3.73261 0
M  V30 1276 H 122.362 0.843017 3.13565 0
M  V30 1277 H 123.373 4.4966 2.56956 0
M  V30 1278 H 120.05 2.12729 3.59239 0
M  V30 1279 H 121.44 6.09564 2.82632 0
M  V30 1280 N 124.16 -0.719506 1.40217 0
M  V30 1281 C 125.107 -1.83359 1.40172 0
M  V30 1282 C 126.077 -1.64065 0.259206 0
M  V30 1283 O 127.262 -1.85254 0.456677 0
M  V30 1284 C 124.402 -3.2103 1.26624 0
M  V30 1285 C 123.515 -3.51923 2.50548 0
M  V30 1286 C 122.65 -4.79079 2.29471 0
M  V30 1287 C 121.689 -5.02863 3.48992 0
M  V30 1288 N 120.826 -6.2123 3.27135 0
M  V30 1289 H 125.666 -1.82733 2.35399 0
M  V30 1290 H 123.203 -0.892688 1.16917 0
M  V30 1291 H 125.161 -4.00524 1.16776 0
M  V30 1292 H 123.791 -3.20895 0.350176 0
M  V30 1293 H 122.843 -2.67014 2.70939 0
M  V30 1294 H 124.155 -3.6541 3.39525 0
M  V30 1295 H 123.309 -5.66582 2.16955 0
M  V30 1296 H 122.048 -4.67794 1.37913 0
M  V30 1297 H 121.053 -4.13816 3.6199 0
M  V30 1298 H 122.278 -5.16023 4.41472 0
M  V30 1299 H 120.224 -6.11204 2.38256 0
M  V30 1300 H 120.141 -6.35375 4.09675 0
M  V30 1301 H 121.409 -7.11532 3.18344 0
M  V30 1302 N 125.638 -1.25649 -0.95132 0
M  V30 1303 C 126.915 -1.01361 -1.67288 0
M  V30 1304 C 127.295 0.459135 -2.06046 0
M  V30 1305 O 126.643 1.43723 -1.7764 0
M  V30 1306 C 126.853 -1.95256 -2.89268 0
M  V30 1307 C 128.201 -2.23289 -3.61147 0
M  V30 1308 O 129.225 -1.93041 -2.99355 0
M  V30 1309 O 128.084 -2.74741 -4.72419 0
M  V30 1310 H 125.178 -0.38464 -0.732107 0
M  V30 1311 H 127.724 -1.36817 -1.00395 0
M  V30 1312 H 126.496 -2.94685 -2.57442 0
M  V30 1313 H 126.119 -1.60218 -3.6389 0
M  V30 1314 N 127.117 1.15442 -1.07289 0
M  V30 1315 C 128.394 1.82306 -0.708792 0
M  V30 1316 C 128.774 1.94991 0.808807 0
M  V30 1317 O 128.122 1.50085 1.72298 0
M  V30 1318 C 128.332 3.18695 -1.42247 0
M  V30 1319 C 129.68 3.94341 -1.57417 0
M  V30 1320 O 130.704 3.28247 -1.38319 0
M  V30 1321 O 129.563 5.12839 -1.88834 0
M  V30 1322 H 126.657 0.787628 -0.252132 0
M  V30 1323 H 129.203 1.22559 -1.17377 0
M  V30 1324 H 127.975 3.04557 -2.45684 0
M  V30 1325 H 127.598 3.86128 -0.948223 0
M  V30 1326 N 128.595 0.856903 1.32268 0
M  V30 1327 C 129.527 0.260412 2.27716 0
M  V30 1328 C 130.54 -0.569137 1.52528 0
M  V30 1329 O 131.729 -0.39326 1.74114 0
M  V30 1330 C 128.829 -0.650477 3.32599 0
M  V30 1331 C 128.002 0.14372 4.37164 0
M  V30 1332 C 127.061 -0.69328 5.21613 0
M  V30 1333 O 126.087 -0.12599 5.69061 0
M  V30 1334 N 127.289 -2.00761 5.44679 0
M  V30 1335 H 130.054 1.08059 2.79541 0
M  V30 1336 H 127.615 0.717103 1.45152 0
M  V30 1337 H 129.607 -1.21581 3.86005 0
M  V30 1338 H 128.177 -1.37133 2.80915 0
M  V30 1339 H 127.397 0.890486 3.8401 0
M  V30 1340 H 128.685 0.68915 5.04111 0
M  V30 1341 H 128.083 -2.49181 5.07863 0
M  V30 1342 H 126.64 -2.52103 6.01072 0
M  V30 1343 N 130.073 -1.45103 0.615059 0
M  V30 1344 C 131.003 -2.33339 -0.0865619 0
M  V30 1345 C 131.984 -1.4727 -0.851209 0
M  V30 1346 O 133.169 -1.76026 -0.820281 0
M  V30 1347 C 130.299 -3.30095 -1.07956 0
M  V30 1348 C 129.253 -4.25858 -0.427628 0
M  V30 1349 C 128.579 -5.12361 -1.5294 0
M  V30 1350 C 129.879 -5.18165 0.655944 0
M  V30 1351 H 131.573 -2.92254 0.650224 0
M  V30 1352 H 129.119 -1.40532 0.314138 0
M  V30 1353 H 131.072 -3.90698 -1.57901 0
M  V30 1354 H 129.796 -2.69355 -1.84703 0
M  V30 1355 H 128.455 -3.66564 0.0510292 0
M  V30 1356 H 128.103 -4.47984 -2.28734 0
M  V30 1357 H 127.803 -5.77238 -1.09865 0
M  V30 1358 H 129.327 -5.75833 -2.03098 0
M  V30 1359 H 130.741 -5.72796 0.240257 0
M  V30 1360 H 129.138 -5.91559 1.00888 0
M  V30 1361 H 130.208 -4.60144 1.52957 0
M  V30 1362 N 131.551 -0.354651 -1.53558 0
M  V30 1363 C 132.8 0.239504 -2.00273 0
M  V30 1364 C 133.113 1.50759 -1.24623 0
M  V30 1365 O 134.319 2.17968 -1.61871 0
M  V30 1366 C 132.775 0.477341 -3.5672 0
M  V30 1367 C 132.383 -0.775488 -4.41237 0
M  V30 1368 C 134.127 1.02975 -4.11821 0
M  V30 1369 C 132.034 -0.507838 -5.89216 0
M  V30 1370 H 130.964 0.0932743 -0.748208 0
M  V30 1371 H 133.615 -0.471701 -1.77334 0
M  V30 1372 H 131.997 1.24953 -3.7577 0
M  V30 1373 H 133.171 -1.54963 -4.33962 0
M  V30 1374 H 131.486 -1.25033 -3.97185 0
M  V30 1375 H 134.083 1.24513 -5.2 0
M  V30 1376 H 134.426 1.98862 -3.65731 0
M  V30 1377 H 134.959 0.317994 -3.96527 0
M  V30 1378 H 131.698 -1.43674 -6.39561 0
M  V30 1379 H 131.218 0.228011 -5.99366 0
M  V30 1380 H 132.897 -0.129238 -6.46871 0
M  V30 1381 N 133.029 1.57378 -0.0835403 0
M  V30 1382 C 134.269 1.95808 0.586381 0
M  V30 1383 C 134.633 0.963706 1.66062 0
M  V30 1384 O 135.834 1.23608 2.38693 0
M  V30 1385 C 134.105 3.38808 1.13771 0
M  V30 1386 S 135.664 3.99225 1.82112 0
M  V30 1387 H 132.482 0.684675 0.191679 0
M  V30 1388 H 135.084 1.94843 -0.160194 0
M  V30 1389 H 133.788 4.08954 0.344197 0
M  V30 1390 H 133.319 3.43344 1.92038 0
M  V30 1391 H 135.334 3.87087 3.10449 0
M  V30 1392 N 134.507 -0.190092 1.56449 0
M  V30 1393 C 135.753 -0.911052 1.81184 0
M  V30 1394 C 136.086 -1.82699 0.658396 0
M  V30 1395 O 135.361 -1.91491 -0.340775 0
M  V30 1396 C 135.644 -1.72297 3.16205 0
M  V30 1397 C 135.497 -0.831419 4.42049 0
M  V30 1398 C 136.816 -2.69454 3.47969 0
M  V30 1399 H 133.935 -0.32977 0.659106 0
M  V30 1400 H 136.577 -0.178169 1.89163 0
M  V30 1401 H 134.727 -2.34778 3.09534 0
M  V30 1402 H 136.399 -0.220929 4.60771 0
M  V30 1403 H 134.642 -0.138406 4.33579 0
M  V30 1404 H 135.313 -1.43461 5.33032 0
M  V30 1405 H 137.789 -2.17104 3.54972 0
M  V30 1406 H 136.665 -3.23342 4.43555 0
M  V30 1407 H 136.926 -3.48744 2.71717 0
M  V30 1408 N 135.985 -1.50799 -0.457987 0
M  V30 1409 C 136.933 -1.71162 -1.575 0
M  V30 1410 C 137.927 -0.577592 -1.59249 0
M  V30 1411 O 139.133 -0.758443 -1.63241 0
M  V30 1412 H 135.508 -0.540468 -0.522875 0
M  V30 1413 H 137.479 -2.64837 -1.37492 0
M  V30 1414 C 136.228 -1.83496 -2.95338 0
M  V30 1415 H 135.551 -2.70153 -2.94716 0
M  V30 1416 H 136.991 -2.01765 -3.72917 0
M  V30 1417 C 135.45 -0.589694 -3.31699 0
M  V30 1418 O 135.98 0.265163 -4.00824 0
M  V30 1419 N 134.186 -0.439845 -2.87252 0
M  V30 1420 H 133.733 -1.13655 -2.31172 0
M  V30 1421 H 133.691 0.392159 -3.11945 0
M  V30 1422 N 137.463 0.71206 -1.40597 0
M  V30 1423 C 138.373 1.8562 -1.43466 0
M  V30 1424 C 139.389 1.70902 -0.326902 0
M  V30 1425 O 140.565 1.93105 -0.572043 0
M  V30 1426 C 137.63 3.21451 -1.29884 0
M  V30 1427 C 136.691 3.48398 -2.50833 0
M  V30 1428 C 135.924 4.77749 -2.3789 0
M  V30 1429 O 136.147 5.53089 -1.39459 0
M  V30 1430 O 135.081 5.05111 -3.27333 0
M  V30 1431 H 138.907 1.86155 -2.39958 0
M  V30 1432 H 136.492 0.86295 -1.21957 0
M  V30 1433 H 138.374 4.02579 -1.24531 0
M  V30 1434 H 137.049 3.21636 -0.364997 0
M  V30 1435 H 135.956 2.67265 -2.61763 0
M  V30 1436 H 137.289 3.53014 -3.4299 0
M  V30 1437 N 138.941 1.26152 0.944643 0
M  V30 1438 C 139.889 1.07215 2.06417 0
M  V30 1439 C 140.883 9.2007e-05 1.694 0
M  V30 1440 O 142.089 0.1565 1.79318 0
M  V30 1441 H 138.464 0.329837 0.675805 0
M  V30 1442 H 140.435 2.02099 2.19541 0
M  V30 1443 C 139.184 0.718197 3.40202 0
M  V30 1444 H 138.507 1.53497 3.69159 0
M  V30 1445 H 139.947 0.625459 4.19361 0
M  V30 1446 C 138.406 -0.576435 3.31932 0
M  V30 1447 O 138.936 -1.61574 3.67773 0
M  V30 1448 N 137.142 -0.565781 2.85039 0
M  V30 1449 H 136.689 0.280367 2.5607 0
M  V30 1450 H 136.647 -1.43213 2.79888 0
M  V30 1451 N 140.419 -1.14872 1.07899 0
M  V30 1452 C 141.667 -1.85422 0.803941 0
M  V30 1453 C 141.988 -1.83051 -0.67211 0
M  V30 1454 O 141.258 -1.27532 -1.48703 0
M  V30 1455 H 139.838 -0.686537 0.294408 0
M  V30 1456 H 142.5 -1.39226 1.3639 0
M  V30 1457 H 141.596 -2.90399 1.14346 0
M  V30 1458 N 141.898 -0.863906 -1.31812 0
M  V30 1459 C 143.146 -0.470904 -1.96537 0
M  V30 1460 C 143.467 0.978771 -1.68657 0
M  V30 1461 O 142.737 1.6853 -0.998717 0
M  V30 1462 H 141.317 -0.171148 -0.72713 0
M  V30 1463 H 143.979 -1.10236 -1.60729 0
M  V30 1464 H 143.075 -0.623616 -3.05806 0
M  V30 1465 N 143.376 1.44774 -0.622745 0
M  V30 1466 C 144.616 2.04004 -0.127102 0
M  V30 1467 C 144.98 1.47862 1.22478 0
M  V30 1468 O 146.181 1.98541 1.81204 0
M  V30 1469 C 144.452 3.57247 -0.104429 0
M  V30 1470 S 146.011 4.37574 0.327814 0
M  V30 1471 H 142.829 0.708713 -0.0569776 0
M  V30 1472 H 145.431 1.77275 -0.824253 0
M  V30 1473 H 144.135 3.95616 -1.09159 0
M  V30 1474 H 143.666 3.88575 0.614236 0
M  V30 1475 H 145.681 4.70575 1.57395 0
M  V30 1476 N 144.854 0.36279 1.53368 0
M  V30 1477 C 145.764 -0.492994 2.29362 0
M  V30 1478 C 146.78 -1.09507 1.35219 0
M  V30 1479 O 147.956 -1.10662 1.68273 0
M  V30 1480 C 145.021 -1.61855 3.066 0
M  V30 1481 C 144.082 -1.04429 4.16405 0
M  V30 1482 C 143.315 -2.11621 4.89951 0
M  V30 1483 O 143.538 -3.32684 4.63333 0
M  V30 1484 O 142.472 -1.74835 5.75948 0
M  V30 1485 H 146.298 0.125331 3.03441 0
M  V30 1486 H 143.883 0.127253 1.48857 0
M  V30 1487 H 145.765 -2.27302 3.54841 0
M  V30 1488 H 144.44 -2.22233 2.3536 0
M  V30 1489 H 143.347 -0.353819 3.72423 0
M  V30 1490 H 144.68 -0.485113 4.89804 0
M  V30 1491 N 146.332 -1.57332 0.0918853 0
M  V30 1492 C 147.264 -2.10869 -0.898168 0
M  V30 1493 C 148.277 -1.04521 -1.24817 0
M  V30 1494 O 149.466 -1.31977 -1.20184 0
M  V30 1495 C 146.566 -2.57083 -2.2082 0
M  V30 1496 C 145.739 -3.87229 -2.03402 0
M  V30 1497 C 144.798 -4.19324 -3.17889 0
M  V30 1498 O 143.824 -4.88598 -2.91994 0
M  V30 1499 N 145.026 -3.74471 -4.43567 0
M  V30 1500 H 147.791 -2.96439 -0.440943 0
M  V30 1501 H 145.352 -1.61631 -0.0933064 0
M  V30 1502 H 147.344 -2.75602 -2.96354 0
M  V30 1503 H 145.914 -1.76541 -2.57977 0
M  V30 1504 H 145.134 -3.7789 -1.12218 0
M  V30 1505 H 146.422 -4.72379 -1.89038 0
M  V30 1506 H 145.82 -3.18546 -4.67488 0
M  V30 1507 H 144.377 -3.98151 -5.16061 0
M  V30 1508 N 147.81 0.181792 -1.56548 0
M  V30 1509 C 149.04 0.914618 -1.85252 0
M  V30 1510 C 149.448 1.76791 -0.673914 0
M  V30 1511 O 148.791 1.80009 0.366416 0
M  V30 1512 C 148.853 1.85019 -3.08234 0
M  V30 1513 C 148.517 1.17754 -4.41569 0
M  V30 1514 C 149.514 0.548035 -5.17003 0
M  V30 1515 C 147.199 1.17742 -4.88305 0
M  V30 1516 C 149.193 -0.0726128 -6.37359 0
M  V30 1517 C 146.88 0.552946 -6.08593 0
M  V30 1518 C 147.878 -0.070978 -6.82963 0
M  V30 1519 O 147.566 -0.685635 -8.00971 0
M  V30 1520 H 147.298 0.271695 -0.618998 0
M  V30 1521 H 149.852 0.189944 -2.0452 0
M  V30 1522 H 148.082 2.61491 -2.84885 0
M  V30 1523 H 149.771 2.45195 -3.23472 0
M  V30 1524 H 150.537 0.540174 -4.81982 0
M  V30 1525 H 146.416 1.65246 -4.30366 0
M  V30 1526 H 149.96 -0.560213 -6.95347 0
M  V30 1527 H 145.857 0.558354 -6.43081 0
M  V30 1528 H 146.625 -0.58385 -8.16415 0
M  V30 1529 N 149.288 1.51039 0.449983 0
M  V30 1530 C 150.528 1.64732 1.21007 0
M  V30 1531 C 150.892 0.349865 1.88785 0
M  V30 1532 O 152.093 0.362431 2.66345 0
M  V30 1533 C 150.364 2.80902 2.20973 0
M  V30 1534 S 151.923 3.14851 3.05638 0
M  V30 1535 H 148.741 0.5805 0.410538 0
M  V30 1536 H 151.343 1.88901 0.503634 0
M  V30 1537 H 150.047 3.73627 1.69796 0
M  V30 1538 H 149.578 2.58882 2.96215 0
M  V30 1539 H 151.593 2.60306 4.22439 0
M  V30 1540 N 150.766 -0.704594 1.40972 0
M  V30 1541 C 151.991 -1.49858 1.43378 0
M  V30 1542 C 152.416 -1.88061 0.038184 0
M  V30 1543 O 151.774 -1.5402 -0.956425 0
M  V30 1544 C 151.822 -2.74333 2.34038 0
M  V30 1545 O 150.926 -3.7147 1.7912 0
M  V30 1546 H 150.267 -0.45139 0.486974 0
M  V30 1547 H 152.797 -0.866832 1.8533 0
M  V30 1548 H 152.807 -3.22741 2.49604 0
M  V30 1549 H 151.482 -2.45863 3.35446 0
M  V30 1550 H 150.059 -3.30363 1.72958 0
M  V30 1551 N 152.244 -1.26651 -0.937939 0
M  V30 1552 C 153.521 -1.0313 -1.66204 0
M  V30 1553 C 153.901 0.437256 -2.06522 0
M  V30 1554 O 153.249 1.41831 -1.79154 0
M  V30 1555 C 153.459 -1.98314 -2.87181 0
M  V30 1556 C 154.807 -2.27107 -3.58758 0
M  V30 1557 O 155.831 -1.96205 -2.97291 0
M  V30 1558 O 154.69 -2.79736 -4.69479 0
M  V30 1559 H 151.784 -0.392384 -0.727986 0
M  V30 1560 H 154.33 -1.37874 -0.989382 0
M  V30 1561 H 153.102 -2.97399 -2.54302 0
M  V30 1562 H 152.725 -1.64068 -3.6217 0
M  V30 1563 N 153.722 1.14298 -1.08507 0
M  V30 1564 C 154.672 2.17449 -0.685569 0
M  V30 1565 C 155.656 1.58167 0.295315 0
M  V30 1566 O 156.848 1.76675 0.107172 0
M  V30 1567 C 153.977 3.43161 -0.0975318 0
M  V30 1568 C 153.063 4.09471 -1.10426 0
M  V30 1569 N 153.454 4.51089 -2.28806 0
M  V30 1570 C 151.752 4.35976 -0.940258 0
M  V30 1571 C 152.453 5.02654 -2.9277 0
M  V30 1572 N 151.429 4.96927 -2.20374 0
M  V30 1573 H 155.231 2.47369 -1.587 0
M  V30 1574 H 152.745 1.30992 -0.959936 0
M  V30 1575 H 154.742 4.16388 0.20664 0
M  V30 1576 H 153.402 3.14719 0.798872 0
M  V30 1577 H 154.413 4.44097 -2.66455 0
M  V30 1578 H 151.09 4.17386 -0.0977441 0
M  V30 1579 H 152.48 5.44723 -3.93352 0
M  V30 1580 N 155.201 0.870884 1.31352 0
M  V30 1581 C 156.429 0.49677 2.00848 0
M  V30 1582 C 156.844 -0.910998 1.65367 0
M  V30 1583 O 156.201 -1.59696 0.883374 0
M  V30 1584 C 156.252 0.645308 3.55694 0
M  V30 1585 O 155.973 1.99764 3.89905 0
M  V30 1586 C 157.474 0.272326 4.42463 0
M  V30 1587 H 154.694 0.193462 0.642506 0
M  V30 1588 H 157.238 1.1723 1.67563 0
M  V30 1589 H 155.393 0.0173176 3.87396 0
M  V30 1590 H 155.807 2.00607 4.84621 0
M  V30 1591 H 157.281 0.427208 5.50344 0
M  V30 1592 H 157.758 -0.788587 4.32062 0
M  V30 1593 H 158.364 0.876054 4.1618 0
M  V30 1594 N 156.679 -1.44442 0.630414 0
M  V30 1595 C 157.927 -2.01653 0.134351 0
M  V30 1596 C 158.248 -1.49836 -1.24796 0
M  V30 1597 O 157.518 -0.701684 -1.82902 0
M  V30 1598 H 156.098 -0.74554 0.0466769 0
M  V30 1599 H 158.76 -1.76952 0.816955 0
M  V30 1600 H 157.856 -3.11935 0.101498 0
M  V30 1601 N 158.157 -0.370918 -1.53173 0
M  V30 1602 C 159.385 0.217704 -2.05751 0
M  V30 1603 C 159.8 1.42018 -1.24404 0
M  V30 1604 O 159.157 1.80245 -0.286033 0
M  V30 1605 C 159.208 0.605954 -3.56385 0
M  V30 1606 O 158.929 -0.548734 -4.3465 0
M  V30 1607 C 160.43 1.2524 -4.25241 0
M  V30 1608 H 157.65 0.0371659 -0.66997 0
M  V30 1609 H 160.194 -0.530832 -1.9749 0
M  V30 1610 H 158.349 1.3044 -3.6478 0
M  V30 1611 H 158.763 -0.23376 -5.23979 0
M  V30 1612 H 160.237 1.47458 -5.3194 0
M  V30 1613 H 160.714 2.2143 -3.79296 0
M  V30 1614 H 161.32 0.595233 -4.21114 0
M  V30 1615 N 159.635 1.57281 -0.100228 0
M  V30 1616 C 160.582 2.14305 0.856858 0
M  V30 1617 C 161.552 1.06296 1.27634 0
M  V30 1618 O 162.737 1.34109 1.35718 0
M  V30 1619 C 159.877 2.73184 2.10866 0
M  V30 1620 C 158.99 3.95442 1.73925 0
M  V30 1621 C 158.125 4.42468 2.93931 0
M  V30 1622 C 157.164 5.57303 2.5314 0
M  V30 1623 N 156.301 5.99158 3.65997 0
M  V30 1624 H 161.141 2.95772 0.363726 0
M  V30 1625 H 158.678 1.46139 0.167858 0
M  V30 1626 H 160.636 3.05442 2.84185 0
M  V30 1627 H 159.266 1.94437 2.57671 0
M  V30 1628 H 158.318 3.69464 0.905554 0
M  V30 1629 H 159.63 4.78769 1.39935 0
M  V30 1630 H 158.784 4.76537 3.75496 0
M  V30 1631 H 157.523 3.58052 3.31134 0
M  V30 1632 H 156.528 5.22857 1.70003 0
M  V30 1633 H 157.753 6.43471 2.17075 0
M  V30 1634 H 155.699 5.17687 4.02909 0
M  V30 1635 H 155.616 6.77295 3.35869 0
M  V30 1636 H 156.884 6.3786 4.48057 0
M  V30 1637 N 161.113 -0.173488 1.56642 0
M  V30 1638 C 162.529 -0.525174 1.50712 0
M  V30 1639 C 162.729 -1.8476 0.804107 0
M  V30 1640 O 161.785 -2.49869 0.363574 0
M  V30 1641 C 163.098 -0.559937 2.95441 0
M  V30 1642 C 164.646 -0.647288 3.06234 0
M  V30 1643 C 165.121 -0.712963 4.52417 0
M  V30 1644 N 166.612 -0.775911 4.56655 0
M  V30 1645 C 167.347 -0.847264 5.67106 0
M  V30 1646 N 166.843 -0.879585 6.87194 0
M  V30 1647 N 168.636 -0.886117 5.55071 0
M  V30 1648 H 160.787 0.693681 2.00753 0
M  V30 1649 H 163.05 0.249841 0.914485 0
M  V30 1650 H 162.756 0.343049 3.50023 0
M  V30 1651 H 162.63 -1.40718 3.49969 0
M  V30 1652 H 165.017 -1.5407 2.51687 0
M  V30 1653 H 165.098 0.226586 2.54794 0
M  V30 1654 H 164.742 0.176183 5.07594 0
M  V30 1655 H 164.672 -1.60295 5.0161 0
M  V30 1656 H 167.163 -0.759304 3.70193 0
M  V30 1657 H 167.476 -0.935144 7.67121 0
M  V30 1658 H 165.821 -0.847898 6.89808 0
M  V30 1659 H 169.012 -0.857853 4.60172 0
M  V30 1660 H 169.185 -0.938263 6.41171 0
M  V30 1661 N 162.591 -1.51276 -0.441967 0
M  V30 1662 C 163.816 -1.67799 -1.21895 0
M  V30 1663 C 164.241 -0.372864 -1.84367 0
M  V30 1664 O 163.599 0.666501 -1.68604 0
M  V30 1665 C 163.647 -2.79199 -2.28211 0
M  V30 1666 O 162.751 -2.42479 -3.33583 0
M  V30 1667 H 162.092 -0.559649 -0.357336 0
M  V30 1668 H 164.622 -1.97815 -0.522522 0
M  V30 1669 H 164.632 -3.03146 -2.73069 0
M  V30 1670 H 163.307 -3.73906 -1.82118 0
M  V30 1671 H 161.884 -2.29087 -2.94234 0
M  V30 1672 N 164.069 0.697108 -1.41344 0
M  V30 1673 C 165.309 1.46939 -1.42085 0
M  V30 1674 C 165.673 1.9198 -0.0280397 0
M  V30 1675 O 166.874 2.6865 0.0897504 0
M  V30 1676 C 165.145 2.64985 -2.39828 0
M  V30 1677 S 166.704 3.54147 -2.59085 0
M  V30 1678 H 163.522 0.502146 -0.503359 0
M  V30 1679 H 166.124 0.813546 -1.77769 0
M  V30 1680 H 164.828 2.30098 -3.39828 0
M  V30 1681 H 164.359 3.35464 -2.05493 0
M  V30 1682 H 166.374 4.60137 -1.85711 0
M  V30 1683 N 165.547 1.27147 0.931209 0
M  V30 1684 C 166.963 1.04475 1.20653 0
M  V30 1685 C 167.163 -0.223885 2.00252 0
M  V30 1686 O 166.219 -0.930332 2.34736 0
M  V30 1687 C 167.532 2.28209 1.95809 0
M  V30 1688 C 169.08 2.33211 2.08762 0
M  V30 1689 C 169.555 3.56665 2.87323 0
M  V30 1690 N 171.046 3.57201 2.94892 0
M  V30 1691 C 171.781 4.49395 3.56134 0
M  V30 1692 N 171.277 5.51889 4.18796 0
M  V30 1693 N 173.07 4.37026 3.53504 0
M  V30 1694 H 165.221 2.08612 0.399333 0
M  V30 1695 H 167.484 0.917312 0.239253 0
M  V30 1696 H 167.19 3.20538 1.44736 0
M  V30 1697 H 167.064 2.33247 2.96438 0
M  V30 1698 H 169.451 1.41391 2.59023 0
M  V30 1699 H 169.532 2.32178 1.07364 0
M  V30 1700 H 169.176 4.4882 2.37746 0
M  V30 1701 H 169.106 3.54948 3.88998 0
M  V30 1702 H 171.597 2.83074 2.50354 0
M  V30 1703 H 171.91 6.18409 4.63454 0
M  V30 1704 H 170.255 5.55735 4.17353 0
M  V30 1705 H 173.446 3.56166 3.03749 0
M  V30 1706 H 173.619 5.09067 4.00942 0
M  V30 1707 N 167.025 -1.13721 1.09112 0
M  V30 1708 C 168.265 -1.86576 0.834801 0
M  V30 1709 C 168.629 -1.81435 -0.628122 0
M  V30 1710 O 169.83 -2.49497 -1.00024 0
M  V30 1711 C 168.101 -3.30872 1.35124 0
M  V30 1712 S 169.66 -4.21257 1.22832 0
M  V30 1713 H 166.478 -0.643666 0.302017 0
M  V30 1714 H 169.08 -1.37085 1.39385 0
M  V30 1715 H 167.784 -3.32166 2.41027 0
M  V30 1716 H 167.315 -3.85423 0.788185 0
M  V30 1717 H 169.33 -4.95884 0.177191 0
M  V30 1718 N 168.503 -0.877838 -1.30888 0
M  V30 1719 C 169.453 -0.310872 -2.25871 0
M  V30 1720 C 170.437 0.556596 -1.50966 0
M  V30 1721 O 171.629 0.402187 -1.7237 0
M  V30 1722 C 168.758 0.479821 -3.3993 0
M  V30 1723 C 167.844 -0.401333 -4.22197 0
M  V30 1724 N 168.235 -1.49848 -4.83093 0
M  V30 1725 C 166.533 -0.195167 -4.45573 0
M  V30 1726 C 167.234 -2.0425 -5.44662 0
M  V30 1727 N 166.21 -1.33843 -5.26865 0
M  V30 1728 H 170.012 -1.1493 -2.70496 0
M  V30 1729 H 167.526 -0.726458 -1.45246 0
M  V30 1730 H 169.523 0.902582 -4.07012 0
M  V30 1731 H 168.183 1.31577 -2.96846 0
M  V30 1732 H 169.194 -1.88137 -4.82519 0
M  V30 1733 H 165.871 0.604192 -4.13105 0
M  V30 1734 H 167.261 -2.96345 -6.03017 0
M  V30 1735 N 169.982 1.44106 -0.638065 0
M  V30 1736 C 170.892 2.34513 0.0637334 0
M  V30 1737 C 171.908 1.53018 0.828346 0
M  V30 1738 O 173.084 1.85723 0.779036 0
M  V30 1739 C 170.149 3.31095 1.02844 0
M  V30 1740 C 169.21 4.28497 0.26244 0
M  V30 1741 C 168.443 5.20465 1.1812 0
M  V30 1742 O 168.666 5.16514 2.42011 0
M  V30 1743 O 167.6 5.98251 0.661774 0
M  V30 1744 H 171.426 2.95989 -0.68003 0
M  V30 1745 H 169.011 1.43994 -0.398252 0
M  V30 1746 H 170.893 3.90526 1.58327 0
M  V30 1747 H 169.568 2.72144 1.7527 0
M  V30 1748 H 168.475 3.72592 -0.335602 0
M  V30 1749 H 169.808 4.90388 -0.421936 0
M  V30 1750 N 171.46 0.379036 1.52974 0
M  V30 1751 C 172.708 -0.206014 2.01047 0
M  V30 1752 C 173.029 -1.48175 1.26765 0
M  V30 1753 O 172.299 -1.92085 0.384743 0
M  V30 1754 H 170.879 -0.0791184 0.742798 0
M  V30 1755 H 173.541 0.508366 1.88153 0
M  V30 1756 H 172.637 -0.423501 3.09213 0
M  V30 1757 N 172.938 -1.57226 0.108567 0
M  V30 1758 C 174.168 -1.9889 -0.559142 0
M  V30 1759 C 174.576 -0.986889 -1.61422 0
M  V30 1760 O 173.919 0.0298705 -1.83676 0
M  V30 1761 C 173.981 -3.36952 -1.25315 0
M  V30 1762 C 173.645 -4.55679 -0.347248 0
M  V30 1763 C 174.642 -5.18281 0.409996 0
M  V30 1764 C 172.327 -5.0162 -0.261367 0
M  V30 1765 C 174.321 -6.25203 1.24096 0
M  V30 1766 C 172.008 -6.08405 0.573238 0
M  V30 1767 C 173.006 -6.70063 1.32304 0
M  V30 1768 O 172.694 -7.74788 2.14381 0
M  V30 1769 H 172.426 -0.658343 -0.153492 0
M  V30 1770 H 174.98 -2.04532 0.188584 0
M  V30 1771 H 173.21 -3.28032 -2.04773 0
M  V30 1772 H 174.899 -3.62974 -1.81673 0
M  V30 1773 H 175.665 -4.8371 0.353457 0
M  V30 1774 H 171.544 -4.53381 -0.834656 0
M  V30 1775 H 175.088 -6.73259 1.82669 0
M  V30 1776 H 170.985 -6.42406 0.631208 0
M  V30 1777 H 171.753 -7.91837 2.07209 0
M  V30 1778 N 174.416 0.165178 -1.56732 0
M  V30 1779 C 175.641 0.900253 -1.86843 0
M  V30 1780 C 176.066 1.74766 -0.695596 0
M  V30 1781 O 175.424 1.77786 0.35522 0
M  V30 1782 C 175.472 1.74777 -3.15413 0
M  V30 1783 O 174.576 2.85007 -2.98068 0
M  V30 1784 H 173.917 0.251832 -0.614391 0
M  V30 1785 H 176.447 0.161468 -2.03962 0
M  V30 1786 H 176.457 2.14646 -3.46974 0
M  V30 1787 H 175.132 1.12537 -4.00385 0
M  V30 1788 H 173.709 2.48676 -2.77875 0
M  V30 1789 N 175.894 1.51508 0.433938 0
M  V30 1790 C 176.824 1.76016 1.53429 0
M  V30 1791 C 177.805 0.610112 1.58782 0
M  V30 1792 O 178.99 0.853177 1.74455 0
M  V30 1793 C 176.12 1.88831 2.9148 0
M  V30 1794 C 175.074 3.04288 3.00987 0
M  V30 1795 C 174.4 3.0229 4.4105 0
M  V30 1796 C 175.7 4.44193 2.74754 0
M  V30 1797 H 177.394 2.68152 1.33171 0
M  V30 1798 H 174.94 1.29035 0.639214 0
M  V30 1799 H 176.893 2.04559 3.6842 0
M  V30 1800 H 175.617 0.933455 3.12976 0
M  V30 1801 H 174.276 2.8827 2.26486 0
M  V30 1802 H 173.924 2.04576 4.59519 0
M  V30 1803 H 173.624 3.79822 4.4834 0
M  V30 1804 H 175.148 3.20116 5.1996 0
M  V30 1805 H 176.562 4.60544 3.41426 0
M  V30 1806 H 174.959 5.23457 2.9345 0
M  V30 1807 H 176.029 4.53996 1.70339 0
M  V30 1808 N 177.372 -0.689602 1.41712 0
M  V30 1809 C 178.302 -1.81577 1.46806 0
M  V30 1810 C 179.283 -1.66945 0.326105 0
M  V30 1811 O 180.468 -1.86588 0.538377 0
M  V30 1812 C 177.598 -3.19762 1.35535 0
M  V30 1813 C 176.552 -3.49107 2.47605 0
M  V30 1814 C 175.878 -4.86711 2.21397 0
M  V30 1815 C 177.178 -3.47483 3.89939 0
M  V30 1816 H 178.872 -1.7757 2.41058 0
M  V30 1817 H 176.418 -0.852887 1.16025 0
M  V30 1818 H 178.371 -3.98263 1.3771 0
M  V30 1819 H 177.095 -3.24409 0.377708 0
M  V30 1820 H 175.754 -2.72959 2.44722 0
M  V30 1821 H 175.402 -4.8799 1.21961 0
M  V30 1822 H 175.102 -5.0731 2.96497 0
M  V30 1823 H 176.626 -5.67515 2.25297 0
M  V30 1824 H 178.04 -4.1598 3.94505 0
M  V30 1825 H 176.437 -3.79615 4.64771 0
M  V30 1826 H 177.507 -2.46341 4.17665 0
M  V30 1827 N 178.85 -1.27639 -0.924453 0
M  V30 1828 C 179.813 -1.10681 -2.00705 0
M  V30 1829 C 180.813 -0.0497823 -1.60723 0
M  V30 1830 O 182.003 -0.294654 -1.7169 0
M  V30 1831 C 179.135 -0.687164 -3.33902 0
M  V30 1832 H 180.328 -2.06817 -2.17179 0
M  V30 1833 H 177.881 -1.10473 -1.10569 0
M  V30 1834 H 178.616 0.275439 -3.23128 0
M  V30 1835 H 178.401 -1.45061 -3.6428 0
M  V30 1836 H 179.891 -0.590853 -4.13399 0
M  V30 1837 N 180.328 1.1314 -1.09713 0
M  V30 1838 C 181.605 1.80762 -0.747302 0
M  V30 1839 C 181.985 1.96663 0.767265 0
M  V30 1840 O 181.333 1.53706 1.69076 0
M  V30 1841 C 181.543 3.15606 -1.48975 0
M  V30 1842 C 182.891 3.90914 -1.65746 0
M  V30 1843 O 183.915 3.25239 -1.45251 0
M  V30 1844 O 182.774 5.08718 -1.9967 0
M  V30 1845 H 179.868 0.782103 -0.268782 0
M  V30 1846 H 182.414 1.20041 -1.19951 0
M  V30 1847 H 181.186 2.99278 -2.52088 0
M  V30 1848 H 180.809 3.84029 -1.02991 0
M  V30 1849 N 181.806 0.884767 1.30421 0
M  V30 1850 C 183.054 0.502112 1.95763 0
M  V30 1851 C 183.375 -0.951815 1.70192 0
M  V30 1852 O 182.645 -1.6692 1.0254 0
M  V30 1853 H 181.225 0.182694 0.724315 0
M  V30 1854 H 183.887 1.1278 1.58955 0
M  V30 1855 H 182.983 0.672188 3.04775 0
M  V30 1856 N 183.284 -1.43765 0.645699 0
M  V30 1857 C 184.53 -2.02197 0.156271 0
M  V30 1858 C 184.863 -1.50776 -1.22393 0
M  V30 1859 O 184.138 -0.697771 -1.81553 0
M  V30 1860 C 184.421 -3.59749 0.158872 0
M  V30 1861 C 184.274 -4.21419 1.57245 0
M  V30 1862 C 185.593 -4.37149 -0.50879 0
M  V30 1863 H 182.712 -0.734694 0.0582602 0
M  V30 1864 H 185.354 -1.71157 0.824951 0
M  V30 1865 H 183.504 -3.86325 -0.410525 0
M  V30 1866 H 185.176 -4.059 2.19186 0
M  V30 1867 H 183.419 -3.78356 2.122 0
M  V30 1868 H 184.09 -5.30482 1.52619 0
M  V30 1869 H 186.566 -4.16093 -0.024412 0
M  V30 1870 H 185.442 -5.4683 -0.476213 0
M  V30 1871 H 185.703 -4.12839 -1.58165 0
M  V30 1872 N 184.763 -0.387143 -1.52771 0
M  V30 1873 C 185.988 0.198407 -2.06449 0
M  V30 1874 C 186.413 1.39918 -1.25716 0
M  V30 1875 O 185.771 1.79099 -0.281657 0
M  V30 1876 C 185.819 0.548893 -3.56398 0
M  V30 1877 O 184.923 1.64315 -3.78252 0
M  V30 1878 H 184.264 0.0237731 -0.663574 0
M  V30 1879 H 186.794 -0.553989 -1.96957 0
M  V30 1880 H 186.804 0.813812 -3.99801 0
M  V30 1881 H 185.479 -0.329005 -4.14597 0
M  V30 1882 H 184.056 1.37211 -3.46738 0
M  V30 1883 N 186.241 1.57166 -0.116904 0
M  V30 1884 C 187.481 1.97008 0.544715 0
M  V30 1885 C 187.845 0.998713 1.63981 0
M  V30 1886 O 189.046 1.28644 2.36018 0
M  V30 1887 C 187.317 3.41145 1.06559 0
M  V30 1888 S 188.876 4.02998 1.73603 0
M  V30 1889 H 185.694 0.688587 0.177112 0
M  V30 1890 H 188.296 1.94459 -0.201487 0
M  V30 1891 H 187 4.09592 0.257374 0
M  V30 1892 H 186.531 3.4734 1.84712 0
M  V30 1893 H 188.546 3.93585 3.02168 0
M  V30 1894 N 187.719 -0.156864 1.56817 0
M  V30 1895 C 188.947 -0.886316 1.86955 0
M  V30 1896 C 189.362 -1.75185 0.703975 0
M  V30 1897 O 188.719 -1.79555 -0.326552 0
M  V30 1898 C 188.77 -1.75117 3.16253 0
M  V30 1899 O 188.491 -0.920537 4.2832 0
M  V30 1900 C 189.992 -2.58905 3.59837 0
M  V30 1901 H 187.212 -0.25678 0.619923 0
M  V30 1902 H 189.756 -0.152615 2.0393 0
M  V30 1903 H 187.911 -2.43805 3.01062 0
M  V30 1904 H 188.325 -1.51337 5.02192 0
M  V30 1905 H 189.799 -3.1518 4.53172 0
M  V30 1906 H 190.276 -3.34472 2.84649 0
M  V30 1907 H 190.882 -1.95526 3.7769 0
M  V30 1908 N 189.197 -1.51736 -0.425897 0
M  V30 1909 C 190.608 -1.5732 -1.00536 0
M  V30 1910 C 190.959 -0.403537 -1.92005 0
M  V30 1911 O 190.084 0.478256 -2.11049 0
M  V30 1912 C 190.679 -2.85119 -1.8301 0
M  V30 1913 C 189.238 -2.93236 -2.35987 0
M  V30 1914 C 188.385 -2.52098 -1.15508 0
M  V30 1915 H 191.336 -1.57348 -0.206739 0
M  V30 1916 H 191.357 -2.69526 -2.68581 0
M  V30 1917 H 190.869 -3.7023 -1.16411 0
M  V30 1918 H 188.97 -2.12581 -3.06007 0
M  V30 1919 H 189.083 -3.9713 -2.68001 0
M  V30 1920 H 187.447 -2.05558 -1.50393 0
M  V30 1921 H 188.23 -3.39565 -0.505014 0
M  V30 1922 N 190.675 0.682077 -1.42076 0
M  V30 1923 C 191.903 1.47057 -1.4554 0
M  V30 1924 C 192.318 1.8869 -0.0645779 0
M  V30 1925 O 191.675 1.57666 0.919115 0
M  V30 1926 C 191.726 2.72442 -2.37609 0
M  V30 1927 O 191.447 2.32559 -3.71279 0
M  V30 1928 C 192.948 3.66069 -2.50017 0
M  V30 1929 H 190.168 0.452737 -0.495248 0
M  V30 1930 H 192.712 0.838695 -1.8651 0
M  V30 1931 H 190.867 3.31835 -1.9991 0
M  V30 1932 H 191.281 3.13475 -4.20516 0
M  V30 1933 H 192.755 4.50792 -3.18576 0
M  V30 1934 H 193.232 4.11476 -1.53572 0
M  V30 1935 H 193.838 3.12572 -2.88407 0
M  V30 1936 N 192.153 1.28127 0.917671 0
M  V30 1937 C 193.399 1.15223 1.66888 0
M  V30 1938 C 193.732 -0.299293 1.9188 0
M  V30 1939 O 193.007 -1.21805 1.51637 0
M  V30 1940 C 193.29 1.94706 3.02922 0
M  V30 1941 C 193.143 3.47898 2.85109 0
M  V30 1942 C 194.462 1.75939 4.03402 0
M  V30 1943 H 191.581 0.419946 0.605652 0
M  V30 1944 H 194.223 1.57398 1.06423 0
M  V30 1945 H 192.373 1.58864 3.54534 0
M  V30 1946 H 194.045 3.93624 2.40537 0
M  V30 1947 H 192.288 3.7373 2.20246 0
M  V30 1948 H 192.959 3.98765 3.81694 0
M  V30 1949 H 195.435 2.07209 3.60837 0
M  V30 1950 H 194.311 2.33931 4.96556 0
M  V30 1951 H 194.572 0.709877 4.36364 0
M  V30 1952 N 193.631 -1.12557 1.10312 0
M  V30 1953 C 194.541 -2.21841 0.763142 0
M  V30 1954 C 195.557 -1.72354 -0.238801 0
M  V30 1955 O 196.733 -2.01249 -0.0778746 0
M  V30 1956 C 193.798 -3.46131 0.198632 0
M  V30 1957 C 192.859 -4.10464 1.25769 0
M  V30 1958 C 192.092 -5.28821 0.72002 0
M  V30 1959 O 192.315 -5.6859 -0.453993 0
M  V30 1960 O 191.249 -5.83437 1.47935 0
M  V30 1961 H 195.075 -2.53312 1.67532 0
M  V30 1962 H 192.66 -1.20867 0.878157 0
M  V30 1963 H 194.542 -4.2125 -0.112401 0
M  V30 1964 H 193.217 -3.16338 -0.686419 0
M  V30 1965 H 192.124 -3.3713 1.62156 0
M  V30 1966 H 193.457 -4.44408 2.11571 0
M  V30 1967 N 195.109 -0.891671 -1.2995 0
M  V30 1968 C 196.339 -0.527893 -1.99742 0
M  V30 1969 C 196.747 0.88979 -1.66971 0
M  V30 1970 O 196.09 1.59766 -0.906667 0
M  V30 1971 C 196.152 -0.630804 -3.53922 0
M  V30 1972 C 195.816 -2.01401 -4.10228 0
M  V30 1973 C 196.813 -2.98422 -4.25724 0
M  V30 1974 C 194.498 -2.32121 -4.45449 0
M  V30 1975 C 196.492 -4.24293 -4.75662 0
M  V30 1976 C 194.179 -3.58237 -4.95086 0
M  V30 1977 C 195.177 -4.54137 -5.10146 0
M  V30 1978 O 194.865 -5.78014 -5.58708 0
M  V30 1979 H 194.597 -0.201953 -0.645129 0
M  V30 1980 H 197.151 -1.20076 -1.66646 0
M  V30 1981 H 195.381 0.0990616 -3.86573 0
M  V30 1982 H 197.07 -0.277338 -4.04951 0
M  V30 1983 H 197.836 -2.76001 -3.98809 0
M  V30 1984 H 193.715 -1.5824 -4.32991 0
M  V30 1985 H 197.259 -4.99153 -4.87332 0
M  V30 1986 H 193.156 -3.80491 -5.21437 0
M  V30 1987 H 193.924 -5.8049 -5.77039 0
M  V30 1988 N 196.587 1.43421 -0.653314 0
M  V30 1989 C 197.998 1.85065 -0.246537 0
M  V30 1990 C 198.349 1.54688 1.2069 0
M  V30 1991 O 197.474 0.995896 1.92122 0
M  V30 1992 C 198.069 3.35922 -0.440666 0
M  V30 1993 C 196.628 3.76297 -0.0882064 0
M  V30 1994 C 195.775 2.67147 -0.743484 0
M  V30 1995 H 198.726 1.33572 -0.856979 0
M  V30 1996 H 198.747 3.79204 0.313798 0
M  V30 1997 H 198.259 3.58 -1.49858 0
M  V30 1998 H 196.36 3.5983 0.96711 0
M  V30 1999 H 196.473 4.76338 -0.513738 0
M  V30 2000 H 194.837 2.54086 -0.176712 0
M  V30 2001 H 195.62 2.92053 -1.80443 0
M  V30 2002 N 198.065 0.39524 1.52563 0
M  V30 2003 C 199.305 -0.184744 2.03563 0
M  V30 2004 C 199.669 -1.43548 1.27507 0
M  V30 2005 O 200.87 -2.093 1.68662 0
M  V30 2006 C 199.141 -0.440294 3.54678 0
M  V30 2007 S 200.7 -0.989712 4.27493 0
M  V30 2008 H 197.518 -0.0515075 0.709132 0
M  V30 2009 H 200.12 0.544957 1.87751 0
M  V30 2010 H 198.824 0.477005 4.07618 0
M  V30 2011 H 198.355 -1.19825 3.74707 0
M  V30 2012 H 200.37 -2.27155 4.41152 0
M  V30 2013 N 199.544 -1.57102 0.125237 0
M  V30 2014 C 200.792 -1.95021 -0.530198 0
M  V30 2015 C 201.113 -1.00982 -1.66816 0
M  V30 2016 O 200.383 -0.0672693 -1.95784 0
M  V30 2017 H 198.963 -0.720046 -0.198853 0
M  V30 2018 H 201.625 -1.93916 0.19564 0
M  V30 2019 H 200.721 -2.98211 -0.920681 0
M  V30 2020 N 201.022 0.148545 -1.56898 0
M  V30 2021 C 201.969 1.18345 -1.98149 0
M  V30 2022 C 202.939 1.42772 -0.848848 0
M  V30 2023 O 204.124 1.55132 -1.11079 0
M  V30 2024 C 201.264 2.51231 -2.36594 0
M  V30 2025 C 200.377 2.33991 -3.63142 0
M  V30 2026 C 199.512 3.59902 -3.90697 0
M  V30 2027 C 198.551 3.37692 -5.1052 0
M  V30 2028 N 197.688 4.5573 -5.34092 0
M  V30 2029 H 202.528 0.82467 -2.86362 0
M  V30 2030 H 200.065 0.395756 -1.41676 0
M  V30 2031 H 202.023 3.28713 -2.56912 0
M  V30 2032 H 200.653 2.85059 -1.51463 0
M  V30 2033 H 199.705 1.47572 -3.50609 0
M  V30 2034 H 201.017 2.13539 -4.5078 0
M  V30 2035 H 200.171 4.45813 -4.11505 0
M  V30 2036 H 198.91 3.83357 -3.01477 0
M  V30 2037 H 197.915 2.5017 -4.89587 0
M  V30 2038 H 199.14 3.15637 -6.0129 0
M  V30 2039 H 197.086 4.79361 -4.47827 0
M  V30 2040 H 197.003 4.38274 -6.15996 0
M  V30 2041 H 198.271 5.42858 -5.59397 0
M  V30 2042 N 202.5 1.5196 0.417844 0
M  V30 2043 C 203.749 1.6482 1.16264 0
M  V30 2044 C 204.062 0.379886 1.91876 0
M  V30 2045 O 205.268 0.388154 2.68711 0
M  V30 2046 C 203.724 2.91161 2.1155 0
M  V30 2047 C 203.332 4.25068 1.41495 0
M  V30 2048 C 205.076 3.13383 2.86341 0
M  V30 2049 C 202.983 5.42541 2.35379 0
M  V30 2050 H 201.913 0.613954 0.437694 0
M  V30 2051 H 204.564 1.78442 0.427871 0
M  V30 2052 H 202.946 2.71218 2.88543 0
M  V30 2053 H 204.12 4.55463 0.699263 0
M  V30 2054 H 202.435 4.0888 0.787792 0
M  V30 2055 H 205.032 3.98324 3.5671 0
M  V30 2056 H 205.375 2.27256 3.48798 0
M  V30 2057 H 205.908 3.33757 2.1645 0
M  V30 2058 H 202.647 6.30987 1.77582 0
M  V30 2059 H 202.167 5.16497 3.04945 0
M  V30 2060 H 203.846 5.75272 2.96093 0
M  V30 2061 N 203.978 -0.674533 1.42435 0
M  V30 2062 C 205.389 -1.25514 1.38214 0
M  V30 2063 C 205.74 -1.96055 0.0755464 0
M  V30 2064 O 204.865 -2.00028 -0.8257 0
M  V30 2065 C 205.46 -2.28269 2.50357 0
M  V30 2066 C 204.019 -2.81856 2.49467 0
M  V30 2067 C 203.166 -1.56182 2.29134 0
M  V30 2068 H 206.117 -0.467902 1.51646 0
M  V30 2069 H 206.138 -3.10009 2.20624 0
M  V30 2070 H 205.65 -1.769 3.45439 0
M  V30 2071 H 203.751 -3.37346 1.58204 0
M  V30 2072 H 203.864 -3.30854 3.46515 0
M  V30 2073 H 202.228 -1.82761 1.774 0
M  V30 2074 H 203.011 -1.06778 3.26272 0
M  V30 2075 N 205.456 -1.28612 -0.910864 0
M  V30 2076 C 206.705 -1.15311 -1.65488 0
M  V30 2077 C 207.018 0.296999 -1.93332 0
M  V30 2078 O 208.224 0.551168 -2.65847 0
M  V30 2079 C 206.68 -2.01599 -2.98137 0
M  V30 2080 C 206.288 -3.51367 -2.7793 0
M  V30 2081 C 208.032 -1.96993 -3.76024 0
M  V30 2082 C 205.939 -4.29797 -4.06237 0
M  V30 2083 H 204.869 -0.42796 -0.620779 0
M  V30 2084 H 207.52 -1.53166 -1.01057 0
M  V30 2085 H 205.902 -1.56603 -3.63719 0
M  V30 2086 H 207.076 -4.0434 -2.21011 0
M  V30 2087 H 205.391 -3.57529 -2.13452 0
M  V30 2088 H 207.988 -2.52856 -4.71135 0
M  V30 2089 H 208.331 -0.94733 -4.05378 0
M  V30 2090 H 208.864 -2.39973 -3.17266 0
M  V30 2091 H 205.603 -5.32648 -3.82055 0
M  V30 2092 H 205.123 -3.81596 -4.62757 0
M  V30 2093 H 206.802 -4.39869 -4.74473 0
M  V30 2094 N 206.934 1.1197 -1.10907 0
M  V30 2095 C 207.864 2.19928 -0.784473 0
M  V30 2096 C 208.845 1.6833 0.244726 0
M  V30 2097 O 210.03 1.93892 0.109418 0
M  V30 2098 C 207.16 3.46597 -0.220827 0
M  V30 2099 C 206.114 4.11376 -1.18127 0
M  V30 2100 C 205.44 5.32554 -0.478594 0
M  V30 2101 C 206.74 4.56945 -2.52979 0
M  V30 2102 H 208.434 2.47337 -1.68715 0
M  V30 2103 H 205.98 1.18879 -0.812642 0
M  V30 2104 H 207.933 4.21396 0.0184278 0
M  V30 2105 H 206.657 3.1863 0.717113 0
M  V30 2106 H 205.316 3.38564 -1.40606 0
M  V30 2107 H 204.964 5.00856 0.463976 0
M  V30 2108 H 204.664 5.76844 -1.11912 0
M  V30 2109 H 206.188 6.10096 -0.248 0
M  V30 2110 H 207.602 5.23093 -2.3462 0
M  V30 2111 H 205.999 5.1203 -3.12962 0
M  V30 2112 H 207.069 3.70676 -3.12614 0
M  V30 2113 N 208.412 0.89855 1.29475 0
M  V30 2114 C 209.322 0.379974 2.31502 0
M  V30 2115 C 210.338 -0.524695 1.659 0
M  V30 2116 O 211.514 -0.414551 1.97087 0
M  V30 2117 C 208.579 -0.385138 3.44554 0
M  V30 2118 C 207.64 0.550914 4.2575 0
M  V30 2119 C 206.873 -0.177778 5.33404 0
M  V30 2120 O 207.096 -1.40189 5.52904 0
M  V30 2121 O 206.03 0.479106 5.9999 0
M  V30 2122 H 209.856 1.22639 2.77837 0
M  V30 2123 H 207.441 0.662834 1.33891 0
M  V30 2124 H 209.323 -0.817841 4.13388 0
M  V30 2125 H 207.998 -1.20763 3.0033 0
M  V30 2126 H 206.905 1.03271 3.59564 0
M  V30 2127 H 208.238 1.33979 4.73614 0
M  V30 2128 N 209.89 -1.43072 0.660911 0
M  V30 2129 C 210.837 -2.30785 -0.0259884 0
M  V30 2130 C 211.807 -1.45184 -0.806888 0
M  V30 2131 O 212.992 -1.74041 -0.781943 0
M  V30 2132 C 210.132 -3.30861 -0.981067 0
M  V30 2133 C 209.245 -4.31558 -0.195458 0
M  V30 2134 C 208.38 -5.18712 -1.14503 0
M  V30 2135 C 207.419 -6.11097 -0.350299 0
M  V30 2136 N 206.556 -6.90849 -1.25186 0
M  V30 2137 H 211.396 -2.88975 0.727846 0
M  V30 2138 H 208.933 -1.42353 0.370682 0
M  V30 2139 H 210.891 -3.87399 -1.54849 0
M  V30 2140 H 209.521 -2.74304 -1.70169 0
M  V30 2141 H 208.573 -3.77252 0.488374 0
M  V30 2142 H 209.885 -4.9701 0.422176 0
M  V30 2143 H 209.039 -5.79914 -1.78284 0
M  V30 2144 H 207.778 -4.53404 -1.79656 0
M  V30 2145 H 206.783 -5.48976 0.300808 0
M  V30 2146 H 208.008 -6.7845 0.296941 0
M  V30 2147 H 205.954 -6.28182 -1.89005 0
M  V30 2148 H 205.871 -7.52854 -0.688971 0
M  V30 2149 H 207.139 -7.5655 -1.87757 0
M  V30 2150 N 211.368 -0.403325 -1.52352 0
M  V30 2151 C 212.784 -0.0539281 -1.59509 0
M  V30 2152 C 212.984 1.43307 -1.41652 0
M  V30 2153 O 212.04 2.19924 -1.24056 0
M  V30 2154 C 213.353 -0.543654 -2.95745 0
M  V30 2155 C 214.901 -0.501125 -3.08962 0
M  V30 2156 C 215.376 -0.967267 -4.47669 0
M  V30 2157 N 216.867 -0.923849 -4.53893 0
M  V30 2158 C 217.602 -1.25578 -5.5948 0
M  V30 2159 N 217.098 -1.65889 -6.72646 0
M  V30 2160 N 218.891 -1.17613 -5.49658 0
M  V30 2161 H 211.042 -1.37123 -1.62206 0
M  V30 2162 H 213.305 -0.56294 -0.76276 0
M  V30 2163 H 213.011 -1.58275 -3.14073 0
M  V30 2164 H 212.885 0.0498042 -3.77167 0
M  V30 2165 H 215.272 0.528909 -2.90321 0
M  V30 2166 H 215.353 -1.13056 -2.2946 0
M  V30 2167 H 214.997 -1.9956 -4.67053 0
M  V30 2168 H 214.927 -0.314698 -5.25659 0
M  V30 2169 H 217.418 -0.627403 -3.72655 0
M  V30 2170 H 217.731 -1.89543 -7.49195 0
M  V30 2171 H 216.076 -1.69787 -6.73942 0
M  V30 2172 H 219.267 -0.860115 -4.6013 0
M  V30 2173 H 219.44 -1.43812 -6.3184 0
M  V30 2174 N 212.846 1.57033 -0.133567 0
M  V30 2175 C 213.794 2.17348 0.828412 0
M  V30 2176 C 214.788 1.12671 1.26498 0
M  V30 2177 O 215.994 1.30947 1.23502 0
M  V30 2178 H 212.369 0.695775 0.285309 0
M  V30 2179 H 214.34 2.96935 0.295372 0
M  V30 2180 C 213.089 2.79893 2.06289 0
M  V30 2181 H 212.412 3.60147 1.73592 0
M  V30 2182 H 213.852 3.25615 2.71572 0
M  V30 2183 C 212.311 1.77713 2.86216 0
M  V30 2184 O 212.841 1.23937 3.82103 0
M  V30 2185 N 211.047 1.47321 2.50489 0
M  V30 2186 H 210.594 1.91243 1.7258 0
M  V30 2187 H 210.552 0.79199 3.04261 0
M  V30 2188 N 214.325 -0.140222 1.56975 0
M  V30 2189 C 215.288 -1.15689 1.97861 0
M  V30 2190 C 216.288 -1.3549 0.865974 0
M  V30 2191 O 217.478 -1.32367 1.13246 0
M  V30 2192 C 214.61 -2.51582 2.30042 0
M  V30 2193 H 215.803 -0.805971 2.88867 0
M  V30 2194 H 213.356 -0.383801 1.51515 0
M  V30 2195 H 214.091 -2.91632 1.41849 0
M  V30 2196 H 213.876 -2.38569 3.11171 0
M  V30 2197 H 215.366 -3.24792 2.62488 0
M  V30 2198 N 215.803 -1.52179 -0.40978 0
M  V30 2199 C 217.028 -1.70347 -1.18308 0
M  V30 2200 C 217.453 -0.411887 -1.83535 0
M  V30 2201 O 216.811 0.630587 -1.6998 0
M  V30 2202 C 216.859 -2.83977 -2.22238 0
M  V30 2203 O 215.963 -2.495 -3.28365 0
M  V30 2204 H 215.304 -0.567103 -0.345384 0
M  V30 2205 H 217.834 -1.98879 -0.480445 0
M  V30 2206 H 217.844 -3.0887 -2.66577 0
M  V30 2207 H 216.519 -3.77685 -1.74146 0
M  V30 2208 H 215.096 -2.35277 -2.89308 0
M  V30 2209 N 217.281 0.66697 -1.42791 0
M  V30 2210 C 218.228 1.7803 -1.4688 0
M  V30 2211 C 219.198 1.6299 -0.319919 0
M  V30 2212 O 220.383 1.83432 -0.525118 0
M  V30 2213 C 217.523 3.1611 -1.38451 0
M  V30 2214 C 216.636 3.42381 -2.63437 0
M  V30 2215 C 215.771 4.70232 -2.47094 0
M  V30 2216 C 214.81 4.89564 -3.67415 0
M  V30 2217 N 213.947 6.08661 -3.49966 0
M  V30 2218 H 218.787 1.7387 -2.42019 0
M  V30 2219 H 216.324 0.84868 -1.20149 0
M  V30 2220 H 218.282 3.95914 -1.31561 0
M  V30 2221 H 216.912 3.19374 -0.469033 0
M  V30 2222 H 215.964 2.56774 -2.80662 0
M  V30 2223 H 217.276 3.52557 -3.52853 0
M  V30 2224 H 216.43 5.5814 -2.37834 0
M  V30 2225 H 215.169 4.62353 -1.5518 0
M  V30 2226 H 214.174 4.00096 -3.77099 0
M  V30 2227 H 215.399 4.99282 -4.6032 0
M  V30 2228 H 213.345 6.0194 -2.60776 0
M  V30 2229 H 213.262 6.19733 -4.32975 0
M  V30 2230 H 214.53 6.99226 -3.44532 0
M  V30 2231 N 218.759 1.29093 0.90403 0
M  V30 2232 C 220.17 1.15186 1.46932 0
M  V30 2233 C 220.521 -0.254587 1.94541 0
M  V30 2234 O 219.646 -1.14972 1.83332 0
M  V30 2235 C 220.241 2.08492 2.67051 0
M  V30 2236 C 218.8 1.98621 3.19729 0
M  V30 2237 C 217.947 1.9967 1.92425 0
M  V30 2238 H 220.898 1.41641 0.715789 0
M  V30 2239 H 220.919 1.65461 3.42641 0
M  V30 2240 H 220.431 3.10847 2.3237 0
M  V30 2241 H 218.532 0.993389 3.59114 0
M  V30 2242 H 218.645 2.86068 3.8432 0
M  V30 2243 H 217.009 1.44208 2.09943 0
M  V30 2244 H 217.792 3.03721 1.60026 0
M  V30 2245 N 220.237 -1.11381 1.11499 0
M  V30 2246 C 221.169 -2.17207 0.731704 0
M  V30 2247 C 222.182 -1.61066 -0.236957 0
M  V30 2248 O 223.371 -1.78489 -0.0197591 0
M  V30 2249 C 220.471 -3.38846 0.0607624 0
M  V30 2250 C 219.644 -4.24451 1.0564 0
M  V30 2251 C 218.703 -5.24562 0.4149 0
M  V30 2252 O 217.729 -5.59071 1.069 0
M  V30 2253 N 218.931 -5.74651 -0.821943 0
M  V30 2254 H 221.696 -2.50699 1.64225 0
M  V30 2255 H 219.257 -1.26908 1.00529 0
M  V30 2256 H 221.249 -4.02911 -0.380139 0
M  V30 2257 H 219.819 -3.03411 -0.752376 0
M  V30 2258 H 219.039 -3.56833 1.67524 0
M  V30 2259 H 220.327 -4.78486 1.72998 0
M  V30 2260 H 219.725 -5.48797 -1.37252 0
M  V30 2261 H 218.282 -6.40549 -1.20582 0
M  V30 2262 N 221.715 -0.905404 -1.28997 0
M  V30 2263 C 222.963 -0.533192 -1.9494 0
M  V30 2264 C 223.284 0.924618 -1.71685 0
M  V30 2265 O 222.554 1.65268 -1.05183 0
M  V30 2266 H 221.134 -0.194194 -0.721317 0
M  V30 2267 H 223.796 -1.15294 -1.57141 0
M  V30 2268 H 222.892 -0.72059 -3.03667 0
M  V30 2269 N 223.193 1.4272 -0.668489 0
M  V30 2270 C 224.609 1.55992 -0.33745 0
M  V30 2271 C 224.809 1.64933 1.15756 0
M  V30 2272 O 223.865 1.61278 1.94282 0
M  V30 2273 C 225.178 2.81314 -1.06222 0
M  V30 2274 C 226.726 2.95078 -1.04394 0
M  V30 2275 C 227.201 4.23252 -1.74991 0
M  V30 2276 N 228.692 4.3015 -1.71829 0
M  V30 2277 C 229.427 5.28127 -2.23315 0
M  V30 2278 N 228.923 6.32293 -2.83156 0
M  V30 2279 N 230.716 5.19882 -2.13726 0
M  V30 2280 H 222.867 1.3516 -1.63846 0
M  V30 2281 H 225.13 0.650174 -0.689912 0
M  V30 2282 H 224.836 2.80823 -2.11734 0
M  V30 2283 H 224.71 3.72012 -0.62344 0
M  V30 2284 H 227.097 2.951 0.0028244 0
M  V30 2285 H 227.178 2.05627 -1.52155 0
M  V30 2286 H 226.822 4.2399 -2.79633 0
M  V30 2287 H 226.752 5.11626 -1.24685 0
M  V30 2288 H 229.243 3.55499 -1.28175 0
M  V30 2289 H 229.556 7.03398 -3.20079 0
M  V30 2290 H 227.901 6.32873 -2.87223 0
M  V30 2291 H 231.092 4.37423 -1.66669 0
M  V30 2292 H 231.265 5.96077 -2.54158 0
M  V30 2293 N 224.671 0.411399 1.52136 0
M  V30 2294 C 225.92 -0.165009 2.01024 0
M  V30 2295 C 226.233 -1.4603 1.30133 0
M  V30 2296 O 227.439 -2.1181 1.69849 0
M  V30 2297 C 225.895 -0.344618 3.58246 0
M  V30 2298 C 225.503 0.938716 4.38055 0
M  V30 2299 C 227.247 -0.876195 4.15359 0
M  V30 2300 C 225.154 0.726172 5.86925 0
M  V30 2301 H 224.084 -0.0654407 0.751155 0
M  V30 2302 H 226.735 0.537192 1.75461 0
M  V30 2303 H 225.117 -1.10921 3.80148 0
M  V30 2304 H 226.291 1.70963 4.27912 0
M  V30 2305 H 224.606 1.39688 3.92271 0
M  V30 2306 H 227.203 -1.05128 5.24263 0
M  V30 2307 H 227.546 -1.85152 3.7286 0
M  V30 2308 H 228.079 -0.170607 3.97434 0
M  V30 2309 H 224.818 1.67312 6.33788 0
M  V30 2310 H 224.338 -0.00540283 5.998 0
M  V30 2311 H 226.017 0.369231 6.45946 0
M  V30 2312 N 226.149 -1.5696 0.141893 0
M  V30 2313 C 227.395 -1.9625 -0.511248 0
M  V30 2314 C 227.728 -1.02654 -1.64851 0
M  V30 2315 O 227.003 -0.0679676 -1.94381 0
M  V30 2316 C 227.286 -3.45285 -1.02227 0
M  V30 2317 C 227.139 -4.49658 0.113138 0
M  V30 2318 C 228.458 -3.96698 -1.90574 0
M  V30 2319 H 225.577 -0.713567 -0.184367 0
M  V30 2320 H 228.219 -1.88698 0.222087 0
M  V30 2321 H 226.369 -3.51852 -1.64719 0
M  V30 2322 H 228.041 -4.55174 0.749302 0
M  V30 2323 H 226.284 -4.26857 0.773026 0
M  V30 2324 H 226.955 -5.51258 -0.286053 0
M  V30 2325 H 229.431 -3.92578 -1.37918 0
M  V30 2326 H 228.307 -5.01453 -2.2324 0
M  V30 2327 H 228.568 -3.3875 -2.84079 0
M  V30 2328 N 227.627 0.131896 -1.57047 0
M  V30 2329 C 228.875 0.840269 -1.83804 0
M  V30 2330 C 229.196 1.81017 -0.72512 0
M  V30 2331 O 228.466 1.94272 0.251995 0
M  V30 2332 H 227.046 0.313294 -0.678127 0
M  V30 2333 H 229.708 0.122294 -1.94516 0
M  V30 2334 H 228.804 1.39335 -2.79271 0
M  V30 2335 N 229.106 1.52395 0.401703 0
M  V30 2336 C 230.354 1.66488 1.14569 0
M  V30 2337 C 230.675 0.400897 1.90835 0
M  V30 2338 O 229.945 -0.584415 1.8698 0
M  V30 2339 H 228.525 0.613672 0.425929 0
M  V30 2340 H 231.187 1.89464 0.457093 0
M  V30 2341 H 230.283 2.50942 1.85566 0
M  V30 2342 N 230.584 -0.659388 1.43143 0
M  V30 2343 C 231.531 -1.77249 1.47822 0
M  V30 2344 C 232.501 -1.62818 0.328558 0
M  V30 2345 O 233.686 -1.83151 0.534838 0
M  V30 2346 C 230.826 -3.15371 1.40126 0
M  V30 2347 C 229.939 -3.4098 2.65249 0
M  V30 2348 C 229.074 -4.68915 2.49584 0
M  V30 2349 C 228.113 -4.87608 3.70006 0
M  V30 2350 N 227.25 -6.06796 3.53189 0
M  V30 2351 H 232.09 -1.72584 2.42938 0
M  V30 2352 H 229.627 -0.842297 1.20598 0
M  V30 2353 H 231.585 -3.9521 1.33659 0
M  V30 2354 H 230.215 -3.19121 0.485964 0
M  V30 2355 H 229.267 -2.55282 2.8202 0
M  V30 2356 H 230.579 -3.50681 3.54717 0
M  V30 2357 H 229.733 -5.56871 2.4079 0
M  V30 2358 H 228.472 -4.61524 1.5763 0
M  V30 2359 H 227.477 -3.9809 3.79215 0
M  V30 2360 H 228.702 -4.96834 4.62961 0
M  V30 2361 H 226.648 -6.00549 2.63965 0
M  V30 2362 H 226.565 -6.17428 4.36255 0
M  V30 2363 H 227.833 -6.9739 3.48236 0
M  V30 2364 N 232.062 -1.29571 -0.897171 0
M  V30 2365 C 233.308 -1.17863 -1.65034 0
M  V30 2366 C 233.641 0.268729 -1.92332 0
M  V30 2367 O 232.916 1.19378 -1.53555 0
M  V30 2368 C 233.199 -1.995 -2.99786 0
M  V30 2369 C 233.052 -3.5239 -2.79538 0
M  V30 2370 C 234.371 -1.82335 -4.00552 0
M  V30 2371 H 231.49 -0.429528 -0.598895 0
M  V30 2372 H 234.132 -1.59072 -1.03905 0
M  V30 2373 H 232.282 -1.64485 -3.51962 0
M  V30 2374 H 233.954 -3.97401 -2.34244 0
M  V30 2375 H 232.197 -3.77187 -2.14273 0
M  V30 2376 H 232.868 -4.04787 -3.75302 0
M  V30 2377 H 235.344 -2.12924 -3.57495 0
M  V30 2378 H 234.22 -2.41801 -4.92771 0
M  V30 2379 H 234.481 -0.779209 -4.35179 0
M  V30 2380 N 233.54 1.10788 -1.12088 0
M  V30 2381 C 234.78 1.84297 -0.883974 0
M  V30 2382 C 235.144 1.83036 0.579797 0
M  V30 2383 O 236.345 2.52061 0.933734 0
M  V30 2384 C 234.616 3.27173 -1.43849 0
M  V30 2385 S 236.175 4.17853 -1.33957 0
M  V30 2386 H 232.993 0.635433 -0.318977 0
M  V30 2387 H 235.595 1.33341 -1.4297 0
M  V30 2388 H 234.299 3.25658 -2.49749 0
M  V30 2389 H 233.83 3.83198 -0.890096 0
M  V30 2390 H 235.845 4.95239 -0.308603 0
M  V30 2391 N 235.018 0.912232 1.28515 0
M  V30 2392 C 236.429 0.591352 1.77087 0
M  V30 2393 C 236.78 -0.8933 1.74684 0
M  V30 2394 O 235.905 -1.69876 1.34056 0
M  V30 2395 C 236.5 1.06668 3.2157 0
M  V30 2396 C 235.059 0.79675 3.67871 0
M  V30 2397 C 234.206 1.23427 2.48316 0
M  V30 2398 H 237.157 1.09365 1.15 0
M  V30 2399 H 237.178 0.407455 3.78312 0
M  V30 2400 H 236.69 2.14726 3.23287 0
M  V30 2401 H 234.791 -0.270679 3.71616 0
M  V30 2402 H 234.904 1.40343 4.58084 0
M  V30 2403 H 233.268 0.653036 2.46186 0
M  V30 2404 H 234.051 2.32316 2.52753 0
M  V30 2405 N 236.496 -1.42363 0.676048 0
M  V30 2406 C 237.443 -2.308 -0.00150904 0
M  V30 2407 C 238.413 -1.46032 -0.791444 0
M  V30 2408 O 239.598 -1.74861 -0.76344 0
M  V30 2409 C 236.738 -3.31883 -0.945919 0
M  V30 2410 C 235.851 -4.31741 -0.149675 0
M  V30 2411 C 234.986 -5.19898 -1.08995 0
M  V30 2412 C 234.025 -6.11434 -0.285465 0
M  V30 2413 N 233.162 -6.92138 -1.17851 0
M  V30 2414 H 238.002 -2.88187 0.758455 0
M  V30 2415 H 235.539 -1.41952 0.38576 0
M  V30 2416 H 237.497 -3.89019 -1.50731 0
M  V30 2417 H 236.127 -2.76093 -1.6725 0
M  V30 2418 H 235.179 -3.76713 0.528359 0
M  V30 2419 H 236.491 -4.96534 0.474866 0
M  V30 2420 H 235.645 -5.81772 -1.72123 0
M  V30 2421 H 234.384 -4.55284 -1.74837 0
M  V30 2422 H 233.389 -5.48627 0.359018 0
M  V30 2423 H 234.614 -6.78097 0.368883 0
M  V30 2424 H 232.56 -6.30152 -1.82332 0
M  V30 2425 H 232.477 -7.53542 -0.609082 0
M  V30 2426 H 233.745 -7.58499 -1.79722 0
M  V30 2427 N 237.974 -0.419461 -1.51915 0
M  V30 2428 C 239.222 0.152637 -2.01523 0
M  V30 2429 C 239.543 1.44762 -1.30649 0
M  V30 2430 O 238.813 1.90997 -0.435535 0
M  V30 2431 H 237.393 0.0593966 -0.744635 0
M  V30 2432 H 240.055 -0.558073 -1.86739 0
M  V30 2433 H 239.151 0.341369 -3.10227 0
M  V30 2434 N 239.452 1.56882 -0.150215 0
M  V30 2435 C 240.362 2.20494 0.801222 0
M  V30 2436 C 241.378 1.19019 1.26927 0
M  V30 2437 O 242.554 1.51607 1.32579 0
M  V30 2438 C 239.619 2.81659 2.02161 0
M  V30 2439 C 238.68 3.9827 1.60249 0
M  V30 2440 C 237.913 4.56508 2.7647 0
M  V30 2441 O 238.136 4.13627 3.92771 0
M  V30 2442 O 237.07 5.46719 2.51757 0
M  V30 2443 H 240.896 3.02315 0.289717 0
M  V30 2444 H 238.481 1.49202 0.0769684 0
M  V30 2445 H 240.363 3.20522 2.73576 0
M  V30 2446 H 239.038 2.02849 2.52258 0
M  V30 2447 H 237.945 3.64117 0.858477 0
M  V30 2448 H 239.278 4.78609 1.14864 0
M  V30 2449 N 240.93 -0.123565 1.57115 0
M  V30 2450 C 242.17 -0.838097 1.86428 0
M  V30 2451 C 242.534 -1.77266 0.737611 0
M  V30 2452 O 243.735 -2.52842 0.912389 0
M  V30 2453 C 242.006 -1.57219 3.20962 0
M  V30 2454 S 243.565 -2.32893 3.71896 0
M  V30 2455 H 240.383 -0.279811 0.653626 0
M  V30 2456 H 242.985 -0.0967034 1.95261 0
M  V30 2457 H 241.689 -0.877522 4.00909 0
M  V30 2458 H 241.22 -2.35405 3.15195 0
M  V30 2459 H 243.235 -3.5853 3.43032 0
M  V30 2460 N 242.408 -1.52605 -0.393616 0
M  V30 2461 C 243.819 -1.59417 -0.971761 0
M  V30 2462 C 244.17 -0.444173 -1.91106 0
M  V30 2463 O 243.295 0.433382 -2.12016 0
M  V30 2464 C 243.89 -2.88936 -1.76921 0
M  V30 2465 C 242.449 -2.98175 -2.29714 0
M  V30 2466 C 241.596 -2.54491 -1.10135 0
M  V30 2467 H 244.547 -1.57751 -0.173317 0
M  V30 2468 H 244.568 -2.75163 -2.62804 0
M  V30 2469 H 244.08 -3.72616 -1.08532 0
M  V30 2470 H 242.181 -2.19024 -3.01429 0
M  V30 2471 H 242.294 -4.02726 -2.59517 0
M  V30 2472 H 240.658 -2.08702 -1.45999 0
M  V30 2473 H 241.441 -3.4056 -0.432874 0
M  V30 2474 N 243.887 0.651787 -1.4349 0
M  V30 2475 C 245.133 1.4121 -1.46395 0
M  V30 2476 C 245.488 1.92202 -0.087366 0
M  V30 2477 O 244.781 1.69452 0.894231 0
M  V30 2478 C 244.975 2.60914 -2.44251 0
M  V30 2479 C 244.804 2.21639 -3.91288 0
M  V30 2480 C 243.574 2.09897 -4.59643 0
M  V30 2481 C 245.772 1.81835 -4.81083 0
M  V30 2482 N 243.754 1.63967 -5.91598 0
M  V30 2483 C 245.125 1.46998 -6.02322 0
M  V30 2484 C 247.18 1.69031 -4.6833 0
M  V30 2485 C 245.883 1.00638 -7.12225 0
M  V30 2486 C 247.909 1.24077 -5.78238 0
M  V30 2487 C 247.271 0.901772 -6.98604 0
M  V30 2488 H 243.37 0.512322 -0.590805 0
M  V30 2489 H 245.954 0.74989 -1.7968 0
M  V30 2490 H 244.125 3.24792 -2.1299 0
M  V30 2491 H 245.857 3.27622 -2.37584 0
M  V30 2492 H 242.612 2.297 -4.14168 0
M  V30 2493 H 243.036 1.43359 -6.61647 0
M  V30 2494 H 247.678 1.93878 -3.75727 0
M  V30 2495 H 245.396 0.745399 -8.04655 0
M  V30 2496 H 248.982 1.14657 -5.7039 0
M  V30 2497 H 247.862 0.559226 -7.82203 0
M  V30 2498 N 245.365 1.30045 0.890287 0
M  V30 2499 C 246.297 1.11786 2.00091 0
M  V30 2500 C 247.31 0.0626307 1.62679 0
M  V30 2501 O 248.499 0.308112 1.75821 0
M  V30 2502 C 245.599 0.681527 3.31977 0
M  V30 2503 C 244.772 1.81735 3.97858 0
M  V30 2504 C 243.831 1.37045 5.08041 0
M  V30 2505 O 242.857 2.07677 5.29961 0
M  V30 2506 N 244.059 0.246525 5.79976 0
M  V30 2507 H 246.824 2.07441 2.16306 0
M  V30 2508 H 244.385 1.2211 1.06305 0
M  V30 2509 H 246.377 0.365675 4.03045 0
M  V30 2510 H 244.947 -0.182828 3.12065 0
M  V30 2511 H 244.167 2.30159 3.20032 0
M  V30 2512 H 245.455 2.57865 4.38615 0
M  V30 2513 H 244.853 -0.34215 5.64664 0
M  V30 2514 H 243.41 -0.00990438 6.51799 0
M  V30 2515 N 246.843 -1.10192 1.12674 0
M  V30 2516 C 248.089 -1.82475 0.884915 0
M  V30 2517 C 248.422 -1.85093 -0.58773 0
M  V30 2518 O 247.697 -1.3134 -1.43457 0
M  V30 2519 C 247.98 -3.29018 1.46353 0
M  V30 2520 C 247.833 -3.34718 3.00473 0
M  V30 2521 C 249.152 -4.25473 1.12519 0
M  V30 2522 H 246.271 -0.662492 0.322915 0
M  V30 2523 H 248.913 -1.2913 1.39375 0
M  V30 2524 H 247.063 -3.74576 1.03077 0
M  V30 2525 H 248.735 -2.97622 3.52447 0
M  V30 2526 H 246.978 -2.74541 3.35872 0
M  V30 2527 H 247.649 -4.37918 3.36053 0
M  V30 2528 H 250.125 -3.88161 1.499 0
M  V30 2529 H 249.001 -5.26365 1.55663 0
M  V30 2530 H 249.262 -4.42084 0.0377407 0
M  V30 2531 N 248.321 -0.919034 -1.28029 0
M  V30 2532 C 249.251 -0.428581 -2.29533 0
M  V30 2533 C 250.232 0.50659 -1.62381 0
M  V30 2534 O 251.417 0.413195 -1.89753 0
M  V30 2535 C 248.547 0.327388 -3.45753 0
M  V30 2536 C 247.501 -0.519137 -4.2484 0
M  V30 2537 C 246.827 0.365486 -5.33449 0
M  V30 2538 C 248.127 -1.77914 -4.91064 0
M  V30 2539 H 249.821 -1.27687 -2.70807 0
M  V30 2540 H 247.367 -0.615428 -1.30186 0
M  V30 2541 H 249.32 0.681378 -4.15855 0
M  V30 2542 H 248.044 1.20963 -3.03374 0
M  V30 2543 H 246.703 -0.855717 -3.56473 0
M  V30 2544 H 246.351 1.24642 -4.87312 0
M  V30 2545 H 246.051 -0.197356 -5.87268 0
M  V30 2546 H 247.575 0.715241 -6.06396 0
M  V30 2547 H 248.989 -1.49374 -5.53498 0
M  V30 2548 H 247.386 -2.2848 -5.54903 0
M  V30 2549 H 248.456 -2.50382 -4.15255 0
M  V30 2550 N 249.799 1.42003 -0.683588 0
M  V30 2551 C 250.729 2.33487 -0.024866 0
M  V30 2552 C 251.71 1.51163 0.779975 0
M  V30 2553 O 252.895 1.79739 0.735362 0
M  V30 2554 C 250.025 3.3487 0.920836 0
M  V30 2555 C 248.979 4.27414 0.223958 0
M  V30 2556 C 248.305 5.19074 1.2832 0
M  V30 2557 C 249.605 5.14445 -0.90242 0
M  V30 2558 H 251.299 2.88819 -0.788921 0
M  V30 2559 H 248.845 1.38873 -0.38083 0
M  V30 2560 H 250.798 3.97787 1.39081 0
M  V30 2561 H 249.522 2.77861 1.71642 0
M  V30 2562 H 248.181 3.65904 -0.225864 0
M  V30 2563 H 247.829 4.58387 2.071 0
M  V30 2564 H 247.529 5.81822 0.821995 0
M  V30 2565 H 249.053 5.84867 1.75392 0
M  V30 2566 H 250.467 5.70998 -0.513272 0
M  V30 2567 H 248.864 5.86072 -1.28997 0
M  V30 2568 H 249.934 4.52322 -1.74737 0
M  V30 2569 N 251.277 0.427512 1.51691 0
M  V30 2570 C 252.207 -0.3796 2.30394 0
M  V30 2571 C 253.188 -1.02982 1.35384 0
M  V30 2572 O 254.373 -1.03534 1.643 0
M  V30 2573 C 251.503 -1.48649 3.1388 0
M  V30 2574 C 250.457 -0.960294 4.17088 0
M  V30 2575 C 249.783 -2.16219 4.89033 0
M  V30 2576 C 251.083 -0.00153679 5.223 0
M  V30 2577 H 252.777 0.277164 2.98114 0
M  V30 2578 H 250.323 0.134739 1.43368 0
M  V30 2579 H 252.276 -2.05826 3.67714 0
M  V30 2580 H 251 -2.1714 2.43962 0
M  V30 2581 H 249.659 -0.410806 3.64291 0
M  V30 2582 H 249.307 -2.83307 4.15628 0
M  V30 2583 H 249.007 -1.81654 5.58816 0
M  V30 2584 H 250.531 -2.73968 5.45687 0
M  V30 2585 H 251.945 -0.482687 5.71264 0
M  V30 2586 H 250.342 0.256199 5.99553 0
M  V30 2587 H 251.412 0.938174 4.75738 0
M  V30 2588 N 252.755 -1.56801 0.158532 0
M  V30 2589 C 254.001 -1.96781 -0.490405 0
M  V30 2590 C 254.334 -1.04397 -1.63753 0
M  V30 2591 O 253.609 -0.0885805 -1.94298 0
M  V30 2592 C 253.892 -3.4635 -0.985594 0
M  V30 2593 C 253.745 -4.49512 0.160824 0
M  V30 2594 C 255.064 -3.98697 -1.86355 0
M  V30 2595 H 252.183 -0.715482 -0.176788 0
M  V30 2596 H 254.825 -1.88451 0.242088 0
M  V30 2597 H 252.975 -3.53579 -1.60978 0
M  V30 2598 H 254.647 -4.54353 0.797537 0
M  V30 2599 H 252.89 -4.26013 0.818256 0
M  V30 2600 H 253.561 -5.51531 -0.227569 0
M  V30 2601 H 256.037 -3.94019 -1.33746 0
M  V30 2602 H 254.913 -5.03792 -2.17909 0
M  V30 2603 H 255.174 -3.41744 -2.8047 0
M  V30 2604 N 254.233 0.115231 -1.57178 0
M  V30 2605 C 255.181 1.16014 -2.01602 0
M  V30 2606 C 256.175 1.42653 -0.913587 0
M  V30 2607 O 257.381 1.42571 -1.09879 0
M  V30 2608 H 253.756 0.391252 -0.642204 0
M  V30 2609 H 255.727 0.758998 -2.88586 0
M  V30 2610 C 254.476 2.47767 -2.4394 0
M  V30 2611 H 253.799 2.28108 -3.28339 0
M  V30 2612 H 255.239 3.19432 -2.78818 0
M  V30 2613 C 253.698 3.10617 -1.30455 0
M  V30 2614 O 254.228 3.96846 -0.622585 0
M  V30 2615 N 252.434 2.70553 -1.06064 0
M  V30 2616 H 251.981 2.00527 -1.61699 0
M  V30 2617 H 251.939 3.12934 -0.303284 0
M  V30 2618 N 255.711 1.52812 0.385517 0
M  V30 2619 C 256.959 1.67694 1.12797 0
M  V30 2620 C 257.28 0.421115 1.90399 0
M  V30 2621 O 256.55 -0.564551 1.87589 0
M  V30 2622 H 255.13 0.618155 0.419396 0
M  V30 2623 H 257.792 1.89938 0.436972 0
M  V30 2624 H 256.888 2.52896 1.82894 0
M  V30 2625 N 257.189 -0.644168 1.43834 0
M  V30 2626 C 258.152 -1.73857 1.49353 0
M  V30 2627 C 259.152 -1.56315 0.377112 0
M  V30 2628 O 260.342 -1.62048 0.639226 0
M  V30 2629 C 257.474 -3.12819 1.35488 0
M  V30 2630 H 258.667 -1.70342 2.46827 0
M  V30 2631 H 256.22 -0.856652 1.30733 0
M  V30 2632 H 256.955 -3.2194 0.390569 0
M  V30 2633 H 256.74 -3.26958 2.16428 0
M  V30 2634 H 258.23 -3.92606 1.42302 0
M  V30 2635 N 258.668 -1.30515 -0.883378 0
M  V30 2636 C 259.6 -1.12846 -1.99496 0
M  V30 2637 C 260.613 -0.0712571 -1.62644 0
M  V30 2638 O 261.802 -0.317432 -1.75655 0
M  V30 2639 C 258.902 -0.699123 -3.3161 0
M  V30 2640 C 258.075 -1.83842 -3.96889 0
M  V30 2641 C 257.134 -1.39737 -5.07307 0
M  V30 2642 O 256.16 -2.10485 -5.28852 0
M  V30 2643 N 257.362 -0.277279 -5.79837 0
M  V30 2644 H 260.127 -2.08585 -2.15203 0
M  V30 2645 H 257.688 -1.22672 -1.05656 0
M  V30 2646 H 259.68 -0.387044 -4.02845 0
M  V30 2647 H 258.25 0.166276 -3.12157 0
M  V30 2648 H 257.47 -2.31853 -3.18807 0
M  V30 2649 H 258.758 -2.60187 -4.37241 0
M  V30 2650 H 258.156 0.3122 -5.64838 0
M  V30 2651 H 256.713 -0.0246623 -6.51795 0
M  V30 2652 N 260.146 1.09593 -1.13257 0
M  V30 2653 C 261.076 2.18214 -0.830946 0
M  V30 2654 C 262.057 1.68812 0.208966 0
M  V30 2655 O 263.242 1.9408 0.0682666 0
M  V30 2656 C 260.372 3.46051 -0.294296 0
M  V30 2657 C 259.326 4.08778 -1.26826 0
M  V30 2658 C 258.652 5.31419 -0.591449 0
M  V30 2659 C 259.952 4.51476 -2.62615 0
M  V30 2660 H 261.646 2.43703 -1.73923 0
M  V30 2661 H 259.192 1.17128 -0.837675 0
M  V30 2662 H 261.145 4.2134 -0.0709606 0
M  V30 2663 H 259.869 3.20079 0.649366 0
M  V30 2664 H 258.528 3.35505 -1.47756 0
M  V30 2665 H 258.176 5.01727 0.357633 0
M  V30 2666 H 257.876 5.74341 -1.24123 0
M  V30 2667 H 259.4 6.09433 -0.377355 0
M  V30 2668 H 260.814 5.17999 -2.45663 0
M  V30 2669 H 259.211 5.05277 -3.23752 0
M  V30 2670 H 260.281 3.63962 -3.20406 0
M  V30 2671 N 261.624 0.925811 1.2754 0
M  V30 2672 C 262.864 0.572521 1.96218 0
M  V30 2673 C 263.228 -0.869719 1.71172 0
M  V30 2674 O 264.429 -1.33119 2.33523 0
M  V30 2675 C 262.7 0.887325 3.4621 0
M  V30 2676 S 264.259 0.642266 4.34074 0
M  V30 2677 H 261.077 0.211403 0.678845 0
M  V30 2678 H 263.679 1.19384 1.54815 0
M  V30 2679 H 262.383 1.93469 3.61936 0
M  V30 2680 H 261.914 0.255123 3.92572 0
M  V30 2681 H 263.929 -0.500822 4.93666 0
M  V30 2682 N 263.102 -1.41638 0.69111 0
M  V30 2683 C 264.35 -2.00902 0.219758 0
M  V30 2684 C 264.671 -1.54994 -1.18329 0
M  V30 2685 O 263.941 -0.778628 -1.79762 0
M  V30 2686 H 262.521 -0.74289 0.0782558 0
M  V30 2687 H 265.183 -1.73327 0.891271 0
M  V30 2688 H 264.279 -3.11224 0.233708 0
M  V30 2689 N 264.58 -0.43555 -1.51462 0
M  V30 2690 C 265.828 0.131254 -2.01673 0
M  V30 2691 C 266.149 1.43368 -1.32177 0
M  V30 2692 O 265.419 1.90524 -0.455769 0
M  V30 2693 H 263.999 0.0514954 -0.745223 0
M  V30 2694 H 266.661 -0.577847 -1.86137 0
M  V30 2695 H 265.757 0.308446 -3.10572 0
M  V30 2696 N 266.058 1.56714 -0.166846 0
M  V30 2697 C 267.286 2.0112 0.485644 0
M  V30 2698 C 267.701 1.04705 1.57106 0
M  V30 2699 O 267.058 0.0471923 1.82439 0
M  V30 2700 C 267.109 3.45361 1.06808 0
M  V30 2701 O 266.83 4.38092 0.0259995 0
M  V30 2702 C 268.331 4.05145 1.79924 0
M  V30 2703 H 265.551 0.65931 0.124704 0
M  V30 2704 H 268.095 2.02746 -0.267262 0
M  V30 2705 H 266.25 3.44524 1.7715 0
M  V30 2706 H 266.664 5.22519 0.455398 0
M  V30 2707 H 268.138 5.08009 2.15942 0
M  V30 2708 H 268.615 3.46982 2.69258 0
M  V30 2709 H 269.221 4.09672 1.14234 0
M  V30 2710 N 267.536 -0.106894 1.57237 0
M  V30 2711 C 268.466 -1.13148 2.04254 0
M  V30 2712 C 269.447 -1.42476 0.929224 0
M  V30 2713 O 270.632 -1.52709 1.19973 0
M  V30 2714 C 267.762 -2.4545 2.45706 0
M  V30 2715 C 266.716 -2.30558 3.60592 0
M  V30 2716 C 266.042 -3.67931 3.87983 0
M  V30 2717 C 267.342 -1.75597 4.91897 0
M  V30 2718 H 269.036 -0.740374 2.90101 0
M  V30 2719 H 266.582 -0.354696 1.39563 0
M  V30 2720 H 268.535 -3.17389 2.77205 0
M  V30 2721 H 267.259 -2.86475 1.56843 0
M  V30 2722 H 265.918 -1.61067 3.29322 0
M  V30 2723 H 265.566 -4.06462 2.96306 0
M  V30 2724 H 265.266 -3.58817 4.65322 0
M  V30 2725 H 266.79 -4.41356 4.21945 0
M  V30 2726 H 268.204 -2.37364 5.21854 0
M  V30 2727 H 266.601 -1.77272 5.73319 0
M  V30 2728 H 267.671 -0.714451 4.79608 0
M  V30 2729 N 269.014 -1.53014 -0.377408 0
M  V30 2730 C 270.263 -1.67845 -1.11853 0
M  V30 2731 C 270.576 -0.430625 -1.90801 0
M  V30 2732 O 271.782 -0.459261 -2.67587 0
M  V30 2733 C 270.238 -2.96668 -2.03756 0
M  V30 2734 C 269.846 -4.28671 -1.30175 0
M  V30 2735 C 271.59 -3.20865 -2.77932 0
M  V30 2736 C 269.497 -5.48591 -2.20911 0
M  V30 2737 H 268.427 -0.625343 -0.421263 0
M  V30 2738 H 271.078 -1.79514 -0.380409 0
M  V30 2739 H 269.46 -2.78773 -2.8125 0
M  V30 2740 H 270.634 -4.57157 -0.578259 0
M  V30 2741 H 268.949 -4.10825 -0.679108 0
M  V30 2742 H 271.546 -4.07642 -3.46024 0
M  V30 2743 H 271.889 -2.36424 -3.4265 0
M  V30 2744 H 272.422 -3.39379 -2.07525 0
M  V30 2745 H 269.161 -6.35474 -1.6079 0
M  V30 2746 H 268.681 -5.244 -2.91144 0
M  V30 2747 H 270.36 -5.8292 -2.80736 0
M  V30 2748 N 270.492 0.636531 -1.44174 0
M  V30 2749 C 271.44 1.76995 -1.50915 0
M  V30 2750 C 272.434 1.65053 -0.381295 0
M  V30 2751 O 273.64 1.71197 -0.55601 0
M  V30 2752 H 270.015 0.584247 -0.473455 0
M  V30 2753 H 271.986 1.68432 -2.4632 0
M  V30 2754 C 270.735 3.15314 -1.46534 0
M  V30 2755 H 270.058 3.25149 -2.32633 0
M  V30 2756 H 271.498 3.9453 -1.55312 0
M  V30 2757 C 269.957 3.3639 -0.185305 0
M  V30 2758 O 270.487 3.94699 0.746688 0
M  V30 2759 N 268.693 2.9046 -0.0901606 0
M  V30 2760 H 268.24 2.43193 -0.849416 0
M  V30 2761 H 268.198 3.04937 0.765553 0
M  V30 2762 N 271.97 1.30982 0.876444 0
M  V30 2763 C 273.198 1.23242 1.6619 0
M  V30 2764 C 273.613 -0.203345 1.87702 0
M  V30 2765 O 272.97 -1.13317 1.43057 0
M  V30 2766 C 273.021 1.96623 3.03351 0
M  V30 2767 O 272.742 3.34594 2.82804 0
M  V30 2768 C 274.243 1.95644 3.97792 0
M  V30 2769 H 271.463 0.426126 0.518322 0
M  V30 2770 H 274.007 1.7275 1.09442 0
M  V30 2771 H 272.162 1.50892 3.56806 0
M  V30 2772 H 272.576 3.71873 3.69879 0
M  V30 2773 H 274.05 2.51511 4.91372 0
M  V30 2774 H 274.527 0.937395 4.2908 0
M  V30 2775 H 275.133 2.41225 3.50272 0
M  V30 2776 N 273.449 -1.08991 1.13837 0
M  V30 2777 C 274.698 -1.80631 0.897509 0
M  V30 2778 C 275.011 -1.86872 -0.57777 0
M  V30 2779 O 276.217 -2.54866 -0.935701 0
M  V30 2780 C 274.673 -3.24517 1.55618 0
M  V30 2781 C 274.281 -3.26529 3.0673 0
M  V30 2782 C 276.025 -4.00882 1.3962 0
M  V30 2783 C 273.932 -4.64965 3.65461 0
M  V30 2784 H 272.862 -0.67691 0.332129 0
M  V30 2785 H 275.513 -1.2246 1.3666 0
M  V30 2786 H 273.895 -3.82778 1.01476 0
M  V30 2787 H 275.069 -2.78008 3.67489 0
M  V30 2788 H 273.384 -2.63656 3.22296 0
M  V30 2789 H 275.981 -5.03167 1.80906 0
M  V30 2790 H 276.324 -4.14896 0.341578 0
M  V30 2791 H 276.857 -3.49075 1.90766 0
M  V30 2792 H 273.596 -4.56153 4.70749 0
M  V30 2793 H 273.116 -5.13792 3.09481 0
M  V30 2794 H 274.795 -5.3394 3.654 0
M  V30 2795 N 274.927 -0.932562 -1.27047 0
M  V30 2796 C 276.173 -0.585913 -1.94778 0
M  V30 2797 C 276.528 0.864142 -1.71902 0
M  V30 2798 O 275.821 1.60894 -1.04037 0
M  V30 2799 C 276.015 -0.853713 -3.47054 0
M  V30 2800 C 275.844 -2.32825 -3.84737 0
M  V30 2801 C 274.614 -2.98184 -4.07939 0
M  V30 2802 C 276.812 -3.30612 -3.93954 0
M  V30 2803 N 274.794 -4.3574 -4.3244 0
M  V30 2804 C 276.165 -4.53395 -4.22887 0
M  V30 2805 C 278.22 -3.25755 -3.76548 0
M  V30 2806 C 276.923 -5.71927 -4.36224 0
M  V30 2807 C 278.949 -4.43604 -3.91113 0
M  V30 2808 C 278.311 -5.65166 -4.20437 0
M  V30 2809 H 274.41 -0.264617 -0.735868 0
M  V30 2810 H 276.994 -1.20019 -1.53309 0
M  V30 2811 H 275.165 -0.268557 -3.8747 0
M  V30 2812 H 276.897 -0.469202 -4.01971 0
M  V30 2813 H 273.652 -2.48835 -4.02961 0
M  V30 2814 H 274.076 -5.06915 -4.48738 0
M  V30 2815 H 278.718 -2.32835 -3.52913 0
M  V30 2816 H 276.436 -6.65308 -4.58683 0
M  V30 2817 H 280.022 -4.41368 -3.79059 0
M  V30 2818 H 278.902 -6.54836 -4.31462 0
M  V30 2819 N 276.405 1.4127 -0.698611 0
M  V30 2820 C 277.651 2.01478 -0.231207 0
M  V30 2821 C 277.984 1.55215 1.16713 0
M  V30 2822 O 277.259 0.764672 1.78838 0
M  V30 2823 C 277.542 3.58912 -0.292281 0
M  V30 2824 C 277.395 4.15293 -1.72778 0
M  V30 2825 C 278.714 4.38736 0.346194 0
M  V30 2826 H 275.833 0.732025 -0.0854878 0
M  V30 2827 H 278.475 1.67977 -0.887906 0
M  V30 2828 H 276.625 3.87582 0.26686 0
M  V30 2829 H 278.297 3.97486 -2.341 0
M  V30 2830 H 276.54 3.7022 -2.26096 0
M  V30 2831 H 277.211 5.24452 -1.72202 0
M  V30 2832 H 279.687 4.15897 -0.130035 0
M  V30 2833 H 278.563 5.48221 0.272932 0
M  V30 2834 H 278.824 4.18425 1.42734 0
M  V30 2835 N 277.883 0.443576 1.51229 0
M  V30 2836 C 279.129 -0.120975 2.02439 0
M  V30 2837 C 279.462 -1.41815 1.32674 0
M  V30 2838 O 278.737 -1.89373 0.443622 0
M  V30 2839 C 279.02 -0.333291 3.58554 0
M  V30 2840 C 278.873 0.982968 4.38928 0
M  V30 2841 C 280.192 -1.10028 4.26124 0
M  V30 2842 H 277.311 -0.0424923 0.735774 0
M  V30 2843 H 279.953 0.583794 1.80809 0
M  V30 2844 H 278.103 -0.933614 3.77115 0
M  V30 2845 H 279.775 1.61775 4.32003 0
M  V30 2846 H 278.018 1.58611 4.03763 0
M  V30 2847 H 278.689 0.788379 5.46341 0
M  V30 2848 H 281.165 -0.591711 4.11871 0
M  V30 2849 H 280.041 -1.21761 5.35225 0
M  V30 2850 H 280.302 -2.12996 3.87408 0
M  V30 2851 N 279.361 -1.56624 0.175154 0
M  V30 2852 C 280.586 -2.01813 -0.478137 0
M  V30 2853 C 281.011 -1.05457 -1.55757 0
M  V30 2854 O 280.369 -0.0347439 -1.81267 0
M  V30 2855 C 280.417 -3.45581 -1.02987 0
M  V30 2856 O 279.521 -3.52305 -2.14371 0
M  V30 2857 H 278.862 -0.65413 -0.114059 0
M  V30 2858 H 281.392 -2.02673 0.280173 0
M  V30 2859 H 281.402 -3.84965 -1.35151 0
M  V30 2860 H 280.077 -4.1521 -0.239556 0
M  V30 2861 H 278.654 -3.24783 -1.83222 0
M  V30 2862 N 280.839 0.0985539 -1.57292 0
M  V30 2863 C 281.802 1.10402 -2.00858 0
M  V30 2864 C 282.802 1.33146 -0.901593 0
M  V30 2865 O 283.992 1.29318 -1.16716 0
M  V30 2866 C 281.124 2.45394 -2.36632 0
M  V30 2867 H 282.317 0.729099 -2.90902 0
M  V30 2868 H 279.87 0.343495 -1.52479 0
M  V30 2869 H 280.605 2.87769 -1.49531 0
M  V30 2870 H 280.39 2.30235 -3.17387 0
M  V30 2871 H 281.88 3.17718 -2.71007 0
M  V30 2872 N 282.317 1.53212 0.369288 0
M  V30 2873 C 283.28 1.7872 1.43498 0
M  V30 2874 C 284.28 0.657554 1.46741 0
M  V30 2875 O 285.47 0.925736 1.47566 0
M  V30 2876 C 282.602 1.90591 2.82645 0
M  V30 2877 H 283.795 2.73894 1.22156 0
M  V30 2878 H 281.348 1.44233 0.602203 0
M  V30 2879 H 282.083 0.974709 3.09306 0
M  V30 2880 H 281.868 2.72751 2.8169 0
M  V30 2881 H 283.358 2.11931 3.59826 0
M  V30 2882 N 283.795 -0.628877 1.44509 0
M  V30 2883 C 284.745 -1.7345 1.47983 0
M  V30 2884 C 285.729 -1.5715 0.345373 0
M  V30 2885 O 286.921 -1.66848 0.590829 0
M  V30 2886 C 284.05 -3.12143 1.42904 0
M  V30 2887 C 283.136 -3.33906 2.61472 0
M  V30 2888 N 283.527 -3.26024 3.86706 0
M  V30 2889 C 281.825 -3.64709 2.56716 0
M  V30 2890 C 282.526 -3.48536 4.65722 0
M  V30 2891 N 281.502 -3.71517 3.96832 0
M  V30 2892 H 285.304 -1.65818 2.42655 0
M  V30 2893 H 282.818 -0.831419 1.39503 0
M  V30 2894 H 284.815 -3.91433 1.43476 0
M  V30 2895 H 283.475 -3.2094 0.492717 0
M  V30 2896 H 284.486 -3.04893 4.18641 0
M  V30 2897 H 281.163 -3.80473 1.71891 0
M  V30 2898 H 282.553 -3.48016 5.74747 0
M  V30 2899 N 285.273 -1.31445 -0.869486 0
M  V30 2900 C 286.513 -1.22458 -1.63656 0
M  V30 2901 C 286.877 0.213846 -1.90805 0
M  V30 2902 O 288.078 0.427212 -2.65383 0
M  V30 2903 C 286.349 -2.04564 -2.93067 0
M  V30 2904 S 287.908 -2.12445 -3.83944 0
M  V30 2905 H 284.726 -0.436145 -0.561514 0
M  V30 2906 H 287.328 -1.66114 -1.03085 0
M  V30 2907 H 286.032 -3.0816 -2.71045 0
M  V30 2908 H 285.563 -1.6163 -3.58663 0
M  V30 2909 H 287.578 -1.26312 -4.79854 0
M  V30 2910 N 286.751 1.08385 -1.14413 0
M  V30 2911 C 287.998 1.80776 -0.912482 0
M  V30 2912 C 288.326 1.86236 0.560934 0
M  V30 2913 O 287.581 1.33431 1.43159 0
M  V30 2914 C 287.88 3.26273 -1.45879 0
M  V30 2915 C 287.546 3.4093 -2.95089 0
M  V30 2916 C 286.208 3.44638 -3.35824 0
M  V30 2917 C 288.56 3.44591 -3.91033 0
M  V30 2918 C 285.888 3.49597 -4.71167 0
M  V30 2919 C 288.24 3.51086 -5.26233 0
M  V30 2920 C 286.904 3.53067 -5.6648 0
M  V30 2921 H 286.174 0.661507 -0.333901 0
M  V30 2922 H 288.821 1.27613 -1.42784 0
M  V30 2923 H 287.126 3.82146 -0.864376 0
M  V30 2924 H 288.823 3.80839 -1.2555 0
M  V30 2925 H 285.413 3.38736 -2.62594 0
M  V30 2926 H 289.597 3.40957 -3.60641 0
M  V30 2927 H 284.853 3.49424 -5.0171 0
M  V30 2928 H 289.027 3.52864 -6.00383 0
M  V30 2929 H 286.654 3.56662 -6.71339 0
M  V30 2930 N 288.23 0.939286 1.26551 0
M  V30 2931 C 289.507 0.5038 1.89001 0
M  V30 2932 C 289.887 -1.01854 1.84903 0
M  V30 2933 O 289.235 -1.87773 1.30206 0
M  V30 2934 C 289.445 1.063 3.32417 0
M  V30 2935 C 290.793 1.13051 4.09273 0
M  V30 2936 O 291.817 1.01345 3.41479 0
M  V30 2937 O 290.676 1.31233 5.30509 0
M  V30 2938 H 287.77 0.163897 0.810597 0
M  V30 2939 H 290.316 1.03173 1.34735 0
M  V30 2940 H 289.088 2.10665 3.29752 0
M  V30 2941 H 288.711 0.517408 3.94219 0
M  V30 2942 N 289.708 -1.40897 0.706093 0
M  V30 2943 C 290.655 -2.30751 0.0474474 0
M  V30 2944 C 291.625 -1.47678 -0.76029 0
M  V30 2945 O 292.81 -1.76441 -0.726177 0
M  V30 2946 C 289.95 -3.33815 -0.875309 0
M  V30 2947 C 289.063 -4.31961 -0.0580623 0
M  V30 2948 C 288.198 -5.22093 -0.979425 0
M  V30 2949 C 287.237 -6.11902 -0.155706 0
M  V30 2950 N 286.374 -6.94482 -1.03144 0
M  V30 2951 H 291.214 -2.86513 0.819413 0
M  V30 2952 H 288.751 -1.41102 0.415783 0
M  V30 2953 H 290.709 -3.92129 -1.42446 0
M  V30 2954 H 289.339 -2.79579 -1.61356 0
M  V30 2955 H 288.391 -3.75507 0.608147 0
M  V30 2956 H 289.703 -4.95415 0.580082 0
M  V30 2957 H 288.857 -5.85292 -1.59744 0
M  V30 2958 H 287.596 -4.5889 -1.65141 0
M  V30 2959 H 286.601 -5.47742 0.475309 0
M  V30 2960 H 287.826 -6.77162 0.512635 0
M  V30 2961 H 285.772 -6.33877 -1.68924 0
M  V30 2962 H 285.689 -7.54665 -0.449108 0
M  V30 2963 H 286.957 -7.6214 -1.63593 0
M  V30 2964 N 291.186 -0.45159 -1.50991 0
M  V30 2965 C 292.435 0.111653 -2.01391 0
M  V30 2966 C 292.748 1.42529 -1.33959 0
M  V30 2967 O 293.954 2.07232 -1.75405 0
M  V30 2968 C 292.41 0.249514 -3.59034 0
M  V30 2969 C 292.018 -1.05453 -4.35412 0
M  V30 2970 C 293.762 0.765762 -4.17536 0
M  V30 2971 C 291.669 -0.881529 -5.84793 0
M  V30 2972 H 290.599 0.0455022 -0.752626 0
M  V30 2973 H 293.25 -0.583524 -1.73975 0
M  V30 2974 H 291.632 1.00803 -3.82955 0
M  V30 2975 H 292.806 -1.82248 -4.23229 0
M  V30 2976 H 291.121 -1.50039 -3.88429 0
M  V30 2977 H 293.718 0.911913 -5.26866 0
M  V30 2978 H 294.061 1.75201 -3.77638 0
M  V30 2979 H 294.594 0.0651744 -3.97747 0
M  V30 2980 H 291.333 -1.84057 -6.29129 0
M  V30 2981 H 290.853 -0.153625 -5.99603 0
M  V30 2982 H 292.532 -0.540363 -6.4474 0
M  V30 2983 N 292.664 1.56529 -0.183458 0
M  V30 2984 C 293.611 2.18546 0.742055 0
M  V30 2985 C 294.581 1.12912 1.2182 0
M  V30 2986 O 295.766 1.41115 1.28418 0
M  V30 2987 C 292.906 2.83977 1.96089 0
M  V30 2988 C 292.019 4.04105 1.52719 0
M  V30 2989 C 291.154 4.57427 2.70063 0
M  V30 2990 C 290.193 5.69938 2.23243 0
M  V30 2991 N 289.33 6.17717 3.33722 0
M  V30 2992 H 294.17 2.97284 0.206432 0
M  V30 2993 H 291.707 1.46823 0.0901571 0
M  V30 2994 H 293.665 3.20077 2.67594 0
M  V30 2995 H 292.295 2.07822 2.47002 0
M  V30 2996 H 291.347 3.73745 0.708436 0
M  V30 2997 H 292.659 4.85513 1.1436 0
M  V30 2998 H 291.813 4.95772 3.49708 0
M  V30 2999 H 290.552 3.75101 3.11689 0
M  V30 3000 H 289.557 5.31133 1.42048 0
M  V30 3001 H 290.782 6.54073 1.82661 0
M  V30 3002 H 288.728 5.38317 3.74902 0
M  V30 3003 H 288.645 6.94146 2.99495 0
M  V30 3004 H 289.913 6.60713 4.13616 0
M  V30 3005 N 294.142 -0.090211 1.57342 0
M  V30 3006 C 295.09 -1.12792 2.03422 0
M  V30 3007 C 296.084 -1.41182 0.936166 0
M  V30 3008 O 297.29 -1.40805 1.12133 0
M  V30 3009 H 293.665 -0.380986 0.648347 0
M  V30 3010 H 295.636 -0.71299 2.89757 0
M  V30 3011 C 294.385 -2.43855 2.47851 0
M  V30 3012 H 293.708 -2.22855 3.31927 0
M  V30 3013 H 295.148 -3.14955 2.83865 0
M  V30 3014 C 293.607 -3.08503 1.3538 0
M  V30 3015 O 294.137 -3.95805 0.685641 0
M  V30 3016 N 292.343 -2.68831 1.10355 0
M  V30 3017 H 291.89 -1.97929 1.64869 0
M  V30 3018 H 291.848 -3.12412 0.353031 0
M  V30 3019 N 295.62 -1.53406 -0.361157 0
M  V30 3020 C 296.866 -1.70999 -1.1014 0
M  V30 3021 C 297.221 -0.458425 -1.86859 0
M  V30 3022 O 296.514 0.548654 -1.83577 0
M  V30 3023 C 296.708 -2.90211 -2.08596 0
M  V30 3024 C 296.537 -4.26841 -1.41553 0
M  V30 3025 C 295.307 -4.91621 -1.16778 0
M  V30 3026 C 297.505 -5.07212 -0.850915 0
M  V30 3027 N 295.487 -6.12164 -0.461312 0
M  V30 3028 C 296.858 -6.19394 -0.274046 0
M  V30 3029 C 298.913 -4.92218 -0.750036 0
M  V30 3030 C 297.616 -7.18221 0.393868 0
M  V30 3031 C 299.642 -5.91322 -0.095894 0
M  V30 3032 C 299.004 -7.0283 0.470081 0
M  V30 3033 H 295.103 -0.678939 -0.388028 0
M  V30 3034 H 297.687 -1.90811 -0.38722 0
M  V30 3035 H 295.858 -2.71931 -2.77323 0
M  V30 3036 H 297.59 -2.96606 -2.7533 0
M  V30 3037 H 294.345 -4.50849 -1.45024 0
M  V30 3038 H 294.769 -6.76888 -0.123312 0
M  V30 3039 H 299.411 -4.06192 -1.17337 0
M  V30 3040 H 297.129 -8.03835 0.82914 0
M  V30 3041 H 300.715 -5.81797 -0.0187075 0
M  V30 3042 H 299.595 -7.782 0.968241 0
M  V30 3043 N 297.098 0.621204 -1.44841 0
M  V30 3044 C 298.514 0.94048 -1.28946 0
M  V30 3045 C 298.714 2.00154 -0.23249 0
M  V30 3046 O 297.77 2.49651 0.378237 0
M  V30 3047 C 299.083 1.39433 -2.66419 0
M  V30 3048 C 300.631 1.50927 -2.74208 0
M  V30 3049 C 301.106 1.99692 -4.12174 0
M  V30 3050 N 302.597 2.06947 -4.144 0
M  V30 3051 C 303.332 2.45871 -5.1801 0
M  V30 3052 N 302.828 2.83862 -6.31977 0
M  V30 3053 N 304.621 2.46092 -5.05366 0
M  V30 3054 H 296.772 -0.0803548 -2.12248 0
M  V30 3055 H 299.035 0.0266913 -0.947624 0
M  V30 3056 H 298.741 0.688925 -3.44887 0
M  V30 3057 H 298.615 2.36347 -2.93973 0
M  V30 3058 H 301.002 2.20561 -1.96053 0
M  V30 3059 H 301.083 0.523627 -2.50383 0
M  V30 3060 H 300.727 1.30649 -4.90809 0
M  V30 3061 H 300.657 2.99146 -4.33381 0
M  V30 3062 H 303.148 1.80232 -3.32152 0
M  V30 3063 H 303.461 3.12405 -7.0684 0
M  V30 3064 H 301.806 2.8159 -6.35399 0
M  V30 3065 H 304.997 2.1581 -4.15384 0
M  V30 3066 H 305.17 2.76102 -5.86235 0
M  V30 3067 N 298.576 1.31904 0.862503 0
M  V30 3068 C 299.524 1.20125 1.9918 0
M  V30 3069 C 300.518 0.107824 1.69056 0
M  V30 3070 O 301.724 0.270223 1.7796 0
M  V30 3071 H 298.099 0.372148 0.65346 0
M  V30 3072 H 300.07 2.15652 2.06244 0
M  V30 3073 C 298.819 0.933099 3.34946 0
M  V30 3074 H 298.142 1.76664 3.5865 0
M  V30 3075 H 299.582 0.890892 4.14535 0
M  V30 3076 C 298.041 -0.364172 3.34926 0
M  V30 3077 O 298.571 -1.37858 3.77304 0
M  V30 3078 N 296.777 -0.383362 2.8806 0
M  V30 3079 H 296.324 0.442651 2.53768 0
M  V30 3080 H 296.282 -1.25123 2.8843 0
M  V30 3081 N 300.054 -1.07777 1.14986 0
M  V30 3082 C 300.984 -2.16865 0.865557 0
M  V30 3083 C 301.965 -1.69123 -0.182083 0
M  V30 3084 O 303.15 -1.94164 -0.0373815 0
M  V30 3085 C 300.28 -3.45539 0.349313 0
M  V30 3086 C 299.234 -4.06708 1.33313 0
M  V30 3087 C 298.56 -5.30411 0.675918 0
M  V30 3088 C 299.86 -4.47241 2.69764 0
M  V30 3089 H 301.554 -2.40905 1.77778 0
M  V30 3090 H 299.1 -1.15781 0.856203 0
M  V30 3091 H 301.053 -4.21174 0.137983 0
M  V30 3092 H 299.777 -3.21072 -0.598362 0
M  V30 3093 H 298.436 -3.33112 1.53075 0
M  V30 3094 H 298.084 -5.02232 -0.277767 0
M  V30 3095 H 297.784 -5.72293 1.33244 0
M  V30 3096 H 299.308 -6.08755 0.474262 0
M  V30 3097 H 300.722 -5.14025 2.53873 0
M  V30 3098 H 299.119 -5.00062 3.3175 0
M  V30 3099 H 300.189 -3.58818 3.26156 0
M  V30 3100 N 301.532 -0.945985 -1.26051 0
M  V30 3101 C 302.781 -0.591836 -1.92822 0
M  V30 3102 C 303.094 0.873956 -1.7499 0
M  V30 3103 O 304.3 1.33769 -2.36259 0
M  V30 3104 C 302.756 -1.00776 -3.45503 0
M  V30 3105 C 302.364 -2.4955 -3.7206 0
M  V30 3106 C 304.108 -0.725735 -4.1825 0
M  V30 3107 C 302.015 -2.84988 -5.18205 0
M  V30 3108 H 300.945 -0.217635 -0.721908 0
M  V30 3109 H 303.596 -1.14927 -1.43052 0
M  V30 3110 H 301.978 -0.378812 -3.94184 0
M  V30 3111 H 303.152 -3.1739 -3.34066 0
M  V30 3112 H 301.467 -2.75133 -3.12555 0
M  V30 3113 H 304.064 -0.966771 -5.25887 0
M  V30 3114 H 304.407 0.337639 -4.14929 0
M  V30 3115 H 304.94 -1.31463 -3.7545 0
M  V30 3116 H 301.679 -3.90307 -5.26631 0
M  V30 3117 H 301.199 -2.21813 -5.57278 0
M  V30 3118 H 302.878 -2.73712 -5.86252 0
M  V30 3119 N 303.011 1.40521 -0.713556 0
M  V30 3120 C 303.974 2.29098 -0.0684347 0
M  V30 3121 C 304.974 1.45268 0.689472 0
M  V30 3122 O 306.164 1.66205 0.521677 0
M  V30 3123 C 303.296 3.28446 0.913024 0
M  V30 3124 H 304.489 2.87645 -0.84855 0
M  V30 3125 H 302.042 1.48809 -0.47809 0
M  V30 3126 H 302.777 2.74913 1.72027 0
M  V30 3127 H 302.562 3.90327 0.372472 0
M  V30 3128 H 304.052 3.94777 1.36165 0
M  V30 3129 N 304.489 0.459591 1.5075 0
M  V30 3130 C 305.735 -0.0994966 2.02556 0
M  V30 3131 C 306.068 -1.40399 1.3417 0
M  V30 3132 O 305.343 -1.88892 0.463683 0
M  V30 3133 C 305.626 -0.295242 3.58888 0
M  V30 3134 C 305.479 1.02947 4.37861 0
M  V30 3135 C 306.798 -1.05502 4.27267 0
M  V30 3136 H 303.917 -0.034686 0.736183 0
M  V30 3137 H 306.559 0.602938 1.8018 0
M  V30 3138 H 304.709 -0.893563 3.78084 0
M  V30 3139 H 306.381 1.66348 4.30263 0
M  V30 3140 H 304.624 1.62885 4.02058 0
M  V30 3141 H 305.295 0.846281 5.45474 0
M  V30 3142 H 307.771 -0.547993 4.12476 0
M  V30 3143 H 306.647 -1.16077 5.36486 0
M  V30 3144 H 306.908 -2.08875 3.89645 0
M  V30 3145 N 305.967 -1.56429 0.191757 0
M  V30 3146 C 306.897 -2.21937 -0.725696 0
M  V30 3147 C 307.878 -1.1814 -1.2238 0
M  V30 3148 O 309.063 -1.46636 -1.27325 0
M  V30 3149 C 306.193 -2.87611 -1.94672 0
M  V30 3150 C 305.147 -3.97623 -1.58366 0
M  V30 3151 C 304.473 -4.50446 -2.88102 0
M  V30 3152 C 305.773 -5.16197 -0.796133 0
M  V30 3153 H 307.467 -2.98861 -0.179606 0
M  V30 3154 H 305.013 -1.43749 -0.0849464 0
M  V30 3155 H 306.966 -3.3212 -2.59373 0
M  V30 3156 H 305.69 -2.08087 -2.51728 0
M  V30 3157 H 304.349 -3.53801 -0.960247 0
M  V30 3158 H 303.997 -3.67688 -3.43241 0
M  V30 3159 H 303.697 -5.24675 -2.64556 0
M  V30 3160 H 305.221 -4.97654 -3.53798 0
M  V30 3161 H 306.635 -5.57271 -1.34618 0
M  V30 3162 H 305.032 -5.96471 -0.658928 0
M  V30 3163 H 306.102 -4.84473 0.203478 0
M  V30 3164 N 307.445 0.0818655 -1.57387 0
M  V30 3165 C 308.693 0.781368 -1.86384 0
M  V30 3166 C 309.014 1.78618 -0.782342 0
M  V30 3167 O 308.284 1.94976 0.190061 0
M  V30 3168 H 306.864 0.291562 -0.687751 0
M  V30 3169 H 309.526 0.060348 -1.94807 0
M  V30 3170 H 308.622 1.3038 -2.83562 0
M  V30 3171 N 308.923 1.53595 0.353017 0
M  V30 3172 C 309.833 1.83897 1.45667 0
M  V30 3173 C 310.849 0.728334 1.58023 0
M  V30 3174 O 312.025 1.01968 1.73679 0
M  V30 3175 C 309.09 2.03383 2.80778 0
M  V30 3176 C 308.151 3.27262 2.77845 0
M  V30 3177 C 307.384 3.45809 4.06512 0
M  V30 3178 O 307.607 2.68387 5.03314 0
M  V30 3179 O 306.541 4.39207 4.11559 0
M  V30 3180 H 310.367 2.77686 1.2298 0
M  V30 3181 H 307.952 1.39132 0.544308 0
M  V30 3182 H 309.834 2.17698 3.60812 0
M  V30 3183 H 308.509 1.12783 3.03417 0
M  V30 3184 H 307.416 3.18359 1.96465 0
M  V30 3185 H 308.749 4.17824 2.60161 0
M  V30 3186 N 310.401 -0.613514 1.45168 0
M  V30 3187 C 311.351 -1.71871 1.49815 0
M  V30 3188 C 312.335 -1.56774 0.362021 0
M  V30 3189 O 313.527 -1.66212 0.608493 0
M  V30 3190 C 310.656 -3.1061 1.46207 0
M  V30 3191 C 309.742 -3.31114 2.64999 0
M  V30 3192 N 310.133 -3.21904 3.90143 0
M  V30 3193 C 308.431 -3.61966 2.6057 0
M  V30 3194 C 309.132 -3.43577 4.69393 0
M  V30 3195 N 308.108 -3.67287 4.00751 0
M  V30 3196 H 311.91 -1.63235 2.444 0
M  V30 3197 H 309.424 -0.816577 1.40377 0
M  V30 3198 H 311.421 -3.8989 1.4762 0
M  V30 3199 H 310.081 -3.20399 0.52673 0
M  V30 3200 H 311.092 -3.00436 4.21852 0
M  V30 3201 H 307.769 -3.78629 1.75916 0
M  V30 3202 H 309.159 -3.41901 5.78406 0
M  V30 3203 N 311.879 -1.3236 -0.855495 0
M  V30 3204 C 313.156 -1.13491 -1.59309 0
M  V30 3205 C 313.536 0.30503 -2.08885 0
M  V30 3206 O 312.884 1.30151 -1.87811 0
M  V30 3207 C 313.094 -2.16176 -2.73987 0
M  V30 3208 C 314.442 -2.49463 -3.43589 0
M  V30 3209 O 315.466 -2.14715 -2.84211 0
M  V30 3210 O 314.325 -3.09027 -4.50738 0
M  V30 3211 H 311.419 -0.437887 -0.701559 0
M  V30 3212 H 313.965 -1.43887 -0.899696 0
M  V30 3213 H 312.737 -3.1297 -2.34873 0
M  V30 3214 H 312.36 -1.86769 -3.51003 0
M  V30 3215 N 313.357 1.07166 -1.15556 0
M  V30 3216 C 314.287 2.16403 -0.877046 0
M  V30 3217 C 315.268 1.69217 0.173111 0
M  V30 3218 O 316.453 1.94181 0.027084 0
M  V30 3219 C 313.583 3.45349 -0.367632 0
M  V30 3220 C 312.537 4.05995 -1.35468 0
M  V30 3221 C 311.863 5.30045 -0.704038 0
M  V30 3222 C 313.163 4.45804 -2.72132 0
M  V30 3223 H 314.857 2.39959 -1.79053 0
M  V30 3224 H 312.403 1.15325 -0.862331 0
M  V30 3225 H 314.356 4.21095 -0.160317 0
M  V30 3226 H 313.08 3.21385 0.581326 0
M  V30 3227 H 311.739 3.32296 -1.54839 0
M  V30 3228 H 311.387 5.02373 0.251128 0
M  V30 3229 H 311.087 5.71579 -1.36277 0
M  V30 3230 H 312.611 6.08495 -0.50654 0
M  V30 3231 H 314.025 5.12671 -2.56595 0
M  V30 3232 H 312.422 4.98296 -3.34397 0
M  V30 3233 H 313.492 3.57083 -3.28054 0
M  V30 3234 N 314.835 0.952656 1.25548 0
M  V30 3235 C 316.06 0.623025 1.97821 0
M  V30 3236 C 316.485 -0.7976 1.70352 0
M  V30 3237 O 315.843 -1.53905 0.958283 0
M  V30 3238 C 315.891 0.885532 3.49558 0
M  V30 3239 O 314.995 -0.0366641 4.12384 0
M  V30 3240 H 314.336 0.237082 0.620232 0
M  V30 3241 H 316.866 1.27871 1.59719 0
M  V30 3242 H 316.876 0.811009 3.99858 0
M  V30 3243 H 315.551 1.92094 3.6888 0
M  V30 3244 H 314.128 0.0898954 3.72792 0
M  V30 3245 N 316.313 -1.40141 0.720998 0
M  V30 3246 C 317.223 -2.34486 0.0731031 0
M  V30 3247 C 318.239 -1.57587 -0.737723 0
M  V30 3248 O 319.415 -1.89949 -0.669429 0
M  V30 3249 C 316.48 -3.36528 -0.833656 0
M  V30 3250 C 315.541 -4.29298 -0.0121673 0
M  V30 3251 C 314.774 -5.26466 -0.875742 0
M  V30 3252 O 314.997 -5.29745 -2.11485 0
M  V30 3253 O 313.931 -6.01092 -0.31185 0
M  V30 3254 H 317.757 -2.9152 0.851444 0
M  V30 3255 H 315.342 -1.41427 0.481527 0
M  V30 3256 H 317.224 -3.99093 -1.35289 0
M  V30 3257 H 315.899 -2.81899 -1.59105 0
M  V30 3258 H 314.806 -3.70001 0.552262 0
M  V30 3259 H 316.139 -4.87094 0.707129 0
M  V30 3260 N 317.792 -0.46758 -1.50504 0
M  V30 3261 C 318.742 0.34698 -2.25344 0
M  V30 3262 C 319.726 0.964469 -1.2879 0
M  V30 3263 O 320.918 0.8776 -1.53711 0
M  V30 3264 C 318.047 1.43042 -3.1208 0
M  V30 3265 C 317.133 0.82084 -4.16081 0
M  V30 3266 N 317.524 -0.0567602 -5.05768 0
M  V30 3267 C 315.822 1.08517 -4.32597 0
M  V30 3268 C 316.523 -0.402343 -5.80307 0
M  V30 3269 N 315.499 0.221607 -5.43148 0
M  V30 3270 H 319.301 -0.329129 -2.92051 0
M  V30 3271 H 316.815 -0.281508 -1.59942 0
M  V30 3272 H 318.812 2.02712 -3.64299 0
M  V30 3273 H 317.472 2.10856 -2.46921 0
M  V30 3274 H 318.483 -0.425349 -5.1615 0
M  V30 3275 H 315.16 1.75855 -3.78657 0
M  V30 3276 H 316.55 -1.11834 -6.62528 0
M  V30 3277 N 319.27 1.56325 -0.20005 0
M  V30 3278 C 320.547 1.89484 0.48529 0
M  V30 3279 C 320.927 1.1143 1.79294 0
M  V30 3280 O 320.275 0.216919 2.27468 0
M  V30 3281 C 320.485 3.41923 0.699243 0
M  V30 3282 C 321.833 4.12256 1.01638 0
M  V30 3283 O 322.857 3.47402 0.786792 0
M  V30 3284 O 321.716 5.26887 1.45095 0
M  V30 3285 H 318.81 0.787144 0.253639 0
M  V30 3286 H 321.356 1.67985 -0.240633 0
M  V30 3287 H 320.128 3.90658 -0.224008 0
M  V30 3288 H 319.751 3.69131 1.47744 0
M  V30 3289 N 320.748 -0.0735177 1.57428 0
M  V30 3290 C 321.996 -0.771472 1.86796 0
M  V30 3291 C 322.317 -1.78201 0.791804 0
M  V30 3292 O 321.587 -1.95074 -0.179718 0
M  V30 3293 H 320.167 -0.28791 0.689287 0
M  V30 3294 H 322.829 -0.0500161 1.94836 0
M  V30 3295 H 321.925 -1.28874 2.8425 0
M  V30 3296 N 322.226 -1.5378 -0.344866 0
M  V30 3297 C 323.503 -1.61589 -1.10219 0
M  V30 3298 C 323.883 -0.436316 -2.06542 0
M  V30 3299 O 323.231 0.571543 -2.21237 0
M  V30 3300 C 323.441 -2.97602 -1.82301 0
M  V30 3301 C 324.789 -3.5291 -2.36093 0
M  V30 3302 O 325.813 -2.99768 -1.924 0
M  V30 3303 O 324.672 -4.45859 -3.16026 0
M  V30 3304 H 321.766 -0.653522 -0.506792 0
M  V30 3305 H 324.312 -1.66126 -0.346465 0
M  V30 3306 H 323.084 -3.74893 -1.12121 0
M  V30 3307 H 322.707 -2.9665 -2.64735 0
M  V30 3308 N 323.704 0.605807 -1.45491 0
M  V30 3309 C 324.614 1.74466 -1.56839 0
M  V30 3310 C 325.63 1.68006 -0.452772 0
M  V30 3311 O 326.806 1.8833 -0.713708 0
M  V30 3312 C 323.871 3.10931 -1.53371 0
M  V30 3313 C 322.932 3.28832 -2.75986 0
M  V30 3314 C 322.165 4.58787 -2.72673 0
M  V30 3315 O 322.388 5.4122 -1.80102 0
M  V30 3316 O 321.322 4.79438 -3.63899 0
M  V30 3317 H 325.148 1.67843 -2.53106 0
M  V30 3318 H 322.733 0.770108 -1.28022 0
M  V30 3319 H 324.615 3.92233 -1.54051 0
M  V30 3320 H 323.29 3.18042 -0.602572 0
M  V30 3321 H 322.197 2.47112 -2.80867 0
M  V30 3322 H 323.53 3.26599 -3.68231 0
M  V30 3323 N 325.182 1.32811 0.848464 0
M  V30 3324 C 326.114 1.18095 1.96433 0
M  V30 3325 C 327.127 0.114354 1.62398 0
M  V30 3326 O 328.316 0.363892 1.74751 0
M  V30 3327 C 325.416 0.786798 3.2964 0
M  V30 3328 C 324.589 1.943 3.91875 0
M  V30 3329 C 323.648 1.53138 5.03423 0
M  V30 3330 O 322.674 2.24432 5.23086 0
M  V30 3331 N 323.876 0.430915 5.78898 0
M  V30 3332 H 326.641 2.14218 2.09597 0
M  V30 3333 H 324.202 1.2543 1.02367 0
M  V30 3334 H 326.194 0.493715 4.01677 0
M  V30 3335 H 324.764 -0.0834541 3.12489 0
M  V30 3336 H 323.984 2.40224 3.12547 0
M  V30 3337 H 325.272 2.71689 4.30189 0
M  V30 3338 H 324.67 -0.162333 5.65467 0
M  V30 3339 H 323.227 0.197466 6.51501 0
M  V30 3340 N 326.66 -1.06551 1.16123 0
M  V30 3341 C 327.885 -1.83544 0.965735 0
M  V30 3342 C 328.31 -1.81843 -0.481102 0
M  V30 3343 O 327.668 -1.21732 -1.34354 0
M  V30 3344 C 327.716 -3.28169 1.49457 0
M  V30 3345 O 326.82 -4.0643 0.699157 0
M  V30 3346 H 326.161 -0.568026 0.343864 0
M  V30 3347 H 328.691 -1.34362 1.54299 0
M  V30 3348 H 328.701 -3.78992 1.51092 0
M  V30 3349 H 327.376 -3.28722 2.54784 0
M  V30 3350 H 325.953 -3.65216 0.7531 0
M  V30 3351 N 328.138 -0.959301 -1.25041 0
M  V30 3352 C 329.554 -0.664474 -1.4511 0
M  V30 3353 C 329.754 0.776481 -1.85938 0
M  V30 3354 O 328.81 1.55128 -1.99227 0
M  V30 3355 C 330.123 -1.64139 -2.5195 0
M  V30 3356 C 331.671 -1.65309 -2.65786 0
M  V30 3357 C 332.146 -2.61777 -3.75815 0
M  V30 3358 N 333.637 -2.60169 -3.83231 0
M  V30 3359 C 334.372 -3.31489 -4.6787 0
M  V30 3360 N 333.868 -4.12298 -5.56761 0
M  V30 3361 N 335.661 -3.20354 -4.61876 0
M  V30 3362 H 327.812 -1.89043 -0.968332 0
M  V30 3363 H 330.075 -0.813408 -0.4869 0
M  V30 3364 H 329.781 -2.67086 -2.28819 0
M  V30 3365 H 329.655 -1.40756 -3.49954 0
M  V30 3366 H 332.042 -0.630778 -2.8828 0
M  V30 3367 H 332.123 -1.92753 -1.68167 0
M  V30 3368 H 331.767 -3.64137 -3.54071 0
M  V30 3369 H 331.697 -2.31616 -4.72929 0
M  V30 3370 H 334.188 -2.01507 -3.19692 0
M  V30 3371 H 334.501 -4.63625 -6.18281 0
M  V30 3372 H 332.846 -4.16395 -5.56454 0
M  V30 3373 H 336.037 -2.56692 -3.91442 0
M  V30 3374 H 336.21 -3.76201 -5.27614 0
M  V30 3375 N 329.616 1.39756 -0.72842 0
M  V30 3376 C 331.032 1.5442 -0.403308 0
M  V30 3377 C 331.232 1.69694 1.08656 0
M  V30 3378 O 330.288 1.69373 1.87267 0
M  V30 3379 C 331.601 2.76555 -1.18058 0
M  V30 3380 C 333.149 2.90384 -1.16815 0
M  V30 3381 C 333.624 4.15449 -1.92785 0
M  V30 3382 N 335.115 4.22475 -1.89918 0
M  V30 3383 C 335.85 5.1818 -2.45514 0
M  V30 3384 N 335.346 6.19714 -3.09719 0
M  V30 3385 N 337.139 5.1035 -2.35584 0
M  V30 3386 H 329.29 1.28089 -1.69431 0
M  V30 3387 H 331.553 0.620327 -0.716867 0
M  V30 3388 H 331.259 2.7159 -2.23455 0
M  V30 3389 H 331.133 3.69033 -0.780662 0
M  V30 3390 H 333.52 2.94846 -0.12234 0
M  V30 3391 H 333.601 1.98988 -1.6074 0
M  V30 3392 H 333.245 4.11749 -2.97364 0
M  V30 3393 H 333.175 5.05877 -1.46272 0
M  V30 3394 H 335.666 3.49743 -1.43138 0
M  V30 3395 H 335.979 6.8919 -3.49625 0
M  V30 3396 H 334.324 6.20121 -3.13807 0
M  V30 3397 H 337.515 4.2996 -1.85072 0
M  V30 3398 H 337.688 5.84761 -2.79211 0
M  V30 3399 N 331.094 0.475555 1.50254 0
M  V30 3400 C 332.34 -0.0780073 2.0265 0
M  V30 3401 C 332.673 -1.38968 1.35652 0
M  V30 3402 O 331.948 -1.8839 0.483691 0
M  V30 3403 C 332.231 -0.257161 3.59181 0
M  V30 3404 C 332.084 1.07585 4.36744 0
M  V30 3405 C 333.403 -1.00965 4.28362 0
M  V30 3406 H 330.522 -0.0268758 0.73651 0
M  V30 3407 H 333.164 0.622015 1.7953 0
M  V30 3408 H 331.314 -0.853412 3.79011 0
M  V30 3409 H 332.986 1.70902 4.28474 0
M  V30 3410 H 331.229 1.6714 4.00308 0
M  V30 3411 H 331.9 0.904088 5.44546 0
M  V30 3412 H 334.376 -0.504214 4.13034 0
M  V30 3413 H 333.252 -1.10381 5.37687 0
M  V30 3414 H 333.513 -2.04731 3.91839 0
M  V30 3415 N 332.573 -1.56217 0.208337 0
M  V30 3416 C 333.536 -2.18455 -0.693557 0
M  V30 3417 C 334.536 -1.14268 -1.13135 0
M  V30 3418 O 335.726 -1.39577 -1.0423 0
M  V30 3419 C 332.858 -2.79727 -1.94848 0
M  V30 3420 H 334.051 -2.99519 -0.15114 0
M  V30 3421 H 331.604 -1.56245 -0.041287 0
M  V30 3422 H 332.339 -2.02497 -2.53309 0
M  V30 3423 H 332.124 -3.56009 -1.64316 0
M  V30 3424 H 333.614 -3.27475 -2.59133 0
M  V30 3425 N 334.051 0.0651679 -1.57465 0
M  V30 3426 C 334.983 1.10359 -2.00882 0
M  V30 3427 C 335.996 1.346 -0.915788 0
M  V30 3428 O 337.185 1.32723 -1.1936 0
M  V30 3429 C 334.285 2.45312 -2.33828 0
M  V30 3430 C 333.458 2.40934 -3.65061 0
M  V30 3431 C 332.517 3.58047 -3.85602 0
M  V30 3432 O 331.543 3.39175 -4.57109 0
M  V30 3433 N 332.745 4.78637 -3.28462 0
M  V30 3434 H 335.51 0.733807 -2.90578 0
M  V30 3435 H 333.071 0.253719 -1.599 0
M  V30 3436 H 335.063 3.22314 -2.44737 0
M  V30 3437 H 333.633 2.74267 -1.49988 0
M  V30 3438 H 332.853 1.49273 -3.64844 0
M  V30 3439 H 334.141 2.35117 -4.51218 0
M  V30 3440 H 333.539 4.96872 -2.70433 0
M  V30 3441 H 332.096 5.53127 -3.44809 0
M  V30 3442 N 335.529 1.53961 0.336706 0
M  V30 3443 C 336.775 1.7179 1.07777 0
M  V30 3444 C 337.108 0.483263 1.88091 0
M  V30 3445 O 336.383 -0.519747 1.87427 0
M  V30 3446 C 336.666 2.98558 2.01334 0
M  V30 3447 C 336.519 4.32245 1.24437 0
M  V30 3448 C 337.838 3.21023 3.01052 0
M  V30 3449 H 334.957 0.625089 0.390426 0
M  V30 3450 H 337.599 1.86641 0.35567 0
M  V30 3451 H 335.749 2.86028 2.62908 0
M  V30 3452 H 337.421 4.56637 0.654243 0
M  V30 3453 H 335.664 4.30344 0.546458 0
M  V30 3454 H 336.335 5.17137 1.93063 0
M  V30 3455 H 338.811 3.32929 2.49595 0
M  V30 3456 H 337.687 4.11104 3.6371 0
M  V30 3457 H 337.948 2.37637 3.72802 0
M  V30 3458 N 337.007 -0.598083 1.45811 0
M  V30 3459 C 338.256 -1.35295 1.49594 0
M  V30 3460 C 338.569 -1.95057 0.145679 0
M  V30 3461 O 339.775 -2.71431 0.0612099 0
M  V30 3462 C 338.231 -2.45124 2.63519 0
M  V30 3463 C 337.839 -1.91732 4.04899 0
M  V30 3464 C 339.583 -3.2205 2.76558 0
M  V30 3465 C 337.49 -2.991 5.1019 0
M  V30 3466 H 336.42 -0.508552 0.556679 0
M  V30 3467 H 339.071 -0.639977 1.71978 0
M  V30 3468 H 337.453 -3.19149 2.34435 0
M  V30 3469 H 338.627 -1.24352 4.43704 0
M  V30 3470 H 336.942 -1.27522 3.96393 0
M  V30 3471 H 339.539 -4.0215 3.52391 0
M  V30 3472 H 339.882 -3.73663 1.83526 0
M  V30 3473 H 340.415 -2.55127 3.05213 0
M  V30 3474 H 337.154 -2.52393 6.04961 0
M  V30 3475 H 336.674 -3.65017 4.75944 0
M  V30 3476 H 338.353 -3.63318 5.35359 0
M  V30 3477 N 338.485 -1.33259 -0.841409 0
M  V30 3478 C 339.734 -1.23921 -1.59143 0
M  V30 3479 C 340.047 0.1941 -1.94635 0
M  V30 3480 O 341.253 0.409474 -2.68394 0
M  V30 3481 C 339.709 -2.17119 -2.87032 0
M  V30 3482 C 339.317 -3.65606 -2.58914 0
M  V30 3483 C 341.061 -2.16648 -3.65053 0
M  V30 3484 C 338.968 -4.50726 -3.82884 0
M  V30 3485 H 337.898 -0.460264 -0.597221 0
M  V30 3486 H 340.549 -1.58307 -0.927959 0
M  V30 3487 H 338.931 -1.75663 -3.54906 0
M  V30 3488 H 340.105 -4.15487 -1.99267 0
M  V30 3489 H 338.42 -3.68341 -1.942 0
M  V30 3490 H 341.017 -2.77474 -4.57069 0
M  V30 3491 H 341.36 -1.16088 -3.99787 0
M  V30 3492 H 341.893 -2.56453 -3.041 0
M  V30 3493 H 338.632 -5.52151 -3.53283 0
M  V30 3494 H 338.152 -4.0559 -4.41879 0
M  V30 3495 H 339.831 -4.64401 -4.50489 0
M  V30 3496 N 339.963 1.05934 -1.16686 0
M  V30 3497 C 341.374 1.60263 -0.957745 0
M  V30 3498 C 341.725 1.89789 0.49745 0
M  V30 3499 O 340.85 1.67401 1.37135 0
M  V30 3500 C 341.445 2.91172 -1.73218 0
M  V30 3501 C 340.004 3.42188 -1.56794 0
M  V30 3502 C 339.151 2.16028 -1.73859 0
M  V30 3503 H 342.102 0.888392 -1.31504 0
M  V30 3504 H 342.123 3.60744 -1.21014 0
M  V30 3505 H 341.635 2.6965 -2.79124 0
M  V30 3506 H 339.736 3.68762 -0.533437 0
M  V30 3507 H 339.849 4.17273 -2.35414 0
M  V30 3508 H 338.213 2.26426 -1.16633 0
M  V30 3509 H 338.996 1.96985 -2.81161 0
M  V30 3510 N 341.441 0.965919 1.2453 0
M  V30 3511 C 342.666 0.643971 1.97149 0
M  V30 3512 C 343.091 -0.779487 1.71189 0
M  V30 3513 O 342.449 -1.5288 0.974553 0
M  V30 3514 C 342.497 0.922557 3.48599 0
M  V30 3515 O 341.601 0.00707672 4.12399 0
M  V30 3516 H 340.942 0.243647 0.617683 0
M  V30 3517 H 343.472 1.29558 1.58353 0
M  V30 3518 H 343.482 0.853373 3.98976 0
M  V30 3519 H 342.157 1.95996 3.66822 0
M  V30 3520 H 340.734 0.12943 3.72675 0
M  V30 3521 N 342.919 -1.39368 0.735821 0
M  V30 3522 C 344.147 -2.04795 0.294393 0
M  V30 3523 C 344.562 -1.55478 -1.07107 0
M  V30 3524 O 343.919 -0.720038 -1.67695 0
M  V30 3525 C 343.97 -3.6035 0.288071 0
M  V30 3526 O 343.691 -4.07852 1.59963 0
M  V30 3527 C 345.192 -4.42976 -0.169422 0
M  V30 3528 H 342.412 -0.658571 0.128551 0
M  V30 3529 H 344.956 -1.78399 0.999701 0
M  V30 3530 H 343.111 -3.85645 -0.368355 0
M  V30 3531 H 343.525 -5.02181 1.51375 0
M  V30 3532 H 344.999 -5.51864 -0.122687 0
M  V30 3533 H 345.476 -4.22068 -1.21472 0
M  V30 3534 H 346.082 -4.22832 0.457469 0
M  V30 3535 N 344.397 -0.483516 -1.5 0
M  V30 3536 C 345.627 0.0643896 -2.065 0
M  V30 3537 C 346.035 1.32949 -1.34615 0
M  V30 3538 O 345.378 1.79003 -0.412756 0
M  V30 3539 C 345.44 0.405983 -3.572 0
M  V30 3540 C 345.104 -0.758875 -4.50655 0
M  V30 3541 C 346.101 -1.64445 -4.93208 0
M  V30 3542 C 343.786 -0.952725 -4.93182 0
M  V30 3543 C 345.78 -2.70818 -5.77006 0
M  V30 3544 C 343.467 -2.01966 -5.76761 0
M  V30 3545 C 344.465 -2.89574 -6.18576 0
M  V30 3546 O 344.153 -3.94429 -7.00486 0
M  V30 3547 H 343.885 -0.00934786 -0.675935 0
M  V30 3548 H 346.439 -0.674959 -1.93993 0
M  V30 3549 H 344.669 1.19869 -3.67652 0
M  V30 3550 H 346.358 0.890433 -3.96013 0
M  V30 3551 H 347.124 -1.50643 -4.61012 0
M  V30 3552 H 343.003 -0.280247 -4.60147 0
M  V30 3553 H 346.547 -3.3923 -6.09565 0
M  V30 3554 H 342.444 -2.1577 -6.0837 0
M  V30 3555 H 343.212 -3.91568 -7.1876 0
M  V30 3556 N 345.875 1.56104 -0.216619 0
M  V30 3557 C 347.121 1.98466 0.417033 0
M  V30 3558 C 347.454 1.10403 1.59765 0
M  V30 3559 O 346.729 0.160632 1.93836 0
M  V30 3560 C 347.012 3.49769 0.85637 0
M  V30 3561 C 346.865 4.48606 -0.327546 0
M  V30 3562 C 348.184 4.05339 1.7143 0
M  V30 3563 H 345.303 0.721551 0.150112 0
M  V30 3564 H 347.945 1.87423 -0.311864 0
M  V30 3565 H 346.095 3.5931 1.47745 0
M  V30 3566 H 347.767 4.5108 -0.965618 0
M  V30 3567 H 346.01 4.22682 -0.975805 0
M  V30 3568 H 346.681 5.51995 0.0227149 0
M  V30 3569 H 349.157 3.98712 1.19031 0
M  V30 3570 H 348.033 5.11533 1.99061 0
M  V30 3571 H 348.294 3.51918 2.67593 0
M  V30 3572 N 347.353 -0.0568162 1.57498 0
M  V30 3573 C 348.764 -0.606858 1.76562 0
M  V30 3574 C 349.115 -1.77114 0.844094 0
M  V30 3575 O 348.24 -2.16376 0.0318911 0
M  V30 3576 C 348.835 -1.10766 3.20182 0
M  V30 3577 C 347.394 -1.60344 3.40539 0
M  V30 3578 C 346.541 -0.529311 2.72201 0
M  V30 3579 H 349.492 0.169393 1.57793 0
M  V30 3580 H 349.513 -1.97602 3.25167 0
M  V30 3581 H 349.025 -0.26006 3.87228 0
M  V30 3582 H 347.126 -2.47379 2.78629 0
M  V30 3583 H 347.239 -1.67006 4.4905 0
M  V30 3584 H 345.603 -0.977893 2.35179 0
M  V30 3585 H 346.386 0.308352 3.41912 0
M  V30 3586 N 348.832 -1.54138 -0.328536 0
M  V30 3587 C 350.08 -1.71765 -1.06496 0
M  V30 3588 C 350.401 -0.49149 -1.88704 0
M  V30 3589 O 349.671 0.494539 -1.89555 0
M  V30 3590 H 348.251 -0.633295 -0.396164 0
M  V30 3591 H 350.913 -1.91429 -0.366176 0
M  V30 3592 H 350.009 -2.5951 -1.73381 0
M  V30 3593 N 350.31 0.590341 -1.46126 0
M  V30 3594 C 351.538 1.37504 -1.54597 0
M  V30 3595 C 351.953 1.87897 -0.184447 0
M  V30 3596 O 351.31 1.63192 0.816984 0
M  V30 3597 C 351.361 2.56779 -2.54454 0
M  V30 3598 O 351.082 2.08476 -3.85317 0
M  V30 3599 C 352.583 3.49427 -2.72792 0
M  V30 3600 H 349.803 0.420325 -0.523037 0
M  V30 3601 H 352.347 0.718383 -1.91467 0
M  V30 3602 H 350.502 3.1845 -2.20609 0
M  V30 3603 H 350.916 2.86097 -4.396 0
M  V30 3604 H 352.39 4.29619 -3.466 0
M  V30 3605 H 352.867 4.00876 -1.79429 0
M  V30 3606 H 353.473 2.93598 -3.07702 0
M  V30 3607 N 351.788 1.33704 0.83433 0
M  V30 3608 C 353.016 1.28467 1.62185 0
M  V30 3609 C 353.431 -0.143526 1.88254 0
M  V30 3610 O 352.788 -1.08709 1.4659 0
M  V30 3611 C 352.839 2.06174 2.96942 0
M  V30 3612 O 352.56 3.43422 2.72016 0
M  V30 3613 C 354.061 2.08201 3.91366 0
M  V30 3614 H 351.281 0.4424 0.504503 0
M  V30 3615 H 353.825 1.76145 1.03891 0
M  V30 3616 H 351.98 1.62167 3.51825 0
M  V30 3617 H 352.394 3.83453 3.57861 0
M  V30 3618 H 353.868 2.67017 4.83121 0
M  V30 3619 H 354.345 1.07343 4.2588 0
M  V30 3620 H 354.951 2.52246 3.42421 0
M  V30 3621 N 353.266 -1.05314 1.17247 0
M  V30 3622 C 354.214 -2.15137 0.884238 0
M  V30 3623 C 355.208 -1.68729 -0.15063 0
M  V30 3624 O 356.414 -1.8 -0.00366673 0
M  V30 3625 H 352.789 -0.702471 0.2684 0
M  V30 3626 H 354.76 -2.36652 1.81764 0
M  V30 3627 C 353.509 -3.45243 0.412659 0
M  V30 3628 H 352.832 -3.81352 1.20043 0
M  V30 3629 H 354.272 -4.23263 0.249858 0
M  V30 3630 C 352.731 -3.25487 -0.86948 0
M  V30 3631 O 353.261 -3.51938 -1.93655 0
M  V30 3632 N 351.467 -2.78875 -0.817147 0
M  V30 3633 H 351.014 -2.57549 0.0514211 0
M  V30 3634 H 350.972 -2.66036 -1.67547 0
M  V30 3635 N 354.744 -0.972509 -1.24016 0
M  V30 3636 C 355.694 -0.477561 -2.22942 0
M  V30 3637 C 356.678 0.44308 -1.54679 0
M  V30 3638 O 357.87 0.273219 -1.74879 0
M  V30 3639 C 354.999 0.226348 -3.42553 0
M  V30 3640 C 354.085 -0.713403 -4.18057 0
M  V30 3641 N 354.476 -1.8527 -4.70647 0
M  V30 3642 C 352.774 -0.525145 -4.42898 0
M  V30 3643 C 353.475 -2.44089 -5.28011 0
M  V30 3644 N 352.451 -1.72556 -5.15486 0
M  V30 3645 H 356.253 -1.34678 -2.61226 0
M  V30 3646 H 353.767 -0.832196 -1.39457 0
M  V30 3647 H 355.764 0.598184 -4.12586 0
M  V30 3648 H 354.424 1.09195 -3.05788 0
M  V30 3649 H 355.435 -2.2341 -4.67235 0
M  V30 3650 H 352.112 0.296096 -4.16449 0
M  V30 3651 H 353.502 -3.40259 -5.79374 0
M  V30 3652 N 356.222 1.38976 -0.743202 0
M  V30 3653 C 357.499 1.94351 -0.220705 0
M  V30 3654 C 357.879 1.67935 1.2791 0
M  V30 3655 O 357.227 1.01211 2.04862 0
M  V30 3656 C 357.437 3.44426 -0.563171 0
M  V30 3657 C 358.785 4.2144 -0.517046 0
M  V30 3658 O 359.809 3.52661 -0.500846 0
M  V30 3659 O 358.668 5.44032 -0.518806 0
M  V30 3660 H 355.762 0.825879 -0.043047 0
M  V30 3661 H 358.308 1.48429 -0.822618 0
M  V30 3662 H 357.08 3.5712 -1.59941 0
M  V30 3663 H 356.703 3.97543 0.0672883 0
M  V30 3664 N 357.7 0.491464 1.49741 0
M  V30 3665 C 358.949 -0.0582189 2.01616 0
M  V30 3666 C 359.262 -1.38927 1.3769 0
M  V30 3667 O 360.468 -2.02509 1.80838 0
M  V30 3668 C 358.924 -0.154235 3.59569 0
M  V30 3669 C 358.532 1.1696 4.32463 0
M  V30 3670 C 360.276 -0.65479 4.1942 0
M  V30 3671 C 358.183 1.03627 5.8225 0
M  V30 3672 H 357.113 -0.0255317 0.753568 0
M  V30 3673 H 359.764 0.629445 1.72367 0
M  V30 3674 H 358.146 -0.906138 3.85493 0
M  V30 3675 H 359.32 1.93405 4.18248 0
M  V30 3676 H 357.635 1.60285 3.84315 0
M  V30 3677 H 360.232 -0.771903 5.29099 0
M  V30 3678 H 360.575 -1.65127 3.8215 0
M  V30 3679 H 361.108 0.040304 3.9778 0
M  V30 3680 H 357.847 2.00672 6.24028 0
M  V30 3681 H 357.367 0.312546 5.98985 0
M  V30 3682 H 359.046 0.711114 6.4308 0
M  V30 3683 N 359.178 -1.55987 0.224894 0
M  V30 3684 C 360.141 -2.19178 -0.670348 0
M  V30 3685 C 361.141 -1.15461 -1.11917 0
M  V30 3686 O 362.331 -1.40675 -1.02743 0
M  V30 3687 C 359.463 -2.81777 -1.9187 0
M  V30 3688 H 360.656 -2.99662 -0.119364 0
M  V30 3689 H 358.209 -1.5628 -0.0247128 0
M  V30 3690 H 358.944 -2.05172 -2.51147 0
M  V30 3691 H 358.729 -3.57732 -1.60531 0
M  V30 3692 H 360.219 -3.30205 -2.55645 0
M  V30 3693 N 360.656 0.0484629 -1.57525 0
M  V30 3694 C 361.586 1.0549 -2.08313 0
M  V30 3695 C 362.567 1.38929 -0.981463 0
M  V30 3696 O 363.752 1.48151 -1.25558 0
M  V30 3697 C 360.882 2.36162 -2.54646 0
M  V30 3698 C 359.836 2.17016 -3.68901 0
M  V30 3699 C 359.162 3.53278 -4.01371 0
M  V30 3700 C 360.462 1.57219 -4.98076 0
M  V30 3701 H 362.156 0.632195 -2.92649 0
M  V30 3702 H 359.702 0.302654 -1.40784 0
M  V30 3703 H 361.655 3.06882 -2.88793 0
M  V30 3704 H 360.379 2.80456 -1.67368 0
M  V30 3705 H 359.038 1.48733 -3.35073 0
M  V30 3706 H 358.686 3.95185 -3.11188 0
M  V30 3707 H 358.386 3.41299 -4.78318 0
M  V30 3708 H 359.91 4.25391 -4.38035 0
M  V30 3709 H 361.324 2.17832 -5.30304 0
M  V30 3710 H 359.721 1.55871 -5.79503 0
M  V30 3711 H 360.791 0.535956 -4.81929 0
M  V30 3712 N 362.134 1.5431 0.320358 0
M  V30 3713 C 363.064 1.86912 1.3995 0
M  V30 3714 C 364.045 0.726211 1.53819 0
M  V30 3715 O 365.23 0.980233 1.67646 0
M  V30 3716 C 362.36 2.09932 2.7667 0
M  V30 3717 C 361.314 3.25776 2.77586 0
M  V30 3718 C 360.64 3.34173 4.17412 0
M  V30 3719 C 361.94 4.6335 2.41048 0
M  V30 3720 H 363.634 2.77292 1.12914 0
M  V30 3721 H 361.18 1.33421 0.541738 0
M  V30 3722 H 363.133 2.31324 3.52232 0
M  V30 3723 H 361.857 1.16304 3.0519 0
M  V30 3724 H 360.516 3.04276 2.04479 0
M  V30 3725 H 360.164 2.38098 4.43078 0
M  V30 3726 H 359.864 4.12033 4.18931 0
M  V30 3727 H 361.388 3.57803 4.94782 0
M  V30 3728 H 362.802 4.84602 3.06324 0
M  V30 3729 H 361.199 5.43782 2.53813 0
M  V30 3730 H 362.269 4.65381 1.36193 0
M  V30 3731 N 363.613 -0.582584 1.46437 0
M  V30 3732 C 365.029 -0.905962 1.31394 0
M  V30 3733 C 365.229 -1.99468 0.285476 0
M  V30 3734 O 364.285 -2.50566 -0.311914 0
M  V30 3735 C 365.598 -1.3232 2.70022 0
M  V30 3736 C 367.146 -1.43604 2.78113 0
M  V30 3737 C 367.621 -1.88694 4.17323 0
M  V30 3738 N 369.112 -1.95887 4.19741 0
M  V30 3739 C 369.847 -2.32051 5.24347 0
M  V30 3740 N 369.343 -2.67006 6.39281 0
M  V30 3741 N 371.136 -2.32606 5.11713 0
M  V30 3742 H 363.287 0.1366 2.1196 0
M  V30 3743 H 365.55 -0.00155736 0.947999 0
M  V30 3744 H 365.256 -0.597242 3.46592 0
M  V30 3745 H 365.13 -2.28469 3.00136 0
M  V30 3746 H 367.517 -2.15286 2.01832 0
M  V30 3747 H 367.598 -0.457059 2.51684 0
M  V30 3748 H 367.242 -1.1759 4.941 0
M  V30 3749 H 367.172 -2.8755 4.4116 0
M  V30 3750 H 369.663 -1.71362 3.36814 0
M  V30 3751 H 369.976 -2.93554 7.14875 0
M  V30 3752 H 368.321 -2.64644 6.42642 0
M  V30 3753 H 371.512 -2.04721 4.2096 0
M  V30 3754 H 371.685 -2.60462 5.93349 0
M  V30 3755 N 365.091 -1.34144 -0.827227 0
M  V30 3756 C 366.021 -1.28005 -1.95287 0
M  V30 3757 C 367.002 -0.158321 -1.69362 0
M  V30 3758 O 368.187 -0.349987 -1.9102 0
M  V30 3759 C 365.317 -1.03036 -3.31664 0
M  V30 3760 C 364.271 -2.11628 -3.72019 0
M  V30 3761 C 363.597 -1.71854 -5.0633 0
M  V30 3762 C 364.897 -3.53417 -3.8457 0
M  V30 3763 H 366.591 -2.22187 -2.00682 0
M  V30 3764 H 364.137 -1.0696 -0.964135 0
M  V30 3765 H 366.09 -0.973863 -4.09993 0
M  V30 3766 H 364.814 -0.0529391 -3.26557 0
M  V30 3767 H 363.473 -2.16339 -2.95961 0
M  V30 3768 H 363.121 -0.727841 -4.97706 0
M  V30 3769 H 362.821 -2.44531 -5.34302 0
M  V30 3770 H 364.345 -1.67692 -5.87122 0
M  V30 3771 H 365.759 -3.51142 -4.5318 0
M  V30 3772 H 364.156 -4.24679 -4.2399 0
M  V30 3773 H 365.226 -3.91072 -2.86689 0
M  V30 3774 N 366.569 1.04691 -1.17803 0
M  V30 3775 C 367.519 2.10856 -0.867391 0
M  V30 3776 C 368.503 1.601 0.160206 0
M  V30 3777 O 369.695 1.76948 -0.042947 0
M  V30 3778 C 366.824 3.411 -0.388012 0
M  V30 3779 C 365.91 3.9864 -1.44732 0
M  V30 3780 N 366.301 4.30075 -2.66212 0
M  V30 3781 C 364.599 4.26439 -1.30637 0
M  V30 3782 C 365.3 4.76033 -3.34317 0
M  V30 3783 N 364.276 4.76462 -2.61696 0
M  V30 3784 H 368.078 2.33029 -1.79094 0
M  V30 3785 H 365.592 1.22386 -1.0675 0
M  V30 3786 H 367.589 4.16641 -0.146994 0
M  V30 3787 H 366.249 3.20357 0.529271 0
M  V30 3788 H 367.26 4.19917 -3.03134 0
M  V30 3789 H 363.937 4.15056 -0.451129 0
M  V30 3790 H 365.327 5.09427 -4.38103 0
M  V30 3791 N 368.047 0.979072 1.23499 0
M  V30 3792 C 368.979 0.476271 2.24197 0
M  V30 3793 C 369.992 -0.421166 1.57258 0
M  V30 3794 O 371.181 -0.225515 1.7707 0
M  V30 3795 C 368.281 -0.330503 3.37285 0
M  V30 3796 C 367.454 0.559744 4.33804 0
M  V30 3797 C 366.513 -0.192954 5.25846 0
M  V30 3798 O 365.539 0.416978 5.67671 0
M  V30 3799 N 366.741 -1.47932 5.61334 0
M  V30 3800 H 369.506 1.34211 2.67969 0
M  V30 3801 H 367.067 0.852189 1.37657 0
M  V30 3802 H 369.059 -0.842361 3.95836 0
M  V30 3803 H 367.629 -1.09734 2.92707 0
M  V30 3804 H 366.849 1.25245 3.73775 0
M  V30 3805 H 368.137 1.1665 4.95248 0
M  V30 3806 H 367.535 -1.9964 5.29302 0
M  V30 3807 H 366.092 -1.93664 6.22364 0
M  V30 3808 N 369.525 -1.3858 0.750561 0
M  V30 3809 C 370.936 -1.82927 0.373438 0
M  V30 3810 C 371.287 -1.62634 -1.09748 0
M  V30 3811 O 370.412 -1.12588 -1.84805 0
M  V30 3812 C 371.007 -3.32088 0.671029 0
M  V30 3813 C 369.566 -3.74795 0.34722 0
M  V30 3814 C 368.713 -2.61391 0.92575 0
M  V30 3815 H 371.664 -1.27351 0.946958 0
M  V30 3816 H 371.685 -3.80465 -0.0518269 0
M  V30 3817 H 371.197 -3.46826 1.74164 0
M  V30 3818 H 369.298 -3.65638 -0.716933 0
M  V30 3819 H 369.411 -4.71667 0.840656 0
M  V30 3820 H 367.775 -2.52265 0.351327 0
M  V30 3821 H 368.558 -2.78929 2.00133 0
M  V30 3822 N 371.003 -0.499398 -1.49478 0
M  V30 3823 C 372.249 0.0457576 -2.02748 0
M  V30 3824 C 372.582 1.36793 -1.37846 0
M  V30 3825 O 371.857 1.87596 -0.513601 0
M  V30 3826 C 372.14 0.199986 -3.59544 0
M  V30 3827 C 371.993 -1.1452 -4.34977 0
M  V30 3828 C 373.312 0.94137 -4.29914 0
M  V30 3829 H 370.431 0.0151552 -0.736844 0
M  V30 3830 H 373.073 -0.650498 -1.78518 0
M  V30 3831 H 371.223 0.793007 -3.8032 0
M  V30 3832 H 372.895 -1.77697 -4.25701 0
M  V30 3833 H 371.138 -1.73488 -3.97598 0
M  V30 3834 H 371.809 -0.990607 -5.43039 0
M  V30 3835 H 374.285 0.43844 -4.13784 0
M  V30 3836 H 373.161 1.01812 -5.39375 0
M  V30 3837 H 373.422 1.98471 -3.95046 0
M  V30 3838 N 372.481 1.55866 -0.233164 0
M  V30 3839 C 373.727 1.98897 0.395959 0
M  V30 3840 C 374.06 1.12091 1.58585 0
M  V30 3841 O 373.335 0.181182 1.93654 0
M  V30 3842 C 373.618 3.50658 0.819224 0
M  V30 3843 C 373.471 4.48233 -0.375109 0
M  V30 3844 C 374.79 4.07135 1.67121 0
M  V30 3845 H 371.909 0.723102 0.142451 0
M  V30 3846 H 374.551 1.87082 -0.331725 0
M  V30 3847 H 372.701 3.60857 1.43925 0
M  V30 3848 H 374.373 4.50031 -1.01341 0
M  V30 3849 H 372.616 4.21624 -1.02058 0
M  V30 3850 H 373.287 5.51988 -0.0358328 0
M  V30 3851 H 375.763 3.99952 1.14795 0
M  V30 3852 H 374.639 5.13615 1.93625 0
M  V30 3853 H 374.9 3.54736 2.63846 0
M  V30 3854 N 373.959 -0.0401083 1.57549 0
M  V30 3855 C 374.889 -1.04384 2.08869 0
M  V30 3856 C 375.87 -1.38407 0.988817 0
M  V30 3857 O 377.055 -1.47483 1.26342 0
M  V30 3858 C 374.185 -2.34808 2.55895 0
M  V30 3859 C 373.139 -2.15057 3.70047 0
M  V30 3860 C 372.465 -3.51145 4.03239 0
M  V30 3861 C 373.765 -1.54576 4.98902 0
M  V30 3862 H 375.459 -0.616666 2.92981 0
M  V30 3863 H 373.005 -0.295184 1.40942 0
M  V30 3864 H 374.958 -3.05346 2.90417 0
M  V30 3865 H 373.682 -2.79565 1.68853 0
M  V30 3866 H 372.341 -1.46954 3.35857 0
M  V30 3867 H 371.989 -3.93529 3.13279 0
M  V30 3868 H 371.689 -3.38758 4.80122 0
M  V30 3869 H 373.213 -4.23062 4.40285 0
M  V30 3870 H 374.627 -2.15017 5.31451 0
M  V30 3871 H 373.024 -1.52796 5.80322 0
M  V30 3872 H 374.094 -0.51039 4.82206 0
M  V30 3873 N 375.437 -1.54477 -0.31217 0
M  V30 3874 C 376.665 -1.77205 -1.068 0
M  V30 3875 C 377.08 -0.526114 -1.81321 0
M  V30 3876 O 376.437 0.503647 -1.75413 0
M  V30 3877 C 376.488 -2.97253 -2.05725 0
M  V30 3878 O 376.209 -4.1703 -1.34228 0
M  V30 3879 C 377.71 -3.32281 -2.93435 0
M  V30 3880 H 374.93 -0.591287 -0.317208 0
M  V30 3881 H 377.474 -2.01398 -0.354834 0
M  V30 3882 H 375.629 -2.753 -2.72559 0
M  V30 3883 H 376.043 -4.84636 -2.00571 0
M  V30 3884 H 377.517 -4.19551 -3.58721 0
M  V30 3885 H 377.994 -2.49945 -3.61143 0
M  V30 3886 H 378.6 -3.56353 -2.32147 0
M  V30 3887 N 376.915 0.57481 -1.46744 0
M  V30 3888 C 378.192 1.3352 -1.4294 0
M  V30 3889 C 378.572 2.10775 -0.117009 0
M  V30 3890 O 377.92 2.09966 0.901474 0
M  V30 3891 C 378.13 2.25456 -2.66403 0
M  V30 3892 C 379.478 2.87035 -3.12883 0
M  V30 3893 O 380.502 2.35766 -2.67007 0
M  V30 3894 O 379.361 3.80179 -3.92589 0
M  V30 3895 H 376.455 0.600318 -0.568812 0
M  V30 3896 H 379.001 0.595171 -1.58921 0
M  V30 3897 H 377.773 1.67851 -3.53471 0
M  V30 3898 H 377.396 3.06785 -2.52921 0
M  V30 3899 N 378.394 1.34581 0.820102 0
M  V30 3900 C 379.344 1.22943 1.92013 0
M  V30 3901 C 380.328 0.127802 1.60392 0
M  V30 3902 O 381.52 0.357737 1.73347 0
M  V30 3903 C 378.649 0.989938 3.28717 0
M  V30 3904 C 377.735 2.13486 3.66449 0
M  V30 3905 N 378.126 3.38625 3.75722 0
M  V30 3906 C 376.424 2.04573 3.96315 0
M  V30 3907 C 377.125 4.13832 4.08801 0
M  V30 3908 N 376.101 3.42451 4.22171 0
M  V30 3909 H 379.903 2.17771 1.97365 0
M  V30 3910 H 377.417 1.2686 1.01392 0
M  V30 3911 H 379.414 0.887462 4.07345 0
M  V30 3912 H 378.074 0.0503691 3.24661 0
M  V30 3913 H 379.085 3.73143 3.59144 0
M  V30 3914 H 375.762 1.1839 4.00362 0
M  V30 3915 H 377.152 5.21909 4.23156 0
M  V30 3916 N 379.872 -1.04064 1.18357 0
M  V30 3917 C 381.118 -1.77528 0.980397 0
M  V30 3918 C 381.451 -1.87948 -0.48879 0
M  V30 3919 O 380.726 -1.3876 -1.36293 0
M  V30 3920 C 381.009 -3.20797 1.63588 0
M  V30 3921 C 380.862 -3.1832 3.17793 0
M  V30 3922 C 382.181 -4.18911 1.34914 0
M  V30 3923 H 379.3 -0.644443 0.357578 0
M  V30 3924 H 381.942 -1.2156 1.46024 0
M  V30 3925 H 380.092 -3.68586 1.22788 0
M  V30 3926 H 381.764 -2.78521 3.67728 0
M  V30 3927 H 380.007 -2.56351 3.49952 0
M  V30 3928 H 380.678 -4.19489 3.58794 0
M  V30 3929 H 383.154 -3.7967 1.70265 0
M  V30 3930 H 382.03 -5.17374 1.83346 0
M  V30 3931 H 382.291 -4.41262 0.272027 0
M  V30 3932 N 381.35 -0.985608 -1.22978 0
M  V30 3933 C 382.596 -0.65836 -1.91816 0
M  V30 3934 C 382.929 0.806692 -1.76653 0
M  V30 3935 O 382.204 1.58252 -1.13078 0
M  V30 3936 C 382.487 -1.056 -3.44268 0
M  V30 3937 C 382.34 -2.57906 -3.68516 0
M  V30 3938 C 383.659 -0.603781 -4.35939 0
M  V30 3939 H 380.778 -0.24065 -0.696604 0
M  V30 3940 H 383.42 -1.22783 -1.44998 0
M  V30 3941 H 381.57 -0.571445 -3.84274 0
M  V30 3942 H 383.242 -3.13976 -3.3796 0
M  V30 3943 H 381.485 -3.00305 -3.13048 0
M  V30 3944 H 382.156 -2.80779 -4.75255 0
M  V30 3945 H 384.632 -1.01987 -4.03408 0
M  V30 3946 H 383.508 -0.910383 -5.41298 0
M  V30 3947 H 383.769 0.495761 -4.39312 0
M  V30 3948 N 382.828 1.3818 -0.7579 0
M  V30 3949 C 384.239 1.82726 -0.383134 0
M  V30 3950 C 384.59 1.63214 1.08884 0
M  V30 3951 O 383.715 1.13566 1.84205 0
M  V30 3952 C 384.31 3.31728 -0.688631 0
M  V30 3953 C 382.869 3.74606 -0.367091 0
M  V30 3954 C 382.016 2.60896 -0.939599 0
M  V30 3955 H 384.967 1.26847 -0.953699 0
M  V30 3956 H 384.988 3.80487 0.0316492 0
M  V30 3957 H 384.5 3.45898 -1.76001 0
M  V30 3958 H 382.601 3.66013 0.697532 0
M  V30 3959 H 382.714 4.71215 -0.865658 0
M  V30 3960 H 381.078 2.52075 -0.3647 0
M  V30 3961 H 381.861 2.77864 -2.0161 0
M  V30 3962 N 384.306 0.507319 1.49211 0
M  V30 3963 C 385.236 -0.256939 2.32082 0
M  V30 3964 C 386.217 -0.956609 1.40652 0
M  V30 3965 O 387.402 -0.946788 1.69557 0
M  V30 3966 C 384.532 -1.31802 3.21318 0
M  V30 3967 C 383.486 -0.737855 4.21592 0
M  V30 3968 C 382.812 -1.89992 4.99807 0
M  V30 3969 C 384.112 0.275325 5.21574 0
M  V30 3970 H 385.806 0.434798 2.96226 0
M  V30 3971 H 383.352 0.210546 1.42452 0
M  V30 3972 H 385.305 -1.86045 3.78107 0
M  V30 3973 H 384.029 -2.03903 2.5513 0
M  V30 3974 H 382.688 -0.217126 3.65956 0
M  V30 3975 H 382.336 -2.60877 4.30061 0
M  V30 3976 H 382.036 -1.51777 5.6766 0
M  V30 3977 H 383.56 -2.44657 5.59442 0
M  V30 3978 H 384.974 -0.179193 5.7302 0
M  V30 3979 H 383.371 0.573649 5.97352 0
M  V30 3980 H 384.441 1.18903 4.70096 0
M  V30 3981 N 385.784 -1.5574 0.241426 0
M  V30 3982 C 387.024 -2.00714 -0.38644 0
M  V30 3983 C 387.388 -1.12586 -1.55526 0
M  V30 3984 O 388.589 -1.46992 -2.25048 0
M  V30 3985 C 386.86 -3.48534 -0.791128 0
M  V30 3986 S 388.419 -4.15519 -1.41029 0
M  V30 3987 H 385.237 -0.700484 -0.121834 0
M  V30 3988 H 387.839 -1.92243 0.355377 0
M  V30 3989 H 386.543 -4.10342 0.0689225 0
M  V30 3990 H 386.074 -3.6092 -1.56526 0
M  V30 3991 H 388.089 -4.16352 -2.69936 0
M  V30 3992 N 387.262 0.0317525 -1.57568 0
M  V30 3993 C 388.192 1.03274 -2.0942 0
M  V30 3994 C 389.173 1.3788 -0.996143 0
M  V30 3995 O 390.358 1.46811 -1.27122 0
M  V30 3996 C 387.488 2.33448 -2.57137 0
M  V30 3997 C 386.442 2.13091 -3.71182 0
M  V30 3998 C 385.768 3.49001 -4.05095 0
M  V30 3999 C 387.068 1.51928 -4.99715 0
M  V30 4000 H 388.762 0.60112 -2.93303 0
M  V30 4001 H 386.308 0.287705 -1.41097 0
M  V30 4002 H 388.261 3.03802 -2.92032 0
M  V30 4003 H 386.985 2.78665 -1.70333 0
M  V30 4004 H 385.644 1.45171 -3.36632 0
M  V30 4005 H 385.292 3.91862 -3.15362 0
M  V30 4006 H 384.992 3.36207 -4.81911 0
M  V30 4007 H 386.516 4.20721 -4.42522 0
M  V30 4008 H 387.93 2.12196 -5.32584 0
M  V30 4009 H 386.327 1.49716 -5.81124 0
M  V30 4010 H 387.397 0.484811 -4.8247 0
M  V30 4011 N 388.74 1.54641 0.303973 0
M  V30 4012 C 390.151 1.64811 0.877163 0
M  V30 4013 C 390.502 0.554838 1.88191 0
M  V30 4014 O 389.627 -0.309033 2.14182 0
M  V30 4015 C 390.222 2.9876 1.59775 0
M  V30 4016 C 388.781 3.11061 2.11938 0
M  V30 4017 C 387.928 2.60479 0.951097 0
M  V30 4018 H 390.879 1.58493 0.0810486 0
M  V30 4019 H 390.9 2.90017 2.46314 0
M  V30 4020 H 390.412 3.7831 0.866226 0
M  V30 4021 H 388.513 2.36225 2.88146 0
M  V30 4022 H 388.626 4.17171 2.35595 0
M  V30 4023 H 386.99 2.16859 1.33583 0
M  V30 4024 H 387.773 3.42504 0.233581 0
M  V30 4025 N 390.218 -0.567019 1.47046 0
M  V30 4026 C 391.128 -1.70247 1.6141 0
M  V30 4027 C 392.144 -1.66746 0.497157 0
M  V30 4028 O 393.32 -1.86371 0.763389 0
M  V30 4029 C 390.385 -3.06756 1.61561 0
M  V30 4030 C 389.446 -3.21399 2.84607 0
M  V30 4031 C 388.679 -4.51396 2.84741 0
M  V30 4032 O 388.902 -5.36255 1.94388 0
M  V30 4033 O 387.836 -4.69621 3.76483 0
M  V30 4034 H 391.662 -1.61073 2.57467 0
M  V30 4035 H 389.247 -0.735894 1.30019 0
M  V30 4036 H 391.129 -3.8801 1.64396 0
M  V30 4037 H 389.804 -3.16333 0.686684 0
M  V30 4038 H 388.711 -2.39579 2.8732 0
M  V30 4039 H 390.044 -3.16721 3.76761 0
M  V30 4040 N 391.696 -1.35014 -0.812953 0
M  V30 4041 C 393.112 -1.14914 -1.10757 0
M  V30 4042 C 393.312 0.0426818 -2.01455 0
M  V30 4043 O 392.368 0.715212 -2.42159 0
M  V30 4044 C 393.681 -2.44911 -1.74468 0
M  V30 4045 C 395.229 -2.5106 -1.86917 0
M  V30 4046 C 395.704 -3.81085 -2.54044 0
M  V30 4047 N 397.195 -3.82301 -2.61535 0
M  V30 4048 C 397.93 -4.79634 -3.14227 0
M  V30 4049 N 397.426 -5.87353 -3.67407 0
M  V30 4050 N 399.219 -4.67078 -3.12721 0
M  V30 4051 H 391.37 -2.1136 -0.20989 0
M  V30 4052 H 393.633 -0.935128 -0.155692 0
M  V30 4053 H 393.339 -3.32267 -1.15289 0
M  V30 4054 H 393.213 -2.58989 -2.74234 0
M  V30 4055 H 395.6 -1.64137 -2.45241 0
M  V30 4056 H 395.681 -2.40901 -0.860242 0
M  V30 4057 H 395.325 -4.68402 -1.96372 0
M  V30 4058 H 395.255 -3.88529 -3.55461 0
M  V30 4059 H 397.746 -3.04465 -2.23851 0
M  V30 4060 H 398.059 -6.57624 -4.05894 0
M  V30 4061 H 396.404 -5.91054 -3.65623 0
M  V30 4062 H 399.595 -3.82067 -2.70449 0
M  V30 4063 H 399.768 -5.43098 -3.53481 0
M  V30 4064 N 393.175 1.03435 -1.18907 0
M  V30 4065 C 394.403 1.80381 -1.01342 0
M  V30 4066 C 394.818 1.83649 0.438005 0
M  V30 4067 O 394.175 1.27655 1.30424 0
M  V30 4068 C 394.226 3.25689 -1.56873 0
M  V30 4069 O 393.947 3.22673 -2.96334 0
M  V30 4070 C 395.448 4.19255 -1.44014 0
M  V30 4071 H 392.668 0.56784 -0.35749 0
M  V30 4072 H 395.212 1.30317 -1.576 0
M  V30 4073 H 393.367 3.72962 -1.04777 0
M  V30 4074 H 393.781 4.13748 -3.22355 0
M  V30 4075 H 395.255 5.19123 -1.87657 0
M  V30 4076 H 395.732 4.37467 -0.389815 0
M  V30 4077 H 396.338 3.77851 -1.95214 0
M  V30 4078 N 394.653 0.992116 1.22453 0
M  V30 4079 C 395.9 0.667534 1.91181 0
M  V30 4080 C 396.228 -0.800317 1.77271 0
M  V30 4081 O 395.483 -1.59421 1.13505 0
M  V30 4082 C 395.782 1.01832 3.42586 0
M  V30 4083 C 395.448 2.47831 3.76684 0
M  V30 4084 C 394.11 2.87729 3.85701 0
M  V30 4085 C 396.462 3.42466 3.92895 0
M  V30 4086 C 393.79 4.21252 4.08367 0
M  V30 4087 C 396.142 4.75648 4.17064 0
M  V30 4088 C 394.806 5.15288 4.24305 0
M  V30 4089 H 394.076 0.244268 0.699581 0
M  V30 4090 H 396.723 1.24816 1.45235 0
M  V30 4091 H 395.028 0.355769 3.90181 0
M  V30 4092 H 396.725 0.745228 3.94014 0
M  V30 4093 H 393.315 2.15905 3.70247 0
M  V30 4094 H 397.499 3.12814 3.85307 0
M  V30 4095 H 392.755 4.51554 4.122 0
M  V30 4096 H 396.929 5.48924 4.2855 0
M  V30 4097 H 394.556 6.18769 4.41621 0
M  V30 4098 N 396.131 -1.37776 0.765217 0
M  V30 4099 C 397.356 -2.04651 0.336537 0
M  V30 4100 C 397.781 -1.57337 -1.03086 0
M  V30 4101 O 397.139 -0.730621 -1.65927 0
M  V30 4102 C 397.187 -3.58577 0.381468 0
M  V30 4103 O 396.291 -4.07706 -0.62042 0
M  V30 4104 H 395.632 -0.64756 0.146838 0
M  V30 4105 H 398.162 -1.76221 1.03959 0
M  V30 4106 H 398.172 -4.07314 0.236448 0
M  V30 4107 H 396.847 -3.9237 1.37907 0
M  V30 4108 H 395.424 -3.70306 -0.439056 0
M  V30 4109 N 397.609 -0.515225 -1.4894 0
M  V30 4110 C 398.519 0.259774 -2.33157 0
M  V30 4111 C 399.535 0.953501 -1.45548 0
M  V30 4112 O 400.711 0.931735 -1.78552 0
M  V30 4113 C 397.776 1.30193 -3.21326 0
M  V30 4114 C 396.837 0.620129 -4.24797 0
M  V30 4115 C 396.07 1.61263 -5.08753 0
M  V30 4116 O 396.293 2.84389 -4.94448 0
M  V30 4117 O 395.227 1.16013 -5.90614 0
M  V30 4118 H 399.053 -0.429932 -3.00641 0
M  V30 4119 H 396.638 -0.276346 -1.46822 0
M  V30 4120 H 398.52 1.90455 -3.75905 0
M  V30 4121 H 397.195 1.97431 -2.56521 0
M  V30 4122 H 396.102 -0.0226019 -3.74093 0
M  V30 4123 H 397.435 -0.0100493 -4.92199 0
M  V30 4124 N 399.087 1.5561 -0.249682 0
M  V30 4125 C 400.503 1.59254 0.105103 0
M  V30 4126 C 400.703 1.26685 1.56694 0
M  V30 4127 O 399.759 1.0155 2.31179 0
M  V30 4128 C 401.072 2.99687 -0.246592 0
M  V30 4129 C 402.62 3.12416 -0.191118 0
M  V30 4130 C 403.095 4.55074 -0.516885 0
M  V30 4131 N 404.586 4.60835 -0.467489 0
M  V30 4132 C 405.321 5.69201 -0.69268 0
M  V30 4133 N 404.817 6.85817 -0.981146 0
M  V30 4134 N 406.61 5.58635 -0.623198 0
M  V30 4135 H 398.761 1.75049 -1.20298 0
M  V30 4136 H 401.024 0.815003 -0.484225 0
M  V30 4137 H 400.73 3.28267 -1.26228 0
M  V30 4138 H 400.604 3.74798 0.424962 0
M  V30 4139 H 402.991 2.83615 0.815247 0
M  V30 4140 H 403.072 2.39573 -0.896563 0
M  V30 4141 H 402.716 4.84596 -1.52082 0
M  V30 4142 H 402.646 5.26181 0.210068 0
M  V30 4143 H 405.137 3.7705 -0.253373 0
M  V30 4144 H 405.45 7.64341 -1.14032 0
M  V30 4145 H 403.795 6.87494 -1.01865 0
M  V30 4146 H 406.986 4.66406 -0.397863 0
M  V30 4147 H 407.159 6.43017 -0.802093 0
M  V30 4148 N 400.565 -0.0233959 1.57583 0
M  V30 4149 C 401.793 -0.724682 1.93794 0
M  V30 4150 C 402.208 -1.68588 0.849912 0
M  V30 4151 O 401.565 -1.81676 -0.173204 0
M  V30 4152 C 401.616 -1.47684 3.29957 0
M  V30 4153 O 401.337 -0.554222 4.3458 0
M  V30 4154 C 402.838 -2.27477 3.80485 0
M  V30 4155 H 400.058 -0.203317 0.639455 0
M  V30 4156 H 402.602 0.0207653 2.04489 0
M  V30 4157 H 400.757 -2.17412 3.20641 0
M  V30 4158 H 401.171 -1.08232 5.13212 0
M  V30 4159 H 402.645 -2.7564 4.78254 0
M  V30 4160 H 403.122 -3.09144 3.11972 0
M  V30 4161 H 403.728 -1.62813 3.92902 0
M  V30 4162 N 402.043 -1.548 -0.295768 0
M  V30 4163 C 402.973 -1.89115 -1.36959 0
M  V30 4164 C 403.954 -0.75059 -1.52644 0
M  V30 4165 O 405.139 -1.00678 -1.66065 0
M  V30 4166 C 402.269 -2.14307 -2.73295 0
M  V30 4167 C 401.223 -3.30151 -2.72368 0
M  V30 4168 C 400.549 -3.40772 -4.12042 0
M  V30 4169 C 401.849 -4.67126 -2.33646 0
M  V30 4170 H 403.543 -2.79053 -1.08488 0
M  V30 4171 H 401.089 -1.34266 -0.520443 0
M  V30 4172 H 403.042 -2.36898 -3.48507 0
M  V30 4173 H 401.766 -1.21145 -3.03301 0
M  V30 4174 H 400.425 -3.0749 -1.99613 0
M  V30 4175 H 400.073 -2.45117 -4.39234 0
M  V30 4176 H 399.773 -4.18645 -4.12322 0
M  V30 4177 H 401.297 -3.6563 -4.89027 0
M  V30 4178 H 402.711 -4.89414 -2.98575 0
M  V30 4179 H 401.108 -5.47751 -2.45129 0
M  V30 4180 H 402.178 -4.67489 -1.28772 0
M  V30 4181 N 403.521 0.559213 -1.47345 0
M  V30 4182 C 404.484 1.64854 -1.59235 0
M  V30 4183 C 405.484 1.53851 -0.467607 0
M  V30 4184 O 406.674 1.58045 -0.732617 0
M  V30 4185 C 403.806 3.04388 -1.53496 0
M  V30 4186 H 404.999 1.55662 -2.56339 0
M  V30 4187 H 402.552 0.778973 -1.35505 0
M  V30 4188 H 403.287 3.19115 -0.577604 0
M  V30 4189 H 403.072 3.13783 -2.35123 0
M  V30 4190 H 404.562 3.83642 -1.6495 0
M  V30 4191 N 404.999 1.35443 0.805782 0
M  V30 4192 C 406.246 1.28761 1.56291 0
M  V30 4193 C 406.574 -0.137747 1.94012 0
M  V30 4194 O 405.829 -1.1032 1.61642 0
M  V30 4195 C 406.128 2.14045 2.86216 0
M  V30 4196 C 405.794 3.62826 2.67709 0
M  V30 4197 C 404.456 4.0338 2.6237 0
M  V30 4198 C 406.808 4.57227 2.50186 0
M  V30 4199 C 404.136 5.36501 2.37451 0
M  V30 4200 C 406.488 5.90547 2.26797 0
M  V30 4201 C 405.152 6.30245 2.1988 0
M  V30 4202 H 404.422 0.471171 0.571908 0
M  V30 4203 H 407.069 1.67347 0.930974 0
M  V30 4204 H 405.374 1.68342 3.53791 0
M  V30 4205 H 407.071 2.0621 3.43917 0
M  V30 4206 H 403.661 3.30644 2.72713 0
M  V30 4207 H 407.845 4.2678 2.53323 0
M  V30 4208 H 403.101 5.66259 2.30567 0
M  V30 4209 H 407.275 6.63274 2.12228 0
M  V30 4210 H 404.902 7.33328 2.00333 0
M  V30 4211 N 406.477 -1.02803 1.19454 0
M  V30 4212 C 407.723 -1.76478 0.999171 0
M  V30 4213 C 408.056 -1.88456 -0.468828 0
M  V30 4214 O 407.331 -1.40198 -1.34814 0
M  V30 4215 C 407.614 -3.19044 1.66981 0
M  V30 4216 C 407.467 -3.14932 3.21151 0
M  V30 4217 C 408.786 -4.17456 1.39349 0
M  V30 4218 H 405.905 -0.640614 0.364393 0
M  V30 4219 H 408.547 -1.20005 1.47305 0
M  V30 4220 H 406.697 -3.67263 1.2669 0
M  V30 4221 H 408.369 -2.74605 3.70661 0
M  V30 4222 H 406.612 -2.52625 3.52652 0
M  V30 4223 H 407.283 -4.1566 3.63223 0
M  V30 4224 H 409.759 -3.77842 1.74283 0
M  V30 4225 H 408.635 -5.154 1.88823 0
M  V30 4226 H 408.896 -4.40949 0.318813 0
M  V30 4227 N 407.956 -0.998596 -1.21925 0
M  V30 4228 C 409.372 -0.710303 -1.42923 0
M  V30 4229 C 409.572 0.716933 -1.88314 0
M  V30 4230 O 408.628 1.48712 -2.04062 0
M  V30 4231 C 409.941 -1.72072 -2.466 0
M  V30 4232 C 411.489 -1.73681 -2.60392 0
M  V30 4233 C 411.964 -2.73601 -3.67296 0
M  V30 4234 N 413.455 -2.7223 -3.7476 0
M  V30 4235 C 414.19 -3.46206 -4.57087 0
M  V30 4236 N 413.686 -4.29802 -5.43362 0
M  V30 4237 N 415.479 -3.34886 -4.51451 0
M  V30 4238 H 407.63 -1.92028 -0.9077 0
M  V30 4239 H 409.893 -0.828487 -0.460775 0
M  V30 4240 H 409.599 -2.74231 -2.20206 0
M  V30 4241 H 409.473 -1.51818 -3.45299 0
M  V30 4242 H 411.86 -0.722173 -2.86127 0
M  V30 4243 H 411.941 -1.98005 -1.61949 0
M  V30 4244 H 411.585 -3.75217 -3.42307 0
M  V30 4245 H 411.515 -2.46545 -4.65321 0
M  V30 4246 H 414.006 -2.11576 -3.1312 0
M  V30 4247 H 414.319 -4.83061 -6.03218 0
M  V30 4248 H 412.664 -4.33887 -5.42925 0
M  V30 4249 H 415.855 -2.69015 -3.83078 0
M  V30 4250 H 416.028 -3.92796 -5.15379 0
M  V30 4251 N 409.434 1.37368 -0.772513 0
M  V30 4252 C 410.681 1.99673 -0.337182 0
M  V30 4253 C 411.009 1.61324 1.0865 0
M  V30 4254 O 410.264 0.851377 1.7621 0
M  V30 4255 C 410.563 3.54817 -0.428876 0
M  V30 4256 C 410.229 4.12936 -1.81092 0
M  V30 4257 C 408.891 4.28523 -2.1891 0
M  V30 4258 C 411.243 4.44801 -2.71664 0
M  V30 4259 C 408.571 4.73277 -3.46735 0
M  V30 4260 C 410.923 4.90981 -3.98899 0
M  V30 4261 C 409.587 5.04773 -4.36761 0
M  V30 4262 H 408.857 0.730656 -0.123384 0
M  V30 4263 H 411.504 1.64124 -0.986686 0
M  V30 4264 H 409.809 3.90618 0.304167 0
M  V30 4265 H 411.506 4.00933 -0.0733334 0
M  V30 4266 H 408.096 4.01233 -1.50699 0
M  V30 4267 H 412.28 4.32344 -2.43706 0
M  V30 4268 H 407.536 4.82142 -3.75964 0
M  V30 4269 H 411.71 5.14603 -4.69208 0
M  V30 4270 H 409.337 5.39211 -5.35868 0
M  V30 4271 N 410.912 0.523116 1.48665 0
M  V30 4272 C 412.137 -0.0117284 2.07397 0
M  V30 4273 C 412.562 -1.28031 1.37803 0
M  V30 4274 O 411.92 -1.75836 0.441762 0
M  V30 4275 C 411.968 -0.225786 3.59892 0
M  V30 4276 O 411.072 -1.29592 3.91509 0
M  V30 4277 H 410.413 0.0360673 0.66302 0
M  V30 4278 H 412.943 0.729066 1.9117 0
M  V30 4279 H 412.953 -0.450552 4.05505 0
M  V30 4280 H 411.628 0.700944 4.09951 0
M  V30 4281 H 410.205 -1.05436 3.57684 0
M  V30 4282 N 412.39 -1.55475 0.257931 0
M  V30 4283 C 413.32 -2.24815 -0.630912 0
M  V30 4284 C 414.301 -1.23224 -1.17259 0
M  V30 4285 O 415.486 -1.51904 -1.20991 0
M  V30 4286 C 412.616 -2.95609 -1.82298 0
M  V30 4287 C 411.57 -4.03982 -1.41359 0
M  V30 4288 C 410.896 -4.6226 -2.68738 0
M  V30 4289 C 412.196 -5.19109 -0.57648 0
M  V30 4290 H 413.89 -2.99354 -0.0526878 0
M  V30 4291 H 411.436 -1.4398 -0.023901 0
M  V30 4292 H 413.389 -3.42822 -2.45054 0
M  V30 4293 H 412.113 -2.18577 -2.42676 0
M  V30 4294 H 410.772 -3.57555 -0.809324 0
M  V30 4295 H 410.42 -3.81915 -3.27338 0
M  V30 4296 H 410.12 -5.35424 -2.42065 0
M  V30 4297 H 411.644 -5.12212 -3.32372 0
M  V30 4298 H 413.058 -5.62479 -1.10861 0
M  V30 4299 H 411.455 -5.98729 -0.405351 0
M  V30 4300 H 412.525 -4.83174 0.408776 0
M  V30 4301 N 413.868 0.0150385 -1.57593 0
M  V30 4302 C 415.114 0.704043 -1.90187 0
M  V30 4303 C 415.447 1.74249 -0.857366 0
M  V30 4304 O 414.722 1.94092 0.125843 0
M  V30 4305 C 415.005 1.36087 -3.33395 0
M  V30 4306 C 414.858 0.334981 -4.48551 0
M  V30 4307 C 416.177 2.29112 -3.7576 0
M  V30 4308 H 413.296 0.254475 -0.691673 0
M  V30 4309 H 415.938 -0.0331678 -1.89971 0
M  V30 4310 H 414.088 1.98922 -3.3371 0
M  V30 4311 H 415.76 -0.292534 -4.60372 0
M  V30 4312 H 414.003 -0.344325 -4.32431 0
M  V30 4313 H 414.674 0.833316 -5.45674 0
M  V30 4314 H 417.15 1.76308 -3.76902 0
M  V30 4315 H 416.026 2.72043 -4.76743 0
M  V30 4316 H 416.287 3.16385 -3.08793 0
M  V30 4317 N 415.346 1.54954 0.287554 0
M  V30 4318 C 416.571 1.79209 1.04397 0
M  V30 4319 C 416.996 0.556431 1.79682 0
M  V30 4320 O 416.354 -0.493518 1.74454 0
M  V30 4321 C 416.402 3.00739 1.98969 0
M  V30 4322 O 415.506 2.74805 3.075 0
M  V30 4323 H 414.847 0.592755 0.299227 0
M  V30 4324 H 417.377 2.02068 0.320886 0
M  V30 4325 H 417.387 3.29077 2.4119 0
M  V30 4326 H 416.062 3.90329 1.43582 0
M  V30 4327 H 414.639 2.57523 2.69697 0
M  V30 4328 N 416.824 -0.551391 1.4764 0
M  V30 4329 C 418.072 -1.30572 1.54258 0
M  V30 4330 C 418.393 -1.93877 0.208963 0
M  V30 4331 O 417.663 -1.80234 -0.767619 0
M  V30 4332 H 416.243 -0.484894 0.568231 0
M  V30 4333 H 418.905 -0.643402 1.83974 0
M  V30 4334 H 418.001 -2.09621 2.31226 0
M  V30 4335 N 418.302 -1.35869 -0.798587 0
M  V30 4336 C 419.548 -1.30788 -1.55775 0
M  V30 4337 C 419.903 0.114558 -1.92059 0
M  V30 4338 O 419.196 1.06691 -1.59147 0
M  V30 4339 C 419.39 -2.1556 -2.85077 0
M  V30 4340 C 419.219 -3.65904 -2.61428 0
M  V30 4341 C 417.989 -4.35112 -2.56915 0
M  V30 4342 C 420.187 -4.59375 -2.31255 0
M  V30 4343 N 418.169 -5.71155 -2.25068 0
M  V30 4344 C 419.54 -5.83598 -2.09316 0
M  V30 4345 C 421.595 -4.48035 -2.17185 0
M  V30 4346 C 420.298 -6.97755 -1.74731 0
M  V30 4347 C 422.324 -5.62049 -1.83998 0
M  V30 4348 C 421.686 -6.85305 -1.629 0
M  V30 4349 H 417.785 -0.533855 -0.571422 0
M  V30 4350 H 420.369 -1.7083 -0.934079 0
M  V30 4351 H 418.54 -1.77776 -3.45326 0
M  V30 4352 H 420.272 -2.01938 -3.50718 0
M  V30 4353 H 417.027 -3.87812 -2.71843 0
M  V30 4354 H 417.451 -6.42978 -2.11916 0
M  V30 4355 H 422.093 -3.53338 -2.3219 0
M  V30 4356 H 419.811 -7.92411 -1.58464 0
M  V30 4357 H 423.397 -5.55232 -1.73808 0
M  V30 4358 H 422.277 -7.72034 -1.37596 0
M  V30 4359 N 419.78 1.02168 -1.19998 0
M  V30 4360 C 421.028 1.75338 -1.00504 0
M  V30 4361 C 421.349 1.89387 0.464506 0
M  V30 4362 O 420.619 1.43268 1.33608 0
M  V30 4363 H 419.199 0.649564 -0.368885 0
M  V30 4364 H 421.861 1.23205 -1.51018 0
M  V30 4365 H 420.957 2.75892 -1.45912 0
M  V30 4366 N 421.258 1.00505 1.21394 0
M  V30 4367 C 422.19 0.52372 2.23136 0
M  V30 4368 C 423.203 -0.387714 1.58116 0
M  V30 4369 O 424.392 -0.187905 1.77508 0
M  V30 4370 C 421.492 -0.258885 3.3791 0
M  V30 4371 C 420.665 0.651634 4.32519 0
M  V30 4372 C 419.724 -0.0813705 5.26137 0
M  V30 4373 O 418.75 0.537295 5.66658 0
M  V30 4374 N 419.952 -1.35992 5.64346 0
M  V30 4375 H 422.717 1.39865 2.65062 0
M  V30 4376 H 420.278 0.881196 1.35818 0
M  V30 4377 H 422.27 -0.758208 3.97534 0
M  V30 4378 H 420.84 -1.035 2.94968 0
M  V30 4379 H 420.06 1.33145 3.71034 0
M  V30 4380 H 421.348 1.27129 4.92662 0
M  V30 4381 H 420.746 -1.88368 5.33417 0
M  V30 4382 H 419.303 -1.8042 6.26332 0
M  V30 4383 N 422.737 -1.36956 0.779787 0
M  V30 4384 C 423.667 -2.32761 0.185651 0
M  V30 4385 C 424.648 -1.56177 -0.673989 0
M  V30 4386 O 425.833 -1.84378 -0.609797 0
M  V30 4387 C 422.963 -3.40418 -0.687964 0
M  V30 4388 C 421.917 -4.27941 0.0710102 0
M  V30 4389 C 421.243 -5.26681 -0.922573 0
M  V30 4390 C 422.543 -5.07006 1.25467 0
M  V30 4391 H 424.237 -2.82698 0.986008 0
M  V30 4392 H 421.783 -1.3592 0.475592 0
M  V30 4393 H 423.736 -4.06423 -1.11348 0
M  V30 4394 H 422.46 -2.89025 -1.52093 0
M  V30 4395 H 421.119 -3.63478 0.47739 0
M  V30 4396 H 420.767 -4.71565 -1.7503 0
M  V30 4397 H 420.467 -5.86103 -0.419237 0
M  V30 4398 H 421.991 -5.9556 -1.34686 0
M  V30 4399 H 423.405 -5.66105 0.905401 0
M  V30 4400 H 421.802 -5.75793 1.69063 0
M  V30 4401 H 422.872 -4.3921 2.05481 0
M  V30 4402 N 424.215 -0.530993 -1.48385 0
M  V30 4403 C 425.145 0.219985 -2.32461 0
M  V30 4404 C 426.126 0.934111 -1.42156 0
M  V30 4405 O 427.311 0.919694 -1.71042 0
M  V30 4406 C 424.441 1.26674 -3.23375 0
M  V30 4407 C 423.395 0.67069 -4.22712 0
M  V30 4408 C 422.721 1.82017 -5.02766 0
M  V30 4409 C 424.021 -0.358268 -5.2107 0
M  V30 4410 H 425.715 -0.48187 -2.95497 0
M  V30 4411 H 423.261 -0.233182 -1.42099 0
M  V30 4412 H 425.214 1.80006 -3.81019 0
M  V30 4413 H 423.938 1.99818 -2.58341 0
M  V30 4414 H 422.597 0.158878 -3.66256 0
M  V30 4415 H 422.245 2.54002 -4.34157 0
M  V30 4416 H 421.945 1.42727 -5.70003 0
M  V30 4417 H 423.469 2.35725 -5.63264 0
M  V30 4418 H 424.883 0.0880081 -5.73232 0
M  V30 4419 H 423.28 -0.66861 -5.96364 0
M  V30 4420 H 424.35 -1.26367 -4.68145 0
M  V30 4421 N 425.693 1.55336 -0.266172 0
M  V30 4422 C 426.97 1.91372 0.404486 0
M  V30 4423 C 427.35 1.18935 1.74407 0
M  V30 4424 O 426.698 0.3132 2.26343 0
M  V30 4425 C 426.908 3.44581 0.553593 0
M  V30 4426 C 428.256 4.16196 0.840618 0
M  V30 4427 O 429.28 3.50426 0.638739 0
M  V30 4428 O 428.139 5.32567 1.22618 0
M  V30 4429 H 425.233 0.797194 0.220025 0
M  V30 4430 H 427.779 1.66813 -0.311664 0
M  V30 4431 H 426.551 3.89357 -0.389498 0
M  V30 4432 H 426.174 3.75065 1.31955 0
M  V30 4433 N 427.171 -0.0066808 1.57599 0
M  V30 4434 C 428.587 -0.36267 1.55425 0
M  V30 4435 C 428.787 -1.75209 0.995187 0
M  V30 4436 O 427.843 -2.44616 0.626058 0
M  V30 4437 C 429.156 -0.244017 2.99708 0
M  V30 4438 C 430.704 -0.319451 3.11366 0
M  V30 4439 C 431.179 -0.229998 4.57422 0
M  V30 4440 N 432.67 -0.288105 4.62303 0
M  V30 4441 C 433.405 -0.242127 5.72889 0
M  V30 4442 N 432.901 -0.147133 6.92644 0
M  V30 4443 N 434.694 -0.293502 5.61333 0
M  V30 4444 H 426.845 0.902314 1.92281 0
M  V30 4445 H 429.108 0.34525 0.882896 0
M  V30 4446 H 428.814 0.711678 3.44424 0
M  V30 4447 H 428.688 -1.02877 3.629 0
M  V30 4448 H 431.075 -1.26559 2.66584 0
M  V30 4449 H 431.156 0.495055 2.50964 0
M  V30 4450 H 430.8 0.712566 5.02877 0
M  V30 4451 H 430.73 -1.0629 5.15761 0
M  V30 4452 H 433.221 -0.363126 3.76151 0
M  V30 4453 H 433.534 -0.117763 7.7271 0
M  V30 4454 H 431.879 -0.112857 6.94908 0
M  V30 4455 H 435.07 -0.365864 4.66668 0
M  V30 4456 H 435.243 -0.254204 6.47501 0
M  V30 4457 N 428.649 -1.55105 -0.279332 0
M  V30 4458 C 429.897 -1.75066 -1.00977 0
M  V30 4459 C 430.218 -0.551276 -1.87045 0
M  V30 4460 O 429.488 0.433984 -1.91032 0
M  V30 4461 H 428.068 -0.645578 -0.375816 0
M  V30 4462 H 430.73 -1.92497 -0.305089 0
M  V30 4463 H 429.826 -2.64894 -1.65038 0
M  V30 4464 N 430.127 0.543554 -1.4793 0
M  V30 4465 C 431.09 1.63156 -1.60975 0
M  V30 4466 C 432.09 1.53346 -0.483899 0
M  V30 4467 O 433.28 1.5726 -0.749339 0
M  V30 4468 C 430.412 3.02743 -1.56716 0
M  V30 4469 H 431.605 1.52934 -2.57975 0
M  V30 4470 H 429.158 0.764557 -1.36324 0
M  V30 4471 H 429.893 3.18484 -0.611418 0
M  V30 4472 H 429.678 3.11272 -2.38438 0
M  V30 4473 H 431.168 3.81871 -1.6901 0
M  V30 4474 N 431.605 1.3629 0.791371 0
M  V30 4475 C 432.833 1.33562 1.58016 0
M  V30 4476 C 433.248 -0.0835616 1.88615 0
M  V30 4477 O 432.605 -1.0399 1.49974 0
M  V30 4478 C 432.656 2.15517 2.90232 0
M  V30 4479 O 432.377 3.51902 2.60953 0
M  V30 4480 C 433.878 2.20546 3.84544 0
M  V30 4481 H 431.098 0.458226 0.490173 0
M  V30 4482 H 433.642 1.79361 0.982345 0
M  V30 4483 H 431.797 1.73278 3.46487 0
M  V30 4484 H 432.211 3.94644 3.4548 0
M  V30 4485 H 433.685 2.82252 4.74382 0
M  V30 4486 H 434.162 1.20838 4.2225 0
M  V30 4487 H 434.768 2.63013 3.34222 0
M  V30 4488 N 433.083 -1.0153 1.20538 0
M  V30 4489 C 434.046 -2.0826 0.957098 0
M  V30 4490 C 435.046 -1.60657 -0.0678655 0
M  V30 4491 O 436.236 -1.73385 0.168332 0
M  V30 4492 C 433.368 -3.38033 0.441188 0
M  V30 4493 H 434.561 -2.31719 1.90384 0
M  V30 4494 H 432.114 -1.1835 1.02093 0
M  V30 4495 H 432.849 -3.20249 -0.510961 0
M  V30 4496 H 432.634 -3.73911 1.18038 0
M  V30 4497 H 434.124 -4.16613 0.287009 0
M  V30 4498 N 434.561 -1.01147 -1.20859 0
M  V30 4499 C 435.491 -0.597663 -2.25722 0
M  V30 4500 C 436.472 0.384744 -1.65692 0
M  V30 4501 O 437.657 0.271303 -1.92296 0
M  V30 4502 C 434.787 0.0700149 -3.47229 0
M  V30 4503 C 433.741 -0.832843 -4.19819 0
M  V30 4504 C 433.067 -0.0312202 -5.34691 0
M  V30 4505 C 434.367 -2.1385 -4.76514 0
M  V30 4506 H 436.061 -1.47423 -2.60589 0
M  V30 4507 H 433.607 -0.710301 -1.25263 0
M  V30 4508 H 435.56 0.37103 -4.19763 0
M  V30 4509 H 434.284 0.981259 -3.11511 0
M  V30 4510 H 432.943 -1.11778 -3.49144 0
M  V30 4511 H 432.591 0.881515 -4.95215 0
M  V30 4512 H 432.291 -0.632434 -5.84187 0
M  V30 4513 H 433.815 0.26346 -6.10031 0
M  V30 4514 H 435.229 -1.9002 -5.40893 0
M  V30 4515 H 433.626 -2.69012 -5.36426 0
M  V30 4516 H 434.696 -2.80495 -3.95538 0
M  V30 4517 N 436.039 1.36541 -0.78704 0
M  V30 4518 C 436.949 2.3387 -0.184896 0
M  V30 4519 C 437.965 1.60927 0.661697 0
M  V30 4520 O 439.141 1.92927 0.57804 0
M  V30 4521 C 436.206 3.40122 0.672145 0
M  V30 4522 C 435.267 4.28867 -0.19267 0
M  V30 4523 C 434.5 5.30045 0.623561 0
M  V30 4524 O 434.723 5.39232 1.8597 0
M  V30 4525 O 433.657 6.01895 0.0247068 0
M  V30 4526 H 437.483 2.87126 -0.989562 0
M  V30 4527 H 435.068 1.38969 -0.548455 0
M  V30 4528 H 436.95 4.05093 1.16094 0
M  V30 4529 H 435.625 2.89169 1.45474 0
M  V30 4530 H 434.532 3.66945 -0.728166 0
M  V30 4531 H 435.865 4.83165 -0.938722 0
M  V30 4532 N 437.518 0.538854 1.48102 0
M  V30 4533 C 438.448 -0.207654 2.32575 0
M  V30 4534 C 439.429 -0.926559 1.4265 0
M  V30 4535 O 440.614 -0.91061 1.71527 0
M  V30 4536 C 437.744 -1.24957 3.24042 0
M  V30 4537 C 436.698 -0.648263 4.23062 0
M  V30 4538 C 436.024 -1.79348 5.03725 0
M  V30 4539 C 437.324 0.385897 5.20872 0
M  V30 4540 H 439.018 0.497534 2.95237 0
M  V30 4541 H 436.564 0.240715 1.41974 0
M  V30 4542 H 438.517 -1.77983 3.81969 0
M  V30 4543 H 437.241 -1.98446 2.59397 0
M  V30 4544 H 435.9 -0.139452 3.66335 0
M  V30 4545 H 435.548 -2.51696 4.35498 0
M  V30 4546 H 435.248 -1.39702 5.70751 0
M  V30 4547 H 436.772 -2.32735 5.64506 0
M  V30 4548 H 438.186 -0.057607 5.73271 0
M  V30 4549 H 436.583 0.700227 5.96001 0
M  V30 4550 H 437.653 1.28848 4.67468 0
M  V30 4551 N 438.996 -1.55193 0.274407 0
M  V30 4552 C 439.929 -2.18606 -0.654712 0
M  V30 4553 C 440.907 -1.14677 -1.15273 0
M  V30 4554 O 442.091 -1.43198 -1.22583 0
M  V30 4555 C 439.218 -2.80875 -1.89281 0
M  V30 4556 C 438.264 -3.981 -1.53032 0
M  V30 4557 S 439.097 -5.32025 -0.609107 0
M  V30 4558 C 440.253 -5.97761 -1.85559 0
M  V30 4559 H 440.486 -2.97074 -0.115894 0
M  V30 4560 H 438.019 -1.54288 0.05867 0
M  V30 4561 H 439.977 -3.17381 -2.60345 0
M  V30 4562 H 438.638 -2.02302 -2.40277 0
M  V30 4563 H 437.831 -4.40356 -2.45158 0
M  V30 4564 H 437.433 -3.63013 -0.899874 0
M  V30 4565 H 439.725 -6.16951 -2.7996 0
M  V30 4566 H 440.668 -6.92545 -1.47605 0
M  V30 4567 H 441.076 -5.27113 -2.02021 0
M  V30 4568 N 440.474 -0.00167713 -1.576 0
M  V30 4569 C 441.72 0.683832 -1.90923 0
M  V30 4570 C 442.053 1.7333 -0.875799 0
M  V30 4571 O 441.328 1.94215 0.10525 0
M  V30 4572 C 441.611 1.32543 -3.3482 0
M  V30 4573 C 441.464 0.287387 -4.48881 0
M  V30 4574 C 442.783 2.25114 -3.78169 0
M  V30 4575 H 439.902 0.247125 -0.694333 0
M  V30 4576 H 442.544 -0.0533149 -1.89925 0
M  V30 4577 H 440.694 1.95372 -3.35801 0
M  V30 4578 H 442.366 -0.341346 -4.60035 0
M  V30 4579 H 440.609 -0.39017 -4.32042 0
M  V30 4580 H 441.28 0.775393 -5.46527 0
M  V30 4581 H 443.756 1.723 -3.7875 0
M  V30 4582 H 442.632 2.66971 -4.79602 0
M  V30 4583 H 442.893 3.13092 -3.12131 0
M  V30 4584 N 441.952 1.55251 0.271103 0
M  V30 4585 C 442.882 1.9127 1.33933 0
M  V30 4586 C 443.863 0.77478 1.5143 0
M  V30 4587 O 445.048 1.03307 1.64442 0
M  V30 4588 C 442.178 2.18627 2.69851 0
M  V30 4589 C 441.132 3.34442 2.67081 0
M  V30 4590 C 440.458 3.47284 4.06569 0
M  V30 4591 C 441.758 4.70784 2.26185 0
M  V30 4592 H 443.452 2.80744 1.04035 0
M  V30 4593 H 440.998 1.35077 0.499017 0
M  V30 4594 H 442.951 2.42413 3.44694 0
M  V30 4595 H 441.675 1.25955 3.01335 0
M  V30 4596 H 440.334 3.10627 1.94695 0
M  V30 4597 H 439.982 2.52074 4.35279 0
M  V30 4598 H 439.682 4.25152 4.0561 0
M  V30 4599 H 441.206 3.73363 4.83148 0
M  V30 4600 H 442.62 4.94102 2.90751 0
M  V30 4601 H 441.017 5.51582 2.36384 0
M  V30 4602 H 442.087 4.69478 1.21319 0
M  V30 4603 N 443.43 -0.535701 1.48216 0
M  V30 4604 C 444.378 -1.66179 1.62749 0
M  V30 4605 C 445.372 -1.62034 0.49409 0
M  V30 4606 O 446.578 -1.6696 0.672624 0
M  V30 4607 H 442.953 -0.550244 0.512578 0
M  V30 4608 H 444.924 -1.51063 2.57337 0
M  V30 4609 C 443.673 -3.04471 1.67907 0
M  V30 4610 H 442.996 -3.08351 2.54479 0
M  V30 4611 H 444.436 -3.82894 1.82121 0
M  V30 4612 C 442.895 -3.34314 0.416596 0
M  V30 4613 O 443.425 -3.98905 -0.473014 0
M  V30 4614 N 441.631 -2.89149 0.290038 0
M  V30 4615 H 441.178 -2.36764 1.01493 0
M  V30 4616 H 441.136 -3.09486 -0.55367 0
M  V30 4617 N 444.908 -1.36708 -0.784132 0
M  V30 4618 C 446.154 -1.31426 -1.54451 0
M  V30 4619 C 446.487 0.10476 -1.93917 0
M  V30 4620 O 445.762 1.05934 -1.6312 0
M  V30 4621 C 446.045 -2.24189 -2.818 0
M  V30 4622 C 445.898 -3.74813 -2.48667 0
M  V30 4623 C 447.217 -2.15626 -3.83658 0
M  V30 4624 H 444.336 -0.478739 -0.560337 0
M  V30 4625 H 446.978 -1.67305 -0.900498 0
M  V30 4626 H 445.128 -1.93722 -3.36755 0
M  V30 4627 H 446.8 -4.15823 -1.99722 0
M  V30 4628 H 445.043 -3.93989 -1.81535 0
M  V30 4629 H 445.714 -4.35138 -3.39646 0
M  V30 4630 H 448.19 -2.42456 -3.38163 0
M  V30 4631 H 447.066 -2.82694 -4.70506 0
M  V30 4632 H 447.327 -1.14522 -4.27009 0
M  V30 4633 N 446.386 1.0089 -1.21074 0
M  V30 4634 C 447.797 1.56056 -1.02486 0
M  V30 4635 C 448.148 1.91728 0.416506 0
M  V30 4636 O 447.273 1.73066 1.29912 0
M  V30 4637 C 447.868 2.83563 -1.85411 0
M  V30 4638 C 446.427 3.3523 -1.71166 0
M  V30 4639 C 445.574 2.0846 -1.82865 0
M  V30 4640 H 448.525 0.831818 -1.35154 0
M  V30 4641 H 448.546 3.55286 -1.36205 0
M  V30 4642 H 448.058 2.57569 -2.9031 0
M  V30 4643 H 446.159 3.66167 -0.689361 0
M  V30 4644 H 446.272 4.06913 -2.52901 0
M  V30 4645 H 444.636 2.21275 -1.26132 0
M  V30 4646 H 445.419 1.84883 -2.89263 0
M  V30 4647 N 447.864 1.01787 1.20321 0
M  V30 4648 C 449.28 0.732951 1.41774 0
M  V30 4649 C 449.48 -0.686883 1.89431 0
M  V30 4650 O 448.536 -1.45446 2.06402 0
M  V30 4651 C 449.849 1.75973 2.43832 0
M  V30 4652 C 451.397 1.77802 2.57596 0
M  V30 4653 C 451.872 2.7941 3.62897 0
M  V30 4654 N 453.363 2.78157 3.70382 0
M  V30 4655 C 454.098 3.53434 4.51521 0
M  V30 4656 N 453.594 4.38392 5.36455 0
M  V30 4657 N 455.387 3.42026 4.46066 0
M  V30 4658 H 447.538 1.93447 0.877035 0
M  V30 4659 H 449.801 0.835712 0.447536 0
M  V30 4660 H 449.507 2.77699 2.15815 0
M  V30 4661 H 449.381 1.57292 3.4284 0
M  V30 4662 H 451.768 0.767602 2.84942 0
M  V30 4663 H 451.849 2.00557 1.58779 0
M  V30 4664 H 451.493 3.80616 3.36295 0
M  V30 4665 H 451.423 2.53916 4.61339 0
M  V30 4666 H 453.914 2.16531 3.09714 0
M  V30 4667 H 454.227 4.92596 5.95457 0
M  V30 4668 H 452.572 4.4247 5.35953 0
M  V30 4669 H 455.763 2.75075 3.78749 0
M  V30 4670 H 455.936 4.00946 5.09064 0
M  V30 4671 N 449.342 -1.36122 0.79427 0
M  V30 4672 C 450.272 -2.32551 0.210328 0
M  V30 4673 C 451.253 -1.56884 -0.657386 0
M  V30 4674 O 452.438 -1.85014 -0.590207 0
M  V30 4675 C 449.568 -3.41128 -0.651819 0
M  V30 4676 C 448.522 -4.27842 0.116395 0
M  V30 4677 C 447.848 -5.2763 -0.86666 0
M  V30 4678 C 449.148 -5.05647 1.30837 0
M  V30 4679 H 450.842 -2.81636 1.01594 0
M  V30 4680 H 448.388 -1.35407 0.489981 0
M  V30 4681 H 450.341 -4.07581 -1.07031 0
M  V30 4682 H 449.065 -2.90622 -1.49019 0
M  V30 4683 H 447.724 -3.62952 0.515915 0
M  V30 4684 H 447.372 -4.73395 -1.70019 0
M  V30 4685 H 447.072 -5.86514 -0.35705 0
M  V30 4686 H 448.596 -5.96955 -1.28361 0
M  V30 4687 H 450.01 -5.65113 0.965393 0
M  V30 4688 H 448.407 -5.73967 1.75161 0
M  V30 4689 H 449.477 -4.37006 2.10128 0
M  V30 4690 N 450.82 -0.546701 -1.47814 0
M  V30 4691 C 451.753 0.254472 -2.26777 0
M  V30 4692 C 452.731 0.929809 -1.33392 0
M  V30 4693 O 453.915 0.950889 -1.62759 0
M  V30 4694 C 451.042 1.36171 -3.10121 0
M  V30 4695 C 450.088 0.796038 -4.19005 0
M  V30 4696 S 450.921 -0.349191 -5.3436 0
M  V30 4697 C 452.077 0.760122 -6.21267 0
M  V30 4698 H 452.31 -0.415612 -2.94381 0
M  V30 4699 H 449.843 -0.332809 -1.5077 0
M  V30 4700 H 451.801 1.99588 -3.58713 0
M  V30 4701 H 450.462 2.00359 -2.41899 0
M  V30 4702 H 449.655 1.62719 -4.7701 0
M  V30 4703 H 449.257 0.238246 -3.7324 0
M  V30 4704 H 451.549 1.65479 -6.5698 0
M  V30 4705 H 452.492 0.217673 -7.07765 0
M  V30 4706 H 452.9 1.04806 -5.54685 0
M  V30 4707 N 452.299 1.55045 -0.282633 0
M  V30 4708 C 453.527 2.04168 0.33512 0
M  V30 4709 C 453.942 1.16071 1.48906 0
M  V30 4710 O 453.299 0.182391 1.81586 0
M  V30 4711 C 453.35 3.52332 0.808957 0
M  V30 4712 O 453.071 4.37078 -0.299038 0
M  V30 4713 C 454.572 4.17375 1.49375 0
M  V30 4714 H 451.792 0.666744 0.0754543 0
M  V30 4715 H 454.336 2.00205 -0.416918 0
M  V30 4716 H 452.491 3.56715 1.51106 0
M  V30 4717 H 452.905 5.24458 0.0665514 0
M  V30 4718 H 454.379 5.22627 1.77664 0
M  V30 4719 H 454.856 3.65999 2.42778 0
M  V30 4720 H 455.462 4.17016 0.835305 0
M  V30 4721 N 453.777 0.010035 1.57597 0
M  V30 4722 C 454.709 -1.00649 2.05918 0
M  V30 4723 C 455.722 -1.30077 0.978964 0
M  V30 4724 O 456.911 -1.26878 1.25556 0
M  V30 4725 C 454.011 -2.33876 2.45265 0
M  V30 4726 C 453.184 -2.23242 3.7614 0
M  V30 4727 C 452.243 -3.39242 4.02245 0
M  V30 4728 O 451.269 -3.1698 4.72771 0
M  V30 4729 N 452.471 -4.6242 3.50924 0
M  V30 4730 H 455.236 -0.594333 2.93748 0
M  V30 4731 H 452.797 -0.17714 1.60928 0
M  V30 4732 H 454.789 -3.1027 2.59836 0
M  V30 4733 H 453.359 -2.66799 1.62902 0
M  V30 4734 H 452.579 -1.31696 3.71551 0
M  V30 4735 H 453.867 -2.13321 4.61922 0
M  V30 4736 H 453.265 -4.83404 2.93832 0
M  V30 4737 H 451.822 -5.36046 3.70807 0
M  V30 4738 N 455.255 -1.55392 -0.262866 0
M  V30 4739 C 456.532 -1.67204 -1.01499 0
M  V30 4740 C 456.912 -0.545186 -2.03939 0
M  V30 4741 O 456.26 0.453467 -2.23955 0
M  V30 4742 C 456.47 -3.06847 -1.6627 0
M  V30 4743 C 457.818 -3.64928 -2.17054 0
M  V30 4744 O 458.842 -3.09545 -1.76239 0
M  V30 4745 O 457.701 -4.61984 -2.91947 0
M  V30 4746 H 454.795 -0.679467 -0.471438 0
M  V30 4747 H 457.341 -1.67729 -0.257918 0
M  V30 4748 H 456.113 -3.80309 -0.920915 0
M  V30 4749 H 455.736 -3.10266 -2.48638 0
M  V30 4750 N 456.733 0.527833 -1.48498 0
M  V30 4751 C 457.973 1.29401 -1.58224 0
M  V30 4752 C 458.337 1.90348 -0.251327 0
M  V30 4753 O 459.538 2.67868 -0.223588 0
M  V30 4754 C 457.809 2.35266 -2.69044 0
M  V30 4755 S 459.368 3.2158 -2.98549 0
M  V30 4756 H 456.186 0.440138 -0.558391 0
M  V30 4757 H 458.788 0.601079 -1.8603 0
M  V30 4758 H 457.492 1.88975 -3.64303 0
M  V30 4759 H 457.023 3.09263 -2.43146 0
M  V30 4760 H 459.038 4.35391 -2.38011 0
M  V30 4761 N 458.211 1.37122 0.776871 0
M  V30 4762 C 459.141 1.35164 1.90402 0
M  V30 4763 C 460.122 0.221069 1.68657 0
M  V30 4764 O 461.307 0.420642 1.8959 0
M  V30 4765 C 458.437 1.15274 3.27611 0
M  V30 4766 C 457.391 2.25289 3.63908 0
M  V30 4767 C 456.717 1.90527 4.99603 0
M  V30 4768 C 458.017 3.67446 3.71188 0
M  V30 4769 H 459.711 2.29482 1.92297 0
M  V30 4770 H 457.257 1.10465 0.923773 0
M  V30 4771 H 459.21 1.12536 4.06096 0
M  V30 4772 H 457.934 0.174102 3.26136 0
M  V30 4773 H 456.593 2.27174 2.87728 0
M  V30 4774 H 456.241 0.91206 4.94662 0
M  V30 4775 H 455.941 2.64193 5.24858 0
M  V30 4776 H 457.465 1.89367 5.80493 0
M  V30 4777 H 458.879 3.67719 4.39836 0
M  V30 4778 H 457.276 4.40123 4.07936 0
M  V30 4779 H 458.346 4.01443 2.71977 0
M  V30 4780 N 459.689 -1.00246 1.21608 0
M  V30 4781 C 460.621 -2.09244 0.935401 0
M  V30 4782 C 461.634 -1.62592 -0.0823594 0
M  V30 4783 O 462.823 -1.77865 0.150456 0
M  V30 4784 C 459.923 -3.36724 0.383453 0
M  V30 4785 C 459.096 -4.1245 1.45615 0
M  V30 4786 C 458.155 -5.18219 0.912991 0
M  V30 4787 O 457.181 -5.46337 1.59701 0
M  V30 4788 N 458.383 -5.7987 -0.270478 0
M  V30 4789 H 461.148 -2.33905 1.87373 0
M  V30 4790 H 458.709 -1.16748 1.12167 0
M  V30 4791 H 460.701 -4.047 0.00562157 0
M  V30 4792 H 459.271 -3.09201 -0.459758 0
M  V30 4793 H 458.491 -3.39241 2.00772 0
M  V30 4794 H 459.779 -4.59819 2.17817 0
M  V30 4795 H 459.177 -5.59381 -0.843195 0
M  V30 4796 H 457.734 -6.49126 -0.589794 0
M  V30 4797 N 461.167 -1.02423 -1.1978 0
M  V30 4798 C 462.099 -0.559152 -2.22275 0
M  V30 4799 C 463.112 0.36251 -1.58713 0
M  V30 4800 O 464.301 0.159641 -1.77785 0
M  V30 4801 C 461.401 0.205094 -3.38279 0
M  V30 4802 C 460.574 -0.720361 -4.31427 0
M  V30 4803 C 459.633 -0.00234368 -5.262 0
M  V30 4804 O 458.659 -0.627378 -5.65732 0
M  V30 4805 N 459.861 1.26996 -5.66438 0
M  V30 4806 H 462.626 -1.44064 -2.62804 0
M  V30 4807 H 460.187 -0.902692 -1.34399 0
M  V30 4808 H 462.179 0.694868 -3.9869 0
M  V30 4809 H 460.749 0.987947 -2.96578 0
M  V30 4810 H 459.969 -1.39031 -3.68869 0
M  V30 4811 H 461.257 -1.3495 -4.90577 0
M  V30 4812 H 460.655 1.79858 -5.36347 0
M  V30 4813 H 459.212 1.70432 -6.29123 0
M  V30 4814 N 462.645 1.35699 -0.801477 0
M  V30 4815 C 463.87 2.03687 -0.390678 0
M  V30 4816 C 464.295 1.60015 0.988778 0
M  V30 4817 O 463.653 0.774357 1.63931 0
M  V30 4818 C 463.701 3.57439 -0.476404 0
M  V30 4819 O 462.805 4.09208 0.512106 0
M  V30 4820 H 462.146 0.64344 -0.163956 0
M  V30 4821 H 464.676 1.73403 -1.08594 0
M  V30 4822 H 464.686 4.06544 -0.344357 0
M  V30 4823 H 463.361 3.88576 -1.48262 0
M  V30 4824 H 461.938 3.7134 0.340721 0
M  V30 4825 N 464.123 0.554532 1.47522 0
M  V30 4826 C 465.539 0.214107 1.58157 0
M  V30 4827 C 465.739 -1.28331 1.55349 0
M  V30 4828 O 464.795 -2.06329 1.45549 0
M  V30 4829 C 466.108 0.838391 2.88776 0
M  V30 4830 C 467.656 0.809374 3.02354 0
M  V30 4831 C 468.131 1.41268 4.35669 0
M  V30 4832 N 469.622 1.37574 4.42298 0
M  V30 4833 C 470.357 1.8122 5.4401 0
M  V30 4834 N 469.853 2.3271 6.52547 0
M  V30 4835 N 471.646 1.72307 5.35039 0
M  V30 4836 H 463.797 1.52744 1.4759 0
M  V30 4837 H 466.06 0.636812 0.702264 0
M  V30 4838 H 465.766 1.89065 2.96559 0
M  V30 4839 H 465.64 0.329847 3.75755 0
M  V30 4840 H 468.027 -0.234187 2.94169 0
M  V30 4841 H 468.108 1.35565 2.16924 0
M  V30 4842 H 467.752 2.45529 4.4461 0
M  V30 4843 H 467.682 0.841871 5.19827 0
M  V30 4844 H 470.173 0.999081 3.64454 0
M  V30 4845 H 470.486 2.63944 7.26329 0
M  V30 4846 H 468.831 2.36719 6.53444 0
M  V30 4847 H 472.022 1.3186 4.49144 0
M  V30 4848 H 472.195 2.06641 6.14169 0
M  V30 4849 N 465.601 -1.54893 0.290851 0
M  V30 4850 C 466.548 -2.23138 -0.58974 0
M  V30 4851 C 467.518 -1.21036 -1.13752 0
M  V30 4852 O 468.703 -1.49626 -1.18392 0
M  V30 4853 C 465.843 -2.96811 -1.76061 0
M  V30 4854 C 464.956 -4.13665 -1.24519 0
M  V30 4855 C 464.091 -4.74944 -2.3791 0
M  V30 4856 C 463.13 -5.83963 -1.83451 0
M  V30 4857 N 462.267 -6.39239 -2.90376 0
M  V30 4858 H 467.107 -2.98 -0.00114915 0
M  V30 4859 H 464.644 -1.47096 0.0112006 0
M  V30 4860 H 466.602 -3.37751 -2.44909 0
M  V30 4861 H 465.232 -2.24344 -2.32098 0
M  V30 4862 H 464.284 -3.77737 -0.449288 0
M  V30 4863 H 465.596 -4.92238 -0.806424 0
M  V30 4864 H 464.75 -5.18684 -3.14724 0
M  V30 4865 H 463.489 -3.95682 -2.85109 0
M  V30 4866 H 462.494 -5.39657 -1.05122 0
M  V30 4867 H 463.719 -6.65103 -1.37169 0
M  V30 4868 H 461.665 -5.62864 -3.36927 0
M  V30 4869 H 461.582 -7.13129 -2.50965 0
M  V30 4870 H 462.85 -6.87637 -3.67118 0
M  V30 4871 N 467.08 -0.0183926 -1.57589 0
M  V30 4872 C 468.326 0.663543 -1.91638 0
M  V30 4873 C 468.659 1.72392 -0.894134 0
M  V30 4874 O 467.934 1.94316 0.0846449 0
M  V30 4875 C 468.217 1.28984 -3.36207 0
M  V30 4876 C 468.07 0.239761 -4.49161 0
M  V30 4877 C 469.389 2.2109 -3.80536 0
M  V30 4878 H 466.508 0.239746 -0.696915 0
M  V30 4879 H 469.15 -0.073456 -1.89858 0
M  V30 4880 H 467.3 1.91799 -3.37854 0
M  V30 4881 H 468.972 -0.390119 -4.59647 0
M  V30 4882 H 467.215 -0.435972 -4.31604 0
M  V30 4883 H 467.886 0.717383 -5.47319 0
M  V30 4884 H 470.362 1.68273 -3.80557 0
M  V30 4885 H 469.238 2.61869 -4.82406 0
M  V30 4886 H 469.499 3.09764 -3.15434 0
M  V30 4887 N 468.558 1.5553 0.254621 0
M  V30 4888 C 469.806 1.7665 0.981793 0
M  V30 4889 C 470.127 0.580963 1.86145 0
M  V30 4890 O 469.397 -0.403537 1.91699 0
M  V30 4891 H 467.977 0.651475 0.365498 0
M  V30 4892 H 470.639 1.92958 0.274426 0
M  V30 4893 H 469.735 2.67486 1.60802 0
M  V30 4894 N 470.036 -0.519951 1.48776 0
M  V30 4895 C 471.313 -1.28123 1.47797 0
M  V30 4896 C 471.693 -2.10196 0.195157 0
M  V30 4897 O 471.041 -2.13167 -0.822925 0
M  V30 4898 C 471.251 -2.15413 2.74587 0
M  V30 4899 C 472.599 -2.75225 3.23321 0
M  V30 4900 O 473.623 -2.25694 2.75574 0
M  V30 4901 O 472.482 -3.65346 4.06429 0
M  V30 4902 H 469.576 -0.578793 0.590701 0
M  V30 4903 H 472.122 -0.535779 1.6102 0
M  V30 4904 H 470.894 -1.54617 3.59457 0
M  V30 4905 H 470.517 -2.97186 2.64132 0
M  V30 4906 N 471.514 -1.37532 -0.769588 0
M  V30 4907 C 472.739 -1.36231 -1.56384 0
M  V30 4908 C 473.164 0.0495849 -1.88035 0
M  V30 4909 O 472.522 1.02723 -1.49391 0
M  V30 4910 C 472.57 -2.20986 -2.84952 0
M  V30 4911 O 471.674 -1.61597 -3.79421 0
M  V30 4912 H 471.015 -0.465387 -0.473615 0
M  V30 4913 H 473.545 -1.81085 -0.952342 0
M  V30 4914 H 473.555 -2.34277 -3.34034 0
M  V30 4915 H 472.23 -3.23612 -2.61243 0
M  V30 4916 H 470.807 -1.57359 -3.38072 0
M  V30 4917 N 472.992 0.995999 -1.22138 0
M  V30 4918 C 474.403 1.54961 -1.04135 0
M  V30 4919 C 474.754 1.92159 0.396147 0
M  V30 4920 O 473.879 1.74435 1.28069 0
M  V30 4921 C 474.474 2.81581 -1.88408 0
M  V30 4922 C 473.033 3.33396 -1.74712 0
M  V30 4923 C 472.18 2.06509 -1.85066 0
M  V30 4924 H 475.131 0.817436 -1.36028 0
M  V30 4925 H 475.152 3.53822 -1.39966 0
M  V30 4926 H 474.664 2.54476 -2.93025 0
M  V30 4927 H 472.765 3.65416 -0.728159 0
M  V30 4928 H 472.878 4.04208 -2.57202 0
M  V30 4929 H 471.242 2.19925 -1.28472 0
M  V30 4930 H 472.025 1.81804 -2.91208 0
M  V30 4931 N 474.47 1.03057 1.19235 0
M  V30 4932 C 475.418 0.606391 2.24557 0
M  V30 4933 C 476.412 -0.361826 1.65491 0
M  V30 4934 O 477.618 -0.23022 1.78522 0
M  V30 4935 H 473.993 0.177838 0.730669 0
M  V30 4936 H 475.964 1.50529 2.5765 0
M  V30 4937 C 474.713 -0.0252127 3.47691 0
M  V30 4938 H 474.036 0.710838 3.9343 0
M  V30 4939 H 475.476 -0.284931 4.23042 0
M  V30 4940 C 473.935 -1.27229 3.11953 0
M  V30 4941 O 474.465 -2.36416 3.24762 0
M  V30 4942 N 472.671 -1.16169 2.6637 0
M  V30 4943 H 472.218 -0.273189 2.56147 0
M  V30 4944 H 472.176 -1.99703 2.42829 0
M  V30 4945 N 475.948 -1.35272 0.808662 0
M  V30 4946 C 477.197 -1.97963 0.386483 0
M  V30 4947 C 477.51 -1.64866 -1.05255 0
M  V30 4948 O 478.716 -2.20937 -1.57794 0
M  V30 4949 C 477.172 -3.54162 0.640096 0
M  V30 4950 C 476.78 -3.96166 2.0918 0
M  V30 4951 C 478.524 -4.23553 0.283376 0
M  V30 4952 C 476.431 -5.4522 2.29106 0
M  V30 4953 H 475.361 -0.740742 0.140774 0
M  V30 4954 H 478.012 -1.5431 0.993012 0
M  V30 4955 H 476.394 -3.95983 -0.0364117 0
M  V30 4956 H 477.568 -3.65491 2.80629 0
M  V30 4957 H 475.883 -3.3967 2.40859 0
M  V30 4958 H 478.48 -5.33124 0.410273 0
M  V30 4959 H 478.823 -4.09105 -0.770659 0
M  V30 4960 H 479.356 -3.8716 0.913884 0
M  V30 4961 H 476.095 -5.64638 3.32962 0
M  V30 4962 H 475.615 -5.77457 1.62184 0
M  V30 4963 H 477.294 -6.1171 2.1076 0
M  V30 4964 N 477.426 -0.562348 -1.47226 0
M  V30 4965 C 478.654 -0.0452275 -2.06851 0
M  V30 4966 C 479.069 1.25078 -1.41424 0
M  V30 4967 O 478.426 1.75156 -0.512513 0
M  V30 4968 C 478.477 0.148674 -3.61194 0
M  V30 4969 O 478.198 -1.09602 -4.24169 0
M  V30 4970 C 479.699 0.702488 -4.37699 0
M  V30 4971 H 476.919 -0.0481775 -0.669268 0
M  V30 4972 H 479.463 -0.777223 -1.89155 0
M  V30 4973 H 477.618 0.830817 -3.78386 0
M  V30 4974 H 478.032 -0.896982 -5.16773 0
M  V30 4975 H 479.506 0.78743 -5.46355 0
M  V30 4976 H 479.983 1.71493 -4.04335 0
M  V30 4977 H 480.589 0.0558772 -4.25263 0
M  V30 4978 N 478.904 1.54736 -0.299062 0
M  V30 4979 C 479.814 2.27127 0.587413 0
M  V30 4980 C 480.83 1.30575 1.15005 0
M  V30 4981 O 482.006 1.63554 1.17525 0
M  V30 4982 C 479.071 2.99645 1.74395 0
M  V30 4983 C 478.132 4.11731 1.21559 0
M  V30 4984 C 477.365 4.80781 2.317 0
M  V30 4985 O 477.588 4.4918 3.51558 0
M  V30 4986 O 476.522 5.68226 1.98501 0
M  V30 4987 H 480.348 3.037 0.000250109 0
M  V30 4988 H 477.933 1.49256 -0.0655919 0
M  V30 4989 H 479.815 3.45138 2.4178 0
M  V30 4990 H 478.49 2.25969 2.31775 0
M  V30 4991 H 477.397 3.70641 0.507514 0
M  V30 4992 H 478.73 4.87379 0.687233 0
M  V30 4993 N 480.382 0.0267497 1.57577 0
M  V30 4994 C 481.612 -0.6617 1.95717 0
M  V30 4995 C 482.02 -1.66331 0.901706 0
M  V30 4996 O 481.363 -1.83273 -0.125241 0
M  V30 4997 C 481.425 -1.42649 3.29987 0
M  V30 4998 C 481.089 -0.583482 4.5326 0
M  V30 4999 C 482.086 0.140221 5.19711 0
M  V30 5000 C 479.771 -0.521581 4.99585 0
M  V30 5001 C 481.765 0.914523 6.30805 0
M  V30 5002 C 479.452 0.256428 6.10562 0
M  V30 5003 C 480.45 0.973189 6.76031 0
M  V30 5004 O 480.138 1.73845 7.84878 0
M  V30 5005 H 479.87 -0.187483 0.649481 0
M  V30 5006 H 482.424 0.0820847 2.05236 0
M  V30 5007 H 480.654 -2.21536 3.16952 0
M  V30 5008 H 482.343 -2.00282 3.53047 0
M  V30 5009 H 483.109 0.101716 4.84893 0
M  V30 5010 H 478.988 -1.06904 4.48433 0
M  V30 5011 H 482.532 1.4745 6.81839 0
M  V30 5012 H 478.429 0.296657 6.44818 0
M  V30 5013 H 479.197 1.65797 8.01532 0
M  V30 5014 N 481.861 -1.55662 -0.24637 0
M  V30 5015 C 482.794 -1.85332 -1.33143 0
M  V30 5016 C 483.772 -0.708464 -1.46354 0
M  V30 5017 O 484.956 -0.954274 -1.6256 0
M  V30 5018 C 482.083 -2.0385 -2.70487 0
M  V30 5019 C 481.129 -3.26488 -2.74423 0
M  V30 5020 S 481.962 -4.83124 -2.30979 0
M  V30 5021 C 483.118 -5.04647 -3.70246 0
M  V30 5022 H 483.351 -2.77077 -1.07777 0
M  V30 5023 H 480.884 -1.47776 -0.44738 0
M  V30 5024 H 482.842 -2.15202 -3.49569 0
M  V30 5025 H 481.503 -1.12947 -2.9309 0
M  V30 5026 H 480.696 -3.36413 -3.7529 0
M  V30 5027 H 480.298 -3.13864 -2.03385 0
M  V30 5028 H 482.59 -4.92023 -4.65746 0
M  V30 5029 H 483.533 -6.06625 -3.65255 0
M  V30 5030 H 483.941 -4.32491 -3.62784 0
M  V30 5031 N 483.339 0.512053 -1.4905 0
M  V30 5032 C 484.586 1.26686 -1.57978 0
M  V30 5033 C 484.914 1.92733 -0.261553 0
M  V30 5034 O 484.169 1.80772 0.749667 0
M  V30 5035 C 484.468 2.36446 -2.68008 0
M  V30 5036 C 484.134 1.87932 -4.09869 0
M  V30 5037 C 482.796 1.74419 -4.48477 0
M  V30 5038 C 485.148 1.5149 -4.98698 0
M  V30 5039 C 482.476 1.22827 -5.73699 0
M  V30 5040 C 484.828 1.01355 -6.24428 0
M  V30 5041 C 483.492 0.864735 -6.61875 0
M  V30 5042 H 482.762 0.463577 -0.578081 0
M  V30 5043 H 485.409 0.569421 -1.82838 0
M  V30 5044 H 483.714 3.11933 -2.37076 0
M  V30 5045 H 485.411 2.9453 -2.72127 0
M  V30 5046 H 482.001 1.99405 -3.79389 0
M  V30 5047 H 486.185 1.60782 -4.69535 0
M  V30 5048 H 481.441 1.10008 -6.01422 0
M  V30 5049 H 485.615 0.722351 -6.92644 0
M  V30 5050 H 483.242 0.462777 -7.5879 0
M  V30 5051 N 484.817 1.37938 0.762283 0
M  V30 5052 C 486.057 1.35076 1.53407 0
M  V30 5053 C 486.421 -0.061546 1.91901 0
M  V30 5054 O 487.622 -0.214973 2.67939 0
M  V30 5055 C 485.893 2.27206 2.75884 0
M  V30 5056 S 487.452 2.42283 3.65848 0
M  V30 5057 H 484.27 0.479387 0.52508 0
M  V30 5058 H 486.872 1.7378 0.895586 0
M  V30 5059 H 485.576 3.28724 2.457 0
M  V30 5060 H 485.107 1.8962 3.44685 0
M  V30 5061 H 487.122 1.64044 4.68299 0
M  V30 5062 N 486.295 -0.989507 1.22664 0
M  V30 5063 C 487.258 -2.06183 1.00106 0
M  V30 5064 C 488.258 -1.60765 -0.0337726 0
M  V30 5065 O 489.448 -1.72989 0.205072 0
M  V30 5066 C 486.58 -3.37021 0.51279 0
M  V30 5067 H 487.773 -2.27629 1.95256 0
M  V30 5068 H 485.326 -1.16158 1.0458 0
M  V30 5069 H 486.061 -3.21261 -0.442917 0
M  V30 5070 H 485.846 -3.71323 1.25942 0
M  V30 5071 H 487.336 -4.1591 0.375315 0
M  V30 5072 N 487.773 -1.03688 -1.18687 0
M  V30 5073 C 489.021 -0.736572 -1.88199 0
M  V30 5074 C 489.342 0.737665 -1.80509 0
M  V30 5075 O 488.612 1.53204 -1.22088 0
M  V30 5076 H 487.192 -0.269466 -0.696704 0
M  V30 5077 H 489.854 -1.31282 -1.44052 0
M  V30 5078 H 488.95 -1.03802 -2.94332 0
M  V30 5079 N 489.251 1.34841 -0.815825 0
M  V30 5080 C 490.481 2.02436 -0.412695 0
M  V30 5081 C 490.889 1.61604 0.983906 0
M  V30 5082 O 490.232 0.813729 1.64694 0
M  V30 5083 C 490.294 3.56953 -0.427182 0
M  V30 5084 C 489.958 4.21083 -1.77589 0
M  V30 5085 C 490.955 4.42107 -2.73564 0
M  V30 5086 C 488.64 4.58006 -2.06243 0
M  V30 5087 C 490.634 4.99169 -3.9637 0
M  V30 5088 C 488.321 5.1478 -3.2931 0
M  V30 5089 C 489.319 5.35304 -4.24191 0
M  V30 5090 O 489.007 5.90878 -5.45086 0
M  V30 5091 H 488.739 0.655631 -0.164695 0
M  V30 5092 H 491.293 1.73246 -1.1034 0
M  V30 5093 H 489.523 3.85372 0.320175 0
M  V30 5094 H 491.212 4.05875 -0.0450875 0
M  V30 5095 H 491.978 4.13953 -2.52721 0
M  V30 5096 H 487.857 4.41339 -1.33196 0
M  V30 5097 H 491.401 5.15105 -4.70439 0
M  V30 5098 H 487.298 5.42362 -3.5002 0
M  V30 5099 H 488.066 6.0932 -5.46508 0
M  V30 5100 N 490.729 0.570148 1.46925 0
M  V30 5101 C 491.954 0.0542592 2.07329 0
M  V30 5102 C 492.379 -1.23582 1.41806 0
M  V30 5103 O 491.737 -1.74341 0.497479 0
M  V30 5104 C 491.785 -0.111175 3.60429 0
M  V30 5105 O 490.889 -1.17071 3.95434 0
M  V30 5106 H 490.23 0.0571425 0.661537 0
M  V30 5107 H 492.76 0.789516 1.88753 0
M  V30 5108 H 492.77 -0.321315 4.06733 0
M  V30 5109 H 491.445 0.831012 4.07513 0
M  V30 5110 H 490.022 -0.940029 3.60857 0
M  V30 5111 N 492.207 -1.54576 0.307264 0
M  V30 5112 C 493.484 -1.92377 -0.353605 0
M  V30 5113 C 493.864 -1.23517 -1.71192 0
M  V30 5114 O 493.212 -0.373101 -2.25433 0
M  V30 5115 C 493.422 -3.45928 -0.462039 0
M  V30 5116 C 494.77 -4.18278 -0.729975 0
M  V30 5117 O 495.794 -3.51997 -0.545605 0
M  V30 5118 O 494.653 -5.3563 -1.08454 0
M  V30 5119 H 491.747 -0.802747 -0.198812 0
M  V30 5120 H 494.293 -1.65929 0.355783 0
M  V30 5121 H 493.065 -3.88187 0.492592 0
M  V30 5122 H 492.688 -3.78431 -1.21965 0
M  V30 5123 N 493.685 -0.035106 -1.57561 0
M  V30 5124 C 494.933 0.64096 -1.91667 0
M  V30 5125 C 495.254 1.72323 -0.912681 0
M  V30 5126 O 494.524 1.95849 0.0449089 0
M  V30 5127 H 493.104 0.239743 -0.707483 0
M  V30 5128 H 495.766 -0.084321 -1.94718 0
M  V30 5129 H 494.862 1.08987 -2.92452 0
M  V30 5130 N 495.163 1.55791 0.238111 0
M  V30 5131 C 496.388 1.8244 0.986432 0
M  V30 5132 C 496.813 0.613314 1.7782 0
M  V30 5133 O 496.171 -0.437767 1.75935 0
M  V30 5134 C 496.219 3.06917 1.893 0
M  V30 5135 O 495.323 2.84449 2.98601 0
M  V30 5136 H 494.664 0.601975 0.280218 0
M  V30 5137 H 497.194 2.02987 0.256437 0
M  V30 5138 H 497.204 3.36583 2.30598 0
M  V30 5139 H 495.879 3.947 1.31091 0
M  V30 5140 H 494.456 2.65972 2.61368 0
M  V30 5141 N 496.642 -0.504142 1.49319 0
M  V30 5142 C 497.589 -1.60603 1.65756 0
M  V30 5143 C 498.559 -1.58425 0.499082 0
M  V30 5144 O 499.744 -1.76459 0.725728 0
M  V30 5145 C 496.884 -2.98764 1.72726 0
M  V30 5146 C 495.997 -3.10982 2.99857 0
M  V30 5147 C 495.132 -4.39857 2.97824 0
M  V30 5148 C 494.171 -4.45697 4.19548 0
M  V30 5149 N 493.308 -5.65995 4.15444 0
M  V30 5150 H 498.148 -1.45895 2.59843 0
M  V30 5151 H 495.685 -0.709891 1.28837 0
M  V30 5152 H 497.643 -3.78839 1.74747 0
M  V30 5153 H 496.273 -3.12183 0.821075 0
M  V30 5154 H 495.325 -2.23991 3.07461 0
M  V30 5155 H 496.637 -3.11157 3.89849 0
M  V30 5156 H 495.791 -5.2825 2.98391 0
M  V30 5157 H 494.53 -4.42242 2.05604 0
M  V30 5158 H 493.535 -3.55707 4.19229 0
M  V30 5159 H 494.76 -4.4503 5.12957 0
M  V30 5160 H 492.706 -5.69229 3.26059 0
M  V30 5161 H 492.623 -5.67773 4.99169 0
M  V30 5162 H 493.891 -6.56604 4.20109 0
M  V30 5163 N 498.12 -1.38341 -0.754957 0
M  V30 5164 C 499.397 -1.24995 -1.50451 0
M  V30 5165 C 499.777 0.149244 -2.10572 0
M  V30 5166 O 499.125 1.15861 -1.96948 0
M  V30 5167 C 499.335 -2.35904 -2.57197 0
M  V30 5168 C 500.683 -2.74262 -3.24138 0
M  V30 5169 O 501.707 -2.35205 -2.67501 0
M  V30 5170 O 500.566 -3.4161 -4.26574 0
M  V30 5171 H 497.66 -0.48872 -0.667144 0
M  V30 5172 H 500.206 -1.50165 -0.790486 0
M  V30 5173 H 498.978 -3.2953 -2.11011 0
M  V30 5174 H 498.601 -2.12291 -3.36182 0
M  V30 5175 N 499.598 0.982988 -1.23187 0
M  V30 5176 C 500.823 1.76455 -1.08988 0
M  V30 5177 C 501.248 1.84726 0.354691 0
M  V30 5178 O 500.606 1.30699 1.25649 0
M  V30 5179 C 500.654 3.17094 -1.71708 0
M  V30 5180 O 499.758 4.00648 -0.977477 0
M  V30 5181 H 499.099 0.542988 -0.382177 0
M  V30 5182 H 501.629 1.23413 -1.63188 0
M  V30 5183 H 501.639 3.67684 -1.76841 0
M  V30 5184 H 500.314 3.10389 -2.76823 0
M  V30 5185 H 498.891 3.59161 -1.0029 0
M  V30 5186 N 501.076 1.04316 1.18135 0
M  V30 5187 C 502.316 0.756937 1.89868 0
M  V30 5188 C 502.68 -0.702609 1.78682 0
M  V30 5189 O 503.881 -1.10255 2.45148 0
M  V30 5190 C 502.152 1.21327 3.36176 0
M  V30 5191 S 503.711 1.05307 4.25976 0
M  V30 5192 H 500.529 0.275143 0.655604 0
M  V30 5193 H 503.131 1.33597 1.42731 0
M  V30 5194 H 501.835 2.27086 3.41848 0
M  V30 5195 H 501.366 0.628137 3.88353 0
M  V30 5196 H 503.381 -0.0280093 4.96192 0
M  V30 5197 N 502.554 -1.34406 0.822964 0
M  V30 5198 C 503.501 -2.29519 0.24284 0
M  V30 5199 C 504.471 -1.5359 -0.632397 0
M  V30 5200 O 505.656 -1.8196 -0.57403 0
M  V30 5201 C 502.796 -3.40032 -0.58925 0
M  V30 5202 C 501.909 -4.30899 0.308236 0
M  V30 5203 C 501.044 -5.28515 -0.533425 0
M  V30 5204 C 500.083 -6.1102 0.363444 0
M  V30 5205 N 499.22 -7.00725 -0.439147 0
M  V30 5206 H 504.06 -2.78537 1.05929 0
M  V30 5207 H 501.597 -1.3707 0.533872 0
M  V30 5208 H 503.555 -4.0279 -1.087 0
M  V30 5209 H 502.185 -2.92248 -1.37081 0
M  V30 5210 H 501.237 -3.69002 0.924203 0
M  V30 5211 H 502.549 -4.88717 0.997862 0
M  V30 5212 H 501.703 -5.96725 -1.09565 0
M  V30 5213 H 500.442 -4.71235 -1.25656 0
M  V30 5214 H 499.447 -5.41743 0.937812 0
M  V30 5215 H 500.672 -6.70381 1.08469 0
M  V30 5216 H 498.618 -6.45913 -1.14595 0
M  V30 5217 H 498.535 -7.55756 0.19209 0
M  V30 5218 H 499.803 -7.73263 -0.984124 0
M  V30 5219 N 504.032 -0.577932 -1.46621 0
M  V30 5220 C 505.28 -0.061566 -2.02006 0
M  V30 5221 C 505.601 1.30117 -1.4524 0
M  V30 5222 O 504.871 1.85313 -0.63529 0
M  V30 5223 H 503.451 -0.0197692 -0.746738 0
M  V30 5224 H 506.113 -0.752631 -1.79782 0
M  V30 5225 H 505.209 0.0110238 -3.12098 0
M  V30 5226 N 505.51 1.54411 -0.315457 0
M  V30 5227 C 506.787 1.92562 0.343398 0
M  V30 5228 C 507.167 1.24423 1.70535 0
M  V30 5229 O 506.515 0.385051 2.25232 0
M  V30 5230 C 506.725 3.46168 0.443687 0
M  V30 5231 C 508.073 4.18659 0.707783 0
M  V30 5232 O 509.097 3.52281 0.52693 0
M  V30 5233 O 507.956 5.36198 1.05612 0
M  V30 5234 H 505.05 0.80379 0.194552 0
M  V30 5235 H 507.596 1.65738 -0.364577 0
M  V30 5236 H 506.368 3.8792 -0.513172 0
M  V30 5237 H 505.991 3.79073 1.19956 0
M  V30 5238 N 506.988 0.0434614 1.5754 0
M  V30 5239 C 508.213 -0.645358 1.97104 0
M  V30 5240 C 508.638 -1.64037 0.920521 0
M  V30 5241 O 507.996 -1.80922 -0.11708 0
M  V30 5242 C 508.044 -1.31547 3.35749 0
M  V30 5243 O 507.148 -2.43103 3.33129 0
M  V30 5244 H 506.489 -0.168403 0.64229 0
M  V30 5245 H 509.019 0.109573 2.04306 0
M  V30 5246 H 509.029 -1.66895 3.72304 0
M  V30 5247 H 507.704 -0.586205 4.11748 0
M  V30 5248 H 506.281 -2.0976 3.0831 0
M  V30 5249 N 508.466 -1.55915 -0.229846 0
M  V30 5250 C 509.714 -1.7819 -0.953565 0
M  V30 5251 C 510.035 -0.610504 -1.85197 0
M  V30 5252 O 509.305 0.372988 -1.92316 0
M  V30 5253 H 507.885 -0.657208 -0.355087 0
M  V30 5254 H 510.547 -1.9337 -0.243693 0
M  V30 5255 H 509.643 -2.70011 -1.56527 0
M  V30 5256 N 509.944 0.496216 -1.49584 0
M  V30 5257 C 511.192 1.24756 -1.58998 0
M  V30 5258 C 511.513 1.92968 -0.280775 0
M  V30 5259 O 510.783 1.82959 0.700198 0
M  V30 5260 H 509.363 0.463471 -0.585836 0
M  V30 5261 H 512.025 0.574678 -1.86235 0
M  V30 5262 H 511.121 2.00895 -2.38847 0
M  V30 5263 N 511.423 1.38739 0.74761 0
M  V30 5264 C 512.834 1.31507 1.32524 0
M  V30 5265 C 513.185 -0.0263963 1.96182 0
M  V30 5266 O 512.31 -0.92849 1.95469 0
M  V30 5267 C 512.905 2.38162 2.40966 0
M  V30 5268 C 511.464 2.34489 2.94434 0
M  V30 5269 C 510.611 2.20712 1.67873 0
M  V30 5270 H 513.562 1.4901 0.546043 0
M  V30 5271 H 513.583 2.04222 3.21051 0
M  V30 5272 H 513.095 3.35783 1.94605 0
M  V30 5273 H 511.196 1.40467 3.45108 0
M  V30 5274 H 511.309 3.28861 3.48407 0
M  V30 5275 H 509.673 1.67667 1.91729 0
M  V30 5276 H 510.456 3.20285 1.23582 0
M  V30 5277 N 512.901 -0.976442 1.23707 0
M  V30 5278 C 513.851 -2.0544 0.988851 0
M  V30 5279 C 514.835 -1.60762 -0.0665901 0
M  V30 5280 O 516.027 -1.76396 0.14604 0
M  V30 5281 C 513.156 -3.38258 0.586223 0
M  V30 5282 C 512.242 -3.89523 1.67728 0
M  V30 5283 N 512.633 -4.13823 2.90834 0
M  V30 5284 C 510.931 -4.18097 1.55277 0
M  V30 5285 C 511.632 -4.55731 3.61502 0
M  V30 5286 N 510.608 -4.60394 2.8903 0
M  V30 5287 H 514.41 -2.22191 1.92376 0
M  V30 5288 H 511.924 -1.15954 1.13704 0
M  V30 5289 H 513.921 -4.15075 0.389658 0
M  V30 5290 H 512.581 -3.22898 -0.341594 0
M  V30 5291 H 513.592 -4.01529 3.271 0
M  V30 5292 H 510.269 -4.11719 0.692351 0
M  V30 5293 H 511.659 -4.83018 4.67059 0
M  V30 5294 N 514.379 -1.04941 -1.1758 0
M  V30 5295 C 515.342 -0.652456 -2.19717 0
M  V30 5296 C 516.342 0.294745 -1.58076 0
M  V30 5297 O 517.532 0.0789579 -1.74021 0
M  V30 5298 C 514.664 0.0420712 -3.40874 0
M  V30 5299 H 515.857 -1.55642 -2.5635 0
M  V30 5300 H 513.41 -0.842995 -1.31618 0
M  V30 5301 H 514.145 0.95943 -3.09783 0
M  V30 5302 H 513.93 -0.638844 -3.86861 0
M  V30 5303 H 515.42 0.306 -4.16477 0
M  V30 5304 N 515.857 1.33968 -0.830081 0
M  V30 5305 C 517.085 2.0228 -0.434773 0
M  V30 5306 C 517.5 1.62487 0.961419 0
M  V30 5307 O 516.857 0.833849 1.62337 0
M  V30 5308 C 516.908 3.5751 -0.535625 0
M  V30 5309 O 516.629 3.95864 -1.87679 0
M  V30 5310 C 518.13 4.43091 -0.136137 0
M  V30 5311 H 515.35 0.648151 -0.173613 0
M  V30 5312 H 517.894 1.71089 -1.12022 0
M  V30 5313 H 516.049 3.87266 0.101817 0
M  V30 5314 H 516.463 4.9056 -1.85609 0
M  V30 5315 H 517.937 5.51398 -0.257772 0
M  V30 5316 H 518.414 4.29433 0.921076 0
M  V30 5317 H 519.02 4.18677 -0.747662 0
M  V30 5318 N 517.335 0.585699 1.46312 0
M  V30 5319 C 518.285 -0.166813 2.27389 0
M  V30 5320 C 519.269 -0.859076 1.36047 0
M  V30 5321 O 520.461 -0.752678 1.60199 0
M  V30 5322 C 517.59 -1.17791 3.2246 0
M  V30 5323 C 516.676 -0.487605 4.21288 0
M  V30 5324 N 517.067 0.45849 5.03718 0
M  V30 5325 C 515.365 -0.737971 4.39852 0
M  V30 5326 C 516.066 0.862213 5.75275 0
M  V30 5327 N 515.042 0.210707 5.43191 0
M  V30 5328 H 518.844 0.560167 2.88512 0
M  V30 5329 H 516.358 0.407715 1.57199 0
M  V30 5330 H 518.355 -1.73122 3.79255 0
M  V30 5331 H 517.015 -1.90568 2.62896 0
M  V30 5332 H 518.026 0.834163 5.11138 0
M  V30 5333 H 514.703 -1.45209 3.91434 0
M  V30 5334 H 516.093 1.64128 6.51546 0
M  V30 5335 N 518.813 -1.54241 0.323641 0
M  V30 5336 C 520.043 -2.04687 -0.280464 0
M  V30 5337 C 520.451 -1.19939 -1.46326 0
M  V30 5338 O 519.794 -0.222872 -1.82343 0
M  V30 5339 C 519.856 -3.50978 -0.778123 0
M  V30 5340 C 519.52 -4.56127 0.282371 0
M  V30 5341 C 520.517 -5.07726 1.11847 0
M  V30 5342 C 518.202 -5.00451 0.430582 0
M  V30 5343 C 520.196 -6.02212 2.08851 0
M  V30 5344 C 517.883 -5.94752 1.40404 0
M  V30 5345 C 518.881 -6.45519 2.23147 0
M  V30 5346 O 518.569 -7.37968 3.1884 0
M  V30 5347 H 518.301 -0.673192 -0.0615473 0
M  V30 5348 H 520.855 -1.99999 0.467921 0
M  V30 5349 H 519.085 -3.53064 -1.57742 0
M  V30 5350 H 520.774 -3.84499 -1.30058 0
M  V30 5351 H 521.54 -4.74261 1.01496 0
M  V30 5352 H 517.419 -4.6055 -0.203569 0
M  V30 5353 H 520.963 -6.41761 2.73474 0
M  V30 5354 H 516.86 -6.27633 1.5082 0
M  V30 5355 H 517.628 -7.55841 3.14079 0
M  V30 5356 N 520.291 -0.0518155 -1.57515 0
M  V30 5357 C 521.707 0.304735 -1.56664 0
M  V30 5358 C 521.907 1.71395 -1.05953 0
M  V30 5359 O 520.963 2.42123 -0.716414 0
M  V30 5360 C 522.276 0.132614 -3.00407 0
M  V30 5361 C 523.824 0.20367 -3.12337 0
M  V30 5362 C 524.299 0.0600706 -4.57961 0
M  V30 5363 N 525.79 0.116326 -4.63054 0
M  V30 5364 C 526.525 0.0293363 -5.73392 0
M  V30 5365 N 526.021 -0.110038 -6.92713 0
M  V30 5366 N 527.814 0.0849651 -5.62036 0
M  V30 5367 H 519.965 -0.973056 -1.888 0
M  V30 5368 H 522.228 -0.377781 -0.869474 0
M  V30 5369 H 521.934 -0.839019 -3.41546 0
M  V30 5370 H 521.808 0.893376 -3.66468 0
M  V30 5371 H 524.195 1.16578 -2.71097 0
M  V30 5372 H 524.276 -0.587857 -2.48954 0
M  V30 5373 H 523.92 -0.898715 -4.99886 0
M  V30 5374 H 523.85 0.87075 -5.19351 0
M  V30 5375 H 526.341 0.22327 -3.7724 0
M  V30 5376 H 526.654 -0.169104 -7.72615 0
M  V30 5377 H 524.999 -0.145132 -6.94848 0
M  V30 5378 H 528.19 0.192411 -4.67704 0
M  V30 5379 H 528.363 0.0137131 -6.47999 0
M  V30 5380 N 521.769 1.56035 0.221574 0
M  V30 5381 C 523.017 1.78693 0.944102 0
M  V30 5382 C 523.338 0.620317 1.8487 0
M  V30 5383 O 522.608 -0.362784 1.92512 0
M  V30 5384 H 521.188 0.659082 0.351597 0
M  V30 5385 H 523.85 1.93497 0.233435 0
M  V30 5386 H 522.946 2.70837 1.55093 0
M  V30 5387 N 523.247 -0.488276 1.49845 0
M  V30 5388 C 524.475 -1.26527 1.63702 0
M  V30 5389 C 524.89 -1.8618 0.313447 0
M  V30 5390 O 524.247 -1.68432 -0.702624 0
M  V30 5391 C 524.298 -2.3864 2.71538 0
M  V30 5392 O 524.019 -1.81437 3.98763 0
M  V30 5393 C 525.52 -3.29805 2.96215 0
M  V30 5394 H 522.74 -0.383295 0.55075 0
M  V30 5395 H 525.284 -0.584779 1.95961 0
M  V30 5396 H 523.439 -3.02496 2.42023 0
M  V30 5397 H 523.853 -2.55135 4.58265 0
M  V30 5398 H 525.327 -4.04722 3.75372 0
M  V30 5399 H 525.804 -3.87563 2.06619 0
M  V30 5400 H 526.41 -2.71703 3.27196 0
M  V30 5401 N 524.725 -1.39134 -0.740242 0
M  V30 5402 C 525.971 -1.37278 -1.50088 0
M  V30 5403 C 526.326 0.0329967 -1.92372 0
M  V30 5404 O 525.619 0.998447 -1.63529 0
M  V30 5405 C 525.813 -2.27457 -2.75678 0
M  V30 5406 C 525.642 -3.76662 -2.45674 0
M  V30 5407 C 524.412 -4.45617 -2.38229 0
M  V30 5408 C 526.61 -4.6877 -2.11563 0
M  V30 5409 N 524.592 -5.80187 -2.00641 0
M  V30 5410 C 525.963 -5.91951 -1.84376 0
M  V30 5411 C 528.018 -4.56843 -1.97987 0
M  V30 5412 C 526.721 -7.04538 -1.4498 0
M  V30 5413 C 528.747 -5.69347 -1.59994 0
M  V30 5414 C 528.109 -6.91597 -1.33687 0
M  V30 5415 H 524.208 -0.557611 -0.548265 0
M  V30 5416 H 526.792 -1.74638 -0.860784 0
M  V30 5417 H 524.963 -1.92263 -3.37475 0
M  V30 5418 H 526.695 -2.16631 -3.41838 0
M  V30 5419 H 523.45 -3.98993 -2.5515 0
M  V30 5420 H 523.874 -6.51387 -1.84454 0
M  V30 5421 H 528.516 -3.62868 -2.16995 0
M  V30 5422 H 526.234 -7.98419 -1.24712 0
M  V30 5423 H 529.82 -5.62104 -1.50102 0
M  V30 5424 H 528.7 -7.77176 -1.04728 0
M  V30 5425 N 526.204 0.969867 -1.24223 0
M  V30 5426 C 527.434 1.74502 -1.106 0
M  V30 5427 C 527.842 1.86038 0.344483 0
M  V30 5428 O 527.185 1.3465 1.24961 0
M  V30 5429 C 527.247 3.18391 -1.66935 0
M  V30 5430 C 526.911 3.30334 -3.15798 0
M  V30 5431 C 527.908 3.15832 -4.12973 0
M  V30 5432 C 525.593 3.54644 -3.55715 0
M  V30 5433 C 527.587 3.25461 -5.48045 0
M  V30 5434 C 525.274 3.63912 -4.90929 0
M  V30 5435 C 526.272 3.49332 -5.86904 0
M  V30 5436 O 525.96 3.58251 -7.1966 0
M  V30 5437 H 525.692 0.554119 -0.387206 0
M  V30 5438 H 528.246 1.22646 -1.64764 0
M  V30 5439 H 526.476 3.71543 -1.07203 0
M  V30 5440 H 528.165 3.77707 -1.48634 0
M  V30 5441 H 528.931 2.96937 -3.83476 0
M  V30 5442 H 524.81 3.65059 -2.81519 0
M  V30 5443 H 528.354 3.13998 -6.22937 0
M  V30 5444 H 524.251 3.82319 -5.20098 0
M  V30 5445 H 525.019 3.7498 -7.27552 0
M  V30 5446 N 527.682 1.05563 1.17022 0
M  V30 5447 C 528.612 0.681026 2.23348 0
M  V30 5448 C 529.593 -0.322983 1.67005 0
M  V30 5449 O 530.778 -0.199746 1.9317 0
M  V30 5450 C 527.908 0.0589053 3.4725 0
M  V30 5451 C 526.862 0.988082 4.16438 0
M  V30 5452 C 526.188 0.229646 5.34207 0
M  V30 5453 C 527.488 2.31388 4.68249 0
M  V30 5454 H 529.182 1.56993 2.54938 0
M  V30 5455 H 526.728 0.756302 1.2254 0
M  V30 5456 H 528.681 -0.214982 4.20851 0
M  V30 5457 H 527.405 -0.864968 3.14938 0
M  V30 5458 H 526.064 1.24659 3.44754 0
M  V30 5459 H 525.712 -0.697111 4.98146 0
M  V30 5460 H 525.412 0.848815 5.81437 0
M  V30 5461 H 526.936 -0.0368694 6.10589 0
M  V30 5462 H 528.35 2.09964 5.33468 0
M  V30 5463 H 526.747 2.88736 5.26072 0
M  V30 5464 H 527.817 2.94982 3.84855 0
M  V30 5465 N 529.16 -1.33526 0.837174 0
M  V30 5466 C 530.388 -2.02047 0.445494 0
M  V30 5467 C 530.803 -1.62995 -0.952788 0
M  V30 5468 O 530.16 -0.842447 -1.61892 0
M  V30 5469 C 530.211 -3.57221 0.554577 0
M  V30 5470 O 529.932 -3.94863 1.89776 0
M  V30 5471 C 531.433 -4.43012 0.159634 0
M  V30 5472 H 528.653 -0.647221 0.177048 0
M  V30 5473 H 531.197 -1.70492 1.12928 0
M  V30 5474 H 529.352 -3.87315 -0.0812781 0
M  V30 5475 H 529.766 -4.89569 1.88208 0
M  V30 5476 H 531.24 -5.51253 0.28701 0
M  V30 5477 H 531.717 -4.29916 -0.898289 0
M  V30 5478 H 532.323 -4.18274 0.769855 0
M  V30 5479 N 530.638 -0.59345 -1.46 0
M  V30 5480 C 531.886 -0.082988 -2.0193 0
M  V30 5481 C 532.207 1.28569 -1.46612 0
M  V30 5482 O 531.477 1.84629 -0.654909 0
M  V30 5483 H 530.057 -0.0276882 -0.746487 0
M  V30 5484 H 532.719 -0.771657 -1.78973 0
M  V30 5485 H 531.815 -0.022079 -3.12092 0
M  V30 5486 N 532.116 1.54067 -0.331816 0
M  V30 5487 C 533.365 1.99895 0.269209 0
M  V30 5488 C 533.678 1.22371 1.52593 0
M  V30 5489 O 534.884 1.58618 2.20347 0
M  V30 5490 C 533.34 3.55972 0.530244 0
M  V30 5491 C 532.948 4.4234 -0.709901 0
M  V30 5492 C 534.692 4.10247 1.09077 0
M  V30 5493 C 532.599 5.89905 -0.420312 0
M  V30 5494 H 531.529 0.746741 0.104371 0
M  V30 5495 H 534.18 1.78014 -0.445324 0
M  V30 5496 H 532.562 3.73873 1.30518 0
M  V30 5497 H 533.736 4.36215 -1.48504 0
M  V30 5498 H 532.051 3.98997 -1.19123 0
M  V30 5499 H 534.648 5.18095 1.32219 0
M  V30 5500 H 534.991 3.62739 2.0427 0
M  V30 5501 H 535.524 3.96011 0.376824 0
M  V30 5502 H 532.263 6.41623 -1.34164 0
M  V30 5503 H 531.783 5.98962 0.316962 0
M  V30 5504 H 533.462 6.46991 -0.0331956 0
M  V30 5505 N 533.594 0.0601682 1.57485 0
M  V30 5506 C 534.84 -0.612501 1.93329 0
M  V30 5507 C 535.173 -1.6996 0.939526 0
M  V30 5508 O 534.448 -1.94472 -0.0330957 0
M  V30 5509 C 534.731 -1.20025 3.39508 0
M  V30 5510 C 534.584 -0.12059 4.49638 0
M  V30 5511 C 535.903 -2.10923 3.86264 0
M  V30 5512 H 533.022 -0.221185 0.703027 0
M  V30 5513 H 535.664 0.123768 1.89596 0
M  V30 5514 H 533.814 -1.82774 3.42821 0
M  V30 5515 H 535.486 0.51185 4.58452 0
M  V30 5516 H 533.729 0.550251 4.30296 0
M  V30 5517 H 534.4 -0.572019 5.49028 0
M  V30 5518 H 536.876 -1.58124 3.84884 0
M  V30 5519 H 535.752 -2.48987 4.8918 0
M  V30 5520 H 536.013 -3.01292 3.23536 0
M  V30 5521 N 535.072 -1.5615 -0.213296 0
M  V30 5522 C 536.297 -1.83986 -0.957282 0
M  V30 5523 C 536.722 -0.641526 -1.76822 0
M  V30 5524 O 536.08 0.409722 -1.7661 0
M  V30 5525 C 536.128 -3.09889 -1.84393 0
M  V30 5526 O 535.232 -2.89163 -2.94038 0
M  V30 5527 H 534.573 -0.606357 -0.270605 0
M  V30 5528 H 537.103 -2.03369 -0.224111 0
M  V30 5529 H 537.113 -3.40209 -2.25215 0
M  V30 5530 H 535.788 -3.96735 -1.24795 0
M  V30 5531 H 534.365 -2.70097 -2.57103 0
M  V30 5532 N 536.55 0.480323 -1.50102 0
M  V30 5533 C 537.796 1.23208 -1.61837 0
M  V30 5534 C 538.151 1.89878 -0.310509 0
M  V30 5535 O 537.444 1.7871 0.690897 0
M  V30 5536 C 537.638 2.30708 -2.72963 0
M  V30 5537 C 537.467 1.74583 -4.14428 0
M  V30 5538 C 536.237 1.54964 -4.80951 0
M  V30 5539 C 538.435 1.24597 -4.98979 0
M  V30 5540 N 536.417 0.939855 -6.06663 0
M  V30 5541 C 537.788 0.758834 -6.15339 0
M  V30 5542 C 539.843 1.13365 -4.84822 0
M  V30 5543 C 538.546 0.17046 -7.19098 0
M  V30 5544 C 540.572 0.559221 -5.8875 0
M  V30 5545 C 539.934 0.082415 -7.04352 0
M  V30 5546 H 536.033 0.440065 -0.646426 0
M  V30 5547 H 538.617 0.535632 -1.87187 0
M  V30 5548 H 536.788 2.9779 -2.4935 0
M  V30 5549 H 538.52 2.97738 -2.74106 0
M  V30 5550 H 535.275 1.79926 -4.38091 0
M  V30 5551 H 535.699 0.653641 -6.73837 0
M  V30 5552 H 540.341 1.48823 -3.95742 0
M  V30 5553 H 538.059 -0.196347 -8.07861 0
M  V30 5554 H 541.645 0.474804 -5.79859 0
M  V30 5555 H 540.525 -0.355119 -7.83396 0
M  V30 5556 N 538.028 1.39524 0.732853 0
M  V30 5557 C 539.276 1.36594 1.48951 0
M  V30 5558 C 539.597 -0.0367507 1.94965 0
M  V30 5559 O 538.867 -0.988391 1.69138 0
M  V30 5560 H 537.447 0.502673 0.552566 0
M  V30 5561 H 540.109 1.74411 0.869869 0
M  V30 5562 H 539.205 2.03 2.3706 0
M  V30 5563 N 539.506 -0.963266 1.24736 0
M  V30 5564 C 540.438 -2.06162 1.0015 0
M  V30 5565 C 541.451 -1.62771 -0.0305905 0
M  V30 5566 O 542.64 -1.77296 0.206966 0
M  V30 5567 C 539.74 -3.35333 0.490385 0
M  V30 5568 C 538.913 -4.07609 1.58663 0
M  V30 5569 C 537.972 -5.15052 1.0774 0
M  V30 5570 O 536.998 -5.4098 1.77002 0
M  V30 5571 N 538.2 -5.80436 -0.0858605 0
M  V30 5572 H 540.965 -2.27825 1.94719 0
M  V30 5573 H 538.526 -1.13121 1.15825 0
M  V30 5574 H 540.518 -4.04477 0.134371 0
M  V30 5575 H 539.088 -3.10507 -0.361155 0
M  V30 5576 H 538.308 -3.32681 2.11463 0
M  V30 5577 H 539.596 -4.52656 2.32336 0
M  V30 5578 H 538.994 -5.6178 -0.664806 0
M  V30 5579 H 537.551 -6.50674 -0.382981 0
M  V30 5580 N 540.985 -1.06182 -1.16461 0
M  V30 5581 C 542.233 -0.776326 -1.86595 0
M  V30 5582 C 542.554 0.69921 -1.82033 0
M  V30 5583 O 541.824 1.50579 -1.2531 0
M  V30 5584 H 540.404 -0.284184 -0.690832 0
M  V30 5585 H 543.066 -1.34308 -1.41235 0
M  V30 5586 H 542.162 -1.10022 -2.92064 0
M  V30 5587 N 542.463 1.3308 -0.844243 0
M  V30 5588 C 543.703 1.99414 -0.448697 0
M  V30 5589 C 544.067 1.65398 0.975058 0
M  V30 5590 O 545.268 2.24741 1.47461 0
M  V30 5591 C 543.539 3.51081 -0.669089 0
M  V30 5592 S 545.098 4.37241 -0.369564 0
M  V30 5593 H 541.916 0.690736 -0.168538 0
M  V30 5594 H 544.518 1.61977 -1.0947 0
M  V30 5595 H 543.222 3.73326 -1.70457 0
M  V30 5596 H 542.753 3.93399 -0.00913211 0
M  V30 5597 H 544.768 4.89568 0.808552 0
M  V30 5598 N 543.941 0.601185 1.45683 0
M  V30 5599 C 544.904 -0.111398 2.28929 0
M  V30 5600 C 545.904 -0.801246 1.39416 0
M  V30 5601 O 547.094 -0.650383 1.61603 0
M  V30 5602 C 544.226 -1.16773 3.20276 0
M  V30 5603 H 545.419 0.620412 2.93413 0
M  V30 5604 H 542.972 0.359946 1.52099 0
M  V30 5605 H 543.707 -1.93051 2.60579 0
M  V30 5606 H 543.492 -0.677358 3.86205 0
M  V30 5607 H 544.982 -1.66698 3.82886 0
M  V30 5608 N 545.419 -1.53889 0.339982 0
M  V30 5609 C 546.647 -2.05271 -0.259114 0
M  V30 5610 C 547.062 -1.21517 -1.44496 0
M  V30 5611 O 546.419 -0.24966 -1.80784 0
M  V30 5612 C 546.47 -3.55092 -0.677634 0
M  V30 5613 O 546.191 -4.35667 0.461051 0
M  V30 5614 C 547.692 -4.22631 -1.33782 0
M  V30 5615 H 544.912 -0.669085 -0.0506566 0
M  V30 5616 H 547.456 -1.9852 0.490935 0
M  V30 5617 H 545.611 -3.62077 -1.37763 0
M  V30 5618 H 546.025 -5.24343 0.128144 0
M  V30 5619 H 547.499 -5.28861 -1.58145 0
M  V30 5620 H 547.976 -3.74758 -2.29027 0
M  V30 5621 H 548.582 -4.19829 -0.679957 0
M  V30 5622 N 546.897 -0.0685191 -1.57451 0
M  V30 5623 C 548.143 0.602239 -1.93652 0
M  V30 5624 C 548.476 1.6946 -0.948526 0
M  V30 5625 O 547.751 1.94487 0.022782 0
M  V30 5626 C 548.034 1.18223 -3.4014 0
M  V30 5627 C 547.887 0.0967431 -4.49696 0
M  V30 5628 C 549.206 2.08872 -3.87377 0
M  V30 5629 H 546.325 0.217453 -0.70419 0
M  V30 5630 H 548.967 -0.133821 -1.89528 0
M  V30 5631 H 547.117 1.80953 -3.43785 0
M  V30 5632 H 548.789 -0.536155 -4.58174 0
M  V30 5633 H 547.032 -0.573063 -4.29998 0
M  V30 5634 H 547.703 0.542894 -5.49324 0
M  V30 5635 H 550.179 1.56081 -3.85717 0
M  V30 5636 H 549.055 2.46389 -4.90493 0
M  V30 5637 H 549.316 2.99572 -3.25129 0
M  V30 5638 N 548.375 1.56261 0.205012 0
M  V30 5639 C 549.623 1.79684 0.925096 0
M  V30 5640 C 549.944 0.63989 1.84202 0
M  V30 5641 O 549.214 -0.342345 1.92885 0
M  V30 5642 H 547.794 0.662774 0.344587 0
M  V30 5643 H 550.456 1.93734 0.212899 0
M  V30 5644 H 549.552 2.72467 1.52211 0
M  V30 5645 N 549.853 -0.472356 1.50355 0
M  V30 5646 C 550.803 -1.56809 1.65514 0
M  V30 5647 C 551.787 -1.5261 0.509801 0
M  V30 5648 O 552.979 -1.59655 0.764145 0
M  V30 5649 C 550.108 -2.9526 1.75146 0
M  V30 5650 C 549.194 -3.04348 2.95353 0
M  V30 5651 N 549.585 -2.83253 4.19048 0
M  V30 5652 C 547.883 -3.35482 2.93884 0
M  V30 5653 C 548.584 -2.97273 5.00003 0
M  V30 5654 N 547.56 -3.27418 4.33934 0
M  V30 5655 H 551.362 -1.39197 2.58846 0
M  V30 5656 H 548.876 -0.67906 1.47521 0
M  V30 5657 H 550.873 -3.74044 1.8411 0
M  V30 5658 H 549.533 -3.1392 0.829717 0
M  V30 5659 H 550.544 -2.5886 4.48567 0
M  V30 5660 H 547.221 -3.60138 2.11204 0
M  V30 5661 H 548.611 -2.85214 6.08361 0
M  V30 5662 N 551.331 -1.39911 -0.725443 0
M  V30 5663 C 552.578 -1.37654 -1.48518 0
M  V30 5664 C 552.906 0.0243982 -1.94485 0
M  V30 5665 O 552.161 1.00708 -1.67799 0
M  V30 5666 C 552.46 -2.30368 -2.7325 0
M  V30 5667 C 552.126 -3.77817 -2.461 0
M  V30 5668 C 550.788 -4.17991 -2.38405 0
M  V30 5669 C 553.14 -4.71036 -2.23103 0
M  V30 5670 C 550.468 -5.49433 -2.05768 0
M  V30 5671 C 552.82 -6.02766 -1.9198 0
M  V30 5672 C 551.484 -6.41993 -1.82761 0
M  V30 5673 H 550.754 -0.503713 -0.543465 0
M  V30 5674 H 553.401 -1.7249 -0.831822 0
M  V30 5675 H 551.706 -1.88683 -3.43375 0
M  V30 5676 H 553.403 -2.2591 -3.31309 0
M  V30 5677 H 549.993 -3.45982 -2.52972 0
M  V30 5678 H 554.177 -4.40823 -2.2801 0
M  V30 5679 H 549.433 -5.78738 -1.9716 0
M  V30 5680 H 553.607 -6.74519 -1.73197 0
M  V30 5681 H 551.234 -7.43761 -1.57237 0
M  V30 5682 N 552.809 0.956637 -1.25245 0
M  V30 5683 C 554.057 1.69764 -1.09657 0
M  V30 5684 C 554.378 1.91583 0.363464 0
M  V30 5685 O 553.648 1.50149 1.25825 0
M  V30 5686 H 552.228 0.629097 -0.402798 0
M  V30 5687 H 554.89 1.15026 -1.57337 0
M  V30 5688 H 553.986 2.67769 -1.60331 0
M  V30 5689 N 554.287 1.06798 1.15896 0
M  V30 5690 C 555.533 0.788934 1.86825 0
M  V30 5691 C 555.866 -0.683084 1.8179 0
M  V30 5692 O 555.141 -1.50086 1.23711 0
M  V30 5693 C 555.424 1.29065 3.36176 0
M  V30 5694 C 555.277 2.8268 3.49874 0
M  V30 5695 C 556.596 0.902655 4.30744 0
M  V30 5696 H 553.715 0.288066 0.678371 0
M  V30 5697 H 556.357 1.32479 1.36195 0
M  V30 5698 H 554.507 0.834806 3.79425 0
M  V30 5699 H 556.179 3.36511 3.15528 0
M  V30 5700 H 554.422 3.21157 2.91617 0
M  V30 5701 H 555.093 3.12852 4.54783 0
M  V30 5702 H 557.569 1.29535 3.95424 0
M  V30 5703 H 556.445 1.28111 5.3374 0
M  V30 5704 H 556.706 -0.191951 4.41683 0
M  V30 5705 N 555.766 -1.3263 0.851289 0
M  V30 5706 C 556.996 -2.01271 0.466222 0
M  V30 5707 C 557.404 -1.64156 -0.940714 0
M  V30 5708 O 556.747 -0.857109 -1.62479 0
M  V30 5709 C 556.809 -3.55695 0.521672 0
M  V30 5710 C 556.473 -4.16227 1.88691 0
M  V30 5711 C 557.47 -4.34699 2.85189 0
M  V30 5712 C 555.155 -4.52377 2.18313 0
M  V30 5713 C 557.149 -4.88484 4.09465 0
M  V30 5714 C 554.836 -5.05868 3.42843 0
M  V30 5715 C 555.834 -5.23869 4.38235 0
M  V30 5716 O 555.522 -5.76218 5.6056 0
M  V30 5717 H 555.254 -0.651034 0.18202 0
M  V30 5718 H 557.808 -1.7026 1.14894 0
M  V30 5719 H 556.038 -3.86086 -0.217888 0
M  V30 5720 H 557.727 -4.05613 0.152682 0
M  V30 5721 H 558.493 -4.07107 2.63607 0
M  V30 5722 H 554.372 -4.37652 1.44851 0
M  V30 5723 H 557.916 -5.02451 4.83931 0
M  V30 5724 H 553.813 -5.32891 3.64277 0
M  V30 5725 H 554.581 -5.94616 5.62471 0
M  V30 5726 N 557.244 -0.608902 -1.45362 0
M  V30 5727 C 558.472 -0.111013 -2.06602 0
M  V30 5728 C 558.887 1.20516 -1.45332 0
M  V30 5729 O 558.244 1.73437 -0.567978 0
M  V30 5730 C 558.295 0.033688 -3.61484 0
M  V30 5731 O 558.016 -1.23041 -4.20467 0
M  V30 5732 C 559.517 0.562882 -4.39712 0
M  V30 5733 H 556.737 -0.0694453 -0.667397 0
M  V30 5734 H 559.281 -0.837008 -1.86586 0
M  V30 5735 H 557.436 0.710016 -3.80838 0
M  V30 5736 H 557.85 -1.06094 -5.13658 0
M  V30 5737 H 559.324 0.613213 -5.48583 0
M  V30 5738 H 559.801 1.58543 -4.09586 0
M  V30 5739 H 560.407 -0.0794454 -4.25226 0
M  V30 5740 N 558.722 1.53707 -0.348139 0
M  V30 5741 C 560.138 1.596 0.00361134 0
M  V30 5742 C 560.338 1.36394 1.4832 0
M  V30 5743 O 559.394 1.16046 2.24253 0
M  V30 5744 C 560.707 2.97512 -0.436682 0
M  V30 5745 C 562.255 3.10568 -0.389416 0
M  V30 5746 C 562.73 4.50866 -0.805249 0
M  V30 5747 N 564.221 4.56929 -0.759616 0
M  V30 5748 C 564.956 5.63643 -1.05327 0
M  V30 5749 N 564.452 6.78189 -1.41531 0
M  V30 5750 N 566.245 5.5354 -0.977207 0
M  V30 5751 H 558.396 1.67044 -1.31187 0
M  V30 5752 H 560.659 0.782559 -0.535075 0
M  V30 5753 H 560.365 3.19575 -1.46849 0
M  V30 5754 H 560.239 3.76742 0.185744 0
M  V30 5755 H 562.626 2.88226 0.633228 0
M  V30 5756 H 562.707 2.33387 -1.04711 0
M  V30 5757 H 562.351 4.73943 -1.82593 0
M  V30 5758 H 562.281 5.26452 -0.124989 0
M  V30 5759 H 564.772 3.74675 -0.49265 0
M  V30 5760 H 565.085 7.55541 -1.62411 0
M  V30 5761 H 563.43 6.79624 -1.45381 0
M  V30 5762 H 566.621 4.62932 -0.693675 0
M  V30 5763 H 566.794 6.36614 -1.2094 0
M  V30 5764 N 560.2 0.0768682 1.57412 0
M  V30 5765 C 561.446 -0.591961 1.93968 0
M  V30 5766 C 561.779 -1.68954 0.9575 0
M  V30 5767 O 561.054 -1.94496 -0.0124675 0
M  V30 5768 C 561.337 -1.16418 3.40762 0
M  V30 5769 C 561.19 -0.0728933 4.49741 0
M  V30 5770 C 562.509 -2.06814 3.88479 0
M  V30 5771 H 559.628 -0.213716 0.705333 0
M  V30 5772 H 562.27 0.14387 1.89455 0
M  V30 5773 H 560.42 -1.79128 3.4474 0
M  V30 5774 H 562.092 0.560446 4.57883 0
M  V30 5775 H 560.335 0.595859 4.29688 0
M  V30 5776 H 561.006 -0.513755 5.49604 0
M  V30 5777 H 563.482 -1.54033 3.8654 0
M  V30 5778 H 562.358 -2.43785 4.91793 0
M  V30 5779 H 562.619 -2.97844 3.26713 0
M  V30 5780 N 561.678 -1.56367 -0.196722 0
M  V30 5781 C 562.903 -1.84991 -0.937714 0
M  V30 5782 C 563.328 -0.660244 -1.76132 0
M  V30 5783 O 562.686 0.390967 -1.77034 0
M  V30 5784 C 562.734 -3.11828 -1.81096 0
M  V30 5785 O 561.838 -2.92266 -2.90955 0
M  V30 5786 H 561.179 -0.609193 -0.264159 0
M  V30 5787 H 563.709 -2.03595 -0.202529 0
M  V30 5788 H 563.719 -3.42579 -2.21594 0
M  V30 5789 H 562.394 -3.98037 -1.2058 0
M  V30 5790 H 560.971 -2.72809 -2.54224 0
M  V30 5791 N 563.156 0.464375 -1.50603 0
M  V30 5792 C 564.088 1.57916 -1.66118 0
M  V30 5793 C 565.101 1.53497 -0.54246 0
M  V30 5794 O 566.29 1.58763 -0.815877 0
M  V30 5795 C 563.39 2.96809 -1.63577 0
M  V30 5796 C 562.563 3.26026 -2.91592 0
M  V30 5797 C 561.622 4.44506 -2.81604 0
M  V30 5798 O 560.648 4.44484 -3.55559 0
M  V30 5799 N 561.85 5.46549 -1.95614 0
M  V30 5800 H 564.615 1.45022 -2.62276 0
M  V30 5801 H 562.176 0.652903 -1.48151 0
M  V30 5802 H 564.168 3.74048 -1.54499 0
M  V30 5803 H 562.738 3.03438 -0.751262 0
M  V30 5804 H 561.958 2.37337 -3.14746 0
M  V30 5805 H 563.246 3.42361 -3.76386 0
M  V30 5806 H 562.644 5.49391 -1.34854 0
M  V30 5807 H 561.201 6.22746 -1.92435 0
M  V30 5808 N 564.634 1.40294 0.718013 0
M  V30 5809 C 565.864 1.41544 1.50495 0
M  V30 5810 C 566.272 0.0127877 1.89196 0
M  V30 5811 O 565.615 -0.97305 1.55812 0
M  V30 5812 C 565.677 2.24021 2.81167 0
M  V30 5813 C 565.341 3.72463 2.64803 0
M  V30 5814 C 566.338 4.65154 2.32223 0
M  V30 5815 C 564.023 4.1625 2.81143 0
M  V30 5816 C 566.017 5.99618 2.16189 0
M  V30 5817 C 563.704 5.50784 2.64727 0
M  V30 5818 C 564.702 6.42283 2.32297 0
M  V30 5819 O 564.39 7.74337 2.16004 0
M  V30 5820 H 564.122 0.484819 0.471091 0
M  V30 5821 H 566.676 1.84948 0.893488 0
M  V30 5822 H 564.906 1.75393 3.44636 0
M  V30 5823 H 566.595 2.17243 3.42871 0
M  V30 5824 H 567.361 4.32622 2.19234 0
M  V30 5825 H 563.24 3.45352 3.05373 0
M  V30 5826 H 566.784 6.71 1.90799 0
M  V30 5827 H 562.681 5.82902 2.773 0
M  V30 5828 H 563.449 7.85244 2.30942 0
M  V30 5829 N 566.112 -0.949982 1.2575 0
M  V30 5830 C 567.361 -1.68956 1.10168 0
M  V30 5831 C 567.674 -1.92327 -0.356309 0
M  V30 5832 O 568.88 -2.64026 -0.632657 0
M  V30 5833 C 567.336 -3.04196 1.92336 0
M  V30 5834 C 566.944 -2.88603 3.42655 0
M  V30 5835 C 568.688 -3.81904 1.85336 0
M  V30 5836 C 566.595 -4.19262 4.17101 0
M  V30 5837 H 565.525 -0.633645 0.408668 0
M  V30 5838 H 568.176 -1.05719 1.49986 0
M  V30 5839 H 566.558 -3.68363 1.45344 0
M  V30 5840 H 567.732 -2.3334 3.97353 0
M  V30 5841 H 566.047 -2.24345 3.50796 0
M  V30 5842 H 568.644 -4.78688 2.38248 0
M  V30 5843 H 568.987 -4.08099 0.822226 0
M  V30 5844 H 569.52 -3.24495 2.30104 0
M  V30 5845 H 566.259 -3.98254 5.20648 0
M  V30 5846 H 565.779 -4.74273 3.67186 0
M  V30 5847 H 567.458 -4.87775 4.25071 0
M  V30 5848 N 567.59 -1.07411 -1.15328 0
M  V30 5849 C 568.5 -0.706438 -2.23711 0
M  V30 5850 C 569.516 0.282586 -1.7169 0
M  V30 5851 O 570.692 0.129066 -2.00986 0
M  V30 5852 C 567.757 -0.11048 -3.46524 0
M  V30 5853 C 566.818 -1.15282 -4.13532 0
M  V30 5854 C 566.051 -0.585205 -5.30482 0
M  V30 5855 O 566.274 0.598549 -5.67251 0
M  V30 5856 O 565.208 -1.33039 -5.87013 0
M  V30 5857 H 569.034 -1.61031 -2.57493 0
M  V30 5858 H 566.619 -0.847113 -1.23062 0
M  V30 5859 H 568.501 0.21957 -4.20828 0
M  V30 5860 H 567.176 0.766703 -3.14489 0
M  V30 5861 H 566.083 -1.53523 -3.41147 0
M  V30 5862 H 567.416 -2.00192 -4.49649 0
M  V30 5863 N 569.068 1.32177 -0.85831 0
M  V30 5864 C 570.314 1.97813 -0.47346 0
M  V30 5865 C 570.669 1.66674 0.961122 0
M  V30 5866 O 569.962 0.94657 1.66585 0
M  V30 5867 C 570.156 3.51372 -0.653658 0
M  V30 5868 C 569.985 3.97433 -2.1042 0
M  V30 5869 C 568.755 4.24338 -2.74345 0
M  V30 5870 C 570.953 4.12233 -3.0752 0
M  V30 5871 N 568.935 4.56672 -4.10272 0
M  V30 5872 C 570.306 4.48146 -4.28445 0
M  V30 5873 C 572.361 3.94577 -3.03667 0
M  V30 5874 C 571.064 4.68246 -5.4602 0
M  V30 5875 C 573.09 4.15864 -4.20489 0
M  V30 5876 C 572.452 4.52098 -5.40173 0
M  V30 5877 H 568.551 0.749808 -0.222061 0
M  V30 5878 H 571.135 1.59927 -1.11047 0
M  V30 5879 H 569.306 3.88372 -0.0463267 0
M  V30 5880 H 571.038 4.03998 -0.238343 0
M  V30 5881 H 567.793 4.16544 -2.25362 0
M  V30 5882 H 568.217 4.77019 -4.80398 0
M  V30 5883 H 572.859 3.65662 -2.12252 0
M  V30 5884 H 570.577 4.96014 -6.37962 0
M  V30 5885 H 574.163 4.03702 -4.18947 0
M  V30 5886 H 573.043 4.68238 -6.29065 0
M  V30 5887 N 570.547 0.616602 1.45037 0
M  V30 5888 C 571.477 -0.0840787 2.33349 0
M  V30 5889 C 572.458 -0.849641 1.4736 0
M  V30 5890 O 573.643 -0.818407 1.76113 0
M  V30 5891 C 570.773 -1.07604 3.3021 0
M  V30 5892 C 569.727 -0.423096 4.25904 0
M  V30 5893 C 569.053 -1.52394 5.12523 0
M  V30 5894 C 570.353 0.661457 5.18095 0
M  V30 5895 H 572.047 0.653333 2.92185 0
M  V30 5896 H 569.593 0.315634 1.40498 0
M  V30 5897 H 571.546 -1.57485 3.90866 0
M  V30 5898 H 570.27 -1.84416 2.69552 0
M  V30 5899 H 568.929 0.05493 3.66559 0
M  V30 5900 H 568.577 -2.28257 4.48227 0
M  V30 5901 H 568.277 -1.09251 5.77354 0
M  V30 5902 H 569.801 -2.02485 5.76049 0
M  V30 5903 H 571.215 0.246353 5.7277 0
M  V30 5904 H 569.612 1.01517 5.91451 0
M  V30 5905 H 570.682 1.53446 4.59981 0
M  V30 5906 N 572.025 -1.5352 0.356285 0
M  V30 5907 C 572.957 -2.23009 -0.529127 0
M  V30 5908 C 573.97 -1.241 -1.05371 0
M  V30 5909 O 575.159 -1.50379 -0.961679 0
M  V30 5910 C 572.259 -2.90685 -1.74229 0
M  V30 5911 C 571.432 -4.16019 -1.35081 0
M  V30 5912 C 570.491 -4.66989 -2.42502 0
M  V30 5913 O 569.517 -5.30895 -2.05279 0
M  V30 5914 N 570.719 -4.44006 -3.7395 0
M  V30 5915 H 573.484 -2.99627 0.0660501 0
M  V30 5916 H 571.045 -1.60885 0.181014 0
M  V30 5917 H 573.037 -3.21695 -2.4555 0
M  V30 5918 H 571.607 -2.17575 -2.24454 0
M  V30 5919 H 570.827 -3.91414 -0.467833 0
M  V30 5920 H 572.115 -4.9752 -1.06542 0
M  V30 5921 H 571.513 -3.92924 -4.06973 0
M  V30 5922 H 570.07 -4.7959 -4.41403 0
M  V30 5923 N 573.503 -0.0852151 -1.57369 0
M  V30 5924 C 574.45 0.877268 -2.13478 0
M  V30 5925 C 575.42 1.28642 -1.05073 0
M  V30 5926 O 576.605 1.36992 -1.32808 0
M  V30 5927 C 573.745 2.13464 -2.71159 0
M  V30 5928 C 572.858 1.77691 -3.93764 0
M  V30 5929 C 571.993 2.98139 -4.39643 0
M  V30 5930 C 571.032 2.58447 -5.54862 0
M  V30 5931 N 570.169 3.71698 -5.95639 0
M  V30 5932 H 575.009 0.391933 -2.95411 0
M  V30 5933 H 572.546 0.181796 -1.45972 0
M  V30 5934 H 574.504 2.87086 -3.02717 0
M  V30 5935 H 573.134 2.59514 -1.91969 0
M  V30 5936 H 572.186 0.940768 -3.68583 0
M  V30 5937 H 573.498 1.44497 -4.77412 0
M  V30 5938 H 572.652 3.80026 -4.72933 0
M  V30 5939 H 571.391 3.34536 -3.54876 0
M  V30 5940 H 570.396 1.74984 -5.21211 0
M  V30 5941 H 571.621 2.23205 -6.41371 0
M  V30 5942 H 569.567 4.07831 -5.13819 0
M  V30 5943 H 569.484 3.42317 -6.74059 0
M  V30 5944 H 570.752 4.54123 -6.33555 0
M  V30 5945 N 574.981 1.5647 0.188427 0
M  V30 5946 C 575.911 1.98101 1.23606 0
M  V30 5947 C 576.892 0.853961 1.47111 0
M  V30 5948 O 578.077 1.11879 1.58735 0
M  V30 5949 C 575.207 2.32624 2.57882 0
M  V30 5950 C 574.161 3.48129 2.48978 0
M  V30 5951 C 573.487 3.68347 3.87588 0
M  V30 5952 C 574.787 4.82112 2.00911 0
M  V30 5953 H 576.481 2.85864 0.890068 0
M  V30 5954 H 574.027 1.37532 0.426714 0
M  V30 5955 H 575.98 2.60343 3.3136 0
M  V30 5956 H 574.704 1.41751 2.94235 0
M  V30 5957 H 573.363 3.20511 1.77956 0
M  V30 5958 H 573.011 2.74793 4.21305 0
M  V30 5959 H 572.711 4.46055 3.82503 0
M  V30 5960 H 574.235 3.98449 4.62678 0
M  V30 5961 H 575.649 5.08819 2.64151 0
M  V30 5962 H 574.046 5.63337 2.06814 0
M  V30 5963 H 575.116 4.75249 0.96262 0
M  V30 5964 N 576.459 -0.456382 1.50847 0
M  V30 5965 C 577.392 -1.57177 1.65441 0
M  V30 5966 C 578.37 -1.54649 0.502224 0
M  V30 5967 O 579.554 -1.74057 0.723633 0
M  V30 5968 C 576.681 -2.95763 1.65052 0
M  V30 5969 C 575.727 -3.16389 2.86007 0
M  V30 5970 S 576.56 -2.94716 4.47105 0
M  V30 5971 C 577.716 -4.35617 4.49432 0
M  V30 5972 H 577.949 -1.44561 2.59787 0
M  V30 5973 H 575.482 -0.644758 1.40293 0
M  V30 5974 H 577.44 -3.75654 1.65512 0
M  V30 5975 H 576.101 -3.05756 0.719153 0
M  V30 5976 H 575.294 -4.17667 2.82081 0
M  V30 5977 H 574.896 -2.44293 2.8319 0
M  V30 5978 H 577.188 -5.28503 4.239 0
M  V30 5979 H 578.131 -4.44582 5.51137 0
M  V30 5980 H 578.539 -4.18382 3.78967 0
M  V30 5981 N 577.937 -1.40673 -0.710563 0
M  V30 5982 C 579.353 -1.22813 -1.01928 0
M  V30 5983 C 579.553 -0.10687 -2.01216 0
M  V30 5984 O 578.609 0.533614 -2.46797 0
M  V30 5985 C 579.922 -2.57178 -1.5582 0
M  V30 5986 C 581.47 -2.64233 -1.67779 0
M  V30 5987 C 581.945 -3.98879 -2.25076 0
M  V30 5988 N 583.436 -4.00647 -2.32456 0
M  V30 5989 C 584.171 -5.01621 -2.77784 0
M  V30 5990 N 583.667 -6.12989 -3.22826 0
M  V30 5991 N 585.46 -4.88988 -2.77213 0
M  V30 5992 H 577.611 -2.12335 -0.05253 0
M  V30 5993 H 579.874 -0.9441 -0.085898 0
M  V30 5994 H 579.58 -3.39903 -0.903249 0
M  V30 5995 H 579.454 -2.78618 -2.54267 0
M  V30 5996 H 581.841 -1.81876 -2.3239 0
M  V30 5997 H 581.922 -2.46619 -0.679178 0
M  V30 5998 H 581.566 -4.81678 -1.61086 0
M  V30 5999 H 581.496 -4.13826 -3.25661 0
M  V30 6000 H 583.987 -3.20231 -2.0065 0
M  V30 6001 H 584.3 -6.85921 -3.55995 0
M  V30 6002 H 582.645 -6.16547 -3.20773 0
M  V30 6003 H 585.836 -4.01075 -2.41363 0
M  V30 6004 H 586.009 -5.67822 -3.12221 0
M  V30 6005 N 579.415 0.9433 -1.26252 0
M  V30 6006 C 580.64 1.72898 -1.14547 0
M  V30 6007 C 581.065 1.85761 0.295743 0
M  V30 6008 O 580.423 1.3463 1.21427 0
M  V30 6009 C 580.471 3.11471 -1.8171 0
M  V30 6010 O 579.575 3.97336 -1.10445 0
M  V30 6011 H 578.916 0.530555 -0.399259 0
M  V30 6012 H 581.446 1.18159 -1.67032 0
M  V30 6013 H 581.456 3.61872 -1.88449 0
M  V30 6014 H 580.131 3.01425 -2.86558 0
M  V30 6015 H 578.708 3.55788 -1.11666 0
M  V30 6016 N 580.893 1.08022 1.14757 0
M  V30 6017 C 581.803 0.718292 2.23333 0
M  V30 6018 C 582.819 -0.273477 1.71837 0
M  V30 6019 O 583.995 -0.118406 2.01052 0
M  V30 6020 C 581.06 0.128855 3.4646 0
M  V30 6021 C 580.121 1.17473 4.12915 0
M  V30 6022 C 579.354 0.61333 5.30164 0
M  V30 6023 O 579.577 -0.568458 5.6756 0
M  V30 6024 O 578.511 1.3615 5.86299 0
M  V30 6025 H 582.337 1.62394 2.56636 0
M  V30 6026 H 579.922 0.853628 1.22611 0
M  V30 6027 H 581.804 -0.197249 4.20938 0
M  V30 6028 H 580.479 -0.750014 3.14891 0
M  V30 6029 H 579.386 1.5533 3.40328 0
M  V30 6030 H 580.719 2.02574 4.48581 0
M  V30 6031 N 582.371 -1.3172 0.865308 0
M  V30 6032 C 583.782 -1.79104 0.527126 0
M  V30 6033 C 584.133 -1.7135 -0.955695 0
M  V30 6034 O 583.258 -1.27845 -1.74598 0
M  V30 6035 C 583.853 -3.25207 0.950061 0
M  V30 6036 C 582.412 -3.70504 0.663611 0
M  V30 6037 C 581.559 -2.52605 1.14395 0
M  V30 6038 H 584.51 -1.18868 1.05148 0
M  V30 6039 H 584.531 -3.79535 0.270805 0
M  V30 6040 H 584.043 -3.30818 2.02931 0
M  V30 6041 H 582.144 -3.70398 -0.404474 0
M  V30 6042 H 582.257 -4.62845 1.23737 0
M  V30 6043 H 580.621 -2.4838 0.563859 0
M  V30 6044 H 581.404 -2.60964 2.23053 0
M  V30 6045 N 583.85 -0.624285 -1.44708 0
M  V30 6046 C 585.266 -0.289322 -1.56956 0
M  V30 6047 C 585.466 1.20773 -1.61295 0
M  V30 6048 O 584.522 1.9915 -1.55227 0
M  V30 6049 C 585.835 -0.975215 -2.84447 0
M  V30 6050 C 587.383 -0.952709 -2.98148 0
M  V30 6051 C 587.858 -1.61893 -4.28433 0
M  V30 6052 N 589.349 -1.5852 -4.35231 0
M  V30 6053 C 590.084 -2.06969 -5.34744 0
M  V30 6054 N 589.58 -2.63579 -6.40701 0
M  V30 6055 N 591.373 -1.97638 -5.26209 0
M  V30 6056 H 583.524 -1.59612 -1.40135 0
M  V30 6057 H 585.787 -0.669592 -0.671081 0
M  V30 6058 H 585.493 -2.02999 -2.87201 0
M  V30 6059 H 585.367 -0.508749 -3.73753 0
M  V30 6060 H 587.754 0.093568 -2.94952 0
M  V30 6061 H 587.835 -1.4576 -2.10209 0
M  V30 6062 H 587.479 -2.66463 -4.32389 0
M  V30 6063 H 587.409 -1.08893 -5.15218 0
M  V30 6064 H 589.899 -1.17183 -3.59272 0
M  V30 6065 H 590.213 -2.98298 -7.12908 0
M  V30 6066 H 588.558 -2.67626 -6.41406 0
M  V30 6067 H 591.749 -1.5314 -4.42341 0
M  V30 6068 H 591.922 -2.35708 -6.03611 0
M  V30 6069 N 585.328 1.53329 -0.364422 0
M  V30 6070 C 586.739 1.86345 0.115039 0
M  V30 6071 C 587.09 1.28505 1.4826 0
M  V30 6072 O 586.215 0.606639 2.07723 0
M  V30 6073 C 586.81 3.38114 0.215522 0
M  V30 6074 C 585.369 3.70932 0.639237 0
M  V30 6075 C 584.516 2.76471 -0.214261 0
M  V30 6076 H 587.467 1.47593 -0.583258 0
M  V30 6077 H 587.488 3.66031 1.0393 0
M  V30 6078 H 587 3.80182 -0.779948 0
M  V30 6079 H 585.101 3.3442 1.64298 0
M  V30 6080 H 585.214 4.77302 0.41465 0
M  V30 6081 H 583.578 2.52724 0.316678 0
M  V30 6082 H 584.361 3.21373 -1.20725 0
M  V30 6083 N 586.806 0.0935595 1.57322 0
M  V30 6084 C 588.054 -0.569383 1.93913 0
M  V30 6085 C 588.375 -1.68817 0.976009 0
M  V30 6086 O 587.645 -1.9588 0.0278099 0
M  V30 6087 H 586.225 -0.21332 0.715894 0
M  V30 6088 H 588.887 0.156531 1.9427 0
M  V30 6089 H 587.983 -0.980577 2.96296 0
M  V30 6090 N 588.284 -1.56567 -0.180126 0
M  V30 6091 C 589.53 -1.81761 -0.899497 0
M  V30 6092 C 589.863 -0.670015 -1.82276 0
M  V30 6093 O 589.138 0.328575 -1.91705 0
M  V30 6094 C 589.421 -3.17296 -1.7028 0
M  V30 6095 C 589.274 -4.4257 -0.803255 0
M  V30 6096 C 590.593 -3.49678 -2.67233 0
M  V30 6097 H 587.712 -0.661192 -0.325567 0
M  V30 6098 H 590.354 -1.89272 -0.16612 0
M  V30 6099 H 588.504 -3.11023 -2.32802 0
M  V30 6100 H 590.176 -4.60902 -0.191585 0
M  V30 6101 H 588.419 -4.33658 -0.110796 0
M  V30 6102 H 589.09 -5.33935 -1.40064 0
M  V30 6103 H 591.566 -3.56347 -2.14839 0
M  V30 6104 H 590.442 -4.45605 -3.20511 0
M  V30 6105 H 590.703 -2.73932 -3.47007 0
M  V30 6106 N 589.762 0.448376 -1.51087 0
M  V30 6107 C 590.692 1.55102 -1.74544 0
M  V30 6108 C 591.673 1.59357 -0.594932 0
M  V30 6109 O 592.858 1.75261 -0.836491 0
M  V30 6110 C 589.988 2.93268 -1.86041 0
M  V30 6111 C 588.942 3.03877 -3.01402 0
M  V30 6112 C 588.268 4.43914 -2.98068 0
M  V30 6113 C 589.568 2.7898 -4.41551 0
M  V30 6114 H 591.262 1.35724 -2.66869 0
M  V30 6115 H 588.808 0.651498 -1.28419 0
M  V30 6116 H 590.761 3.70356 -2.01034 0
M  V30 6117 H 589.485 3.13853 -0.903548 0
M  V30 6118 H 588.144 2.29227 -2.86096 0
M  V30 6119 H 587.792 4.6145 -2.00182 0
M  V30 6120 H 587.492 4.51944 -3.75527 0
M  V30 6121 H 589.016 5.22991 -3.1514 0
M  V30 6122 H 590.43 3.45805 -4.57265 0
M  V30 6123 H 588.827 2.98431 -5.20633 0
M  V30 6124 H 589.897 1.74663 -4.5235 0
M  V30 6125 N 591.24 1.41047 0.703093 0
M  V30 6126 C 592.17 1.45067 1.82969 0
M  V30 6127 C 593.151 0.31016 1.67248 0
M  V30 6128 O 594.336 0.520548 1.87093 0
M  V30 6129 C 591.466 1.32478 3.2104 0
M  V30 6130 C 590.42 2.44262 3.51454 0
M  V30 6131 C 589.746 2.16742 4.88801 0
M  V30 6132 C 591.046 3.86606 3.51189 0
M  V30 6133 H 592.74 2.39353 1.79863 0
M  V30 6134 H 590.286 1.15206 0.863919 0
M  V30 6135 H 592.239 1.33904 3.99559 0
M  V30 6136 H 590.963 0.346735 3.24754 0
M  V30 6137 H 589.622 2.42107 2.75282 0
M  V30 6138 H 589.27 1.17299 4.89132 0
M  V30 6139 H 588.97 2.91643 5.10116 0
M  V30 6140 H 590.494 2.19872 5.69639 0
M  V30 6141 H 591.908 3.90517 4.19725 0
M  V30 6142 H 590.305 4.61128 3.84033 0
M  V30 6143 H 591.375 4.15296 2.50315 0
M  V30 6144 N 592.718 -0.936591 1.26751 0
M  V30 6145 C 594.134 -1.21095 1.03963 0
M  V30 6146 C 594.334 -2.00156 -0.232372 0
M  V30 6147 O 593.39 -2.3434 -0.940274 0
M  V30 6148 C 594.703 -1.96775 2.27377 0
M  V30 6149 C 596.251 -2.09749 2.32324 0
M  V30 6150 C 596.726 -2.88832 3.55443 0
M  V30 6151 N 598.217 -2.96404 3.55948 0
M  V30 6152 C 598.952 -3.58036 4.47881 0
M  V30 6153 N 598.448 -4.21132 5.50109 0
M  V30 6154 N 600.241 -3.55353 4.35523 0
M  V30 6155 H 592.392 -0.408173 2.08441 0
M  V30 6156 H 594.655 -0.243139 0.91629 0
M  V30 6157 H 594.361 -1.46094 3.19921 0
M  V30 6158 H 594.235 -2.97424 2.31989 0
M  V30 6159 H 596.622 -2.5962 1.40291 0
M  V30 6160 H 596.703 -1.08347 2.31721 0
M  V30 6161 H 596.347 -2.39647 4.47808 0
M  V30 6162 H 596.277 -3.90499 3.53296 0
M  V30 6163 H 598.768 -2.51552 2.82011 0
M  V30 6164 H 599.081 -4.66071 6.16439 0
M  V30 6165 H 597.426 -4.19705 5.53961 0
M  V30 6166 H 600.617 -3.05256 3.54875 0
M  V30 6167 H 600.79 -4.03097 5.07363 0
M  V30 6168 N 594.196 -1.08629 -1.14182 0
M  V30 6169 C 595.159 -0.722027 -2.1753 0
M  V30 6170 C 596.159 0.244305 -1.58933 0
M  V30 6171 O 597.349 0.0235545 -1.74184 0
M  V30 6172 C 594.481 -0.0663966 -3.40835 0
M  V30 6173 H 595.674 -1.63719 -2.51269 0
M  V30 6174 H 593.227 -0.884442 -1.28869 0
M  V30 6175 H 593.962 0.860389 -3.12678 0
M  V30 6176 H 593.747 -0.761598 -3.84632 0
M  V30 6177 H 595.237 0.173346 -4.1724 0
M  V30 6178 N 595.674 1.31259 -0.872281 0
M  V30 6179 C 597.085 1.78822 -0.536617 0
M  V30 6180 C 597.436 1.71855 0.946594 0
M  V30 6181 O 596.561 1.28769 1.73918 0
M  V30 6182 C 597.156 3.24698 -0.967294 0
M  V30 6183 C 595.715 3.70147 -0.683251 0
M  V30 6184 C 594.862 2.51994 -1.15733 0
M  V30 6185 H 597.813 1.18308 -1.05777 0
M  V30 6186 H 597.834 3.79386 -0.290929 0
M  V30 6187 H 597.346 3.29737 -2.04683 0
M  V30 6188 H 595.447 3.70607 0.384825 0
M  V30 6189 H 595.56 4.62183 -1.2619 0
M  V30 6190 H 593.924 2.48078 -0.577024 0
M  V30 6191 H 594.707 2.59778 -2.24434 0
M  V30 6192 N 597.152 0.631951 1.44375 0
M  V30 6193 C 598.399 0.136767 2.02038 0
M  V30 6194 C 598.727 -1.24168 1.49709 0
M  V30 6195 O 597.982 -1.83809 0.671763 0
M  V30 6196 C 598.281 0.0735861 3.57324 0
M  V30 6197 C 597.947 1.39092 4.28911 0
M  V30 6198 C 596.609 1.75171 4.48184 0
M  V30 6199 C 598.961 2.26042 4.69632 0
M  V30 6200 C 596.289 2.97907 5.05439 0
M  V30 6201 C 598.641 3.4805 5.28246 0
M  V30 6202 C 597.305 3.84351 5.45738 0
M  V30 6203 H 596.575 0.0500466 0.739308 0
M  V30 6204 H 599.222 0.818429 1.7313 0
M  V30 6205 H 597.527 -0.691449 3.8565 0
M  V30 6206 H 599.224 -0.326091 3.99672 0
M  V30 6207 H 595.814 1.10015 4.1424 0
M  V30 6208 H 599.998 1.99463 4.54454 0
M  V30 6209 H 595.254 3.26108 5.17169 0
M  V30 6210 H 599.428 4.15658 5.5875 0
M  V30 6211 H 597.055 4.79538 5.8987 0
M  V30 6212 N 598.631 -1.53133 0.372548 0
M  V30 6213 C 600.042 -1.86404 -0.105155 0
M  V30 6214 C 600.393 -1.29289 -1.47576 0
M  V30 6215 O 599.518 -0.617646 -2.07398 0
M  V30 6216 C 600.113 -3.38223 -0.197588 0
M  V30 6217 C 598.672 -3.71266 -0.619556 0
M  V30 6218 C 597.819 -2.76353 0.228919 0
M  V30 6219 H 600.77 -1.47282 0.591077 0
M  V30 6220 H 600.791 -3.66577 -1.01987 0
M  V30 6221 H 600.303 -3.79763 0.800099 0
M  V30 6222 H 598.404 -3.35287 -1.62522 0
M  V30 6223 H 598.517 -4.77515 -0.389332 0
M  V30 6224 H 596.881 -2.52888 -0.303271 0
M  V30 6225 H 597.664 -3.20728 1.22428 0
M  V30 6226 O 600.148 -0.242051 -1.59676 0
M  V30 6227 H 600.839 0.334494 -1.9079 0
M  V30 END ATOM
M  V30 BEGIN BOND
M  V30 END BOND
M  V30 END CTAB
M  END
$$$$
