drugbank_target|P00800 Thermolysin (DB01935; DB02597; DB02669; DB03255; DB06819; DB07103; DB07434; DB07487; DB07506; DB07673; DB07989)
 OpenBabel12092120393D

  0  0  0     0  0            999 V3000
M  V30 BEGIN CTAB
M  V30 COUNTS 8348 8444 0 0 0
M  V30 BEGIN ATOM
M  V30 1 H -0.908 1.98254 -0.117106 0
M  V30 2 N 0 1.576 0 0
M  V30 3 C 0.933 2.03868 1.02534 0
M  V30 4 C 1.911 0.928543 1.3348 0
M  V30 5 O 3.095 1.19667 1.45644 0
M  V30 6 C 0.222 2.43627 2.35294 0
M  V30 7 C -0.732 3.65373 2.2001 0
M  V30 8 S 0.101 5.13292 1.52614 0
M  V30 9 C 1.257 5.56322 2.86805 0
M  V30 10 H 1.49 2.90518 0.631377 0
M  V30 11 H -0.977 1.52953 0.210867 0
M  V30 12 H 0.981 2.67203 3.11629 0
M  V30 13 H -0.358 1.57376 2.7183 0
M  V30 14 H -1.165 3.90944 3.18086 0
M  V30 15 H -1.563 3.418 1.51819 0
M  V30 16 H 0.729 5.58782 3.83104 0
M  V30 17 H 1.672 6.56266 2.65933 0
M  V30 18 H 2.08 4.83886 2.90714 0
M  V30 19 N 1.4781 -0.272755 1.55222 0
M  V30 20 C 2.4251 -1.33716 1.88119 0
M  V30 21 C 3.3951 -1.49066 0.73271 0
M  V30 22 O 4.5801 -1.63469 0.984002 0
M  V30 23 C 1.7201 -2.69238 2.15882 0
M  V30 24 C 0.8331 -2.62108 3.43399 0
M  V30 25 C -0.0319 -3.89811 3.60861 0
M  V30 26 C -0.9929 -3.77193 4.8207 0
M  V30 27 N -1.8559 -4.9673 4.96189 0
M  V30 28 H 2.9841 -1.04962 2.78903 0
M  V30 29 H 0.5211 -0.507088 1.38083 0
M  V30 30 H 2.4791 -3.48089 2.29978 0
M  V30 31 H 1.1091 -2.96194 1.28331 0
M  V30 32 H 0.1611 -1.74967 3.37773 0
M  V30 33 H 1.4731 -2.48685 4.32386 0
M  V30 34 H 0.6271 -4.77103 3.74777 0
M  V30 35 H -0.6339 -4.06102 2.7006 0
M  V30 36 H -1.6289 -2.88284 4.68159 0
M  V30 37 H -0.4039 -3.62421 5.74307 0
M  V30 38 H -2.4579 -5.13431 4.08319 0
M  V30 39 H -2.5409 -4.85839 5.79221 0
M  V30 40 H -1.2729 -5.85594 5.1449 0
M  V30 41 N 2.9562 -1.48159 -0.537278 0
M  V30 42 C 3.8892 -1.567 -1.65893 0
M  V30 43 C 4.8672 -0.41787 -1.57139 0
M  V30 44 O 6.0512 -0.628461 -1.77715 0
M  V30 45 C 3.1782 -1.48818 -3.04255 0
M  V30 46 C 2.2242 -2.68482 -3.31391 0
M  V30 47 S 3.0572 -4.30516 -3.1846 0
M  V30 48 C 4.2132 -4.2522 -4.59281 0
M  V30 49 H 4.4462 -2.5159 -1.58397 0
M  V30 50 H 1.9792 -1.36602 -0.719672 0
M  V30 51 H 3.9372 -1.44958 -3.84054 0
M  V30 52 H 2.5982 -0.552777 -3.09198 0
M  V30 53 H 1.7912 -2.59085 -4.32309 0
M  V30 54 H 1.3932 -2.69567 -2.59248 0
M  V30 55 H 3.6852 -3.94703 -5.5065 0
M  V30 56 H 4.6282 -5.26292 -4.73732 0
M  V30 57 H 5.0362 -3.55791 -4.38261 0
M  V30 58 N 4.4343 0.785586 -1.36625 0
M  V30 59 C 5.3813 1.89838 -1.31264 0
M  V30 60 C 6.3513 1.65115 -0.180633 0
M  V30 61 O 7.5363 1.87222 -0.36777 0
M  V30 62 C 4.6763 3.26706 -1.11163 0
M  V30 63 C 3.7893 3.63476 -2.33472 0
M  V30 64 C 2.9243 4.89481 -2.06353 0
M  V30 65 C 1.9633 5.18941 -3.24602 0
M  V30 66 N 1.1003 6.36131 -2.97123 0
M  V30 67 H 5.9403 1.93756 -2.26413 0
M  V30 68 H 3.4773 0.947454 -1.12524 0
M  V30 69 H 5.4353 4.05639 -0.975337 0
M  V30 70 H 4.0653 3.222 -0.196674 0
M  V30 71 H 3.1173 2.79636 -2.57891 0
M  V30 72 H 4.4293 3.81193 -3.21704 0
M  V30 73 H 3.5833 5.76288 -1.89675 0
M  V30 74 H 2.3223 4.73841 -1.15437 0
M  V30 75 H 1.3273 4.30615 -3.41834 0
M  V30 76 H 2.5523 5.36498 -4.16349 0
M  V30 77 H 0.4983 6.21875 -2.08823 0
M  V30 78 H 0.4153 6.54198 -3.78894 0
M  V30 79 H 1.6833 7.2591 -2.84033 0
M  V30 80 N 5.9124 1.20967 1.01018 0
M  V30 81 C 6.8454 0.907578 2.09376 0
M  V30 82 C 7.8234 -0.142868 1.61971 0
M  V30 83 O 9.0074 -0.0150391 1.88494 0
M  V30 84 C 6.1344 0.361791 3.36762 0
M  V30 85 C 5.1804 1.39423 4.03068 0
M  V30 86 S 6.0134 2.96159 4.4615 0
M  V30 87 C 7.1694 2.43173 5.7673 0
M  V30 88 H 7.4024 1.82519 2.34678 0
M  V30 89 H 4.9354 1.03884 1.14225 0
M  V30 90 H 6.8934 0.0534523 4.10465 0
M  V30 91 H 5.5544 -0.53443 3.0952 0
M  V30 92 H 4.7474 0.961853 4.94737 0
M  V30 93 H 4.3494 1.65038 3.35617 0
M  V30 94 H 6.6414 1.83335 6.52223 0
M  V30 95 H 7.5844 3.33264 6.24773 0
M  V30 96 H 7.9924 1.85069 5.33301 0
M  V30 97 N 7.3905 -1.2043 1.01659 0
M  V30 98 C 8.3375 -2.23215 0.586822 0
M  V30 99 C 9.3075 -1.61382 -0.393085 0
M  V30 100 O 10.4925 -1.88544 -0.292525 0
M  V30 101 C 7.6325 -3.45032 -0.0687464 0
M  V30 102 C 6.7455 -4.21296 0.955724 0
M  V30 103 C 5.8805 -5.30507 0.271208 0
M  V30 104 C 4.9195 -5.98515 1.28244 0
M  V30 105 N 4.0565 -6.99316 0.62459 0
M  V30 106 H 8.8965 -2.59336 1.46796 0
M  V30 107 H 6.4335 -1.27431 0.734836 0
M  V30 108 H 8.3915 -4.1459 -0.465965 0
M  V30 109 H 7.0215 -3.09604 -0.913529 0
M  V30 110 H 6.0735 -3.50803 1.4711 0
M  V30 111 H 7.3855 -4.6803 1.72479 0
M  V30 112 H 6.5395 -6.06428 -0.18151 0
M  V30 113 H 5.2785 -4.8481 -0.530163 0
M  V30 114 H 4.2835 -5.21355 1.74554 0
M  V30 115 H 5.5085 -6.46298 2.08509 0
M  V30 116 H 3.4545 -6.55812 -0.156914 0
M  V30 117 H 3.3715 -7.44178 1.33172 0
M  V30 118 H 4.6395 -7.79255 0.195462 0
M  V30 119 N 8.8686 -0.792821 -1.36206 0
M  V30 120 C 9.7986 -0.207853 -2.32573 0
M  V30 121 C 10.7796 0.659055 -1.56813 0
M  V30 122 O 11.9646 0.592176 -1.84951 0
M  V30 123 C 9.0946 0.655449 -3.41059 0
M  V30 124 C 8.0486 -0.111842 -4.27854 0
M  V30 125 C 7.3746 0.872274 -5.27537 0
M  V30 126 C 8.6746 -1.30299 -5.05786 0
M  V30 127 H 10.3686 -1.01294 -2.81744 0
M  V30 128 H 7.9146 -0.48854 -1.3546 0
M  V30 129 H 9.8676 1.07464 -4.07467 0
M  V30 130 H 8.5916 1.49328 -2.90463 0
M  V30 131 H 7.2506 -0.512053 -3.63006 0
M  V30 132 H 6.8986 1.70523 -4.73214 0
M  V30 133 H 6.5986 0.363291 -5.86476 0
M  V30 134 H 8.1226 1.28996 -5.96818 0
M  V30 135 H 9.5366 -0.959379 -5.65216 0
M  V30 136 H 7.9336 -1.7455 -5.74154 0
M  V30 137 H 9.0036 -2.09663 -4.37229 0
M  V30 138 N 10.3467 1.47872 -0.545128 0
M  V30 139 C 11.3097 2.28337 0.198717 0
M  V30 140 C 12.3097 1.36255 0.853888 0
M  V30 141 O 13.4997 1.59003 0.711606 0
M  V30 142 C 10.6317 3.15585 1.28915 0
M  V30 143 H 11.8247 2.95567 -0.507941 0
M  V30 144 H 9.3777 1.53362 -0.301616 0
M  V30 145 H 10.1127 2.53019 2.02859 0
M  V30 146 H 9.8977 3.83337 0.824309 0
M  V30 147 H 11.3877 3.76243 1.81194 0
M  V30 148 N 11.8248 0.280983 1.55075 0
M  V30 149 C 13.0498 -0.340154 2.04592 0
M  V30 150 C 13.4748 -1.48246 1.15779 0
M  V30 151 O 12.8328 -1.80614 0.15761 0
M  V30 152 C 12.8808 -0.793104 3.5177 0
M  V30 153 O 11.9848 -1.89981 3.66034 0
M  V30 154 H 11.3258 -0.0694289 0.66036 0
M  V30 155 H 13.8558 0.416993 2.00306 0
M  V30 156 H 13.8658 -1.08729 3.93245 0
M  V30 157 H 12.5408 0.0426163 4.15878 0
M  V30 158 H 11.1178 -1.60771 3.36463 0
M  V30 159 N 13.3029 -1.57598 0.00835791 0
M  V30 160 C 14.5499 -1.90928 -0.674732 0
M  V30 161 C 14.8779 -0.88277 -1.73313 0
M  V30 162 O 14.1329 0.111294 -1.95383 0
M  V30 163 C 14.4319 -3.3101 -1.34787 0
M  V30 164 C 14.0979 -4.48922 -0.421861 0
M  V30 165 C 12.7599 -4.8091 -0.166927 0
M  V30 166 C 15.1119 -5.20755 0.215211 0
M  V30 167 C 12.4399 -5.821 0.733232 0
M  V30 168 C 14.7919 -6.22905 1.1033 0
M  V30 169 C 13.4559 -6.53346 1.36733 0
M  V30 170 H 12.7259 -0.698656 -0.246902 0
M  V30 171 H 15.3729 -1.91387 0.0656779 0
M  V30 172 H 13.6779 -3.26714 -2.16253 0
M  V30 173 H 15.3749 -3.54061 -1.8826 0
M  V30 174 H 11.9649 -4.23934 -0.630729 0
M  V30 175 H 16.1489 -4.9629 0.0312829 0
M  V30 176 H 11.4049 -6.04042 0.945712 0
M  V30 177 H 15.5789 -6.77694 1.60325 0
M  V30 178 H 13.2059 -7.31573 2.06652 0
M  V30 179 N 14.781 0.264519 -1.55364 0
M  V30 180 C 16.029 0.993021 -1.76021 0
M  V30 181 C 16.35 1.86511 -0.569099 0
M  V30 182 O 15.62 1.91438 0.415735 0
M  V30 183 H 14.2 0.369639 -0.649135 0
M  V30 184 H 16.862 0.286707 -1.9278 0
M  V30 185 H 15.958 1.62502 -2.66457 0
M  V30 186 N 16.2591 1.48442 0.529413 0
M  V30 187 C 17.1891 1.65902 1.64313 0
M  V30 188 C 18.1701 0.507897 1.6234 0
M  V30 189 O 19.3551 0.740503 1.79528 0
M  V30 190 C 16.4851 1.69911 3.02898 0
M  V30 191 C 15.4391 2.8453 3.19729 0
M  V30 192 C 14.7651 2.73629 4.59381 0
M  V30 193 C 16.0651 4.25821 3.02447 0
M  V30 194 H 17.7591 2.5914 1.49955 0
M  V30 195 H 15.3051 1.24709 0.719982 0
M  V30 196 H 17.2581 1.80715 3.80684 0
M  V30 197 H 15.9821 0.732524 3.18279 0
M  V30 198 H 14.6411 2.73283 2.44361 0
M  V30 199 H 14.2891 1.74938 4.71599 0
M  V30 200 H 13.9891 3.50541 4.71588 0
M  V30 201 H 15.5131 2.86401 5.39265 0
M  V30 202 H 16.9271 4.37898 3.70024 0
M  V30 203 H 15.3241 5.03735 3.26146 0
M  V30 204 H 16.3941 4.42244 1.98867 0
M  V30 205 N 17.7372 -0.778329 1.37039 0
M  V30 206 C 18.7002 -1.87301 1.32102 0
M  V30 207 C 19.7002 -1.59198 0.226405 0
M  V30 208 O 20.8902 -1.67403 0.481861 0
M  V30 209 C 18.0222 -3.24309 1.05055 0
M  V30 210 H 19.2152 -1.93093 2.29467 0
M  V30 211 H 16.7682 -0.977358 1.21973 0
M  V30 212 H 17.5032 -3.24196 0.0819373 0
M  V30 213 H 17.2882 -3.46098 1.84279 0
M  V30 214 H 18.7782 -4.04382 1.04234 0
M  V30 215 N 19.2153 -1.21501 -1.00376 0
M  V30 216 C 20.1783 -0.976927 -2.07337 0
M  V30 217 C 21.1783 0.0525322 -1.60714 0
M  V30 218 O 22.3683 -0.184869 -1.73216 0
M  V30 219 C 19.5003 -0.473423 -3.37597 0
M  V30 220 H 20.6933 -1.92587 -2.29892 0
M  V30 221 H 18.2463 -1.03217 -1.17371 0
M  V30 222 H 18.9813 0.480379 -3.20722 0
M  V30 223 H 18.7663 -1.216 -3.72768 0
M  V30 224 H 20.2563 -0.32675 -4.1632 0
M  V30 225 N 20.6934 1.19889 -1.02296 0
M  V30 226 C 21.9414 1.89046 -0.714558 0
M  V30 227 C 22.2624 1.79636 0.758681 0
M  V30 228 O 21.5324 1.20292 1.54618 0
M  V30 229 H 20.1124 0.699802 -0.261317 0
M  V30 230 H 22.7744 1.45574 -1.29592 0
M  V30 231 H 21.8704 2.95524 -1.0036 0
M  V30 232 N 22.1715 0.800033 1.35784 0
M  V30 233 C 23.1015 0.220184 2.3246 0
M  V30 234 C 24.0825 -0.65073 1.57161 0
M  V30 235 O 25.2675 -0.582359 1.85263 0
M  V30 236 C 22.3975 -0.637353 3.41402 0
M  V30 237 C 21.3515 0.134531 4.27789 0
M  V30 238 C 20.6775 -0.844285 5.27992 0
M  V30 239 C 21.9775 1.32979 5.05088 0
M  V30 240 H 23.6715 1.02787 2.81203 0
M  V30 241 H 21.2175 0.495717 1.35199 0
M  V30 242 H 23.1705 -1.05302 4.08031 0
M  V30 243 H 21.8945 -1.47785 2.91251 0
M  V30 244 H 20.5535 0.531296 3.6273 0
M  V30 245 H 20.2015 -1.68011 4.74111 0
M  V30 246 H 19.9015 -0.332184 5.8666 0
M  V30 247 H 21.4255 -1.2583 5.97494 0
M  V30 248 H 22.8395 0.98934 5.64699 0
M  V30 249 H 21.2365 1.77593 5.7322 0
M  V30 250 H 22.3065 2.11978 4.36111 0
M  V30 251 N 23.6496 -1.47581 0.552962 0
M  V30 252 C 24.6126 -2.28439 -0.186605 0
M  V30 253 C 25.6126 -1.36706 -0.84665 0
M  V30 254 O 26.8026 -1.59378 -0.703164 0
M  V30 255 C 23.9346 -3.16264 -1.2724 0
M  V30 256 H 25.1276 -2.95294 0.523609 0
M  V30 257 H 22.6806 -1.532 0.309745 0
M  V30 258 H 23.4156 -2.54091 -2.01514 0
M  V30 259 H 23.2006 -3.83769 -0.803968 0
M  V30 260 H 24.6906 -3.77198 -1.79196 0
M  V30 261 N 25.1277 -0.289203 -1.54924 0
M  V30 262 C 26.0907 0.579144 -2.21762 0
M  V30 263 C 27.0907 1.07047 -1.1999 0
M  V30 264 O 28.2807 0.968384 -1.44803 0
M  V30 265 C 25.4127 1.80055 -2.8947 0
M  V30 266 H 26.6057 -0.00464908 -2.999 0
M  V30 267 H 24.1587 -0.0399306 -1.56249 0
M  V30 268 H 24.8937 2.42449 -2.15381 0
M  V30 269 H 24.6787 1.45602 -3.64064 0
M  V30 270 H 26.1687 2.41773 -3.40493 0
M  V30 271 N 26.6058 1.57591 -0.0167156 0
M  V30 272 C 27.5378 2.06343 0.997753 0
M  V30 273 C 28.5508 0.984469 1.29661 0
M  V30 274 O 29.7398 1.26093 1.26344 0
M  V30 275 C 26.8398 2.46255 2.32834 0
M  V30 276 C 26.0128 3.77083 2.21646 0
M  V30 277 C 25.0718 4.0368 3.37534 0
M  V30 278 O 24.0978 4.7411 3.14973 0
M  V30 279 N 25.2998 3.52881 4.60929 0
M  V30 280 H 28.0648 2.93997 0.581875 0
M  V30 281 H 25.6258 1.61002 0.170316 0
M  V30 282 H 27.6178 2.61149 3.09166 0
M  V30 283 H 26.1878 1.64032 2.66106 0
M  V30 284 H 25.4078 3.72106 1.30119 0
M  V30 285 H 26.6958 4.62822 2.11361 0
M  V30 286 H 26.0938 2.95878 4.82154 0
M  V30 287 H 24.6508 3.73076 5.34469 0
M  V30 288 N 28.0839 -0.256276 1.55502 0
M  V30 289 C 29.3299 -0.987079 1.77157 0
M  V30 290 C 29.6629 -1.85327 0.580315 0
M  V30 291 O 28.9379 -1.89874 -0.421686 0
M  V30 292 C 29.2209 -1.85553 3.08613 0
M  V30 293 C 29.0739 -1.01816 4.38125 0
M  V30 294 C 30.3929 -2.8397 3.36228 0
M  V30 295 H 27.5119 -0.357428 0.644526 0
M  V30 296 H 30.1539 -0.258239 1.88237 0
M  V30 297 H 28.3039 -2.47695 2.99298 0
M  V30 298 H 29.9759 -0.416159 4.59419 0
M  V30 299 H 28.2189 -0.322178 4.32602 0
M  V30 300 H 28.8899 -1.65939 5.26468 0
M  V30 301 H 31.3659 -2.31964 3.45445 0
M  V30 302 H 30.2419 -3.41864 4.29442 0
M  V30 303 H 30.5029 -3.59955 2.56681 0
M  V30 304 N 29.562 -1.4872 -0.521534 0
M  V30 305 C 30.809 -1.57168 -1.27689 0
M  V30 306 C 31.137 -0.249275 -1.92896 0
M  V30 307 O 30.392 0.761162 -1.80291 0
M  V30 308 C 30.691 -2.66497 -2.38148 0
M  V30 309 C 30.357 -4.08664 -1.90538 0
M  V30 310 C 29.019 -4.47357 -1.77271 0
M  V30 311 C 31.371 -4.97724 -1.54663 0
M  V30 312 C 28.699 -5.72905 -1.26478 0
M  V30 313 C 31.051 -6.2377 -1.05329 0
M  V30 314 C 29.715 -6.61311 -0.906861 0
M  V30 315 H 28.985 -0.575117 -0.467249 0
M  V30 316 H 31.632 -1.82472 -0.581051 0
M  V30 317 H 29.937 -2.35085 -3.13437 0
M  V30 318 H 31.634 -2.70246 -2.96257 0
M  V30 319 H 28.224 -3.78111 -2.01816 0
M  V30 320 H 32.408 -4.68501 -1.63768 0
M  V30 321 H 27.664 -6.00709 -1.13835 0
M  V30 322 H 31.838 -6.9217 -0.76644 0
M  V30 323 H 29.465 -7.5848 -0.511083 0
M  V30 324 N 31.0401 0.771051 -1.3745 0
M  V30 325 C 31.9701 1.89827 -1.3597 0
M  V30 326 C 32.9511 1.68562 -0.228216 0
M  V30 327 O 34.1361 1.8941 -0.428675 0
M  V30 328 C 31.2661 3.2712 -1.16662 0
M  V30 329 C 30.2201 3.6295 -2.2683 0
M  V30 330 C 29.5461 4.98791 -1.92644 0
M  V30 331 C 30.8461 3.69627 -3.69017 0
M  V30 332 H 32.5401 1.91323 -2.30295 0
M  V30 333 H 30.0861 0.919082 -1.10855 0
M  V30 334 H 32.0391 4.05615 -1.14256 0
M  V30 335 H 30.7631 3.26059 -0.187926 0
M  V30 336 H 29.4221 2.86763 -2.28392 0
M  V30 337 H 29.0701 4.94271 -0.933021 0
M  V30 338 H 28.7701 5.23733 -2.66416 0
M  V30 339 H 30.2941 5.79685 -1.91826 0
M  V30 340 H 31.7081 4.38273 -3.69581 0
M  V30 341 H 30.1051 4.06067 -4.41848 0
M  V30 342 H 31.1751 2.70273 -4.02592 0
M  V30 343 N 32.5182 1.22032 0.997298 0
M  V30 344 C 33.9292 1.0397 1.55071 0
M  V30 345 C 34.2802 -0.398192 1.92117 0
M  V30 346 O 33.4052 -1.28254 1.74298 0
M  V30 347 C 34.0002 1.88109 2.81781 0
M  V30 348 C 32.5592 1.74357 3.33581 0
M  V30 349 C 31.7062 1.84846 2.06706 0
M  V30 350 H 34.6572 1.35941 0.818883 0
M  V30 351 H 34.6782 1.39589 3.53971 0
M  V30 352 H 34.1902 2.92754 2.54787 0
M  V30 353 H 32.2912 0.72427 3.65493 0
M  V30 354 H 32.4042 2.56772 4.04481 0
M  V30 355 H 30.7682 1.28238 2.20062 0
M  V30 356 H 31.5512 2.91014 1.82114 0
M  V30 357 N 33.9963 -1.19345 1.0293 0
M  V30 358 C 35.2263 -1.92717 0.744563 0
M  V30 359 C 35.6343 -1.75751 -0.700579 0
M  V30 360 O 34.9773 -1.07703 -1.48815 0
M  V30 361 C 35.0393 -3.44828 1.01657 0
M  V30 362 C 34.7033 -3.85564 2.45335 0
M  V30 363 C 35.7003 -3.90286 3.43472 0
M  V30 364 C 33.3853 -4.1719 2.79746 0
M  V30 365 C 35.3793 -4.26065 4.74075 0
M  V30 366 C 33.0663 -4.52642 4.10559 0
M  V30 367 C 34.0643 -4.57054 5.07534 0
M  V30 368 O 33.7523 -4.91685 6.36004 0
M  V30 369 H 33.4843 -0.618977 0.271742 0
M  V30 370 H 36.0383 -1.52415 1.37691 0
M  V30 371 H 34.2683 -3.85314 0.327084 0
M  V30 372 H 35.9573 -3.99437 0.721427 0
M  V30 373 H 36.7233 -3.66002 3.18225 0
M  V30 374 H 32.6023 -4.1294 2.04943 0
M  V30 375 H 36.1463 -4.29423 5.49765 0
M  V30 376 H 32.0433 -4.76383 4.35579 0
M  V30 377 H 32.8113 -5.09631 6.40483 0
M  V30 378 N 35.4744 -0.807222 -1.35358 0
M  V30 379 C 36.4224 -0.20614 -2.31685 0
M  V30 380 C 37.4164 0.644445 -1.56663 0
M  V30 381 O 38.6224 0.537538 -1.71786 0
M  V30 382 H 34.9974 -0.0479006 -0.750473 0
M  V30 383 H 36.9684 -1.03369 -2.79924 0
M  V30 384 C 35.7174 0.630212 -3.41941 0
M  V30 385 H 35.0404 -0.0149558 -3.99797 0
M  V30 386 H 36.4804 1.01716 -4.11619 0
M  V30 387 C 34.9394 1.79601 -2.85035 0
M  V30 388 O 35.4694 2.89351 -2.78637 0
M  V30 389 N 33.6754 1.60774 -2.42074 0
M  V30 390 H 33.2224 0.715009 -2.47478 0
M  V30 391 H 33.1804 2.38933 -2.04349 0
M  V30 392 N 36.9525 1.47285 -0.560781 0
M  V30 393 C 37.9155 2.28535 0.174488 0
M  V30 394 C 38.9155 1.37153 0.839388 0
M  V30 395 O 40.1055 1.59748 0.694702 0
M  V30 396 C 37.2375 3.16934 1.25561 0
M  V30 397 H 38.4305 2.95012 -0.539262 0
M  V30 398 H 35.9835 1.53034 -0.317865 0
M  V30 399 H 36.7185 2.55157 2.00164 0
M  V30 400 H 36.5035 3.8419 0.783604 0
M  V30 401 H 37.9935 3.78143 1.77193 0
M  V30 402 N 38.4306 0.297415 1.54768 0
M  V30 403 C 39.3606 -0.573494 2.26348 0
M  V30 404 C 40.3416 -1.14085 1.26169 0
M  V30 405 O 41.5266 -1.17086 1.54934 0
M  V30 406 C 38.6566 -1.74716 3.00153 0
M  V30 407 C 37.6106 -1.31032 4.07449 0
M  V30 408 C 36.9366 -2.56887 4.68949 0
M  V30 409 C 38.2366 -0.444183 5.20408 0
M  V30 410 H 39.9306 0.0235131 2.99391 0
M  V30 411 H 37.4766 0.0127488 1.43994 0
M  V30 412 H 39.4296 -2.3625 3.48947 0
M  V30 413 H 38.1536 -2.37035 2.24682 0
M  V30 414 H 36.8126 -0.718066 3.59499 0
M  V30 415 H 36.4606 -3.17512 3.90122 0
M  V30 416 H 36.1606 -2.2836 5.41411 0
M  V30 417 H 37.6846 -3.19229 5.20505 0
M  V30 418 H 39.0986 -0.9651 5.65118 0
M  V30 419 H 37.4956 -0.252846 5.99567 0
M  V30 420 H 38.5656 0.531609 4.81977 0
M  V30 421 N 39.9087 -1.5758 0.0250728 0
M  V30 422 C 40.8717 -2.08896 -0.943139 0
M  V30 423 C 41.8717 -1.00321 -1.25668 0
M  V30 424 O 43.0617 -1.26495 -1.19769 0
M  V30 425 C 40.1937 -2.55143 -2.26086 0
M  V30 426 H 41.3867 -2.95723 -0.498775 0
M  V30 427 H 38.9397 -1.54703 -0.222888 0
M  V30 428 H 39.6747 -1.71633 -2.75159 0
M  V30 429 H 39.4597 -3.34461 -2.04641 0
M  V30 430 H 40.9497 -2.95083 -2.95492 0
M  V30 431 N 41.3868 0.248026 -1.55636 0
M  V30 432 C 42.6118 0.998028 -1.81808 0
M  V30 433 C 43.0368 1.78207 -0.601979 0
M  V30 434 O 42.3948 1.75653 0.448961 0
M  V30 435 C 42.4428 1.9125 -3.05705 0
M  V30 436 O 41.5468 3.00406 -2.82542 0
M  V30 437 H 40.8878 0.284045 -0.600179 0
M  V30 438 H 43.4178 0.269357 -2.02819 0
M  V30 439 H 43.4278 2.32737 -3.35108 0
M  V30 440 H 42.1028 1.33602 -3.93857 0
M  V30 441 H 40.6798 2.63056 -2.64303 0
M  V30 442 N 42.8649 1.48995 0.513639 0
M  V30 443 C 44.0929 1.61531 1.29288 0
M  V30 444 C 44.5079 0.281801 1.86685 0
M  V30 445 O 43.8649 -0.731111 1.67215 0
M  V30 446 C 43.9159 2.67449 2.43215 0
M  V30 447 O 43.6369 3.95626 1.88179 0
M  V30 448 C 45.1379 2.90575 3.34785 0
M  V30 449 H 42.3579 0.544165 0.392588 0
M  V30 450 H 44.9019 1.9494 0.617956 0
M  V30 451 H 43.0569 2.36853 3.0656 0
M  V30 452 H 43.4709 4.53868 2.62876 0
M  V30 453 H 44.9449 3.68449 4.11035 0
M  V30 454 H 45.4219 2.00011 3.91015 0
M  V30 455 H 46.0279 3.22538 2.77218 0
M  V30 456 N 44.343 -0.763751 1.37857 0
M  V30 457 C 45.253 -1.90817 1.36478 0
M  V30 458 C 46.269 -1.71997 0.263248 0
M  V30 459 O 47.445 -1.95095 0.499979 0
M  V30 460 C 44.51 -3.2605 1.17864 0
M  V30 461 C 43.571 -3.57467 2.3773 0
M  V30 462 C 42.804 -4.86249 2.19995 0
M  V30 463 O 43.027 -5.57884 1.18836 0
M  V30 464 O 41.961 -5.16911 3.08361 0
M  V30 465 H 45.787 -1.94933 2.32884 0
M  V30 466 H 43.372 -0.907619 1.1867 0
M  V30 467 H 45.254 -4.06924 1.09504 0
M  V30 468 H 43.929 -3.22769 0.245372 0
M  V30 469 H 42.836 -2.76796 2.51664 0
M  V30 470 H 44.169 -3.655 3.29652 0
M  V30 471 N 45.8211 -1.22559 -0.990812 0
M  V30 472 C 46.7711 -0.964807 -2.0658 0
M  V30 473 C 47.7551 0.0853472 -1.60673 0
M  V30 474 O 48.9471 -0.125443 -1.76555 0
M  V30 475 C 46.0761 -0.546707 -3.38919 0
M  V30 476 C 45.1621 -1.6317 -3.91454 0
M  V30 477 N 45.5531 -2.85985 -4.17189 0
M  V30 478 C 43.8511 -1.50387 -4.19881 0
M  V30 479 C 44.5521 -3.56159 -4.59919 0
M  V30 480 N 43.5281 -2.83637 -4.63736 0
M  V30 481 H 47.3301 -1.89769 -2.24421 0
M  V30 482 H 44.8441 -1.12343 -1.17273 0
M  V30 483 H 46.8411 -0.34119 -4.15502 0
M  V30 484 H 45.5011 0.379254 -3.22478 0
M  V30 485 H 46.5121 -3.22392 -4.05319 0
M  V30 486 H 43.1891 -0.644254 -4.12499 0
M  V30 487 H 44.5791 -4.6139 -4.88435 0
M  V30 488 N 47.2992 1.18797 -1.03562 0
M  V30 489 C 48.5452 1.8893 -0.737113 0
M  V30 490 C 48.8782 1.79837 0.732956 0
M  V30 491 O 48.1532 1.19525 1.5344 0
M  V30 492 C 48.4362 3.39607 -1.19745 0
M  V30 493 C 48.2892 3.57537 -2.72924 0
M  V30 494 C 49.6082 4.33069 -0.783526 0
M  V30 495 H 46.7272 0.686057 -0.269249 0
M  V30 496 H 49.3692 1.39797 -1.28673 0
M  V30 497 H 47.5192 3.81583 -0.729855 0
M  V30 498 H 49.1912 3.24688 -3.27682 0
M  V30 499 H 47.4342 3.00363 -3.12993 0
M  V30 500 H 48.1052 4.63238 -3.00191 0
M  V30 501 H 50.5812 3.98846 -1.18581 0
M  V30 502 H 49.4572 5.3707 -1.13343 0
M  V30 503 H 49.7182 4.40986 0.313681 0
M  V30 504 N 48.7773 0.814389 1.34928 0
M  V30 505 C 50.0053 0.411136 2.02774 0
M  V30 506 C 50.4203 -0.980316 1.61354 0
M  V30 507 O 49.7773 -1.63299 0.814847 0
M  V30 508 C 49.8283 0.493865 3.58111 0
M  V30 509 O 49.5493 1.83047 3.98027 0
M  V30 510 C 51.0503 0.0844174 4.4322 0
M  V30 511 H 48.2703 0.166037 0.650133 0
M  V30 512 H 50.8143 1.10018 1.72384 0
M  V30 513 H 48.9693 -0.147006 3.87121 0
M  V30 514 H 49.3833 1.79872 4.92693 0
M  V30 515 H 50.8573 0.193404 5.51661 0
M  V30 516 H 51.3343 -0.97113 4.28329 0
M  V30 517 H 51.9403 0.69875 4.19521 0
M  V30 518 N 50.2554 -1.46986 0.568584 0
M  V30 519 C 51.5014 -2.0332 0.0571487 0
M  V30 520 C 51.8564 -1.43384 -1.28291 0
M  V30 521 O 51.1494 -0.584304 -1.82473 0
M  V30 522 C 51.3434 -3.57306 -0.081836 0
M  V30 523 C 51.1724 -4.32174 1.24321 0
M  V30 524 C 49.9424 -4.71633 1.81358 0
M  V30 525 C 52.1404 -4.66598 2.16312 0
M  V30 526 N 50.1224 -5.31191 3.07748 0
M  V30 527 C 51.4934 -5.26578 3.27285 0
M  V30 528 C 53.5484 -4.48527 2.16166 0
M  V30 529 C 52.2514 -5.70395 4.38226 0
M  V30 530 C 54.2774 -4.93351 3.26127 0
M  V30 531 C 53.6394 -5.5339 4.3582 0
M  V30 532 H 49.7384 -0.77943 0.063351 0
M  V30 533 H 52.3224 -1.79323 0.758378 0
M  V30 534 H 50.4934 -3.81046 -0.752207 0
M  V30 535 H 52.2254 -4.00282 -0.59637 0
M  V30 536 H 48.9804 -4.53946 1.35019 0
M  V30 537 H 49.4044 -5.65505 3.72201 0
M  V30 538 H 54.0464 -4.01456 1.32638 0
M  V30 539 H 51.7644 -6.16452 5.22506 0
M  V30 540 H 55.3504 -4.81131 3.27115 0
M  V30 541 H 54.2304 -5.87441 5.19503 0
M  V30 542 N 51.7335 -0.305618 -1.54608 0
M  V30 543 C 52.6815 0.584119 -2.25146 0
M  V30 544 C 53.6755 1.13326 -1.25911 0
M  V30 545 O 54.8815 1.08337 -1.43747 0
M  V30 546 H 51.2565 0.206983 -0.722954 0
M  V30 547 H 53.2275 -0.033291 -2.98381 0
M  V30 548 C 51.9765 1.74225 -3.009 0
M  V30 549 H 51.2995 1.32892 -3.77067 0
M  V30 550 H 52.7395 2.34077 -3.53531 0
M  V30 551 C 51.1985 2.64914 -2.0814 0
M  V30 552 O 51.7285 3.66137 -1.65246 0
M  V30 553 N 49.9345 2.3275 -1.74 0
M  V30 554 H 49.4815 1.50479 -2.09078 0
M  V30 555 H 49.4395 2.93694 -1.12211 0
M  V30 556 N 53.2116 1.57565 -0.0334293 0
M  V30 557 C 54.1436 2.0739 0.975811 0
M  V30 558 C 55.1566 0.998166 1.2861 0
M  V30 559 O 56.3456 1.27426 1.25 0
M  V30 560 C 53.4456 2.4871 2.30209 0
M  V30 561 C 52.6186 3.79413 2.17634 0
M  V30 562 C 51.6776 4.07237 3.33233 0
M  V30 563 O 50.7036 4.77425 3.09927 0
M  V30 564 N 51.9056 3.5775 4.5716 0
M  V30 565 H 54.6706 2.94598 0.55066 0
M  V30 566 H 52.2316 1.61173 0.15323 0
M  V30 567 H 54.2236 2.64413 3.06378 0
M  V30 568 H 52.7936 1.66845 2.64351 0
M  V30 569 H 52.0136 3.73465 1.26165 0
M  V30 570 H 53.3016 4.65038 2.0644 0
M  V30 571 H 52.6996 3.00976 4.78989 0
M  V30 572 H 51.2566 3.78724 5.30482 0
M  V30 573 N 54.6897 -0.239769 1.55765 0
M  V30 574 C 55.6217 -1.32001 1.87372 0
M  V30 575 C 56.6347 -1.43944 0.760522 0
M  V30 576 O 57.8237 -1.45167 1.0387 0
M  V30 577 C 54.9237 -2.69779 2.05115 0
M  V30 578 C 54.0967 -2.80014 3.36022 0
M  V30 579 C 53.1557 -3.98684 3.4342 0
M  V30 580 O 52.1817 -3.87877 4.16582 0
M  V30 581 N 53.3837 -5.12176 2.73232 0
M  V30 582 H 56.1487 -1.0522 2.80622 0
M  V30 583 H 53.7097 -0.429857 1.56089 0
M  V30 584 H 55.7017 -3.47517 2.07399 0
M  V30 585 H 54.2717 -2.89237 1.18577 0
M  V30 586 H 53.4917 -1.88896 3.45994 0
M  V30 587 H 54.7797 -2.83808 4.22292 0
M  V30 588 H 54.1777 -5.2385 2.13536 0
M  V30 589 H 52.7347 -5.88022 2.81199 0
M  V30 590 N 56.1678 -1.49265 -0.50573 0
M  V30 591 C 57.4148 -1.58513 -1.26015 0
M  V30 592 C 57.7428 -0.26972 -1.92621 0
M  V30 593 O 56.9978 0.741997 -1.81088 0
M  V30 594 C 57.2968 -2.69008 -2.35308 0
M  V30 595 C 56.9628 -4.10662 -1.86192 0
M  V30 596 C 55.6248 -4.49212 -1.72516 0
M  V30 597 C 57.9768 -4.99336 -1.49375 0
M  V30 598 C 55.3048 -5.74214 -1.20394 0
M  V30 599 C 57.6568 -6.24852 -0.987072 0
M  V30 600 C 56.3208 -6.62236 -0.836669 0
M  V30 601 H 55.5908 -0.580041 -0.461122 0
M  V30 602 H 58.2378 -1.83078 -0.561665 0
M  V30 603 H 56.5428 -2.38396 -3.10926 0
M  V30 604 H 58.2398 -2.73373 -2.93374 0
M  V30 605 H 54.8298 -3.8023 -1.97795 0
M  V30 606 H 59.0138 -4.70212 -1.5879 0
M  V30 607 H 54.2698 -6.01883 -1.07458 0
M  V30 608 H 58.4438 -6.92944 -0.692983 0
M  V30 609 H 56.0708 -7.58979 -0.430607 0
M  V30 610 N 57.6459 0.756429 -1.3826 0
M  V30 611 C 58.5779 1.87971 -1.31147 0
M  V30 612 C 59.5909 1.61248 -0.224239 0
M  V30 613 O 60.7799 1.71881 -0.481581 0
M  V30 614 C 57.8799 3.23545 -1.00857 0
M  V30 615 C 57.0529 3.77794 -2.20432 0
M  V30 616 C 56.1119 4.91877 -1.86931 0
M  V30 617 O 55.1379 5.06659 -2.59395 0
M  V30 618 N 56.3399 5.74643 -0.822568 0
M  V30 619 H 59.1049 1.94585 -2.2794 0
M  V30 620 H 56.6659 0.936234 -1.32084 0
M  V30 621 H 58.6579 3.97403 -0.765021 0
M  V30 622 H 57.2279 3.12335 -0.128687 0
M  V30 623 H 56.4479 2.95534 -2.6087 0
M  V30 624 H 57.7359 4.10771 -3.00241 0
M  V30 625 H 57.1339 5.65266 -0.221575 0
M  V30 626 H 55.6909 6.48661 -0.638899 0
M  V30 627 N 59.124 1.23083 0.984299 0
M  V30 628 C 60.352 1.08714 1.76037 0
M  V30 629 C 60.767 -0.361691 1.85303 0
M  V30 630 O 60.124 -1.25034 1.32939 0
M  V30 631 C 60.175 1.70206 3.18923 0
M  V30 632 O 59.896 3.09423 3.10144 0
M  V30 633 C 61.397 1.61227 4.12941 0
M  V30 634 H 58.617 0.380664 0.552572 0
M  V30 635 H 61.161 1.62853 1.23689 0
M  V30 636 H 59.316 1.20109 3.6831 0
M  V30 637 H 59.73 3.39188 4.00065 0
M  V30 638 H 61.204 2.08962 5.10919 0
M  V30 639 H 61.681 0.570375 4.35481 0
M  V30 640 H 62.287 2.10671 3.69456 0
M  V30 641 N 60.6021 -1.18246 1.0419 0
M  V30 642 C 62.0131 -1.69914 0.773698 0
M  V30 643 C 62.3641 -1.83085 -0.705297 0
M  V30 644 O 61.4891 -1.51123 -1.5489 0
M  V30 645 C 62.0841 -3.08619 1.39784 0
M  V30 646 C 60.6431 -3.57494 1.17792 0
M  V30 647 C 59.7901 -2.34013 1.48773 0
M  V30 648 H 62.7411 -1.02904 1.20816 0
M  V30 649 H 62.7621 -3.71958 0.801714 0
M  V30 650 H 62.2741 -2.99001 2.47426 0
M  V30 651 H 60.3751 -3.72406 0.120295 0
M  V30 652 H 60.4881 -4.40852 1.87581 0
M  V30 653 H 58.8521 -2.37986 0.907463 0
M  V30 654 H 59.6351 -2.27013 2.57527 0
M  V30 655 N 62.0802 -0.821533 -1.34494 0
M  V30 656 C 63.0122 -0.199946 -2.28326 0
M  V30 657 C 64.0252 0.609377 -1.50965 0
M  V30 658 O 65.2142 0.439285 -1.7301 0
M  V30 659 C 62.3142 0.738431 -3.30757 0
M  V30 660 C 61.4872 -0.0277632 -4.37391 0
M  V30 661 C 60.5462 0.831332 -5.19591 0
M  V30 662 O 59.5722 0.276822 -5.68526 0
M  V30 663 N 60.7742 2.15132 -5.39165 0
M  V30 664 H 63.5392 -1.00609 -2.82308 0
M  V30 665 H 61.1002 -0.678366 -1.47003 0
M  V30 666 H 63.0922 1.31773 -3.82646 0
M  V30 667 H 61.6622 1.44533 -2.7718 0
M  V30 668 H 60.8822 -0.788359 -3.86236 0
M  V30 669 H 62.1702 -0.555251 -5.05761 0
M  V30 670 H 61.5682 2.62559 -5.01078 0
M  V30 671 H 60.1252 2.6795 -5.94177 0
M  V30 672 N 63.5583 1.46682 -0.576371 0
M  V30 673 C 64.8053 2.02412 -0.0595339 0
M  V30 674 C 65.1333 1.44859 1.29793 0
M  V30 675 O 64.3883 0.601099 1.8624 0
M  V30 676 C 64.6873 3.57345 0.062886 0
M  V30 677 C 64.3533 4.33908 -1.22616 0
M  V30 678 C 63.0153 4.54544 -1.57933 0
M  V30 679 C 65.3673 4.77919 -2.07948 0
M  V30 680 C 62.6953 5.16444 -2.78393 0
M  V30 681 C 65.0473 5.41149 -3.27629 0
M  V30 682 C 63.7113 5.60014 -3.63236 0
M  V30 683 H 62.9813 0.74068 -0.021785 0
M  V30 684 H 65.6283 1.76128 -0.751735 0
M  V30 685 H 63.9333 3.82729 0.838178 0
M  V30 686 H 65.6303 3.98136 0.478439 0
M  V30 687 H 62.2203 4.18138 -0.941202 0
M  V30 688 H 66.4043 4.61738 -1.81967 0
M  V30 689 H 61.6603 5.29242 -3.06126 0
M  V30 690 H 65.8343 5.74211 -3.94023 0
M  V30 691 H 63.4613 6.07748 -4.56669 0
M  V30 692 N 65.0364 0.313813 1.54444 0
M  V30 693 C 66.2854 -0.292519 1.99568 0
M  V30 694 C 66.5984 -1.54011 1.20582 0
M  V30 695 O 67.8044 -2.22183 1.56035 0
M  V30 696 C 66.2604 -0.571752 3.55329 0
M  V30 697 C 65.8684 0.658229 4.43138 0
M  V30 698 C 67.6124 -1.13857 4.08946 0
M  V30 699 C 65.5194 0.351439 5.90355 0
M  V30 700 H 64.4494 -0.113079 0.745472 0
M  V30 701 H 67.1004 0.424518 1.78522 0
M  V30 702 H 65.4824 -1.34872 3.72325 0
M  V30 703 H 66.6564 1.43403 4.37918 0
M  V30 704 H 64.9714 1.14458 4.0036 0
M  V30 705 H 67.5684 -1.38257 5.16516 0
M  V30 706 H 67.9114 -2.08489 3.6033 0
M  V30 707 H 68.4444 -0.423015 3.95544 0
M  V30 708 H 65.1834 1.26667 6.43145 0
M  V30 709 H 64.7034 -0.386842 5.98551 0
M  V30 710 H 66.3824 -0.0423134 6.46986 0
M  V30 711 N 66.5145 -1.57545 0.0417849 0
M  V30 712 C 67.7395 -1.97035 -0.647455 0
M  V30 713 C 68.1645 -0.918775 -1.64135 0
M  V30 714 O 67.5225 0.119006 -1.80909 0
M  V30 715 C 67.5705 -3.35609 -1.31905 0
M  V30 716 O 66.6745 -3.3287 -2.43457 0
M  V30 717 H 66.0155 -0.64211 -0.169086 0
M  V30 718 H 68.5455 -2.04318 0.107399 0
M  V30 719 H 68.5555 -3.72126 -1.67291 0
M  V30 720 H 67.2305 -4.11685 -0.590586 0
M  V30 721 H 65.8075 -3.08087 -2.10088 0
M  V30 722 N 67.9926 0.231505 -1.5589 0
M  V30 723 C 69.2406 0.955461 -1.78088 0
M  V30 724 C 69.5616 1.85262 -0.608533 0
M  V30 725 O 68.8316 1.92277 0.375035 0
M  V30 726 H 67.4116 0.355787 -0.656829 0
M  V30 727 H 70.0736 0.245751 -1.93344 0
M  V30 728 H 69.1696 1.56814 -2.69844 0
M  V30 729 N 69.4707 1.49531 0.497807 0
M  V30 730 C 70.7477 1.49682 1.25915 0
M  V30 731 C 71.1277 0.226339 2.09883 0
M  V30 732 O 70.4757 -0.791189 2.14365 0
M  V30 733 C 70.6857 2.77755 2.11313 0
M  V30 734 C 72.0337 3.27371 2.70395 0
M  V30 735 O 73.0577 2.78894 2.21578 0
M  V30 736 O 71.9167 4.11808 3.59272 0
M  V30 737 H 69.0107 0.599228 0.56996 0
M  V30 738 H 71.5567 1.61798 0.511816 0
M  V30 739 H 70.3287 3.61713 1.49264 0
M  V30 740 H 69.9517 2.68515 2.93233 0
M  V30 741 N 70.9488 -0.749086 1.3866 0
M  V30 742 C 71.8788 -1.8764 1.38973 0
M  V30 743 C 72.8598 -1.68178 0.255004 0
M  V30 744 O 74.0448 -1.88704 0.458754 0
M  V30 745 C 71.1748 -3.25222 1.21851 0
M  V30 746 C 70.1288 -3.59295 2.32575 0
M  V30 747 C 69.4548 -4.95663 2.00555 0
M  V30 748 C 70.7548 -3.63709 3.7485 0
M  V30 749 H 72.4488 -1.87635 2.3331 0
M  V30 750 H 69.9948 -0.901329 1.12303 0
M  V30 751 H 71.9478 -4.03746 1.20695 0
M  V30 752 H 70.6718 -3.25719 0.239775 0
M  V30 753 H 69.3308 -2.83093 2.32925 0
M  V30 754 H 68.9788 -4.92724 1.01154 0
M  V30 755 H 68.6788 -5.19429 2.74714 0
M  V30 756 H 70.2028 -5.7656 2.01024 0
M  V30 757 H 71.6168 -4.32338 3.76506 0
M  V30 758 H 70.0138 -3.98986 4.48252 0
M  V30 759 H 71.0838 -2.63834 4.06841 0
M  V30 760 N 72.4269 -1.23603 -0.977757 0
M  V30 761 C 73.3569 -1.04401 -2.0886 0
M  V30 762 C 74.3379 0.0399052 -1.70053 0
M  V30 763 O 75.5229 -0.125246 -1.93796 0
M  V30 764 C 72.6529 -0.637269 -3.41403 0
M  V30 765 C 71.6069 -1.66883 -3.94124 0
M  V30 766 C 70.9329 -1.11745 -5.22893 0
M  V30 767 C 72.2329 -3.06247 -4.23096 0
M  V30 768 H 73.9269 -1.97316 -2.25182 0
M  V30 769 H 71.4729 -0.950096 -1.08209 0
M  V30 770 H 73.4259 -0.48998 -4.18542 0
M  V30 771 H 72.1499 0.327557 -3.24953 0
M  V30 772 H 70.8089 -1.80416 -3.19133 0
M  V30 773 H 70.4569 -0.143527 -5.02795 0
M  V30 774 H 70.1569 -1.80672 -5.59134 0
M  V30 775 H 71.6809 -0.982067 -6.02651 0
M  V30 776 H 73.0949 -2.96001 -4.90975 0
M  V30 777 H 71.4919 -3.72436 -4.70544 0
M  V30 778 H 72.5619 -3.55041 -3.30263 0
M  V30 779 N 73.905 1.17692 -1.04816 0
M  V30 780 C 74.852 2.21581 -0.645797 0
M  V30 781 C 75.822 1.62367 0.350159 0
M  V30 782 O 77.007 1.89254 0.242433 0
M  V30 783 C 74.147 3.45092 -0.0227568 0
M  V30 784 C 73.26 4.18613 -1.06709 0
M  V30 785 C 72.395 5.29602 -0.411767 0
M  V30 786 C 71.434 5.94904 -1.44067 0
M  V30 787 N 70.571 6.97414 -0.809781 0
M  V30 788 H 75.411 2.55353 -1.5362 0
M  V30 789 H 72.948 1.25438 -0.768364 0
M  V30 790 H 74.906 4.15679 0.35588 0
M  V30 791 H 73.536 3.11917 0.831122 0
M  V30 792 H 72.588 3.46779 -1.5636 0
M  V30 793 H 73.9 4.63293 -1.84827 0
M  V30 794 H 73.054 6.06696 0.0206623 0
M  V30 795 H 71.793 4.86045 0.401438 0
M  V30 796 H 70.798 5.16544 -1.88316 0
M  V30 797 H 72.023 6.40542 -2.25571 0
M  V30 798 H 69.969 6.55998 -0.0170186 0
M  V30 799 H 69.886 7.40386 -1.52856 0
M  V30 800 H 71.154 7.78463 -0.401999 0
M  V30 801 N 75.3831 0.828654 1.34056 0
M  V30 802 C 76.6291 0.42008 1.98402 0
M  V30 803 C 76.9621 -1.01564 1.65525 0
M  V30 804 O 76.2371 -1.70834 0.929831 0
M  V30 805 C 76.5201 0.62927 3.54559 0
M  V30 806 C 76.3731 2.11152 3.97159 0
M  V30 807 C 77.6921 0.0688756 4.40046 0
M  V30 808 H 74.8111 0.154104 0.720709 0
M  V30 809 H 77.4531 1.04228 1.5886 0
M  V30 810 H 75.6031 0.0996418 3.88372 0
M  V30 811 H 77.2751 2.70522 3.73651 0
M  V30 812 H 75.5181 2.59985 3.47261 0
M  V30 813 H 76.1891 2.20868 5.05887 0
M  V30 814 H 78.6651 0.521458 4.1282 0
M  V30 815 H 77.5411 0.245006 5.48353 0
M  V30 816 H 77.8021 -1.0266 4.30015 0
M  V30 817 N 76.8612 -1.46375 0.584142 0
M  V30 818 C 77.8092 -2.32042 -0.161047 0
M  V30 819 C 78.8032 -1.44569 -0.882966 0
M  V30 820 O 80.0092 -1.61186 -0.801191 0
M  V30 821 H 76.3842 -0.748659 -0.0708033 0
M  V30 822 H 78.3552 -2.92704 0.580269 0
M  V30 823 C 77.1042 -3.27762 -1.1605 0
M  V30 824 H 76.4272 -3.95051 -0.614419 0
M  V30 825 H 77.8672 -3.90481 -1.65228 0
M  V30 826 C 76.3262 -2.53218 -2.22221 0
M  V30 827 O 76.8562 -2.29628 -3.29597 0
M  V30 828 N 75.0622 -2.13756 -1.96868 0
M  V30 829 H 74.6092 -2.33142 -1.09557 0
M  V30 830 H 74.5672 -1.642 -2.68115 0
M  V30 831 N 78.3393 -0.321999 -1.54275 0
M  V30 832 C 79.5873 0.280489 -2.00144 0
M  V30 833 C 79.9083 1.52777 -1.21178 0
M  V30 834 O 79.1783 1.9338 -0.313187 0
M  V30 835 H 77.7583 0.106632 -0.73935 0
M  V30 836 H 80.4203 -0.438184 -1.8991 0
M  V30 837 H 79.5163 0.537972 -3.07428 0
M  V30 838 N 79.8174 1.5752 -0.0501392 0
M  V30 839 C 81.0454 1.96963 0.633492 0
M  V30 840 C 81.4604 0.927631 1.6444 0
M  V30 841 O 80.8174 -0.0882665 1.82286 0
M  V30 842 C 80.8684 3.36487 1.32132 0
M  V30 843 O 80.5894 4.36693 0.350894 0
M  V30 844 C 82.0904 3.90682 2.09481 0
M  V30 845 H 79.3104 0.648244 0.173266 0
M  V30 846 H 81.8544 2.0417 -0.116134 0
M  V30 847 H 80.0094 3.30434 2.02218 0
M  V30 848 H 80.4234 5.17702 0.841735 0
M  V30 849 H 81.8974 4.90591 2.5303 0
M  V30 850 H 82.3744 3.26053 2.94255 0
M  V30 851 H 82.9804 4.00069 1.44307 0
M  V30 852 N 81.2955 -0.223234 1.56011 0
M  V30 853 C 82.5205 -0.968978 1.83373 0
M  V30 854 C 82.9455 -1.77227 0.630254 0
M  V30 855 O 82.3035 -1.76345 -0.420959 0
M  V30 856 C 82.3515 -1.86363 3.08709 0
M  V30 857 O 81.4555 -2.95873 2.87285 0
M  V30 858 H 80.7965 -0.274461 0.604622 0
M  V30 859 H 83.3265 -0.237056 2.03222 0
M  V30 860 H 83.3365 -2.27376 3.38768 0
M  V30 861 H 82.0115 -1.27319 3.95933 0
M  V30 862 H 80.5885 -2.58818 2.68454 0
M  V30 863 N 82.7736 -1.49793 -0.48987 0
M  V30 864 C 84.1846 -1.52914 -1.07118 0
M  V30 865 C 84.5356 -0.321738 -1.93544 0
M  V30 866 O 83.6606 0.567338 -2.08831 0
M  V30 867 C 84.2556 -2.771 -1.94938 0
M  V30 868 C 82.8146 -2.82963 -2.48212 0
M  V30 869 C 81.9616 -2.46972 -1.26096 0
M  V30 870 H 84.9126 -1.56329 -0.273289 0
M  V30 871 H 84.9336 -2.57892 -2.79771 0
M  V30 872 H 84.4456 -3.64959 -1.32009 0
M  V30 873 H 82.5466 -1.99411 -3.14748 0
M  V30 874 H 82.6596 -3.85406 -2.84603 0
M  V30 875 H 81.0236 -1.98994 -1.58976 0
M  V30 876 H 81.8066 -3.37118 -0.648581 0
M  V30 877 N 84.2517 0.741722 -1.39055 0
M  V30 878 C 85.1617 1.88621 -1.39496 0
M  V30 879 C 86.1777 1.71557 -0.290578 0
M  V30 880 O 87.3537 1.94275 -0.530954 0
M  V30 881 C 84.4187 3.24134 -1.23037 0
M  V30 882 C 83.4797 3.5364 -2.43387 0
M  V30 883 C 82.7127 4.82687 -2.27703 0
M  V30 884 O 82.9357 5.55922 -1.27696 0
M  V30 885 O 81.8697 5.1194 -3.16545 0
M  V30 886 H 85.6957 1.91203 -2.35956 0
M  V30 887 H 83.2807 0.888625 -1.20099 0
M  V30 888 H 85.1627 4.0513 -1.15964 0
M  V30 889 H 83.8377 3.22337 -0.296691 0
M  V30 890 H 82.7447 2.72758 -2.56035 0
M  V30 891 H 84.0777 3.60209 -3.35425 0
M  V30 892 N 85.7298 1.2412 0.971189 0
M  V30 893 C 86.6398 1.04747 2.09917 0
M  V30 894 C 87.6558 -0.0107162 1.73997 0
M  V30 895 O 88.8318 0.186714 2.00533 0
M  V30 896 C 85.8968 0.650828 3.40537 0
M  V30 897 C 84.9578 1.7851 3.90426 0
M  V30 898 C 84.1908 1.40729 5.14812 0
M  V30 899 O 84.4138 0.29557 5.69634 0
M  V30 900 O 83.3478 2.23168 5.58999 0
M  V30 901 H 87.1738 1.99304 2.29154 0
M  V30 902 H 84.7588 1.02908 1.08307 0
M  V30 903 H 86.6408 0.440992 4.19086 0
M  V30 904 H 85.3158 -0.265649 3.22608 0
M  V30 905 H 84.2228 2.04966 3.12953 0
M  V30 906 H 85.5558 2.68023 4.12825 0
M  V30 907 N 87.2079 -1.17134 1.05439 0
M  V30 908 C 88.1379 -2.2342 0.678649 0
M  V30 909 C 89.1189 -1.66971 -0.32476 0
M  V30 910 O 90.3039 -1.93149 -0.201802 0
M  V30 911 C 87.4339 -3.47256 0.0552099 0
M  V30 912 C 86.3879 -4.16543 0.98365 0
M  V30 913 C 85.7139 -5.34231 0.223961 0
M  V30 914 C 87.0139 -4.68495 2.3089 0
M  V30 915 H 88.7079 -2.55105 1.56722 0
M  V30 916 H 86.2539 -1.2262 0.754998 0
M  V30 917 H 88.2069 -4.20828 -0.21946 0
M  V30 918 H 86.9309 -3.14846 -0.868319 0
M  V30 919 H 85.5899 -3.44887 1.24293 0
M  V30 920 H 85.2379 -4.98071 -0.702412 0
M  V30 921 H 84.9379 -5.81527 0.842627 0
M  V30 922 H 86.4619 -6.10585 -0.0433671 0
M  V30 923 H 87.8759 -5.33691 2.09396 0
M  V30 924 H 86.2729 -5.26379 2.88176 0
M  V30 925 H 87.3429 -3.85169 2.94572 0
M  V30 926 N 88.686 -0.835752 -1.33615 0
M  V30 927 C 89.932 -0.430596 -1.98176 0
M  V30 928 C 90.265 1.00684 -1.66061 0
M  V30 929 O 89.54 1.70339 -0.938877 0
M  V30 930 C 89.823 -0.648065 -3.5422 0
M  V30 931 C 89.676 -2.13255 -3.96033 0
M  V30 932 C 90.995 -0.0922113 -4.40003 0
M  V30 933 H 88.114 -0.157924 -0.719881 0
M  V30 934 H 90.756 -1.05069 -1.58305 0
M  V30 935 H 88.906 -0.120237 -3.88314 0
M  V30 936 H 90.578 -2.725 -3.72211 0
M  V30 937 H 88.821 -2.61823 -3.45878 0
M  V30 938 H 89.492 -2.23547 -5.04708 0
M  V30 939 H 91.968 -0.543343 -4.12537 0
M  V30 940 H 90.844 -0.274083 -5.48215 0
M  V30 941 H 91.105 1.00378 -4.30554 0
M  V30 942 N 90.1641 1.46063 -0.591896 0
M  V30 943 C 91.3941 2.06418 -0.0867676 0
M  V30 944 C 91.8021 1.43975 1.22751 0
M  V30 945 O 91.1451 0.542531 1.75506 0
M  V30 946 C 91.2071 3.59213 0.143725 0
M  V30 947 C 90.8711 4.439 -1.08635 0
M  V30 948 C 91.8681 4.79864 -2.00067 0
M  V30 949 C 89.5531 4.84896 -1.31077 0
M  V30 950 C 91.5471 5.55661 -3.12282 0
M  V30 951 C 89.2341 5.6045 -2.43596 0
M  V30 952 C 90.2321 5.95747 -3.34027 0
M  V30 953 O 89.9201 6.69772 -4.4459 0
M  V30 954 H 89.6521 0.673443 -0.0587447 0
M  V30 955 H 92.2061 1.88539 -0.814994 0
M  V30 956 H 90.4361 3.75433 0.926668 0
M  V30 957 H 92.1251 4.01463 0.5985 0
M  V30 958 H 92.8911 4.48763 -1.83947 0
M  V30 959 H 88.7701 4.56867 -0.61594 0
M  V30 960 H 92.3141 5.8313 -3.82891 0
M  V30 961 H 88.2111 5.90965 -2.59674 0
M  V30 962 H 88.9791 6.88207 -4.43073 0
M  V30 963 N 91.6422 0.330177 1.54103 0
M  V30 964 C 92.5742 -0.566902 2.22079 0
M  V30 965 C 93.5872 -1.07462 1.22294 0
M  V30 966 O 94.7762 -0.987065 1.48726 0
M  V30 967 C 91.8762 -1.79138 2.87685 0
M  V30 968 C 91.0492 -1.42123 4.13666 0
M  V30 969 C 90.1082 -2.50394 4.62806 0
M  V30 970 O 89.1342 -2.14261 5.27334 0
M  V30 971 N 90.3362 -3.81433 4.37595 0
M  V30 972 H 93.1012 0.0151844 2.99696 0
M  V30 973 H 90.6622 0.153681 1.61169 0
M  V30 974 H 92.6542 -2.50975 3.1748 0
M  V30 975 H 91.2242 -2.28115 2.13734 0
M  V30 976 H 90.4442 -0.534201 3.90564 0
M  V30 977 H 91.7322 -1.14971 4.9564 0
M  V30 978 H 91.1302 -4.13584 3.8596 0
M  V30 979 H 89.6872 -4.4948 4.72029 0
M  V30 980 N 93.1203 -1.57491 0.0584922 0
M  V30 981 C 94.3503 -1.9701 -0.622134 0
M  V30 982 C 94.7583 -0.935034 -1.6448 0
M  V30 983 O 94.1013 0.0882904 -1.83488 0
M  V30 984 C 94.1633 -3.32794 -1.35972 0
M  V30 985 C 93.8273 -4.54343 -0.492043 0
M  V30 986 C 94.8243 -5.19323 0.244901 0
M  V30 987 C 92.5093 -5.00534 -0.420821 0
M  V30 988 C 94.5033 -6.28835 1.04143 0
M  V30 989 C 92.1903 -6.09921 0.379389 0
M  V30 990 C 93.1883 -6.73933 1.10919 0
M  V30 991 O 92.8763 -7.81216 1.89623 0
M  V30 992 H 92.6083 -0.653127 -0.174359 0
M  V30 993 H 95.1623 -2.05029 0.123418 0
M  V30 994 H 93.3923 -3.21351 -2.15105 0
M  V30 995 H 95.0813 -3.5701 -1.93129 0
M  V30 996 H 95.8473 -4.8459 0.19939 0
M  V30 997 H 91.7263 -4.50496 -0.978474 0
M  V30 998 H 95.2703 -6.7873 1.61157 0
M  V30 999 H 91.1673 -6.44089 0.426512 0
M  V30 1000 H 91.9353 -7.98029 1.81913 0
M  V30 1001 N 94.5984 0.214957 -1.56127 0
M  V30 1002 C 95.8444 0.939762 -1.79712 0
M  V30 1003 C 96.1774 1.83723 -0.629247 0
M  V30 1004 O 95.4524 1.90925 0.371197 0
M  V30 1005 C 95.7354 1.77306 -3.13424 0
M  V30 1006 C 95.5884 0.90164 -4.40671 0
M  V30 1007 C 96.9074 2.74956 -3.43638 0
M  V30 1008 H 94.0264 0.340214 -0.653776 0
M  V30 1009 H 96.6684 0.20824 -1.88855 0
M  V30 1010 H 94.8184 2.39673 -3.0576 0
M  V30 1011 H 96.4904 0.294206 -4.60361 0
M  V30 1012 H 94.7334 0.207368 -4.33304 0
M  V30 1013 H 95.4044 1.51923 -5.30682 0
M  V30 1014 H 97.8804 2.22724 -3.51473 0
M  V30 1015 H 96.7564 3.30358 -4.38355 0
M  V30 1016 H 97.0174 3.53023 -2.66134 0
M  V30 1017 N 96.0765 1.50051 0.48192 0
M  V30 1018 C 96.9865 1.7089 1.60728 0
M  V30 1019 C 98.0025 0.591788 1.63627 0
M  V30 1020 O 99.1785 0.868817 1.81696 0
M  V30 1021 C 96.2435 1.78855 2.97005 0
M  V30 1022 C 95.3045 3.02537 3.04581 0
M  V30 1023 C 94.5375 3.10112 4.34357 0
M  V30 1024 O 94.7605 2.24765 5.24249 0
M  V30 1025 O 93.6945 4.02747 4.47301 0
M  V30 1026 H 97.5205 2.66264 1.46072 0
M  V30 1027 H 95.1055 1.34018 0.660264 0
M  V30 1028 H 96.9875 1.86336 3.77964 0
M  V30 1029 H 95.6625 0.866628 3.11883 0
M  V30 1030 H 94.5695 3.00563 2.22739 0
M  V30 1031 H 95.9025 3.94272 2.94636 0
M  V30 1032 N 97.5546 -0.734337 1.39446 0
M  V30 1033 C 98.5016 -1.84835 1.38219 0
M  V30 1034 C 99.4716 -1.64331 0.24179 0
M  V30 1035 O 100.657 -1.85728 0.437002 0
M  V30 1036 C 97.7966 -3.22355 1.23212 0
M  V30 1037 C 96.9096 -3.5456 2.46801 0
M  V30 1038 C 96.0446 -4.81485 2.24377 0
M  V30 1039 C 95.0836 -5.06536 3.43639 0
M  V30 1040 N 94.2206 -6.24665 3.20528 0
M  V30 1041 H 99.0606 -1.85219 2.33448 0
M  V30 1042 H 96.5976 -0.905039 1.15963 0
M  V30 1043 H 98.5556 -4.0174 1.12522 0
M  V30 1044 H 97.1856 -3.21248 0.316121 0
M  V30 1045 H 96.2376 -2.69872 2.68092 0
M  V30 1046 H 97.5496 -3.6899 3.3563 0
M  V30 1047 H 96.7036 -5.68852 2.10933 0
M  V30 1048 H 95.4426 -4.6923 1.32944 0
M  V30 1049 H 94.4476 -4.17632 3.5758 0
M  V30 1050 H 95.6726 -5.20676 4.35974 0
M  V30 1051 H 93.6186 -6.13696 2.3176 0
M  V30 1052 H 93.5356 -6.39685 4.02913 0
M  V30 1053 H 94.8036 -7.14868 3.10779 0
M  V30 1054 N 99.0327 -1.24633 -0.964593 0
M  V30 1055 C 99.9807 -1.03917 -2.08096 0
M  V30 1056 C 100.975 0.0268581 -1.69379 0
M  V30 1057 O 102.181 -0.127952 -1.79545 0
M  V30 1058 H 98.5557 -0.319044 -0.680966 0
M  V30 1059 H 100.527 -1.98581 -2.22729 0
M  V30 1060 C 99.2757 -0.663983 -3.41301 0
M  V30 1061 H 98.5987 -1.47605 -3.71555 0
M  V30 1062 H 100.039 -0.558663 -4.20303 0
M  V30 1063 C 98.4977 0.629169 -3.30973 0
M  V30 1064 O 99.0277 1.67404 -3.65156 0
M  V30 1065 N 97.2337 0.611057 -2.84103 0
M  V30 1066 H 96.7807 -0.239593 -2.56483 0
M  V30 1067 H 96.7387 1.47647 -2.77575 0
M  V30 1068 N 100.511 1.16574 -1.06058 0
M  V30 1069 C 101.421 2.2452 -0.680282 0
M  V30 1070 C 102.437 1.71348 0.302604 0
M  V30 1071 O 103.613 2.00822 0.152513 0
M  V30 1072 C 100.678 3.46629 -0.0700315 0
M  V30 1073 C 99.7388 4.14849 -1.10448 0
M  V30 1074 C 98.9718 5.31129 -0.523256 0
M  V30 1075 O 99.1948 5.66514 0.664709 0
M  V30 1076 O 98.1288 5.88526 -1.26179 0
M  V30 1077 H 101.955 2.59355 -1.58015 0
M  V30 1078 H 99.5398 1.24043 -0.832694 0
M  V30 1079 H 101.422 4.20543 0.268667 0
M  V30 1080 H 100.097 3.13573 0.803353 0
M  V30 1081 H 99.0038 3.42916 -1.49532 0
M  V30 1082 H 100.337 4.51954 -1.94931 0
M  V30 1083 N 101.989 0.842826 1.3317 0
M  V30 1084 C 102.937 0.267495 2.31057 0
M  V30 1085 C 103.931 -0.602682 1.58316 0
M  V30 1086 O 105.137 -0.491803 1.73151 0
M  V30 1087 H 101.512 0.0677813 0.748939 0
M  V30 1088 H 103.483 1.10754 2.77085 0
M  V30 1089 C 102.232 -0.539331 3.43492 0
M  V30 1090 H 101.555 0.12095 3.99617 0
M  V30 1091 H 102.995 -0.90767 4.14171 0
M  V30 1092 C 101.454 -1.71981 2.89697 0
M  V30 1093 O 101.984 -2.81862 2.86211 0
M  V30 1094 N 100.19 -1.54299 2.46252 0
M  V30 1095 H 99.7369 -0.649143 2.49287 0
M  V30 1096 H 99.6949 -2.33431 2.10612 0
M  V30 1097 N 103.467 -1.45747 0.599634 0
M  V30 1098 C 104.414 -2.30467 -0.123849 0
M  V30 1099 C 105.384 -1.41632 -0.86774 0
M  V30 1100 O 106.569 -1.70568 -0.855056 0
M  V30 1101 C 103.709 -3.26402 -1.12051 0
M  V30 1102 C 102.822 -4.3034 -0.37832 0
M  V30 1103 C 101.957 -5.13389 -1.364 0
M  V30 1104 C 100.996 -6.09061 -0.609171 0
M  V30 1105 N 100.133 -6.84918 -1.54374 0
M  V30 1106 H 104.973 -2.91802 0.604627 0
M  V30 1107 H 102.51 -1.43797 0.309972 0
M  V30 1108 H 104.468 -3.80482 -1.7114 0
M  V30 1109 H 103.098 -2.66839 -1.8165 0
M  V30 1110 H 102.15 -3.78984 0.327929 0
M  V30 1111 H 103.462 -4.98354 0.210997 0
M  V30 1112 H 102.616 -5.7183 -2.02719 0
M  V30 1113 H 101.355 -4.45376 -1.98725 0
M  V30 1114 H 100.36 -5.49758 0.0676979 0
M  V30 1115 H 101.585 -6.79099 0.00891991 0
M  V30 1116 H 99.531 -6.19601 -2.15478 0
M  V30 1117 H 99.448 -7.49254 -1.00766 0
M  V30 1118 H 100.716 -7.47906 -2.19676 0
M  V30 1119 N 104.945 -0.338344 -1.53925 0
M  V30 1120 C 106.192 0.259758 -2.00827 0
M  V30 1121 C 106.52 1.50973 -1.22628 0
M  V30 1122 O 105.775 1.93379 -0.300509 0
M  V30 1123 C 106.074 0.62448 -3.51902 0
M  V30 1124 C 105.74 -0.528006 -4.47798 0
M  V30 1125 C 104.402 -0.844298 -4.73735 0
M  V30 1126 C 106.754 -1.30143 -5.0469 0
M  V30 1127 C 104.082 -1.93648 -5.53821 0
M  V30 1128 C 106.434 -2.38382 -5.85967 0
M  V30 1129 C 105.098 -2.70576 -6.10201 0
M  V30 1130 H 104.368 0.0950523 -0.734878 0
M  V30 1131 H 107.015 -0.465182 -1.85764 0
M  V30 1132 H 105.32 1.43006 -3.64769 0
M  V30 1133 H 107.017 1.09905 -3.85645 0
M  V30 1134 H 103.607 -0.271421 -4.2774 0
M  V30 1135 H 107.791 -1.07033 -4.84621 0
M  V30 1136 H 103.047 -2.19021 -5.70824 0
M  V30 1137 H 107.221 -2.98746 -6.29066 0
M  V30 1138 H 104.848 -3.55333 -6.72044 0
M  V30 1139 N 106.423 1.57458 -0.0668435 0
M  V30 1140 C 107.37 2.12439 0.902122 0
M  V30 1141 C 108.34 1.03565 1.2986 0
M  V30 1142 O 109.525 1.312 1.38532 0
M  V30 1143 C 106.665 2.6865 2.16614 0
M  V30 1144 C 105.778 3.91663 1.82274 0
M  V30 1145 C 104.913 4.36134 3.0325 0
M  V30 1146 C 103.952 5.51808 2.64904 0
M  V30 1147 N 103.089 5.9126 3.78624 0
M  V30 1148 H 107.929 2.94934 0.426382 0
M  V30 1149 H 105.466 1.4575 0.198819 0
M  V30 1150 H 107.424 2.99346 2.90599 0
M  V30 1151 H 106.054 1.88928 2.61737 0
M  V30 1152 H 105.106 3.6746 0.983719 0
M  V30 1153 H 106.418 4.75693 1.50059 0
M  V30 1154 H 105.572 4.68465 3.85519 0
M  V30 1155 H 104.311 3.50948 3.38655 0
M  V30 1156 H 103.316 5.19133 1.81055 0
M  V30 1157 H 104.541 6.38722 2.30675 0
M  V30 1158 H 102.487 5.09024 4.138 0
M  V30 1159 H 102.404 6.70018 3.5016 0
M  V30 1160 H 103.672 6.28212 4.61486 0
M  V30 1161 N 107.901 -0.206675 1.56239 0
M  V30 1162 C 109.148 -0.928842 1.79941 0
M  V30 1163 C 109.476 -1.83734 0.638131 0
M  V30 1164 O 108.731 -1.92039 -0.376746 0
M  V30 1165 C 109.03 -1.78675 3.09532 0
M  V30 1166 C 108.696 -1.03022 4.38973 0
M  V30 1167 C 107.358 -0.821302 4.74139 0
M  V30 1168 C 109.71 -0.497081 5.18824 0
M  V30 1169 C 107.038 -0.0675719 5.86661 0
M  V30 1170 C 109.39 0.24338 6.32132 0
M  V30 1171 C 108.054 0.463422 6.65889 0
M  V30 1172 H 107.324 -0.339887 0.658451 0
M  V30 1173 H 109.971 -0.195977 1.90495 0
M  V30 1174 H 108.276 -2.58794 2.94165 0
M  V30 1175 H 109.973 -2.34792 3.25075 0
M  V30 1176 H 106.563 -1.20306 4.11369 0
M  V30 1177 H 110.747 -0.645921 4.92079 0
M  V30 1178 H 106.003 0.112995 6.11296 0
M  V30 1179 H 110.177 0.66393 6.93228 0
M  V30 1180 H 107.804 1.04938 7.52922 0
M  V30 1181 N 109.379 -1.50304 -0.473955 0
M  V30 1182 C 110.329 -1.65347 -1.56985 0
M  V30 1183 C 111.313 -0.508176 -1.52664 0
M  V30 1184 O 112.505 -0.762446 -1.59737 0
M  V30 1185 C 109.634 -1.74832 -2.95447 0
M  V30 1186 C 108.72 -2.95028 -3.04662 0
M  V30 1187 N 109.111 -4.18747 -2.83698 0
M  V30 1188 C 107.409 -2.93527 -3.35795 0
M  V30 1189 C 108.11 -4.99687 -2.97805 0
M  V30 1190 N 107.086 -4.33585 -3.2788 0
M  V30 1191 H 110.888 -2.58698 -1.39472 0
M  V30 1192 H 108.402 -1.47449 -0.680629 0
M  V30 1193 H 110.399 -1.83712 -3.7424 0
M  V30 1194 H 109.059 -0.826376 -3.14008 0
M  V30 1195 H 110.07 -4.48291 -2.59337 0
M  V30 1196 H 106.747 -2.10821 -3.60362 0
M  V30 1197 H 108.137 -6.08057 -2.85861 0
M  V30 1198 N 110.857 0.726932 -1.39834 0
M  V30 1199 C 111.767 1.87131 -1.41489 0
M  V30 1200 C 112.783 1.71239 -0.308757 0
M  V30 1201 O 113.959 1.93701 -0.551529 0
M  V30 1202 C 111.024 3.22811 -1.26468 0
M  V30 1203 C 110.085 3.51039 -2.47124 0
M  V30 1204 C 109.318 4.80245 -2.3281 0
M  V30 1205 O 109.541 5.54537 -1.33585 0
M  V30 1206 O 108.475 5.08554 -3.21957 0
M  V30 1207 H 112.301 1.8869 -2.3797 0
M  V30 1208 H 109.886 0.875837 -1.21035 0
M  V30 1209 H 111.768 4.03877 -1.20255 0
M  V30 1210 H 110.443 3.22005 -0.330862 0
M  V30 1211 H 109.35 2.70027 -2.58914 0
M  V30 1212 H 110.683 3.56632 -3.39227 0
M  V30 1213 N 112.336 1.25143 0.95797 0
M  V30 1214 C 113.284 1.05019 2.07542 0
M  V30 1215 C 114.278 -0.0178751 1.69391 0
M  V30 1216 O 115.484 0.137472 1.79474 0
M  V30 1217 H 111.859 0.32265 0.679265 0
M  V30 1218 H 113.83 1.99759 2.21673 0
M  V30 1219 C 112.579 0.682074 3.40944 0
M  V30 1220 H 111.902 1.49573 3.70767 0
M  V30 1221 H 113.342 0.580945 4.20001 0
M  V30 1222 C 111.801 -0.611608 3.31302 0
M  V30 1223 O 112.331 -1.65465 3.66038 0
M  V30 1224 N 110.537 -0.595982 2.84423 0
M  V30 1225 H 110.084 0.253192 2.56353 0
M  V30 1226 H 110.042 -1.46173 2.78354 0
M  V30 1227 N 113.814 -1.1601 1.06675 0
M  V30 1228 C 114.777 -2.18724 0.685001 0
M  V30 1229 C 115.777 -1.58496 -0.271246 0
M  V30 1230 O 116.967 -1.74119 -0.0531156 0
M  V30 1231 C 114.099 -3.40899 0.00853648 0
M  V30 1232 H 115.292 -2.54011 1.59431 0
M  V30 1233 H 112.845 -1.30352 0.862441 0
M  V30 1234 H 113.58 -3.11173 -0.913337 0
M  V30 1235 H 113.365 -3.8587 0.696204 0
M  V30 1236 H 114.855 -4.16886 -0.24414 0
M  V30 1237 N 115.292 -0.849877 -1.32721 0
M  V30 1238 C 116.239 -0.289033 -2.28983 0
M  V30 1239 C 117.209 0.601324 -1.54833 0
M  V30 1240 O 118.394 0.537253 -1.8308 0
M  V30 1241 C 115.534 0.520623 -3.4115 0
M  V30 1242 C 114.647 -0.394989 -4.3019 0
M  V30 1243 C 113.782 0.426834 -5.29482 0
M  V30 1244 C 112.821 -0.486476 -6.10164 0
M  V30 1245 N 111.958 0.297879 -7.01468 0
M  V30 1246 H 116.798 -1.11519 -2.76347 0
M  V30 1247 H 114.335 -0.56138 -1.35967 0
M  V30 1248 H 116.293 1.00563 -4.04899 0
M  V30 1249 H 114.923 1.31165 -2.9495 0
M  V30 1250 H 113.975 -0.99836 -3.67065 0
M  V30 1251 H 115.287 -1.09612 -4.86607 0
M  V30 1252 H 114.441 0.975205 -5.98811 0
M  V30 1253 H 113.18 1.16136 -4.73671 0
M  V30 1254 H 112.185 -1.04677 -5.39743 0
M  V30 1255 H 113.41 -1.21953 -6.6806 0
M  V30 1256 H 111.356 1.01558 -6.48091 0
M  V30 1257 H 111.273 -0.344318 -7.55216 0
M  V30 1258 H 112.541 0.828131 -7.75089 0
M  V30 1259 N 116.77 1.45427 -0.607355 0
M  V30 1260 C 118.047 1.9557 -0.0344566 0
M  V30 1261 C 118.427 1.54979 1.43334 0
M  V30 1262 O 117.775 0.812241 2.13576 0
M  V30 1263 C 117.985 3.48226 -0.232321 0
M  V30 1264 C 119.333 4.2445 -0.113001 0
M  V30 1265 O 120.357 3.55829 -0.162431 0
M  V30 1266 O 119.216 5.465 0.00209442 0
M  V30 1267 H 116.31 0.826222 0.0358667 0
M  V30 1268 H 118.856 1.55594 -0.6774 0
M  V30 1269 H 117.628 3.70739 -1.25174 0
M  V30 1270 H 117.251 3.95092 0.445896 0
M  V30 1271 N 118.248 0.346503 1.53744 0
M  V30 1272 C 119.476 -0.25041 2.05379 0
M  V30 1273 C 119.891 -1.43979 1.22129 0
M  V30 1274 O 119.248 -1.80677 0.257321 0
M  V30 1275 C 119.299 -0.662575 3.55376 0
M  V30 1276 O 119.02 0.479515 4.35468 0
M  V30 1277 C 120.521 -1.31989 4.23195 0
M  V30 1278 H 117.741 -0.0478198 0.669294 0
M  V30 1279 H 120.285 0.499346 1.9831 0
M  V30 1280 H 118.44 -1.36227 3.62658 0
M  V30 1281 H 118.854 0.15037 5.24284 0
M  V30 1282 H 120.328 -1.55902 5.29527 0
M  V30 1283 H 120.805 -2.27436 3.75725 0
M  V30 1284 H 121.411 -0.662154 4.20114 0
M  V30 1285 N 119.726 -1.57421 0.075193 0
M  V30 1286 C 120.656 -2.15942 -0.888324 0
M  V30 1287 C 121.637 -1.08737 -1.30806 0
M  V30 1288 O 122.822 -1.36787 -1.37851 0
M  V30 1289 C 119.952 -2.72379 -2.1547 0
M  V30 1290 C 118.906 -3.8478 -1.87425 0
M  V30 1291 C 118.232 -4.27834 -3.20721 0
M  V30 1292 C 119.532 -5.08869 -1.17684 0
M  V30 1293 H 121.226 -2.96705 -0.400799 0
M  V30 1294 H 118.772 -1.42723 -0.191342 0
M  V30 1295 H 120.725 -3.11965 -2.83295 0
M  V30 1296 H 119.449 -1.88841 -2.6647 0
M  V30 1297 H 118.108 -3.45703 -1.22004 0
M  V30 1298 H 117.756 -3.41214 -3.6957 0
M  V30 1299 H 117.456 -5.03605 -3.02746 0
M  V30 1300 H 118.98 -4.70039 -3.89738 0
M  V30 1301 H 120.394 -5.4575 -1.75584 0
M  V30 1302 H 118.791 -5.8994 -1.09956 0
M  V30 1303 H 119.861 -4.84648 -0.156453 0
M  V30 1304 N 121.204 0.198386 -1.56346 0
M  V30 1305 C 122.136 1.26987 -1.90806 0
M  V30 1306 C 123.149 1.41877 -0.798419 0
M  V30 1307 O 124.338 1.42362 -1.07682 0
M  V30 1308 C 121.438 2.64246 -2.12196 0
M  V30 1309 C 120.611 2.71007 -3.43328 0
M  V30 1310 C 119.67 3.89439 -3.5387 0
M  V30 1311 O 118.696 3.76695 -4.26719 0
M  V30 1312 N 119.898 5.04752 -2.86715 0
M  V30 1313 H 122.663 0.977433 -2.83313 0
M  V30 1314 H 120.224 0.388322 -1.57174 0
M  V30 1315 H 122.216 3.41896 -2.1654 0
M  V30 1316 H 120.786 2.85992 -1.26204 0
M  V30 1317 H 120.006 1.79657 -3.50881 0
M  V30 1318 H 121.294 2.72512 -4.29668 0
M  V30 1319 H 120.692 5.18004 -2.2735 0
M  V30 1320 H 119.249 5.8036 -2.96691 0
M  V30 1321 N 122.682 1.50554 0.465978 0
M  V30 1322 C 123.612 1.72722 1.57128 0
M  V30 1323 C 124.593 0.576294 1.6004 0
M  V30 1324 O 125.778 0.81598 1.76225 0
M  V30 1325 C 122.908 1.82605 2.95419 0
M  V30 1326 C 121.862 2.97835 3.07373 0
M  V30 1327 C 121.188 2.92867 4.47363 0
M  V30 1328 C 122.488 4.38265 2.84114 0
M  V30 1329 H 124.182 2.65267 1.38829 0
M  V30 1330 H 121.728 1.2765 0.666441 0
M  V30 1331 H 123.681 1.96698 3.72677 0
M  V30 1332 H 122.405 0.866858 3.14886 0
M  V30 1333 H 121.064 2.83401 2.3255 0
M  V30 1334 H 120.712 1.94783 4.63755 0
M  V30 1335 H 120.412 3.70227 4.56296 0
M  V30 1336 H 121.936 3.09015 5.26633 0
M  V30 1337 H 123.35 4.53198 3.51118 0
M  V30 1338 H 121.747 5.17115 3.04487 0
M  V30 1339 H 122.817 4.50281 1.7993 0
M  V30 1340 N 124.16 -0.719506 1.40217 0
M  V30 1341 C 125.107 -1.83359 1.40172 0
M  V30 1342 C 126.077 -1.64065 0.259206 0
M  V30 1343 O 127.262 -1.85254 0.456677 0
M  V30 1344 C 124.402 -3.2103 1.26624 0
M  V30 1345 C 123.515 -3.51923 2.50548 0
M  V30 1346 C 122.65 -4.79079 2.29471 0
M  V30 1347 C 121.689 -5.02863 3.48992 0
M  V30 1348 N 120.826 -6.2123 3.27135 0
M  V30 1349 H 125.666 -1.82733 2.35399 0
M  V30 1350 H 123.203 -0.892688 1.16917 0
M  V30 1351 H 125.161 -4.00524 1.16776 0
M  V30 1352 H 123.791 -3.20895 0.350176 0
M  V30 1353 H 122.843 -2.67014 2.70939 0
M  V30 1354 H 124.155 -3.6541 3.39525 0
M  V30 1355 H 123.309 -5.66582 2.16955 0
M  V30 1356 H 122.048 -4.67794 1.37913 0
M  V30 1357 H 121.053 -4.13816 3.6199 0
M  V30 1358 H 122.278 -5.16023 4.41472 0
M  V30 1359 H 120.224 -6.11204 2.38256 0
M  V30 1360 H 120.141 -6.35375 4.09675 0
M  V30 1361 H 121.409 -7.11532 3.18344 0
M  V30 1362 N 125.638 -1.25649 -0.95132 0
M  V30 1363 C 126.548 -1.08073 -2.08224 0
M  V30 1364 C 127.564 -0.0169666 -1.73992 0
M  V30 1365 O 128.74 -0.218593 -2.0021 0
M  V30 1366 C 125.805 -0.704922 -3.39458 0
M  V30 1367 C 124.866 -1.84699 -3.87537 0
M  V30 1368 C 124.099 -1.48902 -5.12508 0
M  V30 1369 O 124.322 -0.386156 -5.69091 0
M  V30 1370 O 123.256 -2.32033 -5.55378 0
M  V30 1371 H 127.082 -2.02924 -2.25954 0
M  V30 1372 H 124.667 -1.04618 -1.06656 0
M  V30 1373 H 126.549 -0.507609 -4.18332 0
M  V30 1374 H 125.224 0.214291 -3.2299 0
M  V30 1375 H 124.131 -2.09919 -3.09653 0
M  V30 1376 H 125.464 -2.74557 -4.08509 0
M  V30 1377 N 127.117 1.15442 -1.07289 0
M  V30 1378 C 128.064 2.20161 -0.692653 0
M  V30 1379 C 129.034 1.63073 0.31564 0
M  V30 1380 O 130.219 1.89725 0.202235 0
M  V30 1381 C 127.359 3.44967 -0.0959509 0
M  V30 1382 C 126.472 4.16256 -1.15564 0
M  V30 1383 C 125.607 5.28609 -0.524011 0
M  V30 1384 C 124.646 5.91715 -1.56653 0
M  V30 1385 N 123.783 6.9554 -0.957531 0
M  V30 1386 H 128.623 2.52037 -1.59002 0
M  V30 1387 H 126.16 1.2378 -0.794798 0
M  V30 1388 H 128.118 4.16341 0.267628 0
M  V30 1389 H 126.748 3.1361 0.764772 0
M  V30 1390 H 125.8 3.43385 -1.6368 0
M  V30 1391 H 127.112 4.59268 -1.94613 0
M  V30 1392 H 126.266 6.06604 -0.108032 0
M  V30 1393 H 125.005 4.86787 0.29825 0
M  V30 1394 H 124.01 5.12433 -1.9923 0
M  V30 1395 H 125.235 6.35614 -2.39107 0
M  V30 1396 H 123.181 6.55814 -0.156162 0
M  V30 1397 H 123.098 7.36977 -1.68526 0
M  V30 1398 H 124.366 7.77435 -0.567032 0
M  V30 1399 N 128.595 0.856903 1.32268 0
M  V30 1400 C 129.542 0.301172 2.28827 0
M  V30 1401 C 130.512 -0.593104 1.5515 0
M  V30 1402 O 131.697 -0.527537 1.83362 0
M  V30 1403 C 128.837 -0.502523 3.41422 0
M  V30 1404 C 127.95 0.417797 4.29975 0
M  V30 1405 C 127.085 -0.398749 5.29701 0
M  V30 1406 C 126.124 0.518827 6.09897 0
M  V30 1407 N 125.261 -0.260674 7.01616 0
M  V30 1408 H 130.101 1.12983 2.75751 0
M  V30 1409 H 127.638 0.568582 1.35667 0
M  V30 1410 H 129.596 -0.984141 4.05426 0
M  V30 1411 H 128.226 -1.29599 2.95642 0
M  V30 1412 H 127.278 1.01781 3.66531 0
M  V30 1413 H 128.59 1.12191 4.86019 0
M  V30 1414 H 127.744 -0.943435 5.9932 0
M  V30 1415 H 126.483 -1.13622 4.7428 0
M  V30 1416 H 125.488 1.07538 5.39181 0
M  V30 1417 H 126.713 1.25495 6.67404 0
M  V30 1418 H 124.659 -0.981198 6.4862 0
M  V30 1419 H 124.576 0.384364 7.55022 0
M  V30 1420 H 125.844 -0.787014 7.75517 0
M  V30 1421 N 130.073 -1.45103 0.615059 0
M  V30 1422 C 131.021 -2.32331 -0.111791 0
M  V30 1423 C 132.015 -1.46409 -0.852102 0
M  V30 1424 O 133.221 -1.62849 -0.766821 0
M  V30 1425 H 129.596 -0.749993 -0.0549072 0
M  V30 1426 H 131.567 -2.91407 0.642225 0
M  V30 1427 C 130.316 -3.3015 -1.09071 0
M  V30 1428 H 129.639 -3.96265 -0.530485 0
M  V30 1429 H 131.079 -3.93898 -1.56908 0
M  V30 1430 C 129.538 -2.57875 -2.168 0
M  V30 1431 O 130.068 -2.36567 -3.24652 0
M  V30 1432 N 128.274 -2.17884 -1.92289 0
M  V30 1433 H 127.821 -2.35413 -1.04587 0
M  V30 1434 H 127.779 -1.6985 -2.64572 0
M  V30 1435 N 131.551 -0.354651 -1.53558 0
M  V30 1436 C 132.828 0.294281 -1.93374 0
M  V30 1437 C 133.208 1.67313 -1.28723 0
M  V30 1438 O 132.556 2.24179 -0.442247 0
M  V30 1439 C 132.766 0.355445 -3.47185 0
M  V30 1440 C 134.114 0.601007 -4.20325 0
M  V30 1441 O 135.138 0.437106 -3.53508 0
M  V30 1442 O 133.997 0.919322 -5.38712 0
M  V30 1443 H 131.091 0.174033 -0.808481 0
M  V30 1444 H 133.637 -0.406638 -1.64756 0
M  V30 1445 H 132.409 -0.611729 -3.86489 0
M  V30 1446 H 132.032 1.1027 -3.82003 0
M  V30 1447 N 133.029 1.57378 -0.0835403 0
M  V30 1448 C 133.977 2.14602 0.89714 0
M  V30 1449 C 134.971 1.08589 1.30018 0
M  V30 1450 O 136.177 1.26952 1.27606 0
M  V30 1451 H 132.552 0.686346 0.3073 0
M  V30 1452 H 134.523 2.95845 0.38969 0
M  V30 1453 C 133.272 2.73188 2.15089 0
M  V30 1454 H 132.595 3.54442 1.84962 0
M  V30 1455 H 134.035 3.1681 2.81793 0
M  V30 1456 C 132.494 1.68517 2.91725 0
M  V30 1457 O 133.024 1.11718 3.85852 0
M  V30 1458 N 131.23 1.39277 2.55049 0
M  V30 1459 H 130.777 1.85655 1.78577 0
M  V30 1460 H 130.735 0.694791 3.06627 0
M  V30 1461 N 134.507 -0.190092 1.56449 0
M  V30 1462 C 135.437 -1.23816 1.97969 0
M  V30 1463 C 136.418 -1.47201 0.852395 0
M  V30 1464 O 137.603 -1.58854 1.1171 0
M  V30 1465 C 134.733 -2.5813 2.3235 0
M  V30 1466 C 133.687 -2.49348 3.47864 0
M  V30 1467 C 133.013 -3.8798 3.67934 0
M  V30 1468 C 134.313 -2.01424 4.81898 0
M  V30 1469 H 136.007 -0.89311 2.85769 0
M  V30 1470 H 133.553 -0.428177 1.37487 0
M  V30 1471 H 135.506 -3.31637 2.59991 0
M  V30 1472 H 134.23 -2.94386 1.41438 0
M  V30 1473 H 132.889 -1.78297 3.20321 0
M  V30 1474 H 132.537 -4.21597 2.74344 0
M  V30 1475 H 132.237 -3.82978 4.45648 0
M  V30 1476 H 133.761 -4.63101 3.97957 0
M  V30 1477 H 135.175 -2.64693 5.08538 0
M  V30 1478 H 133.572 -2.07413 5.63116 0
M  V30 1479 H 134.642 -0.967677 4.75146 0
M  V30 1480 N 135.985 -1.50799 -0.457987 0
M  V30 1481 C 137.233 -1.62121 -1.2067 0
M  V30 1482 C 137.554 -0.329793 -1.92191 0
M  V30 1483 O 136.824 0.653409 -1.84682 0
M  V30 1484 H 135.404 -0.597441 -0.448411 0
M  V30 1485 H 138.066 -1.87637 -0.527096 0
M  V30 1486 H 137.162 -2.43882 -1.94751 0
M  V30 1487 N 137.463 0.71206 -1.40597 0
M  V30 1488 C 138.71 1.47197 -1.39065 0
M  V30 1489 C 139.038 1.94499 0.00583891 0
M  V30 1490 O 138.293 1.68752 0.99102 0
M  V30 1491 C 138.592 2.71039 -2.32965 0
M  V30 1492 C 138.258 2.42484 -3.80148 0
M  V30 1493 C 136.92 2.34406 -4.20247 0
M  V30 1494 C 139.272 2.18598 -4.73143 0
M  V30 1495 C 136.6 2.00516 -5.51371 0
M  V30 1496 C 138.952 1.8622 -6.0457 0
M  V30 1497 C 137.616 1.76626 -6.43708 0
M  V30 1498 H 136.886 0.538634 -0.508876 0
M  V30 1499 H 139.533 0.815325 -1.73276 0
M  V30 1500 H 137.838 3.41558 -1.91951 0
M  V30 1501 H 139.535 3.29138 -2.29061 0
M  V30 1502 H 136.125 2.49659 -3.4838 0
M  V30 1503 H 140.309 2.23793 -4.42979 0
M  V30 1504 H 135.565 1.91628 -5.80593 0
M  V30 1505 H 139.739 1.66752 -6.76141 0
M  V30 1506 H 137.366 1.50133 -7.45228 0
M  V30 1507 N 138.941 1.26152 0.944643 0
M  V30 1508 C 140.169 1.14259 1.72489 0
M  V30 1509 C 140.584 -0.302555 1.8636 0
M  V30 1510 O 139.941 -1.20741 1.36849 0
M  V30 1511 C 139.992 1.80266 3.13347 0
M  V30 1512 O 139.713 3.19133 3.00143 0
M  V30 1513 C 141.214 1.74283 4.07603 0
M  V30 1514 H 138.434 0.398051 0.540181 0
M  V30 1515 H 140.978 1.66706 1.18446 0
M  V30 1516 H 139.133 1.31766 3.64303 0
M  V30 1517 H 139.547 3.51744 3.89071 0
M  V30 1518 H 141.021 2.25111 5.04013 0
M  V30 1519 H 141.498 0.708631 4.33446 0
M  V30 1520 H 142.104 2.22319 3.62567 0
M  V30 1521 N 140.419 -1.14872 1.07899 0
M  V30 1522 C 141.666 -1.85789 0.805532 0
M  V30 1523 C 141.994 -1.82649 -0.668561 0
M  V30 1524 O 141.249 -1.24858 -1.50695 0
M  V30 1525 C 141.548 -3.34223 1.26609 0
M  V30 1526 C 141.214 -3.57555 2.74709 0
M  V30 1527 C 139.876 -3.63631 3.1516 0
M  V30 1528 C 142.228 -3.66803 3.70277 0
M  V30 1529 C 139.556 -3.76473 4.49983 0
M  V30 1530 C 141.908 -3.8117 5.04869 0
M  V30 1531 C 140.572 -3.85494 5.44932 0
M  V30 1532 H 139.842 -0.679849 0.294765 0
M  V30 1533 H 142.489 -1.3572 1.35101 0
M  V30 1534 H 140.794 -3.86536 0.640103 0
M  V30 1535 H 142.491 -3.87511 1.03132 0
M  V30 1536 H 139.081 -3.5347 2.42398 0
M  V30 1537 H 143.265 -3.61404 3.40149 0
M  V30 1538 H 138.521 -3.7808 4.80484 0
M  V30 1539 H 142.695 -3.87268 5.78789 0
M  V30 1540 H 140.322 -3.95197 6.49403 0
M  V30 1541 N 141.898 -0.863906 -1.31812 0
M  V30 1542 C 142.831 -0.259963 -2.26714 0
M  V30 1543 C 143.809 0.607392 -1.50829 0
M  V30 1544 O 144.993 0.562155 -1.79922 0
M  V30 1545 C 142.12 0.632456 -3.32743 0
M  V30 1546 C 141.166 -0.162743 -4.26189 0
M  V30 1547 S 141.999 -1.53726 -5.12961 0
M  V30 1548 C 143.155 -0.650803 -6.22507 0
M  V30 1549 H 143.388 -1.06445 -2.77591 0
M  V30 1550 H 140.921 -0.662071 -1.39485 0
M  V30 1551 H 142.879 1.14167 -3.94305 0
M  V30 1552 H 141.54 1.41083 -2.80632 0
M  V30 1553 H 140.733 0.517366 -5.01338 0
M  V30 1554 H 140.335 -0.60385 -3.69093 0
M  V30 1555 H 142.627 0.141134 -6.77353 0
M  V30 1556 H 143.57 -1.37322 -6.94657 0
M  V30 1557 H 143.978 -0.221041 -5.64067 0
M  V30 1558 N 143.376 1.44774 -0.622745 0
M  V30 1559 C 144.792 1.56986 -0.287652 0
M  V30 1560 C 144.992 1.61167 1.20944 0
M  V30 1561 O 144.048 1.55015 1.99315 0
M  V30 1562 C 145.361 2.84551 -0.972188 0
M  V30 1563 C 146.909 2.9825 -0.949536 0
M  V30 1564 C 147.384 4.28605 -1.61437 0
M  V30 1565 N 148.875 4.35399 -1.58057 0
M  V30 1566 C 149.61 5.34964 -2.064 0
M  V30 1567 N 149.106 6.40981 -2.62897 0
M  V30 1568 N 150.899 5.26419 -1.97078 0
M  V30 1569 H 143.05 1.40304 -1.59463 0
M  V30 1570 H 145.313 0.671794 -0.668878 0
M  V30 1571 H 145.019 2.87417 -2.02693 0
M  V30 1572 H 144.893 3.73807 -0.504771 0
M  V30 1573 H 147.28 2.94941 0.0967067 0
M  V30 1574 H 147.361 2.10364 -1.45536 0
M  V30 1575 H 147.005 4.32672 -2.66002 0
M  V30 1576 H 146.935 5.15334 -1.08344 0
M  V30 1577 H 149.426 3.59397 -1.16801 0
M  V30 1578 H 149.739 7.13225 -2.97539 0
M  V30 1579 H 148.084 6.4169 -2.66943 0
M  V30 1580 H 151.275 4.42504 -1.52669 0
M  V30 1581 H 151.448 6.03861 -2.35066 0
M  V30 1582 N 144.854 0.36279 1.53368 0
M  V30 1583 C 146.101 -0.227776 2.01215 0
M  V30 1584 C 146.429 -1.49003 1.25014 0
M  V30 1585 O 145.684 -1.92876 0.331236 0
M  V30 1586 C 145.983 -0.568417 3.52851 0
M  V30 1587 C 145.649 0.59918 4.46901 0
M  V30 1588 C 144.311 0.919559 4.72332 0
M  V30 1589 C 146.663 1.38156 5.02556 0
M  V30 1590 C 143.991 2.02434 5.5067 0
M  V30 1591 C 146.343 2.47674 5.821 0
M  V30 1592 C 145.007 2.8025 6.05819 0
M  V30 1593 H 144.277 -0.083349 0.736297 0
M  V30 1594 H 146.924 0.494677 1.85001 0
M  V30 1595 H 145.229 -1.37185 3.66998 0
M  V30 1596 H 146.926 -1.03756 3.87344 0
M  V30 1597 H 143.516 0.339437 4.27254 0
M  V30 1598 H 147.7 1.14729 4.82857 0
M  V30 1599 H 142.956 2.28075 5.67267 0
M  V30 1600 H 147.13 3.08716 6.24234 0
M  V30 1601 H 144.757 3.65979 6.66306 0
M  V30 1602 N 146.332 -1.57332 0.0918853 0
M  V30 1603 C 147.264 -2.10869 -0.898168 0
M  V30 1604 C 148.277 -1.04521 -1.24817 0
M  V30 1605 O 149.466 -1.31977 -1.20184 0
M  V30 1606 C 146.566 -2.57083 -2.2082 0
M  V30 1607 C 145.739 -3.87229 -2.03402 0
M  V30 1608 C 144.798 -4.19324 -3.17889 0
M  V30 1609 O 143.824 -4.88598 -2.91994 0
M  V30 1610 N 145.026 -3.74471 -4.43567 0
M  V30 1611 H 147.791 -2.96439 -0.440943 0
M  V30 1612 H 145.352 -1.61631 -0.0933064 0
M  V30 1613 H 147.344 -2.75602 -2.96354 0
M  V30 1614 H 145.914 -1.76541 -2.57977 0
M  V30 1615 H 145.134 -3.7789 -1.12218 0
M  V30 1616 H 146.422 -4.72379 -1.89038 0
M  V30 1617 H 145.82 -3.18546 -4.67488 0
M  V30 1618 H 144.377 -3.98151 -5.16061 0
M  V30 1619 N 147.81 0.181792 -1.56548 0
M  V30 1620 C 148.742 1.24956 -1.92142 0
M  V30 1621 C 149.755 1.41022 -0.813422 0
M  V30 1622 O 150.944 1.41212 -1.09186 0
M  V30 1623 C 148.044 2.61981 -2.14987 0
M  V30 1624 C 147.217 2.6735 -3.46183 0
M  V30 1625 C 146.276 3.85664 -3.5798 0
M  V30 1626 O 145.302 3.72148 -4.30691 0
M  V30 1627 N 146.504 5.01683 -2.92053 0
M  V30 1628 H 149.269 0.947329 -2.84334 0
M  V30 1629 H 146.83 0.371629 -1.57577 0
M  V30 1630 H 148.822 3.3958 -2.20154 0
M  V30 1631 H 147.392 2.84637 -1.2923 0
M  V30 1632 H 146.612 1.75925 -3.52766 0
M  V30 1633 H 147.9 2.67939 -4.32534 0
M  V30 1634 H 147.298 5.15564 -2.32832 0
M  V30 1635 H 145.855 5.77181 -3.0283 0
M  V30 1636 N 149.288 1.51039 0.449983 0
M  V30 1637 C 150.516 1.66869 1.2232 0
M  V30 1638 C 150.931 0.360727 1.85322 0
M  V30 1639 O 150.288 -0.659531 1.70166 0
M  V30 1640 C 150.339 2.77524 2.31652 0
M  V30 1641 O 150.06 4.03252 1.7123 0
M  V30 1642 C 151.561 3.04512 3.2216 0
M  V30 1643 H 148.781 0.560326 0.369155 0
M  V30 1644 H 151.325 1.97385 0.534719 0
M  V30 1645 H 149.48 2.49642 2.96239 0
M  V30 1646 H 149.894 4.64609 2.43389 0
M  V30 1647 H 151.368 3.85551 3.95038 0
M  V30 1648 H 151.845 2.16415 3.8218 0
M  V30 1649 H 152.451 3.34005 2.63288 0
M  V30 1650 N 150.766 -0.704594 1.40972 0
M  V30 1651 C 151.996 -1.49138 1.42974 0
M  V30 1652 C 152.404 -1.89175 0.0308406 0
M  V30 1653 O 151.747 -1.56734 -0.958138 0
M  V30 1654 C 151.809 -2.79016 2.26694 0
M  V30 1655 C 151.473 -2.61236 3.74973 0
M  V30 1656 C 152.47 -2.27773 4.67349 0
M  V30 1657 C 150.155 -2.77158 4.18914 0
M  V30 1658 C 152.149 -2.10457 6.01653 0
M  V30 1659 C 149.836 -2.59459 5.53285 0
M  V30 1660 C 150.834 -2.26158 6.4447 0
M  V30 1661 O 150.522 -2.08605 7.76363 0
M  V30 1662 H 150.254 -0.466443 0.489292 0
M  V30 1663 H 152.808 -0.8758 1.85793 0
M  V30 1664 H 151.038 -3.42947 1.78673 0
M  V30 1665 H 152.727 -3.40782 2.20504 0
M  V30 1666 H 153.493 -2.15095 4.34694 0
M  V30 1667 H 149.372 -3.02064 3.48251 0
M  V30 1668 H 152.916 -1.84387 6.72791 0
M  V30 1669 H 148.813 -2.71725 5.85522 0
M  V30 1670 H 149.581 -2.23439 7.87412 0
M  V30 1671 N 152.244 -1.26651 -0.937939 0
M  V30 1672 C 153.191 -1.0849 -2.03712 0
M  V30 1673 C 154.161 0.011033 -1.66096 0
M  V30 1674 O 155.346 -0.149353 -1.90215 0
M  V30 1675 C 152.486 -0.72735 -3.37348 0
M  V30 1676 C 151.599 -1.89986 -3.87981 0
M  V30 1677 C 150.734 -1.48513 -5.10017 0
M  V30 1678 C 149.773 -2.62575 -5.5292 0
M  V30 1679 N 148.91 -2.21762 -6.66158 0
M  V30 1680 H 153.75 -2.02551 -2.18579 0
M  V30 1681 H 151.287 -1.00844 -1.07093 0
M  V30 1682 H 153.245 -0.50092 -4.14182 0
M  V30 1683 H 151.875 0.176298 -3.22318 0
M  V30 1684 H 150.927 -2.23913 -3.07518 0
M  V30 1685 H 152.239 -2.75586 -4.15757 0
M  V30 1686 H 151.393 -1.21934 -5.94321 0
M  V30 1687 H 150.132 -0.60009 -4.83994 0
M  V30 1688 H 149.137 -2.8988 -4.67172 0
M  V30 1689 H 150.362 -3.51685 -5.80943 0
M  V30 1690 H 148.308 -1.35696 -6.41812 0
M  V30 1691 H 148.225 -3.00903 -6.93537 0
M  V30 1692 H 149.493 -1.98403 -7.53828 0
M  V30 1693 N 153.722 1.14298 -1.08507 0
M  V30 1694 C 154.97 1.84993 -0.813763 0
M  V30 1695 C 155.291 1.83405 0.662393 0
M  V30 1696 O 154.561 1.28319 1.48024 0
M  V30 1697 H 153.141 0.684966 -0.298045 0
M  V30 1698 H 155.803 1.385 -1.37126 0
M  V30 1699 H 154.899 2.89788 -1.15884 0
M  V30 1700 N 155.201 0.870884 1.31352 0
M  V30 1701 C 156.45 0.478408 1.95944 0
M  V30 1702 C 156.763 -0.974493 1.69597 0
M  V30 1703 O 157.969 -1.47316 2.28058 0
M  V30 1704 C 156.425 0.804609 3.50791 0
M  V30 1705 C 156.033 2.27433 3.85977 0
M  V30 1706 C 157.777 0.480648 4.2177 0
M  V30 1707 C 155.684 2.5429 5.33939 0
M  V30 1708 H 154.614 0.175175 0.733369 0
M  V30 1709 H 157.265 1.06391 1.4951 0
M  V30 1710 H 155.647 0.148347 3.95722 0
M  V30 1711 H 156.821 2.97373 3.52002 0
M  V30 1712 H 155.136 2.56442 3.28065 0
M  V30 1713 H 157.733 0.658519 5.30629 0
M  V30 1714 H 158.076 -0.578979 4.12254 0
M  V30 1715 H 158.609 1.09349 3.82476 0
M  V30 1716 H 155.348 3.58939 5.48491 0
M  V30 1717 H 154.868 1.88945 5.69263 0
M  V30 1718 H 156.547 2.39066 6.01212 0
M  V30 1719 N 156.679 -1.44442 0.630414 0
M  V30 1720 C 158.09 -1.85434 0.217063 0
M  V30 1721 C 158.441 -1.52748 -1.23136 0
M  V30 1722 O 157.566 -0.965205 -1.93682 0
M  V30 1723 C 158.161 -3.36581 0.387168 0
M  V30 1724 C 156.72 -3.76389 0.0283297 0
M  V30 1725 C 155.867 -2.68296 0.700889 0
M  V30 1726 H 158.818 -1.34919 0.83562 0
M  V30 1727 H 158.839 -3.78657 -0.374086 0
M  V30 1728 H 158.351 -3.60339 1.44144 0
M  V30 1729 H 156.452 -3.58246 -1.02423 0
M  V30 1730 H 156.565 -4.77095 0.437892 0
M  V30 1731 H 154.929 -2.54335 0.136267 0
M  V30 1732 H 155.712 -2.94887 1.75774 0
M  V30 1733 N 158.157 -0.370918 -1.53173 0
M  V30 1734 C 159.403 0.217423 -2.01631 0
M  V30 1735 C 159.736 1.47983 -1.25756 0
M  V30 1736 O 159.011 1.91274 -0.352764 0
M  V30 1737 C 159.294 0.503982 -3.56556 0
M  V30 1738 C 159.147 -0.77243 -4.43118 0
M  V30 1739 C 160.466 1.30234 -4.20389 0
M  V30 1740 H 157.585 0.0775486 -0.732909 0
M  V30 1741 H 160.227 -0.496863 -1.83388 0
M  V30 1742 H 158.377 1.11248 -3.72231 0
M  V30 1743 H 160.049 -1.4098 -4.39229 0
M  V30 1744 H 158.292 -1.39167 -4.10871 0
M  V30 1745 H 158.963 -0.526815 -5.4948 0
M  V30 1746 H 161.439 0.787546 -4.08579 0
M  V30 1747 H 160.315 1.47158 -5.28806 0
M  V30 1748 H 160.576 2.31237 -3.76805 0
M  V30 1749 N 159.635 1.57281 -0.100228 0
M  V30 1750 C 160.882 1.94537 0.562268 0
M  V30 1751 C 161.21 0.982315 1.67871 0
M  V30 1752 O 160.465 0.00280936 1.957 0
M  V30 1753 C 160.764 3.38305 1.15259 0
M  V30 1754 C 160.43 4.50618 0.159409 0
M  V30 1755 C 159.092 4.81066 -0.113741 0
M  V30 1756 C 161.444 5.18615 -0.518461 0
M  V30 1757 C 158.772 5.76835 -1.07137 0
M  V30 1758 C 161.124 6.15412 -1.46459 0
M  V30 1759 C 159.788 6.44262 -1.74592 0
M  V30 1760 H 159.058 0.711863 0.205748 0
M  V30 1761 H 161.705 1.90679 -0.17715 0
M  V30 1762 H 160.01 3.38766 1.96836 0
M  V30 1763 H 161.707 3.64435 1.67297 0
M  V30 1764 H 158.297 4.2689 0.382491 0
M  V30 1765 H 162.481 4.95264 -0.320581 0
M  V30 1766 H 157.737 5.975 -1.29628 0
M  V30 1767 H 161.911 6.67194 -1.99564 0
M  V30 1768 H 159.538 7.1828 -2.48953 0
M  V30 1769 N 161.113 -0.173488 1.56642 0
M  V30 1770 C 162.361 -0.888706 1.81512 0
M  V30 1771 C 162.682 -1.82875 0.676872 0
M  V30 1772 O 161.952 -1.93536 -0.303414 0
M  V30 1773 H 160.532 -0.331164 0.669582 0
M  V30 1774 H 163.194 -0.173823 1.94123 0
M  V30 1775 H 162.29 -1.46691 2.75478 0
M  V30 1776 N 162.591 -1.51276 -0.441967 0
M  V30 1777 C 163.554 -1.7167 -1.51862 0
M  V30 1778 C 164.554 -0.586793 -1.49711 0
M  V30 1779 O 165.744 -0.854276 -1.51815 0
M  V30 1780 C 162.876 -1.76889 -2.91416 0
M  V30 1781 H 164.069 -2.67754 -1.35084 0
M  V30 1782 H 161.622 -1.41196 -0.670333 0
M  V30 1783 H 162.357 -0.826026 -3.13604 0
M  V30 1784 H 162.142 -2.59001 -2.94382 0
M  V30 1785 H 163.632 -1.94522 -3.69528 0
M  V30 1786 N 164.069 0.697108 -1.41344 0
M  V30 1787 C 165.315 1.4593 -1.40827 0
M  V30 1788 C 165.648 1.94193 -0.0167098 0
M  V30 1789 O 164.923 1.69425 0.955263 0
M  V30 1790 C 165.206 2.67229 -2.41373 0
M  V30 1791 C 165.059 2.24741 -3.8963 0
M  V30 1792 C 166.378 3.69423 -2.39196 0
M  V30 1793 H 163.497 0.529303 -0.512842 0
M  V30 1794 H 166.139 0.794112 -1.72609 0
M  V30 1795 H 164.289 3.23982 -2.14401 0
M  V30 1796 H 165.961 1.73327 -4.27499 0
M  V30 1797 H 164.204 1.56542 -4.0457 0
M  V30 1798 H 164.875 3.1177 -4.55525 0
M  V30 1799 H 167.351 3.2234 -2.63128 0
M  V30 1800 H 166.227 4.51907 -3.11563 0
M  V30 1801 H 166.488 4.19012 -1.41001 0
M  V30 1802 N 165.547 1.27147 0.931209 0
M  V30 1803 C 166.793 1.13446 1.68101 0
M  V30 1804 C 167.126 -0.319628 1.91552 0
M  V30 1805 O 166.401 -1.23407 1.50336 0
M  V30 1806 C 166.684 1.91482 3.0497 0
M  V30 1807 C 166.537 3.44855 2.88782 0
M  V30 1808 C 167.856 1.71651 4.05246 0
M  V30 1809 H 164.975 0.413498 0.610072 0
M  V30 1810 H 167.617 1.56261 1.08086 0
M  V30 1811 H 165.767 1.55095 3.56199 0
M  V30 1812 H 167.439 3.9105 2.44698 0
M  V30 1813 H 165.682 3.71373 2.24198 0
M  V30 1814 H 166.353 3.94694 3.85902 0
M  V30 1815 H 168.829 2.0337 3.63015 0
M  V30 1816 H 167.705 2.28651 4.99009 0
M  V30 1817 H 167.966 0.663555 4.37092 0
M  V30 1818 N 167.025 -1.13721 1.09112 0
M  V30 1819 C 168.253 -1.88773 0.846899 0
M  V30 1820 C 168.668 -1.7896 -0.601572 0
M  V30 1821 O 168.025 -1.15394 -1.41388 0
M  V30 1822 C 168.076 -3.3849 1.26913 0
M  V30 1823 O 167.797 -3.48043 2.66079 0
M  V30 1824 C 169.298 -4.30518 1.05682 0
M  V30 1825 H 166.518 -0.59772 0.304914 0
M  V30 1826 H 169.062 -1.43977 1.45227 0
M  V30 1827 H 167.217 -3.80881 0.707723 0
M  V30 1828 H 167.631 -4.4109 2.83795 0
M  V30 1829 H 169.105 -5.3391 1.40156 0
M  V30 1830 H 169.582 -4.392 -0.00563416 0
M  V30 1831 H 170.188 -3.93893 1.60402 0
M  V30 1832 N 168.503 -0.877838 -1.30888 0
M  V30 1833 C 169.728 -0.506629 -2.01117 0
M  V30 1834 C 170.153 0.895564 -1.65412 0
M  V30 1835 O 169.511 1.5923 -0.866922 0
M  V30 1836 C 169.559 -0.680223 -3.54126 0
M  V30 1837 O 168.663 0.277033 -4.11468 0
M  V30 1838 H 168.004 -0.200518 -0.633 0
M  V30 1839 H 170.534 -1.18342 -1.66902 0
M  V30 1840 H 170.544 -0.5765 -4.03907 0
M  V30 1841 H 169.219 -1.70261 -3.79452 0
M  V30 1842 H 167.796 0.127606 -3.72682 0
M  V30 1843 N 169.982 1.44106 -0.638065 0
M  V30 1844 C 170.932 2.27843 0.0847285 0
M  V30 1845 C 171.916 1.39055 0.809471 0
M  V30 1846 O 173.108 1.62808 0.694435 0
M  V30 1847 C 170.237 3.26497 1.06089 0
M  V30 1848 C 169.323 4.22772 0.33541 0
M  V30 1849 N 169.714 5.01737 -0.639787 0
M  V30 1850 C 168.012 4.42227 0.578921 0
M  V30 1851 C 168.713 5.71792 -1.06904 0
M  V30 1852 N 167.689 5.42079 -0.406395 0
M  V30 1853 H 171.491 2.86305 -0.663814 0
M  V30 1854 H 169.005 1.55627 -0.464122 0
M  V30 1855 H 171.002 3.8525 1.59337 0
M  V30 1856 H 169.662 2.69595 1.80966 0
M  V30 1857 H 170.673 5.07799 -1.01789 0
M  V30 1858 H 167.35 3.96415 1.31003 0
M  V30 1859 H 168.74 6.45205 -1.8751 0
M  V30 1860 N 171.46 0.379036 1.52974 0
M  V30 1861 C 172.706 -0.206727 2.01744 0
M  V30 1862 C 173.039 -1.47314 1.26539 0
M  V30 1863 O 172.314 -1.91084 0.362903 0
M  V30 1864 C 172.597 -0.485066 3.56818 0
M  V30 1865 C 172.45 0.795919 4.42702 0
M  V30 1866 C 173.769 -1.28003 4.21074 0
M  V30 1867 H 170.888 -0.0736607 0.73331 0
M  V30 1868 H 173.53 0.506581 1.83122 0
M  V30 1869 H 171.68 -1.09272 3.72816 0
M  V30 1870 H 173.352 1.43307 4.38476 0
M  V30 1871 H 171.595 1.41344 4.10127 0
M  V30 1872 H 172.266 0.555947 5.49193 0
M  V30 1873 H 174.742 -0.765867 4.08991 0
M  V30 1874 H 173.618 -1.44352 5.29579 0
M  V30 1875 H 173.879 -2.29236 3.78026 0
M  V30 1876 N 172.938 -1.57226 0.108567 0
M  V30 1877 C 173.885 -2.14756 -0.845481 0
M  V30 1878 C 174.855 -1.06971 -1.27068 0
M  V30 1879 O 176.04 -1.34827 -1.35005 0
M  V30 1880 C 173.18 -2.74298 -2.09415 0
M  V30 1881 C 172.293 -3.96358 -1.71826 0
M  V30 1882 C 171.428 -4.44021 -2.9158 0
M  V30 1883 C 170.467 -5.58637 -2.50181 0
M  V30 1884 N 169.604 -6.01091 -3.62814 0
M  V30 1885 H 174.444 -2.95961 -0.348035 0
M  V30 1886 H 171.981 -1.46226 -0.160106 0
M  V30 1887 H 173.939 -3.06945 -2.82561 0
M  V30 1888 H 172.569 -1.95801 -2.56636 0
M  V30 1889 H 171.621 -3.69939 -0.885947 0
M  V30 1890 H 172.933 -4.79504 -1.37394 0
M  V30 1891 H 172.087 -4.78522 -3.72963 0
M  V30 1892 H 170.826 -3.59803 -3.29231 0
M  V30 1893 H 169.831 -5.23751 -1.67228 0
M  V30 1894 H 171.056 -6.44613 -2.13659 0
M  V30 1895 H 169.002 -5.19817 -4.00158 0
M  V30 1896 H 168.919 -6.79066 -3.32273 0
M  V30 1897 H 170.187 -6.40227 -4.44668 0
M  V30 1898 N 174.416 0.165178 -1.56732 0
M  V30 1899 C 175.693 0.908443 -1.73224 0
M  V30 1900 C 176.073 2.0013 -0.67165 0
M  V30 1901 O 175.421 2.26353 0.31253 0
M  V30 1902 C 175.631 1.46756 -3.16644 0
M  V30 1903 C 176.979 1.93809 -3.77787 0
M  V30 1904 O 178.003 1.56537 -3.1996 0
M  V30 1905 O 176.862 2.62486 -4.79336 0
M  V30 1906 H 173.956 0.428025 -0.707618 0
M  V30 1907 H 176.502 0.152526 -1.69013 0
M  V30 1908 H 175.274 0.68129 -3.85323 0
M  V30 1909 H 174.897 2.28749 -3.25207 0
M  V30 1910 N 175.894 1.51508 0.433938 0
M  V30 1911 C 177.142 1.6402 1.18075 0
M  V30 1912 C 177.463 0.360328 1.91642 0
M  V30 1913 O 176.733 -0.623945 1.85698 0
M  V30 1914 H 175.313 0.6045 0.43885 0
M  V30 1915 H 177.975 1.88452 0.497178 0
M  V30 1916 H 177.071 2.46949 1.90847 0
M  V30 1917 N 177.372 -0.689602 1.41712 0
M  V30 1918 C 178.6 -1.47827 1.44758 0
M  V30 1919 C 179.015 -1.88721 0.0545703 0
M  V30 1920 O 178.372 -1.57176 -0.927463 0
M  V30 1921 C 178.423 -2.73698 2.3616 0
M  V30 1922 O 178.144 -2.34524 3.7004 0
M  V30 1923 C 179.645 -3.67389 2.48072 0
M  V30 1924 H 176.865 -0.455357 0.49284 0
M  V30 1925 H 179.409 -0.848574 1.86063 0
M  V30 1926 H 177.564 -3.32891 1.98148 0
M  V30 1927 H 177.978 -3.15701 4.18847 0
M  V30 1928 H 179.452 -4.52475 3.16181 0
M  V30 1929 H 179.929 -4.12284 1.51388 0
M  V30 1930 H 180.535 -3.14097 2.86746 0
M  V30 1931 N 178.85 -1.27639 -0.924453 0
M  V30 1932 C 179.78 -1.13166 -2.04244 0
M  V30 1933 C 180.761 -0.032256 -1.70069 0
M  V30 1934 O 181.946 -0.207328 -1.9309 0
M  V30 1935 C 179.076 -0.781496 -3.38393 0
M  V30 1936 C 178.03 -1.83449 -3.86692 0
M  V30 1937 C 177.356 -1.33822 -5.17683 0
M  V30 1938 C 178.656 -3.23917 -4.09726 0
M  V30 1939 H 180.35 -2.06689 -2.1661 0
M  V30 1940 H 177.896 -0.995136 -1.04082 0
M  V30 1941 H 179.849 -0.667057 -4.16087 0
M  V30 1942 H 178.573 0.189439 -3.2605 0
M  V30 1943 H 177.232 -1.93789 -3.11193 0
M  V30 1944 H 176.88 -0.35665 -5.01734 0
M  V30 1945 H 176.58 -2.04224 -5.50968 0
M  V30 1946 H 178.104 -1.23679 -5.97943 0
M  V30 1947 H 179.518 -3.16559 -4.77978 0
M  V30 1948 H 177.915 -3.92059 -4.54324 0
M  V30 1949 H 178.985 -3.68729 -3.14908 0
M  V30 1950 N 180.328 1.1314 -1.09713 0
M  V30 1951 C 181.556 1.88321 -0.856898 0
M  V30 1952 C 181.971 1.79276 0.592073 0
M  V30 1953 O 181.328 1.16142 1.40774 0
M  V30 1954 C 181.379 3.37812 -1.28706 0
M  V30 1955 O 181.1 3.46627 -2.67921 0
M  V30 1956 C 182.601 4.29952 -1.07964 0
M  V30 1957 H 179.821 0.596094 -0.308079 0
M  V30 1958 H 182.365 1.43205 -1.45988 0
M  V30 1959 H 180.52 3.805 -0.727912 0
M  V30 1960 H 180.934 4.39579 -2.8613 0
M  V30 1961 H 182.408 5.33159 -1.42986 0
M  V30 1962 H 182.885 4.39196 -0.0176577 0
M  V30 1963 H 183.491 3.93036 -1.62489 0
M  V30 1964 N 181.806 0.884767 1.30421 0
M  V30 1965 C 182.769 0.356277 2.26414 0
M  V30 1966 C 183.769 -0.501124 1.52792 0
M  V30 1967 O 184.959 -0.30831 1.7145 0
M  V30 1968 C 182.091 -0.492316 3.37326 0
M  V30 1969 H 183.284 1.20389 2.74675 0
M  V30 1970 H 180.837 0.661607 1.41607 0
M  V30 1971 H 181.572 -1.36052 2.94381 0
M  V30 1972 H 181.357 0.121832 3.91911 0
M  V30 1973 H 182.847 -0.853871 4.08777 0
M  V30 1974 N 183.284 -1.43765 0.645699 0
M  V30 1975 C 184.214 -2.33471 -0.0370477 0
M  V30 1976 C 185.195 -1.49042 -0.819779 0
M  V30 1977 O 186.38 -1.77726 -0.782758 0
M  V30 1978 C 183.51 -3.32311 -1.0093 0
M  V30 1979 C 182.464 -4.2667 -0.337201 0
M  V30 1980 C 181.79 -5.1549 -1.42037 0
M  V30 1981 C 183.09 -5.16657 0.765706 0
M  V30 1982 H 184.784 -2.90809 0.712069 0
M  V30 1983 H 182.33 -1.39834 0.343876 0
M  V30 1984 H 184.283 -3.9396 -1.49578 0
M  V30 1985 H 183.007 -2.73213 -1.78948 0
M  V30 1986 H 181.666 -3.66374 0.128771 0
M  V30 1987 H 181.314 -4.52735 -2.1918 0
M  V30 1988 H 181.014 -5.79438 -0.975966 0
M  V30 1989 H 182.538 -5.80012 -1.90838 0
M  V30 1990 H 183.952 -5.72158 0.361702 0
M  V30 1991 H 182.349 -5.89286 1.13413 0
M  V30 1992 H 183.419 -4.56796 1.62683 0
M  V30 1993 N 184.763 -0.387143 -1.52771 0
M  V30 1994 C 185.988 0.198407 -2.06449 0
M  V30 1995 C 186.413 1.39918 -1.25716 0
M  V30 1996 O 185.771 1.79099 -0.281657 0
M  V30 1997 C 185.819 0.548893 -3.56398 0
M  V30 1998 O 184.923 1.64315 -3.78252 0
M  V30 1999 H 184.264 0.0237731 -0.663574 0
M  V30 2000 H 186.794 -0.553989 -1.96957 0
M  V30 2001 H 186.804 0.813812 -3.99801 0
M  V30 2002 H 185.479 -0.329005 -4.14597 0
M  V30 2003 H 184.056 1.37211 -3.46738 0
M  V30 2004 N 186.241 1.57166 -0.116904 0
M  V30 2005 C 187.489 1.94737 0.540533 0
M  V30 2006 C 187.81 1.00096 1.67349 0
M  V30 2007 O 187.08 0.0568854 1.95817 0
M  V30 2008 H 185.66 0.718981 0.202669 0
M  V30 2009 H 188.322 1.94017 -0.185353 0
M  V30 2010 H 187.418 2.97719 0.936483 0
M  V30 2011 N 187.719 -0.156864 1.56817 0
M  V30 2012 C 188.947 -0.886316 1.86955 0
M  V30 2013 C 189.362 -1.75185 0.703975 0
M  V30 2014 O 188.719 -1.79555 -0.326552 0
M  V30 2015 C 188.77 -1.75117 3.16253 0
M  V30 2016 O 188.491 -0.920537 4.2832 0
M  V30 2017 C 189.992 -2.58905 3.59837 0
M  V30 2018 H 187.212 -0.25678 0.619923 0
M  V30 2019 H 189.756 -0.152615 2.0393 0
M  V30 2020 H 187.911 -2.43805 3.01062 0
M  V30 2021 H 188.325 -1.51337 5.02192 0
M  V30 2022 H 189.799 -3.1518 4.53172 0
M  V30 2023 H 190.276 -3.34472 2.84649 0
M  V30 2024 H 190.882 -1.95526 3.7769 0
M  V30 2025 N 189.197 -1.51736 -0.425897 0
M  V30 2026 C 190.127 -1.76827 -1.52494 0
M  V30 2027 C 191.108 -0.618524 -1.58456 0
M  V30 2028 O 192.293 -0.862416 -1.74 0
M  V30 2029 C 189.423 -1.90374 -2.90474 0
M  V30 2030 C 188.377 -3.0588 -2.99369 0
M  V30 2031 C 187.703 -3.04625 -4.3944 0
M  V30 2032 C 189.003 -4.45644 -2.72394 0
M  V30 2033 H 190.697 -2.68855 -1.31748 0
M  V30 2034 H 188.243 -1.29372 -0.632362 0
M  V30 2035 H 190.196 -2.0651 -3.6733 0
M  V30 2036 H 188.92 -0.95004 -3.12477 0
M  V30 2037 H 187.579 -2.89467 -2.24954 0
M  V30 2038 H 187.227 -2.0701 -4.58428 0
M  V30 2039 H 186.927 -3.82195 -4.46319 0
M  V30 2040 H 188.451 -3.22869 -5.18255 0
M  V30 2041 H 189.865 -4.62348 -3.38979 0
M  V30 2042 H 188.262 -5.25006 -2.9067 0
M  V30 2043 H 189.332 -4.54893 -1.67929 0
M  V30 2044 N 190.675 0.682077 -1.42076 0
M  V30 2045 C 191.924 1.43786 -1.41451 0
M  V30 2046 C 192.237 1.95574 -0.0317074 0
M  V30 2047 O 193.443 2.71326 0.0971462 0
M  V30 2048 C 191.899 2.60071 -2.48779 0
M  V30 2049 C 191.507 2.15013 -3.93031 0
M  V30 2050 C 193.251 3.37626 -2.57311 0
M  V30 2051 C 191.158 3.28336 -4.91883 0
M  V30 2052 H 190.088 0.540143 -0.526082 0
M  V30 2053 H 192.739 0.739157 -1.67955 0
M  V30 2054 H 191.121 3.32275 -2.15429 0
M  V30 2055 H 192.295 1.5001 -4.35699 0
M  V30 2056 H 190.61 1.50416 -3.88284 0
M  V30 2057 H 193.207 4.22012 -3.28345 0
M  V30 2058 H 193.55 3.83727 -1.61429 0
M  V30 2059 H 194.083 2.72488 -2.89819 0
M  V30 2060 H 190.822 2.87234 -5.89217 0
M  V30 2061 H 190.342 3.92145 -4.53853 0
M  V30 2062 H 192.021 3.93913 -5.13265 0
M  V30 2063 N 192.153 1.28127 0.917671 0
M  V30 2064 C 193.564 1.13622 1.48145 0
M  V30 2065 C 193.915 -0.275207 1.9426 0
M  V30 2066 O 193.04 -1.1691 1.82102 0
M  V30 2067 C 193.635 2.05648 2.69248 0
M  V30 2068 C 192.194 1.95219 3.21818 0
M  V30 2069 C 191.341 1.97618 1.94532 0
M  V30 2070 H 194.292 1.40874 0.730772 0
M  V30 2071 H 194.313 1.61818 3.44377 0
M  V30 2072 H 193.825 3.08365 2.35653 0
M  V30 2073 H 191.926 0.955244 3.60147 0
M  V30 2074 H 192.039 2.81976 3.87333 0
M  V30 2075 H 190.403 1.41973 2.11461 0
M  V30 2076 H 191.186 3.02007 1.63238 0
M  V30 2077 N 193.631 -1.12557 1.10312 0
M  V30 2078 C 194.579 -2.20325 0.745629 0
M  V30 2079 C 195.573 -1.67429 -0.25763 0
M  V30 2080 O 196.779 -1.79612 -0.118132 0
M  V30 2081 H 193.154 -0.718118 0.223182 0
M  V30 2082 H 195.125 -2.47733 1.66346 0
M  V30 2083 C 193.874 -3.47168 0.192262 0
M  V30 2084 H 193.197 -3.88215 0.955475 0
M  V30 2085 H 194.637 -4.23995 -0.0198274 0
M  V30 2086 C 193.096 -3.19298 -1.07472 0
M  V30 2087 O 193.626 -3.3891 -2.15645 0
M  V30 2088 N 191.832 -2.73113 -0.992847 0
M  V30 2089 H 191.379 -2.57354 -0.112474 0
M  V30 2090 H 191.337 -2.54842 -1.84127 0
M  V30 2091 N 195.109 -0.891671 -1.2995 0
M  V30 2092 C 196.039 -0.379797 -2.30391 0
M  V30 2093 C 197.02 0.540919 -1.6127 0
M  V30 2094 O 198.205 0.453352 -1.88834 0
M  V30 2095 C 195.335 0.400654 -3.44981 0
M  V30 2096 C 194.289 -0.428905 -4.25846 0
M  V30 2097 C 193.615 0.478557 -5.32554 0
M  V30 2098 C 194.915 -1.67458 -4.94727 0
M  V30 2099 H 196.609 -1.21914 -2.73454 0
M  V30 2100 H 194.155 -0.587675 -1.31462 0
M  V30 2101 H 196.108 0.769434 -4.14316 0
M  V30 2102 H 194.832 1.27371 -3.0074 0
M  V30 2103 H 193.491 -0.779911 -3.58208 0
M  V30 2104 H 193.139 1.34951 -4.84559 0
M  V30 2105 H 192.839 -0.0727433 -5.87555 0
M  V30 2106 H 194.363 0.843705 -6.04743 0
M  V30 2107 H 195.777 -1.376 -5.56542 0
M  V30 2108 H 194.174 -2.16659 -5.59624 0
M  V30 2109 H 195.244 -2.41518 -4.20473 0
M  V30 2110 N 196.587 1.43421 -0.653314 0
M  V30 2111 C 197.864 1.95361 -0.0966581 0
M  V30 2112 C 198.244 1.59461 1.38331 0
M  V30 2113 O 197.592 0.879777 2.10884 0
M  V30 2114 C 197.802 3.47311 -0.342988 0
M  V30 2115 C 199.15 4.23875 -0.24798 0
M  V30 2116 O 200.174 3.55133 -0.275553 0
M  V30 2117 O 199.033 5.4623 -0.171771 0
M  V30 2118 H 196.127 0.826945 0.00956291 0
M  V30 2119 H 198.673 1.5336 -0.726558 0
M  V30 2120 H 197.445 3.66569 -1.36906 0
M  V30 2121 H 197.068 3.9631 0.319975 0
M  V30 2122 N 198.065 0.39524 1.52563 0
M  V30 2123 C 199.293 -0.184943 2.06072 0
M  V30 2124 C 199.708 -1.40021 1.26647 0
M  V30 2125 O 199.065 -1.79767 0.314672 0
M  V30 2126 C 199.116 -0.549179 3.57304 0
M  V30 2127 O 198.837 0.617813 4.33722 0
M  V30 2128 C 200.338 -1.18459 4.2718 0
M  V30 2129 H 197.558 -0.0265025 0.670476 0
M  V30 2130 H 200.102 0.562184 1.96621 0
M  V30 2131 H 198.257 -1.2462 3.66809 0
M  V30 2132 H 198.671 0.317091 5.23541 0
M  V30 2133 H 200.145 -1.38976 5.34219 0
M  V30 2134 H 200.622 -2.15368 3.82771 0
M  V30 2135 H 201.228 -0.528163 4.22008 0
M  V30 2136 N 199.544 -1.57102 0.125237 0
M  V30 2137 C 200.491 -2.15641 -0.822655 0
M  V30 2138 C 201.461 -1.08313 -1.25927 0
M  V30 2139 O 202.646 -1.36251 -1.33567 0
M  V30 2140 C 199.786 -2.76504 -2.06494 0
M  V30 2141 C 198.899 -3.98158 -1.67612 0
M  V30 2142 C 198.034 -4.47088 -2.86854 0
M  V30 2143 C 197.073 -5.6126 -2.44242 0
M  V30 2144 N 196.21 -6.04905 -3.56419 0
M  V30 2145 H 201.05 -2.96313 -0.316625 0
M  V30 2146 H 198.587 -1.46388 -0.144588 0
M  V30 2147 H 200.545 -3.09925 -2.79289 0
M  V30 2148 H 199.175 -1.98512 -2.54545 0
M  V30 2149 H 198.227 -3.70858 -0.846661 0
M  V30 2150 H 199.539 -4.80934 -1.32301 0
M  V30 2151 H 198.693 -4.82451 -3.67867 0
M  V30 2152 H 197.432 -3.63275 -3.25396 0
M  V30 2153 H 196.437 -5.25495 -1.61663 0
M  V30 2154 H 197.662 -6.46843 -2.0681 0
M  V30 2155 H 195.608 -5.24032 -3.94623 0
M  V30 2156 H 195.525 -6.82552 -3.25051 0
M  V30 2157 H 196.793 -6.44907 -4.37853 0
M  V30 2158 N 201.022 0.148545 -1.56898 0
M  V30 2159 C 202.27 0.859717 -1.82902 0
M  V30 2160 C 202.591 1.81775 -0.70588 0
M  V30 2161 O 201.861 1.93994 0.272586 0
M  V30 2162 H 200.441 0.320469 -0.674766 0
M  V30 2163 H 203.103 0.142918 -1.94375 0
M  V30 2164 H 202.199 1.4229 -2.77777 0
M  V30 2165 N 202.5 1.5196 0.417844 0
M  V30 2166 C 203.725 1.69717 1.1921 0
M  V30 2167 C 204.15 0.402148 1.83751 0
M  V30 2168 O 203.508 -0.639593 1.69643 0
M  V30 2169 C 203.556 2.82794 2.2374 0
M  V30 2170 O 202.66 2.47756 3.29683 0
M  V30 2171 H 202.001 0.565263 0.348387 0
M  V30 2172 H 204.531 1.98621 0.490985 0
M  V30 2173 H 204.541 3.07452 2.68212 0
M  V30 2174 H 203.216 3.76756 1.76146 0
M  V30 2175 H 201.793 2.33739 2.90552 0
M  V30 2176 N 203.978 -0.674533 1.42435 0
M  V30 2177 C 204.908 -1.80009 1.48724 0
M  V30 2178 C 205.889 -1.6659 0.343793 0
M  V30 2179 O 207.074 -1.86007 0.558137 0
M  V30 2180 C 204.204 -3.18306 1.38919 0
M  V30 2181 C 203.158 -3.46461 2.51294 0
M  V30 2182 C 202.484 -4.84335 2.26547 0
M  V30 2183 C 203.784 -3.43328 3.93603 0
M  V30 2184 H 205.478 -1.75004 2.42928 0
M  V30 2185 H 203.024 -0.840533 1.16923 0
M  V30 2186 H 204.977 -3.9678 1.41927 0
M  V30 2187 H 203.701 -3.2399 0.412094 0
M  V30 2188 H 202.36 -2.70348 2.47604 0
M  V30 2189 H 202.008 -4.86669 1.2713 0
M  V30 2190 H 201.708 -5.04136 3.01861 0
M  V30 2191 H 203.232 -5.65094 2.31304 0
M  V30 2192 H 204.646 -4.11772 3.98894 0
M  V30 2193 H 203.043 -3.74664 4.68771 0
M  V30 2194 H 204.113 -2.41897 4.20255 0
M  V30 2195 N 205.456 -1.28612 -0.910864 0
M  V30 2196 C 206.403 -1.12786 -2.01365 0
M  V30 2197 C 207.373 -0.024201 -1.66082 0
M  V30 2198 O 208.558 -0.189667 -1.89855 0
M  V30 2199 C 205.698 -0.798743 -3.35729 0
M  V30 2200 C 204.811 -1.98173 -3.83864 0
M  V30 2201 C 203.946 -1.59298 -5.06752 0
M  V30 2202 C 202.985 -2.74245 -5.47226 0
M  V30 2203 N 202.122 -2.35842 -6.61304 0
M  V30 2204 H 206.962 -2.07142 -2.14234 0
M  V30 2205 H 204.499 -1.03093 -1.0493 0
M  V30 2206 H 206.457 -0.588662 -4.13026 0
M  V30 2207 H 205.087 0.10789 -3.2262 0
M  V30 2208 H 204.139 -2.30386 -3.02699 0
M  V30 2209 H 205.451 -2.84343 -4.09818 0
M  V30 2210 H 204.605 -1.34513 -5.916 0
M  V30 2211 H 203.344 -0.702618 -4.82612 0
M  V30 2212 H 202.349 -2.99725 -4.60918 0
M  V30 2213 H 203.574 -3.63928 -5.73353 0
M  V30 2214 H 201.52 -1.49279 -6.38789 0
M  V30 2215 H 201.437 -3.15546 -6.86998 0
M  V30 2216 H 202.705 -2.14348 -7.4945 0
M  V30 2217 N 206.934 1.1197 -1.10907 0
M  V30 2218 C 208.159 1.87942 -0.877064 0
M  V30 2219 C 208.584 1.79341 0.567314 0
M  V30 2220 O 207.942 1.15184 1.40009 0
M  V30 2221 C 207.99 3.34926 -1.33629 0
M  V30 2222 O 207.094 4.09303 -0.504447 0
M  V30 2223 H 206.435 0.583785 -0.316371 0
M  V30 2224 H 208.965 1.4157 -1.47712 0
M  V30 2225 H 208.975 3.8577 -1.32837 0
M  V30 2226 H 207.65 3.40504 -2.3881 0
M  V30 2227 H 206.227 3.68393 -0.577993 0
M  V30 2228 N 208.412 0.89855 1.29475 0
M  V30 2229 C 209.66 0.522847 1.9522 0
M  V30 2230 C 209.981 -0.93371 1.71192 0
M  V30 2231 O 209.251 -1.65823 1.04305 0
M  V30 2232 H 207.831 0.190366 0.722336 0
M  V30 2233 H 210.493 1.14459 1.5775 0
M  V30 2234 H 209.589 0.704476 3.04045 0
M  V30 2235 N 209.89 -1.43072 0.660911 0
M  V30 2236 C 210.837 -2.30785 -0.0259884 0
M  V30 2237 C 211.807 -1.45184 -0.806888 0
M  V30 2238 O 212.992 -1.74041 -0.781943 0
M  V30 2239 C 210.132 -3.30861 -0.981067 0
M  V30 2240 C 209.245 -4.31558 -0.195458 0
M  V30 2241 C 208.38 -5.18712 -1.14503 0
M  V30 2242 C 207.419 -6.11097 -0.350299 0
M  V30 2243 N 206.556 -6.90849 -1.25186 0
M  V30 2244 H 211.396 -2.88975 0.727846 0
M  V30 2245 H 208.933 -1.42353 0.370682 0
M  V30 2246 H 210.891 -3.87399 -1.54849 0
M  V30 2247 H 209.521 -2.74304 -1.70169 0
M  V30 2248 H 208.573 -3.77252 0.488374 0
M  V30 2249 H 209.885 -4.9701 0.422176 0
M  V30 2250 H 209.039 -5.79914 -1.78284 0
M  V30 2251 H 207.778 -4.53404 -1.79656 0
M  V30 2252 H 206.783 -5.48976 0.300808 0
M  V30 2253 H 208.008 -6.7845 0.296941 0
M  V30 2254 H 205.954 -6.28182 -1.89005 0
M  V30 2255 H 205.871 -7.52854 -0.688971 0
M  V30 2256 H 207.139 -7.5655 -1.87757 0
M  V30 2257 N 211.368 -0.403325 -1.52352 0
M  V30 2258 C 212.315 0.425011 -2.26853 0
M  V30 2259 C 213.285 1.04598 -1.29029 0
M  V30 2260 O 214.47 1.07135 -1.57882 0
M  V30 2261 C 211.61 1.53888 -3.08889 0
M  V30 2262 C 210.723 0.939396 -4.21663 0
M  V30 2263 C 209.858 2.02547 -4.91068 0
M  V30 2264 C 208.897 1.40263 -5.95813 0
M  V30 2265 N 208.034 2.4286 -6.58759 0
M  V30 2266 H 212.874 -0.21674 -2.97211 0
M  V30 2267 H 210.411 -0.118722 -1.4662 0
M  V30 2268 H 212.369 2.19558 -3.54753 0
M  V30 2269 H 210.999 2.15074 -2.40714 0
M  V30 2270 H 210.051 0.171898 -3.80011 0
M  V30 2271 H 211.363 0.44436 -4.96817 0
M  V30 2272 H 210.517 2.75958 -5.40308 0
M  V30 2273 H 209.256 2.55415 -4.15469 0
M  V30 2274 H 208.261 0.653833 -5.45898 0
M  V30 2275 H 209.486 0.881719 -6.73352 0
M  V30 2276 H 207.432 2.94871 -5.85992 0
M  V30 2277 H 207.349 1.98152 -7.2957 0
M  V30 2278 H 208.617 3.15858 -7.12639 0
M  V30 2279 N 212.846 1.57033 -0.133567 0
M  V30 2280 C 213.776 2.1909 0.807567 0
M  V30 2281 C 214.757 1.13517 1.26681 0
M  V30 2282 O 215.942 1.41809 1.32679 0
M  V30 2283 C 213.072 2.80188 2.05212 0
M  V30 2284 C 212.026 3.91471 1.73015 0
M  V30 2285 C 211.352 4.39443 3.04622 0
M  V30 2286 C 212.652 5.12886 0.987168 0
M  V30 2287 H 214.346 2.97988 0.290403 0
M  V30 2288 H 211.892 1.43335 0.138239 0
M  V30 2289 H 213.845 3.22264 2.71521 0
M  V30 2290 H 212.569 1.98601 2.59278 0
M  V30 2291 H 211.228 3.49993 1.0909 0
M  V30 2292 H 210.876 3.54695 3.56651 0
M  V30 2293 H 210.576 5.14495 2.83847 0
M  V30 2294 H 212.1 4.8418 3.72024 0
M  V30 2295 H 213.514 5.51891 1.55208 0
M  V30 2296 H 211.911 5.93615 0.87985 0
M  V30 2297 H 212.981 4.84894 -0.0235286 0
M  V30 2298 N 214.325 -0.140222 1.56975 0
M  V30 2299 C 215.55 -0.870414 1.88251 0
M  V30 2300 C 215.975 -1.73637 0.723312 0
M  V30 2301 O 215.333 -1.78329 -0.32689 0
M  V30 2302 C 215.381 -1.69737 3.18154 0
M  V30 2303 O 214.485 -2.80229 3.02565 0
M  V30 2304 H 213.826 -0.242025 0.61832 0
M  V30 2305 H 216.356 -0.128999 2.04193 0
M  V30 2306 H 216.366 -2.09099 3.50345 0
M  V30 2307 H 215.041 -1.06152 4.02125 0
M  V30 2308 H 213.618 -2.44224 2.81796 0
M  V30 2309 N 215.803 -1.52179 -0.40978 0
M  V30 2310 C 216.713 -1.78364 -1.52392 0
M  V30 2311 C 217.729 -0.669183 -1.60617 0
M  V30 2312 O 218.905 -0.954518 -1.77344 0
M  V30 2313 C 215.97 -1.92822 -2.88133 0
M  V30 2314 C 215.031 -3.16725 -2.898 0
M  V30 2315 C 214.264 -3.30483 -4.19067 0
M  V30 2316 O 214.487 -2.49522 -5.12928 0
M  V30 2317 O 213.421 -4.2363 -4.27576 0
M  V30 2318 H 217.247 -2.72931 -1.33201 0
M  V30 2319 H 214.832 -1.37016 -0.59557 0
M  V30 2320 H 216.714 -2.04157 -3.68643 0
M  V30 2321 H 215.389 -1.01444 -3.07393 0
M  V30 2322 H 214.296 -3.10848 -2.08146 0
M  V30 2323 H 215.629 -4.07881 -2.75489 0
M  V30 2324 N 217.281 0.66697 -1.42791 0
M  V30 2325 C 218.228 1.7803 -1.4688 0
M  V30 2326 C 219.198 1.6299 -0.319919 0
M  V30 2327 O 220.383 1.83432 -0.525118 0
M  V30 2328 C 217.523 3.1611 -1.38451 0
M  V30 2329 C 216.636 3.42381 -2.63437 0
M  V30 2330 C 215.771 4.70232 -2.47094 0
M  V30 2331 C 214.81 4.89564 -3.67415 0
M  V30 2332 N 213.947 6.08661 -3.49966 0
M  V30 2333 H 218.787 1.7387 -2.42019 0
M  V30 2334 H 216.324 0.84868 -1.20149 0
M  V30 2335 H 218.282 3.95914 -1.31561 0
M  V30 2336 H 216.912 3.19374 -0.469033 0
M  V30 2337 H 215.964 2.56774 -2.80662 0
M  V30 2338 H 217.276 3.52557 -3.52853 0
M  V30 2339 H 216.43 5.5814 -2.37834 0
M  V30 2340 H 215.169 4.62353 -1.5518 0
M  V30 2341 H 214.174 4.00096 -3.77099 0
M  V30 2342 H 215.399 4.99282 -4.6032 0
M  V30 2343 H 213.345 6.0194 -2.60776 0
M  V30 2344 H 213.262 6.19733 -4.32975 0
M  V30 2345 H 214.53 6.99226 -3.44532 0
M  V30 2346 N 218.759 1.29093 0.90403 0
M  V30 2347 C 219.691 1.09658 2.01266 0
M  V30 2348 C 220.704 0.0453729 1.62737 0
M  V30 2349 O 221.893 0.289446 1.76138 0
M  V30 2350 C 218.993 0.646278 3.32681 0
M  V30 2351 C 218.166 1.77505 3.99763 0
M  V30 2352 C 217.225 1.31649 5.09465 0
M  V30 2353 O 216.251 2.02045 5.32134 0
M  V30 2354 N 217.453 0.184997 5.80205 0
M  V30 2355 H 220.218 2.05135 2.18494 0
M  V30 2356 H 217.779 1.20975 1.07594 0
M  V30 2357 H 219.771 0.322906 4.0341 0
M  V30 2358 H 218.341 -0.215916 3.11853 0
M  V30 2359 H 217.561 2.26752 3.22455 0
M  V30 2360 H 218.849 2.53198 4.41325 0
M  V30 2361 H 218.247 -0.402021 5.6427 0
M  V30 2362 H 216.804 -0.0790358 6.51752 0
M  V30 2363 N 220.237 -1.11381 1.11499 0
M  V30 2364 C 221.2 -2.15622 0.777153 0
M  V30 2365 C 222.2 -1.59504 -0.203779 0
M  V30 2366 O 223.39 -1.74188 0.020782 0
M  V30 2367 C 220.522 -3.40556 0.153116 0
M  V30 2368 H 221.715 -2.47021 1.70061 0
M  V30 2369 H 219.268 -1.26577 0.916952 0
M  V30 2370 H 220.003 -3.14767 -0.780536 0
M  V30 2371 H 219.788 -3.8257 0.859238 0
M  V30 2372 H 221.278 -4.17546 -0.0671044 0
M  V30 2373 N 221.715 -0.905404 -1.28997 0
M  V30 2374 C 223.131 -0.60233 -1.47798 0
M  V30 2375 C 223.331 0.854645 -1.82478 0
M  V30 2376 O 222.387 1.63439 -1.92468 0
M  V30 2377 C 223.7 -1.53306 -2.58685 0
M  V30 2378 C 225.248 -1.53887 -2.72558 0
M  V30 2379 C 225.723 -2.45602 -3.86579 0
M  V30 2380 N 227.214 -2.43681 -3.93921 0
M  V30 2381 C 227.949 -3.11347 -4.81509 0
M  V30 2382 N 227.445 -3.88313 -5.73746 0
M  V30 2383 N 229.238 -3.00476 -4.75048 0
M  V30 2384 H 221.389 -1.84765 -1.04764 0
M  V30 2385 H 223.652 -0.792025 -0.520961 0
M  V30 2386 H 223.358 -2.57141 -2.39941 0
M  V30 2387 H 223.232 -1.25787 -3.55609 0
M  V30 2388 H 225.619 -0.507941 -2.90696 0
M  V30 2389 H 225.7 -1.85447 -1.76191 0
M  V30 2390 H 225.344 -3.48792 -3.69197 0
M  V30 2391 H 225.274 -2.11349 -4.82327 0
M  V30 2392 H 227.765 -1.87767 -3.27951 0
M  V30 2393 H 228.078 -4.36985 -6.37389 0
M  V30 2394 H 226.423 -3.92419 -5.73614 0
M  V30 2395 H 229.614 -2.39858 -4.01977 0
M  V30 2396 H 229.787 -3.53485 -5.43095 0
M  V30 2397 N 223.193 1.4272 -0.668489 0
M  V30 2398 C 224.47 1.95248 -0.117373 0
M  V30 2399 C 224.85 1.60919 1.36632 0
M  V30 2400 O 224.198 0.902095 2.09939 0
M  V30 2401 C 224.408 3.46927 -0.379806 0
M  V30 2402 C 225.756 4.23588 -0.292923 0
M  V30 2403 O 226.78 3.5482 -0.313204 0
M  V30 2404 O 225.639 5.46017 -0.229697 0
M  V30 2405 H 222.733 0.827 0.00079152 0
M  V30 2406 H 225.279 1.52581 -0.742783 0
M  V30 2407 H 224.051 3.65096 -1.40786 0
M  V30 2408 H 223.674 3.96627 0.277923 0
M  V30 2409 N 224.671 0.411399 1.52136 0
M  V30 2410 C 225.92 -0.165009 2.01024 0
M  V30 2411 C 226.233 -1.4603 1.30133 0
M  V30 2412 O 227.439 -2.1181 1.69849 0
M  V30 2413 C 225.895 -0.344618 3.58246 0
M  V30 2414 C 225.503 0.938716 4.38055 0
M  V30 2415 C 227.247 -0.876195 4.15359 0
M  V30 2416 C 225.154 0.726172 5.86925 0
M  V30 2417 H 224.084 -0.0654407 0.751155 0
M  V30 2418 H 226.735 0.537192 1.75461 0
M  V30 2419 H 225.117 -1.10921 3.80148 0
M  V30 2420 H 226.291 1.70963 4.27912 0
M  V30 2421 H 224.606 1.39688 3.92271 0
M  V30 2422 H 227.203 -1.05128 5.24263 0
M  V30 2423 H 227.546 -1.85152 3.7286 0
M  V30 2424 H 228.079 -0.170607 3.97434 0
M  V30 2425 H 224.818 1.67312 6.33788 0
M  V30 2426 H 224.338 -0.00540283 5.998 0
M  V30 2427 H 226.017 0.369231 6.45946 0
M  V30 2428 N 226.149 -1.5696 0.141893 0
M  V30 2429 C 227.112 -2.15316 -0.785587 0
M  V30 2430 C 228.112 -1.09366 -1.1788 0
M  V30 2431 O 229.302 -1.35031 -1.10056 0
M  V30 2432 C 226.434 -2.71211 -2.06537 0
M  V30 2433 H 227.627 -2.98608 -0.278041 0
M  V30 2434 H 225.18 -1.5593 -0.107519 0
M  V30 2435 H 225.915 -1.91571 -2.6167 0
M  V30 2436 H 225.7 -3.4872 -1.79268 0
M  V30 2437 H 227.19 -3.16189 -2.72789 0
M  V30 2438 N 227.627 0.131896 -1.57047 0
M  V30 2439 C 228.537 1.1815 -2.02676 0
M  V30 2440 C 229.553 1.46113 -0.944824 0
M  V30 2441 O 230.729 1.57485 -1.25541 0
M  V30 2442 C 227.794 2.49139 -2.41103 0
M  V30 2443 C 226.855 2.28688 -3.63318 0
M  V30 2444 C 226.088 3.53431 -3.99903 0
M  V30 2445 O 226.311 4.60223 -3.36973 0
M  V30 2446 O 225.245 3.45198 -4.93074 0
M  V30 2447 H 229.071 0.824069 -2.92306 0
M  V30 2448 H 226.656 0.341745 -1.45439 0
M  V30 2449 H 228.538 3.26338 -2.66611 0
M  V30 2450 H 227.213 2.84382 -1.54624 0
M  V30 2451 H 226.12 1.4939 -3.42977 0
M  V30 2452 H 227.453 1.98355 -4.50462 0
M  V30 2453 N 229.106 1.52395 0.401703 0
M  V30 2454 C 230.053 1.76268 1.48991 0
M  V30 2455 C 231.023 0.605386 1.54675 0
M  V30 2456 O 232.208 0.843742 1.7113 0
M  V30 2457 C 229.348 1.92592 2.86361 0
M  V30 2458 C 228.461 3.20259 2.89928 0
M  V30 2459 C 227.596 3.26972 4.18644 0
M  V30 2460 C 226.635 4.48812 4.16214 0
M  V30 2461 N 225.772 4.52877 5.36514 0
M  V30 2462 H 230.612 2.6914 1.27935 0
M  V30 2463 H 228.149 1.33355 0.620871 0
M  V30 2464 H 230.107 2.0004 3.66115 0
M  V30 2465 H 228.737 1.03093 3.05895 0
M  V30 2466 H 227.789 3.21945 2.02621 0
M  V30 2467 H 229.101 4.10056 2.83999 0
M  V30 2468 H 228.255 3.33533 5.06794 0
M  V30 2469 H 226.994 2.35126 4.27278 0
M  V30 2470 H 225.999 4.4239 3.26453 0
M  V30 2471 H 227.224 5.41961 4.09213 0
M  V30 2472 H 225.17 3.63917 5.45802 0
M  V30 2473 H 225.087 5.36529 5.32609 0
M  V30 2474 H 226.355 4.63676 6.26597 0
M  V30 2475 N 230.584 -0.659388 1.43143 0
M  V30 2476 C 231.861 -1.41627 1.34912 0
M  V30 2477 C 232.241 -2.11099 -0.00607785 0
M  V30 2478 O 231.589 -2.04353 -1.02236 0
M  V30 2479 C 231.799 -2.40604 2.52805 0
M  V30 2480 C 233.147 -3.04789 2.95616 0
M  V30 2481 O 234.171 -2.50932 2.52807 0
M  V30 2482 O 233.03 -4.02421 3.69756 0
M  V30 2483 H 230.124 -0.63246 0.532844 0
M  V30 2484 H 232.67 -0.686814 1.5518 0
M  V30 2485 H 231.442 -1.88174 3.43083 0
M  V30 2486 H 231.065 -3.21009 2.34604 0
M  V30 2487 N 232.062 -1.29571 -0.897171 0
M  V30 2488 C 232.992 -1.17473 -2.01798 0
M  V30 2489 C 233.973 -0.068323 -1.69963 0
M  V30 2490 O 235.158 -0.248239 -1.92607 0
M  V30 2491 C 232.288 -0.853099 -3.36659 0
M  V30 2492 C 231.242 -1.9161 -3.82713 0
M  V30 2493 C 230.568 -1.44773 -5.14728 0
M  V30 2494 C 231.868 -3.32535 -4.02763 0
M  V30 2495 H 233.562 -2.11237 -2.12177 0
M  V30 2496 H 231.108 -1.01699 -1.01948 0
M  V30 2497 H 233.061 -0.755165 -4.14578 0
M  V30 2498 H 231.785 0.120236 -3.26379 0
M  V30 2499 H 230.444 -2.00346 -3.07013 0
M  V30 2500 H 230.092 -0.462995 -5.00865 0
M  V30 2501 H 229.792 -2.15865 -5.46513 0
M  V30 2502 H 231.316 -1.36334 -5.95185 0
M  V30 2503 H 232.73 -3.26626 -4.71156 0
M  V30 2504 H 231.127 -4.01607 -4.45905 0
M  V30 2505 H 232.197 -3.75326 -3.07016 0
M  V30 2506 N 233.54 1.10788 -1.12088 0
M  V30 2507 C 234.786 1.82942 -0.875226 0
M  V30 2508 C 235.119 1.84779 0.597538 0
M  V30 2509 O 234.394 1.30578 1.44152 0
M  V30 2510 C 234.677 3.29789 -1.44606 0
M  V30 2511 C 234.53 3.36307 -2.98693 0
M  V30 2512 C 235.849 4.26064 -1.10261 0
M  V30 2513 H 232.968 0.664195 -0.319397 0
M  V30 2514 H 235.61 1.29867 -1.38689 0
M  V30 2515 H 233.76 3.75118 -1.01089 0
M  V30 2516 H 235.432 2.99487 -3.50864 0
M  V30 2517 H 233.675 2.76318 -3.34411 0
M  V30 2518 H 234.346 4.39694 -3.33726 0
M  V30 2519 H 236.822 3.88951 -1.4784 0
M  V30 2520 H 235.698 5.27183 -1.52869 0
M  V30 2521 H 235.959 4.42098 -0.0142953 0
M  V30 2522 N 235.018 0.912232 1.28515 0
M  V30 2523 C 235.981 0.404223 2.25607 0
M  V30 2524 C 236.981 -0.468602 1.53821 0
M  V30 2525 O 238.171 -0.271873 1.72065 0
M  V30 2526 C 235.303 -0.420653 3.38295 0
M  V30 2527 H 236.496 1.26188 2.7206 0
M  V30 2528 H 234.049 0.691495 1.40171 0
M  V30 2529 H 234.784 -1.29777 2.97201 0
M  V30 2530 H 234.569 0.204935 3.91564 0
M  V30 2531 H 236.059 -0.766971 4.10496 0
M  V30 2532 N 236.496 -1.42363 0.676048 0
M  V30 2533 C 237.444 -2.32596 -0.0131507 0
M  V30 2534 C 238.438 -1.49891 -0.789238 0
M  V30 2535 O 239.644 -1.65955 -0.697061 0
M  V30 2536 H 236.019 -0.751647 -0.0230481 0
M  V30 2537 H 237.99 -2.88421 0.765243 0
M  V30 2538 C 236.739 -3.34479 -0.949702 0
M  V30 2539 H 236.062 -3.98158 -0.361938 0
M  V30 2540 H 237.502 -4.00199 -1.4006 0
M  V30 2541 C 235.961 -2.66838 -2.05667 0
M  V30 2542 O 236.491 -2.50124 -3.14326 0
M  V30 2543 N 234.697 -2.25843 -1.82875 0
M  V30 2544 H 234.244 -2.39637 -0.945085 0
M  V30 2545 H 234.202 -1.80918 -2.5713 0
M  V30 2546 N 237.974 -0.419461 -1.51915 0
M  V30 2547 C 239.22 0.153166 -2.02221 0
M  V30 2548 C 239.553 1.43907 -1.30401 0
M  V30 2549 O 238.828 1.90055 -0.413438 0
M  V30 2550 C 239.111 0.390291 -3.57979 0
M  V30 2551 C 238.964 -0.913014 -4.40436 0
M  V30 2552 C 240.283 1.16794 -4.2432 0
M  V30 2553 H 237.402 0.0541924 -0.735005 0
M  V30 2554 H 240.044 -0.554955 -1.81715 0
M  V30 2555 H 238.194 0.993491 -3.75582 0
M  V30 2556 H 239.866 -1.54882 -4.34522 0
M  V30 2557 H 238.109 -1.52168 -4.06236 0
M  V30 2558 H 238.78 -0.701361 -5.47526 0
M  V30 2559 H 241.256 0.657161 -4.10878 0
M  V30 2560 H 240.132 1.3026 -5.3322 0
M  V30 2561 H 240.393 2.19132 -3.83971 0
M  V30 2562 N 239.452 1.56882 -0.150215 0
M  V30 2563 C 240.68 2.00593 0.506948 0
M  V30 2564 C 241.095 1.03033 1.58208 0
M  V30 2565 O 240.452 0.0278396 1.82479 0
M  V30 2566 C 240.503 3.44209 1.10465 0
M  V30 2567 O 240.224 4.3804 0.0724636 0
M  V30 2568 C 241.725 4.03214 1.84211 0
M  V30 2569 H 238.945 0.65795 0.13169 0
M  V30 2570 H 241.489 2.03018 -0.245743 0
M  V30 2571 H 239.644 3.42625 1.80795 0
M  V30 2572 H 240.058 5.22007 0.510793 0
M  V30 2573 H 241.532 5.0569 2.21318 0
M  V30 2574 H 242.009 3.44107 2.72923 0
M  V30 2575 H 242.615 4.08437 1.18572 0
M  V30 2576 N 240.93 -0.123565 1.57115 0
M  V30 2577 C 241.877 -1.15177 2.00007 0
M  V30 2578 C 242.847 -1.41403 0.871454 0
M  V30 2579 O 244.032 -1.53346 1.13533 0
M  V30 2580 C 241.172 -2.47436 2.40561 0
M  V30 2581 C 240.285 -2.28184 3.66819 0
M  V30 2582 C 239.42 -3.53641 3.96373 0
M  V30 2583 C 238.459 -3.29528 5.15827 0
M  V30 2584 N 237.596 -4.47175 5.41275 0
M  V30 2585 H 242.436 -0.779008 2.87638 0
M  V30 2586 H 239.973 -0.373166 1.42288 0
M  V30 2587 H 241.931 -3.24584 2.62109 0
M  V30 2588 H 240.561 -2.82614 1.55978 0
M  V30 2589 H 239.613 -1.41976 3.52912 0
M  V30 2590 H 240.925 -2.0634 4.5412 0
M  V30 2591 H 240.079 -4.39209 4.18545 0
M  V30 2592 H 238.818 -3.78512 3.07538 0
M  V30 2593 H 237.823 -2.42349 4.93505 0
M  V30 2594 H 239.048 -3.06031 6.06236 0
M  V30 2595 H 236.994 -4.72175 4.55397 0
M  V30 2596 H 236.911 -4.28419 6.22891 0
M  V30 2597 H 238.179 -5.3389 5.67963 0
M  V30 2598 N 242.408 -1.52605 -0.393616 0
M  V30 2599 C 243.318 -1.79971 -1.50492 0
M  V30 2600 C 244.334 -0.686181 -1.59899 0
M  V30 2601 O 245.51 -0.973274 -1.76322 0
M  V30 2602 C 242.575 -1.95867 -2.86072 0
M  V30 2603 C 241.636 -3.19781 -2.86424 0
M  V30 2604 C 240.869 -3.34909 -4.15538 0
M  V30 2605 O 241.092 -2.54948 -5.10253 0
M  V30 2606 O 240.026 -4.28141 -4.23059 0
M  V30 2607 H 243.852 -2.74328 -1.30299 0
M  V30 2608 H 241.437 -1.3764 -0.581005 0
M  V30 2609 H 243.319 -2.08056 -3.66457 0
M  V30 2610 H 241.994 -1.04699 -3.063 0
M  V30 2611 H 240.901 -3.13038 -2.04837 0
M  V30 2612 H 242.234 -4.1078 -2.71147 0
M  V30 2613 N 243.887 0.651787 -1.4349 0
M  V30 2614 C 245.133 1.41376 -1.45398 0
M  V30 2615 C 245.466 1.94041 -0.0784823 0
M  V30 2616 O 244.741 1.72379 0.900878 0
M  V30 2617 C 245.024 2.59414 -2.49752 0
M  V30 2618 C 244.877 2.12232 -3.96582 0
M  V30 2619 C 246.196 3.61626 -2.50827 0
M  V30 2620 H 243.315 0.512719 -0.529422 0
M  V30 2621 H 245.957 0.738796 -1.75048 0
M  V30 2622 H 244.107 3.16997 -2.246 0
M  V30 2623 H 245.779 1.59639 -4.32797 0
M  V30 2624 H 244.022 1.43592 -4.09346 0
M  V30 2625 H 244.693 2.9712 -4.65214 0
M  V30 2626 H 247.169 3.13805 -2.7325 0
M  V30 2627 H 246.045 4.41766 -3.25783 0
M  V30 2628 H 246.306 4.14314 -1.5426 0
M  V30 2629 N 245.365 1.30045 0.890287 0
M  V30 2630 C 246.776 1.16738 1.45702 0
M  V30 2631 C 247.127 -0.233939 1.948 0
M  V30 2632 O 246.252 -1.13021 1.84541 0
M  V30 2633 C 246.847 2.11313 2.64825 0
M  V30 2634 C 245.406 2.02001 3.17604 0
M  V30 2635 C 244.553 2.01699 1.90296 0
M  V30 2636 H 247.504 1.42392 0.700726 0
M  V30 2637 H 247.525 1.69086 3.40867 0
M  V30 2638 H 247.037 3.13294 2.2906 0
M  V30 2639 H 245.138 1.03142 3.5804 0
M  V30 2640 H 245.251 2.90128 3.81264 0
M  V30 2641 H 243.615 1.46427 2.08402 0
M  V30 2642 H 244.398 3.05402 1.56795 0
M  V30 2643 N 246.843 -1.10192 1.12674 0
M  V30 2644 C 247.753 -2.20172 0.810026 0
M  V30 2645 C 248.769 -1.72821 -0.202188 0
M  V30 2646 O 249.945 -2.01369 -0.0351691 0
M  V30 2647 C 247.01 -3.45631 0.272007 0
M  V30 2648 C 246.071 -4.07704 1.34447 0
M  V30 2649 C 245.304 -5.27175 0.832029 0
M  V30 2650 O 245.527 -5.69425 -0.333284 0
M  V30 2651 O 244.461 -5.80168 1.60277 0
M  V30 2652 H 248.287 -2.49701 1.72867 0
M  V30 2653 H 245.872 -1.18977 0.903597 0
M  V30 2654 H 247.754 -4.21394 -0.0230219 0
M  V30 2655 H 246.429 -3.17723 -0.619164 0
M  V30 2656 H 245.336 -3.33614 1.6927 0
M  V30 2657 H 246.669 -4.3982 2.2095 0
M  V30 2658 N 248.321 -0.919034 -1.28029 0
M  V30 2659 C 249.551 -0.570143 -1.98577 0
M  V30 2660 C 249.959 0.854172 -1.68821 0
M  V30 2661 O 249.302 1.57807 -0.940351 0
M  V30 2662 C 249.364 -0.705734 -3.52505 0
M  V30 2663 C 249.028 -2.10057 -4.05863 0
M  V30 2664 C 250.025 -3.07385 -4.19298 0
M  V30 2665 C 247.71 -2.41517 -4.40426 0
M  V30 2666 C 249.704 -4.34287 -4.66555 0
M  V30 2667 C 247.391 -3.68657 -4.87376 0
M  V30 2668 C 248.389 -4.64856 -5.00398 0
M  V30 2669 O 248.077 -5.89735 -5.46322 0
M  V30 2670 H 247.809 -0.215592 -0.6407 0
M  V30 2671 H 250.363 -1.23583 -1.64062 0
M  V30 2672 H 248.593 0.0170414 -3.86696 0
M  V30 2673 H 250.282 -0.363172 -4.04272 0
M  V30 2674 H 251.048 -2.84398 -3.92865 0
M  V30 2675 H 246.927 -1.67389 -4.29537 0
M  V30 2676 H 250.471 -5.09377 -4.76635 0
M  V30 2677 H 246.368 -3.91466 -5.13249 0
M  V30 2678 H 247.136 -5.92599 -5.64596 0
M  V30 2679 N 249.799 1.42003 -0.683588 0
M  V30 2680 C 250.709 2.34597 -0.0109075 0
M  V30 2681 C 251.725 1.55576 0.779245 0
M  V30 2682 O 252.901 1.88107 0.719555 0
M  V30 2683 C 249.966 3.34199 0.922588 0
M  V30 2684 C 249.027 4.29115 0.125984 0
M  V30 2685 C 248.26 5.23959 1.01502 0
M  V30 2686 O 248.483 5.23952 2.25456 0
M  V30 2687 O 247.417 6.00053 0.47111 0
M  V30 2688 H 251.243 2.93675 -0.773853 0
M  V30 2689 H 248.828 1.42654 -0.443861 0
M  V30 2690 H 250.71 3.95365 1.45823 0
M  V30 2691 H 249.385 2.77582 1.66523 0
M  V30 2692 H 248.292 3.71335 -0.453969 0
M  V30 2693 H 249.625 4.88798 -0.577736 0
M  V30 2694 N 251.277 0.427512 1.51691 0
M  V30 2695 C 252.209 -0.424521 2.25234 0
M  V30 2696 C 253.222 -0.994671 1.2888 0
M  V30 2697 O 254.411 -0.890483 1.54702 0
M  V30 2698 C 251.511 -1.60479 2.98496 0
M  V30 2699 C 250.684 -1.15527 4.21868 0
M  V30 2700 C 249.743 -2.20454 4.77793 0
M  V30 2701 O 248.769 -1.8029 5.39893 0
M  V30 2702 N 249.971 -3.52831 4.60967 0
M  V30 2703 H 252.736 0.205749 2.98993 0
M  V30 2704 H 250.297 0.255867 1.59865 0
M  V30 2705 H 252.289 -2.30276 3.32799 0
M  V30 2706 H 250.859 -2.14061 2.27809 0
M  V30 2707 H 250.079 -0.284736 3.9317 0
M  V30 2708 H 251.367 -0.832173 5.01949 0
M  V30 2709 H 250.765 -3.88201 4.11481 0
M  V30 2710 H 249.322 -4.18551 4.99658 0
M  V30 2711 N 252.755 -1.56801 0.158532 0
M  V30 2712 C 254.003 -1.96102 -0.488712 0
M  V30 2713 C 254.324 -1.04498 -1.64636 0
M  V30 2714 O 253.594 -0.108783 -1.95598 0
M  V30 2715 H 252.174 -0.724102 -0.183535 0
M  V30 2716 H 254.836 -1.93457 0.236728 0
M  V30 2717 H 253.932 -3.00097 -0.857219 0
M  V30 2718 N 254.233 0.115231 -1.57178 0
M  V30 2719 C 255.18 1.14115 -2.00615 0
M  V30 2720 C 256.15 1.40939 -0.878941 0
M  V30 2721 O 257.335 1.52741 -1.14345 0
M  V30 2722 C 254.475 2.46156 -2.4187 0
M  V30 2723 C 253.588 2.26236 -3.68024 0
M  V30 2724 C 252.723 3.51534 -3.98243 0
M  V30 2725 C 251.762 3.26787 -5.17568 0
M  V30 2726 N 250.899 4.44298 -5.43639 0
M  V30 2727 H 255.739 0.763743 -2.88047 0
M  V30 2728 H 253.276 0.365615 -1.42484 0
M  V30 2729 H 255.234 3.23189 -2.63827 0
M  V30 2730 H 253.864 2.81783 -1.57475 0
M  V30 2731 H 252.916 1.40102 -3.5366 0
M  V30 2732 H 254.228 2.03929 -4.55208 0
M  V30 2733 H 253.382 4.36984 -4.20868 0
M  V30 2734 H 252.121 3.76876 -3.09541 0
M  V30 2735 H 251.126 2.39729 -4.94783 0
M  V30 2736 H 252.351 3.02812 -6.0785 0
M  V30 2737 H 250.297 4.69754 -4.57895 0
M  V30 2738 H 250.214 4.25109 -6.25154 0
M  V30 2739 H 251.482 5.3087 -5.70786 0
M  V30 2740 N 255.711 1.52812 0.385517 0
M  V30 2741 C 256.988 1.5861 1.14465 0
M  V30 2742 C 257.368 0.381402 2.07626 0
M  V30 2743 O 256.716 -0.629999 2.19643 0
M  V30 2744 C 256.926 2.92664 1.90128 0
M  V30 2745 C 258.274 3.46526 2.45367 0
M  V30 2746 O 259.298 2.94562 2.0028 0
M  V30 2747 O 258.157 4.37323 3.27736 0
M  V30 2748 H 255.251 0.639855 0.523941 0
M  V30 2749 H 257.797 1.65149 0.390389 0
M  V30 2750 H 256.569 3.71788 1.22022 0
M  V30 2751 H 256.192 2.89527 2.72507 0
M  V30 2752 N 257.189 -0.644168 1.43834 0
M  V30 2753 C 258.417 -1.43147 1.49387 0
M  V30 2754 C 258.832 -1.88452 0.114583 0
M  V30 2755 O 258.189 -1.60047 -0.876989 0
M  V30 2756 C 258.24 -2.66046 2.44748 0
M  V30 2757 O 257.961 -2.22633 3.77314 0
M  V30 2758 C 259.462 -3.59311 2.59635 0
M  V30 2759 H 256.682 -0.439447 0.507077 0
M  V30 2760 H 259.226 -0.78895 1.88669 0
M  V30 2761 H 257.381 -3.26418 2.08638 0
M  V30 2762 H 257.795 -3.02216 4.28679 0
M  V30 2763 H 259.269 -4.42187 3.30416 0
M  V30 2764 H 259.746 -4.07259 1.64427 0
M  V30 2765 H 260.352 -3.04816 2.96593 0
M  V30 2766 N 258.668 -1.30515 -0.883378 0
M  V30 2767 C 259.578 -1.18959 -2.02203 0
M  V30 2768 C 260.594 -0.109172 -1.73657 0
M  V30 2769 O 261.77 -0.324413 -1.9877 0
M  V30 2770 C 258.835 -0.883871 -3.35244 0
M  V30 2771 C 257.896 -2.04982 -3.77201 0
M  V30 2772 C 257.129 -1.75859 -5.03894 0
M  V30 2773 O 257.352 -0.687276 -5.66244 0
M  V30 2774 O 256.286 -2.61146 -5.42297 0
M  V30 2775 H 260.112 -2.14616 -2.1488 0
M  V30 2776 H 257.697 -1.10124 -1.0096 0
M  V30 2777 H 259.579 -0.728644 -4.15053 0
M  V30 2778 H 258.254 0.0427798 -3.23672 0
M  V30 2779 H 257.161 -2.26038 -2.9809 0
M  V30 2780 H 258.494 -2.95825 -3.93381 0
M  V30 2781 N 260.146 1.09593 -1.13257 0
M  V30 2782 C 261.393 1.81734 -0.893257 0
M  V30 2783 C 261.721 1.8563 0.580656 0
M  V30 2784 O 260.976 1.31906 1.44566 0
M  V30 2785 C 261.275 3.27802 -1.42411 0
M  V30 2786 C 260.941 3.44041 -2.91456 0
M  V30 2787 C 259.603 3.48181 -3.3215 0
M  V30 2788 C 261.955 3.48719 -3.87356 0
M  V30 2789 C 259.283 3.54575 -4.67433 0
M  V30 2790 C 261.635 3.56648 -5.2248 0
M  V30 2791 C 260.299 3.59055 -5.62704 0
M  V30 2792 H 259.569 0.665011 -0.326866 0
M  V30 2793 H 262.216 1.2912 -1.41422 0
M  V30 2794 H 260.521 3.83042 -0.823795 0
M  V30 2795 H 262.218 3.82149 -1.21503 0
M  V30 2796 H 258.808 3.41502 -2.58987 0
M  V30 2797 H 262.992 3.44763 -3.57004 0
M  V30 2798 H 258.248 3.54725 -4.97976 0
M  V30 2799 H 262.422 3.59212 -5.96607 0
M  V30 2800 H 260.049 3.63763 -6.67518 0
M  V30 2801 N 261.624 0.925811 1.2754 0
M  V30 2802 C 262.87 0.566092 1.94739 0
M  V30 2803 C 263.203 -0.890057 1.72603 0
M  V30 2804 O 262.478 -1.63467 1.05399 0
M  V30 2805 C 262.761 0.89054 3.48915 0
M  V30 2806 C 262.614 2.4003 3.80402 0
M  V30 2807 C 263.933 0.395101 4.38323 0
M  V30 2808 H 261.052 0.20714 0.707292 0
M  V30 2809 H 263.694 1.15725 1.50691 0
M  V30 2810 H 261.844 0.387452 3.86563 0
M  V30 2811 H 263.516 2.97494 3.52555 0
M  V30 2812 H 261.759 2.85028 3.2702 0
M  V30 2813 H 262.43 2.57785 4.8811 0
M  V30 2814 H 264.906 0.826241 4.07814 0
M  V30 2815 H 263.782 0.651086 5.45025 0
M  V30 2816 H 264.043 -0.704798 4.36446 0
M  V30 2817 N 263.102 -1.41638 0.69111 0
M  V30 2818 C 264.348 -2.01598 0.220519 0
M  V30 2819 C 264.681 -1.54594 -1.17535 0
M  V30 2820 O 263.956 -0.755177 -1.79241 0
M  V30 2821 C 264.239 -3.59062 0.273243 0
M  V30 2822 C 264.092 -4.16203 1.70573 0
M  V30 2823 C 265.411 -4.38546 -0.369457 0
M  V30 2824 H 262.53 -0.732468 0.0816045 0
M  V30 2825 H 265.172 -1.68445 0.878986 0
M  V30 2826 H 263.322 -3.87435 -0.287411 0
M  V30 2827 H 264.994 -3.98722 2.31989 0
M  V30 2828 H 263.237 -3.71414 2.2413 0
M  V30 2829 H 263.908 -5.25358 1.69419 0
M  V30 2830 H 266.384 -4.1596 0.107977 0
M  V30 2831 H 265.26 -5.48069 -0.302002 0
M  V30 2832 H 265.521 -4.17662 -1.44951 0
M  V30 2833 N 264.58 -0.43555 -1.51462 0
M  V30 2834 C 265.81 0.130053 -2.0619 0
M  V30 2835 C 266.218 1.37164 -1.30317 0
M  V30 2836 O 265.561 1.80225 -0.355598 0
M  V30 2837 C 265.623 0.519418 -3.55728 0
M  V30 2838 C 265.287 -0.615119 -4.52841 0
M  V30 2839 C 266.284 -1.48671 -4.9819 0
M  V30 2840 C 263.969 -0.795341 -4.95963 0
M  V30 2841 C 265.963 -2.52324 -5.8533 0
M  V30 2842 C 263.65 -1.83514 -5.82894 0
M  V30 2843 C 264.648 -2.69748 -6.27475 0
M  V30 2844 O 264.336 -3.71944 -7.1268 0
M  V30 2845 H 264.068 0.0121612 -0.675891 0
M  V30 2846 H 266.622 -0.6129 -1.96043 0
M  V30 2847 H 264.852 1.31505 -3.63653 0
M  V30 2848 H 266.541 1.01597 -3.92979 0
M  V30 2849 H 267.307 -1.359 -4.65571 0
M  V30 2850 H 263.186 -0.133713 -4.60806 0
M  V30 2851 H 266.73 -3.19665 -6.20048 0
M  V30 2852 H 262.627 -1.96306 -6.14926 0
M  V30 2853 H 263.395 -3.68503 -7.30854 0
M  V30 2854 N 266.058 1.56714 -0.166846 0
M  V30 2855 C 267.304 1.97039 0.479962 0
M  V30 2856 C 267.637 1.05264 1.63197 0
M  V30 2857 O 266.912 0.0988833 1.94248 0
M  V30 2858 C 267.195 3.46867 0.967212 0
M  V30 2859 C 267.048 4.49421 -0.18466 0
M  V30 2860 C 268.367 3.9968 1.84238 0
M  V30 2861 H 265.486 0.71641 0.172992 0
M  V30 2862 H 268.128 1.8832 -0.252079 0
M  V30 2863 H 266.278 3.54428 1.59101 0
M  V30 2864 H 267.95 4.53924 -0.821621 0
M  V30 2865 H 266.193 4.25573 -0.840837 0
M  V30 2866 H 266.864 5.51644 0.198317 0
M  V30 2867 H 269.34 3.94723 1.31655 0
M  V30 2868 H 268.216 5.04941 2.15234 0
M  V30 2869 H 268.477 3.43226 2.78654 0
M  V30 2870 N 267.536 -0.106894 1.57237 0
M  V30 2871 C 268.484 -1.14944 2.02215 0
M  V30 2872 C 269.478 -1.42167 0.92114 0
M  V30 2873 O 270.684 -1.41987 1.10634 0
M  V30 2874 H 267.059 -0.387841 0.64427 0
M  V30 2875 H 269.03 -0.743683 2.88984 0
M  V30 2876 C 267.779 -2.4647 2.4525 0
M  V30 2877 H 267.102 -2.26363 3.29545 0
M  V30 2878 H 268.542 -3.17948 2.80508 0
M  V30 2879 C 267.001 -3.09921 1.321 0
M  V30 2880 O 267.531 -3.9651 0.643622 0
M  V30 2881 N 265.737 -2.69986 1.07497 0
M  V30 2882 H 265.284 -1.99667 1.62761 0
M  V30 2883 H 265.242 -3.12769 0.319876 0
M  V30 2884 N 269.014 -1.53014 -0.377408 0
M  V30 2885 C 270.262 -1.6829 -1.11906 0
M  V30 2886 C 270.583 -0.431206 -1.90173 0
M  V30 2887 O 269.853 0.554595 -1.87886 0
M  V30 2888 H 268.433 -0.620371 -0.416112 0
M  V30 2889 H 271.095 -1.90167 -0.426893 0
M  V30 2890 H 270.191 -2.53862 -1.8155 0
M  V30 2891 N 270.492 0.636531 -1.44174 0
M  V30 2892 C 271.769 1.39463 -1.37148 0
M  V30 2893 C 272.149 2.11082 -0.027507 0
M  V30 2894 O 271.497 2.05954 0.989716 0
M  V30 2895 C 271.707 2.36552 -2.56601 0
M  V30 2896 C 273.055 3.00048 -3.00427 0
M  V30 2897 O 274.079 2.46878 -2.56767 0
M  V30 2898 O 272.938 3.96488 -3.76111 0
M  V30 2899 H 270.032 0.623903 -0.542839 0
M  V30 2900 H 272.578 0.662039 -1.56253 0
M  V30 2901 H 271.35 1.82692 -3.46034 0
M  V30 2902 H 270.973 3.17236 -2.39681 0
M  V30 2903 N 271.97 1.30982 0.876444 0
M  V30 2904 C 272.88 1.2003 2.01569 0
M  V30 2905 C 273.896 0.11838 1.73597 0
M  V30 2906 O 275.072 0.33495 1.98595 0
M  V30 2907 C 272.137 0.901637 3.34771 0
M  V30 2908 C 271.198 2.06979 3.76109 0
M  V30 2909 C 270.431 1.78529 5.02954 0
M  V30 2910 O 270.654 0.717296 5.65872 0
M  V30 2911 O 269.588 2.64019 5.40905 0
M  V30 2912 H 273.414 2.15753 2.13739 0
M  V30 2913 H 270.999 1.10658 1.00375 0
M  V30 2914 H 272.881 0.750645 4.1466 0
M  V30 2915 H 271.556 -0.0256141 3.2369 0
M  V30 2916 H 270.463 2.27616 2.96887 0
M  V30 2917 H 271.796 2.97907 3.91807 0
M  V30 2918 N 273.449 -1.08991 1.13837 0
M  V30 2919 C 274.412 -2.13925 0.822715 0
M  V30 2920 C 275.412 -1.599 -0.1699 0
M  V30 2921 O 276.602 -1.74104 0.0577251 0
M  V30 2922 C 273.734 -3.40155 0.225318 0
M  V30 2923 H 274.927 -2.43358 1.75262 0
M  V30 2924 H 272.48 -1.24603 0.943594 0
M  V30 2925 H 273.215 -3.16352 -0.713594 0
M  V30 2926 H 273 -3.80661 0.940193 0
M  V30 2927 H 274.49 -4.17594 0.0214784 0
M  V30 2928 N 274.927 -0.932562 -1.27047 0
M  V30 2929 C 276.152 -0.591474 -1.98787 0
M  V30 2930 C 276.577 0.824601 -1.69062 0
M  V30 2931 O 275.935 1.5541 -0.933677 0
M  V30 2932 C 275.983 -0.829808 -3.50922 0
M  V30 2933 O 275.087 0.102266 -4.12273 0
M  V30 2934 H 274.428 -0.227185 -0.623926 0
M  V30 2935 H 276.958 -1.25314 -1.61733 0
M  V30 2936 H 276.968 -0.747292 -4.01098 0
M  V30 2937 H 275.643 -1.86201 -3.7189 0
M  V30 2938 H 274.22 -0.0305761 -3.72887 0
M  V30 2939 N 276.405 1.4127 -0.698611 0
M  V30 2940 C 277.335 2.33447 -0.049629 0
M  V30 2941 C 278.316 1.51982 0.763898 0
M  V30 2942 O 279.501 1.80509 0.716257 0
M  V30 2943 C 276.631 3.35828 0.885267 0
M  V30 2944 C 275.585 4.27627 0.178613 0
M  V30 2945 C 274.911 5.20406 1.22807 0
M  V30 2946 C 276.211 5.13459 -0.956933 0
M  V30 2947 H 277.905 2.87966 -0.81951 0
M  V30 2948 H 275.451 1.38461 -0.395538 0
M  V30 2949 H 277.404 3.9924 1.34854 0
M  V30 2950 H 276.128 2.79666 1.68685 0
M  V30 2951 H 274.787 3.65643 -0.26466 0
M  V30 2952 H 274.435 4.60558 2.02226 0
M  V30 2953 H 274.135 5.82661 0.760239 0
M  V30 2954 H 275.659 5.86695 1.69179 0
M  V30 2955 H 277.073 5.70421 -0.573805 0
M  V30 2956 H 275.47 5.8467 -1.35205 0
M  V30 2957 H 276.54 4.50443 -1.79524 0
M  V30 2958 N 277.883 0.443576 1.51229 0
M  V30 2959 C 278.846 -0.353132 2.26463 0
M  V30 2960 C 279.846 -0.944338 1.3015 0
M  V30 2961 O 281.036 -0.817813 1.5381 0
M  V30 2962 C 278.168 -1.50023 3.06114 0
M  V30 2963 H 279.361 0.3063 2.98332 0
M  V30 2964 H 276.914 0.196902 1.55055 0
M  V30 2965 H 277.649 -2.19553 2.38677 0
M  V30 2966 H 277.434 -1.08241 3.76864 0
M  V30 2967 H 278.924 -2.06296 3.63087 0
M  V30 2968 N 279.361 -1.56624 0.175154 0
M  V30 2969 C 280.591 -2.01082 -0.474283 0
M  V30 2970 C 280.999 -1.05447 -1.57091 0
M  V30 2971 O 280.342 -0.0480595 -1.83637 0
M  V30 2972 C 280.404 -3.41963 -1.10911 0
M  V30 2973 C 280.068 -4.56742 -0.153666 0
M  V30 2974 C 281.065 -5.16076 0.629448 0
M  V30 2975 C 278.75 -5.02277 -0.0483776 0
M  V30 2976 C 280.744 -6.19377 1.50501 0
M  V30 2977 C 278.431 -6.05427 0.830768 0
M  V30 2978 C 279.429 -6.63849 1.60605 0
M  V30 2979 O 279.117 -7.64998 2.47049 0
M  V30 2980 H 278.849 -0.664261 -0.125432 0
M  V30 2981 H 281.403 -2.03549 0.275163 0
M  V30 2982 H 279.633 -3.36422 -1.90676 0
M  V30 2983 H 281.322 -3.70352 -1.66114 0
M  V30 2984 H 282.088 -4.81776 0.558297 0
M  V30 2985 H 277.967 -4.56513 -0.641611 0
M  V30 2986 H 281.511 -6.64906 2.1106 0
M  V30 2987 H 277.408 -6.39151 0.903107 0
M  V30 2988 H 278.176 -7.82336 2.40607 0
M  V30 2989 N 280.839 0.0985539 -1.57292 0
M  V30 2990 C 282.085 0.803867 -1.86188 0
M  V30 2991 C 282.418 1.78549 -0.763794 0
M  V30 2992 O 281.693 1.93153 0.22855 0
M  V30 2993 C 281.976 1.53568 -3.25713 0
M  V30 2994 C 281.829 0.572277 -4.46145 0
M  V30 2995 C 283.148 2.48708 -3.63087 0
M  V30 2996 H 280.267 0.290781 -0.677211 0
M  V30 2997 H 282.909 0.0675783 -1.8988 0
M  V30 2998 H 281.059 2.16332 -3.22696 0
M  V30 2999 H 282.731 -0.0480894 -4.61275 0
M  V30 3000 H 280.974 -0.114618 -4.33649 0
M  V30 3001 H 281.645 1.12139 -5.40489 0
M  V30 3002 H 284.121 1.96039 -3.67026 0
M  V30 3003 H 282.997 2.96932 -4.61652 0
M  V30 3004 H 283.258 3.32309 -2.91588 0
M  V30 3005 N 282.317 1.53212 0.369288 0
M  V30 3006 C 283.563 1.69466 1.11397 0
M  V30 3007 C 283.896 0.443257 1.89074 0
M  V30 3008 O 283.171 -0.559386 1.86282 0
M  V30 3009 C 283.454 2.9422 2.07621 0
M  V30 3010 C 283.307 4.29508 1.33577 0
M  V30 3011 C 284.626 3.14565 3.07794 0
M  V30 3012 H 281.745 0.616667 0.403597 0
M  V30 3013 H 284.387 1.85845 0.395179 0
M  V30 3014 H 282.537 2.80387 2.68916 0
M  V30 3015 H 284.209 4.55147 0.750955 0
M  V30 3016 H 282.452 4.29088 0.637618 0
M  V30 3017 H 283.123 5.12926 2.03989 0
M  V30 3018 H 285.599 3.2756 2.56601 0
M  V30 3019 H 284.475 4.03297 3.72348 0
M  V30 3020 H 284.736 2.29675 3.77759 0
M  V30 3021 N 283.795 -0.628877 1.44509 0
M  V30 3022 C 284.743 -1.76193 1.51852 0
M  V30 3023 C 285.737 -1.64849 0.390042 0
M  V30 3024 O 286.943 -1.709 0.565082 0
M  V30 3025 H 283.318 -0.581728 0.476547 0
M  V30 3026 H 285.289 -1.67123 2.47209 0
M  V30 3027 C 284.038 -3.14533 1.48204 0
M  V30 3028 H 283.361 -3.23911 2.34354 0
M  V30 3029 H 284.801 -3.93701 1.57402 0
M  V30 3030 C 283.26 -3.36287 0.203142 0
M  V30 3031 O 283.79 -3.9509 -0.725745 0
M  V30 3032 N 281.996 -2.90408 0.105563 0
M  V30 3033 H 281.543 -2.42739 0.862301 0
M  V30 3034 H 281.501 -3.05339 -0.749371 0
M  V30 3035 N 285.273 -1.31445 -0.869486 0
M  V30 3036 C 286.203 -1.21727 -1.99261 0
M  V30 3037 C 287.184 -0.104359 -1.6978 0
M  V30 3038 O 288.369 -0.289038 -1.92037 0
M  V30 3039 C 285.499 -0.924317 -3.34774 0
M  V30 3040 C 284.453 -1.99685 -3.78563 0
M  V30 3041 C 283.779 -1.55658 -5.11541 0
M  V30 3042 C 285.079 -3.41003 -3.95619 0
M  V30 3043 H 286.773 -2.1569 -2.07649 0
M  V30 3044 H 284.319 -1.03839 -0.997675 0
M  V30 3045 H 286.272 -0.842934 -4.12883 0
M  V30 3046 H 284.996 0.0509793 -3.2656 0
M  V30 3047 H 283.655 -2.06813 -3.02694 0
M  V30 3048 H 283.303 -0.569132 -4.9977 0
M  V30 3049 H 283.003 -2.27409 -5.41811 0
M  V30 3050 H 284.527 -1.48928 -5.92159 0
M  V30 3051 H 285.941 -3.36547 -4.64122 0
M  V30 3052 H 284.338 -4.10975 -4.37286 0
M  V30 3053 H 285.408 -3.81754 -2.98985 0
M  V30 3054 N 286.751 1.08385 -1.14413 0
M  V30 3055 C 287.699 2.17406 -0.826888 0
M  V30 3056 C 288.693 1.6827 0.195312 0
M  V30 3057 O 289.899 1.79927 0.0513892 0
M  V30 3058 H 286.274 0.70934 -0.249681 0
M  V30 3059 H 288.245 2.41388 -1.75426 0
M  V30 3060 C 286.994 3.46215 -0.320979 0
M  V30 3061 H 286.317 3.84401 -1.0989 0
M  V30 3062 H 287.757 4.23777 -0.137549 0
M  V30 3063 C 286.216 3.23067 0.955472 0
M  V30 3064 O 286.746 3.4668 2.02918 0
M  V30 3065 N 284.952 2.7661 0.890798 0
M  V30 3066 H 284.499 2.57594 0.0168815 0
M  V30 3067 H 284.457 2.61501 1.74542 0
M  V30 3068 N 288.23 0.939286 1.26551 0
M  V30 3069 C 289.477 0.585847 1.9384 0
M  V30 3070 C 289.805 -0.874784 1.73718 0
M  V30 3071 O 289.06 -1.64092 1.06642 0
M  V30 3072 C 289.359 0.872106 3.46596 0
M  V30 3073 C 289.025 2.31632 3.86856 0
M  V30 3074 C 287.687 2.71111 3.97558 0
M  V30 3075 C 290.039 3.25494 4.07066 0
M  V30 3076 C 287.367 4.03553 4.25866 0
M  V30 3077 C 289.719 4.57531 4.36862 0
M  V30 3078 C 288.383 4.96828 4.45778 0
M  V30 3079 H 287.653 0.214377 0.709312 0
M  V30 3080 H 290.3 1.18544 1.50398 0
M  V30 3081 H 288.605 0.18996 3.91339 0
M  V30 3082 H 290.302 0.577442 3.96821 0
M  V30 3083 H 286.892 2.00008 3.79071 0
M  V30 3084 H 291.076 2.9619 3.98227 0
M  V30 3085 H 286.332 4.33665 4.30981 0
M  V30 3086 H 290.506 5.30254 4.51446 0
M  V30 3087 H 288.133 5.99482 4.67468 0
M  V30 3088 N 289.708 -1.40897 0.706093 0
M  V30 3089 C 290.638 -2.33418 0.0620085 0
M  V30 3090 C 291.619 -1.52385 -0.755827 0
M  V30 3091 O 292.804 -1.80886 -0.706674 0
M  V30 3092 C 289.934 -3.36293 -0.867445 0
M  V30 3093 C 288.888 -4.27716 -0.155932 0
M  V30 3094 C 288.214 -5.2105 -1.20046 0
M  V30 3095 C 289.514 -5.12944 0.984149 0
M  V30 3096 H 291.208 -2.87527 0.83477 0
M  V30 3097 H 288.754 -1.38249 0.402875 0
M  V30 3098 H 290.707 -3.99949 -1.32735 0
M  V30 3099 H 289.431 -2.80556 -1.67199 0
M  V30 3100 H 288.09 -3.65498 0.284047 0
M  V30 3101 H 287.738 -4.61624 -1.99781 0
M  V30 3102 H 287.438 -5.83056 -0.729328 0
M  V30 3103 H 288.962 -5.87584 -1.66066 0
M  V30 3104 H 290.376 -5.70109 0.604048 0
M  V30 3105 H 288.773 -5.83945 1.38304 0
M  V30 3106 H 289.843 -4.49485 1.81911 0
M  V30 3107 N 291.186 -0.45159 -1.50991 0
M  V30 3108 C 292.414 0.108334 -2.06616 0
M  V30 3109 C 292.829 1.35224 -1.31757 0
M  V30 3110 O 292.186 1.78475 -0.381174 0
M  V30 3111 C 292.237 0.41619 -3.59096 0
M  V30 3112 O 291.958 -0.778361 -4.3113 0
M  V30 3113 C 293.459 1.02523 -4.31282 0
M  V30 3114 H 290.679 0.00159995 -0.670998 0
M  V30 3115 H 293.223 -0.634771 -1.94399 0
M  V30 3116 H 291.378 1.10921 -3.71181 0
M  V30 3117 H 291.792 -0.511181 -5.22003 0
M  V30 3118 H 293.266 1.19053 -5.39009 0
M  V30 3119 H 293.743 2.01013 -3.905 0
M  V30 3120 H 294.349 0.371173 -4.23677 0
M  V30 3121 N 292.664 1.56529 -0.183458 0
M  V30 3122 C 294.075 1.83739 0.331177 0
M  V30 3123 C 294.426 1.10373 1.62211 0
M  V30 3124 O 293.551 0.36071 2.13373 0
M  V30 3125 C 294.146 3.33306 0.607646 0
M  V30 3126 C 292.705 3.60969 1.06668 0
M  V30 3127 C 291.852 2.77086 0.109029 0
M  V30 3128 H 294.803 1.53379 -0.407484 0
M  V30 3129 H 294.824 3.51444 1.45832 0
M  V30 3130 H 294.336 3.86677 -0.332086 0
M  V30 3131 H 292.437 3.13021 2.0211 0
M  V30 3132 H 292.55 4.69231 0.967447 0
M  V30 3133 H 290.914 2.47319 0.608714 0
M  V30 3134 H 291.697 3.33241 -0.82494 0
M  V30 3135 N 294.142 -0.090211 1.57342 0
M  V30 3136 C 295.052 -1.12735 2.05738 0
M  V30 3137 C 296.068 -1.43557 0.983231 0
M  V30 3138 O 297.244 -1.54101 1.29672 0
M  V30 3139 C 294.309 -2.42659 2.47624 0
M  V30 3140 C 293.37 -2.18975 3.69254 0
M  V30 3141 C 292.603 -3.42704 4.09133 0
M  V30 3142 O 292.826 -4.51127 3.49057 0
M  V30 3143 O 291.76 -3.32003 5.02053 0
M  V30 3144 H 295.586 -0.746279 2.94388 0
M  V30 3145 H 293.171 -0.303064 1.46294 0
M  V30 3146 H 295.053 -3.19155 2.7517 0
M  V30 3147 H 293.728 -2.80182 1.62109 0
M  V30 3148 H 292.635 -1.40244 3.46818 0
M  V30 3149 H 293.968 -1.86342 4.55563 0
M  V30 3150 N 295.62 -1.53406 -0.361157 0
M  V30 3151 C 297.031 -1.61442 -0.937728 0
M  V30 3152 C 297.382 -0.48461 -1.90121 0
M  V30 3153 O 296.507 0.388312 -2.12888 0
M  V30 3154 C 297.102 -2.92624 -1.70753 0
M  V30 3155 C 295.661 -3.02981 -2.23337 0
M  V30 3156 C 294.808 -2.5677 -1.04712 0
M  V30 3157 H 297.759 -1.58083 -0.139816 0
M  V30 3158 H 297.78 -2.80675 -2.56908 0
M  V30 3159 H 297.292 -3.74834 -1.00604 0
M  V30 3160 H 295.393 -2.25368 -2.96715 0
M  V30 3161 H 295.506 -4.0814 -2.50916 0
M  V30 3162 H 293.87 -2.11752 -1.41539 0
M  V30 3163 H 294.653 -3.41402 -0.360539 0
M  V30 3164 N 297.098 0.621204 -1.44841 0
M  V30 3165 C 298.346 1.37783 -1.47852 0
M  V30 3166 C 298.667 1.94653 -0.116224 0
M  V30 3167 O 297.937 1.76367 0.852737 0
M  V30 3168 H 296.517 0.511453 -0.544449 0
M  V30 3169 H 299.179 0.730446 -1.80694 0
M  V30 3170 H 298.275 2.20414 -2.20961 0
M  V30 3171 N 298.576 1.31904 0.862503 0
M  V30 3172 C 299.524 1.20125 1.9918 0
M  V30 3173 C 300.518 0.107824 1.69056 0
M  V30 3174 O 301.724 0.270223 1.7796 0
M  V30 3175 H 298.099 0.372148 0.65346 0
M  V30 3176 H 300.07 2.15652 2.06244 0
M  V30 3177 C 298.819 0.933099 3.34946 0
M  V30 3178 H 298.142 1.76664 3.5865 0
M  V30 3179 H 299.582 0.890892 4.14535 0
M  V30 3180 C 298.041 -0.364172 3.34926 0
M  V30 3181 O 298.571 -1.37858 3.77304 0
M  V30 3182 N 296.777 -0.383362 2.8806 0
M  V30 3183 H 296.324 0.442651 2.53768 0
M  V30 3184 H 296.282 -1.25123 2.8843 0
M  V30 3185 N 300.054 -1.07777 1.14986 0
M  V30 3186 C 301.3 -1.80719 0.93339 0
M  V30 3187 C 301.655 -1.8484 -0.534019 0
M  V30 3188 O 300.948 -1.31795 -1.3907 0
M  V30 3189 C 301.142 -3.25495 1.47608 0
M  V30 3190 C 300.971 -3.3548 2.99472 0
M  V30 3191 C 299.741 -3.46293 3.6798 0
M  V30 3192 C 301.939 -3.26596 3.97291 0
M  V30 3193 N 299.921 -3.45136 5.07695 0
M  V30 3194 C 301.292 -3.32506 5.23297 0
M  V30 3195 C 303.347 -3.10376 3.89321 0
M  V30 3196 C 302.05 -3.23866 6.42264 0
M  V30 3197 C 304.076 -3.03069 5.07842 0
M  V30 3198 C 303.438 -3.09587 6.32721 0
M  V30 3199 H 299.537 -0.674814 0.395158 0
M  V30 3200 H 302.121 -1.28681 1.46114 0
M  V30 3201 H 300.292 -3.75963 0.975022 0
M  V30 3202 H 302.024 -3.86535 1.19887 0
M  V30 3203 H 298.779 -3.50456 3.18555 0
M  V30 3204 H 299.203 -3.48097 5.80653 0
M  V30 3205 H 303.845 -3.04194 2.93642 0
M  V30 3206 H 301.563 -3.28807 7.38181 0
M  V30 3207 H 305.149 -2.91629 5.03432 0
M  V30 3208 H 304.029 -3.0397 7.22891 0
M  V30 3209 N 301.532 -0.945985 -1.26051 0
M  V30 3210 C 302.462 -0.477172 -2.28572 0
M  V30 3211 C 303.443 0.472032 -1.63419 0
M  V30 3212 O 304.628 0.372853 -1.90587 0
M  V30 3213 C 301.758 0.253975 -3.4637 0
M  V30 3214 C 300.712 -0.609135 -4.23643 0
M  V30 3215 C 300.038 0.252252 -5.34105 0
M  V30 3216 C 301.338 -1.8829 -4.8718 0
M  V30 3217 H 303.032 -1.33402 -2.68038 0
M  V30 3218 H 300.578 -0.642904 -1.28852 0
M  V30 3219 H 302.531 0.593016 -4.17207 0
M  V30 3220 H 301.255 1.145 -3.05871 0
M  V30 3221 H 299.914 -0.931138 -3.54578 0
M  V30 3222 H 299.562 1.14278 -4.89846 0
M  V30 3223 H 299.262 -0.32188 -5.86718 0
M  V30 3224 H 300.786 0.586454 -6.07777 0
M  V30 3225 H 302.2 -1.61081 -5.50205 0
M  V30 3226 H 300.597 -2.40199 -5.49931 0
M  V30 3227 H 301.667 -2.59134 -4.09851 0
M  V30 3228 N 303.011 1.40521 -0.713556 0
M  V30 3229 C 304.241 2.0494 -0.261395 0
M  V30 3230 C 304.649 1.53861 1.10107 0
M  V30 3231 O 303.992 0.689321 1.70276 0
M  V30 3232 C 304.054 3.59138 -0.161227 0
M  V30 3233 C 303.718 4.33096 -1.45865 0
M  V30 3234 C 304.715 4.61182 -2.40016 0
M  V30 3235 C 302.4 4.72043 -1.71701 0
M  V30 3236 C 304.394 5.27196 -3.58251 0
M  V30 3237 C 302.081 5.37789 -2.90218 0
M  V30 3238 C 303.079 5.65295 -3.83315 0
M  V30 3239 O 302.767 6.29683 -4.99754 0
M  V30 3240 H 302.499 0.666041 -0.115608 0
M  V30 3241 H 305.053 1.80954 -0.971849 0
M  V30 3242 H 303.283 3.81936 0.605153 0
M  V30 3243 H 304.972 4.05091 0.256105 0
M  V30 3244 H 305.738 4.31559 -2.21318 0
M  V30 3245 H 301.617 4.50003 -1.00092 0
M  V30 3246 H 305.161 5.48582 -4.30934 0
M  V30 3247 H 301.058 5.66831 -3.08825 0
M  V30 3248 H 301.826 6.4818 -4.99805 0
M  V30 3249 N 304.489 0.459591 1.5075 0
M  V30 3250 C 305.738 -0.100971 2.01447 0
M  V30 3251 C 306.051 -1.41816 1.34713 0
M  V30 3252 O 307.257 -2.06299 1.76502 0
M  V30 3253 C 305.713 -0.23047 3.59161 0
M  V30 3254 C 305.321 1.0776 4.34847 0
M  V30 3255 C 307.065 -0.743608 4.17936 0
M  V30 3256 C 304.972 0.91253 5.84317 0
M  V30 3257 H 303.902 -0.0415102 0.752856 0
M  V30 3258 H 306.553 0.592742 1.73663 0
M  V30 3259 H 304.935 -0.987703 3.83485 0
M  V30 3260 H 306.109 1.8449 4.22256 0
M  V30 3261 H 304.424 1.52097 3.87628 0
M  V30 3262 H 307.021 -0.883959 5.27343 0
M  V30 3263 H 307.364 -1.73196 3.78562 0
M  V30 3264 H 307.897 -0.04408 3.97776 0
M  V30 3265 H 304.636 1.87391 6.28144 0
M  V30 3266 H 304.156 0.185422 5.99513 0
M  V30 3267 H 305.835 0.574547 6.44444 0
M  V30 3268 N 305.967 -1.56429 0.191757 0
M  V30 3269 C 307.216 -1.9666 -0.448088 0
M  V30 3270 C 307.529 -1.08136 -1.62991 0
M  V30 3271 O 308.735 -1.38135 -2.33733 0
M  V30 3272 C 307.191 -3.49753 -0.848585 0
M  V30 3273 C 306.799 -4.46935 0.308764 0
M  V30 3274 C 308.543 -3.9876 -1.4557 0
M  V30 3275 C 306.45 -5.91293 -0.112506 0
M  V30 3276 H 305.38 -0.734312 -0.171179 0
M  V30 3277 H 308.031 -1.81301 0.283242 0
M  V30 3278 H 306.413 -3.60604 -1.63649 0
M  V30 3279 H 307.587 -4.47813 1.08627 0
M  V30 3280 H 305.902 -4.08102 0.827158 0
M  V30 3281 H 308.499 -5.04086 -1.78328 0
M  V30 3282 H 308.842 -3.42875 -2.36099 0
M  V30 3283 H 309.375 -3.9101 -0.731836 0
M  V30 3284 H 306.114 -6.51097 0.758514 0
M  V30 3285 H 305.634 -5.93676 -0.854941 0
M  V30 3286 H 307.313 -6.44663 -0.549448 0
M  V30 3287 N 307.445 0.0818655 -1.57387 0
M  V30 3288 C 308.722 0.815343 -1.77796 0
M  V30 3289 C 309.102 1.96289 -0.77679 0
M  V30 3290 O 308.45 2.27691 0.192106 0
M  V30 3291 C 308.66 1.29765 -3.23978 0
M  V30 3292 C 310.008 1.7351 -3.8753 0
M  V30 3293 O 311.032 1.39356 -3.27808 0
M  V30 3294 O 309.891 2.36708 -4.92576 0
M  V30 3295 H 306.985 0.389914 -0.729312 0
M  V30 3296 H 309.531 0.0627213 -1.69584 0
M  V30 3297 H 308.303 0.47608 -3.88393 0
M  V30 3298 H 307.926 2.11189 -3.36875 0
M  V30 3299 N 308.923 1.53595 0.353017 0
M  V30 3300 C 309.886 1.80232 1.41594 0
M  V30 3301 C 310.886 0.673081 1.46035 0
M  V30 3302 O 312.076 0.941335 1.46576 0
M  V30 3303 C 309.208 1.93578 2.80607 0
M  V30 3304 H 310.401 2.75174 1.19244 0
M  V30 3305 H 307.954 1.44864 0.586872 0
M  V30 3306 H 308.689 1.00746 3.08254 0
M  V30 3307 H 308.474 2.75724 2.78781 0
M  V30 3308 H 309.964 2.15735 3.57558 0
M  V30 3309 N 310.401 -0.613514 1.45168 0
M  V30 3310 C 311.647 -1.37471 1.49096 0
M  V30 3311 C 311.98 -1.93765 0.129901 0
M  V30 3312 O 311.255 -1.74707 -0.854858 0
M  V30 3313 C 311.538 -2.52701 2.56542 0
M  V30 3314 C 311.391 -2.01643 4.0207 0
M  V30 3315 C 312.71 -3.54849 2.60327 0
M  V30 3316 H 309.829 -0.498502 0.54283 0
M  V30 3317 H 312.471 -0.692125 1.76945 0
M  V30 3318 H 310.621 -3.10931 2.32926 0
M  V30 3319 H 312.293 -1.48108 4.36877 0
M  V30 3320 H 310.536 -1.32688 4.13009 0
M  V30 3321 H 311.207 -2.84681 4.72928 0
M  V30 3322 H 313.683 -3.0645 2.81474 0
M  V30 3323 H 312.559 -4.32973 3.37381 0
M  V30 3324 H 312.82 -4.10079 1.6519 0
M  V30 3325 N 311.879 -1.3236 -0.855495 0
M  V30 3326 C 313.156 -1.13491 -1.59309 0
M  V30 3327 C 313.536 0.30503 -2.08885 0
M  V30 3328 O 312.884 1.30151 -1.87811 0
M  V30 3329 C 313.094 -2.16176 -2.73987 0
M  V30 3330 C 314.442 -2.49463 -3.43589 0
M  V30 3331 O 315.466 -2.14715 -2.84211 0
M  V30 3332 O 314.325 -3.09027 -4.50738 0
M  V30 3333 H 311.419 -0.437887 -0.701559 0
M  V30 3334 H 313.965 -1.43887 -0.899696 0
M  V30 3335 H 312.737 -3.1297 -2.34873 0
M  V30 3336 H 312.36 -1.86769 -3.51003 0
M  V30 3337 N 313.357 1.07166 -1.15556 0
M  V30 3338 C 314.605 1.79443 -0.929764 0
M  V30 3339 C 314.926 1.87246 0.544414 0
M  V30 3340 O 314.196 1.37473 1.39564 0
M  V30 3341 H 312.776 0.664625 -0.341003 0
M  V30 3342 H 315.438 1.29499 -1.45657 0
M  V30 3343 H 314.534 2.81832 -1.34079 0
M  V30 3344 N 314.835 0.952656 1.25548 0
M  V30 3345 C 315.782 0.47008 2.25962 0
M  V30 3346 C 316.752 -0.476384 1.59122 0
M  V30 3347 O 317.937 -0.39007 1.8677 0
M  V30 3348 C 315.077 -0.247881 3.44209 0
M  V30 3349 C 314.19 0.735591 4.25691 0
M  V30 3350 C 313.325 -0.0047306 5.312 0
M  V30 3351 C 312.364 0.969805 6.04368 0
M  V30 3352 N 311.501 0.260486 7.01617 0
M  V30 3353 H 316.341 1.33126 2.66611 0
M  V30 3354 H 313.878 0.66765 1.31076 0
M  V30 3355 H 315.836 -0.680695 4.1161 0
M  V30 3356 H 314.466 -1.07312 3.0444 0
M  V30 3357 H 313.518 1.28689 3.57971 0
M  V30 3358 H 314.83 1.47934 4.76358 0
M  V30 3359 H 313.984 -0.496275 6.04667 0
M  V30 3360 H 312.723 -0.781282 4.81401 0
M  V30 3361 H 311.728 1.47237 5.29718 0
M  V30 3362 H 312.953 1.74655 6.56256 0
M  V30 3363 H 310.899 -0.497364 6.54112 0
M  V30 3364 H 310.816 0.943362 7.50091 0
M  V30 3365 H 312.084 -0.209587 7.79218 0
M  V30 3366 N 316.313 -1.40141 0.720998 0
M  V30 3367 C 317.562 -2.0002 0.259804 0
M  V30 3368 C 317.875 -1.57839 -1.15526 0
M  V30 3369 O 319.081 -2.10455 -1.71525 0
M  V30 3370 C 317.537 -3.57516 0.413566 0
M  V30 3371 C 317.145 -4.08667 1.83562 0
M  V30 3372 C 318.889 -4.24498 0.0134387 0
M  V30 3373 C 316.796 -5.58686 1.93968 0
M  V30 3374 H 315.726 -0.748195 0.0933806 0
M  V30 3375 H 318.377 -1.60313 0.892866 0
M  V30 3376 H 316.759 -3.9495 -0.288169 0
M  V30 3377 H 317.933 -3.82598 2.56817 0
M  V30 3378 H 316.248 -3.543 2.1877 0
M  V30 3379 H 318.845 -5.34654 0.0703954 0
M  V30 3380 H 319.188 -4.03375 -1.02927 0
M  V30 3381 H 319.721 -3.92188 0.665815 0
M  V30 3382 H 316.46 -5.8467 2.96379 0
M  V30 3383 H 315.98 -5.86602 1.25131 0
M  V30 3384 H 317.659 -6.23875 1.71431 0
M  V30 3385 N 317.792 -0.46758 -1.50504 0
M  V30 3386 C 318.722 0.318381 -2.31319 0
M  V30 3387 C 319.703 0.993564 -1.38066 0
M  V30 3388 O 320.888 0.991411 -1.66987 0
M  V30 3389 C 318.018 1.40275 -3.17711 0
M  V30 3390 C 316.972 0.849373 -4.19487 0
M  V30 3391 C 316.298 2.03177 -4.94594 0
M  V30 3392 C 317.598 -0.136942 -5.2212 0
M  V30 3393 H 319.292 -0.356106 -2.97275 0
M  V30 3394 H 316.838 -0.172703 -1.42961 0
M  V30 3395 H 318.791 1.96004 -3.73042 0
M  V30 3396 H 317.515 2.10596 -2.49634 0
M  V30 3397 H 316.174 0.314076 -3.65252 0
M  V30 3398 H 315.822 2.72187 -4.22993 0
M  V30 3399 H 315.522 1.66774 -5.63436 0
M  V30 3400 H 317.046 2.59403 -5.52759 0
M  V30 3401 H 318.46 0.331056 -5.72343 0
M  V30 3402 H 316.857 -0.41507 -5.98663 0
M  V30 3403 H 317.927 -1.06398 -4.73083 0
M  V30 3404 N 319.27 1.56325 -0.20005 0
M  V30 3405 C 320.218 2.20666 0.735482 0
M  V30 3406 C 321.212 1.17934 1.21605 0
M  V30 3407 O 322.418 1.36068 1.17837 0
M  V30 3408 H 318.793 0.70725 0.255542 0
M  V30 3409 H 320.764 2.9792 0.169166 0
M  V30 3410 C 319.513 2.88391 1.94232 0
M  V30 3411 H 318.836 3.67185 1.58161 0
M  V30 3412 H 320.276 3.3684 2.57517 0
M  V30 3413 C 318.735 1.89692 2.78421 0
M  V30 3414 O 319.265 1.40032 3.76502 0
M  V30 3415 N 317.471 1.57813 2.44015 0
M  V30 3416 H 317.018 1.9839 1.64314 0
M  V30 3417 H 316.976 0.920325 3.00628 0
M  V30 3418 N 320.748 -0.0735177 1.57428 0
M  V30 3419 C 321.695 -1.08756 2.0357 0
M  V30 3420 C 322.665 -1.38559 0.916 0
M  V30 3421 O 323.85 -1.49656 1.18354 0
M  V30 3422 C 320.99 -2.39657 2.48311 0
M  V30 3423 C 320.103 -2.16399 3.73892 0
M  V30 3424 C 319.238 -3.40852 4.07423 0
M  V30 3425 C 318.277 -3.1295 5.2605 0
M  V30 3426 N 317.414 -4.29729 5.55228 0
M  V30 3427 H 322.254 -0.687104 2.8997 0
M  V30 3428 H 319.791 -0.327709 1.43403 0
M  V30 3429 H 321.749 -3.16081 2.72303 0
M  V30 3430 H 320.379 -2.77508 1.64891 0
M  V30 3431 H 319.431 -1.30676 3.57251 0
M  V30 3432 H 320.743 -1.91788 4.60455 0
M  V30 3433 H 319.897 -4.25671 4.32306 0
M  V30 3434 H 318.636 -3.68537 3.19425 0
M  V30 3435 H 317.641 -2.26526 5.00965 0
M  V30 3436 H 318.866 -2.86589 6.15665 0
M  V30 3437 H 316.812 -4.57448 4.70188 0
M  V30 3438 H 316.729 -4.08385 6.36206 0
M  V30 3439 H 317.997 -5.1555 5.84661 0
M  V30 3440 N 322.226 -1.5378 -0.344866 0
M  V30 3441 C 323.473 -1.70963 -1.08526 0
M  V30 3442 C 323.801 -0.472126 -1.88683 0
M  V30 3443 O 323.056 0.546116 -1.87926 0
M  V30 3444 C 323.355 -2.92407 -2.05506 0
M  V30 3445 C 323.021 -4.28066 -1.41671 0
M  V30 3446 C 321.683 -4.64951 -1.2399 0
M  V30 3447 C 324.035 -5.12344 -0.956726 0
M  V30 3448 C 321.363 -5.83733 -0.589277 0
M  V30 3449 C 323.715 -6.3179 -0.320015 0
M  V30 3450 C 322.379 -6.67372 -0.130881 0
M  V30 3451 H 321.649 -0.625598 -0.397124 0
M  V30 3452 H 324.296 -1.87995 -0.36469 0
M  V30 3453 H 322.601 -2.69973 -2.8394 0
M  V30 3454 H 324.298 -3.02895 -2.62784 0
M  V30 3455 H 320.888 -3.99034 -1.56429 0
M  V30 3456 H 325.072 -4.8438 -1.08118 0
M  V30 3457 H 320.328 -6.09877 -0.431344 0
M  V30 3458 H 324.502 -6.96386 0.0445072 0
M  V30 3459 H 322.129 -7.59273 0.375318 0
M  V30 3460 N 323.704 0.605807 -1.45491 0
M  V30 3461 C 324.652 1.73754 -1.54636 0
M  V30 3462 C 325.646 1.64207 -0.416219 0
M  V30 3463 O 326.852 1.69979 -0.592199 0
M  V30 3464 H 323.227 0.574073 -0.485741 0
M  V30 3465 H 325.198 1.63169 -2.49837 0
M  V30 3466 C 323.947 3.12135 -1.53189 0
M  V30 3467 H 323.27 3.20141 -2.39478 0
M  V30 3468 H 324.71 3.91147 -1.63645 0
M  V30 3469 C 323.169 3.35921 -0.256616 0
M  V30 3470 O 323.699 3.96194 0.662798 0
M  V30 3471 N 321.905 2.90204 -0.151751 0
M  V30 3472 H 321.452 2.41336 -0.90081 0
M  V30 3473 H 321.41 3.06492 0.700699 0
M  V30 3474 N 325.182 1.32811 0.848464 0
M  V30 3475 C 326.114 1.18095 1.96433 0
M  V30 3476 C 327.127 0.114354 1.62398 0
M  V30 3477 O 328.316 0.363892 1.74751 0
M  V30 3478 C 325.416 0.786798 3.2964 0
M  V30 3479 C 324.589 1.943 3.91875 0
M  V30 3480 C 323.648 1.53138 5.03423 0
M  V30 3481 O 322.674 2.24432 5.23086 0
M  V30 3482 N 323.876 0.430915 5.78898 0
M  V30 3483 H 326.641 2.14218 2.09597 0
M  V30 3484 H 324.202 1.2543 1.02367 0
M  V30 3485 H 326.194 0.493715 4.01677 0
M  V30 3486 H 324.764 -0.0834541 3.12489 0
M  V30 3487 H 323.984 2.40224 3.12547 0
M  V30 3488 H 325.272 2.71689 4.30189 0
M  V30 3489 H 324.67 -0.162333 5.65467 0
M  V30 3490 H 323.227 0.197466 6.51501 0
M  V30 3491 N 326.66 -1.06551 1.16123 0
M  V30 3492 C 327.59 -2.15935 0.88851 0
M  V30 3493 C 328.571 -1.69306 -0.164135 0
M  V30 3494 O 329.756 -1.94193 -0.0167857 0
M  V30 3495 C 326.886 -3.45149 0.385942 0
M  V30 3496 C 325.84 -4.05271 1.3762 0
M  V30 3497 C 325.166 -5.29664 0.732137 0
M  V30 3498 C 326.466 -4.44355 2.74493 0
M  V30 3499 H 328.16 -2.39006 1.80323 0
M  V30 3500 H 325.706 -1.14866 0.868435 0
M  V30 3501 H 327.659 -4.21004 0.182647 0
M  V30 3502 H 326.383 -3.21689 -0.564274 0
M  V30 3503 H 325.042 -3.3147 1.56599 0
M  V30 3504 H 324.69 -5.02499 -0.224483 0
M  V30 3505 H 324.39 -5.70848 1.39307 0
M  V30 3506 H 325.914 -6.08218 0.538802 0
M  V30 3507 H 327.328 -5.11303 2.59311 0
M  V30 3508 H 325.725 -4.96515 3.37035 0
M  V30 3509 H 326.795 -3.55339 3.29943 0
M  V30 3510 N 328.138 -0.959301 -1.25041 0
M  V30 3511 C 329.415 -0.533805 -1.88175 0
M  V30 3512 C 329.795 0.988994 -1.865 0
M  V30 3513 O 329.143 1.85677 -1.33177 0
M  V30 3514 C 329.353 -1.11575 -3.30684 0
M  V30 3515 C 330.701 -1.19548 -4.07423 0
M  V30 3516 O 331.725 -1.06765 -3.39823 0
M  V30 3517 O 330.584 -1.39656 -5.28354 0
M  V30 3518 H 327.678 -0.176772 -0.807887 0
M  V30 3519 H 330.224 -1.05303 -1.33076 0
M  V30 3520 H 328.996 -2.15884 -3.26358 0
M  V30 3521 H 328.619 -0.580059 -3.93346 0
M  V30 3522 N 329.616 1.39756 -0.72842 0
M  V30 3523 C 330.579 2.29012 -0.0927297 0
M  V30 3524 C 331.579 1.45992 0.674025 0
M  V30 3525 O 332.769 1.66749 0.50402 0
M  V30 3526 C 329.901 3.29396 0.878137 0
M  V30 3527 H 331.094 2.86729 -0.879011 0
M  V30 3528 H 328.647 1.48293 -0.493847 0
M  V30 3529 H 329.382 2.76722 1.69101 0
M  V30 3530 H 329.167 3.907 0.331051 0
M  V30 3531 H 330.657 3.96199 1.3197 0
M  V30 3532 N 331.094 0.475555 1.50254 0
M  V30 3533 C 332.057 -0.305016 2.27161 0
M  V30 3534 C 333.057 -0.916519 1.32123 0
M  V30 3535 O 334.247 -0.785003 1.5551 0
M  V30 3536 C 331.379 -1.43496 3.09227 0
M  V30 3537 H 332.572 0.369511 2.97615 0
M  V30 3538 H 330.125 0.229747 1.54602 0
M  V30 3539 H 330.86 -2.14441 2.43281 0
M  V30 3540 H 330.645 -1.00223 3.79075 0
M  V30 3541 H 332.135 -1.98548 3.67381 0
M  V30 3542 N 332.573 -1.56217 0.208337 0
M  V30 3543 C 333.52 -2.19699 -0.707192 0
M  V30 3544 C 334.49 -1.14836 -1.20008 0
M  V30 3545 O 335.675 -1.4314 -1.26157 0
M  V30 3546 C 332.815 -2.87061 -1.91546 0
M  V30 3547 C 331.928 -4.06483 -1.46271 0
M  V30 3548 C 331.063 -4.61665 -2.62752 0
M  V30 3549 C 330.102 -5.73417 -2.14147 0
M  V30 3550 N 329.239 -6.22948 -3.23853 0
M  V30 3551 H 334.079 -2.97575 -0.159111 0
M  V30 3552 H 331.616 -1.46948 -0.0667874 0
M  V30 3553 H 333.574 -3.24294 -2.62468 0
M  V30 3554 H 332.204 -2.11725 -2.43664 0
M  V30 3555 H 331.256 -3.74825 -0.648886 0
M  V30 3556 H 332.568 -4.87271 -1.06622 0
M  V30 3557 H 331.722 -5.01272 -3.41776 0
M  V30 3558 H 330.461 -3.80013 -3.05682 0
M  V30 3559 H 329.466 -5.33326 -1.33581 0
M  V30 3560 H 330.691 -6.56897 -1.72232 0
M  V30 3561 H 328.637 -5.44213 -3.6629 0
M  V30 3562 H 328.554 -6.98823 -2.88414 0
M  V30 3563 H 329.822 -6.6721 -4.03052 0
M  V30 3564 N 334.051 0.0651679 -1.57465 0
M  V30 3565 C 335.462 0.616213 -1.76238 0
M  V30 3566 C 335.813 1.7756 -0.834689 0
M  V30 3567 O 334.938 2.1639 -0.0204156 0
M  V30 3568 C 335.533 1.12462 -3.1959 0
M  V30 3569 C 334.092 1.62147 -3.39684 0
M  V30 3570 C 333.239 0.543739 -2.71917 0
M  V30 3571 H 336.19 -0.161022 -1.57881 0
M  V30 3572 H 336.211 1.99324 -3.24114 0
M  V30 3573 H 335.723 0.280592 -3.87084 0
M  V30 3574 H 333.824 2.48854 -2.77313 0
M  V30 3575 H 333.937 1.69385 -4.48158 0
M  V30 3576 H 332.301 0.990352 -2.34657 0
M  V30 3577 H 333.084 -0.290216 -3.42071 0
M  V30 3578 N 335.529 1.53961 0.336706 0
M  V30 3579 C 336.777 1.71197 1.07405 0
M  V30 3580 C 337.098 0.481475 1.88962 0
M  V30 3581 O 336.368 -0.504585 1.8929 0
M  V30 3582 H 334.948 0.631185 0.399517 0
M  V30 3583 H 337.61 1.91232 0.376323 0
M  V30 3584 H 336.706 2.58587 1.74755 0
M  V30 3585 N 337.007 -0.598083 1.45811 0
M  V30 3586 C 338.284 -1.35777 1.40797 0
M  V30 3587 C 338.664 -2.10935 0.083462 0
M  V30 3588 O 338.012 -2.08505 -0.934763 0
M  V30 3589 C 338.222 -2.29666 2.62783 0
M  V30 3590 C 339.57 -2.91977 3.08277 0
M  V30 3591 O 340.594 -2.39984 2.63223 0
M  V30 3592 O 339.453 -3.86376 3.86491 0
M  V30 3593 H 336.547 -0.609291 0.55919 0
M  V30 3594 H 339.093 -0.620379 1.57954 0
M  V30 3595 H 337.865 -1.73454 3.50756 0
M  V30 3596 H 337.488 -3.1077 2.48008 0
M  V30 3597 N 338.485 -1.33259 -0.841409 0
M  V30 3598 C 339.731 -1.24757 -1.59886 0
M  V30 3599 C 340.064 0.186913 -1.93298 0
M  V30 3600 O 339.339 1.12757 -1.5848 0
M  V30 3601 C 339.622 -2.12036 -2.91055 0
M  V30 3602 C 339.475 -3.63929 -2.6434 0
M  V30 3603 C 340.794 -1.9916 -3.92458 0
M  V30 3604 H 337.913 -0.454542 -0.580138 0
M  V30 3605 H 340.555 -1.63335 -0.970647 0
M  V30 3606 H 338.705 -1.79265 -3.44669 0
M  V30 3607 H 340.377 -4.06978 -2.17178 0
M  V30 3608 H 338.62 -3.85935 -1.98082 0
M  V30 3609 H 339.291 -4.20341 -3.57796 0
M  V30 3610 H 341.767 -2.27895 -3.48143 0
M  V30 3611 H 340.643 -2.62484 -4.82072 0
M  V30 3612 H 340.904 -0.963082 -4.31482 0
M  V30 3613 N 339.963 1.05934 -1.16686 0
M  V30 3614 C 340.91 2.13499 -0.876748 0
M  V30 3615 C 341.88 1.65162 0.176299 0
M  V30 3616 O 343.065 1.90757 0.0407143 0
M  V30 3617 C 340.205 3.42912 -0.387967 0
M  V30 3618 C 339.318 4.04964 -1.50426 0
M  V30 3619 C 338.453 5.22266 -0.970125 0
M  V30 3620 C 337.492 5.76309 -2.06238 0
M  V30 3621 N 336.629 6.84922 -1.54356 0
M  V30 3622 H 341.469 2.37654 -1.7979 0
M  V30 3623 H 339.006 1.16598 -0.896843 0
M  V30 3624 H 340.964 4.17111 -0.086186 0
M  V30 3625 H 339.594 3.18963 0.496235 0
M  V30 3626 H 338.646 3.28277 -1.92193 0
M  V30 3627 H 339.958 4.41122 -2.32836 0
M  V30 3628 H 339.112 6.03506 -0.621743 0
M  V30 3629 H 337.851 4.87564 -0.115377 0
M  V30 3630 H 336.856 4.93704 -2.41942 0
M  V30 3631 H 338.081 6.13062 -2.92115 0
M  V30 3632 H 336.027 6.52131 -0.711406 0
M  V30 3633 H 335.944 7.20043 -2.30379 0
M  V30 3634 H 337.212 7.69832 -1.22387 0
M  V30 3635 N 341.441 0.965919 1.2453 0
M  V30 3636 C 342.666 0.643971 1.97149 0
M  V30 3637 C 343.091 -0.779487 1.71189 0
M  V30 3638 O 342.449 -1.5288 0.974553 0
M  V30 3639 C 342.497 0.922557 3.48599 0
M  V30 3640 O 341.601 0.00707672 4.12399 0
M  V30 3641 H 340.942 0.243647 0.617683 0
M  V30 3642 H 343.472 1.29558 1.58353 0
M  V30 3643 H 343.482 0.853373 3.98976 0
M  V30 3644 H 342.157 1.95996 3.66822 0
M  V30 3645 H 340.734 0.12943 3.72675 0
M  V30 3646 N 342.919 -1.39368 0.735821 0
M  V30 3647 C 344.168 -1.99733 0.281004 0
M  V30 3648 C 344.481 -1.59055 -1.13846 0
M  V30 3649 O 345.687 -2.12262 -1.69284 0
M  V30 3650 C 344.143 -3.57057 0.451462 0
M  V30 3651 C 343.751 -4.06697 1.87886 0
M  V30 3652 C 345.495 -4.2446 0.0584616 0
M  V30 3653 C 343.402 -5.56598 1.99883 0
M  V30 3654 H 342.332 -0.747163 0.101311 0
M  V30 3655 H 344.983 -1.59357 0.909819 0
M  V30 3656 H 343.365 -3.95234 -0.246263 0
M  V30 3657 H 344.539 -3.79853 2.60861 0
M  V30 3658 H 342.854 -3.5196 2.22515 0
M  V30 3659 H 345.451 -5.34549 0.127099 0
M  V30 3660 H 345.794 -4.04444 -0.986433 0
M  V30 3661 H 346.327 -3.9146 0.707374 0
M  V30 3662 H 343.066 -5.81494 3.02564 0
M  V30 3663 H 342.586 -5.85242 1.31346 0
M  V30 3664 H 344.265 -6.22022 1.78039 0
M  V30 3665 N 344.397 -0.483516 -1.5 0
M  V30 3666 C 345.625 0.0644831 -2.06799 0
M  V30 3667 C 346.04 1.32399 -1.34596 0
M  V30 3668 O 345.397 1.77626 -0.418946 0
M  V30 3669 C 345.448 0.339927 -3.59898 0
M  V30 3670 O 345.169 -0.869635 -4.29382 0
M  V30 3671 C 346.67 0.933515 -4.33359 0
M  V30 3672 H 343.89 -0.0126333 -0.670881 0
M  V30 3673 H 346.434 -0.675864 -1.93009 0
M  V30 3674 H 344.589 1.03022 -3.7345 0
M  V30 3675 H 345.003 -0.62179 -5.20801 0
M  V30 3676 H 346.477 1.07593 -5.41413 0
M  V30 3677 H 346.954 1.92685 -3.94676 0
M  V30 3678 H 347.56 0.281221 -4.24369 0
M  V30 3679 N 345.875 1.56104 -0.216619 0
M  V30 3680 C 347.123 1.97781 0.415593 0
M  V30 3681 C 347.444 1.10536 1.60645 0
M  V30 3682 O 346.714 0.181303 1.95059 0
M  V30 3683 H 345.294 0.730415 0.156534 0
M  V30 3684 H 347.956 1.92445 -0.308366 0
M  V30 3685 H 347.052 3.03072 0.74525 0
M  V30 3686 N 347.353 -0.0568162 1.57498 0
M  V30 3687 C 348.581 -0.765626 1.92213 0
M  V30 3688 C 348.996 -1.70353 0.813961 0
M  V30 3689 O 348.353 -1.81268 -0.211701 0
M  V30 3690 C 348.404 -1.5465 3.2675 0
M  V30 3691 O 348.125 -0.646278 4.33307 0
M  V30 3692 C 349.626 -2.35497 3.75574 0
M  V30 3693 H 346.846 -0.216835 0.634999 0
M  V30 3694 H 349.39 -0.0226146 2.04487 0
M  V30 3695 H 347.545 -2.24165 3.15957 0
M  V30 3696 H 347.959 -1.19093 5.108 0
M  V30 3697 H 349.433 -2.85722 4.72299 0
M  V30 3698 H 349.91 -3.15692 3.05344 0
M  V30 3699 H 350.516 -1.7111 3.8936 0
M  V30 3700 N 348.832 -1.54138 -0.328536 0
M  V30 3701 C 350.057 -1.76378 -1.09112 0
M  V30 3702 C 350.482 -0.508596 -1.81094 0
M  V30 3703 O 349.84 0.539598 -1.73084 0
M  V30 3704 C 349.888 -2.95358 -2.06872 0
M  V30 3705 O 348.992 -2.66556 -3.14677 0
M  V30 3706 H 348.333 -0.584614 -0.314838 0
M  V30 3707 H 350.863 -2.01146 -0.374348 0
M  V30 3708 H 350.873 -3.22566 -2.4983 0
M  V30 3709 H 349.548 -3.86385 -1.5388 0
M  V30 3710 H 348.125 -2.50282 -2.7643 0
M  V30 3711 N 350.31 0.590341 -1.46126 0
M  V30 3712 C 351.538 1.37504 -1.54597 0
M  V30 3713 C 351.953 1.87897 -0.184447 0
M  V30 3714 O 351.31 1.63192 0.816984 0
M  V30 3715 C 351.361 2.56779 -2.54454 0
M  V30 3716 O 351.082 2.08476 -3.85317 0
M  V30 3717 C 352.583 3.49427 -2.72792 0
M  V30 3718 H 349.803 0.420325 -0.523037 0
M  V30 3719 H 352.347 0.718383 -1.91467 0
M  V30 3720 H 350.502 3.1845 -2.20609 0
M  V30 3721 H 350.916 2.86097 -4.396 0
M  V30 3722 H 352.39 4.29619 -3.466 0
M  V30 3723 H 352.867 4.00876 -1.79429 0
M  V30 3724 H 353.473 2.93598 -3.07702 0
M  V30 3725 N 351.788 1.33704 0.83433 0
M  V30 3726 C 353.034 1.25603 1.59222 0
M  V30 3727 C 353.367 -0.176659 1.93395 0
M  V30 3728 O 352.642 -1.11915 1.59076 0
M  V30 3729 C 352.925 2.13576 2.89926 0
M  V30 3730 C 352.778 3.65326 2.62406 0
M  V30 3731 C 354.097 2.01238 3.91397 0
M  V30 3732 H 351.216 0.457613 0.577719 0
M  V30 3733 H 353.858 1.63848 0.961972 0
M  V30 3734 H 352.008 1.8109 3.43713 0
M  V30 3735 H 353.68 4.08124 2.15017 0
M  V30 3736 H 351.923 3.8698 1.96033 0
M  V30 3737 H 352.594 4.22232 3.55562 0
M  V30 3738 H 355.07 2.29738 3.46929 0
M  V30 3739 H 353.946 2.65036 4.80673 0
M  V30 3740 H 354.207 0.985951 4.30966 0
M  V30 3741 N 353.266 -1.05314 1.17247 0
M  V30 3742 C 354.514 -1.77941 0.958194 0
M  V30 3743 C 354.835 -1.88089 -0.514556 0
M  V30 3744 O 354.105 -1.39676 -1.37359 0
M  V30 3745 H 352.685 -0.659116 0.351533 0
M  V30 3746 H 355.347 -1.27166 1.47699 0
M  V30 3747 H 354.443 -2.79663 1.38546 0
M  V30 3748 N 354.744 -0.972509 -1.24016 0
M  V30 3749 C 355.99 -0.637978 -1.92504 0
M  V30 3750 C 356.323 0.825383 -1.75787 0
M  V30 3751 O 355.598 1.59442 -1.11393 0
M  V30 3752 C 355.881 -1.01942 -3.45369 0
M  V30 3753 C 355.734 -2.53983 -3.71231 0
M  V30 3754 C 357.053 -0.55751 -4.36555 0
M  V30 3755 H 354.172 -0.233248 -0.699117 0
M  V30 3756 H 356.814 -1.21238 -1.46292 0
M  V30 3757 H 354.964 -0.530656 -3.84859 0
M  V30 3758 H 356.636 -3.10374 -3.41271 0
M  V30 3759 H 354.879 -2.96968 -3.16216 0
M  V30 3760 H 355.55 -2.75723 -4.78206 0
M  V30 3761 H 358.026 -0.977029 -4.04467 0
M  V30 3762 H 356.902 -0.85292 -5.42233 0
M  V30 3763 H 357.163 0.542328 -4.38761 0
M  V30 3764 N 356.222 1.38976 -0.743202 0
M  V30 3765 C 357.47 1.99948 -0.29417 0
M  V30 3766 C 357.791 1.59279 1.12495 0
M  V30 3767 O 357.061 0.844808 1.76748 0
M  V30 3768 H 355.641 0.739473 -0.105774 0
M  V30 3769 H 358.303 1.699 -0.954986 0
M  V30 3770 H 357.399 3.10142 -0.349056 0
M  V30 3771 N 357.7 0.491464 1.49741 0
M  V30 3772 C 359.116 0.146835 1.58923 0
M  V30 3773 C 359.316 -1.34804 1.49767 0
M  V30 3774 O 358.372 -2.12317 1.36667 0
M  V30 3775 C 359.685 0.715157 2.92072 0
M  V30 3776 C 361.233 0.680407 3.05515 0
M  V30 3777 C 361.708 1.22663 4.41269 0
M  V30 3778 N 363.199 1.18691 4.47735 0
M  V30 3779 C 363.934 1.57984 5.51207 0
M  V30 3780 N 363.43 2.04824 6.6183 0
M  V30 3781 N 365.223 1.49459 5.41866 0
M  V30 3782 H 357.374 1.46347 1.53936 0
M  V30 3783 H 359.637 0.606453 0.728642 0
M  V30 3784 H 359.343 1.76317 3.04311 0
M  V30 3785 H 359.217 0.17018 3.76816 0
M  V30 3786 H 361.604 -0.358743 2.92911 0
M  V30 3787 H 361.685 1.26242 2.22478 0
M  V30 3788 H 361.329 2.26451 4.54623 0
M  V30 3789 H 361.259 0.620637 5.2293 0
M  V30 3790 H 363.75 0.843605 3.68364 0
M  V30 3791 H 364.063 2.32901 7.3687 0
M  V30 3792 H 362.408 2.08791 6.62896 0
M  V30 3793 H 365.599 1.12692 4.54333 0
M  V30 3794 H 365.772 1.80406 6.22381 0
M  V30 3795 N 359.178 -1.55987 0.224894 0
M  V30 3796 C 360.426 -1.97998 -0.405099 0
M  V30 3797 C 360.747 -1.11387 -1.60056 0
M  V30 3798 O 360.017 -0.191645 -1.9496 0
M  V30 3799 H 358.597 -0.731235 -0.152658 0
M  V30 3800 H 361.259 -1.92279 0.318567 0
M  V30 3801 H 360.355 -3.03463 -0.729167 0
M  V30 3802 N 360.656 0.0484629 -1.57525 0
M  V30 3803 C 361.902 0.744226 -1.88651 0
M  V30 3804 C 362.235 1.76029 -0.820212 0
M  V30 3805 O 361.51 1.93782 0.166985 0
M  V30 3806 C 361.793 1.43128 -3.30434 0
M  V30 3807 C 361.646 0.43005 -4.47739 0
M  V30 3808 C 362.965 2.37031 -3.70816 0
M  V30 3809 H 360.084 0.269089 -0.68612 0
M  V30 3810 H 362.726 0.00713532 -1.89999 0
M  V30 3811 H 360.876 2.05956 -3.29415 0
M  V30 3812 H 362.548 -0.194816 -4.60888 0
M  V30 3813 H 360.791 -0.252522 -4.33064 0
M  V30 3814 H 361.462 0.948874 -5.43783 0
M  V30 3815 H 363.938 1.84263 -3.73077 0
M  V30 3816 H 362.814 2.82094 -4.70865 0
M  V30 3817 H 363.075 3.22864 -3.02012 0
M  V30 3818 N 362.134 1.5431 0.320358 0
M  V30 3819 C 363.064 1.86912 1.3995 0
M  V30 3820 C 364.045 0.726211 1.53819 0
M  V30 3821 O 365.23 0.980233 1.67646 0
M  V30 3822 C 362.36 2.09932 2.7667 0
M  V30 3823 C 361.314 3.25776 2.77586 0
M  V30 3824 C 360.64 3.34173 4.17412 0
M  V30 3825 C 361.94 4.6335 2.41048 0
M  V30 3826 H 363.634 2.77292 1.12914 0
M  V30 3827 H 361.18 1.33421 0.541738 0
M  V30 3828 H 363.133 2.31324 3.52232 0
M  V30 3829 H 361.857 1.16304 3.0519 0
M  V30 3830 H 360.516 3.04276 2.04479 0
M  V30 3831 H 360.164 2.38098 4.43078 0
M  V30 3832 H 359.864 4.12033 4.18931 0
M  V30 3833 H 361.388 3.57803 4.94782 0
M  V30 3834 H 362.802 4.84602 3.06324 0
M  V30 3835 H 361.199 5.43782 2.53813 0
M  V30 3836 H 362.269 4.65381 1.36193 0
M  V30 3837 N 363.613 -0.582584 1.46437 0
M  V30 3838 C 364.861 -1.33814 1.51453 0
M  V30 3839 C 365.182 -1.94277 0.167792 0
M  V30 3840 O 364.452 -1.78566 -0.805677 0
M  V30 3841 H 363.032 -0.496838 0.557818 0
M  V30 3842 H 365.694 -0.682281 1.82568 0
M  V30 3843 H 364.79 -2.14479 2.26728 0
M  V30 3844 N 365.091 -1.34144 -0.827227 0
M  V30 3845 C 366.368 -1.16844 -1.56865 0
M  V30 3846 C 366.748 0.260654 -2.09485 0
M  V30 3847 O 366.096 1.26138 -1.9053 0
M  V30 3848 C 366.306 -2.21939 -2.6934 0
M  V30 3849 C 367.654 -2.56695 -3.3822 0
M  V30 3850 O 368.678 -2.20695 -2.79593 0
M  V30 3851 O 367.537 -3.18518 -4.44082 0
M  V30 3852 H 364.631 -0.452669 -0.692112 0
M  V30 3853 H 367.177 -1.45763 -0.868973 0
M  V30 3854 H 365.949 -3.17882 -2.28182 0
M  V30 3855 H 365.572 -1.94172 -3.46962 0
M  V30 3856 N 366.569 1.04691 -1.17803 0
M  V30 3857 C 367.501 2.12571 -0.857097 0
M  V30 3858 C 368.514 1.62174 0.142647 0
M  V30 3859 O 369.703 1.78301 -0.0843387 0
M  V30 3860 C 366.803 3.37915 -0.258216 0
M  V30 3861 C 365.976 4.1757 -1.30207 0
M  V30 3862 C 365.035 5.2125 -0.720029 0
M  V30 3863 O 364.061 5.51888 -1.39314 0
M  V30 3864 N 365.263 5.78466 0.485507 0
M  V30 3865 H 368.028 2.40698 -1.78562 0
M  V30 3866 H 365.589 1.20831 -1.07757 0
M  V30 3867 H 367.581 4.04442 0.144584 0
M  V30 3868 H 366.151 3.07281 0.574199 0
M  V30 3869 H 365.371 3.46458 -1.88043 0
M  V30 3870 H 366.659 4.67586 -2.00601 0
M  V30 3871 H 366.057 5.55866 1.05022 0
M  V30 3872 H 364.614 6.4649 0.830307 0
M  V30 3873 N 368.047 0.979072 1.23499 0
M  V30 3874 C 368.994 0.517904 2.24914 0
M  V30 3875 C 369.964 -0.442525 1.60097 0
M  V30 3876 O 371.149 -0.350365 1.87556 0
M  V30 3877 C 368.289 -0.174813 3.44657 0
M  V30 3878 C 367.402 0.825721 4.24035 0
M  V30 3879 C 366.537 0.107946 5.3109 0
M  V30 3880 C 365.576 1.09778 6.02175 0
M  V30 3881 N 364.713 0.40925 7.00906 0
M  V30 3882 H 369.553 1.38751 2.63727 0
M  V30 3883 H 367.09 0.695303 1.2963 0
M  V30 3884 H 369.048 -0.593233 4.12961 0
M  V30 3885 H 367.678 -1.0083 3.06648 0
M  V30 3886 H 366.73 1.36253 3.55161 0
M  V30 3887 H 368.042 1.58005 4.73113 0
M  V30 3888 H 367.196 -0.367904 6.05583 0
M  V30 3889 H 365.935 -0.678994 4.8295 0
M  V30 3890 H 364.94 1.5844 5.26476 0
M  V30 3891 H 366.165 1.88536 6.52404 0
M  V30 3892 H 364.111 -0.358506 6.5502 0
M  V30 3893 H 364.028 1.10226 7.47921 0
M  V30 3894 H 365.296 -0.0442557 7.79487 0
M  V30 3895 N 369.525 -1.3858 0.750561 0
M  V30 3896 C 370.473 -2.32339 0.110162 0
M  V30 3897 C 371.467 -1.53864 -0.708674 0
M  V30 3898 O 372.673 -1.69417 -0.608112 0
M  V30 3899 H 369.048 -0.751812 0.0168275 0
M  V30 3900 H 371.019 -2.83959 0.917053 0
M  V30 3901 C 369.768 -3.39043 -0.771067 0
M  V30 3902 H 369.091 -3.99517 -0.150374 0
M  V30 3903 H 370.531 -4.07061 -1.1865 0
M  V30 3904 C 368.99 -2.77365 -1.91234 0
M  V30 3905 O 369.52 -2.66434 -3.00626 0
M  V30 3906 N 367.726 -2.35219 -1.70646 0
M  V30 3907 H 367.273 -2.4431 -0.81673 0
M  V30 3908 H 367.231 -1.94294 -2.47178 0
M  V30 3909 N 371.003 -0.499398 -1.49478 0
M  V30 3910 C 372.252 0.0475259 -2.01644 0
M  V30 3911 C 372.565 1.38195 -1.38425 0
M  V30 3912 O 373.771 2.01547 -1.8191 0
M  V30 3913 C 372.227 0.135164 -3.59646 0
M  V30 3914 C 371.835 -1.19252 -4.31837 0
M  V30 3915 C 373.579 0.632538 -4.19761 0
M  V30 3916 C 371.486 -1.06713 -5.81693 0
M  V30 3917 H 370.416 0.0215349 -0.753692 0
M  V30 3918 H 373.067 -0.638577 -1.7203 0
M  V30 3919 H 371.449 0.885681 -3.85969 0
M  V30 3920 H 372.623 -1.9562 -4.17216 0
M  V30 3921 H 370.938 -1.62321 -3.83459 0
M  V30 3922 H 373.535 0.743833 -5.29501 0
M  V30 3923 H 373.878 1.63098 -3.83021 0
M  V30 3924 H 374.411 -0.0613987 -3.97753 0
M  V30 3925 H 371.15 -2.03979 -6.22955 0
M  V30 3926 H 370.67 -0.344307 -5.98811 0
M  V30 3927 H 372.349 -0.745208 -6.42694 0
M  V30 3928 N 372.481 1.55866 -0.233164 0
M  V30 3929 C 373.429 2.22176 0.68851 0
M  V30 3930 C 374.423 1.20487 1.19076 0
M  V30 3931 O 375.629 1.38536 1.14925 0
M  V30 3932 H 372.004 0.712511 0.240483 0
M  V30 3933 H 373.975 2.98212 0.105935 0
M  V30 3934 C 372.724 2.92446 1.88071 0
M  V30 3935 H 372.047 3.70458 1.50337 0
M  V30 3936 H 373.487 3.42226 2.50314 0
M  V30 3937 C 371.946 1.95555 2.74335 0
M  V30 3938 O 372.476 1.47986 3.73447 0
M  V30 3939 N 370.682 1.62953 2.40613 0
M  V30 3940 H 370.229 2.01831 1.60069 0
M  V30 3941 H 370.187 0.983886 2.98609 0
M  V30 3942 N 373.959 -0.0401083 1.57549 0
M  V30 3943 C 375.187 -0.745196 1.93014 0
M  V30 3944 C 375.602 -1.6948 0.831984 0
M  V30 3945 O 374.959 -1.81482 -0.192463 0
M  V30 3946 C 375.01 -1.51176 3.28372 0
M  V30 3947 O 374.731 -0.600284 4.33968 0
M  V30 3948 C 376.232 -2.315 3.78051 0
M  V30 3949 H 373.452 -0.210088 0.637263 0
M  V30 3950 H 375.996 -0.000924689 2.045 0
M  V30 3951 H 374.151 -2.20801 3.18317 0
M  V30 3952 H 374.565 -1.13669 5.12035 0
M  V30 3953 H 376.039 -2.80697 4.75303 0
M  V30 3954 H 376.516 -3.12436 3.08675 0
M  V30 3955 H 377.122 -1.66971 3.91153 0
M  V30 3956 N 375.437 -1.54477 -0.31217 0
M  V30 3957 C 376.665 -1.77205 -1.068 0
M  V30 3958 C 377.08 -0.526114 -1.81321 0
M  V30 3959 O 376.437 0.503647 -1.75413 0
M  V30 3960 C 376.488 -2.97253 -2.05725 0
M  V30 3961 O 376.209 -4.1703 -1.34228 0
M  V30 3962 C 377.71 -3.32281 -2.93435 0
M  V30 3963 H 374.93 -0.591287 -0.317208 0
M  V30 3964 H 377.474 -2.01398 -0.354834 0
M  V30 3965 H 375.629 -2.753 -2.72559 0
M  V30 3966 H 376.043 -4.84636 -2.00571 0
M  V30 3967 H 377.517 -4.19551 -3.58721 0
M  V30 3968 H 377.994 -2.49945 -3.61143 0
M  V30 3969 H 378.6 -3.56353 -2.32147 0
M  V30 3970 N 376.915 0.57481 -1.46744 0
M  V30 3971 C 378.145 1.35659 -1.55821 0
M  V30 3972 C 378.553 1.88129 -0.201036 0
M  V30 3973 O 377.896 1.64723 0.813134 0
M  V30 3974 C 377.958 2.57473 -2.50894 0
M  V30 3975 C 377.622 2.26415 -3.9697 0
M  V30 3976 C 378.619 1.84771 -4.85958 0
M  V30 3977 C 376.304 2.38316 -4.42166 0
M  V30 3978 C 378.298 1.55434 -6.18158 0
M  V30 3979 C 375.985 2.08591 -5.74398 0
M  V30 3980 C 376.983 1.67216 -6.62214 0
M  V30 3981 O 376.671 1.37859 -7.91991 0
M  V30 3982 H 376.403 0.420496 -0.529301 0
M  V30 3983 H 378.957 0.704967 -1.92923 0
M  V30 3984 H 377.187 3.25468 -2.08824 0
M  V30 3985 H 378.876 3.19546 -2.50291 0
M  V30 3986 H 379.642 1.75085 -4.52295 0
M  V30 3987 H 375.521 2.69483 -3.74032 0
M  V30 3988 H 379.065 1.23065 -6.86659 0
M  V30 3989 H 374.962 2.17905 -6.07608 0
M  V30 3990 H 375.73 1.51638 -8.04331 0
M  V30 3991 N 378.394 1.34581 0.820102 0
M  V30 3992 C 379.619 1.30333 1.61332 0
M  V30 3993 C 380.044 -0.119339 1.87721 0
M  V30 3994 O 379.402 -1.08197 1.45475 0
M  V30 3995 C 379.45 2.10258 2.92957 0
M  V30 3996 O 378.554 1.47404 3.85157 0
M  V30 3997 H 377.895 0.447488 0.490561 0
M  V30 3998 H 380.425 1.77425 1.01889 0
M  V30 3999 H 380.435 2.21718 3.42498 0
M  V30 4000 H 379.11 3.13693 2.73074 0
M  V30 4001 H 377.687 1.44703 3.43679 0
M  V30 4002 N 379.872 -1.04064 1.18357 0
M  V30 4003 C 381.1 -1.80916 1.00384 0
M  V30 4004 C 381.515 -1.83414 -0.447738 0
M  V30 4005 O 380.872 -1.26962 -1.31099 0
M  V30 4006 C 380.923 -3.26516 1.55144 0
M  V30 4007 O 380.644 -3.2424 2.94618 0
M  V30 4008 C 382.145 -4.20013 1.41789 0
M  V30 4009 H 379.365 -0.569728 0.354474 0
M  V30 4010 H 381.909 -1.31151 1.56906 0
M  V30 4011 H 380.064 -3.73512 1.02798 0
M  V30 4012 H 380.478 -4.15452 3.20156 0
M  V30 4013 H 381.952 -5.20111 1.84901 0
M  V30 4014 H 382.429 -4.37667 0.36661 0
M  V30 4015 H 383.035 -3.78881 1.93207 0
M  V30 4016 N 381.35 -0.985608 -1.22978 0
M  V30 4017 C 382.58 -0.674603 -1.95276 0
M  V30 4018 C 382.988 0.763483 -1.73111 0
M  V30 4019 O 382.331 1.52601 -1.02268 0
M  V30 4020 C 382.393 -0.891597 -3.48268 0
M  V30 4021 C 382.057 -2.31275 -3.94158 0
M  V30 4022 C 383.054 -3.29179 -4.02415 0
M  V30 4023 C 380.739 -2.64524 -4.27004 0
M  V30 4024 C 382.733 -4.58407 -4.42879 0
M  V30 4025 C 380.42 -3.93974 -4.67149 0
M  V30 4026 C 381.418 -4.90727 -4.75053 0
M  V30 4027 O 381.106 -6.17865 -5.14294 0
M  V30 4028 H 380.838 -0.249251 -0.628371 0
M  V30 4029 H 383.392 -1.32106 -1.5728 0
M  V30 4030 H 381.622 -0.187962 -3.86243 0
M  V30 4031 H 383.311 -0.576957 -4.01779 0
M  V30 4032 H 384.077 -3.04823 -3.77237 0
M  V30 4033 H 379.956 -1.89923 -4.2006 0
M  V30 4034 H 383.5 -5.33926 -4.48964 0
M  V30 4035 H 379.397 -4.18122 -4.91777 0
M  V30 4036 H 380.165 -6.21694 -5.32389 0
M  V30 4037 N 382.828 1.3818 -0.7579 0
M  V30 4038 C 384.058 2.04004 -0.326463 0
M  V30 4039 C 384.466 1.57286 1.05156 0
M  V30 4040 O 383.809 0.743144 1.67997 0
M  V30 4041 C 383.871 3.58444 -0.275402 0
M  V30 4042 C 383.535 4.28237 -1.59569 0
M  V30 4043 C 384.532 4.53312 -2.54566 0
M  V30 4044 C 382.217 4.66341 -1.86631 0
M  V30 4045 C 384.211 5.15531 -3.74842 0
M  V30 4046 C 381.898 5.28283 -3.0718 0
M  V30 4047 C 382.896 5.52814 -4.01106 0
M  V30 4048 O 382.584 6.13465 -5.19534 0
M  V30 4049 H 382.316 0.662026 -0.136739 0
M  V30 4050 H 384.87 1.7777 -1.02893 0
M  V30 4051 H 383.1 3.83667 0.483337 0
M  V30 4052 H 384.789 4.05701 0.127099 0
M  V30 4053 H 385.555 4.24299 -2.34936 0
M  V30 4054 H 381.434 4.46591 -1.14358 0
M  V30 4055 H 384.978 5.34594 -4.48168 0
M  V30 4056 H 380.875 5.56719 -3.26702 0
M  V30 4057 H 381.643 6.31951 -5.20173 0
M  V30 4058 N 384.306 0.507319 1.49211 0
M  V30 4059 C 385.536 -0.0315292 2.06576 0
M  V30 4060 C 385.944 -1.30791 1.36713 0
M  V30 4061 O 385.287 -1.78324 0.441181 0
M  V30 4062 C 385.349 -0.349104 3.57801 0
M  V30 4063 C 385.013 0.830475 4.49391 0
M  V30 4064 C 386.01 1.72271 4.90529 0
M  V30 4065 C 383.695 1.03107 4.91604 0
M  V30 4066 C 385.689 2.79964 5.72625 0
M  V30 4067 C 383.376 2.11116 5.73475 0
M  V30 4068 C 384.374 2.99379 6.1389 0
M  V30 4069 O 384.062 4.05523 6.94123 0
M  V30 4070 H 383.794 0.0201002 0.675701 0
M  V30 4071 H 386.348 0.705737 1.92895 0
M  V30 4072 H 384.578 -1.14005 3.69513 0
M  V30 4073 H 386.267 -0.827319 3.97379 0
M  V30 4074 H 387.033 1.57958 4.58557 0
M  V30 4075 H 382.912 0.353417 4.59643 0
M  V30 4076 H 386.456 3.48884 6.04091 0
M  V30 4077 H 382.353 2.25421 6.0486 0
M  V30 4078 H 383.121 4.02953 7.1244 0
M  V30 4079 N 385.784 -1.5574 0.241426 0
M  V30 4080 C 386.714 -2.24133 -0.654722 0
M  V30 4081 C 387.695 -1.21974 -1.1856 0
M  V30 4082 O 388.88 -1.50612 -1.22595 0
M  V30 4083 C 386.01 -2.93659 -1.85423 0
M  V30 4084 C 384.964 -4.0246 -1.45636 0
M  V30 4085 C 384.29 -4.59383 -2.73626 0
M  V30 4086 C 385.59 -5.18468 -0.631506 0
M  V30 4087 H 387.284 -2.99281 -0.0844353 0
M  V30 4088 H 384.83 -1.43947 -0.0391707 0
M  V30 4089 H 386.783 -3.40203 -2.48676 0
M  V30 4090 H 385.507 -2.15991 -2.44981 0
M  V30 4091 H 384.166 -3.56676 -0.847202 0
M  V30 4092 H 383.814 -3.78422 -3.3137 0
M  V30 4093 H 383.514 -5.32826 -2.4773 0
M  V30 4094 H 385.038 -5.08658 -3.37786 0
M  V30 4095 H 386.452 -5.61272 -1.1682 0
M  V30 4096 H 384.849 -5.98266 -0.468831 0
M  V30 4097 H 385.919 -4.8358 0.357506 0
M  V30 4098 N 387.262 0.0317525 -1.57568 0
M  V30 4099 C 388.194 1.06073 -2.03178 0
M  V30 4100 C 389.207 1.32627 -0.944132 0
M  V30 4101 O 390.396 1.30162 -1.22148 0
M  V30 4102 C 387.496 2.40297 -2.38978 0
M  V30 4103 C 386.669 2.33137 -3.70089 0
M  V30 4104 C 385.728 3.49787 -3.9311 0
M  V30 4105 O 384.754 3.29403 -4.64201 0
M  V30 4106 N 385.956 4.71562 -3.38541 0
M  V30 4107 H 388.721 0.672006 -2.92069 0
M  V30 4108 H 386.282 0.219745 -1.60402 0
M  V30 4109 H 388.274 3.1705 -2.51518 0
M  V30 4110 H 386.844 2.71024 -1.55771 0
M  V30 4111 H 386.064 1.415 -3.67928 0
M  V30 4112 H 387.352 2.25493 -4.56104 0
M  V30 4113 H 386.75 4.91024 -2.80912 0
M  V30 4114 H 385.307 5.45689 -3.56464 0
M  V30 4115 N 388.74 1.54641 0.303973 0
M  V30 4116 C 390.017 1.64455 1.05896 0
M  V30 4117 C 390.397 0.490923 2.05312 0
M  V30 4118 O 389.745 -0.512685 2.22674 0
M  V30 4119 C 389.955 3.02331 1.74347 0
M  V30 4120 C 391.303 3.59045 2.26653 0
M  V30 4121 O 392.327 3.04764 1.84384 0
M  V30 4122 O 391.186 4.54081 3.04093 0
M  V30 4123 H 388.28 0.666729 0.489287 0
M  V30 4124 H 390.826 1.66986 0.302298 0
M  V30 4125 H 389.598 3.77734 1.02142 0
M  V30 4126 H 389.221 3.03565 2.56777 0
M  V30 4127 N 390.218 -0.567019 1.47046 0
M  V30 4128 C 391.166 -1.69593 1.59188 0
M  V30 4129 C 392.16 -1.63046 0.459609 0
M  V30 4130 O 393.366 -1.6835 0.637058 0
M  V30 4131 H 389.741 -0.560993 0.500791 0
M  V30 4132 H 391.712 -1.56488 2.54075 0
M  V30 4133 C 390.461 -3.07964 1.61411 0
M  V30 4134 H 389.784 -3.13679 2.47881 0
M  V30 4135 H 391.224 -3.86671 1.73958 0
M  V30 4136 C 389.683 -3.35123 0.34559 0
M  V30 4137 O 390.213 -3.97812 -0.557521 0
M  V30 4138 N 388.419 -2.89699 0.22864 0
M  V30 4139 H 387.966 -2.38863 0.964479 0
M  V30 4140 H 387.924 -3.08242 -0.619192 0
M  V30 4141 N 391.696 -1.35014 -0.812953 0
M  V30 4142 C 392.924 -1.31031 -1.6012 0
M  V30 4143 C 393.339 0.113558 -1.88458 0
M  V30 4144 O 392.696 1.06363 -1.48301 0
M  V30 4145 C 392.747 -2.10872 -2.93624 0
M  V30 4146 O 392.468 -3.47706 -2.66518 0
M  V30 4147 C 393.969 -2.14401 -3.88004 0
M  V30 4148 H 391.189 -0.45037 -0.497401 0
M  V30 4149 H 393.733 -1.77775 -1.01076 0
M  V30 4150 H 391.888 -1.67744 -3.492 0
M  V30 4151 H 392.302 -3.89097 -3.51715 0
M  V30 4152 H 393.776 -2.74669 -4.78812 0
M  V30 4153 H 394.253 -1.14105 -4.24119 0
M  V30 4154 H 394.859 -2.57662 -3.38364 0
M  V30 4155 N 393.175 1.03435 -1.18907 0
M  V30 4156 C 394.591 1.28973 -0.940111 0
M  V30 4157 C 394.791 1.97676 0.390691 0
M  V30 4158 O 393.847 2.26127 1.12352 0
M  V30 4159 C 395.16 2.14221 -2.11021 0
M  V30 4160 C 396.708 2.27547 -2.14922 0
M  V30 4161 C 397.183 3.16164 -3.31367 0
M  V30 4162 N 398.674 3.23752 -3.31269 0
M  V30 4163 C 399.409 3.92495 -4.18014 0
M  V30 4164 N 398.905 4.63515 -5.14904 0
M  V30 4165 N 400.698 3.88838 -4.05908 0
M  V30 4166 H 392.849 0.57252 -2.04538 0
M  V30 4167 H 395.112 0.315184 -0.894071 0
M  V30 4168 H 394.818 1.71054 -3.073 0
M  V30 4169 H 394.692 3.14919 -2.0762 0
M  V30 4170 H 397.079 2.69947 -1.19217 0
M  V30 4171 H 397.16 1.26418 -2.22378 0
M  V30 4172 H 396.804 2.74474 -4.27348 0
M  V30 4173 H 396.734 4.17339 -3.21148 0
M  V30 4174 H 399.225 2.73167 -2.61129 0
M  V30 4175 H 399.538 5.13583 -5.77453 0
M  V30 4176 H 397.883 4.62398 -5.18857 0
M  V30 4177 H 401.074 3.32491 -3.29495 0
M  V30 4178 H 401.247 4.4214 -4.73726 0
M  V30 4179 N 394.653 0.992116 1.22453 0
M  V30 4180 C 395.901 0.666215 1.90804 0
M  V30 4181 C 396.222 -0.804152 1.77647 0
M  V30 4182 O 395.492 -1.57629 1.16318 0
M  V30 4183 H 394.072 0.243423 0.706225 0
M  V30 4184 H 396.734 1.25845 1.48825 0
M  V30 4185 H 395.83 0.928069 2.97982 0
M  V30 4186 N 396.131 -1.37776 0.765217 0
M  V30 4187 C 397.079 -2.32209 0.134798 0
M  V30 4188 C 398.073 -1.54607 -0.692315 0
M  V30 4189 O 399.279 -1.70052 -0.590109 0
M  V30 4190 H 395.654 -0.751591 0.0248005 0
M  V30 4191 H 397.625 -2.8297 0.947119 0
M  V30 4192 C 396.374 -3.39841 -0.735063 0
M  V30 4193 H 395.697 -3.99654 -0.107991 0
M  V30 4194 H 397.137 -4.08296 -1.14326 0
M  V30 4195 C 395.596 -2.79378 -1.88281 0
M  V30 4196 O 396.126 -2.69608 -2.97783 0
M  V30 4197 N 394.332 -2.37016 -1.68142 0
M  V30 4198 H 393.879 -2.45162 -0.790772 0
M  V30 4199 H 393.837 -1.96905 -2.45104 0
M  V30 4200 N 397.609 -0.515225 -1.4894 0
M  V30 4201 C 398.857 0.0241671 -2.02086 0
M  V30 4202 C 399.178 1.3616 -1.3959 0
M  V30 4203 O 398.448 1.87841 -0.556121 0
M  V30 4204 H 397.028 0.0119203 -0.746905 0
M  V30 4205 H 399.69 -0.675702 -1.82812 0
M  V30 4206 H 398.786 0.143385 -3.1177 0
M  V30 4207 N 399.087 1.5561 -0.249682 0
M  V30 4208 C 400.336 1.98187 0.37479 0
M  V30 4209 C 400.649 1.14111 1.58865 0
M  V30 4210 O 401.855 1.46714 2.28445 0
M  V30 4211 C 400.311 3.52661 0.718192 0
M  V30 4212 C 399.919 4.45481 -0.474428 0
M  V30 4213 C 401.663 4.03888 1.3067 0
M  V30 4214 C 399.57 5.91303 -0.107026 0
M  V30 4215 H 398.5 0.740159 0.143808 0
M  V30 4216 H 401.151 1.80125 -0.350336 0
M  V30 4217 H 399.533 3.66429 1.50152 0
M  V30 4218 H 400.707 4.43473 -1.25172 0
M  V30 4219 H 399.022 4.04751 -0.978052 0
M  V30 4220 H 401.619 5.10358 1.59496 0
M  V30 4221 H 401.962 3.51401 2.23211 0
M  V30 4222 H 402.495 3.93457 0.586211 0
M  V30 4223 H 399.234 6.47833 -0.999642 0
M  V30 4224 H 398.754 5.9644 0.634013 0
M  V30 4225 H 400.433 6.46258 0.309807 0
M  V30 4226 N 400.565 -0.0233959 1.57583 0
M  V30 4227 C 401.812 -0.713063 1.8953 0
M  V30 4228 C 402.14 -1.75056 0.847673 0
M  V30 4229 O 401.395 -1.95119 -0.150636 0
M  V30 4230 C 401.694 -1.41428 3.28227 0
M  V30 4231 C 401.36 -0.512222 4.47981 0
M  V30 4232 C 400.022 -0.263785 4.80476 0
M  V30 4233 C 402.374 0.110248 5.21083 0
M  V30 4234 C 399.702 0.615804 5.83459 0
M  V30 4235 C 402.054 0.977573 6.25001 0
M  V30 4236 C 400.718 1.23542 6.55968 0
M  V30 4237 H 399.988 -0.260928 0.69354 0
M  V30 4238 H 402.635 0.0271047 1.91481 0
M  V30 4239 H 400.94 -2.22791 3.22291 0
M  V30 4240 H 402.637 -1.95355 3.50196 0
M  V30 4241 H 399.227 -0.716013 4.22577 0
M  V30 4242 H 403.411 -0.0687137 4.96252 0
M  V30 4243 H 398.667 0.82382 6.05824 0
M  V30 4244 H 402.841 1.46638 6.80786 0
M  V30 4245 H 400.468 1.91871 7.35588 0
M  V30 4246 N 402.043 -1.548 -0.295768 0
M  V30 4247 C 403.271 -1.78327 -1.04914 0
M  V30 4248 C 403.686 -0.545316 -1.80753 0
M  V30 4249 O 403.043 0.485013 -1.75937 0
M  V30 4250 C 403.094 -2.99418 -2.02561 0
M  V30 4251 O 402.815 -4.18431 -1.29798 0
M  V30 4252 C 404.316 -3.35375 -2.89895 0
M  V30 4253 H 401.536 -0.594618 -0.310918 0
M  V30 4254 H 404.08 -2.01763 -0.333454 0
M  V30 4255 H 402.235 -2.78175 -2.69624 0
M  V30 4256 H 402.649 -4.86736 -1.95419 0
M  V30 4257 H 404.123 -4.23332 -3.54251 0
M  V30 4258 H 404.6 -2.53761 -3.58472 0
M  V30 4259 H 405.206 -3.58796 -2.28355 0
M  V30 4260 N 403.521 0.559213 -1.47345 0
M  V30 4261 C 404.751 1.33999 -1.57251 0
M  V30 4262 C 405.159 1.87905 -0.220978 0
M  V30 4263 O 404.502 1.65577 0.795617 0
M  V30 4264 C 404.564 2.54798 -2.53611 0
M  V30 4265 C 404.228 2.22192 -3.99349 0
M  V30 4266 C 405.225 1.79607 -4.87891 0
M  V30 4267 C 402.91 2.33613 -4.44669 0
M  V30 4268 C 404.904 1.48868 -6.19772 0
M  V30 4269 C 402.591 2.02487 -5.76578 0
M  V30 4270 C 403.589 1.60183 -6.63951 0
M  V30 4271 O 403.277 1.29451 -7.93409 0
M  V30 4272 H 403.009 0.414858 -0.533731 0
M  V30 4273 H 405.563 0.684465 -1.9366 0
M  V30 4274 H 403.793 3.23235 -2.12265 0
M  V30 4275 H 405.482 3.16873 -2.53666 0
M  V30 4276 H 406.248 1.70278 -4.54126 0
M  V30 4277 H 402.127 2.65501 -3.76869 0
M  V30 4278 H 405.671 1.15775 -6.87926 0
M  V30 4279 H 401.568 2.11448 -6.09885 0
M  V30 4280 H 402.336 1.43098 -8.05894 0
M  V30 4281 N 404.999 1.35443 0.805782 0
M  V30 4282 C 406.276 1.19325 1.54987 0
M  V30 4283 C 406.656 -0.227294 2.09873 0
M  V30 4284 O 406.004 -1.2309 1.92512 0
M  V30 4285 C 406.214 2.26196 2.65775 0
M  V30 4286 C 407.562 2.62043 3.34094 0
M  V30 4287 O 408.586 2.25115 2.76046 0
M  V30 4288 O 407.445 3.25542 4.38958 0
M  V30 4289 H 404.539 0.463623 0.684823 0
M  V30 4290 H 407.085 1.47127 0.845674 0
M  V30 4291 H 405.857 3.21471 2.23096 0
M  V30 4292 H 405.48 1.99667 3.43829 0
M  V30 4293 N 406.477 -1.02803 1.19454 0
M  V30 4294 C 407.44 -2.09264 0.934955 0
M  V30 4295 C 408.44 -1.60576 -0.0849015 0
M  V30 4296 O 409.63 -1.73554 0.149933 0
M  V30 4297 C 406.762 -3.38482 0.40531 0
M  V30 4298 H 407.955 -2.33726 1.87916 0
M  V30 4299 H 405.508 -1.19426 1.00832 0
M  V30 4300 H 406.243 -3.19689 -0.544899 0
M  V30 4301 H 406.028 -3.75142 1.14065 0
M  V30 4302 H 407.518 -4.16894 0.242806 0
M  V30 4303 N 407.956 -0.998596 -1.21925 0
M  V30 4304 C 408.903 -0.553621 -2.24062 0
M  V30 4305 C 409.873 0.416999 -1.6078 0
M  V30 4306 O 411.058 0.320482 -1.88089 0
M  V30 4307 C 408.198 0.119959 -3.44891 0
M  V30 4308 C 407.311 -0.893077 -4.22668 0
M  V30 4309 C 406.446 -0.192424 -5.30851 0
M  V30 4310 C 405.485 -1.19344 -6.00353 0
M  V30 4311 N 404.622 -0.520707 -7.00166 0
M  V30 4312 H 409.462 -1.4293 -2.61486 0
M  V30 4313 H 406.999 -0.715838 -1.28507 0
M  V30 4314 H 408.957 0.527459 -4.13852 0
M  V30 4315 H 407.587 0.959389 -3.08214 0
M  V30 4316 H 406.639 -1.41886 -3.52948 0
M  V30 4317 H 407.951 -1.65512 -4.70539 0
M  V30 4318 H 407.105 0.271515 -6.06092 0
M  V30 4319 H 405.844 0.602075 -4.83969 0
M  V30 4320 H 404.849 -1.66795 -5.23889 0
M  V30 4321 H 406.074 -1.98891 -6.49322 0
M  V30 4322 H 404.02 0.254252 -6.55507 0
M  V30 4323 H 403.937 -1.2211 -7.46073 0
M  V30 4324 H 405.205 -0.0797596 -7.79459 0
M  V30 4325 N 409.434 1.37368 -0.772513 0
M  V30 4326 C 410.664 2.03647 -0.348082 0
M  V30 4327 C 411.072 1.58392 1.03482 0
M  V30 4328 O 410.415 0.760921 1.672 0
M  V30 4329 C 410.477 3.58131 -0.313404 0
M  V30 4330 C 410.141 4.2652 -1.64102 0
M  V30 4331 C 411.138 4.50587 -2.5936 0
M  V30 4332 C 408.823 4.64335 -1.91567 0
M  V30 4333 C 410.817 5.11526 -3.80289 0
M  V30 4334 C 408.504 5.24996 -3.12766 0
M  V30 4335 C 409.502 5.48529 -4.06946 0
M  V30 4336 O 409.19 6.07921 -5.26011 0
M  V30 4337 H 408.922 0.660538 -0.143753 0
M  V30 4338 H 411.476 1.76669 -1.04772 0
M  V30 4339 H 409.706 3.84159 0.442617 0
M  V30 4340 H 411.395 4.05813 0.0840613 0
M  V30 4341 H 412.161 4.21784 -2.39423 0
M  V30 4342 H 408.04 4.45353 -1.19088 0
M  V30 4343 H 411.584 5.29811 -4.53813 0
M  V30 4344 H 407.481 5.53223 -3.32588 0
M  V30 4345 H 408.249 6.26398 -5.26847 0
M  V30 4346 N 410.912 0.523116 1.48665 0
M  V30 4347 C 412.328 0.180511 1.58576 0
M  V30 4348 C 412.528 -1.31597 1.52592 0
M  V30 4349 O 411.584 -2.0937 1.4114 0
M  V30 4350 C 412.897 0.776949 2.90489 0
M  V30 4351 C 414.445 0.745058 3.04003 0
M  V30 4352 C 414.92 1.31995 4.38567 0
M  V30 4353 N 416.411 1.28162 4.45117 0
M  V30 4354 C 417.146 1.6964 5.47731 0
M  V30 4355 N 416.642 2.18816 6.57337 0
M  V30 4356 N 418.435 1.6092 5.38573 0
M  V30 4357 H 410.586 1.4958 1.50797 0
M  V30 4358 H 412.849 0.621772 0.715614 0
M  V30 4359 H 412.555 1.82732 3.00503 0
M  V30 4360 H 412.429 0.25007 3.7637 0
M  V30 4361 H 414.816 -0.296532 2.93606 0
M  V30 4362 H 414.897 1.30933 2.1975 0
M  V30 4363 H 414.541 2.36043 4.49718 0
M  V30 4364 H 414.471 0.731418 5.21496 0
M  V30 4365 H 416.962 0.92155 3.66491 0
M  V30 4366 H 417.275 2.48478 7.31764 0
M  V30 4367 H 415.62 2.22805 6.58318 0
M  V30 4368 H 418.811 1.22304 4.5184 0
M  V30 4369 H 418.984 1.93567 6.18414 0
M  V30 4370 N 412.39 -1.55475 0.257931 0
M  V30 4371 C 413.618 -2.03609 -0.367559 0
M  V30 4372 C 414.033 -1.13687 -1.50734 0
M  V30 4373 O 413.39 -0.153479 -1.81853 0
M  V30 4374 C 413.441 -3.51001 -0.864908 0
M  V30 4375 O 413.162 -4.37499 0.229465 0
M  V30 4376 C 414.663 -4.14946 -1.55997 0
M  V30 4377 H 411.883 -0.665459 -0.0860521 0
M  V30 4378 H 414.427 -2.00843 0.385014 0
M  V30 4379 H 412.582 -3.54266 -1.56762 0
M  V30 4380 H 412.996 -5.24286 -0.14998 0
M  V30 4381 H 414.47 -5.19735 -1.85956 0
M  V30 4382 H 414.947 -3.6209 -2.4857 0
M  V30 4383 H 415.553 -4.15635 -0.901543 0
M  V30 4384 N 413.868 0.0150385 -1.57593 0
M  V30 4385 C 415.096 0.714395 -1.94175 0
M  V30 4386 C 415.511 1.68135 -0.858841 0
M  V30 4387 O 414.868 1.81766 0.163567 0
M  V30 4388 C 414.919 1.45933 -3.30735 0
M  V30 4389 O 414.64 0.531167 -4.34868 0
M  V30 4390 C 416.141 2.25456 -3.81686 0
M  V30 4391 H 413.361 0.199923 -0.640525 0
M  V30 4392 H 415.905 -0.0316096 -2.04476 0
M  V30 4393 H 414.06 2.15709 -3.21789 0
M  V30 4394 H 414.474 1.05509 -5.13778 0
M  V30 4395 H 415.948 2.731 -4.79709 0
M  V30 4396 H 416.425 3.07485 -3.13607 0
M  V30 4397 H 417.031 1.60727 -3.9376 0
M  V30 4398 N 415.346 1.54954 0.287554 0
M  V30 4399 C 416.276 1.89839 1.35954 0
M  V30 4400 C 417.257 0.758675 1.52244 0
M  V30 4401 O 418.442 1.01557 1.65529 0
M  V30 4402 C 415.572 2.15753 2.72154 0
M  V30 4403 C 414.526 3.3159 2.70614 0
M  V30 4404 C 413.852 3.42952 4.10229 0
M  V30 4405 C 415.152 4.68359 2.31165 0
M  V30 4406 H 416.846 2.79625 1.07007 0
M  V30 4407 H 414.392 1.3454 0.513316 0
M  V30 4408 H 416.345 2.38743 3.47246 0
M  V30 4409 H 415.069 1.22752 3.02654 0
M  V30 4410 H 413.728 3.08545 1.97979 0
M  V30 4411 H 413.376 2.47443 4.37928 0
M  V30 4412 H 413.076 4.20826 4.10097 0
M  V30 4413 H 414.6 3.68218 4.87081 0
M  V30 4414 H 416.014 4.9099 2.95976 0
M  V30 4415 H 414.411 5.49044 2.42221 0
M  V30 4416 H 415.481 4.68165 1.26291 0
M  V30 4417 N 416.824 -0.551391 1.4764 0
M  V30 4418 C 418.235 -1.13349 1.48354 0
M  V30 4419 C 418.586 -1.94709 0.241432 0
M  V30 4420 O 417.711 -2.06306 -0.653205 0
M  V30 4421 C 418.306 -2.0623 2.68802 0
M  V30 4422 C 416.865 -2.597 2.72457 0
M  V30 4423 C 416.012 -1.36201 2.41546 0
M  V30 4424 H 418.963 -0.337698 1.55065 0
M  V30 4425 H 418.984 -2.90196 2.46103 0
M  V30 4426 H 418.496 -1.46987 3.59188 0
M  V30 4427 H 416.597 -3.22724 1.86225 0
M  V30 4428 H 416.71 -3.00296 3.73308 0
M  V30 4429 H 415.074 -1.67068 1.9225 0
M  V30 4430 H 415.857 -0.787425 3.34147 0
M  V30 4431 N 418.302 -1.35869 -0.798587 0
M  V30 4432 C 419.55 -1.29332 -1.55298 0
M  V30 4433 C 419.871 0.129729 -1.94568 0
M  V30 4434 O 419.141 1.06796 -1.6423 0
M  V30 4435 H 417.721 -0.475737 -0.57592 0
M  V30 4436 H 420.383 -1.70062 -0.952093 0
M  V30 4437 H 419.479 -1.91458 -2.46476 0
M  V30 4438 N 419.78 1.02168 -1.19998 0
M  V30 4439 C 421.005 1.79833 -1.03319 0
M  V30 4440 C 421.43 1.83504 0.413281 0
M  V30 4441 O 420.788 1.26635 1.29743 0
M  V30 4442 C 420.836 3.22396 -1.61533 0
M  V30 4443 O 419.94 4.03555 -0.849519 0
M  V30 4444 H 419.281 0.554872 -0.364709 0
M  V30 4445 H 421.811 1.28542 -1.59179 0
M  V30 4446 H 421.821 3.73124 -1.65054 0
M  V30 4447 H 420.496 3.19039 -2.66809 0
M  V30 4448 H 419.073 3.62169 -0.888129 0
M  V30 4449 N 421.258 1.00505 1.21394 0
M  V30 4450 C 422.188 0.585684 2.26035 0
M  V30 4451 C 423.169 -0.393525 1.65485 0
M  V30 4452 O 424.354 -0.281497 1.92149 0
M  V30 4453 C 421.484 -0.0884283 3.47187 0
M  V30 4454 C 420.438 0.810567 4.20254 0
M  V30 4455 C 419.764 0.00286382 5.347 0
M  V30 4456 C 421.064 2.1132 4.77641 0
M  V30 4457 H 422.758 1.46039 2.61368 0
M  V30 4458 H 420.304 0.703648 1.25638 0
M  V30 4459 H 422.257 -0.393286 4.19561 0
M  V30 4460 H 420.981 -0.997766 3.10986 0
M  V30 4461 H 419.64 1.09925 3.49731 0
M  V30 4462 H 419.288 -0.907765 4.94741 0
M  V30 4463 H 418.988 0.601444 5.84514 0
M  V30 4464 H 420.512 -0.295808 6.09883 0
M  V30 4465 H 421.926 1.87148 5.41893 0
M  V30 4466 H 420.323 2.66164 5.37845 0
M  V30 4467 H 421.393 2.78393 3.9702 0
M  V30 4468 N 422.737 -1.36956 0.779787 0
M  V30 4469 C 423.983 -2.00237 0.357324 0
M  V30 4470 C 424.338 -1.60787 -1.05666 0
M  V30 4471 O 423.631 -0.847836 -1.71821 0
M  V30 4472 C 423.825 -3.54585 0.447686 0
M  V30 4473 C 423.654 -4.09025 1.86891 0
M  V30 4474 C 422.424 -4.39612 2.49138 0
M  V30 4475 C 424.622 -4.29461 2.82963 0
M  V30 4476 N 422.604 -4.79816 3.82949 0
M  V30 4477 C 423.975 -4.72363 4.01588 0
M  V30 4478 C 426.03 -4.1161 2.80145 0
M  V30 4479 C 424.733 -4.99284 5.17791 0
M  V30 4480 C 426.759 -4.39672 3.95528 0
M  V30 4481 C 426.121 -4.82822 5.12896 0
M  V30 4482 H 422.22 -0.76148 0.177968 0
M  V30 4483 H 424.804 -1.6613 1.01533 0
M  V30 4484 H 422.975 -3.87982 -0.180184 0
M  V30 4485 H 424.707 -4.047 0.0023955 0
M  V30 4486 H 421.462 -4.28975 2.00693 0
M  V30 4487 H 421.886 -5.04216 4.51769 0
M  V30 4488 H 426.528 -3.77415 1.90572 0
M  V30 4489 H 424.246 -5.32365 6.07958 0
M  V30 4490 H 427.832 -4.27441 3.94697 0
M  V30 4491 H 426.712 -5.04118 6.00695 0
M  V30 4492 N 424.215 -0.530993 -1.48385 0
M  V30 4493 C 425.178 0.220497 -2.28137 0
M  V30 4494 C 426.178 0.866851 -1.35434 0
M  V30 4495 O 427.368 0.726746 -1.58316 0
M  V30 4496 C 424.5 1.31921 -3.1434 0
M  V30 4497 H 425.693 -0.479714 -2.96038 0
M  V30 4498 H 423.246 -0.286968 -1.53643 0
M  V30 4499 H 423.981 2.05264 -2.51072 0
M  V30 4500 H 423.766 0.86085 -3.82533 0
M  V30 4501 H 425.256 1.84776 -3.74497 0
M  V30 4502 N 425.693 1.55336 -0.266172 0
M  V30 4503 C 426.97 1.91372 0.404486 0
M  V30 4504 C 427.35 1.18935 1.74407 0
M  V30 4505 O 426.698 0.3132 2.26343 0
M  V30 4506 C 426.908 3.44581 0.553593 0
M  V30 4507 C 428.256 4.16196 0.840618 0
M  V30 4508 O 429.28 3.50426 0.638739 0
M  V30 4509 O 428.139 5.32567 1.22618 0
M  V30 4510 H 425.233 0.797194 0.220025 0
M  V30 4511 H 427.779 1.66813 -0.311664 0
M  V30 4512 H 426.551 3.89357 -0.389498 0
M  V30 4513 H 426.174 3.75065 1.31955 0
M  V30 4514 N 427.171 -0.0066808 1.57599 0
M  V30 4515 C 428.134 -0.985035 2.06953 0
M  V30 4516 C 429.134 -1.27663 0.977687 0
M  V30 4517 O 430.324 -1.22293 1.24057 0
M  V30 4518 C 427.456 -2.3118 2.50536 0
M  V30 4519 H 428.649 -0.558255 2.94658 0
M  V30 4520 H 426.202 -0.254011 1.54222 0
M  V30 4521 H 426.937 -2.78561 1.66054 0
M  V30 4522 H 426.722 -2.11338 3.3027 0
M  V30 4523 H 428.212 -3.01377 2.8907 0
M  V30 4524 N 428.649 -1.55105 -0.279332 0
M  V30 4525 C 429.926 -1.66119 -1.03267 0
M  V30 4526 C 430.306 -0.523525 -2.04505 0
M  V30 4527 O 429.654 0.477194 -2.23462 0
M  V30 4528 C 429.864 -3.05067 -1.69515 0
M  V30 4529 C 431.212 -3.62606 -2.20912 0
M  V30 4530 O 432.236 -3.07659 -1.79512 0
M  V30 4531 O 431.095 -4.58861 -2.96831 0
M  V30 4532 H 428.189 -0.674429 -0.478618 0
M  V30 4533 H 430.735 -1.67446 -0.275694 0
M  V30 4534 H 429.507 -3.79311 -0.9612 0
M  V30 4535 H 429.13 -3.07611 -2.51915 0
M  V30 4536 N 430.127 0.543554 -1.4793 0
M  V30 4537 C 431.075 1.67039 -1.61866 0
M  V30 4538 C 432.069 1.62294 -0.48549 0
M  V30 4539 O 433.275 1.67315 -0.66376 0
M  V30 4540 H 429.65 0.552954 -0.509652 0
M  V30 4541 H 431.621 1.52426 -2.56533 0
M  V30 4542 C 430.37 3.05357 -1.6629 0
M  V30 4543 H 429.693 3.09696 -2.5284 0
M  V30 4544 H 431.133 3.83855 -1.80088 0
M  V30 4545 C 429.592 3.34531 -0.398861 0
M  V30 4546 O 430.122 3.98649 0.494162 0
M  V30 4547 N 428.328 2.89299 -0.2747 0
M  V30 4548 H 427.875 2.37298 -1.00236 0
M  V30 4549 H 427.833 3.09188 0.570075 0
M  V30 4550 N 431.605 1.3629 0.791371 0
M  V30 4551 C 432.537 1.26321 1.91248 0
M  V30 4552 C 433.55 0.18313 1.61767 0
M  V30 4553 O 434.739 0.437682 1.73051 0
M  V30 4554 C 431.839 0.925901 3.26007 0
M  V30 4555 C 431.012 2.10746 3.83281 0
M  V30 4556 C 430.071 1.74352 4.96475 0
M  V30 4557 O 429.097 2.46416 5.13096 0
M  V30 4558 N 430.299 0.676058 5.7655 0
M  V30 4559 H 433.064 2.22915 2.00323 0
M  V30 4560 H 430.625 1.29659 0.969546 0
M  V30 4561 H 432.617 0.663636 3.99222 0
M  V30 4562 H 431.187 0.0491581 3.12561 0
M  V30 4563 H 430.407 2.53264 3.02077 0
M  V30 4564 H 431.695 2.8969 4.18279 0
M  V30 4565 H 431.093 0.0776467 5.65647 0
M  V30 4566 H 429.65 0.473612 6.50077 0
M  V30 4567 N 433.083 -1.0153 1.20538 0
M  V30 4568 C 434.33 -1.75149 1.01633 0
M  V30 4569 C 434.658 -1.89189 -0.451399 0
M  V30 4570 O 433.913 -1.41551 -1.35136 0
M  V30 4571 C 434.212 -3.17213 1.64654 0
M  V30 4572 C 433.878 -3.23146 3.14464 0
M  V30 4573 C 432.54 -3.24472 3.55347 0
M  V30 4574 C 434.892 -3.21207 4.10458 0
M  V30 4575 C 432.22 -3.21532 4.90748 0
M  V30 4576 C 434.572 -3.19808 5.45807 0
M  V30 4577 C 433.236 -3.19439 5.86102 0
M  V30 4578 H 432.506 -0.640914 0.3719 0
M  V30 4579 H 435.153 -1.19071 1.49981 0
M  V30 4580 H 433.458 -3.76457 1.08571 0
M  V30 4581 H 435.155 -3.72871 1.4754 0
M  V30 4582 H 431.745 -3.2285 2.81897 0
M  V30 4583 H 435.929 -3.19351 3.79906 0
M  V30 4584 H 431.185 -3.19578 5.21229 0
M  V30 4585 H 435.359 -3.1726 6.19935 0
M  V30 4586 H 432.986 -3.16915 6.90991 0
M  V30 4587 N 434.561 -1.01147 -1.20859 0
M  V30 4588 C 435.808 -0.697865 -1.90095 0
M  V30 4589 C 436.136 0.772014 -1.78522 0
M  V30 4590 O 435.391 1.57595 -1.16027 0
M  V30 4591 C 435.69 -1.0727 -3.40922 0
M  V30 4592 C 435.356 -2.53792 -3.72693 0
M  V30 4593 C 434.018 -2.93829 -3.81075 0
M  V30 4594 C 436.37 -3.48674 -3.87397 0
M  V30 4595 C 433.698 -4.27696 -4.01613 0
M  V30 4596 C 436.05 -4.82223 -4.09444 0
M  V30 4597 C 434.714 -5.21973 -4.16054 0
M  V30 4598 H 433.984 -0.255367 -0.695607 0
M  V30 4599 H 436.631 -1.27111 -1.43231 0
M  V30 4600 H 434.936 -0.417799 -3.89566 0
M  V30 4601 H 436.633 -0.807818 -3.92779 0
M  V30 4602 H 433.223 -2.21768 -3.66765 0
M  V30 4603 H 437.407 -3.18904 -3.80281 0
M  V30 4604 H 432.663 -4.58055 -4.04964 0
M  V30 4605 H 436.837 -5.55672 -4.19763 0
M  V30 4606 H 434.464 -6.25717 -4.31721 0
M  V30 4607 N 436.039 1.36541 -0.78704 0
M  V30 4608 C 437.002 2.28413 -0.189778 0
M  V30 4609 C 438.002 1.48719 0.611499 0
M  V30 4610 O 439.192 1.68737 0.432842 0
M  V30 4611 C 436.324 3.32824 0.737638 0
M  V30 4612 H 437.517 2.82743 -0.999831 0
M  V30 4613 H 435.07 1.46065 -0.556298 0
M  V30 4614 H 435.805 2.83646 1.57212 0
M  V30 4615 H 435.59 3.91752 0.165044 0
M  V30 4616 H 437.08 4.0144 1.15047 0
M  V30 4617 N 437.518 0.538854 1.48102 0
M  V30 4618 C 438.743 0.0102694 2.07397 0
M  V30 4619 C 439.168 -1.26562 1.39153 0
M  V30 4620 O 438.526 -1.75357 0.460387 0
M  V30 4621 C 438.574 -0.187602 3.60112 0
M  V30 4622 O 437.678 -1.25432 3.92862 0
M  V30 4623 H 437.019 0.0430975 0.6626 0
M  V30 4624 H 439.549 0.749301 1.90385 0
M  V30 4625 H 439.559 -0.407517 4.0596 0
M  V30 4626 H 438.234 0.744386 4.09184 0
M  V30 4627 H 436.811 -1.01636 3.58782 0
M  V30 4628 N 438.996 -1.55193 0.274407 0
M  V30 4629 C 440.226 -2.03692 -0.345442 0
M  V30 4630 C 440.634 -1.15224 -1.50067 0
M  V30 4631 O 439.977 -0.164749 -1.8296 0
M  V30 4632 C 440.039 -3.48325 -0.88939 0
M  V30 4633 C 439.703 -4.56794 0.137115 0
M  V30 4634 C 440.7 -5.11028 0.956378 0
M  V30 4635 C 438.385 -5.01568 0.27115 0
M  V30 4636 C 440.379 -6.08552 1.89587 0
M  V30 4637 C 438.066 -5.98918 1.21412 0
M  V30 4638 C 439.064 -6.52291 2.02498 0
M  V30 4639 O 438.752 -7.47738 2.952 0
M  V30 4640 H 438.484 -0.670893 -0.0829332 0
M  V30 4641 H 441.038 -2.01387 0.404056 0
M  V30 4642 H 439.268 -3.47867 -1.68895 0
M  V30 4643 H 440.957 -3.80167 -1.42225 0
M  V30 4644 H 441.723 -4.7725 0.863559 0
M  V30 4645 H 437.602 -4.5967 -0.349987 0
M  V30 4646 H 441.146 -6.50137 2.52918 0
M  V30 4647 H 437.043 -6.32114 1.30776 0
M  V30 4648 H 437.811 -7.65451 2.89874 0
M  V30 4649 N 440.474 -0.00167713 -1.576 0
M  V30 4650 C 441.751 0.719951 -1.81868 0
M  V30 4651 C 442.131 1.91895 -0.879747 0
M  V30 4652 O 441.479 2.28389 0.0711423 0
M  V30 4653 C 441.689 1.12409 -3.30402 0
M  V30 4654 C 443.037 1.52724 -3.96182 0
M  V30 4655 O 444.061 1.21784 -3.34734 0
M  V30 4656 O 442.92 2.10265 -5.04431 0
M  V30 4657 H 440.014 0.350707 -0.748955 0
M  V30 4658 H 442.56 -0.0272597 -1.69678 0
M  V30 4659 H 441.332 0.269532 -3.90371 0
M  V30 4660 H 440.955 1.93035 -3.47596 0
M  V30 4661 N 441.952 1.55251 0.271103 0
M  V30 4662 C 442.915 1.87484 1.31842 0
M  V30 4663 C 443.915 0.749545 1.42262 0
M  V30 4664 O 445.105 1.01771 1.4138 0
M  V30 4665 C 442.237 2.0818 2.69951 0
M  V30 4666 H 443.43 2.81108 1.0449 0
M  V30 4667 H 440.983 1.47771 0.509258 0
M  V30 4668 H 441.718 1.16944 3.02481 0
M  V30 4669 H 441.503 2.90114 2.63774 0
M  V30 4670 H 442.993 2.34385 3.4562 0
M  V30 4671 N 443.43 -0.535701 1.48216 0
M  V30 4672 C 444.841 -1.11769 1.49548 0
M  V30 4673 C 445.192 -1.94442 0.26207 0
M  V30 4674 O 444.317 -2.06987 -0.631287 0
M  V30 4675 C 444.912 -2.03367 2.70975 0
M  V30 4676 C 443.471 -2.56795 2.75196 0
M  V30 4677 C 442.618 -1.33631 2.42977 0
M  V30 4678 H 445.569 -0.321232 1.55415 0
M  V30 4679 H 445.59 -2.87569 2.49167 0
M  V30 4680 H 445.102 -1.43169 3.60727 0
M  V30 4681 H 443.203 -3.20731 1.89638 0
M  V30 4682 H 443.316 -2.9632 3.76472 0
M  V30 4683 H 441.68 -1.6502 1.94012 0
M  V30 4684 H 442.463 -0.75194 3.34964 0
M  V30 4685 N 444.908 -1.36708 -0.784132 0
M  V30 4686 C 445.871 -1.31307 -1.87859 0
M  V30 4687 C 446.871 -0.219654 -1.59293 0
M  V30 4688 O 448.061 -0.47476 -1.67606 0
M  V30 4689 C 445.193 -1.03679 -3.24751 0
M  V30 4690 H 446.386 -2.28647 -1.94064 0
M  V30 4691 H 443.939 -1.21558 -0.98252 0
M  V30 4692 H 444.674 -0.0681936 -3.24228 0
M  V30 4693 H 444.459 -1.82811 -3.46876 0
M  V30 4694 H 445.949 -1.02518 -4.04821 0
M  V30 4695 N 446.386 1.0089 -1.21074 0
M  V30 4696 C 447.632 1.74866 -1.02712 0
M  V30 4697 C 447.965 1.89178 0.438787 0
M  V30 4698 O 447.24 1.42325 1.32567 0
M  V30 4699 C 447.523 3.16347 -1.72036 0
M  V30 4700 C 447.376 3.09782 -3.26121 0
M  V30 4701 C 448.695 4.15187 -1.45973 0
M  V30 4702 H 445.814 0.634736 -0.374539 0
M  V30 4703 H 448.456 1.17646 -1.49196 0
M  V30 4704 H 446.606 3.65201 -1.32517 0
M  V30 4705 H 448.278 2.68673 -3.74983 0
M  V30 4706 H 446.521 2.46982 -3.56626 0
M  V30 4707 H 447.192 4.09829 -3.6979 0
M  V30 4708 H 449.668 3.75022 -1.80272 0
M  V30 4709 H 448.544 5.12331 -1.96999 0
M  V30 4710 H 448.805 4.40386 -0.388924 0
M  V30 4711 N 447.864 1.01787 1.20321 0
M  V30 4712 C 449.141 0.622978 1.85414 0
M  V30 4713 C 449.521 -0.898887 1.91006 0
M  V30 4714 O 448.869 -1.79112 1.41884 0
M  V30 4715 C 449.079 1.27226 3.24984 0
M  V30 4716 C 450.427 1.3885 4.01255 0
M  V30 4717 O 451.451 1.22857 3.34342 0
M  V30 4718 O 450.31 1.64705 5.2109 0
M  V30 4719 H 447.404 0.215116 0.798533 0
M  V30 4720 H 449.95 1.11533 1.27901 0
M  V30 4721 H 448.722 2.31209 3.15687 0
M  V30 4722 H 448.345 0.767069 3.90131 0
M  V30 4723 N 449.342 -1.36122 0.79427 0
M  V30 4724 C 450.305 -2.28309 0.201889 0
M  V30 4725 C 451.305 -1.49041 -0.603603 0
M  V30 4726 O 452.495 -1.68964 -0.423888 0
M  V30 4727 C 449.627 -3.3321 -0.719978 0
M  V30 4728 H 450.82 -2.82208 1.01481 0
M  V30 4729 H 448.373 -1.45768 0.564037 0
M  V30 4730 H 449.108 -2.84475 -1.55706 0
M  V30 4731 H 448.893 -3.91835 -0.144266 0
M  V30 4732 H 450.383 -4.02044 -1.12916 0
M  V30 4733 N 450.82 -0.546701 -1.47814 0
M  V30 4734 C 451.77 0.227042 -2.26867 0
M  V30 4735 C 452.754 0.894844 -1.33721 0
M  V30 4736 O 453.946 0.794887 -1.58147 0
M  V30 4737 C 451.075 1.26299 -3.19223 0
M  V30 4738 C 450.161 0.59913 -4.19847 0
M  V30 4739 N 450.552 -0.324777 -5.04756 0
M  V30 4740 C 448.85 0.854331 -4.37741 0
M  V30 4741 C 449.551 -0.709386 -5.77358 0
M  V30 4742 N 448.527 -0.0666153 -5.43559 0
M  V30 4743 H 452.329 -0.483476 -2.89896 0
M  V30 4744 H 449.843 -0.365893 -1.58224 0
M  V30 4745 H 451.84 1.83116 -3.74532 0
M  V30 4746 H 450.5 1.97471 -2.57751 0
M  V30 4747 H 451.511 -0.698351 -5.1317 0
M  V30 4748 H 448.188 1.55536 -3.87447 0
M  V30 4749 H 449.578 -1.46796 -6.55668 0
M  V30 4750 N 452.299 1.55045 -0.282633 0
M  V30 4751 C 453.529 2.03872 0.334635 0
M  V30 4752 C 453.937 1.16018 1.49454 0
M  V30 4753 O 453.28 0.174449 1.8287 0
M  V30 4754 C 453.342 3.48791 0.870905 0
M  V30 4755 C 453.006 4.56715 -0.161338 0
M  V30 4756 C 454.003 5.10513 -0.983466 0
M  V30 4757 C 451.688 5.01417 -0.297745 0
M  V30 4758 C 453.682 6.07538 -1.92811 0
M  V30 4759 C 451.369 5.98265 -1.24586 0
M  V30 4760 C 452.367 6.51208 -2.05954 0
M  V30 4761 O 452.055 7.46162 -2.99162 0
M  V30 4762 H 451.787 0.671324 0.0793742 0
M  V30 4763 H 454.341 2.01169 -0.41473 0
M  V30 4764 H 452.571 3.48758 1.67047 0
M  V30 4765 H 454.26 3.80916 1.40207 0
M  V30 4766 H 455.026 4.76785 -0.888856 0
M  V30 4767 H 450.905 4.59849 0.325604 0
M  V30 4768 H 454.449 6.48787 -2.56363 0
M  V30 4769 H 450.346 6.31412 -1.34126 0
M  V30 4770 H 451.114 7.63903 -2.93929 0
M  V30 4771 N 453.777 0.010035 1.57597 0
M  V30 4772 C 455.007 -0.682422 1.95004 0
M  V30 4773 C 455.415 -1.67278 0.884014 0
M  V30 4774 O 454.758 -1.83129 -0.144672 0
M  V30 4775 C 454.82 -1.46141 3.28456 0
M  V30 4776 C 454.484 -0.631523 4.52615 0
M  V30 4777 C 455.481 0.0850905 5.1983 0
M  V30 4778 C 453.166 -0.574539 4.99003 0
M  V30 4779 C 455.16 0.847566 6.3174 0
M  V30 4780 C 452.847 0.191655 6.10799 0
M  V30 4781 C 453.845 0.901432 6.77025 0
M  V30 4782 O 453.533 1.65511 7.86677 0
M  V30 4783 H 453.265 -0.194361 0.647456 0
M  V30 4784 H 455.819 0.060312 2.05311 0
M  V30 4785 H 454.049 -2.24885 3.14585 0
M  V30 4786 H 455.738 -2.04016 3.50902 0
M  V30 4787 H 456.504 0.0502812 4.84974 0
M  V30 4788 H 452.383 -1.11654 4.47274 0
M  V30 4789 H 455.927 1.4021 6.83364 0
M  V30 4790 H 451.824 0.228249 6.45096 0
M  V30 4791 H 452.592 1.57287 8.03245 0
M  V30 4792 N 455.255 -1.55392 -0.262866 0
M  V30 4793 C 456.218 -1.88181 -1.30846 0
M  V30 4794 C 457.218 -0.757079 -1.41862 0
M  V30 4795 O 458.408 -1.02519 -1.40838 0
M  V30 4796 C 455.54 -2.09609 -2.68844 0
M  V30 4797 H 456.733 -2.81659 -1.02997 0
M  V30 4798 H 454.286 -1.48039 -0.501414 0
M  V30 4799 H 455.021 -1.18547 -3.01856 0
M  V30 4800 H 454.806 -2.91508 -2.62231 0
M  V30 4801 H 456.296 -2.36215 -3.44372 0
M  V30 4802 N 456.733 0.527833 -1.48498 0
M  V30 4803 C 457.981 1.28101 -1.56316 0
M  V30 4804 C 458.302 1.9352 -0.239781 0
M  V30 4805 O 457.572 1.81433 0.738849 0
M  V30 4806 H 456.152 0.475793 -0.575873 0
M  V30 4807 H 458.814 0.614052 -1.84974 0
M  V30 4808 H 457.91 2.05916 -2.34532 0
M  V30 4809 N 458.211 1.37122 0.776871 0
M  V30 4810 C 459.457 1.32243 1.53752 0
M  V30 4811 C 459.79 -0.0944745 1.9397 0
M  V30 4812 O 459.065 -1.05068 1.6368 0
M  V30 4813 C 459.348 2.25681 2.80607 0
M  V30 4814 C 459.201 3.76127 2.46676 0
M  V30 4815 C 460.52 2.17657 3.82509 0
M  V30 4816 H 457.639 0.481704 0.557791 0
M  V30 4817 H 460.281 1.6778 0.891612 0
M  V30 4818 H 458.431 1.95505 3.35723 0
M  V30 4819 H 460.103 4.16877 1.97513 0
M  V30 4820 H 458.346 3.94946 1.79443 0
M  V30 4821 H 459.017 4.36933 3.37333 0
M  V30 4822 H 461.493 2.44245 3.36873 0
M  V30 4823 H 460.369 2.85185 4.69 0
M  V30 4824 H 460.63 1.16785 4.26396 0
M  V30 4825 N 459.689 -1.00246 1.21608 0
M  V30 4826 C 460.917 -1.77631 1.06089 0
M  V30 4827 C 461.332 -1.84746 -0.38916 0
M  V30 4828 O 460.689 -1.31068 -1.26994 0
M  V30 4829 C 460.74 -3.21415 1.65453 0
M  V30 4830 O 460.461 -3.14703 3.04785 0
M  V30 4831 C 461.962 -4.15289 1.55079 0
M  V30 4832 H 459.182 -0.558162 0.37242 0
M  V30 4833 H 461.726 -1.26093 1.60999 0
M  V30 4834 H 459.881 -3.70053 1.14629 0
M  V30 4835 H 460.295 -4.05056 3.33212 0
M  V30 4836 H 461.769 -5.13965 2.01355 0
M  V30 4837 H 462.246 -4.36279 0.505665 0
M  V30 4838 H 462.852 -3.72543 2.05163 0
M  V30 4839 N 461.167 -1.02423 -1.1978 0
M  V30 4840 C 462.397 -0.736387 -1.93031 0
M  V30 4841 C 462.805 0.708023 -1.75453 0
M  V30 4842 O 462.148 1.4927 -1.07071 0
M  V30 4843 C 462.21 -1.00194 -3.45255 0
M  V30 4844 C 461.874 -2.43698 -3.86601 0
M  V30 4845 C 462.871 -3.41814 -3.91738 0
M  V30 4846 C 460.556 -2.77975 -4.18372 0
M  V30 4847 C 462.55 -4.72265 -4.28071 0
M  V30 4848 C 460.237 -4.08636 -4.54378 0
M  V30 4849 C 461.235 -5.05592 -4.59201 0
M  V30 4850 O 460.923 -6.33914 -4.94376 0
M  V30 4851 H 460.655 -0.269116 -0.620123 0
M  V30 4852 H 463.209 -1.37043 -1.52998 0
M  V30 4853 H 461.439 -0.310747 -3.85449 0
M  V30 4854 H 463.128 -0.704488 -3.9974 0
M  V30 4855 H 463.894 -3.16671 -3.67348 0
M  V30 4856 H 459.773 -2.0319 -4.13805 0
M  V30 4857 H 463.317 -5.4794 -4.3175 0
M  V30 4858 H 459.214 -4.33556 -4.78226 0
M  V30 4859 H 459.982 -6.38317 -5.12341 0
M  V30 4860 N 462.645 1.35699 -0.801477 0
M  V30 4861 C 463.922 1.9324 -0.302937 0
M  V30 4862 C 464.302 1.73209 1.20672 0
M  V30 4863 O 463.65 1.09809 2.00385 0
M  V30 4864 C 463.86 3.41728 -0.708747 0
M  V30 4865 C 465.208 4.18868 -0.695328 0
M  V30 4866 O 466.232 3.5022 -0.649971 0
M  V30 4867 O 465.091 5.41342 -0.749081 0
M  V30 4868 H 462.185 0.82331 -0.0780367 0
M  V30 4869 H 464.731 1.44806 -0.884832 0
M  V30 4870 H 463.503 3.50015 -1.74944 0
M  V30 4871 H 463.126 3.97471 -0.101384 0
M  V30 4872 N 464.123 0.554532 1.47522 0
M  V30 4873 C 465.353 0.0342074 2.06572 0
M  V30 4874 C 465.761 -1.26375 1.40805 0
M  V30 4875 O 465.104 -1.7683 0.49769 0
M  V30 4876 C 465.166 -0.235096 3.5873 0
M  V30 4877 C 464.83 0.973024 4.46521 0
M  V30 4878 C 465.827 1.8779 4.848 0
M  V30 4879 C 463.512 1.18694 4.88075 0
M  V30 4880 C 465.506 2.98039 5.63428 0
M  V30 4881 C 463.193 2.29254 5.66468 0
M  V30 4882 C 464.191 3.18757 6.04055 0
M  V30 4883 O 463.879 4.27401 6.8087 0
M  V30 4884 H 463.611 0.041587 0.67472 0
M  V30 4885 H 466.165 0.766748 1.90552 0
M  V30 4886 H 464.395 -1.02191 3.72953 0
M  V30 4887 H 466.084 -0.700477 3.9981 0
M  V30 4888 H 466.85 1.72467 4.53299 0
M  V30 4889 H 462.729 0.49947 4.58286 0
M  V30 4890 H 466.273 3.67926 5.92685 0
M  V30 4891 H 462.17 2.4455 5.97382 0
M  V30 4892 H 462.938 4.25415 6.9926 0
M  V30 4893 N 465.601 -1.54893 0.290851 0
M  V30 4894 C 466.831 -2.04047 -0.323818 0
M  V30 4895 C 467.239 -1.16809 -1.48837 0
M  V30 4896 O 466.582 -0.184145 -1.82775 0
M  V30 4897 C 466.644 -3.49248 -0.852395 0
M  V30 4898 C 466.308 -4.56623 0.185557 0
M  V30 4899 C 467.305 -5.09985 1.01053 0
M  V30 4900 C 464.99 -5.01252 0.324332 0
M  V30 4901 C 466.984 -6.06507 1.96031 0
M  V30 4902 C 464.671 -5.97596 1.27757 0
M  V30 4903 C 465.669 -6.50107 2.09405 0
M  V30 4904 O 465.357 -7.44565 3.03114 0
M  V30 4905 H 465.089 -0.671735 -0.0758129 0
M  V30 4906 H 467.643 -2.00947 0.425393 0
M  V30 4907 H 465.873 -3.49639 -1.65195 0
M  V30 4908 H 467.562 -3.81654 -1.38185 0
M  V30 4909 H 468.328 -4.76307 0.914129 0
M  V30 4910 H 464.207 -4.60015 -0.301213 0
M  V30 4911 H 467.751 -6.47418 2.598 0
M  V30 4912 H 463.648 -6.30691 1.37473 0
M  V30 4913 H 464.416 -7.62334 2.97976 0
M  V30 4914 N 467.08 -0.0183926 -1.57589 0
M  V30 4915 C 468.027 0.967022 -2.09565 0
M  V30 4916 C 468.997 1.32983 -0.995225 0
M  V30 4917 O 470.182 1.42501 -1.26878 0
M  V30 4918 C 467.322 2.24772 -2.61861 0
M  V30 4919 C 466.435 1.94232 -3.85873 0
M  V30 4920 C 465.57 3.16518 -4.26603 0
M  V30 4921 C 464.609 2.81748 -5.43401 0
M  V30 4922 N 463.746 3.96626 -5.79338 0
M  V30 4923 H 468.586 0.516874 -2.93483 0
M  V30 4924 H 466.123 0.243544 -1.4507 0
M  V30 4925 H 468.081 2.99667 -2.90268 0
M  V30 4926 H 466.711 2.67423 -1.8079 0
M  V30 4927 H 465.763 1.09625 -3.64262 0
M  V30 4928 H 467.075 1.64616 -4.70853 0
M  V30 4929 H 466.229 3.99743 -4.56389 0
M  V30 4930 H 464.968 3.49286 -3.40368 0
M  V30 4931 H 463.973 1.96933 -5.1332 0
M  V30 4932 H 465.198 2.50207 -6.31327 0
M  V30 4933 H 463.144 4.29257 -4.96059 0
M  V30 4934 H 463.061 3.70598 -6.58933 0
M  V30 4935 H 464.329 4.80586 -6.13724 0
M  V30 4936 N 468.558 1.5553 0.254621 0
M  V30 4937 C 469.506 1.9048 1.33492 0
M  V30 4938 C 470.5 0.78304 1.50216 0
M  V30 4939 O 471.706 0.967582 1.51782 0
M  V30 4940 H 468.081 0.604846 0.44684 0
M  V30 4941 H 470.052 2.80688 1.01275 0
M  V30 4942 C 468.801 2.20928 2.68489 0
M  V30 4943 H 468.124 3.06742 2.56417 0
M  V30 4944 H 469.564 2.49291 3.42972 0
M  V30 4945 C 468.023 1.023 3.20993 0
M  V30 4946 O 468.553 0.267027 4.00811 0
M  V30 4947 N 466.759 0.815714 2.78917 0
M  V30 4948 H 466.306 1.43217 2.14119 0
M  V30 4949 H 466.264 0.0236532 3.14391 0
M  V30 4950 N 470.036 -0.519951 1.48776 0
M  V30 4951 C 471.282 -1.27711 1.57536 0
M  V30 4952 C 471.615 -1.92547 0.252866 0
M  V30 4953 O 470.89 -1.7979 -0.742021 0
M  V30 4954 C 471.173 -2.35875 2.72094 0
M  V30 4955 C 471.026 -1.75664 4.1408 0
M  V30 4956 C 472.345 -3.37575 2.82367 0
M  V30 4957 H 469.464 -0.462971 0.573434 0
M  V30 4958 H 472.106 -0.578194 1.80989 0
M  V30 4959 H 470.256 -2.95488 2.52228 0
M  V30 4960 H 471.928 -1.20025 4.45412 0
M  V30 4961 H 470.171 -1.06154 4.20611 0
M  V30 4962 H 470.842 -2.54029 4.90075 0
M  V30 4963 H 473.318 -2.87929 3.00393 0
M  V30 4964 H 472.194 -4.1064 3.64233 0
M  V30 4965 H 472.455 -3.98743 1.90936 0
M  V30 4966 N 471.514 -1.37532 -0.769588 0
M  V30 4967 C 472.464 -1.29984 -1.87318 0
M  V30 4968 C 473.448 -0.187242 -1.59807 0
M  V30 4969 O 474.64 -0.421827 -1.719 0
M  V30 4970 C 471.769 -1.11126 -3.24817 0
M  V30 4971 C 470.855 -2.26939 -3.58273 0
M  V30 4972 N 471.246 -3.52336 -3.62895 0
M  V30 4973 C 469.544 -2.19141 -3.8845 0
M  V30 4974 C 470.245 -4.28719 -3.9316 0
M  V30 4975 N 469.221 -3.57884 -4.0917 0
M  V30 4976 H 473.023 -2.24946 -1.89147 0
M  V30 4977 H 470.537 -1.30535 -0.966143 0
M  V30 4978 H 472.534 -1.03803 -4.0377 0
M  V30 4979 H 471.194 -0.17083 -3.2425 0
M  V30 4980 H 472.205 -3.86216 -3.45048 0
M  V30 4981 H 468.882 -1.33167 -3.95693 0
M  V30 4982 H 470.272 -5.37254 -4.03494 0
M  V30 4983 N 472.992 0.995999 -1.22138 0
M  V30 4984 C 473.94 2.10673 -0.985876 0
M  V30 4985 C 474.934 1.69255 0.0699553 0
M  V30 4986 O 476.14 1.79812 -0.0822176 0
M  V30 4987 H 472.515 0.688865 -0.30161 0
M  V30 4988 H 474.486 2.27711 -1.92848 0
M  V30 4989 C 473.235 3.42881 -0.576909 0
M  V30 4990 H 472.558 3.75191 -1.38101 0
M  V30 4991 H 473.998 4.21589 -0.451518 0
M  V30 4992 C 472.457 3.29265 0.713196 0
M  V30 4993 O 472.987 3.60777 1.76643 0
M  V30 4994 N 471.193 2.82456 0.683162 0
M  V30 4995 H 470.74 2.5701 -0.174242 0
M  V30 4996 H 470.698 2.73727 1.54663 0
M  V30 4997 N 474.47 1.03057 1.19235 0
M  V30 4998 C 475.886 0.747947 1.40989 0
M  V30 4999 C 476.086 -0.666752 1.90149 0
M  V30 5000 O 475.142 -1.43249 2.07933 0
M  V30 5001 C 476.455 1.7855 2.41951 0
M  V30 5002 C 478.003 1.80524 2.55695 0
M  V30 5003 C 478.478 2.83243 3.59913 0
M  V30 5004 N 479.969 2.8207 3.67411 0
M  V30 5005 C 480.704 3.58204 4.47747 0
M  V30 5006 N 480.2 4.44057 5.31775 0
M  V30 5007 N 481.993 3.46738 4.42413 0
M  V30 5008 H 474.144 1.94367 0.856468 0
M  V30 5009 H 476.407 0.840412 0.438647 0
M  V30 5010 H 476.113 2.79973 2.12857 0
M  V30 5011 H 475.987 1.6092 3.41152 0
M  V30 5012 H 478.374 0.79778 2.84112 0
M  V30 5013 H 478.455 2.02229 1.56643 0
M  V30 5014 H 478.099 3.84161 3.32239 0
M  V30 5015 H 478.029 2.58795 4.5862 0
M  V30 5016 H 480.52 2.19803 3.074 0
M  V30 5017 H 480.833 4.98884 5.90199 0
M  V30 5018 H 479.178 4.48129 5.3123 0
M  V30 5019 H 482.369 2.79077 3.75811 0
M  V30 5020 H 482.542 4.06322 5.04783 0
M  V30 5021 N 475.948 -1.35272 0.808662 0
M  V30 5022 C 476.878 -2.32315 0.234981 0
M  V30 5023 C 477.859 -1.57572 -0.64071 0
M  V30 5024 O 479.044 -1.8563 -0.570551 0
M  V30 5025 C 476.174 -3.41801 -0.615601 0
M  V30 5026 C 475.128 -4.27694 0.161767 0
M  V30 5027 C 474.454 -5.28519 -0.810649 0
M  V30 5028 C 475.754 -5.04231 1.36193 0
M  V30 5029 H 477.448 -2.80543 1.04575 0
M  V30 5030 H 474.994 -1.3488 0.504315 0
M  V30 5031 H 476.947 -4.08693 -1.02702 0
M  V30 5032 H 475.671 -2.92186 -1.45928 0
M  V30 5033 H 474.33 -3.62384 0.554382 0
M  V30 5034 H 473.978 -4.75171 -1.64988 0
M  V30 5035 H 473.678 -5.8686 -0.294822 0
M  V30 5036 H 475.202 -5.98283 -1.22023 0
M  V30 5037 H 476.616 -5.64058 1.02528 0
M  V30 5038 H 475.013 -5.72077 1.81239 0
M  V30 5039 H 476.083 -4.34753 2.14751 0
M  V30 5040 N 477.426 -0.562348 -1.47226 0
M  V30 5041 C 478.651 -0.0432632 -2.07355 0
M  V30 5042 C 479.076 1.24332 -1.41149 0
M  V30 5043 O 478.434 1.74603 -0.488226 0
M  V30 5044 C 478.482 0.130288 -3.60365 0
M  V30 5045 O 477.586 1.19166 -3.94808 0
M  V30 5046 H 476.927 -0.0536334 -0.66183 0
M  V30 5047 H 479.457 -0.779495 -1.89169 0
M  V30 5048 H 479.467 0.342881 -4.06557 0
M  V30 5049 H 478.142 -0.809389 -4.07948 0
M  V30 5050 H 476.719 0.959153 -3.60354 0
M  V30 5051 N 478.904 1.54736 -0.299062 0
M  V30 5052 C 480.134 2.04215 0.312992 0
M  V30 5053 C 480.542 1.17596 1.48215 0
M  V30 5054 O 479.885 0.193835 1.82674 0
M  V30 5055 C 479.947 3.49696 0.833862 0
M  V30 5056 C 479.611 4.56518 -0.20977 0
M  V30 5057 C 480.608 5.09442 -1.03756 0
M  V30 5058 C 478.293 5.01073 -0.35091 0
M  V30 5059 C 480.287 6.05459 -1.99244 0
M  V30 5060 C 477.974 5.9691 -1.30924 0
M  V30 5061 C 478.972 6.48987 -2.1285 0
M  V30 5062 O 478.66 7.42947 -3.07059 0
M  V30 5063 H 478.392 0.672128 0.0722494 0
M  V30 5064 H 480.946 2.00718 -0.436043 0
M  V30 5065 H 479.176 3.5051 1.63339 0
M  V30 5066 H 480.865 3.82381 1.36159 0
M  V30 5067 H 481.631 4.75816 -0.939376 0
M  V30 5068 H 477.51 4.60168 0.276813 0
M  V30 5069 H 481.054 6.46031 -2.63229 0
M  V30 5070 H 476.951 6.29953 -1.40815 0
M  V30 5071 H 477.719 7.60743 -3.02015 0
M  V30 5072 N 480.382 0.0267497 1.57577 0
M  V30 5073 C 481.659 -0.690926 1.82991 0
M  V30 5074 C 482.039 -1.90471 0.910164 0
M  V30 5075 O 481.387 -2.28474 -0.0347985 0
M  V30 5076 C 481.597 -1.07139 3.32148 0
M  V30 5077 C 482.945 -1.46402 3.98562 0
M  V30 5078 O 483.969 -1.16443 3.36629 0
M  V30 5079 O 482.828 -2.02214 5.07712 0
M  V30 5080 H 479.922 -0.338747 0.75444 0
M  V30 5081 H 482.468 0.0542506 1.69613 0
M  V30 5082 H 481.24 -0.207394 3.9075 0
M  V30 5083 H 480.863 -1.87481 3.50623 0
M  V30 5084 N 481.861 -1.55662 -0.24637 0
M  V30 5085 C 483.109 -1.77168 -0.972411 0
M  V30 5086 C 483.43 -0.590827 -1.85834 0
M  V30 5087 O 482.7 0.393365 -1.9191 0
M  V30 5088 H 481.28 -0.653405 -0.362038 0
M  V30 5089 H 483.942 -1.93101 -0.264189 0
M  V30 5090 H 483.038 -2.68335 -1.59382 0
M  V30 5091 N 483.339 0.512053 -1.4905 0
M  V30 5092 C 484.287 1.63568 -1.65373 0
M  V30 5093 C 485.281 1.61228 -0.519806 0
M  V30 5094 O 486.487 1.65869 -0.699101 0
M  V30 5095 H 482.862 0.542019 -0.521267 0
M  V30 5096 H 484.833 1.4695 -2.59708 0
M  V30 5097 C 483.582 3.01761 -1.7273 0
M  V30 5098 H 482.905 3.04263 -2.59353 0
M  V30 5099 H 484.345 3.79948 -1.8819 0
M  V30 5100 C 482.804 3.33609 -0.46973 0
M  V30 5101 O 483.334 3.99607 0.409492 0
M  V30 5102 N 481.54 2.88651 -0.336003 0
M  V30 5103 H 481.087 2.35119 -1.05247 0
M  V30 5104 H 481.045 3.10328 0.504363 0
M  V30 5105 N 484.817 1.37938 0.762283 0
M  V30 5106 C 485.765 1.34569 1.89721 0
M  V30 5107 C 486.759 0.232929 1.67791 0
M  V30 5108 O 487.965 0.401485 1.75465 0
M  V30 5109 H 484.34 0.419594 0.624055 0
M  V30 5110 H 486.311 2.30357 1.8968 0
M  V30 5111 C 485.06 1.17898 3.27101 0
M  V30 5112 H 484.383 2.02781 3.44558 0
M  V30 5113 H 485.823 1.19593 4.06784 0
M  V30 5114 C 484.282 -0.114728 3.36705 0
M  V30 5115 O 484.812 -1.0949 3.8649 0
M  V30 5116 N 483.018 -0.16863 2.9011 0
M  V30 5117 H 482.565 0.62967 2.49786 0
M  V30 5118 H 482.523 -1.03383 2.96916 0
M  V30 5119 N 486.295 -0.989507 1.22664 0
M  V30 5120 C 487.258 -2.06183 1.00106 0
M  V30 5121 C 488.258 -1.60765 -0.0337726 0
M  V30 5122 O 489.448 -1.72989 0.205072 0
M  V30 5123 C 486.58 -3.37021 0.51279 0
M  V30 5124 H 487.773 -2.27629 1.95256 0
M  V30 5125 H 485.326 -1.16158 1.0458 0
M  V30 5126 H 486.061 -3.21261 -0.442917 0
M  V30 5127 H 485.846 -3.71323 1.25942 0
M  V30 5128 H 487.336 -4.1591 0.375315 0
M  V30 5129 N 487.773 -1.03688 -1.18687 0
M  V30 5130 C 488.736 -0.629115 -2.20397 0
M  V30 5131 C 489.736 0.311495 -1.57754 0
M  V30 5132 O 490.926 0.0974107 -1.73927 0
M  V30 5133 C 488.058 0.0782231 -3.4081 0
M  V30 5134 H 489.251 -1.52915 -2.57987 0
M  V30 5135 H 486.804 -0.828988 -1.32505 0
M  V30 5136 H 487.539 0.992233 -3.08748 0
M  V30 5137 H 487.324 -0.597776 -3.87517 0
M  V30 5138 H 488.814 0.350156 -4.16129 0
M  V30 5139 N 489.251 1.34841 -0.815825 0
M  V30 5140 C 490.5 1.97755 -0.396976 0
M  V30 5141 C 490.813 1.65422 1.04379 0
M  V30 5142 O 492.019 2.21771 1.5662 0
M  V30 5143 C 490.475 3.53818 -0.658869 0
M  V30 5144 C 490.083 3.95051 -2.11278 0
M  V30 5145 C 491.827 4.23397 -0.305834 0
M  V30 5146 C 489.734 5.43997 -2.31994 0
M  V30 5147 H 488.664 0.739985 -0.1447 0
M  V30 5148 H 491.315 1.53781 -1.00118 0
M  V30 5149 H 489.697 3.95997 0.0154112 0
M  V30 5150 H 490.871 3.63998 -2.82564 0
M  V30 5151 H 489.186 3.38388 -2.42657 0
M  V30 5152 H 491.783 5.32899 -0.43854 0
M  V30 5153 H 492.126 4.09508 0.748952 0
M  V30 5154 H 492.659 3.8667 -0.934403 0
M  V30 5155 H 489.398 5.62865 -3.35952 0
M  V30 5156 H 488.918 5.76589 -1.65244 0
M  V30 5157 H 490.597 6.10584 -2.14001 0
M  V30 5158 N 490.729 0.570148 1.46925 0
M  V30 5159 C 492.145 0.23087 1.57921 0
M  V30 5160 C 492.345 -1.26676 1.56702 0
M  V30 5161 O 491.401 -2.04774 1.47729 0
M  V30 5162 C 492.714 0.868973 2.8787 0
M  V30 5163 C 494.262 0.841397 3.01479 0
M  V30 5164 C 494.737 1.45881 4.34146 0
M  V30 5165 N 496.228 1.42258 4.40814 0
M  V30 5166 C 496.963 1.8698 5.42057 0
M  V30 5167 N 496.459 2.39618 6.50042 0
M  V30 5168 N 498.252 1.77972 5.33181 0
M  V30 5169 H 490.403 1.54301 1.45962 0
M  V30 5170 H 492.666 0.644224 0.69547 0
M  V30 5171 H 492.372 1.922 2.94537 0
M  V30 5172 H 492.246 0.369682 3.75384 0
M  V30 5173 H 494.633 -0.202973 2.94401 0
M  V30 5174 H 494.714 1.37858 2.15474 0
M  V30 5175 H 494.358 2.50231 4.4198 0
M  V30 5176 H 494.288 0.896958 5.18905 0
M  V30 5177 H 496.779 1.03768 3.63374 0
M  V30 5178 H 497.092 2.71633 7.23488 0
M  V30 5179 H 495.437 2.43636 6.50897 0
M  V30 5180 H 498.628 1.36617 4.4772 0
M  V30 5181 H 498.801 2.13143 6.11943 0
M  V30 5182 N 492.207 -1.54576 0.307264 0
M  V30 5183 C 493.432 -2.05139 -0.305379 0
M  V30 5184 C 493.857 -1.18278 -1.46259 0
M  V30 5185 O 493.215 -0.188243 -1.8032 0
M  V30 5186 C 493.263 -3.53066 -0.733283 0
M  V30 5187 O 492.367 -3.69206 -1.83741 0
M  V30 5188 H 491.708 -0.661444 -0.0582105 0
M  V30 5189 H 494.238 -1.99569 0.450931 0
M  V30 5190 H 494.248 -3.95034 -1.02039 0
M  V30 5191 H 492.923 -4.15746 0.113198 0
M  V30 5192 H 491.5 -3.39143 -1.55037 0
M  V30 5193 N 493.685 -0.035106 -1.57561 0
M  V30 5194 C 494.91 0.655802 -1.96759 0
M  V30 5195 C 495.335 1.64523 -0.911809 0
M  V30 5196 O 494.693 1.80857 0.126673 0
M  V30 5197 C 494.741 1.33326 -3.35047 0
M  V30 5198 O 493.845 2.44866 -3.31835 0
M  V30 5199 H 493.186 0.171807 -0.641388 0
M  V30 5200 H 495.716 -0.0987369 -2.04362 0
M  V30 5201 H 495.726 1.68867 -3.71413 0
M  V30 5202 H 494.401 0.608033 -4.11431 0
M  V30 5203 H 492.978 2.11392 -3.07193 0
M  V30 5204 N 495.163 1.55791 0.238111 0
M  V30 5205 C 496.409 1.78297 0.966337 0
M  V30 5206 C 496.742 0.601903 1.84637 0
M  V30 5207 O 496.017 -0.399499 1.90353 0
M  V30 5208 C 496.3 3.10758 1.81939 0
M  V30 5209 C 496.153 4.39283 0.966958 0
M  V30 5210 C 497.472 3.39519 2.80027 0
M  V30 5211 H 494.591 0.648654 0.349882 0
M  V30 5212 H 497.233 1.88525 0.236253 0
M  V30 5213 H 495.383 3.02168 2.44185 0
M  V30 5214 H 497.055 4.59873 0.362514 0
M  V30 5215 H 495.298 4.32948 0.271669 0
M  V30 5216 H 495.969 5.28368 1.59784 0
M  V30 5217 H 498.445 3.48128 2.27917 0
M  V30 5218 H 497.321 4.33402 3.36829 0
M  V30 5219 H 497.582 2.60864 3.56934 0
M  V30 5220 N 496.642 -0.504142 1.49319 0
M  V30 5221 C 497.592 -1.60284 1.62151 0
M  V30 5222 C 498.576 -1.53657 0.477315 0
M  V30 5223 O 499.768 -1.6124 0.730108 0
M  V30 5224 C 496.897 -2.98909 1.68844 0
M  V30 5225 C 495.983 -3.10544 2.8883 0
M  V30 5226 N 496.374 -2.92078 4.12946 0
M  V30 5227 C 494.672 -3.4164 2.86702 0
M  V30 5228 C 495.373 -3.07812 4.93585 0
M  V30 5229 N 494.349 -3.36549 4.26891 0
M  V30 5230 H 498.151 -1.44656 2.55835 0
M  V30 5231 H 495.665 -0.710198 1.46048 0
M  V30 5232 H 497.662 -3.77865 1.76134 0
M  V30 5233 H 496.322 -3.15609 0.762943 0
M  V30 5234 H 497.333 -2.68316 4.42975 0
M  V30 5235 H 494.01 -3.64537 2.03517 0
M  V30 5236 H 495.4 -2.98054 6.02174 0
M  V30 5237 N 498.12 -1.38341 -0.754957 0
M  V30 5238 C 499.35 -1.37504 -1.54195 0
M  V30 5239 C 499.758 0.0373787 -1.89163 0
M  V30 5240 O 499.101 1.01402 -1.53178 0
M  V30 5241 C 499.163 -2.16488 -2.87008 0
M  V30 5242 C 498.827 -3.65311 -2.74585 0
M  V30 5243 C 499.824 -4.58834 -2.44474 0
M  V30 5244 C 497.509 -4.08649 -2.9208 0
M  V30 5245 C 499.503 -5.93675 -2.32011 0
M  V30 5246 C 497.19 -5.43571 -2.79237 0
M  V30 5247 C 498.188 -6.35898 -2.49245 0
M  V30 5248 O 497.876 -7.68338 -2.36458 0
M  V30 5249 H 497.608 -0.472159 -0.483779 0
M  V30 5250 H 500.162 -1.82515 -0.94221 0
M  V30 5251 H 498.392 -1.66194 -3.49166 0
M  V30 5252 H 500.081 -2.08076 -3.4851 0
M  V30 5253 H 500.847 -4.26657 -2.30627 0
M  V30 5254 H 496.726 -3.37134 -3.14422 0
M  V30 5255 H 500.27 -6.65706 -2.08522 0
M  V30 5256 H 496.167 -5.75345 -2.92657 0
M  V30 5257 H 496.935 -7.78845 -2.5168 0
M  V30 5258 N 499.598 0.982988 -1.23187 0
M  V30 5259 C 500.823 1.76455 -1.08988 0
M  V30 5260 C 501.248 1.84726 0.354691 0
M  V30 5261 O 500.606 1.30699 1.25649 0
M  V30 5262 C 500.654 3.17094 -1.71708 0
M  V30 5263 O 499.758 4.00648 -0.977477 0
M  V30 5264 H 499.099 0.542988 -0.382177 0
M  V30 5265 H 501.629 1.23413 -1.63188 0
M  V30 5266 H 501.639 3.67684 -1.76841 0
M  V30 5267 H 500.314 3.10389 -2.76823 0
M  V30 5268 H 498.891 3.59161 -1.0029 0
M  V30 5269 N 501.076 1.04316 1.18135 0
M  V30 5270 C 502.008 0.594444 2.21357 0
M  V30 5271 C 503.021 -0.337215 1.59269 0
M  V30 5272 O 504.21 -0.131337 1.78016 0
M  V30 5273 C 501.31 -0.151251 3.38562 0
M  V30 5274 C 500.483 0.788907 4.30227 0
M  V30 5275 C 499.542 0.0860572 5.2613 0
M  V30 5276 O 498.568 0.717302 5.64662 0
M  V30 5277 N 499.77 -1.17969 5.68387 0
M  V30 5278 H 502.535 1.48227 2.60478 0
M  V30 5279 H 500.096 0.92396 1.32946 0
M  V30 5280 H 502.088 -0.631352 3.99745 0
M  V30 5281 H 500.658 -0.940639 2.98112 0
M  V30 5282 H 499.878 1.44882 3.6661 0
M  V30 5283 H 501.166 1.42738 4.88368 0
M  V30 5284 H 500.564 -1.71302 5.3914 0
M  V30 5285 H 499.121 -1.60402 6.31755 0
M  V30 5286 N 502.554 -1.34406 0.822964 0
M  V30 5287 C 503.802 -1.97892 0.410245 0
M  V30 5288 C 504.123 -1.65567 -1.03017 0
M  V30 5289 O 503.393 -0.94642 -1.71522 0
M  V30 5290 H 501.973 -0.732049 0.148707 0
M  V30 5291 H 504.635 -1.64043 1.05242 0
M  V30 5292 H 503.731 -3.07579 0.529284 0
M  V30 5293 N 504.032 -0.577932 -1.46621 0
M  V30 5294 C 505.262 -0.0670668 -2.06491 0
M  V30 5295 C 505.67 1.24119 -1.42798 0
M  V30 5296 O 505.013 1.76016 -0.525759 0
M  V30 5297 C 505.075 0.177995 -3.59059 0
M  V30 5298 C 504.739 -1.04394 -4.44917 0
M  V30 5299 C 505.736 -1.95479 -4.81751 0
M  V30 5300 C 503.421 -1.26444 -4.86125 0
M  V30 5301 C 505.415 -3.06965 -5.58615 0
M  V30 5302 C 503.102 -2.38237 -5.62749 0
M  V30 5303 C 504.1 -3.28327 -5.98908 0
M  V30 5304 O 503.788 -4.38179 -6.73984 0
M  V30 5305 H 503.52 -0.0523159 -0.673973 0
M  V30 5306 H 506.074 -0.796966 -1.89308 0
M  V30 5307 H 504.304 0.962451 -3.74531 0
M  V30 5308 H 505.993 0.636782 -4.00874 0
M  V30 5309 H 506.759 -1.79657 -4.50498 0
M  V30 5310 H 502.638 -0.572316 -4.57434 0
M  V30 5311 H 506.182 -3.77309 -5.86757 0
M  V30 5312 H 502.079 -2.54023 -5.93416 0
M  V30 5313 H 502.847 -4.36486 -6.92403 0
M  V30 5314 N 505.51 1.54411 -0.315457 0
M  V30 5315 C 506.458 2.25514 0.569771 0
M  V30 5316 C 507.452 1.2663 1.12522 0
M  V30 5317 O 508.658 1.44434 1.07419 0
M  V30 5318 H 505.033 0.724257 0.202376 0
M  V30 5319 H 507.004 2.98354 -0.0522895 0
M  V30 5320 C 505.753 3.02004 1.72305 0
M  V30 5321 H 505.076 3.77906 1.30488 0
M  V30 5322 H 506.516 3.55014 2.31821 0
M  V30 5323 C 504.975 2.09822 2.63583 0
M  V30 5324 O 505.505 1.67574 3.65078 0
M  V30 5325 N 503.711 1.75478 2.31637 0
M  V30 5326 H 503.258 2.10032 1.49145 0
M  V30 5327 H 503.216 1.14079 2.92973 0
M  V30 5328 N 506.988 0.0434614 1.5754 0
M  V30 5329 C 507.936 -0.951465 2.1225 0
M  V30 5330 C 508.93 -1.3274 1.05245 0
M  V30 5331 O 510.136 -1.30795 1.23663 0
M  V30 5332 H 506.511 -0.324667 0.678303 0
M  V30 5333 H 508.482 -0.464855 2.94757 0
M  V30 5334 C 507.231 -2.21972 2.67626 0
M  V30 5335 H 506.554 -1.93923 3.4962 0
M  V30 5336 H 507.994 -2.89765 3.09536 0
M  V30 5337 C 506.453 -2.95919 1.61038 0
M  V30 5338 O 506.983 -3.8857 1.01862 0
M  V30 5339 N 505.189 -2.58511 1.32741 0
M  V30 5340 H 504.736 -1.83244 1.81051 0
M  V30 5341 H 504.694 -3.08296 0.616531 0
M  V30 5342 N 508.466 -1.55915 -0.229846 0
M  V30 5343 C 509.429 -1.90914 -1.26824 0
M  V30 5344 C 510.429 -0.786999 -1.40225 0
M  V30 5345 O 511.619 -1.05484 -1.38632 0
M  V30 5346 C 508.751 -2.15264 -2.64337 0
M  V30 5347 H 509.944 -2.8378 -0.969998 0
M  V30 5348 H 507.497 -1.49069 -0.4699 0
M  V30 5349 H 508.232 -1.24923 -2.99274 0
M  V30 5350 H 508.017 -2.97005 -2.55989 0
M  V30 5351 H 509.507 -2.43467 -3.39284 0
M  V30 5352 N 509.944 0.496216 -1.49584 0
M  V30 5353 C 511.191 1.25003 -1.59312 0
M  V30 5354 C 511.519 1.92445 -0.28198 0
M  V30 5355 O 510.774 1.81557 0.730452 0
M  V30 5356 C 511.073 2.3359 -2.705 0
M  V30 5357 C 510.739 1.83574 -4.11839 0
M  V30 5358 C 509.401 1.69653 -4.50302 0
M  V30 5359 C 511.753 1.46193 -5.00277 0
M  V30 5360 C 509.081 1.16736 -5.74969 0
M  V30 5361 C 511.433 0.947265 -6.25468 0
M  V30 5362 C 510.097 0.794485 -6.62755 0
M  V30 5363 H 509.367 0.45742 -0.582965 0
M  V30 5364 H 512.014 0.549996 -1.83432 0
M  V30 5365 H 510.319 3.09401 -2.40371 0
M  V30 5366 H 512.016 2.91627 -2.75235 0
M  V30 5367 H 508.606 1.9537 -3.81482 0
M  V30 5368 H 512.79 1.55793 -4.71214 0
M  V30 5369 H 508.046 1.03623 -6.02555 0
M  V30 5370 H 512.22 0.648846 -6.93371 0
M  V30 5371 H 509.847 0.382271 -7.59238 0
M  V30 5372 N 511.423 1.38739 0.74761 0
M  V30 5373 C 512.669 1.3648 1.50814 0
M  V30 5374 C 513.024 -0.0431982 1.92351 0
M  V30 5375 O 512.317 -1.0071 1.62997 0
M  V30 5376 C 512.511 2.25992 2.7688 0
M  V30 5377 C 512.34 3.75354 2.47668 0
M  V30 5378 C 511.11 4.44348 2.40589 0
M  V30 5379 C 513.308 4.67642 2.14046 0
M  V30 5380 N 511.29 5.79114 2.03715 0
M  V30 5381 C 512.661 5.90965 1.87512 0
M  V30 5382 C 514.716 4.55787 2.00407 0
M  V30 5383 C 513.419 7.03759 1.48714 0
M  V30 5384 C 515.445 5.68491 1.63011 0
M  V30 5385 C 514.807 6.90879 1.37353 0
M  V30 5386 H 510.906 0.554695 0.551214 0
M  V30 5387 H 513.49 1.7418 0.870033 0
M  V30 5388 H 511.661 1.9047 3.3849 0
M  V30 5389 H 513.393 2.14815 3.42982 0
M  V30 5390 H 510.148 3.97634 2.57262 0
M  V30 5391 H 510.572 6.504 1.87906 0
M  V30 5392 H 515.214 3.61712 2.18916 0
M  V30 5393 H 512.932 7.97746 1.28945 0
M  V30 5394 H 516.518 5.613 1.53081 0
M  V30 5395 H 515.398 7.76609 1.08848 0
M  V30 5396 N 512.901 -0.976442 1.23707 0
M  V30 5397 C 513.849 -2.09078 1.01927 0
M  V30 5398 C 514.843 -1.69345 -0.0430193 0
M  V30 5399 O 516.049 -1.79659 0.110814 0
M  V30 5400 H 512.424 -0.68398 0.312531 0
M  V30 5401 H 514.395 -2.24614 1.96447 0
M  V30 5402 C 513.144 -3.41919 0.631385 0
M  V30 5403 H 512.467 -3.72946 1.44053 0
M  V30 5404 H 513.907 -4.20817 0.518532 0
M  V30 5405 C 512.366 -3.30357 -0.660723 0
M  V30 5406 O 512.896 -3.63542 -1.70881 0
M  V30 5407 N 511.102 -2.83507 -0.638139 0
M  V30 5408 H 510.649 -2.567 0.215108 0
M  V30 5409 H 510.607 -2.76153 -1.50289 0
M  V30 5410 N 514.379 -1.04941 -1.1758 0
M  V30 5411 C 515.627 -0.756492 -1.87408 0
M  V30 5412 C 515.948 0.718478 -1.81281 0
M  V30 5413 O 515.218 1.519 -1.23706 0
M  V30 5414 H 513.798 -0.276841 -0.693807 0
M  V30 5415 H 516.46 -1.32803 -1.42652 0
M  V30 5416 H 515.556 -1.06918 -2.93215 0
M  V30 5417 N 515.857 1.33968 -0.830081 0
M  V30 5418 C 517.082 2.02813 -0.433796 0
M  V30 5419 C 517.507 1.62076 0.954614 0
M  V30 5420 O 516.865 0.808955 1.62252 0
M  V30 5421 C 516.913 3.56348 -0.552115 0
M  V30 5422 O 516.017 4.10202 0.425191 0
M  V30 5423 H 515.358 0.639817 -0.177567 0
M  V30 5424 H 517.888 1.7106 -1.12248 0
M  V30 5425 H 517.898 4.05722 -0.430513 0
M  V30 5426 H 516.573 3.85344 -1.56471 0
M  V30 5427 H 515.15 3.71979 0.261878 0
M  V30 5428 N 517.335 0.585699 1.46312 0
M  V30 5429 C 518.267 -0.183687 2.28463 0
M  V30 5430 C 519.28 -0.85264 1.38686 0
M  V30 5431 O 520.469 -0.721701 1.6326 0
M  V30 5432 C 517.569 -1.27977 3.13808 0
M  V30 5433 C 516.742 -0.702164 4.31727 0
M  V30 5434 C 515.801 -1.68633 4.98447 0
M  V30 5435 O 514.827 -1.22121 5.55945 0
M  V30 5436 N 516.029 -3.02047 4.95729 0
M  V30 5437 H 518.794 0.521127 2.95134 0
M  V30 5438 H 516.355 0.423673 1.56258 0
M  V30 5439 H 518.347 -1.9375 3.55307 0
M  V30 5440 H 516.917 -1.8874 2.4919 0
M  V30 5441 H 516.137 0.1331 3.93975 0
M  V30 5442 H 517.425 -0.296101 5.07938 0
M  V30 5443 H 516.823 -3.42457 4.50266 0
M  V30 5444 H 515.38 -3.63301 5.41161 0
M  V30 5445 N 518.813 -1.54241 0.323641 0
M  V30 5446 C 519.746 -2.20579 -0.584833 0
M  V30 5447 C 520.724 -1.18286 -1.11567 0
M  V30 5448 O 521.908 -1.47025 -1.17966 0
M  V30 5449 C 519.035 -2.86754 -1.80249 0
M  V30 5450 C 518.081 -4.02767 -1.4029 0
M  V30 5451 S 518.914 -5.33693 -0.439539 0
M  V30 5452 C 520.07 -6.03362 -1.66448 0
M  V30 5453 H 520.303 -2.97292 -0.0213238 0
M  V30 5454 H 517.836 -1.54024 0.107726 0
M  V30 5455 H 519.794 -3.25503 -2.50116 0
M  V30 5456 H 518.455 -2.09844 -2.33719 0
M  V30 5457 H 517.648 -4.47933 -2.31024 0
M  V30 5458 H 517.25 -3.65692 -0.783928 0
M  V30 5459 H 519.542 -6.25546 -2.6019 0
M  V30 5460 H 520.485 -6.9689 -1.25498 0
M  V30 5461 H 520.893 -5.33273 -1.85149 0
M  V30 5462 N 520.291 -0.0518155 -1.57515 0
M  V30 5463 C 521.537 0.622745 -1.93002 0
M  V30 5464 C 521.87 1.70456 -0.930499 0
M  V30 5465 O 521.145 1.94452 0.0434086 0
M  V30 5466 C 521.428 1.21824 -3.38867 0
M  V30 5467 C 521.281 0.144434 -4.49568 0
M  V30 5468 C 522.6 2.12968 -3.8514 0
M  V30 5469 H 519.719 0.22491 -0.701844 0
M  V30 5470 H 522.361 -0.113711 -1.89659 0
M  V30 5471 H 520.511 1.8459 -3.41846 0
M  V30 5472 H 522.183 -0.48753 -4.58717 0
M  V30 5473 H 520.426 -0.527424 -4.30582 0
M  V30 5474 H 521.097 0.601127 -5.48717 0
M  V30 5475 H 523.573 1.60163 -3.8404 0
M  V30 5476 H 522.449 2.51578 -4.87852 0
M  V30 5477 H 522.71 3.03004 -3.21934 0
M  V30 5478 N 521.769 1.56035 0.221574 0
M  V30 5479 C 522.999 1.82864 0.961468 0
M  V30 5480 C 523.407 0.628703 1.78449 0
M  V30 5481 O 522.75 -0.412109 1.79018 0
M  V30 5482 C 522.812 3.03425 1.92804 0
M  V30 5483 C 522.476 4.38429 1.28954 0
M  V30 5484 C 523.473 5.15441 0.679431 0
M  V30 5485 C 521.158 4.85151 1.30131 0
M  V30 5486 C 523.152 6.37337 0.0896148 0
M  V30 5487 C 520.839 6.06989 0.707651 0
M  V30 5488 C 521.837 6.82923 0.102855 0
M  V30 5489 O 521.525 8.02456 -0.48157 0
M  V30 5490 H 521.257 0.611883 0.28736 0
M  V30 5491 H 523.811 2.0397 0.241932 0
M  V30 5492 H 522.041 2.78138 2.68656 0
M  V30 5493 H 523.73 3.17127 2.53348 0
M  V30 5494 H 524.496 4.80452 0.662661 0
M  V30 5495 H 520.375 4.26021 1.76145 0
M  V30 5496 H 523.919 6.96547 -0.383069 0
M  V30 5497 H 519.816 6.41451 0.721834 0
M  V30 5498 H 520.584 8.17636 -0.375887 0
M  V30 5499 N 523.247 -0.488276 1.49845 0
M  V30 5500 C 524.495 -1.23911 1.59657 0
M  V30 5501 C 524.816 -1.92816 0.291005 0
M  V30 5502 O 524.086 -1.83328 -0.690485 0
M  V30 5503 H 522.666 -0.460357 0.588286 0
M  V30 5504 H 525.328 -0.564794 1.86537 0
M  V30 5505 H 524.424 -1.99625 2.39909 0
M  V30 5506 N 524.725 -1.39134 -0.740242 0
M  V30 5507 C 526.002 -1.26584 -1.49117 0
M  V30 5508 C 526.382 0.126902 -2.10718 0
M  V30 5509 O 525.73 1.13765 -1.98166 0
M  V30 5510 C 525.94 -2.38619 -2.54681 0
M  V30 5511 C 527.288 -2.77685 -3.21211 0
M  V30 5512 O 528.312 -2.38029 -2.64991 0
M  V30 5513 O 527.171 -3.46115 -4.22926 0
M  V30 5514 H 524.265 -0.495769 -0.661923 0
M  V30 5515 H 526.811 -1.50995 -0.774514 0
M  V30 5516 H 525.583 -3.3175 -2.07504 0
M  V30 5517 H 525.206 -2.15845 -3.33911 0
M  V30 5518 N 526.204 0.969867 -1.24223 0
M  V30 5519 C 527.452 1.70918 -1.0785 0
M  V30 5520 C 527.773 1.91186 0.383763 0
M  V30 5521 O 527.043 1.48806 1.27411 0
M  V30 5522 H 525.623 0.633334 -0.396103 0
M  V30 5523 H 528.285 1.16689 -1.56108 0
M  V30 5524 H 527.381 2.69455 -1.57482 0
M  V30 5525 N 527.682 1.05563 1.17022 0
M  V30 5526 C 528.959 0.68165 1.83338 0
M  V30 5527 C 529.339 -0.837665 1.93769 0
M  V30 5528 O 528.687 -1.74507 1.47511 0
M  V30 5529 C 528.897 1.375 3.20772 0
M  V30 5530 C 530.245 1.51545 3.96635 0
M  V30 5531 O 531.269 1.33431 3.30264 0
M  V30 5532 O 530.128 1.812 5.15586 0
M  V30 5533 H 527.222 0.240412 0.791285 0
M  V30 5534 H 529.768 1.15545 1.24288 0
M  V30 5535 H 528.54 2.41135 3.08171 0
M  V30 5536 H 528.163 0.890798 3.87493 0
M  V30 5537 N 529.16 -1.33526 0.837174 0
M  V30 5538 C 530.408 -1.97446 0.431211 0
M  V30 5539 C 530.729 -1.6665 -1.01255 0
M  V30 5540 O 529.999 -0.964559 -1.70508 0
M  V30 5541 H 528.579 -0.73043 0.156463 0
M  V30 5542 H 531.241 -1.62918 1.06976 0
M  V30 5543 H 530.337 -3.07001 0.561877 0
M  V30 5544 N 530.638 -0.59345 -1.46 0
M  V30 5545 C 531.57 0.171569 -2.28557 0
M  V30 5546 C 532.583 0.845273 -1.39137 0
M  V30 5547 O 533.772 0.713033 -1.6364 0
M  V30 5548 C 530.872 1.26311 -3.14482 0
M  V30 5549 C 530.045 0.679258 -4.32094 0
M  V30 5550 C 529.104 1.65987 -4.99334 0
M  V30 5551 O 528.13 1.19171 -5.56585 0
M  V30 5552 N 529.332 2.99414 -4.97324 0
M  V30 5553 H 532.097 -0.536771 -2.94854 0
M  V30 5554 H 529.658 -0.431954 -1.56031 0
M  V30 5555 H 531.65 1.91863 -3.5633 0
M  V30 5556 H 530.22 1.87416 -2.50188 0
M  V30 5557 H 529.44 -0.153992 -3.93899 0
M  V30 5558 H 530.728 0.26916 -5.08088 0
M  V30 5559 H 530.126 3.40064 -4.52076 0
M  V30 5560 H 528.683 3.60426 -5.4308 0
M  V30 5561 N 532.116 1.54067 -0.331816 0
M  V30 5562 C 533.344 2.05131 0.269996 0
M  V30 5563 C 533.759 1.20749 1.45138 0
M  V30 5564 O 533.116 0.240069 1.80914 0
M  V30 5565 C 533.167 3.54728 0.696456 0
M  V30 5566 O 532.888 4.35906 -0.43794 0
M  V30 5567 C 534.389 4.21916 1.36021 0
M  V30 5568 H 531.609 0.668807 0.0542042 0
M  V30 5569 H 534.153 1.98777 -0.4804 0
M  V30 5570 H 532.308 3.61342 1.39681 0
M  V30 5571 H 532.722 5.24404 -0.100334 0
M  V30 5572 H 534.196 5.28015 1.60947 0
M  V30 5573 H 534.673 3.73538 2.31011 0
M  V30 5574 H 535.279 4.19463 0.702212 0
M  V30 5575 N 533.594 0.0601682 1.57485 0
M  V30 5576 C 534.841 -0.611594 1.93043 0
M  V30 5577 C 535.169 -1.70317 0.939274 0
M  V30 5578 O 534.424 -1.95644 -0.046996 0
M  V30 5579 C 534.723 -1.23831 3.35262 0
M  V30 5580 C 534.389 -0.274037 4.50066 0
M  V30 5581 C 533.051 -0.00872394 4.81199 0
M  V30 5582 C 535.403 0.386308 5.19766 0
M  V30 5583 C 532.731 0.924218 5.79375 0
M  V30 5584 C 535.083 1.3075 6.1894 0
M  V30 5585 C 533.747 1.58139 6.48497 0
M  V30 5586 H 533.017 -0.223798 0.706396 0
M  V30 5587 H 535.664 0.128566 1.91068 0
M  V30 5588 H 533.969 -2.05394 3.33647 0
M  V30 5589 H 535.666 -1.76517 3.60059 0
M  V30 5590 H 532.256 -0.491008 4.25778 0
M  V30 5591 H 536.44 0.194436 4.95919 0
M  V30 5592 H 531.696 1.1438 6.00606 0
M  V30 5593 H 535.87 1.82519 6.72056 0
M  V30 5594 H 533.497 2.30593 7.24383 0
M  V30 5595 N 535.072 -1.5615 -0.213296 0
M  V30 5596 C 536.321 -1.78743 -0.93455 0
M  V30 5597 C 536.634 -0.630199 -1.8517 0
M  V30 5598 O 537.84 -0.739966 -2.61222 0
M  V30 5599 C 536.296 -3.16571 -1.71203 0
M  V30 5600 C 535.904 -4.40043 -0.840617 0
M  V30 5601 C 537.648 -3.48485 -2.42401 0
M  V30 5602 C 535.555 -5.68895 -1.61592 0
M  V30 5603 H 534.485 -0.666426 -0.352692 0
M  V30 5604 H 537.136 -1.82532 -0.188227 0
M  V30 5605 H 535.518 -3.06981 -2.50157 0
M  V30 5606 H 536.692 -4.6071 -0.0910326 0
M  V30 5607 H 535.007 -4.15706 -0.240365 0
M  V30 5608 H 537.604 -4.41983 -3.00924 0
M  V30 5609 H 537.947 -2.71371 -3.15695 0
M  V30 5610 H 538.48 -3.59442 -1.7043 0
M  V30 5611 H 535.219 -6.48925 -0.926106 0
M  V30 5612 H 534.739 -5.52275 -2.33991 0
M  V30 5613 H 536.418 -6.09365 -2.17447 0
M  V30 5614 N 536.55 0.480323 -1.50102 0
M  V30 5615 C 537.961 1.06142 -1.53593 0
M  V30 5616 C 538.312 1.93335 -0.334055 0
M  V30 5617 O 537.437 2.09188 0.55403 0
M  V30 5618 C 538.032 1.9317 -2.78336 0
M  V30 5619 C 536.591 2.46405 -2.84538 0
M  V30 5620 C 535.738 1.24521 -2.4777 0
M  V30 5621 H 538.689 0.26333 -1.565 0
M  V30 5622 H 538.71 2.78123 -2.59669 0
M  V30 5623 H 538.222 1.29683 -3.65792 0
M  V30 5624 H 536.323 3.13472 -2.01411 0
M  V30 5625 H 536.436 2.82143 -3.87211 0
M  V30 5626 H 534.8 1.57706 -2.00003 0
M  V30 5627 H 535.583 0.627102 -3.37524 0
M  V30 5628 N 538.028 1.39524 0.732853 0
M  V30 5629 C 538.958 1.41153 1.86005 0
M  V30 5630 C 539.939 0.274614 1.67869 0
M  V30 5631 O 541.124 0.480745 1.88155 0
M  V30 5632 C 538.254 1.25638 3.23778 0
M  V30 5633 C 537.208 2.36752 3.56556 0
M  V30 5634 C 536.534 2.06326 4.93289 0
M  V30 5635 C 537.834 3.79069 3.5931 0
M  V30 5636 H 539.528 2.35484 1.84899 0
M  V30 5637 H 537.074 1.13348 0.888162 0
M  V30 5638 H 539.027 1.25398 4.0231 0
M  V30 5639 H 537.751 0.277772 3.25417 0
M  V30 5640 H 536.41 2.36213 2.80355 0
M  V30 5641 H 536.058 1.06897 4.9151 0
M  V30 5642 H 535.758 2.80757 5.16187 0
M  V30 5643 H 537.282 2.07739 5.74175 0
M  V30 5644 H 538.696 3.81526 4.27914 0
M  V30 5645 H 537.093 4.52878 3.93728 0
M  V30 5646 H 538.163 4.09893 2.59068 0
M  V30 5647 N 539.506 -0.963266 1.24736 0
M  V30 5648 C 540.731 -1.74699 1.11781 0
M  V30 5649 C 541.156 -1.85267 -0.325258 0
M  V30 5650 O 540.514 -1.32681 -1.23553 0
M  V30 5651 C 540.562 -3.14322 1.76731 0
M  V30 5652 O 539.666 -3.99043 1.04109 0
M  V30 5653 H 539.007 -0.53684 0.390767 0
M  V30 5654 H 541.537 -1.20801 1.65131 0
M  V30 5655 H 541.547 -3.64824 1.82668 0
M  V30 5656 H 540.222 -3.05946 2.81726 0
M  V30 5657 H 538.799 -3.5752 1.05991 0
M  V30 5658 N 540.985 -1.06182 -1.16461 0
M  V30 5659 C 542.233 -0.776326 -1.86595 0
M  V30 5660 C 542.554 0.69921 -1.82033 0
M  V30 5661 O 541.824 1.50579 -1.2531 0
M  V30 5662 H 540.404 -0.284184 -0.690832 0
M  V30 5663 H 543.066 -1.34308 -1.41235 0
M  V30 5664 H 542.162 -1.10022 -2.92064 0
M  V30 5665 N 542.463 1.3308 -0.844243 0
M  V30 5666 C 543.711 1.97215 -0.441676 0
M  V30 5667 C 544.032 1.67185 1.0037 0
M  V30 5668 O 543.302 0.973588 1.69994 0
M  V30 5669 H 541.882 0.72959 -0.160335 0
M  V30 5670 H 544.544 1.62348 -1.07838 0
M  V30 5671 H 543.64 3.06698 -0.57815 0
M  V30 5672 N 543.941 0.601185 1.45683 0
M  V30 5673 C 545.19 0.0914953 2.01492 0
M  V30 5674 C 545.503 -1.28331 1.47616 0
M  V30 5675 O 546.709 -1.88537 1.95362 0
M  V30 5676 C 545.165 0.11291 3.59723 0
M  V30 5677 C 544.773 1.48717 4.22596 0
M  V30 5678 C 546.517 -0.341871 4.23121 0
M  V30 5679 C 544.424 1.46531 5.7296 0
M  V30 5680 H 543.354 0.0304365 0.753385 0
M  V30 5681 H 546.005 0.755568 1.67223 0
M  V30 5682 H 544.387 -0.617692 3.91153 0
M  V30 5683 H 545.561 2.23897 4.02749 0
M  V30 5684 H 543.876 1.88351 3.71366 0
M  V30 5685 H 546.473 -0.377304 5.33367 0
M  V30 5686 H 546.816 -1.36325 3.93346 0
M  V30 5687 H 547.349 0.335256 3.96385 0
M  V30 5688 H 544.088 2.46408 6.07423 0
M  V30 5689 H 543.608 0.755997 5.95017 0
M  V30 5690 H 545.287 1.18618 6.36034 0
M  V30 5691 N 545.419 -1.53889 0.339982 0
M  V30 5692 C 546.696 -1.93084 -0.312719 0
M  V30 5693 C 547.076 -1.2712 -1.68534 0
M  V30 5694 O 546.424 -0.420835 -2.24591 0
M  V30 5695 C 546.634 -3.4683 -0.388558 0
M  V30 5696 C 547.982 -4.19732 -0.641088 0
M  V30 5697 O 549.006 -3.53075 -0.470818 0
M  V30 5698 O 547.865 -5.3781 -0.970685 0
M  V30 5699 H 544.959 -0.806784 -0.18174 0
M  V30 5700 H 547.505 -1.65137 0.390898 0
M  V30 5701 H 546.277 -3.87055 0.574821 0
M  V30 5702 H 545.9 -3.80933 -1.1391 0
M  V30 5703 N 546.897 -0.0685191 -1.57451 0
M  V30 5704 C 548.143 0.602239 -1.93652 0
M  V30 5705 C 548.476 1.6946 -0.948526 0
M  V30 5706 O 547.751 1.94487 0.022782 0
M  V30 5707 C 548.034 1.18223 -3.4014 0
M  V30 5708 C 547.887 0.0967431 -4.49696 0
M  V30 5709 C 549.206 2.08872 -3.87377 0
M  V30 5710 H 546.325 0.217453 -0.70419 0
M  V30 5711 H 548.967 -0.133821 -1.89528 0
M  V30 5712 H 547.117 1.80953 -3.43785 0
M  V30 5713 H 548.789 -0.536155 -4.58174 0
M  V30 5714 H 547.032 -0.573063 -4.29998 0
M  V30 5715 H 547.703 0.542894 -5.49324 0
M  V30 5716 H 550.179 1.56081 -3.85717 0
M  V30 5717 H 549.055 2.46389 -4.90493 0
M  V30 5718 H 549.316 2.99572 -3.25129 0
M  V30 5719 N 548.375 1.56261 0.205012 0
M  V30 5720 C 549.621 1.80306 0.9283 0
M  V30 5721 C 549.954 0.640932 1.83319 0
M  V30 5722 O 549.229 -0.359032 1.91158 0
M  V30 5723 C 549.512 3.14547 1.75306 0
M  V30 5724 C 549.365 4.41236 0.873562 0
M  V30 5725 C 550.684 3.45382 2.72762 0
M  V30 5726 H 547.803 0.655929 0.336044 0
M  V30 5727 H 550.445 1.88984 0.196211 0
M  V30 5728 H 548.595 3.0728 2.37721 0
M  V30 5729 H 550.267 4.60539 0.264887 0
M  V30 5730 H 548.51 4.33427 0.179773 0
M  V30 5731 H 549.181 5.31639 1.48541 0
M  V30 5732 H 551.657 3.52884 2.20481 0
M  V30 5733 H 550.533 4.40449 3.2756 0
M  V30 5734 H 550.794 2.68377 3.51321 0
M  V30 5735 N 549.853 -0.472356 1.50355 0
M  V30 5736 C 550.816 -1.5529 1.68576 0
M  V30 5737 C 551.816 -1.50863 0.556511 0
M  V30 5738 O 553.006 -1.53505 0.823516 0
M  V30 5739 C 550.138 -2.94921 1.70981 0
M  V30 5740 H 551.331 -1.40451 2.64978 0
M  V30 5741 H 548.884 -0.698645 1.39816 0
M  V30 5742 H 549.619 -3.15204 0.762675 0
M  V30 5743 H 549.404 -2.99541 2.53017 0
M  V30 5744 H 550.894 -3.73372 1.87037 0
M  V30 5745 N 551.331 -1.39911 -0.725443 0
M  V30 5746 C 552.281 -1.35878 -1.83088 0
M  V30 5747 C 553.265 -0.237989 -1.5913 0
M  V30 5748 O 554.457 -0.476302 -1.70471 0
M  V30 5749 C 551.586 -1.21403 -3.21117 0
M  V30 5750 C 550.672 -2.38223 -3.50871 0
M  V30 5751 N 551.063 -3.63703 -3.51502 0
M  V30 5752 C 549.361 -2.31388 -3.81281 0
M  V30 5753 C 550.062 -4.4101 -3.79322 0
M  V30 5754 N 549.038 -3.7072 -3.97577 0
M  V30 5755 H 552.84 -2.3085 -1.81895 0
M  V30 5756 H 550.354 -1.33543 -0.924125 0
M  V30 5757 H 552.351 -1.16597 -4.00263 0
M  V30 5758 H 551.011 -0.273902 -3.23543 0
M  V30 5759 H 552.022 -3.96998 -3.32586 0
M  V30 5760 H 548.699 -1.45689 -3.91256 0
M  V30 5761 H 550.089 -5.49819 -3.86198 0
M  V30 5762 N 552.809 0.956637 -1.25245 0
M  V30 5763 C 553.719 2.0868 -1.0719 0
M  V30 5764 C 554.735 1.73997 -0.00959074 0
M  V30 5765 O 555.911 2.00301 -0.210104 0
M  V30 5766 C 552.976 3.39754 -0.690526 0
M  V30 5767 C 552.037 3.88316 -1.83055 0
M  V30 5768 C 551.27 5.13134 -1.46728 0
M  V30 5769 O 551.493 5.6925 -0.362029 0
M  V30 5770 O 550.427 5.56356 -2.29677 0
M  V30 5771 H 554.253 2.26813 -2.01965 0
M  V30 5772 H 551.838 1.07098 -1.04165 0
M  V30 5773 H 553.72 4.18543 -0.489871 0
M  V30 5774 H 552.395 3.22896 0.227981 0
M  V30 5775 H 551.302 3.1054 -2.08604 0
M  V30 5776 H 552.635 4.09669 -2.72822 0
M  V30 5777 N 554.287 1.06798 1.15896 0
M  V30 5778 C 555.217 0.704677 2.22613 0
M  V30 5779 C 556.198 -0.305252 1.67339 0
M  V30 5780 O 557.383 -0.179247 1.93371 0
M  V30 5781 C 554.513 0.0957325 3.47168 0
M  V30 5782 C 553.467 1.0322 4.15367 0
M  V30 5783 C 552.793 0.286293 5.33933 0
M  V30 5784 C 554.093 2.36341 4.65768 0
M  V30 5785 H 555.787 1.59688 2.53259 0
M  V30 5786 H 553.333 0.769257 1.21731 0
M  V30 5787 H 555.286 -0.170333 4.21056 0
M  V30 5788 H 554.01 -0.831516 3.15838 0
M  V30 5789 H 552.669 1.28309 3.43413 0
M  V30 5790 H 552.317 -0.644237 4.98857 0
M  V30 5791 H 552.017 0.910436 5.80504 0
M  V30 5792 H 553.541 0.0278938 6.10594 0
M  V30 5793 H 554.955 2.1561 5.31211 0
M  V30 5794 H 553.352 2.94299 5.2298 0
M  V30 5795 H 554.422 2.99047 3.81705 0
M  V30 5796 N 555.766 -1.3263 0.851289 0
M  V30 5797 C 556.994 -2.01563 0.466899 0
M  V30 5798 C 557.409 -1.63996 -0.935447 0
M  V30 5799 O 556.766 -0.85957 -1.6099 0
M  V30 5800 C 556.817 -3.56613 0.592433 0
M  V30 5801 O 556.538 -3.92828 1.93954 0
M  V30 5802 C 558.039 -4.42818 0.206612 0
M  V30 5803 H 555.259 -0.645307 0.183902 0
M  V30 5804 H 557.803 -1.69285 1.1473 0
M  V30 5805 H 555.958 -3.87379 -0.0401936 0
M  V30 5806 H 556.372 -4.87545 1.9339 0
M  V30 5807 H 557.846 -5.50918 0.345462 0
M  V30 5808 H 558.323 -4.30844 -0.85264 0
M  V30 5809 H 558.929 -4.17434 0.814176 0
M  V30 5810 N 557.244 -0.608902 -1.45362 0
M  V30 5811 C 558.194 0.130616 -2.27626 0
M  V30 5812 C 559.178 0.837323 -1.37396 0
M  V30 5813 O 560.37 0.727096 -1.61376 0
M  V30 5814 C 557.499 1.12646 -3.24293 0
M  V30 5815 C 556.585 0.42052 -4.2201 0
M  V30 5816 N 556.976 -0.538569 -5.02925 0
M  V30 5817 C 555.274 0.667901 -4.40971 0
M  V30 5818 C 555.975 -0.953625 -5.7383 0
M  V30 5819 N 554.951 -0.297097 -5.42788 0
M  V30 5820 H 558.753 -0.605996 -2.87585 0
M  V30 5821 H 556.267 -0.432672 -1.5653 0
M  V30 5822 H 558.264 1.67066 -3.81961 0
M  V30 5823 H 556.924 1.86361 -2.65894 0
M  V30 5824 H 557.935 -0.915375 -5.09746 0
M  V30 5825 H 554.612 1.38963 -3.93695 0
M  V30 5826 H 556.002 -1.74473 -6.48852 0
M  V30 5827 N 558.722 1.53707 -0.348139 0
M  V30 5828 C 559.685 2.23812 0.494058 0
M  V30 5829 C 560.685 1.23989 1.02388 0
M  V30 5830 O 561.875 1.48395 0.912396 0
M  V30 5831 C 559.007 2.96133 1.68872 0
M  V30 5832 H 560.2 2.99663 -0.119141 0
M  V30 5833 H 557.753 1.55983 -0.0995539 0
M  V30 5834 H 558.488 2.24481 2.34049 0
M  V30 5835 H 558.273 3.69357 1.31596 0
M  V30 5836 H 559.763 3.49475 2.28597 0
M  V30 5837 N 560.2 0.0768682 1.57412 0
M  V30 5838 C 561.446 -0.591961 1.93968 0
M  V30 5839 C 561.779 -1.68954 0.9575 0
M  V30 5840 O 561.054 -1.94496 -0.0124675 0
M  V30 5841 C 561.337 -1.16418 3.40762 0
M  V30 5842 C 561.19 -0.0728933 4.49741 0
M  V30 5843 C 562.509 -2.06814 3.88479 0
M  V30 5844 H 559.628 -0.213716 0.705333 0
M  V30 5845 H 562.27 0.14387 1.89455 0
M  V30 5846 H 560.42 -1.79128 3.4474 0
M  V30 5847 H 562.092 0.560446 4.57883 0
M  V30 5848 H 560.335 0.595859 4.29688 0
M  V30 5849 H 561.006 -0.513755 5.49604 0
M  V30 5850 H 563.482 -1.54033 3.8654 0
M  V30 5851 H 562.358 -2.43785 4.91793 0
M  V30 5852 H 562.619 -2.97844 3.26713 0
M  V30 5853 N 561.678 -1.56367 -0.196722 0
M  V30 5854 C 562.906 -1.84639 -0.933608 0
M  V30 5855 C 563.321 -0.659164 -1.76919 0
M  V30 5856 O 562.678 0.372142 -1.78665 0
M  V30 5857 C 562.729 -3.11694 -1.83109 0
M  V30 5858 O 562.45 -4.25838 -1.02924 0
M  V30 5859 C 563.951 -3.53132 -2.67979 0
M  V30 5860 H 561.171 -0.613188 -0.272473 0
M  V30 5861 H 563.715 -2.03475 -0.204465 0
M  V30 5862 H 561.87 -2.94759 -2.51387 0
M  V30 5863 H 562.284 -4.98178 -1.64069 0
M  V30 5864 H 563.758 -4.45005 -3.26611 0
M  V30 5865 H 564.235 -2.76045 -3.41608 0
M  V30 5866 H 564.841 -3.72592 -2.05074 0
M  V30 5867 N 563.156 0.464375 -1.50603 0
M  V30 5868 C 564.433 1.22549 -1.5245 0
M  V30 5869 C 564.813 2.09327 -0.273035 0
M  V30 5870 O 564.161 2.16074 0.743242 0
M  V30 5871 C 564.371 2.05074 -2.82393 0
M  V30 5872 C 565.719 2.63036 -3.33313 0
M  V30 5873 O 566.743 2.1531 -2.8376 0
M  V30 5874 O 565.602 3.5001 -4.19709 0
M  V30 5875 H 562.696 0.556471 -0.611775 0
M  V30 5876 H 565.242 0.475648 -1.62898 0
M  V30 5877 H 564.014 1.41169 -3.64948 0
M  V30 5878 H 563.637 2.87179 -2.7498 0
M  V30 5879 N 564.634 1.40294 0.718013 0
M  V30 5880 C 565.864 1.41544 1.50495 0
M  V30 5881 C 566.272 0.0127877 1.89196 0
M  V30 5882 O 565.615 -0.97305 1.55812 0
M  V30 5883 C 565.677 2.24021 2.81167 0
M  V30 5884 C 565.341 3.72463 2.64803 0
M  V30 5885 C 566.338 4.65154 2.32223 0
M  V30 5886 C 564.023 4.1625 2.81143 0
M  V30 5887 C 566.017 5.99618 2.16189 0
M  V30 5888 C 563.704 5.50784 2.64727 0
M  V30 5889 C 564.702 6.42283 2.32297 0
M  V30 5890 O 564.39 7.74337 2.16004 0
M  V30 5891 H 564.122 0.484819 0.471091 0
M  V30 5892 H 566.676 1.84948 0.893488 0
M  V30 5893 H 564.906 1.75393 3.44636 0
M  V30 5894 H 566.595 2.17243 3.42871 0
M  V30 5895 H 567.361 4.32622 2.19234 0
M  V30 5896 H 563.24 3.45352 3.05373 0
M  V30 5897 H 566.784 6.71 1.90799 0
M  V30 5898 H 562.681 5.82902 2.773 0
M  V30 5899 H 563.449 7.85244 2.30942 0
M  V30 5900 N 566.112 -0.949982 1.2575 0
M  V30 5901 C 567.34 -1.72972 1.13527 0
M  V30 5902 C 567.755 -1.8623 -0.310453 0
M  V30 5903 O 567.112 -1.36336 -1.2132 0
M  V30 5904 C 567.163 -3.14108 1.78936 0
M  V30 5905 O 566.884 -3.01493 3.17858 0
M  V30 5906 C 568.385 -4.08338 1.72554 0
M  V30 5907 H 565.605 -0.541864 0.395758 0
M  V30 5908 H 568.149 -1.19151 1.66202 0
M  V30 5909 H 566.304 -3.64858 1.30221 0
M  V30 5910 H 566.718 -3.90559 3.50092 0
M  V30 5911 H 568.192 -5.04963 2.22973 0
M  V30 5912 H 568.669 -4.33742 0.690251 0
M  V30 5913 H 569.275 -3.63506 2.2078 0
M  V30 5914 N 567.59 -1.07411 -1.15328 0
M  V30 5915 C 568.553 -0.698914 -2.18284 0
M  V30 5916 C 569.553 0.261149 -1.58665 0
M  V30 5917 O 570.743 0.0420277 -1.74149 0
M  V30 5918 C 567.875 -0.0302427 -3.40887 0
M  V30 5919 H 569.068 -1.61045 -2.52991 0
M  V30 5920 H 566.621 -0.870724 -1.298 0
M  V30 5921 H 567.356 0.893505 -3.11748 0
M  V30 5922 H 567.141 -0.720759 -3.85419 0
M  V30 5923 H 568.631 0.21759 -4.17033 0
M  V30 5924 N 569.068 1.32177 -0.85831 0
M  V30 5925 C 570.316 1.96735 -0.462568 0
M  V30 5926 C 570.637 1.6824 0.985911 0
M  V30 5927 O 569.907 0.991564 1.68952 0
M  V30 5928 H 568.487 0.727849 -0.168064 0
M  V30 5929 H 571.149 1.61195 -1.09554 0
M  V30 5930 H 570.245 3.06068 -0.610647 0
M  V30 5931 N 570.547 0.616602 1.45037 0
M  V30 5932 C 571.477 -0.0840787 2.33349 0
M  V30 5933 C 572.458 -0.849641 1.4736 0
M  V30 5934 O 573.643 -0.818407 1.76113 0
M  V30 5935 C 570.773 -1.07604 3.3021 0
M  V30 5936 C 569.727 -0.423096 4.25904 0
M  V30 5937 C 569.053 -1.52394 5.12523 0
M  V30 5938 C 570.353 0.661457 5.18095 0
M  V30 5939 H 572.047 0.653333 2.92185 0
M  V30 5940 H 569.593 0.315634 1.40498 0
M  V30 5941 H 571.546 -1.57485 3.90866 0
M  V30 5942 H 570.27 -1.84416 2.69552 0
M  V30 5943 H 568.929 0.05493 3.66559 0
M  V30 5944 H 568.577 -2.28257 4.48227 0
M  V30 5945 H 568.277 -1.09251 5.77354 0
M  V30 5946 H 569.801 -2.02485 5.76049 0
M  V30 5947 H 571.215 0.246353 5.7277 0
M  V30 5948 H 569.612 1.01517 5.91451 0
M  V30 5949 H 570.682 1.53446 4.59981 0
M  V30 5950 N 572.025 -1.5352 0.356285 0
M  V30 5951 C 573.274 -2.00298 -0.237373 0
M  V30 5952 C 573.587 -1.24784 -1.50627 0
M  V30 5953 O 574.793 -1.62103 -2.17795 0
M  V30 5954 C 573.249 -3.56771 -0.473545 0
M  V30 5955 C 572.857 -4.41154 0.780183 0
M  V30 5956 C 574.601 -4.1193 -1.02537 0
M  V30 5957 C 572.508 -5.89161 0.514108 0
M  V30 5958 H 571.438 -0.748307 -0.092478 0
M  V30 5959 H 574.089 -1.77283 0.473588 0
M  V30 5960 H 572.471 -3.75902 -1.24553 0
M  V30 5961 H 573.645 -4.33797 1.55425 0
M  V30 5962 H 571.96 -3.97052 1.25455 0
M  V30 5963 H 574.557 -5.20133 -1.2396 0
M  V30 5964 H 574.9 -3.65943 -1.98473 0
M  V30 5965 H 575.433 -3.96561 -0.313775 0
M  V30 5966 H 572.172 -6.39408 1.44355 0
M  V30 5967 H 571.692 -5.9939 -0.221632 0
M  V30 5968 H 573.371 -6.46857 0.136122 0
M  V30 5969 N 573.503 -0.0852151 -1.57369 0
M  V30 5970 C 574.733 0.588605 -1.98038 0
M  V30 5971 C 575.141 1.62869 -0.962817 0
M  V30 5972 O 574.484 1.83611 0.057134 0
M  V30 5973 C 574.546 1.30303 -3.35054 0
M  V30 5974 C 574.21 0.414855 -4.55113 0
M  V30 5975 C 575.207 -0.333011 -5.18832 0
M  V30 5976 C 572.892 0.335804 -5.01176 0
M  V30 5977 C 574.886 -1.14801 -6.26976 0
M  V30 5978 C 572.573 -0.482857 -6.09189 0
M  V30 5979 C 573.571 -1.22342 -6.71953 0
M  V30 5980 O 573.259 -2.02855 -7.77885 0
M  V30 5981 H 572.991 0.163249 -0.655992 0
M  V30 5982 H 575.545 -0.1582 -2.0479 0
M  V30 5983 H 573.775 2.0962 -3.24956 0
M  V30 5984 H 575.464 1.87041 -3.60237 0
M  V30 5985 H 576.23 -0.281611 -4.84182 0
M  V30 5986 H 572.109 0.901869 -4.52092 0
M  V30 5987 H 575.653 -1.72654 -6.75897 0
M  V30 5988 H 571.55 -0.535773 -6.43273 0
M  V30 5989 H 572.318 -1.95432 -7.94826 0
M  V30 5990 N 574.981 1.5647 0.188427 0
M  V30 5991 C 575.913 1.91611 1.25769 0
M  V30 5992 C 576.926 0.807436 1.41366 0
M  V30 5993 O 578.115 1.08586 1.41673 0
M  V30 5994 C 575.215 2.13874 2.6289 0
M  V30 5995 C 574.388 3.45047 2.68815 0
M  V30 5996 C 573.447 3.56342 3.87178 0
M  V30 5997 O 572.473 4.29109 3.73971 0
M  V30 5998 N 573.675 2.89924 5.02916 0
M  V30 5999 H 576.44 2.8393 0.959373 0
M  V30 6000 H 574.001 1.57418 0.378306 0
M  V30 6001 H 575.993 2.18713 3.4051 0
M  V30 6002 H 574.563 1.28022 2.85183 0
M  V30 6003 H 573.783 3.52017 1.77419 0
M  V30 6004 H 575.071 4.31395 2.6977 0
M  V30 6005 H 574.469 2.30644 5.16546 0
M  V30 6006 H 573.026 3.0038 5.78459 0
M  V30 6007 N 576.459 -0.456382 1.50847 0
M  V30 6008 C 577.407 -1.57318 1.71329 0
M  V30 6009 C 578.401 -1.59187 0.579287 0
M  V30 6010 O 579.607 -1.6316 0.76018 0
M  V30 6011 H 575.982 -0.5223 0.541024 0
M  V30 6012 H 577.953 -1.3721 2.64983 0
M  V30 6013 C 576.702 -2.95142 1.83811 0
M  V30 6014 H 576.025 -2.94428 2.70467 0
M  V30 6015 H 577.465 -3.72702 2.02161 0
M  V30 6016 C 575.924 -3.31636 0.593224 0
M  V30 6017 O 576.454 -4.00852 -0.260898 0
M  V30 6018 N 574.66 -2.87205 0.442902 0
M  V30 6019 H 574.207 -2.31051 1.13901 0
M  V30 6020 H 574.165 -3.11986 -0.38884 0
M  V30 6021 N 577.937 -1.40673 -0.710563 0
M  V30 6022 C 578.847 -1.43663 -1.85467 0
M  V30 6023 C 579.863 -0.328721 -1.70867 0
M  V30 6024 O 581.039 -0.574098 -1.93044 0
M  V30 6025 C 578.104 -1.30226 -3.21313 0
M  V30 6026 C 577.165 -2.51204 -3.48131 0
M  V30 6027 C 576.398 -2.38398 -4.77495 0
M  V30 6028 O 576.621 -1.40048 -5.5294 0
M  V30 6029 O 575.555 -3.2787 -5.04762 0
M  V30 6030 H 579.381 -2.40156 -1.859 0
M  V30 6031 H 576.966 -1.22049 -0.861652 0
M  V30 6032 H 578.848 -1.2496 -4.02446 0
M  V30 6033 H 577.523 -0.368419 -3.21597 0
M  V30 6034 H 576.43 -2.62048 -2.66987 0
M  V30 6035 H 577.763 -3.43366 -3.52648 0
M  V30 6036 N 579.415 0.9433 -1.26252 0
M  V30 6037 C 580.64 1.72898 -1.14547 0
M  V30 6038 C 581.065 1.85761 0.295743 0
M  V30 6039 O 580.423 1.3463 1.21427 0
M  V30 6040 C 580.471 3.11471 -1.8171 0
M  V30 6041 O 579.575 3.97336 -1.10445 0
M  V30 6042 H 578.916 0.530555 -0.399259 0
M  V30 6043 H 581.446 1.18159 -1.67032 0
M  V30 6044 H 581.456 3.61872 -1.88449 0
M  V30 6045 H 580.131 3.01425 -2.86558 0
M  V30 6046 H 578.708 3.55788 -1.11666 0
M  V30 6047 N 580.893 1.08022 1.14757 0
M  V30 6048 C 582.141 0.805913 1.85336 0
M  V30 6049 C 582.462 -0.670162 1.83122 0
M  V30 6050 O 581.732 -1.48567 1.2769 0
M  V30 6051 H 580.312 0.295138 0.686223 0
M  V30 6052 H 582.974 1.36538 1.3908 0
M  V30 6053 H 582.07 1.14655 2.90277 0
M  V30 6054 N 582.371 -1.3172 0.865308 0
M  V30 6055 C 583.334 -2.26918 0.322627 0
M  V30 6056 C 584.334 -1.52031 -0.523751 0
M  V30 6057 O 585.524 -1.70973 -0.333727 0
M  V30 6058 C 582.656 -3.36558 -0.542338 0
M  V30 6059 H 583.849 -2.76432 1.16298 0
M  V30 6060 H 581.402 -1.42573 0.640512 0
M  V30 6061 H 582.137 -2.92329 -1.40407 0
M  V30 6062 H 581.922 -3.92048 0.0636395 0
M  V30 6063 H 583.412 -4.07465 -0.91446 0
M  V30 6064 N 583.85 -0.624285 -1.44708 0
M  V30 6065 C 585.099 -0.123539 -2.01321 0
M  V30 6066 C 585.412 1.25966 -1.49639 0
M  V30 6067 O 586.618 1.85405 -1.98336 0
M  V30 6068 C 585.074 -0.170124 -3.59498 0
M  V30 6069 C 584.682 -1.55421 -4.20176 0
M  V30 6070 C 586.426 0.274513 -4.23611 0
M  V30 6071 C 584.332 -1.55628 -5.70556 0
M  V30 6072 H 583.263 -0.0424183 -0.752806 0
M  V30 6073 H 585.913 -0.782076 -1.65999 0
M  V30 6074 H 584.296 0.555385 -3.92086 0
M  V30 6075 H 585.47 -2.30276 -3.99136 0
M  V30 6076 H 583.784 -1.94235 -3.68323 0
M  V30 6077 H 586.382 0.292402 -5.339 0
M  V30 6078 H 586.725 1.3005 -3.95465 0
M  V30 6079 H 587.258 -0.398275 -3.95801 0
M  V30 6080 H 583.997 -2.56041 -6.03426 0
M  V30 6081 H 583.517 -0.850563 -5.93739 0
M  V30 6082 H 585.196 -1.28721 -6.34066 0
M  V30 6083 N 585.328 1.53329 -0.364422 0
M  V30 6084 C 586.276 2.27212 0.497737 0
M  V30 6085 C 587.27 1.30146 1.08437 0
M  V30 6086 O 588.476 1.47778 1.0277 0
M  V30 6087 H 584.851 0.730329 0.179232 0
M  V30 6088 H 586.822 2.98037 -0.147182 0
M  V30 6089 C 585.571 3.07333 1.6261 0
M  V30 6090 H 584.894 3.81866 1.184 0
M  V30 6091 H 586.334 3.62209 2.20409 0
M  V30 6092 C 584.793 2.18102 2.56775 0
M  V30 6093 O 585.323 1.79104 3.59562 0
M  V30 6094 N 583.529 1.82759 2.25937 0
M  V30 6095 H 583.076 2.14671 1.42387 0
M  V30 6096 H 583.034 1.23342 2.89196 0
M  V30 6097 N 586.806 0.0935595 1.57322 0
M  V30 6098 C 587.716 -0.880192 2.17462 0
M  V30 6099 C 588.732 -1.31135 1.14366 0
M  V30 6100 O 589.908 -1.37958 1.46729 0
M  V30 6101 C 586.973 -2.12184 2.74188 0
M  V30 6102 C 586.034 -1.74503 3.92234 0
M  V30 6103 C 585.267 -2.92748 4.46245 0
M  V30 6104 O 585.49 -4.07427 3.99198 0
M  V30 6105 O 584.424 -2.71303 5.37288 0
M  V30 6106 H 588.25 -0.398516 3.01074 0
M  V30 6107 H 585.835 -0.130707 1.48827 0
M  V30 6108 H 587.717 -2.84953 3.10451 0
M  V30 6109 H 586.392 -2.59407 1.93623 0
M  V30 6110 H 585.299 -0.989186 3.60785 0
M  V30 6111 H 586.632 -1.32044 4.74157 0
M  V30 6112 N 588.284 -1.56567 -0.180126 0
M  V30 6113 C 589.247 -1.94852 -1.20686 0
M  V30 6114 C 590.247 -0.831212 -1.3765 0
M  V30 6115 O 591.437 -1.09841 -1.35206 0
M  V30 6116 C 588.569 -2.23565 -2.57355 0
M  V30 6117 H 589.762 -2.86722 -0.879225 0
M  V30 6118 H 587.315 -1.50489 -0.422237 0
M  V30 6119 H 588.05 -1.34381 -2.95148 0
M  V30 6120 H 587.835 -3.04999 -2.46411 0
M  V30 6121 H 589.325 -2.54137 -3.31367 0
M  V30 6122 N 589.762 0.448376 -1.51087 0
M  V30 6123 C 591.011 1.19561 -1.62444 0
M  V30 6124 C 591.324 1.92602 -0.341151 0
M  V30 6125 O 592.53 2.69439 -0.333936 0
M  V30 6126 C 590.986 2.17373 -2.8684 0
M  V30 6127 C 590.594 1.5003 -4.22131 0
M  V30 6128 C 592.338 2.92597 -3.0755 0
M  V30 6129 C 590.245 2.46262 -5.37689 0
M  V30 6130 H 589.175 0.449975 -0.605011 0
M  V30 6131 H 591.826 0.463735 -1.77544 0
M  V30 6132 H 590.208 2.93948 -2.65349 0
M  V30 6133 H 591.382 0.790886 -4.53962 0
M  V30 6134 H 589.697 0.870011 -4.0721 0
M  V30 6135 H 592.294 3.64663 -3.91056 0
M  V30 6136 H 592.637 3.53306 -2.20183 0
M  V30 6137 H 593.17 2.23131 -3.29329 0
M  V30 6138 H 589.909 1.90258 -6.27281 0
M  V30 6139 H 589.429 3.15289 -5.10248 0
M  V30 6140 H 591.108 3.07623 -5.6919 0
M  V30 6141 N 591.24 1.41047 0.703093 0
M  V30 6142 C 592.465 1.43537 1.49706 0
M  V30 6143 C 592.89 0.0401853 1.88057 0
M  V30 6144 O 592.248 -0.954785 1.54122 0
M  V30 6145 C 592.296 2.3433 2.74084 0
M  V30 6146 O 591.4 1.79515 3.71279 0
M  V30 6147 H 590.741 0.487454 0.450871 0
M  V30 6148 H 593.271 1.85422 0.86486 0
M  V30 6149 H 593.281 2.49947 3.22476 0
M  V30 6150 H 591.956 3.35708 2.45506 0
M  V30 6151 H 590.533 1.7331 3.30179 0
M  V30 6152 N 592.718 -0.936591 1.26751 0
M  V30 6153 C 593.995 -1.66094 1.03306 0
M  V30 6154 C 594.375 -2.06568 -0.435058 0
M  V30 6155 O 593.723 -1.79305 -1.41641 0
M  V30 6156 C 593.933 -2.86969 1.98619 0
M  V30 6157 C 595.281 -3.58516 2.27489 0
M  V30 6158 O 596.305 -2.97082 1.96522 0
M  V30 6159 O 595.164 -4.69181 2.80235 0
M  V30 6160 H 592.258 -0.727568 0.393158 0
M  V30 6161 H 594.804 -0.987914 1.3798 0
M  V30 6162 H 593.576 -2.53985 2.9767 0
M  V30 6163 H 593.199 -3.61996 1.64454 0
M  V30 6164 N 594.196 -1.08629 -1.14182 0
M  V30 6165 C 595.445 -0.812271 -1.84621 0
M  V30 6166 C 595.758 0.664313 -1.83973 0
M  V30 6167 O 596.964 1.05357 -2.50224 0
M  V30 6168 C 595.42 -1.4031 -3.31423 0
M  V30 6169 C 595.028 -2.91164 -3.40481 0
M  V30 6170 C 596.772 -1.20767 -4.06959 0
M  V30 6171 C 594.679 -3.43373 -4.81507 0
M  V30 6172 H 593.609 -0.30019 -0.691666 0
M  V30 6173 H 596.26 -1.30798 -1.28701 0
M  V30 6174 H 594.642 -0.835096 -3.87094 0
M  V30 6175 H 595.816 -3.5412 -2.94848 0
M  V30 6176 H 594.131 -3.09646 -2.78403 0
M  V30 6177 H 596.728 -1.57237 -5.11058 0
M  V30 6178 H 597.071 -0.147664 -4.16038 0
M  V30 6179 H 597.604 -1.74274 -3.57594 0
M  V30 6180 H 594.343 -4.48958 -4.77616 0
M  V30 6181 H 593.863 -2.85176 -5.27669 0
M  V30 6182 H 595.542 -3.40095 -5.50404 0
M  V30 6183 N 595.674 1.31259 -0.872281 0
M  V30 6184 C 596.921 1.96622 -0.484365 0
M  V30 6185 C 597.249 1.68939 0.963841 0
M  V30 6186 O 596.504 0.97974 1.6941 0
M  V30 6187 C 596.803 3.50659 -0.690889 0
M  V30 6188 C 596.469 3.98366 -2.11224 0
M  V30 6189 C 595.131 4.11104 -2.50094 0
M  V30 6190 C 597.483 4.23425 -3.0391 0
M  V30 6191 C 594.811 4.46254 -3.80887 0
M  V30 6192 C 597.163 4.60039 -4.3422 0
M  V30 6193 C 595.827 4.70984 -4.73001 0
M  V30 6194 H 595.097 0.71949 -0.177242 0
M  V30 6195 H 597.744 1.56353 -1.10571 0
M  V30 6196 H 596.049 3.91798 0.0135782 0
M  V30 6197 H 597.746 3.99284 -0.370534 0
M  V30 6198 H 594.336 3.88949 -1.80047 0
M  V30 6199 H 598.52 4.13075 -2.75104 0
M  V30 6200 H 593.776 4.52926 -4.10692 0
M  V30 6201 H 597.95 4.78381 -5.06088 0
M  V30 6202 H 595.577 4.97977 -5.7439 0
M  V30 6203 N 597.152 0.631951 1.44375 0
M  V30 6204 C 598.4 0.136497 2.01639 0
M  V30 6205 C 598.721 -1.24637 1.49969 0
M  V30 6206 O 597.991 -1.82827 0.70363 0
M  V30 6207 H 596.571 0.0474703 0.74549 0
M  V30 6208 H 599.233 0.818837 1.76865 0
M  V30 6209 H 598.329 0.104817 3.11924 0
M  V30 6210 N 598.631 -1.53133 0.372548 0
M  V30 6211 C 599.859 -2.05774 -0.215515 0
M  V30 6212 C 600.274 -1.24555 -1.41886 0
M  V30 6213 O 599.631 -0.287951 -1.80214 0
M  V30 6214 C 599.682 -3.5645 -0.602161 0
M  V30 6215 O 599.403 -4.34591 0.553359 0
M  V30 6216 C 600.904 -4.25374 -1.24787 0
M  V30 6217 H 598.124 -0.670009 -0.0364529 0
M  V30 6218 H 600.668 -1.97434 0.532934 0
M  V30 6219 H 598.823 -3.64918 -1.30052 0
M  V30 6220 H 599.237 -5.23954 0.239336 0
M  V30 6221 H 600.711 -5.32097 -1.46891 0
M  V30 6222 H 601.188 -3.79531 -2.21026 0
M  V30 6223 H 601.794 -4.21177 -0.590752 0
M  V30 6224 N 600.109 -0.101901 -1.5727 0
M  V30 6225 C 601.039 0.851544 -2.17419 0
M  V30 6226 C 602.02 1.28942 -1.10941 0
M  V30 6227 O 603.205 1.35509 -1.39107 0
M  V30 6228 C 600.335 2.10816 -2.75996 0
M  V30 6229 C 599.289 1.80867 -3.87906 0
M  V30 6230 C 598.615 3.13413 -4.33216 0
M  V30 6231 C 599.915 1.0903 -5.10793 0
M  V30 6232 H 601.609 0.350381 -2.97343 0
M  V30 6233 H 599.155 0.16709 -1.43027 0
M  V30 6234 H 601.108 2.77959 -3.16729 0
M  V30 6235 H 599.832 2.63227 -1.93337 0
M  V30 6236 H 598.491 1.16119 -3.47724 0
M  V30 6237 H 598.139 3.63725 -3.47438 0
M  V30 6238 H 597.839 2.94155 -5.08671 0
M  V30 6239 H 599.363 3.81704 -4.76586 0
M  V30 6240 H 600.777 1.66295 -5.48652 0
M  V30 6241 H 599.174 0.99927 -5.91722 0
M  V30 6242 H 600.244 0.0741704 -4.84843 0
M  V30 6243 N 601.587 1.56661 0.17182 0
M  V30 6244 C 602.833 1.82235 0.889845 0
M  V30 6245 C 603.166 0.679673 1.81918 0
M  V30 6246 O 602.441 -0.318404 1.91876 0
M  V30 6247 C 602.724 3.18195 1.68595 0
M  V30 6248 C 602.577 4.42989 0.779773 0
M  V30 6249 C 603.896 3.5109 2.65375 0
M  V30 6250 H 601.015 0.66291 0.322056 0
M  V30 6251 H 603.657 1.89358 0.15608 0
M  V30 6252 H 601.807 3.12253 2.3115 0
M  V30 6253 H 603.479 4.60997 0.16714 0
M  V30 6254 H 601.722 4.33711 0.0877964 0
M  V30 6255 H 602.393 5.3467 1.3723 0
M  V30 6256 H 604.869 3.57482 2.12946 0
M  V30 6257 H 603.745 4.47298 3.18144 0
M  V30 6258 H 604.006 2.75768 3.45549 0
M  V30 6259 N 603.065 -0.440357 1.51323 0
M  V30 6260 C 603.975 -1.55955 1.75258 0
M  V30 6261 C 604.991 -1.61933 0.636687 0
M  V30 6262 O 606.167 -1.79231 0.918593 0
M  V30 6263 C 603.232 -2.9196 1.86977 0
M  V30 6264 C 602.293 -2.96122 3.10822 0
M  V30 6265 C 601.526 -4.2564 3.21973 0
M  V30 6266 O 601.749 -5.17851 2.39137 0
M  V30 6267 O 600.683 -4.36025 4.14929 0
M  V30 6268 H 604.509 -1.38673 2.70191 0
M  V30 6269 H 602.094 -0.623055 1.35788 0
M  V30 6270 H 603.976 -3.72682 1.96688 0
M  V30 6271 H 602.651 -3.09375 0.952307 0
M  V30 6272 H 601.558 -2.14366 3.06591 0
M  V30 6273 H 602.891 -2.83651 4.02247 0
M  V30 6274 N 604.543 -1.41418 -0.695603 0
M  V30 6275 C 605.79 -1.40774 -1.45564 0
M  V30 6276 C 606.118 -0.0168604 -1.94493 0
M  V30 6277 O 605.373 0.971259 -1.69897 0
M  V30 6278 C 605.672 -2.36112 -2.68302 0
M  V30 6279 C 605.338 -3.82952 -2.38031 0
M  V30 6280 C 604 -4.22954 -2.29486 0
M  V30 6281 C 606.352 -4.75662 -2.13061 0
M  V30 6282 C 603.68 -5.53674 -1.94067 0
M  V30 6283 C 606.032 -6.06702 -1.79151 0
M  V30 6284 C 604.696 -6.45725 -1.69102 0
M  V30 6285 H 603.966 -0.515128 -0.532658 0
M  V30 6286 H 606.613 -1.74216 -0.795047 0
M  V30 6287 H 604.918 -1.95924 -3.39295 0
M  V30 6288 H 606.615 -2.32887 -3.26442 0
M  V30 6289 H 603.205 -3.5127 -2.45576 0
M  V30 6290 H 607.389 -4.45561 -2.18608 0
M  V30 6291 H 602.645 -5.8279 -1.8484 0
M  V30 6292 H 606.819 -6.78041 -1.5885 0
M  V30 6293 H 604.446 -7.46929 -1.41426 0
M  V30 6294 N 606.021 0.929856 -1.27246 0
M  V30 6295 C 607.251 1.70895 -1.16096 0
M  V30 6296 C 607.659 1.87039 0.285122 0
M  V30 6297 O 607.002 1.38557 1.20614 0
M  V30 6298 C 607.064 3.12919 -1.7698 0
M  V30 6299 C 606.728 3.2012 -3.26148 0
M  V30 6300 C 607.725 3.02533 -4.22812 0
M  V30 6301 C 605.41 3.43148 -3.66817 0
M  V30 6302 C 607.404 3.07861 -5.58122 0
M  V30 6303 C 605.091 3.48109 -5.02258 0
M  V30 6304 C 606.089 3.30483 -5.97721 0
M  V30 6305 O 605.777 3.35175 -7.30694 0
M  V30 6306 H 605.509 0.54152 -0.404639 0
M  V30 6307 H 608.063 1.17342 -1.68582 0
M  V30 6308 H 606.293 3.67945 -1.18969 0
M  V30 6309 H 607.982 3.72787 -1.60576 0
M  V30 6310 H 608.748 2.84586 -3.92728 0
M  V30 6311 H 604.627 3.55918 -2.9299 0
M  V30 6312 H 608.171 2.94021 -6.32612 0
M  V30 6313 H 604.068 3.65579 -5.31998 0
M  V30 6314 H 604.836 3.51644 -7.39114 0
M  V30 6315 N 607.499 1.09233 1.13605 0
M  V30 6316 C 608.462 0.733553 2.17144 0
M  V30 6317 C 609.462 -0.235873 1.59061 0
M  V30 6318 O 610.652 -0.0143167 1.74194 0
M  V30 6319 C 607.784 0.084471 3.40795 0
M  V30 6320 H 608.977 1.65049 2.50397 0
M  V30 6321 H 606.53 0.891264 1.28399 0
M  V30 6322 H 607.265 -0.843795 3.1313 0
M  V30 6323 H 607.05 0.781985 3.84223 0
M  V30 6324 H 608.54 -0.151216 4.17326 0
M  V30 6325 N 608.977 -1.30795 0.87923 0
M  V30 6326 C 609.925 -2.30231 0.331112 0
M  V30 6327 C 610.919 -1.59918 -0.558794 0
M  V30 6328 O 612.125 -1.74441 -0.443866 0
M  V30 6329 H 608.5 -0.746785 0.088409 0
M  V30 6330 H 610.471 -2.73925 1.18353 0
M  V30 6331 C 609.22 -3.44848 -0.444401 0
M  V30 6332 H 608.543 -3.99131 0.231106 0
M  V30 6333 H 609.983 -4.16516 -0.793109 0
M  V30 6334 C 608.442 -2.94329 -1.63926 0
M  V30 6335 O 608.972 -2.93875 -2.73862 0
M  V30 6336 N 607.178 -2.50413 -1.4745 0
M  V30 6337 H 606.725 -2.50982 -0.58015 0
M  V30 6338 H 606.683 -2.16969 -2.27534 0
M  V30 6339 N 610.455 -0.639598 -1.44038 0
M  V30 6340 C 611.402 0.0602458 -2.30721 0
M  V30 6341 C 612.372 0.828352 -1.43971 0
M  V30 6342 O 613.557 0.807693 -1.72861 0
M  V30 6343 C 610.697 1.03008 -3.29368 0
M  V30 6344 C 609.81 0.259502 -4.3122 0
M  V30 6345 C 608.945 1.22191 -5.16955 0
M  V30 6346 C 607.984 0.440978 -6.10509 0
M  V30 6347 N 607.121 1.35428 -6.88915 0
M  V30 6348 H 611.961 -0.684867 -2.90023 0
M  V30 6349 H 609.498 -0.349509 -1.42888 0
M  V30 6350 H 611.456 1.60583 -3.85057 0
M  V30 6351 H 610.086 1.74222 -2.71747 0
M  V30 6352 H 609.138 -0.432317 -3.77935 0
M  V30 6353 H 610.45 -0.348347 -4.97582 0
M  V30 6354 H 609.604 1.86873 -5.77203 0
M  V30 6355 H 608.343 1.86367 -4.50687 0
M  V30 6356 H 607.348 -0.219279 -5.49363 0
M  V30 6357 H 608.573 -0.196192 -6.78817 0
M  V30 6358 H 606.519 1.9831 -6.25307 0
M  V30 6359 H 606.436 0.800657 -7.51748 0
M  V30 6360 H 607.704 1.98967 -7.53679 0
M  V30 6361 N 611.933 1.52934 -0.380664 0
M  V30 6362 C 612.881 2.27727 0.47361 0
M  V30 6363 C 613.875 1.31288 1.0705 0
M  V30 6364 O 615.081 1.4886 1.01197 0
M  V30 6365 H 611.456 0.732189 0.171475 0
M  V30 6366 H 613.427 2.97864 -0.178785 0
M  V30 6367 C 612.176 3.0904 1.59341 0
M  V30 6368 H 611.499 3.831 1.14343 0
M  V30 6369 H 612.939 3.64527 2.16555 0
M  V30 6370 C 611.398 2.20813 2.54447 0
M  V30 6371 O 611.928 1.82907 3.57642 0
M  V30 6372 N 610.134 1.85145 2.23986 0
M  V30 6373 H 609.681 2.16169 1.40103 0
M  V30 6374 H 609.639 1.26402 2.87871 0
M  V30 6375 N 613.412 0.11024 1.57214 0
M  V30 6376 C 614.823 -0.416527 1.81994 0
M  V30 6377 C 615.174 -1.67183 1.02686 0
M  V30 6378 O 614.299 -2.14823 0.260782 0
M  V30 6379 C 614.894 -0.762466 3.30109 0
M  V30 6380 C 613.453 -1.23391 3.556 0
M  V30 6381 C 612.6 -0.238166 2.76275 0
M  V30 6382 H 615.551 0.335491 1.55113 0
M  V30 6383 H 615.572 -1.62068 3.44259 0
M  V30 6384 H 615.084 0.151346 3.87805 0
M  V30 6385 H 613.185 -2.16492 3.03253 0
M  V30 6386 H 613.298 -1.18528 4.64207 0
M  V30 6387 H 611.662 -0.723421 2.4421 0
M  V30 6388 H 612.445 0.668591 3.36727 0
M  V30 6389 N 614.89 -1.56749 -0.16351 0
M  V30 6390 C 616.167 -1.73321 -0.906599 0
M  V30 6391 C 616.547 -0.673779 -2.00059 0
M  V30 6392 O 615.895 0.310121 -2.26386 0
M  V30 6393 C 616.105 -3.168 -1.46419 0
M  V30 6394 C 617.453 -3.77993 -1.93407 0
M  V30 6395 O 618.477 -3.20127 -1.56196 0
M  V30 6396 O 617.336 -4.79615 -2.61976 0
M  V30 6397 H 614.43 -0.708073 -0.427272 0
M  V30 6398 H 616.976 -1.69029 -0.150727 0
M  V30 6399 H 615.748 -3.85396 -0.677189 0
M  V30 6400 H 615.371 -3.2545 -2.28403 0
M  V30 6401 N 616.368 0.432326 -1.51554 0
M  V30 6402 C 617.614 1.17997 -1.65675 0
M  V30 6403 C 617.969 1.88794 -0.37076 0
M  V30 6404 O 617.262 1.80817 0.633692 0
M  V30 6405 C 617.456 2.21907 -2.80164 0
M  V30 6406 C 617.285 1.6131 -4.19773 0
M  V30 6407 C 616.055 1.39585 -4.85638 0
M  V30 6408 C 618.253 1.08659 -5.0269 0
M  V30 6409 N 616.235 0.746374 -6.09346 0
M  V30 6410 C 617.606 0.562685 -6.17441 0
M  V30 6411 C 619.661 0.978831 -4.88184 0
M  V30 6412 C 618.364 -0.0584015 -7.19276 0
M  V30 6413 C 620.39 0.371631 -5.90231 0
M  V30 6414 C 619.752 -0.141711 -7.04257 0
M  V30 6415 H 615.851 0.419277 -0.660099 0
M  V30 6416 H 618.435 0.475809 -1.88797 0
M  V30 6417 H 616.606 2.89706 -2.58698 0
M  V30 6418 H 618.338 2.88867 -2.8344 0
M  V30 6419 H 615.093 1.65897 -4.43593 0
M  V30 6420 H 615.517 0.438934 -6.75576 0
M  V30 6421 H 620.159 1.36157 -4.00276 0
M  V30 6422 H 617.877 -0.453262 -8.06828 0
M  V30 6423 H 621.463 0.290086 -5.81076 0
M  V30 6424 H 620.343 -0.60417 -7.81869 0
M  V30 6425 N 617.846 1.41785 0.688094 0
M  V30 6426 C 618.756 1.46596 1.83158 0
M  V30 6427 C 619.772 0.355862 1.70322 0
M  V30 6428 O 620.948 0.604737 1.92106 0
M  V30 6429 C 618.013 1.35322 3.192 0
M  V30 6430 C 617.074 2.56711 3.4409 0
M  V30 6431 C 616.307 2.45965 4.73642 0
M  V30 6432 O 616.53 1.48827 5.50642 0
M  V30 6433 O 615.464 3.35859 4.99482 0
M  V30 6434 H 619.29 2.43083 1.82056 0
M  V30 6435 H 616.875 1.23404 0.842126 0
M  V30 6436 H 618.757 1.31347 4.00407 0
M  V30 6437 H 617.432 0.419536 3.2097 0
M  V30 6438 H 616.339 2.66262 2.62784 0
M  V30 6439 H 617.672 3.48933 3.47141 0
M  V30 6440 N 619.324 -0.923095 1.27737 0
M  V30 6441 C 620.573 -1.66581 1.13727 0
M  V30 6442 C 620.886 -1.9304 -0.315433 0
M  V30 6443 O 622.092 -2.65309 -0.57651 0
M  V30 6444 C 620.548 -3.00047 1.98745 0
M  V30 6445 C 620.156 -2.8127 3.48699 0
M  V30 6446 C 621.9 -3.77887 1.93395 0
M  V30 6447 C 619.807 -4.1032 4.25901 0
M  V30 6448 H 618.737 -0.624834 0.422017 0
M  V30 6449 H 621.388 -1.02514 1.52194 0
M  V30 6450 H 619.77 -3.65197 1.53125 0
M  V30 6451 H 620.944 -2.24859 4.02213 0
M  V30 6452 H 619.259 -2.16854 3.55476 0
M  V30 6453 H 621.856 -4.73526 2.48348 0
M  V30 6454 H 622.199 -4.06264 0.908605 0
M  V30 6455 H 622.732 -3.19541 2.36935 0
M  V30 6456 H 619.471 -3.8712 5.28978 0
M  V30 6457 H 618.991 -4.66377 3.77163 0
M  V30 6458 H 620.67 -4.78648 4.35321 0
M  V30 6459 N 620.802 -1.09834 -1.13024 0
M  V30 6460 C 622.05 -0.835297 -1.8403 0
M  V30 6461 C 622.371 0.640944 -1.84165 0
M  V30 6462 O 621.641 1.46517 -1.30037 0
M  V30 6463 H 620.221 -0.306018 -0.681441 0
M  V30 6464 H 622.883 -1.38734 -1.36891 0
M  V30 6465 H 621.979 -1.19258 -2.88416 0
M  V30 6466 N 622.28 1.30327 -0.886154 0
M  V30 6467 C 623.19 2.31854 -0.357866 0
M  V30 6468 C 624.206 1.65392 0.540502 0
M  V30 6469 O 625.382 1.96683 0.433339 0
M  V30 6470 C 622.447 3.44171 0.417999 0
M  V30 6471 C 621.508 4.26257 -0.510263 0
M  V30 6472 C 620.741 5.3321 0.228669 0
M  V30 6473 O 620.964 5.51542 1.45458 0
M  V30 6474 O 619.898 6.0042 -0.421832 0
M  V30 6475 H 623.724 2.78995 -1.19982 0
M  V30 6476 H 621.309 1.34518 -0.650028 0
M  V30 6477 H 623.191 4.12588 0.857251 0
M  V30 6478 H 621.866 2.99164 1.23623 0
M  V30 6479 H 620.773 3.60533 -0.99835 0
M  V30 6480 H 622.106 4.74871 -1.29454 0
M  V30 6481 N 623.758 0.647228 1.43697 0
M  V30 6482 C 625.035 0.0883758 1.954 0
M  V30 6483 C 625.415 -1.39006 1.58873 0
M  V30 6484 O 624.763 -2.11255 0.87083 0
M  V30 6485 C 624.973 0.328263 3.47453 0
M  V30 6486 C 626.321 0.230009 4.23977 0
M  V30 6487 O 627.345 0.260496 3.55246 0
M  V30 6488 O 626.204 0.148615 5.46298 0
M  V30 6489 H 623.298 -0.0130683 0.826897 0
M  V30 6490 H 625.844 0.72005 1.53666 0
M  V30 6491 H 624.616 1.3535 3.67146 0
M  V30 6492 H 624.239 -0.336772 3.96171 0
M  V30 6493 N 625.236 -1.5273 0.388769 0
M  V30 6494 C 626.482 -2.01871 -0.193877 0
M  V30 6495 C 626.815 -1.27475 -1.46505 0
M  V30 6496 O 626.09 -0.375063 -1.90849 0
M  V30 6497 C 626.373 -3.5712 -0.462336 0
M  V30 6498 C 626.226 -4.42186 0.824091 0
M  V30 6499 C 627.545 -4.21881 -1.25319 0
M  V30 6500 H 624.664 -0.733764 -0.0689899 0
M  V30 6501 H 627.306 -1.82796 0.518231 0
M  V30 6502 H 625.456 -3.73504 -1.06896 0
M  V30 6503 H 627.128 -4.37554 1.46096 0
M  V30 6504 H 625.371 -4.09219 1.43952 0
M  V30 6505 H 626.042 -5.48828 0.590905 0
M  V30 6506 H 628.518 -4.0947 -0.73981 0
M  V30 6507 H 627.394 -5.30487 -1.40977 0
M  V30 6508 H 627.655 -3.79478 -2.26824 0
M  V30 6509 N 626.714 -0.118576 -1.57153 0
M  V30 6510 C 627.944 0.546466 -1.99242 0
M  V30 6511 C 628.352 1.60791 -0.997148 0
M  V30 6512 O 627.695 1.83691 0.0181745 0
M  V30 6513 C 627.757 1.23167 -3.37743 0
M  V30 6514 C 627.421 0.318226 -4.55891 0
M  V30 6515 C 628.418 -0.442988 -5.18009 0
M  V30 6516 C 626.103 0.229421 -5.01776 0
M  V30 6517 C 628.097 -1.28074 -6.244 0
M  V30 6518 C 625.784 -0.611966 -6.08028 0
M  V30 6519 C 626.782 -1.36568 -6.69207 0
M  V30 6520 O 626.47 -2.1931 -7.73407 0
M  V30 6521 H 626.202 0.149297 -0.659307 0
M  V30 6522 H 628.756 -0.201603 -2.04408 0
M  V30 6523 H 626.986 2.0268 -3.29329 0
M  V30 6524 H 628.675 1.79358 -3.64123 0
M  V30 6525 H 629.441 -0.38425 -4.83475 0
M  V30 6526 H 625.32 0.805771 -4.53903 0
M  V30 6527 H 628.864 -1.86952 -6.72082 0
M  V30 6528 H 624.761 -0.6721 -6.41991 0
M  V30 6529 H 625.529 -2.12247 -7.90502 0
M  V30 6530 N 628.193 1.56834 0.155195 0
M  V30 6531 C 629.421 1.87049 0.884326 0
M  V30 6532 C 629.836 0.705839 1.7511 0
M  V30 6533 O 629.193 -0.324641 1.79589 0
M  V30 6534 C 629.244 3.1644 1.74781 0
M  V30 6535 O 628.965 4.28417 0.915978 0
M  V30 6536 C 630.466 3.60113 2.58522 0
M  V30 6537 H 627.686 0.620196 0.25612 0
M  V30 6538 H 630.23 2.03946 0.150445 0
M  V30 6539 H 628.385 3.01321 2.43484 0
M  V30 6540 H 628.799 5.02353 1.50803 0
M  V30 6541 H 630.273 4.53508 3.14698 0
M  V30 6542 H 630.75 2.85005 3.34169 0
M  V30 6543 H 631.356 3.77898 1.95124 0
M  V30 6544 N 629.671 -0.424282 1.51781 0
M  V30 6545 C 631.082 -1.00368 1.57427 0
M  V30 6546 C 631.433 -1.91962 0.40558 0
M  V30 6547 O 630.558 -2.111 -0.47601 0
M  V30 6548 C 631.153 -1.82707 2.85313 0
M  V30 6549 C 629.712 -2.35675 2.93487 0
M  V30 6550 C 628.859 -1.1524 2.5222 0
M  V30 6551 H 631.81 -0.205064 1.5737 0
M  V30 6552 H 631.831 -2.68294 2.69812 0
M  V30 6553 H 631.343 -1.16017 3.70353 0
M  V30 6554 H 629.444 -3.05781 2.12906 0
M  V30 6555 H 629.557 -2.67578 3.97415 0
M  V30 6556 H 627.921 -1.50174 2.05718 0
M  V30 6557 H 628.704 -0.5014 3.39619 0
M  V30 6558 N 631.149 -1.42148 -0.680565 0
M  V30 6559 C 632.397 -1.42029 -1.43779 0
M  V30 6560 C 632.718 -0.0356347 -1.94967 0
M  V30 6561 O 631.988 0.924936 -1.7269 0
M  V30 6562 H 630.568 -0.522835 -0.533529 0
M  V30 6563 H 633.23 -1.7752 -0.804538 0
M  V30 6564 H 632.326 -2.11658 -2.29363 0
M  V30 6565 N 632.627 0.916307 -1.28225 0
M  V30 6566 C 633.876 1.65975 -1.14608 0
M  V30 6567 C 634.189 1.93204 0.305191 0
M  V30 6568 O 635.395 2.65611 0.562432 0
M  V30 6569 C 633.851 2.98989 -2.00333 0
M  V30 6570 C 633.459 2.79417 -3.50186 0
M  V30 6571 C 635.203 3.76856 -1.95397 0
M  V30 6572 C 633.11 4.08056 -4.28071 0
M  V30 6573 H 632.04 0.622587 -0.425324 0
M  V30 6574 H 634.691 1.01705 -1.52736 0
M  V30 6575 H 633.073 3.6438 -1.5506 0
M  V30 6576 H 634.247 2.22723 -4.034 0
M  V30 6577 H 632.562 2.14966 -3.56621 0
M  V30 6578 H 635.159 4.72203 -2.50856 0
M  V30 6579 H 635.502 4.05776 -0.930137 0
M  V30 6580 H 636.035 3.1828 -2.38626 0
M  V30 6581 H 632.774 3.8431 -5.31024 0
M  V30 6582 H 632.294 4.64371 -3.79631 0
M  V30 6583 H 633.973 4.76333 -4.37854 0
M  V30 6584 N 634.105 1.10431 1.1244 0
M  V30 6585 C 635.33 0.869089 1.88313 0
M  V30 6586 C 635.755 -0.574912 1.79099 0
M  V30 6587 O 635.113 -1.40496 1.14589 0
M  V30 6588 C 635.161 1.32208 3.3549 0
M  V30 6589 O 634.265 0.487092 4.09513 0
M  V30 6590 H 633.606 0.313894 0.585121 0
M  V30 6591 H 636.136 1.47111 1.42195 0
M  V30 6592 H 636.146 1.31201 3.86329 0
M  V30 6593 H 634.821 2.37364 3.41513 0
M  V30 6594 H 633.398 0.562372 3.68635 0
M  V30 6595 N 635.583 -1.29855 0.893053 0
M  V30 6596 C 636.831 -1.9544 0.514566 0
M  V30 6597 C 637.152 -1.70795 -0.940959 0
M  V30 6598 O 636.422 -1.03601 -1.66264 0
M  V30 6599 H 635.002 -0.723137 0.187302 0
M  V30 6600 H 637.664 -1.58234 1.13789 0
M  V30 6601 H 636.76 -3.04341 0.691581 0
M  V30 6602 N 637.061 -0.65484 -1.43351 0
M  V30 6603 C 638.338 -0.0987371 -1.95351 0
M  V30 6604 C 638.718 1.38161 -1.59608 0
M  V30 6605 O 638.066 2.10791 -0.882021 0
M  V30 6606 C 638.276 -0.346684 -3.47274 0
M  V30 6607 C 639.624 -0.25249 -4.23849 0
M  V30 6608 O 640.648 -0.279332 -3.55103 0
M  V30 6609 O 639.507 -0.177584 -5.46211 0
M  V30 6610 H 636.601 0.0086829 -0.826954 0
M  V30 6611 H 639.147 -0.728189 -1.53282 0
M  V30 6612 H 637.919 -1.37296 -3.66423 0
M  V30 6613 H 637.542 0.315757 -3.96344 0
M  V30 6614 N 638.539 1.52521 -0.396863 0
M  V30 6615 C 639.764 2.06571 0.185258 0
M  V30 6616 C 640.189 1.26605 1.39115 0
M  V30 6617 O 639.547 0.293055 1.78916 0
M  V30 6618 C 639.595 3.5674 0.526189 0
M  V30 6619 O 638.699 3.7929 1.61903 0
M  V30 6620 H 638.04 0.663712 0.0195474 0
M  V30 6621 H 640.57 1.966 -0.566519 0
M  V30 6622 H 640.58 4.00311 0.788338 0
M  V30 6623 H 639.255 4.14379 -0.355397 0
M  V30 6624 H 637.832 3.47605 1.35 0
M  V30 6625 N 640.017 0.126909 1.57088 0
M  V30 6626 C 640.947 -0.816847 2.18746 0
M  V30 6627 C 641.928 -1.27161 1.12979 0
M  V30 6628 O 643.113 -1.33279 1.41246 0
M  V30 6629 C 640.243 -2.06398 2.79315 0
M  V30 6630 C 639.197 -1.74673 3.90735 0
M  V30 6631 C 638.523 -3.06482 4.38147 0
M  V30 6632 C 639.823 -1.0089 5.12463 0
M  V30 6633 H 641.517 -0.303032 2.97863 0
M  V30 6634 H 639.063 -0.144314 1.43275 0
M  V30 6635 H 641.016 -2.72885 3.2111 0
M  V30 6636 H 639.74 -2.60118 1.975 0
M  V30 6637 H 638.399 -1.10572 3.49527 0
M  V30 6638 H 638.047 -3.58152 3.5318 0
M  V30 6639 H 637.747 -2.86025 5.13287 0
M  V30 6640 H 639.271 -3.74073 4.82599 0
M  V30 6641 H 640.685 -1.57546 5.51228 0
M  V30 6642 H 639.082 -0.905006 5.93237 0
M  V30 6643 H 640.152 0.00297335 4.849 0
M  V30 6644 N 641.495 -1.56914 -0.146875 0
M  V30 6645 C 642.911 -1.51582 -0.499518 0
M  V30 6646 C 643.111 -0.83535 -1.83369 0
M  V30 6647 O 642.167 -0.405932 -2.49216 0
M  V30 6648 C 643.48 -2.96349 -0.509711 0
M  V30 6649 C 645.028 -3.07288 -0.595217 0
M  V30 6650 C 645.503 -4.53562 -0.636071 0
M  V30 6651 N 646.994 -4.57906 -0.69829 0
M  V30 6652 C 647.729 -5.68462 -0.750886 0
M  V30 6653 N 647.225 -6.88588 -0.76282 0
M  V30 6654 N 649.018 -5.56496 -0.791777 0
M  V30 6655 H 641.169 -1.99547 0.727656 0
M  V30 6656 H 643.432 -0.910113 0.265327 0
M  V30 6657 H 643.138 -3.4939 0.402409 0
M  V30 6658 H 643.012 -3.52307 -1.34758 0
M  V30 6659 H 645.399 -2.54266 -1.49776 0
M  V30 6660 H 645.48 -2.54373 0.2698 0
M  V30 6661 H 645.124 -5.07222 0.262313 0
M  V30 6662 H 645.054 -5.04259 -1.51758 0
M  V30 6663 H 647.545 -3.71429 -0.696362 0
M  V30 6664 H 647.858 -7.68598 -0.804804 0
M  V30 6665 H 646.203 -6.91148 -0.730694 0
M  V30 6666 H 649.394 -4.61562 -0.779624 0
M  V30 6667 H 649.567 -6.42671 -0.829301 0
M  V30 6668 N 642.974 0.416227 -1.52004 0
M  V30 6669 C 644.199 1.19029 -1.69843 0
M  V30 6670 C 644.624 1.83708 -0.404103 0
M  V30 6671 O 643.982 1.69711 0.637787 0
M  V30 6672 C 644.03 2.23439 -2.83032 0
M  V30 6673 O 643.134 3.29419 -2.48106 0
M  V30 6674 H 642.475 0.347785 -0.565634 0
M  V30 6675 H 645.005 0.488871 -1.98674 0
M  V30 6676 H 645.015 2.67884 -3.07737 0
M  V30 6677 H 643.69 1.75745 -3.76944 0
M  V30 6678 H 642.267 2.90303 -2.34048 0
M  V30 6679 N 644.452 1.42507 0.673017 0
M  V30 6680 C 645.385 1.40557 1.79774 0
M  V30 6681 C 646.363 0.269606 1.60349 0
M  V30 6682 O 647.547 0.460105 1.82798 0
M  V30 6683 C 644.674 1.19815 3.168 0
M  V30 6684 C 643.72 2.36429 3.5497 0
M  V30 6685 S 644.553 3.98963 3.57196 0
M  V30 6686 C 645.709 3.80567 4.9691 0
M  V30 6687 H 645.942 2.35734 1.81154 0
M  V30 6688 H 643.475 1.293 0.843846 0
M  V30 6689 H 645.433 1.08535 3.95892 0
M  V30 6690 H 644.094 0.262215 3.13004 0
M  V30 6691 H 643.287 2.17669 4.54573 0
M  V30 6692 H 642.889 2.44233 2.83242 0
M  V30 6693 H 645.181 3.41668 5.85038 0
M  V30 6694 H 646.124 4.79852 5.20718 0
M  V30 6695 H 646.532 3.13399 4.69512 0
M  V30 6696 N 645.93 -0.909495 1.28709 0
M  V30 6697 C 647.155 -1.69801 1.1909 0
M  V30 6698 C 647.58 -1.86479 -0.246388 0
M  V30 6699 O 646.938 -1.37802 -1.17815 0
M  V30 6700 C 646.986 -3.06543 1.89904 0
M  V30 6701 O 646.09 -3.94268 1.2094 0
M  V30 6702 H 645.431 -0.519783 0.413185 0
M  V30 6703 H 647.961 -1.13689 1.70106 0
M  V30 6704 H 647.971 -3.56748 1.97977 0
M  V30 6705 H 646.646 -2.93722 2.94449 0
M  V30 6706 H 645.223 -3.52702 1.2106 0
M  V30 6707 N 647.408 -1.11026 -1.11852 0
M  V30 6708 C 648.685 -0.768347 -1.79877 0
M  V30 6709 C 649.065 0.744261 -1.97545 0
M  V30 6710 O 648.413 1.67271 -1.55669 0
M  V30 6711 C 648.623 -1.52648 -3.13846 0
M  V30 6712 C 649.971 -1.70297 -3.88953 0
M  V30 6713 O 650.995 -1.49037 -3.23522 0
M  V30 6714 O 649.854 -2.05593 -5.06353 0
M  V30 6715 H 646.948 -0.277891 -0.778913 0
M  V30 6716 H 649.494 -1.21343 -1.18633 0
M  V30 6717 H 648.266 -2.55564 -2.96315 0
M  V30 6718 H 647.889 -1.07466 -3.82801 0
M  V30 6719 N 648.886 1.2938 -0.899927 0
M  V30 6720 C 650.297 1.77644 -0.574427 0
M  V30 6721 C 650.648 1.73824 0.909928 0
M  V30 6722 O 649.773 1.32429 1.71147 0
M  V30 6723 C 650.368 3.22573 -1.03595 0
M  V30 6724 C 648.927 3.68614 -0.76161 0
M  V30 6725 C 648.074 2.49483 -1.21052 0
M  V30 6726 H 651.025 1.16038 -1.08263 0
M  V30 6727 H 651.046 3.78684 -0.371337 0
M  V30 6728 H 650.558 3.25321 -2.11631 0
M  V30 6729 H 648.659 3.7134 0.306127 0
M  V30 6730 H 648.772 4.59402 -1.35965 0
M  V30 6731 H 647.136 2.46798 -0.629515 0
M  V30 6732 H 647.919 2.54959 -2.29893 0
M  V30 6733 N 650.364 0.662433 1.43002 0
M  V30 6734 C 651.327 -0.0142016 2.29196 0
M  V30 6735 C 652.327 -0.741394 1.42688 0
M  V30 6736 O 653.517 -0.581257 1.64216 0
M  V30 6737 C 650.649 -1.03084 3.24941 0
M  V30 6738 H 651.842 0.7443 2.90517 0
M  V30 6739 H 649.395 0.424133 1.50435 0
M  V30 6740 H 650.13 -1.81826 2.68533 0
M  V30 6741 H 649.915 -0.512946 3.8873 0
M  V30 6742 H 651.405 -1.50308 3.89612 0
M  V30 6743 N 651.842 -1.52309 0.404946 0
M  V30 6744 C 652.789 -2.26898 -0.422597 0
M  V30 6745 C 653.759 -1.2914 -1.04461 0
M  V30 6746 O 654.944 -1.57996 -1.06967 0
M  V30 6747 C 652.084 -3.09053 -1.53559 0
M  V30 6748 C 651.197 -4.21762 -0.934908 0
M  V30 6749 C 650.332 -4.91283 -2.02025 0
M  V30 6750 C 649.371 -5.95962 -1.39628 0
M  V30 6751 N 648.508 -6.59017 -2.42159 0
M  V30 6752 H 653.348 -2.97188 0.219903 0
M  V30 6753 H 650.885 -1.46607 0.120282 0
M  V30 6754 H 652.843 -3.54987 -2.19181 0
M  V30 6755 H 651.473 -2.40942 -2.14818 0
M  V30 6756 H 650.525 -3.80029 -0.167854 0
M  V30 6757 H 651.837 -4.96864 -0.439073 0
M  V30 6758 H 650.991 -5.40601 -2.75383 0
M  V30 6759 H 649.73 -4.15741 -2.54973 0
M  V30 6760 H 648.735 -5.45968 -0.648023 0
M  V30 6761 H 649.96 -6.73445 -0.874553 0
M  V30 6762 H 647.906 -5.86306 -2.94247 0
M  V30 6763 H 647.823 -7.2978 -1.97376 0
M  V30 6764 H 649.091 -7.12974 -3.15099 0
M  V30 6765 N 653.32 -0.135238 -1.57019 0
M  V30 6766 C 654.55 0.525303 -1.9981 0
M  V30 6767 C 654.958 1.59724 -1.01415 0
M  V30 6768 O 654.301 1.837 -0.00130938 0
M  V30 6769 C 654.363 1.19578 -3.3903 0
M  V30 6770 C 654.027 0.269855 -4.56203 0
M  V30 6771 C 655.024 -0.497905 -5.1751 0
M  V30 6772 C 652.709 0.176188 -5.01991 0
M  V30 6773 C 654.703 -1.3469 -6.23007 0
M  V30 6774 C 652.39 -0.676422 -6.07345 0
M  V30 6775 C 653.388 -1.43658 -6.67721 0
M  V30 6776 O 653.076 -2.27501 -7.71037 0
M  V30 6777 H 652.808 0.142296 -0.660854 0
M  V30 6778 H 655.362 -0.223272 -2.04183 0
M  V30 6779 H 653.592 1.99176 -3.3146 0
M  V30 6780 H 655.281 1.75486 -3.66005 0
M  V30 6781 H 656.047 -0.435507 -4.83041 0
M  V30 6782 H 651.926 0.757583 -4.54733 0
M  V30 6783 H 655.47 -1.9407 -6.70062 0
M  V30 6784 H 651.367 -0.740154 -6.41243 0
M  V30 6785 H 652.135 -2.20619 -7.88206 0
M  V30 6786 N 654.798 1.5699 0.138552 0
M  V30 6787 C 656.046 1.83446 0.848053 0
M  V30 6788 C 656.367 0.71744 1.81322 0
M  V30 6789 O 655.637 -0.260228 1.94164 0
M  V30 6790 H 654.217 0.676792 0.316166 0
M  V30 6791 H 656.879 1.94462 0.130538 0
M  V30 6792 H 655.975 2.78677 1.40518 0
M  V30 6793 N 656.276 -0.40816 1.52223 0
M  V30 6794 C 657.553 -1.16807 1.56893 0
M  V30 6795 C 657.933 -2.08169 0.350537 0
M  V30 6796 O 657.281 -2.18684 -0.662536 0
M  V30 6797 C 657.491 -1.94451 2.8981 0
M  V30 6798 C 658.839 -2.50484 3.42845 0
M  V30 6799 O 659.863 -2.0463 2.91556 0
M  V30 6800 O 658.722 -3.34192 4.3241 0
M  V30 6801 H 655.816 -0.533382 0.632007 0
M  V30 6802 H 658.362 -0.414862 1.64551 0
M  V30 6803 H 657.134 -1.27527 3.69936 0
M  V30 6804 H 656.757 -2.76775 2.85449 0
M  V30 6805 N 657.755 -1.42862 -0.66545 0
M  V30 6806 C 659.166 -1.3901 -1.24632 0
M  V30 6807 C 659.517 -0.0880285 -1.96002 0
M  V30 6808 O 658.642 0.812947 -2.0055 0
M  V30 6809 C 659.237 -2.51806 -2.2667 0
M  V30 6810 C 657.796 -2.51257 -2.80262 0
M  V30 6811 C 656.943 -2.30124 -1.5472 0
M  V30 6812 H 659.894 -1.5194 -0.458237 0
M  V30 6813 H 659.915 -2.22593 -3.08598 0
M  V30 6814 H 659.427 -3.46558 -1.74697 0
M  V30 6815 H 657.528 -1.60349 -3.36332 0
M  V30 6816 H 657.641 -3.48614 -3.28641 0
M  V30 6817 H 656.005 -1.7856 -1.81627 0
M  V30 6818 H 656.788 -3.26945 -1.04699 0
M  V30 6819 N 659.233 0.902656 -1.29189 0
M  V30 6820 C 660.51 1.63296 -1.07674 0
M  V30 6821 C 660.89 2.07649 0.380137 0
M  V30 6822 O 660.238 1.82997 1.36837 0
M  V30 6823 C 660.448 2.81603 -2.06158 0
M  V30 6824 C 661.796 3.52359 -2.36914 0
M  V30 6825 O 662.82 2.91767 -2.04329 0
M  V30 6826 O 661.679 4.61586 -2.92576 0
M  V30 6827 H 658.773 0.716889 -0.41231 0
M  V30 6828 H 661.319 0.950984 -1.4055 0
M  V30 6829 H 660.091 2.46004 -3.04299 0
M  V30 6830 H 659.714 3.57508 -1.73993 0
M  V30 6831 N 660.711 1.11618 1.11262 0
M  V30 6832 C 661.661 0.745274 2.15475 0
M  V30 6833 C 662.645 -0.251585 1.58921 0
M  V30 6834 O 663.837 -0.0584093 1.76904 0
M  V30 6835 C 660.966 0.192128 3.42762 0
M  V30 6836 C 660.052 1.21676 4.0627 0
M  V30 6837 N 660.443 2.41158 4.44608 0
M  V30 6838 C 658.741 1.06013 4.33217 0
M  V30 6839 C 659.442 3.0652 4.94389 0
M  V30 6840 N 658.418 2.33994 4.9066 0
M  V30 6841 H 662.22 1.65462 2.42898 0
M  V30 6842 H 659.734 0.995695 1.28295 0
M  V30 6843 H 661.731 -0.0917339 4.16799 0
M  V30 6844 H 660.391 -0.711778 3.16802 0
M  V30 6845 H 661.402 2.786 4.3658 0
M  V30 6846 H 658.079 0.212809 4.16957 0
M  V30 6847 H 659.469 4.08225 5.33669 0
M  V30 6848 N 662.189 -1.289 0.906776 0
M  V30 6849 C 663.419 -1.99112 0.551168 0
M  V30 6850 C 663.827 -1.67998 -0.870243 0
M  V30 6851 O 663.17 -0.92525 -1.58697 0
M  V30 6852 C 663.232 -3.53162 0.672065 0
M  V30 6853 C 662.896 -4.07849 2.06174 0
M  V30 6854 C 663.893 -4.22212 3.0337 0
M  V30 6855 C 661.578 -4.4271 2.37304 0
M  V30 6856 C 663.572 -4.70678 4.29815 0
M  V30 6857 C 661.259 -4.90871 3.6399 0
M  V30 6858 C 662.257 -5.04811 4.6006 0
M  V30 6859 O 661.945 -5.51925 5.84495 0
M  V30 6860 H 661.677 -0.642728 0.209469 0
M  V30 6861 H 664.231 -1.65234 1.22012 0
M  V30 6862 H 662.461 -3.86662 -0.05394 0
M  V30 6863 H 664.15 -4.046 0.324579 0
M  V30 6864 H 664.916 -3.9556 2.80637 0
M  V30 6865 H 660.795 -4.31114 1.63283 0
M  V30 6866 H 664.339 -4.81474 5.04806 0
M  V30 6867 H 660.236 -5.16961 3.86551 0
M  V30 6868 H 661.004 -5.70225 5.87185 0
M  V30 6869 N 663.667 -0.670007 -1.42649 0
M  V30 6870 C 664.892 -0.196955 -2.06463 0
M  V30 6871 C 665.317 1.1352 -1.49983 0
M  V30 6872 O 664.675 1.705 -0.616397 0
M  V30 6873 C 664.723 -0.137381 -3.60338 0
M  V30 6874 O 663.827 0.895523 -4.02559 0
M  V30 6875 H 663.168 -0.102579 -0.656029 0
M  V30 6876 H 665.698 -0.917669 -1.82866 0
M  V30 6877 H 665.708 0.0403625 -4.0798 0
M  V30 6878 H 664.383 -1.10977 -4.0082 0
M  V30 6879 H 662.96 0.689209 -3.66476 0
M  V30 6880 N 665.145 1.52092 -0.413018 0
M  V30 6881 C 666.092 2.27119 0.410558 0
M  V30 6882 C 667.062 1.29692 1.03774 0
M  V30 6883 O 668.247 1.58561 1.06128 0
M  V30 6884 C 665.387 3.09863 1.51918 0
M  V30 6885 C 664.5 4.22252 0.912528 0
M  V30 6886 C 663.635 4.92348 1.99417 0
M  V30 6887 C 662.674 5.96694 1.36466 0
M  V30 6888 N 661.811 6.60292 2.38661 0
M  V30 6889 H 666.651 2.97067 -0.235661 0
M  V30 6890 H 664.188 1.46542 -0.128055 0
M  V30 6891 H 666.146 3.56144 2.17295 0
M  V30 6892 H 664.776 2.42078 2.13537 0
M  V30 6893 H 663.828 3.80113 0.147697 0
M  V30 6894 H 665.14 4.9709 0.412717 0
M  V30 6895 H 664.294 5.42054 2.72512 0
M  V30 6896 H 663.033 4.17087 2.52764 0
M  V30 6897 H 662.038 5.46304 0.61906 0
M  V30 6898 H 663.263 6.73899 0.838827 0
M  V30 6899 H 661.209 5.87858 2.91134 0
M  V30 6900 H 661.126 7.30816 1.93503 0
M  V30 6901 H 662.394 7.14635 3.11314 0
M  V30 6902 N 666.623 0.143563 1.56945 0
M  V30 6903 C 668.039 -0.212877 1.58174 0
M  V30 6904 C 668.239 -1.64926 1.15766 0
M  V30 6905 O 667.295 -2.37535 0.856361 0
M  V30 6906 C 668.608 0.0427573 3.0067 0
M  V30 6907 C 670.156 -0.0212221 3.12993 0
M  V30 6908 C 670.631 0.207036 4.57532 0
M  V30 6909 N 672.122 0.153845 4.62944 0
M  V30 6910 C 672.857 0.305018 5.72588 0
M  V30 6911 N 672.353 0.513722 6.90893 0
M  V30 6912 N 674.146 0.242862 5.61575 0
M  V30 6913 H 666.297 1.08148 1.82805 0
M  V30 6914 H 668.56 0.427831 0.84597 0
M  V30 6915 H 668.266 1.03672 3.36073 0
M  V30 6916 H 668.14 -0.678195 3.71053 0
M  V30 6917 H 670.527 -1.00574 2.77433 0
M  V30 6918 H 670.608 0.732004 2.45103 0
M  V30 6919 H 670.252 1.18863 4.93795 0
M  V30 6920 H 670.182 -0.566473 5.23544 0
M  V30 6921 H 672.673 -0.00294866 3.779 0
M  V30 6922 H 672.986 0.619273 7.70315 0
M  V30 6923 H 671.331 0.550001 6.9282 0
M  V30 6924 H 674.522 0.0806015 4.68031 0
M  V30 6925 H 674.695 0.364112 6.46976 0
M  V30 6926 N 668.101 -1.57061 -0.130224 0
M  V30 6927 C 669.331 -1.88159 -0.853217 0
M  V30 6928 C 669.739 -0.731675 -1.7448 0
M  V30 6929 O 669.082 0.307035 -1.81116 0
M  V30 6930 C 669.144 -3.1415 -1.74785 0
M  V30 6931 C 668.808 -4.45202 -1.03173 0
M  V30 6932 C 669.805 -5.18526 -0.377759 0
M  V30 6933 C 667.49 -4.91912 -1.01624 0
M  V30 6934 C 669.484 -6.36775 0.282123 0
M  V30 6935 C 667.171 -6.10082 -0.352555 0
M  V30 6936 C 668.169 -6.82361 0.295483 0
M  V30 6937 O 667.857 -7.98284 0.948606 0
M  V30 6938 H 667.589 -0.627596 -0.251197 0
M  V30 6939 H 670.143 -2.05034 -0.1226 0
M  V30 6940 H 668.373 -2.93328 -2.51983 0
M  V30 6941 H 670.062 -3.31359 -2.34427 0
M  V30 6942 H 670.828 -4.83498 -0.381417 0
M  V30 6943 H 666.707 -4.35566 -1.51007 0
M  V30 6944 H 670.251 -6.93129 0.788525 0
M  V30 6945 H 666.148 -6.44569 -0.346621 0
M  V30 6946 H 666.916 -8.14054 0.851954 0
M  V30 6947 N 669.579 0.400081 -1.52437 0
M  V30 6948 C 670.807 1.16768 -1.70801 0
M  V30 6949 C 671.222 1.84036 -0.421462 0
M  V30 6950 O 670.579 1.72242 0.603228 0
M  V30 6951 C 670.63 2.22403 -2.8499 0
M  V30 6952 O 670.351 1.57879 -4.08663 0
M  V30 6953 C 671.852 3.11974 -3.1494 0
M  V30 6954 H 669.072 0.350533 -0.57216 0
M  V30 6955 H 671.616 0.469534 -1.99037 0
M  V30 6956 H 669.771 2.87871 -2.59247 0
M  V30 6957 H 670.185 2.27982 -4.7236 0
M  V30 6958 H 671.659 3.82148 -3.9833 0
M  V30 6959 H 672.136 3.74858 -2.28863 0
M  V30 6960 H 672.742 2.52165 -3.42481 0
M  V30 6961 N 671.057 1.43213 0.657864 0
M  V30 6962 C 672.305 1.44298 1.41501 0
M  V30 6963 C 672.626 0.0666478 1.94886 0
M  V30 6964 O 671.896 -0.897345 1.74139 0
M  V30 6965 H 670.476 0.531257 0.525143 0
M  V30 6966 H 673.138 1.78777 0.776195 0
M  V30 6967 H 672.234 2.1528 2.25966 0
M  V30 6968 N 672.536 -0.895792 1.29666 0
M  V30 6969 C 673.764 -1.68001 1.20761 0
M  V30 6970 C 674.179 -1.87379 -0.231187 0
M  V30 6971 O 673.536 -1.41359 -1.15429 0
M  V30 6972 C 673.587 -3.06236 1.92098 0
M  V30 6973 O 673.308 -2.8774 3.30359 0
M  V30 6974 C 674.809 -4.00652 1.89717 0
M  V30 6975 H 672.029 -0.524591 0.418384 0
M  V30 6976 H 674.573 -1.11995 1.71106 0
M  V30 6977 H 672.728 -3.59007 1.45578 0
M  V30 6978 H 673.142 -3.75359 3.66342 0
M  V30 6979 H 674.616 -4.95051 2.44189 0
M  V30 6980 H 675.093 -4.30424 0.873595 0
M  V30 6981 H 675.699 -3.53815 2.35998 0
M  V30 6982 N 674.014 -1.12206 -1.10668 0
M  V30 6983 C 674.946 -0.74552 -2.16736 0
M  V30 6984 C 675.959 0.226696 -1.61214 0
M  V30 6985 O 677.148 0.0083936 -1.78498 0
M  V30 6986 C 674.248 -0.0823368 -3.388 0
M  V30 6987 C 673.421 -1.08341 -4.2377 0
M  V30 6988 C 672.48 -0.448292 -5.24287 0
M  V30 6989 O 671.506 -1.10458 -5.58379 0
M  V30 6990 N 672.708 0.785336 -5.75163 0
M  V30 6991 H 675.473 -1.65818 -2.49649 0
M  V30 6992 H 673.034 -1.01335 -1.26265 0
M  V30 6993 H 675.026 0.354476 -4.03145 0
M  V30 6994 H 673.596 0.733041 -3.03884 0
M  V30 6995 H 672.816 -1.69792 -3.55759 0
M  V30 6996 H 674.104 -1.76042 -4.77375 0
M  V30 6997 H 673.502 1.33755 -5.4966 0
M  V30 6998 H 672.059 1.16501 -6.41304 0
M  V30 6999 N 675.492 1.28418 -0.913599 0
M  V30 7000 C 676.769 1.89977 -0.465619 0
M  V30 7001 C 677.149 1.82813 1.05559 0
M  V30 7002 O 676.497 1.26397 1.90358 0
M  V30 7003 C 676.707 3.34492 -0.995813 0
M  V30 7004 C 678.055 4.11468 -1.04782 0
M  V30 7005 O 679.079 3.43451 -0.944445 0
M  V30 7006 O 677.938 5.33046 -1.20518 0
M  V30 7007 H 675.032 0.813734 -0.147532 0
M  V30 7008 H 677.578 1.36786 -1.00437 0
M  V30 7009 H 676.35 3.33929 -2.03978 0
M  V30 7010 H 675.973 3.95181 -0.437878 0
M  V30 7011 N 676.97 0.677563 1.42291 0
M  V30 7012 C 677.918 -0.0106755 2.32598 0
M  V30 7013 C 678.912 -0.787643 1.49975 0
M  V30 7014 O 680.118 -0.695295 1.66029 0
M  V30 7015 H 676.493 -0.0222482 0.751671 0
M  V30 7016 H 678.464 0.768312 2.88339 0
M  V30 7017 C 677.213 -0.946142 3.3458 0
M  V30 7018 H 676.536 -0.357701 3.98197 0
M  V30 7019 H 677.976 -1.39634 4.00348 0
M  V30 7020 C 676.435 -2.05383 2.67057 0
M  V30 7021 O 676.965 -3.1406 2.50458 0
M  V30 7022 N 675.171 -1.82635 2.26038 0
M  V30 7023 H 674.718 -0.942534 2.39737 0
M  V30 7024 H 674.676 -2.56937 1.81192 0
M  V30 7025 N 678.448 -1.51871 0.421078 0
M  V30 7026 C 679.696 -2.01539 -0.150492 0
M  V30 7027 C 680.017 -1.30803 -1.44623 0
M  V30 7028 O 679.287 -0.437568 -1.90951 0
M  V30 7029 H 677.867 -0.744698 -0.0586041 0
M  V30 7030 H 680.529 -1.8668 0.560059 0
M  V30 7031 H 679.625 -3.10264 -0.338068 0
M  V30 7032 N 679.926 -0.151884 -1.56866 0
M  V30 7033 C 681.174 0.497021 -1.95893 0
M  V30 7034 C 681.495 1.65078 -1.03799 0
M  V30 7035 O 680.765 1.95642 -0.10049 0
M  V30 7036 H 679.345 0.186603 -0.723318 0
M  V30 7037 H 682.007 -0.228525 -1.93556 0
M  V30 7038 H 681.103 0.869933 -2.99731 0
M  V30 7039 N 681.404 1.57128 0.121893 0
M  V30 7040 C 682.65 1.84974 0.831418 0
M  V30 7041 C 682.983 0.737204 1.79663 0
M  V30 7042 O 682.258 -0.257199 1.92792 0
M  V30 7043 C 682.541 3.23397 1.58386 0
M  V30 7044 C 682.394 4.45246 0.638445 0
M  V30 7045 C 683.713 3.59355 2.54071 0
M  V30 7046 H 680.832 0.67282 0.300803 0
M  V30 7047 H 683.474 1.89759 0.0957587 0
M  V30 7048 H 681.624 3.19449 2.21098 0
M  V30 7049 H 683.296 4.61295 0.0203925 0
M  V30 7050 H 681.539 4.33771 -0.05023 0
M  V30 7051 H 682.21 5.38765 1.20151 0
M  V30 7052 H 684.686 3.64075 2.01465 0
M  V30 7053 H 683.562 4.57193 3.03752 0
M  V30 7054 H 683.823 2.86622 3.36601 0
M  V30 7055 N 682.882 -0.391992 1.52647 0
M  V30 7056 C 683.832 -1.47815 1.73594 0
M  V30 7057 C 684.816 -1.49693 0.589979 0
M  V30 7058 O 686.008 -1.5538 0.847701 0
M  V30 7059 C 683.137 -2.85561 1.90551 0
M  V30 7060 C 682.223 -2.88264 3.1107 0
M  V30 7061 N 682.614 -2.60642 4.33474 0
M  V30 7062 C 680.912 -3.19432 3.11254 0
M  V30 7063 C 681.613 -2.70351 5.15058 0
M  V30 7064 N 680.589 -3.03956 4.50679 0
M  V30 7065 H 684.391 -1.2528 2.65861 0
M  V30 7066 H 681.905 -0.599907 1.50913 0
M  V30 7067 H 683.902 -3.63759 2.03678 0
M  V30 7068 H 682.562 -3.09081 0.994952 0
M  V30 7069 H 683.573 -2.34718 4.61658 0
M  V30 7070 H 680.25 -3.48436 2.29997 0
M  V30 7071 H 681.64 -2.52565 6.22624 0
M  V30 7072 N 684.36 -1.4356 -0.65026 0
M  V30 7073 C 685.609 -1.44619 -1.406 0
M  V30 7074 C 685.922 -0.0752645 -1.95455 0
M  V30 7075 O 687.128 0.0366832 -2.71475 0
M  V30 7076 C 685.584 -2.54511 -2.54465 0
M  V30 7077 C 685.192 -3.97723 -2.06204 0
M  V30 7078 C 686.936 -2.64768 -3.31811 0
M  V30 7079 C 684.843 -4.99075 -3.17298 0
M  V30 7080 H 683.773 -0.537983 -0.52829 0
M  V30 7081 H 686.424 -1.69559 -0.701561 0
M  V30 7082 H 684.806 -2.22777 -3.27393 0
M  V30 7083 H 685.98 -4.38932 -1.40267 0
M  V30 7084 H 684.295 -3.91538 -1.41729 0
M  V30 7085 H 686.892 -3.37664 -4.14593 0
M  V30 7086 H 687.235 -1.69936 -3.80036 0
M  V30 7087 H 687.768 -2.95817 -2.65964 0
M  V30 7088 H 684.507 -5.95469 -2.74038 0
M  V30 7089 H 684.027 -4.62476 -3.81937 0
M  V30 7090 H 685.706 -5.21913 -3.82382 0
M  V30 7091 N 685.838 0.888903 -1.30139 0
M  V30 7092 C 686.786 2.0156 -1.16088 0
M  V30 7093 C 687.78 1.69239 -0.0737413 0
M  V30 7094 O 688.986 1.78468 -0.234313 0
M  V30 7095 H 685.361 0.660825 -0.358907 0
M  V30 7096 H 687.332 2.10547 -2.11453 0
M  V30 7097 C 686.081 3.36758 -0.865426 0
M  V30 7098 H 685.404 3.62137 -1.69402 0
M  V30 7099 H 686.844 4.16246 -0.807192 0
M  V30 7100 C 685.303 3.34124 0.431577 0
M  V30 7101 O 685.833 3.7445 1.45431 0
M  V30 7102 N 684.039 2.87229 0.441321 0
M  V30 7103 H 683.586 2.54609 -0.391433 0
M  V30 7104 H 683.544 2.8585 1.30909 0
M  V30 7105 N 687.317 1.12792 1.10072 0
M  V30 7106 C 688.542 0.908838 1.86427 0
M  V30 7107 C 688.967 -0.536793 1.80278 0
M  V30 7108 O 688.325 -1.38033 1.17543 0
M  V30 7109 C 688.373 1.39295 3.3261 0
M  V30 7110 O 687.477 0.573846 4.08388 0
M  V30 7111 H 686.818 0.326234 0.578331 0
M  V30 7112 H 689.348 1.50094 1.39043 0
M  V30 7113 H 689.358 1.39366 3.83459 0
M  V30 7114 H 688.033 2.44555 3.36401 0
M  V30 7115 H 686.61 0.640438 3.67359 0
M  V30 7116 N 688.795 -1.27931 0.920396 0
M  V30 7117 C 690.043 -1.94304 0.555906 0
M  V30 7118 C 690.364 -1.72753 -0.904519 0
M  V30 7119 O 689.634 -1.07104 -1.64029 0
M  V30 7120 H 688.214 -0.719001 0.202599 0
M  V30 7121 H 690.876 -1.55785 1.1712 0
M  V30 7122 H 689.972 -3.02806 0.755981 0
M  V30 7123 N 690.273 -0.685099 -1.4193 0
M  V30 7124 C 691.522 -0.208816 -2.00616 0
M  V30 7125 C 691.835 1.19506 -1.54847 0
M  V30 7126 O 693.041 1.76826 -2.06021 0
M  V30 7127 C 691.497 -0.322446 -3.58453 0
M  V30 7128 C 691.105 -1.73102 -4.13206 0
M  V30 7129 C 692.849 0.0945979 -4.24395 0
M  V30 7130 C 690.756 -1.79687 -5.63442 0
M  V30 7131 H 689.686 -0.0743092 -0.750329 0
M  V30 7132 H 692.337 -0.851778 -1.62533 0
M  V30 7133 H 690.719 0.388588 -3.94089 0
M  V30 7134 H 691.893 -2.46997 -3.8901 0
M  V30 7135 H 690.208 -2.09682 -3.59753 0
M  V30 7136 H 692.805 0.0656937 -5.3466 0
M  V30 7137 H 693.148 1.1316 -4.00625 0
M  V30 7138 H 693.681 -0.56579 -3.93756 0
M  V30 7139 H 690.42 -2.81404 -5.92024 0
M  V30 7140 H 689.94 -1.10162 -5.89597 0
M  V30 7141 H 691.619 -1.55498 -6.28036 0
M  V30 7142 N 691.751 1.51645 -0.429126 0
M  V30 7143 C 693 2.01203 0.141538 0
M  V30 7144 C 693.313 1.31828 1.44502 0
M  V30 7145 O 694.519 1.7231 2.09813 0
M  V30 7146 C 692.975 3.58624 0.302786 0
M  V30 7147 C 692.583 4.3693 -0.989775 0
M  V30 7148 C 694.327 4.16353 0.827661 0
M  V30 7149 C 692.234 5.86037 -0.794619 0
M  V30 7150 H 691.164 0.751867 0.05667 0
M  V30 7151 H 693.815 1.74822 -0.557633 0
M  V30 7152 H 692.197 3.81417 1.06476 0
M  V30 7153 H 693.371 4.25887 -1.75945 0
M  V30 7154 H 691.686 3.90614 -1.44256 0
M  V30 7155 H 694.283 5.25455 0.990026 0
M  V30 7156 H 694.626 3.74995 1.80787 0
M  V30 7157 H 695.159 3.97606 0.124213 0
M  V30 7158 H 691.898 6.31792 -1.74697 0
M  V30 7159 H 691.418 5.99765 -0.0645968 0
M  V30 7160 H 693.097 6.45471 -0.444591 0
M  V30 7161 N 693.229 0.160201 1.56784 0
M  V30 7162 C 694.177 -0.791402 2.18723 0
M  V30 7163 C 695.171 -1.24567 1.14801 0
M  V30 7164 O 696.377 -1.21262 1.33025 0
M  V30 7165 H 692.752 -0.273458 0.700517 0
M  V30 7166 H 694.723 -0.244931 2.97393 0
M  V30 7167 C 693.472 -2.01509 2.83354 0
M  V30 7168 H 692.795 -1.67454 3.63041 0
M  V30 7169 H 694.235 -2.66006 3.30177 0
M  V30 7170 C 692.694 -2.83159 1.82545 0
M  V30 7171 O 693.224 -3.79944 1.30405 0
M  V30 7172 N 691.43 -2.47953 1.51552 0
M  V30 7173 H 690.977 -1.69309 1.94144 0
M  V30 7174 H 690.935 -3.02873 0.843519 0
M  V30 7175 N 694.707 -1.5719 -0.113559 0
M  V30 7176 C 695.654 -2.00736 -1.13901 0
M  V30 7177 C 696.624 -0.88044 -1.40846 0
M  V30 7178 O 697.809 -1.14507 -1.5262 0
M  V30 7179 C 694.949 -2.42132 -2.45899 0
M  V30 7180 C 694.062 -3.68264 -2.25844 0
M  V30 7181 C 693.197 -3.98617 -3.5111 0
M  V30 7182 C 692.236 -5.17915 -3.26236 0
M  V30 7183 N 691.373 -5.44111 -4.4372 0
M  V30 7184 H 696.213 -2.88128 -0.760677 0
M  V30 7185 H 693.75 -1.42523 -0.364099 0
M  V30 7186 H 695.708 -2.6417 -3.22908 0
M  V30 7187 H 694.338 -1.57775 -2.81615 0
M  V30 7188 H 693.39 -3.53809 -1.39726 0
M  V30 7189 H 694.702 -4.55425 -2.03444 0
M  V30 7190 H 693.856 -4.21333 -4.36536 0
M  V30 7191 H 692.595 -3.09942 -3.76546 0
M  V30 7192 H 691.6 -4.95038 -2.39202 0
M  V30 7193 H 692.825 -6.08172 -3.02165 0
M  V30 7194 H 690.771 -4.58394 -4.69266 0
M  V30 7195 H 690.688 -6.25606 -4.24444 0
M  V30 7196 H 691.956 -5.71351 -5.30263 0
M  V30 7197 N 696.185 0.383891 -1.52853 0
M  V30 7198 C 697.148 1.45197 -1.77343 0
M  V30 7199 C 698.148 1.47362 -0.643522 0
M  V30 7200 O 699.338 1.48443 -0.911613 0
M  V30 7201 C 696.47 2.8445 -1.87885 0
M  V30 7202 H 697.663 1.24764 -2.72716 0
M  V30 7203 H 695.216 0.615939 -1.43652 0
M  V30 7204 H 695.951 3.10222 -0.94515 0
M  V30 7205 H 695.736 2.8428 -2.70051 0
M  V30 7206 H 697.226 3.61832 -2.08488 0
M  V30 7207 N 697.663 1.43903 0.642637 0
M  V30 7208 C 698.626 1.49538 1.73698 0
M  V30 7209 C 699.626 0.378776 1.56275 0
M  V30 7210 O 700.816 0.64095 1.6198 0
M  V30 7211 C 697.948 1.35821 3.12675 0
M  V30 7212 H 699.141 2.47008 1.70079 0
M  V30 7213 H 696.694 1.30824 0.85526 0
M  V30 7214 H 697.429 0.393994 3.21898 0
M  V30 7215 H 697.214 2.16776 3.26727 0
M  V30 7216 H 698.704 1.4272 3.92455 0
M  V30 7217 N 699.141 -0.881989 1.30609 0
M  V30 7218 C 700.371 -1.66469 1.22359 0
M  V30 7219 C 700.779 -1.87969 -0.215507 0
M  V30 7220 O 700.122 -1.42938 -1.15388 0
M  V30 7221 C 700.184 -3.06135 1.88472 0
M  V30 7222 C 699.848 -3.07795 3.37804 0
M  V30 7223 C 700.845 -2.86633 4.33749 0
M  V30 7224 C 698.53 -3.29297 3.793 0
M  V30 7225 C 700.524 -2.86934 5.69164 0
M  V30 7226 C 698.211 -3.29228 5.14832 0
M  V30 7227 C 699.209 -3.08071 6.09574 0
M  V30 7228 O 698.897 -3.07824 7.4263 0
M  V30 7229 H 698.629 -0.526129 0.424458 0
M  V30 7230 H 701.183 -1.11004 1.72821 0
M  V30 7231 H 699.413 -3.63276 1.32543 0
M  V30 7232 H 701.102 -3.66571 1.74301 0
M  V30 7233 H 701.868 -2.69814 4.0302 0
M  V30 7234 H 697.747 -3.44799 3.05998 0
M  V30 7235 H 701.291 -2.70339 6.43088 0
M  V30 7236 H 697.188 -3.45583 5.452 0
M  V30 7237 H 697.956 -3.2397 7.51656 0
M  V30 7238 N 700.619 -1.13374 -1.09472 0
M  V30 7239 C 701.549 -0.833268 -2.18126 0
M  V30 7240 C 702.53 0.207169 -1.68834 0
M  V30 7241 O 703.715 0.0662012 -1.94087 0
M  V30 7242 C 700.845 -0.297979 -3.46019 0
M  V30 7243 C 699.799 -1.27261 -4.08642 0
M  V30 7244 C 699.125 -0.597104 -5.31356 0
M  V30 7245 C 700.425 -2.63095 -4.51197 0
M  V30 7246 H 702.119 -1.74182 -2.43518 0
M  V30 7247 H 699.665 -0.838921 -1.17039 0
M  V30 7248 H 701.618 -0.0754444 -4.21332 0
M  V30 7249 H 700.342 0.645959 -3.20148 0
M  V30 7250 H 699.001 -1.48113 -3.35348 0
M  V30 7251 H 698.649 0.352293 -5.01765 0
M  V30 7252 H 698.349 -1.24734 -5.74208 0
M  V30 7253 H 699.873 -0.38384 -6.09392 0
M  V30 7254 H 701.287 -2.46214 -5.17737 0
M  V30 7255 H 699.684 -3.2429 -5.04932 0
M  V30 7256 H 700.754 -3.20793 -3.6362 0
M  V30 7257 N 702.098 1.27442 -0.927168 0
M  V30 7258 C 703.347 1.93679 -0.563146 0
M  V30 7259 C 703.66 1.73673 0.899837 0
M  V30 7260 O 704.866 2.34247 1.37262 0
M  V30 7261 C 703.322 3.46961 -0.95636 0
M  V30 7262 C 702.93 3.75724 -2.43999 0
M  V30 7263 C 704.674 4.19282 -0.663565 0
M  V30 7264 C 702.581 5.22378 -2.77263 0
M  V30 7265 H 701.511 0.725059 -0.206894 0
M  V30 7266 H 704.162 1.44743 -1.12791 0
M  V30 7267 H 702.544 3.94703 -0.320254 0
M  V30 7268 H 703.718 3.38741 -3.12396 0
M  V30 7269 H 702.033 3.16605 -2.70463 0
M  V30 7270 H 704.63 5.27265 -0.888596 0
M  V30 7271 H 704.973 4.14382 0.399198 0
M  V30 7272 H 705.506 3.7736 -1.25875 0
M  V30 7273 H 702.245 5.32367 -3.82446 0
M  V30 7274 H 701.765 5.6051 -2.13516 0
M  V30 7275 H 703.444 5.9025 -2.64979 0
M  V30 7276 N 703.576 0.692616 1.41565 0
M  V30 7277 C 704.801 0.229776 2.06123 0
M  V30 7278 C 705.226 -1.11119 1.5177 0
M  V30 7279 O 704.584 -1.69498 0.643444 0
M  V30 7280 C 704.632 0.19469 3.60074 0
M  V30 7281 O 703.736 -0.831366 4.03933 0
M  V30 7282 H 703.077 0.113002 0.654314 0
M  V30 7283 H 705.607 0.946645 1.81383 0
M  V30 7284 H 705.617 0.0245487 4.07993 0
M  V30 7285 H 704.292 1.17339 3.99004 0
M  V30 7286 H 702.869 -0.630819 3.67526 0
M  V30 7287 N 705.054 -1.51416 0.437162 0
M  V30 7288 C 705.986 -2.255 -0.410171 0
M  V30 7289 C 706.999 -1.29511 -0.986444 0
M  V30 7290 O 708.188 -1.55266 -0.880614 0
M  V30 7291 C 705.288 -2.99511 -1.58575 0
M  V30 7292 C 704.461 -4.22595 -1.12839 0
M  V30 7293 C 703.52 -4.79187 -2.17407 0
M  V30 7294 O 702.546 -5.4103 -1.76849 0
M  V30 7295 N 703.748 -4.63204 -3.49889 0
M  V30 7296 H 706.513 -2.98856 0.224783 0
M  V30 7297 H 704.074 -1.59699 0.266041 0
M  V30 7298 H 706.066 -3.34258 -2.28152 0
M  V30 7299 H 704.636 -2.29167 -2.12606 0
M  V30 7300 H 703.856 -3.93344 -0.259695 0
M  V30 7301 H 705.144 -5.02468 -0.800196 0
M  V30 7302 H 704.542 -4.13945 -3.85573 0
M  V30 7303 H 703.099 -5.02313 -4.15361 0
M  V30 7304 N 706.532 -0.168513 -1.56696 0
M  V30 7305 C 707.78 0.476216 -1.96409 0
M  V30 7306 C 708.101 1.63968 -1.05544 0
M  V30 7307 O 707.371 1.95525 -0.121235 0
M  V30 7308 H 705.951 0.178921 -0.725256 0
M  V30 7309 H 708.613 -0.249042 -1.93302 0
M  V30 7310 H 707.709 0.838094 -3.00637 0
M  V30 7311 N 708.01 1.57248 0.105221 0
M  V30 7312 C 709.258 1.85204 0.808951 0
M  V30 7313 C 709.579 0.75574 1.7976 0
M  V30 7314 O 708.849 -0.218984 1.94672 0
M  V30 7315 H 707.429 0.683346 0.301739 0
M  V30 7316 H 710.091 1.94695 0.0892605 0
M  V30 7317 H 709.187 2.81595 1.34575 0
M  V30 7318 N 709.488 -0.375779 1.53054 0
M  V30 7319 C 710.716 -1.14036 1.72637 0
M  V30 7320 C 711.131 -1.83342 0.450687 0
M  V30 7321 O 710.488 -1.7318 -0.575749 0
M  V30 7322 C 710.539 -2.17841 2.88492 0
M  V30 7323 O 710.26 -1.51358 4.11123 0
M  V30 7324 C 711.761 -3.06924 3.19863 0
M  V30 7325 H 708.981 -0.341386 0.577665 0
M  V30 7326 H 711.525 -0.437809 1.99759 0
M  V30 7327 H 709.68 -2.8371 2.63794 0
M  V30 7328 H 710.094 -2.20439 4.75928 0
M  V30 7329 H 711.568 -3.75763 4.04359 0
M  V30 7330 H 712.045 -3.71169 2.34798 0
M  V30 7331 H 712.651 -2.46684 3.46449 0
M  V30 7332 N 710.966 -1.44241 -0.634997 0
M  V30 7333 C 711.916 -1.47247 -1.74076 0
M  V30 7334 C 712.9 -0.338708 -1.57295 0
M  V30 7335 O 714.092 -0.583751 -1.67097 0
M  V30 7336 C 711.221 -1.41579 -3.12746 0
M  V30 7337 C 710.307 -2.60055 -3.35011 0
M  V30 7338 N 710.698 -3.85321 -3.27661 0
M  V30 7339 C 708.996 -2.55168 -3.65794 0
M  V30 7340 C 709.697 -4.64241 -3.50508 0
M  V30 7341 N 708.673 -3.95254 -3.73196 0
M  V30 7342 H 712.475 -2.4195 -1.66845 0
M  V30 7343 H 709.989 -1.3915 -0.837326 0
M  V30 7344 H 711.986 -1.41816 -3.92038 0
M  V30 7345 H 710.646 -0.479108 -3.21146 0
M  V30 7346 H 711.657 -4.17345 -3.06665 0
M  V30 7347 H 708.334 -1.70276 -3.81198 0
M  V30 7348 H 709.724 -5.73267 -3.50449 0
M  V30 7349 N 712.444 0.87505 -1.31075 0
M  V30 7350 C 713.674 1.65818 -1.2324 0
M  V30 7351 C 714.082 1.8808 0.205536 0
M  V30 7352 O 713.425 1.43548 1.14628 0
M  V30 7353 C 713.487 3.05131 -1.90093 0
M  V30 7354 C 713.151 3.05999 -3.39432 0
M  V30 7355 C 714.148 2.84328 -4.35263 0
M  V30 7356 C 711.833 3.27281 -3.81041 0
M  V30 7357 C 713.827 2.83912 -5.70678 0
M  V30 7358 C 711.514 3.26493 -5.16571 0
M  V30 7359 C 712.512 3.04834 -6.112 0
M  V30 7360 O 712.2 3.03882 -7.44252 0
M  V30 7361 H 711.932 0.52387 -0.427242 0
M  V30 7362 H 714.486 1.10086 -1.73408 0
M  V30 7363 H 712.716 3.62568 -1.34468 0
M  V30 7364 H 714.405 3.65641 -1.76242 0
M  V30 7365 H 715.171 2.67673 -4.04445 0
M  V30 7366 H 711.05 3.43171 -3.07822 0
M  V30 7367 H 714.594 2.66925 -6.44513 0
M  V30 7368 H 710.491 3.42687 -5.47025 0
M  V30 7369 H 711.259 3.19979 -7.53363 0
M  V30 7370 N 713.922 1.13953 1.08869 0
M  V30 7371 C 715.17 0.903023 1.80803 0
M  V30 7372 C 715.491 -0.572151 1.86417 0
M  V30 7373 O 714.761 -1.41589 1.35386 0
M  V30 7374 H 713.341 0.331099 0.669614 0
M  V30 7375 H 716.003 1.43719 1.31647 0
M  V30 7376 H 715.099 1.29881 2.83791 0
M  V30 7377 N 715.4 -1.26948 0.933913 0
M  V30 7378 C 716.646 -1.94374 0.57848 0
M  V30 7379 C 716.979 -1.73166 -0.879048 0
M  V30 7380 O 716.254 -1.06438 -1.62792 0
M  V30 7381 C 716.537 -3.4834 0.912739 0
M  V30 7382 C 716.39 -3.78866 2.42448 0
M  V30 7383 C 717.709 -4.38062 0.423003 0
M  V30 7384 H 714.828 -0.705959 0.211639 0
M  V30 7385 H 717.47 -1.49951 1.16682 0
M  V30 7386 H 715.62 -3.86309 0.412058 0
M  V30 7387 H 717.292 -3.50654 2.99733 0
M  V30 7388 H 715.535 -3.25198 2.87104 0
M  V30 7389 H 716.206 -4.86458 2.60887 0
M  V30 7390 H 718.682 -4.0728 0.852191 0
M  V30 7391 H 717.558 -5.44599 0.685776 0
M  V30 7392 H 717.819 -4.36886 -0.676994 0
M  V30 7393 N 716.879 -0.700114 -1.41195 0
M  V30 7394 C 718.104 -0.240704 -2.05998 0
M  V30 7395 C 718.529 1.10313 -1.52357 0
M  V30 7396 O 717.887 1.69154 -0.652424 0
M  V30 7397 C 717.935 -0.213783 -3.59966 0
M  V30 7398 O 717.039 0.809933 -4.04368 0
M  V30 7399 H 716.38 -0.116471 -0.653705 0
M  V30 7400 H 718.91 -0.956251 -1.80878 0
M  V30 7401 H 718.92 -0.0461852 -4.07974 0
M  V30 7402 H 717.595 -1.19454 -3.98376 0
M  V30 7403 H 716.172 0.611319 -3.67855 0
M  V30 7404 N 718.357 1.51182 -0.445186 0
M  V30 7405 C 719.603 2.02452 0.11882 0
M  V30 7406 C 719.936 1.32824 1.41673 0
M  V30 7407 O 719.211 0.445637 1.89326 0
M  V30 7408 C 719.494 3.5859 0.329475 0
M  V30 7409 C 719.347 4.38823 -0.987638 0
M  V30 7410 C 720.666 4.26241 1.09575 0
M  V30 7411 H 717.785 0.735819 0.0417092 0
M  V30 7412 H 720.427 1.80747 -0.585718 0
M  V30 7413 H 718.577 3.77214 0.9296 0
M  V30 7414 H 720.249 4.3183 -1.62235 0
M  V30 7415 H 718.492 4.03594 -1.59041 0
M  V30 7416 H 719.163 5.46257 -0.794192 0
M  V30 7417 H 721.639 4.11934 0.587328 0
M  V30 7418 H 720.515 5.35354 1.21191 0
M  V30 7419 H 720.776 3.87635 2.12584 0
M  V30 7420 N 719.835 0.176821 1.56605 0
M  V30 7421 C 721.081 -0.467406 1.9734 0
M  V30 7422 C 721.414 -1.62523 1.06301 0
M  V30 7423 O 720.689 -1.94182 0.11125 0
M  V30 7424 C 720.972 -0.945106 3.47476 0
M  V30 7425 C 720.825 0.213273 4.49294 0
M  V30 7426 C 722.144 -1.8169 4.00845 0
M  V30 7427 H 719.263 -0.168426 0.717497 0
M  V30 7428 H 721.905 0.264065 1.88156 0
M  V30 7429 H 720.055 -1.56841 3.55434 0
M  V30 7430 H 721.727 0.850508 4.53392 0
M  V30 7431 H 719.97 0.867918 4.25029 0
M  V30 7432 H 720.641 -0.163187 5.51759 0
M  V30 7433 H 723.117 -1.29139 3.95553 0
M  V30 7434 H 721.993 -2.12015 5.06301 0
M  V30 7435 H 722.254 -2.76463 3.44994 0
M  V30 7436 N 721.313 -1.57302 -0.09688 0
M  V30 7437 C 722.561 -1.8563 -0.799117 0
M  V30 7438 C 722.882 -0.765263 -1.79356 0
M  V30 7439 O 722.152 0.208657 -1.94786 0
M  V30 7440 H 720.732 -0.684937 -0.298111 0
M  V30 7441 H 723.394 -1.9474 -0.0789341 0
M  V30 7442 H 722.49 -2.82305 -1.3308 0
M  V30 7443 N 722.791 0.367657 -1.53252 0
M  V30 7444 C 724.04 1.10782 -1.68554 0
M  V30 7445 C 724.353 1.90523 -0.442765 0
M  V30 7446 O 725.559 2.6729 -0.47629 0
M  V30 7447 C 724.015 2.01863 -2.97959 0
M  V30 7448 C 723.623 1.27443 -4.29491 0
M  V30 7449 C 725.367 2.75883 -3.22628 0
M  V30 7450 C 723.274 2.17414 -5.49987 0
M  V30 7451 H 722.204 0.417272 -0.628013 0
M  V30 7452 H 724.855 0.368971 -1.79752 0
M  V30 7453 H 723.237 2.7947 -2.80558 0
M  V30 7454 H 724.411 0.549138 -4.57516 0
M  V30 7455 H 722.726 0.652935 -4.11249 0
M  V30 7456 H 725.323 3.43421 -4.09837 0
M  V30 7457 H 725.666 3.41138 -2.38601 0
M  V30 7458 H 726.199 2.0536 -3.40693 0
M  V30 7459 H 722.938 1.5674 -6.36485 0
M  V30 7460 H 722.458 2.87799 -5.26243 0
M  V30 7461 H 724.137 2.77019 -5.84696 0
M  V30 7462 N 724.269 1.44576 0.627338 0
M  V30 7463 C 725.517 1.47267 1.38408 0
M  V30 7464 C 725.838 0.107971 1.94701 0
M  V30 7465 O 725.108 -0.860206 1.76004 0
M  V30 7466 H 723.688 0.542276 0.513756 0
M  V30 7467 H 726.35 1.80383 0.738099 0
M  V30 7468 H 725.446 2.20025 2.21349 0
M  V30 7469 N 725.747 -0.868086 1.31537 0
M  V30 7470 C 727.163 -1.15414 1.10235 0
M  V30 7471 C 727.363 -2.01106 -0.125947 0
M  V30 7472 O 726.419 -2.38994 -0.814734 0
M  V30 7473 C 727.732 -1.84445 2.37488 0
M  V30 7474 C 729.28 -1.97139 2.43116 0
M  V30 7475 C 729.755 -2.69585 3.70254 0
M  V30 7476 N 731.246 -2.77119 3.71159 0
M  V30 7477 C 731.981 -3.33791 4.6623 0
M  V30 7478 N 731.477 -3.9138 5.71659 0
M  V30 7479 N 733.27 -3.31767 4.53747 0
M  V30 7480 H 725.421 -0.297109 2.10312 0
M  V30 7481 H 727.684 -0.194227 0.92789 0
M  V30 7482 H 727.39 -1.2893 3.27215 0
M  V30 7483 H 727.264 -2.84709 2.47428 0
M  V30 7484 H 729.651 -2.51818 1.53856 0
M  V30 7485 H 729.732 -0.95912 2.37138 0
M  V30 7486 H 729.376 -2.15572 4.59881 0
M  V30 7487 H 729.306 -3.71223 3.73499 0
M  V30 7488 H 731.797 -2.3625 2.94948 0
M  V30 7489 H 732.11 -4.3274 6.40278 0
M  V30 7490 H 730.455 -3.8975 5.7543 0
M  V30 7491 H 733.646 -2.86016 3.70557 0
M  V30 7492 H 733.819 -3.75636 5.28017 0
M  V30 7493 N 727.225 -1.14528 -1.08264 0
M  V30 7494 C 728.502 -0.825185 -1.77342 0
M  V30 7495 C 728.882 0.681037 -1.99813 0
M  V30 7496 O 728.23 1.62234 -1.60912 0
M  V30 7497 C 728.44 -1.62556 -3.08831 0
M  V30 7498 C 729.788 -1.82585 -3.83338 0
M  V30 7499 O 730.812 -1.59254 -3.18617 0
M  V30 7500 O 729.671 -2.21598 -4.99556 0
M  V30 7501 H 726.765 -0.302531 -0.769678 0
M  V30 7502 H 729.311 -1.25056 -1.14713 0
M  V30 7503 H 728.083 -2.64862 -2.88035 0
M  V30 7504 H 727.706 -1.1959 -3.79189 0
M  V30 7505 N 728.703 1.26451 -0.940633 0
M  V30 7506 C 729.65 2.264 -0.448497 0
M  V30 7507 C 730.62 1.5866 0.491546 0
M  V30 7508 O 731.805 1.86389 0.407874 0
M  V30 7509 C 728.945 3.43956 0.280715 0
M  V30 7510 C 728.058 4.26374 -0.694937 0
M  V30 7511 C 727.193 5.31171 0.0554186 0
M  V30 7512 C 726.232 6.05266 -0.912091 0
M  V30 7513 N 725.369 7.01833 -0.193524 0
M  V30 7514 H 730.209 2.67869 -1.30576 0
M  V30 7515 H 727.746 1.31707 -0.655112 0
M  V30 7516 H 729.704 4.10941 0.71994 0
M  V30 7517 H 728.334 3.03403 1.10212 0
M  V30 7518 H 727.386 3.59183 -1.25267 0
M  V30 7519 H 728.698 4.77748 -1.43382 0
M  V30 7520 H 727.852 6.04166 0.553951 0
M  V30 7521 H 726.591 4.80634 0.827183 0
M  V30 7522 H 725.596 5.31099 -1.42175 0
M  V30 7523 H 726.821 6.57893 -1.68385 0
M  V30 7524 H 724.767 6.53607 0.559758 0
M  V30 7525 H 724.684 7.50957 -0.871744 0
M  V30 7526 H 725.952 7.78983 0.283932 0
M  V30 7527 N 730.181 0.707592 1.40822 0
M  V30 7528 C 731.111 0.0644925 2.33411 0
M  V30 7529 C 732.092 -0.754205 1.52466 0
M  V30 7530 O 733.277 -0.704749 1.80961 0
M  V30 7531 C 730.407 -0.863865 3.36385 0
M  V30 7532 C 729.361 -0.15138 4.27732 0
M  V30 7533 C 728.687 -1.19491 5.21177 0
M  V30 7534 C 729.987 0.989607 5.12839 0
M  V30 7535 H 731.681 0.837829 2.87438 0
M  V30 7536 H 729.227 0.404346 1.38207 0
M  V30 7537 H 731.18 -1.32309 4.0009 0
M  V30 7538 H 729.904 -1.66901 2.80734 0
M  V30 7539 H 728.563 0.287937 3.65467 0
M  V30 7540 H 728.211 -1.9929 4.61836 0
M  V30 7541 H 727.911 -0.723123 5.83134 0
M  V30 7542 H 729.435 -1.6544 5.8776 0
M  V30 7543 H 730.849 0.610114 5.70044 0
M  V30 7544 H 729.246 1.38926 5.83798 0
M  V30 7545 H 730.316 1.82389 4.49291 0
M  V30 7546 N 731.66 -1.50943 0.453197 0
M  V30 7547 C 732.908 -2.01813 -0.107709 0
M  V30 7548 C 733.229 -1.33841 -1.41816 0
M  V30 7549 O 732.499 -0.477973 -1.8998 0
M  V30 7550 H 731.079 -0.745773 -0.0427948 0
M  V30 7551 H 733.741 -1.8545 0.599531 0
M  V30 7552 H 732.837 -3.10911 -0.27218 0
M  V30 7553 N 733.138 -0.185124 -1.56509 0
M  V30 7554 C 734.085 0.739729 -2.18624 0
M  V30 7555 C 735.055 1.217 -1.13042 0
M  V30 7556 O 736.24 1.28268 -1.41251 0
M  V30 7557 C 733.38 1.95787 -2.84186 0
M  V30 7558 C 732.493 1.52289 -4.04267 0
M  V30 7559 C 731.628 2.69576 -4.57714 0
M  V30 7560 C 730.667 2.22636 -5.70175 0
M  V30 7561 N 729.804 3.33065 -6.18071 0
M  V30 7562 H 734.644 0.203269 -2.97306 0
M  V30 7563 H 732.181 0.0885946 -1.46833 0
M  V30 7564 H 734.139 2.67253 -3.20361 0
M  V30 7565 H 732.769 2.4678 -2.08085 0
M  V30 7566 H 731.821 0.704458 -3.7382 0
M  V30 7567 H 733.133 1.13843 -4.85635 0
M  V30 7568 H 732.287 3.4918 -4.96143 0
M  V30 7569 H 731.026 3.1129 -3.75433 0
M  V30 7570 H 730.031 1.41483 -5.31284 0
M  V30 7571 H 731.256 1.81964 -6.54267 0
M  V30 7572 H 729.202 3.74328 -5.38715 0
M  V30 7573 H 729.119 2.98756 -6.94464 0
M  V30 7574 H 730.387 4.12912 -6.61153 0
M  V30 7575 N 734.616 1.57351 0.0885366 0
M  V30 7576 C 735.865 1.85604 0.789556 0
M  V30 7577 C 736.178 0.775352 1.79576 0
M  V30 7578 O 737.384 0.945206 2.54515 0
M  V30 7579 C 735.84 3.29175 1.45506 0
M  V30 7580 C 735.448 4.45331 0.488278 0
M  V30 7581 C 737.192 3.66646 2.13942 0
M  V30 7582 C 735.099 5.79937 1.15874 0
M  V30 7583 H 734.029 0.692346 0.298619 0
M  V30 7584 H 736.68 1.83451 0.0425821 0
M  V30 7585 H 735.062 3.25889 2.24972 0
M  V30 7586 H 736.236 4.59977 -0.275359 0
M  V30 7587 H 734.551 4.16301 -0.0907363 0
M  V30 7588 H 737.148 4.64498 2.6485 0
M  V30 7589 H 737.491 2.956 2.93132 0
M  V30 7590 H 738.024 3.71848 1.41328 0
M  V30 7591 H 734.763 6.54232 0.407508 0
M  V30 7592 H 734.283 5.69123 1.89364 0
M  V30 7593 H 735.962 6.24718 1.68336 0
M  V30 7594 N 736.094 -0.359525 1.53444 0
M  V30 7595 C 737.341 -1.10152 1.6992 0
M  V30 7596 C 737.669 -1.89125 0.4541 0
M  V30 7597 O 736.924 -1.87396 -0.564023 0
M  V30 7598 C 737.223 -2.08287 2.90433 0
M  V30 7599 C 736.889 -1.45749 4.26694 0
M  V30 7600 C 735.551 -1.28421 4.63747 0
M  V30 7601 C 737.903 -1.00557 5.11408 0
M  V30 7602 C 735.231 -0.644951 5.83144 0
M  V30 7603 C 737.583 -0.380288 6.31456 0
M  V30 7604 C 736.247 -0.194557 6.67216 0
M  V30 7605 H 735.517 -0.403076 0.621781 0
M  V30 7606 H 738.164 -0.382612 1.87639 0
M  V30 7607 H 736.469 -2.86503 2.67251 0
M  V30 7608 H 738.166 -2.65662 3.00374 0
M  V30 7609 H 734.756 -1.6023 3.97523 0
M  V30 7610 H 738.94 -1.12735 4.83326 0
M  V30 7611 H 734.196 -0.48952 6.09437 0
M  V30 7612 H 738.37 -0.0219455 6.96397 0
M  V30 7613 H 735.997 0.30285 7.59597 0
M  V30 7614 N 737.572 -1.44907 -0.619662 0
M  V30 7615 C 738.802 -1.51575 -1.40387 0
M  V30 7616 C 739.21 -0.14309 -1.88658 0
M  V30 7617 O 738.553 0.863403 -1.62145 0
M  V30 7618 C 738.615 -2.42858 -2.65067 0
M  V30 7619 C 738.279 -3.8982 -2.38515 0
M  V30 7620 C 739.276 -4.80047 -1.99627 0
M  V30 7621 C 736.961 -4.34628 -2.51801 0
M  V30 7622 C 738.955 -6.13086 -1.74369 0
M  V30 7623 C 736.642 -5.67712 -2.26156 0
M  V30 7624 C 737.64 -6.56759 -1.875 0
M  V30 7625 O 737.328 -7.87377 -1.62148 0
M  V30 7626 H 737.06 -0.51612 -0.436573 0
M  V30 7627 H 739.614 -1.90664 -0.763959 0
M  V30 7628 H 737.844 -1.98717 -3.31735 0
M  V30 7629 H 739.533 -2.40346 -3.27091 0
M  V30 7630 H 740.299 -4.46697 -1.8891 0
M  V30 7631 H 736.178 -3.65568 -2.80857 0
M  V30 7632 H 739.722 -6.8255 -1.44122 0
M  V30 7633 H 735.619 -6.0062 -2.36486 0
M  V30 7634 H 736.387 -7.99288 -1.763 0
M  V30 7635 N 739.05 0.861098 -1.31996 0
M  V30 7636 C 740.466 1.14827 -1.10846 0
M  V30 7637 C 740.666 2.0117 0.11528 0
M  V30 7638 O 739.722 2.39423 0.802048 0
M  V30 7639 C 741.035 1.83183 -2.38462 0
M  V30 7640 C 742.583 1.95847 -2.44158 0
M  V30 7641 C 743.058 2.67617 -3.71679 0
M  V30 7642 N 744.549 2.75147 -3.72624 0
M  V30 7643 C 745.284 3.31314 -4.67994 0
M  V30 7644 N 744.78 3.88343 -5.73726 0
M  V30 7645 N 746.573 3.29356 -4.55501 0
M  V30 7646 H 738.724 0.285951 -2.10466 0
M  V30 7647 H 740.987 0.189303 -0.928907 0
M  V30 7648 H 740.693 1.27193 -3.27895 0
M  V30 7649 H 740.567 2.83393 -2.48935 0
M  V30 7650 H 742.954 2.50999 -1.55189 0
M  V30 7651 H 743.035 0.94653 -2.37644 0
M  V30 7652 H 742.679 2.13131 -4.61018 0
M  V30 7653 H 742.609 3.69237 -3.75462 0
M  V30 7654 H 745.1 2.34682 -2.96197 0
M  V30 7655 H 745.413 4.29338 -6.42564 0
M  V30 7656 H 743.758 3.86693 -5.77489 0
M  V30 7657 H 746.949 2.84047 -3.72069 0
M  V30 7658 H 747.122 3.7283 -5.30001 0
M  V30 7659 N 740.528 1.15101 1.07655 0
M  V30 7660 C 741.491 0.847625 2.12951 0
M  V30 7661 C 742.491 -0.151227 1.60087 0
M  V30 7662 O 743.681 0.0780399 1.74025 0
M  V30 7663 C 740.813 0.265 3.39868 0
M  V30 7664 H 742.006 1.7809 2.41296 0
M  V30 7665 H 739.559 0.958072 1.23494 0
M  V30 7666 H 740.294 -0.676625 3.17163 0
M  V30 7667 H 740.079 0.984554 3.79538 0
M  V30 7668 H 741.569 0.0702121 4.17541 0
M  V30 7669 N 742.006 -1.2595 0.947325 0
M  V30 7670 C 742.936 -2.28521 0.479604 0
M  V30 7671 C 743.917 -1.63469 -0.470293 0
M  V30 7672 O 745.102 -1.90627 -0.370824 0
M  V30 7673 C 742.232 -3.46397 -0.250289 0
M  V30 7674 C 741.186 -4.23578 0.613643 0
M  V30 7675 C 740.512 -5.34131 -0.246568 0
M  V30 7676 C 741.812 -4.86979 1.88809 0
M  V30 7677 H 743.506 -2.67895 1.33688 0
M  V30 7678 H 741.052 -1.28783 0.644274 0
M  V30 7679 H 743.005 -4.17269 -0.588576 0
M  V30 7680 H 741.729 -3.05993 -1.14175 0
M  V30 7681 H 740.388 -3.54478 0.93491 0
M  V30 7682 H 740.036 -4.89968 -1.13756 0
M  V30 7683 H 739.736 -5.86683 0.328123 0
M  V30 7684 H 741.26 -6.07839 -0.579986 0
M  V30 7685 H 742.674 -5.50034 1.61666 0
M  V30 7686 H 741.071 -5.49675 2.40784 0
M  V30 7687 H 742.141 -4.09575 2.5957 0
M  V30 7688 N 743.484 -0.715051 -1.40445 0
M  V30 7689 C 744.712 -0.263959 -2.05209 0
M  V30 7690 C 745.127 1.09403 -1.53871 0
M  V30 7691 O 744.484 1.68746 -0.695064 0
M  V30 7692 C 744.535 -0.234545 -3.60738 0
M  V30 7693 O 744.256 -1.53891 -4.10182 0
M  V30 7694 C 745.757 0.235164 -4.42676 0
M  V30 7695 H 742.977 -0.11876 -0.660407 0
M  V30 7696 H 745.521 -0.973107 -1.79864 0
M  V30 7697 H 743.676 0.425563 -3.85055 0
M  V30 7698 H 744.09 -1.43903 -5.04373 0
M  V30 7699 H 745.564 0.204598 -5.51621 0
M  V30 7700 H 746.041 1.27724 -4.20218 0
M  V30 7701 H 746.647 -0.394649 -4.23465 0
M  V30 7702 N 744.962 1.50701 -0.461195 0
M  V30 7703 C 745.894 2.26124 0.374244 0
M  V30 7704 C 746.907 1.31064 0.965715 0
M  V30 7705 O 748.096 1.56647 0.855801 0
M  V30 7706 C 745.196 3.01996 1.5379 0
M  V30 7707 C 744.369 4.24336 1.06101 0
M  V30 7708 C 743.428 4.82585 2.09756 0
M  V30 7709 O 742.454 5.43775 1.68219 0
M  V30 7710 N 743.656 4.68712 3.42475 0
M  V30 7711 H 746.421 2.9846 -0.2723 0
M  V30 7712 H 743.982 1.59256 -0.291415 0
M  V30 7713 H 745.974 3.37846 2.22806 0
M  V30 7714 H 744.544 2.32521 2.08933 0
M  V30 7715 H 743.764 3.93707 0.197085 0
M  V30 7716 H 745.052 5.03678 0.720156 0
M  V30 7717 H 744.45 4.20026 3.78938 0
M  V30 7718 H 743.007 5.08858 4.07317 0
M  V30 7719 N 746.441 0.193421 1.56409 0
M  V30 7720 C 747.671 -0.450783 2.01622 0
M  V30 7721 C 748.079 -1.5585 1.07273 0
M  V30 7722 O 747.422 -1.83569 0.0694875 0
M  V30 7723 C 747.484 -1.06913 3.43235 0
M  V30 7724 C 747.148 -0.100352 4.5689 0
M  V30 7725 C 748.145 0.689633 5.15306 0
M  V30 7726 C 745.83 0.0102436 5.02299 0
M  V30 7727 C 747.824 1.5772 6.17579 0
M  V30 7728 C 745.511 0.901368 6.04416 0
M  V30 7729 C 746.509 1.68341 6.61929 0
M  V30 7730 O 746.197 2.5596 7.62063 0
M  V30 7731 H 745.929 -0.117671 0.66568 0
M  V30 7732 H 748.483 0.2989 2.03214 0
M  V30 7733 H 746.713 -1.86736 3.38624 0
M  V30 7734 H 748.402 -1.61781 3.72266 0
M  V30 7735 H 749.168 0.614485 4.81092 0
M  V30 7736 H 745.047 -0.58829 4.57231 0
M  V30 7737 H 748.591 2.18805 6.62397 0
M  V30 7738 H 744.488 0.977637 6.38054 0
M  V30 7739 H 745.256 2.49721 7.79475 0
M  V30 7740 N 747.919 -1.57396 -0.0801906 0
M  V30 7741 C 748.849 -2.06145 -1.09665 0
M  V30 7742 C 749.83 -0.953273 -1.40878 0
M  V30 7743 O 751.015 -1.22548 -1.50651 0
M  V30 7744 C 748.145 -2.49836 -2.41245 0
M  V30 7745 C 747.099 -3.64454 -2.24405 0
M  V30 7746 C 746.425 -3.94172 -3.61293 0
M  V30 7747 C 747.725 -4.94807 -1.67223 0
M  V30 7748 H 749.419 -2.91316 -0.691028 0
M  V30 7749 H 746.965 -1.40145 -0.330957 0
M  V30 7750 H 748.918 -2.82552 -3.12638 0
M  V30 7751 H 747.642 -1.61683 -2.83771 0
M  V30 7752 H 746.301 -3.32008 -1.55454 0
M  V30 7753 H 745.949 -3.03163 -4.01374 0
M  V30 7754 H 745.649 -4.71345 -3.50867 0
M  V30 7755 H 747.173 -4.29376 -4.3413 0
M  V30 7756 H 748.587 -5.25807 -2.28472 0
M  V30 7757 H 746.984 -5.76245 -1.67515 0
M  V30 7758 H 748.054 -4.80751 -0.632944 0
M  V30 7759 N 749.397 0.351382 -1.53633 0
M  V30 7760 C 750.625 1.11275 -1.74429 0
M  V30 7761 C 751.04 1.82602 -0.479798 0
M  V30 7762 O 750.397 1.74074 0.548125 0
M  V30 7763 C 750.448 2.13223 -2.91921 0
M  V30 7764 O 750.169 1.44798 -4.13479 0
M  V30 7765 C 751.67 3.01797 -3.24706 0
M  V30 7766 H 748.89 0.332153 -0.583023 0
M  V30 7767 H 751.434 0.405974 -2.0043 0
M  V30 7768 H 749.589 2.79477 -2.68274 0
M  V30 7769 H 750.003 2.12839 -4.79374 0
M  V30 7770 H 751.477 3.69282 -4.10286 0
M  V30 7771 H 751.954 3.67387 -2.40673 0
M  V30 7772 H 752.56 2.41141 -3.5033 0
M  V30 7773 N 750.875 1.45233 0.611969 0
M  V30 7774 C 752.286 1.4354 1.19387 0
M  V30 7775 C 752.637 0.160713 1.95541 0
M  V30 7776 O 751.762 -0.737954 2.03429 0
M  V30 7777 C 752.357 2.60045 2.17169 0
M  V30 7778 C 750.916 2.61486 2.70744 0
M  V30 7779 C 750.063 2.35708 1.46072 0
M  V30 7780 H 753.014 1.53536 0.401529 0
M  V30 7781 H 753.035 2.33893 3.00124 0
M  V30 7782 H 752.547 3.52803 1.61714 0
M  V30 7783 H 750.648 1.72721 3.30149 0
M  V30 7784 H 750.761 3.60572 3.15476 0
M  V30 7785 H 749.125 1.85178 1.74875 0
M  V30 7786 H 749.908 3.30606 0.924922 0
M  V30 7787 N 752.353 -0.854086 1.3245 0
M  V30 7788 C 753.581 -1.64074 1.26045 0
M  V30 7789 C 753.996 -1.8802 -0.171456 0
M  V30 7790 O 753.353 -1.4496 -1.10873 0
M  V30 7791 C 753.404 -2.9997 2.01743 0
M  V30 7792 O 753.125 -2.77084 3.39346 0
M  V30 7793 C 754.626 -3.94414 2.02368 0
M  V30 7794 H 751.846 -0.511015 0.434862 0
M  V30 7795 H 754.39 -1.06494 1.74583 0
M  V30 7796 H 752.545 -3.54193 1.56926 0
M  V30 7797 H 752.959 -3.63514 3.78098 0
M  V30 7798 H 754.433 -4.87032 2.59815 0
M  V30 7799 H 754.91 -4.27427 1.01009 0
M  V30 7800 H 755.516 -3.46127 2.47135 0
M  V30 7801 N 753.831 -1.1567 -1.07043 0
M  V30 7802 C 755.056 -0.957946 -1.83952 0
M  V30 7803 C 755.481 0.488807 -1.81638 0
M  V30 7804 O 754.839 1.34869 -1.21162 0
M  V30 7805 C 754.887 -1.48064 -3.288 0
M  V30 7806 O 753.991 -0.681921 -4.06723 0
M  V30 7807 H 753.332 -0.341453 -0.569479 0
M  V30 7808 H 755.862 -1.53728 -1.35015 0
M  V30 7809 H 755.872 -1.49484 -3.7963 0
M  V30 7810 H 754.547 -2.53388 -3.29799 0
M  V30 7811 H 753.124 -0.737612 -3.65532 0
M  V30 7812 N 755.309 1.25446 -0.953992 0
M  V30 7813 C 756.257 2.27909 -0.46478 0
M  V30 7814 C 757.251 1.62904 0.464607 0
M  V30 7815 O 758.457 1.76733 0.341407 0
M  V30 7816 H 754.832 0.74036 -0.131798 0
M  V30 7817 H 756.803 2.66559 -1.34122 0
M  V30 7818 C 755.552 3.46853 0.242589 0
M  V30 7819 H 754.875 3.97105 -0.463418 0
M  V30 7820 H 756.315 4.20432 0.548919 0
M  V30 7821 C 754.774 3.03386 1.46487 0
M  V30 7822 O 755.304 3.09342 2.56262 0
M  V30 7823 N 753.51 2.58584 1.32599 0
M  V30 7824 H 753.057 2.53938 0.432834 0
M  V30 7825 H 753.015 2.29866 2.14497 0
M  V30 7826 N 756.787 0.722489 1.40064 0
M  V30 7827 C 758.034 0.264979 2.00759 0
M  V30 7828 C 758.362 -1.14395 1.57302 0
M  V30 7829 O 757.617 -1.79165 0.787298 0
M  V30 7830 C 757.916 0.300682 3.56133 0
M  V30 7831 C 757.582 1.66087 4.19197 0
M  V30 7832 C 756.244 2.03319 4.36136 0
M  V30 7833 C 758.596 2.55452 4.54306 0
M  V30 7834 C 755.924 3.29448 4.8547 0
M  V30 7835 C 758.276 3.8094 5.05042 0
M  V30 7836 C 756.94 4.1828 5.2019 0
M  V30 7837 H 756.21 0.0969625 0.734629 0
M  V30 7838 H 758.857 0.926877 1.67575 0
M  V30 7839 H 757.162 -0.44479 3.89267 0
M  V30 7840 H 758.859 -0.0712542 4.00937 0
M  V30 7841 H 755.449 1.36137 4.06405 0
M  V30 7842 H 759.633 2.27961 4.40849 0
M  V30 7843 H 754.889 3.58338 4.95382 0
M  V30 7844 H 759.063 4.50351 5.31184 0
M  V30 7845 H 756.69 5.16081 5.58179 0
M  V30 7846 N 758.265 -1.50454 0.469181 0
M  V30 7847 C 759.49 -2.0722 -0.0864892 0
M  V30 7848 C 759.915 -1.33098 -1.32916 0
M  V30 7849 O 759.273 -0.378084 -1.77314 0
M  V30 7850 C 759.321 -3.58845 -0.355384 0
M  V30 7851 O 758.425 -3.86583 -1.43622 0
M  V30 7852 H 757.766 -0.663889 0.0121414 0
M  V30 7853 H 760.296 -1.93674 0.659674 0
M  V30 7854 H 760.306 -4.03617 -0.596447 0
M  V30 7855 H 758.981 -4.12211 0.552698 0
M  V30 7856 H 757.558 -3.5365 -1.18262 0
M  V30 7857 N 759.743 -0.201713 -1.56304 0
M  V30 7858 C 760.675 0.748466 -2.16635 0
M  V30 7859 C 761.688 1.172 -1.12996 0
M  V30 7860 O 762.877 1.10658 -1.40061 0
M  V30 7861 C 759.977 2.02296 -2.719 0
M  V30 7862 C 759.15 1.75818 -4.00508 0
M  V30 7863 C 758.209 2.87779 -4.40533 0
M  V30 7864 O 757.235 2.57101 -5.07826 0
M  V30 7865 N 758.437 4.16287 -4.04581 0
M  V30 7866 H 761.202 0.232505 -2.98797 0
M  V30 7867 H 758.763 -0.0199822 -1.61888 0
M  V30 7868 H 760.755 2.7635 -2.95657 0
M  V30 7869 H 759.325 2.44996 -1.94154 0
M  V30 7870 H 758.545 0.855095 -3.84814 0
M  V30 7871 H 759.833 1.55532 -4.84445 0
M  V30 7872 H 759.231 4.44061 -3.50466 0
M  V30 7873 H 757.788 4.86946 -4.33274 0
M  V30 7874 N 761.222 1.57436 0.0718424 0
M  V30 7875 C 762.152 2.06724 1.08571 0
M  V30 7876 C 763.133 0.960731 1.40371 0
M  V30 7877 O 764.318 1.23345 1.49999 0
M  V30 7878 C 761.448 2.51112 2.39916 0
M  V30 7879 C 760.402 3.65639 2.22469 0
M  V30 7880 C 759.728 3.96082 3.59198 0
M  V30 7881 C 761.028 4.95687 1.64596 0
M  V30 7882 H 762.722 2.91679 0.675569 0
M  V30 7883 H 760.268 1.40319 0.32352 0
M  V30 7884 H 762.221 2.84206 3.11135 0
M  V30 7885 H 760.945 1.63186 2.8291 0
M  V30 7886 H 759.604 3.32828 1.53691 0
M  V30 7887 H 759.252 3.05287 3.99761 0
M  V30 7888 H 758.952 4.73199 3.48362 0
M  V30 7889 H 760.476 4.31672 4.31847 0
M  V30 7890 H 761.89 5.27011 2.25681 0
M  V30 7891 H 760.287 5.77126 1.64457 0
M  V30 7892 H 761.357 4.8108 0.60744 0
M  V30 7893 N 762.7 -0.34323 1.53817 0
M  V30 7894 C 764.116 -0.686355 1.44088 0
M  V30 7895 C 764.316 -1.92426 0.597882 0
M  V30 7896 O 763.372 -2.52343 0.0889918 0
M  V30 7897 C 764.685 -0.878698 2.87575 0
M  V30 7898 C 766.233 -0.977296 2.97352 0
M  V30 7899 C 766.708 -1.20195 4.41947 0
M  V30 7900 N 768.199 -1.26915 4.45474 0
M  V30 7901 C 768.934 -1.46049 5.54488 0
M  V30 7902 N 768.43 -1.62354 6.73508 0
M  V30 7903 N 770.223 -1.48599 5.42102 0
M  V30 7904 H 762.374 0.470679 2.07119 0
M  V30 7905 H 764.637 0.148652 0.936273 0
M  V30 7906 H 764.343 -0.040602 3.51677 0
M  V30 7907 H 764.217 -1.78034 3.32541 0
M  V30 7908 H 766.604 -1.80591 2.3339 0
M  V30 7909 H 766.685 -0.0525498 2.55746 0
M  V30 7910 H 766.329 -0.378262 5.06489 0
M  V30 7911 H 766.259 -2.14027 4.81145 0
M  V30 7912 H 768.75 -1.15837 3.59708 0
M  V30 7913 H 769.063 -1.76591 7.52353 0
M  V30 7914 H 767.408 -1.5949 6.76453 0
M  V30 7915 H 770.599 -1.35443 4.48077 0
M  V30 7916 H 770.772 -1.6317 6.2712 0
M  V30 7917 N 764.178 -1.45556 -0.604258 0
M  V30 7918 C 765.141 -1.54091 -1.69672 0
M  V30 7919 C 766.141 -0.420076 -1.55216 0
M  V30 7920 O 767.331 -0.683671 -1.60224 0
M  V30 7921 C 764.463 -1.44063 -3.08964 0
M  V30 7922 H 765.656 -2.51431 -1.6347 0
M  V30 7923 H 763.209 -1.33046 -0.820273 0
M  V30 7924 H 763.944 -0.479201 -3.2074 0
M  V30 7925 H 763.729 -2.25362 -3.20865 0
M  V30 7926 H 765.219 -1.53075 -3.88533 0
M  V30 7927 N 765.656 0.84705 -1.32902 0
M  V30 7928 C 766.619 1.9378 -1.224 0
M  V30 7929 C 767.619 1.60144 -0.145108 0
M  V30 7930 O 768.809 1.69638 -0.396058 0
M  V30 7931 C 765.941 3.29234 -0.884174 0
M  V30 7932 H 767.134 2.04518 -2.19345 0
M  V30 7933 H 764.687 1.03816 -1.16842 0
M  V30 7934 H 765.422 3.24193 0.0831277 0
M  V30 7935 H 765.207 3.55026 -1.6643 0
M  V30 7936 H 766.697 4.09162 -0.835226 0
M  V30 7937 N 767.134 1.16236 1.06428 0
M  V30 7938 C 768.097 0.870163 2.1204 0
M  V30 7939 C 769.097 -0.134239 1.60239 0
M  V30 7940 O 770.287 0.0964932 1.73933 0
M  V30 7941 C 767.419 0.301033 3.39568 0
M  V30 7942 H 768.612 1.8064 2.39394 0
M  V30 7943 H 766.165 0.971116 1.2247 0
M  V30 7944 H 766.9 -0.642948 3.17863 0
M  V30 7945 H 766.685 1.02475 3.78472 0
M  V30 7946 H 768.175 0.114494 4.17443 0
M  V30 7947 N 768.612 -1.24939 0.960631 0
M  V30 7948 C 769.858 -1.93104 0.61958 0
M  V30 7949 C 770.191 -1.74991 -0.84212 0
M  V30 7950 O 769.466 -1.09867 -1.60498 0
M  V30 7951 C 769.749 -3.46326 0.986422 0
M  V30 7952 C 769.602 -3.73638 2.50429 0
M  V30 7953 C 770.921 -4.37067 0.515827 0
M  V30 7954 H 768.04 -0.701311 0.226566 0
M  V30 7955 H 770.682 -1.47442 1.19836 0
M  V30 7956 H 768.832 -3.85348 0.493907 0
M  V30 7957 H 770.504 -3.44217 3.07103 0
M  V30 7958 H 768.747 -3.19035 2.93937 0
M  V30 7959 H 769.418 -4.80815 2.71147 0
M  V30 7960 H 771.894 -4.05381 0.938389 0
M  V30 7961 H 770.77 -5.43022 0.80114 0
M  V30 7962 H 771.031 -4.38224 -0.584171 0
M  V30 7963 N 770.09 -0.729906 -1.39679 0
M  V30 7964 C 771.022 -0.0470588 -2.29152 0
M  V30 7965 C 772.035 0.708808 -1.4656 0
M  V30 7966 O 773.224 0.553815 -1.69691 0
M  V30 7967 C 770.324 0.957612 -3.25089 0
M  V30 7968 C 769.497 0.264321 -4.36601 0
M  V30 7969 C 768.556 1.17638 -5.12882 0
M  V30 7970 O 767.582 0.655777 -5.6541 0
M  V30 7971 N 768.784 2.50649 -5.23598 0
M  V30 7972 H 771.549 -0.815364 -2.88395 0
M  V30 7973 H 769.11 -0.578707 -1.51204 0
M  V30 7974 H 771.102 1.57026 -3.72995 0
M  V30 7975 H 769.672 1.62716 -2.66912 0
M  V30 7976 H 768.892 -0.528732 -3.90638 0
M  V30 7977 H 770.18 -0.216344 -5.0834 0
M  V30 7978 H 769.578 2.95427 -4.82431 0
M  V30 7979 H 768.135 3.07022 -5.74961 0
M  V30 7980 N 771.568 1.50203 -0.477153 0
M  V30 7981 C 772.793 2.07263 0.0754986 0
M  V30 7982 C 773.218 1.33801 1.32208 0
M  V30 7983 O 772.576 0.387482 1.77111 0
M  V30 7984 C 772.624 3.59028 0.336348 0
M  V30 7985 O 771.728 3.87339 1.4157 0
M  V30 7986 H 771.069 0.663815 -0.015662 0
M  V30 7987 H 773.599 1.93321 -0.669936 0
M  V30 7988 H 773.609 4.03927 0.575034 0
M  V30 7989 H 772.284 4.11912 -0.574551 0
M  V30 7990 H 770.861 3.54272 1.16385 0
M  V30 7991 N 773.046 0.209999 1.56195 0
M  V30 7992 C 774.009 -0.691232 2.18528 0
M  V30 7993 C 775.009 -1.13013 1.14388 0
M  V30 7994 O 776.199 -1.04081 1.39688 0
M  V30 7995 C 773.331 -1.94551 2.79934 0
M  V30 7996 H 774.524 -0.147953 2.99535 0
M  V30 7997 H 772.077 -0.0396243 1.5625 0
M  V30 7998 H 772.812 -2.53094 2.02766 0
M  V30 7999 H 772.597 -1.63938 3.56184 0
M  V30 8000 H 774.087 -2.58785 3.2775 0
M  V30 8001 N 774.524 -1.57472 -0.0634922 0
M  V30 8002 C 775.752 -1.91887 -0.773767 0
M  V30 8003 C 776.167 -0.806733 -1.70696 0
M  V30 8004 O 775.524 0.219383 -1.81177 0
M  V30 8005 C 775.575 -3.26092 -1.56034 0
M  V30 8006 O 775.296 -4.33029 -0.66464 0
M  V30 8007 C 776.797 -3.74573 -2.37087 0
M  V30 8008 H 774.017 -0.634074 -0.219525 0
M  V30 8009 H 776.561 -2.04476 -0.0312828 0
M  V30 8010 H 774.716 -3.15004 -2.25502 0
M  V30 8011 H 775.13 -5.10291 -1.21258 0
M  V30 8012 H 776.604 -4.71084 -2.87722 0
M  V30 8013 H 777.081 -3.04003 -3.16984 0
M  V30 8014 H 777.687 -3.88631 -1.72759 0
M  V30 8015 N 776.003 0.335068 -1.53997 0
M  V30 8016 C 777.28 1.09188 -1.62288 0
M  V30 8017 C 777.66 2.0626 -0.449458 0
M  V30 8018 O 777.008 2.21596 0.557444 0
M  V30 8019 C 777.218 1.80403 -2.98757 0
M  V30 8020 C 778.566 2.33841 -3.54406 0
M  V30 8021 O 779.59 1.90487 -3.00987 0
M  V30 8022 O 778.449 3.1318 -4.47862 0
M  V30 8023 H 775.543 0.502621 -0.656736 0
M  V30 8024 H 778.089 0.33588 -1.66343 0
M  V30 8025 H 776.861 1.09732 -3.75599 0
M  V30 8026 H 776.484 2.62841 -2.9833 0
M  V30 8027 N 777.481 1.45874 0.596531 0
M  V30 8028 C 778.411 1.5824 1.71705 0
M  V30 8029 C 779.392 0.433366 1.64487 0
M  V30 8030 O 780.577 0.657895 1.82717 0
M  V30 8031 C 777.707 1.55927 3.10329 0
M  V30 8032 C 776.661 2.69659 3.32367 0
M  V30 8033 C 775.987 2.52403 4.71377 0
M  V30 8034 C 777.287 4.11591 3.21544 0
M  V30 8035 H 778.981 2.52035 1.61613 0
M  V30 8036 H 776.527 1.21297 0.776082 0
M  V30 8037 H 778.48 1.63173 3.88526 0
M  V30 8038 H 777.204 0.586674 3.21288 0
M  V30 8039 H 775.863 2.61859 2.56564 0
M  V30 8040 H 775.511 1.53258 4.79083 0
M  V30 8041 H 775.211 3.28679 4.87077 0
M  V30 8042 H 776.735 2.6152 5.5176 0
M  V30 8043 H 778.149 4.20576 3.89601 0
M  V30 8044 H 776.546 4.88344 3.4877 0
M  V30 8045 H 777.616 4.32719 2.1882 0
M  V30 8046 N 778.959 -0.83999 1.33349 0
M  V30 8047 C 780.189 -1.62492 1.27593 0
M  V30 8048 C 780.597 -1.88559 -0.155597 0
M  V30 8049 O 779.94 -1.46537 -1.10782 0
M  V30 8050 C 780.002 -2.99984 1.98116 0
M  V30 8051 C 779.666 -2.96892 3.47425 0
M  V30 8052 C 780.663 -2.72688 4.42648 0
M  V30 8053 C 778.348 -3.17063 3.89585 0
M  V30 8054 C 780.342 -2.68681 5.78004 0
M  V30 8055 C 778.029 -3.12682 5.25046 0
M  V30 8056 C 779.027 -2.88522 6.19067 0
M  V30 8057 O 778.715 -2.84042 7.52047 0
M  V30 8058 H 778.447 -0.512358 0.440982 0
M  V30 8059 H 781.001 -1.0545 1.76265 0
M  V30 8060 H 779.231 -3.58875 1.44034 0
M  V30 8061 H 780.92 -3.6084 1.85875 0
M  V30 8062 H 781.686 -2.56856 4.114 0
M  V30 8063 H 777.565 -3.34889 3.16813 0
M  V30 8064 H 781.109 -2.49743 6.51363 0
M  V30 8065 H 777.006 -3.28063 5.55918 0
M  V30 8066 H 777.774 -2.99892 7.61582 0
M  V30 8067 N 780.437 -1.16799 -1.0581 0
M  V30 8068 C 781.685 -0.950642 -1.78346 0
M  V30 8069 C 782.006 0.522524 -1.87869 0
M  V30 8070 O 781.276 1.3795 -1.39092 0
M  V30 8071 H 779.856 -0.348736 -0.6606 0
M  V30 8072 H 782.518 -1.47158 -1.27791 0
M  V30 8073 H 781.614 -1.37359 -2.80248 0
M  V30 8074 N 781.915 1.24427 -0.967243 0
M  V30 8075 C 783.14 1.9708 -0.646069 0
M  V30 8076 C 783.565 1.71272 0.777665 0
M  V30 8077 O 782.923 0.976179 1.52776 0
M  V30 8078 C 782.971 3.48501 -0.926266 0
M  V30 8079 O 782.075 4.12398 -0.0114653 0
M  V30 8080 H 781.416 0.617423 -0.244304 0
M  V30 8081 H 783.946 1.58215 -1.29727 0
M  V30 8082 H 783.956 3.98885 -0.857619 0
M  V30 8083 H 782.631 3.66613 -1.96386 0
M  V30 8084 H 781.208 3.72661 -0.133396 0
M  V30 8085 N 783.393 0.737304 1.3929 0
M  V30 8086 C 784.621 0.296573 2.04763 0
M  V30 8087 C 785.036 -1.06941 1.55592 0
M  V30 8088 O 784.393 -1.67619 0.721822 0
M  V30 8089 C 784.444 0.291906 3.6032 0
M  V30 8090 O 784.165 1.60397 4.07682 0
M  V30 8091 C 785.666 -0.164708 4.42994 0
M  V30 8092 H 782.886 0.129251 0.658434 0
M  V30 8093 H 785.43 1.0016 1.78293 0
M  V30 8094 H 783.585 -0.364251 3.85684 0
M  V30 8095 H 783.999 1.51909 5.0202 0
M  V30 8096 H 785.473 -0.116814 5.51876 0
M  V30 8097 H 785.95 -1.21022 4.22197 0
M  V30 8098 H 786.556 0.461968 4.22784 0
M  V30 8099 N 784.871 -1.49948 0.485112 0
M  V30 8100 C 786.096 -2.073 -0.0645059 0
M  V30 8101 C 786.521 -1.345 -1.31497 0
M  V30 8102 O 785.879 -0.39687 -1.76903 0
M  V30 8103 C 785.927 -3.59201 -0.317304 0
M  V30 8104 O 785.031 -3.88085 -1.39514 0
M  V30 8105 H 784.372 -0.663723 0.0191822 0
M  V30 8106 H 786.902 -1.92963 0.680179 0
M  V30 8107 H 786.912 -4.04227 -0.553604 0
M  V30 8108 H 785.587 -4.11602 0.596387 0
M  V30 8109 H 784.164 -3.54885 -1.14504 0
M  V30 8110 N 786.349 -0.21828 -1.56081 0
M  V30 8111 C 787.281 0.725447 -2.17416 0
M  V30 8112 C 788.294 1.15995 -1.14233 0
M  V30 8113 O 789.483 1.09166 -1.41227 0
M  V30 8114 C 786.583 1.99401 -2.7403 0
M  V30 8115 C 785.756 1.7156 -4.02351 0
M  V30 8116 C 784.815 2.8309 -4.43561 0
M  V30 8117 O 783.841 2.51701 -5.10525 0
M  V30 8118 N 785.043 4.11972 -4.08973 0
M  V30 8119 H 787.808 0.200801 -2.99027 0
M  V30 8120 H 785.369 -0.0371514 -1.61857 0
M  V30 8121 H 787.361 2.73198 -2.98571 0
M  V30 8122 H 785.931 2.42923 -1.96742 0
M  V30 8123 H 785.151 0.814233 -3.85699 0
M  V30 8124 H 786.439 1.50385 -4.86068 0
M  V30 8125 H 785.837 4.40319 -3.55156 0
M  V30 8126 H 784.394 4.82323 -4.38415 0
M  V30 8127 N 787.827 1.57504 0.0551401 0
M  V30 8128 C 788.737 2.08198 1.08124 0
M  V30 8129 C 789.753 1.01496 1.41331 0
M  V30 8130 O 790.929 1.33073 1.51174 0
M  V30 8131 C 787.994 2.52968 2.37083 0
M  V30 8132 C 787.055 3.7404 2.10696 0
M  V30 8133 C 786.288 4.16665 3.33505 0
M  V30 8134 O 786.511 3.59019 4.4324 0
M  V30 8135 O 785.445 5.09324 3.20737 0
M  V30 8136 H 789.271 2.95977 0.680518 0
M  V30 8137 H 786.856 1.46933 0.270401 0
M  V30 8138 H 788.738 2.82211 3.12946 0
M  V30 8139 H 787.413 1.6831 2.76502 0
M  V30 8140 H 786.32 3.49855 1.32484 0
M  V30 8141 H 787.653 4.59601 1.76148 0
M  V30 8142 N 789.305 -0.326896 1.54172 0
M  V30 8143 C 790.551 -1.06681 1.72473 0
M  V30 8144 C 790.884 -1.87779 0.49523 0
M  V30 8145 O 790.159 -1.87754 -0.507803 0
M  V30 8146 C 790.442 -1.99429 2.99834 0
M  V30 8147 C 790.295 -1.21682 4.33028 0
M  V30 8148 C 791.614 -2.99002 3.22933 0
M  V30 8149 H 788.733 -0.386438 0.627563 0
M  V30 8150 H 791.375 -0.343779 1.86864 0
M  V30 8151 H 789.525 -2.61081 2.87696 0
M  V30 8152 H 791.197 -0.625153 4.57044 0
M  V30 8153 H 789.44 -0.519045 4.30684 0
M  V30 8154 H 790.111 -1.89766 5.18356 0
M  V30 8155 H 792.587 -2.4747 3.34511 0
M  V30 8156 H 791.463 -3.61085 4.13412 0
M  V30 8157 H 791.724 -3.71281 2.40006 0
M  V30 8158 N 790.784 -1.46188 -0.588786 0
M  V30 8159 C 791.747 -1.55882 -1.68029 0
M  V30 8160 C 792.747 -0.436515 -1.54762 0
M  V30 8161 O 793.937 -0.700626 -1.59489 0
M  V30 8162 C 791.069 -1.47332 -3.07418 0
M  V30 8163 H 792.262 -2.5315 -1.60795 0
M  V30 8164 H 789.815 -1.33908 -0.806116 0
M  V30 8165 H 790.55 -0.513193 -3.20214 0
M  V30 8166 H 790.335 -2.28753 -3.18456 0
M  V30 8167 H 791.825 -1.57187 -3.86887 0
M  V30 8168 N 792.262 0.832906 -1.33792 0
M  V30 8169 C 793.487 1.62568 -1.28788 0
M  V30 8170 C 793.912 1.87599 0.137246 0
M  V30 8171 O 793.27 1.44436 1.0958 0
M  V30 8172 C 793.318 2.9495 -2.07453 0
M  V30 8173 O 792.422 3.86546 -1.43722 0
M  V30 8174 H 791.763 0.494809 -0.442787 0
M  V30 8175 H 794.293 1.03578 -1.76445 0
M  V30 8176 H 794.303 3.44599 -2.1844 0
M  V30 8177 H 792.978 2.76055 -3.11073 0
M  V30 8178 H 791.555 3.45044 -1.41417 0
M  V30 8179 N 793.74 1.17359 1.05189 0
M  V30 8180 C 794.986 0.963413 1.78455 0
M  V30 8181 C 795.319 -0.506703 1.87473 0
M  V30 8182 O 794.594 -1.37611 1.37453 0
M  V30 8183 C 794.877 1.60519 3.22344 0
M  V30 8184 C 794.73 3.14741 3.21338 0
M  V30 8185 C 796.049 1.3091 4.20179 0
M  V30 8186 H 793.168 0.351412 0.647826 0
M  V30 8187 H 795.81 1.44858 1.22948 0
M  V30 8188 H 793.96 1.19265 3.69741 0
M  V30 8189 H 795.632 3.65053 2.82017 0
M  V30 8190 H 793.875 3.4749 2.59679 0
M  V30 8191 H 794.546 3.54775 4.22894 0
M  V30 8192 H 797.022 1.66635 3.81277 0
M  V30 8193 H 795.898 1.784 5.191 0
M  V30 8194 H 796.159 0.229908 4.41502 0
M  V30 8195 N 795.218 -1.23913 0.973828 0
M  V30 8196 C 796.165 -2.25132 0.508366 0
M  V30 8197 C 797.135 -1.59908 -0.449307 0
M  V30 8198 O 798.32 -1.87405 -0.358313 0
M  V30 8199 C 795.46 -3.4458 -0.189422 0
M  V30 8200 C 794.573 -4.24381 0.807738 0
M  V30 8201 C 793.708 -5.31131 0.0854315 0
M  V30 8202 C 792.747 -6.02635 1.07225 0
M  V30 8203 N 791.884 -7.01073 0.379535 0
M  V30 8204 H 796.724 -2.64313 1.37632 0
M  V30 8205 H 794.261 -1.29924 0.689802 0
M  V30 8206 H 796.219 -4.12706 -0.610733 0
M  V30 8207 H 794.849 -3.06218 -1.02129 0
M  V30 8208 H 793.901 -3.55735 1.34747 0
M  V30 8209 H 795.213 -4.73778 1.55998 0
M  V30 8210 H 794.367 -6.05422 -0.393572 0
M  V30 8211 H 793.106 -4.82658 -0.699461 0
M  V30 8212 H 792.111 -5.27143 1.56207 0
M  V30 8213 H 793.336 -6.53197 1.85769 0
M  V30 8214 H 791.282 -6.54862 -0.386269 0
M  V30 8215 H 791.199 -7.48382 1.07054 0
M  V30 8216 H 792.467 -7.79462 -0.0772984 0
M  V30 8217 N 796.696 -0.74468 -1.38897 0
M  V30 8218 C 797.628 -0.0713608 -2.29089 0
M  V30 8219 C 798.641 0.693224 -1.47303 0
M  V30 8220 O 799.83 0.535785 -1.70269 0
M  V30 8221 C 796.93 0.923078 -3.26087 0
M  V30 8222 C 796.103 0.217998 -4.36856 0
M  V30 8223 C 795.162 1.12192 -5.14101 0
M  V30 8224 O 794.188 0.595771 -5.66073 0
M  V30 8225 N 795.39 2.45082 -5.26227 0
M  V30 8226 H 798.155 -0.845906 -2.87514 0
M  V30 8227 H 795.716 -0.594712 -1.50581 0
M  V30 8228 H 797.708 1.53061 -3.74639 0
M  V30 8229 H 796.278 1.59876 -2.68623 0
M  V30 8230 H 795.498 -0.570134 -3.90055 0
M  V30 8231 H 796.786 -0.270248 -5.08082 0
M  V30 8232 H 796.184 2.90294 -4.85537 0
M  V30 8233 H 794.741 3.00907 -5.78185 0
M  V30 8234 N 798.174 1.49689 -0.493057 0
M  V30 8235 C 799.137 2.27502 0.278485 0
M  V30 8236 C 800.137 1.33184 0.901037 0
M  V30 8237 O 801.327 1.56415 0.766801 0
M  V30 8238 C 798.459 3.10881 1.39878 0
M  V30 8239 H 799.652 2.97163 -0.404219 0
M  V30 8240 H 797.205 1.54324 -0.247774 0
M  V30 8241 H 797.94 2.45767 2.11587 0
M  V30 8242 H 797.725 3.80219 0.957924 0
M  V30 8243 H 799.215 3.69673 1.94247 0
M  V30 8244 N 799.652 0.226554 1.55963 0
M  V30 8245 C 800.899 -0.403789 1.98433 0
M  V30 8246 C 801.227 -1.59416 1.1143 0
M  V30 8247 O 800.482 -1.95042 0.160389 0
M  V30 8248 C 800.781 -0.87642 3.46488 0
M  V30 8249 C 800.447 0.203973 4.50438 0
M  V30 8250 C 799.109 0.500754 4.78587 0
M  V30 8251 C 801.461 0.934396 5.12756 0
M  V30 8252 C 798.789 1.53239 5.66334 0
M  V30 8253 C 801.141 1.9554 6.0162 0
M  V30 8254 C 799.805 2.25905 6.28111 0
M  V30 8255 H 799.075 -0.147757 0.726119 0
M  V30 8256 H 801.722 0.330121 1.88633 0
M  V30 8257 H 800.027 -1.68918 3.53517 0
M  V30 8258 H 801.724 -1.37407 3.76723 0
M  V30 8259 H 798.314 -0.0374917 4.28584 0
M  V30 8260 H 802.498 0.718355 4.91074 0
M  V30 8261 H 797.754 1.77321 5.85122 0
M  V30 8262 H 801.928 2.52642 6.48957 0
M  V30 8263 H 799.555 3.05985 6.959 0
M  V30 8264 N 801.13 -1.57531 -0.0467866 0
M  V30 8265 C 802.407 -1.79568 -0.775536 0
M  V30 8266 C 802.787 -0.820322 -1.94509 0
M  V30 8267 O 802.135 0.14134 -2.28062 0
M  V30 8268 C 802.345 -3.26789 -1.22516 0
M  V30 8269 C 803.693 -3.91299 -1.64835 0
M  V30 8270 O 804.717 -3.30831 -1.3202 0
M  V30 8271 O 803.576 -4.97727 -2.25677 0
M  V30 8272 H 800.67 -0.737817 -0.373572 0
M  V30 8273 H 803.216 -1.69682 -0.0249302 0
M  V30 8274 H 801.988 -3.89357 -0.389446 0
M  V30 8275 H 801.611 -3.41496 -2.03633 0
M  V30 8276 N 802.608 0.318715 -1.54344 0
M  V30 8277 C 803.571 1.37545 -1.83342 0
M  V30 8278 C 804.571 1.445 -0.705444 0
M  V30 8279 O 805.761 1.44443 -0.973752 0
M  V30 8280 C 802.893 2.76225 -1.99781 0
M  V30 8281 H 804.086 1.13084 -2.77762 0
M  V30 8282 H 801.639 0.554457 -1.46135 0
M  V30 8283 H 802.374 3.05934 -1.07588 0
M  V30 8284 H 802.159 2.7257 -2.81865 0
M  V30 8285 H 803.649 3.52664 -2.23647 0
M  V30 8286 N 804.086 1.46499 0.581025 0
M  V30 8287 C 805.332 1.52121 1.34116 0
M  V30 8288 C 805.665 0.173031 1.93428 0
M  V30 8289 O 804.94 -0.815729 1.76568 0
M  V30 8290 C 805.223 2.62108 2.46924 0
M  V30 8291 C 805.076 4.06462 1.92636 0
M  V30 8292 C 806.395 2.68167 3.48962 0
M  V30 8293 H 803.514 0.5538 0.486287 0
M  V30 8294 H 806.156 1.78443 0.652538 0
M  V30 8295 H 804.306 2.39794 3.05665 0
M  V30 8296 H 805.978 4.40068 1.3834 0
M  V30 8297 H 804.221 4.15862 1.23455 0
M  V30 8298 H 804.892 4.79152 2.74076 0
M  V30 8299 H 807.368 2.8823 3.00104 0
M  V30 8300 H 806.244 3.46942 4.2535 0
M  V30 8301 H 806.505 1.74284 4.06297 0
M  V30 8302 N 805.565 -0.825799 1.34232 0
M  V30 8303 C 806.813 -1.57873 1.26177 0
M  V30 8304 C 807.134 -1.94267 -0.168904 0
M  V30 8305 O 806.404 -1.62045 -1.10084 0
M  V30 8306 H 804.984 -0.585388 0.464037 0
M  V30 8307 H 807.646 -0.986163 1.6811 0
M  V30 8308 H 806.742 -2.50283 1.86453 0
M  V30 8309 N 807.043 -1.17915 -1.04565 0
M  V30 8310 C 808.289 -0.972863 -1.77942 0
M  V30 8311 C 808.622 0.496753 -1.87739 0
M  V30 8312 O 807.897 1.3688 -1.38181 0
M  V30 8313 C 808.18 -1.62227 -3.21488 0
M  V30 8314 C 808.033 -3.16441 -3.19664 0
M  V30 8315 C 809.352 -1.33137 -4.19479 0
M  V30 8316 H 806.471 -0.354843 -0.645953 0
M  V30 8317 H 809.113 -1.45508 -1.22178 0
M  V30 8318 H 807.263 -1.21224 -3.69103 0
M  V30 8319 H 808.935 -3.66544 -2.80077 0
M  V30 8320 H 807.178 -3.48863 -2.57832 0
M  V30 8321 H 807.849 -3.57012 -4.21006 0
M  V30 8322 H 810.325 -1.68654 -3.80388 0
M  V30 8323 H 809.201 -1.81151 -5.18146 0
M  V30 8324 H 809.462 -0.253319 -4.41374 0
M  V30 8325 N 808.521 1.23394 -0.980386 0
M  V30 8326 C 809.468 2.24859 -0.520298 0
M  V30 8327 C 810.438 1.60144 0.440821 0
M  V30 8328 O 811.623 1.87593 0.348369 0
M  V30 8329 C 808.763 3.44675 0.171145 0
M  V30 8330 C 807.876 4.23947 -0.830233 0
M  V30 8331 C 807.011 5.31079 -0.113597 0
M  V30 8332 C 806.05 6.02058 -1.10419 0
M  V30 8333 N 805.187 7.00862 -0.416709 0
M  V30 8334 H 810.027 2.63579 -1.39032 0
M  V30 8335 H 807.564 1.29556 -0.696682 0
M  V30 8336 H 809.522 4.13024 0.588838 0
M  V30 8337 H 808.152 3.06755 1.00504 0
M  V30 8338 H 807.204 3.55016 -1.36631 0
M  V30 8339 H 808.516 4.72945 -1.58508 0
M  V30 8340 H 807.67 6.05622 0.36146 0
M  V30 8341 H 806.409 4.83022 0.673854 0
M  V30 8342 H 805.414 5.26307 -1.59 0
M  V30 8343 H 806.639 6.52203 -1.8923 0
M  V30 8344 H 804.585 6.55057 0.351535 0
M  V30 8345 H 804.502 7.47804 -1.11021 0
M  V30 8346 H 805.77 7.79492 0.0359606 0
M  V30 8347 O 810.038 0.889354 1.34806 0
M  V30 8348 H 810.729 0.496436 1.8723 0
M  V30 END ATOM
M  V30 BEGIN BOND
M  V30 END BOND
M  V30 END CTAB
M  END
$$$$
