drugbank_drug|DB01271 Idursulfase heavy chain
 OpenBabel12092119123D

  0  0  0     0  0            999 V3000
M  V30 BEGIN CTAB
M  V30 COUNTS 6716 6821 0 0 0
M  V30 BEGIN ATOM
M  V30 1 H -0.908 1.98254 -0.117106 0
M  V30 2 N 0 1.576 0 0
M  V30 3 C 1.225 1.95249 0.699468 0
M  V30 4 C 1.65 0.874934 1.66513 0
M  V30 5 O 1.008 -0.166929 1.8053 0
M  V30 6 C 1.056 3.31994 1.40756 0
M  V30 7 O 0.16 3.26298 2.52197 0
M  V30 8 H -0.499 0.637402 0.186051 0
M  V30 9 H 2.031 2.04531 -0.05319 0
M  V30 10 H 2.041 3.6756 1.77098 0
M  V30 11 H 0.716 4.09975 0.69953 0
M  V30 12 H -0.707 3.02408 2.18183 0
M  V30 13 N 1.4781 -0.272755 1.55222 0
M  V30 14 C 2.3881 -1.35918 1.91216 0
M  V30 15 C 3.4041 -1.54026 0.809436 0
M  V30 16 O 4.5801 -1.68148 1.10852 0
M  V30 17 C 1.6451 -2.69834 2.17693 0
M  V30 18 C 0.7061 -2.6047 3.41253 0
M  V30 19 C -0.0609 -3.88 3.66458 0
M  V30 20 O 0.1621 -4.88693 2.94169 0
M  V30 21 O -0.9039 -3.88189 4.59992 0
M  V30 22 H 2.9221 -1.0839 2.83699 0
M  V30 23 H 0.5071 -0.471301 1.41771 0
M  V30 24 H 2.3891 -3.49017 2.36147 0
M  V30 25 H 1.0641 -2.97148 1.28392 0
M  V30 26 H -0.0289 -1.79663 3.28134 0
M  V30 27 H 1.3041 -2.38106 4.30774 0
M  V30 28 N 2.9562 -1.48159 -0.537278 0
M  V30 29 C 4.1842 -1.59454 -1.31841 0
M  V30 30 C 4.5992 -0.252065 -1.8711 0
M  V30 31 O 3.9562 0.757621 -1.66031 0
M  V30 32 C 4.0072 -2.63546 -2.47439 0
M  V30 33 O 3.7282 -3.92583 -1.94449 0
M  V30 34 C 5.2292 -2.85212 -3.39366 0
M  V30 35 H 2.4492 -0.53785 -0.401196 0
M  V30 36 H 4.9932 -1.93932 -0.648891 0
M  V30 37 H 3.1482 -2.31946 -3.1029 0
M  V30 38 H 3.5622 -4.49629 -2.70063 0
M  V30 39 H 5.0362 -3.61863 -4.16844 0
M  V30 40 H 5.5132 -1.93765 -3.94147 0
M  V30 41 H 6.1192 -3.18086 -2.82314 0
M  V30 42 N 4.4343 0.785586 -1.36625 0
M  V30 43 C 5.3663 1.90711 -1.2713 0
M  V30 44 C 6.3793 1.61688 -0.189986 0
M  V30 45 O 7.5683 1.72864 -0.445014 0
M  V30 46 C 4.6683 3.25611 -0.939713 0
M  V30 47 C 3.8413 3.82385 -2.12369 0
M  V30 48 C 2.9003 4.95732 -1.76456 0
M  V30 49 O 1.9263 5.12047 -2.48589 0
M  V30 50 N 3.1283 5.76258 -0.700492 0
M  V30 51 H 5.8933 1.99376 -2.23762 0
M  V30 52 H 3.4543 0.964041 -1.30069 0
M  V30 53 H 5.4463 3.98937 -0.680554 0
M  V30 54 H 4.0163 3.12538 -0.0624074 0
M  V30 55 H 3.2363 3.01001 -2.54543 0
M  V30 56 H 4.5243 4.17047 -2.9146 0
M  V30 57 H 3.9223 5.65609 -0.101624 0
M  V30 58 H 2.4793 6.4987 -0.501165 0
M  V30 59 N 5.9124 1.20967 1.01018 0
M  V30 60 C 6.8754 0.965918 2.07853 0
M  V30 61 C 7.8754 -0.0610545 1.60684 0
M  V30 62 O 9.0654 0.175681 1.73312 0
M  V30 63 C 6.1974 0.455513 3.37843 0
M  V30 64 H 7.3904 1.91365 2.3091 0
M  V30 65 H 4.9434 1.02594 1.17916 0
M  V30 66 H 5.6784 -0.497381 3.20463 0
M  V30 67 H 5.4634 1.19622 3.73407 0
M  V30 68 H 6.9534 0.304667 4.16487 0
M  V30 69 N 7.3905 -1.2043 1.01659 0
M  V30 70 C 8.3385 -2.25249 0.580143 0
M  V30 71 C 9.3325 -1.65057 -0.381115 0
M  V30 72 O 10.5385 -1.78241 -0.251039 0
M  V30 73 H 6.9135 -0.732695 0.169299 0
M  V30 74 H 8.8845 -2.59389 1.47512 0
M  V30 75 C 7.6335 -3.47638 -0.065788 0
M  V30 76 H 6.9565 -3.94233 0.664874 0
M  V30 77 H 8.3965 -4.2268 -0.334282 0
M  V30 78 C 6.8555 -3.10447 -1.3086 0
M  V30 79 O 7.3855 -3.21981 -2.4019 0
M  V30 80 N 5.5915 -2.64996 -1.1927 0
M  V30 81 H 5.1385 -2.55811 -0.303064 0
M  V30 82 H 5.0965 -2.40482 -2.02523 0
M  V30 83 N 8.8686 -0.792821 -1.36206 0
M  V30 84 C 10.0936 -0.377701 -2.03932 0
M  V30 85 C 10.5186 0.998947 -1.59382 0
M  V30 86 O 9.8766 1.64421 -0.763903 0
M  V30 87 C 9.9246 -0.453635 -3.57735 0
M  V30 88 O 9.0286 0.538151 -4.08874 0
M  V30 89 H 8.3696 -0.159855 -0.644471 0
M  V30 90 H 10.8996 -1.07488 -1.7409 0
M  V30 91 H 10.9096 -0.318464 -4.06755 0
M  V30 92 H 9.5846 -1.45784 -3.89512 0
M  V30 93 H 8.1616 0.364359 -3.71116 0
M  V30 94 N 10.3467 1.47872 -0.545128 0
M  V30 95 C 11.5747 2.06889 -0.021084 0
M  V30 96 C 11.9897 1.39955 1.2672 0
M  V30 97 O 11.3467 0.492036 1.75742 0
M  V30 98 C 11.3977 3.60996 0.190817 0
M  V30 99 O 11.1187 4.25419 -1.04644 0
M  V30 100 C 12.6197 4.36849 0.753521 0
M  V30 101 H 9.8397 0.669785 -0.0403635 0
M  V30 102 H 12.3837 1.90049 -0.755095 0
M  V30 103 H 10.5387 3.77391 0.87492 0
M  V30 104 H 10.9527 5.17785 -0.836611 0
M  V30 105 H 12.4267 5.45399 0.851139 0
M  V30 106 H 12.9037 4.02306 1.762 0
M  V30 107 H 13.5097 4.25169 0.105503 0
M  V30 108 N 11.8248 0.280983 1.55075 0
M  V30 109 C 13.0528 -0.337293 2.04132 0
M  V30 110 C 13.4678 -1.4903 1.15912 0
M  V30 111 O 12.8248 -1.81606 0.180459 0
M  V30 112 C 12.8758 -0.812706 3.52246 0
M  V30 113 O 12.5968 0.294387 4.3711 0
M  V30 114 C 14.0978 -1.4982 4.17216 0
M  V30 115 H 11.3178 -0.0761638 0.666663 0
M  V30 116 H 13.8618 0.414787 2.00249 0
M  V30 117 H 12.0168 -1.51486 3.56554 0
M  V30 118 H 12.4308 -0.0721325 5.2445 0
M  V30 119 H 13.9048 -1.7822 5.22438 0
M  V30 120 H 14.3818 -2.43168 3.65741 0
M  V30 121 H 14.9878 -0.839742 4.16927 0
M  V30 122 N 13.3029 -1.57598 0.00835791 0
M  V30 123 C 14.5799 -1.82172 -0.712235 0
M  V30 124 C 14.9599 -0.887873 -1.9152 0
M  V30 125 O 14.3079 0.06146 -2.28417 0
M  V30 126 C 14.5179 -3.30875 -1.11008 0
M  V30 127 C 15.8659 -3.96826 -1.51044 0
M  V30 128 O 16.8899 -3.35248 -1.20364 0
M  V30 129 O 15.7489 -5.05318 -2.08125 0
M  V30 130 H 12.8429 -0.750435 -0.347529 0
M  V30 131 H 15.3889 -1.69665 0.0344523 0
M  V30 132 H 14.1609 -3.90481 -0.252982 0
M  V30 133 H 13.7839 -3.48412 -1.9156 0
M  V30 134 N 14.781 0.264519 -1.55364 0
M  V30 135 C 15.744 1.31046 -1.88042 0
M  V30 136 C 16.744 1.41943 -0.755569 0
M  V30 137 O 17.934 1.40947 -1.02369 0
M  V30 138 C 15.066 2.69067 -2.09323 0
M  V30 139 H 16.259 1.03297 -2.81549 0
M  V30 140 H 13.812 0.502989 -1.47986 0
M  V30 141 H 14.547 3.01982 -1.18226 0
M  V30 142 H 14.332 2.62542 -2.91229 0
M  V30 143 H 15.822 3.44623 -2.35848 0
M  V30 144 N 16.2591 1.48442 0.529413 0
M  V30 145 C 17.1891 1.65902 1.64313 0
M  V30 146 C 18.1701 0.507897 1.6234 0
M  V30 147 O 19.3551 0.740503 1.79528 0
M  V30 148 C 16.4851 1.69911 3.02898 0
M  V30 149 C 15.4391 2.8453 3.19729 0
M  V30 150 C 14.7651 2.73629 4.59381 0
M  V30 151 C 16.0651 4.25821 3.02447 0
M  V30 152 H 17.7591 2.5914 1.49955 0
M  V30 153 H 15.3051 1.24709 0.719982 0
M  V30 154 H 17.2581 1.80715 3.80684 0
M  V30 155 H 15.9821 0.732524 3.18279 0
M  V30 156 H 14.6411 2.73283 2.44361 0
M  V30 157 H 14.2891 1.74938 4.71599 0
M  V30 158 H 13.9891 3.50541 4.71588 0
M  V30 159 H 15.5131 2.86401 5.39265 0
M  V30 160 H 16.9271 4.37898 3.70024 0
M  V30 161 H 15.3241 5.03735 3.26146 0
M  V30 162 H 16.3941 4.42244 1.98867 0
M  V30 163 N 17.7372 -0.778329 1.37039 0
M  V30 164 C 18.6852 -1.91278 1.32345 0
M  V30 165 C 19.6792 -1.68051 0.213331 0
M  V30 166 O 20.8852 -1.75922 0.38098 0
M  V30 167 H 17.2602 -0.628909 0.412283 0
M  V30 168 H 19.2312 -1.92355 2.28127 0
M  V30 169 C 17.9802 -3.28455 1.14073 0
M  V30 170 H 17.3032 -3.46901 1.98746 0
M  V30 171 H 18.7432 -4.08152 1.14837 0
M  V30 172 C 17.2022 -3.36548 -0.154015 0
M  V30 173 O 17.7322 -3.85186 -1.13993 0
M  V30 174 N 15.9382 -2.89894 -0.202475 0
M  V30 175 H 15.4852 -2.50504 0.600476 0
M  V30 176 H 15.4432 -2.9569 -1.06841 0
M  V30 177 N 19.2153 -1.21501 -1.00376 0
M  V30 178 C 20.4613 -1.03452 -1.74429 0
M  V30 179 C 20.7943 0.430764 -1.89362 0
M  V30 180 O 20.0693 1.31962 -1.42886 0
M  V30 181 C 20.3523 -1.73375 -3.15615 0
M  V30 182 C 20.2053 -3.27431 -3.08397 0
M  V30 183 C 21.5243 -1.47732 -4.14564 0
M  V30 184 H 18.6433 -0.377226 -0.633143 0
M  V30 185 H 21.2853 -1.49693 -1.17013 0
M  V30 186 H 19.4353 -1.34064 -3.64636 0
M  V30 187 H 21.1073 -3.76119 -2.67081 0
M  V30 188 H 19.3503 -3.5767 -2.45468 0
M  V30 189 H 20.0213 -3.71524 -4.08258 0
M  V30 190 H 22.4973 -1.8186 -3.74254 0
M  V30 191 H 21.3733 -1.99169 -5.11491 0
M  V30 192 H 21.6343 -0.407589 -4.40217 0
M  V30 193 N 20.6934 1.19889 -1.02296 0
M  V30 194 C 21.6234 2.25141 -0.619174 0
M  V30 195 C 22.6044 1.66051 0.368915 0
M  V30 196 O 23.7894 1.92546 0.252941 0
M  V30 197 C 20.9194 3.4728 0.0368783 0
M  V30 198 C 19.8734 4.19005 -0.872865 0
M  V30 199 C 19.1994 5.34637 -0.0822402 0
M  V30 200 C 20.4994 4.74452 -2.18387 0
M  V30 201 H 22.1934 2.59171 -1.49903 0
M  V30 202 H 19.7394 1.24579 -0.722222 0
M  V30 203 H 21.6924 4.20098 0.330958 0
M  V30 204 H 20.4164 3.12433 0.95149 0
M  V30 205 H 19.0754 3.48061 -1.15105 0
M  V30 206 H 18.7234 4.96034 0.83422 0
M  V30 207 H 18.4234 5.83557 -0.688149 0
M  V30 208 H 19.9474 6.10255 0.205238 0
M  V30 209 H 21.3614 5.39055 -1.95172 0
M  V30 210 H 19.7584 5.33834 -2.74119 0
M  V30 211 H 20.8284 3.92844 -2.84257 0
M  V30 212 N 22.1715 0.800033 1.35784 0
M  V30 213 C 23.1015 0.220184 2.3246 0
M  V30 214 C 24.0825 -0.65073 1.57161 0
M  V30 215 O 25.2675 -0.582359 1.85263 0
M  V30 216 C 22.3975 -0.637353 3.41402 0
M  V30 217 C 21.3515 0.134531 4.27789 0
M  V30 218 C 20.6775 -0.844285 5.27992 0
M  V30 219 C 21.9775 1.32979 5.05088 0
M  V30 220 H 23.6715 1.02787 2.81203 0
M  V30 221 H 21.2175 0.495717 1.35199 0
M  V30 222 H 23.1705 -1.05302 4.08031 0
M  V30 223 H 21.8945 -1.47785 2.91251 0
M  V30 224 H 20.5535 0.531296 3.6273 0
M  V30 225 H 20.2015 -1.68011 4.74111 0
M  V30 226 H 19.9015 -0.332184 5.8666 0
M  V30 227 H 21.4255 -1.2583 5.97494 0
M  V30 228 H 22.8395 0.98934 5.64699 0
M  V30 229 H 21.2365 1.77593 5.7322 0
M  V30 230 H 22.3065 2.11978 4.36111 0
M  V30 231 N 23.6496 -1.47581 0.552962 0
M  V30 232 C 24.8986 -2.01684 0.0251995 0
M  V30 233 C 25.2116 -1.43317 -1.33115 0
M  V30 234 O 26.4176 -1.89057 -1.94858 0
M  V30 235 C 24.8736 -3.599 -0.00542052 0
M  V30 236 C 24.4816 -4.27257 1.34742 0
M  V30 237 C 26.2256 -4.21768 -0.4808 0
M  V30 238 C 24.1326 -5.77467 1.27614 0
M  V30 239 H 23.0626 -0.753979 0.00565033 0
M  V30 240 H 25.7136 -1.69616 0.70018 0
M  V30 241 H 24.0956 -3.88911 -0.745961 0
M  V30 242 H 25.2696 -4.09893 2.10534 0
M  V30 243 H 23.5846 -3.77358 1.76039 0
M  V30 244 H 26.1816 -5.31838 -0.55246 0
M  V30 245 H 26.5246 -3.88651 -1.49184 0
M  V30 246 H 27.0576 -3.97273 0.204752 0
M  V30 247 H 23.7966 -6.15196 2.26304 0
M  V30 248 H 23.3166 -5.9718 0.55996 0
M  V30 249 H 24.9956 -6.3959 0.976421 0
M  V30 250 N 25.1277 -0.289203 -1.54924 0
M  V30 251 C 26.3767 0.324231 -1.99077 0
M  V30 252 C 26.6897 1.5591 -1.18117 0
M  V30 253 O 27.8957 2.24637 -1.52481 0
M  V30 254 C 26.3517 0.628209 -3.54375 0
M  V30 255 C 25.9597 -0.587647 -4.44129 0
M  V30 256 C 27.7037 1.20349 -4.07083 0
M  V30 257 C 25.6107 -0.257475 -5.90839 0
M  V30 258 H 24.5407 0.124924 -0.743579 0
M  V30 259 H 27.1917 -0.396063 -1.79175 0
M  V30 260 H 25.5737 1.40778 -3.70132 0
M  V30 261 H 26.7477 -1.36418 -4.40144 0
M  V30 262 H 25.0627 -1.08074 -4.0213 0
M  V30 263 H 27.6597 1.46456 -5.14252 0
M  V30 264 H 28.0027 2.14195 -3.56968 0
M  V30 265 H 28.5357 0.485889 -3.94821 0
M  V30 266 H 25.2747 -1.16419 -6.45079 0
M  V30 267 H 24.7947 0.482018 -5.9786 0
M  V30 268 H 26.4737 0.145238 -6.46837 0
M  V30 269 N 26.6058 1.57591 -0.0167156 0
M  V30 270 C 27.8518 1.91567 0.665582 0
M  V30 271 C 28.1848 0.892298 1.72487 0
M  V30 272 O 27.4598 -0.0867127 1.94307 0
M  V30 273 C 27.7428 3.36069 1.29342 0
M  V30 274 C 27.5958 4.49135 0.244541 0
M  V30 275 C 28.9148 3.803 2.21495 0
M  V30 276 H 26.0338 0.69666 0.240488 0
M  V30 277 H 28.6758 1.89866 -0.0714356 0
M  V30 278 H 26.8258 3.3765 1.92158 0
M  V30 279 H 28.4978 4.59689 -0.385228 0
M  V30 280 H 26.7408 4.3165 -0.431379 0
M  V30 281 H 27.4118 5.47242 0.723207 0
M  V30 282 H 29.8878 3.80377 1.68678 0
M  V30 283 H 28.7638 4.82127 2.62382 0
M  V30 284 H 29.0248 3.15104 3.101 0
M  V30 285 N 28.0839 -0.256276 1.55502 0
M  V30 286 C 29.3609 -1.00789 1.67633 0
M  V30 287 C 29.7409 -2.03706 0.553826 0
M  V30 288 O 29.0889 -2.24145 -0.443969 0
M  V30 289 C 29.2989 -1.64968 3.07549 0
M  V30 290 C 30.6469 -2.15505 3.65845 0
M  V30 291 O 31.6709 -1.74925 3.1029 0
M  V30 292 O 30.5299 -2.89986 4.63217 0
M  V30 293 H 27.6239 -0.468553 0.681459 0
M  V30 294 H 30.1699 -0.250806 1.67836 0
M  V30 295 H 28.9419 -0.904785 3.80696 0
M  V30 296 H 28.5649 -2.47321 3.11317 0
M  V30 297 N 29.562 -1.4872 -0.521534 0
M  V30 298 C 30.839 -1.4766 -1.2828 0
M  V30 299 C 31.219 -0.19292 -2.10217 0
M  V30 300 O 30.567 0.825193 -2.13079 0
M  V30 301 C 30.777 -2.74358 -2.15705 0
M  V30 302 C 32.125 -3.23028 -2.75569 0
M  V30 303 O 33.149 -2.75333 -2.25987 0
M  V30 304 O 32.008 -4.0604 -3.65778 0
M  V30 305 H 29.102 -0.590085 -0.579421 0
M  V30 306 H 31.648 -1.60963 -0.537492 0
M  V30 307 H 30.42 -3.59292 -1.54999 0
M  V30 308 H 30.043 -2.63816 -2.97467 0
M  V30 309 N 31.0401 0.771051 -1.3745 0
M  V30 310 C 31.9701 1.89827 -1.3597 0
M  V30 311 C 32.9511 1.68562 -0.228216 0
M  V30 312 O 34.1361 1.8941 -0.428675 0
M  V30 313 C 31.2661 3.2712 -1.16662 0
M  V30 314 C 30.2201 3.6295 -2.2683 0
M  V30 315 C 29.5461 4.98791 -1.92644 0
M  V30 316 C 30.8461 3.69627 -3.69017 0
M  V30 317 H 32.5401 1.91323 -2.30295 0
M  V30 318 H 30.0861 0.919082 -1.10855 0
M  V30 319 H 32.0391 4.05615 -1.14256 0
M  V30 320 H 30.7631 3.26059 -0.187926 0
M  V30 321 H 29.4221 2.86763 -2.28392 0
M  V30 322 H 29.0701 4.94271 -0.933021 0
M  V30 323 H 28.7701 5.23733 -2.66416 0
M  V30 324 H 30.2941 5.79685 -1.91826 0
M  V30 325 H 31.7081 4.38273 -3.69581 0
M  V30 326 H 30.1051 4.06067 -4.41848 0
M  V30 327 H 31.1751 2.70273 -4.02592 0
M  V30 328 N 32.5182 1.22032 0.997298 0
M  V30 329 C 33.9342 0.979326 1.26021 0
M  V30 330 C 34.1342 -0.32972 1.98784 0
M  V30 331 O 33.1902 -1.05345 2.29475 0
M  V30 332 C 34.5032 2.17509 2.07631 0
M  V30 333 C 36.0512 2.21817 2.2083 0
M  V30 334 C 36.5262 3.40933 3.05825 0
M  V30 335 N 38.0172 3.41067 3.13412 0
M  V30 336 C 38.7522 4.29885 3.79455 0
M  V30 337 N 38.2482 5.28914 4.47462 0
M  V30 338 N 40.0412 4.17673 3.76173 0
M  V30 339 H 32.1922 2.06202 0.509352 0
M  V30 340 H 34.4552 0.90334 0.287541 0
M  V30 341 H 34.1612 3.12415 1.61524 0
M  V30 342 H 34.0352 2.17206 3.08385 0
M  V30 343 H 36.4222 1.27462 2.66153 0
M  V30 344 H 36.5032 2.2616 1.1952 0
M  V30 345 H 36.1472 4.35586 2.61203 0
M  V30 346 H 36.0772 3.33829 4.07266 0
M  V30 347 H 38.5682 2.69406 2.65007 0
M  V30 348 H 38.8812 5.92973 4.95583 0
M  V30 349 H 37.2262 5.32831 4.46224 0
M  V30 350 H 40.4172 3.39564 3.22202 0
M  V30 351 H 40.5902 4.87098 4.27363 0
M  V30 352 N 33.9963 -1.19345 1.0293 0
M  V30 353 C 35.4073 -1.70725 0.755633 0
M  V30 354 C 35.7583 -1.82326 -0.724676 0
M  V30 355 O 34.8833 -1.49471 -1.56484 0
M  V30 356 C 35.4783 -3.10084 1.36503 0
M  V30 357 C 34.0373 -3.58723 1.13994 0
M  V30 358 C 33.1843 -2.35577 1.46283 0
M  V30 359 H 36.1353 -1.0418 1.19718 0
M  V30 360 H 36.1563 -3.72787 0.762217 0
M  V30 361 H 35.6683 -3.01609 2.44241 0
M  V30 362 H 33.7693 -3.72512 0.0807901 0
M  V30 363 H 33.8823 -4.42816 1.82894 0
M  V30 364 H 32.2463 -2.38935 0.88217 0
M  V30 365 H 33.0293 -2.29731 2.55105 0
M  V30 366 N 35.4744 -0.807222 -1.35358 0
M  V30 367 C 36.6994 -0.399309 -2.0352 0
M  V30 368 C 37.1244 0.981986 -1.60433 0
M  V30 369 O 36.4824 1.63601 -0.781299 0
M  V30 370 C 36.5304 -0.491552 -3.57234 0
M  V30 371 O 35.6344 0.494754 -4.09421 0
M  V30 372 H 34.9754 -0.166682 -0.642739 0
M  V30 373 H 37.5054 -1.09328 -1.72941 0
M  V30 374 H 37.5154 -0.361588 -4.06395 0
M  V30 375 H 36.1904 -1.49907 -3.87944 0
M  V30 376 H 34.7674 0.324977 -3.71481 0
M  V30 377 N 36.9525 1.47285 -0.560781 0
M  V30 378 C 37.8825 2.32857 0.173105 0
M  V30 379 C 38.8635 1.44009 0.905281 0
M  V30 380 O 40.0485 1.7286 0.885046 0
M  V30 381 C 37.1785 3.25861 1.20133 0
M  V30 382 C 36.1325 4.23978 0.585388 0
M  V30 383 C 35.4585 5.06332 1.7185 0
M  V30 384 C 36.7585 5.20242 -0.463178 0
M  V30 385 H 38.4525 2.94466 -0.541307 0
M  V30 386 H 35.9985 1.41601 -0.261764 0
M  V30 387 H 37.9515 3.84569 1.72293 0
M  V30 388 H 36.6755 2.62315 1.94573 0
M  V30 389 H 35.3345 3.66501 0.085054 0
M  V30 390 H 34.9825 4.39186 2.45203 0
M  V30 391 H 34.6825 5.72762 1.31213 0
M  V30 392 H 36.2065 5.67899 2.24329 0
M  V30 393 H 37.6205 5.73293 -0.027502 0
M  V30 394 H 36.0175 5.94896 -0.788627 0
M  V30 395 H 37.0875 4.65504 -1.35773 0
M  V30 396 N 38.4306 0.297415 1.54768 0
M  V30 397 C 39.6786 -0.312295 1.99673 0
M  V30 398 C 39.9996 -1.54686 1.18732 0
M  V30 399 O 39.2696 -1.93854 0.282382 0
M  V30 400 H 37.8496 -0.118381 0.73756 0
M  V30 401 H 40.5116 0.407915 1.90583 0
M  V30 402 H 39.6076 -0.586813 3.06534 0
M  V30 403 N 39.9087 -1.5758 0.0250728 0
M  V30 404 C 41.1487 -1.93497 -0.65865 0
M  V30 405 C 41.5127 -0.901409 -1.69525 0
M  V30 406 O 42.7137 -1.14664 -2.43116 0
M  V30 407 C 40.9847 -3.34352 -1.26267 0
M  V30 408 S 42.5437 -3.92191 -1.96803 0
M  V30 409 H 39.3617 -0.67709 -0.216958 0
M  V30 410 H 41.9637 -1.95303 0.0877692 0
M  V30 411 H 40.6677 -4.07395 -0.495741 0
M  V30 412 H 40.1987 -3.3598 -2.04648 0
M  V30 413 H 42.2137 -3.75298 -3.24601 0
M  V30 414 N 41.3868 0.248026 -1.55636 0
M  V30 415 C 42.6168 0.992367 -1.81206 0
M  V30 416 C 43.0248 1.7949 -0.598324 0
M  V30 417 O 42.3678 1.78292 0.442434 0
M  V30 418 C 42.4298 1.97926 -3.00109 0
M  V30 419 C 42.0938 1.36377 -4.36177 0
M  V30 420 C 43.0908 0.76682 -5.14214 0
M  V30 421 C 40.7758 1.38347 -4.82872 0
M  V30 422 C 42.7698 0.197778 -6.37093 0
M  V30 423 C 40.4568 0.810574 -6.057 0
M  V30 424 C 41.4548 0.218754 -6.8265 0
M  V30 425 O 41.1428 -0.345298 -8.03158 0
M  V30 426 H 40.8748 0.297704 -0.606917 0
M  V30 427 H 43.4288 0.276517 -2.0353 0
M  V30 428 H 41.6588 2.73339 -2.73538 0
M  V30 429 H 43.3478 2.58694 -3.12781 0
M  V30 430 H 44.1138 0.744114 -4.79258 0
M  V30 431 H 39.9928 1.8335 -4.2297 0
M  V30 432 H 43.5368 -0.264788 -6.97097 0
M  V30 433 H 39.4338 0.830604 -6.40134 0
M  V30 434 H 40.2018 -0.237055 -8.18157 0
M  V30 435 N 42.8649 1.48995 0.513639 0
M  V30 436 C 44.1129 1.57531 1.26604 0
M  V30 437 C 44.4339 0.258236 1.93283 0
M  V30 438 O 43.7039 -0.721502 1.8213 0
M  V30 439 H 42.2839 0.580387 0.470276 0
M  V30 440 H 44.9459 1.85552 0.596373 0
M  V30 441 H 44.0419 2.36486 2.03669 0
M  V30 442 N 44.343 -0.763751 1.37857 0
M  V30 443 C 45.62 -1.51244 1.24035 0
M  V30 444 C 46 -2.10472 -0.162649 0
M  V30 445 O 45.348 -1.96206 -1.17112 0
M  V30 446 C 45.558 -2.58694 2.34261 0
M  V30 447 C 46.906 -3.25878 2.72193 0
M  V30 448 O 47.93 -2.68993 2.33497 0
M  V30 449 O 46.789 -4.2874 3.38887 0
M  V30 450 H 43.883 -0.670243 0.484462 0
M  V30 451 H 46.429 -0.800031 1.49658 0
M  V30 452 H 45.201 -2.13105 3.2818 0
M  V30 453 H 44.824 -3.37527 2.10146 0
M  V30 454 N 45.8211 -1.22559 -0.990812 0
M  V30 455 C 46.7681 -0.997519 -2.0813 0
M  V30 456 C 47.7381 0.0814702 -1.659 0
M  V30 457 O 48.9231 -0.0685424 -1.90677 0
M  V30 458 C 46.0631 -0.583615 -3.40129 0
M  V30 459 C 45.1761 -1.7336 -3.9569 0
M  V30 460 C 44.3111 -1.26748 -5.15857 0
M  V30 461 C 43.3501 -2.38888 -5.63559 0
M  V30 462 N 42.4871 -1.93308 -6.74964 0
M  V30 463 H 47.3271 -1.93099 -2.26973 0
M  V30 464 H 44.8641 -0.962114 -1.11273 0
M  V30 465 H 46.8221 -0.324801 -4.15934 0
M  V30 466 H 45.4521 0.312845 -3.2128 0
M  V30 467 H 44.5041 -2.10669 -3.16738 0
M  V30 468 H 45.8161 -2.57704 -4.27071 0
M  V30 469 H 44.9701 -0.966173 -5.98957 0
M  V30 470 H 43.7091 -0.394272 -4.86104 0
M  V30 471 H 42.7141 -2.69805 -4.79046 0
M  V30 472 H 43.9391 -3.26728 -5.95336 0
M  V30 473 H 41.8851 -1.08352 -6.4699 0
M  V30 474 H 41.8021 -2.71217 -7.05675 0
M  V30 475 H 43.0701 -1.66252 -7.61564 0
M  V30 476 N 47.2992 1.18797 -1.03562 0
M  V30 477 C 48.2292 2.24472 -0.643019 0
M  V30 478 C 49.2102 1.66433 0.351283 0
M  V30 479 O 50.3952 1.92803 0.232505 0
M  V30 480 C 47.5252 3.473 4.24935e-05 0
M  V30 481 C 46.4792 4.18055 -0.917257 0
M  V30 482 C 45.8052 5.34519 -0.138941 0
M  V30 483 C 47.1052 4.72109 -2.23407 0
M  V30 484 H 48.7992 2.57566 -1.52643 0
M  V30 485 H 46.3452 1.23806 -0.735394 0
M  V30 486 H 48.2982 4.20426 0.286383 0
M  V30 487 H 47.0222 3.13424 0.918299 0
M  V30 488 H 45.6812 3.46821 -1.1879 0
M  V30 489 H 45.3292 4.96891 0.781562 0
M  V30 490 H 45.0292 5.82794 -0.750005 0
M  V30 491 H 46.5532 6.10438 0.1405 0
M  V30 492 H 47.9672 5.36955 -2.00879 0
M  V30 493 H 46.3642 5.30897 -2.79765 0
M  V30 494 H 47.4342 3.89807 -2.88407 0
M  V30 495 N 48.7773 0.814389 1.34928 0
M  V30 496 C 50.0233 0.399013 1.98836 0
M  V30 497 C 50.3563 -1.03314 1.64438 0
M  V30 498 O 49.6313 -1.71811 0.911659 0
M  V30 499 C 49.9143 0.591629 3.55207 0
M  V30 500 C 49.7673 2.06928 3.99376 0
M  V30 501 C 51.0863 0.022199 4.40094 0
M  V30 502 H 48.2053 0.146451 0.722303 0
M  V30 503 H 50.8473 1.02537 1.59957 0
M  V30 504 H 48.9973 0.0584441 3.88456 0
M  V30 505 H 50.6693 2.66544 3.76499 0
M  V30 506 H 48.9123 2.56287 3.49999 0
M  V30 507 H 49.5833 2.1549 5.08201 0
M  V30 508 H 52.0593 0.477643 4.13349 0
M  V30 509 H 50.9353 0.186832 5.48582 0
M  V30 510 H 51.1963 -1.07215 4.28902 0
M  V30 511 N 50.2554 -1.46986 0.568584 0
M  V30 512 C 51.6714 -1.57946 0.229189 0
M  V30 513 C 51.8714 -1.56567 -1.26843 0
M  V30 514 O 50.9274 -1.47511 -2.04931 0
M  V30 515 C 52.2404 -2.87963 0.865909 0
M  V30 516 C 53.7884 -3.01568 0.838188 0
M  V30 517 C 54.2634 -4.34301 1.45419 0
M  V30 518 N 55.7544 -4.40965 1.41788 0
M  V30 519 C 56.4894 -5.42256 1.86403 0
M  V30 520 N 55.9854 -6.50297 2.38926 0
M  V30 521 N 57.7784 -5.3337 1.77405 0
M  V30 522 H 49.9294 -1.46126 1.54146 0
M  V30 523 H 52.1924 -0.696156 0.643484 0
M  V30 524 H 51.8984 -2.94742 1.91886 0
M  V30 525 H 51.7724 -3.75423 0.365687 0
M  V30 526 H 54.1594 -2.94379 -0.206106 0
M  V30 527 H 54.2404 -2.1562 1.37629 0
M  V30 528 H 53.8844 -4.42247 2.49761 0
M  V30 529 H 53.8144 -5.19 0.891435 0
M  V30 530 H 56.3054 -3.63484 1.03381 0
M  V30 531 H 56.6184 -7.23777 2.70863 0
M  V30 532 H 54.9634 -6.51155 2.42944 0
M  V30 533 H 58.1544 -4.47865 1.3614 0
M  V30 534 H 58.3274 -6.12169 2.12492 0
M  V30 535 N 51.7335 -0.305618 -1.54608 0
M  V30 536 C 52.9585 0.307562 -2.05107 0
M  V30 537 C 53.3835 1.46385 -1.18123 0
M  V30 538 O 52.7415 1.8034 -0.186324 0
M  V30 539 C 52.7895 0.73704 -3.52987 0
M  V30 540 O 51.8935 1.84134 -3.6901 0
M  V30 541 H 51.2345 0.0589143 -0.661381 0
M  V30 542 H 53.7645 -0.448807 -1.99617 0
M  V30 543 H 53.7745 1.02459 -3.94925 0
M  V30 544 H 52.4495 -0.108773 -4.15758 0
M  V30 545 H 51.0265 1.55398 -3.38978 0
M  V30 546 N 53.2116 1.57565 -0.0334293 0
M  V30 547 C 54.6226 1.79746 0.504798 0
M  V30 548 C 54.9736 0.944091 1.71992 0
M  V30 549 O 54.0986 0.155694 2.15839 0
M  V30 550 C 54.6936 3.25997 0.922567 0
M  V30 551 C 53.2526 3.49159 1.40588 0
M  V30 552 C 52.3996 2.74785 0.372633 0
M  V30 553 H 55.3506 1.56565 -0.259436 0
M  V30 554 H 55.3716 3.35945 1.78666 0
M  V30 555 H 54.8836 3.88081 0.0379825 0
M  V30 556 H 52.9846 2.92332 2.31025 0
M  V30 557 H 53.0976 4.57873 1.41028 0
M  V30 558 H 51.4616 2.40391 0.841672 0
M  V30 559 H 52.2446 3.39587 -0.503559 0
M  V30 560 N 54.6897 -0.239769 1.55765 0
M  V30 561 C 55.6377 -1.31668 1.91745 0
M  V30 562 C 56.6317 -1.49462 0.797338 0
M  V30 563 O 57.8377 -1.50852 0.982021 0
M  V30 564 H 54.2127 -0.441048 0.609082 0
M  V30 565 H 56.1837 -0.985923 2.81642 0
M  V30 566 C 54.9327 -2.66368 2.2348 0
M  V30 567 H 54.2557 -2.53478 3.09175 0
M  V30 568 H 55.6957 -3.40578 2.52553 0
M  V30 569 C 54.1547 -3.20002 1.05359 0
M  V30 570 O 54.6847 -4.00538 0.305261 0
M  V30 571 N 52.8907 -2.78126 0.842292 0
M  V30 572 H 52.4377 -2.12742 1.45253 0
M  V30 573 H 52.3957 -3.14354 0.053652 0
M  V30 574 N 56.1678 -1.49265 -0.50573 0
M  V30 575 C 57.4168 -1.57761 -1.25675 0
M  V30 576 C 57.7298 -0.267371 -1.93764 0
M  V30 577 O 58.9358 -0.230827 -2.70517 0
M  V30 578 C 57.3918 -2.78332 -2.28165 0
M  V30 579 C 56.9998 -4.16096 -1.66037 0
M  V30 580 C 58.7438 -2.96155 -3.04125 0
M  V30 581 C 56.6508 -5.27895 -2.6661 0
M  V30 582 H 55.5808 -0.587391 -0.472745 0
M  V30 583 H 58.2318 -1.75644 -0.53118 0
M  V30 584 H 56.6138 -2.53934 -3.03865 0
M  V30 585 H 57.7878 -4.50612 -0.963622 0
M  V30 586 H 56.1028 -4.03591 -1.02484 0
M  V30 587 H 58.6998 -3.76849 -3.79327 0
M  V30 588 H 59.0428 -2.06534 -3.61455 0
M  V30 589 H 59.5758 -3.2057 -2.35541 0
M  V30 590 H 56.3148 -6.1956 -2.14068 0
M  V30 591 H 55.8348 -4.97839 -3.34539 0
M  V30 592 H 57.5138 -5.57031 -3.29129 0
M  V30 593 N 57.6459 0.756429 -1.3826 0
M  V30 594 C 58.9229 1.50584 -1.24835 0
M  V30 595 C 59.3029 2.10556 0.151485 0
M  V30 596 O 58.6509 1.96825 1.1607 0
M  V30 597 C 58.8609 2.57448 -2.3563 0
M  V30 598 C 60.2089 3.24429 -2.73917 0
M  V30 599 O 61.2329 2.67751 -2.34921 0
M  V30 600 O 60.0919 4.26937 -3.41156 0
M  V30 601 H 57.1859 0.667664 -0.48801 0
M  V30 602 H 59.7319 0.792083 -1.5008 0
M  V30 603 H 58.5039 2.11362 -3.29305 0
M  V30 604 H 58.1269 3.36408 -2.11933 0
M  V30 605 N 59.124 1.23083 0.984299 0
M  V30 606 C 60.056 0.96636 2.07832 0
M  V30 607 C 61.069 -0.0582135 1.62696 0
M  V30 608 O 62.258 0.176843 1.77622 0
M  V30 609 C 59.358 0.433397 3.36117 0
M  V30 610 C 58.531 1.51722 4.10243 0
M  V30 611 C 57.59 0.989821 5.16807 0
M  V30 612 O 56.616 1.67794 5.43906 0
M  V30 613 N 57.818 -0.184367 5.80207 0
M  V30 614 H 60.583 1.90824 2.31098 0
M  V30 615 H 58.144 1.13888 1.1507 0
M  V30 616 H 60.136 0.065699 4.04647 0
M  V30 617 H 58.706 -0.413806 3.09849 0
M  V30 618 H 57.926 2.05786 3.36223 0
M  V30 619 H 59.214 2.24619 4.56534 0
M  V30 620 H 58.612 -0.760062 5.60571 0
M  V30 621 H 57.169 -0.493366 6.4993 0
M  V30 622 N 60.6021 -1.18246 1.0419 0
M  V30 623 C 61.5321 -2.24127 0.654914 0
M  V30 624 C 62.5131 -1.66617 -0.342451 0
M  V30 625 O 63.6981 -1.92924 -0.222277 0
M  V30 626 C 60.8281 -3.47295 0.0183757 0
M  V30 627 C 59.7821 -4.17563 0.939414 0
M  V30 628 C 59.1081 -5.34438 0.167286 0
M  V30 629 C 60.4081 -4.70917 2.25908 0
M  V30 630 H 62.1021 -2.56753 1.54007 0
M  V30 631 H 59.6481 -1.23414 0.74195 0
M  V30 632 H 61.6011 -4.20572 -0.264082 0
M  V30 633 H 60.3251 -3.13907 -0.901664 0
M  V30 634 H 58.9841 -3.46186 1.20628 0
M  V30 635 H 58.6321 -4.97298 -0.7552 0
M  V30 636 H 58.3321 -5.82388 0.780901 0
M  V30 637 H 59.8561 -6.10504 -0.108125 0
M  V30 638 H 61.2701 -5.35882 2.03724 0
M  V30 639 H 59.6671 -5.29406 2.82577 0
M  V30 640 H 60.7371 -3.88272 2.9047 0
M  V30 641 N 62.0802 -0.821533 -1.34494 0
M  V30 642 C 63.0432 -0.247847 -2.27856 0
M  V30 643 C 64.0432 0.573453 -1.50227 0
M  V30 644 O 65.2332 0.389759 -1.69784 0
M  V30 645 C 62.3652 0.652698 -3.34593 0
M  V30 646 H 63.5582 -1.07146 -2.80107 0
M  V30 647 H 61.1112 -0.593291 -1.44602 0
M  V30 648 H 61.8462 1.49943 -2.87555 0
M  V30 649 H 61.6312 0.065292 -3.92046 0
M  V30 650 H 63.1212 1.04793 -4.04238 0
M  V30 651 N 63.5583 1.46682 -0.576371 0
M  V30 652 C 64.7833 2.07304 -0.0630475 0
M  V30 653 C 65.2083 1.42329 1.2298 0
M  V30 654 O 64.5663 0.504865 1.74129 0
M  V30 655 C 64.6143 3.60472 0.095895 0
M  V30 656 O 63.7183 3.95927 1.15394 0
M  V30 657 H 63.0593 0.661288 -0.0599463 0
M  V30 658 H 65.5893 1.88417 -0.797511 0
M  V30 659 H 65.5993 4.06865 0.304071 0
M  V30 660 H 64.2743 4.07157 -0.84828 0
M  V30 661 H 62.8513 3.61252 0.924724 0
M  V30 662 N 65.0364 0.313813 1.54444 0
M  V30 663 C 65.9864 -0.571898 2.20711 0
M  V30 664 C 66.9704 -1.08913 1.18435 0
M  V30 665 O 68.1624 -1.02777 1.44104 0
M  V30 666 C 65.2914 -1.7371 2.96108 0
M  V30 667 C 64.3774 -1.23522 4.05713 0
M  V30 668 N 64.7684 -0.452288 5.03774 0
M  V30 669 C 63.0664 -1.51482 4.19487 0
M  V30 670 C 63.7674 -0.183438 5.81411 0
M  V30 671 N 62.7434 -0.766845 5.38164 0
M  V30 672 H 66.5454 0.0336802 2.93881 0
M  V30 673 H 64.0594 0.119192 1.61962 0
M  V30 674 H 66.0564 -2.38329 3.4206 0
M  V30 675 H 64.7164 -2.34625 2.24458 0
M  V30 676 H 65.7274 -0.0960131 5.17811 0
M  V30 677 H 62.4044 -2.13053 3.59047 0
M  V30 678 H 63.7944 0.446216 6.70417 0
M  V30 679 N 66.5145 -1.57545 0.0417849 0
M  V30 680 C 67.7395 -1.97035 -0.647455 0
M  V30 681 C 68.1645 -0.918775 -1.64135 0
M  V30 682 O 67.5225 0.119006 -1.80909 0
M  V30 683 C 67.5705 -3.35609 -1.31905 0
M  V30 684 O 66.6745 -3.3287 -2.43457 0
M  V30 685 H 66.0155 -0.64211 -0.169086 0
M  V30 686 H 68.5455 -2.04318 0.107399 0
M  V30 687 H 68.5555 -3.72126 -1.67291 0
M  V30 688 H 67.2305 -4.11685 -0.590586 0
M  V30 689 H 65.8075 -3.08087 -2.10088 0
M  V30 690 N 67.9926 0.231505 -1.5589 0
M  V30 691 C 68.9226 1.29022 -1.94617 0
M  V30 692 C 69.9036 1.4941 -0.813067 0
M  V30 693 O 71.0886 1.6176 -1.07459 0
M  V30 694 C 68.2186 2.64199 -2.25424 0
M  V30 695 C 67.1726 2.58484 -3.41131 0
M  V30 696 C 66.4986 3.97599 -3.57518 0
M  V30 697 C 67.7986 2.1413 -4.76388 0
M  V30 698 H 69.4926 0.968563 -2.83301 0
M  V30 699 H 67.0386 0.464479 -1.36303 0
M  V30 700 H 68.9916 3.38413 -2.51107 0
M  V30 701 H 67.7156 2.98032 -1.33583 0
M  V30 702 H 66.3746 1.86727 -3.15481 0
M  V30 703 H 66.0226 4.28723 -2.6307 0
M  V30 704 H 65.7226 3.94659 -4.35337 0
M  V30 705 H 67.2466 4.7349 -3.85538 0
M  V30 706 H 68.6606 2.78083 -5.01341 0
M  V30 707 H 67.0576 2.2227 -5.57419 0
M  V30 708 H 68.1276 1.09331 -4.72414 0
M  V30 709 N 69.4707 1.49531 0.497807 0
M  V30 710 C 70.4007 1.6935 1.60757 0
M  V30 711 C 71.3817 0.542218 1.61227 0
M  V30 712 O 72.5667 0.778417 1.77917 0
M  V30 713 C 69.6967 1.76298 2.99226 0
M  V30 714 C 68.6507 2.91248 3.13622 0
M  V30 715 C 67.9767 2.83312 4.53474 0
M  V30 716 C 69.2767 4.3214 2.93346 0
M  V30 717 H 70.9707 2.62263 1.44425 0
M  V30 718 H 68.5167 1.26208 0.693367 0
M  V30 719 H 70.4697 1.88749 3.76765 0
M  V30 720 H 69.1937 0.799871 3.16654 0
M  V30 721 H 67.8527 2.78404 2.38509 0
M  V30 722 H 67.5007 1.84902 4.67782 0
M  V30 723 H 67.2007 3.60465 4.64046 0
M  V30 724 H 68.7247 2.97775 5.33069 0
M  V30 725 H 70.1387 4.45649 3.60652 0
M  V30 726 H 68.5357 5.1054 3.15387 0
M  V30 727 H 69.6057 4.46363 1.89441 0
M  V30 728 N 70.9488 -0.749086 1.3866 0
M  V30 729 C 72.1958 -1.50833 1.35114 0
M  V30 730 C 72.5238 -1.94415 -0.0574049 0
M  V30 731 O 71.7788 -1.66065 -1.03541 0
M  V30 732 C 72.0778 -2.7712 2.25697 0
M  V30 733 C 71.7438 -2.52477 3.73585 0
M  V30 734 C 70.4058 -2.45466 4.13884 0
M  V30 735 C 72.7578 -2.31066 4.67181 0
M  V30 736 C 70.0858 -2.15064 5.45861 0
M  V30 737 C 72.4378 -2.02183 5.9942 0
M  V30 738 C 71.1018 -1.93631 6.38798 0
M  V30 739 H 70.3718 -0.551936 0.494416 0
M  V30 740 H 73.0188 -0.860979 1.71054 0
M  V30 741 H 71.3238 -3.46528 1.82827 0
M  V30 742 H 73.0208 -3.35096 2.20254 0
M  V30 743 H 69.6108 -2.58807 3.41638 0
M  V30 744 H 73.7948 -2.35459 4.3689 0
M  V30 745 H 69.0508 -2.06954 5.75308 0
M  V30 746 H 73.2248 -1.8462 6.71482 0
M  V30 747 H 70.8518 -1.69839 7.40985 0
M  V30 748 N 72.4269 -1.23603 -0.977757 0
M  V30 749 C 73.3589 -0.977369 -2.07317 0
M  V30 750 C 74.3719 0.0495845 -1.62724 0
M  V30 751 O 75.5609 -0.186261 -1.77526 0
M  V30 752 C 72.6609 -0.451216 -3.35883 0
M  V30 753 C 71.8339 -1.53896 -4.09432 0
M  V30 754 C 70.8929 -1.01721 -5.16274 0
M  V30 755 O 69.9189 -1.70676 -5.43009 0
M  V30 756 N 71.1209 0.153594 -5.80297 0
M  V30 757 H 73.8859 -1.92047 -2.30082 0
M  V30 758 H 71.4469 -1.14497 -1.14465 0
M  V30 759 H 73.4389 -0.0871574 -4.04606 0
M  V30 760 H 72.0089 0.397368 -3.10064 0
M  V30 761 H 71.2289 -2.07566 -3.35127 0
M  V30 762 H 72.5169 -2.27037 -4.55337 0
M  V30 763 H 71.9149 0.730323 -5.60966 0
M  V30 764 H 70.4719 0.458892 -6.50183 0
M  V30 765 N 73.905 1.17692 -1.04816 0
M  V30 766 C 74.853 2.23632 -0.63966 0
M  V30 767 C 75.847 1.6601 0.337219 0
M  V30 768 O 77.053 1.78844 0.203693 0
M  V30 769 H 73.428 0.727949 -0.188665 0
M  V30 770 H 75.399 2.55387 -1.54337 0
M  V30 771 C 74.148 3.4769 -0.0264051 0
M  V30 772 H 73.471 3.92331 -0.769164 0
M  V30 773 H 74.911 4.23418 0.222098 0
M  V30 774 C 73.37 3.13807 1.22584 0
M  V30 775 O 73.9 3.28236 2.31569 0
M  V30 776 N 72.106 2.68065 1.12202 0
M  V30 777 H 71.653 2.56525 0.235133 0
M  V30 778 H 71.611 2.45767 1.96076 0
M  V30 779 N 75.3831 0.828654 1.34056 0
M  V30 780 C 76.3461 0.259927 2.27721 0
M  V30 781 C 77.3461 -0.565478 1.50529 0
M  V30 782 O 78.5361 -0.38075 1.69988 0
M  V30 783 C 75.6681 -0.634944 3.34935 0
M  V30 784 H 76.8611 1.0863 2.79534 0
M  V30 785 H 74.4141 0.600951 1.44285 0
M  V30 786 H 75.1491 -1.48416 2.88346 0
M  V30 787 H 74.9341 -0.0444999 3.92075 0
M  V30 788 H 76.4241 -1.02648 4.04788 0
M  V30 789 N 76.8612 -1.46375 0.584142 0
M  V30 790 C 78.1082 -2.02378 0.0702675 0
M  V30 791 C 78.4362 -1.45545 -1.29023 0
M  V30 792 O 77.6912 -0.610967 -1.85918 0
M  V30 793 C 77.9902 -3.57373 -0.0439342 0
M  V30 794 C 77.6562 -4.33252 1.24915 0
M  V30 795 C 76.3182 -4.53701 1.60341 0
M  V30 796 C 78.6702 -4.7681 2.1048 0
M  V30 797 C 75.9982 -5.1496 2.81128 0
M  V30 798 C 78.3502 -5.39404 3.30494 0
M  V30 799 C 77.0142 -5.5808 3.66201 0
M  V30 800 H 76.2842 -0.740554 0.0257127 0
M  V30 801 H 78.9312 -1.75727 0.761065 0
M  V30 802 H 77.2362 -3.83169 -0.817869 0
M  V30 803 H 78.9332 -3.98384 -0.457318 0
M  V30 804 H 75.5232 -4.17633 0.963364 0
M  V30 805 H 79.7072 -4.60766 1.84414 0
M  V30 806 H 74.9632 -5.27611 3.08928 0
M  V30 807 H 79.1372 -5.72114 3.97063 0
M  V30 808 H 76.7642 -6.05318 4.59885 0
M  V30 809 N 78.3393 -0.321999 -1.54275 0
M  V30 810 C 79.3023 0.531975 -2.22941 0
M  V30 811 C 80.3023 1.04478 -1.22234 0
M  V30 812 O 81.4923 0.937452 -1.46825 0
M  V30 813 C 78.6243 1.73874 -2.93224 0
M  V30 814 H 79.8173 -0.0682612 -2.99822 0
M  V30 815 H 77.3703 -0.0730644 -1.56129 0
M  V30 816 H 78.1053 2.37825 -2.20476 0
M  V30 817 H 77.8903 1.37847 -3.6707 0
M  V30 818 H 79.3803 2.34496 -3.45545 0
M  V30 819 N 79.8174 1.5752 -0.0501392 0
M  V30 820 C 80.7494 2.08413 0.95376 0
M  V30 821 C 81.7624 1.01175 1.27544 0
M  V30 822 O 82.9514 1.28744 1.23641 0
M  V30 823 C 80.0514 2.51138 2.27559 0
M  V30 824 C 79.2244 3.817 2.13598 0
M  V30 825 C 78.2834 4.10749 3.28895 0
M  V30 826 O 77.3094 4.80685 3.04845 0
M  V30 827 N 78.5114 3.62579 4.5334 0
M  V30 828 H 81.2764 2.95165 0.519383 0
M  V30 829 H 78.8374 1.61327 0.136127 0
M  V30 830 H 80.8294 2.67648 3.03557 0
M  V30 831 H 79.3994 1.6964 2.62567 0
M  V30 832 H 78.6194 3.74782 1.22197 0
M  V30 833 H 79.9074 4.67201 2.01496 0
M  V30 834 H 79.3054 3.06039 4.75769 0
M  V30 835 H 77.8624 3.84329 5.26436 0
M  V30 836 N 81.2955 -0.223234 1.56011 0
M  V30 837 C 82.2275 -1.30006 1.88762 0
M  V30 838 C 83.2405 -1.43129 0.775746 0
M  V30 839 O 84.4295 -1.44057 1.05403 0
M  V30 840 C 81.5295 -2.67589 2.07965 0
M  V30 841 C 80.7025 -2.76434 3.38973 0
M  V30 842 C 79.7615 -3.95019 3.47629 0
M  V30 843 O 78.7875 -3.83436 4.20672 0
M  V30 844 N 79.9895 -5.09249 2.78649 0
M  V30 845 H 82.7545 -1.02238 2.81722 0
M  V30 846 H 80.3155 -0.413278 1.56536 0
M  V30 847 H 82.3075 -3.45297 2.11073 0
M  V30 848 H 80.8775 -2.87964 1.21638 0
M  V30 849 H 80.0975 -1.85216 3.47978 0
M  V30 850 H 81.3855 -2.79313 4.25278 0
M  V30 851 H 80.7835 -5.21556 2.19081 0
M  V30 852 H 79.3405 -5.85007 2.8742 0
M  V30 853 N 82.7736 -1.49793 -0.48987 0
M  V30 854 C 83.7366 -1.66752 -1.57246 0
M  V30 855 C 84.7366 -0.538867 -1.51502 0
M  V30 856 O 85.9266 -0.805545 -1.54456 0
M  V30 857 C 83.0586 -1.67528 -2.96896 0
M  V30 858 H 84.2516 -2.63321 -1.43534 0
M  V30 859 H 81.8046 -1.38992 -0.714914 0
M  V30 860 H 82.5396 -0.725837 -3.16073 0
M  V30 861 H 82.3246 -2.49504 -3.02473 0
M  V30 862 H 83.8146 -1.82667 -3.7553 0
M  V30 863 N 84.2517 0.741722 -1.39055 0
M  V30 864 C 85.4977 1.50336 -1.36113 0
M  V30 865 C 85.8307 1.94148 0.0450796 0
M  V30 866 O 85.1057 1.66301 1.00868 0
M  V30 867 C 85.3887 2.74773 -2.32749 0
M  V30 868 C 85.2417 2.37023 -3.82283 0
M  V30 869 C 86.5607 3.76846 -2.27322 0
M  V30 870 H 83.6797 0.545351 -0.495743 0
M  V30 871 H 86.3217 0.848624 -1.69995 0
M  V30 872 H 84.4717 3.30639 -2.03986 0
M  V30 873 H 86.1437 1.8684 -4.21768 0
M  V30 874 H 84.3867 1.69334 -3.99385 0
M  V30 875 H 85.0577 3.26104 -4.45376 0
M  V30 876 H 87.5337 3.30548 -2.5274 0
M  V30 877 H 86.4097 4.6159 -2.97028 0
M  V30 878 H 86.6707 4.23286 -1.27599 0
M  V30 879 N 85.7298 1.2412 0.971189 0
M  V30 880 C 86.9698 1.09066 1.7287 0
M  V30 881 C 87.3338 -0.364794 1.88503 0
M  V30 882 O 88.5348 -0.636748 2.61149 0
M  V30 883 C 86.8058 1.80629 3.08396 0
M  V30 884 S 88.3648 1.81263 3.99611 0
M  V30 885 H 85.1828 0.390145 0.594397 0
M  V30 886 H 87.7848 1.57397 1.15959 0
M  V30 887 H 86.4888 2.85647 2.94676 0
M  V30 888 H 86.0198 1.32617 3.70373 0
M  V30 889 H 88.0348 0.877804 4.88374 0
M  V30 890 N 87.2079 -1.17134 1.05439 0
M  V30 891 C 88.1709 -2.19439 0.661764 0
M  V30 892 C 89.1709 -1.58199 -0.288042 0
M  V30 893 O 90.3609 -1.74053 -0.0715803 0
M  V30 894 C 87.4929 -3.40889 -0.0276209 0
M  V30 895 H 88.6859 -2.55688 1.56728 0
M  V30 896 H 86.2389 -1.31259 0.848567 0
M  V30 897 H 86.9739 -3.10187 -0.94629 0
M  V30 898 H 86.7589 -3.86586 0.655238 0
M  V30 899 H 88.2489 -4.16603 -0.288342 0
M  V30 900 N 88.686 -0.835752 -1.33615 0
M  V30 901 C 90.097 -0.487099 -1.80234 0
M  V30 902 C 90.448 0.993627 -1.69179 0
M  V30 903 O 89.573 1.77403 -1.23924 0
M  V30 904 C 90.168 -0.877385 -3.27242 0
M  V30 905 C 88.727 -0.580915 -3.7189 0
M  V30 906 C 87.874 -1.0874 -2.5509 0
M  V30 907 H 90.825 -1.02474 -1.2118 0
M  V30 908 H 90.846 -0.186195 -3.80044 0
M  V30 909 H 90.358 -1.95512 -3.35256 0
M  V30 910 H 88.459 0.486881 -3.69405 0
M  V30 911 H 88.572 -1.13396 -4.65487 0
M  V30 912 H 86.936 -0.508392 -2.49575 0
M  V30 913 H 87.719 -2.17184 -2.65868 0
M  V30 914 N 90.1641 1.46063 -0.591896 0
M  V30 915 C 91.3891 2.07226 -0.0850314 0
M  V30 916 C 91.8141 1.43625 1.21463 0
M  V30 917 O 91.1721 0.523305 1.73583 0
M  V30 918 C 91.2201 3.60554 0.0576567 0
M  V30 919 O 90.3241 3.97128 1.11188 0
M  V30 920 H 89.6651 0.660615 -0.0669568 0
M  V30 921 H 92.1951 1.8756 -0.81745 0
M  V30 922 H 92.2051 4.07165 0.2609 0
M  V30 923 H 90.8801 4.06235 -0.891416 0
M  V30 924 H 89.4571 3.62213 0.886356 0
M  V30 925 N 91.6422 0.330177 1.54103 0
M  V30 926 C 93.0582 -0.0222371 1.59585 0
M  V30 927 C 93.2582 -1.49902 1.34654 0
M  V30 928 O 92.3142 -2.25592 1.13421 0
M  V30 929 C 93.6272 0.401932 2.98002 0
M  V30 930 C 95.1752 0.353145 3.11001 0
M  V30 931 C 95.6502 0.752576 4.51775 0
M  V30 932 N 97.1412 0.706239 4.57784 0
M  V30 933 C 97.8762 0.987417 5.64834 0
M  V30 934 N 97.3722 1.33607 6.79795 0
M  V30 935 N 99.1652 0.91254 5.54643 0
M  V30 936 H 91.3162 1.29228 1.68564 0
M  V30 937 H 93.5792 0.525906 0.78875 0
M  V30 938 H 93.2852 1.4311 3.21267 0
M  V30 939 H 93.1592 -0.229699 3.765 0
M  V30 940 H 95.5462 -0.666822 2.87467 0
M  V30 941 H 95.6272 1.0198 2.34593 0
M  V30 942 H 95.2712 1.77049 4.76042 0
M  V30 943 H 95.2012 0.0635409 5.26562 0
M  V30 944 H 97.6922 0.44889 3.75224 0
M  V30 945 H 98.0052 1.53582 7.57385 0
M  V30 946 H 96.3502 1.37439 6.81275 0
M  V30 947 H 99.5412 0.639601 4.6371 0
M  V30 948 H 99.7142 1.13503 6.37982 0
M  V30 949 N 93.1203 -1.57491 0.0584922 0
M  V30 950 C 94.3663 -1.93264 -0.614558 0
M  V30 951 C 94.6993 -0.937717 -1.7006 0
M  V30 952 O 93.9743 0.0351652 -1.94468 0
M  V30 953 C 94.2573 -3.3938 -1.20386 0
M  V30 954 C 94.1103 -4.49625 -0.125375 0
M  V30 955 C 95.4293 -3.86039 -2.11334 0
M  V30 956 H 92.5483 -0.702791 -0.221933 0
M  V30 957 H 95.1903 -1.8961 0.12175 0
M  V30 958 H 93.3403 -3.42626 -1.83139 0
M  V30 959 H 95.0123 -4.58506 0.506971 0
M  V30 960 H 93.2553 -4.30354 0.545672 0
M  V30 961 H 93.9263 -5.48967 -0.577861 0
M  V30 962 H 96.4023 -3.84716 -1.58534 0
M  V30 963 H 95.2783 -4.88914 -2.49507 0
M  V30 964 H 95.5393 -3.23215 -3.01636 0
M  V30 965 N 94.5984 0.214957 -1.56127 0
M  V30 966 C 95.8234 0.95924 -1.83884 0
M  V30 967 C 96.2484 1.7689 -0.639644 0
M  V30 968 O 95.6064 1.76566 0.411601 0
M  V30 969 C 95.6544 1.84723 -3.09693 0
M  V30 970 O 94.7584 2.94346 -2.8885 0
M  V30 971 H 94.0994 0.27125 -0.606069 0
M  V30 972 H 96.6294 0.226276 -2.03345 0
M  V30 973 H 96.6394 2.25576 -3.39969 0
M  V30 974 H 95.3144 1.25218 -3.96602 0
M  V30 975 H 93.8914 2.57391 -2.69823 0
M  V30 976 N 96.0765 1.50051 0.48192 0
M  V30 977 C 97.3235 1.60498 1.23477 0
M  V30 978 C 97.6515 0.300331 1.92167 0
M  V30 979 O 96.9065 -0.713094 1.82246 0
M  V30 980 C 97.2055 2.72717 2.30998 0
M  V30 981 C 96.8715 4.13572 1.79636 0
M  V30 982 C 95.5335 4.519 1.65348 0
M  V30 983 C 97.8855 5.01649 1.41412 0
M  V30 984 C 95.2135 5.76057 1.11244 0
M  V30 985 C 97.5655 6.26343 0.887538 0
M  V30 986 C 96.2295 6.63483 0.731207 0
M  V30 987 H 95.4995 0.587303 0.451836 0
M  V30 988 H 98.1465 1.83948 0.532468 0
M  V30 989 H 96.4515 2.43312 3.07094 0
M  V30 990 H 98.1485 2.78006 2.88988 0
M  V30 991 H 94.7385 3.83329 1.91721 0
M  V30 992 H 98.9225 4.72679 1.51289 0
M  V30 993 H 94.1785 6.03516 0.978686 0
M  V30 994 H 98.3525 6.93958 0.582654 0
M  V30 995 H 95.9795 7.59568 0.309806 0
M  V30 996 N 97.5546 -0.734337 1.39446 0
M  V30 997 C 98.4846 -1.86155 1.40955 0
M  V30 998 C 99.4656 -1.67898 0.272827 0
M  V30 999 O 100.651 -1.88207 0.478743 0
M  V30 1000 C 97.7806 -3.23912 1.25294 0
M  V30 1001 C 96.7346 -3.56808 2.36373 0
M  V30 1002 C 96.0606 -4.93508 2.058 0
M  V30 1003 C 97.3606 -3.59713 3.78687 0
M  V30 1004 H 99.0546 -1.8515 2.35287 0
M  V30 1005 H 96.6006 -0.889367 1.13253 0
M  V30 1006 H 98.5536 -4.02443 1.2497 0
M  V30 1007 H 97.2776 -3.25446 0.274308 0
M  V30 1008 H 95.9366 -2.80606 2.35914 0
M  V30 1009 H 95.5846 -4.91623 1.06374 0
M  V30 1010 H 95.2846 -5.16486 2.80208 0
M  V30 1011 H 96.8086 -5.74396 2.07128 0
M  V30 1012 H 98.2226 -4.2832 3.81071 0
M  V30 1013 H 96.6196 -3.94209 4.52459 0
M  V30 1014 H 97.6896 -2.59504 4.09617 0
M  V30 1015 N 99.0327 -1.24633 -0.964593 0
M  V30 1016 C 100.261 -1.11501 -1.74285 0
M  V30 1017 C 100.676 0.332165 -1.85855 0
M  V30 1018 O 100.033 1.22903 -1.34911 0
M  V30 1019 C 100.084 -1.75258 -3.16175 0
M  V30 1020 O 99.8047 -3.14318 -3.05182 0
M  V30 1021 C 101.306 -1.67776 -4.10324 0
M  V30 1022 H 98.5257 -0.389407 -0.546446 0
M  V30 1023 H 101.07 -1.64801 -1.21083 0
M  V30 1024 H 99.2247 -1.25954 -3.66353 0
M  V30 1025 H 99.6387 -3.4551 -3.94618 0
M  V30 1026 H 101.113 -2.17064 -5.0753 0
M  V30 1027 H 101.59 -0.639584 -4.34518 0
M  V30 1028 H 102.196 -2.16522 -3.66058 0
M  V30 1029 N 100.511 1.16574 -1.06058 0
M  V30 1030 C 101.759 1.86677 -0.77434 0
M  V30 1031 C 102.08 1.81959 0.701147 0
M  V30 1032 O 101.35 1.2515 1.50713 0
M  V30 1033 H 99.9298 0.691134 -0.283449 0
M  V30 1034 H 102.592 1.41378 -1.34158 0
M  V30 1035 H 101.688 2.92181 -1.09711 0
M  V30 1036 N 101.989 0.842826 1.3317 0
M  V30 1037 C 103.405 0.531128 1.50503 0
M  V30 1038 C 103.605 -0.940734 1.78192 0
M  V30 1039 O 102.661 -1.72436 1.84451 0
M  V30 1040 C 103.974 1.40789 2.65705 0
M  V30 1041 C 105.522 1.40708 2.79589 0
M  V30 1042 C 105.997 2.26878 3.97857 0
M  V30 1043 N 107.488 2.24609 4.05099 0
M  V30 1044 C 108.223 2.88019 4.95815 0
M  V30 1045 N 107.719 3.60496 5.9162 0
M  V30 1046 N 109.512 2.77469 4.88843 0
M  V30 1047 H 101.663 1.79557 1.1346 0
M  V30 1048 H 103.926 0.766267 0.558156 0
M  V30 1049 H 103.632 2.454 2.51936 0
M  V30 1050 H 103.506 1.08677 3.61205 0
M  V30 1051 H 105.893 0.368668 2.92788 0
M  V30 1052 H 105.974 1.76829 1.84838 0
M  V30 1053 H 105.618 3.3078 3.85418 0
M  V30 1054 H 105.548 1.88096 4.91861 0
M  V30 1055 H 108.039 1.71906 3.36536 0
M  V30 1056 H 108.352 4.06076 6.57512 0
M  V30 1057 H 106.697 3.64604 5.91683 0
M  V30 1058 H 109.888 2.20406 4.12963 0
M  V30 1059 H 110.061 3.2717 5.59342 0
M  V30 1060 N 103.467 -1.45747 0.599634 0
M  V30 1061 C 104.883 -1.57424 0.26264 0
M  V30 1062 C 105.083 -1.59222 -1.23493 0
M  V30 1063 O 104.139 -1.51825 -2.01756 0
M  V30 1064 C 105.452 -2.86061 0.926795 0
M  V30 1065 C 107 -2.99722 0.901967 0
M  V30 1066 C 107.475 -4.31119 1.54598 0
M  V30 1067 N 108.966 -4.37858 1.5111 0
M  V30 1068 C 109.701 -5.3818 1.97863 0
M  V30 1069 N 109.197 -6.45083 2.52666 0
M  V30 1070 N 110.99 -5.29487 1.88679 0
M  V30 1071 H 103.141 -1.42823 1.57211 0
M  V30 1072 H 105.404 -0.68235 0.658105 0
M  V30 1073 H 105.11 -2.90605 1.98095 0
M  V30 1074 H 104.984 -3.74563 0.445238 0
M  V30 1075 H 107.371 -2.9475 -0.143617 0
M  V30 1076 H 107.452 -2.12652 1.42171 0
M  V30 1077 H 107.096 -4.36849 2.59085 0
M  V30 1078 H 107.026 -5.16992 1.00132 0
M  V30 1079 H 109.517 -3.61209 1.11068 0
M  V30 1080 H 109.83 -7.17869 2.86155 0
M  V30 1081 H 108.175 -6.45856 2.56701 0
M  V30 1082 H 111.366 -4.44877 1.4561 0
M  V30 1083 H 111.539 -6.07524 2.25429 0
M  V30 1084 N 104.945 -0.338344 -1.53925 0
M  V30 1085 C 106.356 0.146651 -1.86123 0
M  V30 1086 C 106.707 1.5042 -1.2597 0
M  V30 1087 O 105.832 2.08723 -0.571294 0
M  V30 1088 C 106.427 0.272879 -3.37699 0
M  V30 1089 C 104.986 0.702103 -3.69794 0
M  V30 1090 C 104.133 -0.167304 -2.76795 0
M  V30 1091 H 107.084 -0.558123 -1.48562 0
M  V30 1092 H 107.105 1.10128 -3.64214 0
M  V30 1093 H 106.617 -0.715307 -3.81451 0
M  V30 1094 H 104.718 1.6995 -3.31584 0
M  V30 1095 H 104.831 0.495604 -4.7653 0
M  V30 1096 H 103.195 0.359527 -2.5215 0
M  V30 1097 H 103.978 -1.15253 -3.23375 0
M  V30 1098 N 106.423 1.57458 -0.0668435 0
M  V30 1099 C 107.7 1.8469 0.644132 0
M  V30 1100 C 108.08 0.958343 1.88093 0
M  V30 1101 O 107.428 0.0233579 2.28488 0
M  V30 1102 C 107.638 3.34767 0.986509 0
M  V30 1103 C 108.986 4.02159 1.36212 0
M  V30 1104 O 110.01 3.39484 1.07839 0
M  V30 1105 O 108.869 5.12694 1.89227 0
M  V30 1106 H 105.963 0.762816 0.319437 0
M  V30 1107 H 108.509 1.6942 -0.0973986 0
M  V30 1108 H 107.281 3.91151 0.107883 0
M  V30 1109 H 106.904 3.55281 1.78497 0
M  V30 1110 N 107.901 -0.206675 1.56239 0
M  V30 1111 C 109.129 -0.945345 1.8404 0
M  V30 1112 C 109.544 -1.77336 0.647885 0
M  V30 1113 O 108.901 -1.78425 -0.383511 0
M  V30 1114 C 108.952 -1.8509 3.10522 0
M  V30 1115 O 108.673 -1.05634 4.25174 0
M  V30 1116 C 110.174 -2.70222 3.51418 0
M  V30 1117 H 107.394 -0.276372 0.61144 0
M  V30 1118 H 109.938 -0.217417 2.03341 0
M  V30 1119 H 108.093 -2.53259 2.93153 0
M  V30 1120 H 108.507 -1.67238 4.97124 0
M  V30 1121 H 109.981 -3.29438 4.42916 0
M  V30 1122 H 110.458 -3.43358 2.73864 0
M  V30 1123 H 111.064 -2.07443 3.71278 0
M  V30 1124 N 109.379 -1.50304 -0.473955 0
M  V30 1125 C 110.607 -1.64902 -1.24959 0
M  V30 1126 C 111.022 -0.331198 -1.85872 0
M  V30 1127 O 110.379 0.68652 -1.69095 0
M  V30 1128 C 110.43 -2.73803 -2.36038 0
M  V30 1129 O 110.151 -4.00477 -1.77624 0
M  V30 1130 C 111.652 -2.99349 -3.26964 0
M  V30 1131 H 108.872 -0.554383 -0.378022 0
M  V30 1132 H 111.416 -1.9651 -0.566054 0
M  V30 1133 H 109.571 -2.44898 -3.00173 0
M  V30 1134 H 109.985 -4.60678 -2.5075 0
M  V30 1135 H 111.459 -3.79217 -4.01121 0
M  V30 1136 H 111.936 -2.10307 -3.85574 0
M  V30 1137 H 112.542 -3.29774 -2.68569 0
M  V30 1138 N 110.857 0.726932 -1.39834 0
M  V30 1139 C 112.273 1.03354 -1.21615 0
M  V30 1140 C 112.473 2.01327 -0.08338 0
M  V30 1141 O 111.529 2.46158 0.56238 0
M  V30 1142 C 112.842 1.58811 -2.55342 0
M  V30 1143 C 114.39 1.70851 -2.62257 0
M  V30 1144 C 114.865 2.29716 -3.96225 0
M  V30 1145 N 116.356 2.37116 -3.97907 0
M  V30 1146 C 117.091 2.83619 -4.98345 0
M  V30 1147 N 116.587 3.29958 -6.09179 0
M  V30 1148 N 118.38 2.82901 -4.8572 0
M  V30 1149 H 110.531 0.0773069 -2.12259 0
M  V30 1150 H 112.794 0.0969102 -0.943034 0
M  V30 1151 H 112.5 0.942855 -3.38826 0
M  V30 1152 H 112.374 2.57502 -2.75632 0
M  V30 1153 H 114.761 2.34497 -1.79152 0
M  V30 1154 H 114.842 0.707913 -2.45809 0
M  V30 1155 H 114.486 1.66696 -4.79765 0
M  V30 1156 H 114.416 3.30469 -4.09997 0
M  V30 1157 H 116.907 2.04374 -3.17868 0
M  V30 1158 H 117.22 3.63976 -6.8172 0
M  V30 1159 H 115.565 3.27946 -6.12761 0
M  V30 1160 H 118.756 2.46027 -3.98231 0
M  V30 1161 H 118.929 3.18827 -5.6414 0
M  V30 1162 N 112.336 1.25143 0.95797 0
M  V30 1163 C 113.266 1.07711 2.07173 0
M  V30 1164 C 114.247 -0.0128462 1.70095 0
M  V30 1165 O 115.432 0.156061 1.93572 0
M  V30 1166 C 112.562 0.691503 3.40346 0
M  V30 1167 C 111.516 1.73132 3.9142 0
M  V30 1168 C 110.842 1.20049 5.21049 0
M  V30 1169 C 112.142 3.1294 4.1817 0
M  V30 1170 H 113.836 2.00873 2.22014 0
M  V30 1171 H 111.382 0.967191 1.06684 0
M  V30 1172 H 113.335 0.556505 4.17709 0
M  V30 1173 H 112.059 -0.275819 3.25433 0
M  V30 1174 H 110.718 1.8547 3.16222 0
M  V30 1175 H 110.366 0.223499 5.02503 0
M  V30 1176 H 110.066 1.89545 5.56189 0
M  V30 1177 H 111.59 1.07782 6.01012 0
M  V30 1178 H 113.004 3.03775 4.86203 0
M  V30 1179 H 111.401 3.79875 4.64559 0
M  V30 1180 H 112.471 3.6025 3.24573 0
M  V30 1181 N 113.814 -1.1601 1.06675 0
M  V30 1182 C 115.044 -1.90251 0.805497 0
M  V30 1183 C 115.452 -1.77891 -0.64431 0
M  V30 1184 O 114.795 -1.12383 -1.45313 0
M  V30 1185 C 114.857 -3.41419 1.12576 0
M  V30 1186 C 114.521 -3.77564 2.57477 0
M  V30 1187 C 115.518 -3.79161 3.55715 0
M  V30 1188 C 113.203 -4.08079 2.92877 0
M  V30 1189 C 115.197 -4.10767 4.8739 0
M  V30 1190 C 112.884 -4.39351 4.24751 0
M  V30 1191 C 113.882 -4.40675 5.21818 0
M  V30 1192 O 113.57 -4.71202 6.51325 0
M  V30 1193 H 113.302 -0.610018 0.291297 0
M  V30 1194 H 115.856 -1.47958 1.4247 0
M  V30 1195 H 114.086 -3.84079 0.449503 0
M  V30 1196 H 115.775 -3.9694 0.84814 0
M  V30 1197 H 116.541 -3.55693 3.29708 0
M  V30 1198 H 112.42 -4.06211 2.17976 0
M  V30 1199 H 115.964 -4.11715 5.63148 0
M  V30 1200 H 111.861 -4.62285 4.50514 0
M  V30 1201 H 112.629 -4.88996 6.56373 0
M  V30 1202 N 115.292 -0.849877 -1.32721 0
M  V30 1203 C 116.569 -0.372405 -1.92022 0
M  V30 1204 C 116.949 1.1435 -1.77447 0
M  V30 1205 O 116.297 1.96296 -1.16962 0
M  V30 1206 C 116.507 -0.831482 -3.3895 0
M  V30 1207 C 117.855 -0.845882 -4.16089 0
M  V30 1208 O 118.879 -0.775806 -3.47649 0
M  V30 1209 O 117.738 -0.943753 -5.38289 0
M  V30 1210 H 114.832 -0.107667 -0.819961 0
M  V30 1211 H 117.378 -0.93646 -1.41522 0
M  V30 1212 H 116.15 -1.87448 -3.4348 0
M  V30 1213 H 115.773 -0.24461 -3.96847 0
M  V30 1214 N 116.77 1.45427 -0.607355 0
M  V30 1215 C 118.017 2.02241 -0.102455 0
M  V30 1216 C 118.345 1.4758 1.26691 0
M  V30 1217 O 117.6 0.640468 1.84923 0
M  V30 1218 C 117.899 3.57398 -0.0129263 0
M  V30 1219 C 117.565 4.3121 -1.31792 0
M  V30 1220 C 116.227 4.51092 -1.67539 0
M  V30 1221 C 118.579 4.73401 -2.18039 0
M  V30 1222 C 115.907 5.10422 -2.89285 0
M  V30 1223 C 118.259 5.34078 -3.39034 0
M  V30 1224 C 116.923 5.52184 -3.75033 0
M  V30 1225 H 116.193 0.740051 -0.037491 0
M  V30 1226 H 118.84 1.74494 -0.788926 0
M  V30 1227 H 117.145 3.84421 0.756806 0
M  V30 1228 H 118.842 3.99061 0.393881 0
M  V30 1229 H 115.432 4.16047 -1.02968 0
M  V30 1230 H 119.616 4.57774 -1.91721 0
M  V30 1231 H 114.872 5.22629 -3.17283 0
M  V30 1232 H 119.046 5.65724 -4.06115 0
M  V30 1233 H 116.673 5.97925 -4.69457 0
M  V30 1234 N 118.248 0.346503 1.53744 0
M  V30 1235 C 119.196 -0.52422 2.26616 0
M  V30 1236 C 120.19 -1.09948 1.28871 0
M  V30 1237 O 121.396 -1.04488 1.46568 0
M  V30 1238 H 117.771 -0.187743 0.728187 0
M  V30 1239 H 119.742 0.11239 2.98188 0
M  V30 1240 C 118.491 -1.66186 3.05414 0
M  V30 1241 H 117.814 -1.22848 3.80458 0
M  V30 1242 H 119.254 -2.24622 3.59612 0
M  V30 1243 C 117.713 -2.59302 2.1509 0
M  V30 1244 O 118.243 -3.61628 1.74895 0
M  V30 1245 N 116.449 -2.28055 1.8011 0
M  V30 1246 H 115.996 -1.44883 2.12994 0
M  V30 1247 H 115.954 -2.90615 1.19958 0
M  V30 1248 N 119.726 -1.57421 0.075193 0
M  V30 1249 C 120.951 -1.98364 -0.605515 0
M  V30 1250 C 121.376 -0.953383 -1.62149 0
M  V30 1251 O 120.734 0.0806053 -1.81121 0
M  V30 1252 C 120.782 -3.38332 -1.24756 0
M  V30 1253 O 119.886 -3.37959 -2.36342 0
M  V30 1254 H 119.227 -0.645553 -0.155428 0
M  V30 1255 H 121.757 -2.04044 0.150714 0
M  V30 1256 H 121.767 -3.75591 -1.5936 0
M  V30 1257 H 120.442 -4.12846 -0.503129 0
M  V30 1258 H 119.019 -3.12474 -2.03506 0
M  V30 1259 N 121.204 0.198386 -1.56346 0
M  V30 1260 C 122.434 0.934215 -1.84271 0
M  V30 1261 C 122.842 1.77496 -0.655125 0
M  V30 1262 O 122.185 1.7961 0.385488 0
M  V30 1263 C 122.247 1.88278 -3.06254 0
M  V30 1264 C 121.911 1.22431 -4.40295 0
M  V30 1265 C 122.908 0.602839 -5.16393 0
M  V30 1266 C 120.593 1.22915 -4.87029 0
M  V30 1267 C 122.587 -0.0050083 -6.374 0
M  V30 1268 C 120.274 0.617465 -6.07973 0
M  V30 1269 C 121.272 0.00146341 -6.83 0
M  V30 1270 O 120.96 -0.600642 -8.01653 0
M  V30 1271 H 120.692 0.278245 -0.616081 0
M  V30 1272 H 123.246 0.211626 -2.04307 0
M  V30 1273 H 121.476 2.64498 -2.82095 0
M  V30 1274 H 123.165 2.48612 -3.20853 0
M  V30 1275 H 123.931 0.591265 -4.81382 0
M  V30 1276 H 119.81 1.69801 -4.28589 0
M  V30 1277 H 123.354 -0.48643 -6.95902 0
M  V30 1278 H 119.251 0.62653 -6.42452 0
M  V30 1279 H 120.019 -0.497225 -8.16988 0
M  V30 1280 N 122.682 1.50554 0.465978 0
M  V30 1281 C 123.928 1.63006 1.21658 0
M  V30 1282 C 124.283 0.328613 1.89573 0
M  V30 1283 O 123.576 -0.673813 1.79361 0
M  V30 1284 C 123.77 2.75152 2.28093 0
M  V30 1285 C 123.599 4.16075 1.7062 0
M  V30 1286 C 122.369 4.82408 1.50368 0
M  V30 1287 C 124.567 5.00145 1.1983 0
M  V30 1288 N 122.549 6.07532 0.881924 0
M  V30 1289 C 123.92 6.16035 0.700083 0
M  V30 1290 C 125.975 4.85882 1.08733 0
M  V30 1291 C 124.678 7.19228 0.101835 0
M  V30 1292 C 126.704 5.89257 0.503016 0
M  V30 1293 C 126.066 7.04398 0.0152005 0
M  V30 1294 H 122.165 0.650596 0.433877 0
M  V30 1295 H 124.749 1.8769 0.517746 0
M  V30 1296 H 122.92 2.52181 2.95397 0
M  V30 1297 H 124.652 2.76935 2.95109 0
M  V30 1298 H 121.407 4.39788 1.75737 0
M  V30 1299 H 121.831 6.7443 0.589312 0
M  V30 1300 H 126.473 3.97144 1.4504 0
M  V30 1301 H 124.191 8.07637 -0.273426 0
M  V30 1302 H 127.777 5.80286 0.419451 0
M  V30 1303 H 126.657 7.83021 -0.429856 0
M  V30 1304 N 124.16 -0.719506 1.40217 0
M  V30 1305 C 125.576 -1.02707 1.22161 0
M  V30 1306 C 125.776 -2.0128 0.0940557 0
M  V30 1307 O 124.832 -2.46452 -0.549318 0
M  V30 1308 C 126.145 -1.57454 2.56181 0
M  V30 1309 C 127.693 -1.69458 2.63159 0
M  V30 1310 C 128.168 -2.27611 3.97438 0
M  V30 1311 N 129.659 -2.35002 3.99159 0
M  V30 1312 C 130.394 -2.80972 4.99842 0
M  V30 1313 N 129.89 -3.26723 6.10921 0
M  V30 1314 N 131.683 -2.80321 4.87213 0
M  V30 1315 H 123.834 -0.0660492 2.12297 0
M  V30 1316 H 126.097 -0.0919077 0.943534 0
M  V30 1317 H 125.803 -0.924873 3.39321 0
M  V30 1318 H 125.677 -2.56036 2.76993 0
M  V30 1319 H 128.064 -2.33543 1.80393 0
M  V30 1320 H 128.145 -0.694867 2.46181 0
M  V30 1321 H 127.789 -1.6415 4.80643 0
M  V30 1322 H 127.719 -3.2829 4.11744 0
M  V30 1323 H 130.21 -2.02685 3.18947 0
M  V30 1324 H 130.523 -3.60355 6.8364 0
M  V30 1325 H 128.868 -3.24692 6.14492 0
M  V30 1326 H 132.059 -2.43912 3.9953 0
M  V30 1327 H 132.232 -3.15831 5.65822 0
M  V30 1328 N 125.638 -1.25649 -0.95132 0
M  V30 1329 C 126.884 -1.10757 -1.69884 0
M  V30 1330 C 127.217 0.350061 -1.91019 0
M  V30 1331 O 126.492 1.25783 -1.48354 0
M  V30 1332 C 126.775 -1.86606 -3.07978 0
M  V30 1333 C 126.628 -3.40217 -2.94232 0
M  V30 1334 C 127.947 -1.65182 -4.07925 0
M  V30 1335 H 125.066 -0.40374 -0.616574 0
M  V30 1336 H 127.708 -1.54521 -1.10558 0
M  V30 1337 H 125.858 -1.49409 -3.58621 0
M  V30 1338 H 127.53 -3.87108 -2.50889 0
M  V30 1339 H 125.773 -3.67759 -2.30078 0
M  V30 1340 H 126.444 -3.88505 -3.92133 0
M  V30 1341 H 128.92 -1.9757 -3.66204 0
M  V30 1342 H 127.796 -2.20683 -5.02583 0
M  V30 1343 H 128.057 -0.593933 -4.38092 0
M  V30 1344 N 127.117 1.15442 -1.07289 0
M  V30 1345 C 128.067 2.18164 -0.662467 0
M  V30 1346 C 129.051 1.57845 0.312074 0
M  V30 1347 O 130.243 1.76552 0.125905 0
M  V30 1348 C 127.372 3.43246 -0.0611295 0
M  V30 1349 C 126.458 4.1062 -1.06077 0
M  V30 1350 N 126.849 4.53491 -2.24008 0
M  V30 1351 C 125.147 4.36949 -0.893964 0
M  V30 1352 C 125.848 5.05731 -2.87422 0
M  V30 1353 N 124.824 4.99236 -2.15091 0
M  V30 1354 H 128.626 2.49038 -1.56068 0
M  V30 1355 H 126.14 1.32003 -0.945988 0
M  V30 1356 H 128.137 4.16145 0.250792 0
M  V30 1357 H 126.797 3.13854 0.832207 0
M  V30 1358 H 127.808 4.46898 -2.6173 0
M  V30 1359 H 124.485 4.17466 -0.0534693 0
M  V30 1360 H 125.875 5.48865 -3.87553 0
M  V30 1361 N 128.595 0.856903 1.32268 0
M  V30 1362 C 129.558 0.308171 2.27119 0
M  V30 1363 C 130.558 -0.533421 1.51695 0
M  V30 1364 O 131.748 -0.344607 1.70757 0
M  V30 1365 C 128.88 -0.563757 3.36206 0
M  V30 1366 H 130.073 1.14535 2.77167 0
M  V30 1367 H 127.626 0.631421 1.42978 0
M  V30 1368 H 128.361 -1.42266 2.91429 0
M  V30 1369 H 128.146 0.0386749 3.92081 0
M  V30 1370 H 129.636 -0.940386 4.06874 0
M  V30 1371 N 130.073 -1.45103 0.615059 0
M  V30 1372 C 131.321 -2.01784 0.112955 0
M  V30 1373 C 131.642 -1.48504 -1.26378 0
M  V30 1374 O 130.912 -0.682245 -1.83636 0
M  V30 1375 H 129.492 -0.745993 0.0387668 0
M  V30 1376 H 132.154 -1.77808 0.798141 0
M  V30 1377 H 131.25 -3.12025 0.0684069 0
M  V30 1378 N 131.551 -0.354651 -1.53558 0
M  V30 1379 C 132.499 0.512195 -2.26891 0
M  V30 1380 C 133.493 1.09263 -1.29452 0
M  V30 1381 O 134.699 1.03709 -1.47121 0
M  V30 1382 H 131.074 0.183878 -0.729173 0
M  V30 1383 H 133.045 -0.128202 -2.98124 0
M  V30 1384 C 131.794 1.64563 -3.06291 0
M  V30 1385 H 131.117 1.20829 -3.81104 0
M  V30 1386 H 132.557 2.22711 -3.60799 0
M  V30 1387 C 131.016 2.58158 -2.16462 0
M  V30 1388 O 131.546 3.60695 -1.76811 0
M  V30 1389 N 129.752 2.27096 -1.81317 0
M  V30 1390 H 129.299 1.43751 -2.1376 0
M  V30 1391 H 129.257 2.89975 -1.21498 0
M  V30 1392 N 133.029 1.57378 -0.0835403 0
M  V30 1393 C 134.276 1.9393 0.58287 0
M  V30 1394 C 134.604 0.964455 1.68904 0
M  V30 1395 O 133.859 -0.0179474 1.95692 0
M  V30 1396 C 134.158 3.37063 1.1884 0
M  V30 1397 C 133.824 4.50424 0.207194 0
M  V30 1398 C 132.486 4.81159 -0.0627115 0
M  V30 1399 C 134.838 5.19136 -0.463426 0
M  V30 1400 C 132.166 5.77939 -1.01012 0
M  V30 1401 C 134.518 6.16931 -1.39924 0
M  V30 1402 C 133.182 6.46078 -1.67749 0
M  V30 1403 H 132.452 0.70964 0.213287 0
M  V30 1404 H 135.099 1.90856 -0.156916 0
M  V30 1405 H 133.404 3.3666 2.00418 0
M  V30 1406 H 135.101 3.6264 1.71153 0
M  V30 1407 H 131.691 4.2646 0.427747 0
M  V30 1408 H 135.875 4.95576 -0.268034 0
M  V30 1409 H 131.131 5.98842 -1.23283 0
M  V30 1410 H 135.305 6.69273 -1.92476 0
M  V30 1411 H 132.932 7.2088 -2.41321 0
M  V30 1412 N 134.507 -0.190092 1.56449 0
M  V30 1413 C 135.732 -0.929864 1.85387 0
M  V30 1414 C 136.157 -1.7585 0.667704 0
M  V30 1415 O 135.515 -1.77198 -0.383459 0
M  V30 1416 C 135.563 -1.79773 3.12593 0
M  V30 1417 O 134.667 -2.89713 2.93496 0
M  V30 1418 H 134.008 -0.261574 0.610307 0
M  V30 1419 H 136.538 -0.193896 2.03679 0
M  V30 1420 H 136.548 -2.20139 3.43515 0
M  V30 1421 H 135.223 -1.18892 3.98544 0
M  V30 1422 H 133.8 -2.53065 2.73884 0
M  V30 1423 N 135.985 -1.50799 -0.457987 0
M  V30 1424 C 137.213 -1.66218 -1.23203 0
M  V30 1425 C 137.628 -0.350894 -1.85511 0
M  V30 1426 O 136.985 0.668546 -1.69814 0
M  V30 1427 C 137.036 -2.76291 -2.33121 0
M  V30 1428 O 136.757 -4.02338 -1.73366 0
M  V30 1429 C 138.258 -3.028 -3.2377 0
M  V30 1430 H 135.478 -0.558361 -0.372121 0
M  V30 1431 H 138.022 -1.97099 -0.545179 0
M  V30 1432 H 136.177 -2.48068 -2.97558 0
M  V30 1433 H 136.591 -4.63312 -2.4585 0
M  V30 1434 H 138.065 -3.8345 -3.97077 0
M  V30 1435 H 138.542 -2.14385 -3.83322 0
M  V30 1436 H 139.148 -3.32604 -2.65056 0
M  V30 1437 N 137.463 0.71206 -1.40597 0
M  V30 1438 C 138.712 1.46754 -1.38369 0
M  V30 1439 C 139.025 1.95598 0.0097839 0
M  V30 1440 O 140.231 2.71059 0.154677 0
M  V30 1441 C 138.687 2.65289 -2.43207 0
M  V30 1442 C 138.295 2.23301 -3.88382 0
M  V30 1443 C 140.039 3.43008 -2.50091 0
M  V30 1444 C 137.946 3.38696 -4.84808 0
M  V30 1445 H 136.876 0.55118 -0.514506 0
M  V30 1446 H 139.527 0.774616 -1.66349 0
M  V30 1447 H 137.909 3.36769 -2.08332 0
M  V30 1448 H 139.083 1.59218 -4.32419 0
M  V30 1449 H 137.398 1.58618 -3.85006 0
M  V30 1450 H 139.995 4.28881 -3.1932 0
M  V30 1451 H 140.338 3.87065 -1.53253 0
M  V30 1452 H 140.871 2.78574 -2.83974 0
M  V30 1453 H 137.61 2.99668 -5.82992 0
M  V30 1454 H 137.13 4.01683 -4.45433 0
M  V30 1455 H 138.809 4.04712 -5.04794 0
M  V30 1456 N 138.941 1.26152 0.944643 0
M  V30 1457 C 140.352 1.10454 1.50522 0
M  V30 1458 C 140.703 -0.31635 1.93633 0
M  V30 1459 O 139.828 -1.20746 1.79581 0
M  V30 1460 C 140.423 1.99891 2.73549 0
M  V30 1461 C 138.982 1.88348 3.25886 0
M  V30 1462 C 138.129 1.93447 1.9868 0
M  V30 1463 H 141.08 1.39292 0.760489 0
M  V30 1464 H 141.101 1.54477 3.47732 0
M  V30 1465 H 140.613 3.03297 2.42141 0
M  V30 1466 H 138.714 0.878636 3.62092 0
M  V30 1467 H 138.827 2.73696 3.93227 0
M  V30 1468 H 137.191 1.37456 2.14425 0
M  V30 1469 H 137.974 2.98476 1.69607 0
M  V30 1470 N 140.419 -1.14872 1.07899 0
M  V30 1471 C 141.351 -2.19425 0.662231 0
M  V30 1472 C 142.364 -1.60231 -0.288079 0
M  V30 1473 O 143.553 -1.78336 -0.076534 0
M  V30 1474 C 140.653 -3.38867 -0.0470695 0
M  V30 1475 C 139.826 -4.27597 0.920831 0
M  V30 1476 C 138.885 -5.25616 0.247805 0
M  V30 1477 O 137.911 -5.62189 0.890599 0
M  V30 1478 N 139.113 -5.71746 -1.00435 0
M  V30 1479 H 141.878 -2.55797 1.56166 0
M  V30 1480 H 139.439 -1.30042 0.964404 0
M  V30 1481 H 141.431 -4.01497 -0.50813 0
M  V30 1482 H 140.001 -3.00864 -0.848523 0
M  V30 1483 H 139.221 -3.61982 1.56087 0
M  V30 1484 H 140.509 -4.83748 1.57688 0
M  V30 1485 H 139.907 -5.44153 -1.54642 0
M  V30 1486 H 138.464 -6.36389 -1.40899 0
M  V30 1487 N 141.898 -0.863906 -1.31812 0
M  V30 1488 C 143.128 -0.485406 -2.00817 0
M  V30 1489 C 143.536 0.925007 -1.65046 0
M  V30 1490 O 142.879 1.61653 -0.872574 0
M  V30 1491 C 142.941 -0.555589 -3.55181 0
M  V30 1492 C 142.605 -1.92654 -4.14407 0
M  V30 1493 C 143.602 -2.89324 -4.31958 0
M  V30 1494 C 141.287 -2.2262 -4.50273 0
M  V30 1495 C 143.281 -4.14108 -4.84555 0
M  V30 1496 C 140.968 -3.47654 -5.02573 0
M  V30 1497 C 141.966 -4.43214 -5.19664 0
M  V30 1498 O 141.654 -5.66033 -5.70843 0
M  V30 1499 H 141.386 -0.188224 -0.649267 0
M  V30 1500 H 143.94 -1.16514 -1.69156 0
M  V30 1501 H 142.17 0.181037 -3.86276 0
M  V30 1502 H 143.859 -0.19138 -4.05449 0
M  V30 1503 H 144.625 -2.6748 -4.04573 0
M  V30 1504 H 140.504 -1.4902 -4.3625 0
M  V30 1505 H 144.048 -4.88703 -4.9781 0
M  V30 1506 H 139.945 -3.69345 -5.29391 0
M  V30 1507 H 140.713 -5.6812 -5.89222 0
M  V30 1508 N 143.376 1.44774 -0.622745 0
M  V30 1509 C 144.623 2.02121 -0.1239 0
M  V30 1510 C 144.951 1.48915 1.25118 0
M  V30 1511 O 144.206 0.660045 1.84233 0
M  V30 1512 C 144.505 3.57364 -0.0508323 0
M  V30 1513 C 144.171 4.29787 -1.36358 0
M  V30 1514 C 142.833 4.4929 -1.72314 0
M  V30 1515 C 145.185 4.71062 -2.23048 0
M  V30 1516 C 142.513 5.07325 -2.94682 0
M  V30 1517 C 144.865 5.30452 -3.44679 0
M  V30 1518 C 143.529 5.48175 -3.80868 0
M  V30 1519 H 142.799 0.739612 -0.0453381 0
M  V30 1520 H 145.446 1.73648 -0.807389 0
M  V30 1521 H 143.751 3.85202 0.715991 0
M  V30 1522 H 145.448 3.99456 0.351533 0
M  V30 1523 H 142.038 4.14932 -1.07375 0
M  V30 1524 H 146.222 4.55715 -1.96565 0
M  V30 1525 H 141.478 5.19235 -3.22809 0
M  V30 1526 H 145.652 5.61385 -4.12092 0
M  V30 1527 H 143.279 5.92912 -4.75773 0
M  V30 1528 N 144.854 0.36279 1.53368 0
M  V30 1529 C 145.801 -0.485008 2.25646 0
M  V30 1530 C 146.771 -1.07982 1.2621 0
M  V30 1531 O 147.956 -1.11284 1.54986 0
M  V30 1532 C 145.096 -1.62023 3.04701 0
M  V30 1533 C 144.209 -1.05086 4.19024 0
M  V30 1534 C 143.344 -2.15496 4.85525 0
M  V30 1535 C 142.383 -1.5601 5.91884 0
M  V30 1536 N 141.52 -2.60241 6.52088 0
M  V30 1537 H 146.36 0.137864 2.97681 0
M  V30 1538 H 143.897 0.0798061 1.46883 0
M  V30 1539 H 145.855 -2.28887 3.48807 0
M  V30 1540 H 144.485 -2.2138 2.34927 0
M  V30 1541 H 143.537 -0.27259 3.79422 0
M  V30 1542 H 144.849 -0.575926 4.95464 0
M  V30 1543 H 144.003 -2.90186 5.32801 0
M  V30 1544 H 142.742 -2.66341 4.08551 0
M  V30 1545 H 141.747 -0.798338 5.43973 0
M  V30 1546 H 142.972 -1.05994 6.70777 0
M  V30 1547 H 140.918 -3.10304 5.77968 0
M  V30 1548 H 140.835 -2.17426 7.24059 0
M  V30 1549 H 142.103 -3.34641 7.04014 0
M  V30 1550 N 146.332 -1.57332 0.0918853 0
M  V30 1551 C 147.242 -2.17368 -0.882505 0
M  V30 1552 C 148.258 -1.14226 -1.31257 0
M  V30 1553 O 149.434 -1.46582 -1.38115 0
M  V30 1554 C 146.499 -2.73962 -2.12476 0
M  V30 1555 C 145.56 -3.92048 -1.7492 0
M  V30 1556 C 144.793 -4.45933 -2.93223 0
M  V30 1557 O 145.016 -3.98764 -4.07852 0
M  V30 1558 O 143.95 -5.36999 -2.71875 0
M  V30 1559 H 147.776 -3.01031 -0.40172 0
M  V30 1560 H 145.361 -1.48813 -0.132291 0
M  V30 1561 H 147.243 -3.10147 -2.85283 0
M  V30 1562 H 145.918 -1.93347 -2.59613 0
M  V30 1563 H 144.825 -3.6068 -0.993025 0
M  V30 1564 H 146.158 -4.74017 -1.32548 0
M  V30 1565 N 147.81 0.181792 -1.56548 0
M  V30 1566 C 148.758 1.24461 -1.965 0
M  V30 1567 C 149.752 1.464 -0.852261 0
M  V30 1568 O 150.958 1.47103 -1.03733 0
M  V30 1569 H 147.333 0.418138 -0.625031 0
M  V30 1570 H 149.304 0.880714 -2.85107 0
M  V30 1571 C 148.053 2.57891 -2.33212 0
M  V30 1572 H 147.376 2.41829 -3.18369 0
M  V30 1573 H 148.816 3.3097 -2.65019 0
M  V30 1574 C 147.275 3.15871 -1.17163 0
M  V30 1575 O 147.805 3.9913 -0.453708 0
M  V30 1576 N 146.011 2.74808 -0.944936 0
M  V30 1577 H 145.558 2.07205 -1.53049 0
M  V30 1578 H 145.516 3.13939 -0.170286 0
M  V30 1579 N 149.288 1.51039 0.449983 0
M  V30 1580 C 150.536 1.62759 1.19808 0
M  V30 1581 C 150.857 0.339981 1.92013 0
M  V30 1582 O 150.127 -0.643606 1.85026 0
M  V30 1583 H 148.707 0.599811 0.445237 0
M  V30 1584 H 151.369 1.87914 0.517138 0
M  V30 1585 H 150.465 2.44911 1.93455 0
M  V30 1586 N 150.766 -0.704594 1.40972 0
M  V30 1587 C 151.996 -1.49138 1.42974 0
M  V30 1588 C 152.404 -1.89175 0.0308406 0
M  V30 1589 O 151.747 -1.56734 -0.958138 0
M  V30 1590 C 151.809 -2.79016 2.26694 0
M  V30 1591 C 151.473 -2.61236 3.74973 0
M  V30 1592 C 152.47 -2.27773 4.67349 0
M  V30 1593 C 150.155 -2.77158 4.18914 0
M  V30 1594 C 152.149 -2.10457 6.01653 0
M  V30 1595 C 149.836 -2.59459 5.53285 0
M  V30 1596 C 150.834 -2.26158 6.4447 0
M  V30 1597 O 150.522 -2.08605 7.76363 0
M  V30 1598 H 150.254 -0.466443 0.489292 0
M  V30 1599 H 152.808 -0.8758 1.85793 0
M  V30 1600 H 151.038 -3.42947 1.78673 0
M  V30 1601 H 152.727 -3.40782 2.20504 0
M  V30 1602 H 153.493 -2.15095 4.34694 0
M  V30 1603 H 149.372 -3.02064 3.48251 0
M  V30 1604 H 152.916 -1.84387 6.72791 0
M  V30 1605 H 148.813 -2.71725 5.85522 0
M  V30 1606 H 149.581 -2.23439 7.87412 0
M  V30 1607 N 152.244 -1.26651 -0.937939 0
M  V30 1608 C 153.49 -1.12553 -1.687 0
M  V30 1609 C 153.823 0.329782 -1.91379 0
M  V30 1610 O 153.098 1.24202 -1.4968 0
M  V30 1611 C 153.381 -1.89862 -3.05981 0
M  V30 1612 C 153.234 -3.43318 -2.90607 0
M  V30 1613 C 154.553 -1.69499 -4.0615 0
M  V30 1614 H 151.672 -0.410257 -0.612257 0
M  V30 1615 H 154.314 -1.55685 -1.08913 0
M  V30 1616 H 152.464 -1.53204 -3.57017 0
M  V30 1617 H 154.136 -3.89747 -2.46769 0
M  V30 1618 H 152.379 -3.70179 -2.26164 0
M  V30 1619 H 153.05 -3.92642 -3.8799 0
M  V30 1620 H 155.526 -2.01442 -3.64088 0
M  V30 1621 H 154.402 -2.26002 -5.00214 0
M  V30 1622 H 154.663 -0.640365 -4.37438 0
M  V30 1623 N 153.722 1.14298 -1.08507 0
M  V30 1624 C 154.95 1.89219 -0.836876 0
M  V30 1625 C 155.365 1.78638 0.611054 0
M  V30 1626 O 154.722 1.14643 1.41998 0
M  V30 1627 C 154.773 3.39158 -1.25116 0
M  V30 1628 O 154.494 3.49449 -2.64229 0
M  V30 1629 C 155.995 4.31073 -1.03398 0
M  V30 1630 H 153.215 0.599328 -0.301739 0
M  V30 1631 H 155.759 1.44746 -1.44461 0
M  V30 1632 H 153.914 3.81251 -0.687514 0
M  V30 1633 H 154.328 4.42589 -2.81452 0
M  V30 1634 H 155.802 5.34646 -1.37323 0
M  V30 1635 H 156.279 4.3919 0.0289259 0
M  V30 1636 H 156.885 3.94738 -1.58311 0
M  V30 1637 N 155.201 0.870884 1.31352 0
M  V30 1638 C 156.134 0.271983 2.26573 0
M  V30 1639 C 157.112 -0.599385 1.51149 0
M  V30 1640 O 158.296 -0.552605 1.80218 0
M  V30 1641 C 155.423 -0.614801 3.33073 0
M  V30 1642 C 154.469 0.185342 4.26097 0
M  V30 1643 S 155.302 1.56444 5.12138 0
M  V30 1644 C 156.458 0.683807 6.22153 0
M  V30 1645 H 156.691 1.07916 2.77023 0
M  V30 1646 H 154.224 0.669459 1.39132 0
M  V30 1647 H 156.182 -1.12074 3.94905 0
M  V30 1648 H 154.843 -1.39593 2.81376 0
M  V30 1649 H 154.036 -0.490771 5.01605 0
M  V30 1650 H 153.638 0.623415 3.68768 0
M  V30 1651 H 155.93 -0.10521 6.77418 0
M  V30 1652 H 156.873 1.41004 6.93919 0
M  V30 1653 H 157.281 0.250952 5.63942 0
M  V30 1654 N 156.679 -1.44442 0.630414 0
M  V30 1655 C 157.904 -2.06927 0.139944 0
M  V30 1656 C 158.329 -1.46795 -1.17613 0
M  V30 1657 O 157.687 -0.569144 -1.72135 0
M  V30 1658 C 157.735 -3.6058 0.0379581 0
M  V30 1659 O 156.839 -3.99937 -1.0062 0
M  V30 1660 H 156.18 -0.658608 0.0844483 0
M  V30 1661 H 158.71 -1.85327 0.866891 0
M  V30 1662 H 158.72 -4.07714 -0.152856 0
M  V30 1663 H 157.395 -4.03728 0.998809 0
M  V30 1664 H 155.972 -3.64436 -0.79001 0
M  V30 1665 N 158.157 -0.370918 -1.53173 0
M  V30 1666 C 159.403 0.217423 -2.01631 0
M  V30 1667 C 159.736 1.47983 -1.25756 0
M  V30 1668 O 159.011 1.91274 -0.352764 0
M  V30 1669 C 159.294 0.503982 -3.56556 0
M  V30 1670 C 159.147 -0.77243 -4.43118 0
M  V30 1671 C 160.466 1.30234 -4.20389 0
M  V30 1672 H 157.585 0.0775486 -0.732909 0
M  V30 1673 H 160.227 -0.496863 -1.83388 0
M  V30 1674 H 158.377 1.11248 -3.72231 0
M  V30 1675 H 160.049 -1.4098 -4.39229 0
M  V30 1676 H 158.292 -1.39167 -4.10871 0
M  V30 1677 H 158.963 -0.526815 -5.4948 0
M  V30 1678 H 161.439 0.787546 -4.08579 0
M  V30 1679 H 160.315 1.47158 -5.28806 0
M  V30 1680 H 160.576 2.31237 -3.76805 0
M  V30 1681 N 159.635 1.57281 -0.100228 0
M  V30 1682 C 160.883 1.94153 0.561157 0
M  V30 1683 C 161.204 0.983157 1.68401 0
M  V30 1684 O 160.474 0.0361132 1.95867 0
M  V30 1685 H 159.054 0.716791 0.210283 0
M  V30 1686 H 161.716 1.94202 -0.164765 0
M  V30 1687 H 160.812 2.96709 0.968008 0
M  V30 1688 N 161.113 -0.173488 1.56642 0
M  V30 1689 C 162.06 -1.21482 1.96242 0
M  V30 1690 C 163.03 -1.44104 0.826027 0
M  V30 1691 O 164.215 -1.5688 1.08597 0
M  V30 1692 C 161.355 -2.54964 2.32567 0
M  V30 1693 C 160.468 -2.39739 3.59373 0
M  V30 1694 C 159.603 -3.66072 3.84921 0
M  V30 1695 C 158.642 -3.45771 5.05083 0
M  V30 1696 N 157.779 -4.64169 5.26775 0
M  V30 1697 H 162.619 -0.870123 2.85014 0
M  V30 1698 H 160.156 -0.418245 1.41029 0
M  V30 1699 H 162.114 -3.32758 2.5165 0
M  V30 1700 H 160.744 -2.87433 1.46908 0
M  V30 1701 H 159.796 -1.53131 3.48217 0
M  V30 1702 H 161.108 -2.20683 4.47326 0
M  V30 1703 H 160.262 -4.52303 4.0436 0
M  V30 1704 H 159.001 -3.88105 2.9534 0
M  V30 1705 H 158.006 -2.57927 4.85545 0
M  V30 1706 H 159.231 -3.25163 5.96193 0
M  V30 1707 H 157.177 -4.86425 4.40144 0
M  V30 1708 H 157.094 -4.48019 6.08946 0
M  V30 1709 H 158.362 -5.51689 5.5069 0
M  V30 1710 N 162.591 -1.51276 -0.441967 0
M  V30 1711 C 163.837 -1.63958 -1.19355 0
M  V30 1712 C 164.17 -0.352543 -1.90973 0
M  V30 1713 O 163.445 0.647627 -1.83401 0
M  V30 1714 C 163.728 -2.83979 -2.21422 0
M  V30 1715 C 163.581 -4.22646 -1.53918 0
M  V30 1716 C 164.9 -2.99521 -3.22451 0
M  V30 1717 H 162.019 -0.596709 -0.432559 0
M  V30 1718 H 164.661 -1.83748 -0.483398 0
M  V30 1719 H 162.811 -2.67237 -2.81987 0
M  V30 1720 H 164.483 -4.51045 -0.967256 0
M  V30 1721 H 162.726 -4.25558 -0.841615 0
M  V30 1722 H 163.397 -5.02609 -2.28229 0
M  V30 1723 H 165.873 -3.14944 -2.71937 0
M  V30 1724 H 164.749 -3.85072 -3.91166 0
M  V30 1725 H 165.01 -2.11391 -3.88287 0
M  V30 1726 N 164.069 0.697108 -1.41344 0
M  V30 1727 C 165.316 1.45714 -1.40619 0
M  V30 1728 C 165.644 1.94494 -0.0147907 0
M  V30 1729 O 164.899 1.69794 0.973066 0
M  V30 1730 C 165.198 2.68553 -2.35826 0
M  V30 1731 C 164.864 2.38438 -3.82698 0
M  V30 1732 C 163.526 2.29936 -4.22709 0
M  V30 1733 C 165.878 2.13567 -4.75435 0
M  V30 1734 C 163.206 1.94656 -5.53467 0
M  V30 1735 C 165.558 1.79797 -6.06511 0
M  V30 1736 C 164.222 1.69789 -6.45545 0
M  V30 1737 H 163.492 0.533206 -0.51456 0
M  V30 1738 H 166.139 0.796901 -1.74131 0
M  V30 1739 H 164.444 3.39503 -1.95563 0
M  V30 1740 H 166.141 3.2669 -2.32539 0
M  V30 1741 H 162.731 2.4595 -3.51008 0
M  V30 1742 H 166.915 2.19082 -4.45328 0
M  V30 1743 H 162.171 1.8546 -5.82593 0
M  V30 1744 H 166.345 1.59572 -6.77872 0
M  V30 1745 H 163.972 1.4222 -7.46778 0
M  V30 1746 N 165.547 1.27147 0.931209 0
M  V30 1747 C 166.497 1.06227 2.01742 0
M  V30 1748 C 167.481 -0.00859065 1.60898 0
M  V30 1749 O 168.673 0.209537 1.75755 0
M  V30 1750 C 165.802 0.707787 3.35924 0
M  V30 1751 C 164.888 1.81661 3.83223 0
M  V30 1752 N 165.279 3.05564 4.03069 0
M  V30 1753 C 163.577 1.70249 4.12227 0
M  V30 1754 C 164.278 3.77697 4.42403 0
M  V30 1755 N 163.254 3.0544 4.49675 0
M  V30 1756 H 167.056 2.00261 2.15111 0
M  V30 1757 H 164.57 1.1781 1.11779 0
M  V30 1758 H 166.567 0.539043 4.134 0
M  V30 1759 H 165.227 -0.224964 3.2392 0
M  V30 1760 H 166.238 3.41363 3.89476 0
M  V30 1761 H 162.915 0.840329 4.08956 0
M  V30 1762 H 164.305 4.84168 4.65866 0
M  V30 1763 N 167.025 -1.13721 1.09112 0
M  V30 1764 C 168.436 -1.6648 0.845068 0
M  V30 1765 C 168.787 -1.85911 -0.62701 0
M  V30 1766 O 167.912 -1.57556 -1.48341 0
M  V30 1767 C 168.507 -3.02413 1.52748 0
M  V30 1768 C 167.066 -3.52176 1.32849 0
M  V30 1769 C 166.213 -2.27492 1.58564 0
M  V30 1770 H 169.164 -0.976872 1.25072 0
M  V30 1771 H 169.185 -3.68223 0.958752 0
M  V30 1772 H 168.697 -2.88238 2.59885 0
M  V30 1773 H 166.798 -3.7156 0.278137 0
M  V30 1774 H 166.911 -4.32499 2.0611 0
M  V30 1775 H 165.275 -2.33923 1.00758 0
M  V30 1776 H 166.058 -2.15886 2.66924 0
M  V30 1777 N 168.503 -0.877838 -1.30888 0
M  V30 1778 C 169.751 -0.491723 -1.96027 0
M  V30 1779 C 170.072 0.960827 -1.69685 0
M  V30 1780 O 169.342 1.67462 -1.01654 0
M  V30 1781 H 167.922 -0.17885 -0.725273 0
M  V30 1782 H 170.584 -1.11935 -1.59551 0
M  V30 1783 H 169.68 -0.656016 -3.05128 0
M  V30 1784 N 169.982 1.44106 -0.638065 0
M  V30 1785 C 171.231 2.01194 -0.142744 0
M  V30 1786 C 171.544 1.50835 1.24532 0
M  V30 1787 O 172.75 2.00096 1.83504 0
M  V30 1788 C 171.206 3.59319 -0.20442 0
M  V30 1789 C 170.814 4.18674 -1.59423 0
M  V30 1790 C 172.558 4.23854 0.234079 0
M  V30 1791 C 170.465 5.69045 -1.61065 0
M  V30 1792 H 169.395 0.752367 -0.0495998 0
M  V30 1793 H 172.046 1.65246 -0.797881 0
M  V30 1794 H 170.428 3.92598 0.517946 0
M  V30 1795 H 171.602 3.96921 -2.34074 0
M  V30 1796 H 169.917 3.66453 -1.97741 0
M  V30 1797 H 172.514 5.34155 0.241443 0
M  V30 1798 H 172.857 3.96688 1.2627 0
M  V30 1799 H 173.39 3.95403 -0.436025 0
M  V30 1800 H 170.129 6.00956 -2.61787 0
M  V30 1801 H 169.649 5.929 -0.90718 0
M  V30 1802 H 171.328 6.32809 -1.34766 0
M  V30 1803 N 171.46 0.379036 1.52974 0
M  V30 1804 C 172.685 -0.209353 2.06341 0
M  V30 1805 C 173.11 -1.40583 1.24972 0
M  V30 1806 O 172.468 -1.79246 0.272155 0
M  V30 1807 C 172.516 -0.567786 3.56102 0
M  V30 1808 O 171.62 -1.66318 3.77375 0
M  V30 1809 H 170.961 -0.0272919 0.663439 0
M  V30 1810 H 173.491 0.543536 1.97248 0
M  V30 1811 H 173.501 -0.835003 3.99364 0
M  V30 1812 H 172.176 0.307013 4.14765 0
M  V30 1813 H 170.753 -1.39048 3.46006 0
M  V30 1814 N 172.938 -1.57226 0.108567 0
M  V30 1815 C 174.163 -1.99604 -0.563303 0
M  V30 1816 C 174.588 -0.987563 -1.6009 0
M  V30 1817 O 173.946 0.0421687 -1.81251 0
M  V30 1818 C 173.994 -3.40902 -1.17552 0
M  V30 1819 O 173.098 -3.42896 -2.2912 0
M  V30 1820 H 172.439 -0.648704 -0.1417 0
M  V30 1821 H 174.969 -2.03679 0.193961 0
M  V30 1822 H 174.979 -3.78886 -1.51357 0
M  V30 1823 H 173.654 -4.1382 -0.415445 0
M  V30 1824 H 172.231 -3.1672 -1.96832 0
M  V30 1825 N 174.416 0.165178 -1.56732 0
M  V30 1826 C 175.364 1.22369 -1.97809 0
M  V30 1827 C 176.358 1.45488 -0.867741 0
M  V30 1828 O 177.564 1.45995 -1.05288 0
M  V30 1829 H 173.939 0.411486 -0.629431 0
M  V30 1830 H 175.91 0.850425 -2.86025 0
M  V30 1831 C 174.659 2.55403 -2.35934 0
M  V30 1832 H 173.982 2.38438 -3.20916 0
M  V30 1833 H 175.422 3.2814 -2.68514 0
M  V30 1834 C 173.881 3.14611 -1.20506 0
M  V30 1835 O 174.411 3.98626 -0.496016 0
M  V30 1836 N 172.617 2.7379 -0.97403 0
M  V30 1837 H 172.164 2.0557 -1.55238 0
M  V30 1838 H 172.122 3.1374 -0.203573 0
M  V30 1839 N 175.894 1.51508 0.433938 0
M  V30 1840 C 176.844 1.69451 1.52546 0
M  V30 1841 C 177.828 0.548474 1.51263 0
M  V30 1842 O 179.02 0.804529 1.57659 0
M  V30 1843 C 176.149 1.82604 2.90707 0
M  V30 1844 C 175.235 3.03002 2.96733 0
M  V30 1845 N 175.626 4.26121 2.72496 0
M  V30 1846 C 173.924 3.02327 3.27894 0
M  V30 1847 C 174.625 5.07407 2.84452 0
M  V30 1848 N 173.601 4.42126 3.16269 0
M  V30 1849 H 177.403 2.62305 1.32564 0
M  V30 1850 H 174.917 1.49202 0.641297 0
M  V30 1851 H 176.914 1.93569 3.69238 0
M  V30 1852 H 175.574 0.909339 3.11707 0
M  V30 1853 H 176.585 4.55009 2.4736 0
M  V30 1854 H 173.262 2.20301 3.54646 0
M  V30 1855 H 174.652 6.15422 2.69639 0
M  V30 1856 N 177.372 -0.689602 1.41712 0
M  V30 1857 C 178.6 -1.47827 1.44758 0
M  V30 1858 C 179.015 -1.88721 0.0545703 0
M  V30 1859 O 178.372 -1.57176 -0.927463 0
M  V30 1860 C 178.423 -2.73698 2.3616 0
M  V30 1861 O 178.144 -2.34524 3.7004 0
M  V30 1862 C 179.645 -3.67389 2.48072 0
M  V30 1863 H 176.865 -0.455357 0.49284 0
M  V30 1864 H 179.409 -0.848574 1.86063 0
M  V30 1865 H 177.564 -3.32891 1.98148 0
M  V30 1866 H 177.978 -3.15701 4.18847 0
M  V30 1867 H 179.452 -4.52475 3.16181 0
M  V30 1868 H 179.929 -4.12284 1.51388 0
M  V30 1869 H 180.535 -3.14097 2.86746 0
M  V30 1870 N 178.85 -1.27639 -0.924453 0
M  V30 1871 C 180.127 -1.04887 -1.651 0
M  V30 1872 C 180.507 0.415327 -2.06974 0
M  V30 1873 O 179.855 1.39923 -1.80648 0
M  V30 1874 C 180.065 -2.01348 -2.85061 0
M  V30 1875 C 181.413 -2.30899 -3.56329 0
M  V30 1876 O 182.437 -1.99348 -2.95193 0
M  V30 1877 O 181.296 -2.84699 -4.66485 0
M  V30 1878 H 178.39 -0.400083 -0.723784 0
M  V30 1879 H 180.936 -1.38916 -0.974703 0
M  V30 1880 H 179.708 -3.0008 -2.51133 0
M  V30 1881 H 179.331 -1.679 -3.6041 0
M  V30 1882 N 180.328 1.1314 -1.09713 0
M  V30 1883 C 181.605 1.80762 -0.747302 0
M  V30 1884 C 181.985 1.96663 0.767265 0
M  V30 1885 O 181.333 1.53706 1.69076 0
M  V30 1886 C 181.543 3.15606 -1.48975 0
M  V30 1887 C 182.891 3.90914 -1.65746 0
M  V30 1888 O 183.915 3.25239 -1.45251 0
M  V30 1889 O 182.774 5.08718 -1.9967 0
M  V30 1890 H 179.868 0.782103 -0.268782 0
M  V30 1891 H 182.414 1.20041 -1.19951 0
M  V30 1892 H 181.186 2.99278 -2.52088 0
M  V30 1893 H 180.809 3.84029 -1.02991 0
M  V30 1894 N 181.806 0.884767 1.30421 0
M  V30 1895 C 183.031 0.517288 2.00845 0
M  V30 1896 C 183.456 -0.886779 1.65885 0
M  V30 1897 O 182.814 -1.58768 0.875354 0
M  V30 1898 C 182.862 0.698994 3.5376 0
M  V30 1899 O 181.966 -0.255208 4.1161 0
M  V30 1900 H 181.307 0.203872 0.631927 0
M  V30 1901 H 183.837 1.19225 1.66272 0
M  V30 1902 H 183.847 0.597912 4.03595 0
M  V30 1903 H 182.522 1.72271 3.78544 0
M  V30 1904 H 181.099 -0.10784 3.72744 0
M  V30 1905 N 183.284 -1.43765 0.645699 0
M  V30 1906 C 184.695 -1.85193 0.236719 0
M  V30 1907 C 185.046 -1.54045 -1.21509 0
M  V30 1908 O 184.171 -0.985694 -1.92647 0
M  V30 1909 C 184.766 -3.36151 0.422845 0
M  V30 1910 C 183.325 -3.76338 0.0682492 0
M  V30 1911 C 182.472 -2.67538 0.729306 0
M  V30 1912 H 185.423 -1.34025 0.849883 0
M  V30 1913 H 185.444 -3.79032 -0.333904 0
M  V30 1914 H 184.956 -3.5879 1.47958 0
M  V30 1915 H 183.057 -3.59312 -0.986179 0
M  V30 1916 H 183.17 -4.76603 0.488469 0
M  V30 1917 H 181.534 -2.54176 0.163235 0
M  V30 1918 H 182.317 -2.93006 1.78892 0
M  V30 1919 N 184.763 -0.387143 -1.52771 0
M  V30 1920 C 185.993 0.195585 -2.05672 0
M  V30 1921 C 186.401 1.41241 -1.25887 0
M  V30 1922 O 185.744 1.81265 -0.298081 0
M  V30 1923 C 185.806 0.632327 -3.53895 0
M  V30 1924 C 185.47 -0.470739 -4.54569 0
M  V30 1925 C 186.467 -1.32746 -5.02667 0
M  V30 1926 C 184.152 -0.637151 -4.98243 0
M  V30 1927 C 186.146 -2.33574 -5.93061 0
M  V30 1928 C 183.833 -1.64877 -5.88438 0
M  V30 1929 C 184.831 -2.49649 -6.35739 0
M  V30 1930 O 184.519 -3.49082 -7.24153 0
M  V30 1931 H 184.251 0.033658 -0.675162 0
M  V30 1932 H 186.805 -0.550221 -1.97893 0
M  V30 1933 H 185.035 1.43008 -3.59285 0
M  V30 1934 H 186.724 1.14048 -3.89548 0
M  V30 1935 H 187.49 -1.21019 -4.69659 0
M  V30 1936 H 183.369 0.0129567 -4.60998 0
M  V30 1937 H 186.913 -2.99777 -6.29904 0
M  V30 1938 H 182.81 -1.76643 -6.2086 0
M  V30 1939 H 183.578 -3.45065 -7.42208 0
M  V30 1940 N 186.241 1.57166 -0.116904 0
M  V30 1941 C 187.466 1.999 0.55271 0
M  V30 1942 C 187.891 0.996039 1.59564 0
M  V30 1943 O 187.249 -0.032556 1.81271 0
M  V30 1944 C 187.297 3.4152 1.15742 0
M  V30 1945 O 186.401 3.44106 2.27299 0
M  V30 1946 H 185.742 0.649447 0.138258 0
M  V30 1947 H 188.272 2.03573 -0.204759 0
M  V30 1948 H 188.282 3.79684 1.49346 0
M  V30 1949 H 186.957 4.14034 0.393493 0
M  V30 1950 H 185.534 3.17759 1.9515 0
M  V30 1951 N 187.719 -0.156864 1.56817 0
M  V30 1952 C 188.965 -0.867645 1.83966 0
M  V30 1953 C 189.32 -1.79233 0.699511 0
M  V30 1954 O 188.613 -1.89186 -0.303176 0
M  V30 1955 C 188.807 -1.68737 3.1506 0
M  V30 1956 C 188.636 -0.843548 4.41718 0
M  V30 1957 C 187.406 -0.512994 5.02689 0
M  V30 1958 C 189.604 -0.178416 5.1399 0
M  V30 1959 N 187.586 0.345456 6.12927 0
M  V30 1960 C 188.957 0.540586 6.17639 0
M  V30 1961 C 191.012 -0.0980696 4.97803 0
M  V30 1962 C 189.715 1.33233 7.06853 0
M  V30 1963 C 191.741 0.680387 5.87473 0
M  V30 1964 C 191.103 1.3877 6.90596 0
M  V30 1965 H 187.202 -0.295642 0.723961 0
M  V30 1966 H 189.786 -0.13365 1.94241 0
M  V30 1967 H 187.957 -2.39268 3.0595 0
M  V30 1968 H 189.689 -2.34056 3.30151 0
M  V30 1969 H 186.444 -0.846476 4.65974 0
M  V30 1970 H 186.868 0.765415 6.72659 0
M  V30 1971 H 191.51 -0.630562 4.18071 0
M  V30 1972 H 189.228 1.87612 7.8602 0
M  V30 1973 H 192.814 0.744415 5.77018 0
M  V30 1974 H 191.694 1.9804 7.58782 0
M  V30 1975 N 189.197 -1.51736 -0.425897 0
M  V30 1976 C 190.422 -1.69082 -1.20108 0
M  V30 1977 C 190.847 -0.392398 -1.83962 0
M  V30 1978 O 190.205 0.64858 -1.69302 0
M  V30 1979 C 190.253 -2.81604 -2.25237 0
M  V30 1980 O 189.357 -2.46004 -3.30992 0
M  V30 1981 H 188.698 -0.563408 -0.35138 0
M  V30 1982 H 191.228 -1.98358 -0.501512 0
M  V30 1983 H 191.238 -3.06025 -2.69838 0
M  V30 1984 H 189.913 -3.75817 -1.78142 0
M  V30 1985 H 188.49 -2.32195 -2.91787 0
M  V30 1986 N 190.675 0.682077 -1.42076 0
M  V30 1987 C 191.922 1.44215 -1.42156 0
M  V30 1988 C 192.25 1.94468 -0.0354186 0
M  V30 1989 O 191.505 1.70816 0.955002 0
M  V30 1990 C 191.804 2.66036 -2.38662 0
M  V30 1991 C 191.47 2.34366 -3.85206 0
M  V30 1992 C 190.132 2.25439 -4.25124 0
M  V30 1993 C 192.484 2.08513 -4.77673 0
M  V30 1994 C 189.812 1.88775 -5.55501 0
M  V30 1995 C 192.164 1.73354 -6.08384 0
M  V30 1996 C 190.828 1.62933 -6.47309 0
M  V30 1997 H 190.098 0.527718 -0.520187 0
M  V30 1998 H 192.745 0.778387 -1.74967 0
M  V30 1999 H 191.05 3.3741 -1.99152 0
M  V30 2000 H 192.747 3.24205 -2.35991 0
M  V30 2001 H 189.337 2.42213 -3.53597 0
M  V30 2002 H 193.521 2.14346 -4.47626 0
M  V30 2003 H 188.777 1.7927 -5.84527 0
M  V30 2004 H 192.951 1.52373 -6.79526 0
M  V30 2005 H 190.578 1.34292 -7.48244 0
M  V30 2006 N 192.153 1.28127 0.917671 0
M  V30 2007 C 193.564 1.13622 1.48145 0
M  V30 2008 C 193.915 -0.275207 1.9426 0
M  V30 2009 O 193.04 -1.1691 1.82102 0
M  V30 2010 C 193.635 2.05648 2.69248 0
M  V30 2011 C 192.194 1.95219 3.21818 0
M  V30 2012 C 191.341 1.97618 1.94532 0
M  V30 2013 H 194.292 1.40874 0.730772 0
M  V30 2014 H 194.313 1.61818 3.44377 0
M  V30 2015 H 193.825 3.08365 2.35653 0
M  V30 2016 H 191.926 0.955244 3.60147 0
M  V30 2017 H 192.039 2.81976 3.87333 0
M  V30 2018 H 190.403 1.41973 2.11461 0
M  V30 2019 H 191.186 3.02007 1.63238 0
M  V30 2020 N 193.631 -1.12557 1.10312 0
M  V30 2021 C 195.042 -1.65574 0.862678 0
M  V30 2022 C 195.393 -1.86566 -0.607256 0
M  V30 2023 O 194.518 -1.59121 -1.46662 0
M  V30 2024 C 195.113 -3.00776 1.55947 0
M  V30 2025 C 193.672 -3.50748 1.36576 0
M  V30 2026 C 192.819 -2.25797 1.60968 0
M  V30 2027 H 195.77 -0.963552 1.26101 0
M  V30 2028 H 195.791 -3.67185 0.997753 0
M  V30 2029 H 195.303 -2.85465 2.62928 0
M  V30 2030 H 193.404 -3.71245 0.317531 0
M  V30 2031 H 193.517 -4.30289 2.10686 0
M  V30 2032 H 191.881 -2.32841 1.03234 0
M  V30 2033 H 192.664 -2.13043 2.69198 0
M  V30 2034 N 195.109 -0.891671 -1.2995 0
M  V30 2035 C 196.339 -0.527893 -1.99742 0
M  V30 2036 C 196.747 0.88979 -1.66971 0
M  V30 2037 O 196.09 1.59766 -0.906667 0
M  V30 2038 C 196.152 -0.630804 -3.53922 0
M  V30 2039 C 195.816 -2.01401 -4.10228 0
M  V30 2040 C 196.813 -2.98422 -4.25724 0
M  V30 2041 C 194.498 -2.32121 -4.45449 0
M  V30 2042 C 196.492 -4.24293 -4.75662 0
M  V30 2043 C 194.179 -3.58237 -4.95086 0
M  V30 2044 C 195.177 -4.54137 -5.10146 0
M  V30 2045 O 194.865 -5.78014 -5.58708 0
M  V30 2046 H 194.597 -0.201953 -0.645129 0
M  V30 2047 H 197.151 -1.20076 -1.66646 0
M  V30 2048 H 195.381 0.0990616 -3.86573 0
M  V30 2049 H 197.07 -0.277338 -4.04951 0
M  V30 2050 H 197.836 -2.76001 -3.98809 0
M  V30 2051 H 193.715 -1.5824 -4.32991 0
M  V30 2052 H 197.259 -4.99153 -4.87332 0
M  V30 2053 H 193.156 -3.80491 -5.21437 0
M  V30 2054 H 193.924 -5.8049 -5.77039 0
M  V30 2055 N 196.587 1.43421 -0.653314 0
M  V30 2056 C 197.537 2.2792 0.060558 0
M  V30 2057 C 198.521 1.39906 0.794677 0
M  V30 2058 O 199.713 1.63536 0.677128 0
M  V30 2059 C 196.842 3.27603 1.0262 0
M  V30 2060 C 195.928 4.23104 0.290551 0
M  V30 2061 N 196.319 5.01031 -0.692967 0
M  V30 2062 C 194.617 4.42816 0.531984 0
M  V30 2063 C 195.318 5.70626 -1.12963 0
M  V30 2064 N 194.294 5.41617 -0.463867 0
M  V30 2065 H 198.096 2.85585 -0.694143 0
M  V30 2066 H 195.61 1.55126 -0.480602 0
M  V30 2067 H 197.607 3.86918 1.55242 0
M  V30 2068 H 196.267 2.71499 1.78096 0
M  V30 2069 H 197.278 5.0669 -1.07169 0
M  V30 2070 H 193.955 3.97782 1.26791 0
M  V30 2071 H 195.345 6.4318 -1.94343 0
M  V30 2072 N 198.065 0.39524 1.52563 0
M  V30 2073 C 199.476 -0.0774719 1.86539 0
M  V30 2074 C 199.827 -1.45641 1.31466 0
M  V30 2075 O 198.952 -2.06459 0.648367 0
M  V30 2076 C 199.547 -0.147356 3.38479 0
M  V30 2077 C 198.106 -0.564373 3.72145 0
M  V30 2078 C 197.253 0.269919 2.75983 0
M  V30 2079 H 200.204 0.612876 1.46388 0
M  V30 2080 H 200.225 -0.965343 3.68051 0
M  V30 2081 H 199.737 0.856387 3.78534 0
M  V30 2082 H 197.838 -1.57527 3.37663 0
M  V30 2083 H 197.951 -0.318402 4.78041 0
M  V30 2084 H 196.315 -0.265696 2.5331 0
M  V30 2085 H 197.098 1.27175 3.18875 0
M  V30 2086 N 199.544 -1.57102 0.125237 0
M  V30 2087 C 200.769 -2.0019 -0.542101 0
M  V30 2088 C 201.194 -1.00449 -1.59034 0
M  V30 2089 O 200.552 0.0229423 -1.81285 0
M  V30 2090 C 200.6 -3.42129 -1.13929 0
M  V30 2091 O 199.704 -3.45307 -2.2547 0
M  V30 2092 H 199.045 -0.650171 -0.134812 0
M  V30 2093 H 201.575 -2.03461 0.215553 0
M  V30 2094 H 201.585 -3.80471 -1.4733 0
M  V30 2095 H 200.26 -4.14237 -0.371531 0
M  V30 2096 H 198.837 -3.1879 -1.93462 0
M  V30 2097 N 201.022 0.148545 -1.56898 0
M  V30 2098 C 202.247 0.880385 -1.87787 0
M  V30 2099 C 202.672 1.74018 -0.714093 0
M  V30 2100 O 202.03 1.78153 0.336343 0
M  V30 2101 C 202.078 1.71422 -3.17249 0
M  V30 2102 O 201.182 2.8183 -3.01074 0
M  V30 2103 H 200.523 0.245301 -0.617028 0
M  V30 2104 H 203.053 0.139826 -2.04122 0
M  V30 2105 H 203.063 2.10954 -3.49231 0
M  V30 2106 H 201.738 1.08284 -4.01556 0
M  V30 2107 H 200.315 2.45715 -2.80497 0
M  V30 2108 N 202.5 1.5196 0.417844 0
M  V30 2109 C 203.41 1.77554 1.53336 0
M  V30 2110 C 204.426 0.660655 1.6097 0
M  V30 2111 O 205.602 0.945099 1.77848 0
M  V30 2112 C 202.667 1.91291 2.89152 0
M  V30 2113 C 201.728 3.15183 2.91475 0
M  V30 2114 C 200.961 3.28256 4.20813 0
M  V30 2115 O 201.184 2.46798 5.14244 0
M  V30 2116 O 200.118 4.21356 4.29817 0
M  V30 2117 H 203.944 2.7222 1.34647 0
M  V30 2118 H 201.529 1.36698 0.602828 0
M  V30 2119 H 203.411 2.02199 3.69721 0
M  V30 2120 H 202.086 0.998129 3.07927 0
M  V30 2121 H 200.993 3.09739 2.09791 0
M  V30 2122 H 202.326 4.06414 2.77648 0
M  V30 2123 N 203.978 -0.674533 1.42435 0
M  V30 2124 C 204.925 -1.78807 1.45934 0
M  V30 2125 C 205.895 -1.63157 0.311271 0
M  V30 2126 O 207.08 -1.83707 0.515383 0
M  V30 2127 C 204.22 -3.16839 1.36773 0
M  V30 2128 C 203.333 -3.43774 2.61617 0
M  V30 2129 C 202.468 -4.71536 2.44597 0
M  V30 2130 C 201.507 -4.91505 3.64814 0
M  V30 2131 N 200.644 -6.10508 3.46734 0
M  V30 2132 H 205.484 -1.75151 2.41093 0
M  V30 2133 H 203.021 -0.85504 1.19697 0
M  V30 2134 H 204.979 -3.96606 1.29459 0
M  V30 2135 H 203.609 -3.19619 0.452089 0
M  V30 2136 H 202.661 -2.58259 2.79297 0
M  V30 2137 H 203.973 -3.54423 3.50978 0
M  V30 2138 H 203.127 -5.59393 2.3487 0
M  V30 2139 H 201.866 -4.6317 1.52726 0
M  V30 2140 H 200.871 -4.0209 3.74972 0
M  V30 2141 H 202.096 -5.01716 4.57665 0
M  V30 2142 H 200.042 -6.03315 2.5758 0
M  V30 2143 H 199.959 -6.2202 4.29682 0
M  V30 2144 H 201.227 -7.01044 3.40819 0
M  V30 2145 N 205.456 -1.28612 -0.910864 0
M  V30 2146 C 206.686 -1.1862 -1.69153 0
M  V30 2147 C 207.094 0.257324 -1.87442 0
M  V30 2148 O 206.437 1.18543 -1.40332 0
M  V30 2149 C 206.499 -1.81606 -3.10257 0
M  V30 2150 C 206.163 -3.30864 -3.15243 0
M  V30 2151 C 207.16 -4.27256 -2.96223 0
M  V30 2152 C 204.845 -3.71871 -3.37664 0
M  V30 2153 C 206.839 -5.62631 -2.99541 0
M  V30 2154 C 204.526 -5.07371 -3.40614 0
M  V30 2155 C 205.524 -6.02561 -3.21573 0
M  V30 2156 O 205.212 -7.35589 -3.2429 0
M  V30 2157 H 204.944 -0.412633 -0.535453 0
M  V30 2158 H 207.498 -1.70306 -1.14827 0
M  V30 2159 H 205.728 -1.24418 -3.66138 0
M  V30 2160 H 207.417 -1.66092 -3.70362 0
M  V30 2161 H 208.183 -3.9691 -2.78725 0
M  V30 2162 H 204.062 -2.98241 -3.5153 0
M  V30 2163 H 207.606 -6.36907 -2.84597 0
M  V30 2164 H 203.503 -5.37366 -3.57642 0
M  V30 2165 H 204.271 -7.44252 -3.40633 0
M  V30 2166 N 206.934 1.1197 -1.10907 0
M  V30 2167 C 207.844 2.21433 -0.774896 0
M  V30 2168 C 208.86 1.72478 0.229657 0
M  V30 2169 O 210.036 2.01288 0.0672008 0
M  V30 2170 C 207.101 3.4602 -0.216986 0
M  V30 2171 C 206.162 4.09791 -1.27944 0
M  V30 2172 C 205.395 5.28431 -0.748055 0
M  V30 2173 O 205.618 5.68823 0.423833 0
M  V30 2174 O 204.552 5.82644 -1.51027 0
M  V30 2175 H 208.378 2.5242 -1.68873 0
M  V30 2176 H 205.963 1.20399 -0.884555 0
M  V30 2177 H 207.845 4.21304 0.090059 0
M  V30 2178 H 206.52 3.16698 0.669633 0
M  V30 2179 H 205.427 3.36265 -1.63941 0
M  V30 2180 H 206.76 4.4328 -2.13925 0
M  V30 2181 N 208.412 0.89855 1.29475 0
M  V30 2182 C 209.36 0.365253 2.29714 0
M  V30 2183 C 210.354 -0.534993 1.6073 0
M  V30 2184 O 211.56 -0.417921 1.75081 0
M  V30 2185 H 207.935 0.0994853 0.74539 0
M  V30 2186 H 209.906 1.22406 2.72138 0
M  V30 2187 C 208.655 -0.393159 3.4547 0
M  V30 2188 H 207.978 0.290332 3.98744 0
M  V30 2189 H 209.418 -0.731189 4.17648 0
M  V30 2190 C 207.877 -1.59539 2.9673 0
M  V30 2191 O 208.407 -2.69469 2.97908 0
M  V30 2192 N 206.613 -1.43716 2.52575 0
M  V30 2193 H 206.16 -0.542828 2.51816 0
M  V30 2194 H 206.118 -2.24288 2.20323 0
M  V30 2195 N 209.89 -1.43072 0.660911 0
M  V30 2196 C 211.118 -2.06067 0.185422 0
M  V30 2197 C 211.533 -1.49582 -1.15198 0
M  V30 2198 O 210.89 -0.630134 -1.71276 0
M  V30 2199 C 210.941 -3.61371 0.0966523 0
M  V30 2200 O 210.662 -4.15758 1.38119 0
M  V30 2201 C 212.163 -4.41455 -0.403996 0
M  V30 2202 H 209.383 -0.664459 0.0934604 0
M  V30 2203 H 211.927 -1.83447 0.90373 0
M  V30 2204 H 210.082 -3.8315 -0.572259 0
M  V30 2205 H 210.496 -5.09499 1.24542 0
M  V30 2206 H 211.97 -5.50437 -0.415045 0
M  V30 2207 H 212.447 -4.15036 -1.43674 0
M  V30 2208 H 213.053 -4.24663 0.232691 0
M  V30 2209 N 211.368 -0.403325 -1.52352 0
M  V30 2210 C 212.315 0.425011 -2.26853 0
M  V30 2211 C 213.285 1.04598 -1.29029 0
M  V30 2212 O 214.47 1.07135 -1.57882 0
M  V30 2213 C 211.61 1.53888 -3.08889 0
M  V30 2214 C 210.723 0.939396 -4.21663 0
M  V30 2215 C 209.858 2.02547 -4.91068 0
M  V30 2216 C 208.897 1.40263 -5.95813 0
M  V30 2217 N 208.034 2.4286 -6.58759 0
M  V30 2218 H 212.874 -0.21674 -2.97211 0
M  V30 2219 H 210.411 -0.118722 -1.4662 0
M  V30 2220 H 212.369 2.19558 -3.54753 0
M  V30 2221 H 210.999 2.15074 -2.40714 0
M  V30 2222 H 210.051 0.171898 -3.80011 0
M  V30 2223 H 211.363 0.44436 -4.96817 0
M  V30 2224 H 210.517 2.75958 -5.40308 0
M  V30 2225 H 209.256 2.55415 -4.15469 0
M  V30 2226 H 208.261 0.653833 -5.45898 0
M  V30 2227 H 209.486 0.881719 -6.73352 0
M  V30 2228 H 207.432 2.94871 -5.85992 0
M  V30 2229 H 207.349 1.98152 -7.2957 0
M  V30 2230 H 208.617 3.15858 -7.12639 0
M  V30 2231 N 212.846 1.57033 -0.133567 0
M  V30 2232 C 214.074 2.00044 0.528195 0
M  V30 2233 C 214.489 1.01349 1.59291 0
M  V30 2234 O 213.846 0.00848369 1.82498 0
M  V30 2235 C 213.897 3.43018 1.1411 0
M  V30 2236 O 213.618 4.37939 0.11892 0
M  V30 2237 C 215.119 4.01237 1.88477 0
M  V30 2238 H 212.339 0.656517 0.138661 0
M  V30 2239 H 214.883 2.03267 -0.224196 0
M  V30 2240 H 213.038 3.40688 1.84418 0
M  V30 2241 H 213.452 5.21436 0.56613 0
M  V30 2242 H 214.926 5.03314 2.26669 0
M  V30 2243 H 215.403 3.41193 2.76558 0
M  V30 2244 H 216.009 4.07156 1.22898 0
M  V30 2245 N 214.325 -0.140222 1.56975 0
M  V30 2246 C 215.565 -0.857823 1.85528 0
M  V30 2247 C 215.929 -1.78039 0.718768 0
M  V30 2248 O 217.13 -2.53795 0.885521 0
M  V30 2249 C 215.401 -1.60615 3.19277 0
M  V30 2250 S 216.96 -2.36824 3.69405 0
M  V30 2251 H 213.778 -0.286727 0.650622 0
M  V30 2252 H 216.38 -0.117408 1.95147 0
M  V30 2253 H 215.084 -0.919994 3.99955 0
M  V30 2254 H 214.615 -2.38735 3.12681 0
M  V30 2255 H 216.63 -3.62148 3.3921 0
M  V30 2256 N 215.803 -1.52179 -0.40978 0
M  V30 2257 C 217.219 -1.40968 -0.74835 0
M  V30 2258 C 217.419 -0.513657 -1.94843 0
M  V30 2259 O 216.475 0.0208026 -2.52491 0
M  V30 2260 C 217.788 -2.83483 -1.0029 0
M  V30 2261 C 219.336 -2.92821 -1.10565 0
M  V30 2262 C 219.811 -4.36303 -1.39296 0
M  V30 2263 N 221.302 -4.39535 -1.46162 0
M  V30 2264 C 222.037 -5.47614 -1.70018 0
M  V30 2265 N 221.533 -6.65812 -1.91483 0
M  V30 2266 N 223.326 -5.35129 -1.72027 0
M  V30 2267 H 215.477 -2.0897 0.380186 0
M  V30 2268 H 217.74 -0.94185 0.107805 0
M  V30 2269 H 217.446 -3.51168 -0.193461 0
M  V30 2270 H 217.32 -3.24487 -1.92323 0
M  V30 2271 H 219.707 -2.25318 -1.90568 0
M  V30 2272 H 219.788 -2.55276 -0.16369 0
M  V30 2273 H 219.432 -5.04366 -0.598109 0
M  V30 2274 H 219.362 -4.71385 -2.34743 0
M  V30 2275 H 221.853 -3.54332 -1.31367 0
M  V30 2276 H 222.166 -7.43964 -2.09134 0
M  V30 2277 H 220.511 -6.68879 -1.88749 0
M  V30 2278 H 223.702 -4.41764 -1.54796 0
M  V30 2279 H 223.875 -6.19433 -1.9028 0
M  V30 2280 N 217.281 0.66697 -1.42791 0
M  V30 2281 C 218.529 1.42417 -1.43394 0
M  V30 2282 C 218.85 1.94925 -0.0542373 0
M  V30 2283 O 218.12 1.73564 0.908415 0
M  V30 2284 H 216.7 0.528515 -0.527902 0
M  V30 2285 H 219.362 0.787562 -1.78279 0
M  V30 2286 H 218.458 2.27333 -2.13837 0
M  V30 2287 N 218.759 1.29093 0.90403 0
M  V30 2288 C 220.17 1.15186 1.46932 0
M  V30 2289 C 220.521 -0.254587 1.94541 0
M  V30 2290 O 219.646 -1.14972 1.83332 0
M  V30 2291 C 220.241 2.08492 2.67051 0
M  V30 2292 C 218.8 1.98621 3.19729 0
M  V30 2293 C 217.947 1.9967 1.92425 0
M  V30 2294 H 220.898 1.41641 0.715789 0
M  V30 2295 H 220.919 1.65461 3.42641 0
M  V30 2296 H 220.431 3.10847 2.3237 0
M  V30 2297 H 218.532 0.993389 3.59114 0
M  V30 2298 H 218.645 2.86068 3.8432 0
M  V30 2299 H 217.009 1.44208 2.09943 0
M  V30 2300 H 217.792 3.03721 1.60026 0
M  V30 2301 N 220.237 -1.11381 1.11499 0
M  V30 2302 C 221.514 -1.7955 0.775965 0
M  V30 2303 C 221.894 -1.97859 -0.73588 0
M  V30 2304 O 221.242 -1.56376 -1.66609 0
M  V30 2305 C 221.452 -3.13196 1.53977 0
M  V30 2306 C 222.8 -3.88227 1.71944 0
M  V30 2307 O 223.824 -3.22887 1.50407 0
M  V30 2308 O 222.683 -5.05477 2.07738 0
M  V30 2309 H 219.777 -0.777728 0.28119 0
M  V30 2310 H 222.323 -1.18118 1.21845 0
M  V30 2311 H 221.095 -2.95229 2.56818 0
M  V30 2312 H 220.718 -3.82342 1.09088 0
M  V30 2313 N 221.715 -0.905404 -1.28997 0
M  V30 2314 C 222.963 -0.533192 -1.9494 0
M  V30 2315 C 223.284 0.924618 -1.71685 0
M  V30 2316 O 222.554 1.65268 -1.05183 0
M  V30 2317 H 221.134 -0.194194 -0.721317 0
M  V30 2318 H 223.796 -1.15294 -1.57141 0
M  V30 2319 H 222.892 -0.72059 -3.03667 0
M  V30 2320 N 223.193 1.4272 -0.668489 0
M  V30 2321 C 224.103 2.34596 0.0139753 0
M  V30 2322 C 225.119 1.5474 0.795703 0
M  V30 2323 O 226.295 1.87334 0.739466 0
M  V30 2324 C 223.36 3.33202 0.957982 0
M  V30 2325 C 222.421 4.28957 0.17149 0
M  V30 2326 C 221.654 5.22853 1.07053 0
M  V30 2327 O 221.877 5.21531 2.31001 0
M  V30 2328 O 220.811 5.9952 0.534727 0
M  V30 2329 H 224.637 2.9448 -0.742661 0
M  V30 2330 H 222.222 1.43117 -0.428705 0
M  V30 2331 H 224.104 3.93796 1.50008 0
M  V30 2332 H 222.779 2.758 1.69458 0
M  V30 2333 H 221.686 3.71796 -0.414558 0
M  V30 2334 H 223.019 4.89383 -0.52586 0
M  V30 2335 N 224.671 0.411399 1.52136 0
M  V30 2336 C 225.601 -0.404015 2.29978 0
M  V30 2337 C 226.582 -1.04412 1.34284 0
M  V30 2338 O 227.767 -1.0527 1.63192 0
M  V30 2339 C 224.897 -1.5197 3.12286 0
M  V30 2340 C 223.851 -1.00448 4.16046 0
M  V30 2341 C 223.177 -2.21393 4.86712 0
M  V30 2342 C 224.477 -0.0569336 5.22269 0
M  V30 2343 H 226.171 0.245529 2.98392 0
M  V30 2344 H 223.717 0.119525 1.43503 0
M  V30 2345 H 225.67 -2.09715 3.6551 0
M  V30 2346 H 224.394 -2.19716 2.41646 0
M  V30 2347 H 223.053 -0.449421 3.63835 0
M  V30 2348 H 222.701 -2.87699 4.12599 0
M  V30 2349 H 222.401 -1.87571 5.56858 0
M  V30 2350 H 223.925 -2.7974 5.4275 0
M  V30 2351 H 225.339 -0.54325 5.7072 0
M  V30 2352 H 223.736 0.192594 5.99791 0
M  V30 2353 H 224.806 0.887663 4.76706 0
M  V30 2354 N 226.149 -1.5696 0.141893 0
M  V30 2355 C 227.099 -2.13074 -0.811383 0
M  V30 2356 C 228.083 -1.05726 -1.21288 0
M  V30 2357 O 229.275 -1.31914 -1.18015 0
M  V30 2358 C 226.404 -2.75186 -2.0525 0
M  V30 2359 C 225.49 -3.8965 -1.67432 0
M  V30 2360 N 225.881 -4.95733 -1.0041 0
M  V30 2361 C 224.179 -4.00262 -1.96739 0
M  V30 2362 C 224.88 -5.75858 -0.822345 0
M  V30 2363 N 223.856 -5.26452 -1.3546 0
M  V30 2364 H 227.658 -2.92465 -0.290031 0
M  V30 2365 H 225.172 -1.6229 -0.0598218 0
M  V30 2366 H 227.169 -3.13745 -2.74535 0
M  V30 2367 H 225.829 -1.97266 -2.57907 0
M  V30 2368 H 226.84 -5.13607 -0.665441 0
M  V30 2369 H 223.517 -3.33412 -2.51282 0
M  V30 2370 H 224.907 -6.71254 -0.294496 0
M  V30 2371 N 227.627 0.131896 -1.57047 0
M  V30 2372 C 228.59 1.14638 -1.98471 0
M  V30 2373 C 229.59 1.35029 -0.873148 0
M  V30 2374 O 230.78 1.31764 -1.13946 0
M  V30 2375 C 227.912 2.50358 -2.31373 0
M  V30 2376 H 229.105 0.79064 -2.8929 0
M  V30 2377 H 226.658 0.375761 -1.51716 0
M  V30 2378 H 227.393 2.90876 -1.43393 0
M  V30 2379 H 227.178 2.36915 -3.12432 0
M  V30 2380 H 228.668 3.23395 -2.64207 0
M  V30 2381 N 229.106 1.52395 0.401703 0
M  V30 2382 C 230.054 1.7689 1.51039 0
M  V30 2383 C 231.048 0.636298 1.56996 0
M  V30 2384 O 232.254 0.818507 1.60314 0
M  V30 2385 H 228.629 0.559502 0.502456 0
M  V30 2386 H 230.6 2.69757 1.27568 0
M  V30 2387 C 229.349 1.94331 2.88324 0
M  V30 2388 H 228.672 2.80905 2.84486 0
M  V30 2389 H 230.112 2.15466 3.65172 0
M  V30 2390 C 228.571 0.712396 3.29282 0
M  V30 2391 O 229.101 -0.116218 4.01532 0
M  V30 2392 N 227.307 0.546154 2.85422 0
M  V30 2393 H 226.854 1.22156 2.26794 0
M  V30 2394 H 226.812 -0.276113 3.13185 0
M  V30 2395 N 230.584 -0.659388 1.43143 0
M  V30 2396 C 231.514 -1.78422 1.50625 0
M  V30 2397 C 232.495 -1.66216 0.361443 0
M  V30 2398 O 233.68 -1.85404 0.577834 0
M  V30 2399 C 230.81 -3.16815 1.42287 0
M  V30 2400 C 229.764 -3.43777 2.54954 0
M  V30 2401 C 229.09 -4.81905 2.31671 0
M  V30 2402 C 230.39 -3.39134 3.97222 0
M  V30 2403 H 232.084 -1.72417 2.44771 0
M  V30 2404 H 229.63 -0.828084 1.17808 0
M  V30 2405 H 231.583 -3.95253 1.46127 0
M  V30 2406 H 230.307 -3.23534 0.446435 0
M  V30 2407 H 228.966 -2.67707 2.50457 0
M  V30 2408 H 228.614 -4.85294 1.32284 0
M  V30 2409 H 228.314 -5.00906 3.07192 0
M  V30 2410 H 229.838 -5.62609 2.37284 0
M  V30 2411 H 231.252 -4.07518 4.03239 0
M  V30 2412 H 229.649 -3.69671 4.72719 0
M  V30 2413 H 230.719 -2.37426 4.22797 0
M  V30 2414 N 232.062 -1.29571 -0.897171 0
M  V30 2415 C 232.992 -1.17473 -2.01798 0
M  V30 2416 C 233.973 -0.068323 -1.69963 0
M  V30 2417 O 235.158 -0.248239 -1.92607 0
M  V30 2418 C 232.288 -0.853099 -3.36659 0
M  V30 2419 C 231.242 -1.9161 -3.82713 0
M  V30 2420 C 230.568 -1.44773 -5.14728 0
M  V30 2421 C 231.868 -3.32535 -4.02763 0
M  V30 2422 H 233.562 -2.11237 -2.12177 0
M  V30 2423 H 231.108 -1.01699 -1.01948 0
M  V30 2424 H 233.061 -0.755165 -4.14578 0
M  V30 2425 H 231.785 0.120236 -3.26379 0
M  V30 2426 H 230.444 -2.00346 -3.07013 0
M  V30 2427 H 230.092 -0.462995 -5.00865 0
M  V30 2428 H 229.792 -2.15865 -5.46513 0
M  V30 2429 H 231.316 -1.36334 -5.95185 0
M  V30 2430 H 232.73 -3.26626 -4.71156 0
M  V30 2431 H 231.127 -4.01607 -4.45905 0
M  V30 2432 H 232.197 -3.75326 -3.07016 0
M  V30 2433 N 233.54 1.10788 -1.12088 0
M  V30 2434 C 234.78 1.84297 -0.883974 0
M  V30 2435 C 235.144 1.83036 0.579797 0
M  V30 2436 O 236.345 2.52061 0.933734 0
M  V30 2437 C 234.616 3.27173 -1.43849 0
M  V30 2438 S 236.175 4.17853 -1.33957 0
M  V30 2439 H 232.993 0.635433 -0.318977 0
M  V30 2440 H 235.595 1.33341 -1.4297 0
M  V30 2441 H 234.299 3.25658 -2.49749 0
M  V30 2442 H 233.83 3.83198 -0.890096 0
M  V30 2443 H 235.845 4.95239 -0.308603 0
M  V30 2444 N 235.018 0.912232 1.28515 0
M  V30 2445 C 236.429 0.591352 1.77087 0
M  V30 2446 C 236.78 -0.8933 1.74684 0
M  V30 2447 O 235.905 -1.69876 1.34056 0
M  V30 2448 C 236.5 1.06668 3.2157 0
M  V30 2449 C 235.059 0.79675 3.67871 0
M  V30 2450 C 234.206 1.23427 2.48316 0
M  V30 2451 H 237.157 1.09365 1.15 0
M  V30 2452 H 237.178 0.407455 3.78312 0
M  V30 2453 H 236.69 2.14726 3.23287 0
M  V30 2454 H 234.791 -0.270679 3.71616 0
M  V30 2455 H 234.904 1.40343 4.58084 0
M  V30 2456 H 233.268 0.653036 2.46186 0
M  V30 2457 H 234.051 2.32316 2.52753 0
M  V30 2458 N 236.496 -1.42363 0.676048 0
M  V30 2459 C 237.742 -2.0182 0.199125 0
M  V30 2460 C 238.075 -1.53339 -1.19168 0
M  V30 2461 O 237.35 -0.736124 -1.80032 0
M  V30 2462 C 237.633 -3.59331 0.235144 0
M  V30 2463 C 237.486 -4.17989 1.66149 0
M  V30 2464 C 238.805 -4.3813 -0.41595 0
M  V30 2465 H 235.924 -0.733293 0.0738311 0
M  V30 2466 H 238.566 -1.69368 0.86107 0
M  V30 2467 H 236.716 -3.87109 -0.328487 0
M  V30 2468 H 238.388 -4.0116 2.27747 0
M  V30 2469 H 236.631 -3.7377 2.20178 0
M  V30 2470 H 237.302 -5.27126 1.63837 0
M  V30 2471 H 239.778 -4.16051 0.0638529 0
M  V30 2472 H 238.654 -5.47717 -0.360115 0
M  V30 2473 H 238.915 -4.16101 -1.49373 0
M  V30 2474 N 237.974 -0.419461 -1.51915 0
M  V30 2475 C 239.251 0.211999 -1.94448 0
M  V30 2476 C 239.631 1.61703 -1.35703 0
M  V30 2477 O 238.979 2.22102 -0.536931 0
M  V30 2478 C 239.189 0.207872 -3.4838 0
M  V30 2479 C 240.537 0.422192 -4.22496 0
M  V30 2480 O 241.561 0.286778 -3.55044 0
M  V30 2481 O 240.42 0.690009 -5.42126 0
M  V30 2482 H 237.514 0.139586 -0.815135 0
M  V30 2483 H 240.06 -0.476151 -1.62883 0
M  V30 2484 H 238.832 -0.775102 -3.83546 0
M  V30 2485 H 238.455 0.939688 -3.86336 0
M  V30 2486 N 239.452 1.56882 -0.150215 0
M  V30 2487 C 240.698 1.96518 0.500834 0
M  V30 2488 C 241.031 1.03527 1.64304 0
M  V30 2489 O 240.306 0.0782751 1.94342 0
M  V30 2490 C 240.589 3.45822 1.00395 0
M  V30 2491 C 240.442 4.49591 -0.136983 0
M  V30 2492 C 241.761 3.97704 1.88467 0
M  V30 2493 H 238.88 0.714535 0.18058 0
M  V30 2494 H 241.522 1.88577 -0.232091 0
M  V30 2495 H 239.672 3.5272 1.62851 0
M  V30 2496 H 241.344 4.5477 -0.77343 0
M  V30 2497 H 239.587 4.26441 -0.795652 0
M  V30 2498 H 240.258 5.51402 0.256815 0
M  V30 2499 H 242.734 3.93304 1.35834 0
M  V30 2500 H 241.61 5.0263 2.20578 0
M  V30 2501 H 241.871 3.40252 2.82279 0
M  V30 2502 N 240.93 -0.123565 1.57115 0
M  V30 2503 C 241.86 -1.15309 2.03042 0
M  V30 2504 C 242.841 -1.43454 0.914061 0
M  V30 2505 O 244.026 -1.53973 1.18347 0
M  V30 2506 C 241.156 -2.48043 2.43089 0
M  V30 2507 C 240.11 -2.3437 3.58127 0
M  V30 2508 C 239.436 -3.72026 3.84059 0
M  V30 2509 C 240.736 -1.80804 4.90007 0
M  V30 2510 H 242.43 -0.771102 2.893 0
M  V30 2511 H 239.976 -0.369479 1.39179 0
M  V30 2512 H 241.929 -3.20311 2.73823 0
M  V30 2513 H 240.653 -2.88122 1.53796 0
M  V30 2514 H 239.312 -1.64551 3.27595 0
M  V30 2515 H 238.96 -4.09582 2.91979 0
M  V30 2516 H 238.66 -3.63732 4.6149 0
M  V30 2517 H 240.184 -4.45806 4.1724 0
M  V30 2518 H 241.598 -2.42886 5.19307 0
M  V30 2519 H 239.995 -1.83343 5.71407 0
M  V30 2520 H 241.065 -0.76528 4.78823 0
M  V30 2521 N 242.408 -1.52605 -0.393616 0
M  V30 2522 C 243.685 -1.58001 -1.15304 0
M  V30 2523 C 244.065 -0.370385 -2.07825 0
M  V30 2524 O 243.413 0.641638 -2.19306 0
M  V30 2525 C 243.623 -2.91652 -1.91677 0
M  V30 2526 C 244.971 -3.4522 -2.47201 0
M  V30 2527 O 245.995 -2.93495 -2.01839 0
M  V30 2528 O 244.854 -4.35579 -3.3005 0
M  V30 2529 H 241.948 -0.637068 -0.527327 0
M  V30 2530 H 244.494 -1.64939 -0.399141 0
M  V30 2531 H 243.266 -3.71136 -1.23992 0
M  V30 2532 H 242.889 -2.88077 -2.74039 0
M  V30 2533 N 243.887 0.651787 -1.4349 0
M  V30 2534 C 245.133 1.41376 -1.45398 0
M  V30 2535 C 245.466 1.94041 -0.0784823 0
M  V30 2536 O 244.741 1.72379 0.900878 0
M  V30 2537 C 245.024 2.59414 -2.49752 0
M  V30 2538 C 244.877 2.12232 -3.96582 0
M  V30 2539 C 246.196 3.61626 -2.50827 0
M  V30 2540 H 243.315 0.512719 -0.529422 0
M  V30 2541 H 245.957 0.738796 -1.75048 0
M  V30 2542 H 244.107 3.16997 -2.246 0
M  V30 2543 H 245.779 1.59639 -4.32797 0
M  V30 2544 H 244.022 1.43592 -4.09346 0
M  V30 2545 H 244.693 2.9712 -4.65214 0
M  V30 2546 H 247.169 3.13805 -2.7325 0
M  V30 2547 H 246.045 4.41766 -3.25783 0
M  V30 2548 H 246.306 4.14314 -1.5426 0
M  V30 2549 N 245.365 1.30045 0.890287 0
M  V30 2550 C 246.776 1.16738 1.45702 0
M  V30 2551 C 247.127 -0.233939 1.948 0
M  V30 2552 O 246.252 -1.13021 1.84541 0
M  V30 2553 C 246.847 2.11313 2.64825 0
M  V30 2554 C 245.406 2.02001 3.17604 0
M  V30 2555 C 244.553 2.01699 1.90296 0
M  V30 2556 H 247.504 1.42392 0.700726 0
M  V30 2557 H 247.525 1.69086 3.40867 0
M  V30 2558 H 247.037 3.13294 2.2906 0
M  V30 2559 H 245.138 1.03142 3.5804 0
M  V30 2560 H 245.251 2.90128 3.81264 0
M  V30 2561 H 243.615 1.46427 2.08402 0
M  V30 2562 H 244.398 3.05402 1.56795 0
M  V30 2563 N 246.843 -1.10192 1.12674 0
M  V30 2564 C 247.753 -2.20172 0.810026 0
M  V30 2565 C 248.769 -1.72821 -0.202188 0
M  V30 2566 O 249.945 -2.01369 -0.0351691 0
M  V30 2567 C 247.01 -3.45631 0.272007 0
M  V30 2568 C 246.071 -4.07704 1.34447 0
M  V30 2569 C 245.304 -5.27175 0.832029 0
M  V30 2570 O 245.527 -5.69425 -0.333284 0
M  V30 2571 O 244.461 -5.80168 1.60277 0
M  V30 2572 H 248.287 -2.49701 1.72867 0
M  V30 2573 H 245.872 -1.18977 0.903597 0
M  V30 2574 H 247.754 -4.21394 -0.0230219 0
M  V30 2575 H 246.429 -3.17723 -0.619164 0
M  V30 2576 H 245.336 -3.33614 1.6927 0
M  V30 2577 H 246.669 -4.3982 2.2095 0
M  V30 2578 N 248.321 -0.919034 -1.28029 0
M  V30 2579 C 249.569 -0.553838 -1.94363 0
M  V30 2580 C 249.89 0.906357 -1.72656 0
M  V30 2581 O 249.16 1.64143 -1.0693 0
M  V30 2582 H 247.74 -0.201834 -0.719216 0
M  V30 2583 H 250.402 -1.16954 -1.55909 0
M  V30 2584 H 249.498 -0.752758 -3.02886 0
M  V30 2585 N 249.799 1.42003 -0.683588 0
M  V30 2586 C 251.027 2.05746 -0.218182 0
M  V30 2587 C 251.442 1.51396 1.12804 0
M  V30 2588 O 250.799 0.657303 1.70252 0
M  V30 2589 C 250.85 3.61171 -0.154131 0
M  V30 2590 O 250.571 4.13508 -1.44716 0
M  V30 2591 C 252.072 4.42042 0.333713 0
M  V30 2592 H 249.292 0.662888 -0.10402 0
M  V30 2593 H 251.836 1.81987 -0.9328 0
M  V30 2594 H 249.991 3.84012 0.511231 0
M  V30 2595 H 250.405 5.07453 -1.32632 0
M  V30 2596 H 251.879 5.51028 0.327423 0
M  V30 2597 H 252.356 4.17269 1.37053 0
M  V30 2598 H 252.962 4.24239 -0.300222 0
M  V30 2599 N 251.277 0.427512 1.51691 0
M  V30 2600 C 252.207 -0.3796 2.30394 0
M  V30 2601 C 253.188 -1.02982 1.35384 0
M  V30 2602 O 254.373 -1.03534 1.643 0
M  V30 2603 C 251.503 -1.48649 3.1388 0
M  V30 2604 C 250.457 -0.960294 4.17088 0
M  V30 2605 C 249.783 -2.16219 4.89033 0
M  V30 2606 C 251.083 -0.00153679 5.223 0
M  V30 2607 H 252.777 0.277164 2.98114 0
M  V30 2608 H 250.323 0.134739 1.43368 0
M  V30 2609 H 252.276 -2.05826 3.67714 0
M  V30 2610 H 251 -2.1714 2.43962 0
M  V30 2611 H 249.659 -0.410806 3.64291 0
M  V30 2612 H 249.307 -2.83307 4.15628 0
M  V30 2613 H 249.007 -1.81654 5.58816 0
M  V30 2614 H 250.531 -2.73968 5.45687 0
M  V30 2615 H 251.945 -0.482687 5.71264 0
M  V30 2616 H 250.342 0.256199 5.99553 0
M  V30 2617 H 251.412 0.938174 4.75738 0
M  V30 2618 N 252.755 -1.56801 0.158532 0
M  V30 2619 C 254.166 -1.83189 -0.360366 0
M  V30 2620 C 254.517 -1.07778 -1.63946 0
M  V30 2621 O 253.642 -0.326718 -2.13919 0
M  V30 2622 C 254.237 -3.32297 -0.660595 0
M  V30 2623 C 252.796 -3.59227 -1.12398 0
M  V30 2624 C 251.943 -2.76877 -0.153097 0
M  V30 2625 H 254.894 -1.54008 0.383031 0
M  V30 2626 H 254.915 -3.4908 -1.51405 0
M  V30 2627 H 254.427 -3.87156 0.270527 0
M  V30 2628 H 252.528 -3.09766 -2.07064 0
M  V30 2629 H 252.641 -4.67632 -1.04197 0
M  V30 2630 H 251.005 -2.46319 -0.647983 0
M  V30 2631 H 251.788 -3.34511 0.77182 0
M  V30 2632 N 254.233 0.115231 -1.57178 0
M  V30 2633 C 255.51 0.852873 -1.76027 0
M  V30 2634 C 255.89 1.97892 -0.73498 0
M  V30 2635 O 255.238 2.27232 0.24036 0
M  V30 2636 C 255.448 1.36608 -3.21153 0
M  V30 2637 C 256.796 1.81692 -3.83762 0
M  V30 2638 O 257.82 1.46278 -3.24779 0
M  V30 2639 O 256.679 2.47104 -4.87444 0
M  V30 2640 H 253.773 0.405296 -0.720877 0
M  V30 2641 H 256.319 0.0986785 -1.69413 0
M  V30 2642 H 255.091 0.558357 -3.87296 0
M  V30 2643 H 254.714 2.18287 -3.3232 0
M  V30 2644 N 255.711 1.52812 0.385517 0
M  V30 2645 C 256.658 1.77838 1.47113 0
M  V30 2646 C 257.628 0.621757 1.54024 0
M  V30 2647 O 258.813 0.861846 1.70226 0
M  V30 2648 C 255.953 1.95618 2.84302 0
M  V30 2649 C 255.066 3.23316 2.86515 0
M  V30 2650 C 254.201 3.31394 4.15152 0
M  V30 2651 C 253.24 4.53201 4.1143 0
M  V30 2652 N 252.377 4.58542 5.3168 0
M  V30 2653 H 257.217 2.70482 1.25073 0
M  V30 2654 H 254.754 1.34006 0.606692 0
M  V30 2655 H 256.712 2.03912 3.63972 0
M  V30 2656 H 255.342 1.06331 3.04784 0
M  V30 2657 H 254.394 3.24076 1.99195 0
M  V30 2658 H 255.706 4.13045 2.79634 0
M  V30 2659 H 254.86 3.3889 5.03228 0
M  V30 2660 H 253.599 2.39645 4.24761 0
M  V30 2661 H 252.604 4.45827 3.21742 0
M  V30 2662 H 253.829 5.46271 4.03442 0
M  V30 2663 H 251.775 3.69686 5.41912 0
M  V30 2664 H 251.692 5.42148 5.26889 0
M  V30 2665 H 252.96 4.70296 6.21644 0
M  V30 2666 N 257.189 -0.644168 1.43834 0
M  V30 2667 C 258.121 -1.76955 1.45669 0
M  V30 2668 C 259.134 -1.58956 0.351666 0
M  V30 2669 O 260.323 -1.6751 0.616644 0
M  V30 2670 C 257.423 -3.14507 1.26248 0
M  V30 2671 C 256.596 -3.59083 2.49757 0
M  V30 2672 C 255.655 -4.75467 2.25427 0
M  V30 2673 O 254.681 -4.84444 2.98836 0
M  V30 2674 N 255.883 -5.66289 1.27661 0
M  V30 2675 H 258.648 -1.75856 2.42682 0
M  V30 2676 H 256.209 -0.828312 1.39106 0
M  V30 2677 H 258.201 -3.90067 1.0784 0
M  V30 2678 H 256.771 -3.10325 0.376478 0
M  V30 2679 H 255.991 -2.7387 2.8353 0
M  V30 2680 H 257.279 -3.85613 3.31934 0
M  V30 2681 H 256.677 -5.61718 0.670064 0
M  V30 2682 H 255.234 -6.41533 1.15234 0
M  V30 2683 N 258.668 -1.30515 -0.883378 0
M  V30 2684 C 259.893 -1.22487 -1.67367 0
M  V30 2685 C 260.318 0.208767 -1.86938 0
M  V30 2686 O 259.676 1.15015 -1.40148 0
M  V30 2687 C 259.724 -1.96041 -3.02655 0
M  V30 2688 O 258.828 -1.28859 -3.91751 0
M  V30 2689 H 258.169 -0.423573 -0.511353 0
M  V30 2690 H 260.699 -1.72362 -1.10239 0
M  V30 2691 H 260.709 -2.05124 -3.52687 0
M  V30 2692 H 259.384 -3.00307 -2.8773 0
M  V30 2693 H 257.961 -1.28141 -3.50192 0
M  V30 2694 N 260.146 1.09593 -1.13257 0
M  V30 2695 C 261.374 1.855 -0.916378 0
M  V30 2696 C 261.789 1.81069 0.534738 0
M  V30 2697 O 261.146 1.20562 1.37007 0
M  V30 2698 C 261.197 3.33546 -1.39388 0
M  V30 2699 O 260.918 3.37927 -2.78813 0
M  V30 2700 C 262.419 4.26299 -1.21588 0
M  V30 2701 H 259.639 0.585991 -0.326887 0
M  V30 2702 H 262.183 1.38488 -1.5047 0
M  V30 2703 H 260.338 3.77992 -0.848597 0
M  V30 2704 H 260.752 4.30254 -2.9997 0
M  V30 2705 H 262.226 5.28341 -1.59876 0
M  V30 2706 H 262.703 4.38918 -0.157376 0
M  V30 2707 H 263.309 3.87668 -1.7491 0
M  V30 2708 N 261.624 0.925811 1.2754 0
M  V30 2709 C 262.534 0.428993 2.30644 0
M  V30 2710 C 263.55 -0.489387 1.66976 0
M  V30 2711 O 264.726 -0.372653 1.97922 0
M  V30 2712 C 261.791 -0.311967 3.45294 0
M  V30 2713 C 260.852 0.641098 4.24486 0
M  V30 2714 C 260.085 -0.0645955 5.33661 0
M  V30 2715 O 260.308 -1.28429 5.55754 0
M  V30 2716 O 259.242 0.606265 5.98839 0
M  V30 2717 H 263.068 1.28504 2.75173 0
M  V30 2718 H 260.653 0.691086 1.32455 0
M  V30 2719 H 262.535 -0.729972 4.15029 0
M  V30 2720 H 261.21 -1.14365 3.02824 0
M  V30 2721 H 260.117 1.10874 3.57292 0
M  V30 2722 H 261.45 1.43995 4.70666 0
M  V30 2723 N 263.102 -1.41638 0.69111 0
M  V30 2724 C 264.034 -2.29194 -0.0161523 0
M  V30 2725 C 265.047 -1.44549 -0.748955 0
M  V30 2726 O 266.236 -1.681 -0.6004 0
M  V30 2727 C 263.336 -3.22325 -1.0469 0
M  V30 2728 C 262.509 -4.35706 -0.384621 0
M  V30 2729 C 261.568 -5.09443 -1.31737 0
M  V30 2730 O 260.594 -5.63386 -0.811451 0
M  V30 2731 N 261.796 -5.16487 -2.64993 0
M  V30 2732 H 264.561 -2.90534 0.735523 0
M  V30 2733 H 262.122 -1.52742 0.53679 0
M  V30 2734 H 264.114 -3.68522 -1.67252 0
M  V30 2735 H 262.684 -2.62323 -1.70015 0
M  V30 2736 H 261.904 -3.91948 0.420804 0
M  V30 2737 H 263.192 -5.08743 0.0760765 0
M  V30 2738 H 262.59 -4.741 -3.08619 0
M  V30 2739 H 261.147 -5.66276 -3.22761 0
M  V30 2740 N 264.58 -0.43555 -1.51462 0
M  V30 2741 C 265.543 0.365137 -2.26273 0
M  V30 2742 C 266.543 0.951227 -1.29647 0
M  V30 2743 O 267.733 0.825958 -1.53374 0
M  V30 2744 C 264.865 1.51645 -3.05314 0
M  V30 2745 H 266.058 -0.290474 -2.9849 0
M  V30 2746 H 263.611 -0.188676 -1.55157 0
M  V30 2747 H 264.346 2.20816 -2.3751 0
M  V30 2748 H 264.131 1.10238 -3.76284 0
M  V30 2749 H 265.621 2.08218 -3.61987 0
M  V30 2750 N 266.058 1.56714 -0.166846 0
M  V30 2751 C 267.307 1.95922 0.479318 0
M  V30 2752 C 267.62 1.05529 1.6469 0
M  V30 2753 O 268.826 1.34399 2.35901 0
M  V30 2754 C 267.282 3.48359 0.90412 0
M  V30 2755 C 266.89 4.47369 -0.237621 0
M  V30 2756 C 268.634 3.96394 1.51896 0
M  V30 2757 C 266.541 5.91039 0.206561 0
M  V30 2758 H 265.471 0.731495 0.18284 0
M  V30 2759 H 268.122 1.81728 -0.254363 0
M  V30 2760 H 266.504 3.57955 1.69365 0
M  V30 2761 H 267.678 4.49485 -1.01489 0
M  V30 2762 H 265.993 4.09366 -0.762128 0
M  V30 2763 H 268.59 5.01186 1.86325 0
M  V30 2764 H 268.933 3.39075 2.41524 0
M  V30 2765 H 269.466 3.89796 0.79395 0
M  V30 2766 H 266.205 6.52221 -0.654834 0
M  V30 2767 H 265.725 5.9224 0.949282 0
M  V30 2768 H 267.404 6.43707 0.651939 0
M  V30 2769 N 267.536 -0.106894 1.57237 0
M  V30 2770 C 268.468 -1.15646 1.97885 0
M  V30 2771 C 269.481 -1.36981 0.879779 0
M  V30 2772 O 270.67 -1.35841 1.15799 0
M  V30 2773 C 267.77 -2.51425 2.27241 0
M  V30 2774 C 266.943 -2.50529 3.58545 0
M  V30 2775 C 266.002 -3.68145 3.75973 0
M  V30 2776 O 265.028 -3.51176 4.47956 0
M  V30 2777 N 266.23 -4.87177 3.15656 0
M  V30 2778 H 268.995 -0.81059 2.8853 0
M  V30 2779 H 266.556 -0.296024 1.59171 0
M  V30 2780 H 268.548 -3.28689 2.36105 0
M  V30 2781 H 267.118 -2.78147 1.42663 0
M  V30 2782 H 266.338 -1.58894 3.60758 0
M  V30 2783 H 267.626 -2.46997 4.44826 0
M  V30 2784 H 267.024 -5.03868 2.57165 0
M  V30 2785 H 265.581 -5.62075 3.30023 0
M  V30 2786 N 269.014 -1.53014 -0.377408 0
M  V30 2787 C 269.944 -1.81589 -1.46791 0
M  V30 2788 C 270.925 -0.668622 -1.56408 0
M  V30 2789 O 272.11 -0.917337 -1.71168 0
M  V30 2790 C 269.24 -1.99519 -2.8427 0
M  V30 2791 C 268.194 -3.15249 -2.89486 0
M  V30 2792 C 267.52 -3.18451 -4.29527 0
M  V30 2793 C 268.82 -4.54084 -2.58079 0
M  V30 2794 H 270.514 -2.7291 -1.23127 0
M  V30 2795 H 268.06 -1.31319 -0.590883 0
M  V30 2796 H 270.013 -2.18092 -3.60575 0
M  V30 2797 H 268.737 -1.04897 -3.09296 0
M  V30 2798 H 267.396 -2.96477 -2.15631 0
M  V30 2799 H 267.044 -2.2149 -4.5161 0
M  V30 2800 H 266.744 -3.962 -4.33934 0
M  V30 2801 H 268.268 -3.39193 -5.07721 0
M  V30 2802 H 269.682 -4.72899 -3.24098 0
M  V30 2803 H 268.079 -5.33987 -2.7382 0
M  V30 2804 H 269.149 -4.60006 -1.53372 0
M  V30 2805 N 270.492 0.636531 -1.44174 0
M  V30 2806 C 271.422 1.76003 -1.53444 0
M  V30 2807 C 272.403 1.65619 -0.387841 0
M  V30 2808 O 273.588 1.84461 -0.607257 0
M  V30 2809 C 270.718 3.14511 -1.4731 0
M  V30 2810 C 269.672 3.39677 -2.60391 0
M  V30 2811 C 268.998 4.78159 -2.39308 0
M  V30 2812 C 270.298 3.32772 -4.02567 0
M  V30 2813 H 271.992 1.68501 -2.47483 0
M  V30 2814 H 269.538 0.809237 -1.19111 0
M  V30 2815 H 271.491 3.92878 -1.52397 0
M  V30 2816 H 270.215 3.22783 -0.49785 0
M  V30 2817 H 268.874 2.63688 -2.54684 0
M  V30 2818 H 268.522 4.83128 -1.39988 0
M  V30 2819 H 268.222 4.95956 -3.15122 0
M  V30 2820 H 269.746 5.58762 -2.46205 0
M  V30 2821 H 271.16 4.01051 -4.09672 0
M  V30 2822 H 269.557 3.62104 -4.7854 0
M  V30 2823 H 270.627 2.30669 -4.2652 0
M  V30 2824 N 271.97 1.30982 0.876444 0
M  V30 2825 C 272.88 1.2003 2.01569 0
M  V30 2826 C 273.896 0.11838 1.73597 0
M  V30 2827 O 275.072 0.33495 1.98595 0
M  V30 2828 C 272.137 0.901637 3.34771 0
M  V30 2829 C 271.198 2.06979 3.76109 0
M  V30 2830 C 270.431 1.78529 5.02954 0
M  V30 2831 O 270.654 0.717296 5.65872 0
M  V30 2832 O 269.588 2.64019 5.40905 0
M  V30 2833 H 273.414 2.15753 2.13739 0
M  V30 2834 H 270.999 1.10658 1.00375 0
M  V30 2835 H 272.881 0.750645 4.1466 0
M  V30 2836 H 271.556 -0.0256141 3.2369 0
M  V30 2837 H 270.463 2.27616 2.96887 0
M  V30 2838 H 271.796 2.97907 3.91807 0
M  V30 2839 N 273.449 -1.08991 1.13837 0
M  V30 2840 C 274.396 -2.15748 0.819835 0
M  V30 2841 C 275.366 -1.64636 -0.220026 0
M  V30 2842 O 276.551 -1.90582 -0.0912757 0
M  V30 2843 C 273.691 -3.4382 0.296913 0
M  V30 2844 C 272.804 -4.0881 1.39636 0
M  V30 2845 C 271.939 -5.24655 0.831314 0
M  V30 2846 C 270.978 -5.81575 1.90886 0
M  V30 2847 N 270.115 -6.88774 1.36142 0
M  V30 2848 H 274.955 -2.42338 1.73426 0
M  V30 2849 H 272.492 -1.18935 0.865613 0
M  V30 2850 H 274.45 -4.17193 -0.0244339 0
M  V30 2851 H 273.08 -3.17535 -0.580628 0
M  V30 2852 H 272.132 -3.33258 1.83422 0
M  V30 2853 H 273.444 -4.47141 2.21058 0
M  V30 2854 H 272.598 -6.04942 0.461515 0
M  V30 2855 H 271.337 -4.87698 -0.013932 0
M  V30 2856 H 270.342 -4.99946 2.28767 0
M  V30 2857 H 271.567 -6.20592 2.75758 0
M  V30 2858 H 269.513 -6.53788 0.538254 0
M  V30 2859 H 269.43 -7.25898 2.11208 0
M  V30 2860 H 270.698 -7.72806 1.01933 0
M  V30 2861 N 274.927 -0.932562 -1.27047 0
M  V30 2862 C 275.86 -0.379774 -2.25018 0
M  V30 2863 C 276.838 0.526587 -1.53837 0
M  V30 2864 O 278.022 0.465992 -1.82649 0
M  V30 2865 C 275.149 0.455187 -3.35627 0
M  V30 2866 C 274.195 -0.388428 -4.24728 0
M  V30 2867 S 275.028 -1.80701 -5.04091 0
M  V30 2868 C 276.184 -0.979865 -6.18182 0
M  V30 2869 H 276.417 -1.2101 -2.71558 0
M  V30 2870 H 273.95 -0.735078 -1.35779 0
M  V30 2871 H 275.908 0.931052 -3.99802 0
M  V30 2872 H 274.569 1.26009 -2.87716 0
M  V30 2873 H 273.762 0.25089 -5.03375 0
M  V30 2874 H 273.364 -0.798649 -3.65373 0
M  V30 2875 H 275.656 -0.218115 -6.77149 0
M  V30 2876 H 276.599 -1.73951 -6.86401 0
M  V30 2877 H 277.007 -0.51973 -5.62102 0
M  V30 2878 N 276.405 1.4127 -0.698611 0
M  V30 2879 C 277.352 2.30773 -0.0352094 0
M  V30 2880 C 278.322 1.47273 0.768111 0
M  V30 2881 O 279.507 1.76053 0.735524 0
M  V30 2882 C 276.647 3.33346 0.893 0
M  V30 2883 C 275.76 4.31924 0.0809695 0
M  V30 2884 C 274.895 5.21566 1.0071 0
M  V30 2885 C 273.934 6.11811 0.188155 0
M  V30 2886 N 273.071 6.93926 1.06825 0
M  V30 2887 H 277.911 2.86943 -0.804207 0
M  V30 2888 H 275.448 1.4132 -0.408294 0
M  V30 2889 H 277.406 3.91368 1.44523 0
M  V30 2890 H 276.036 2.78719 1.62836 0
M  V30 2891 H 275.088 3.75825 -0.588224 0
M  V30 2892 H 276.4 4.95716 -0.553801 0
M  V30 2893 H 275.554 5.84437 1.62845 0
M  V30 2894 H 274.293 4.58008 1.67572 0
M  V30 2895 H 273.298 5.47986 -0.446254 0
M  V30 2896 H 274.523 6.77425 -0.476716 0
M  V30 2897 H 272.469 6.32973 1.72283 0
M  V30 2898 H 272.386 7.54416 0.489123 0
M  V30 2899 H 273.654 7.61262 1.67632 0
M  V30 2900 N 277.883 0.443576 1.51229 0
M  V30 2901 C 279.111 -0.11929 2.06556 0
M  V30 2902 C 279.526 -1.35921 1.31038 0
M  V30 2903 O 278.883 -1.78675 0.371704 0
M  V30 2904 C 278.934 -0.435228 3.5887 0
M  V30 2905 O 278.655 0.755486 4.31537 0
M  V30 2906 C 280.156 -1.04808 4.30732 0
M  V30 2907 H 277.376 -0.0051584 0.67098 0
M  V30 2908 H 279.92 0.624453 1.94733 0
M  V30 2909 H 278.075 -1.12887 3.70588 0
M  V30 2910 H 278.489 0.483491 5.22267 0
M  V30 2911 H 279.963 -1.2191 5.3837 0
M  V30 2912 H 280.44 -2.03081 3.89429 0
M  V30 2913 H 281.046 -0.393637 4.23474 0
M  V30 2914 N 279.361 -1.56624 0.175154 0
M  V30 2915 C 280.586 -2.01813 -0.478137 0
M  V30 2916 C 281.011 -1.05457 -1.55757 0
M  V30 2917 O 280.369 -0.0347439 -1.81267 0
M  V30 2918 C 280.417 -3.45581 -1.02987 0
M  V30 2919 O 279.521 -3.52305 -2.14371 0
M  V30 2920 H 278.862 -0.65413 -0.114059 0
M  V30 2921 H 281.392 -2.02673 0.280173 0
M  V30 2922 H 281.402 -3.84965 -1.35151 0
M  V30 2923 H 280.077 -4.1521 -0.239556 0
M  V30 2924 H 278.654 -3.24783 -1.83222 0
M  V30 2925 N 280.839 0.0985539 -1.57292 0
M  V30 2926 C 281.802 1.10402 -2.00858 0
M  V30 2927 C 282.802 1.33146 -0.901593 0
M  V30 2928 O 283.992 1.29318 -1.16716 0
M  V30 2929 C 281.124 2.45394 -2.36632 0
M  V30 2930 H 282.317 0.729099 -2.90902 0
M  V30 2931 H 279.87 0.343495 -1.52479 0
M  V30 2932 H 280.605 2.87769 -1.49531 0
M  V30 2933 H 280.39 2.30235 -3.17387 0
M  V30 2934 H 281.88 3.17718 -2.71007 0
M  V30 2935 N 282.317 1.53212 0.369288 0
M  V30 2936 C 283.542 1.73423 1.1375 0
M  V30 2937 C 283.967 0.460404 1.82378 0
M  V30 2938 O 283.325 -0.585298 1.71592 0
M  V30 2939 C 283.373 2.89769 2.1463 0
M  V30 2940 O 282.477 2.58119 3.21634 0
M  V30 2941 H 281.818 0.576061 0.330227 0
M  V30 2942 H 284.348 2.00083 0.427547 0
M  V30 2943 H 284.358 3.15829 2.58294 0
M  V30 2944 H 283.033 3.8217 1.64071 0
M  V30 2945 H 281.61 2.42864 2.82969 0
M  V30 2946 N 283.795 -0.628877 1.44509 0
M  V30 2947 C 285.206 -1.21054 1.42137 0
M  V30 2948 C 285.557 -1.95715 0.137881 0
M  V30 2949 O 284.682 -2.02554 -0.761645 0
M  V30 2950 C 285.277 -2.20189 2.57493 0
M  V30 2951 C 283.836 -2.73777 2.58308 0
M  V30 2952 C 282.983 -1.48813 2.33987 0
M  V30 2953 H 285.934 -0.41942 1.53057 0
M  V30 2954 H 285.955 -3.02833 2.30375 0
M  V30 2955 H 285.467 -1.6582 3.50892 0
M  V30 2956 H 283.568 -3.32142 1.68856 0
M  V30 2957 H 283.681 -3.19662 3.56865 0
M  V30 2958 H 282.045 -1.77024 1.83124 0
M  V30 2959 H 282.828 -0.963442 3.29504 0
M  V30 2960 N 285.273 -1.31445 -0.869486 0
M  V30 2961 C 286.52 -1.21158 -1.62256 0
M  V30 2962 C 286.848 0.230155 -1.93133 0
M  V30 2963 O 286.103 1.17906 -1.56194 0
M  V30 2964 C 286.402 -2.00145 -2.96102 0
M  V30 2965 C 286.068 -3.4964 -2.84715 0
M  V30 2966 C 284.73 -3.90403 -2.81317 0
M  V30 2967 C 287.082 -4.44769 -2.71716 0
M  V30 2968 C 284.41 -5.24561 -2.62778 0
M  V30 2969 C 286.762 -5.79054 -2.54714 0
M  V30 2970 C 285.426 -6.19037 -2.49699 0
M  V30 2971 H 284.696 -0.443348 -0.593737 0
M  V30 2972 H 287.343 -1.62715 -1.00976 0
M  V30 2973 H 285.648 -1.5127 -3.6142 0
M  V30 2974 H 287.345 -1.89566 -3.53363 0
M  V30 2975 H 283.935 -3.17256 -2.88178 0
M  V30 2976 H 288.119 -4.14208 -2.73397 0
M  V30 2977 H 283.375 -5.54613 -2.57321 0
M  V30 2978 H 287.549 -6.52393 -2.43632 0
M  V30 2979 H 285.176 -7.22935 -2.35093 0
M  V30 2980 N 286.751 1.08385 -1.14413 0
M  V30 2981 C 287.998 1.80776 -0.912482 0
M  V30 2982 C 288.326 1.86236 0.560934 0
M  V30 2983 O 287.581 1.33431 1.43159 0
M  V30 2984 C 287.88 3.26273 -1.45879 0
M  V30 2985 C 287.546 3.4093 -2.95089 0
M  V30 2986 C 286.208 3.44638 -3.35824 0
M  V30 2987 C 288.56 3.44591 -3.91033 0
M  V30 2988 C 285.888 3.49597 -4.71167 0
M  V30 2989 C 288.24 3.51086 -5.26233 0
M  V30 2990 C 286.904 3.53067 -5.6648 0
M  V30 2991 H 286.174 0.661507 -0.333901 0
M  V30 2992 H 288.821 1.27613 -1.42784 0
M  V30 2993 H 287.126 3.82146 -0.864376 0
M  V30 2994 H 288.823 3.80839 -1.2555 0
M  V30 2995 H 285.413 3.38736 -2.62594 0
M  V30 2996 H 289.597 3.40957 -3.60641 0
M  V30 2997 H 284.853 3.49424 -5.0171 0
M  V30 2998 H 289.027 3.52864 -6.00383 0
M  V30 2999 H 286.654 3.56662 -6.71339 0
M  V30 3000 N 288.23 0.939286 1.26551 0
M  V30 3001 C 289.16 0.465044 2.28822 0
M  V30 3002 C 290.141 -0.480692 1.63167 0
M  V30 3003 O 291.326 -0.382955 1.90387 0
M  V30 3004 C 288.456 -0.27234 3.46231 0
M  V30 3005 C 287.41 0.58666 4.2396 0
M  V30 3006 C 286.736 -0.280573 5.33963 0
M  V30 3007 C 288.036 1.85704 4.88171 0
M  V30 3008 H 289.73 1.31979 2.68741 0
M  V30 3009 H 287.276 0.636061 1.29191 0
M  V30 3010 H 289.229 -0.615133 4.16886 0
M  V30 3011 H 287.953 -1.16121 3.0526 0
M  V30 3012 H 286.612 0.91232 3.55067 0
M  V30 3013 H 286.26 -1.16874 4.89234 0
M  V30 3014 H 285.96 0.29076 5.8688 0
M  V30 3015 H 287.484 -0.618678 6.07458 0
M  V30 3016 H 288.898 1.58161 5.51052 0
M  V30 3017 H 287.295 2.37279 5.51197 0
M  V30 3018 H 288.365 2.56957 4.11219 0
M  V30 3019 N 289.708 -1.40897 0.706093 0
M  V30 3020 C 290.671 -2.29131 0.0562841 0
M  V30 3021 C 291.671 -1.44901 -0.697166 0
M  V30 3022 O 292.861 -1.65926 -0.530484 0
M  V30 3023 C 289.993 -3.27957 -0.93043 0
M  V30 3024 H 291.186 -2.88091 0.833284 0
M  V30 3025 H 288.739 -1.4906 0.470192 0
M  V30 3026 H 289.474 -2.73997 -1.73482 0
M  V30 3027 H 289.259 -3.90124 -0.393166 0
M  V30 3028 H 290.749 -3.94049 -1.38256 0
M  V30 3029 N 291.186 -0.45159 -1.50991 0
M  V30 3030 C 292.432 0.110237 -2.025 0
M  V30 3031 C 292.765 1.41109 -1.33424 0
M  V30 3032 O 292.04 1.89135 -0.453659 0
M  V30 3033 C 292.323 0.314271 -3.58726 0
M  V30 3034 C 292.176 -1.00623 -4.38401 0
M  V30 3035 C 293.495 1.07767 -4.26702 0
M  V30 3036 H 290.614 0.0385897 -0.735989 0
M  V30 3037 H 293.256 -0.593374 -1.80497 0
M  V30 3038 H 291.406 0.913601 -3.77605 0
M  V30 3039 H 293.078 -1.64064 -4.31139 0
M  V30 3040 H 291.321 -1.6075 -4.02917 0
M  V30 3041 H 291.992 -0.817341 -5.45915 0
M  V30 3042 H 294.468 0.56986 -4.12179 0
M  V30 3043 H 293.344 1.18921 -5.35863 0
M  V30 3044 H 293.605 2.10939 -3.88532 0
M  V30 3045 N 292.664 1.56529 -0.183458 0
M  V30 3046 C 293.912 1.96855 0.457452 0
M  V30 3047 C 294.233 1.07104 1.62953 0
M  V30 3048 O 293.503 0.139887 1.954 0
M  V30 3049 H 292.083 0.72693 0.171992 0
M  V30 3050 H 294.745 1.93056 -0.267476 0
M  V30 3051 H 293.841 3.01423 0.809368 0
M  V30 3052 N 294.142 -0.090211 1.57342 0
M  V30 3053 C 295.372 -0.805055 1.90269 0
M  V30 3054 C 295.78 -1.72561 0.775842 0
M  V30 3055 O 295.123 -1.81839 -0.260843 0
M  V30 3056 C 295.185 -1.66734 3.18497 0
M  V30 3057 C 294.849 -0.918092 4.47683 0
M  V30 3058 C 295.846 -0.245674 5.19319 0
M  V30 3059 C 293.531 -0.890724 4.94339 0
M  V30 3060 C 295.525 0.444088 6.35851 0
M  V30 3061 C 293.212 -0.197179 6.10782 0
M  V30 3062 C 294.21 0.469044 6.81388 0
M  V30 3063 O 293.898 1.15146 7.95611 0
M  V30 3064 H 293.63 -0.235143 0.633785 0
M  V30 3065 H 296.184 -0.0703805 2.05279 0
M  V30 3066 H 294.414 -2.44437 2.99646 0
M  V30 3067 H 296.103 -2.25919 3.37217 0
M  V30 3068 H 296.869 -0.258246 4.84312 0
M  V30 3069 H 292.748 -1.39873 4.39268 0
M  V30 3070 H 296.292 0.964667 6.90898 0
M  V30 3071 H 292.189 -0.18247 6.45242 0
M  V30 3072 H 292.957 1.05885 8.11622 0
M  V30 3073 N 295.62 -1.53406 -0.361157 0
M  V30 3074 C 296.57 -1.76536 -1.44287 0
M  V30 3075 C 297.554 -0.620019 -1.48474 0
M  V30 3076 O 298.746 -0.878834 -1.53641 0
M  V30 3077 C 295.875 -1.96266 -2.81664 0
M  V30 3078 C 294.961 -3.16815 -2.81938 0
M  V30 3079 N 295.352 -4.38637 -2.51855 0
M  V30 3080 C 293.65 -3.17627 -3.13096 0
M  V30 3081 C 294.351 -5.20401 -2.59919 0
M  V30 3082 N 293.327 -4.56712 -2.94814 0
M  V30 3083 H 297.129 -2.68331 -1.19899 0
M  V30 3084 H 294.643 -1.52091 -0.56938 0
M  V30 3085 H 296.64 -2.10966 -3.59582 0
M  V30 3086 H 295.3 -1.05702 -3.07013 0
M  V30 3087 H 296.311 -4.66293 -2.25369 0
M  V30 3088 H 292.988 -2.36971 -3.43731 0
M  V30 3089 H 294.378 -6.27586 -2.39969 0
M  V30 3090 N 297.098 0.621204 -1.44841 0
M  V30 3091 C 298.045 1.73267 -1.5247 0
M  V30 3092 C 299.015 1.6189 -0.371611 0
M  V30 3093 O 300.2 1.81668 -0.58321 0
M  V30 3094 C 297.34 3.11545 -1.48438 0
M  V30 3095 C 296.453 3.33827 -2.74196 0
M  V30 3096 C 295.588 4.62133 -2.61929 0
M  V30 3097 C 294.627 4.77627 -3.82804 0
M  V30 3098 N 293.764 5.97219 -3.69153 0
M  V30 3099 H 298.604 1.66082 -2.47428 0
M  V30 3100 H 296.141 0.810026 -1.22788 0
M  V30 3101 H 298.099 3.91528 -1.4409 0
M  V30 3102 H 296.729 3.1772 -0.570402 0
M  V30 3103 H 295.781 2.47715 -2.88689 0
M  V30 3104 H 297.093 3.41153 -3.6389 0
M  V30 3105 H 296.247 5.50291 -2.5547 0
M  V30 3106 H 294.986 4.57182 -1.69811 0
M  V30 3107 H 293.991 3.87896 -3.89637 0
M  V30 3108 H 295.216 4.84385 -4.75971 0
M  V30 3109 H 293.162 5.93339 -2.79794 0
M  V30 3110 H 293.079 6.05644 -4.52472 0
M  V30 3111 H 294.347 6.87912 -3.66603 0
M  V30 3112 N 298.576 1.31904 0.862503 0
M  V30 3113 C 299.987 1.19803 1.43193 0
M  V30 3114 C 300.338 -0.192567 1.95253 0
M  V30 3115 O 299.463 -1.09081 1.86896 0
M  V30 3116 C 300.058 2.16883 2.60283 0
M  V30 3117 C 298.617 2.08692 3.13248 0
M  V30 3118 C 297.764 2.05691 1.85975 0
M  V30 3119 H 300.715 1.43846 0.670365 0
M  V30 3120 H 300.736 1.76278 3.37204 0
M  V30 3121 H 300.248 3.18083 2.22363 0
M  V30 3122 H 298.349 1.10713 3.55771 0
M  V30 3123 H 298.462 2.9815 3.75025 0
M  V30 3124 H 296.826 1.50814 2.05249 0
M  V30 3125 H 297.609 3.08659 1.50282 0
M  V30 3126 N 300.054 -1.07777 1.14986 0
M  V30 3127 C 301.004 -2.13082 0.811181 0
M  V30 3128 C 301.988 -1.59619 -0.202597 0
M  V30 3129 O 303.18 -1.77 -0.00398275 0
M  V30 3130 C 300.309 -3.42009 0.297439 0
M  V30 3131 C 299.395 -4.02337 1.34112 0
M  V30 3132 N 299.786 -4.36982 2.54716 0
M  V30 3133 C 298.084 -4.29752 1.19285 0
M  V30 3134 C 298.785 -4.84729 3.21578 0
M  V30 3135 N 297.761 -4.83233 2.48972 0
M  V30 3136 H 301.563 -2.37696 1.72853 0
M  V30 3137 H 299.077 -1.25173 1.03468 0
M  V30 3138 H 301.074 -4.16884 0.0364777 0
M  V30 3139 H 299.734 -3.18841 -0.614022 0
M  V30 3140 H 300.745 -4.27807 2.91894 0
M  V30 3141 H 297.422 -4.16106 0.340926 0
M  V30 3142 H 298.812 -5.20863 4.24442 0
M  V30 3143 N 301.532 -0.945985 -1.26051 0
M  V30 3144 C 302.781 -0.591836 -1.92822 0
M  V30 3145 C 303.094 0.873956 -1.7499 0
M  V30 3146 O 304.3 1.33769 -2.36259 0
M  V30 3147 C 302.756 -1.00776 -3.45503 0
M  V30 3148 C 302.364 -2.4955 -3.7206 0
M  V30 3149 C 304.108 -0.725735 -4.1825 0
M  V30 3150 C 302.015 -2.84988 -5.18205 0
M  V30 3151 H 300.945 -0.217635 -0.721908 0
M  V30 3152 H 303.596 -1.14927 -1.43052 0
M  V30 3153 H 301.978 -0.378812 -3.94184 0
M  V30 3154 H 303.152 -3.1739 -3.34066 0
M  V30 3155 H 301.467 -2.75133 -3.12555 0
M  V30 3156 H 304.064 -0.966771 -5.25887 0
M  V30 3157 H 304.407 0.337639 -4.14929 0
M  V30 3158 H 304.94 -1.31463 -3.7545 0
M  V30 3159 H 301.679 -3.90307 -5.26631 0
M  V30 3160 H 301.199 -2.21813 -5.57278 0
M  V30 3161 H 302.878 -2.73712 -5.86252 0
M  V30 3162 N 303.011 1.40521 -0.713556 0
M  V30 3163 C 304.422 1.83853 -0.324807 0
M  V30 3164 C 304.773 1.59667 1.14021 0
M  V30 3165 O 303.898 1.07649 1.87725 0
M  V30 3166 C 304.493 3.33751 -0.582746 0
M  V30 3167 C 303.052 3.75584 -0.247727 0
M  V30 3168 C 302.199 2.63753 -0.856121 0
M  V30 3169 H 305.15 1.29817 -0.91286 0
M  V30 3170 H 305.171 3.80194 0.152682 0
M  V30 3171 H 304.683 3.51322 -1.64908 0
M  V30 3172 H 302.784 3.63608 0.813624 0
M  V30 3173 H 302.897 4.7373 -0.715307 0
M  V30 3174 H 301.261 2.53108 -0.28432 0
M  V30 3175 H 302.044 2.84137 -1.92668 0
M  V30 3176 N 304.489 0.459591 1.5075 0
M  V30 3177 C 305.736 -0.0993495 2.02256 0
M  V30 3178 C 306.064 -1.40751 1.34237 0
M  V30 3179 O 305.319 -1.90379 0.453228 0
M  V30 3180 C 305.618 -0.342866 3.55752 0
M  V30 3181 C 305.284 0.88218 4.42186 0
M  V30 3182 C 303.946 1.21808 4.65528 0
M  V30 3183 C 306.298 1.69837 4.92752 0
M  V30 3184 C 303.626 2.37045 5.36681 0
M  V30 3185 C 305.978 2.84192 5.65171 0
M  V30 3186 C 304.642 3.1821 5.8677 0
M  V30 3187 H 303.912 -0.0363545 0.740108 0
M  V30 3188 H 306.559 0.611329 1.8148 0
M  V30 3189 H 304.864 -1.13567 3.7498 0
M  V30 3190 H 306.561 -0.789121 3.93159 0
M  V30 3191 H 303.151 0.610467 4.2423 0
M  V30 3192 H 307.335 1.45205 4.74583 0
M  V30 3193 H 302.591 2.63689 5.51614 0
M  V30 3194 H 306.765 3.4779 6.03337 0
M  V30 3195 H 304.392 4.07613 6.41682 0
M  V30 3196 N 305.967 -1.56429 0.191757 0
M  V30 3197 C 307.383 -1.58754 -0.164137 0
M  V30 3198 C 307.583 -1.20782 -1.61288 0
M  V30 3199 O 306.639 -0.928999 -2.34789 0
M  V30 3200 C 307.952 -3.00396 0.135195 0
M  V30 3201 C 309.5 -3.1291 0.0750351 0
M  V30 3202 C 309.975 -4.56679 0.347632 0
M  V30 3203 N 311.466 -4.62252 0.296131 0
M  V30 3204 C 312.201 -5.71379 0.480948 0
M  V30 3205 N 311.697 -6.88986 0.725933 0
M  V30 3206 N 313.49 -5.60563 0.415435 0
M  V30 3207 H 305.641 -1.79393 1.13718 0
M  V30 3208 H 307.904 -0.832414 0.453643 0
M  V30 3209 H 307.61 -3.32726 1.13958 0
M  V30 3210 H 307.484 -3.72963 -0.563773 0
M  V30 3211 H 309.871 -2.80394 -0.919948 0
M  V30 3212 H 309.952 -2.42736 0.807029 0
M  V30 3213 H 309.596 -4.89907 1.33992 0
M  V30 3214 H 309.526 -5.25039 -0.405212 0
M  V30 3215 H 312.017 -3.7773 0.113259 0
M  V30 3216 H 312.33 -7.68046 0.855857 0
M  V30 3217 H 310.675 -6.90801 0.762788 0
M  V30 3218 H 313.866 -4.67561 0.224486 0
M  V30 3219 H 314.039 -6.45551 0.562889 0
M  V30 3220 N 307.445 0.0818655 -1.57387 0
M  V30 3221 C 308.675 0.794954 -1.90694 0
M  V30 3222 C 309.083 1.72147 -0.784982 0
M  V30 3223 O 308.426 1.81974 0.251196 0
M  V30 3224 C 308.488 1.65042 -3.19376 0
M  V30 3225 C 308.152 0.894337 -4.48164 0
M  V30 3226 C 309.149 0.21813 -5.19442 0
M  V30 3227 C 306.834 0.864495 -4.94805 0
M  V30 3228 C 308.828 -0.477802 -6.35607 0
M  V30 3229 C 306.515 0.164785 -6.10878 0
M  V30 3230 C 307.513 -0.505173 -6.81129 0
M  V30 3231 O 307.201 -1.19363 -7.94989 0
M  V30 3232 H 306.933 0.231779 -0.635023 0
M  V30 3233 H 309.487 0.059493 -2.05314 0
M  V30 3234 H 307.717 2.42844 -3.00938 0
M  V30 3235 H 309.406 2.24127 -3.38411 0
M  V30 3236 H 310.172 0.232558 -4.84442 0
M  V30 3237 H 306.051 1.37542 -4.40004 0
M  V30 3238 H 309.595 -1.00129 -6.90377 0
M  V30 3239 H 305.492 0.148249 -6.4533 0
M  V30 3240 H 306.26 -1.10188 -8.11049 0
M  V30 3241 N 308.923 1.53595 0.353017 0
M  V30 3242 C 310.334 1.61937 0.929153 0
M  V30 3243 C 310.685 0.494686 1.89861 0
M  V30 3244 O 309.81 -0.377017 2.1309 0
M  V30 3245 C 310.405 2.93526 1.69199 0
M  V30 3246 C 308.964 3.04161 2.21727 0
M  V30 3247 C 308.111 2.57322 1.03348 0
M  V30 3248 H 311.062 1.58155 0.131431 0
M  V30 3249 H 311.083 2.82034 2.55416 0
M  V30 3250 H 310.595 3.75362 0.986144 0
M  V30 3251 H 308.696 2.26938 2.95516 0
M  V30 3252 H 308.809 4.09465 2.48748 0
M  V30 3253 H 307.173 2.12499 1.40414 0
M  V30 3254 H 307.956 3.41588 0.342428 0
M  V30 3255 N 310.401 -0.613514 1.45168 0
M  V30 3256 C 311.348 -1.72456 1.53387 0
M  V30 3257 C 312.318 -1.6169 0.380191 0
M  V30 3258 O 313.503 -1.81356 0.592836 0
M  V30 3259 C 310.643 -3.10753 1.50088 0
M  V30 3260 C 309.756 -3.32368 2.75963 0
M  V30 3261 C 308.891 -4.60737 2.64376 0
M  V30 3262 C 307.93 -4.7559 3.85332 0
M  V30 3263 N 307.067 -5.95253 3.72315 0
M  V30 3264 H 311.907 -1.64768 2.48305 0
M  V30 3265 H 309.444 -0.803503 1.23216 0
M  V30 3266 H 311.402 -3.90758 1.46164 0
M  V30 3267 H 310.032 -3.17413 0.587243 0
M  V30 3268 H 309.084 -2.4618 2.89999 0
M  V30 3269 H 310.396 -3.39218 3.65695 0
M  V30 3270 H 309.55 -5.48928 2.58385 0
M  V30 3271 H 308.289 -4.56275 1.72233 0
M  V30 3272 H 307.294 -3.85824 3.91688 0
M  V30 3273 H 308.519 -4.81854 4.78533 0
M  V30 3274 H 306.465 -5.91847 2.82937 0
M  V30 3275 H 306.382 -6.03236 4.55677 0
M  V30 3276 H 307.65 -6.85958 3.70246 0
M  V30 3277 N 311.879 -1.3236 -0.855495 0
M  V30 3278 C 312.789 -1.23221 -1.99634 0
M  V30 3279 C 313.805 -0.145983 -1.73387 0
M  V30 3280 O 314.981 -0.366502 -1.98037 0
M  V30 3281 C 312.046 -0.954782 -3.33294 0
M  V30 3282 C 311.107 -2.12937 -3.72769 0
M  V30 3283 C 310.34 -1.86508 -5.00051 0
M  V30 3284 O 310.563 -0.807231 -5.64659 0
M  V30 3285 O 309.497 -2.72591 -5.36636 0
M  V30 3286 H 313.323 -2.19126 -2.1028 0
M  V30 3287 H 310.908 -1.12241 -0.986018 0
M  V30 3288 H 312.79 -0.816519 -4.13414 0
M  V30 3289 H 311.465 -0.0258854 -3.2369 0
M  V30 3290 H 310.372 -2.3231 -2.93228 0
M  V30 3291 H 311.705 -3.04102 -3.87018 0
M  V30 3292 N 313.357 1.07166 -1.15556 0
M  V30 3293 C 314.604 1.79798 -0.931604 0
M  V30 3294 C 314.932 1.8682 0.54115 0
M  V30 3295 O 314.187 1.34942 1.41736 0
M  V30 3296 C 314.486 3.24707 -1.49332 0
M  V30 3297 C 314.152 3.37781 -2.98688 0
M  V30 3298 C 312.814 3.41057 -3.39461 0
M  V30 3299 C 315.166 3.40424 -3.94665 0
M  V30 3300 C 312.494 3.4458 -4.74849 0
M  V30 3301 C 314.846 3.45485 -5.29927 0
M  V30 3302 C 313.51 3.47039 -5.70193 0
M  V30 3303 H 312.78 0.657928 -0.340898 0
M  V30 3304 H 315.427 1.26091 -1.44129 0
M  V30 3305 H 313.732 3.81208 -0.904859 0
M  V30 3306 H 315.429 3.79486 -1.29582 0
M  V30 3307 H 312.019 3.35932 -2.66172 0
M  V30 3308 H 316.203 3.37113 -3.64237 0
M  V30 3309 H 311.459 3.44083 -5.05388 0
M  V30 3310 H 315.633 3.46476 -6.04092 0
M  V30 3311 H 313.26 3.49522 -6.75084 0
M  V30 3312 N 314.835 0.952656 1.25548 0
M  V30 3313 C 315.767 0.428609 2.25157 0
M  V30 3314 C 316.78 -0.454428 1.56329 0
M  V30 3315 O 317.969 -0.263023 1.76552 0
M  V30 3316 C 315.069 -0.401972 3.36508 0
M  V30 3317 C 314.242 0.467601 4.34893 0
M  V30 3318 C 313.301 -0.30445 5.25319 0
M  V30 3319 O 312.327 0.296473 5.68427 0
M  V30 3320 N 313.529 -1.59805 5.5807 0
M  V30 3321 H 316.294 1.28497 2.70756 0
M  V30 3322 H 313.855 0.822798 1.39433 0
M  V30 3323 H 315.847 -0.926134 3.9396 0
M  V30 3324 H 314.417 -1.15918 2.90313 0
M  V30 3325 H 313.637 1.17288 3.76347 0
M  V30 3326 H 314.925 1.06119 4.97611 0
M  V30 3327 H 314.323 -2.10823 5.24948 0
M  V30 3328 H 312.88 -2.06822 6.18116 0
M  V30 3329 N 316.313 -1.40141 0.720998 0
M  V30 3330 C 317.26 -2.30688 0.071919 0
M  V30 3331 C 318.23 -1.48476 -0.744584 0
M  V30 3332 O 319.415 -1.77201 -0.707423 0
M  V30 3333 C 316.555 -3.34724 -0.839855 0
M  V30 3334 C 315.668 -4.31998 -0.0122438 0
M  V30 3335 C 314.803 -5.23102 -0.923995 0
M  V30 3336 C 313.842 -6.12033 -0.0907969 0
M  V30 3337 N 312.979 -6.95537 -0.957718 0
M  V30 3338 H 317.819 -2.85628 0.849755 0
M  V30 3339 H 315.356 -1.40653 0.430726 0
M  V30 3340 H 317.314 -3.93618 -1.38279 0
M  V30 3341 H 315.944 -2.81274 -1.58381 0
M  V30 3342 H 314.996 -3.74841 0.64794 0
M  V30 3343 H 316.308 -4.94772 0.632595 0
M  V30 3344 H 315.462 -5.86953 -1.53527 0
M  V30 3345 H 314.201 -4.60615 -1.60264 0
M  V30 3346 H 313.206 -5.47207 0.533377 0
M  V30 3347 H 314.431 -6.76581 0.584428 0
M  V30 3348 H 312.377 -6.35633 -1.62192 0
M  V30 3349 H 312.294 -7.55099 -0.36904 0
M  V30 3350 H 313.562 -7.63832 -1.555 0
M  V30 3351 N 317.792 -0.46758 -1.50504 0
M  V30 3352 C 318.722 0.318381 -2.31319 0
M  V30 3353 C 319.703 0.993564 -1.38066 0
M  V30 3354 O 320.888 0.991411 -1.66987 0
M  V30 3355 C 318.018 1.40275 -3.17711 0
M  V30 3356 C 316.972 0.849373 -4.19487 0
M  V30 3357 C 316.298 2.03177 -4.94594 0
M  V30 3358 C 317.598 -0.136942 -5.2212 0
M  V30 3359 H 319.292 -0.356106 -2.97275 0
M  V30 3360 H 316.838 -0.172703 -1.42961 0
M  V30 3361 H 318.791 1.96004 -3.73042 0
M  V30 3362 H 317.515 2.10596 -2.49634 0
M  V30 3363 H 316.174 0.314076 -3.65252 0
M  V30 3364 H 315.822 2.72187 -4.22993 0
M  V30 3365 H 315.522 1.66774 -5.63436 0
M  V30 3366 H 317.046 2.59403 -5.52759 0
M  V30 3367 H 318.46 0.331056 -5.72343 0
M  V30 3368 H 316.857 -0.41507 -5.98663 0
M  V30 3369 H 317.927 -1.06398 -4.73083 0
M  V30 3370 N 319.27 1.56325 -0.20005 0
M  V30 3371 C 320.5 2.01811 0.442232 0
M  V30 3372 C 320.908 1.07932 1.55394 0
M  V30 3373 O 320.251 0.0772685 1.83537 0
M  V30 3374 C 320.313 3.43685 1.05457 0
M  V30 3375 C 319.977 4.56928 0.0809833 0
M  V30 3376 C 320.974 5.15009 -0.711471 0
M  V30 3377 C 318.659 5.0229 -0.0315364 0
M  V30 3378 C 320.653 6.16904 -1.60336 0
M  V30 3379 C 318.34 6.04028 -0.926981 0
M  V30 3380 C 319.338 6.6121 -1.71146 0
M  V30 3381 O 319.026 7.60971 -2.59189 0
M  V30 3382 H 318.758 0.666173 0.114848 0
M  V30 3383 H 321.312 2.03085 -0.307511 0
M  V30 3384 H 319.542 3.39413 1.85299 0
M  V30 3385 H 321.231 3.72948 1.60201 0
M  V30 3386 H 321.997 4.80827 -0.634873 0
M  V30 3387 H 317.876 4.57476 0.568902 0
M  V30 3388 H 321.42 6.61464 -2.21611 0
M  V30 3389 H 317.317 6.37634 -1.00468 0
M  V30 3390 H 318.085 7.7841 -2.53023 0
M  V30 3391 N 320.748 -0.0735177 1.57428 0
M  V30 3392 C 322.159 -0.625551 1.75908 0
M  V30 3393 C 322.51 -1.78 0.825261 0
M  V30 3394 O 321.635 -2.16398 0.00893964 0
M  V30 3395 C 322.23 -1.14155 3.18989 0
M  V30 3396 C 320.789 -1.63946 3.38819 0
M  V30 3397 C 319.936 -0.558151 2.71625 0
M  V30 3398 H 322.887 0.152647 1.57964 0
M  V30 3399 H 322.908 -2.0104 3.23053 0
M  V30 3400 H 322.42 -0.301116 3.8693 0
M  V30 3401 H 320.521 -2.50321 2.7599 0
M  V30 3402 H 320.634 -1.71759 4.47253 0
M  V30 3403 H 318.998 -1.00278 2.34129 0
M  V30 3404 H 319.781 0.272071 3.4222 0
M  V30 3405 N 322.226 -1.5378 -0.344866 0
M  V30 3406 C 323.156 -1.84662 -1.42906 0
M  V30 3407 C 324.137 -0.701648 -1.54955 0
M  V30 3408 O 325.322 -0.953438 -1.69184 0
M  V30 3409 C 322.452 -2.05503 -2.79974 0
M  V30 3410 C 321.406 -3.21318 -2.82734 0
M  V30 3411 C 320.732 -3.2749 -4.22675 0
M  V30 3412 C 322.032 -4.59456 -2.48389 0
M  V30 3413 H 323.726 -2.75461 -1.17311 0
M  V30 3414 H 321.272 -1.32542 -0.562896 0
M  V30 3415 H 323.225 -2.25691 -3.55867 0
M  V30 3416 H 321.949 -1.11434 -3.07002 0
M  V30 3417 H 320.608 -3.00984 -2.09294 0
M  V30 3418 H 320.256 -2.31019 -4.4681 0
M  V30 3419 H 319.956 -4.05316 -4.25433 0
M  V30 3420 H 321.48 -3.49887 -5.00412 0
M  V30 3421 H 322.894 -4.79667 -3.13995 0
M  V30 3422 H 321.291 -5.39675 -2.62432 0
M  V30 3423 H 322.361 -4.63155 -1.4358 0
M  V30 3424 N 323.704 0.605807 -1.45491 0
M  V30 3425 C 324.614 1.74466 -1.56839 0
M  V30 3426 C 325.63 1.68006 -0.452772 0
M  V30 3427 O 326.806 1.8833 -0.713708 0
M  V30 3428 C 323.871 3.10931 -1.53371 0
M  V30 3429 C 322.932 3.28832 -2.75986 0
M  V30 3430 C 322.165 4.58787 -2.72673 0
M  V30 3431 O 322.388 5.4122 -1.80102 0
M  V30 3432 O 321.322 4.79438 -3.63899 0
M  V30 3433 H 325.148 1.67843 -2.53106 0
M  V30 3434 H 322.733 0.770108 -1.28022 0
M  V30 3435 H 324.615 3.92233 -1.54051 0
M  V30 3436 H 323.29 3.18042 -0.602572 0
M  V30 3437 H 322.197 2.47112 -2.80867 0
M  V30 3438 H 323.53 3.26599 -3.68231 0
M  V30 3439 N 325.182 1.32811 0.848464 0
M  V30 3440 C 326.13 1.22231 1.97895 0
M  V30 3441 C 327.124 0.125749 1.68933 0
M  V30 3442 O 328.33 0.289083 1.77663 0
M  V30 3443 H 324.705 0.379058 0.649476 0
M  V30 3444 H 326.676 2.17828 2.03945 0
M  V30 3445 C 325.425 0.968572 3.33937 0
M  V30 3446 H 324.748 1.80458 3.56756 0
M  V30 3447 H 326.188 0.934808 4.13567 0
M  V30 3448 C 324.647 -0.328628 3.35293 0
M  V30 3449 O 325.177 -1.33848 3.78745 0
M  V30 3450 N 323.383 -0.352788 2.88451 0
M  V30 3451 H 322.93 0.469541 2.53285 0
M  V30 3452 H 322.888 -1.22057 2.89741 0
M  V30 3453 N 326.66 -1.06551 1.16123 0
M  V30 3454 C 327.909 -1.78687 0.935622 0
M  V30 3455 C 328.222 -1.88056 -0.538001 0
M  V30 3456 O 329.428 -2.56794 -0.88143 0
M  V30 3457 C 327.884 -3.21143 1.62466 0
M  V30 3458 C 327.492 -3.19949 3.13587 0
M  V30 3459 C 329.236 -3.9783 1.48092 0
M  V30 3460 C 327.143 -4.57108 3.75241 0
M  V30 3461 H 326.073 -0.669712 0.346412 0
M  V30 3462 H 328.724 -1.19534 1.39226 0
M  V30 3463 H 327.106 -3.80539 1.09572 0
M  V30 3464 H 328.28 -2.70151 3.73303 0
M  V30 3465 H 326.595 -2.5676 3.27816 0
M  V30 3466 H 329.192 -4.99217 1.91538 0
M  V30 3467 H 329.535 -4.14078 0.429507 0
M  V30 3468 H 330.068 -3.4495 1.98127 0
M  V30 3469 H 326.807 -4.46065 4.80319 0
M  V30 3470 H 326.327 -5.07111 3.20309 0
M  V30 3471 H 328.006 -5.26069 3.76644 0
M  V30 3472 N 328.138 -0.959301 -1.25041 0
M  V30 3473 C 329.366 -0.633949 -1.96948 0
M  V30 3474 C 329.781 0.794916 -1.7125 0
M  V30 3475 O 329.138 1.53231 -0.991287 0
M  V30 3476 C 329.189 -0.888805 -3.50403 0
M  V30 3477 O 328.91 -2.26149 -3.75218 0
M  V30 3478 C 330.411 -0.576482 -4.39536 0
M  V30 3479 H 327.631 -0.237263 -0.627652 0
M  V30 3480 H 330.175 -1.28495 -1.59089 0
M  V30 3481 H 328.33 -0.284145 -3.86357 0
M  V30 3482 H 328.744 -2.33514 -4.6965 0
M  V30 3483 H 330.218 -0.805314 -5.46094 0
M  V30 3484 H 330.695 0.489075 -4.36468 0
M  V30 3485 H 331.301 -1.16067 -4.09156 0
M  V30 3486 N 329.616 1.39756 -0.72842 0
M  V30 3487 C 330.546 2.33289 -0.0991354 0
M  V30 3488 C 331.527 1.53568 0.731489 0
M  V30 3489 O 332.712 1.81987 0.677807 0
M  V30 3490 C 329.842 3.3763 0.813834 0
M  V30 3491 C 328.796 4.2791 0.0878663 0
M  V30 3492 C 328.122 5.22894 1.11741 0
M  V30 3493 C 329.422 5.11314 -1.06563 0
M  V30 3494 H 331.116 2.86163 -0.880408 0
M  V30 3495 H 328.662 1.37591 -0.424819 0
M  V30 3496 H 330.615 4.0201 1.26355 0
M  V30 3497 H 329.339 2.83181 1.62715 0
M  V30 3498 H 327.998 3.65 -0.342159 0
M  V30 3499 H 327.646 4.64744 1.92412 0
M  V30 3500 H 327.346 5.84143 0.636477 0
M  V30 3501 H 328.87 5.90151 1.56697 0
M  V30 3502 H 330.284 5.69076 -0.694671 0
M  V30 3503 H 328.681 5.81671 -1.47577 0
M  V30 3504 H 329.751 4.46534 -1.89038 0
M  V30 3505 N 331.094 0.475555 1.50254 0
M  V30 3506 C 332.057 -0.305016 2.27161 0
M  V30 3507 C 333.057 -0.916519 1.32123 0
M  V30 3508 O 334.247 -0.785003 1.5551 0
M  V30 3509 C 331.379 -1.43496 3.09227 0
M  V30 3510 H 332.572 0.369511 2.97615 0
M  V30 3511 H 330.125 0.229747 1.54602 0
M  V30 3512 H 330.86 -2.14441 2.43281 0
M  V30 3513 H 330.645 -1.00223 3.79075 0
M  V30 3514 H 332.135 -1.98548 3.67381 0
M  V30 3515 N 332.573 -1.56217 0.208337 0
M  V30 3516 C 333.984 -1.84243 -0.301904 0
M  V30 3517 C 334.335 -1.12939 -1.60434 0
M  V30 3518 O 333.46 -0.39461 -2.12772 0
M  V30 3519 C 334.055 -3.34231 -0.554543 0
M  V30 3520 C 332.614 -3.62621 -1.00912 0
M  V30 3521 C 331.761 -2.77224 -0.064933 0
M  V30 3522 H 334.712 -1.52712 0.431833 0
M  V30 3523 H 334.733 -3.5372 -1.40223 0
M  V30 3524 H 334.245 -3.86099 0.393561 0
M  V30 3525 H 332.346 -3.16197 -1.97104 0
M  V30 3526 H 332.459 -4.7071 -0.892674 0
M  V30 3527 H 330.823 -2.48256 -0.56929 0
M  V30 3528 H 331.606 -3.31887 0.877851 0
M  V30 3529 N 334.051 0.0651679 -1.57465 0
M  V30 3530 C 335.328 0.79644 -1.78651 0
M  V30 3531 C 335.708 1.95454 -0.797566 0
M  V30 3532 O 335.056 2.27882 0.167946 0
M  V30 3533 C 335.266 1.26322 -3.25337 0
M  V30 3534 C 336.614 1.6939 -3.89348 0
M  V30 3535 O 337.638 1.35872 -3.29268 0
M  V30 3536 O 336.497 2.31471 -4.95059 0
M  V30 3537 H 333.591 0.382157 -0.733407 0
M  V30 3538 H 336.137 0.0447311 -1.69641 0
M  V30 3539 H 334.909 0.434859 -3.88876 0
M  V30 3540 H 334.532 2.07604 -3.39096 0
M  V30 3541 N 335.529 1.53961 0.336706 0
M  V30 3542 C 336.94 1.62914 0.911925 0
M  V30 3543 C 337.291 0.514795 1.89326 0
M  V30 3544 O 336.416 -0.354395 2.13478 0
M  V30 3545 C 337.011 2.95304 1.66076 0
M  V30 3546 C 335.57 3.06496 2.18489 0
M  V30 3547 C 334.717 2.58403 1.00613 0
M  V30 3548 H 337.668 1.58285 0.114649 0
M  V30 3549 H 337.689 2.84727 2.5241 0
M  V30 3550 H 337.201 3.76387 0.946276 0
M  V30 3551 H 335.302 2.3006 2.93092 0
M  V30 3552 H 335.415 4.1208 2.44391 0
M  V30 3553 H 333.779 2.13977 1.38152 0
M  V30 3554 H 334.562 3.41932 0.306179 0
M  V30 3555 N 337.007 -0.598083 1.45811 0
M  V30 3556 C 337.917 -1.73632 1.57763 0
M  V30 3557 C 338.933 -1.67763 0.461676 0
M  V30 3558 O 340.109 -1.87949 0.723685 0
M  V30 3559 C 337.174 -3.10114 1.55018 0
M  V30 3560 C 336.235 -3.27364 2.77726 0
M  V30 3561 C 335.468 -4.57334 2.75102 0
M  V30 3562 O 335.691 -5.40258 1.8297 0
M  V30 3563 O 334.625 -4.77502 3.66437 0
M  V30 3564 H 338.451 -1.66498 2.53992 0
M  V30 3565 H 336.036 -0.763308 1.28429 0
M  V30 3566 H 337.918 -3.9141 1.56129 0
M  V30 3567 H 336.593 -3.17718 0.619431 0
M  V30 3568 H 335.5 -2.45619 2.82174 0
M  V30 3569 H 336.833 -3.24641 3.69958 0
M  V30 3570 N 338.485 -1.33259 -0.841409 0
M  V30 3571 C 339.731 -1.24757 -1.59886 0
M  V30 3572 C 340.064 0.186913 -1.93298 0
M  V30 3573 O 339.339 1.12757 -1.5848 0
M  V30 3574 C 339.622 -2.12036 -2.91055 0
M  V30 3575 C 339.475 -3.63929 -2.6434 0
M  V30 3576 C 340.794 -1.9916 -3.92458 0
M  V30 3577 H 337.913 -0.454542 -0.580138 0
M  V30 3578 H 340.555 -1.63335 -0.970647 0
M  V30 3579 H 338.705 -1.79265 -3.44669 0
M  V30 3580 H 340.377 -4.06978 -2.17178 0
M  V30 3581 H 338.62 -3.85935 -1.98082 0
M  V30 3582 H 339.291 -4.20341 -3.57796 0
M  V30 3583 H 341.767 -2.27895 -3.48143 0
M  V30 3584 H 340.643 -2.62484 -4.82072 0
M  V30 3585 H 340.904 -0.963082 -4.31482 0
M  V30 3586 N 339.963 1.05934 -1.16686 0
M  V30 3587 C 341.374 1.60263 -0.957745 0
M  V30 3588 C 341.725 1.89789 0.49745 0
M  V30 3589 O 340.85 1.67401 1.37135 0
M  V30 3590 C 341.445 2.91172 -1.73218 0
M  V30 3591 C 340.004 3.42188 -1.56794 0
M  V30 3592 C 339.151 2.16028 -1.73859 0
M  V30 3593 H 342.102 0.888392 -1.31504 0
M  V30 3594 H 342.123 3.60744 -1.21014 0
M  V30 3595 H 341.635 2.6965 -2.79124 0
M  V30 3596 H 339.736 3.68762 -0.533437 0
M  V30 3597 H 339.849 4.17273 -2.35414 0
M  V30 3598 H 338.213 2.26426 -1.16633 0
M  V30 3599 H 338.996 1.96985 -2.81161 0
M  V30 3600 N 341.441 0.965919 1.2453 0
M  V30 3601 C 342.718 0.543777 1.87889 0
M  V30 3602 C 343.098 -0.97909 1.87021 0
M  V30 3603 O 342.446 -1.84969 1.3416 0
M  V30 3604 C 342.656 1.13327 3.30088 0
M  V30 3605 C 344.004 1.21707 4.06783 0
M  V30 3606 O 345.028 1.08566 3.39252 0
M  V30 3607 O 343.887 1.42456 5.27606 0
M  V30 3608 H 340.981 0.181054 0.806938 0
M  V30 3609 H 343.527 1.06007 1.32516 0
M  V30 3610 H 342.299 2.17612 3.25209 0
M  V30 3611 H 341.922 0.600911 3.93033 0
M  V30 3612 N 342.919 -1.39368 0.735821 0
M  V30 3613 C 344.167 -2.00101 0.283562 0
M  V30 3614 C 344.488 -1.5868 -1.13338 0
M  V30 3615 O 343.758 -0.835423 -1.77193 0
M  V30 3616 H 342.338 -0.740024 0.101851 0
M  V30 3617 H 345 -1.70404 0.945962 0
M  V30 3618 H 344.096 -3.10323 0.332604 0
M  V30 3619 N 344.397 -0.483516 -1.5 0
M  V30 3620 C 345.327 0.293829 -2.31644 0
M  V30 3621 C 346.308 0.978864 -1.39112 0
M  V30 3622 O 347.493 0.973644 -1.68029 0
M  V30 3623 C 344.623 1.36897 -3.19181 0
M  V30 3624 C 343.577 0.804833 -4.20365 0
M  V30 3625 C 342.903 1.9792 -4.96721 0
M  V30 3626 C 344.203 -0.192313 -5.21946 0
M  V30 3627 H 345.897 -0.387616 -2.9688 0
M  V30 3628 H 343.443 -0.187856 -1.42769 0
M  V30 3629 H 345.396 1.92037 -3.751 0
M  V30 3630 H 344.12 2.07936 -2.51853 0
M  V30 3631 H 342.779 0.275319 -3.65565 0
M  V30 3632 H 342.427 2.67686 -4.25856 0
M  V30 3633 H 342.127 1.60789 -5.65173 0
M  V30 3634 H 343.651 2.53526 -5.55479 0
M  V30 3635 H 345.065 0.270333 -5.72662 0
M  V30 3636 H 343.462 -0.478543 -5.98189 0
M  V30 3637 H 344.532 -1.11409 -4.71928 0
M  V30 3638 N 345.875 1.56104 -0.216619 0
M  V30 3639 C 347.286 1.844 0.292128 0
M  V30 3640 C 347.637 1.13788 1.59833 0
M  V30 3641 O 346.762 0.405888 2.12559 0
M  V30 3642 C 347.357 3.3452 0.53681 0
M  V30 3643 C 345.916 3.63151 0.989876 0
M  V30 3644 C 345.063 2.77255 0.0502302 0
M  V30 3645 H 348.014 1.52481 -0.439926 0
M  V30 3646 H 348.035 3.54459 1.38345 0
M  V30 3647 H 347.547 3.85885 -0.414031 0
M  V30 3648 H 345.648 3.17238 1.95425 0
M  V30 3649 H 345.761 4.71177 0.867698 0
M  V30 3650 H 344.125 2.48555 0.556117 0
M  V30 3651 H 344.908 3.31416 -0.89544 0
M  V30 3652 N 347.353 -0.0568162 1.57498 0
M  V30 3653 C 348.764 -0.606858 1.76562 0
M  V30 3654 C 349.115 -1.77114 0.844094 0
M  V30 3655 O 348.24 -2.16376 0.0318911 0
M  V30 3656 C 348.835 -1.10766 3.20182 0
M  V30 3657 C 347.394 -1.60344 3.40539 0
M  V30 3658 C 346.541 -0.529311 2.72201 0
M  V30 3659 H 349.492 0.169393 1.57793 0
M  V30 3660 H 349.513 -1.97602 3.25167 0
M  V30 3661 H 349.025 -0.26006 3.87228 0
M  V30 3662 H 347.126 -2.47379 2.78629 0
M  V30 3663 H 347.239 -1.67006 4.4905 0
M  V30 3664 H 345.603 -0.977893 2.35179 0
M  V30 3665 H 346.386 0.308352 3.41912 0
M  V30 3666 N 348.832 -1.54138 -0.328536 0
M  V30 3667 C 350.078 -1.7236 -1.06865 0
M  V30 3668 C 350.411 -0.493231 -1.87832 0
M  V30 3669 O 349.686 0.5098 -1.877 0
M  V30 3670 C 349.969 -2.99621 -1.99747 0
M  V30 3671 C 349.822 -4.32899 -1.22143 0
M  V30 3672 C 351.141 -3.22615 -2.99345 0
M  V30 3673 H 348.26 -0.627151 -0.387105 0
M  V30 3674 H 350.902 -1.86827 -0.345767 0
M  V30 3675 H 349.052 -2.87418 -2.61387 0
M  V30 3676 H 350.724 -4.56978 -0.630017 0
M  V30 3677 H 348.967 -4.30628 -0.523628 0
M  V30 3678 H 349.638 -5.18154 -1.90318 0
M  V30 3679 H 352.114 -3.34248 -2.47826 0
M  V30 3680 H 350.99 -4.13027 -3.61524 0
M  V30 3681 H 351.251 -2.3961 -3.71536 0
M  V30 3682 N 350.31 0.590341 -1.46126 0
M  V30 3683 C 351.273 1.68194 -1.55703 0
M  V30 3684 C 352.273 1.54808 -0.434868 0
M  V30 3685 O 353.463 1.59564 -0.698928 0
M  V30 3686 C 350.595 3.07575 -1.47005 0
M  V30 3687 H 351.788 1.61064 -2.52979 0
M  V30 3688 H 349.341 0.807541 -1.33823 0
M  V30 3689 H 350.076 3.20268 -0.509785 0
M  V30 3690 H 349.861 3.187 -2.28414 0
M  V30 3691 H 351.351 3.87055 -1.56776 0
M  V30 3692 N 351.788 1.33704 0.83433 0
M  V30 3693 C 353.018 1.28281 1.6195 0
M  V30 3694 C 353.426 -0.147603 1.88623 0
M  V30 3695 O 352.769 -1.1016 1.47005 0
M  V30 3696 C 352.831 1.99386 2.99141 0
M  V30 3697 C 352.495 3.48681 2.95416 0
M  V30 3698 C 353.492 4.438 2.70809 0
M  V30 3699 C 351.177 3.90925 3.15409 0
M  V30 3700 C 353.171 5.79138 2.66229 0
M  V30 3701 C 350.858 5.26366 3.10454 0
M  V30 3702 C 351.856 6.20284 2.85895 0
M  V30 3703 O 351.544 7.53245 2.80852 0
M  V30 3704 H 351.276 0.44315 0.510484 0
M  V30 3705 H 353.83 1.76711 1.04702 0
M  V30 3706 H 352.06 1.45554 3.58261 0
M  V30 3707 H 353.749 1.87403 3.60049 0
M  V30 3708 H 354.515 4.12485 2.5511 0
M  V30 3709 H 350.394 3.18229 3.33543 0
M  V30 3710 H 353.938 6.52416 2.4698 0
M  V30 3711 H 349.835 5.57304 3.25703 0
M  V30 3712 H 350.603 7.62846 2.96661 0
M  V30 3713 N 353.266 -1.05314 1.17247 0
M  V30 3714 C 354.214 -2.15137 0.884238 0
M  V30 3715 C 355.208 -1.68729 -0.15063 0
M  V30 3716 O 356.414 -1.8 -0.00366673 0
M  V30 3717 H 352.789 -0.702471 0.2684 0
M  V30 3718 H 354.76 -2.36652 1.81764 0
M  V30 3719 C 353.509 -3.45243 0.412659 0
M  V30 3720 H 352.832 -3.81352 1.20043 0
M  V30 3721 H 354.272 -4.23263 0.249858 0
M  V30 3722 C 352.731 -3.25487 -0.86948 0
M  V30 3723 O 353.261 -3.51938 -1.93655 0
M  V30 3724 N 351.467 -2.78875 -0.817147 0
M  V30 3725 H 351.014 -2.57549 0.0514211 0
M  V30 3726 H 350.972 -2.66036 -1.67547 0
M  V30 3727 N 354.744 -0.972509 -1.24016 0
M  V30 3728 C 356.155 -0.67517 -1.74064 0
M  V30 3729 C 356.506 0.808939 -1.78747 0
M  V30 3730 O 355.631 1.63286 -1.42009 0
M  V30 3731 C 356.226 -1.21889 -3.16115 0
M  V30 3732 C 354.785 -0.971358 -3.6365 0
M  V30 3733 C 353.932 -1.35134 -2.42145 0
M  V30 3734 H 356.883 -1.14727 -1.09651 0
M  V30 3735 H 356.904 -0.587489 -3.75937 0
M  V30 3736 H 356.416 -2.29906 -3.12674 0
M  V30 3737 H 354.517 0.0930686 -3.72484 0
M  V30 3738 H 354.63 -1.62039 -4.50866 0
M  V30 3739 H 352.994 -0.769751 -2.4279 0
M  V30 3740 H 353.777 -2.4411 -2.41381 0
M  V30 3741 N 356.222 1.38976 -0.743202 0
M  V30 3742 C 357.468 2.01114 -0.304109 0
M  V30 3743 C 357.823 1.57929 1.09892 0
M  V30 3744 O 357.116 0.801983 1.74008 0
M  V30 3745 C 357.31 3.55647 -0.353517 0
M  V30 3746 C 357.139 4.13837 -1.75981 0
M  V30 3747 C 355.909 4.46062 -2.37395 0
M  V30 3748 C 358.107 4.36812 -2.71477 0
M  V30 3749 N 356.089 4.898 -3.70093 0
M  V30 3750 C 357.46 4.82844 -3.88923 0
M  V30 3751 C 359.515 4.18893 -2.69134 0
M  V30 3752 C 358.218 5.12837 -5.04371 0
M  V30 3753 C 360.244 4.50005 -3.83731 0
M  V30 3754 C 359.606 4.96251 -4.99914 0
M  V30 3755 H 355.705 0.765931 -0.157716 0
M  V30 3756 H 358.289 1.68763 -0.970931 0
M  V30 3757 H 356.46 3.87368 0.282987 0
M  V30 3758 H 358.192 4.04564 0.104904 0
M  V30 3759 H 354.947 4.34145 -1.89248 0
M  V30 3760 H 355.371 5.16016 -4.38242 0
M  V30 3761 H 360.013 3.82335 -1.80499 0
M  V30 3762 H 357.731 5.48297 -5.9363 0
M  V30 3763 H 361.317 4.37755 -3.83225 0
M  V30 3764 H 360.197 5.19867 -5.87118 0
M  V30 3765 N 357.7 0.491464 1.49741 0
M  V30 3766 C 358.633 -0.338464 2.25676 0
M  V30 3767 C 359.611 -0.978676 1.29849 0
M  V30 3768 O 360.795 -1.01064 1.59117 0
M  V30 3769 C 357.922 -1.47588 3.04853 0
M  V30 3770 C 356.968 -0.951 4.15762 0
M  V30 3771 S 357.801 0.150626 5.35288 0
M  V30 3772 C 358.957 -0.990178 6.18018 0
M  V30 3773 H 359.19 0.306068 2.9572 0
M  V30 3774 H 356.723 0.276622 1.51902 0
M  V30 3775 H 358.681 -2.12764 3.51058 0
M  V30 3776 H 357.342 -2.09199 2.34296 0
M  V30 3777 H 356.535 -1.80311 4.70642 0
M  V30 3778 H 356.137 -0.376607 3.72099 0
M  V30 3779 H 358.429 -1.89748 6.50386 0
M  V30 3780 H 359.372 -0.480205 7.0647 0
M  V30 3781 H 359.78 -1.25321 5.50413 0
M  V30 3782 N 359.178 -1.55987 0.224894 0
M  V30 3783 C 360.455 -1.90232 -0.455083 0
M  V30 3784 C 360.835 -1.14269 -1.77499 0
M  V30 3785 O 360.183 -0.253079 -2.27094 0
M  V30 3786 C 360.393 -3.42993 -0.644758 0
M  V30 3787 C 361.741 -4.13821 -0.950669 0
M  V30 3788 O 362.765 -3.4861 -0.731423 0
M  V30 3789 O 361.624 -5.29128 -1.36695 0
M  V30 3790 H 358.718 -0.79108 -0.241084 0
M  V30 3791 H 361.264 -1.67581 0.267327 0
M  V30 3792 H 360.036 -3.90252 0.28613 0
M  V30 3793 H 359.659 -3.71434 -1.41853 0
M  V30 3794 N 360.656 0.0484629 -1.57525 0
M  V30 3795 C 361.905 0.742065 -1.87553 0
M  V30 3796 C 362.218 1.77545 -0.820802 0
M  V30 3797 O 363.424 2.52027 -1.00967 0
M  V30 3798 C 361.88 1.37081 -3.32771 0
M  V30 3799 C 361.488 0.374786 -4.4643 0
M  V30 3800 C 363.232 2.04542 -3.71972 0
M  V30 3801 C 361.139 1.01077 -5.82698 0
M  V30 3802 H 360.069 0.280903 -0.699721 0
M  V30 3803 H 362.72 -0.00411877 -1.835 0
M  V30 3804 H 361.102 2.16605 -3.31509 0
M  V30 3805 H 362.276 -0.392331 -4.59127 0
M  V30 3806 H 360.591 -0.196653 -4.15935 0
M  V30 3807 H 363.188 2.52943 -4.71088 0
M  V30 3808 H 363.531 2.85515 -3.02964 0
M  V30 3809 H 364.064 1.31819 -3.75325 0
M  V30 3810 H 360.803 0.240878 -6.55057 0
M  V30 3811 H 360.323 1.74819 -5.73758 0
M  V30 3812 H 362.002 1.52383 -6.28799 0
M  V30 3813 N 362.134 1.5431 0.320358 0
M  V30 3814 C 363.55 1.45091 0.664889 0
M  V30 3815 C 363.75 0.626382 1.91517 0
M  V30 3816 O 362.806 0.126443 2.52183 0
M  V30 3817 C 364.119 2.88848 0.83591 0
M  V30 3818 C 365.667 2.9877 0.933046 0
M  V30 3819 C 366.142 4.43683 1.13621 0
M  V30 3820 N 367.633 4.47309 1.20287 0
M  V30 3821 C 368.368 5.56595 1.37801 0
M  V30 3822 N 367.864 6.75844 1.52338 0
M  V30 3823 N 369.657 5.44248 1.40535 0
M  V30 3824 H 361.808 2.06398 -0.501374 0
M  V30 3825 H 364.071 0.933963 -0.162534 0
M  V30 3826 H 363.777 3.51698 -0.0116092 0
M  V30 3827 H 363.651 3.35148 1.73078 0
M  V30 3828 H 366.038 2.36045 1.77107 0
M  V30 3829 H 366.119 2.55796 0.0145782 0
M  V30 3830 H 365.763 5.06995 0.303032 0
M  V30 3831 H 365.693 4.84269 2.0686 0
M  V30 3832 H 368.184 3.61388 1.10485 0
M  V30 3833 H 368.497 7.54892 1.65403 0
M  V30 3834 H 366.842 6.78746 1.4943 0
M  V30 3835 H 370.033 4.50038 1.28777 0
M  V30 3836 H 370.206 6.29473 1.53842 0
M  V30 3837 N 363.613 -0.582584 1.46437 0
M  V30 3838 C 364.545 -1.70618 1.53043 0
M  V30 3839 C 365.558 -1.57322 0.418769 0
M  V30 3840 O 366.747 -1.64744 0.687136 0
M  V30 3841 C 363.847 -3.08869 1.39474 0
M  V30 3842 C 363.02 -3.48166 2.64762 0
M  V30 3843 C 362.079 -4.65478 2.4539 0
M  V30 3844 O 361.105 -4.71333 3.19114 0
M  V30 3845 N 362.307 -5.60365 1.51564 0
M  V30 3846 H 365.072 -1.65405 2.49923 0
M  V30 3847 H 362.633 -0.768567 1.42494 0
M  V30 3848 H 364.625 -3.85143 1.24287 0
M  V30 3849 H 363.195 -3.08449 0.507758 0
M  V30 3850 H 362.415 -2.61598 2.9489 0
M  V30 3851 H 363.703 -3.71188 3.4799 0
M  V30 3852 H 363.101 -5.5837 0.907705 0
M  V30 3853 H 361.658 -6.36068 1.4234 0
M  V30 3854 N 365.091 -1.34144 -0.827227 0
M  V30 3855 C 366.507 -1.13732 -1.11969 0
M  V30 3856 C 366.707 0.0640463 -2.01398 0
M  V30 3857 O 365.763 0.740856 -2.41387 0
M  V30 3858 C 367.076 -2.43047 -1.77055 0
M  V30 3859 C 368.624 -2.49063 -1.89569 0
M  V30 3860 C 369.099 -3.78369 -2.58072 0
M  V30 3861 N 370.59 -3.79505 -2.65575 0
M  V30 3862 C 371.325 -4.76274 -3.19297 0
M  V30 3863 N 370.821 -5.83424 -3.73616 0
M  V30 3864 N 372.614 -4.63735 -3.17658 0
M  V30 3865 H 364.765 -2.11126 -0.232296 0
M  V30 3866 H 367.028 -0.933424 -0.165602 0
M  V30 3867 H 366.734 -3.31025 -1.18807 0
M  V30 3868 H 366.608 -2.56066 -2.76966 0
M  V30 3869 H 368.995 -1.61527 -2.46968 0
M  V30 3870 H 369.076 -2.39975 -0.885745 0
M  V30 3871 H 368.72 -4.66293 -2.01329 0
M  V30 3872 H 368.65 -3.84737 -3.59562 0
M  V30 3873 H 371.141 -3.02074 -2.27068 0
M  V30 3874 H 371.454 -6.53282 -4.12846 0
M  V30 3875 H 369.799 -5.87143 -3.71871 0
M  V30 3876 H 372.99 -3.79177 -2.74486 0
M  V30 3877 H 373.163 -5.39318 -3.59221 0
M  V30 3878 N 366.569 1.04691 -1.17803 0
M  V30 3879 C 367.479 2.16057 -0.914151 0
M  V30 3880 C 368.495 1.73589 0.119503 0
M  V30 3881 O 369.671 2.01308 -0.0609468 0
M  V30 3882 C 366.736 3.4394 -0.436603 0
M  V30 3883 C 365.797 4.00825 -1.53746 0
M  V30 3884 C 365.03 5.22604 -1.0826 0
M  V30 3885 O 365.253 5.70367 0.0612244 0
M  V30 3886 O 364.187 5.7186 -1.87775 0
M  V30 3887 H 368.013 2.41169 -1.84584 0
M  V30 3888 H 365.598 1.1453 -0.959334 0
M  V30 3889 H 367.48 4.21024 -0.178057 0
M  V30 3890 H 366.155 3.20316 0.466869 0
M  V30 3891 H 365.062 3.25158 -1.84995 0
M  V30 3892 H 366.395 4.28778 -2.41683 0
M  V30 3893 N 368.047 0.979072 1.23499 0
M  V30 3894 C 369.324 0.563674 1.87302 0
M  V30 3895 C 369.704 -0.959199 1.88049 0
M  V30 3896 O 369.052 -1.83535 1.36114 0
M  V30 3897 C 369.262 1.16822 3.28867 0
M  V30 3898 C 370.61 1.26014 4.0547 0
M  V30 3899 O 371.634 1.12158 3.38082 0
M  V30 3900 O 370.493 1.48044 5.26066 0
M  V30 3901 H 367.587 0.189602 0.804972 0
M  V30 3902 H 370.133 1.07407 1.31384 0
M  V30 3903 H 368.905 2.21049 3.22883 0
M  V30 3904 H 368.528 0.642564 3.92373 0
M  V30 3905 N 369.525 -1.3858 0.750561 0
M  V30 3906 C 370.771 -2.00481 0.305825 0
M  V30 3907 C 371.104 -1.5944 -1.10872 0
M  V30 3908 O 370.379 -0.83052 -1.75877 0
M  V30 3909 C 370.662 -3.5758 0.425287 0
M  V30 3910 C 370.515 -4.08594 1.88072 0
M  V30 3911 C 371.834 -4.39719 -0.183122 0
M  V30 3912 H 368.953 -0.728348 0.112598 0
M  V30 3913 H 371.595 -1.64566 0.949638 0
M  V30 3914 H 369.745 -3.88306 -0.122828 0
M  V30 3915 H 371.417 -3.88523 2.48691 0
M  V30 3916 H 369.66 -3.61574 2.39681 0
M  V30 3917 H 370.331 -5.177 1.91548 0
M  V30 3918 H 372.807 -4.15128 0.284303 0
M  V30 3919 H 371.683 -5.48856 -0.0692757 0
M  V30 3920 H 371.944 -4.23434 -1.27106 0
M  V30 3921 N 371.003 -0.499398 -1.49478 0
M  V30 3922 C 371.935 0.316575 -2.27003 0
M  V30 3923 C 372.948 0.932047 -1.33479 0
M  V30 3924 O 374.137 0.815658 -1.58774 0
M  V30 3925 C 371.237 1.46055 -3.05812 0
M  V30 3926 C 370.41 0.952679 -4.26899 0
M  V30 3927 C 369.469 1.97407 -4.87767 0
M  V30 3928 O 368.495 1.54326 -5.4788 0
M  V30 3929 N 369.697 3.30436 -4.77276 0
M  V30 3930 H 372.462 -0.348168 -2.97671 0
M  V30 3931 H 370.023 -0.33185 -1.58463 0
M  V30 3932 H 372.015 2.14135 -3.43407 0
M  V30 3933 H 370.585 2.02948 -2.37762 0
M  V30 3934 H 369.805 0.0968248 -3.94081 0
M  V30 3935 H 371.093 0.59174 -5.05347 0
M  V30 3936 H 370.491 3.68126 -4.29534 0
M  V30 3937 H 369.048 3.94235 -5.19059 0
M  V30 3938 N 372.481 1.55866 -0.233164 0
M  V30 3939 C 373.444 2.1953 0.658715 0
M  V30 3940 C 374.444 1.16053 1.11303 0
M  V30 3941 O 375.634 1.41218 1.01996 0
M  V30 3942 C 372.766 2.82791 1.90373 0
M  V30 3943 H 373.959 2.99721 0.10347 0
M  V30 3944 H 371.512 1.56291 0.0164245 0
M  V30 3945 H 372.247 2.06501 2.50056 0
M  V30 3946 H 372.032 3.58578 1.58632 0
M  V30 3947 H 373.522 3.31556 2.53891 0
M  V30 3948 N 373.959 -0.0401083 1.57549 0
M  V30 3949 C 374.889 -1.04384 2.08869 0
M  V30 3950 C 375.87 -1.38407 0.988817 0
M  V30 3951 O 377.055 -1.47483 1.26342 0
M  V30 3952 C 374.185 -2.34808 2.55895 0
M  V30 3953 C 373.139 -2.15057 3.70047 0
M  V30 3954 C 372.465 -3.51145 4.03239 0
M  V30 3955 C 373.765 -1.54576 4.98902 0
M  V30 3956 H 375.459 -0.616666 2.92981 0
M  V30 3957 H 373.005 -0.295184 1.40942 0
M  V30 3958 H 374.958 -3.05346 2.90417 0
M  V30 3959 H 373.682 -2.79565 1.68853 0
M  V30 3960 H 372.341 -1.46954 3.35857 0
M  V30 3961 H 371.989 -3.93529 3.13279 0
M  V30 3962 H 371.689 -3.38758 4.80122 0
M  V30 3963 H 373.213 -4.23062 4.40285 0
M  V30 3964 H 374.627 -2.15017 5.31451 0
M  V30 3965 H 373.024 -1.52796 5.80322 0
M  V30 3966 H 374.094 -0.51039 4.82206 0
M  V30 3967 N 375.437 -1.54477 -0.31217 0
M  V30 3968 C 376.385 -1.85395 -1.40469 0
M  V30 3969 C 377.379 -0.726749 -1.53019 0
M  V30 3970 O 378.585 -0.910582 -1.55269 0
M  V30 3971 H 374.96 -0.587845 -0.46898 0
M  V30 3972 H 376.931 -2.76736 -1.11623 0
M  V30 3973 C 375.68 -2.10811 -2.76503 0
M  V30 3974 H 375.003 -2.97014 -2.67625 0
M  V30 3975 H 376.443 -2.3639 -3.51988 0
M  V30 3976 C 374.902 -0.903165 -3.24568 0
M  V30 3977 O 375.432 -0.118085 -4.01526 0
M  V30 3978 N 373.638 -0.711634 -2.81752 0
M  V30 3979 H 373.185 -1.35171 -2.19286 0
M  V30 3980 H 373.143 0.0930473 -3.14262 0
M  V30 3981 N 376.915 0.57481 -1.46744 0
M  V30 3982 C 378.164 1.32898 -1.51727 0
M  V30 3983 C 378.477 1.948 -0.176692 0
M  V30 3984 O 379.683 2.71299 -0.104385 0
M  V30 3985 C 378.139 2.40901 -2.67385 0
M  V30 3986 C 377.747 1.85266 -4.07898 0
M  V30 3987 C 379.491 3.17609 -2.81646 0
M  V30 3988 C 377.398 2.90945 -5.14883 0
M  V30 3989 H 376.328 0.499631 -0.564699 0
M  V30 3990 H 378.979 0.612536 -1.72975 0
M  V30 3991 H 377.361 3.15379 -2.39483 0
M  V30 3992 H 378.535 1.17278 -4.45626 0
M  V30 3993 H 376.85 1.21199 -3.98371 0
M  V30 3994 H 379.447 3.96493 -3.58744 0
M  V30 3995 H 379.79 3.70696 -1.89448 0
M  V30 3996 H 380.323 2.50239 -3.09233 0
M  V30 3997 H 377.062 2.42736 -6.089 0
M  V30 3998 H 376.582 3.57398 -4.81691 0
M  V30 3999 H 378.261 3.54755 -5.41071 0
M  V30 4000 N 378.394 1.34581 0.820102 0
M  V30 4001 C 379.619 1.30333 1.61332 0
M  V30 4002 C 380.044 -0.119339 1.87721 0
M  V30 4003 O 379.402 -1.08197 1.45475 0
M  V30 4004 C 379.45 2.10258 2.92957 0
M  V30 4005 O 378.554 1.47404 3.85157 0
M  V30 4006 H 377.895 0.447488 0.490561 0
M  V30 4007 H 380.425 1.77425 1.01889 0
M  V30 4008 H 380.435 2.21718 3.42498 0
M  V30 4009 H 379.11 3.13693 2.73074 0
M  V30 4010 H 377.687 1.44703 3.43679 0
M  V30 4011 N 379.872 -1.04064 1.18357 0
M  V30 4012 C 381.118 -1.77528 0.980397 0
M  V30 4013 C 381.451 -1.87948 -0.48879 0
M  V30 4014 O 380.726 -1.3876 -1.36293 0
M  V30 4015 C 381.009 -3.20797 1.63588 0
M  V30 4016 C 380.862 -3.1832 3.17793 0
M  V30 4017 C 382.181 -4.18911 1.34914 0
M  V30 4018 H 379.3 -0.644443 0.357578 0
M  V30 4019 H 381.942 -1.2156 1.46024 0
M  V30 4020 H 380.092 -3.68586 1.22788 0
M  V30 4021 H 381.764 -2.78521 3.67728 0
M  V30 4022 H 380.007 -2.56351 3.49952 0
M  V30 4023 H 380.678 -4.19489 3.58794 0
M  V30 4024 H 383.154 -3.7967 1.70265 0
M  V30 4025 H 382.03 -5.17374 1.83346 0
M  V30 4026 H 382.291 -4.41262 0.272027 0
M  V30 4027 N 381.35 -0.985608 -1.22978 0
M  V30 4028 C 382.761 -0.693593 -1.73338 0
M  V30 4029 C 383.112 0.789935 -1.79595 0
M  V30 4030 O 382.237 1.61771 -1.43733 0
M  V30 4031 C 382.832 -1.25235 -3.14804 0
M  V30 4032 C 381.391 -1.00987 -3.626 0
M  V30 4033 C 380.538 -1.37695 -2.40698 0
M  V30 4034 H 383.489 -1.15884 -1.08428 0
M  V30 4035 H 383.51 -0.627329 -3.75293 0
M  V30 4036 H 383.022 -2.33209 -3.10218 0
M  V30 4037 H 381.123 0.0535565 -3.72562 0
M  V30 4038 H 381.236 -1.66812 -4.49122 0
M  V30 4039 H 379.6 -0.795459 -2.4196 0
M  V30 4040 H 380.383 -2.46657 -2.38779 0
M  V30 4041 N 382.828 1.3818 -0.7579 0
M  V30 4042 C 384.058 2.04004 -0.326463 0
M  V30 4043 C 384.466 1.57286 1.05156 0
M  V30 4044 O 383.809 0.743144 1.67997 0
M  V30 4045 C 383.871 3.58444 -0.275402 0
M  V30 4046 C 383.535 4.28237 -1.59569 0
M  V30 4047 C 384.532 4.53312 -2.54566 0
M  V30 4048 C 382.217 4.66341 -1.86631 0
M  V30 4049 C 384.211 5.15531 -3.74842 0
M  V30 4050 C 381.898 5.28283 -3.0718 0
M  V30 4051 C 382.896 5.52814 -4.01106 0
M  V30 4052 O 382.584 6.13465 -5.19534 0
M  V30 4053 H 382.316 0.662026 -0.136739 0
M  V30 4054 H 384.87 1.7777 -1.02893 0
M  V30 4055 H 383.1 3.83667 0.483337 0
M  V30 4056 H 384.789 4.05701 0.127099 0
M  V30 4057 H 385.555 4.24299 -2.34936 0
M  V30 4058 H 381.434 4.46591 -1.14358 0
M  V30 4059 H 384.978 5.34594 -4.48168 0
M  V30 4060 H 380.875 5.56719 -3.26702 0
M  V30 4061 H 381.643 6.31951 -5.20173 0
M  V30 4062 N 384.306 0.507319 1.49211 0
M  V30 4063 C 385.554 -0.0348839 2.0207 0
M  V30 4064 C 385.875 -1.36898 1.38866 0
M  V30 4065 O 385.145 -1.88133 0.546151 0
M  V30 4066 H 383.725 -0.0158812 0.746831 0
M  V30 4067 H 386.387 0.665998 1.83168 0
M  V30 4068 H 385.483 -0.159917 3.1169 0
M  V30 4069 N 385.784 -1.5574 0.241426 0
M  V30 4070 C 387.195 -1.84842 -0.262755 0
M  V30 4071 C 387.546 -1.16317 -1.58003 0
M  V30 4072 O 386.671 -0.439653 -2.11887 0
M  V30 4073 C 387.266 -3.35332 -0.483523 0
M  V30 4074 C 385.825 -3.6468 -0.931977 0
M  V30 4075 C 384.972 -2.77299 -0.0061151 0
M  V30 4076 H 387.923 -1.51761 0.464129 0
M  V30 4077 H 387.944 -3.56615 -1.32688 0
M  V30 4078 H 387.456 -3.85178 0.47537 0
M  V30 4079 H 385.557 -3.20307 -1.90353 0
M  V30 4080 H 385.67 -4.72498 -0.792628 0
M  V30 4081 H 384.034 -2.49408 -0.516503 0
M  V30 4082 H 384.817 -3.2995 0.948052 0
M  V30 4083 N 387.262 0.0317525 -1.57568 0
M  V30 4084 C 388.511 0.722131 -1.8833 0
M  V30 4085 C 388.824 1.76664 -0.839587 0
M  V30 4086 O 390.03 2.50942 -1.03635 0
M  V30 4087 C 388.486 1.33544 -3.34207 0
M  V30 4088 C 388.094 0.327415 -4.46802 0
M  V30 4089 C 389.838 2.00585 -3.7412 0
M  V30 4090 C 387.745 0.948915 -5.83738 0
M  V30 4091 H 386.675 0.273466 -0.702661 0
M  V30 4092 H 389.326 -0.0235811 -1.83485 0
M  V30 4093 H 387.708 2.13077 -3.33788 0
M  V30 4094 H 388.882 -0.441006 -4.58685 0
M  V30 4095 H 387.197 -0.240758 -4.15703 0
M  V30 4096 H 389.794 2.47932 -4.73744 0
M  V30 4097 H 390.137 2.82285 -3.05975 0
M  V30 4098 H 390.67 1.27831 -3.76702 0
M  V30 4099 H 387.409 0.171387 -6.55276 0
M  V30 4100 H 386.929 1.68724 -5.7558 0
M  V30 4101 H 388.608 1.45705 -6.3038 0
M  V30 4102 N 388.74 1.54641 0.303973 0
M  V30 4103 C 390.151 1.64811 0.877163 0
M  V30 4104 C 390.502 0.554838 1.88191 0
M  V30 4105 O 389.627 -0.309033 2.14182 0
M  V30 4106 C 390.222 2.9876 1.59775 0
M  V30 4107 C 388.781 3.11061 2.11938 0
M  V30 4108 C 387.928 2.60479 0.951097 0
M  V30 4109 H 390.879 1.58493 0.0810486 0
M  V30 4110 H 390.9 2.90017 2.46314 0
M  V30 4111 H 390.412 3.7831 0.866226 0
M  V30 4112 H 388.513 2.36225 2.88146 0
M  V30 4113 H 388.626 4.17171 2.35595 0
M  V30 4114 H 386.99 2.16859 1.33583 0
M  V30 4115 H 387.773 3.42504 0.233581 0
M  V30 4116 N 390.218 -0.567019 1.47046 0
M  V30 4117 C 391.464 -1.32658 1.53394 0
M  V30 4118 C 391.797 -1.93254 0.19148 0
M  V30 4119 O 391.072 -1.77338 -0.798844 0
M  V30 4120 C 391.355 -2.44412 2.64452 0
M  V30 4121 C 391.208 -1.88749 4.08282 0
M  V30 4122 C 392.527 -3.46387 2.71485 0
M  V30 4123 H 389.646 -0.48098 0.558415 0
M  V30 4124 H 392.288 -0.635481 1.79058 0
M  V30 4125 H 390.438 -3.03363 2.427 0
M  V30 4126 H 392.11 -1.34134 4.41368 0
M  V30 4127 H 390.353 -1.19481 4.17021 0
M  V30 4128 H 391.024 -2.69491 4.81745 0
M  V30 4129 H 393.5 -2.9734 2.91081 0
M  V30 4130 H 392.376 -4.2202 3.50985 0
M  V30 4131 H 392.637 -4.04616 1.78153 0
M  V30 4132 N 391.696 -1.35014 -0.812953 0
M  V30 4133 C 392.973 -1.18502 -1.55617 0
M  V30 4134 C 393.353 0.238421 -2.09749 0
M  V30 4135 O 392.701 1.2411 -1.91857 0
M  V30 4136 C 392.911 -2.24783 -2.66971 0
M  V30 4137 C 394.259 -2.60268 -3.35478 0
M  V30 4138 O 395.283 -2.23648 -2.77236 0
M  V30 4139 O 394.142 -3.2321 -4.40678 0
M  V30 4140 H 391.236 -0.459984 -0.687272 0
M  V30 4141 H 393.782 -1.46677 -0.853464 0
M  V30 4142 H 392.554 -3.20284 -2.24798 0
M  V30 4143 H 392.177 -1.97841 -3.44884 0
M  V30 4144 N 393.175 1.03435 -1.18907 0
M  V30 4145 C 394.422 1.76743 -0.988334 0
M  V30 4146 C 394.75 1.88447 0.481441 0
M  V30 4147 O 394.005 1.39383 1.37371 0
M  V30 4148 C 394.304 3.19792 -1.59586 0
M  V30 4149 C 393.97 3.28108 -3.09283 0
M  V30 4150 C 392.632 3.30084 -3.5014 0
M  V30 4151 C 394.984 3.27696 -4.05296 0
M  V30 4152 C 392.312 3.29299 -4.85571 0
M  V30 4153 C 394.664 3.28451 -5.4065 0
M  V30 4154 C 393.328 3.28723 -5.80946 0
M  V30 4155 H 392.598 0.64675 -0.361657 0
M  V30 4156 H 395.245 1.21442 -1.48068 0
M  V30 4157 H 393.55 3.78136 -1.02568 0
M  V30 4158 H 395.247 3.75171 -1.41589 0
M  V30 4159 H 391.837 3.27294 -2.76725 0
M  V30 4160 H 396.021 3.25354 -3.74778 0
M  V30 4161 H 391.277 3.2783 -5.16079 0
M  V30 4162 H 395.451 3.27082 -6.14809 0
M  V30 4163 H 393.078 3.27868 -6.85862 0
M  V30 4164 N 394.653 0.992116 1.22453 0
M  V30 4165 C 395.585 0.500024 2.23679 0
M  V30 4166 C 396.598 -0.404463 1.57696 0
M  V30 4167 O 397.787 -0.206722 1.77299 0
M  V30 4168 C 394.887 -0.294711 3.37616 0
M  V30 4169 C 394.06 0.605723 4.33186 0
M  V30 4170 C 393.119 -0.13717 5.26021 0
M  V30 4171 O 392.145 0.477164 5.67196 0
M  V30 4172 N 393.347 -1.4197 5.62872 0
M  V30 4173 H 396.112 1.37045 2.66531 0
M  V30 4174 H 393.673 0.866741 1.36745 0
M  V30 4175 H 395.665 -0.800329 3.96707 0
M  V30 4176 H 394.235 -1.06623 2.93854 0
M  V30 4177 H 393.455 1.29202 3.72425 0
M  V30 4178 H 394.743 1.21896 4.93983 0
M  V30 4179 H 394.141 -1.94015 5.31389 0
M  V30 4180 H 392.698 -1.87052 6.24383 0
M  V30 4181 N 396.131 -1.37776 0.765217 0
M  V30 4182 C 397.547 -1.53297 0.444108 0
M  V30 4183 C 397.747 -1.72515 -1.04119 0
M  V30 4184 O 396.803 -1.74278 -1.82711 0
M  V30 4185 C 398.116 -2.73328 1.25349 0
M  V30 4186 C 399.664 -2.87185 1.24473 0
M  V30 4187 C 400.139 -4.10191 2.03733 0
M  V30 4188 N 401.63 -4.17291 2.01053 0
M  V30 4189 C 402.365 -5.11488 2.59166 0
M  V30 4190 N 401.861 -6.11285 3.26041 0
M  V30 4191 N 403.654 -5.03924 2.49032 0
M  V30 4192 H 395.805 -1.23552 1.72768 0
M  V30 4193 H 398.068 -0.601103 0.733062 0
M  V30 4194 H 397.774 -2.6557 2.30577 0
M  V30 4195 H 397.648 -3.66834 0.87823 0
M  V30 4196 H 400.035 -2.94418 0.20047 0
M  V30 4197 H 400.116 -1.94657 1.65959 0
M  V30 4198 H 399.76 -4.0372 3.08176 0
M  V30 4199 H 399.69 -5.01821 1.59633 0
M  V30 4200 H 402.181 -3.45825 1.5236 0
M  V30 4201 H 402.494 -6.79678 3.67774 0
M  V30 4202 H 400.839 -6.11583 3.30138 0
M  V30 4203 H 404.03 -4.24902 1.96407 0
M  V30 4204 H 404.203 -5.77152 2.94617 0
M  V30 4205 N 397.609 -0.515225 -1.4894 0
M  V30 4206 C 398.556 0.255567 -2.29381 0
M  V30 4207 C 399.526 0.947387 -1.36432 0
M  V30 4208 O 400.711 0.951288 -1.65394 0
M  V30 4209 C 397.851 1.30551 -3.19453 0
M  V30 4210 C 396.964 0.624029 -4.27469 0
M  V30 4211 C 396.099 1.65563 -5.0474 0
M  V30 4212 C 395.138 0.956802 -6.04576 0
M  V30 4213 N 394.275 1.93326 -6.74959 0
M  V30 4214 H 399.115 -0.436607 -2.94784 0
M  V30 4215 H 396.652 -0.227154 -1.45336 0
M  V30 4216 H 398.61 1.92639 -3.70062 0
M  V30 4217 H 397.24 1.96626 -2.56004 0
M  V30 4218 H 396.292 -0.110459 -3.8024 0
M  V30 4219 H 397.604 0.0746092 -4.98744 0
M  V30 4220 H 396.758 2.35119 -5.59289 0
M  V30 4221 H 395.497 2.23893 -4.3327 0
M  V30 4222 H 394.502 0.247097 -5.49244 0
M  V30 4223 H 395.727 0.379814 -6.78037 0
M  V30 4224 H 393.673 2.50591 -6.06251 0
M  V30 4225 H 393.59 1.43489 -7.42258 0
M  V30 4226 H 394.858 2.62126 -7.34105 0
M  V30 4227 N 399.087 1.5561 -0.249682 0
M  V30 4228 C 400.336 1.98187 0.37479 0
M  V30 4229 C 400.649 1.14111 1.58865 0
M  V30 4230 O 401.855 1.46714 2.28445 0
M  V30 4231 C 400.311 3.52661 0.718192 0
M  V30 4232 C 399.919 4.45481 -0.474428 0
M  V30 4233 C 401.663 4.03888 1.3067 0
M  V30 4234 C 399.57 5.91303 -0.107026 0
M  V30 4235 H 398.5 0.740159 0.143808 0
M  V30 4236 H 401.151 1.80125 -0.350336 0
M  V30 4237 H 399.533 3.66429 1.50152 0
M  V30 4238 H 400.707 4.43473 -1.25172 0
M  V30 4239 H 399.022 4.04751 -0.978052 0
M  V30 4240 H 401.619 5.10358 1.59496 0
M  V30 4241 H 401.962 3.51401 2.23211 0
M  V30 4242 H 402.495 3.93457 0.586211 0
M  V30 4243 H 399.234 6.47833 -0.999642 0
M  V30 4244 H 398.754 5.9644 0.634013 0
M  V30 4245 H 400.433 6.46258 0.309807 0
M  V30 4246 N 400.565 -0.0233959 1.57583 0
M  V30 4247 C 401.981 -0.379134 1.55031 0
M  V30 4248 C 402.181 -1.76255 0.976548 0
M  V30 4249 O 401.237 -2.45266 0.600078 0
M  V30 4250 C 402.55 -0.275792 2.99433 0
M  V30 4251 C 404.098 -0.352458 3.11009 0
M  V30 4252 C 404.573 -0.278501 4.57152 0
M  V30 4253 N 406.064 -0.337123 4.61972 0
M  V30 4254 C 406.799 -0.302876 5.726 0
M  V30 4255 N 406.295 -0.220589 6.92449 0
M  V30 4256 N 408.088 -0.353023 5.6099 0
M  V30 4257 H 400.239 0.881869 1.93227 0
M  V30 4258 H 402.502 0.335867 0.886509 0
M  V30 4259 H 402.208 0.675108 3.4516 0
M  V30 4260 H 402.082 -1.06721 3.61788 0
M  V30 4261 H 404.469 -1.29379 2.65226 0
M  V30 4262 H 404.55 0.468409 2.51475 0
M  V30 4263 H 404.194 0.659189 5.03604 0
M  V30 4264 H 404.124 -1.11755 5.14605 0
M  V30 4265 H 406.615 -0.403002 3.75745 0
M  V30 4266 H 406.928 -0.199713 7.72542 0
M  V30 4267 H 405.273 -0.186555 6.9475 0
M  V30 4268 H 408.464 -0.415339 4.66254 0
M  V30 4269 H 408.637 -0.322866 6.47195 0
M  V30 4270 N 402.043 -1.548 -0.295768 0
M  V30 4271 C 402.975 -1.82492 -1.3867 0
M  V30 4272 C 403.988 -0.708134 -1.46592 0
M  V30 4273 O 405.177 -0.985686 -1.48817 0
M  V30 4274 C 402.277 -1.95256 -2.76999 0
M  V30 4275 C 401.45 -3.25709 -2.91946 0
M  V30 4276 C 400.509 -3.28824 -4.10806 0
M  V30 4277 O 399.535 -4.02328 -4.02643 0
M  V30 4278 N 400.737 -2.5459 -5.21694 0
M  V30 4279 H 403.502 -2.76646 -1.15269 0
M  V30 4280 H 401.063 -1.54438 -0.485849 0
M  V30 4281 H 403.055 -1.94736 -3.54768 0
M  V30 4282 H 401.625 -1.08072 -2.93324 0
M  V30 4283 H 400.845 -3.38959 -2.01247 0
M  V30 4284 H 402.133 -4.11786 -2.98847 0
M  V30 4285 H 401.531 -1.94512 -5.31208 0
M  V30 4286 H 400.088 -2.59818 -5.97778 0
M  V30 4287 N 403.521 0.559213 -1.47345 0
M  V30 4288 C 404.746 1.34676 -1.57725 0
M  V30 4289 C 405.171 1.86723 -0.227164 0
M  V30 4290 O 404.529 1.6286 0.796642 0
M  V30 4291 C 404.577 2.49399 -2.60447 0
M  V30 4292 O 403.681 3.51567 -2.15578 0
M  V30 4293 H 403.022 0.400115 -0.52991 0
M  V30 4294 H 405.552 0.676009 -1.93109 0
M  V30 4295 H 405.562 2.95996 -2.80803 0
M  V30 4296 H 404.237 2.10873 -3.58477 0
M  V30 4297 H 402.814 3.11289 -2.05313 0
M  V30 4298 N 404.999 1.35443 0.805782 0
M  V30 4299 C 406.229 1.31687 1.59192 0
M  V30 4300 C 406.637 -0.10756 1.88894 0
M  V30 4301 O 405.98 -1.07017 1.49309 0
M  V30 4302 C 406.042 2.05686 2.94845 0
M  V30 4303 C 405.706 3.54868 2.87954 0
M  V30 4304 C 406.703 4.49444 2.61335 0
M  V30 4305 C 404.388 3.97528 3.07046 0
M  V30 4306 C 406.382 5.84655 2.53885 0
M  V30 4307 C 404.069 5.32833 2.99219 0
M  V30 4308 C 405.067 6.26209 2.72674 0
M  V30 4309 O 404.755 7.59032 2.64811 0
M  V30 4310 H 404.487 0.453878 0.50097 0
M  V30 4311 H 407.041 1.78892 1.0093 0
M  V30 4312 H 405.271 1.5312 3.55093 0
M  V30 4313 H 406.96 1.94998 3.55993 0
M  V30 4314 H 407.726 4.17804 2.46303 0
M  V30 4315 H 403.605 3.25233 3.26718 0
M  V30 4316 H 407.149 6.57508 2.33086 0
M  V30 4317 H 403.046 5.64087 3.13809 0
M  V30 4318 H 403.814 7.68967 2.80413 0
M  V30 4319 N 406.477 -1.02803 1.19454 0
M  V30 4320 C 407.724 -1.76217 0.997693 0
M  V30 4321 C 408.052 -1.887 -0.47144 0
M  V30 4322 O 407.307 -1.4011 -1.3663 0
M  V30 4323 C 407.606 -3.18941 1.6128 0
M  V30 4324 C 407.272 -3.26463 3.11019 0
M  V30 4325 C 405.934 -3.28223 3.51885 0
M  V30 4326 C 408.286 -3.25542 4.07028 0
M  V30 4327 C 405.614 -3.26719 4.8731 0
M  V30 4328 C 407.966 -3.25579 5.42385 0
M  V30 4329 C 406.63 -3.25637 5.82681 0
M  V30 4330 H 405.9 -0.644823 0.365082 0
M  V30 4331 H 408.547 -1.20655 1.4871 0
M  V30 4332 H 406.852 -3.77587 1.04572 0
M  V30 4333 H 408.549 -3.74415 1.43577 0
M  V30 4334 H 405.139 -3.25822 2.78457 0
M  V30 4335 H 409.323 -3.23362 3.76498 0
M  V30 4336 H 404.579 -3.25089 5.1781 0
M  V30 4337 H 408.753 -3.23817 6.16535 0
M  V30 4338 H 406.38 -3.24226 6.87591 0
M  V30 4339 N 407.956 -0.998596 -1.21925 0
M  V30 4340 C 408.919 -0.558679 -2.22287 0
M  V30 4341 C 409.919 0.361525 -1.56683 0
M  V30 4342 O 411.109 0.152695 -1.73529 0
M  V30 4343 C 408.241 0.18661 -3.40389 0
M  V30 4344 H 409.434 -1.4463 -2.62721 0
M  V30 4345 H 406.987 -0.786413 -1.35075 0
M  V30 4346 H 407.722 1.08996 -3.05435 0
M  V30 4347 H 407.507 -0.474188 -3.89222 0
M  V30 4348 H 408.997 0.482367 -4.14805 0
M  V30 4349 N 409.434 1.37368 -0.772513 0
M  V30 4350 C 410.659 2.0447 -0.347386 0
M  V30 4351 C 411.084 1.57882 1.0225 0
M  V30 4352 O 410.442 0.73941 1.65537 0
M  V30 4353 C 410.49 3.58369 -0.400479 0
M  V30 4354 O 409.594 4.0803 0.598789 0
M  V30 4355 H 408.935 0.646773 -0.15027 0
M  V30 4356 H 411.465 1.75667 -1.04892 0
M  V30 4357 H 411.475 4.07183 -0.258045 0
M  V30 4358 H 410.15 3.91633 -1.39986 0
M  V30 4359 H 408.727 3.70534 0.419411 0
M  V30 4360 N 410.912 0.523116 1.48665 0
M  V30 4361 C 412.158 -0.0134963 2.02796 0
M  V30 4362 C 412.491 -1.34582 1.40004 0
M  V30 4363 O 411.766 -1.86756 0.543381 0
M  V30 4364 C 412.049 -0.14276 3.59817 0
M  V30 4365 C 411.902 1.21425 4.331 0
M  V30 4366 C 413.221 -0.872856 4.31357 0
M  V30 4367 H 410.34 -0.00343074 0.736992 0
M  V30 4368 H 412.982 0.678816 1.7746 0
M  V30 4369 H 411.132 -0.732401 3.81534 0
M  V30 4370 H 412.804 1.84447 4.2282 0
M  V30 4371 H 411.047 1.79791 3.94788 0
M  V30 4372 H 411.718 1.07687 5.41394 0
M  V30 4373 H 414.194 -0.372555 4.14429 0
M  V30 4374 H 413.07 -0.932185 5.40927 0
M  V30 4375 H 413.331 -1.92161 3.98154 0
M  V30 4376 N 412.39 -1.55475 0.257931 0
M  V30 4377 C 413.615 -2.04064 -0.370488 0
M  V30 4378 C 414.04 -1.13565 -1.49948 0
M  V30 4379 O 413.398 -0.130781 -1.80828 0
M  V30 4380 C 413.446 -3.50554 -0.845237 0
M  V30 4381 O 412.55 -3.63173 -1.95394 0
M  V30 4382 H 411.891 -0.659257 -0.0792243 0
M  V30 4383 H 414.421 -2.00903 0.387212 0
M  V30 4384 H 414.431 -3.91588 -1.14555 0
M  V30 4385 H 413.106 -4.15896 -0.0191259 0
M  V30 4386 H 411.683 -3.34039 -1.65748 0
M  V30 4387 N 413.868 0.0150385 -1.57593 0
M  V30 4388 C 415.098 0.713359 -1.93894 0
M  V30 4389 C 415.506 1.68663 -0.857289 0
M  V30 4390 O 414.849 1.82876 0.173788 0
M  V30 4391 C 414.911 1.51348 -3.26089 0
M  V30 4392 C 414.575 0.703451 -4.51554 0
M  V30 4393 C 415.572 -0.00237924 -5.199 0
M  V30 4394 C 413.257 0.653854 -4.98026 0
M  V30 4395 C 415.251 -0.746955 -6.33008 0
M  V30 4396 C 412.938 -0.0944578 -6.11027 0
M  V30 4397 C 413.936 -0.793609 -6.78374 0
M  V30 4398 O 413.624 -1.52974 -7.89211 0
M  V30 4399 H 413.356 0.204637 -0.644282 0
M  V30 4400 H 415.91 -0.0276411 -2.05381 0
M  V30 4401 H 414.14 2.29862 -3.10967 0
M  V30 4402 H 415.829 2.09572 -3.47612 0
M  V30 4403 H 416.595 0.0268803 -4.84993 0
M  V30 4404 H 412.474 1.18756 -4.45441 0
M  V30 4405 H 416.018 -1.2932 -6.85509 0
M  V30 4406 H 411.915 -0.125591 -6.45378 0
M  V30 4407 H 412.683 -1.44488 -8.05646 0
M  V30 4408 N 415.346 1.54954 0.287554 0
M  V30 4409 C 416.276 1.89839 1.35954 0
M  V30 4410 C 417.257 0.758675 1.52244 0
M  V30 4411 O 418.442 1.01557 1.65529 0
M  V30 4412 C 415.572 2.15753 2.72154 0
M  V30 4413 C 414.526 3.3159 2.70614 0
M  V30 4414 C 413.852 3.42952 4.10229 0
M  V30 4415 C 415.152 4.68359 2.31165 0
M  V30 4416 H 416.846 2.79625 1.07007 0
M  V30 4417 H 414.392 1.3454 0.513316 0
M  V30 4418 H 416.345 2.38743 3.47246 0
M  V30 4419 H 415.069 1.22752 3.02654 0
M  V30 4420 H 413.728 3.08545 1.97979 0
M  V30 4421 H 413.376 2.47443 4.37928 0
M  V30 4422 H 413.076 4.20826 4.10097 0
M  V30 4423 H 414.6 3.68218 4.87081 0
M  V30 4424 H 416.014 4.9099 2.95976 0
M  V30 4425 H 414.411 5.49044 2.42221 0
M  V30 4426 H 415.481 4.68165 1.26291 0
M  V30 4427 N 416.824 -0.551391 1.4764 0
M  V30 4428 C 418.101 -1.31229 1.45046 0
M  V30 4429 C 418.481 -2.10563 0.150527 0
M  V30 4430 O 417.829 -2.11374 -0.867956 0
M  V30 4431 C 418.039 -2.21189 2.69956 0
M  V30 4432 C 419.387 -2.82021 3.1741 0
M  V30 4433 O 420.411 -2.31488 2.70724 0
M  V30 4434 O 419.27 -3.73885 3.98588 0
M  V30 4435 H 416.364 -0.591193 0.578291 0
M  V30 4436 H 418.91 -0.569813 1.59847 0
M  V30 4437 H 417.682 -1.62207 3.56096 0
M  V30 4438 H 417.305 -3.02722 2.57769 0
M  V30 4439 N 418.302 -1.35869 -0.798587 0
M  V30 4440 C 419.53 -1.32722 -1.58722 0
M  V30 4441 C 419.945 0.0935631 -1.88568 0
M  V30 4442 O 419.302 1.04784 -1.49421 0
M  V30 4443 C 419.353 -2.13974 -2.91371 0
M  V30 4444 O 419.074 -3.50514 -2.62815 0
M  V30 4445 C 420.575 -2.18504 -3.85708 0
M  V30 4446 H 417.795 -0.45562 -0.492596 0
M  V30 4447 H 420.339 -1.78837 -0.991843 0
M  V30 4448 H 418.494 -1.71438 -3.47402 0
M  V30 4449 H 418.908 -3.92806 -3.47568 0
M  V30 4450 H 420.382 -2.79732 -4.75872 0
M  V30 4451 H 420.859 -1.18597 -4.22885 0
M  V30 4452 H 421.465 -2.61236 -3.35612 0
M  V30 4453 N 419.78 1.02168 -1.19998 0
M  V30 4454 C 420.712 2.10705 -0.901994 0
M  V30 4455 C 421.725 1.6244 0.108216 0
M  V30 4456 O 422.914 1.78082 -0.12214 0
M  V30 4457 C 420.014 3.37291 -0.329834 0
M  V30 4458 C 419.187 4.14714 -1.39035 0
M  V30 4459 C 418.246 5.19606 -0.830432 0
M  V30 4460 O 417.272 5.48809 -1.50989 0
M  V30 4461 N 418.474 5.79366 0.362696 0
M  V30 4462 H 421.239 2.36856 -1.83628 0
M  V30 4463 H 418.8 1.18518 -1.10296 0
M  V30 4464 H 420.792 4.04657 0.0587633 0
M  V30 4465 H 419.362 3.0843 0.508891 0
M  V30 4466 H 418.582 3.42392 -1.9535 0
M  V30 4467 H 419.87 4.63226 -2.10474 0
M  V30 4468 H 419.268 5.57968 0.932081 0
M  V30 4469 H 417.825 6.48106 0.69299 0
M  V30 4470 N 421.258 1.00505 1.21394 0
M  V30 4471 C 422.504 0.688793 1.90745 0
M  V30 4472 C 422.837 -0.778486 1.77914 0
M  V30 4473 O 422.112 -1.56433 1.15581 0
M  V30 4474 C 422.395 1.11063 3.42545 0
M  V30 4475 C 422.248 2.63737 3.64367 0
M  V30 4476 C 423.567 0.673059 4.34923 0
M  V30 4477 H 420.686 0.251702 0.692687 0
M  V30 4478 H 423.328 1.25074 1.43026 0
M  V30 4479 H 421.478 0.632508 3.83317 0
M  V30 4480 H 423.15 3.19313 3.32922 0
M  V30 4481 H 421.393 3.05248 3.08231 0
M  V30 4482 H 422.064 2.88305 4.70727 0
M  V30 4483 H 424.54 1.08392 4.01734 0
M  V30 4484 H 423.416 0.996383 5.39781 0
M  V30 4485 H 423.677 -0.425808 4.40045 0
M  V30 4486 N 422.737 -1.36956 0.779787 0
M  V30 4487 C 423.985 -1.99097 0.347079 0
M  V30 4488 C 424.306 -1.62206 -1.08232 0
M  V30 4489 O 423.576 -0.891373 -1.74446 0
M  V30 4490 H 422.156 -0.736409 0.125342 0
M  V30 4491 H 424.818 -1.67308 0.999696 0
M  V30 4492 H 423.914 -3.09107 0.431162 0
M  V30 4493 N 424.215 -0.530993 -1.48385 0
M  V30 4494 C 425.631 -0.188919 -1.58478 0
M  V30 4495 C 425.831 1.30786 -1.53288 0
M  V30 4496 O 424.887 2.08619 -1.42248 0
M  V30 4497 C 426.2 -0.792343 -2.90073 0
M  V30 4498 C 427.748 -0.76117 -3.03604 0
M  V30 4499 C 428.223 -1.34319 -4.37861 0
M  V30 4500 N 429.714 -1.3052 -4.44431 0
M  V30 4501 C 430.449 -1.72543 -5.46824 0
M  V30 4502 N 429.945 -2.22299 -6.56167 0
M  V30 4503 N 431.738 -1.63773 -5.37712 0
M  V30 4504 H 423.889 -1.50377 -1.50002 0
M  V30 4505 H 426.152 -0.625559 -0.712306 0
M  V30 4506 H 425.858 -1.84323 -2.99529 0
M  V30 4507 H 425.732 -0.270026 -3.76232 0
M  V30 4508 H 428.119 0.280957 -2.93759 0
M  V30 4509 H 428.2 -1.32097 -2.19053 0
M  V30 4510 H 427.844 -2.38425 -4.4846 0
M  V30 4511 H 427.774 -0.759064 -5.21101 0
M  V30 4512 H 430.265 -0.940973 -3.65997 0
M  V30 4513 H 430.578 -2.52356 -7.30436 0
M  V30 4514 H 428.923 -2.26293 -6.57127 0
M  V30 4515 H 432.114 -1.24698 -4.51185 0
M  V30 4516 H 432.287 -1.96844 -6.17379 0
M  V30 4517 N 425.693 1.55336 -0.266172 0
M  V30 4518 C 426.623 2.25146 0.618981 0
M  V30 4519 C 427.604 1.23845 1.16604 0
M  V30 4520 O 428.789 1.52544 1.20183 0
M  V30 4521 C 425.919 2.96572 1.80728 0
M  V30 4522 C 424.873 4.04726 1.39215 0
M  V30 4523 C 424.199 4.63678 2.66283 0
M  V30 4524 C 425.499 5.19407 0.548942 0
M  V30 4525 H 427.193 2.99377 0.0368116 0
M  V30 4526 H 424.739 1.43991 0.0162651 0
M  V30 4527 H 426.692 3.44116 2.43232 0
M  V30 4528 H 425.416 2.19861 2.41514 0
M  V30 4529 H 424.075 3.57979 0.790351 0
M  V30 4530 H 423.723 3.83646 3.25308 0
M  V30 4531 H 423.423 5.367 2.39222 0
M  V30 4532 H 424.947 5.13967 3.29651 0
M  V30 4533 H 426.361 5.63059 1.07876 0
M  V30 4534 H 424.758 5.98936 0.373593 0
M  V30 4535 H 425.828 4.8295 -0.434394 0
M  V30 4536 N 427.171 -0.0066808 1.57599 0
M  V30 4537 C 428.101 -0.999296 2.11036 0
M  V30 4538 C 429.082 -1.36278 1.01795 0
M  V30 4539 O 430.267 -1.4477 1.29442 0
M  V30 4540 C 427.397 -2.29328 2.60818 0
M  V30 4541 C 426.351 -2.07159 3.74525 0
M  V30 4542 C 425.677 -3.42512 4.10596 0
M  V30 4543 C 426.977 -1.43959 5.02069 0
M  V30 4544 H 428.671 -0.554382 2.94223 0
M  V30 4545 H 426.217 -0.265221 1.41536 0
M  V30 4546 H 428.17 -2.99117 2.96828 0
M  V30 4547 H 426.894 -2.7592 1.74745 0
M  V30 4548 H 425.553 -1.39797 3.38899 0
M  V30 4549 H 425.201 -3.86795 3.21556 0
M  V30 4550 H 424.901 -3.28498 4.87199 0
M  V30 4551 H 426.425 -4.13628 4.4916 0
M  V30 4552 H 427.839 -2.03696 5.35893 0
M  V30 4553 H 426.236 -1.40452 5.83432 0
M  V30 4554 H 427.306 -0.407992 4.83181 0
M  V30 4555 N 428.649 -1.55105 -0.279332 0
M  V30 4556 C 429.874 -1.7976 -1.03446 0
M  V30 4557 C 430.299 -0.565952 -1.79384 0
M  V30 4558 O 429.657 0.484259 -1.74713 0
M  V30 4559 C 429.705 -3.0179 -1.97371 0
M  V30 4560 O 428.809 -2.76432 -3.06038 0
M  V30 4561 H 428.15 -0.594334 -0.29608 0
M  V30 4562 H 430.68 -2.02235 -0.310165 0
M  V30 4563 H 430.69 -3.30351 -2.39441 0
M  V30 4564 H 429.365 -3.91085 -1.4151 0
M  V30 4565 H 427.942 -2.58949 -2.68328 0
M  V30 4566 N 430.127 0.543554 -1.4793 0
M  V30 4567 C 431.09 1.63156 -1.60975 0
M  V30 4568 C 432.09 1.53346 -0.483899 0
M  V30 4569 O 433.28 1.5726 -0.749339 0
M  V30 4570 C 430.412 3.02743 -1.56716 0
M  V30 4571 H 431.605 1.52934 -2.57975 0
M  V30 4572 H 429.158 0.764557 -1.36324 0
M  V30 4573 H 429.893 3.18484 -0.611418 0
M  V30 4574 H 429.678 3.11272 -2.38438 0
M  V30 4575 H 431.168 3.81871 -1.6901 0
M  V30 4576 N 431.605 1.3629 0.791371 0
M  V30 4577 C 432.535 1.33137 1.91825 0
M  V30 4578 C 433.516 0.203168 1.68882 0
M  V30 4579 O 434.701 0.400509 1.90025 0
M  V30 4580 C 431.831 1.11793 3.28816 0
M  V30 4581 C 430.785 2.21417 3.66277 0
M  V30 4582 C 430.111 1.85218 5.01596 0
M  V30 4583 C 431.411 3.63489 3.75064 0
M  V30 4584 H 433.105 2.2743 1.9472 0
M  V30 4585 H 430.651 1.09479 0.935437 0
M  V30 4586 H 432.604 1.08222 4.07266 0
M  V30 4587 H 431.328 0.139501 3.26302 0
M  V30 4588 H 429.987 2.2411 2.90121 0
M  V30 4589 H 429.635 0.859544 4.95602 0
M  V30 4590 H 429.335 2.58611 5.27631 0
M  V30 4591 H 430.859 1.832 5.82469 0
M  V30 4592 H 432.273 3.63034 4.43711 0
M  V30 4593 H 430.67 4.35771 4.12582 0
M  V30 4594 H 431.74 3.98536 2.76219 0
M  V30 4595 N 433.083 -1.0153 1.20538 0
M  V30 4596 C 434.36 -1.72327 0.925343 0
M  V30 4597 C 434.74 -2.03383 -0.565547 0
M  V30 4598 O 434.088 -1.69934 -1.52757 0
M  V30 4599 C 434.298 -2.9902 1.79967 0
M  V30 4600 C 435.646 -3.72258 2.04228 0
M  V30 4601 O 436.67 -3.08979 1.77231 0
M  V30 4602 O 435.529 -4.86053 2.4983 0
M  V30 4603 H 432.623 -0.751099 0.346092 0
M  V30 4604 H 435.169 -1.07366 1.31417 0
M  V30 4605 H 433.941 -2.72402 2.80915 0
M  V30 4606 H 433.564 -3.71721 1.41099 0
M  V30 4607 N 434.561 -1.01147 -1.20859 0
M  V30 4608 C 435.838 -0.613136 -1.85742 0
M  V30 4609 C 436.218 0.909004 -1.90526 0
M  V30 4610 O 435.566 1.79862 -1.40932 0
M  V30 4611 C 435.776 -1.255 -3.25654 0
M  V30 4612 C 437.124 -1.3672 -4.01986 0
M  V30 4613 O 438.148 -1.21082 -3.34989 0
M  V30 4614 O 437.007 -1.6194 -5.21956 0
M  V30 4615 H 434.101 -0.210878 -0.799662 0
M  V30 4616 H 436.647 -1.10853 -1.2849 0
M  V30 4617 H 435.419 -2.29532 -3.16908 0
M  V30 4618 H 435.042 -0.746369 -3.90532 0
M  V30 4619 N 436.039 1.36541 -0.78704 0
M  V30 4620 C 436.969 2.32659 -0.197992 0
M  V30 4621 C 437.95 1.56533 0.665697 0
M  V30 4622 O 439.135 1.84698 0.60001 0
M  V30 4623 C 436.265 3.40778 0.669901 0
M  V30 4624 C 435.219 4.27897 -0.0937039 0
M  V30 4625 C 434.545 5.27163 0.894629 0
M  V30 4626 C 435.845 5.06334 -1.28154 0
M  V30 4627 H 437.539 2.82171 -1.00099 0
M  V30 4628 H 435.085 1.35665 -0.482793 0
M  V30 4629 H 437.038 4.07008 1.09191 0
M  V30 4630 H 435.762 2.89827 1.50558 0
M  V30 4631 H 434.421 3.6322 -0.49666 0
M  V30 4632 H 434.069 4.72486 1.72527 0
M  V30 4633 H 433.769 5.86317 0.388149 0
M  V30 4634 H 435.293 5.96266 1.31525 0
M  V30 4635 H 436.707 5.65617 -0.93541 0
M  V30 4636 H 435.104 5.74888 -1.72115 0
M  V30 4637 H 436.174 4.38114 -2.07807 0
M  V30 4638 N 437.518 0.538854 1.48102 0
M  V30 4639 C 438.45 -0.256278 2.27763 0
M  V30 4640 C 439.463 -0.89633 1.35904 0
M  V30 4641 O 440.652 -0.773275 1.60881 0
M  V30 4642 C 437.752 -1.37896 3.09577 0
M  V30 4643 C 436.925 -0.839159 4.29275 0
M  V30 4644 C 435.984 -1.84405 4.9283 0
M  V30 4645 O 435.01 -1.39746 5.51779 0
M  V30 4646 N 436.212 -3.17666 4.85869 0
M  V30 4647 H 438.977 0.426968 2.96643 0
M  V30 4648 H 436.538 0.373747 1.57527 0
M  V30 4649 H 438.53 -2.04955 3.48963 0
M  V30 4650 H 437.1 -1.96572 2.4306 0
M  V30 4651 H 436.32 0.00769287 3.94199 0
M  V30 4652 H 437.608 -0.457548 5.06739 0
M  V30 4653 H 437.006 -3.56609 4.39143 0
M  V30 4654 H 435.563 -3.80334 5.29329 0
M  V30 4655 N 438.996 -1.55193 0.274407 0
M  V30 4656 C 439.926 -2.25471 -0.607032 0
M  V30 4657 C 440.907 -1.24461 -1.15946 0
M  V30 4658 O 442.092 -1.53179 -1.19373 0
M  V30 4659 C 439.222 -2.97526 -1.79153 0
M  V30 4660 C 438.176 -4.05459 -1.37067 0
M  V30 4661 C 437.502 -4.65084 -2.6382 0
M  V30 4662 C 438.802 -5.19691 -0.521389 0
M  V30 4663 H 440.496 -2.99393 -0.0209343 0
M  V30 4664 H 438.042 -1.43997 -0.00862866 0
M  V30 4665 H 439.995 -3.45402 -2.41404 0
M  V30 4666 H 438.719 -2.21138 -2.40344 0
M  V30 4667 H 437.378 -3.58393 -0.771355 0
M  V30 4668 H 437.026 -3.85365 -3.23268 0
M  V30 4669 H 436.726 -5.37961 -2.36372 0
M  V30 4670 H 438.25 -5.15708 -3.26921 0
M  V30 4671 H 439.664 -5.63623 -1.04889 0
M  V30 4672 H 438.061 -5.99126 -0.341825 0
M  V30 4673 H 439.131 -4.82713 0.46 0
M  V30 4674 N 440.474 -0.00167713 -1.576 0
M  V30 4675 C 441.437 0.974046 -2.07473 0
M  V30 4676 C 442.437 1.27143 -0.984444 0
M  V30 4677 O 443.627 1.21633 -1.24703 0
M  V30 4678 C 440.759 2.29849 -2.51759 0
M  V30 4679 H 441.952 0.54262 -2.9495 0
M  V30 4680 H 439.505 0.245829 -1.54355 0
M  V30 4681 H 440.24 2.77677 -1.67529 0
M  V30 4682 H 440.025 2.09584 -3.31386 0
M  V30 4683 H 441.515 2.9984 -2.90664 0
M  V30 4684 N 441.952 1.55251 0.271103 0
M  V30 4685 C 442.9 1.89054 1.35504 0
M  V30 4686 C 443.894 0.767064 1.51038 0
M  V30 4687 O 445.1 0.951429 1.528 0
M  V30 4688 H 441.475 0.600072 0.45323 0
M  V30 4689 H 443.446 2.79598 1.04247 0
M  V30 4690 C 442.195 2.18068 2.70817 0
M  V30 4691 H 441.518 3.04005 2.59656 0
M  V30 4692 H 442.958 2.4564 3.45597 0
M  V30 4693 C 441.417 0.988901 3.2206 0
M  V30 4694 O 441.947 0.224501 4.01072 0
M  V30 4695 N 440.153 0.786085 2.79766 0
M  V30 4696 H 439.7 1.40937 2.15626 0
M  V30 4697 H 439.658 -0.00969349 3.14399 0
M  V30 4698 N 443.43 -0.535701 1.48216 0
M  V30 4699 C 444.655 -1.32149 1.59848 0
M  V30 4700 C 445.08 -1.86338 0.256842 0
M  V30 4701 O 444.438 -1.64107 -0.770632 0
M  V30 4702 C 444.486 -2.45224 2.64381 0
M  V30 4703 O 443.59 -3.48093 2.21144 0
M  V30 4704 H 442.931 -0.391634 0.536208 0
M  V30 4705 H 445.461 -0.645202 1.94161 0
M  V30 4706 H 445.471 -2.91491 2.85476 0
M  V30 4707 H 444.146 -2.05143 3.61786 0
M  V30 4708 H 442.723 -3.07984 2.10239 0
M  V30 4709 N 444.908 -1.36708 -0.784132 0
M  V30 4710 C 446.136 -1.34398 -1.57305 0
M  V30 4711 C 446.551 0.0735577 -1.88657 0
M  V30 4712 O 445.908 1.03193 -1.50524 0
M  V30 4713 C 445.959 -2.17053 -2.89085 0
M  V30 4714 O 445.68 -3.53281 -2.59083 0
M  V30 4715 C 447.181 -2.22583 -3.83369 0
M  V30 4716 H 444.401 -0.460819 -0.487736 0
M  V30 4717 H 446.945 -1.79879 -0.972819 0
M  V30 4718 H 445.1 -1.75113 -3.45564 0
M  V30 4719 H 445.514 -3.9647 -3.43383 0
M  V30 4720 H 446.988 -2.84763 -4.72878 0
M  V30 4721 H 447.465 -1.23075 -4.21603 0
M  V30 4722 H 448.071 -2.64781 -3.32823 0
M  V30 4723 N 446.386 1.0089 -1.21074 0
M  V30 4724 C 447.635 1.74019 -1.01981 0
M  V30 4725 C 447.948 1.90408 0.447665 0
M  V30 4726 O 449.154 2.60707 0.757906 0
M  V30 4727 C 447.61 3.13026 -1.77603 0
M  V30 4728 C 447.218 3.04623 -3.28495 0
M  V30 4729 C 448.962 3.90312 -1.66904 0
M  V30 4730 C 446.869 4.38685 -3.96623 0
M  V30 4731 H 445.799 0.652422 -0.377971 0
M  V30 4732 H 448.45 1.12755 -1.44771 0
M  V30 4733 H 446.832 3.74878 -1.27604 0
M  V30 4734 H 448.006 2.52032 -3.85767 0
M  V30 4735 H 446.321 2.40827 -3.39693 0
M  V30 4736 H 448.918 4.8951 -2.15138 0
M  V30 4737 H 449.261 4.11558 -0.62658 0
M  V30 4738 H 449.794 3.35104 -2.14359 0
M  V30 4739 H 446.533 4.22641 -5.01054 0
M  V30 4740 H 446.053 4.91252 -3.4414 0
M  V30 4741 H 447.732 5.075 -4.01314 0
M  V30 4742 N 447.864 1.01787 1.20321 0
M  V30 4743 C 449.113 0.703249 1.89043 0
M  V30 4744 C 449.426 -0.770445 1.79787 0
M  V30 4745 O 450.632 -1.19767 2.43656 0
M  V30 4746 C 449.088 1.20749 3.3904 0
M  V30 4747 C 448.696 2.70817 3.56878 0
M  V30 4748 C 450.44 0.968352 4.13308 0
M  V30 4749 C 448.347 3.14716 5.00708 0
M  V30 4750 H 447.277 0.259354 0.707991 0
M  V30 4751 H 449.928 1.23072 1.36108 0
M  V30 4752 H 448.31 0.607989 3.91305 0
M  V30 4753 H 449.484 3.36327 3.14993 0
M  V30 4754 H 447.799 2.92888 2.95983 0
M  V30 4755 H 450.396 1.27173 5.19356 0
M  V30 4756 H 450.739 -0.095149 4.16191 0
M  V30 4757 H 451.272 1.53129 3.67146 0
M  V30 4758 H 448.011 4.20347 5.02979 0
M  V30 4759 H 447.531 2.53927 5.43398 0
M  V30 4760 H 449.21 3.07426 5.69296 0
M  V30 4761 N 449.342 -1.36122 0.79427 0
M  V30 4762 C 450.305 -2.28309 0.201889 0
M  V30 4763 C 451.305 -1.49041 -0.603603 0
M  V30 4764 O 452.495 -1.68964 -0.423888 0
M  V30 4765 C 449.627 -3.3321 -0.719978 0
M  V30 4766 H 450.82 -2.82208 1.01481 0
M  V30 4767 H 448.373 -1.45768 0.564037 0
M  V30 4768 H 449.108 -2.84475 -1.55706 0
M  V30 4769 H 448.893 -3.91835 -0.144266 0
M  V30 4770 H 450.383 -4.02044 -1.12916 0
M  V30 4771 N 450.82 -0.546701 -1.47814 0
M  V30 4772 C 452.067 -0.0187407 -2.02491 0
M  V30 4773 C 452.395 1.32685 -1.42215 0
M  V30 4774 O 451.65 1.87413 -0.563454 0
M  V30 4775 C 451.949 0.134869 -3.57145 0
M  V30 4776 C 451.615 -1.13849 -4.3629 0
M  V30 4777 C 450.277 -1.48743 -4.57634 0
M  V30 4778 C 452.629 -1.98277 -4.82012 0
M  V30 4779 C 449.957 -2.67932 -5.21948 0
M  V30 4780 C 452.309 -3.16659 -5.4764 0
M  V30 4781 C 450.973 -3.51879 -5.67219 0
M  V30 4782 H 450.243 -0.0068577 -0.740968 0
M  V30 4783 H 452.89 -0.716097 -1.77607 0
M  V30 4784 H 451.195 0.915118 -3.80963 0
M  V30 4785 H 452.892 0.558556 -3.97091 0
M  V30 4786 H 449.482 -0.856767 -4.19949 0
M  V30 4787 H 453.666 -1.72628 -4.6531 0
M  V30 4788 H 448.922 -2.95401 -5.35302 0
M  V30 4789 H 453.096 -3.82374 -5.82033 0
M  V30 4790 H 450.723 -4.44331 -6.16825 0
M  V30 4791 N 452.299 1.55045 -0.282633 0
M  V30 4792 C 453.527 2.04168 0.33512 0
M  V30 4793 C 453.942 1.16071 1.48906 0
M  V30 4794 O 453.299 0.182391 1.81586 0
M  V30 4795 C 453.35 3.52332 0.808957 0
M  V30 4796 O 453.071 4.37078 -0.299038 0
M  V30 4797 C 454.572 4.17375 1.49375 0
M  V30 4798 H 451.792 0.666744 0.0754543 0
M  V30 4799 H 454.336 2.00205 -0.416918 0
M  V30 4800 H 452.491 3.56715 1.51106 0
M  V30 4801 H 452.905 5.24458 0.0665514 0
M  V30 4802 H 454.379 5.22627 1.77664 0
M  V30 4803 H 454.856 3.65999 2.42778 0
M  V30 4804 H 455.462 4.17016 0.835305 0
M  V30 4805 N 453.777 0.010035 1.57597 0
M  V30 4806 C 455.002 -0.687021 1.95691 0
M  V30 4807 C 455.427 -1.65952 0.885519 0
M  V30 4808 O 454.785 -1.80633 -0.15543 0
M  V30 4809 C 454.833 -1.3864 3.32884 0
M  V30 4810 O 453.937 -2.50115 3.27897 0
M  V30 4811 H 453.278 -0.181989 0.638573 0
M  V30 4812 H 455.808 0.0662122 2.04493 0
M  V30 4813 H 455.818 -1.74754 3.6868 0
M  V30 4814 H 454.493 -0.673411 4.10412 0
M  V30 4815 H 453.07 -2.16253 3.03791 0
M  V30 4816 N 455.255 -1.55392 -0.262866 0
M  V30 4817 C 456.532 -1.67204 -1.01499 0
M  V30 4818 C 456.912 -0.545186 -2.03939 0
M  V30 4819 O 456.26 0.453467 -2.23955 0
M  V30 4820 C 456.47 -3.06847 -1.6627 0
M  V30 4821 C 457.818 -3.64928 -2.17054 0
M  V30 4822 O 458.842 -3.09545 -1.76239 0
M  V30 4823 O 457.701 -4.61984 -2.91947 0
M  V30 4824 H 454.795 -0.679467 -0.471438 0
M  V30 4825 H 457.341 -1.67729 -0.257918 0
M  V30 4826 H 456.113 -3.80309 -0.920915 0
M  V30 4827 H 455.736 -3.10266 -2.48638 0
M  V30 4828 N 456.733 0.527833 -1.48498 0
M  V30 4829 C 457.683 1.62844 -1.5958 0
M  V30 4830 C 458.667 1.54397 -0.452809 0
M  V30 4831 O 459.859 1.62381 -0.704364 0
M  V30 4832 C 456.988 3.01557 -1.64067 0
M  V30 4833 C 456.074 3.151 -2.83853 0
M  V30 4834 N 456.465 2.9861 -4.08247 0
M  V30 4835 C 454.763 3.46158 -2.8123 0
M  V30 4836 C 455.464 3.15626 -4.88626 0
M  V30 4837 N 454.44 3.43298 -4.21483 0
M  V30 4838 H 458.242 1.48708 -2.53502 0
M  V30 4839 H 455.756 0.733343 -1.44899 0
M  V30 4840 H 457.753 3.8062 -1.70101 0
M  V30 4841 H 456.413 3.16783 -0.712636 0
M  V30 4842 H 457.424 2.75329 -4.3865 0
M  V30 4843 H 454.101 3.67728 -1.97692 0
M  V30 4844 H 455.491 3.07596 -5.97356 0
M  V30 4845 N 458.211 1.37122 0.776871 0
M  V30 4846 C 459.459 1.31787 1.53221 0
M  V30 4847 C 459.78 -0.0987589 1.9475 0
M  V30 4848 O 459.05 -1.0417 1.65908 0
M  V30 4849 H 457.63 0.484839 0.568278 0
M  V30 4850 H 460.292 1.71556 0.924917 0
M  V30 4851 H 459.388 1.95355 2.43398 0
M  V30 4852 N 459.689 -1.00246 1.21608 0
M  V30 4853 C 460.935 -1.74417 1.04643 0
M  V30 4854 C 461.29 -1.87862 -0.415387 0
M  V30 4855 O 460.583 -1.40373 -1.30407 0
M  V30 4856 C 460.777 -3.15448 1.68009 0
M  V30 4857 C 460.606 -3.15755 3.20201 0
M  V30 4858 C 459.376 -3.2219 3.89258 0
M  V30 4859 C 461.574 -3.00668 4.17257 0
M  V30 4860 N 459.556 -3.1215 5.28617 0
M  V30 4861 C 460.927 -2.98553 5.43384 0
M  V30 4862 C 462.982 -2.84989 4.08272 0
M  V30 4863 C 461.685 -2.82364 6.61561 0
M  V30 4864 C 463.711 -2.70158 5.26088 0
M  V30 4865 C 463.073 -2.68721 6.51128 0
M  V30 4866 H 459.172 -0.648317 0.437274 0
M  V30 4867 H 461.756 -1.19129 1.54001 0
M  V30 4868 H 459.927 -3.69001 1.21215 0
M  V30 4869 H 461.659 -3.78128 1.44226 0
M  V30 4870 H 458.414 -3.29488 3.40198 0
M  V30 4871 H 458.838 -3.10465 6.01615 0
M  V30 4872 H 463.48 -2.84904 3.12393 0
M  V30 4873 H 461.198 -2.81196 7.57598 0
M  V30 4874 H 464.784 -2.59022 5.20959 0
M  V30 4875 H 463.664 -2.57382 7.40759 0
M  V30 4876 N 461.167 -1.02423 -1.1978 0
M  V30 4877 C 462.13 -0.605703 -2.21052 0
M  V30 4878 C 463.13 0.328209 -1.57415 0
M  V30 4879 O 464.32 0.115853 -1.73814 0
M  V30 4880 C 461.452 0.114366 -3.40708 0
M  V30 4881 H 462.645 -1.5017 -2.59594 0
M  V30 4882 H 460.198 -0.814888 -1.33376 0
M  V30 4883 H 460.933 1.02492 -3.07678 0
M  V30 4884 H 460.718 -0.556641 -3.88129 0
M  V30 4885 H 462.208 0.394272 -4.15735 0
M  V30 4886 N 462.645 1.35699 -0.801477 0
M  V30 4887 C 463.575 2.32436 -0.222658 0
M  V30 4888 C 464.556 1.5723 0.649057 0
M  V30 4889 O 465.741 1.85324 0.580387 0
M  V30 4890 C 462.871 3.41469 0.633719 0
M  V30 4891 C 461.825 4.27774 -0.139083 0
M  V30 4892 C 461.151 5.28082 0.838666 0
M  V30 4893 C 462.451 5.04946 -1.33517 0
M  V30 4894 H 464.145 2.81094 -1.03086 0
M  V30 4895 H 461.691 1.35146 -0.497155 0
M  V30 4896 H 463.644 4.08143 1.04868 0
M  V30 4897 H 462.368 2.91408 1.47475 0
M  V30 4898 H 461.027 3.62673 -0.535156 0
M  V30 4899 H 460.675 4.7429 1.67506 0
M  V30 4900 H 460.375 5.86695 0.32594 0
M  V30 4901 H 461.899 5.97628 1.25194 0
M  V30 4902 H 463.313 5.64593 -0.995349 0
M  V30 4903 H 461.71 5.7303 -1.78202 0
M  V30 4904 H 462.78 4.35886 -2.12442 0
M  V30 4905 N 464.123 0.554532 1.47522 0
M  V30 4906 C 465.371 0.0294208 2.02079 0
M  V30 4907 C 465.692 -1.32411 1.43151 0
M  V30 4908 O 464.962 -1.863 0.605728 0
M  V30 4909 H 463.542 0.00788672 0.746958 0
M  V30 4910 H 466.204 0.723934 1.80956 0
M  V30 4911 H 465.3 -0.0606745 3.12041 0
M  V30 4912 N 465.601 -1.54893 0.290851 0
M  V30 4913 C 466.511 -2.26812 -0.59945 0
M  V30 4914 C 467.527 -1.29963 -1.15696 0
M  V30 4915 O 468.703 -1.62928 -1.18391 0
M  V30 4916 C 465.768 -2.98716 -1.75982 0
M  V30 4917 C 464.829 -4.1108 -1.2374 0
M  V30 4918 C 464.062 -4.79546 -2.34246 0
M  V30 4919 O 464.285 -4.47309 -3.53936 0
M  V30 4920 O 463.219 -5.67165 -2.01512 0
M  V30 4921 H 467.045 -3.03696 -0.0163561 0
M  V30 4922 H 464.63 -1.49289 0.0576755 0
M  V30 4923 H 466.512 -3.43851 -2.43607 0
M  V30 4924 H 465.187 -2.24737 -2.3297 0
M  V30 4925 H 464.094 -3.70367 -0.527163 0
M  V30 4926 H 465.427 -4.87007 -0.71307 0
M  V30 4927 N 467.08 -0.0183926 -1.57589 0
M  V30 4928 C 468.03 0.975944 -2.06057 0
M  V30 4929 C 469.014 1.29204 -0.958908 0
M  V30 4930 O 470.206 1.27995 -1.22255 0
M  V30 4931 C 467.335 2.26194 -2.58247 0
M  V30 4932 C 466.421 1.97467 -3.75323 0
M  V30 4933 N 466.812 1.38968 -4.86335 0
M  V30 4934 C 465.11 2.27515 -3.83605 0
M  V30 4935 C 465.811 1.27131 -5.67638 0
M  V30 4936 N 464.787 1.76319 -5.14211 0
M  V30 4937 H 468.589 0.518444 -2.89291 0
M  V30 4938 H 466.103 0.18688 -1.61321 0
M  V30 4939 H 468.1 2.98289 -2.91255 0
M  V30 4940 H 466.76 2.7258 -1.76438 0
M  V30 4941 H 467.771 1.06608 -5.06809 0
M  V30 4942 H 464.448 2.76649 -3.12684 0
M  V30 4943 H 465.838 0.819882 -6.66879 0
M  V30 4944 N 468.558 1.5553 0.254621 0
M  V30 4945 C 469.806 1.7665 0.981793 0
M  V30 4946 C 470.127 0.580963 1.86145 0
M  V30 4947 O 469.397 -0.403537 1.91699 0
M  V30 4948 H 467.977 0.651475 0.365498 0
M  V30 4949 H 470.639 1.92958 0.274426 0
M  V30 4950 H 469.735 2.67486 1.60802 0
M  V30 4951 N 470.036 -0.519951 1.48776 0
M  V30 4952 C 470.946 -1.65025 1.66745 0
M  V30 4953 C 471.962 -1.6508 0.549954 0
M  V30 4954 O 473.138 -1.83848 0.822295 0
M  V30 4955 C 470.203 -3.0146 1.71238 0
M  V30 4956 C 469.264 -3.12182 2.94688 0
M  V30 4957 C 468.497 -4.42109 2.98958 0
M  V30 4958 O 468.72 -5.29799 2.1135 0
M  V30 4959 O 467.654 -4.57406 3.91233 0
M  V30 4960 H 471.48 -1.52801 2.62461 0
M  V30 4961 H 469.065 -0.694157 1.32294 0
M  V30 4962 H 470.947 -3.82584 1.76657 0
M  V30 4963 H 469.622 -3.13988 0.786975 0
M  V30 4964 H 468.529 -2.30316 2.94797 0
M  V30 4965 H 469.862 -3.04574 3.86646 0
M  V30 4966 N 471.514 -1.37532 -0.769588 0
M  V30 4967 C 472.76 -1.34063 -1.52966 0
M  V30 4968 C 473.115 0.0737942 -1.92258 0
M  V30 4969 O 472.408 1.03291 -1.61374 0
M  V30 4970 C 472.602 -2.21558 -2.8044 0
M  V30 4971 C 472.431 -3.71367 -2.53608 0
M  V30 4972 C 471.201 -4.40464 -2.47628 0
M  V30 4973 C 473.399 -4.64177 -2.21459 0
M  V30 4974 N 471.381 -5.758 -2.12902 0
M  V30 4975 C 472.752 -5.87907 -1.9689 0
M  V30 4976 C 474.807 -4.52541 -2.07633 0
M  V30 4977 C 473.51 -7.01304 -1.59892 0
M  V30 4978 C 475.536 -5.65825 -1.72034 0
M  V30 4979 C 474.898 -6.88606 -1.48327 0
M  V30 4980 H 470.997 -0.545856 -0.559969 0
M  V30 4981 H 473.581 -1.72773 -0.897634 0
M  V30 4982 H 471.752 -1.85061 -3.41478 0
M  V30 4983 H 473.484 -2.09332 -3.46356 0
M  V30 4984 H 470.239 -3.93491 -2.63556 0
M  V30 4985 H 470.663 -6.47328 -1.9823 0
M  V30 4986 H 475.305 -3.58183 -2.24643 0
M  V30 4987 H 473.023 -7.95594 -1.4162 0
M  V30 4988 H 476.609 -5.58793 -1.61991 0
M  V30 4989 H 475.489 -7.74779 -1.21189 0
M  V30 4990 N 472.992 0.995999 -1.22138 0
M  V30 4991 C 473.955 2.06711 -0.990109 0
M  V30 4992 C 474.955 1.60744 0.0422978 0
M  V30 4993 O 476.145 1.73095 -0.195895 0
M  V30 4994 C 473.277 3.37288 -0.49491 0
M  V30 4995 H 474.47 2.28661 -1.94047 0
M  V30 4996 H 472.023 1.16711 -1.03963 0
M  V30 4997 H 472.758 3.21022 0.459948 0
M  V30 4998 H 472.543 3.71986 -1.23971 0
M  V30 4999 H 474.033 4.16103 -0.353253 0
M  V30 5000 N 474.47 1.03057 1.19235 0
M  V30 5001 C 475.417 0.612832 2.22515 0
M  V30 5002 C 476.387 -0.374224 1.61829 0
M  V30 5003 O 477.572 -0.270501 1.88873 0
M  V30 5004 C 474.712 -0.028475 3.45088 0
M  V30 5005 C 473.825 1.00483 4.20151 0
M  V30 5006 C 472.96 0.333102 5.30155 0
M  V30 5007 C 471.999 1.3522 5.96977 0
M  V30 5008 N 471.136 0.70616 6.9854 0
M  V30 5009 H 475.976 1.49812 2.57605 0
M  V30 5010 H 473.513 0.749658 1.26564 0
M  V30 5011 H 475.471 -0.417548 4.15105 0
M  V30 5012 H 474.101 -0.877334 3.10649 0
M  V30 5013 H 473.153 1.51194 3.49062 0
M  V30 5014 H 474.465 1.77929 4.65986 0
M  V30 5015 H 473.619 -0.110725 6.06599 0
M  V30 5016 H 472.358 -0.473547 4.85396 0
M  V30 5017 H 471.363 1.80627 5.19282 0
M  V30 5018 H 472.588 2.16037 6.4382 0
M  V30 5019 H 470.534 -0.0803667 6.55951 0
M  V30 5020 H 470.451 1.41848 7.42573 0
M  V30 5021 H 471.719 0.286391 7.78974 0
M  V30 5022 N 475.948 -1.35272 0.808662 0
M  V30 5023 C 477.178 -2.02652 0.401953 0
M  V30 5024 C 477.586 -1.6108 -0.992462 0
M  V30 5025 O 476.929 -0.804984 -1.65123 0
M  V30 5026 C 476.991 -3.57174 0.408246 0
M  V30 5027 C 476.655 -4.22019 1.75353 0
M  V30 5028 C 477.652 -4.43552 2.71215 0
M  V30 5029 C 475.337 -4.59093 2.03811 0
M  V30 5030 C 477.331 -5.01264 3.93717 0
M  V30 5031 C 475.018 -5.16519 3.26576 0
M  V30 5032 C 476.016 -5.37546 4.21347 0
M  V30 5033 O 475.704 -5.93761 5.41944 0
M  V30 5034 H 475.436 -0.656495 0.161216 0
M  V30 5035 H 477.99 -1.73829 1.0942 0
M  V30 5036 H 476.22 -3.85197 -0.340608 0
M  V30 5037 H 477.909 -4.05893 0.0235623 0
M  V30 5038 H 478.675 -4.15288 2.50522 0
M  V30 5039 H 474.554 -4.42039 1.30854 0
M  V30 5040 H 478.098 -5.17592 4.67701 0
M  V30 5041 H 473.995 -5.4421 3.47139 0
M  V30 5042 H 474.763 -6.1221 5.43269 0
M  V30 5043 N 477.426 -0.562348 -1.47226 0
M  V30 5044 C 478.651 -0.0432632 -2.07355 0
M  V30 5045 C 479.076 1.24332 -1.41149 0
M  V30 5046 O 478.434 1.74603 -0.488226 0
M  V30 5047 C 478.482 0.130288 -3.60365 0
M  V30 5048 O 477.586 1.19166 -3.94808 0
M  V30 5049 H 476.927 -0.0536334 -0.66183 0
M  V30 5050 H 479.457 -0.779495 -1.89169 0
M  V30 5051 H 479.467 0.342881 -4.06557 0
M  V30 5052 H 478.142 -0.809389 -4.07948 0
M  V30 5053 H 476.719 0.959153 -3.60354 0
M  V30 5054 N 478.904 1.54736 -0.299062 0
M  V30 5055 C 479.852 2.24897 0.593658 0
M  V30 5056 C 480.846 1.25429 1.13859 0
M  V30 5057 O 482.052 1.43286 1.08945 0
M  V30 5058 H 478.427 0.72207 0.210046 0
M  V30 5059 H 480.398 2.98393 -0.0206421 0
M  V30 5060 C 479.147 3.00159 1.75499 0
M  V30 5061 H 478.47 3.76501 1.34489 0
M  V30 5062 H 479.91 3.52535 2.35574 0
M  V30 5063 C 478.369 2.07015 2.65794 0
M  V30 5064 O 478.899 1.63692 3.66835 0
M  V30 5065 N 477.105 1.73012 2.33485 0
M  V30 5066 H 476.652 2.08439 1.51364 0
M  V30 5067 H 476.61 1.10965 2.94167 0
M  V30 5068 N 480.382 0.0267497 1.57577 0
M  V30 5069 C 481.629 -0.652404 1.91703 0
M  V30 5070 C 481.957 -1.72271 0.902936 0
M  V30 5071 O 481.212 -1.955 -0.0884843 0
M  V30 5072 C 481.511 -1.30914 3.3256 0
M  V30 5073 C 481.177 -0.369441 4.49384 0
M  V30 5074 C 479.839 -0.110791 4.81072 0
M  V30 5075 C 482.191 0.275971 5.20469 0
M  V30 5076 C 479.519 0.801116 5.81205 0
M  V30 5077 C 481.871 1.17592 6.21575 0
M  V30 5078 C 480.535 1.44348 6.51705 0
M  V30 5079 H 479.805 -0.238732 0.70149 0
M  V30 5080 H 482.452 0.0880091 1.91298 0
M  V30 5081 H 480.757 -2.12425 3.29216 0
M  V30 5082 H 482.454 -1.84115 3.56234 0
M  V30 5083 H 479.044 -0.581211 4.24641 0
M  V30 5084 H 483.228 0.0892 4.9622 0
M  V30 5085 H 478.484 1.01614 6.02897 0
M  V30 5086 H 482.658 1.68223 6.75777 0
M  V30 5087 H 480.285 2.15176 7.29111 0
M  V30 5088 N 481.861 -1.55662 -0.24637 0
M  V30 5089 C 483.138 -1.68272 -0.997198 0
M  V30 5090 C 483.518 -0.566785 -2.03349 0
M  V30 5091 O 482.866 0.429688 -2.24424 0
M  V30 5092 C 483.076 -3.08594 -1.63006 0
M  V30 5093 C 484.424 -3.6721 -2.13171 0
M  V30 5094 O 485.448 -3.11397 -1.72946 0
M  V30 5095 O 484.307 -4.65054 -2.87031 0
M  V30 5096 H 481.401 -0.684429 -0.464205 0
M  V30 5097 H 483.947 -1.67993 -0.240114 0
M  V30 5098 H 482.719 -3.81264 -0.880527 0
M  V30 5099 H 482.342 -3.12886 -2.45333 0
M  V30 5100 N 483.339 0.512053 -1.4905 0
M  V30 5101 C 484.585 1.26874 -1.58212 0
M  V30 5102 C 484.918 1.9241 -0.263073 0
M  V30 5103 O 484.193 1.80181 0.732476 0
M  V30 5104 C 484.476 2.34428 -2.73341 0
M  V30 5105 C 484.329 1.73466 -4.15006 0
M  V30 5106 C 485.648 3.36073 -2.84154 0
M  V30 5107 H 482.767 0.459924 -0.575881 0
M  V30 5108 H 485.409 0.568587 -1.81293 0
M  V30 5109 H 483.559 2.94146 -2.53792 0
M  V30 5110 H 485.231 1.17661 -4.46042 0
M  V30 5111 H 483.474 1.03921 -4.21168 0
M  V30 5112 H 484.145 2.51426 -4.91415 0
M  V30 5113 H 486.621 2.86332 -3.01916 0
M  V30 5114 H 485.497 4.08703 -3.66406 0
M  V30 5115 H 485.758 3.97725 -1.93048 0
M  V30 5116 N 484.817 1.37938 0.762283 0
M  V30 5117 C 485.78 1.34279 1.85747 0
M  V30 5118 C 486.78 0.244969 1.58923 0
M  V30 5119 O 487.97 0.501365 1.66829 0
M  V30 5120 C 485.102 1.08833 3.23061 0
M  V30 5121 H 486.295 2.31705 1.90401 0
M  V30 5122 H 483.848 1.23105 0.963057 0
M  V30 5123 H 484.583 0.119767 3.24079 0
M  V30 5124 H 484.368 1.88306 3.43923 0
M  V30 5125 H 485.858 1.08946 4.03138 0
M  V30 5126 N 486.295 -0.989507 1.22664 0
M  V30 5127 C 487.523 -1.76496 1.07967 0
M  V30 5128 C 487.938 -1.85148 -0.369543 0
M  V30 5129 O 487.295 -1.32408 -1.25596 0
M  V30 5130 C 487.346 -3.19642 1.68853 0
M  V30 5131 O 487.067 -3.11453 3.08105 0
M  V30 5132 C 488.568 -4.13621 1.59475 0
M  V30 5133 H 485.788 -0.55418 0.378319 0
M  V30 5134 H 488.332 -1.24378 1.62328 0
M  V30 5135 H 486.487 -3.68816 1.18547 0
M  V30 5136 H 486.901 -4.01499 3.37489 0
M  V30 5137 H 488.375 -5.11801 2.06795 0
M  V30 5138 H 488.852 -4.35718 0.55191 0
M  V30 5139 H 489.458 -3.70346 2.09103 0
M  V30 5140 N 487.773 -1.03688 -1.18687 0
M  V30 5141 C 488.723 -0.595067 -2.20098 0
M  V30 5142 C 489.707 0.360465 -1.5681 0
M  V30 5143 O 490.899 0.180136 -1.76081 0
M  V30 5144 C 488.028 0.0444495 -3.43271 0
M  V30 5145 C 487.114 -0.934002 -4.13687 0
M  V30 5146 N 487.505 -2.09957 -4.60165 0
M  V30 5147 C 485.803 -0.759177 -4.39491 0
M  V30 5148 C 486.504 -2.71735 -5.1433 0
M  V30 5149 N 485.48 -1.99638 -5.05614 0
M  V30 5150 H 489.282 -1.48336 -2.5372 0
M  V30 5151 H 486.796 -0.904949 -1.3485 0
M  V30 5152 H 488.793 0.37864 -4.15177 0
M  V30 5153 H 487.453 0.928325 -3.11147 0
M  V30 5154 H 488.464 -2.47863 -4.54735 0
M  V30 5155 H 485.141 0.0749292 -4.17433 0
M  V30 5156 H 486.531 -3.70492 -5.60523 0
M  V30 5157 N 489.251 1.34841 -0.815825 0
M  V30 5158 C 490.497 1.98793 -0.401129 0
M  V30 5159 C 490.83 1.64548 1.03139 0
M  V30 5160 O 490.105 0.913487 1.71714 0
M  V30 5161 C 490.388 3.55143 -0.595409 0
M  V30 5162 C 490.241 3.99155 -2.07352 0
M  V30 5163 C 491.56 4.40092 -0.0268823 0
M  V30 5164 H 488.679 0.722146 -0.14722 0
M  V30 5165 H 491.321 1.59847 -1.02707 0
M  V30 5166 H 489.471 3.8845 -0.0625779 0
M  V30 5167 H 491.143 3.76216 -2.66945 0
M  V30 5168 H 489.386 3.49726 -2.56659 0
M  V30 5169 H 490.057 5.07971 -2.1603 0
M  V30 5170 H 492.533 4.13298 -0.482042 0
M  V30 5171 H 491.409 5.48562 -0.19267 0
M  V30 5172 H 491.67 4.29016 1.06759 0
M  V30 5173 N 490.729 0.570148 1.46925 0
M  V30 5174 C 492.14 0.1402 1.86173 0
M  V30 5175 C 492.491 -1.29347 1.47526 0
M  V30 5176 O 491.616 -1.97508 0.884292 0
M  V30 5177 C 492.211 0.247661 3.37894 0
M  V30 5178 C 490.77 -0.127332 3.76185 0
M  V30 5179 C 489.917 0.589349 2.70965 0
M  V30 5180 H 492.868 0.779117 1.38259 0
M  V30 5181 H 492.889 -0.530341 3.76786 0
M  V30 5182 H 492.401 1.29121 3.65991 0
M  V30 5183 H 490.502 -1.17149 3.53704 0
M  V30 5184 H 490.615 0.240238 4.78497 0
M  V30 5185 H 488.979 0.0309824 2.54681 0
M  V30 5186 H 489.762 1.6343 3.01903 0
M  V30 5187 N 492.207 -1.54576 0.307264 0
M  V30 5188 C 493.137 -2.26708 -0.55907 0
M  V30 5189 C 494.118 -1.26893 -1.1328 0
M  V30 5190 O 495.303 -1.55677 -1.16097 0
M  V30 5191 C 492.433 -3.01259 -1.72801 0
M  V30 5192 C 491.387 -4.08275 -1.28435 0
M  V30 5193 C 490.713 -4.70575 -2.53895 0
M  V30 5194 C 492.013 -5.2068 -0.411038 0
M  V30 5195 H 493.707 -2.9937 0.042576 0
M  V30 5196 H 491.253 -1.43983 0.0219173 0
M  V30 5197 H 493.206 -3.50444 -2.34023 0
M  V30 5198 H 491.93 -2.26187 -2.356 0
M  V30 5199 H 490.589 -3.59949 -0.695161 0
M  V30 5200 H 490.237 -3.92136 -3.15021 0
M  V30 5201 H 489.937 -5.42854 -2.24908 0
M  V30 5202 H 491.461 -5.22527 -3.15908 0
M  V30 5203 H 492.875 -5.65721 -0.929097 0
M  V30 5204 H 491.272 -5.99716 -0.214664 0
M  V30 5205 H 492.342 -4.81629 0.562287 0
M  V30 5206 N 493.685 -0.035106 -1.57561 0
M  V30 5207 C 494.934 0.641604 -1.91223 0
M  V30 5208 C 495.247 1.72944 -0.913761 0
M  V30 5209 O 496.453 2.46321 -1.14185 0
M  V30 5210 C 494.909 1.19249 -3.3957 0
M  V30 5211 C 494.517 0.137616 -4.47789 0
M  V30 5212 C 496.261 1.84537 -3.82291 0
M  V30 5213 C 494.168 0.700478 -5.87237 0
M  V30 5214 H 493.098 0.243417 -0.713627 0
M  V30 5215 H 495.749 -0.101382 -1.8322 0
M  V30 5216 H 494.131 1.98728 -3.42525 0
M  V30 5217 H 495.305 -0.635153 -4.56402 0
M  V30 5218 H 493.62 -0.416855 -4.14308 0
M  V30 5219 H 496.217 2.27616 -4.83834 0
M  V30 5220 H 496.56 2.69054 -3.17672 0
M  V30 5221 H 497.093 1.11739 -3.81784 0
M  V30 5222 H 493.832 -0.106693 -6.55413 0
M  V30 5223 H 493.352 1.4416 -5.82218 0
M  V30 5224 H 495.031 1.18837 -6.35993 0
M  V30 5225 N 495.163 1.55791 0.238111 0
M  V30 5226 C 496.41 1.78033 0.964907 0
M  V30 5227 C 496.738 0.600984 1.84982 0
M  V30 5228 O 495.993 -0.41536 1.91241 0
M  V30 5229 C 496.292 3.05869 1.84875 0
M  V30 5230 C 495.958 4.36808 1.11846 0
M  V30 5231 C 494.62 4.72388 0.916662 0
M  V30 5232 C 496.972 5.17717 0.60151 0
M  V30 5233 C 494.3 5.86406 0.185756 0
M  V30 5234 C 496.652 6.32494 -0.115972 0
M  V30 5235 C 495.316 6.66688 -0.329168 0
M  V30 5236 H 494.586 0.651469 0.353085 0
M  V30 5237 H 497.233 1.90061 0.234318 0
M  V30 5238 H 495.538 2.88891 2.64668 0
M  V30 5239 H 497.235 3.20278 2.41294 0
M  V30 5240 H 493.825 4.08862 1.28569 0
M  V30 5241 H 498.009 4.90678 0.744932 0
M  V30 5242 H 493.265 6.11399 0.0101886 0
M  V30 5243 H 497.439 6.94425 -0.524127 0
M  V30 5244 H 495.066 7.54884 -0.897474 0
M  V30 5245 N 496.642 -0.504142 1.49319 0
M  V30 5246 C 497.872 -1.28071 1.62116 0
M  V30 5247 C 498.28 -1.86955 0.290566 0
M  V30 5248 O 497.623 -1.68415 -0.733616 0
M  V30 5249 C 497.685 -2.4521 2.62893 0
M  V30 5250 C 497.349 -2.07218 4.0732 0
M  V30 5251 C 498.346 -1.61375 4.94221 0
M  V30 5252 C 496.031 -2.16949 4.53033 0
M  V30 5253 C 498.025 -1.25763 6.2487 0
M  V30 5254 C 495.712 -1.80949 5.83696 0
M  V30 5255 C 496.71 -1.3543 6.69438 0
M  V30 5256 O 496.398 -0.99915 7.97667 0
M  V30 5257 H 496.13 -0.394763 0.54876 0
M  V30 5258 H 498.684 -0.612118 1.96067 0
M  V30 5259 H 496.914 -3.15134 2.24115 0
M  V30 5260 H 498.603 -3.0724 2.65252 0
M  V30 5261 H 499.369 -1.53306 4.60133 0
M  V30 5262 H 495.248 -2.5133 3.86463 0
M  V30 5263 H 498.792 -0.901631 6.91749 0
M  V30 5264 H 494.689 -1.88667 6.17313 0
M  V30 5265 H 495.457 -1.13089 8.1065 0
M  V30 5266 N 498.12 -1.38341 -0.754957 0
M  V30 5267 C 499.366 -1.34672 -1.51628 0
M  V30 5268 C 499.699 0.0636036 -1.94096 0
M  V30 5269 O 498.974 1.0245 -1.6533 0
M  V30 5270 C 499.257 -2.30116 -2.76981 0
M  V30 5271 C 499.11 -3.80003 -2.4066 0
M  V30 5272 C 500.429 -2.23715 -3.78998 0
M  V30 5273 H 497.548 -0.490517 -0.550056 0
M  V30 5274 H 500.19 -1.69178 -0.864807 0
M  V30 5275 H 498.34 -2.00821 -3.3257 0
M  V30 5276 H 500.012 -4.19966 -1.90856 0
M  V30 5277 H 498.255 -3.97751 -1.73137 0
M  V30 5278 H 498.926 -4.42244 -3.30339 0
M  V30 5279 H 501.402 -2.49574 -3.32945 0
M  V30 5280 H 500.278 -2.9261 -4.64403 0
M  V30 5281 H 500.539 -1.23554 -4.24484 0
M  V30 5282 N 499.598 0.982988 -1.23187 0
M  V30 5283 C 501.009 1.53847 -1.05773 0
M  V30 5284 C 501.36 1.92568 0.375744 0
M  V30 5285 O 500.485 1.75783 1.26211 0
M  V30 5286 C 501.08 2.79567 -1.91384 0
M  V30 5287 C 499.639 3.31524 -1.78238 0
M  V30 5288 C 498.786 2.04534 -1.87246 0
M  V30 5289 H 501.737 0.802962 -1.36888 0
M  V30 5290 H 501.758 3.52317 -1.43711 0
M  V30 5291 H 501.27 2.51353 -2.95708 0
M  V30 5292 H 499.371 3.64623 -0.766875 0
M  V30 5293 H 499.484 4.01457 -2.61475 0
M  V30 5294 H 497.848 2.1855 -1.30797 0
M  V30 5295 H 498.631 1.78706 -2.9312 0
M  V30 5296 N 501.076 1.04316 1.18135 0
M  V30 5297 C 502.324 0.746542 1.87806 0
M  V30 5298 C 502.645 -0.728082 1.80898 0
M  V30 5299 O 501.915 -1.52554 1.22899 0
M  V30 5300 H 500.495 0.273157 0.695265 0
M  V30 5301 H 503.157 1.32044 1.43354 0
M  V30 5302 H 502.253 1.05362 2.93778 0
M  V30 5303 N 502.554 -1.34406 0.822964 0
M  V30 5304 C 503.97 -1.51275 0.508727 0
M  V30 5305 C 504.17 -1.76776 -0.967083 0
M  V30 5306 O 503.226 -1.81871 -1.75155 0
M  V30 5307 C 504.539 -2.67765 1.36829 0
M  V30 5308 C 506.087 -2.81647 1.36542 0
M  V30 5309 C 506.562 -4.01181 2.20947 0
M  V30 5310 N 508.053 -4.08388 2.18571 0
M  V30 5311 C 508.788 -5.00036 2.80627 0
M  V30 5312 N 508.284 -5.96906 3.51674 0
M  V30 5313 N 510.077 -4.92908 2.70181 0
M  V30 5314 H 502.228 -1.16113 1.77852 0
M  V30 5315 H 504.491 -0.56947 0.757897 0
M  V30 5316 H 504.197 -2.55551 2.41633 0
M  V30 5317 H 504.071 -3.62779 1.03303 0
M  V30 5318 H 506.458 -2.93303 0.325163 0
M  V30 5319 H 506.539 -1.87443 1.74066 0
M  V30 5320 H 506.183 -3.90286 3.25022 0
M  V30 5321 H 506.113 -4.94599 1.80774 0
M  V30 5322 H 508.604 -3.39051 1.66891 0
M  V30 5323 H 508.917 -6.63468 3.96271 0
M  V30 5324 H 507.262 -5.9703 3.5578 0
M  V30 5325 H 510.453 -4.1619 2.14251 0
M  V30 5326 H 510.626 -5.64137 3.18831 0
M  V30 5327 N 504.032 -0.577932 -1.46621 0
M  V30 5328 C 505.26 -0.0671642 -2.06791 0
M  V30 5329 C 505.675 1.23571 -1.42743 0
M  V30 5330 O 505.032 1.74602 -0.531062 0
M  V30 5331 C 505.083 0.110357 -3.61332 0
M  V30 5332 O 504.804 -1.14095 -4.22982 0
M  V30 5333 C 506.305 0.656025 -4.38419 0
M  V30 5334 H 503.525 -0.0552732 -0.66872 0
M  V30 5335 H 506.069 -0.797242 -1.8832 0
M  V30 5336 H 504.224 0.790637 -3.79246 0
M  V30 5337 H 504.638 -0.951742 -5.15793 0
M  V30 5338 H 506.112 0.729438 -5.47159 0
M  V30 5339 H 506.589 1.67195 -4.06131 0
M  V30 5340 H 507.195 0.0107692 -4.25299 0
M  V30 5341 N 505.51 1.54411 -0.315457 0
M  V30 5342 C 506.473 2.22713 0.54142 0
M  V30 5343 C 507.473 1.2179 1.04995 0
M  V30 5344 O 508.663 1.46426 0.943667 0
M  V30 5345 C 505.795 2.92485 1.75116 0
M  V30 5346 H 506.988 2.99849 -0.0555508 0
M  V30 5347 H 504.541 1.56159 -0.0664453 0
M  V30 5348 H 505.276 2.19466 2.38758 0
M  V30 5349 H 505.061 3.66483 1.39401 0
M  V30 5350 H 506.551 3.44548 2.35959 0
M  V30 5351 N 506.988 0.0434614 1.5754 0
M  V30 5352 C 508.213 -0.645358 1.97104 0
M  V30 5353 C 508.638 -1.64037 0.920521 0
M  V30 5354 O 507.996 -1.80922 -0.11708 0
M  V30 5355 C 508.044 -1.31547 3.35749 0
M  V30 5356 O 507.148 -2.43103 3.33129 0
M  V30 5357 H 506.489 -0.168403 0.64229 0
M  V30 5358 H 509.019 0.109573 2.04306 0
M  V30 5359 H 509.029 -1.66895 3.72304 0
M  V30 5360 H 507.704 -0.586205 4.11748 0
M  V30 5361 H 506.281 -2.0976 3.0831 0
M  V30 5362 N 508.466 -1.55915 -0.229846 0
M  V30 5363 C 509.396 -1.94754 -1.28815 0
M  V30 5364 C 510.377 -0.814657 -1.49323 0
M  V30 5365 O 511.562 -1.07631 -1.61645 0
M  V30 5366 C 508.692 -2.25705 -2.63959 0
M  V30 5367 C 507.646 -3.41406 -2.5812 0
M  V30 5368 C 506.972 -3.57941 -3.97218 0
M  V30 5369 C 508.272 -4.76616 -2.13623 0
M  V30 5370 H 509.966 -2.83404 -0.965547 0
M  V30 5371 H 507.512 -1.36353 -0.463028 0
M  V30 5372 H 509.465 -2.51467 -3.38146 0
M  V30 5373 H 508.189 -1.339 -2.9789 0
M  V30 5374 H 506.848 -3.1568 -1.86391 0
M  V30 5375 H 506.496 -2.63526 -4.28443 0
M  V30 5376 H 506.196 -4.35757 -3.94195 0
M  V30 5377 H 507.72 -3.86042 -4.73079 0
M  V30 5378 H 509.134 -5.01637 -2.77549 0
M  V30 5379 H 507.531 -5.57655 -2.21677 0
M  V30 5380 H 508.601 -4.7253 -1.08829 0
M  V30 5381 N 509.944 0.496216 -1.49584 0
M  V30 5382 C 511.355 1.07765 -1.52459 0
M  V30 5383 C 511.706 1.93679 -0.31353 0
M  V30 5384 O 510.831 2.08588 0.576186 0
M  V30 5385 C 511.426 1.96111 -2.76271 0
M  V30 5386 C 509.985 2.49409 -2.81908 0
M  V30 5387 C 509.132 1.27142 -2.46435 0
M  V30 5388 H 512.083 0.279914 -1.56212 0
M  V30 5389 H 512.104 2.80862 -2.56704 0
M  V30 5390 H 511.616 1.33555 -3.64396 0
M  V30 5391 H 509.717 3.1559 -1.98074 0
M  V30 5392 H 509.83 2.86234 -3.84196 0
M  V30 5393 H 508.194 1.59818 -1.98319 0
M  V30 5394 H 508.977 0.662866 -3.3684 0
M  V30 5395 N 511.423 1.38739 0.74761 0
M  V30 5396 C 512.333 1.38696 1.89211 0
M  V30 5397 C 513.349 0.283303 1.71678 0
M  V30 5398 O 514.525 0.522713 1.94498 0
M  V30 5399 C 511.59 1.21662 3.24653 0
M  V30 5400 C 510.651 2.41886 3.54669 0
M  V30 5401 C 509.884 2.25655 4.83648 0
M  V30 5402 O 510.107 1.25339 5.56459 0
M  V30 5403 O 509.041 3.14372 5.13277 0
M  V30 5404 H 512.867 2.35143 1.92202 0
M  V30 5405 H 510.452 1.19721 0.893708 0
M  V30 5406 H 512.334 1.14246 4.05618 0
M  V30 5407 H 511.009 0.283024 3.2246 0
M  V30 5408 H 509.916 2.54877 2.73841 0
M  V30 5409 H 511.249 3.33895 3.61628 0
M  V30 5410 N 512.901 -0.976442 1.23707 0
M  V30 5411 C 513.864 -2.0511 1.02287 0
M  V30 5412 C 514.864 -1.60791 -0.0167195 0
M  V30 5413 O 516.054 -1.72761 0.223408 0
M  V30 5414 C 513.186 -3.36458 0.548507 0
M  V30 5415 H 514.379 -2.25545 1.9766 0
M  V30 5416 H 511.932 -1.15042 1.05806 0
M  V30 5417 H 512.667 -3.21713 -0.408818 0
M  V30 5418 H 512.452 -3.69967 1.29874 0
M  V30 5419 H 513.942 -4.15489 0.419406 0
M  V30 5420 N 514.379 -1.04941 -1.1758 0
M  V30 5421 C 515.627 -0.756492 -1.87408 0
M  V30 5422 C 515.948 0.718478 -1.81281 0
M  V30 5423 O 515.218 1.519 -1.23706 0
M  V30 5424 H 513.798 -0.276841 -0.693807 0
M  V30 5425 H 516.46 -1.32803 -1.42652 0
M  V30 5426 H 515.556 -1.06918 -2.93215 0
M  V30 5427 N 515.857 1.33968 -0.830081 0
M  V30 5428 C 516.767 2.33164 -0.259207 0
M  V30 5429 C 517.783 1.62951 0.610164 0
M  V30 5430 O 518.959 1.94668 0.516369 0
M  V30 5431 C 516.024 3.42088 0.563598 0
M  V30 5432 C 515.085 4.28037 -0.329014 0
M  V30 5433 C 514.318 5.3176 0.454616 0
M  V30 5434 O 514.541 5.44876 1.6872 0
M  V30 5435 O 513.475 6.01669 -0.166794 0
M  V30 5436 H 517.301 2.83832 -1.08041 0
M  V30 5437 H 514.886 1.37154 -0.59239 0
M  V30 5438 H 516.768 4.08581 1.03147 0
M  V30 5439 H 515.443 2.93651 1.36201 0
M  V30 5440 H 514.35 3.64443 -0.844538 0
M  V30 5441 H 515.683 4.79934 -1.09196 0
M  V30 5442 N 517.335 0.585699 1.46312 0
M  V30 5443 C 518.282 -0.145835 2.30339 0
M  V30 5444 C 519.252 -0.881215 1.40797 0
M  V30 5445 O 520.437 -0.871293 1.69744 0
M  V30 5446 C 517.577 -1.15161 3.25318 0
M  V30 5447 C 516.69 -0.419367 4.2996 0
M  V30 5448 C 515.825 -1.41293 5.12064 0
M  V30 5449 C 514.864 -0.667261 6.08452 0
M  V30 5450 N 514.001 -1.60903 6.83414 0
M  V30 5451 H 518.841 0.576755 2.92365 0
M  V30 5452 H 516.378 0.296237 1.44086 0
M  V30 5453 H 518.336 -1.74763 3.78832 0
M  V30 5454 H 516.966 -1.84188 2.65094 0
M  V30 5455 H 516.018 0.291751 3.7928 0
M  V30 5456 H 517.33 0.163433 4.98532 0
M  V30 5457 H 516.484 -2.08167 5.6987 0
M  V30 5458 H 515.223 -2.02966 4.43459 0
M  V30 5459 H 514.228 0.0152356 5.49798 0
M  V30 5460 H 515.453 -0.0558817 6.79077 0
M  V30 5461 H 513.399 -2.21381 6.17516 0
M  V30 5462 H 513.316 -1.07911 7.48259 0
M  V30 5463 H 514.584 -2.26802 7.45775 0
M  V30 5464 N 518.813 -1.54241 0.323641 0
M  V30 5465 C 519.743 -2.27289 -0.534993 0
M  V30 5466 C 520.724 -1.28087 -1.11927 0
M  V30 5467 O 521.909 -1.56899 -1.14439 0
M  V30 5468 C 519.039 -3.03075 -1.69596 0
M  V30 5469 C 517.993 -4.09614 -1.24098 0
M  V30 5470 C 517.319 -4.73242 -2.4889 0
M  V30 5471 C 518.619 -5.21087 -0.355789 0
M  V30 5472 H 520.313 -2.99308 0.0743257 0
M  V30 5473 H 517.859 -1.43952 0.0371874 0
M  V30 5474 H 519.812 -3.52907 -2.30293 0
M  V30 5475 H 518.536 -2.28673 -2.33187 0
M  V30 5476 H 517.195 -3.60666 -0.656945 0
M  V30 5477 H 516.843 -3.95455 -3.10845 0
M  V30 5478 H 516.543 -5.45209 -2.19138 0
M  V30 5479 H 518.067 -5.25848 -3.10348 0
M  V30 5480 H 519.481 -5.66675 -0.869042 0
M  V30 5481 H 517.878 -5.9991 -0.151045 0
M  V30 5482 H 518.948 -4.81005 0.613339 0
M  V30 5483 N 520.291 -0.0518155 -1.57515 0
M  V30 5484 C 521.538 0.621823 -1.92716 0
M  V30 5485 C 521.866 1.70813 -0.930229 0
M  V30 5486 O 521.121 1.95616 0.0573708 0
M  V30 5487 C 521.42 1.25607 -3.34601 0
M  V30 5488 C 521.086 0.297901 -4.49915 0
M  V30 5489 C 519.748 0.034243 -4.81188 0
M  V30 5490 C 522.1 -0.358738 -5.19964 0
M  V30 5491 C 519.428 -0.893479 -5.79857 0
M  V30 5492 C 521.78 -1.27466 -6.19625 0
M  V30 5493 C 520.444 -1.54698 -6.49326 0
M  V30 5494 H 519.714 0.227541 -0.705199 0
M  V30 5495 H 522.361 -0.118432 -1.91133 0
M  V30 5496 H 520.666 2.07161 -3.32553 0
M  V30 5497 H 522.363 1.78424 -3.59118 0
M  V30 5498 H 518.953 0.513581 -4.25512 0
M  V30 5499 H 523.137 -0.168133 -4.96015 0
M  V30 5500 H 518.393 -1.11193 -6.01204 0
M  V30 5501 H 522.567 -1.78953 -6.73015 0
M  V30 5502 H 520.194 -2.26748 -7.25596 0
M  V30 5503 N 521.769 1.56035 0.221574 0
M  V30 5504 C 523.18 1.69229 0.788567 0
M  V30 5505 C 523.531 0.653814 1.84986 0
M  V30 5506 O 522.656 -0.195065 2.15519 0
M  V30 5507 C 523.251 3.06809 1.43713 0
M  V30 5508 C 521.81 3.21858 1.95152 0
M  V30 5509 C 520.957 2.65155 0.811685 0
M  V30 5510 H 523.908 1.587 -0.00307894 0
M  V30 5511 H 523.929 3.02666 2.30594 0
M  V30 5512 H 523.441 3.82369 0.664475 0
M  V30 5513 H 521.542 2.51167 2.7522 0
M  V30 5514 H 521.655 4.29073 2.1315 0
M  V30 5515 H 520.019 2.23635 1.21899 0
M  V30 5516 H 520.802 3.43261 0.0516987 0
M  V30 5517 N 523.247 -0.488276 1.49845 0
M  V30 5518 C 524.477 -1.26344 1.63465 0
M  V30 5519 C 524.885 -1.86637 0.310379 0
M  V30 5520 O 524.228 -1.69184 -0.715712 0
M  V30 5521 C 524.29 -2.42407 2.65479 0
M  V30 5522 C 523.954 -2.02886 4.09495 0
M  V30 5523 C 524.951 -1.56124 4.95904 0
M  V30 5524 C 522.636 -2.12131 4.55308 0
M  V30 5525 C 524.63 -1.19129 6.26169 0
M  V30 5526 C 522.317 -1.74747 5.85582 0
M  V30 5527 C 523.315 -1.28322 6.70837 0
M  V30 5528 O 523.003 -0.914491 7.98682 0
M  V30 5529 H 522.735 -0.388921 0.552916 0
M  V30 5530 H 525.289 -0.591288 1.96705 0
M  V30 5531 H 523.519 -3.12739 2.27445 0
M  V30 5532 H 525.208 -3.04409 2.68495 0
M  V30 5533 H 525.974 -1.48417 4.61733 0
M  V30 5534 H 521.853 -2.47217 3.89107 0
M  V30 5535 H 525.397 -0.828211 6.92666 0
M  V30 5536 H 521.294 -1.82109 6.19279 0
M  V30 5537 H 522.062 -1.04485 8.11804 0
M  V30 5538 N 524.725 -1.39134 -0.740242 0
M  V30 5539 C 525.655 -1.40165 -1.86751 0
M  V30 5540 C 526.636 -0.265708 -1.68012 0
M  V30 5541 O 527.821 -0.47076 -1.88408 0
M  V30 5542 C 524.951 -1.2392 -3.2444 0
M  V30 5543 C 523.905 -2.34858 -3.57807 0
M  V30 5544 C 523.231 -2.03707 -4.94376 0
M  V30 5545 C 524.531 -3.77159 -3.61315 0
M  V30 5546 H 526.225 -2.345 -1.86145 0
M  V30 5547 H 523.771 -1.12875 -0.89416 0
M  V30 5548 H 525.724 -1.23263 -4.02969 0
M  V30 5549 H 524.448 -0.26051 -3.25559 0
M  V30 5550 H 523.107 -2.34723 -2.81604 0
M  V30 5551 H 522.755 -1.04289 -4.9207 0
M  V30 5552 H 522.455 -2.78016 -5.17669 0
M  V30 5553 H 523.979 -2.04691 -5.75268 0
M  V30 5554 H 525.393 -3.79252 -4.29931 0
M  V30 5555 H 523.79 -4.50784 -3.96124 0
M  V30 5556 H 524.86 -4.08513 -2.61238 0
M  V30 5557 N 526.204 0.969867 -1.24223 0
M  V30 5558 C 527.481 1.68774 -0.988664 0
M  V30 5559 C 527.861 2.05342 0.489673 0
M  V30 5560 O 527.209 1.75486 1.46345 0
M  V30 5561 C 527.419 2.92135 -1.90941 0
M  V30 5562 C 528.767 3.64422 -2.17903 0
M  V30 5563 O 529.791 3.02188 -1.88576 0
M  V30 5564 O 528.65 4.76446 -2.67697 0
M  V30 5565 H 525.744 0.737736 -0.37373 0
M  V30 5566 H 528.29 1.02415 -1.35312 0
M  V30 5567 H 527.062 2.61788 -2.90831 0
M  V30 5568 H 526.685 3.66228 -1.54798 0
M  V30 5569 N 527.682 1.05563 1.17022 0
M  V30 5570 C 529.093 0.793475 1.69 0
M  V30 5571 C 529.444 -0.683882 1.83895 0
M  V30 5572 O 528.569 -1.53116 1.5292 0
M  V30 5573 C 529.164 1.43376 3.06967 0
M  V30 5574 C 527.723 1.21956 3.56095 0
M  V30 5575 C 526.87 1.51494 2.3226 0
M  V30 5576 H 529.821 1.22008 1.01487 0
M  V30 5577 H 529.842 0.845068 3.70997 0
M  V30 5578 H 529.354 2.50899 2.96093 0
M  V30 5579 H 527.455 0.163749 3.7224 0
M  V30 5580 H 527.568 1.92713 4.38633 0
M  V30 5581 H 525.932 0.935175 2.3691 0
M  V30 5582 H 526.715 2.60159 2.23992 0
M  V30 5583 N 529.16 -1.33526 0.837174 0
M  V30 5584 C 530.407 -1.97837 0.432064 0
M  V30 5585 C 530.735 -1.66324 -1.00829 0
M  V30 5586 O 529.99 -0.93448 -1.71948 0
M  V30 5587 C 530.289 -3.52367 0.597675 0
M  V30 5588 C 529.955 -4.03826 2.00587 0
M  V30 5589 C 528.617 -4.1759 2.39106 0
M  V30 5590 C 530.969 -4.31333 2.92576 0
M  V30 5591 C 528.297 -4.56195 3.68921 0
M  V30 5592 C 530.649 -4.7139 4.2187 0
M  V30 5593 C 529.313 -4.8336 4.60347 0
M  V30 5594 H 528.583 -0.723937 0.158104 0
M  V30 5595 H 531.23 -1.5923 1.06387 0
M  V30 5596 H 529.535 -3.91624 -0.117452 0
M  V30 5597 H 531.232 -4.00126 0.26454 0
M  V30 5598 H 527.822 -3.93586 1.69671 0
M  V30 5599 H 532.006 -4.20224 2.64056 0
M  V30 5600 H 527.262 -4.63655 3.9854 0
M  V30 5601 H 531.436 -4.91631 4.93226 0
M  V30 5602 H 529.063 -5.1303 5.60985 0
M  V30 5603 N 530.638 -0.59345 -1.46 0
M  V30 5604 C 531.915 -0.0157933 -1.95594 0
M  V30 5605 C 532.295 1.44807 -1.53604 0
M  V30 5606 O 531.643 2.14342 -0.791824 0
M  V30 5607 C 531.853 -0.199081 -3.48432 0
M  V30 5608 C 533.201 -0.0724943 -4.24538 0
M  V30 5609 O 534.225 -0.128469 -3.55968 0
M  V30 5610 O 533.084 0.0542426 -5.46473 0
M  V30 5611 H 530.178 0.043749 -0.825842 0
M  V30 5612 H 532.724 -0.662522 -1.56233 0
M  V30 5613 H 531.496 -1.21631 -3.71916 0
M  V30 5614 H 531.119 0.483576 -3.94648 0
M  V30 5615 N 532.116 1.54067 -0.331816 0
M  V30 5616 C 533.341 2.05599 0.272705 0
M  V30 5617 C 533.766 1.2059 1.44359 0
M  V30 5618 O 533.124 0.216907 1.79998 0
M  V30 5619 C 533.172 3.54188 0.677021 0
M  V30 5620 O 532.276 3.72082 1.77844 0
M  V30 5621 H 531.617 0.662286 0.0476801 0
M  V30 5622 H 534.147 1.98826 -0.482624 0
M  V30 5623 H 534.157 3.96608 0.957415 0
M  V30 5624 H 532.832 4.15513 -0.179325 0
M  V30 5625 H 531.409 3.41566 1.49622 0
M  V30 5626 N 533.594 0.0601682 1.57485 0
M  V30 5627 C 534.557 -0.896373 2.10945 0
M  V30 5628 C 535.557 -1.23402 1.03095 0
M  V30 5629 O 536.747 -1.16921 1.29132 0
M  V30 5630 C 533.879 -2.20346 2.60116 0
M  V30 5631 H 535.072 -0.432778 2.96761 0
M  V30 5632 H 532.625 -0.188372 1.55161 0
M  V30 5633 H 533.36 -2.71268 1.7772 0
M  V30 5634 H 533.145 -1.9714 3.38937 0
M  V30 5635 H 534.635 -2.88846 3.01592 0
M  V30 5636 N 535.072 -1.5615 -0.213296 0
M  V30 5637 C 536.297 -1.83986 -0.957282 0
M  V30 5638 C 536.722 -0.641526 -1.76822 0
M  V30 5639 O 536.08 0.409722 -1.7661 0
M  V30 5640 C 536.128 -3.09889 -1.84393 0
M  V30 5641 O 535.232 -2.89163 -2.94038 0
M  V30 5642 H 534.573 -0.606357 -0.270605 0
M  V30 5643 H 537.103 -2.03369 -0.224111 0
M  V30 5644 H 537.113 -3.40209 -2.25215 0
M  V30 5645 H 535.788 -3.96735 -1.24795 0
M  V30 5646 H 534.365 -2.70097 -2.57103 0
M  V30 5647 N 536.55 0.480323 -1.50102 0
M  V30 5648 C 537.482 1.59669 -1.64433 0
M  V30 5649 C 538.495 1.54063 -0.52615 0
M  V30 5650 O 539.684 1.59619 -0.798992 0
M  V30 5651 C 536.784 2.98527 -1.6042 0
M  V30 5652 C 535.957 3.291 -2.88117 0
M  V30 5653 C 535.016 4.47468 -2.76873 0
M  V30 5654 O 534.042 4.4823 -3.50825 0
M  V30 5655 N 535.244 5.48593 -1.89806 0
M  V30 5656 H 538.009 1.47795 -2.60723 0
M  V30 5657 H 535.57 0.66858 -1.4745 0
M  V30 5658 H 537.562 3.75666 -1.50523 0
M  V30 5659 H 536.132 3.04218 -0.719036 0
M  V30 5660 H 535.352 2.40662 -3.12211 0
M  V30 5661 H 536.64 3.46334 -3.72734 0
M  V30 5662 H 536.038 5.50791 -1.2902 0
M  V30 5663 H 534.595 6.24752 -1.85819 0
M  V30 5664 N 538.028 1.39524 0.732853 0
M  V30 5665 C 538.958 1.41153 1.86005 0
M  V30 5666 C 539.939 0.274614 1.67869 0
M  V30 5667 O 541.124 0.480745 1.88155 0
M  V30 5668 C 538.254 1.25638 3.23778 0
M  V30 5669 C 537.208 2.36752 3.56556 0
M  V30 5670 C 536.534 2.06326 4.93289 0
M  V30 5671 C 537.834 3.79069 3.5931 0
M  V30 5672 H 539.528 2.35484 1.84899 0
M  V30 5673 H 537.074 1.13348 0.888162 0
M  V30 5674 H 539.027 1.25398 4.0231 0
M  V30 5675 H 537.751 0.277772 3.25417 0
M  V30 5676 H 536.41 2.36213 2.80355 0
M  V30 5677 H 536.058 1.06897 4.9151 0
M  V30 5678 H 535.758 2.80757 5.16187 0
M  V30 5679 H 537.282 2.07739 5.74175 0
M  V30 5680 H 538.696 3.81526 4.27914 0
M  V30 5681 H 537.093 4.52878 3.93728 0
M  V30 5682 H 538.163 4.09893 2.59068 0
M  V30 5683 N 539.506 -0.963266 1.24736 0
M  V30 5684 C 540.439 -2.05758 0.986852 0
M  V30 5685 C 541.417 -1.62398 -0.0809272 0
M  V30 5686 O 542.601 -1.88414 0.0569347 0
M  V30 5687 C 539.728 -3.35135 0.490095 0
M  V30 5688 C 538.774 -3.97451 1.54709 0
M  V30 5689 S 539.607 -4.34519 3.12976 0
M  V30 5690 C 540.763 -5.67026 2.65014 0
M  V30 5691 H 540.996 -2.27539 1.91346 0
M  V30 5692 H 538.529 -1.10176 1.08169 0
M  V30 5693 H 540.487 -4.09962 0.21012 0
M  V30 5694 H 539.148 -3.11335 -0.415873 0
M  V30 5695 H 538.341 -4.90704 1.15003 0
M  V30 5696 H 537.943 -3.29071 1.77731 0
M  V30 5697 H 540.235 -6.44748 2.08102 0
M  V30 5698 H 541.178 -6.11594 3.56873 0
M  V30 5699 H 541.586 -5.25847 2.05294 0
M  V30 5700 N 540.985 -1.06182 -1.16461 0
M  V30 5701 C 541.895 -0.682671 -2.24448 0
M  V30 5702 C 542.911 0.30078 -1.71381 0
M  V30 5703 O 544.087 0.150376 -2.00838 0
M  V30 5704 C 541.152 -0.0737202 -3.46622 0
M  V30 5705 C 540.213 -1.10889 -4.14731 0
M  V30 5706 C 539.446 -0.528908 -5.31073 0
M  V30 5707 O 539.669 0.65868 -5.66584 0
M  V30 5708 O 538.603 -1.26805 -5.88391 0
M  V30 5709 H 542.429 -1.58291 -2.59187 0
M  V30 5710 H 540.014 -0.834013 -1.23954 0
M  V30 5711 H 541.896 0.264192 -4.20571 0
M  V30 5712 H 540.571 0.800015 -3.13658 0
M  V30 5713 H 539.478 -1.49896 -3.42756 0
M  V30 5714 H 540.811 -1.95412 -4.51747 0
M  V30 5715 N 542.463 1.3308 -0.844243 0
M  V30 5716 C 543.874 1.7992 -0.498566 0
M  V30 5717 C 544.225 1.69808 0.982834 0
M  V30 5718 O 543.35 1.25051 1.7661 0
M  V30 5719 C 543.945 3.26677 -0.898204 0
M  V30 5720 C 542.504 3.71513 -0.604583 0
M  V30 5721 C 541.651 2.54393 -1.10362 0
M  V30 5722 H 544.602 1.20526 -1.03244 0
M  V30 5723 H 544.623 3.79918 -0.21039 0
M  V30 5724 H 544.135 3.34004 -1.97643 0
M  V30 5725 H 542.236 3.69708 0.46335 0
M  V30 5726 H 542.349 4.64755 -1.16358 0
M  V30 5727 H 540.713 2.49246 -0.524273 0
M  V30 5728 H 541.496 2.6448 -2.18873 0
M  V30 5729 N 543.941 0.601185 1.45683 0
M  V30 5730 C 545.189 0.0936957 2.01883 0
M  V30 5731 C 545.51 -1.2779 1.47291 0
M  V30 5732 O 544.78 -1.84279 0.664691 0
M  V30 5733 H 543.36 0.0316466 0.746329 0
M  V30 5734 H 546.022 0.781137 1.78562 0
M  V30 5735 H 545.118 0.0386297 3.12076 0
M  V30 5736 N 545.419 -1.53889 0.339982 0
M  V30 5737 C 546.835 -1.59595 -0.0120752 0
M  V30 5738 C 547.035 -1.35605 -1.49042 0
M  V30 5739 O 546.091 -1.14856 -2.24865 0
M  V30 5740 C 547.404 -2.9774 0.420898 0
M  V30 5741 C 548.952 -3.1077 0.37294 0
M  V30 5742 C 549.427 -4.51286 0.781327 0
M  V30 5743 N 550.918 -4.57325 0.735374 0
M  V30 5744 C 551.653 -5.64194 1.02336 0
M  V30 5745 N 551.149 -6.7893 1.37933 0
M  V30 5746 N 552.942 -5.54051 0.947838 0
M  V30 5747 H 545.093 -1.67738 1.30299 0
M  V30 5748 H 547.356 -0.785385 0.530918 0
M  V30 5749 H 547.062 -3.20349 1.45152 0
M  V30 5750 H 546.936 -3.76639 -0.205721 0
M  V30 5751 H 549.323 -2.87886 -0.648505 0
M  V30 5752 H 549.404 -2.33939 1.03472 0
M  V30 5753 H 549.048 -4.74905 1.80077 0
M  V30 5754 H 548.978 -5.26511 0.0970679 0
M  V30 5755 H 551.469 -3.74931 0.472773 0
M  V30 5756 H 551.782 -7.56392 1.58402 0
M  V30 5757 H 550.127 -6.80386 1.41774 0
M  V30 5758 H 553.318 -4.63293 0.669115 0
M  V30 5759 H 553.491 -6.37246 1.17563 0
M  V30 5760 N 546.897 -0.0685191 -1.57451 0
M  V30 5761 C 547.829 0.929372 -2.09512 0
M  V30 5762 C 548.842 1.26354 -1.02657 0
M  V30 5763 O 550.031 1.2213 -1.30179 0
M  V30 5764 C 547.131 2.24612 -2.53777 0
M  V30 5765 C 546.304 2.09128 -3.84167 0
M  V30 5766 C 545.363 3.24079 -4.14559 0
M  V30 5767 O 544.389 2.99215 -4.8421 0
M  V30 5768 N 545.591 4.49077 -3.67845 0
M  V30 5769 H 548.356 0.484901 -2.95751 0
M  V30 5770 H 545.917 0.11729 -1.61475 0
M  V30 5771 H 547.909 3.00412 -2.71172 0
M  V30 5772 H 546.479 2.60569 -1.72692 0
M  V30 5773 H 545.699 1.17815 -3.76182 0
M  V30 5774 H 546.987 1.9603 -4.69521 0
M  V30 5775 H 546.385 4.72165 -3.11571 0
M  V30 5776 H 544.942 5.21915 -3.90446 0
M  V30 5777 N 548.375 1.56261 0.205012 0
M  V30 5778 C 549.6 1.84491 0.947512 0
M  V30 5779 C 550.025 0.650894 1.76479 0
M  V30 5780 O 549.383 -0.40035 1.76824 0
M  V30 5781 C 549.431 3.10863 1.82747 0
M  V30 5782 O 548.535 2.90719 2.925 0
M  V30 5783 H 547.876 0.607783 0.267386 0
M  V30 5784 H 550.406 2.03485 0.213323 0
M  V30 5785 H 550.416 3.41399 2.23407 0
M  V30 5786 H 549.091 3.97392 1.2269 0
M  V30 5787 H 547.668 2.71457 2.55667 0
M  V30 5788 N 549.853 -0.472356 1.50355 0
M  V30 5789 C 550.786 -1.58923 1.63764 0
M  V30 5790 C 551.764 -1.55173 0.485793 0
M  V30 5791 O 552.948 -1.74815 0.705132 0
M  V30 5792 C 550.075 -2.97497 1.61905 0
M  V30 5793 C 549.121 -3.19405 2.82635 0
M  V30 5794 S 549.954 -2.99441 4.43954 0
M  V30 5795 C 551.11 -4.40359 4.44786 0
M  V30 5796 H 551.343 -1.47309 2.58239 0
M  V30 5797 H 548.876 -0.659601 1.39602 0
M  V30 5798 H 550.834 -3.77389 1.61518 0
M  V30 5799 H 549.495 -3.06502 0.686683 0
M  V30 5800 H 548.688 -4.20636 2.77636 0
M  V30 5801 H 548.29 -2.47283 2.80583 0
M  V30 5802 H 550.582 -5.32969 4.1827 0
M  V30 5803 H 551.525 -4.50403 5.46391 0
M  V30 5804 H 551.933 -4.22378 3.74509 0
M  V30 5805 N 551.331 -1.39911 -0.725443 0
M  V30 5806 C 552.608 -1.28158 -1.47766 0
M  V30 5807 C 552.988 0.104545 -2.10841 0
M  V30 5808 O 552.336 1.11657 -1.99361 0
M  V30 5809 C 552.546 -2.41306 -2.52135 0
M  V30 5810 C 553.894 -2.81076 -3.18247 0
M  V30 5811 O 554.918 -2.40827 -2.62452 0
M  V30 5812 O 553.777 -3.50581 -4.19231 0
M  V30 5813 H 550.871 -0.502761 -0.656628 0
M  V30 5814 H 553.417 -1.51808 -0.758456 0
M  V30 5815 H 552.189 -3.33932 -2.03974 0
M  V30 5816 H 551.812 -2.19374 -3.31603 0
M  V30 5817 N 552.809 0.956637 -1.25245 0
M  V30 5818 C 553.739 2.07058 -1.07931 0
M  V30 5819 C 554.72 1.70096 0.0110361 0
M  V30 5820 O 555.905 1.93555 -0.158121 0
M  V30 5821 C 553.035 3.40272 -0.695124 0
M  V30 5822 C 551.989 3.91235 -1.73549 0
M  V30 5823 C 551.315 5.20921 -1.20604 0
M  V30 5824 C 552.615 4.17837 -3.13385 0
M  V30 5825 H 554.309 2.218 -2.01109 0
M  V30 5826 H 551.855 1.06581 -0.968326 0
M  V30 5827 H 553.808 4.1765 -0.560949 0
M  V30 5828 H 552.532 3.25462 0.272355 0
M  V30 5829 H 551.191 3.16025 -1.85807 0
M  V30 5830 H 550.839 5.02479 -0.228846 0
M  V30 5831 H 550.539 5.55987 -1.90136 0
M  V30 5832 H 552.063 6.00897 -1.08421 0
M  V30 5833 H 553.477 4.8588 -3.04292 0
M  V30 5834 H 551.874 4.64154 -3.80369 0
M  V30 5835 H 552.944 3.2419 -3.60595 0
M  V30 5836 N 554.287 1.06798 1.15896 0
M  V30 5837 C 555.533 0.788934 1.86825 0
M  V30 5838 C 555.866 -0.683084 1.8179 0
M  V30 5839 O 555.141 -1.50086 1.23711 0
M  V30 5840 C 555.424 1.29065 3.36176 0
M  V30 5841 C 555.277 2.8268 3.49874 0
M  V30 5842 C 556.596 0.902655 4.30744 0
M  V30 5843 H 553.715 0.288066 0.678371 0
M  V30 5844 H 556.357 1.32479 1.36195 0
M  V30 5845 H 554.507 0.834806 3.79425 0
M  V30 5846 H 556.179 3.36511 3.15528 0
M  V30 5847 H 554.422 3.21157 2.91617 0
M  V30 5848 H 555.093 3.12852 4.54783 0
M  V30 5849 H 557.569 1.29535 3.95424 0
M  V30 5850 H 556.445 1.28111 5.3374 0
M  V30 5851 H 556.706 -0.191951 4.41683 0
M  V30 5852 N 555.766 -1.3263 0.851289 0
M  V30 5853 C 556.676 -2.32722 0.296268 0
M  V30 5854 C 557.692 -1.63901 -0.584162 0
M  V30 5855 O 558.868 -1.95465 -0.485334 0
M  V30 5856 C 555.933 -3.42942 -0.509103 0
M  V30 5857 C 554.994 -4.2746 0.397069 0
M  V30 5858 C 554.227 -5.32416 -0.36996 0
M  V30 5859 O 554.45 -5.47491 -1.6003 0
M  V30 5860 O 553.384 -6.01327 0.262493 0
M  V30 5861 H 557.21 -2.82078 1.12543 0
M  V30 5862 H 554.795 -1.36194 0.614135 0
M  V30 5863 H 556.677 -4.1017 -0.96634 0
M  V30 5864 H 555.352 -2.95781 -1.31512 0
M  V30 5865 H 554.259 -3.63053 0.902411 0
M  V30 5866 H 555.592 -4.78136 1.16818 0
M  V30 5867 N 557.244 -0.608902 -1.45362 0
M  V30 5868 C 558.174 0.0964526 -2.33301 0
M  V30 5869 C 559.155 0.857444 -1.46908 0
M  V30 5870 O 560.34 0.827735 -1.75676 0
M  V30 5871 C 557.47 1.09354 -3.29635 0
M  V30 5872 C 556.424 0.445676 -4.25673 0
M  V30 5873 C 555.75 1.5511 -5.11708 0
M  V30 5874 C 557.05 -0.633972 -5.18438 0
M  V30 5875 H 558.744 -0.637829 -2.92527 0
M  V30 5876 H 556.29 -0.308178 -1.40664 0
M  V30 5877 H 558.243 1.59556 -3.90025 0
M  V30 5878 H 556.967 1.85843 -2.6857 0
M  V30 5879 H 555.626 -0.0354897 -3.66583 0
M  V30 5880 H 555.274 2.30631 -4.4701 0
M  V30 5881 H 554.974 1.12311 -5.76767 0
M  V30 5882 H 556.498 2.05537 -5.74967 0
M  V30 5883 H 557.912 -0.215974 -5.72893 0
M  V30 5884 H 556.309 -0.983789 -5.91981 0
M  V30 5885 H 557.379 -1.51005 -4.60788 0
M  V30 5886 N 558.722 1.53707 -0.348139 0
M  V30 5887 C 559.968 2.01286 0.247332 0
M  V30 5888 C 560.301 1.23546 1.49834 0
M  V30 5889 O 559.576 0.324331 1.91777 0
M  V30 5890 C 559.859 3.55768 0.556858 0
M  V30 5891 C 559.712 4.44216 -0.706564 0
M  V30 5892 C 561.031 4.1841 1.3646 0
M  V30 5893 H 558.15 0.731677 0.0884201 0
M  V30 5894 H 560.792 1.84106 -0.469584 0
M  V30 5895 H 558.942 3.70539 1.16761 0
M  V30 5896 H 560.614 4.41274 -1.34444 0
M  V30 5897 H 558.857 4.12892 -1.33052 0
M  V30 5898 H 559.528 5.50202 -0.445186 0
M  V30 5899 H 562.004 4.07365 0.848113 0
M  V30 5900 H 560.88 5.26563 1.54992 0
M  V30 5901 H 561.141 3.7333 2.36805 0
M  V30 5902 N 560.2 0.0768682 1.57412 0
M  V30 5903 C 561.425 -0.603404 1.98428 0
M  V30 5904 C 561.85 -1.62047 0.955108 0
M  V30 5905 O 561.208 -1.81129 -0.0786778 0
M  V30 5906 C 561.256 -1.24396 3.38464 0
M  V30 5907 O 560.36 -2.35982 3.3821 0
M  V30 5908 H 559.701 -0.154741 0.645718 0
M  V30 5909 H 562.231 0.152885 2.04028 0
M  V30 5910 H 562.241 -1.5896 3.7576 0
M  V30 5911 H 560.916 -0.498735 4.12899 0
M  V30 5912 H 559.493 -2.03173 3.1269 0
M  V30 5913 N 561.678 -1.56367 -0.196722 0
M  V30 5914 C 562.608 -1.97442 -1.24655 0
M  V30 5915 C 563.589 -0.846147 -1.47561 0
M  V30 5916 O 564.774 -1.11035 -1.59326 0
M  V30 5917 C 561.904 -2.31253 -2.59112 0
M  V30 5918 C 560.858 -3.46804 -2.50821 0
M  V30 5919 C 560.184 -3.66286 -3.89536 0
M  V30 5920 C 561.484 -4.8104 -2.03465 0
M  V30 5921 H 563.178 -2.85388 -0.905216 0
M  V30 5922 H 560.724 -1.37304 -0.434002 0
M  V30 5923 H 562.677 -2.58583 -3.32736 0
M  V30 5924 H 561.401 -1.40188 -2.94983 0
M  V30 5925 H 560.06 -3.19563 -1.79653 0
M  V30 5926 H 559.708 -2.72555 -4.22756 0
M  V30 5927 H 559.408 -4.4402 -3.84864 0
M  V30 5928 H 560.932 -3.9599 -4.64784 0
M  V30 5929 H 562.346 -5.07411 -2.66846 0
M  V30 5930 H 560.743 -5.62232 -2.09798 0
M  V30 5931 H 561.813 -4.74732 -0.98781 0
M  V30 5932 N 563.156 0.464375 -1.50603 0
M  V30 5933 C 564.403 1.21596 -1.61928 0
M  V30 5934 C 564.731 1.91804 -0.322737 0
M  V30 5935 O 563.986 1.83065 0.691776 0
M  V30 5936 C 564.285 2.278 -2.75394 0
M  V30 5937 C 563.951 1.74797 -4.1564 0
M  V30 5938 C 562.613 1.60063 -4.53799 0
M  V30 5939 C 564.965 1.35548 -5.03266 0
M  V30 5940 C 562.293 1.04514 -5.77316 0
M  V30 5941 C 564.645 0.814381 -6.27336 0
M  V30 5942 C 563.309 0.653726 -6.64291 0
M  V30 5943 H 562.579 0.444951 -0.592536 0
M  V30 5944 H 565.226 0.510964 -1.84557 0
M  V30 5945 H 563.531 3.04233 -2.46879 0
M  V30 5946 H 565.228 2.85723 -2.81359 0
M  V30 5947 H 561.818 1.87234 -3.8554 0
M  V30 5948 H 566.002 1.45763 -4.74412 0
M  V30 5949 H 561.258 0.908186 -6.04617 0
M  V30 5950 H 565.432 0.501626 -6.94591 0
M  V30 5951 H 563.059 0.22114 -7.59878 0
M  V30 5952 N 564.634 1.40294 0.718013 0
M  V30 5953 C 566.045 1.34289 1.29705 0
M  V30 5954 C 566.396 0.0152228 1.96194 0
M  V30 5955 O 565.521 -0.88682 1.97394 0
M  V30 5956 C 566.116 2.43219 2.3586 0
M  V30 5957 C 564.675 2.40682 2.89394 0
M  V30 5958 C 563.822 2.24223 1.63154 0
M  V30 5959 H 566.773 1.50135 0.514312 0
M  V30 5960 H 566.794 2.10986 3.16647 0
M  V30 5961 H 566.306 3.39836 1.87439 0
M  V30 5962 H 564.407 1.47756 3.42051 0
M  V30 5963 H 564.52 3.36177 3.41353 0
M  V30 5964 H 562.884 1.71696 1.88129 0
M  V30 5965 H 563.667 3.22834 1.16761 0
M  V30 5966 N 566.112 -0.949982 1.2575 0
M  V30 5967 C 567.34 -1.72972 1.13527 0
M  V30 5968 C 567.755 -1.8623 -0.310453 0
M  V30 5969 O 567.112 -1.36336 -1.2132 0
M  V30 5970 C 567.163 -3.14108 1.78936 0
M  V30 5971 O 566.884 -3.01493 3.17858 0
M  V30 5972 C 568.385 -4.08338 1.72554 0
M  V30 5973 H 565.605 -0.541864 0.395758 0
M  V30 5974 H 568.149 -1.19151 1.66202 0
M  V30 5975 H 566.304 -3.64858 1.30221 0
M  V30 5976 H 566.718 -3.90559 3.50092 0
M  V30 5977 H 568.192 -5.04963 2.22973 0
M  V30 5978 H 568.669 -4.33742 0.690251 0
M  V30 5979 H 569.275 -3.63506 2.2078 0
M  V30 5980 N 567.59 -1.07411 -1.15328 0
M  V30 5981 C 568.52 -0.716472 -2.22236 0
M  V30 5982 C 569.501 0.296373 -1.67498 0
M  V30 5983 O 570.686 0.168989 -1.93463 0
M  V30 5984 C 567.816 -0.114142 -3.47112 0
M  V30 5985 C 566.77 -1.05421 -4.14814 0
M  V30 5986 C 566.096 -0.314604 -5.33774 0
M  V30 5987 C 567.396 -2.38808 -4.64508 0
M  V30 5988 H 569.09 -1.61029 -2.52408 0
M  V30 5989 H 566.636 -0.775702 -1.21321 0
M  V30 5990 H 568.589 0.148001 -4.2114 0
M  V30 5991 H 567.313 0.814755 -3.16274 0
M  V30 5992 H 565.972 -1.30128 -3.42728 0
M  V30 5993 H 565.62 0.617772 -4.99192 0
M  V30 5994 H 565.32 -0.941209 -5.80013 0
M  V30 5995 H 566.844 -0.0602747 -6.1057 0
M  V30 5996 H 568.258 -2.18424 -5.3006 0
M  V30 5997 H 566.655 -2.97069 -5.21412 0
M  V30 5998 H 567.725 -3.01067 -3.80114 0
M  V30 5999 N 569.068 1.32177 -0.85831 0
M  V30 6000 C 570.031 2.27086 -0.310588 0
M  V30 6001 C 571.031 1.51751 0.531806 0
M  V30 6002 O 572.221 1.70794 0.34279 0
M  V30 6003 C 569.353 3.36266 0.560179 0
M  V30 6004 H 570.546 2.77045 -1.1483 0
M  V30 6005 H 568.099 1.42911 -0.632942 0
M  V30 6006 H 568.834 2.9158 1.41956 0
M  V30 6007 H 568.619 3.92077 -0.0428473 0
M  V30 6008 H 570.109 4.06974 0.936056 0
M  V30 6009 N 570.547 0.616602 1.45037 0
M  V30 6010 C 571.795 0.115103 2.01772 0
M  V30 6011 C 572.116 -1.2622 1.48639 0
M  V30 6012 O 571.386 -1.83563 0.684199 0
M  V30 6013 H 569.966 0.0395607 0.745952 0
M  V30 6014 H 572.628 0.800032 1.77723 0
M  V30 6015 H 571.724 0.0717274 3.12018 0
M  V30 6016 N 572.025 -1.5352 0.356285 0
M  V30 6017 C 572.955 -2.28372 -0.486661 0
M  V30 6018 C 573.936 -1.30432 -1.09185 0
M  V30 6019 O 575.121 -1.59291 -1.11085 0
M  V30 6020 C 572.251 -3.06604 -1.63129 0
M  V30 6021 C 571.205 -4.12154 -1.15381 0
M  V30 6022 C 570.531 -4.78415 -2.38796 0
M  V30 6023 C 571.831 -5.21724 -0.245179 0
M  V30 6024 H 573.525 -2.99083 0.137797 0
M  V30 6025 H 571.071 -1.43841 0.0677134 0
M  V30 6026 H 573.024 -3.57712 -2.22755 0
M  V30 6027 H 571.748 -2.33568 -2.28284 0
M  V30 6028 H 570.407 -3.61978 -0.580294 0
M  V30 6029 H 570.055 -4.01959 -3.02387 0
M  V30 6030 H 569.755 -5.49734 -2.07524 0
M  V30 6031 H 571.279 -5.32313 -2.99125 0
M  V30 6032 H 572.693 -5.68391 -0.748646 0
M  V30 6033 H 571.09 -6.00095 -0.0237608 0
M  V30 6034 H 572.16 -4.79596 0.715229 0
M  V30 6035 N 573.503 -0.0852151 -1.57369 0
M  V30 6036 C 574.466 0.8627 -2.12344 0
M  V30 6037 C 575.466 1.21746 -1.05046 0
M  V30 6038 O 576.656 1.14852 -1.30976 0
M  V30 6039 C 573.788 2.1618 -2.63589 0
M  V30 6040 H 574.981 0.385511 -2.97412 0
M  V30 6041 H 572.534 0.163663 -1.55441 0
M  V30 6042 H 573.269 2.68406 -1.82013 0
M  V30 6043 H 573.054 1.91723 -3.4203 0
M  V30 6044 H 574.544 2.84011 -3.06149 0
M  V30 6045 N 574.981 1.5647 0.188427 0
M  V30 6046 C 576.229 1.80655 0.905986 0
M  V30 6047 C 576.55 0.659391 1.83513 0
M  V30 6048 O 575.82 -0.321868 1.93238 0
M  V30 6049 H 574.4 0.666391 0.337538 0
M  V30 6050 H 577.062 1.93949 0.192339 0
M  V30 6051 H 576.158 2.74066 1.49313 0
M  V30 6052 N 576.459 -0.456382 1.50847 0
M  V30 6053 C 577.389 -1.56025 1.73719 0
M  V30 6054 C 578.37 -1.5967 0.586473 0
M  V30 6055 O 579.555 -1.75702 0.827185 0
M  V30 6056 C 576.685 -2.94251 1.84483 0
M  V30 6057 C 575.639 -3.05471 2.99786 0
M  V30 6058 C 574.965 -4.45489 2.95709 0
M  V30 6059 C 576.265 -2.81318 4.40065 0
M  V30 6060 H 577.959 -1.37138 2.66146 0
M  V30 6061 H 575.505 -0.658299 1.28072 0
M  V30 6062 H 577.458 -3.71417 1.99067 0
M  V30 6063 H 576.182 -3.14328 0.886891 0
M  V30 6064 H 574.841 -2.30741 2.84876 0
M  V30 6065 H 574.489 -4.62505 1.97732 0
M  V30 6066 H 574.189 -4.53929 3.73125 0
M  V30 6067 H 575.713 -5.24655 3.12362 0
M  V30 6068 H 577.127 -3.48226 4.55425 0
M  V30 6069 H 575.524 -3.01188 5.19043 0
M  V30 6070 H 576.594 -1.7706 4.51418 0
M  V30 6071 N 577.937 -1.40673 -0.710563 0
M  V30 6072 C 578.869 -1.37256 -1.83558 0
M  V30 6073 C 579.882 -0.277133 -1.60424 0
M  V30 6074 O 581.071 -0.537831 -1.70205 0
M  V30 6075 C 578.171 -1.1144 -3.20054 0
M  V30 6076 C 577.344 -2.32734 -3.70342 0
M  V30 6077 C 576.403 -2.03002 -4.85465 0
M  V30 6078 O 575.429 -2.75912 -4.97857 0
M  V30 6079 N 576.631 -1.01105 -5.71627 0
M  V30 6080 H 579.396 -2.34215 -1.86985 0
M  V30 6081 H 576.957 -1.35091 -0.892301 0
M  V30 6082 H 578.949 -0.895265 -3.94673 0
M  V30 6083 H 577.519 -0.231307 -3.11743 0
M  V30 6084 H 576.739 -2.70446 -2.86798 0
M  V30 6085 H 578.027 -3.13584 -4.00678 0
M  V30 6086 H 577.425 -0.407303 -5.64232 0
M  V30 6087 H 575.982 -0.85182 -6.4621 0
M  V30 6088 N 579.415 0.9433 -1.26252 0
M  V30 6089 C 580.661 1.69175 -1.11837 0
M  V30 6090 C 580.994 1.91238 0.337891 0
M  V30 6091 O 580.269 1.49152 1.24836 0
M  V30 6092 C 580.552 3.06783 -1.88563 0
M  V30 6093 C 580.405 2.9206 -3.42083 0
M  V30 6094 C 581.724 4.06865 -1.67776 0
M  V30 6095 H 578.843 0.61399 -0.407658 0
M  V30 6096 H 581.485 1.09572 -1.55222 0
M  V30 6097 H 579.635 3.57663 -1.51689 0
M  V30 6098 H 581.307 2.48419 -3.88698 0
M  V30 6099 H 579.55 2.27731 -3.69217 0
M  V30 6100 H 580.221 3.89651 -3.90994 0
M  V30 6101 H 582.697 3.64939 -1.99897 0
M  V30 6102 H 581.573 5.01168 -2.23879 0
M  V30 6103 H 581.834 4.37705 -0.621816 0
M  V30 6104 N 580.893 1.08022 1.14757 0
M  V30 6105 C 582.304 0.829144 1.67279 0
M  V30 6106 C 582.655 -0.644721 1.85305 0
M  V30 6107 O 581.78 -1.49838 1.56133 0
M  V30 6108 C 582.375 1.49855 3.03857 0
M  V30 6109 C 580.934 1.29482 3.53428 0
M  V30 6110 C 580.081 1.56386 2.28995 0
M  V30 6111 H 583.032 1.24134 0.988762 0
M  V30 6112 H 583.053 0.923572 3.69121 0
M  V30 6113 H 582.565 2.57123 2.90705 0
M  V30 6114 H 580.666 0.242669 3.71809 0
M  V30 6115 H 580.779 2.01974 4.34446 0
M  V30 6116 H 579.143 0.985217 2.34874 0
M  V30 6117 H 579.926 2.64851 2.18423 0
M  V30 6118 N 582.371 -1.3172 0.865308 0
M  V30 6119 C 583.782 -1.79104 0.527126 0
M  V30 6120 C 584.133 -1.7135 -0.955695 0
M  V30 6121 O 583.258 -1.27845 -1.74598 0
M  V30 6122 C 583.853 -3.25207 0.950061 0
M  V30 6123 C 582.412 -3.70504 0.663611 0
M  V30 6124 C 581.559 -2.52605 1.14395 0
M  V30 6125 H 584.51 -1.18868 1.05148 0
M  V30 6126 H 584.531 -3.79535 0.270805 0
M  V30 6127 H 584.043 -3.30818 2.02931 0
M  V30 6128 H 582.144 -3.70398 -0.404474 0
M  V30 6129 H 582.257 -4.62845 1.23737 0
M  V30 6130 H 580.621 -2.4838 0.563859 0
M  V30 6131 H 581.404 -2.60964 2.23053 0
M  V30 6132 N 583.85 -0.624285 -1.44708 0
M  V30 6133 C 585.266 -0.289322 -1.56956 0
M  V30 6134 C 585.466 1.20773 -1.61295 0
M  V30 6135 O 584.522 1.9915 -1.55227 0
M  V30 6136 C 585.835 -0.975215 -2.84447 0
M  V30 6137 C 587.383 -0.952709 -2.98148 0
M  V30 6138 C 587.858 -1.61893 -4.28433 0
M  V30 6139 N 589.349 -1.5852 -4.35231 0
M  V30 6140 C 590.084 -2.06969 -5.34744 0
M  V30 6141 N 589.58 -2.63579 -6.40701 0
M  V30 6142 N 591.373 -1.97638 -5.26209 0
M  V30 6143 H 583.524 -1.59612 -1.40135 0
M  V30 6144 H 585.787 -0.669592 -0.671081 0
M  V30 6145 H 585.493 -2.02999 -2.87201 0
M  V30 6146 H 585.367 -0.508749 -3.73753 0
M  V30 6147 H 587.754 0.093568 -2.94952 0
M  V30 6148 H 587.835 -1.4576 -2.10209 0
M  V30 6149 H 587.479 -2.66463 -4.32389 0
M  V30 6150 H 587.409 -1.08893 -5.15218 0
M  V30 6151 H 589.899 -1.17183 -3.59272 0
M  V30 6152 H 590.213 -2.98298 -7.12908 0
M  V30 6153 H 588.558 -2.67626 -6.41406 0
M  V30 6154 H 591.749 -1.5314 -4.42341 0
M  V30 6155 H 591.922 -2.35708 -6.03611 0
M  V30 6156 N 585.328 1.53329 -0.364422 0
M  V30 6157 C 586.568 2.0315 0.22572 0
M  V30 6158 C 586.932 1.24589 1.46087 0
M  V30 6159 O 588.133 1.64411 2.12656 0
M  V30 6160 C 586.404 3.53718 0.511663 0
M  V30 6161 S 587.963 4.25412 1.07564 0
M  V30 6162 H 584.781 0.70795 0.0657843 0
M  V30 6163 H 587.383 1.88811 -0.507019 0
M  V30 6164 H 586.087 4.08497 -0.394784 0
M  V30 6165 H 585.618 3.72217 1.27351 0
M  V30 6166 H 587.633 4.36486 2.35997 0
M  V30 6167 N 586.806 0.0935595 1.57322 0
M  V30 6168 C 588.217 -0.435807 1.81542 0
M  V30 6169 C 588.568 -1.68263 1.00907 0
M  V30 6170 O 587.693 -2.15087 0.237983 0
M  V30 6171 C 588.288 -0.797436 3.29282 0
M  V30 6172 C 586.847 -1.27155 3.54272 0
M  V30 6173 C 585.994 -0.267455 2.76007 0
M  V30 6174 H 588.945 0.31902 1.5546 0
M  V30 6175 H 588.966 -1.6571 3.42521 0
M  V30 6176 H 588.478 0.110206 3.87943 0
M  V30 6177 H 586.579 -2.19696 3.00939 0
M  V30 6178 H 586.692 -1.23445 4.62923 0
M  V30 6179 H 585.056 -0.749282 2.43429 0
M  V30 6180 H 585.839 0.632839 3.37417 0
M  V30 6181 N 588.284 -1.56567 -0.180126 0
M  V30 6182 C 589.53 -1.81761 -0.899497 0
M  V30 6183 C 589.863 -0.670015 -1.82276 0
M  V30 6184 O 589.138 0.328575 -1.91705 0
M  V30 6185 C 589.421 -3.17296 -1.7028 0
M  V30 6186 C 589.274 -4.4257 -0.803255 0
M  V30 6187 C 590.593 -3.49678 -2.67233 0
M  V30 6188 H 587.712 -0.661192 -0.325567 0
M  V30 6189 H 590.354 -1.89272 -0.16612 0
M  V30 6190 H 588.504 -3.11023 -2.32802 0
M  V30 6191 H 590.176 -4.60902 -0.191585 0
M  V30 6192 H 588.419 -4.33658 -0.110796 0
M  V30 6193 H 589.09 -5.33935 -1.40064 0
M  V30 6194 H 591.566 -3.56347 -2.14839 0
M  V30 6195 H 590.442 -4.45605 -3.20511 0
M  V30 6196 H 590.703 -2.73932 -3.47007 0
M  V30 6197 N 589.762 0.448376 -1.51087 0
M  V30 6198 C 591.173 1.0286 -1.5581 0
M  V30 6199 C 591.524 1.92583 -0.374989 0
M  V30 6200 O 590.649 2.10316 0.509533 0
M  V30 6201 C 591.244 1.87223 -2.8237 0
M  V30 6202 C 589.803 2.40314 -2.897 0
M  V30 6203 C 588.95 1.19238 -2.50355 0
M  V30 6204 H 591.901 0.230075 -1.57023 0
M  V30 6205 H 591.922 2.72553 -2.6551 0
M  V30 6206 H 591.434 1.21894 -3.68461 0
M  V30 6207 H 589.535 3.09129 -2.08014 0
M  V30 6208 H 589.648 2.73866 -3.93108 0
M  V30 6209 H 588.012 1.53428 -2.03303 0
M  V30 6210 H 588.795 0.555367 -3.38778 0
M  V30 6211 N 591.24 1.41047 0.703093 0
M  V30 6212 C 592.465 1.43537 1.49706 0
M  V30 6213 C 592.89 0.0401853 1.88057 0
M  V30 6214 O 592.248 -0.954785 1.54122 0
M  V30 6215 C 592.296 2.3433 2.74084 0
M  V30 6216 O 591.4 1.79515 3.71279 0
M  V30 6217 H 590.741 0.487454 0.450871 0
M  V30 6218 H 593.271 1.85422 0.86486 0
M  V30 6219 H 593.281 2.49947 3.22476 0
M  V30 6220 H 591.956 3.35708 2.45506 0
M  V30 6221 H 590.533 1.7331 3.30179 0
M  V30 6222 N 592.718 -0.936591 1.26751 0
M  V30 6223 C 593.965 -1.68331 1.12566 0
M  V30 6224 C 594.293 -1.91677 -0.330168 0
M  V30 6225 O 593.548 -1.49859 -1.2586 0
M  V30 6226 C 593.847 -3.06099 1.84494 0
M  V30 6227 C 593.513 -3.02493 3.34378 0
M  V30 6228 C 592.175 -3.01217 3.75262 0
M  V30 6229 C 594.527 -2.94453 4.30055 0
M  V30 6230 C 591.855 -2.89672 5.10203 0
M  V30 6231 C 594.207 -2.84449 5.65041 0
M  V30 6232 C 592.871 -2.81518 6.0523 0
M  V30 6233 H 592.141 -0.615965 0.411907 0
M  V30 6234 H 594.788 -1.09292 1.5725 0
M  V30 6235 H 593.093 -3.6879 1.32292 0
M  V30 6236 H 594.79 -3.62733 1.70955 0
M  V30 6237 H 591.38 -3.04269 3.01858 0
M  V30 6238 H 595.564 -2.94544 3.99447 0
M  V30 6239 H 590.82 -2.85783 5.40498 0
M  V30 6240 H 594.994 -2.77192 6.38856 0
M  V30 6241 H 592.621 -2.72329 7.09747 0
M  V30 6242 N 594.196 -1.08629 -1.14182 0
M  V30 6243 C 595.146 -0.687882 -2.17376 0
M  V30 6244 C 596.13 0.293632 -1.58198 0
M  V30 6245 O 597.322 0.105292 -1.76687 0
M  V30 6246 C 594.451 -0.101184 -3.43151 0
M  V30 6247 C 593.537 -1.10862 -4.09354 0
M  V30 6248 N 593.928 -2.29285 -4.50846 0
M  V30 6249 C 592.226 -0.944897 -4.35876 0
M  V30 6250 C 592.927 -2.93305 -5.02342 0
M  V30 6251 N 591.903 -2.20903 -4.96692 0
M  V30 6252 H 595.705 -1.58963 -2.472 0
M  V30 6253 H 593.219 -0.961329 -1.3089 0
M  V30 6254 H 595.216 0.202209 -4.16409 0
M  V30 6255 H 593.876 0.795522 -3.14804 0
M  V30 6256 H 594.887 -2.66927 -4.43813 0
M  V30 6257 H 591.564 -0.102186 -4.17375 0
M  V30 6258 H 592.954 -3.93932 -5.44304 0
M  V30 6259 N 595.674 1.31259 -0.872281 0
M  V30 6260 C 596.92 1.96913 -0.485083 0
M  V30 6261 C 597.253 1.68774 0.960667 0
M  V30 6262 O 596.528 0.985495 1.67685 0
M  V30 6263 C 596.811 3.52299 -0.745502 0
M  V30 6264 C 596.664 3.90002 -2.24095 0
M  V30 6265 C 597.983 4.39582 -0.213516 0
M  V30 6266 H 595.102 0.715252 -0.177716 0
M  V30 6267 H 597.744 1.55347 -1.09395 0
M  V30 6268 H 595.894 3.87835 -0.227276 0
M  V30 6269 H 597.566 3.64555 -2.82661 0
M  V30 6270 H 595.809 3.38526 -2.71261 0
M  V30 6271 H 596.48 4.98352 -2.37381 0
M  V30 6272 H 598.956 4.10882 -0.656902 0
M  V30 6273 H 597.832 5.47251 -0.42516 0
M  V30 6274 H 598.093 4.33158 0.884666 0
M  V30 6275 N 597.152 0.631951 1.44375 0
M  V30 6276 C 598.062 -0.073674 2.34484 0
M  V30 6277 C 599.078 -0.834825 1.52665 0
M  V30 6278 O 600.254 -0.786902 1.85391 0
M  V30 6279 C 597.319 -1.04247 3.30656 0
M  V30 6280 C 596.38 -0.280602 4.28382 0
M  V30 6281 C 595.613 -1.20325 5.19959 0
M  V30 6282 O 595.836 -2.44199 5.15484 0
M  V30 6283 O 594.77 -0.687128 5.97965 0
M  V30 6284 H 598.596 0.667477 2.96274 0
M  V30 6285 H 596.181 0.392144 1.44162 0
M  V30 6286 H 598.063 -1.59981 3.89851 0
M  V30 6287 H 596.738 -1.76422 2.71398 0
M  V30 6288 H 595.645 0.319804 3.72731 0
M  V30 6289 H 596.978 0.401144 4.90563 0
M  V30 6290 N 598.631 -1.53133 0.372548 0
M  V30 6291 C 599.561 -2.28876 -0.462412 0
M  V30 6292 C 600.542 -1.31583 -1.07796 0
M  V30 6293 O 601.727 -1.60461 -1.09389 0
M  V30 6294 C 598.857 -3.08317 -1.59868 0
M  V30 6295 C 597.811 -4.13355 -1.11003 0
M  V30 6296 C 597.137 -4.8092 -2.33708 0
M  V30 6297 C 598.437 -5.21955 -0.18983 0
M  V30 6298 H 600.131 -2.9892 0.169511 0
M  V30 6299 H 597.677 -1.43761 0.0829658 0
M  V30 6300 H 599.63 -3.60055 -2.18949 0
M  V30 6301 H 598.354 -2.35976 -2.25794 0
M  V30 6302 H 597.013 -3.62573 -0.541869 0
M  V30 6303 H 596.661 -4.05144 -2.98106 0
M  V30 6304 H 596.361 -5.51904 -2.01682 0
M  V30 6305 H 597.885 -5.35455 -2.93462 0
M  V30 6306 H 599.299 -5.69153 -0.688319 0
M  V30 6307 H 597.696 -6.00087 0.0398887 0
M  V30 6308 H 598.766 -4.78811 0.766057 0
M  V30 6309 N 600.109 -0.101901 -1.5727 0
M  V30 6310 C 601.349 0.563489 -1.96479 0
M  V30 6311 C 601.713 1.64926 -0.983021 0
M  V30 6312 O 602.914 2.37234 -1.26386 0
M  V30 6313 C 601.185 1.09809 -3.40113 0
M  V30 6314 S 602.744 1.7744 -4.01323 0
M  V30 6315 H 599.562 0.183675 -0.686866 0
M  V30 6316 H 602.164 -0.182922 -1.94642 0
M  V30 6317 H 600.868 0.296447 -4.09328 0
M  V30 6318 H 600.399 1.88018 -3.45562 0
M  V30 6319 H 602.414 3.0591 -3.90683 0
M  V30 6320 N 601.587 1.56661 0.17182 0
M  V30 6321 C 603.003 1.50768 0.52357 0
M  V30 6322 C 603.203 0.806072 1.84675 0
M  V30 6323 O 602.259 0.366233 2.4983 0
M  V30 6324 C 603.572 2.955 0.556793 0
M  V30 6325 C 605.12 3.06303 0.644029 0
M  V30 6326 C 605.595 4.52492 0.708148 0
M  V30 6327 N 607.086 4.56737 0.771051 0
M  V30 6328 C 607.821 5.67196 0.841229 0
M  V30 6329 N 607.317 6.87287 0.872272 0
M  V30 6330 N 609.11 5.55165 0.88021 0
M  V30 6331 H 601.261 2.00679 -0.695817 0
M  V30 6332 H 603.524 0.914219 -0.250814 0
M  V30 6333 H 603.23 3.49986 -0.346774 0
M  V30 6334 H 603.104 3.50119 1.40346 0
M  V30 6335 H 605.491 2.51851 1.53802 0
M  V30 6336 H 605.572 2.5477 -0.229297 0
M  V30 6337 H 605.216 5.07575 -0.181585 0
M  V30 6338 H 605.146 5.01781 1.59761 0
M  V30 6339 H 607.637 3.70274 0.755364 0
M  V30 6340 H 607.95 7.6722 0.92698 0
M  V30 6341 H 606.295 6.89898 0.840557 0
M  V30 6342 H 609.486 4.60263 0.852956 0
M  V30 6343 H 609.659 6.41271 0.931439 0
M  V30 6344 N 603.065 -0.440357 1.51323 0
M  V30 6345 C 603.975 -1.55955 1.75258 0
M  V30 6346 C 604.991 -1.61933 0.636687 0
M  V30 6347 O 606.167 -1.79231 0.918593 0
M  V30 6348 C 603.232 -2.9196 1.86977 0
M  V30 6349 C 602.293 -2.96122 3.10822 0
M  V30 6350 C 601.526 -4.2564 3.21973 0
M  V30 6351 O 601.749 -5.17851 2.39137 0
M  V30 6352 O 600.683 -4.36025 4.14929 0
M  V30 6353 H 604.509 -1.38673 2.70191 0
M  V30 6354 H 602.094 -0.623055 1.35788 0
M  V30 6355 H 603.976 -3.72682 1.96688 0
M  V30 6356 H 602.651 -3.09375 0.952307 0
M  V30 6357 H 601.558 -2.14366 3.06591 0
M  V30 6358 H 602.891 -2.83651 4.02247 0
M  V30 6359 N 604.543 -1.41418 -0.695603 0
M  V30 6360 C 605.791 -1.40496 -1.45277 0
M  V30 6361 C 606.112 -0.0149538 -1.94994 0
M  V30 6362 O 605.382 0.9432 -1.71699 0
M  V30 6363 H 603.962 -0.517147 -0.539044 0
M  V30 6364 H 606.624 -1.76656 -0.823321 0
M  V30 6365 H 605.72 -2.09214 -2.31595 0
M  V30 6366 N 606.021 0.929856 -1.27246 0
M  V30 6367 C 606.968 2.03017 -1.09785 0
M  V30 6368 C 607.938 1.661 0.000456744 0
M  V30 6369 O 609.123 1.90116 -0.161462 0
M  V30 6370 C 606.263 3.36878 -0.748816 0
M  V30 6371 C 605.376 3.86763 -1.92453 0
M  V30 6372 C 604.511 5.09061 -1.51758 0
M  V30 6373 C 603.55 5.51237 -2.66091 0
M  V30 6374 N 602.687 6.64732 -2.25999 0
M  V30 6375 H 607.527 2.17285 -2.03939 0
M  V30 6376 H 605.064 1.06448 -1.01524 0
M  V30 6377 H 607.022 4.13855 -0.527283 0
M  V30 6378 H 605.652 3.22424 0.155771 0
M  V30 6379 H 604.704 3.06086 -2.25867 0
M  V30 6380 H 606.016 4.13994 -2.78227 0
M  V30 6381 H 605.17 5.93532 -1.25716 0
M  V30 6382 H 603.909 4.83602 -0.630896 0
M  V30 6383 H 602.914 4.65316 -2.92849 0
M  V30 6384 H 604.139 5.78692 -3.55377 0
M  V30 6385 H 602.085 6.40935 -1.3978 0
M  V30 6386 H 602.002 6.91607 -3.05313 0
M  V30 6387 H 603.27 7.52549 -2.03199 0
M  V30 6388 N 607.499 1.09233 1.13605 0
M  V30 6389 C 608.447 0.724572 2.21027 0
M  V30 6390 C 609.441 -0.273595 1.67176 0
M  V30 6391 O 610.647 -0.135266 1.79491 0
M  V30 6392 H 607.022 0.216319 0.720215 0
M  V30 6393 H 608.993 1.63975 2.49309 0
M  V30 6394 C 607.742 0.159126 3.47336 0
M  V30 6395 H 607.065 0.918387 3.89109 0
M  V30 6396 H 608.505 -0.0602851 4.23957 0
M  V30 6397 C 606.964 -1.10514 3.18258 0
M  V30 6398 O 607.494 -2.18869 3.36837 0
M  V30 6399 N 605.7 -1.01886 2.72154 0
M  V30 6400 H 605.247 -0.137027 2.57235 0
M  V30 6401 H 605.205 -1.8655 2.53074 0
M  V30 6402 N 608.977 -1.30795 0.87923 0
M  V30 6403 C 609.907 -2.30742 0.357796 0
M  V30 6404 C 610.888 -1.60747 -0.556283 0
M  V30 6405 O 612.073 -1.88393 -0.47135 0
M  V30 6406 C 609.203 -3.44583 -0.433555 0
M  V30 6407 C 608.157 -4.26235 0.388251 0
M  V30 6408 C 607.483 -5.32073 -0.529352 0
M  V30 6409 C 608.783 -4.96303 1.62729 0
M  V30 6410 H 610.477 -2.74605 1.19299 0
M  V30 6411 H 608.023 -1.32017 0.575104 0
M  V30 6412 H 609.976 -4.13563 -0.808934 0
M  V30 6413 H 608.7 -2.99511 -1.30234 0
M  V30 6414 H 607.359 -3.58936 0.745695 0
M  V30 6415 H 607.007 -4.83249 -1.39569 0
M  V30 6416 H 606.707 -5.87598 0.0166741 0
M  V30 6417 H 608.231 -6.0391 -0.901373 0
M  V30 6418 H 609.645 -5.5783 1.32283 0
M  V30 6419 H 608.042 -5.61666 2.11309 0
M  V30 6420 H 609.112 -4.22758 2.37494 0
M  V30 6421 N 610.455 -0.639598 -1.44038 0
M  V30 6422 C 611.385 0.0469443 -2.33453 0
M  V30 6423 C 612.366 0.82609 -1.48694 0
M  V30 6424 O 613.551 0.790285 -1.77393 0
M  V30 6425 C 610.681 1.02338 -3.3188 0
M  V30 6426 C 609.635 0.355284 -4.26523 0
M  V30 6427 C 608.961 1.44221 -5.14883 0
M  V30 6428 C 610.261 -0.743798 -5.16977 0
M  V30 6429 H 611.955 -0.699735 -2.91108 0
M  V30 6430 H 609.501 -0.337946 -1.39978 0
M  V30 6431 H 611.454 1.51247 -3.93322 0
M  V30 6432 H 610.178 1.80105 -2.72451 0
M  V30 6433 H 608.837 -0.113239 -3.66425 0
M  V30 6434 H 608.485 2.21097 -4.51802 0
M  V30 6435 H 608.185 1.00052 -5.79019 0
M  V30 6436 H 609.709 1.93295 -5.79197 0
M  V30 6437 H 611.123 -0.337444 -5.72306 0
M  V30 6438 H 609.52 -1.10914 -5.89761 0
M  V30 6439 H 610.59 -1.60745 -4.57481 0
M  V30 6440 N 611.933 1.52934 -0.380664 0
M  V30 6441 C 612.88 2.26197 0.458641 0
M  V30 6442 C 613.85 1.27462 1.06502 0
M  V30 6443 O 615.035 1.56274 1.09467 0
M  V30 6444 C 612.175 3.06571 1.58456 0
M  V30 6445 C 611.288 4.20222 1.00189 0
M  V30 6446 C 610.423 4.88007 2.09815 0
M  V30 6447 C 609.462 5.93665 1.49092 0
M  V30 6448 N 608.599 6.55081 2.52613 0
M  V30 6449 H 613.439 2.975 -0.172595 0
M  V30 6450 H 610.976 1.4678 -0.0969426 0
M  V30 6451 H 612.934 3.51455 2.24801 0
M  V30 6452 H 611.564 2.37494 2.18624 0
M  V30 6453 H 610.616 3.79714 0.228292 0
M  V30 6454 H 611.928 4.96102 0.518064 0
M  V30 6455 H 611.082 5.36151 2.83948 0
M  V30 6456 H 609.821 4.11632 2.61555 0
M  V30 6457 H 608.826 5.44868 0.7348 0
M  V30 6458 H 610.051 6.71969 0.981582 0
M  V30 6459 H 607.997 5.8155 3.03538 0
M  V30 6460 H 607.914 7.26548 2.08961 0
M  V30 6461 H 609.182 7.07871 3.26402 0
M  V30 6462 N 613.412 0.11024 1.57214 0
M  V30 6463 C 614.362 -0.854147 2.11396 0
M  V30 6464 C 615.346 -1.23394 1.03261 0
M  V30 6465 O 616.538 -1.20649 1.2951 0
M  V30 6466 C 613.667 -2.10752 2.70995 0
M  V30 6467 C 612.753 -1.75249 3.86198 0
M  V30 6468 N 613.144 -1.10377 4.9361 0
M  V30 6469 C 611.442 -2.04763 3.96217 0
M  V30 6470 C 612.143 -0.938199 5.74084 0
M  V30 6471 N 611.119 -1.46039 5.23616 0
M  V30 6472 H 614.921 -0.348897 2.91822 0
M  V30 6473 H 612.435 -0.0925071 1.62136 0
M  V30 6474 H 614.432 -2.80801 3.0815 0
M  V30 6475 H 613.092 -2.61829 1.9203 0
M  V30 6476 H 614.103 -0.768785 5.12162 0
M  V30 6477 H 610.78 -2.57948 3.28282 0
M  V30 6478 H 612.17 -0.429678 6.70525 0
M  V30 6479 N 614.89 -1.56749 -0.16351 0
M  V30 6480 C 616.137 -1.82434 -0.878866 0
M  V30 6481 C 616.465 -0.688557 -1.81904 0
M  V30 6482 O 615.72 0.323644 -1.93005 0
M  V30 6483 C 616.019 -3.14342 -1.70071 0
M  V30 6484 C 615.685 -4.41647 -0.908775 0
M  V30 6485 C 614.347 -4.76224 -0.690236 0
M  V30 6486 C 616.699 -5.19998 -0.353815 0
M  V30 6487 C 614.027 -5.86624 0.0942374 0
M  V30 6488 C 616.379 -6.3122 0.41761 0
M  V30 6489 C 615.043 -6.64358 0.646879 0
M  V30 6490 H 614.313 -0.667574 -0.3216 0
M  V30 6491 H 616.96 -1.90963 -0.14337 0
M  V30 6492 H 615.265 -3.0119 -2.50583 0
M  V30 6493 H 616.962 -3.31426 -2.25738 0
M  V30 6494 H 613.552 -4.1453 -1.08916 0
M  V30 6495 H 617.736 -4.93673 -0.509975 0
M  V30 6496 H 612.992 -6.10751 0.281529 0
M  V30 6497 H 617.166 -6.91133 0.854849 0
M  V30 6498 H 614.793 -7.49742 1.25662 0
M  V30 6499 N 616.368 0.432326 -1.51554 0
M  V30 6500 C 617.784 0.769195 -1.39841 0
M  V30 6501 C 617.984 1.95584 -0.484675 0
M  V30 6502 O 617.04 2.52433 0.0582829 0
M  V30 6503 C 618.353 1.04487 -2.81963 0
M  V30 6504 C 619.901 1.149 -2.91148 0
M  V30 6505 C 620.376 1.45758 -4.34187 0
M  V30 6506 N 621.867 1.52671 -4.37317 0
M  V30 6507 C 622.602 1.78129 -5.4503 0
M  V30 6508 N 622.098 2.01345 -6.62897 0
M  V30 6509 N 623.891 1.79953 -5.32516 0
M  V30 6510 H 616.042 -0.349122 -2.09511 0
M  V30 6511 H 618.305 -0.0938113 -0.943347 0
M  V30 6512 H 618.011 0.24557 -3.50842 0
M  V30 6513 H 617.885 1.97119 -3.21596 0
M  V30 6514 H 620.272 1.93891 -2.22464 0
M  V30 6515 H 620.353 0.201568 -2.55005 0
M  V30 6516 H 619.997 0.672917 -5.03423 0
M  V30 6517 H 619.927 2.41715 -4.67848 0
M  V30 6518 H 622.418 1.36612 -3.52343 0
M  V30 6519 H 622.731 2.20155 -7.40778 0
M  V30 6520 H 621.076 1.98657 -6.66003 0
M  V30 6521 H 624.267 1.61337 -4.39418 0
M  V30 6522 H 624.44 1.99455 -6.1654 0
M  V30 6523 N 617.846 1.41785 0.688094 0
M  V30 6524 C 619.093 1.41544 1.44816 0
M  V30 6525 C 619.421 0.0271746 1.94481 0
M  V30 6526 O 618.676 -0.962235 1.7041 0
M  V30 6527 C 618.975 2.37532 2.67046 0
M  V30 6528 C 618.641 3.84209 2.35996 0
M  V30 6529 C 617.303 4.24165 2.27239 0
M  V30 6530 C 619.655 4.76785 2.10536 0
M  V30 6531 C 616.983 5.54695 1.91128 0
M  V30 6532 C 619.335 6.07644 1.75931 0
M  V30 6533 C 617.999 6.46613 1.65675 0
M  V30 6534 H 617.269 0.517945 0.529919 0
M  V30 6535 H 619.916 1.74635 0.785797 0
M  V30 6536 H 618.221 1.9772 3.38251 0
M  V30 6537 H 619.918 2.34615 3.25203 0
M  V30 6538 H 616.508 3.52567 2.4371 0
M  V30 6539 H 620.692 4.46714 2.16242 0
M  V30 6540 H 615.948 5.83762 1.81746 0
M  V30 6541 H 620.122 6.78874 1.55252 0
M  V30 6542 H 617.749 7.47668 1.37463 0
M  V30 6543 N 619.324 -0.923095 1.27737 0
M  V30 6544 C 620.74 -1.19985 1.05241 0
M  V30 6545 C 620.94 -2.00391 -0.21113 0
M  V30 6546 O 619.996 -2.35324 -0.915366 0
M  V30 6547 C 621.309 -1.94352 2.29451 0
M  V30 6548 C 622.857 -2.07273 2.34536 0
M  V30 6549 C 623.332 -2.85046 3.58487 0
M  V30 6550 N 624.823 -2.92612 3.59072 0
M  V30 6551 C 625.558 -3.53266 4.51654 0
M  V30 6552 N 625.054 -4.15274 5.54545 0
M  V30 6553 N 626.847 -3.50714 4.39268 0
M  V30 6554 H 618.998 -0.386042 2.08862 0
M  V30 6555 H 621.261 -0.233407 0.918817 0
M  V30 6556 H 620.967 -1.42692 3.21453 0
M  V30 6557 H 620.841 -2.94947 2.3513 0
M  V30 6558 H 623.228 -2.58117 1.43037 0
M  V30 6559 H 623.309 -1.05884 2.32857 0
M  V30 6560 H 622.953 -2.34884 4.50324 0
M  V30 6561 H 622.883 -3.8673 3.57418 0
M  V30 6562 H 625.374 -2.48547 2.84663 0
M  V30 6563 H 625.687 -4.59507 6.21348 0
M  V30 6564 H 624.032 -4.13806 5.58382 0
M  V30 6565 H 627.223 -3.01475 3.58093 0
M  V30 6566 H 627.396 -3.97693 5.1161 0
M  V30 6567 N 620.802 -1.09834 -1.13024 0
M  V30 6568 C 622.079 -0.749225 -1.80682 0
M  V30 6569 C 622.459 0.765171 -1.96744 0
M  V30 6570 O 621.807 1.68912 -1.53886 0
M  V30 6571 C 622.017 -1.49311 -3.15448 0
M  V30 6572 C 623.365 -1.66162 -3.90737 0
M  V30 6573 O 624.389 -1.45597 -3.25085 0
M  V30 6574 O 623.248 -2.00211 -5.08505 0
M  V30 6575 H 620.342 -0.269614 -0.781817 0
M  V30 6576 H 622.888 -1.20078 -1.19914 0
M  V30 6577 H 621.66 -2.52407 -2.99009 0
M  V30 6578 H 621.283 -1.034 -3.8392 0
M  V30 6579 N 622.28 1.30327 -0.886154 0
M  V30 6580 C 623.21 2.30549 -0.370028 0
M  V30 6581 C 624.191 1.61039 0.547751 0
M  V30 6582 O 625.376 1.8864 0.461353 0
M  V30 6583 C 622.506 3.44808 0.415275 0
M  V30 6584 C 621.46 4.26024 -0.41085 0
M  V30 6585 C 620.786 5.32347 0.501128 0
M  V30 6586 C 622.086 4.95433 -1.65359 0
M  V30 6587 H 623.78 2.73969 -1.20754 0
M  V30 6588 H 621.326 1.3171 -0.582097 0
M  V30 6589 H 623.279 4.13986 0.78699 0
M  V30 6590 H 622.003 3.00197 1.28644 0
M  V30 6591 H 620.662 3.58535 -0.764719 0
M  V30 6592 H 620.31 4.83982 1.37004 0
M  V30 6593 H 620.01 5.87581 -0.0478356 0
M  V30 6594 H 621.534 6.0438 0.869333 0
M  V30 6595 H 622.948 5.5712 -1.35239 0
M  V30 6596 H 621.345 5.60537 -2.14284 0
M  V30 6597 H 622.415 4.21493 -2.39733 0
M  V30 6598 N 623.758 0.647228 1.43697 0
M  V30 6599 C 624.668 -0.0487997 2.34549 0
M  V30 6600 C 625.684 -0.818586 1.53542 0
M  V30 6601 O 626.86 -0.767195 1.86215 0
M  V30 6602 C 623.925 -1.00734 3.31743 0
M  V30 6603 C 622.986 -0.23515 4.28655 0
M  V30 6604 C 622.219 -1.14803 5.21206 0
M  V30 6605 O 622.442 -2.38717 5.18045 0
M  V30 6606 O 621.376 -0.623667 5.9866 0
M  V30 6607 H 625.202 0.698863 2.9555 0
M  V30 6608 H 622.787 0.407412 1.43738 0
M  V30 6609 H 624.669 -1.55837 3.91526 0
M  V30 6610 H 623.344 -1.73534 2.73254 0
M  V30 6611 H 622.251 0.359319 3.7237 0
M  V30 6612 H 623.584 0.453152 4.9011 0
M  V30 6613 N 625.236 -1.5273 0.388769 0
M  V30 6614 C 626.146 -2.30165 -0.453993 0
M  V30 6615 C 627.162 -1.37058 -1.07197 0
M  V30 6616 O 628.338 -1.70127 -1.0779 0
M  V30 6617 C 625.403 -3.09303 -1.56628 0
M  V30 6618 C 624.464 -4.18117 -0.973467 0
M  V30 6619 C 623.697 -4.93472 -2.03275 0
M  V30 6620 O 623.92 -4.68913 -3.24772 0
M  V30 6621 O 622.854 -5.78833 -1.65034 0
M  V30 6622 H 626.68 -3.03185 0.176816 0
M  V30 6623 H 624.265 -1.4862 0.152501 0
M  V30 6624 H 626.147 -3.58648 -2.21246 0
M  V30 6625 H 624.822 -2.39098 -2.18206 0
M  V30 6626 H 623.729 -3.7297 -0.290556 0
M  V30 6627 H 625.062 -4.90556 -0.401908 0
M  V30 6628 N 626.714 -0.118576 -1.57153 0
M  V30 6629 C 627.991 0.583062 -1.86708 0
M  V30 6630 C 628.371 1.84841 -1.01967 0
M  V30 6631 O 627.719 2.28288 -0.0984673 0
M  V30 6632 C 627.929 0.875912 -3.3783 0
M  V30 6633 C 629.277 1.22916 -4.0642 0
M  V30 6634 O 630.301 0.966188 -3.42846 0
M  V30 6635 O 629.16 1.72269 -5.18638 0
M  V30 6636 H 626.254 0.294185 -0.772906 0
M  V30 6637 H 628.8 -0.153048 -1.69008 0
M  V30 6638 H 627.572 -0.0207776 -3.91294 0
M  V30 6639 H 627.195 1.66719 -3.60958 0
M  V30 6640 N 628.193 1.56834 0.155195 0
M  V30 6641 C 629.604 1.72421 0.716082 0
M  V30 6642 C 629.955 0.731685 1.82046 0
M  V30 6643 O 629.08 -0.103481 2.16152 0
M  V30 6644 C 629.675 3.12629 1.30571 0
M  V30 6645 C 628.234 3.29846 1.81325 0
M  V30 6646 C 627.381 2.68359 0.698494 0
M  V30 6647 H 630.332 1.58544 -0.0703861 0
M  V30 6648 H 630.353 3.12174 2.1755 0
M  V30 6649 H 629.865 3.84844 0.501701 0
M  V30 6650 H 627.966 2.62614 2.64319 0
M  V30 6651 H 628.079 4.37727 1.9476 0
M  V30 6652 H 626.443 2.28604 1.12305 0
M  V30 6653 H 627.226 3.43171 -0.0939366 0
M  V30 6654 N 629.671 -0.424282 1.51781 0
M  V30 6655 C 630.901 -1.19297 1.68677 0
M  V30 6656 C 631.309 -1.85152 0.389258 0
M  V30 6657 O 630.652 -1.72067 -0.643311 0
M  V30 6658 C 630.714 -2.30929 2.75521 0
M  V30 6659 C 630.378 -1.85335 4.17732 0
M  V30 6660 C 631.375 -1.34951 5.0208 0
M  V30 6661 C 629.06 -1.92629 4.63896 0
M  V30 6662 C 631.054 -0.924636 6.30658 0
M  V30 6663 C 628.741 -1.49754 5.92467 0
M  V30 6664 C 629.739 -0.997543 6.75676 0
M  V30 6665 O 629.427 -0.57492 8.01842 0
M  V30 6666 H 629.159 -0.36512 0.568914 0
M  V30 6667 H 631.713 -0.507327 1.99036 0
M  V30 6668 H 629.943 -3.02811 2.40505 0
M  V30 6669 H 631.632 -2.92748 2.81165 0
M  V30 6670 H 632.398 -1.287 4.67612 0
M  V30 6671 H 628.277 -2.30491 3.99243 0
M  V30 6672 H 631.821 -0.533682 6.95556 0
M  V30 6673 H 627.718 -1.55679 6.26446 0
M  V30 6674 H 628.486 -0.699597 8.15505 0
M  V30 6675 N 631.149 -1.42148 -0.680565 0
M  V30 6676 C 632.079 -1.4796 -1.80638 0
M  V30 6677 C 633.06 -0.336728 -1.66734 0
M  V30 6678 O 634.245 -0.550247 -1.86242 0
M  V30 6679 C 631.375 -1.37569 -3.18892 0
M  V30 6680 C 630.329 -2.49823 -3.47524 0
M  V30 6681 C 629.655 -2.24491 -4.85291 0
M  V30 6682 C 630.955 -3.92144 -3.44994 0
M  V30 6683 H 632.649 -2.42184 -1.76032 0
M  V30 6684 H 630.195 -1.16566 -0.845481 0
M  V30 6685 H 632.148 -1.40243 -3.97379 0
M  V30 6686 H 630.872 -0.398357 -3.24162 0
M  V30 6687 H 629.531 -2.46455 -2.71395 0
M  V30 6688 H 629.179 -1.25066 -4.87204 0
M  V30 6689 H 628.879 -2.99722 -5.05411 0
M  V30 6690 H 630.403 -2.28906 -5.66069 0
M  V30 6691 H 631.817 -3.97145 -4.13459 0
M  V30 6692 H 630.214 -4.67179 -3.76648 0
M  V30 6693 H 631.284 -4.19225 -2.43676 0
M  V30 6694 N 632.627 0.916307 -1.28225 0
M  V30 6695 C 634.038 1.48024 -1.13779 0
M  V30 6696 C 634.389 1.94289 0.273139 0
M  V30 6697 O 633.514 1.82226 1.16716 0
M  V30 6698 C 634.109 2.69029 -2.05935 0
M  V30 6699 C 632.668 3.2161 -1.95561 0
M  V30 6700 C 631.815 1.94321 -1.97825 0
M  V30 6701 H 634.766 0.729272 -1.40951 0
M  V30 6702 H 634.787 3.44204 -1.62184 0
M  V30 6703 H 634.299 2.35325 -3.08616 0
M  V30 6704 H 632.4 3.60045 -0.959076 0
M  V30 6705 H 632.513 3.87032 -2.82388 0
M  V30 6706 H 630.877 2.1131 -1.42198 0
M  V30 6707 H 631.66 1.62917 -3.0218 0
M  V30 6708 N 634.105 1.10431 1.1244 0
M  V30 6709 C 635.353 0.845045 1.83585 0
M  V30 6710 C 635.674 -0.631168 1.84503 0
M  V30 6711 O 634.944 -1.45825 1.30813 0
M  V30 6712 H 633.524 0.309628 0.679809 0
M  V30 6713 H 636.186 1.39458 1.36153 0
M  V30 6714 H 635.282 1.20786 2.8778 0
M  V30 6715 O 635.622 -1.24743 1.02574 0
M  V30 6716 H 636.313 -1.80996 0.689934 0
M  V30 END ATOM
M  V30 BEGIN BOND
M  V30 END BOND
M  V30 END CTAB
M  END
$$$$
