drugbank_target|P47228 Biphenyl-2,3-diol 1,2-dioxygenase (DB01925; DB02232; DB02923; DB03259; DB03454; DB03900)
 OpenBabel12092119523D

  0  0  0     0  0            999 V3000
M  V30 BEGIN CTAB
M  V30 COUNTS 4516 4572 0 0 0
M  V30 BEGIN ATOM
M  V30 1 H -0.908 1.98254 -0.117106 0
M  V30 2 N 0 1.576 0 0
M  V30 3 C 0.933 2.03868 1.02534 0
M  V30 4 C 1.911 0.928543 1.3348 0
M  V30 5 O 3.095 1.19667 1.45644 0
M  V30 6 C 0.222 2.43627 2.35294 0
M  V30 7 C -0.732 3.65373 2.2001 0
M  V30 8 S 0.101 5.13292 1.52614 0
M  V30 9 C 1.257 5.56322 2.86805 0
M  V30 10 H 1.49 2.90518 0.631377 0
M  V30 11 H -0.977 1.52953 0.210867 0
M  V30 12 H 0.981 2.67203 3.11629 0
M  V30 13 H -0.358 1.57376 2.7183 0
M  V30 14 H -1.165 3.90944 3.18086 0
M  V30 15 H -1.563 3.418 1.51819 0
M  V30 16 H 0.729 5.58782 3.83104 0
M  V30 17 H 1.672 6.56266 2.65933 0
M  V30 18 H 2.08 4.83886 2.90714 0
M  V30 19 N 1.4781 -0.272755 1.55222 0
M  V30 20 C 2.7031 -1.02683 1.80197 0
M  V30 21 C 3.1281 -1.79142 0.573551 0
M  V30 22 O 2.4861 -1.74917 -0.476849 0
M  V30 23 C 2.5341 -1.9609 3.02624 0
M  V30 24 O 1.6381 -3.04863 2.77727 0
M  V30 25 H 0.9791 -0.293557 0.595584 0
M  V30 26 H 3.5091 -0.30159 2.02365 0
M  V30 27 H 3.5191 -2.38039 3.31363 0
M  V30 28 H 2.1941 -1.39851 3.91682 0
M  V30 29 H 0.7711 -2.67228 2.60084 0
M  V30 30 N 2.9562 -1.48159 -0.537278 0
M  V30 31 C 4.2052 -1.5506 -1.28993 0
M  V30 32 C 4.5182 -0.226211 -1.94288 0
M  V30 33 O 5.7242 -0.173395 -2.70946 0
M  V30 34 C 4.1802 -2.73429 -2.34018 0
M  V30 35 C 3.7882 -4.1248 -1.74825 0
M  V30 36 C 5.5322 -2.89638 -3.10339 0
M  V30 37 C 3.4392 -5.22121 -2.77747 0
M  V30 38 H 2.3692 -0.577231 -0.485098 0
M  V30 39 H 5.0202 -1.74478 -0.568317 0
M  V30 40 H 3.4022 -2.47431 -3.09182 0
M  V30 41 H 4.5762 -4.48466 -1.05899 0
M  V30 42 H 2.8912 -4.01327 -1.11022 0
M  V30 43 H 5.4882 -3.68718 -3.87235 0
M  V30 44 H 5.8312 -1.9882 -3.65754 0
M  V30 45 H 6.3642 -3.15502 -2.42288 0
M  V30 46 H 3.1032 -6.1488 -2.27161 0
M  V30 47 H 2.6232 -4.90631 -3.45024 0
M  V30 48 H 4.3022 -5.49924 -3.4087 0
M  V30 49 N 4.4343 0.785586 -1.36625 0
M  V30 50 C 5.8503 1.08419 -1.17122 0
M  V30 51 C 6.0503 2.015 0.00208491 0
M  V30 52 O 5.1063 2.43551 0.666278 0
M  V30 53 C 6.4193 1.69498 -2.48377 0
M  V30 54 C 7.9673 1.81821 -2.54775 0
M  V30 55 C 8.4423 2.46315 -3.86126 0
M  V30 56 N 9.9333 2.53779 -3.87492 0
M  V30 57 C 10.6683 3.045 -4.85868 0
M  V30 58 N 10.1643 3.55499 -5.94637 0
M  V30 59 N 11.9573 3.03247 -4.73284 0
M  V30 60 H 4.1083 0.167264 -2.1174 0
M  V30 61 H 6.3713 0.13682 -0.938075 0
M  V30 62 H 6.0773 1.08571 -3.34522 0
M  V30 63 H 5.9513 2.6896 -2.64462 0
M  V30 64 H 8.3383 2.41884 -1.69045 0
M  V30 65 H 8.4193 0.811532 -2.42586 0
M  V30 66 H 8.0633 1.86895 -4.72263 0
M  V30 67 H 7.9933 3.47561 -3.95612 0
M  V30 68 H 10.4843 2.17672 -3.08913 0
M  V30 69 H 10.7973 3.92562 -6.65669 0
M  V30 70 H 9.1423 3.5364 -5.98301 0
M  V30 71 H 12.3333 2.62696 -3.87438 0
M  V30 72 H 12.5063 3.42467 -5.50109 0
M  V30 73 N 5.9124 1.20967 1.01018 0
M  V30 74 C 7.1374 1.0503 1.78839 0
M  V30 75 C 7.5624 -0.395752 1.8389 0
M  V30 76 O 6.9204 -1.28529 1.27867 0
M  V30 77 C 6.9684 1.64602 3.2084 0
M  V30 78 O 6.0724 0.887988 4.02726 0
M  V30 79 H 5.4134 0.369987 0.551367 0
M  V30 80 H 7.9434 1.60399 1.27018 0
M  V30 81 H 7.9534 1.68607 3.71532 0
M  V30 82 H 6.6284 2.69841 3.16479 0
M  V30 83 H 5.2054 0.922648 3.61305 0
M  V30 84 N 7.3905 -1.2043 1.01659 0
M  V30 85 C 8.3205 -2.25466 0.607226 0
M  V30 86 C 9.3015 -1.65853 -0.377716 0
M  V30 87 O 10.4865 -1.92409 -0.263149 0
M  V30 88 C 7.6165 -3.47256 -0.0552949 0
M  V30 89 C 6.5705 -4.19462 0.850632 0
M  V30 90 C 5.8965 -5.34673 0.0538859 0
M  V30 91 C 7.1965 -4.75603 2.15868 0
M  V30 92 H 8.8905 -2.59962 1.48526 0
M  V30 93 H 6.4365 -1.2496 0.715605 0
M  V30 94 H 8.3895 -4.19917 -0.353233 0
M  V30 95 H 7.1135 -3.11924 -0.968045 0
M  V30 96 H 5.7725 -3.48667 1.13257 0
M  V30 97 H 5.4205 -4.95585 -0.860514 0
M  V30 98 H 5.1205 -5.83913 0.657192 0
M  V30 99 H 6.6445 -6.10138 -0.237598 0
M  V30 100 H 8.0585 -5.40083 1.92311 0
M  V30 101 H 6.4555 -5.3528 2.71284 0
M  V30 102 H 7.5255 -3.94346 2.82169 0
M  V30 103 N 8.8686 -0.792821 -1.36206 0
M  V30 104 C 10.1166 -0.366062 -1.98757 0
M  V30 105 C 10.4376 1.0668 -1.63231 0
M  V30 106 O 9.7076 1.73587 -0.907978 0
M  V30 107 H 8.2876 -0.132364 -0.735179 0
M  V30 108 H 10.9496 -1.01562 -1.66347 0
M  V30 109 H 10.0456 -0.460638 -3.08682 0
M  V30 110 N 10.3467 1.47872 -0.545128 0
M  V30 111 C 11.5767 2.06589 -0.0210534 0
M  V30 112 C 11.9847 1.39997 1.27269 0
M  V30 113 O 11.3277 0.486421 1.77143 0
M  V30 114 C 11.3897 3.58574 0.257933 0
M  V30 115 C 11.0537 4.47132 -0.944573 0
M  V30 116 C 12.0507 4.85986 -1.84699 0
M  V30 117 C 9.7357 4.88821 -1.15584 0
M  V30 118 C 11.7297 5.65314 -2.94446 0
M  V30 119 C 9.4167 5.67916 -2.25642 0
M  V30 120 C 10.4147 6.06073 -3.14905 0
M  V30 121 O 10.1027 6.83578 -4.23057 0
M  V30 122 H 9.8347 0.674971 -0.0372899 0
M  V30 123 H 12.3887 1.91037 -0.754599 0
M  V30 124 H 10.6187 3.72295 1.04564 0
M  V30 125 H 12.3077 3.99356 0.72592 0
M  V30 126 H 13.0737 4.54388 -1.69577 0
M  V30 127 H 8.9527 4.58595 -0.470279 0
M  V30 128 H 12.4967 5.95016 -3.64145 0
M  V30 129 H 8.3937 5.98927 -2.40742 0
M  V30 130 H 9.1617 7.01954 -4.20954 0
M  V30 131 N 11.8248 0.280983 1.55075 0
M  V30 132 C 12.7578 -0.645439 2.18882 0
M  V30 133 C 13.7358 -1.14786 1.15165 0
M  V30 134 O 14.9198 -1.21975 1.43716 0
M  V30 135 C 12.0468 -1.88088 2.81674 0
M  V30 136 C 11.0928 -1.51343 3.98745 0
M  V30 137 S 11.9258 -0.586548 5.32278 0
M  V30 138 C 13.0818 -1.83024 5.98543 0
M  V30 139 H 13.3148 -0.1033 2.9712 0
M  V30 140 H 10.8478 0.0652099 1.54262 0
M  V30 141 H 12.8058 -2.58997 3.18482 0
M  V30 142 H 11.4668 -2.39417 2.03318 0
M  V30 143 H 10.6598 -2.43289 4.41392 0
M  V30 144 H 10.2618 -0.884477 3.63391 0
M  V30 145 H 12.5538 -2.77342 6.18133 0
M  V30 146 H 13.4968 -1.44668 6.93164 0
M  V30 147 H 13.9048 -1.99785 5.27964 0
M  V30 148 N 13.3029 -1.57598 0.00835791 0
M  V30 149 C 14.5509 -1.90551 -0.6734 0
M  V30 150 C 14.8719 -0.883301 -1.73847 0
M  V30 151 O 14.1419 0.0781442 -1.95744 0
M  V30 152 H 12.7219 -0.703312 -0.251717 0
M  V30 153 H 15.3839 -1.94833 0.0512592 0
M  V30 154 H 14.4799 -2.9056 -1.13935 0
M  V30 155 N 14.781 0.264519 -1.55364 0
M  V30 156 C 16.028 0.994986 -1.7637 0
M  V30 157 C 16.356 1.85976 -0.5695 0
M  V30 158 O 15.611 1.90509 0.44776 0
M  V30 159 C 15.91 1.9004 -3.02687 0
M  V30 160 C 15.576 1.19243 -4.34847 0
M  V30 161 C 14.238 0.996709 -4.70764 0
M  V30 162 C 16.59 0.689296 -5.16622 0
M  V30 163 C 13.918 0.285261 -5.86006 0
M  V30 164 C 16.27 -0.00860079 -6.32599 0
M  V30 165 C 14.934 -0.215963 -6.67151 0
M  V30 166 H 14.204 0.364091 -0.645383 0
M  V30 167 H 16.851 0.266543 -1.89636 0
M  V30 168 H 15.156 2.69533 -2.84357 0
M  V30 169 H 16.853 2.46695 -3.16137 0
M  V30 170 H 13.443 1.3549 -4.06621 0
M  V30 171 H 17.627 0.828108 -4.89342 0
M  V30 172 H 12.883 0.113961 -6.11294 0
M  V30 173 H 17.057 -0.406186 -6.95214 0
M  V30 174 H 14.684 -0.769217 -7.56298 0
M  V30 175 N 16.2591 1.48442 0.529413 0
M  V30 176 C 17.2221 1.62524 1.61612 0
M  V30 177 C 18.2221 0.498509 1.52877 0
M  V30 178 O 19.4121 0.76431 1.56537 0
M  V30 179 C 16.5441 1.59597 3.01233 0
M  V30 180 H 17.7371 2.59423 1.50465 0
M  V30 181 H 15.2901 1.37047 0.751514 0
M  V30 182 H 16.0251 0.641781 3.17886 0
M  V30 183 H 15.8101 2.41397 3.08982 0
M  V30 184 H 17.3001 1.72646 3.80241 0
M  V30 185 N 17.7372 -0.778329 1.37039 0
M  V30 186 C 18.9832 -1.53892 1.32079 0
M  V30 187 C 19.3162 -1.9396 -0.0965386 0
M  V30 188 O 18.5912 -1.63568 -1.05242 0
M  V30 189 C 18.8742 -2.80847 2.25382 0
M  V30 190 C 18.7272 -2.47076 3.75864 0
M  V30 191 C 20.0462 -3.82741 2.1725 0
M  V30 192 H 17.1652 -0.558303 0.48111 0
M  V30 193 H 19.8072 -0.893397 1.67685 0
M  V30 194 H 17.9572 -3.35931 1.95148 0
M  V30 195 H 19.6292 -1.97957 4.16666 0
M  V30 196 H 17.8722 -1.79863 3.94755 0
M  V30 197 H 18.5432 -3.37798 4.36574 0
M  V30 198 H 21.0192 -3.37133 2.43887 0
M  V30 199 H 19.8952 -4.69303 2.84686 0
M  V30 200 H 20.1562 -4.2652 1.16331 0
M  V30 201 N 19.2153 -1.21501 -1.00376 0
M  V30 202 C 20.4403 -1.05977 -1.78279 0
M  V30 203 C 20.8653 0.385994 -1.84097 0
M  V30 204 O 20.2233 1.27849 -1.28547 0
M  V30 205 C 20.2713 -1.66302 -3.19963 0
M  V30 206 O 19.3753 -0.909333 -4.0225 0
M  V30 207 H 18.7163 -0.372906 -0.549397 0
M  V30 208 H 21.2463 -1.6107 -1.26165 0
M  V30 209 H 21.2563 -1.70574 -3.70632 0
M  V30 210 H 19.9313 -2.71515 -3.15043 0
M  V30 211 H 18.5083 -0.941795 -3.60811 0
M  V30 212 N 20.6934 1.19889 -1.02296 0
M  V30 213 C 21.9704 1.85148 -0.630832 0
M  V30 214 C 22.3504 1.91385 0.890782 0
M  V30 215 O 21.6984 1.42642 1.78509 0
M  V30 216 C 21.9084 3.24442 -1.28602 0
M  V30 217 C 23.2564 4.00663 -1.4055 0
M  V30 218 O 24.2804 3.33818 -1.24273 0
M  V30 219 O 23.1394 5.20387 -1.66913 0
M  V30 220 H 20.2334 0.797613 -0.218499 0
M  V30 221 H 22.7794 1.27427 -1.12074 0
M  V30 222 H 21.5514 3.14704 -2.32545 0
M  V30 223 H 21.1744 3.89802 -0.7836 0
M  V30 224 N 22.1715 0.800033 1.35784 0
M  V30 225 C 23.4175 0.377901 1.99248 0
M  V30 226 C 23.7505 -1.05052 1.63333 0
M  V30 227 O 23.0255 -1.72768 0.893385 0
M  V30 228 C 23.3085 0.553922 3.55814 0
M  V30 229 C 23.1615 2.0268 4.01548 0
M  V30 230 C 24.4805 -0.0244802 4.40093 0
M  V30 231 H 21.5995 0.138782 0.723815 0
M  V30 232 H 24.2415 1.00835 1.61035 0
M  V30 233 H 22.3915 0.0172398 3.88496 0
M  V30 234 H 24.0635 2.62536 3.79305 0
M  V30 235 H 22.3065 2.5256 3.52698 0
M  V30 236 H 22.9775 2.10087 5.10458 0
M  V30 237 H 25.4535 0.433775 4.13833 0
M  V30 238 H 24.3295 0.128637 5.48749 0
M  V30 239 H 24.5905 -1.11758 4.27741 0
M  V30 240 N 23.6496 -1.47581 0.552962 0
M  V30 241 C 24.6126 -2.28439 -0.186605 0
M  V30 242 C 25.6126 -1.36706 -0.84665 0
M  V30 243 O 26.8026 -1.59378 -0.703164 0
M  V30 244 C 23.9346 -3.16264 -1.2724 0
M  V30 245 H 25.1276 -2.95294 0.523609 0
M  V30 246 H 22.6806 -1.532 0.309745 0
M  V30 247 H 23.4156 -2.54091 -2.01514 0
M  V30 248 H 23.2006 -3.83769 -0.803968 0
M  V30 249 H 24.6906 -3.77198 -1.79196 0
M  V30 250 N 25.1277 -0.289203 -1.54924 0
M  V30 251 C 26.0907 0.579144 -2.21762 0
M  V30 252 C 27.0907 1.07047 -1.1999 0
M  V30 253 O 28.2807 0.968384 -1.44803 0
M  V30 254 C 25.4127 1.80055 -2.8947 0
M  V30 255 H 26.6057 -0.00464908 -2.999 0
M  V30 256 H 24.1587 -0.0399306 -1.56249 0
M  V30 257 H 24.8937 2.42449 -2.15381 0
M  V30 258 H 24.6787 1.45602 -3.64064 0
M  V30 259 H 26.1687 2.41773 -3.40493 0
M  V30 260 N 26.6058 1.57591 -0.0167156 0
M  V30 261 C 27.8518 1.92399 0.659861 0
M  V30 262 C 28.2068 0.892561 1.70444 0
M  V30 263 O 27.4998 -0.0930755 1.91374 0
M  V30 264 C 27.6938 3.3172 1.33029 0
M  V30 265 C 27.5228 4.48319 0.352174 0
M  V30 266 C 26.2928 5.05281 -0.0434883 0
M  V30 267 C 28.4908 5.12831 -0.388474 0
M  V30 268 N 26.4728 6.05399 -1.01807 0
M  V30 269 C 27.8438 6.07934 -1.2172 0
M  V30 270 C 29.8988 4.95858 -0.450513 0
M  V30 271 C 28.6018 6.87891 -2.10235 0
M  V30 272 C 30.6278 5.76413 -1.32295 0
M  V30 273 C 29.9898 6.71123 -2.13948 0
M  V30 274 H 26.0888 0.752106 0.21415 0
M  V30 275 H 28.6728 1.94532 -0.0809846 0
M  V30 276 H 26.8438 3.3043 2.04134 0
M  V30 277 H 28.5758 3.5391 1.9629 0
M  V30 278 H 25.3308 4.7246 0.328384 0
M  V30 279 H 25.7548 6.60145 -1.50123 0
M  V30 280 H 30.3968 4.22472 0.166512 0
M  V30 281 H 28.1148 7.60591 -2.72997 0
M  V30 282 H 31.7008 5.65317 -1.37508 0
M  V30 283 H 30.5808 7.3237 -2.80364 0
M  V30 284 N 28.0839 -0.256276 1.55502 0
M  V30 285 C 29.4999 -0.604325 1.47716 0
M  V30 286 C 29.6999 -1.88763 0.705039 0
M  V30 287 O 28.7559 -2.51445 0.230613 0
M  V30 288 C 30.0689 -0.715756 2.92057 0
M  V30 289 C 31.6169 -0.808706 3.02372 0
M  V30 290 C 32.0919 -0.951777 4.48001 0
M  V30 291 N 33.5829 -1.01688 4.519 0
M  V30 292 C 34.3179 -1.14668 5.61817 0
M  V30 293 N 33.8139 -1.24261 6.81565 0
M  V30 294 N 35.6069 -1.1791 5.49594 0
M  V30 295 H 27.7579 0.586291 2.04148 0
M  V30 296 H 30.0209 0.201015 0.926443 0
M  V30 297 H 29.7269 0.157027 3.51349 0
M  V30 298 H 29.6009 -1.59071 3.42018 0
M  V30 299 H 31.9879 -1.67195 2.43166 0
M  V30 300 H 32.0689 0.0912063 2.55637 0
M  V30 301 H 31.7129 -0.0931291 5.07815 0
M  V30 302 H 31.6429 -1.86659 4.92408 0
M  V30 303 H 34.1339 -0.954468 3.65648 0
M  V30 304 H 34.4469 -1.34046 7.61086 0
M  V30 305 H 32.7919 -1.21236 6.84344 0
M  V30 306 H 35.9829 -1.10057 4.54978 0
M  V30 307 H 36.1559 -1.27681 6.35296 0
M  V30 308 N 29.562 -1.4872 -0.521534 0
M  V30 309 C 30.787 -1.61101 -1.30618 0
M  V30 310 C 31.212 -0.274611 -1.86085 0
M  V30 311 O 30.57 0.754937 -1.64834 0
M  V30 312 C 30.618 -2.66709 -2.4269 0
M  V30 313 O 29.722 -2.24456 -3.45967 0
M  V30 314 H 29.063 -0.539921 -0.386499 0
M  V30 315 H 31.593 -1.94767 -0.626645 0
M  V30 316 H 31.603 -2.88245 -2.88754 0
M  V30 317 H 30.278 -3.63727 -2.01682 0
M  V30 318 H 28.855 -2.13168 -3.05964 0
M  V30 319 N 31.0401 0.771051 -1.3745 0
M  V30 320 C 32.2871 1.52963 -1.32697 0
M  V30 321 C 32.6151 1.94299 0.0883274 0
M  V30 322 O 31.8701 1.64397 1.0617 0
M  V30 323 C 32.1691 2.80676 -2.2126 0
M  V30 324 C 31.8351 2.58389 -3.69521 0
M  V30 325 C 30.4971 2.52019 -4.09927 0
M  V30 326 C 32.8491 2.38469 -4.63446 0
M  V30 327 C 30.1771 2.23721 -5.42371 0
M  V30 328 C 32.5291 2.11694 -5.96128 0
M  V30 329 C 31.1931 2.03769 -6.35637 0
M  V30 330 H 30.4631 0.559732 -0.485573 0
M  V30 331 H 33.1101 0.888083 -1.69662 0
M  V30 332 H 31.4151 3.49392 -1.77291 0
M  V30 333 H 33.1121 3.38557 -2.14895 0
M  V30 334 H 29.7021 2.6421 -3.37478 0
M  V30 335 H 33.8861 2.4238 -4.33089 0
M  V30 336 H 29.1421 2.16081 -5.71943 0
M  V30 337 H 33.3161 1.9528 -6.6846 0
M  V30 338 H 30.9431 1.81606 -7.38189 0
M  V30 339 N 32.5182 1.22032 0.997298 0
M  V30 340 C 33.4482 1.01065 2.10495 0
M  V30 341 C 34.4292 -0.0669542 1.69968 0
M  V30 342 O 35.6142 0.0943987 1.9397 0
M  V30 343 C 32.7442 0.582874 3.42374 0
M  V30 344 C 31.6982 1.60592 3.96729 0
M  V30 345 C 31.0242 1.03412 5.24605 0
M  V30 346 C 32.3242 2.99478 4.27914 0
M  V30 347 H 34.0182 1.93708 2.28292 0
M  V30 348 H 31.5642 0.932761 1.09707 0
M  V30 349 H 33.5172 0.423332 4.19268 0
M  V30 350 H 32.2412 -0.379213 3.24391 0
M  V30 351 H 30.9002 1.75316 3.21963 0
M  V30 352 H 30.5482 0.063518 5.0296 0
M  V30 353 H 30.2482 1.71754 5.61938 0
M  V30 354 H 31.7722 0.886066 6.04137 0
M  V30 355 H 33.1862 2.88153 4.95622 0
M  V30 356 H 31.5832 3.64903 4.76409 0
M  V30 357 H 32.6532 3.49742 3.3587 0
M  V30 358 N 33.9963 -1.19345 1.0293 0
M  V30 359 C 35.2243 -1.92997 0.745644 0
M  V30 360 C 35.6393 -1.75519 -0.695589 0
M  V30 361 O 34.9963 -1.07737 -1.47306 0
M  V30 362 C 35.0473 -3.44741 1.08792 0
M  V30 363 O 34.7683 -3.61658 2.47256 0
M  V30 364 C 36.2693 -4.35515 0.827129 0
M  V30 365 H 33.4893 -0.613042 0.272801 0
M  V30 366 H 36.0333 -1.51473 1.3739 0
M  V30 367 H 34.1883 -3.84097 0.504832 0
M  V30 368 H 34.6023 -4.55514 2.60015 0
M  V30 369 H 36.0763 -5.40589 1.11658 0
M  V30 370 H 36.5533 -4.38552 -0.238436 0
M  V30 371 H 37.1593 -4.01841 1.39297 0
M  V30 372 N 35.4744 -0.807222 -1.35358 0
M  V30 373 C 36.4064 -0.175717 -2.28525 0
M  V30 374 C 37.4194 0.625354 -1.5031 0
M  V30 375 O 38.6084 0.457611 -1.72535 0
M  V30 376 C 35.7084 0.773471 -3.29956 0
M  V30 377 C 34.8814 0.0186296 -4.37396 0
M  V30 378 C 33.9404 0.886395 -5.18681 0
M  V30 379 O 32.9664 0.337106 -5.68201 0
M  V30 380 N 34.1684 2.20839 -5.36852 0
M  V30 381 H 36.9334 -0.976091 -2.83359 0
M  V30 382 H 34.4944 -0.662737 -1.47714 0
M  V30 383 H 36.4864 1.35824 -3.81227 0
M  V30 384 H 35.0564 1.47465 -2.75632 0
M  V30 385 H 34.2764 -0.747349 -3.87051 0
M  V30 386 H 35.5644 -0.501577 -5.06322 0
M  V30 387 H 34.9624 2.67858 -4.98265 0
M  V30 388 H 33.5194 2.74237 -5.91301 0
M  V30 389 N 36.9525 1.47285 -0.560781 0
M  V30 390 C 37.8995 2.30058 0.18491 0
M  V30 391 C 38.8695 1.39281 0.904986 0
M  V30 392 O 40.0545 1.68241 0.899979 0
M  V30 393 C 37.1945 3.23317 1.20666 0
M  V30 394 C 36.3075 4.29186 0.492285 0
M  V30 395 C 35.4425 5.09592 1.49964 0
M  V30 396 C 34.4815 6.07232 0.770439 0
M  V30 397 N 33.6185 6.80584 1.72479 0
M  V30 398 H 38.4585 2.93302 -0.527048 0
M  V30 399 H 35.9955 1.44568 -0.271738 0
M  V30 400 H 37.9535 3.75811 1.81168 0
M  V30 401 H 36.5835 2.61929 1.88661 0
M  V30 402 H 35.6355 3.7972 -0.227333 0
M  V30 403 H 36.9475 4.98738 -0.0787929 0
M  V30 404 H 36.1015 5.66254 2.17809 0
M  V30 405 H 34.8405 4.3995 2.10464 0
M  V30 406 H 33.8455 5.49745 0.0780846 0
M  V30 407 H 35.0705 6.78884 0.171134 0
M  V30 408 H 33.0165 6.1367 2.3183 0
M  V30 409 H 32.9335 7.46319 1.20596 0
M  V30 410 H 34.2015 7.41818 2.39428 0
M  V30 411 N 38.4306 0.297415 1.54768 0
M  V30 412 C 39.3606 -0.573494 2.26348 0
M  V30 413 C 40.3416 -1.14085 1.26169 0
M  V30 414 O 41.5266 -1.17086 1.54934 0
M  V30 415 C 38.6566 -1.74716 3.00153 0
M  V30 416 C 37.6106 -1.31032 4.07449 0
M  V30 417 C 36.9366 -2.56887 4.68949 0
M  V30 418 C 38.2366 -0.444183 5.20408 0
M  V30 419 H 39.9306 0.0235131 2.99391 0
M  V30 420 H 37.4766 0.0127488 1.43994 0
M  V30 421 H 39.4296 -2.3625 3.48947 0
M  V30 422 H 38.1536 -2.37035 2.24682 0
M  V30 423 H 36.8126 -0.718066 3.59499 0
M  V30 424 H 36.4606 -3.17512 3.90122 0
M  V30 425 H 36.1606 -2.2836 5.41411 0
M  V30 426 H 37.6846 -3.19229 5.20505 0
M  V30 427 H 39.0986 -0.9651 5.65118 0
M  V30 428 H 37.4956 -0.252846 5.99567 0
M  V30 429 H 38.5656 0.531609 4.81977 0
M  V30 430 N 39.9087 -1.5758 0.0250728 0
M  V30 431 C 41.1567 -1.91255 -0.653151 0
M  V30 432 C 41.4777 -0.901691 -1.729 0
M  V30 433 O 40.7477 0.0573785 -1.95816 0
M  V30 434 H 39.3277 -0.705942 -0.244243 0
M  V30 435 H 41.9897 -1.94767 0.0719209 0
M  V30 436 H 41.0857 -2.91752 -1.10847 0
M  V30 437 N 41.3868 0.248026 -1.55636 0
M  V30 438 C 42.3168 1.31079 -1.93237 0
M  V30 439 C 43.2978 1.50264 -0.797174 0
M  V30 440 O 44.4828 1.62891 -1.05737 0
M  V30 441 C 41.6128 2.66575 -2.22609 0
M  V30 442 C 40.5668 2.62087 -3.3837 0
M  V30 443 C 39.8928 4.01369 -3.53281 0
M  V30 444 C 41.1928 2.19171 -4.7409 0
M  V30 445 H 42.8868 0.998556 -2.82257 0
M  V30 446 H 40.4328 0.47891 -1.35803 0
M  V30 447 H 42.3858 3.41057 -2.47503 0
M  V30 448 H 41.1098 2.99432 -1.30414 0
M  V30 449 H 39.7688 1.90063 -3.13483 0
M  V30 450 H 39.4168 4.31489 -2.58508 0
M  V30 451 H 39.1168 3.99254 -4.31127 0
M  V30 452 H 40.6408 4.77552 -3.80495 0
M  V30 453 H 42.0548 2.83384 -4.98363 0
M  V30 454 H 40.4518 2.2817 -5.5503 0
M  V30 455 H 41.5218 1.14336 -4.71227 0
M  V30 456 N 42.8649 1.48995 0.513639 0
M  V30 457 C 43.7979 1.59319 1.63379 0
M  V30 458 C 44.7759 0.442816 1.56454 0
M  V30 459 O 45.9599 0.656655 1.76693 0
M  V30 460 C 43.0869 1.5364 3.01848 0
M  V30 461 C 42.1329 2.7372 3.27078 0
M  V30 462 S 42.9659 4.35528 3.1157 0
M  V30 463 C 44.1219 4.32473 4.52458 0
M  V30 464 H 44.3549 2.54079 1.54374 0
M  V30 465 H 41.8879 1.3773 0.697849 0
M  V30 466 H 43.8459 1.51049 3.81699 0
M  V30 467 H 42.5069 0.601898 3.08279 0
M  V30 468 H 41.6999 2.6593 4.28132 0
M  V30 469 H 41.3019 2.73657 2.54927 0
M  V30 470 H 43.5939 4.03414 5.44301 0
M  V30 471 H 44.5369 5.33762 4.65299 0
M  V30 472 H 44.9449 3.62718 4.32546 0
M  V30 473 N 44.343 -0.763751 1.37857 0
M  V30 474 C 45.253 -1.90817 1.36478 0
M  V30 475 C 46.269 -1.71997 0.263248 0
M  V30 476 O 47.445 -1.95095 0.499979 0
M  V30 477 C 44.51 -3.2605 1.17864 0
M  V30 478 C 43.571 -3.57467 2.3773 0
M  V30 479 C 42.804 -4.86249 2.19995 0
M  V30 480 O 43.027 -5.57884 1.18836 0
M  V30 481 O 41.961 -5.16911 3.08361 0
M  V30 482 H 45.787 -1.94933 2.32884 0
M  V30 483 H 43.372 -0.907619 1.1867 0
M  V30 484 H 45.254 -4.06924 1.09504 0
M  V30 485 H 43.929 -3.22769 0.245372 0
M  V30 486 H 42.836 -2.76796 2.51664 0
M  V30 487 H 44.169 -3.655 3.29652 0
M  V30 488 N 45.8211 -1.22559 -0.990812 0
M  V30 489 C 46.7841 -0.998863 -2.0629 0
M  V30 490 C 47.7841 0.0354834 -1.60761 0
M  V30 491 O 48.9741 -0.203231 -1.7301 0
M  V30 492 C 46.1061 -0.509203 -3.37076 0
M  V30 493 H 47.2991 -1.95014 -2.27837 0
M  V30 494 H 44.8521 -1.04456 -1.16269 0
M  V30 495 H 45.5871 0.446335 -3.21214 0
M  V30 496 H 45.3721 -1.25547 -3.71457 0
M  V30 497 H 46.8621 -0.370888 -4.1595 0
M  V30 498 N 47.2992 1.18797 -1.03562 0
M  V30 499 C 48.5472 1.88278 -0.734569 0
M  V30 500 C 48.8682 1.8043 0.739586 0
M  V30 501 O 48.1382 1.21925 1.53333 0
M  V30 502 H 46.7182 0.696991 -0.268725 0
M  V30 503 H 49.3802 1.44192 -1.31129 0
M  V30 504 H 48.4762 2.94443 -1.03489 0
M  V30 505 N 48.7773 0.814389 1.34928 0
M  V30 506 C 50.0053 0.411136 2.02774 0
M  V30 507 C 50.4203 -0.980316 1.61354 0
M  V30 508 O 49.7773 -1.63299 0.814847 0
M  V30 509 C 49.8283 0.493865 3.58111 0
M  V30 510 O 49.5493 1.83047 3.98027 0
M  V30 511 C 51.0503 0.0844174 4.4322 0
M  V30 512 H 48.2703 0.166037 0.650133 0
M  V30 513 H 50.8143 1.10018 1.72384 0
M  V30 514 H 48.9693 -0.147006 3.87121 0
M  V30 515 H 49.3833 1.79872 4.92693 0
M  V30 516 H 50.8573 0.193404 5.51661 0
M  V30 517 H 51.3343 -0.97113 4.28329 0
M  V30 518 H 51.9403 0.69875 4.19521 0
M  V30 519 N 50.2554 -1.46986 0.568584 0
M  V30 520 C 51.4834 -2.0683 0.0539956 0
M  V30 521 C 51.8984 -1.41953 -1.24478 0
M  V30 522 O 51.2554 -0.519933 -1.74937 0
M  V30 523 C 51.3064 -3.61254 -0.133362 0
M  V30 524 O 51.0274 -4.237 1.11399 0
M  V30 525 C 52.5284 -4.37992 -0.683927 0
M  V30 526 H 49.7484 -0.669058 0.0510141 0
M  V30 527 H 52.2924 -1.88824 0.785234 0
M  V30 528 H 50.4474 -3.78735 -0.81477 0
M  V30 529 H 50.8614 -5.16388 0.91888 0
M  V30 530 H 52.3354 -5.46684 -0.764263 0
M  V30 531 H 52.8124 -4.05058 -1.69778 0
M  V30 532 H 53.4184 -4.25283 -0.0378494 0
M  V30 533 N 51.7335 -0.305618 -1.54608 0
M  V30 534 C 53.0105 0.355652 -1.92339 0
M  V30 535 C 53.3905 1.71324 -1.23335 0
M  V30 536 O 52.7385 2.25473 -0.370702 0
M  V30 537 C 52.9485 0.46572 -3.45879 0
M  V30 538 C 54.2965 0.734426 -4.182 0
M  V30 539 O 55.3205 0.54935 -3.51938 0
M  V30 540 O 54.1795 1.09024 -5.35515 0
M  V30 541 H 51.2735 0.199666 -0.802535 0
M  V30 542 H 53.8195 -0.354017 -1.65966 0
M  V30 543 H 52.5915 -0.488461 -3.88239 0
M  V30 544 H 52.2145 1.22367 -3.78301 0
M  V30 545 N 53.2116 1.57565 -0.0334293 0
M  V30 546 C 54.1596 2.1164 0.96496 0
M  V30 547 C 55.1536 1.04398 1.33407 0
M  V30 548 O 56.3596 1.22828 1.3158 0
M  V30 549 H 52.7346 0.676222 0.32898 0
M  V30 550 H 54.7056 2.94455 0.483614 0
M  V30 551 C 53.4546 2.66207 2.23672 0
M  V30 552 H 52.7776 3.48378 1.96145 0
M  V30 553 H 54.2176 3.07685 2.9173 0
M  V30 554 C 52.6766 1.59151 2.96939 0
M  V30 555 O 53.2066 0.993858 3.89211 0
M  V30 556 N 51.4126 1.31093 2.59351 0
M  V30 557 H 50.9596 1.7988 1.84393 0
M  V30 558 H 50.9176 0.596889 3.08682 0
M  V30 559 N 54.6897 -0.239769 1.55765 0
M  V30 560 C 55.9377 -0.964892 1.77579 0
M  V30 561 C 56.2587 -1.85582 0.598699 0
M  V30 562 O 55.5287 -1.92075 -0.385226 0
M  V30 563 H 54.1087 -0.359265 0.654933 0
M  V30 564 H 56.7707 -0.256001 1.93211 0
M  V30 565 H 55.8667 -1.58243 2.69009 0
M  V30 566 N 56.1678 -1.49265 -0.50573 0
M  V30 567 C 57.4448 -1.49012 -1.26707 0
M  V30 568 C 57.8248 -0.215205 -2.1 0
M  V30 569 O 57.1728 0.802547 -2.13943 0
M  V30 570 C 57.3828 -2.7663 -2.12783 0
M  V30 571 C 58.7308 -3.25932 -2.72127 0
M  V30 572 O 59.7548 -2.77715 -2.23054 0
M  V30 573 O 58.6138 -4.09897 -3.61451 0
M  V30 574 H 55.7078 -0.596197 -0.57313 0
M  V30 575 H 58.2538 -1.61524 -0.52039 0
M  V30 576 H 57.0258 -3.60916 -1.5118 0
M  V30 577 H 56.6488 -2.66956 -2.94653 0
M  V30 578 N 57.6459 0.756429 -1.3826 0
M  V30 579 C 58.5759 1.88374 -1.37976 0
M  V30 580 C 59.5569 1.68311 -0.246082 0
M  V30 581 O 60.7419 1.88944 -0.44874 0
M  V30 582 C 57.8719 3.25864 -1.20125 0
M  V30 583 C 56.8259 3.60523 -2.30666 0
M  V30 584 C 56.1519 4.9672 -1.97923 0
M  V30 585 C 57.4519 3.65692 -3.72916 0
M  V30 586 H 59.1459 1.88869 -2.32312 0
M  V30 587 H 56.6919 0.907272 -1.11824 0
M  V30 588 H 58.6449 4.0438 -1.18552 0
M  V30 589 H 57.3689 3.25841 -0.222498 0
M  V30 590 H 56.0279 2.84324 -2.3142 0
M  V30 591 H 55.6759 4.93253 -0.985393 0
M  V30 592 H 55.3759 5.20878 -2.71955 0
M  V30 593 H 56.8999 5.77618 -1.97964 0
M  V30 594 H 58.3139 4.34328 -3.74208 0
M  V30 595 H 56.7109 4.01358 -4.4613 0
M  V30 596 H 57.7809 2.65987 -4.05436 0
M  V30 597 N 59.124 1.23083 0.984299 0
M  V30 598 C 60.371 1.06057 1.72505 0
M  V30 599 C 60.699 -0.403105 1.90277 0
M  V30 600 O 59.954 -1.3149 1.44944 0
M  V30 601 C 60.253 1.72673 3.1292 0
M  V30 602 C 59.919 3.22586 3.15038 0
M  V30 603 C 58.581 3.63489 3.15324 0
M  V30 604 C 60.933 4.185 3.10657 0
M  V30 605 C 58.261 4.98772 3.08939 0
M  V30 606 C 60.613 5.53769 3.05814 0
M  V30 607 C 59.277 5.94041 3.04419 0
M  V30 608 H 58.547 0.388091 0.631242 0
M  V30 609 H 61.194 1.52963 1.15215 0
M  V30 610 H 59.499 1.18116 3.73572 0
M  V30 611 H 61.196 1.56982 3.68996 0
M  V30 612 H 57.786 2.90022 3.15571 0
M  V30 613 H 61.97 3.87911 3.09579 0
M  V30 614 H 57.226 5.29193 3.0621 0
M  V30 615 H 61.4 6.27808 3.0138 0
M  V30 616 H 59.027 6.98833 2.99227 0
M  V30 617 N 60.6021 -1.18246 1.0419 0
M  V30 618 C 62.0181 -1.40269 0.761366 0
M  V30 619 C 62.2181 -1.90777 -0.648578 0
M  V30 620 O 61.2741 -2.0929 -1.41258 0
M  V30 621 C 62.5871 -2.40237 1.8085 0
M  V30 622 C 64.1351 -2.53961 1.82955 0
M  V30 623 C 64.6101 -3.57194 2.86664 0
M  V30 624 N 66.1011 -3.64702 2.85563 0
M  V30 625 C 66.8361 -4.44309 3.6246 0
M  V30 626 N 66.3321 -5.27514 4.49111 0
M  V30 627 N 68.1251 -4.39084 3.50944 0
M  V30 628 H 60.2761 -0.837882 1.95175 0
M  V30 629 H 62.5391 -0.430608 0.84456 0
M  V30 630 H 62.2451 -2.10176 2.81991 0
M  V30 631 H 62.1191 -3.39601 1.64168 0
M  V30 632 H 64.5061 -2.83338 0.824855 0
M  V30 633 H 64.5871 -1.54706 2.03715 0
M  V30 634 H 64.2311 -3.28558 3.87314 0
M  V30 635 H 64.1611 -4.5613 2.6316 0
M  V30 636 H 66.6521 -3.05289 2.22727 0
M  V30 637 H 66.9651 -5.85411 5.04493 0
M  V30 638 H 65.3101 -5.2693 4.53178 0
M  V30 639 H 68.5011 -3.7313 2.82651 0
M  V30 640 H 68.6741 -5.00883 4.11121 0
M  V30 641 N 62.0802 -0.821533 -1.34494 0
M  V30 642 C 63.3292 -0.405355 -1.97585 0
M  V30 643 C 63.6422 1.03677 -1.65863 0
M  V30 644 O 64.8482 1.55679 -2.22433 0
M  V30 645 C 63.3042 -0.673861 -3.53535 0
M  V30 646 C 62.9122 -2.12951 -3.94152 0
M  V30 647 C 64.6562 -0.32378 -4.23263 0
M  V30 648 C 62.5632 -2.34298 -5.43009 0
M  V30 649 H 61.4932 -0.147836 -0.739365 0
M  V30 650 H 64.1442 -1.00769 -1.53355 0
M  V30 651 H 62.5262 -0.00137554 -3.96 0
M  V30 652 H 63.7002 -2.84104 -3.62797 0
M  V30 653 H 62.0152 -2.44089 -3.37356 0
M  V30 654 H 64.6122 -0.461126 -5.32708 0
M  V30 655 H 64.9552 0.731586 -4.09821 0
M  V30 656 H 65.4882 -0.950786 -3.8627 0
M  V30 657 H 62.2272 -3.38335 -5.61435 0
M  V30 658 H 61.7472 -1.67687 -5.75883 0
M  V30 659 H 63.4262 -2.16588 -6.09671 0
M  V30 660 N 63.5583 1.46682 -0.576371 0
M  V30 661 C 64.8353 1.95599 0.00703437 0
M  V30 662 C 65.2153 1.51904 1.46589 0
M  V30 663 O 64.5633 0.766755 2.15251 0
M  V30 664 C 64.7733 3.4864 -0.158404 0
M  V30 665 C 66.1213 4.24594 -0.0229439 0
M  V30 666 O 67.1453 3.56094 -0.0869173 0
M  V30 667 O 66.0043 5.46373 0.118015 0
M  V30 668 H 63.0983 0.825275 0.053384 0
M  V30 669 H 65.6443 1.56996 -0.644244 0
M  V30 670 H 64.4163 3.7331 -1.17282 0
M  V30 671 H 64.0393 3.94057 0.5296 0
M  V30 672 N 65.0364 0.313813 1.54444 0
M  V30 673 C 66.2614 -0.296681 2.05267 0
M  V30 674 C 66.6864 -1.45757 1.18897 0
M  V30 675 O 66.0444 -1.80239 0.195886 0
M  V30 676 C 66.0924 -0.71831 3.53373 0
M  V30 677 O 65.1964 -1.82175 3.69981 0
M  V30 678 H 64.5374 -0.0554061 0.661684 0
M  V30 679 H 67.0674 0.459387 1.99376 0
M  V30 680 H 67.0774 -1.00364 3.95463 0
M  V30 681 H 65.7524 0.130821 4.15694 0
M  V30 682 H 64.3294 -1.53598 3.39797 0
M  V30 683 N 66.5145 -1.57545 0.0417849 0
M  V30 684 C 67.9305 -1.56467 -0.314704 0
M  V30 685 C 68.1305 -1.04859 -1.72066 0
M  V30 686 O 67.1865 -0.700983 -2.42575 0
M  V30 687 C 68.4995 -3.00317 -0.15174 0
M  V30 688 C 70.0475 -3.12201 -0.223553 0
M  V30 689 C 70.5225 -4.57913 -0.0892295 0
M  V30 690 N 72.0135 -4.6297 -0.145808 0
M  V30 691 C 72.7485 -5.73362 -0.0658459 0
M  V30 692 N 72.2445 -6.92769 0.0659282 0
M  V30 693 N 74.0375 -5.6197 -0.12075 0
M  V30 694 H 66.1885 -1.89416 0.961014 0
M  V30 695 H 68.4515 -0.871862 0.372237 0
M  V30 696 H 68.1575 -3.42073 0.817254 0
M  V30 697 H 68.0315 -3.65892 -0.916692 0
M  V30 698 H 70.4185 -2.70349 -1.18301 0
M  V30 699 H 70.4995 -2.49323 0.571994 0
M  V30 700 H 70.1435 -5.00448 0.866867 0
M  V30 701 H 70.0735 -5.18786 -0.903802 0
M  V30 702 H 72.5645 -3.7709 -0.247286 0
M  V30 703 H 72.8775 -7.72707 0.119905 0
M  V30 704 H 71.2225 -6.94927 0.100885 0
M  V30 705 H 74.4135 -4.67572 -0.222187 0
M  V30 706 H 74.5865 -6.47977 -0.0549735 0
M  V30 707 N 67.9926 0.231505 -1.5589 0
M  V30 708 C 68.9556 1.27028 -1.90779 0
M  V30 709 C 69.9556 1.40308 -0.785507 0
M  V30 710 O 71.1456 1.38744 -1.05336 0
M  V30 711 C 68.2776 2.64566 -2.14983 0
M  V30 712 H 69.4706 0.973017 -2.83677 0
M  V30 713 H 67.0236 0.471486 -1.49019 0
M  V30 714 H 67.7586 2.99406 -1.24604 0
M  V30 715 H 67.5436 2.56305 -2.96732 0
M  V30 716 H 69.0336 3.39543 -2.43105 0
M  V30 717 N 69.4707 1.49531 0.497807 0
M  V30 718 C 70.7167 1.60388 1.25089 0
M  V30 719 C 71.0717 0.288328 1.90227 0
M  V30 720 O 70.3647 -0.711706 1.77891 0
M  V30 721 C 70.5587 2.70252 2.33878 0
M  V30 722 C 70.3877 4.12363 1.79408 0
M  V30 723 C 69.1577 4.7911 1.60566 0
M  V30 724 C 71.3557 4.97491 1.30412 0
M  V30 725 N 69.3377 6.05525 1.01059 0
M  V30 726 C 70.7087 6.14411 0.830595 0
M  V30 727 C 72.7637 4.83466 1.19015 0
M  V30 728 C 71.4667 7.1885 0.254371 0
M  V30 729 C 73.4927 5.88057 0.627892 0
M  V30 730 C 72.8547 7.04208 0.16461 0
M  V30 731 H 68.9537 0.641246 0.447579 0
M  V30 732 H 71.5377 1.86549 0.557441 0
M  V30 733 H 69.7087 2.45858 3.0068 0
M  V30 734 H 71.4407 2.70613 3.00917 0
M  V30 735 H 68.1957 4.35961 1.85026 0
M  V30 736 H 68.6197 6.73028 0.732236 0
M  V30 737 H 73.2617 3.93978 1.53431 0
M  V30 738 H 70.9797 8.08036 -0.102052 0
M  V30 739 H 74.5657 5.79266 0.542444 0
M  V30 740 H 73.4457 7.83757 -0.263669 0
M  V30 741 N 70.9488 -0.749086 1.3866 0
M  V30 742 C 72.3648 -1.05276 1.19955 0
M  V30 743 C 72.5648 -2.01435 0.05134 0
M  V30 744 O 71.6208 -2.45232 -0.60147 0
M  V30 745 C 72.9338 -1.62853 2.52783 0
M  V30 746 C 74.4818 -1.75002 2.59506 0
M  V30 747 C 74.9568 -2.35991 3.92521 0
M  V30 748 N 76.4478 -2.43416 3.94085 0
M  V30 749 C 77.1828 -2.91511 4.9377 0
M  V30 750 N 76.6788 -3.39608 6.03853 0
M  V30 751 N 78.4718 -2.90592 4.81157 0
M  V30 752 H 70.6228 -0.111066 2.12109 0
M  V30 753 H 72.8858 -0.111901 0.941373 0
M  V30 754 H 72.5918 -0.99664 3.37283 0
M  V30 755 H 72.4658 -2.61854 2.715 0
M  V30 756 H 74.8528 -2.37317 1.75398 0
M  V30 757 H 74.9338 -0.74693 2.44652 0
M  V30 758 H 74.5778 -1.74308 4.77053 0
M  V30 759 H 74.5078 -3.3695 4.04688 0
M  V30 760 H 76.9988 -2.09405 3.14576 0
M  V30 761 H 77.3118 -3.74775 6.75843 0
M  V30 762 H 75.6568 -3.37653 6.07466 0
M  V30 763 H 78.8478 -2.52332 3.94267 0
M  V30 764 H 79.0208 -3.27762 5.58996 0
M  V30 765 N 72.4269 -1.23603 -0.977757 0
M  V30 766 C 73.6759 -1.06377 -1.71368 0
M  V30 767 C 73.9889 0.399062 -1.91486 0
M  V30 768 O 75.1949 0.691312 -2.62551 0
M  V30 769 C 73.6509 -1.85512 -3.08404 0
M  V30 770 C 73.2589 -3.36141 -2.96164 0
M  V30 771 C 75.0029 -1.76783 -3.85938 0
M  V30 772 C 72.9099 -4.07659 -4.28449 0
M  V30 773 H 71.8399 -0.394452 -0.642591 0
M  V30 774 H 74.4909 -1.47594 -1.09034 0
M  V30 775 H 72.8729 -1.37103 -3.71509 0
M  V30 776 H 74.0469 -3.92056 -2.42133 0
M  V30 777 H 72.3619 -3.45712 -2.32104 0
M  V30 778 H 74.9589 -2.27526 -4.83876 0
M  V30 779 H 75.3019 -0.731116 -4.0983 0
M  V30 780 H 75.8349 -2.22818 -3.2954 0
M  V30 781 H 72.5739 -5.11648 -4.09752 0
M  V30 782 H 72.0939 -3.5653 -4.82334 0
M  V30 783 H 73.7729 -4.141 -4.97122 0
M  V30 784 N 73.905 1.17692 -1.04816 0
M  V30 785 C 74.868 2.19787 -0.650117 0
M  V30 786 C 75.868 1.58044 0.296427 0
M  V30 787 O 77.058 1.74012 0.0808097 0
M  V30 788 C 74.19 3.40869 0.0456987 0
M  V30 789 H 75.383 2.56516 -1.5537 0
M  V30 790 H 72.936 1.31708 -0.841594 0
M  V30 791 H 73.671 3.09681 0.962726 0
M  V30 792 H 73.456 3.86928 -0.634727 0
M  V30 793 H 74.946 4.16445 0.310432 0
M  V30 794 N 75.3831 0.828654 1.34056 0
M  V30 795 C 76.6291 0.42008 1.98402 0
M  V30 796 C 76.9621 -1.01564 1.65525 0
M  V30 797 O 76.2371 -1.70834 0.929831 0
M  V30 798 C 76.5201 0.62927 3.54559 0
M  V30 799 C 76.3731 2.11152 3.97159 0
M  V30 800 C 77.6921 0.0688756 4.40046 0
M  V30 801 H 74.8111 0.154104 0.720709 0
M  V30 802 H 77.4531 1.04228 1.5886 0
M  V30 803 H 75.6031 0.0996418 3.88372 0
M  V30 804 H 77.2751 2.70522 3.73651 0
M  V30 805 H 75.5181 2.59985 3.47261 0
M  V30 806 H 76.1891 2.20868 5.05887 0
M  V30 807 H 78.6651 0.521458 4.1282 0
M  V30 808 H 77.5411 0.245006 5.48353 0
M  V30 809 H 77.8021 -1.0266 4.30015 0
M  V30 810 N 76.8612 -1.46375 0.584142 0
M  V30 811 C 77.7932 -2.28443 -0.186119 0
M  V30 812 C 78.8062 -1.38596 -0.854115 0
M  V30 813 O 79.9952 -1.63183 -0.723438 0
M  V30 814 C 77.0952 -3.13671 -1.28311 0
M  V30 815 C 76.2682 -4.31652 -0.706758 0
M  V30 816 C 75.3272 -4.98267 -1.69163 0
M  V30 817 O 74.3532 -5.55815 -1.22712 0
M  V30 818 N 75.5552 -4.95408 -3.02575 0
M  V30 819 H 78.3202 -2.9519 0.517986 0
M  V30 820 H 75.8812 -1.56303 0.42201 0
M  V30 821 H 77.8732 -3.55101 -1.94128 0
M  V30 822 H 76.4432 -2.48989 -1.89005 0
M  V30 823 H 75.6632 -3.93989 0.128908 0
M  V30 824 H 76.9512 -5.07906 -0.301506 0
M  V30 825 H 76.3492 -4.49902 -3.42936 0
M  V30 826 H 74.9062 -5.40774 -3.63877 0
M  V30 827 N 78.3393 -0.321999 -1.54275 0
M  V30 828 C 79.2713 0.578671 -2.21775 0
M  V30 829 C 80.2843 1.08109 -1.21722 0
M  V30 830 O 81.4733 0.994938 -1.482 0
M  V30 831 C 78.5733 1.80661 -2.86731 0
M  V30 832 C 77.7463 1.44314 -4.12907 0
M  V30 833 C 76.8053 2.52845 -4.61472 0
M  V30 834 O 75.8313 2.17054 -5.2619 0
M  V30 835 N 77.0333 3.83748 -4.35566 0
M  V30 836 H 79.7983 0.000709447 -2.997 0
M  V30 837 H 77.3593 -0.145132 -1.61248 0
M  V30 838 H 79.3513 2.52655 -3.16145 0
M  V30 839 H 77.9213 2.29245 -2.12521 0
M  V30 840 H 77.1413 0.554906 -3.90275 0
M  V30 841 H 78.4293 1.17598 -4.95023 0
M  V30 842 H 77.8273 4.15625 -3.83761 0
M  V30 843 H 76.3843 4.51977 -4.69638 0
M  V30 844 N 79.8174 1.5752 -0.0501392 0
M  V30 845 C 81.0654 1.9227 0.622642 0
M  V30 846 C 81.3864 0.929083 1.71444 0
M  V30 847 O 80.6564 -0.0262186 1.95882 0
M  V30 848 H 79.2364 0.709739 0.232981 0
M  V30 849 H 81.8984 1.94628 -0.102898 0
M  V30 850 H 80.9944 2.93479 1.06191 0
M  V30 851 N 81.2955 -0.223234 1.56011 0
M  V30 852 C 82.2055 -1.29766 1.95443 0
M  V30 853 C 83.2215 -1.51373 0.858028 0
M  V30 854 O 84.3975 -1.64536 1.16146 0
M  V30 855 C 81.4625 -2.62772 2.26167 0
M  V30 856 C 80.5235 -2.49482 3.49367 0
M  V30 857 C 79.7565 -3.76145 3.78616 0
M  V30 858 O 79.9795 -4.79087 3.09568 0
M  V30 859 O 78.9135 -3.73358 4.72109 0
M  V30 860 H 82.7395 -0.99309 2.87004 0
M  V30 861 H 80.3245 -0.425958 1.43199 0
M  V30 862 H 82.2065 -3.41327 2.47131 0
M  V30 863 H 80.8815 -2.92913 1.37781 0
M  V30 864 H 79.7885 -1.69133 3.33684 0
M  V30 865 H 81.1215 -2.2428 4.38131 0
M  V30 866 N 82.7736 -1.49793 -0.48987 0
M  V30 867 C 84.0196 -1.60078 -1.24511 0
M  V30 868 C 84.3526 -0.291608 -1.91998 0
M  V30 869 O 83.6276 0.705647 -1.81248 0
M  V30 870 C 83.9106 -2.76791 -2.30345 0
M  V30 871 C 83.7636 -4.17535 -1.67286 0
M  V30 872 C 85.0826 -2.89111 -3.31817 0
M  V30 873 H 82.2016 -0.582645 -0.451324 0
M  V30 874 H 84.8436 -1.82117 -0.541612 0
M  V30 875 H 82.9936 -2.5813 -2.90346 0
M  V30 876 H 84.6656 -4.4774 -1.11026 0
M  V30 877 H 82.9086 -4.22665 -0.976577 0
M  V30 878 H 83.5796 -4.95094 -2.44103 0
M  V30 879 H 86.0556 -3.06133 -2.81819 0
M  V30 880 H 84.9316 -3.72433 -4.03219 0
M  V30 881 H 85.1926 -1.9893 -3.94815 0
M  V30 882 N 84.2517 0.741722 -1.39055 0
M  V30 883 C 85.5287 1.49252 -1.26425 0
M  V30 884 C 85.9087 2.10705 0.129144 0
M  V30 885 O 85.2567 1.98045 1.13976 0
M  V30 886 C 85.4667 2.54934 -2.38347 0
M  V30 887 C 86.8147 3.21506 -2.77343 0
M  V30 888 O 87.8387 2.65245 -2.37747 0
M  V30 889 O 86.6977 4.23294 -3.45665 0
M  V30 890 H 83.7917 0.662451 -0.495064 0
M  V30 891 H 86.3377 0.776121 -1.50912 0
M  V30 892 H 85.1097 2.07857 -3.31529 0
M  V30 893 H 84.7327 3.34141 -2.15489 0
M  V30 894 N 85.7298 1.2412 0.971189 0
M  V30 895 C 87.0068 0.986867 1.6888 0
M  V30 896 C 87.3868 -0.491857 2.0529 0
M  V30 897 O 86.7348 -1.46531 1.75331 0
M  V30 898 C 86.9448 1.9063 2.92338 0
M  V30 899 C 88.2928 2.17515 3.64654 0
M  V30 900 O 89.3168 1.88254 3.02388 0
M  V30 901 O 88.1758 2.6719 4.7673 0
M  V30 902 H 85.2698 0.372944 0.738134 0
M  V30 903 H 87.8158 1.35203 1.02559 0
M  V30 904 H 86.5878 2.90552 2.62097 0
M  V30 905 H 86.2108 1.54408 3.66393 0
M  V30 906 N 87.2079 -1.17134 1.05439 0
M  V30 907 C 88.1379 -2.2342 0.678649 0
M  V30 908 C 89.1189 -1.66971 -0.32476 0
M  V30 909 O 90.3039 -1.93149 -0.201802 0
M  V30 910 C 87.4339 -3.47256 0.0552099 0
M  V30 911 C 86.3879 -4.16543 0.98365 0
M  V30 912 C 85.7139 -5.34231 0.223961 0
M  V30 913 C 87.0139 -4.68495 2.3089 0
M  V30 914 H 88.7079 -2.55105 1.56722 0
M  V30 915 H 86.2539 -1.2262 0.754998 0
M  V30 916 H 88.2069 -4.20828 -0.21946 0
M  V30 917 H 86.9309 -3.14846 -0.868319 0
M  V30 918 H 85.5899 -3.44887 1.24293 0
M  V30 919 H 85.2379 -4.98071 -0.702412 0
M  V30 920 H 84.9379 -5.81527 0.842627 0
M  V30 921 H 86.4619 -6.10585 -0.0433671 0
M  V30 922 H 87.8759 -5.33691 2.09396 0
M  V30 923 H 86.2729 -5.26379 2.88176 0
M  V30 924 H 87.3429 -3.85169 2.94572 0
M  V30 925 N 88.686 -0.835752 -1.33615 0
M  V30 926 C 89.649 -0.272 -2.2758 0
M  V30 927 C 90.649 0.557487 -1.50827 0
M  V30 928 O 91.839 0.37173 -1.70188 0
M  V30 929 C 88.971 0.617173 -3.35267 0
M  V30 930 H 90.164 -1.10111 -2.78954 0
M  V30 931 H 87.717 -0.608594 -1.43965 0
M  V30 932 H 88.452 1.46884 -2.89129 0
M  V30 933 H 88.237 0.0237066 -3.92093 0
M  V30 934 H 89.727 1.005 -4.05326 0
M  V30 935 N 90.1641 1.46063 -0.591896 0
M  V30 936 C 91.4111 2.02338 -0.0809991 0
M  V30 937 C 91.7391 1.46228 1.28249 0
M  V30 938 O 90.9941 0.620818 1.85592 0
M  V30 939 C 91.2931 3.57391 0.0249813 0
M  V30 940 C 90.9591 4.32583 -1.27211 0
M  V30 941 C 89.6211 4.52844 -1.62745 0
M  V30 942 C 91.9731 4.75687 -2.13005 0
M  V30 943 C 89.3011 5.13462 -2.83855 0
M  V30 944 C 91.6531 5.37644 -3.3335 0
M  V30 945 C 90.3171 5.5613 -3.69155 0
M  V30 946 H 89.5871 0.740407 -0.0296397 0
M  V30 947 H 92.2341 1.75321 -0.770374 0
M  V30 948 H 90.5391 3.83597 0.797537 0
M  V30 949 H 92.2361 3.98621 0.436184 0
M  V30 950 H 88.8261 4.17116 -0.985499 0
M  V30 951 H 93.0101 4.59782 -1.86855 0
M  V30 952 H 88.2661 5.25965 -3.11722 0
M  V30 953 H 92.4401 5.7 -4.00092 0
M  V30 954 H 90.0671 6.0287 -4.63089 0
M  V30 955 N 91.6422 0.330177 1.54103 0
M  V30 956 C 92.6052 -0.520144 2.2322 0
M  V30 957 C 93.6052 -1.03828 1.22786 0
M  V30 958 O 94.7952 -0.929652 1.4732 0
M  V30 959 C 91.9272 -1.72317 2.94142 0
M  V30 960 H 93.1202 0.0841605 2.99782 0
M  V30 961 H 90.6732 0.0813433 1.56088 0
M  V30 962 H 91.4082 -2.36653 2.21734 0
M  V30 963 H 91.1932 -1.35898 3.67796 0
M  V30 964 H 92.6832 -2.3266 3.46784 0
M  V30 965 N 93.1203 -1.57491 0.0584922 0
M  V30 966 C 94.3683 -1.92597 -0.612436 0
M  V30 967 C 94.6893 -0.938162 -1.70949 0
M  V30 968 O 93.9593 0.0158301 -1.95894 0
M  V30 969 H 92.5393 -0.710964 -0.229214 0
M  V30 970 H 95.2013 -1.94571 0.113218 0
M  V30 971 H 94.2973 -2.94038 -1.04633 0
M  V30 972 N 94.5984 0.214957 -1.56127 0
M  V30 973 C 95.8284 0.953707 -1.8327 0
M  V30 974 C 96.2364 1.78181 -0.636262 0
M  V30 975 O 95.5794 1.79191 0.404516 0
M  V30 976 C 95.6414 1.91516 -3.0424 0
M  V30 977 C 95.3054 1.27094 -4.38972 0
M  V30 978 C 96.3024 0.657575 -5.15725 0
M  V30 979 C 93.9874 1.28073 -4.85698 0
M  V30 980 C 95.9814 0.0625968 -6.37369 0
M  V30 981 C 93.6684 0.681914 -6.07283 0
M  V30 982 C 94.6664 0.0739046 -6.8296 0
M  V30 983 O 94.3544 -0.515582 -8.02245 0
M  V30 984 H 94.0864 0.284764 -0.613095 0
M  V30 985 H 96.6404 0.233283 -2.04071 0
M  V30 986 H 94.8704 2.67475 -2.79274 0
M  V30 987 H 96.5594 2.52001 -3.18198 0
M  V30 988 H 97.3254 0.642288 -4.80728 0
M  V30 989 H 93.2044 1.74337 -4.26764 0
M  V30 990 H 96.7484 -0.412593 -6.96379 0
M  V30 991 H 92.6454 0.694636 -6.41752 0
M  V30 992 H 93.4134 -0.410544 -8.1747 0
M  V30 993 N 96.0765 1.50051 0.48192 0
M  V30 994 C 96.9865 1.7089 1.60728 0
M  V30 995 C 98.0025 0.591788 1.63627 0
M  V30 996 O 99.1785 0.868817 1.81696 0
M  V30 997 C 96.2435 1.78855 2.97005 0
M  V30 998 C 95.3045 3.02537 3.04581 0
M  V30 999 C 94.5375 3.10112 4.34357 0
M  V30 1000 O 94.7605 2.24765 5.24249 0
M  V30 1001 O 93.6945 4.02747 4.47301 0
M  V30 1002 H 97.5205 2.66264 1.46072 0
M  V30 1003 H 95.1055 1.34018 0.660264 0
M  V30 1004 H 96.9875 1.86336 3.77964 0
M  V30 1005 H 95.6625 0.866628 3.11883 0
M  V30 1006 H 94.5695 3.00563 2.22739 0
M  V30 1007 H 95.9025 3.94272 2.94636 0
M  V30 1008 N 97.5546 -0.734337 1.39446 0
M  V30 1009 C 98.8006 -1.49613 1.36908 0
M  V30 1010 C 99.1336 -1.94169 -0.0347829 0
M  V30 1011 O 98.4086 -1.66833 -0.999847 0
M  V30 1012 C 98.6916 -2.73534 2.34203 0
M  V30 1013 C 98.5446 -2.34993 3.83534 0
M  V30 1014 C 99.8636 -3.75635 2.29317 0
M  V30 1015 H 96.9826 -0.542714 0.498629 0
M  V30 1016 H 99.6246 -0.839597 1.70443 0
M  V30 1017 H 97.7746 -3.29553 2.05736 0
M  V30 1018 H 99.4466 -1.84601 4.22753 0
M  V30 1019 H 97.6896 -1.67213 4.00278 0
M  V30 1020 H 98.3606 -3.23738 4.47099 0
M  V30 1021 H 100.837 -3.29203 2.54489 0
M  V30 1022 H 99.7126 -4.60008 2.99472 0
M  V30 1023 H 99.9736 -4.22603 1.29842 0
M  V30 1024 N 99.0327 -1.24633 -0.964593 0
M  V30 1025 C 99.9957 -1.0424 -2.04124 0
M  V30 1026 C 100.996 0.00137563 -1.608 0
M  V30 1027 O 102.186 -0.239883 -1.7254 0
M  V30 1028 C 99.3177 -0.580588 -3.3592 0
M  V30 1029 H 100.511 -1.99803 -2.23649 0
M  V30 1030 H 98.0637 -1.06899 -1.14027 0
M  V30 1031 H 98.7987 0.3781 -3.22088 0
M  V30 1032 H 98.5837 -1.33398 -3.6871 0
M  V30 1033 H 100.074 -0.459034 -4.15069 0
M  V30 1034 N 100.511 1.16574 -1.06058 0
M  V30 1035 C 101.788 1.83048 -0.689416 0
M  V30 1036 C 102.168 1.94122 0.829443 0
M  V30 1037 O 101.516 1.48249 1.7388 0
M  V30 1038 C 101.726 3.20186 -1.38859 0
M  V30 1039 C 103.074 3.95989 -1.53226 0
M  V30 1040 O 104.098 3.29696 -1.3483 0
M  V30 1041 O 102.957 5.14813 -1.83384 0
M  V30 1042 H 100.051 0.790258 -0.243764 0
M  V30 1043 H 102.597 1.23797 -1.16071 0
M  V30 1044 H 101.369 3.07146 -2.4244 0
M  V30 1045 H 100.992 3.87112 -0.907216 0
M  V30 1046 N 101.989 0.842826 1.3317 0
M  V30 1047 C 102.952 0.284065 2.27433 0
M  V30 1048 C 103.952 -0.54948 1.5112 0
M  V30 1049 O 105.142 -0.362699 1.70382 0
M  V30 1050 C 102.274 -0.599384 3.35589 0
M  V30 1051 H 103.467 1.11589 2.78366 0
M  V30 1052 H 101.02 0.616221 1.4364 0
M  V30 1053 H 101.755 -1.45349 2.89904 0
M  V30 1054 H 101.54 -0.00291266 3.921 0
M  V30 1055 H 103.03 -0.983488 4.05854 0
M  V30 1056 N 103.467 -1.45747 0.599634 0
M  V30 1057 C 104.43 -2.28917 -0.113835 0
M  V30 1058 C 105.43 -1.3933 -0.802729 0
M  V30 1059 O 106.62 -1.61534 -0.652103 0
M  V30 1060 C 103.752 -3.20152 -1.17114 0
M  V30 1061 H 104.945 -2.93478 0.617289 0
M  V30 1062 H 102.498 -1.52137 0.358327 0
M  V30 1063 H 103.233 -2.60374 -1.93329 0
M  V30 1064 H 103.018 -3.86133 -0.681468 0
M  V30 1065 H 104.508 -3.82708 -1.67105 0
M  V30 1066 N 104.945 -0.338344 -1.53925 0
M  V30 1067 C 106.193 0.259245 -2.0043 0
M  V30 1068 C 106.514 1.51484 -1.22791 0
M  V30 1069 O 105.784 1.93037 -0.33368 0
M  V30 1070 H 104.364 0.0987845 -0.740439 0
M  V30 1071 H 107.026 -0.458302 -1.89435 0
M  V30 1072 H 106.122 0.505334 -3.07982 0
M  V30 1073 N 106.423 1.57458 -0.0668435 0
M  V30 1074 C 107.353 2.15468 0.899764 0
M  V30 1075 C 108.334 1.08042 1.31381 0
M  V30 1076 O 109.519 1.36054 1.38574 0
M  V30 1077 C 106.649 2.71232 2.16911 0
M  V30 1078 C 105.603 3.83781 1.89463 0
M  V30 1079 C 104.929 4.26127 3.22986 0
M  V30 1080 C 106.229 5.08238 1.20381 0
M  V30 1081 H 107.923 2.96488 0.416529 0
M  V30 1082 H 105.469 1.4262 0.198908 0
M  V30 1083 H 107.422 3.10458 2.84945 0
M  V30 1084 H 106.146 1.87426 2.67468 0
M  V30 1085 H 104.805 3.45051 1.23836 0
M  V30 1086 H 104.453 3.39249 3.71374 0
M  V30 1087 H 104.153 5.01993 3.05413 0
M  V30 1088 H 105.677 4.67966 3.92225 0
M  V30 1089 H 107.091 5.44811 1.78475 0
M  V30 1090 H 105.488 5.89349 1.13083 0
M  V30 1091 H 106.558 4.84558 0.182153 0
M  V30 1092 N 107.901 -0.206675 1.56239 0
M  V30 1093 C 108.864 -1.23976 1.92776 0
M  V30 1094 C 109.864 -1.39041 0.807729 0
M  V30 1095 O 111.054 -1.37051 1.0753 0
M  V30 1096 C 108.186 -2.61112 2.19165 0
M  V30 1097 H 109.379 -0.927764 2.85189 0
M  V30 1098 H 106.932 -0.447718 1.4975 0
M  V30 1099 H 107.667 -2.97386 1.29352 0
M  V30 1100 H 107.452 -2.51552 3.00772 0
M  V30 1101 H 108.942 -3.35633 2.48476 0
M  V30 1102 N 109.379 -1.50304 -0.473955 0
M  V30 1103 C 110.311 -1.65109 -1.58971 0
M  V30 1104 C 111.324 -0.532676 -1.53839 0
M  V30 1105 O 112.513 -0.805751 -1.59279 0
M  V30 1106 C 109.613 -1.61684 -2.97845 0
M  V30 1107 C 108.786 -2.8951 -3.27876 0
M  V30 1108 C 107.845 -2.78768 -4.4629 0
M  V30 1109 O 106.871 -3.52722 -4.46739 0
M  V30 1110 N 108.073 -1.9213 -5.47783 0
M  V30 1111 H 110.838 -2.61347 -1.46689 0
M  V30 1112 H 108.399 -1.47732 -0.662324 0
M  V30 1113 H 110.391 -1.52114 -3.75024 0
M  V30 1114 H 108.961 -0.731925 -3.03911 0
M  V30 1115 H 108.181 -3.13228 -2.39336 0
M  V30 1116 H 109.469 -3.74199 -3.4475 0
M  V30 1117 H 108.867 -1.31353 -5.50239 0
M  V30 1118 H 107.424 -1.88466 -6.23958 0
M  V30 1119 N 110.857 0.726932 -1.39834 0
M  V30 1120 C 111.79 1.8501 -1.33592 0
M  V30 1121 C 112.768 1.61262 -0.208191 0
M  V30 1122 O 113.952 1.84422 -0.389981 0
M  V30 1123 C 111.079 3.21143 -1.07633 0
M  V30 1124 C 110.125 3.63737 -2.22705 0
M  V30 1125 S 110.958 3.72167 -3.85035 0
M  V30 1126 C 112.114 5.11077 -3.61318 0
M  V30 1127 H 112.347 1.90022 -2.28646 0
M  V30 1128 H 109.88 0.892595 -1.25985 0
M  V30 1129 H 111.838 3.99747 -0.933415 0
M  V30 1130 H 110.499 3.13776 -0.142526 0
M  V30 1131 H 109.692 4.62551 -2.00155 0
M  V30 1132 H 109.294 2.9236 -2.33242 0
M  V30 1133 H 111.586 5.97656 -3.19083 0
M  V30 1134 H 112.529 5.38658 -4.59623 0
M  V30 1135 H 112.937 4.81135 -2.95245 0
M  V30 1136 N 112.336 1.25143 0.95797 0
M  V30 1137 C 113.299 1.05321 2.03569 0
M  V30 1138 C 114.299 0.007152 1.60798 0
M  V30 1139 O 115.489 0.24903 1.72411 0
M  V30 1140 C 112.621 0.598394 3.35607 0
M  V30 1141 H 113.814 2.00986 2.22586 0
M  V30 1142 H 111.367 1.07502 1.13459 0
M  V30 1143 H 112.102 -0.361014 3.22284 0
M  V30 1144 H 111.887 1.35351 3.67998 0
M  V30 1145 H 113.377 0.48104 4.1482 0
M  V30 1146 N 113.814 -1.1601 1.06675 0
M  V30 1147 C 115.091 -1.82679 0.699114 0
M  V30 1148 C 115.471 -1.94559 -0.819137 0
M  V30 1149 O 114.819 -1.49169 -1.73092 0
M  V30 1150 C 115.029 -3.19445 1.40555 0
M  V30 1151 C 116.377 -3.95171 1.55323 0
M  V30 1152 O 117.401 -3.28976 1.36577 0
M  V30 1153 O 116.26 -5.13833 1.86112 0
M  V30 1154 H 113.354 -0.788954 0.247951 0
M  V30 1155 H 115.9 -1.23179 1.16726 0
M  V30 1156 H 114.672 -3.05856 2.44065 0
M  V30 1157 H 114.295 -3.86625 0.927733 0
M  V30 1158 N 115.292 -0.849877 -1.32721 0
M  V30 1159 C 116.239 -0.289033 -2.28983 0
M  V30 1160 C 117.209 0.601324 -1.54833 0
M  V30 1161 O 118.394 0.537253 -1.8308 0
M  V30 1162 C 115.534 0.520623 -3.4115 0
M  V30 1163 C 114.647 -0.394989 -4.3019 0
M  V30 1164 C 113.782 0.426834 -5.29482 0
M  V30 1165 C 112.821 -0.486476 -6.10164 0
M  V30 1166 N 111.958 0.297879 -7.01468 0
M  V30 1167 H 116.798 -1.11519 -2.76347 0
M  V30 1168 H 114.335 -0.56138 -1.35967 0
M  V30 1169 H 116.293 1.00563 -4.04899 0
M  V30 1170 H 114.923 1.31165 -2.9495 0
M  V30 1171 H 113.975 -0.99836 -3.67065 0
M  V30 1172 H 115.287 -1.09612 -4.86607 0
M  V30 1173 H 114.441 0.975205 -5.98811 0
M  V30 1174 H 113.18 1.16136 -4.73671 0
M  V30 1175 H 112.185 -1.04677 -5.39743 0
M  V30 1176 H 113.41 -1.21953 -6.6806 0
M  V30 1177 H 111.356 1.01558 -6.48091 0
M  V30 1178 H 111.273 -0.344318 -7.55216 0
M  V30 1179 H 112.541 0.828131 -7.75089 0
M  V30 1180 N 116.77 1.45427 -0.607355 0
M  V30 1181 C 117.7 2.3329 0.0989352 0
M  V30 1182 C 118.681 1.46816 0.859007 0
M  V30 1183 O 119.866 1.75588 0.829604 0
M  V30 1184 C 116.996 3.29518 1.09705 0
M  V30 1185 C 115.95 4.25626 0.450206 0
M  V30 1186 C 115.276 5.11542 1.55655 0
M  V30 1187 C 116.576 5.18505 -0.628455 0
M  V30 1188 H 118.27 2.92595 -0.634716 0
M  V30 1189 H 115.816 1.40696 -0.306681 0
M  V30 1190 H 117.769 3.89855 1.59971 0
M  V30 1191 H 116.493 2.68372 1.86129 0
M  V30 1192 H 115.152 3.66586 -0.0315886 0
M  V30 1193 H 114.8 4.46765 2.31107 0
M  V30 1194 H 114.5 5.76647 1.12925 0
M  V30 1195 H 116.024 5.74748 2.06148 0
M  V30 1196 H 117.438 5.72916 -0.209877 0
M  V30 1197 H 115.835 5.92085 -0.977489 0
M  V30 1198 H 116.905 4.60948 -1.50514 0
M  V30 1199 N 118.248 0.346503 1.53744 0
M  V30 1200 C 119.195 -0.508914 2.25119 0
M  V30 1201 C 120.165 -1.09315 1.25058 0
M  V30 1202 O 121.35 -1.12921 1.53797 0
M  V30 1203 C 118.49 -1.65246 3.02965 0
M  V30 1204 C 117.603 -1.09525 4.17886 0
M  V30 1205 C 116.738 -2.20634 4.83212 0
M  V30 1206 C 115.777 -1.62279 5.90196 0
M  V30 1207 N 114.914 -2.67143 6.49291 0
M  V30 1208 H 119.754 0.106283 2.9781 0
M  V30 1209 H 117.291 0.0642227 1.4696 0
M  V30 1210 H 119.249 -2.32574 3.4636 0
M  V30 1211 H 117.879 -2.2386 2.32565 0
M  V30 1212 H 116.931 -0.312818 3.79112 0
M  V30 1213 H 118.243 -0.628444 4.94825 0
M  V30 1214 H 117.397 -2.95821 5.29693 0
M  V30 1215 H 116.136 -2.70659 4.05703 0
M  V30 1216 H 115.141 -0.855989 5.43096 0
M  V30 1217 H 116.366 -1.13102 6.69615 0
M  V30 1218 H 114.312 -3.16417 5.74645 0
M  V30 1219 H 114.229 -2.25093 7.21713 0
M  V30 1220 H 115.497 -3.4209 7.00425 0
M  V30 1221 N 119.726 -1.57421 0.075193 0
M  V30 1222 C 120.658 -2.09904 -0.920483 0
M  V30 1223 C 121.671 -1.03191 -1.25918 0
M  V30 1224 O 122.86 -1.30695 -1.21577 0
M  V30 1225 C 119.96 -2.54726 -2.23534 0
M  V30 1226 C 119.133 -3.8505 -2.07498 0
M  V30 1227 C 118.192 -4.15929 -3.22319 0
M  V30 1228 O 117.218 -4.85474 -2.9716 0
M  V30 1229 N 118.42 -3.69745 -4.47514 0
M  V30 1230 H 121.185 -2.95954 -0.472359 0
M  V30 1231 H 118.746 -1.61523 -0.110444 0
M  V30 1232 H 120.738 -2.72443 -2.9926 0
M  V30 1233 H 119.308 -1.73795 -2.59835 0
M  V30 1234 H 118.528 -3.76679 -1.16219 0
M  V30 1235 H 119.816 -4.70348 -1.94038 0
M  V30 1236 H 119.214 -3.13569 -4.7084 0
M  V30 1237 H 117.771 -3.92655 -5.20255 0
M  V30 1238 N 121.204 0.198386 -1.56346 0
M  V30 1239 C 122.167 1.22952 -1.93431 0
M  V30 1240 C 123.167 1.38611 -0.815092 0
M  V30 1241 O 124.357 1.36479 -1.08255 0
M  V30 1242 C 121.489 2.59946 -2.20546 0
M  V30 1243 H 122.682 0.912626 -2.85677 0
M  V30 1244 H 120.235 0.43977 -1.49986 0
M  V30 1245 H 120.97 2.96696 -1.30927 0
M  V30 1246 H 120.755 2.49953 -3.02102 0
M  V30 1247 H 122.245 3.3431 -2.50253 0
M  V30 1248 N 122.682 1.50554 0.465978 0
M  V30 1249 C 123.93 1.61479 1.21528 0
M  V30 1250 C 124.251 0.319596 1.92363 0
M  V30 1251 O 123.521 -0.663194 1.84333 0
M  V30 1252 H 122.101 0.595055 0.451573 0
M  V30 1253 H 124.763 1.87355 0.53704 0
M  V30 1254 H 123.859 2.42846 1.96042 0
M  V30 1255 N 124.16 -0.719506 1.40217 0
M  V30 1256 C 125.409 -1.47486 1.37589 0
M  V30 1257 C 125.722 -1.9559 -0.0201568 0
M  V30 1258 O 126.928 -2.70973 -0.169049 0
M  V30 1259 C 125.384 -2.66575 2.41796 0
M  V30 1260 C 124.992 -2.25358 3.87192 0
M  V30 1261 C 126.736 -3.4433 2.48269 0
M  V30 1262 C 124.643 -3.41262 4.83005 0
M  V30 1263 H 123.573 -0.553901 0.511576 0
M  V30 1264 H 126.224 -0.783427 1.65936 0
M  V30 1265 H 124.606 -3.3787 2.06543 0
M  V30 1266 H 125.78 -1.61509 4.31569 0
M  V30 1267 H 124.095 -1.60657 3.84159 0
M  V30 1268 H 126.692 -4.30569 3.17041 0
M  V30 1269 H 127.035 -3.87872 1.51198 0
M  V30 1270 H 127.568 -2.80076 2.82493 0
M  V30 1271 H 124.307 -3.02755 5.81394 0
M  V30 1272 H 123.827 -4.0404 4.43297 0
M  V30 1273 H 125.506 -4.07383 5.02641 0
M  V30 1274 N 125.638 -1.25649 -0.95132 0
M  V30 1275 C 126.601 -1.06399 -2.03007 0
M  V30 1276 C 127.601 -0.0156794 -1.60792 0
M  V30 1277 O 128.791 -0.25817 -1.72276 0
M  V30 1278 C 125.923 -0.616184 -3.35285 0
M  V30 1279 H 127.116 -2.02164 -2.21517 0
M  V30 1280 H 124.669 -1.08103 -1.12887 0
M  V30 1281 H 125.404 0.343917 -3.22471 0
M  V30 1282 H 125.189 -1.37301 -3.67275 0
M  V30 1283 H 126.679 -0.503032 -4.14559 0
M  V30 1284 N 127.117 1.15442 -1.07289 0
M  V30 1285 C 128.363 1.86489 -0.796846 0
M  V30 1286 C 128.696 1.82078 0.675371 0
M  V30 1287 O 127.971 1.24346 1.4956 0
M  V30 1288 C 128.254 3.35626 -1.30489 0
M  V30 1289 C 128.107 3.48673 -2.84161 0
M  V30 1290 C 129.426 4.30357 -0.920907 0
M  V30 1291 H 126.545 0.677144 -0.290939 0
M  V30 1292 H 129.187 1.35633 -1.33056 0
M  V30 1293 H 127.337 3.79068 -0.850883 0
M  V30 1294 H 129.009 3.14099 -3.37846 0
M  V30 1295 H 127.252 2.90253 -3.22391 0
M  V30 1296 H 127.923 4.53453 -3.14777 0
M  V30 1297 H 130.399 3.94871 -1.3121 0
M  V30 1298 H 129.275 5.33193 -1.30372 0
M  V30 1299 H 129.536 4.4176 0.173226 0
M  V30 1300 N 128.595 0.856903 1.32268 0
M  V30 1301 C 129.823 0.475439 2.01363 0
M  V30 1302 C 130.238 -0.928486 1.64392 0
M  V30 1303 O 129.595 -1.60624 0.866387 0
M  V30 1304 C 129.646 0.607545 3.56358 0
M  V30 1305 O 129.367 1.95617 3.92002 0
M  V30 1306 C 130.868 0.225382 4.42727 0
M  V30 1307 H 128.088 0.186636 0.644521 0
M  V30 1308 H 130.632 1.15446 1.68797 0
M  V30 1309 H 128.787 -0.0237719 3.87393 0
M  V30 1310 H 129.201 1.95455 4.86721 0
M  V30 1311 H 130.675 0.368813 5.50767 0
M  V30 1312 H 131.152 -0.834369 4.31202 0
M  V30 1313 H 131.758 0.831864 4.17085 0
M  V30 1314 N 130.073 -1.45103 0.615059 0
M  V30 1315 C 131.301 -2.06553 0.11977 0
M  V30 1316 C 131.716 -1.45842 -1.19898 0
M  V30 1317 O 131.073 -0.575325 -1.73194 0
M  V30 1318 C 131.124 -3.61495 -0.018364 0
M  V30 1319 O 130.845 -4.19942 1.24822 0
M  V30 1320 C 132.346 -4.39947 -0.544237 0
M  V30 1321 H 129.566 -0.667096 0.0722739 0
M  V30 1322 H 132.11 -1.8623 0.84491 0
M  V30 1323 H 130.265 -3.81135 -0.693865 0
M  V30 1324 H 130.679 -5.13204 1.0827 0
M  V30 1325 H 132.153 -5.48838 -0.589953 0
M  V30 1326 H 132.63 -4.10255 -1.56805 0
M  V30 1327 H 133.236 -4.25188 0.0974703 0
M  V30 1328 N 131.551 -0.354651 -1.53558 0
M  V30 1329 C 132.799 0.237972 -2.00694 0
M  V30 1330 C 133.12 1.50173 -1.24391 0
M  V30 1331 O 132.39 1.92673 -0.354135 0
M  V30 1332 H 130.97 0.0909256 -0.741446 0
M  V30 1333 H 133.632 -0.478368 -1.88938 0
M  V30 1334 H 132.728 0.47264 -3.085 0
M  V30 1335 N 133.029 1.57378 -0.0835403 0
M  V30 1336 C 134.306 1.85363 0.624507 0
M  V30 1337 C 134.686 0.978239 1.87066 0
M  V30 1338 O 134.034 0.0475908 2.2845 0
M  V30 1339 C 134.244 3.35795 0.950947 0
M  V30 1340 C 135.592 4.03581 1.31939 0
M  V30 1341 O 136.616 3.40609 1.04232 0
M  V30 1342 O 135.475 5.14672 1.83779 0
M  V30 1343 H 132.569 0.766162 0.311329 0
M  V30 1344 H 135.115 1.69307 -0.115362 0
M  V30 1345 H 133.887 3.91244 0.0663899 0
M  V30 1346 H 133.51 3.57154 1.74719 0
M  V30 1347 N 134.507 -0.190092 1.56449 0
M  V30 1348 C 135.47 -1.21925 1.9408 0
M  V30 1349 C 136.47 -1.38176 0.822431 0
M  V30 1350 O 137.66 -1.35903 1.08977 0
M  V30 1351 C 134.792 -2.58773 2.21922 0
M  V30 1352 H 135.985 -0.897464 2.86157 0
M  V30 1353 H 133.538 -0.43181 1.50217 0
M  V30 1354 H 134.273 -2.95998 1.32499 0
M  V30 1355 H 134.058 -2.48348 3.03424 0
M  V30 1356 H 135.548 -3.32978 2.52022 0
M  V30 1357 N 135.985 -1.50799 -0.457987 0
M  V30 1358 C 137.21 -1.66496 -1.23668 0
M  V30 1359 C 137.635 -0.353288 -1.84752 0
M  V30 1360 O 136.993 0.684346 -1.67888 0
M  V30 1361 C 137.041 -2.76763 -2.3116 0
M  V30 1362 O 136.145 -2.38928 -3.36136 0
M  V30 1363 H 135.486 -0.555828 -0.363252 0
M  V30 1364 H 138.016 -1.9725 -0.543474 0
M  V30 1365 H 138.026 -3.00232 -2.76269 0
M  V30 1366 H 136.701 -3.71954 -1.86073 0
M  V30 1367 H 135.278 -2.25953 -2.96647 0
M  V30 1368 N 137.463 0.71206 -1.40597 0
M  V30 1369 C 138.393 1.83889 -1.43899 0
M  V30 1370 C 139.374 1.67442 -0.299504 0
M  V30 1371 O 140.559 1.87421 -0.508624 0
M  V30 1372 C 137.689 3.21877 -1.30431 0
M  V30 1373 C 136.643 3.53002 -2.42019 0
M  V30 1374 C 135.969 4.90172 -2.13626 0
M  V30 1375 C 137.269 3.53643 -3.84362 0
M  V30 1376 H 138.963 1.81383 -2.38203 0
M  V30 1377 H 136.509 0.871237 -1.14654 0
M  V30 1378 H 138.462 4.00404 -1.31357 0
M  V30 1379 H 137.186 3.24968 -0.326049 0
M  V30 1380 H 135.845 2.76818 -2.40349 0
M  V30 1381 H 135.493 4.89869 -1.14182 0
M  V30 1382 H 135.193 5.11962 -2.88389 0
M  V30 1383 H 136.717 5.71028 -2.1624 0
M  V30 1384 H 138.131 4.22203 -3.87837 0
M  V30 1385 H 136.528 3.86961 -4.58673 0
M  V30 1386 H 137.598 2.52954 -4.13693 0
M  V30 1387 N 138.941 1.26152 0.944643 0
M  V30 1388 C 139.904 1.07474 2.0244 0
M  V30 1389 C 140.904 0.0242064 1.60782 0
M  V30 1390 O 142.094 0.267302 1.72137 0
M  V30 1391 C 139.226 0.633956 3.34953 0
M  V30 1392 H 140.419 2.03336 2.20442 0
M  V30 1393 H 137.972 1.087 1.12312 0
M  V30 1394 H 138.707 -0.326811 3.22649 0
M  V30 1395 H 138.492 1.39247 3.66542 0
M  V30 1396 H 139.982 0.52501 4.14287 0
M  V30 1397 N 140.419 -1.14872 1.07899 0
M  V30 1398 C 141.835 -1.37776 0.805606 0
M  V30 1399 C 142.035 -1.92743 -0.587555 0
M  V30 1400 O 141.091 -2.13678 -1.34528 0
M  V30 1401 C 142.404 -2.34361 1.88402 0
M  V30 1402 C 143.952 -2.48012 1.90942 0
M  V30 1403 C 144.427 -3.47893 2.97883 0
M  V30 1404 N 145.918 -3.55433 2.97021 0
M  V30 1405 C 146.653 -4.32553 3.76412 0
M  V30 1406 N 146.149 -5.12959 4.65666 0
M  V30 1407 N 147.942 -4.27697 3.64735 0
M  V30 1408 H 140.093 -0.775365 1.97742 0
M  V30 1409 H 142.356 -0.403521 0.857831 0
M  V30 1410 H 142.062 -2.01098 2.88535 0
M  V30 1411 H 141.936 -3.34206 1.74889 0
M  V30 1412 H 144.323 -2.8057 0.914579 0
M  V30 1413 H 144.404 -1.48147 2.08534 0
M  V30 1414 H 144.048 -3.16069 3.97571 0
M  V30 1415 H 143.978 -4.47527 2.77538 0
M  V30 1416 H 146.469 -2.98048 2.32326 0
M  V30 1417 H 146.782 -5.69065 5.22862 0
M  V30 1418 H 145.127 -5.12245 4.69712 0
M  V30 1419 H 148.318 -3.63949 2.94378 0
M  V30 1420 H 148.491 -4.8755 4.26848 0
M  V30 1421 N 141.898 -0.863906 -1.31812 0
M  V30 1422 C 143.314 -0.555004 -1.49639 0
M  V30 1423 C 143.514 0.912266 -1.79666 0
M  V30 1424 O 142.57 1.69479 -1.87171 0
M  V30 1425 C 143.883 -1.44998 -2.63431 0
M  V30 1426 C 145.431 -1.45138 -2.77316 0
M  V30 1427 C 145.906 -2.33179 -3.94197 0
M  V30 1428 N 147.397 -2.31025 -4.01474 0
M  V30 1429 C 148.132 -2.95871 -4.9117 0
M  V30 1430 N 147.628 -3.69863 -5.8581 0
M  V30 1431 N 149.421 -2.85211 -4.84367 0
M  V30 1432 H 141.572 -1.81339 -1.10589 0
M  V30 1433 H 143.835 -0.77505 -0.545895 0
M  V30 1434 H 143.541 -2.49377 -2.48 0
M  V30 1435 H 143.415 -1.14409 -3.59431 0
M  V30 1436 H 145.802 -0.415201 -2.92164 0
M  V30 1437 H 145.883 -1.79747 -1.82001 0
M  V30 1438 H 145.527 -3.3687 -3.80107 0
M  V30 1439 H 145.457 -1.95897 -4.88807 0
M  V30 1440 H 147.948 -1.77238 -3.33759 0
M  V30 1441 H 148.261 -4.16486 -6.50968 0
M  V30 1442 H 146.606 -3.73971 -5.85808 0
M  V30 1443 H 149.797 -2.26948 -4.09405 0
M  V30 1444 H 149.97 -3.36027 -5.54066 0
M  V30 1445 N 143.376 1.44774 -0.622745 0
M  V30 1446 C 144.792 1.56986 -0.287652 0
M  V30 1447 C 144.992 1.61167 1.20944 0
M  V30 1448 O 144.048 1.55015 1.99315 0
M  V30 1449 C 145.361 2.84551 -0.972188 0
M  V30 1450 C 146.909 2.9825 -0.949536 0
M  V30 1451 C 147.384 4.28605 -1.61437 0
M  V30 1452 N 148.875 4.35399 -1.58057 0
M  V30 1453 C 149.61 5.34964 -2.064 0
M  V30 1454 N 149.106 6.40981 -2.62897 0
M  V30 1455 N 150.899 5.26419 -1.97078 0
M  V30 1456 H 143.05 1.40304 -1.59463 0
M  V30 1457 H 145.313 0.671794 -0.668878 0
M  V30 1458 H 145.019 2.87417 -2.02693 0
M  V30 1459 H 144.893 3.73807 -0.504771 0
M  V30 1460 H 147.28 2.94941 0.0967067 0
M  V30 1461 H 147.361 2.10364 -1.45536 0
M  V30 1462 H 147.005 4.32672 -2.66002 0
M  V30 1463 H 146.935 5.15334 -1.08344 0
M  V30 1464 H 149.426 3.59397 -1.16801 0
M  V30 1465 H 149.739 7.13225 -2.97539 0
M  V30 1466 H 148.084 6.4169 -2.66943 0
M  V30 1467 H 151.275 4.42504 -1.52669 0
M  V30 1468 H 151.448 6.03861 -2.35066 0
M  V30 1469 N 144.854 0.36279 1.53368 0
M  V30 1470 C 146.102 -0.227326 2.00817 0
M  V30 1471 C 146.423 -1.49511 1.25186 0
M  V30 1472 O 145.693 -1.92482 0.364348 0
M  V30 1473 H 144.273 -0.0869923 0.741917 0
M  V30 1474 H 146.935 0.488381 1.88682 0
M  V30 1475 H 146.031 -0.456273 3.08747 0
M  V30 1476 N 146.332 -1.57332 0.0918853 0
M  V30 1477 C 147.578 -1.94524 -0.573425 0
M  V30 1478 C 147.911 -0.973578 -1.68033 0
M  V30 1479 O 147.186 -0.00609226 -1.94499 0
M  V30 1480 C 147.469 -3.41858 -1.13161 0
M  V30 1481 C 147.322 -4.4979 -0.0299747 0
M  V30 1482 C 148.641 -3.90435 -2.03098 0
M  V30 1483 H 145.76 -0.70734 -0.206975 0
M  V30 1484 H 148.402 -1.89309 0.161942 0
M  V30 1485 H 146.552 -3.46433 -1.7583 0
M  V30 1486 H 148.224 -4.57327 0.604112 0
M  V30 1487 H 146.467 -4.291 0.636833 0
M  V30 1488 H 147.138 -5.50069 -0.461287 0
M  V30 1489 H 149.614 -3.87992 -1.50338 0
M  V30 1490 H 148.49 -4.94097 -2.39081 0
M  V30 1491 H 148.751 -3.29541 -2.94712 0
M  V30 1492 N 147.81 0.181792 -1.56548 0
M  V30 1493 C 149.038 0.915947 -1.85521 0
M  V30 1494 C 149.453 1.76282 -0.676016 0
M  V30 1495 O 148.81 1.79012 0.355077 0
M  V30 1496 C 148.861 1.80126 -3.13427 0
M  V30 1497 O 148.582 0.988562 -4.26801 0
M  V30 1498 C 150.083 2.64597 -3.55673 0
M  V30 1499 H 147.303 0.26661 -0.61576 0
M  V30 1500 H 149.847 0.185039 -2.03661 0
M  V30 1501 H 148.002 2.48563 -2.97145 0
M  V30 1502 H 148.416 1.59308 -4.99721 0
M  V30 1503 H 149.89 3.2235 -4.48101 0
M  V30 1504 H 150.367 3.38958 -2.79292 0
M  V30 1505 H 150.973 2.0151 -3.74532 0
M  V30 1506 N 149.288 1.51039 0.449983 0
M  V30 1507 C 150.536 1.62759 1.19808 0
M  V30 1508 C 150.857 0.339981 1.92013 0
M  V30 1509 O 150.127 -0.643606 1.85026 0
M  V30 1510 H 148.707 0.599811 0.445237 0
M  V30 1511 H 151.369 1.87914 0.517138 0
M  V30 1512 H 150.465 2.44911 1.93455 0
M  V30 1513 N 150.766 -0.704594 1.40972 0
M  V30 1514 C 151.696 -1.83124 1.44872 0
M  V30 1515 C 152.677 -1.67281 0.30838 0
M  V30 1516 O 153.862 -1.87149 0.518556 0
M  V30 1517 C 150.992 -3.21181 1.32136 0
M  V30 1518 C 149.946 -3.51714 2.43888 0
M  V30 1519 C 149.272 -4.89032 2.16222 0
M  V30 1520 C 150.572 -3.516 3.86232 0
M  V30 1521 H 152.266 -1.80117 2.39161 0
M  V30 1522 H 149.812 -0.865145 1.15114 0
M  V30 1523 H 151.765 -3.99702 1.33479 0
M  V30 1524 H 150.489 -3.24791 0.343279 0
M  V30 1525 H 149.148 -2.75539 2.41813 0
M  V30 1526 H 148.796 -4.89256 1.16778 0
M  V30 1527 H 148.496 -5.10426 2.911 0
M  V30 1528 H 150.02 -5.69873 2.19265 0
M  V30 1529 H 151.434 -4.2014 3.9007 0
M  V30 1530 H 149.831 -3.84523 4.60719 0
M  V30 1531 H 150.901 -2.50757 4.15029 0
M  V30 1532 N 152.244 -1.26651 -0.937939 0
M  V30 1533 C 153.493 -1.11775 -1.67897 0
M  V30 1534 C 153.806 0.33794 -1.92659 0
M  V30 1535 O 155.012 0.607434 -2.64618 0
M  V30 1536 C 153.468 -1.9523 -3.02346 0
M  V30 1537 C 153.076 -3.45393 -2.8532 0
M  V30 1538 C 154.82 -1.88972 -3.80118 0
M  V30 1539 C 152.727 -4.21083 -4.15263 0
M  V30 1540 H 151.657 -0.414696 -0.629717 0
M  V30 1541 H 154.308 -1.50988 -1.04283 0
M  V30 1542 H 152.69 -1.48853 -3.66959 0
M  V30 1543 H 153.864 -3.99561 -2.29537 0
M  V30 1544 H 152.179 -3.52921 -2.20988 0
M  V30 1545 H 154.776 -2.42805 -4.76392 0
M  V30 1546 H 155.119 -0.86113 -4.07296 0
M  V30 1547 H 155.652 -2.33189 -3.22285 0
M  V30 1548 H 152.391 -5.24425 -3.93267 0
M  V30 1549 H 151.911 -3.71695 -4.70747 0
M  V30 1550 H 153.59 -4.29706 -4.83696 0
M  V30 1551 N 153.722 1.14298 -1.08507 0
M  V30 1552 C 154.95 1.89219 -0.836876 0
M  V30 1553 C 155.365 1.78638 0.611054 0
M  V30 1554 O 154.722 1.14643 1.41998 0
M  V30 1555 C 154.773 3.39158 -1.25116 0
M  V30 1556 O 154.494 3.49449 -2.64229 0
M  V30 1557 C 155.995 4.31073 -1.03398 0
M  V30 1558 H 153.215 0.599328 -0.301739 0
M  V30 1559 H 155.759 1.44746 -1.44461 0
M  V30 1560 H 153.914 3.81251 -0.687514 0
M  V30 1561 H 154.328 4.42589 -2.81452 0
M  V30 1562 H 155.802 5.34646 -1.37323 0
M  V30 1563 H 156.279 4.3919 0.0289259 0
M  V30 1564 H 156.885 3.94738 -1.58311 0
M  V30 1565 N 155.201 0.870884 1.31352 0
M  V30 1566 C 156.448 0.482273 1.96673 0
M  V30 1567 C 156.776 -0.965638 1.68836 0
M  V30 1568 O 156.031 -1.69514 0.977937 0
M  V30 1569 C 156.33 0.687157 3.50732 0
M  V30 1570 C 155.996 2.108 3.9859 0
M  V30 1571 C 154.658 2.49656 4.1137 0
M  V30 1572 C 157.01 3.03459 4.23748 0
M  V30 1573 C 154.338 3.80412 4.46659 0
M  V30 1574 C 156.69 4.3373 4.60501 0
M  V30 1575 C 155.354 4.725 4.71487 0
M  V30 1576 H 154.624 0.176476 0.719679 0
M  V30 1577 H 157.271 1.10405 1.56471 0
M  V30 1578 H 155.576 -0.0177476 3.91796 0
M  V30 1579 H 157.273 0.366284 3.99324 0
M  V30 1580 H 153.863 1.79633 3.8914 0
M  V30 1581 H 158.047 2.74665 4.13368 0
M  V30 1582 H 153.303 4.1021 4.53362 0
M  V30 1583 H 157.477 5.05578 4.78919 0
M  V30 1584 H 155.104 5.73859 4.98588 0
M  V30 1585 N 156.679 -1.44442 0.630414 0
M  V30 1586 C 157.642 -2.29107 -0.0652523 0
M  V30 1587 C 158.642 -1.41002 -0.772995 0
M  V30 1588 O 159.832 -1.62881 -0.617692 0
M  V30 1589 C 156.964 -3.22564 -1.10296 0
M  V30 1590 H 158.157 -2.92103 0.679401 0
M  V30 1591 H 155.71 -1.51343 0.390517 0
M  V30 1592 H 156.445 -2.64416 -1.87762 0
M  V30 1593 H 156.23 -3.87491 -0.59941 0
M  V30 1594 H 157.72 -3.86167 -1.5895 0
M  V30 1595 N 158.157 -0.370918 -1.53173 0
M  V30 1596 C 159.434 0.273754 -1.93675 0
M  V30 1597 C 159.814 1.65938 -1.3049 0
M  V30 1598 O 159.162 2.23698 -0.465999 0
M  V30 1599 C 159.372 0.318602 -3.47543 0
M  V30 1600 C 160.72 0.556392 -4.20939 0
M  V30 1601 O 161.744 0.399587 -3.53952 0
M  V30 1602 O 160.603 0.862133 -5.39657 0
M  V30 1603 H 157.697 0.165448 -0.810281 0
M  V30 1604 H 160.243 -0.42409 -1.64315 0
M  V30 1605 H 159.015 -0.652687 -3.85818 0
M  V30 1606 H 158.638 1.06212 -3.83151 0
M  V30 1607 N 159.635 1.57281 -0.100228 0
M  V30 1608 C 161.046 1.81725 0.428107 0
M  V30 1609 C 161.397 1.01619 1.67833 0
M  V30 1610 O 160.522 0.247098 2.14985 0
M  V30 1611 C 161.117 3.29617 0.78347 0
M  V30 1612 C 159.676 3.54808 1.25653 0
M  V30 1613 C 158.823 2.76118 0.255752 0
M  V30 1614 H 161.774 1.55324 -0.325608 0
M  V30 1615 H 161.795 3.4322 1.64256 0
M  V30 1616 H 161.307 3.87893 -0.12665 0
M  V30 1617 H 159.408 3.01868 2.18418 0
M  V30 1618 H 159.521 4.63443 1.21482 0
M  V30 1619 H 157.885 2.43745 0.738956 0
M  V30 1620 H 158.668 3.37145 -0.647136 0
M  V30 1621 N 161.113 -0.173488 1.56642 0
M  V30 1622 C 162.36 -0.890465 1.81871 0
M  V30 1623 C 162.688 -1.82339 0.67696 0
M  V30 1624 O 161.943 -1.92795 -0.335926 0
M  V30 1625 C 162.242 -1.72069 3.13252 0
M  V30 1626 C 161.908 -0.936878 4.41059 0
M  V30 1627 C 160.57 -0.720545 4.75775 0
M  V30 1628 C 162.922 -0.386919 5.19762 0
M  V30 1629 C 160.25 0.0568829 5.86672 0
M  V30 1630 C 162.602 0.37741 6.31473 0
M  V30 1631 C 161.266 0.604563 6.64757 0
M  V30 1632 H 160.536 -0.325844 0.665512 0
M  V30 1633 H 163.183 -0.155527 1.90867 0
M  V30 1634 H 161.488 -2.52496 2.99588 0
M  V30 1635 H 163.185 -2.27844 3.29982 0
M  V30 1636 H 159.775 -1.11553 4.13828 0
M  V30 1637 H 163.959 -0.541398 4.93338 0
M  V30 1638 H 159.215 0.242635 6.10918 0
M  V30 1639 H 163.389 0.810825 6.91664 0
M  V30 1640 H 161.016 1.20885 7.50527 0
M  V30 1641 N 162.591 -1.51276 -0.441967 0
M  V30 1642 C 163.839 -1.63392 -1.18943 0
M  V30 1643 C 164.16 -0.350159 -1.9183 0
M  V30 1644 O 163.43 0.633784 -1.85364 0
M  V30 1645 H 162.01 -0.602164 -0.442049 0
M  V30 1646 H 164.672 -1.88186 -0.507165 0
M  V30 1647 H 163.768 -2.45934 -1.92154 0
M  V30 1648 N 164.069 0.697108 -1.41344 0
M  V30 1649 C 164.999 1.82353 -1.45841 0
M  V30 1650 C 165.98 1.67115 -0.317247 0
M  V30 1651 O 167.165 1.86871 -0.528474 0
M  V30 1652 C 164.295 3.20476 -1.33838 0
M  V30 1653 C 163.249 3.50415 -2.4575 0
M  V30 1654 C 162.575 4.87878 -2.18813 0
M  V30 1655 C 163.875 3.49546 -3.88091 0
M  V30 1656 H 165.569 1.78846 -2.40113 0
M  V30 1657 H 163.115 0.859028 -1.15571 0
M  V30 1658 H 165.068 3.98988 -1.35596 0
M  V30 1659 H 163.792 3.24604 -0.360498 0
M  V30 1660 H 162.451 2.74253 -2.43271 0
M  V30 1661 H 162.099 4.8863 -1.19371 0
M  V30 1662 H 161.799 5.08875 -2.93803 0
M  V30 1663 H 163.323 5.68702 -2.22284 0
M  V30 1664 H 164.737 4.18066 -3.92293 0
M  V30 1665 H 163.134 3.82075 -4.62751 0
M  V30 1666 H 164.204 2.48552 -4.16353 0
M  V30 1667 N 165.547 1.27147 0.931209 0
M  V30 1668 C 166.958 1.12044 1.49342 0
M  V30 1669 C 167.309 -0.295795 1.93957 0
M  V30 1670 O 166.434 -1.18835 1.80852 0
M  V30 1671 C 167.029 2.02781 2.71414 0
M  V30 1672 C 165.588 1.91794 3.2387 0
M  V30 1673 C 164.735 1.95543 1.96617 0
M  V30 1674 H 167.686 1.40091 0.745672 0
M  V30 1675 H 167.707 1.58156 3.46074 0
M  V30 1676 H 167.219 3.05848 2.38911 0
M  V30 1677 H 165.32 0.916992 3.6114 0
M  V30 1678 H 165.433 2.77852 3.90302 0
M  V30 1679 H 163.797 1.39722 2.12955 0
M  V30 1680 H 164.58 3.00259 1.66432 0
M  V30 1681 N 167.025 -1.13721 1.09112 0
M  V30 1682 C 167.955 -2.21148 0.749385 0
M  V30 1683 C 168.936 -1.6792 -0.271475 0
M  V30 1684 O 170.121 -1.93693 -0.140251 0
M  V30 1685 C 167.251 -3.46905 0.165659 0
M  V30 1686 C 166.205 -4.13203 1.11567 0
M  V30 1687 C 165.531 -5.33248 0.393809 0
M  V30 1688 C 166.831 -4.60912 2.45678 0
M  V30 1689 H 168.525 -2.4999 1.64758 0
M  V30 1690 H 166.071 -1.20156 0.793626 0
M  V30 1691 H 168.024 -4.21313 -0.085466 0
M  V30 1692 H 166.748 -3.17449 -0.767714 0
M  V30 1693 H 165.407 -3.40758 1.35202 0
M  V30 1694 H 165.055 -5.00054 -0.543599 0
M  V30 1695 H 164.755 -5.78552 1.02721 0
M  V30 1696 H 166.279 -6.10413 0.150908 0
M  V30 1697 H 167.693 -5.26759 2.26269 0
M  V30 1698 H 166.09 -5.16944 3.04776 0
M  V30 1699 H 167.16 -3.75603 3.06677 0
M  V30 1700 N 168.503 -0.877838 -1.30888 0
M  V30 1701 C 169.413 -0.343096 -2.32078 0
M  V30 1702 C 170.429 0.551022 -1.65045 0
M  V30 1703 O 171.605 0.445854 -1.96403 0
M  V30 1704 C 168.67 0.439905 -3.43898 0
M  V30 1705 C 167.731 -0.483111 -4.26573 0
M  V30 1706 C 166.964 0.262616 -5.33053 0
M  V30 1707 O 167.187 1.48967 -5.50604 0
M  V30 1708 O 166.121 -0.383593 -6.00676 0
M  V30 1709 H 169.947 -1.18203 -2.79753 0
M  V30 1710 H 167.532 -0.64145 -1.34929 0
M  V30 1711 H 169.414 0.883504 -4.12034 0
M  V30 1712 H 168.089 1.25526 -2.98371 0
M  V30 1713 H 166.996 -0.975374 -3.61161 0
M  V30 1714 H 168.329 -1.26427 -4.75686 0
M  V30 1715 N 169.982 1.44106 -0.638065 0
M  V30 1716 C 171.231 2.01194 -0.142744 0
M  V30 1717 C 171.544 1.50835 1.24532 0
M  V30 1718 O 172.75 2.00096 1.83504 0
M  V30 1719 C 171.206 3.59319 -0.20442 0
M  V30 1720 C 170.814 4.18674 -1.59423 0
M  V30 1721 C 172.558 4.23854 0.234079 0
M  V30 1722 C 170.465 5.69045 -1.61065 0
M  V30 1723 H 169.395 0.752367 -0.0495998 0
M  V30 1724 H 172.046 1.65246 -0.797881 0
M  V30 1725 H 170.428 3.92598 0.517946 0
M  V30 1726 H 171.602 3.96921 -2.34074 0
M  V30 1727 H 169.917 3.66453 -1.97741 0
M  V30 1728 H 172.514 5.34155 0.241443 0
M  V30 1729 H 172.857 3.96688 1.2627 0
M  V30 1730 H 173.39 3.95403 -0.436025 0
M  V30 1731 H 170.129 6.00956 -2.61787 0
M  V30 1732 H 169.649 5.929 -0.90718 0
M  V30 1733 H 171.328 6.32809 -1.34766 0
M  V30 1734 N 171.46 0.379036 1.52974 0
M  V30 1735 C 172.69 -0.20649 2.05566 0
M  V30 1736 C 173.098 -1.41906 1.25137 0
M  V30 1737 O 172.441 -1.81421 0.288464 0
M  V30 1738 C 172.503 -0.651086 3.53555 0
M  V30 1739 C 172.167 0.446626 4.54812 0
M  V30 1740 C 173.164 1.30079 5.03364 0
M  V30 1741 C 170.849 0.610719 4.98573 0
M  V30 1742 C 172.843 2.30426 5.94292 0
M  V30 1743 C 170.53 1.61754 5.89304 0
M  V30 1744 C 171.528 2.46274 6.37054 0
M  V30 1745 O 171.216 3.45237 7.25994 0
M  V30 1746 H 170.948 -0.0372381 0.674974 0
M  V30 1747 H 173.502 0.539718 1.98182 0
M  V30 1748 H 171.732 -1.44911 3.58522 0
M  V30 1749 H 173.421 -1.16112 3.88938 0
M  V30 1750 H 174.187 1.18527 4.70294 0
M  V30 1751 H 170.066 -0.0374044 4.60985 0
M  V30 1752 H 173.61 2.96432 6.31485 0
M  V30 1753 H 169.507 1.73348 6.21788 0
M  V30 1754 H 170.275 3.41124 7.44027 0
M  V30 1755 N 172.938 -1.57226 0.108567 0
M  V30 1756 C 174.168 -1.9889 -0.559142 0
M  V30 1757 C 174.576 -0.986889 -1.61422 0
M  V30 1758 O 173.919 0.0298705 -1.83676 0
M  V30 1759 C 173.981 -3.36952 -1.25315 0
M  V30 1760 C 173.645 -4.55679 -0.347248 0
M  V30 1761 C 174.642 -5.18281 0.409996 0
M  V30 1762 C 172.327 -5.0162 -0.261367 0
M  V30 1763 C 174.321 -6.25203 1.24096 0
M  V30 1764 C 172.008 -6.08405 0.573238 0
M  V30 1765 C 173.006 -6.70063 1.32304 0
M  V30 1766 O 172.694 -7.74788 2.14381 0
M  V30 1767 H 172.426 -0.658343 -0.153492 0
M  V30 1768 H 174.98 -2.04532 0.188584 0
M  V30 1769 H 173.21 -3.28032 -2.04773 0
M  V30 1770 H 174.899 -3.62974 -1.81673 0
M  V30 1771 H 175.665 -4.8371 0.353457 0
M  V30 1772 H 171.544 -4.53381 -0.834656 0
M  V30 1773 H 175.088 -6.73259 1.82669 0
M  V30 1774 H 170.985 -6.42406 0.631208 0
M  V30 1775 H 171.753 -7.91837 2.07209 0
M  V30 1776 N 174.416 0.165178 -1.56732 0
M  V30 1777 C 175.664 0.879068 -1.8198 0
M  V30 1778 C 175.985 1.82514 -0.686561 0
M  V30 1779 O 175.255 1.93694 0.293146 0
M  V30 1780 H 173.835 0.327608 -0.671329 0
M  V30 1781 H 176.497 0.163526 -1.94213 0
M  V30 1782 H 175.593 1.45228 -2.76252 0
M  V30 1783 N 175.894 1.51508 0.433938 0
M  V30 1784 C 176.857 1.72473 1.50949 0
M  V30 1785 C 177.857 0.594725 1.49398 0
M  V30 1786 O 179.047 0.862315 1.5136 0
M  V30 1787 C 176.179 1.78431 2.90474 0
M  V30 1788 H 177.372 2.68467 1.33662 0
M  V30 1789 H 174.925 1.41549 0.662836 0
M  V30 1790 H 175.66 0.842645 3.13161 0
M  V30 1791 H 175.445 2.60558 2.93005 0
M  V30 1792 H 176.935 1.96479 3.68491 0
M  V30 1793 N 177.372 -0.689602 1.41712 0
M  V30 1794 C 178.597 -1.48329 1.44959 0
M  V30 1795 C 179.022 -1.8801 0.0581283 0
M  V30 1796 O 178.38 -1.55026 -0.940035 0
M  V30 1797 C 178.428 -2.71835 2.36935 0
M  V30 1798 O 177.532 -3.69549 1.8305 0
M  V30 1799 H 176.873 -0.446199 0.491734 0
M  V30 1800 H 179.403 -0.847127 1.86239 0
M  V30 1801 H 179.413 -3.20076 2.53013 0
M  V30 1802 H 178.088 -2.42291 3.38035 0
M  V30 1803 H 176.665 -3.2851 1.76452 0
M  V30 1804 N 178.85 -1.27639 -0.924453 0
M  V30 1805 C 179.76 -1.12466 -2.05885 0
M  V30 1806 C 180.776 -0.053869 -1.73917 0
M  V30 1807 O 181.952 -0.261012 -1.99702 0
M  V30 1808 C 179.017 -0.776768 -3.37886 0
M  V30 1809 C 178.078 -1.92878 -3.83532 0
M  V30 1810 C 177.311 -1.59739 -5.09234 0
M  V30 1811 O 177.534 -0.506782 -5.68144 0
M  V30 1812 O 176.468 -2.43761 -5.50331 0
M  V30 1813 H 180.294 -2.07671 -2.21599 0
M  V30 1814 H 177.879 -1.06857 -1.04413 0
M  V30 1815 H 179.761 -0.596229 -4.17161 0
M  V30 1816 H 178.436 0.145732 -3.23372 0
M  V30 1817 H 177.343 -2.1644 -3.0513 0
M  V30 1818 H 178.676 -2.8316 -4.02593 0
M  V30 1819 N 180.328 1.1314 -1.09713 0
M  V30 1820 C 181.574 1.84757 -0.836224 0
M  V30 1821 C 181.907 1.8347 0.636598 0
M  V30 1822 O 181.182 1.27491 1.46889 0
M  V30 1823 C 181.465 3.32782 -1.37578 0
M  V30 1824 C 181.318 3.42567 -2.91493 0
M  V30 1825 C 182.637 4.28307 -1.01198 0
M  V30 1826 H 179.756 0.67082 -0.305236 0
M  V30 1827 H 182.398 1.3278 -1.35903 0
M  V30 1828 H 180.548 3.77177 -0.931097 0
M  V30 1829 H 182.22 3.06862 -3.44432 0
M  V30 1830 H 180.463 2.83349 -3.28475 0
M  V30 1831 H 181.134 4.46674 -3.24324 0
M  V30 1832 H 183.61 3.91999 -1.39556 0
M  V30 1833 H 182.486 5.30307 -1.41653 0
M  V30 1834 H 182.747 4.42029 0.0794833 0
M  V30 1835 N 181.806 0.884767 1.30421 0
M  V30 1836 C 183.053 0.503105 1.96151 0
M  V30 1837 C 183.381 -0.947676 1.69851 0
M  V30 1838 O 182.636 -1.68467 0.995861 0
M  V30 1839 C 182.935 0.724318 3.49983 0
M  V30 1840 C 182.601 2.15015 3.96332 0
M  V30 1841 C 181.263 2.54005 4.08699 0
M  V30 1842 C 183.615 3.07936 4.20505 0
M  V30 1843 C 180.943 3.85128 4.42599 0
M  V30 1844 C 183.295 4.3859 4.55874 0
M  V30 1845 C 181.959 4.77474 4.66449 0
M  V30 1846 H 181.229 0.184099 0.717766 0
M  V30 1847 H 183.876 1.12058 1.55291 0
M  V30 1848 H 182.181 0.0238086 3.91793 0
M  V30 1849 H 183.878 0.408617 3.98913 0
M  V30 1850 H 180.468 1.8375 3.87213 0
M  V30 1851 H 184.652 2.79033 4.10431 0
M  V30 1852 H 179.908 4.14996 4.48986 0
M  V30 1853 H 184.082 5.10629 4.7353 0
M  V30 1854 H 181.709 5.79115 4.92473 0
M  V30 1855 N 183.284 -1.43765 0.645699 0
M  V30 1856 C 184.194 -2.34544 -0.0512957 0
M  V30 1857 C 185.21 -1.53455 -0.82022 0
M  V30 1858 O 186.386 -1.86133 -0.769176 0
M  V30 1859 C 183.451 -3.31636 -1.01087 0
M  V30 1860 C 182.512 -4.2863 -0.239712 0
M  V30 1861 C 181.745 -5.21084 -1.15358 0
M  V30 1862 O 181.968 -5.1779 -2.39269 0
M  V30 1863 O 180.902 -5.98593 -0.630038 0
M  V30 1864 H 184.728 -2.95624 0.695718 0
M  V30 1865 H 182.313 -1.43781 0.405882 0
M  V30 1866 H 184.195 -3.9136 -1.56254 0
M  V30 1867 H 182.87 -2.73069 -1.73824 0
M  V30 1868 H 181.777 -3.72408 0.355356 0
M  V30 1869 H 183.11 -4.90157 0.447936 0
M  V30 1870 N 184.763 -0.387143 -1.52771 0
M  V30 1871 C 185.71 0.449048 -2.26389 0
M  V30 1872 C 186.68 1.05961 -1.27912 0
M  V30 1873 O 187.865 1.08804 -1.56737 0
M  V30 1874 C 185.005 1.57155 -3.0724 0
M  V30 1875 C 184.118 0.984066 -4.20643 0
M  V30 1876 C 183.253 2.07745 -4.88892 0
M  V30 1877 C 182.292 1.46574 -5.94292 0
M  V30 1878 N 181.429 2.49834 -6.56146 0
M  V30 1879 H 186.269 -0.185205 -2.97424 0
M  V30 1880 H 183.806 -0.103164 -1.46738 0
M  V30 1881 H 185.764 2.23309 -3.52405 0
M  V30 1882 H 184.394 2.17615 -2.38419 0
M  V30 1883 H 183.446 0.212193 -3.79808 0
M  V30 1884 H 184.758 0.497029 -4.96318 0
M  V30 1885 H 183.912 2.81673 -5.3735 0
M  V30 1886 H 182.651 2.59807 -4.12737 0
M  V30 1887 H 181.656 0.711696 -5.45174 0
M  V30 1888 H 182.881 0.953088 -6.72379 0
M  V30 1889 H 180.827 3.0107 -5.82832 0
M  V30 1890 H 180.744 2.05879 -7.27427 0
M  V30 1891 H 182.012 3.23399 -7.09249 0
M  V30 1892 N 186.241 1.57166 -0.116904 0
M  V30 1893 C 187.652 1.82169 0.408809 0
M  V30 1894 C 188.003 1.03393 1.66746 0
M  V30 1895 O 187.128 0.269886 2.1471 0
M  V30 1896 C 187.723 3.30429 0.748466 0
M  V30 1897 C 186.282 3.5612 1.21882 0
M  V30 1898 C 185.429 2.76374 0.226452 0
M  V30 1899 H 188.38 1.5497 -0.342063 0
M  V30 1900 H 188.401 3.44943 1.60607 0
M  V30 1901 H 187.913 3.87737 -0.167784 0
M  V30 1902 H 186.014 3.04168 2.15204 0
M  V30 1903 H 186.127 4.64705 1.16559 0
M  V30 1904 H 184.491 2.44515 0.713063 0
M  V30 1905 H 185.274 3.3644 -0.682859 0
M  V30 1906 N 187.719 -0.156864 1.56817 0
M  V30 1907 C 188.966 -0.871125 1.82805 0
M  V30 1908 C 189.294 -1.81611 0.696262 0
M  V30 1909 O 188.549 -1.93141 -0.315459 0
M  V30 1910 C 188.848 -1.68737 3.1506 0
M  V30 1911 C 188.514 -0.890045 4.42028 0
M  V30 1912 C 187.176 -0.670042 4.76512 0
M  V30 1913 C 189.528 -0.331769 5.20143 0
M  V30 1914 C 186.856 0.119104 5.86579 0
M  V30 1915 C 189.208 0.444365 6.31037 0
M  V30 1916 C 187.872 0.675035 6.64078 0
M  V30 1917 H 187.142 -0.318767 0.668931 0
M  V30 1918 H 189.789 -0.135274 1.91022 0
M  V30 1919 H 188.094 -2.49304 3.0225 0
M  V30 1920 H 189.791 -2.24331 3.3238 0
M  V30 1921 H 186.381 -1.07157 4.14988 0
M  V30 1922 H 190.565 -0.489043 4.93885 0
M  V30 1923 H 185.821 0.307417 6.10627 0
M  V30 1924 H 189.995 0.884139 6.90765 0
M  V30 1925 H 187.622 1.28839 7.49203 0
M  V30 1926 N 189.197 -1.51736 -0.425897 0
M  V30 1927 C 190.127 -1.76827 -1.52494 0
M  V30 1928 C 191.108 -0.618524 -1.58456 0
M  V30 1929 O 192.293 -0.862416 -1.74 0
M  V30 1930 C 189.423 -1.90374 -2.90474 0
M  V30 1931 C 188.377 -3.0588 -2.99369 0
M  V30 1932 C 187.703 -3.04625 -4.3944 0
M  V30 1933 C 189.003 -4.45644 -2.72394 0
M  V30 1934 H 190.697 -2.68855 -1.31748 0
M  V30 1935 H 188.243 -1.29372 -0.632362 0
M  V30 1936 H 190.196 -2.0651 -3.6733 0
M  V30 1937 H 188.92 -0.95004 -3.12477 0
M  V30 1938 H 187.579 -2.89467 -2.24954 0
M  V30 1939 H 187.227 -2.0701 -4.58428 0
M  V30 1940 H 186.927 -3.82195 -4.46319 0
M  V30 1941 H 188.451 -3.22869 -5.18255 0
M  V30 1942 H 189.865 -4.62348 -3.38979 0
M  V30 1943 H 188.262 -5.25006 -2.9067 0
M  V30 1944 H 189.332 -4.54893 -1.67929 0
M  V30 1945 N 190.675 0.682077 -1.42076 0
M  V30 1946 C 192.086 1.26246 -1.37546 0
M  V30 1947 C 192.437 1.96092 -0.0651481 0
M  V30 1948 O 191.562 1.99587 0.836297 0
M  V30 1949 C 192.157 2.29594 -2.49143 0
M  V30 1950 C 190.716 2.83175 -2.47969 0
M  V30 1951 C 189.863 1.57395 -2.28303 0
M  V30 1952 H 192.814 0.475937 -1.51395 0
M  V30 1953 H 192.835 3.11175 -2.18976 0
M  V30 1954 H 192.347 1.78729 -3.44496 0
M  V30 1955 H 190.448 3.3818 -1.56413 0
M  V30 1956 H 190.561 3.32687 -3.44755 0
M  V30 1957 H 188.925 1.83699 -1.76428 0
M  V30 1958 H 189.708 1.08507 -3.25701 0
M  V30 1959 N 192.153 1.28127 0.917671 0
M  V30 1960 C 193.401 1.14825 1.66312 0
M  V30 1961 C 193.722 -0.304379 1.9261 0
M  V30 1962 O 192.992 -1.21149 1.53947 0
M  V30 1963 H 191.572 0.421953 0.616413 0
M  V30 1964 H 194.234 1.608 1.10134 0
M  V30 1965 H 193.33 1.68489 2.62712 0
M  V30 1966 N 193.631 -1.12557 1.10312 0
M  V30 1967 C 194.594 -2.16434 0.75424 0
M  V30 1968 C 195.594 -1.59278 -0.220685 0
M  V30 1969 O 196.784 -1.742 0.00230591 0
M  V30 1970 C 193.916 -3.40699 0.116987 0
M  V30 1971 H 195.109 -2.48811 1.67431 0
M  V30 1972 H 192.662 -1.27542 0.903475 0
M  V30 1973 H 193.397 -3.13921 -0.813877 0
M  V30 1974 H 193.182 -3.83459 0.818613 0
M  V30 1975 H 194.672 -4.17451 -0.111387 0
M  V30 1976 N 195.109 -0.891671 -1.2995 0
M  V30 1977 C 196.072 -0.36828 -2.26222 0
M  V30 1978 C 197.072 0.493014 -1.53056 0
M  V30 1979 O 198.262 0.299213 -1.71611 0
M  V30 1980 C 195.394 0.47442 -3.37583 0
M  V30 1981 H 196.587 -1.21844 -2.74033 0
M  V30 1982 H 194.14 -0.669107 -1.41254 0
M  V30 1983 H 194.875 1.34489 -2.95099 0
M  V30 1984 H 194.66 -0.142615 -3.91841 0
M  V30 1985 H 196.15 0.83218 -4.09224 0
M  V30 1986 N 196.587 1.43421 -0.653314 0
M  V30 1987 C 197.833 2.02111 -0.166992 0
M  V30 1988 C 198.166 1.51423 1.21592 0
M  V30 1989 O 197.441 0.707389 1.8118 0
M  V30 1990 C 197.724 3.5966 -0.177948 0
M  V30 1991 C 197.577 4.20579 -1.59478 0
M  V30 1992 C 198.896 4.37413 0.4856 0
M  V30 1993 H 196.015 0.734374 -0.0621557 0
M  V30 1994 H 198.657 1.70717 -0.834016 0
M  V30 1995 H 196.807 3.86537 0.390032 0
M  V30 1996 H 198.479 4.04732 -2.21336 0
M  V30 1997 H 196.722 3.77226 -2.14204 0
M  V30 1998 H 197.393 5.29665 -1.5543 0
M  V30 1999 H 199.869 4.161 0.00234528 0
M  V30 2000 H 198.745 5.47075 0.447207 0
M  V30 2001 H 199.006 4.13672 1.55974 0
M  V30 2002 N 198.065 0.39524 1.52563 0
M  V30 2003 C 199.29 -0.187456 2.06551 0
M  V30 2004 C 199.715 -1.39249 1.26457 0
M  V30 2005 O 199.073 -1.78947 0.291151 0
M  V30 2006 C 199.121 -0.529985 3.56684 0
M  V30 2007 O 198.225 -1.62307 3.79118 0
M  V30 2008 H 197.566 -0.0202537 0.663691 0
M  V30 2009 H 200.096 0.564426 1.96661 0
M  V30 2010 H 200.106 -0.792598 4.00227 0
M  V30 2011 H 198.781 0.350987 4.14416 0
M  V30 2012 H 197.358 -1.3537 3.47461 0
M  V30 2013 N 199.544 -1.57102 0.125237 0
M  V30 2014 C 200.792 -1.95021 -0.530198 0
M  V30 2015 C 201.113 -1.00982 -1.66816 0
M  V30 2016 O 200.383 -0.0672693 -1.95784 0
M  V30 2017 H 198.963 -0.720046 -0.198853 0
M  V30 2018 H 201.625 -1.93916 0.19564 0
M  V30 2019 H 200.721 -2.98211 -0.920681 0
M  V30 2020 N 201.022 0.148545 -1.56898 0
M  V30 2021 C 202.269 0.861418 -1.83264 0
M  V30 2022 C 202.597 1.81239 -0.705883 0
M  V30 2023 O 201.852 1.93305 0.305212 0
M  V30 2024 C 202.151 1.67064 -3.1595 0
M  V30 2025 C 201.817 0.866591 -4.42494 0
M  V30 2026 C 200.479 0.644762 -4.76861 0
M  V30 2027 C 202.831 0.30418 -5.20312 0
M  V30 2028 C 200.159 -0.15021 -5.86508 0
M  V30 2029 C 202.511 -0.477824 -6.30793 0
M  V30 2030 C 201.175 -0.710244 -6.63711 0
M  V30 2031 H 200.445 0.315215 -0.670612 0
M  V30 2032 H 203.092 0.125142 -1.91091 0
M  V30 2033 H 201.397 2.47698 -3.03567 0
M  V30 2034 H 203.094 2.22566 -3.33565 0
M  V30 2035 H 199.684 1.04955 -4.15551 0
M  V30 2036 H 203.868 0.462844 -4.94137 0
M  V30 2037 H 199.124 -0.339796 -6.10455 0
M  V30 2038 H 203.298 -0.92076 -6.90286 0
M  V30 2039 H 200.925 -1.3281 -7.48509 0
M  V30 2040 N 202.5 1.5196 0.417844 0
M  V30 2041 C 203.43 1.77634 1.51554 0
M  V30 2042 C 204.411 0.626918 1.58126 0
M  V30 2043 O 205.596 0.871632 1.7354 0
M  V30 2044 C 202.726 1.91911 2.8946 0
M  V30 2045 C 201.68 3.07463 2.97743 0
M  V30 2046 C 201.006 3.06951 4.37819 0
M  V30 2047 C 202.306 4.47082 2.70027 0
M  V30 2048 H 204 2.6955 1.3032 0
M  V30 2049 H 201.546 1.29706 0.625492 0
M  V30 2050 H 203.499 2.08455 3.6623 0
M  V30 2051 H 202.223 0.966598 3.11969 0
M  V30 2052 H 200.882 2.90656 2.23416 0
M  V30 2053 H 200.53 2.09438 4.57323 0
M  V30 2054 H 200.23 3.84556 4.44286 0
M  V30 2055 H 201.754 3.25613 5.16535 0
M  V30 2056 H 203.168 4.6414 3.36522 0
M  V30 2057 H 201.565 5.2654 2.87881 0
M  V30 2058 H 202.635 4.55777 1.65514 0
M  V30 2059 N 203.978 -0.674533 1.42435 0
M  V30 2060 C 205.206 -1.46283 1.46317 0
M  V30 2061 C 205.621 -1.88653 0.0745836 0
M  V30 2062 O 204.978 -1.58151 -0.91074 0
M  V30 2063 C 205.029 -2.71178 2.3905 0
M  V30 2064 O 204.75 -2.30586 3.72507 0
M  V30 2065 C 206.251 -3.64738 2.51955 0
M  V30 2066 H 203.471 -0.450104 0.497642 0
M  V30 2067 H 206.015 -0.828792 1.86953 0
M  V30 2068 H 204.17 -3.3077 2.01667 0
M  V30 2069 H 204.584 -3.11241 4.22172 0
M  V30 2070 H 206.058 -4.49096 3.20962 0
M  V30 2071 H 206.535 -4.10656 1.55752 0
M  V30 2072 H 207.141 -3.11038 2.90061 0
M  V30 2073 N 205.456 -1.28612 -0.910864 0
M  V30 2074 C 206.704 -1.15705 -1.65701 0
M  V30 2075 C 207.025 0.29416 -1.92769 0
M  V30 2076 O 206.295 1.20331 -1.54588 0
M  V30 2077 H 204.875 -0.425216 -0.614167 0
M  V30 2078 H 207.537 -1.61381 -1.0928 0
M  V30 2079 H 206.633 -1.6988 -2.61815 0
M  V30 2080 N 206.934 1.1197 -1.10907 0
M  V30 2081 C 207.844 2.21433 -0.774896 0
M  V30 2082 C 208.86 1.72478 0.229657 0
M  V30 2083 O 210.036 2.01288 0.0672008 0
M  V30 2084 C 207.101 3.4602 -0.216986 0
M  V30 2085 C 206.162 4.09791 -1.27944 0
M  V30 2086 C 205.395 5.28431 -0.748055 0
M  V30 2087 O 205.618 5.68823 0.423833 0
M  V30 2088 O 204.552 5.82644 -1.51027 0
M  V30 2089 H 208.378 2.5242 -1.68873 0
M  V30 2090 H 205.963 1.20399 -0.884555 0
M  V30 2091 H 207.845 4.21304 0.090059 0
M  V30 2092 H 206.52 3.16698 0.669633 0
M  V30 2093 H 205.427 3.36265 -1.63941 0
M  V30 2094 H 206.76 4.4328 -2.13925 0
M  V30 2095 N 208.412 0.89855 1.29475 0
M  V30 2096 C 209.344 0.332726 2.26772 0
M  V30 2097 C 210.357 -0.520323 1.54261 0
M  V30 2098 O 211.546 -0.337668 1.75277 0
M  V30 2099 C 208.646 -0.544334 3.345 0
M  V30 2100 C 207.819 0.282728 4.36485 0
M  V30 2101 C 206.878 -0.526982 5.23555 0
M  V30 2102 O 205.904 0.0551165 5.69173 0
M  V30 2103 N 207.106 -1.83331 5.5079 0
M  V30 2104 H 209.871 1.16897 2.75962 0
M  V30 2105 H 207.432 0.762919 1.42798 0
M  V30 2106 H 209.424 -1.09239 3.89678 0
M  V30 2107 H 207.994 -1.28127 2.85136 0
M  V30 2108 H 207.214 1.01221 3.80983 0
M  V30 2109 H 208.502 0.84918 5.01664 0
M  V30 2110 H 207.9 -2.32898 5.15534 0
M  V30 2111 H 206.457 -2.32852 6.08788 0
M  V30 2112 N 209.89 -1.43072 0.660911 0
M  V30 2113 C 211.138 -2.01323 0.177094 0
M  V30 2114 C 211.459 -1.5245 -1.2159 0
M  V30 2115 O 210.729 -0.740322 -1.81373 0
M  V30 2116 H 209.309 -0.744382 0.0624804 0
M  V30 2117 H 211.971 -1.75179 0.854305 0
M  V30 2118 H 211.067 -3.11649 0.167641 0
M  V30 2119 N 211.368 -0.403325 -1.52352 0
M  V30 2120 C 212.298 0.416205 -2.29761 0
M  V30 2121 C 213.279 1.05123 -1.33728 0
M  V30 2122 O 214.464 1.06134 -1.62632 0
M  V30 2123 C 211.594 1.53624 -3.11475 0
M  V30 2124 C 210.548 1.02653 -4.15507 0
M  V30 2125 C 209.874 2.23971 -4.85532 0
M  V30 2126 C 211.174 0.08463 -5.22231 0
M  V30 2127 H 212.868 -0.229701 -2.98518 0
M  V30 2128 H 210.414 -0.111913 -1.43564 0
M  V30 2129 H 212.367 2.1165 -3.64393 0
M  V30 2130 H 211.091 2.20994 -2.40477 0
M  V30 2131 H 209.75 0.46871 -3.63591 0
M  V30 2132 H 209.398 2.89883 -4.11068 0
M  V30 2133 H 209.098 1.90521 -5.55856 0
M  V30 2134 H 210.622 2.82614 -5.41259 0
M  V30 2135 H 212.036 0.573509 -5.70424 0
M  V30 2136 H 210.433 -0.160783 -5.99885 0
M  V30 2137 H 211.503 -0.86237 -4.7717 0
M  V30 2138 N 212.846 1.57033 -0.133567 0
M  V30 2139 C 214.094 1.953 0.519848 0
M  V30 2140 C 214.415 1.01866 1.66278 0
M  V30 2141 O 213.685 0.0776513 1.95746 0
M  V30 2142 H 212.265 0.721091 0.195032 0
M  V30 2143 H 214.927 1.93809 -0.205921 0
M  V30 2144 H 214.023 2.98695 0.904854 0
M  V30 2145 N 214.325 -0.140222 1.56975 0
M  V30 2146 C 215.275 -1.17827 1.95194 0
M  V30 2147 C 216.259 -1.38195 0.824075 0
M  V30 2148 O 217.451 -1.39643 1.0876 0
M  V30 2149 C 214.58 -2.51024 2.34184 0
M  V30 2150 C 213.666 -2.3422 3.53556 0
M  V30 2151 N 214.057 -1.87185 4.69889 0
M  V30 2152 C 212.355 -2.64949 3.58773 0
M  V30 2153 C 213.056 -1.83586 5.5197 0
M  V30 2154 N 212.032 -2.2715 4.93866 0
M  V30 2155 H 215.834 -0.806817 2.82609 0
M  V30 2156 H 213.348 -0.348208 1.58623 0
M  V30 2157 H 215.345 -3.26074 2.59772 0
M  V30 2158 H 214.005 -2.88945 1.48124 0
M  V30 2159 H 215.016 -1.57048 4.93514 0
M  V30 2160 H 211.693 -3.067 2.8327 0
M  V30 2161 H 213.083 -1.48655 6.55249 0
M  V30 2162 N 215.803 -1.52179 -0.40978 0
M  V30 2163 C 217.05 -1.66206 -1.15679 0
M  V30 2164 C 217.378 -0.391674 -1.90516 0
M  V30 2165 O 216.633 0.62533 -1.8544 0
M  V30 2166 C 216.932 -2.83428 -2.17723 0
M  V30 2167 C 216.598 -4.21672 -1.59699 0
M  V30 2168 C 215.26 -4.59274 -1.43599 0
M  V30 2169 C 217.612 -5.07825 -1.17317 0
M  V30 2170 C 214.94 -5.80709 -0.836328 0
M  V30 2171 C 217.292 -6.29864 -0.587691 0
M  V30 2172 C 215.956 -6.66216 -0.413818 0
M  V30 2173 H 215.226 -0.608192 -0.423301 0
M  V30 2174 H 217.873 -1.86279 -0.444097 0
M  V30 2175 H 216.178 -2.57687 -2.95135 0
M  V30 2176 H 217.875 -2.91477 -2.75394 0
M  V30 2177 H 214.465 -3.9204 -1.73213 0
M  V30 2178 H 218.649 -4.79359 -1.28565 0
M  V30 2179 H 213.905 -6.07498 -0.689626 0
M  V30 2180 H 218.079 -6.95948 -0.250894 0
M  V30 2181 H 215.706 -7.60182 0.0529471 0
M  V30 2182 N 217.281 0.66697 -1.42791 0
M  V30 2183 C 218.527 1.4291 -1.43891 0
M  V30 2184 C 218.86 1.94114 -0.0578972 0
M  V30 2185 O 218.135 1.71414 0.91911 0
M  V30 2186 C 218.418 2.62049 -2.46987 0
M  V30 2187 C 218.271 2.16426 -3.94309 0
M  V30 2188 C 219.59 3.64266 -2.46978 0
M  V30 2189 H 216.709 0.518306 -0.523954 0
M  V30 2190 H 219.351 0.757321 -1.74255 0
M  V30 2191 H 217.501 3.19361 -2.21225 0
M  V30 2192 H 219.173 1.64221 -4.31079 0
M  V30 2193 H 217.416 1.47925 -4.078 0
M  V30 2194 H 218.087 3.02038 -4.62036 0
M  V30 2195 H 220.563 3.16686 -2.69906 0
M  V30 2196 H 219.439 4.45196 -3.21079 0
M  V30 2197 H 219.7 4.15927 -1.49857 0
M  V30 2198 N 218.759 1.29093 0.90403 0
M  V30 2199 C 220.175 1.07011 1.1841 0
M  V30 2200 C 220.375 -0.181358 2.00682 0
M  V30 2201 O 219.431 -0.880331 2.36657 0
M  V30 2202 C 220.744 2.32311 1.90924 0
M  V30 2203 C 222.292 2.37587 2.03768 0
M  V30 2204 C 222.767 3.62679 2.79693 0
M  V30 2205 N 224.258 3.63376 2.87249 0
M  V30 2206 C 224.993 4.56848 3.46522 0
M  V30 2207 N 224.489 5.60648 4.06996 0
M  V30 2208 N 226.282 4.44426 3.44154 0
M  V30 2209 H 218.433 2.09412 0.354993 0
M  V30 2210 H 220.696 0.922181 0.219742 0
M  V30 2211 H 220.402 3.23536 1.37905 0
M  V30 2212 H 220.276 2.39483 2.91424 0
M  V30 2213 H 222.663 1.46853 2.55965 0
M  V30 2214 H 222.744 2.34403 1.02415 0
M  V30 2215 H 222.388 4.53762 2.28173 0
M  V30 2216 H 222.318 3.63119 3.81381 0
M  V30 2217 H 224.809 2.88321 2.44293 0
M  V30 2218 H 225.122 6.28101 4.50232 0
M  V30 2219 H 223.467 5.64463 4.05471 0
M  V30 2220 H 226.658 3.62529 2.96126 0
M  V30 2221 H 226.831 5.17457 3.90054 0
M  V30 2222 N 220.237 -1.11381 1.11499 0
M  V30 2223 C 221.477 -1.84763 0.874188 0
M  V30 2224 C 221.841 -1.82726 -0.589496 0
M  V30 2225 O 223.042 -2.51562 -0.947089 0
M  V30 2226 C 221.313 -3.27931 1.42112 0
M  V30 2227 S 222.872 -4.18557 1.31739 0
M  V30 2228 H 219.69 -0.637115 0.315603 0
M  V30 2229 H 222.292 -1.34097 1.42261 0
M  V30 2230 H 220.996 -3.26978 2.48019 0
M  V30 2231 H 220.527 -3.83665 0.869761 0
M  V30 2232 H 222.542 -4.95396 0.282335 0
M  V30 2233 N 221.715 -0.905404 -1.28997 0
M  V30 2234 C 222.961 -0.535039 -1.95615 0
M  V30 2235 C 223.294 0.917404 -1.71165 0
M  V30 2236 O 222.569 1.65123 -1.02785 0
M  V30 2237 C 222.852 -0.834918 -3.50287 0
M  V30 2238 C 222.705 -2.33948 -3.84172 0
M  V30 2239 C 224.024 -0.325318 -4.38896 0
M  V30 2240 H 221.143 -0.195861 -0.710498 0
M  V30 2241 H 223.785 -1.13313 -1.52513 0
M  V30 2242 H 221.935 -0.325904 -3.87131 0
M  V30 2243 H 223.607 -2.91847 -3.57243 0
M  V30 2244 H 221.85 -2.79789 -3.31513 0
M  V30 2245 H 222.521 -2.49987 -4.92149 0
M  V30 2246 H 224.997 -0.761256 -4.09077 0
M  V30 2247 H 223.873 -0.564295 -5.45992 0
M  V30 2248 H 224.134 0.774144 -4.35269 0
M  V30 2249 N 223.193 1.4272 -0.668489 0
M  V30 2250 C 224.604 1.84793 -0.266151 0
M  V30 2251 C 224.955 1.55959 1.19043 0
M  V30 2252 O 224.08 1.01622 1.91055 0
M  V30 2253 C 224.675 3.35436 -0.476271 0
M  V30 2254 C 223.234 3.76182 -0.128113 0
M  V30 2255 C 222.381 2.66344 -0.771777 0
M  V30 2256 H 225.332 1.32656 -0.871098 0
M  V30 2257 H 225.353 3.79515 0.273561 0
M  V30 2258 H 224.865 3.5639 -1.53647 0
M  V30 2259 H 222.966 3.60836 0.928891 0
M  V30 2260 H 223.079 4.75766 -0.564231 0
M  V30 2261 H 221.443 2.53885 -0.203652 0
M  V30 2262 H 222.226 2.90123 -1.83531 0
M  V30 2263 N 224.671 0.411399 1.52136 0
M  V30 2264 C 225.948 -0.222308 1.94333 0
M  V30 2265 C 226.328 -1.6242 1.34844 0
M  V30 2266 O 225.676 -2.22384 0.525145 0
M  V30 2267 C 225.886 -0.226345 3.48265 0
M  V30 2268 C 227.234 -0.444592 4.22266 0
M  V30 2269 O 228.258 -0.305602 3.54887 0
M  V30 2270 O 227.117 -0.718749 5.41753 0
M  V30 2271 H 224.211 -0.143907 0.814383 0
M  V30 2272 H 226.757 0.467506 1.63133 0
M  V30 2273 H 225.529 0.75475 3.83952 0
M  V30 2274 H 225.152 -0.960163 3.85832 0
M  V30 2275 N 226.149 -1.5696 0.141893 0
M  V30 2276 C 227.374 -2.00754 -0.520838 0
M  V30 2277 C 227.799 -1.0213 -1.57959 0
M  V30 2278 O 227.157 0.00371324 -1.813 0
M  V30 2279 C 227.205 -3.43318 -1.10294 0
M  V30 2280 O 226.309 -3.47679 -2.21795 0
M  V30 2281 H 225.65 -0.651564 -0.127908 0
M  V30 2282 H 228.18 -2.03221 0.23712 0
M  V30 2283 H 228.19 -3.82012 -1.43287 0
M  V30 2284 H 226.865 -4.14608 -0.327574 0
M  V30 2285 H 225.442 -3.20824 -1.9007 0
M  V30 2286 N 227.627 0.131896 -1.57047 0
M  V30 2287 C 228.904 0.871495 -1.75112 0
M  V30 2288 C 229.284 1.9866 -0.713949 0
M  V30 2289 O 228.632 2.26965 0.264447 0
M  V30 2290 C 228.842 1.40007 -3.19686 0
M  V30 2291 C 230.19 1.85752 -3.81813 0
M  V30 2292 O 231.214 1.49715 -3.23209 0
M  V30 2293 O 230.073 2.5226 -4.84796 0
M  V30 2294 H 227.167 0.412919 -0.716538 0
M  V30 2295 H 229.713 0.116641 -1.69299 0
M  V30 2296 H 228.485 0.599404 -3.86682 0
M  V30 2297 H 228.108 2.218 -3.29986 0
M  V30 2298 N 229.106 1.52395 0.401703 0
M  V30 2299 C 230.053 1.76268 1.48991 0
M  V30 2300 C 231.023 0.605386 1.54675 0
M  V30 2301 O 232.208 0.843742 1.7113 0
M  V30 2302 C 229.348 1.92592 2.86361 0
M  V30 2303 C 228.461 3.20259 2.89928 0
M  V30 2304 C 227.596 3.26972 4.18644 0
M  V30 2305 C 226.635 4.48812 4.16214 0
M  V30 2306 N 225.772 4.52877 5.36514 0
M  V30 2307 H 230.612 2.6914 1.27935 0
M  V30 2308 H 228.149 1.33355 0.620871 0
M  V30 2309 H 230.107 2.0004 3.66115 0
M  V30 2310 H 228.737 1.03093 3.05895 0
M  V30 2311 H 227.789 3.21945 2.02621 0
M  V30 2312 H 229.101 4.10056 2.83999 0
M  V30 2313 H 228.255 3.33533 5.06794 0
M  V30 2314 H 226.994 2.35126 4.27278 0
M  V30 2315 H 225.999 4.4239 3.26453 0
M  V30 2316 H 227.224 5.41961 4.09213 0
M  V30 2317 H 225.17 3.63917 5.45802 0
M  V30 2318 H 225.087 5.36529 5.32609 0
M  V30 2319 H 226.355 4.63676 6.26597 0
M  V30 2320 N 230.584 -0.659388 1.43143 0
M  V30 2321 C 231.547 -1.75432 1.47501 0
M  V30 2322 C 232.547 -1.56707 0.360512 0
M  V30 2323 O 233.737 -1.62717 0.622002 0
M  V30 2324 C 230.869 -3.14239 1.32162 0
M  V30 2325 H 232.062 -1.7295 2.45006 0
M  V30 2326 H 229.615 -0.870469 1.29817 0
M  V30 2327 H 230.35 -3.22336 0.356401 0
M  V30 2328 H 230.135 -3.29235 2.12948 0
M  V30 2329 H 231.625 -3.94094 1.3813 0
M  V30 2330 N 232.062 -1.29571 -0.897171 0
M  V30 2331 C 232.992 -1.17473 -2.01798 0
M  V30 2332 C 233.973 -0.068323 -1.69963 0
M  V30 2333 O 235.158 -0.248239 -1.92607 0
M  V30 2334 C 232.288 -0.853099 -3.36659 0
M  V30 2335 C 231.242 -1.9161 -3.82713 0
M  V30 2336 C 230.568 -1.44773 -5.14728 0
M  V30 2337 C 231.868 -3.32535 -4.02763 0
M  V30 2338 H 233.562 -2.11237 -2.12177 0
M  V30 2339 H 231.108 -1.01699 -1.01948 0
M  V30 2340 H 233.061 -0.755165 -4.14578 0
M  V30 2341 H 231.785 0.120236 -3.26379 0
M  V30 2342 H 230.444 -2.00346 -3.07013 0
M  V30 2343 H 230.092 -0.462995 -5.00865 0
M  V30 2344 H 229.792 -2.15865 -5.46513 0
M  V30 2345 H 231.316 -1.36334 -5.95185 0
M  V30 2346 H 232.73 -3.26626 -4.71156 0
M  V30 2347 H 231.127 -4.01607 -4.45905 0
M  V30 2348 H 232.197 -3.75326 -3.07016 0
M  V30 2349 N 233.54 1.10788 -1.12088 0
M  V30 2350 C 234.503 2.15207 -0.788577 0
M  V30 2351 C 235.503 1.59609 0.195317 0
M  V30 2352 O 236.693 1.74174 -0.0300193 0
M  V30 2353 C 233.825 3.4047 -0.171174 0
M  V30 2354 H 235.018 2.46116 -1.71368 0
M  V30 2355 H 232.571 1.26089 -0.923652 0
M  V30 2356 H 233.306 3.15176 0.763832 0
M  V30 2357 H 233.091 3.82109 -0.879514 0
M  V30 2358 H 234.581 4.17576 0.04496 0
M  V30 2359 N 235.018 0.912232 1.28515 0
M  V30 2360 C 236.265 0.544599 1.95039 0
M  V30 2361 C 236.593 -0.911435 1.71823 0
M  V30 2362 O 235.848 -1.66317 1.03137 0
M  V30 2363 C 236.147 0.798392 3.48368 0
M  V30 2364 C 235.813 2.23374 3.91682 0
M  V30 2365 C 234.475 2.62617 4.03219 0
M  V30 2366 C 236.827 3.16786 4.13879 0
M  V30 2367 C 234.155 3.94429 4.3433 0
M  V30 2368 C 236.507 4.48161 4.46469 0
M  V30 2369 C 235.171 4.8726 4.56217 0
M  V30 2370 H 234.441 0.199283 0.7137 0
M  V30 2371 H 237.088 1.15327 1.52879 0
M  V30 2372 H 235.393 0.106908 3.91654 0
M  V30 2373 H 237.09 0.493141 3.97956 0
M  V30 2374 H 233.68 1.91922 3.83228 0
M  V30 2375 H 237.864 2.87677 4.0442 0
M  V30 2376 H 233.12 4.24426 4.40082 0
M  V30 2377 H 237.294 5.20559 4.62592 0
M  V30 2378 H 234.921 5.89431 4.80078 0
M  V30 2379 N 236.496 -1.42363 0.676048 0
M  V30 2380 C 237.726 -2.05561 0.206967 0
M  V30 2381 C 238.134 -1.50887 -1.14148 0
M  V30 2382 O 237.477 -0.643933 -1.72044 0
M  V30 2383 C 237.539 -3.5944 0.0659508 0
M  V30 2384 C 237.203 -4.36812 1.34331 0
M  V30 2385 C 238.2 -4.67383 2.27704 0
M  V30 2386 C 235.885 -4.76429 1.59125 0
M  V30 2387 C 237.879 -5.36509 3.44147 0
M  V30 2388 C 235.566 -5.45294 2.75857 0
M  V30 2389 C 236.564 -5.75259 3.68193 0
M  V30 2390 O 236.252 -6.42712 4.82883 0
M  V30 2391 H 235.984 -0.668872 0.0979084 0
M  V30 2392 H 238.538 -1.83467 0.923531 0
M  V30 2393 H 236.768 -3.80197 -0.706204 0
M  V30 2394 H 238.457 -4.0427 -0.363418 0
M  V30 2395 H 239.223 -4.37275 2.09799 0
M  V30 2396 H 235.102 -4.52498 0.881258 0
M  V30 2397 H 238.646 -5.59814 4.16238 0
M  V30 2398 H 234.543 -5.7482 2.93688 0
M  V30 2399 H 235.311 -6.61204 4.82444 0
M  V30 2400 N 237.974 -0.419461 -1.51915 0
M  V30 2401 C 239.202 0.152136 -2.0634 0
M  V30 2402 C 239.617 1.37988 -1.28859 0
M  V30 2403 O 238.974 1.79243 -0.343232 0
M  V30 2404 C 239.025 0.492266 -3.58133 0
M  V30 2405 O 238.746 -0.686736 -4.32684 0
M  V30 2406 C 240.247 1.11648 -4.2901 0
M  V30 2407 H 237.467 0.0158325 -0.670813 0
M  V30 2408 H 240.011 -0.593394 -1.95702 0
M  V30 2409 H 238.166 1.18769 -3.68745 0
M  V30 2410 H 238.58 -0.400341 -5.2297 0
M  V30 2411 H 240.054 1.3046 -5.36362 0
M  V30 2412 H 240.531 2.09251 -3.86148 0
M  V30 2413 H 241.137 0.460958 -4.22795 0
M  V30 2414 N 239.452 1.56882 -0.150215 0
M  V30 2415 C 240.729 1.87844 0.545327 0
M  V30 2416 C 241.109 1.0567 1.82749 0
M  V30 2417 O 240.457 0.144442 2.28043 0
M  V30 2418 C 240.667 3.39526 0.80767 0
M  V30 2419 C 242.015 4.08814 1.14703 0
M  V30 2420 O 243.039 3.44723 0.896917 0
M  V30 2421 O 241.898 5.22004 1.61784 0
M  V30 2422 H 238.992 0.778677 0.278553 0
M  V30 2423 H 241.538 1.68666 -0.187068 0
M  V30 2424 H 240.31 3.91173 -0.0996096 0
M  V30 2425 H 239.933 3.64243 1.59413 0
M  V30 2426 N 240.93 -0.123565 1.57115 0
M  V30 2427 C 242.176 -0.833386 1.84885 0
M  V30 2428 C 242.509 -1.79742 0.735292 0
M  V30 2429 O 241.784 -1.92764 -0.25925 0
M  V30 2430 C 242.067 -1.5873 3.23228 0
M  V30 2431 C 241.92 -0.643183 4.45178 0
M  V30 2432 C 243.239 -2.54453 3.59085 0
M  V30 2433 H 240.358 -0.301518 0.6725 0
M  V30 2434 H 243 -0.097778 1.89748 0
M  V30 2435 H 241.15 -2.21438 3.19214 0
M  V30 2436 H 242.822 -0.0253015 4.61293 0
M  V30 2437 H 241.065 0.0456139 4.33776 0
M  V30 2438 H 241.736 -1.20724 5.38637 0
M  V30 2439 H 244.212 -2.01853 3.63861 0
M  V30 2440 H 243.088 -3.04238 4.5687 0
M  V30 2441 H 243.349 -3.36906 2.86264 0
M  V30 2442 N 242.408 -1.52605 -0.393616 0
M  V30 2443 C 243.338 -1.80022 -1.48709 0
M  V30 2444 C 244.319 -0.651995 -1.57108 0
M  V30 2445 O 245.504 -0.89913 -1.72132 0
M  V30 2446 C 242.634 -1.96492 -2.86371 0
M  V30 2447 C 241.588 -3.12161 -2.92813 0
M  V30 2448 C 240.914 -3.13877 -4.3288 0
M  V30 2449 C 242.214 -4.51322 -2.6288 0
M  V30 2450 H 243.908 -2.71589 -1.26015 0
M  V30 2451 H 241.454 -1.30684 -0.604778 0
M  V30 2452 H 243.407 -2.14255 -3.62867 0
M  V30 2453 H 242.131 -1.01611 -3.10391 0
M  V30 2454 H 240.79 -2.94173 -2.18764 0
M  V30 2455 H 240.438 -2.16687 -4.53933 0
M  V30 2456 H 240.138 -3.91576 -4.38112 0
M  V30 2457 H 241.662 -3.33789 -5.1129 0
M  V30 2458 H 243.076 -4.69435 -3.29096 0
M  V30 2459 H 241.473 -5.31053 -2.79468 0
M  V30 2460 H 242.543 -4.58353 -1.58242 0
M  V30 2461 N 243.887 0.651787 -1.4349 0
M  V30 2462 C 245.135 1.40888 -1.44897 0
M  V30 2463 C 245.456 1.94856 -0.0749086 0
M  V30 2464 O 244.726 1.74518 0.889956 0
M  V30 2465 H 243.306 0.522887 -0.533478 0
M  V30 2466 H 245.968 0.768609 -1.79104 0
M  V30 2467 H 245.064 2.25052 -2.16236 0
M  V30 2468 N 245.365 1.30045 0.890287 0
M  V30 2469 C 246.612 1.18561 1.64163 0
M  V30 2470 C 246.94 -0.260852 1.92743 0
M  V30 2471 O 246.195 -1.20376 1.54299 0
M  V30 2472 C 246.494 1.95409 2.99249 0
M  V30 2473 C 246.16 3.45066 2.90242 0
M  V30 2474 C 244.822 3.85878 2.87492 0
M  V30 2475 C 247.174 4.4039 2.78758 0
M  V30 2476 C 244.502 5.20314 2.7109 0
M  V30 2477 C 246.854 5.74928 2.63894 0
M  V30 2478 C 245.518 6.14986 2.59516 0
M  V30 2479 H 244.788 0.433846 0.600715 0
M  V30 2480 H 247.435 1.61088 1.03552 0
M  V30 2481 H 245.74 1.45501 3.63781 0
M  V30 2482 H 247.437 1.8392 3.56334 0
M  V30 2483 H 244.027 3.12631 2.93189 0
M  V30 2484 H 248.211 4.09806 2.79952 0
M  V30 2485 H 243.467 5.50449 2.66112 0
M  V30 2486 H 247.641 6.48434 2.53981 0
M  V30 2487 H 245.268 7.19104 2.46565 0
M  V30 2488 N 246.843 -1.10192 1.12674 0
M  V30 2489 C 247.775 -2.16418 0.754701 0
M  V30 2490 C 248.788 -1.61309 -0.21986 0
M  V30 2491 O 249.977 -1.785 -0.000826841 0
M  V30 2492 C 247.077 -3.38762 0.096698 0
M  V30 2493 C 246.25 -4.23307 1.10136 0
M  V30 2494 C 245.309 -5.24092 0.470513 0
M  V30 2495 O 244.335 -5.57906 1.12824 0
M  V30 2496 N 245.537 -5.75491 -0.760948 0
M  V30 2497 H 248.302 -2.48943 1.66875 0
M  V30 2498 H 245.863 -1.25834 1.01869 0
M  V30 2499 H 247.855 -4.03291 -0.337384 0
M  V30 2500 H 246.425 -3.04192 -0.720153 0
M  V30 2501 H 245.645 -3.55036 1.71299 0
M  V30 2502 H 246.933 -4.76624 1.78064 0
M  V30 2503 H 246.331 -5.50222 -1.31424 0
M  V30 2504 H 244.888 -6.41792 -1.13781 0
M  V30 2505 N 248.321 -0.919034 -1.28029 0
M  V30 2506 C 249.251 -0.428581 -2.29533 0
M  V30 2507 C 250.232 0.50659 -1.62381 0
M  V30 2508 O 251.417 0.413195 -1.89753 0
M  V30 2509 C 248.547 0.327388 -3.45753 0
M  V30 2510 C 247.501 -0.519137 -4.2484 0
M  V30 2511 C 246.827 0.365486 -5.33449 0
M  V30 2512 C 248.127 -1.77914 -4.91064 0
M  V30 2513 H 249.821 -1.27687 -2.70807 0
M  V30 2514 H 247.367 -0.615428 -1.30186 0
M  V30 2515 H 249.32 0.681378 -4.15855 0
M  V30 2516 H 248.044 1.20963 -3.03374 0
M  V30 2517 H 246.703 -0.855717 -3.56473 0
M  V30 2518 H 246.351 1.24642 -4.87312 0
M  V30 2519 H 246.051 -0.197356 -5.87268 0
M  V30 2520 H 247.575 0.715241 -6.06396 0
M  V30 2521 H 248.989 -1.49374 -5.53498 0
M  V30 2522 H 247.386 -2.2848 -5.54903 0
M  V30 2523 H 248.456 -2.50382 -4.15255 0
M  V30 2524 N 249.799 1.42003 -0.683588 0
M  V30 2525 C 251.024 2.06265 -0.216647 0
M  V30 2526 C 251.449 1.51059 1.12083 0
M  V30 2527 O 250.807 0.632638 1.69904 0
M  V30 2528 C 250.855 3.60191 -0.171759 0
M  V30 2529 O 249.959 4.03396 0.857069 0
M  V30 2530 H 249.3 0.65502 -0.108834 0
M  V30 2531 H 251.83 1.81982 -0.935077 0
M  V30 2532 H 251.84 4.08 0.0014303 0
M  V30 2533 H 250.515 3.99743 -1.14796 0
M  V30 2534 H 249.092 3.67117 0.654208 0
M  V30 2535 N 251.277 0.427512 1.51691 0
M  V30 2536 C 252.554 -0.201684 1.94557 0
M  V30 2537 C 252.934 -1.60981 1.36559 0
M  V30 2538 O 252.282 -2.21814 0.548702 0
M  V30 2539 C 252.492 -0.189394 3.48486 0
M  V30 2540 C 253.84 -0.39978 4.22714 0
M  V30 2541 O 254.864 -0.267945 3.55191 0
M  V30 2542 O 253.723 -0.661249 5.42485 0
M  V30 2543 H 250.817 -0.135261 0.815864 0
M  V30 2544 H 253.363 0.484782 1.62628 0
M  V30 2545 H 252.135 0.795431 3.8313 0
M  V30 2546 H 251.758 -0.919187 3.86829 0
M  V30 2547 N 252.755 -1.56801 0.158532 0
M  V30 2548 C 254.001 -1.96781 -0.490405 0
M  V30 2549 C 254.334 -1.04397 -1.63753 0
M  V30 2550 O 253.609 -0.0885805 -1.94298 0
M  V30 2551 C 253.892 -3.4635 -0.985594 0
M  V30 2552 C 253.745 -4.49512 0.160824 0
M  V30 2553 C 255.064 -3.98697 -1.86355 0
M  V30 2554 H 252.183 -0.715482 -0.176788 0
M  V30 2555 H 254.825 -1.88451 0.242088 0
M  V30 2556 H 252.975 -3.53579 -1.60978 0
M  V30 2557 H 254.647 -4.54353 0.797537 0
M  V30 2558 H 252.89 -4.26013 0.818256 0
M  V30 2559 H 253.561 -5.51531 -0.227569 0
M  V30 2560 H 256.037 -3.94019 -1.33746 0
M  V30 2561 H 254.913 -5.03792 -2.17909 0
M  V30 2562 H 255.174 -3.41744 -2.8047 0
M  V30 2563 N 254.233 0.115231 -1.57178 0
M  V30 2564 C 255.482 0.820945 -1.84237 0
M  V30 2565 C 255.795 1.80866 -0.744761 0
M  V30 2566 O 257.001 2.56083 -0.901871 0
M  V30 2567 C 255.457 1.51072 -3.26658 0
M  V30 2568 C 255.065 0.563795 -4.44438 0
M  V30 2569 C 256.809 2.20134 -3.62962 0
M  V30 2570 C 254.716 1.25701 -5.77887 0
M  V30 2571 H 253.646 0.310328 -0.687177 0
M  V30 2572 H 256.297 0.0737134 -1.83352 0
M  V30 2573 H 254.679 2.30471 -3.22024 0
M  V30 2574 H 255.853 -0.197247 -4.60378 0
M  V30 2575 H 254.168 -0.0200638 -4.16395 0
M  V30 2576 H 256.765 2.72696 -4.59936 0
M  V30 2577 H 257.108 2.98107 -2.90582 0
M  V30 2578 H 257.641 1.47619 -3.69396 0
M  V30 2579 H 254.38 0.518493 -6.53446 0
M  V30 2580 H 253.9 1.98997 -5.65827 0
M  V30 2581 H 255.579 1.78915 -6.2177 0
M  V30 2582 N 255.711 1.52812 0.385517 0
M  V30 2583 C 256.988 1.5861 1.14465 0
M  V30 2584 C 257.368 0.381402 2.07626 0
M  V30 2585 O 256.716 -0.629999 2.19643 0
M  V30 2586 C 256.926 2.92664 1.90128 0
M  V30 2587 C 258.274 3.46526 2.45367 0
M  V30 2588 O 259.298 2.94562 2.0028 0
M  V30 2589 O 258.157 4.37323 3.27736 0
M  V30 2590 H 255.251 0.639855 0.523941 0
M  V30 2591 H 257.797 1.65149 0.390389 0
M  V30 2592 H 256.569 3.71788 1.22022 0
M  V30 2593 H 256.192 2.89527 2.72507 0
M  V30 2594 N 257.189 -0.644168 1.43834 0
M  V30 2595 C 258.122 -1.76906 1.44151 0
M  V30 2596 C 259.1 -1.59774 0.301857 0
M  V30 2597 O 260.284 -1.81834 0.496841 0
M  V30 2598 C 257.411 -3.14321 1.26174 0
M  V30 2599 C 256.457 -3.50134 2.43533 0
M  V30 2600 S 257.29 -3.49085 4.06079 0
M  V30 2601 C 258.446 -4.89142 3.90501 0
M  V30 2602 H 258.679 -1.76368 2.39336 0
M  V30 2603 H 256.212 -0.817624 1.30974 0
M  V30 2604 H 258.17 -3.93625 1.16489 0
M  V30 2605 H 256.831 -3.12412 0.325224 0
M  V30 2606 H 256.024 -4.50095 2.26783 0
M  V30 2607 H 255.626 -2.78264 2.4989 0
M  V30 2608 H 257.918 -5.78036 3.53385 0
M  V30 2609 H 258.861 -5.10945 4.90246 0
M  V30 2610 H 259.269 -4.63102 3.22795 0
M  V30 2611 N 258.668 -1.30515 -0.883378 0
M  V30 2612 C 259.615 -1.17032 -1.98927 0
M  V30 2613 C 260.585 -0.0594241 -1.65994 0
M  V30 2614 O 261.77 -0.229895 -1.8941 0
M  V30 2615 C 258.91 -0.869777 -3.33959 0
M  V30 2616 C 258.023 -2.06271 -3.79574 0
M  V30 2617 C 257.158 -1.70011 -5.03259 0
M  V30 2618 C 256.197 -2.8579 -5.41286 0
M  V30 2619 N 255.334 -2.49816 -6.56153 0
M  V30 2620 H 260.174 -2.1164 -2.09792 0
M  V30 2621 H 257.711 -1.05296 -1.02719 0
M  V30 2622 H 259.669 -0.676138 -4.11685 0
M  V30 2623 H 258.299 0.0394332 -3.22776 0
M  V30 2624 H 257.351 -2.36755 -2.97744 0
M  V30 2625 H 258.663 -2.92971 -4.03694 0
M  V30 2626 H 257.817 -1.47032 -5.88614 0
M  V30 2627 H 256.556 -0.804829 -4.81013 0
M  V30 2628 H 255.561 -3.09434 -4.54456 0
M  V30 2629 H 256.786 -3.76008 -5.65504 0
M  V30 2630 H 254.732 -1.62795 -6.35479 0
M  V30 2631 H 254.649 -3.30048 -6.8015 0
M  V30 2632 H 255.917 -2.30197 -7.44735 0
M  V30 2633 N 260.146 1.09593 -1.13257 0
M  V30 2634 C 261.079 2.15451 -0.752061 0
M  V30 2635 C 262.057 1.60493 0.260913 0
M  V30 2636 O 263.241 1.8788 0.152819 0
M  V30 2637 C 260.368 3.38506 -0.114594 0
M  V30 2638 C 259.414 4.12183 -1.09579 0
M  V30 2639 S 260.247 4.6661 -2.62745 0
M  V30 2640 C 261.403 5.92966 -2.00354 0
M  V30 2641 H 261.636 2.47395 -1.64872 0
M  V30 2642 H 259.169 1.21515 -0.952545 0
M  V30 2643 H 261.127 4.09757 0.246808 0
M  V30 2644 H 259.788 3.04784 0.759309 0
M  V30 2645 H 258.981 5.00445 -0.597545 0
M  V30 2646 H 258.583 3.46785 -1.40057 0
M  V30 2647 H 260.875 6.63882 -1.35156 0
M  V30 2648 H 261.818 6.47467 -2.86691 0
M  V30 2649 H 262.226 5.45405 -1.4558 0
M  V30 2650 N 261.624 0.925811 1.2754 0
M  V30 2651 C 262.872 0.564138 1.94067 0
M  V30 2652 C 263.193 -0.897188 1.73134 0
M  V30 2653 O 262.463 -1.63573 1.07799 0
M  V30 2654 H 261.043 0.205645 0.718136 0
M  V30 2655 H 263.705 1.1778 1.55287 0
M  V30 2656 H 262.801 0.76881 3.02483 0
M  V30 2657 N 263.102 -1.41638 0.69111 0
M  V30 2658 C 264.513 -1.84346 0.295517 0
M  V30 2659 C 264.864 -1.57833 -1.16547 0
M  V30 2660 O 263.989 -1.04648 -1.89414 0
M  V30 2661 C 264.584 -3.34636 0.529575 0
M  V30 2662 C 263.143 -3.7593 0.187944 0
M  V30 2663 C 262.29 -2.65082 0.814052 0
M  V30 2664 H 265.241 -1.31253 0.892092 0
M  V30 2665 H 265.262 -3.79903 -0.213148 0
M  V30 2666 H 264.774 -3.53901 1.59297 0
M  V30 2667 H 262.875 -3.62268 -0.871367 0
M  V30 2668 H 262.988 -4.74808 0.63985 0
M  V30 2669 H 261.352 -2.53528 0.244017 0
M  V30 2670 H 262.135 -2.87167 1.88123 0
M  V30 2671 N 264.58 -0.43555 -1.51462 0
M  V30 2672 C 265.857 0.191364 -1.94662 0
M  V30 2673 C 266.237 1.60254 -1.37411 0
M  V30 2674 O 265.585 2.2152 -0.560458 0
M  V30 2675 C 265.795 0.17091 -3.48581 0
M  V30 2676 C 267.143 0.377357 -4.2292 0
M  V30 2677 O 268.167 0.249104 -3.55328 0
M  V30 2678 O 267.026 0.63247 -5.42828 0
M  V30 2679 H 264.12 0.130932 -0.816569 0
M  V30 2680 H 266.666 -0.4934 -1.62369 0
M  V30 2681 H 265.438 -0.815738 -3.82703 0
M  V30 2682 H 265.061 0.898659 -3.87311 0
M  V30 2683 N 266.058 1.56714 -0.166846 0
M  V30 2684 C 267.304 1.97039 0.479962 0
M  V30 2685 C 267.637 1.05264 1.63197 0
M  V30 2686 O 266.912 0.0988833 1.94248 0
M  V30 2687 C 267.195 3.46867 0.967212 0
M  V30 2688 C 267.048 4.49421 -0.18466 0
M  V30 2689 C 268.367 3.9968 1.84238 0
M  V30 2690 H 265.486 0.71641 0.172992 0
M  V30 2691 H 268.128 1.8832 -0.252079 0
M  V30 2692 H 266.278 3.54428 1.59101 0
M  V30 2693 H 267.95 4.53924 -0.821621 0
M  V30 2694 H 266.193 4.25573 -0.840837 0
M  V30 2695 H 266.864 5.51644 0.198317 0
M  V30 2696 H 269.34 3.94723 1.31655 0
M  V30 2697 H 268.216 5.04941 2.15234 0
M  V30 2698 H 268.477 3.43226 2.78654 0
M  V30 2699 N 267.536 -0.106894 1.57237 0
M  V30 2700 C 268.764 -0.826389 1.8968 0
M  V30 2701 C 269.179 -1.72856 0.759353 0
M  V30 2702 O 268.536 -1.80503 -0.269263 0
M  V30 2703 C 268.587 -1.64967 3.21665 0
M  V30 2704 O 268.308 -0.783804 4.31031 0
M  V30 2705 C 269.809 -2.47326 3.67892 0
M  V30 2706 H 267.029 -0.236927 0.627779 0
M  V30 2707 H 269.573 -0.0876593 2.04312 0
M  V30 2708 H 267.728 -2.34103 3.08666 0
M  V30 2709 H 268.142 -1.35284 5.06753 0
M  V30 2710 H 269.616 -3.00604 4.6297 0
M  V30 2711 H 270.093 -3.25247 2.95146 0
M  V30 2712 H 270.699 -1.83411 3.83719 0
M  V30 2713 N 269.014 -1.53014 -0.377408 0
M  V30 2714 C 270.26 -1.68872 -1.12294 0
M  V30 2715 C 270.593 -0.433224 -1.89306 0
M  V30 2716 O 269.868 0.569258 -1.85983 0
M  V30 2717 C 270.151 -2.93115 -2.09179 0
M  V30 2718 C 270.004 -4.28794 -1.35853 0
M  V30 2719 C 271.323 -3.12928 -3.09458 0
M  V30 2720 H 268.442 -0.614518 -0.406862 0
M  V30 2721 H 271.084 -1.85633 -0.40503 0
M  V30 2722 H 269.234 -2.78956 -2.70399 0
M  V30 2723 H 270.906 -4.54742 -0.775082 0
M  V30 2724 H 269.149 -4.28744 -0.660364 0
M  V30 2725 H 269.82 -5.11837 -2.06706 0
M  V30 2726 H 272.296 -3.26194 -2.58334 0
M  V30 2727 H 271.172 -4.01316 -3.74482 0
M  V30 2728 H 271.433 -2.27669 -3.78971 0
M  V30 2729 N 270.492 0.636531 -1.44174 0
M  V30 2730 C 271.903 1.21806 -1.41493 0
M  V30 2731 C 272.254 1.95785 -0.1275 0
M  V30 2732 O 271.379 2.02147 0.772376 0
M  V30 2733 C 271.974 2.21551 -2.56321 0
M  V30 2734 C 270.533 2.75143 -2.56853 0
M  V30 2735 C 269.68 1.50052 -2.33195 0
M  V30 2736 H 272.631 0.427531 -1.52833 0
M  V30 2737 H 272.652 3.0405 -2.28765 0
M  V30 2738 H 272.164 1.67679 -3.50008 0
M  V30 2739 H 270.265 3.33033 -1.67093 0
M  V30 2740 H 270.378 3.2155 -3.55165 0
M  V30 2741 H 268.742 1.77993 -1.82183 0
M  V30 2742 H 269.525 0.980903 -3.28988 0
M  V30 2743 N 271.97 1.30982 0.876444 0
M  V30 2744 C 272.933 1.18054 1.96459 0
M  V30 2745 C 273.933 0.109399 1.60427 0
M  V30 2746 O 275.123 0.358173 1.70478 0
M  V30 2747 C 272.255 0.810616 3.31122 0
M  V30 2748 H 273.448 2.14735 2.09354 0
M  V30 2749 H 271.001 1.145 1.06392 0
M  V30 2750 H 271.736 -0.155322 3.23928 0
M  V30 2751 H 271.521 1.58481 3.58645 0
M  V30 2752 H 273.011 0.743876 4.10921 0
M  V30 2753 N 273.449 -1.08991 1.13837 0
M  V30 2754 C 274.679 -1.84743 0.924859 0
M  V30 2755 C 275.087 -1.81629 -0.529874 0
M  V30 2756 O 274.43 -1.21397 -1.37872 0
M  V30 2757 C 274.492 -3.33568 1.34061 0
M  V30 2758 C 274.156 -3.60425 2.80968 0
M  V30 2759 C 275.153 -3.55771 3.79108 0
M  V30 2760 C 272.838 -3.88627 3.18236 0
M  V30 2761 C 274.832 -3.78939 5.12527 0
M  V30 2762 C 272.519 -4.11449 4.51833 0
M  V30 2763 C 273.517 -4.06598 5.48787 0
M  V30 2764 O 273.205 -4.28826 6.79973 0
M  V30 2765 H 272.937 -0.590258 0.329502 0
M  V30 2766 H 275.491 -1.38598 1.51591 0
M  V30 2767 H 273.721 -3.80442 0.692853 0
M  V30 2768 H 275.41 -3.90743 1.09886 0
M  V30 2769 H 276.176 -3.34005 3.51661 0
M  V30 2770 H 272.055 -3.91526 2.43369 0
M  V30 2771 H 275.599 -3.75068 5.88192 0
M  V30 2772 H 271.496 -4.32698 4.79002 0
M  V30 2773 H 272.264 -4.46264 6.86142 0
M  V30 2774 N 274.927 -0.932562 -1.27047 0
M  V30 2775 C 276.174 -0.575559 -1.94148 0
M  V30 2776 C 276.502 0.883984 -1.73251 0
M  V30 2777 O 275.757 1.64655 -1.0577 0
M  V30 2778 C 276.056 -0.853713 -3.47054 0
M  V30 2779 C 275.722 -2.29577 -3.88079 0
M  V30 2780 C 274.384 -2.68999 -3.9899 0
M  V30 2781 C 276.736 -3.23331 -4.08787 0
M  V30 2782 C 274.064 -4.01289 -4.28 0
M  V30 2783 C 276.416 -4.55207 -4.39282 0
M  V30 2784 C 275.08 -4.94457 -4.48407 0
M  V30 2785 H 274.35 -0.210612 -0.710439 0
M  V30 2786 H 276.997 -1.17744 -1.51025 0
M  V30 2787 H 275.302 -0.169204 -3.91434 0
M  V30 2788 H 276.999 -0.55639 -3.97121 0
M  V30 2789 H 273.589 -1.97994 -3.80127 0
M  V30 2790 H 277.773 -2.94074 -3.99793 0
M  V30 2791 H 273.029 -4.31374 -4.33275 0
M  V30 2792 H 277.203 -5.27852 -4.54252 0
M  V30 2793 H 274.83 -5.96994 -4.7064 0
M  V30 2794 N 276.405 1.4127 -0.698611 0
M  V30 2795 C 277.335 2.33447 -0.049629 0
M  V30 2796 C 278.316 1.51982 0.763898 0
M  V30 2797 O 279.501 1.80509 0.716257 0
M  V30 2798 C 276.631 3.35828 0.885267 0
M  V30 2799 C 275.585 4.27627 0.178613 0
M  V30 2800 C 274.911 5.20406 1.22807 0
M  V30 2801 C 276.211 5.13459 -0.956933 0
M  V30 2802 H 277.905 2.87966 -0.81951 0
M  V30 2803 H 275.451 1.38461 -0.395538 0
M  V30 2804 H 277.404 3.9924 1.34854 0
M  V30 2805 H 276.128 2.79666 1.68685 0
M  V30 2806 H 274.787 3.65643 -0.26466 0
M  V30 2807 H 274.435 4.60558 2.02226 0
M  V30 2808 H 274.135 5.82661 0.760239 0
M  V30 2809 H 275.659 5.86695 1.69179 0
M  V30 2810 H 277.073 5.70421 -0.573805 0
M  V30 2811 H 275.47 5.8467 -1.35205 0
M  V30 2812 H 276.54 4.50443 -1.79524 0
M  V30 2813 N 277.883 0.443576 1.51229 0
M  V30 2814 C 278.833 -0.382787 2.24764 0
M  V30 2815 C 279.817 -0.984836 1.27239 0
M  V30 2816 O 281.009 -0.901943 1.52296 0
M  V30 2817 C 278.138 -1.47989 3.09765 0
M  V30 2818 C 277.224 -0.886931 4.14722 0
M  V30 2819 N 277.615 -0.0237103 5.05794 0
M  V30 2820 C 275.913 -1.15385 4.30816 0
M  V30 2821 C 276.614 0.309971 5.80874 0
M  V30 2822 N 275.59 -0.307989 5.42727 0
M  V30 2823 H 279.392 0.282624 2.92538 0
M  V30 2824 H 276.906 0.256027 1.60369 0
M  V30 2825 H 278.903 -2.08482 3.61027 0
M  V30 2826 H 277.563 -2.14758 2.43535 0
M  V30 2827 H 278.574 0.34318 5.16762 0
M  V30 2828 H 275.251 -1.81857 3.75812 0
M  V30 2829 H 276.641 1.01279 6.64223 0
M  V30 2830 N 279.361 -1.56624 0.175154 0
M  V30 2831 C 280.601 -1.98894 -0.471221 0
M  V30 2832 C 280.965 -1.05889 -1.60161 0
M  V30 2833 O 282.166 -1.37315 -2.3108 0
M  V30 2834 C 280.437 -3.44865 -0.938241 0
M  V30 2835 S 281.996 -4.09164 -1.58526 0
M  V30 2836 H 278.814 -0.694686 -0.151434 0
M  V30 2837 H 281.416 -1.93577 0.27352 0
M  V30 2838 H 280.12 -4.10265 -0.10518 0
M  V30 2839 H 279.651 -3.53956 -1.71693 0
M  V30 2840 H 281.666 -4.04528 -2.87352 0
M  V30 2841 N 280.839 0.0985539 -1.57292 0
M  V30 2842 C 281.787 1.1387 -2.02821 0
M  V30 2843 C 282.781 1.41676 -0.928666 0
M  V30 2844 O 283.987 1.41398 -1.11385 0
M  V30 2845 H 280.362 0.384419 -0.646317 0
M  V30 2846 H 282.333 0.728347 -2.89375 0
M  V30 2847 C 281.082 2.45166 -2.46554 0
M  V30 2848 H 280.405 2.24613 -3.3074 0
M  V30 2849 H 281.845 3.16456 -2.8219 0
M  V30 2850 C 280.304 3.09216 -1.33742 0
M  V30 2851 O 280.834 3.96163 -0.66464 0
M  V30 2852 N 279.04 2.69413 -1.08928 0
M  V30 2853 H 278.587 1.98801 -1.63817 0
M  V30 2854 H 278.545 3.12594 -0.336458 0
M  V30 2855 N 282.317 1.53212 0.369288 0
M  V30 2856 C 283.227 1.82342 1.47609 0
M  V30 2857 C 284.243 0.711532 1.58787 0
M  V30 2858 O 285.419 1.0012 1.74751 0
M  V30 2859 C 282.484 2.00393 2.8292 0
M  V30 2860 C 281.545 3.24297 2.81301 0
M  V30 2861 C 280.778 3.41478 4.10157 0
M  V30 2862 O 281.001 2.63033 5.06132 0
M  V30 2863 O 279.935 4.34817 4.16194 0
M  V30 2864 H 283.761 2.76366 1.25918 0
M  V30 2865 H 281.346 1.38547 0.559034 0
M  V30 2866 H 283.228 2.13859 3.63101 0
M  V30 2867 H 281.903 1.09559 3.04596 0
M  V30 2868 H 280.81 3.16257 1.99831 0
M  V30 2869 H 282.143 4.15041 2.64578 0
M  V30 2870 N 283.795 -0.628877 1.44509 0
M  V30 2871 C 285.211 -0.947305 1.28446 0
M  V30 2872 C 285.411 -2.00275 0.221872 0
M  V30 2873 O 284.467 -2.49447 -0.391471 0
M  V30 2874 C 285.78 -1.40843 2.65676 0
M  V30 2875 C 287.328 -1.52379 2.73404 0
M  V30 2876 C 287.803 -2.01875 4.11109 0
M  V30 2877 N 289.294 -2.09142 4.13296 0
M  V30 2878 C 290.029 -2.48615 5.16699 0
M  V30 2879 N 289.525 -2.87209 6.30462 0
M  V30 2880 N 291.318 -2.48768 5.04054 0
M  V30 2881 H 283.469 0.0690977 2.12288 0
M  V30 2882 H 285.732 -0.0317164 0.947469 0
M  V30 2883 H 285.438 -0.707206 3.44516 0
M  V30 2884 H 285.312 -2.37902 2.92716 0
M  V30 2885 H 287.699 -2.21598 1.9488 0
M  V30 2886 H 287.78 -0.536898 2.50102 0
M  V30 2887 H 287.424 -1.3325 4.90109 0
M  V30 2888 H 287.354 -3.0144 4.31789 0
M  V30 2889 H 289.845 -1.81991 3.31191 0
M  V30 2890 H 290.158 -3.16149 7.05174 0
M  V30 2891 H 288.503 -2.84955 6.33897 0
M  V30 2892 H 291.694 -2.18009 4.14234 0
M  V30 2893 H 291.867 -2.79207 5.84763 0
M  V30 2894 N 285.273 -1.31445 -0.869486 0
M  V30 2895 C 286.223 -1.15731 -1.96444 0
M  V30 2896 C 287.207 -0.0681855 -1.60755 0
M  V30 2897 O 288.399 -0.293154 -1.74555 0
M  V30 2898 C 285.528 -0.867255 -3.32165 0
M  V30 2899 C 284.614 -1.99738 -3.74119 0
M  V30 2900 N 285.005 -3.24447 -3.88031 0
M  V30 2901 C 283.303 -1.89723 -4.03635 0
M  V30 2902 C 284.004 -3.98374 -4.23879 0
M  V30 2903 N 282.98 -3.26547 -4.3459 0
M  V30 2904 H 286.782 -2.10296 -2.05312 0
M  V30 2905 H 284.296 -1.23009 -1.06031 0
M  V30 2906 H 286.293 -0.735668 -4.10358 0
M  V30 2907 H 284.953 0.0701614 -3.24624 0
M  V30 2908 H 285.964 -3.59557 -3.72746 0
M  V30 2909 H 282.641 -1.03449 -4.04481 0
M  V30 2910 H 284.031 -5.05844 -4.42235 0
M  V30 2911 N 286.751 1.08385 -1.14413 0
M  V30 2912 C 287.701 2.13509 -0.79987 0
M  V30 2913 C 288.685 1.5951 0.211059 0
M  V30 2914 O 289.877 1.76995 0.0133694 0
M  V30 2915 C 287.006 3.42162 -0.279297 0
M  V30 2916 C 286.092 4.03042 -1.31976 0
M  V30 2917 N 286.483 4.38327 -2.52395 0
M  V30 2918 C 284.781 4.30379 -1.17004 0
M  V30 2919 C 285.482 4.86428 -3.19003 0
M  V30 2920 N 284.458 4.84547 -2.46405 0
M  V30 2921 H 288.26 2.38609 -1.7159 0
M  V30 2922 H 285.774 1.2572 -1.02802 0
M  V30 2923 H 287.771 4.16898 -0.0143688 0
M  V30 2924 H 286.431 3.18511 0.630923 0
M  V30 2925 H 287.442 4.29349 -2.89621 0
M  V30 2926 H 284.119 4.16281 -0.318854 0
M  V30 2927 H 285.509 5.23107 -4.21674 0
M  V30 2928 N 288.23 0.939286 1.26551 0
M  V30 2929 C 289.458 0.602536 1.97932 0
M  V30 2930 C 289.873 -0.82206 1.69964 0
M  V30 2931 O 289.23 -1.54789 0.966784 0
M  V30 2932 C 289.281 0.832946 3.51773 0
M  V30 2933 O 289.002 2.20151 3.78768 0
M  V30 2934 C 290.503 0.506483 4.40397 0
M  V30 2935 H 287.723 0.227248 0.631347 0
M  V30 2936 H 290.267 1.25948 1.61113 0
M  V30 2937 H 288.422 0.222644 3.8676 0
M  V30 2938 H 288.836 2.26013 4.73306 0
M  V30 2939 H 290.31 0.718333 5.47306 0
M  V30 2940 H 290.787 -0.558451 4.35635 0
M  V30 2941 H 291.393 1.09543 4.10951 0
M  V30 2942 N 289.708 -1.40897 0.706093 0
M  V30 2943 C 290.638 -2.33418 0.0620085 0
M  V30 2944 C 291.619 -1.52385 -0.755827 0
M  V30 2945 O 292.804 -1.80886 -0.706674 0
M  V30 2946 C 289.934 -3.36293 -0.867445 0
M  V30 2947 C 288.888 -4.27716 -0.155932 0
M  V30 2948 C 288.214 -5.2105 -1.20046 0
M  V30 2949 C 289.514 -5.12944 0.984149 0
M  V30 2950 H 291.208 -2.87527 0.83477 0
M  V30 2951 H 288.754 -1.38249 0.402875 0
M  V30 2952 H 290.707 -3.99949 -1.32735 0
M  V30 2953 H 289.431 -2.80556 -1.67199 0
M  V30 2954 H 288.09 -3.65498 0.284047 0
M  V30 2955 H 287.738 -4.61624 -1.99781 0
M  V30 2956 H 287.438 -5.83056 -0.729328 0
M  V30 2957 H 288.962 -5.87584 -1.66066 0
M  V30 2958 H 290.376 -5.70109 0.604048 0
M  V30 2959 H 288.773 -5.83945 1.38304 0
M  V30 2960 H 289.843 -4.49485 1.81911 0
M  V30 2961 N 291.186 -0.45159 -1.50991 0
M  V30 2962 C 292.149 0.341117 -2.26647 0
M  V30 2963 C 293.149 0.937422 -1.30649 0
M  V30 2964 O 294.339 0.809644 -1.54241 0
M  V30 2965 C 291.471 1.48398 -3.06905 0
M  V30 2966 H 292.664 -0.322117 -2.98165 0
M  V30 2967 H 290.217 -0.205122 -1.54948 0
M  V30 2968 H 290.952 2.18284 -2.39838 0
M  V30 2969 H 290.737 1.06241 -3.77432 0
M  V30 2970 H 292.227 2.04367 -3.64176 0
M  V30 2971 N 292.664 1.56529 -0.183458 0
M  V30 2972 C 293.913 1.96419 0.458511 0
M  V30 2973 C 294.226 1.0727 1.63562 0
M  V30 2974 O 295.432 1.36893 2.34462 0
M  V30 2975 C 293.888 3.49298 0.867122 0
M  V30 2976 C 293.496 4.47092 -0.285057 0
M  V30 2977 C 295.24 3.97983 1.47683 0
M  V30 2978 C 293.147 5.91225 0.143862 0
M  V30 2979 H 292.077 0.733394 0.175071 0
M  V30 2980 H 294.728 1.81448 -0.273624 0
M  V30 2981 H 293.11 3.59731 1.65559 0
M  V30 2982 H 294.284 4.48383 -1.0625 0
M  V30 2983 H 292.599 4.08535 -0.805503 0
M  V30 2984 H 295.196 5.03134 1.80999 0
M  V30 2985 H 295.539 3.41618 2.37914 0
M  V30 2986 H 296.072 3.90617 0.752562 0
M  V30 2987 H 292.811 6.5149 -0.723974 0
M  V30 2988 H 292.331 5.93214 0.886413 0
M  V30 2989 H 294.01 6.44362 0.583628 0
M  V30 2990 N 294.142 -0.090211 1.57342 0
M  V30 2991 C 295.105 -1.09335 2.01441 0
M  V30 2992 C 296.105 -1.32666 0.908641 0
M  V30 2993 O 297.295 -1.28697 1.174 0
M  V30 2994 C 294.427 -2.44136 2.3793 0
M  V30 2995 H 295.62 -0.713662 2.91285 0
M  V30 2996 H 293.173 -0.335404 1.52659 0
M  V30 2997 H 293.908 -2.86972 1.51055 0
M  V30 2998 H 293.693 -2.28548 3.18603 0
M  V30 2999 H 295.183 -3.16277 2.72688 0
M  V30 3000 N 295.62 -1.53406 -0.361157 0
M  V30 3001 C 296.583 -1.79479 -1.42548 0
M  V30 3002 C 297.583 -0.665327 -1.4639 0
M  V30 3003 O 298.773 -0.933549 -1.47073 0
M  V30 3004 C 295.905 -1.92087 -2.8163 0
M  V30 3005 H 297.098 -2.74538 -1.20701 0
M  V30 3006 H 294.651 -1.4455 -0.594546 0
M  V30 3007 H 295.386 -0.991099 -3.08784 0
M  V30 3008 H 295.171 -2.74241 -2.80239 0
M  V30 3009 H 296.661 -2.13836 -3.58697 0
M  V30 3010 N 297.098 0.621204 -1.44841 0
M  V30 3011 C 298.345 1.38055 -1.48145 0
M  V30 3012 C 298.673 1.94143 -0.117867 0
M  V30 3013 O 297.928 1.74713 0.881694 0
M  V30 3014 C 298.227 2.55675 -2.4973 0
M  V30 3015 C 297.893 2.17817 -3.94799 0
M  V30 3016 C 296.555 2.07205 -4.34303 0
M  V30 3017 C 298.907 1.88065 -4.86087 0
M  V30 3018 C 296.235 1.65045 -5.63007 0
M  V30 3019 C 298.587 1.47394 -6.15189 0
M  V30 3020 C 297.251 1.35331 -6.53637 0
M  V30 3021 H 296.521 0.505181 -0.542101 0
M  V30 3022 H 299.168 0.703477 -1.78111 0
M  V30 3023 H 297.473 3.2866 -2.13284 0
M  V30 3024 H 299.17 3.13904 -2.4953 0
M  V30 3025 H 295.76 2.26998 -3.63552 0
M  V30 3026 H 299.944 1.95168 -4.56315 0
M  V30 3027 H 295.2 1.54317 -5.91605 0
M  V30 3028 H 299.374 1.23415 -6.85377 0
M  V30 3029 H 297.001 1.02435 -7.53267 0
M  V30 3030 N 298.576 1.31904 0.862503 0
M  V30 3031 C 299.987 1.19803 1.43193 0
M  V30 3032 C 300.338 -0.192567 1.95253 0
M  V30 3033 O 299.463 -1.09081 1.86896 0
M  V30 3034 C 300.058 2.16883 2.60283 0
M  V30 3035 C 298.617 2.08692 3.13248 0
M  V30 3036 C 297.764 2.05691 1.85975 0
M  V30 3037 H 300.715 1.43846 0.670365 0
M  V30 3038 H 300.736 1.76278 3.37204 0
M  V30 3039 H 300.248 3.18083 2.22363 0
M  V30 3040 H 298.349 1.10713 3.55771 0
M  V30 3041 H 298.462 2.9815 3.75025 0
M  V30 3042 H 296.826 1.50814 2.05249 0
M  V30 3043 H 297.609 3.08659 1.50282 0
M  V30 3044 N 300.054 -1.07777 1.14986 0
M  V30 3045 C 300.984 -2.16865 0.865557 0
M  V30 3046 C 301.965 -1.69123 -0.182083 0
M  V30 3047 O 303.15 -1.94164 -0.0373815 0
M  V30 3048 C 300.28 -3.45539 0.349313 0
M  V30 3049 C 299.234 -4.06708 1.33313 0
M  V30 3050 C 298.56 -5.30411 0.675918 0
M  V30 3051 C 299.86 -4.47241 2.69764 0
M  V30 3052 H 301.554 -2.40905 1.77778 0
M  V30 3053 H 299.1 -1.15781 0.856203 0
M  V30 3054 H 301.053 -4.21174 0.137983 0
M  V30 3055 H 299.777 -3.21072 -0.598362 0
M  V30 3056 H 298.436 -3.33112 1.53075 0
M  V30 3057 H 298.084 -5.02232 -0.277767 0
M  V30 3058 H 297.784 -5.72293 1.33244 0
M  V30 3059 H 299.308 -6.08755 0.474262 0
M  V30 3060 H 300.722 -5.14025 2.53873 0
M  V30 3061 H 299.119 -5.00062 3.3175 0
M  V30 3062 H 300.189 -3.58818 3.26156 0
M  V30 3063 N 301.532 -0.945985 -1.26051 0
M  V30 3064 C 302.943 -0.638096 -1.75457 0
M  V30 3065 C 303.294 0.846672 -1.76991 0
M  V30 3066 O 302.419 1.66262 -1.38513 0
M  V30 3067 C 303.014 -1.15157 -3.18629 0
M  V30 3068 C 301.573 -0.894004 -3.65629 0
M  V30 3069 C 300.72 -1.29967 -2.44957 0
M  V30 3070 H 303.671 -1.12376 -1.1206 0
M  V30 3071 H 303.692 -0.507615 -3.77099 0
M  V30 3072 H 303.204 -2.23222 -3.1748 0
M  V30 3073 H 301.305 0.172057 -3.72203 0
M  V30 3074 H 301.418 -1.52439 -4.54202 0
M  V30 3075 H 299.782 -0.718078 -2.44368 0
M  V30 3076 H 300.565 -2.38935 -2.46505 0
M  V30 3077 N 303.011 1.40521 -0.713556 0
M  V30 3078 C 303.958 2.30723 -0.059684 0
M  V30 3079 C 304.928 1.48079 0.752448 0
M  V30 3080 O 306.113 1.76823 0.71681 0
M  V30 3081 C 303.253 3.34274 0.857594 0
M  V30 3082 C 302.366 4.31986 0.0351536 0
M  V30 3083 C 301.501 5.22605 0.951724 0
M  V30 3084 C 300.54 6.11976 0.123253 0
M  V30 3085 N 299.677 6.9502 0.99459 0
M  V30 3086 H 304.517 2.86074 -0.834596 0
M  V30 3087 H 302.054 1.40879 -0.42326 0
M  V30 3088 H 304.012 3.92879 1.40364 0
M  V30 3089 H 302.642 2.8043 1.59871 0
M  V30 3090 H 301.694 3.7518 -0.628052 0
M  V30 3091 H 303.006 4.95101 -0.606347 0
M  V30 3092 H 302.16 5.86131 1.56638 0
M  V30 3093 H 300.899 4.59759 1.62705 0
M  V30 3094 H 299.904 5.47482 -0.50435 0
M  V30 3095 H 301.129 6.76881 -0.548539 0
M  V30 3096 H 299.075 6.34764 1.6556 0
M  V30 3097 H 298.992 7.54892 0.40908 0
M  V30 3098 H 300.26 7.62997 1.59549 0
M  V30 3099 N 304.489 0.459591 1.5075 0
M  V30 3100 C 305.905 0.113092 1.59199 0
M  V30 3101 C 306.105 -1.37951 1.46874 0
M  V30 3102 O 305.161 -2.15168 1.32132 0
M  V30 3103 C 306.474 0.653043 2.93523 0
M  V30 3104 C 308.022 0.615449 3.0689 0
M  V30 3105 C 308.497 1.13275 4.43771 0
M  V30 3106 N 309.988 1.09167 4.50152 0
M  V30 3107 C 310.723 1.46256 5.54434 0
M  V30 3108 N 310.219 1.90739 6.66026 0
M  V30 3109 N 312.012 1.37932 5.44914 0
M  V30 3110 H 304.163 1.43049 1.57005 0
M  V30 3111 H 306.426 0.590861 0.741341 0
M  V30 3112 H 306.132 1.69822 3.07983 0
M  V30 3113 H 306.006 0.0902132 3.77092 0
M  V30 3114 H 308.393 -0.420793 2.92084 0
M  V30 3115 H 308.474 1.21495 2.25106 0
M  V30 3116 H 308.118 2.16757 4.59324 0
M  V30 3117 H 308.048 0.509576 5.24129 0
M  V30 3118 H 310.539 0.76528 3.7007 0
M  V30 3119 H 310.852 2.17218 7.41644 0
M  V30 3120 H 309.197 1.94683 6.67176 0
M  V30 3121 H 312.388 1.0303 4.56621 0
M  V30 3122 H 312.561 1.67164 6.26067 0
M  V30 3123 N 305.967 -1.56429 0.191757 0
M  V30 3124 C 307.216 -1.9666 -0.448088 0
M  V30 3125 C 307.529 -1.08136 -1.62991 0
M  V30 3126 O 308.735 -1.38135 -2.33733 0
M  V30 3127 C 307.191 -3.49753 -0.848585 0
M  V30 3128 C 306.799 -4.46935 0.308764 0
M  V30 3129 C 308.543 -3.9876 -1.4557 0
M  V30 3130 C 306.45 -5.91293 -0.112506 0
M  V30 3131 H 305.38 -0.734312 -0.171179 0
M  V30 3132 H 308.031 -1.81301 0.283242 0
M  V30 3133 H 306.413 -3.60604 -1.63649 0
M  V30 3134 H 307.587 -4.47813 1.08627 0
M  V30 3135 H 305.902 -4.08102 0.827158 0
M  V30 3136 H 308.499 -5.04086 -1.78328 0
M  V30 3137 H 308.842 -3.42875 -2.36099 0
M  V30 3138 H 309.375 -3.9101 -0.731836 0
M  V30 3139 H 306.114 -6.51097 0.758514 0
M  V30 3140 H 305.634 -5.93676 -0.854941 0
M  V30 3141 H 307.313 -6.44663 -0.549448 0
M  V30 3142 N 307.445 0.0818655 -1.57387 0
M  V30 3143 C 308.395 1.10501 -1.99433 0
M  V30 3144 C 309.379 1.35041 -0.874798 0
M  V30 3145 O 310.571 1.35511 -1.13868 0
M  V30 3146 C 307.7 2.42159 -2.43339 0
M  V30 3147 C 306.786 2.20937 -3.62005 0
M  V30 3148 N 307.177 1.69616 -4.76512 0
M  V30 3149 C 305.475 2.51451 -3.68359 0
M  V30 3150 C 306.176 1.62973 -5.58404 0
M  V30 3151 N 305.152 2.08664 -5.01956 0
M  V30 3152 H 308.954 0.701373 -2.85408 0
M  V30 3153 H 306.468 0.289096 -1.59806 0
M  V30 3154 H 308.465 3.16208 -2.71695 0
M  V30 3155 H 307.125 2.83249 -1.58746 0
M  V30 3156 H 308.136 1.38624 -4.99003 0
M  V30 3157 H 304.813 2.95975 -2.94457 0
M  V30 3158 H 306.203 1.24233 -6.60315 0
M  V30 3159 N 308.923 1.53595 0.353017 0
M  V30 3160 C 309.873 1.77299 1.43349 0
M  V30 3161 C 310.857 0.627884 1.48143 0
M  V30 3162 O 312.049 0.88697 1.53173 0
M  V30 3163 C 309.178 1.97757 2.80619 0
M  V30 3164 C 308.264 3.18305 2.80254 0
M  V30 3165 N 308.655 4.39967 2.49526 0
M  V30 3166 C 306.953 3.19283 3.11407 0
M  V30 3167 C 307.654 5.21772 2.57156 0
M  V30 3168 N 306.63 4.58269 2.92388 0
M  V30 3169 H 310.432 2.68963 1.18474 0
M  V30 3170 H 307.946 1.52391 0.561306 0
M  V30 3171 H 309.943 2.1287 3.58458 0
M  V30 3172 H 308.603 1.07329 3.06448 0
M  V30 3173 H 309.614 4.67482 2.22893 0
M  V30 3174 H 306.291 2.3879 3.4247 0
M  V30 3175 H 307.681 6.2885 2.36638 0
M  V30 3176 N 310.401 -0.613514 1.45168 0
M  V30 3177 C 311.648 -1.37268 1.48875 0
M  V30 3178 C 311.976 -1.94077 0.128161 0
M  V30 3179 O 311.231 -1.75178 -0.872416 0
M  V30 3180 C 311.53 -2.54347 2.51083 0
M  V30 3181 C 311.196 -2.1572 3.95949 0
M  V30 3182 C 309.858 -2.04899 4.35396 0
M  V30 3183 C 312.21 -1.85485 4.87078 0
M  V30 3184 C 309.538 -1.62057 5.63875 0
M  V30 3185 C 311.89 -1.4413 6.15962 0
M  V30 3186 C 310.554 -1.31863 6.54346 0
M  V30 3187 H 309.824 -0.502299 0.544773 0
M  V30 3188 H 312.471 -0.694021 1.78481 0
M  V30 3189 H 310.776 -3.27524 2.15024 0
M  V30 3190 H 312.473 -3.12577 2.51191 0
M  V30 3191 H 309.063 -2.25066 3.64751 0
M  V30 3192 H 313.247 -1.92745 4.57343 0
M  V30 3193 H 308.503 -1.51177 5.92415 0
M  V30 3194 H 312.677 -1.19778 6.86022 0
M  V30 3195 H 310.304 -0.984392 7.538 0
M  V30 3196 N 311.879 -1.3236 -0.855495 0
M  V30 3197 C 312.812 -1.15559 -1.96777 0
M  V30 3198 C 313.79 -0.0552681 -1.62506 0
M  V30 3199 O 314.974 -0.214419 -1.87277 0
M  V30 3200 C 312.101 -0.768851 -3.29858 0
M  V30 3201 C 311.147 -1.87429 -3.83109 0
M  V30 3202 S 311.98 -3.48243 -4.06801 0
M  V30 3203 C 313.136 -3.11539 -5.42858 0
M  V30 3204 H 313.369 -2.09717 -2.10727 0
M  V30 3205 H 310.902 -1.17011 -1.00737 0
M  V30 3206 H 312.86 -0.55248 -4.06765 0
M  V30 3207 H 311.521 0.153857 -3.13723 0
M  V30 3208 H 310.714 -1.55667 -4.79358 0
M  V30 3209 H 310.316 -2.04647 -3.13042 0
M  V30 3210 H 312.608 -2.61331 -6.2507 0
M  V30 3211 H 313.551 -4.06806 -5.79582 0
M  V30 3212 H 313.959 -2.48582 -5.06821 0
M  V30 3213 N 313.357 1.07166 -1.15556 0
M  V30 3214 C 314.287 2.16403 -0.877046 0
M  V30 3215 C 315.268 1.69217 0.173111 0
M  V30 3216 O 316.453 1.94181 0.027084 0
M  V30 3217 C 313.583 3.45349 -0.367632 0
M  V30 3218 C 312.537 4.05995 -1.35468 0
M  V30 3219 C 311.863 5.30045 -0.704038 0
M  V30 3220 C 313.163 4.45804 -2.72132 0
M  V30 3221 H 314.857 2.39959 -1.79053 0
M  V30 3222 H 312.403 1.15325 -0.862331 0
M  V30 3223 H 314.356 4.21095 -0.160317 0
M  V30 3224 H 313.08 3.21385 0.581326 0
M  V30 3225 H 311.739 3.32296 -1.54839 0
M  V30 3226 H 311.387 5.02373 0.251128 0
M  V30 3227 H 311.087 5.71579 -1.36277 0
M  V30 3228 H 312.611 6.08495 -0.50654 0
M  V30 3229 H 314.025 5.12671 -2.56595 0
M  V30 3230 H 312.422 4.98296 -3.34397 0
M  V30 3231 H 313.492 3.57083 -3.28054 0
M  V30 3232 N 314.835 0.952656 1.25548 0
M  V30 3233 C 315.745 0.47782 2.29682 0
M  V30 3234 C 316.761 -0.453859 1.67977 0
M  V30 3235 O 317.937 -0.330587 1.98668 0
M  V30 3236 C 315.002 -0.238655 3.45878 0
M  V30 3237 C 314.063 0.730994 4.23031 0
M  V30 3238 C 313.296 0.0486165 5.33678 0
M  V30 3239 O 313.519 -1.16612 5.58353 0
M  V30 3240 O 312.453 0.733152 5.97418 0
M  V30 3241 H 316.279 1.34312 2.72386 0
M  V30 3242 H 313.864 0.719026 1.30959 0
M  V30 3243 H 315.746 -0.641774 4.16484 0
M  V30 3244 H 314.421 -1.07916 3.05181 0
M  V30 3245 H 313.328 1.18428 3.5486 0
M  V30 3246 H 314.661 1.53946 4.67506 0
M  V30 3247 N 316.313 -1.40141 0.720998 0
M  V30 3248 C 317.559 -2.01084 0.263231 0
M  V30 3249 C 317.892 -1.57052 -1.14229 0
M  V30 3250 O 317.167 -0.793027 -1.77599 0
M  V30 3251 C 317.45 -3.58401 0.349344 0
M  V30 3252 C 317.303 -4.12491 1.79363 0
M  V30 3253 C 318.622 -4.39231 -0.276351 0
M  V30 3254 H 315.741 -0.730572 0.0971228 0
M  V30 3255 H 318.383 -1.66543 0.914518 0
M  V30 3256 H 316.533 -3.87958 -0.205165 0
M  V30 3257 H 318.205 -3.93711 2.40394 0
M  V30 3258 H 316.448 -3.66576 2.31958 0
M  V30 3259 H 317.119 -5.21646 1.80524 0
M  V30 3260 H 319.595 -4.15637 0.196184 0
M  V30 3261 H 318.471 -5.48586 -0.185681 0
M  V30 3262 H 318.732 -4.20643 -1.36059 0
M  V30 3263 N 317.792 -0.46758 -1.50504 0
M  V30 3264 C 318.755 0.317059 -2.26996 0
M  V30 3265 C 319.755 0.923513 -1.31635 0
M  V30 3266 O 320.945 0.793239 -1.55091 0
M  V30 3267 C 318.077 1.45134 -3.08462 0
M  V30 3268 H 319.27 -0.353723 -2.97807 0
M  V30 3269 H 316.823 -0.221545 -1.54722 0
M  V30 3270 H 317.558 2.15728 -2.4214 0
M  V30 3271 H 317.343 1.02232 -3.78538 0
M  V30 3272 H 318.833 2.00493 -3.66323 0
M  V30 3273 N 319.27 1.56325 -0.20005 0
M  V30 3274 C 320.495 2.02548 0.44597 0
M  V30 3275 C 320.92 1.07922 1.5406 0
M  V30 3276 O 320.278 0.0635775 1.81188 0
M  V30 3277 C 320.326 3.47175 0.974761 0
M  V30 3278 O 319.43 3.55671 2.08739 0
M  V30 3279 H 318.771 0.655862 0.103638 0
M  V30 3280 H 321.301 2.02201 -0.312381 0
M  V30 3281 H 321.311 3.87067 1.2901 0
M  V30 3282 H 319.986 4.15538 0.17347 0
M  V30 3283 H 318.563 3.27657 1.78032 0
M  V30 3284 N 320.748 -0.0735177 1.57428 0
M  V30 3285 C 321.678 -1.0879 2.06608 0
M  V30 3286 C 322.659 -1.40473 0.959237 0
M  V30 3287 O 323.844 -1.5013 1.23185 0
M  V30 3288 C 320.974 -2.40183 2.50857 0
M  V30 3289 C 319.928 -2.22858 3.65402 0
M  V30 3290 C 319.254 -3.59619 3.957 0
M  V30 3291 C 320.554 -1.65123 4.95511 0
M  V30 3292 H 322.248 -0.678673 2.91607 0
M  V30 3293 H 319.794 -0.325013 1.40284 0
M  V30 3294 H 321.747 -3.11437 2.83874 0
M  V30 3295 H 320.471 -2.83083 1.62885 0
M  V30 3296 H 319.13 -1.54045 3.32664 0
M  V30 3297 H 318.778 -4.00086 3.04861 0
M  V30 3298 H 318.478 -3.48866 4.72828 0
M  V30 3299 H 320.002 -4.32306 4.31212 0
M  V30 3300 H 321.416 -2.26241 5.26771 0
M  V30 3301 H 319.813 -1.65071 5.7695 0
M  V30 3302 H 320.883 -0.612559 4.81015 0
M  V30 3303 N 322.226 -1.5378 -0.344866 0
M  V30 3304 C 323.503 -1.61589 -1.10219 0
M  V30 3305 C 323.883 -0.436316 -2.06542 0
M  V30 3306 O 323.231 0.571543 -2.21237 0
M  V30 3307 C 323.441 -2.97602 -1.82301 0
M  V30 3308 C 324.789 -3.5291 -2.36093 0
M  V30 3309 O 325.813 -2.99768 -1.924 0
M  V30 3310 O 324.672 -4.45859 -3.16026 0
M  V30 3311 H 321.766 -0.653522 -0.506792 0
M  V30 3312 H 324.312 -1.66126 -0.346465 0
M  V30 3313 H 323.084 -3.74893 -1.12121 0
M  V30 3314 H 322.707 -2.9665 -2.64735 0
M  V30 3315 N 323.704 0.605807 -1.45491 0
M  V30 3316 C 324.981 1.36522 -1.40075 0
M  V30 3317 C 325.361 2.10976 -0.0722744 0
M  V30 3318 O 324.709 2.08007 0.945808 0
M  V30 3319 C 324.919 2.31056 -2.61561 0
M  V30 3320 C 326.267 2.93608 -3.06724 0
M  V30 3321 O 327.291 2.41376 -2.61946 0
M  V30 3322 O 326.15 3.88421 -3.84437 0
M  V30 3323 H 323.244 0.612248 -0.555951 0
M  V30 3324 H 325.79 0.628747 -1.57623 0
M  V30 3325 H 324.562 1.75311 -3.49831 0
M  V30 3326 H 324.185 3.12081 -2.46356 0
M  V30 3327 N 325.182 1.32811 0.848464 0
M  V30 3328 C 326.428 1.23907 1.60546 0
M  V30 3329 C 326.761 -0.197161 1.93197 0
M  V30 3330 O 326.036 -1.13596 1.5788 0
M  V30 3331 C 326.319 2.10489 2.92175 0
M  V30 3332 C 326.172 3.62522 2.66266 0
M  V30 3333 C 327.491 1.97075 3.93509 0
M  V30 3334 H 324.61 0.451459 0.58254 0
M  V30 3335 H 327.252 1.62818 0.979296 0
M  V30 3336 H 325.402 1.77434 3.45614 0
M  V30 3337 H 327.074 4.05821 2.19334 0
M  V30 3338 H 325.317 3.84879 2.00126 0
M  V30 3339 H 325.988 4.18437 3.6002 0
M  V30 3340 H 328.464 2.26045 3.49346 0
M  V30 3341 H 327.34 2.59923 4.83457 0
M  V30 3342 H 327.601 0.940186 4.31987 0
M  V30 3343 N 326.66 -1.06551 1.16123 0
M  V30 3344 C 327.908 -1.78947 0.939267 0
M  V30 3345 C 328.229 -1.87532 -0.534476 0
M  V30 3346 O 327.499 -1.38211 -1.38833 0
M  V30 3347 H 326.079 -0.662807 0.344523 0
M  V30 3348 H 328.741 -1.28725 1.46342 0
M  V30 3349 H 327.837 -2.81117 1.35572 0
M  V30 3350 N 328.138 -0.959301 -1.25041 0
M  V30 3351 C 329.385 -0.616611 -1.92884 0
M  V30 3352 C 329.713 0.847036 -1.75087 0
M  V30 3353 O 328.968 1.62374 -1.09239 0
M  V30 3354 C 329.267 -0.927136 -3.45165 0
M  V30 3355 C 328.933 -2.37757 -3.83122 0
M  V30 3356 C 327.595 -2.77402 -3.93194 0
M  V30 3357 C 329.947 -3.31929 -4.01836 0
M  V30 3358 C 327.275 -4.10277 -4.19392 0
M  V30 3359 C 329.627 -4.64423 -4.29528 0
M  V30 3360 C 328.291 -5.03857 -4.37818 0
M  V30 3361 H 327.561 -0.225634 -0.705812 0
M  V30 3362 H 330.208 -1.20921 -1.48493 0
M  V30 3363 H 328.513 -0.252195 -3.90987 0
M  V30 3364 H 330.21 -0.6405 -3.95852 0
M  V30 3365 H 326.8 -2.06013 -3.75841 0
M  V30 3366 H 330.984 -3.02488 -3.93465 0
M  V30 3367 H 326.24 -4.40467 -4.24027 0
M  V30 3368 H 330.414 -5.37369 -4.42953 0
M  V30 3369 H 328.041 -6.06843 -4.57871 0
M  V30 3370 N 329.616 1.39756 -0.72842 0
M  V30 3371 C 330.579 2.29012 -0.0927297 0
M  V30 3372 C 331.579 1.45992 0.674025 0
M  V30 3373 O 332.769 1.66749 0.50402 0
M  V30 3374 C 329.901 3.29396 0.878137 0
M  V30 3375 H 331.094 2.86729 -0.879011 0
M  V30 3376 H 328.647 1.48293 -0.493847 0
M  V30 3377 H 329.382 2.76722 1.69101 0
M  V30 3378 H 329.167 3.907 0.331051 0
M  V30 3379 H 330.657 3.96199 1.3197 0
M  V30 3380 N 331.094 0.475555 1.50254 0
M  V30 3381 C 332.341 -0.0778919 2.0235 0
M  V30 3382 C 332.669 -1.39319 1.35722 0
M  V30 3383 O 331.924 -1.89888 0.473395 0
M  V30 3384 C 332.223 -0.305114 3.56095 0
M  V30 3385 C 331.889 0.92903 4.41225 0
M  V30 3386 C 330.551 1.26739 4.6421 0
M  V30 3387 C 332.903 1.75054 4.90923 0
M  V30 3388 C 330.231 2.42724 5.34137 0
M  V30 3389 C 332.583 2.9017 5.62125 0
M  V30 3390 C 331.247 3.24416 5.83362 0
M  V30 3391 H 330.517 -0.0285027 0.740452 0
M  V30 3392 H 333.164 0.630543 1.80821 0
M  V30 3393 H 331.469 -1.09584 3.76163 0
M  V30 3394 H 333.166 -0.747377 3.93974 0
M  V30 3395 H 329.756 0.655428 4.23559 0
M  V30 3396 H 333.94 1.50231 4.73016 0
M  V30 3397 H 329.196 2.69525 5.48786 0
M  V30 3398 H 333.37 3.54169 5.99614 0
M  V30 3399 H 330.997 4.14396 6.37323 0
M  V30 3400 N 332.573 -1.56217 0.208337 0
M  V30 3401 C 333.85 -1.89739 -0.475234 0
M  V30 3402 C 334.23 -1.1238 -1.78701 0
M  V30 3403 O 333.578 -0.228979 -2.2735 0
M  V30 3404 C 333.788 -3.42289 -0.681101 0
M  V30 3405 C 335.136 -4.12789 -0.994507 0
M  V30 3406 O 336.16 -3.47814 -0.768357 0
M  V30 3407 O 335.019 -5.27649 -1.42299 0
M  V30 3408 H 332.113 -0.788478 -0.249461 0
M  V30 3409 H 334.659 -1.67855 0.249538 0
M  V30 3410 H 333.431 -3.90534 0.244722 0
M  V30 3411 H 333.054 -3.69909 -1.45785 0
M  V30 3412 N 334.051 0.0651679 -1.57465 0
M  V30 3413 C 335.467 0.420105 -1.53972 0
M  V30 3414 C 335.667 1.78782 -0.929474 0
M  V30 3415 O 334.723 2.46771 -0.534839 0
M  V30 3416 C 336.036 0.355084 -2.98596 0
M  V30 3417 C 337.584 0.434792 -3.09965 0
M  V30 3418 C 338.059 0.399609 -4.56253 0
M  V30 3419 N 339.55 0.459488 -4.60915 0
M  V30 3420 C 340.285 0.454584 -5.71595 0
M  V30 3421 N 339.781 0.404102 -6.9162 0
M  V30 3422 N 341.574 0.501635 -5.59857 0
M  V30 3423 H 333.725 -0.830328 -1.95498 0
M  V30 3424 H 335.988 -0.312244 -0.895102 0
M  V30 3425 H 335.694 -0.583357 -3.46828 0
M  V30 3426 H 335.568 1.16275 -3.58831 0
M  V30 3427 H 337.955 1.36366 -2.61703 0
M  V30 3428 H 338.036 -0.40157 -2.52628 0
M  V30 3429 H 337.68 -0.525436 -5.05175 0
M  V30 3430 H 337.61 1.25359 -5.11461 0
M  V30 3431 H 340.101 0.502482 -3.74544 0
M  V30 3432 H 340.414 0.404468 -7.71741 0
M  V30 3433 H 338.759 0.37069 -6.94011 0
M  V30 3434 H 341.95 0.538812 -4.64989 0
M  V30 3435 H 342.123 0.494345 -6.46112 0
M  V30 3436 N 335.529 1.53961 0.336706 0
M  V30 3437 C 336.775 1.7179 1.07777 0
M  V30 3438 C 337.108 0.483263 1.88091 0
M  V30 3439 O 336.383 -0.519747 1.87427 0
M  V30 3440 C 336.666 2.98558 2.01334 0
M  V30 3441 C 336.519 4.32245 1.24437 0
M  V30 3442 C 337.838 3.21023 3.01052 0
M  V30 3443 H 334.957 0.625089 0.390426 0
M  V30 3444 H 337.599 1.86641 0.35567 0
M  V30 3445 H 335.749 2.86028 2.62908 0
M  V30 3446 H 337.421 4.56637 0.654243 0
M  V30 3447 H 335.664 4.30344 0.546458 0
M  V30 3448 H 336.335 5.17137 1.93063 0
M  V30 3449 H 338.811 3.32929 2.49595 0
M  V30 3450 H 337.687 4.11104 3.6371 0
M  V30 3451 H 337.948 2.37637 3.72802 0
M  V30 3452 N 337.007 -0.598083 1.45811 0
M  V30 3453 C 338.284 -1.35777 1.40797 0
M  V30 3454 C 338.664 -2.10935 0.083462 0
M  V30 3455 O 338.012 -2.08505 -0.934763 0
M  V30 3456 C 338.222 -2.29666 2.62783 0
M  V30 3457 C 339.57 -2.91977 3.08277 0
M  V30 3458 O 340.594 -2.39984 2.63223 0
M  V30 3459 O 339.453 -3.86376 3.86491 0
M  V30 3460 H 336.547 -0.609291 0.55919 0
M  V30 3461 H 339.093 -0.620379 1.57954 0
M  V30 3462 H 337.865 -1.73454 3.50756 0
M  V30 3463 H 337.488 -3.1077 2.48008 0
M  V30 3464 N 338.485 -1.33259 -0.841409 0
M  V30 3465 C 339.448 -1.23221 -1.9326 0
M  V30 3466 C 340.448 -0.151895 -1.60081 0
M  V30 3467 O 341.638 -0.403246 -1.69468 0
M  V30 3468 C 338.77 -0.898123 -3.28856 0
M  V30 3469 H 339.963 -2.2021 -2.03587 0
M  V30 3470 H 337.516 -1.17281 -1.03319 0
M  V30 3471 H 338.251 0.0693841 -3.24226 0
M  V30 3472 H 338.036 -1.67934 -3.54317 0
M  V30 3473 H 339.526 -0.852563 -4.08805 0
M  V30 3474 N 339.963 1.05934 -1.16686 0
M  V30 3475 C 341.24 1.75643 -0.860747 0
M  V30 3476 C 341.62 2.01144 0.640641 0
M  V30 3477 O 340.968 1.64147 1.58959 0
M  V30 3478 C 341.178 3.05493 -1.68745 0
M  V30 3479 C 342.526 3.79581 -1.90271 0
M  V30 3480 O 343.55 3.15344 -1.65641 0
M  V30 3481 O 342.409 4.9499 -2.31618 0
M  V30 3482 H 339.503 0.763426 -0.317977 0
M  V30 3483 H 342.049 1.1217 -1.27342 0
M  V30 3484 H 340.821 2.8264 -2.70611 0
M  V30 3485 H 340.444 3.76702 -1.27206 0
M  V30 3486 N 341.441 0.965919 1.2453 0
M  V30 3487 C 342.689 0.625593 1.92174 0
M  V30 3488 C 343.01 -0.841652 1.75901 0
M  V30 3489 O 342.28 -1.60061 1.12948 0
M  V30 3490 H 340.86 0.228388 0.71123 0
M  V30 3491 H 343.522 1.2266 1.51461 0
M  V30 3492 H 342.618 0.864653 2.99884 0
M  V30 3493 N 342.919 -1.39368 0.735821 0
M  V30 3494 C 343.849 -2.33234 0.111506 0
M  V30 3495 C 344.83 -1.53954 -0.723334 0
M  V30 3496 O 346.015 -1.82344 -0.668147 0
M  V30 3497 C 343.145 -3.38057 -0.795917 0
M  V30 3498 C 342.099 -4.2795 -0.065172 0
M  V30 3499 C 341.425 -5.23479 -1.08967 0
M  V30 3500 C 342.725 -5.10741 1.09273 0
M  V30 3501 H 344.419 -2.85692 0.895571 0
M  V30 3502 H 341.965 -1.37364 0.432109 0
M  V30 3503 H 343.918 -4.02675 -1.24221 0
M  V30 3504 H 342.642 -2.8404 -1.61211 0
M  V30 3505 H 341.301 -3.64813 0.361511 0
M  V30 3506 H 340.949 -4.65758 -1.89944 0
M  V30 3507 H 340.649 -5.84472 -0.605489 0
M  V30 3508 H 342.173 -5.90974 -1.53565 0
M  V30 3509 H 343.587 -5.68699 0.724841 0
M  V30 3510 H 341.984 -5.8088 1.50659 0
M  V30 3511 H 343.054 -4.45525 1.91404 0
M  V30 3512 N 344.397 -0.483516 -1.5 0
M  V30 3513 C 345.646 0.0689102 -2.01582 0
M  V30 3514 C 345.959 1.39655 -1.36952 0
M  V30 3515 O 347.165 2.03465 -1.79762 0
M  V30 3516 C 345.621 0.173302 -3.59483 0
M  V30 3517 C 345.229 -1.14665 -4.33077 0
M  V30 3518 C 346.973 0.677024 -4.19066 0
M  V30 3519 C 344.88 -1.00537 -5.82792 0
M  V30 3520 H 343.81 0.0295277 -0.753422 0
M  V30 3521 H 346.461 -0.620295 -1.72698 0
M  V30 3522 H 344.843 0.926569 -3.85007 0
M  V30 3523 H 346.017 -1.91184 -4.19268 0
M  V30 3524 H 344.332 -1.58244 -3.85159 0
M  V30 3525 H 346.929 0.799952 -5.28682 0
M  V30 3526 H 347.272 1.67151 -3.81269 0
M  V30 3527 H 347.805 -0.0192083 -3.97795 0
M  V30 3528 H 344.544 -1.9736 -6.25083 0
M  V30 3529 H 344.064 -0.280776 -5.99142 0
M  V30 3530 H 345.743 -0.677 -6.43448 0
M  V30 3531 N 345.875 1.56104 -0.216619 0
M  V30 3532 C 347.103 2.02563 0.421413 0
M  V30 3533 C 347.518 1.0965 1.53695 0
M  V30 3534 O 346.875 0.10521 1.82196 0
M  V30 3535 C 346.926 3.48584 0.957665 0
M  V30 3536 O 346.647 4.37953 -0.113389 0
M  V30 3537 C 348.148 4.10664 1.66943 0
M  V30 3538 H 345.368 0.662944 0.103665 0
M  V30 3539 H 347.912 2.01793 -0.331629 0
M  V30 3540 H 346.067 3.49985 1.661 0
M  V30 3541 H 346.481 5.23704 0.288932 0
M  V30 3542 H 347.955 5.14622 1.99671 0
M  V30 3543 H 348.432 3.55373 2.58083 0
M  V30 3544 H 349.038 4.13098 1.01142 0
M  V30 3545 N 347.353 -0.0568162 1.57498 0
M  V30 3546 C 348.578 -0.769402 1.92601 0
M  V30 3547 C 349.003 -1.69559 0.814336 0
M  V30 3548 O 348.361 -1.79811 -0.231903 0
M  V30 3549 C 348.409 -1.52634 3.26704 0
M  V30 3550 O 347.513 -2.63797 3.16994 0
M  V30 3551 H 346.854 -0.208909 0.63028 0
M  V30 3552 H 349.384 -0.0205798 2.0459 0
M  V30 3553 H 349.394 -1.90234 3.60936 0
M  V30 3554 H 348.069 -0.846875 4.07186 0
M  V30 3555 H 346.646 -2.28943 2.94346 0
M  V30 3556 N 348.832 -1.54138 -0.328536 0
M  V30 3557 C 350.06 -1.76062 -1.08673 0
M  V30 3558 C 350.475 -0.506852 -1.81869 0
M  V30 3559 O 349.832 0.522223 -1.74869 0
M  V30 3560 C 349.883 -2.95054 -2.08866 0
M  V30 3561 O 349.604 -4.15583 -1.38644 0
M  V30 3562 C 351.105 -3.2915 -2.96943 0
M  V30 3563 H 348.325 -0.587889 -0.323461 0
M  V30 3564 H 350.869 -2.0101 -0.376175 0
M  V30 3565 H 349.024 -2.72394 -2.75464 0
M  V30 3566 H 349.438 -4.82481 -2.05699 0
M  V30 3567 H 350.912 -4.15723 -3.63151 0
M  V30 3568 H 351.389 -2.461 -3.63774 0
M  V30 3569 H 351.995 -3.53871 -2.35914 0
M  V30 3570 N 350.31 0.590341 -1.46126 0
M  V30 3571 C 351.24 1.71032 -1.58966 0
M  V30 3572 C 352.221 1.64302 -0.440335 0
M  V30 3573 O 353.406 1.82436 -0.665634 0
M  V30 3574 C 350.536 3.09665 -1.57241 0
M  V30 3575 C 349.49 3.31221 -2.71066 0
M  V30 3576 C 348.816 4.70303 -2.54399 0
M  V30 3577 C 350.116 3.19796 -4.1295 0
M  V30 3578 H 351.81 1.60543 -2.52718 0
M  V30 3579 H 349.356 0.770933 -1.21625 0
M  V30 3580 H 351.309 3.87831 -1.64819 0
M  V30 3581 H 350.033 3.21036 -0.600289 0
M  V30 3582 H 348.692 2.55452 -2.62944 0
M  V30 3583 H 348.34 4.78429 -1.55288 0
M  V30 3584 H 348.04 4.85679 -3.30741 0
M  V30 3585 H 349.564 5.50647 -2.63857 0
M  V30 3586 H 350.978 3.87815 -4.22223 0
M  V30 3587 H 349.375 3.46696 -4.89818 0
M  V30 3588 H 350.445 2.16983 -4.33643 0
M  V30 3589 N 351.788 1.33704 0.83433 0
M  V30 3590 C 353.036 1.25169 1.58673 0
M  V30 3591 C 353.357 -0.18127 1.94156 0
M  V30 3592 O 352.627 -1.11113 1.6134 0
M  V30 3593 H 351.207 0.4603 0.58833 0
M  V30 3594 H 353.869 1.67478 0.996847 0
M  V30 3595 H 352.965 1.84856 2.51465 0
M  V30 3596 N 353.266 -1.05314 1.17247 0
M  V30 3597 C 354.682 -1.30452 0.919473 0
M  V30 3598 C 354.882 -1.9703 -0.42209 0
M  V30 3599 O 353.938 -2.24311 -1.15935 0
M  V30 3600 C 355.251 -2.17551 2.07586 0
M  V30 3601 C 356.799 -2.30937 2.11275 0
M  V30 3602 C 357.274 -3.21396 3.26296 0
M  V30 3603 N 358.765 -3.28981 3.26076 0
M  V30 3604 C 359.5 -3.99095 4.11716 0
M  V30 3605 N 358.996 -4.71648 5.07465 0
M  V30 3606 N 360.789 -3.95247 3.9967 0
M  V30 3607 H 352.94 -0.604988 2.03602 0
M  V30 3608 H 355.203 -0.329368 0.888944 0
M  V30 3609 H 354.909 -1.75921 3.0454 0
M  V30 3610 H 354.783 -3.18182 2.02584 0
M  V30 3611 H 357.17 -2.71809 1.14907 0
M  V30 3612 H 357.251 -1.2994 2.20339 0
M  V30 3613 H 356.895 -2.81238 4.22927 0
M  V30 3614 H 356.825 -4.22395 3.14467 0
M  V30 3615 H 359.316 -2.77286 2.5675 0
M  V30 3616 H 359.629 -5.22705 5.6921 0
M  V30 3617 H 357.974 -4.70594 5.11435 0
M  V30 3618 H 361.165 -3.37691 3.24164 0
M  V30 3619 H 361.338 -4.4962 4.66632 0
M  V30 3620 N 354.744 -0.972509 -1.24016 0
M  V30 3621 C 355.694 -0.477561 -2.22942 0
M  V30 3622 C 356.678 0.44308 -1.54679 0
M  V30 3623 O 357.87 0.273219 -1.74879 0
M  V30 3624 C 354.999 0.226348 -3.42553 0
M  V30 3625 C 354.085 -0.713403 -4.18057 0
M  V30 3626 N 354.476 -1.8527 -4.70647 0
M  V30 3627 C 352.774 -0.525145 -4.42898 0
M  V30 3628 C 353.475 -2.44089 -5.28011 0
M  V30 3629 N 352.451 -1.72556 -5.15486 0
M  V30 3630 H 356.253 -1.34678 -2.61226 0
M  V30 3631 H 353.767 -0.832196 -1.39457 0
M  V30 3632 H 355.764 0.598184 -4.12586 0
M  V30 3633 H 354.424 1.09195 -3.05788 0
M  V30 3634 H 355.435 -2.2341 -4.67235 0
M  V30 3635 H 352.112 0.296096 -4.16449 0
M  V30 3636 H 353.502 -3.40259 -5.79374 0
M  V30 3637 N 356.222 1.38976 -0.743202 0
M  V30 3638 C 357.45 2.04636 -0.30525 0
M  V30 3639 C 357.865 1.56044 1.06281 0
M  V30 3640 O 357.222 0.728921 1.67311 0
M  V30 3641 C 357.273 3.60193 -0.307177 0
M  V30 3642 O 356.994 4.06998 -1.62124 0
M  V30 3643 C 358.495 4.4306 0.145928 0
M  V30 3644 H 355.715 0.65788 -0.132041 0
M  V30 3645 H 358.259 1.77866 -1.00915 0
M  V30 3646 H 356.414 3.85835 0.347898 0
M  V30 3647 H 356.828 5.01371 -1.54036 0
M  V30 3648 H 358.302 5.51921 0.0934183 0
M  V30 3649 H 358.779 4.22706 1.19231 0
M  V30 3650 H 359.385 4.22584 -0.479886 0
M  V30 3651 N 357.7 0.491464 1.49741 0
M  V30 3652 C 358.648 -0.305837 2.30581 0
M  V30 3653 C 359.642 -0.971642 1.38764 0
M  V30 3654 O 360.848 -0.90042 1.5586 0
M  V30 3655 H 357.223 -0.117482 0.742767 0
M  V30 3656 H 359.194 0.396093 2.95759 0
M  V30 3657 C 357.943 -1.36319 3.19863 0
M  V30 3658 H 357.266 -0.860258 3.90435 0
M  V30 3659 H 358.706 -1.89323 3.79385 0
M  V30 3660 C 357.165 -2.37621 2.38826 0
M  V30 3661 O 357.695 -3.43311 2.08567 0
M  V30 3662 N 355.901 -2.09849 2.01026 0
M  V30 3663 H 355.448 -1.23922 2.25834 0
M  V30 3664 H 355.406 -2.77859 1.47112 0
M  V30 3665 N 359.178 -1.55987 0.224894 0
M  V30 3666 C 360.455 -1.90232 -0.455083 0
M  V30 3667 C 360.835 -1.14269 -1.77499 0
M  V30 3668 O 360.183 -0.253079 -2.27094 0
M  V30 3669 C 360.393 -3.42993 -0.644758 0
M  V30 3670 C 361.741 -4.13821 -0.950669 0
M  V30 3671 O 362.765 -3.4861 -0.731423 0
M  V30 3672 O 361.624 -5.29128 -1.36695 0
M  V30 3673 H 358.718 -0.79108 -0.241084 0
M  V30 3674 H 361.264 -1.67581 0.267327 0
M  V30 3675 H 360.036 -3.90252 0.28613 0
M  V30 3676 H 359.659 -3.71434 -1.41853 0
M  V30 3677 N 360.656 0.0484629 -1.57525 0
M  V30 3678 C 361.606 1.06246 -2.01732 0
M  V30 3679 C 362.59 1.33155 -0.903245 0
M  V30 3680 O 363.782 1.33065 -1.16717 0
M  V30 3681 C 360.911 2.36943 -2.48421 0
M  V30 3682 C 359.997 2.13208 -3.6661 0
M  V30 3683 N 360.388 1.5947 -4.80003 0
M  V30 3684 C 358.686 2.43581 -3.7361 0
M  V30 3685 C 359.387 1.51092 -5.61735 0
M  V30 3686 N 358.363 1.9797 -5.0627 0
M  V30 3687 H 362.165 0.640675 -2.86832 0
M  V30 3688 H 359.679 0.255134 -1.60383 0
M  V30 3689 H 361.676 3.10374 -2.78341 0
M  V30 3690 H 360.336 2.79818 -1.64718 0
M  V30 3691 H 361.347 1.28008 -5.01831 0
M  V30 3692 H 358.024 2.89662 -3.00669 0
M  V30 3693 H 359.414 1.10199 -6.62801 0
M  V30 3694 N 362.134 1.5431 0.320358 0
M  V30 3695 C 363.067 1.78769 1.41834 0
M  V30 3696 C 364.045 0.63783 1.49568 0
M  V30 3697 O 365.229 0.875628 1.66928 0
M  V30 3698 C 362.356 1.90712 2.79905 0
M  V30 3699 C 361.402 3.13023 2.89687 0
M  V30 3700 S 362.235 4.71554 2.53766 0
M  V30 3701 C 363.391 4.86408 3.93902 0
M  V30 3702 H 363.624 2.71619 1.20874 0
M  V30 3703 H 361.157 1.45474 0.517377 0
M  V30 3704 H 363.115 1.98279 3.59438 0
M  V30 3705 H 361.776 0.988343 2.98145 0
M  V30 3706 H 360.969 3.18124 3.90913 0
M  V30 3707 H 360.571 3.03803 2.18128 0
M  V30 3708 H 362.863 4.69241 4.88691 0
M  V30 3709 H 363.806 5.88508 3.93782 0
M  V30 3710 H 364.214 4.14689 3.83005 0
M  V30 3711 N 363.613 -0.582584 1.46437 0
M  V30 3712 C 364.859 -1.34278 1.51978 0
M  V30 3713 C 365.192 -1.93446 0.170973 0
M  V30 3714 O 364.467 -1.76481 -0.817608 0
M  V30 3715 C 364.75 -2.47203 2.61845 0
M  V30 3716 C 364.603 -1.93069 4.06257 0
M  V30 3717 C 365.922 -3.49247 2.67795 0
M  V30 3718 H 363.041 -0.486876 0.553282 0
M  V30 3719 H 365.683 -0.654437 1.78374 0
M  V30 3720 H 363.833 -3.0592 2.39469 0
M  V30 3721 H 365.505 -1.38808 4.3992 0
M  V30 3722 H 363.748 -1.23898 4.1573 0
M  V30 3723 H 364.419 -2.74586 4.7886 0
M  V30 3724 H 366.895 -3.00411 2.8791 0
M  V30 3725 H 365.771 -4.25719 3.46489 0
M  V30 3726 H 366.032 -4.06482 1.73852 0
M  V30 3727 N 365.091 -1.34144 -0.827227 0
M  V30 3728 C 366.316 -1.29476 -1.62021 0
M  V30 3729 C 366.741 0.129292 -1.87655 0
M  V30 3730 O 366.099 1.08967 -1.449 0
M  V30 3731 C 366.147 -2.08702 -2.94068 0
M  V30 3732 O 365.251 -1.45359 -3.85933 0
M  V30 3733 H 364.592 -0.444881 -0.492927 0
M  V30 3734 H 367.122 -1.76882 -1.02829 0
M  V30 3735 H 367.132 -2.19898 -3.43669 0
M  V30 3736 H 365.807 -3.12241 -2.74734 0
M  V30 3737 H 364.384 -1.42879 -3.44442 0
M  V30 3738 N 366.569 1.04691 -1.17803 0
M  V30 3739 C 367.816 1.77782 -0.969532 0
M  V30 3740 C 368.144 1.87926 0.501401 0
M  V30 3741 O 367.399 1.37918 1.38842 0
M  V30 3742 C 367.698 3.21467 -1.56186 0
M  V30 3743 C 367.364 3.3137 -3.05786 0
M  V30 3744 C 366.026 3.3378 -3.46619 0
M  V30 3745 C 368.378 3.31976 -4.01797 0
M  V30 3746 C 365.706 3.34431 -4.82051 0
M  V30 3747 C 368.058 3.34167 -5.37136 0
M  V30 3748 C 366.722 3.34866 -5.77426 0
M  V30 3749 H 365.992 0.650549 -0.354777 0
M  V30 3750 H 368.639 1.23006 -1.46772 0
M  V30 3751 H 366.944 3.79203 -0.985515 0
M  V30 3752 H 368.641 3.76652 -1.37602 0
M  V30 3753 H 365.231 3.3021 -2.73238 0
M  V30 3754 H 369.415 3.29311 -3.71306 0
M  V30 3755 H 364.671 3.33285 -5.12573 0
M  V30 3756 H 368.845 3.33585 -6.11305 0
M  V30 3757 H 366.472 3.35124 -6.82346 0
M  V30 3758 N 368.047 0.979072 1.23499 0
M  V30 3759 C 369.277 0.664237 1.95631 0
M  V30 3760 C 369.685 -0.772653 1.72704 0
M  V30 3761 O 369.028 -1.53141 1.01457 0
M  V30 3762 C 369.09 0.873115 3.48736 0
M  V30 3763 C 368.754 2.29182 3.95379 0
M  V30 3764 C 369.751 3.2704 4.04155 0
M  V30 3765 C 367.436 2.62256 4.28401 0
M  V30 3766 C 369.43 4.56052 4.45304 0
M  V30 3767 C 367.117 3.91491 4.69231 0
M  V30 3768 C 368.115 4.88201 4.77649 0
M  V30 3769 O 367.803 6.15129 5.17563 0
M  V30 3770 H 367.535 0.245915 0.629684 0
M  V30 3771 H 370.089 1.3127 1.57979 0
M  V30 3772 H 368.319 0.167476 3.86337 0
M  V30 3773 H 370.008 0.555642 4.02079 0
M  V30 3774 H 370.774 3.02819 3.78848 0
M  V30 3775 H 366.653 1.87692 4.21061 0
M  V30 3776 H 370.197 5.31538 4.51789 0
M  V30 3777 H 366.094 4.15508 4.93987 0
M  V30 3778 H 366.862 6.18862 5.35679 0
M  V30 3779 N 369.525 -1.3858 0.750561 0
M  V30 3780 C 370.488 -2.28836 0.129152 0
M  V30 3781 C 371.488 -1.47045 -0.650714 0
M  V30 3782 O 372.678 -1.6753 -0.477428 0
M  V30 3783 C 369.81 -3.30751 -0.825622 0
M  V30 3784 H 371.003 -2.85294 0.924516 0
M  V30 3785 H 368.556 -1.47489 0.517376 0
M  V30 3786 H 369.291 -2.79378 -1.64677 0
M  V30 3787 H 369.076 -3.91177 -0.268852 0
M  V30 3788 H 370.566 -3.98249 -1.2565 0
M  V30 3789 N 371.003 -0.499398 -1.49478 0
M  V30 3790 C 372.228 0.044722 -2.07352 0
M  V30 3791 C 372.653 1.30207 -1.35749 0
M  V30 3792 O 372.011 1.76516 -0.413732 0
M  V30 3793 C 372.059 0.283013 -3.59488 0
M  V30 3794 O 371.163 1.35804 -3.89398 0
M  V30 3795 H 370.504 -0.0255147 -0.66351 0
M  V30 3796 H 373.034 -0.698561 -1.92305 0
M  V30 3797 H 373.044 0.515007 -4.04737 0
M  V30 3798 H 371.719 -0.635636 -4.11014 0
M  V30 3799 H 370.296 1.11113 -3.55961 0
M  V30 3800 N 372.481 1.55866 -0.233164 0
M  V30 3801 C 373.709 2.02998 0.399905 0
M  V30 3802 C 374.124 1.11274 1.52524 0
M  V30 3803 O 373.481 0.124528 1.82075 0
M  V30 3804 C 373.532 3.4958 0.920639 0
M  V30 3805 O 373.253 4.37808 -0.159834 0
M  V30 3806 C 374.754 4.12411 1.62578 0
M  V30 3807 H 371.974 0.664006 0.0966281 0
M  V30 3808 H 374.518 2.0143 -0.353013 0
M  V30 3809 H 372.673 3.51727 1.62379 0
M  V30 3810 H 373.087 5.23981 0.23337 0
M  V30 3811 H 374.561 5.16711 1.94201 0
M  V30 3812 H 375.038 3.5809 2.54299 0
M  V30 3813 H 375.644 4.14148 0.967553 0
M  V30 3814 N 373.959 -0.0401083 1.57549 0
M  V30 3815 C 375.37 -0.588097 1.77196 0
M  V30 3816 C 375.721 -1.76209 0.862832 0
M  V30 3817 O 374.846 -2.16331 0.0548389 0
M  V30 3818 C 375.441 -1.07363 3.21339 0
M  V30 3819 C 374 -1.56723 3.42221 0
M  V30 3820 C 373.147 -0.50041 2.72747 0
M  V30 3821 H 376.098 0.186119 1.57605 0
M  V30 3822 H 376.119 -1.94143 3.27244 0
M  V30 3823 H 375.631 -0.218975 3.87482 0
M  V30 3824 H 373.732 -2.4441 2.81237 0
M  V30 3825 H 373.845 -1.62234 4.50796 0
M  V30 3826 H 372.209 -0.952894 2.36203 0
M  V30 3827 H 372.992 0.344599 3.41566 0
M  V30 3828 N 375.437 -1.54477 -0.31217 0
M  V30 3829 C 376.662 -1.77526 -1.07235 0
M  V30 3830 C 377.087 -0.527775 -1.80544 0
M  V30 3831 O 376.445 0.52121 -1.73646 0
M  V30 3832 C 376.493 -2.97535 -2.03728 0
M  V30 3833 O 375.597 -2.69878 -3.11833 0
M  V30 3834 H 374.938 -0.58792 -0.30862 0
M  V30 3835 H 377.468 -2.01532 -0.352993 0
M  V30 3836 H 377.478 -3.25198 -2.46395 0
M  V30 3837 H 376.153 -3.87996 -1.49774 0
M  V30 3838 H 374.73 -2.53199 -2.7376 0
M  V30 3839 N 376.915 0.57481 -1.46744 0
M  V30 3840 C 378.163 1.33009 -1.52161 0
M  V30 3841 C 378.484 1.94185 -0.178092 0
M  V30 3842 O 377.754 1.7899 0.796196 0
M  V30 3843 H 376.334 0.493873 -0.560445 0
M  V30 3844 H 378.996 0.672589 -1.82927 0
M  V30 3845 H 378.092 2.13273 -2.27862 0
M  V30 3846 N 378.394 1.34581 0.820102 0
M  V30 3847 C 379.64 1.27285 1.57881 0
M  V30 3848 C 379.973 -0.156137 1.93571 0
M  V30 3849 O 379.248 -1.10222 1.60254 0
M  V30 3850 C 379.531 2.16639 2.87645 0
M  V30 3851 C 379.384 3.68088 2.58517 0
M  V30 3852 C 380.703 2.05378 3.8924 0
M  V30 3853 H 377.822 0.463714 0.572833 0
M  V30 3854 H 380.464 1.64859 0.944539 0
M  V30 3855 H 378.614 1.84725 3.41773 0
M  V30 3856 H 380.286 4.10382 2.10676 0
M  V30 3857 H 378.529 3.89038 1.91917 0
M  V30 3858 H 379.2 4.2598 3.51063 0
M  V30 3859 H 381.676 2.33404 3.44473 0
M  V30 3860 H 380.552 2.7012 4.77835 0
M  V30 3861 H 380.813 1.0316 4.29896 0
M  V30 3862 N 379.872 -1.04064 1.18357 0
M  V30 3863 C 380.782 -2.15569 0.925596 0
M  V30 3864 C 381.798 -1.7365 -0.110295 0
M  V30 3865 O 382.974 -2.01273 0.0716218 0
M  V30 3866 C 380.039 -3.43704 0.454836 0
M  V30 3867 C 379.1 -4.00004 1.55869 0
M  V30 3868 C 378.333 -5.22023 1.1103 0
M  V30 3869 O 378.556 -5.70392 -0.0309756 0
M  V30 3870 O 377.49 -5.70856 1.90805 0
M  V30 3871 H 381.316 -2.40187 1.8586 0
M  V30 3872 H 378.901 -1.1402 0.965394 0
M  V30 3873 H 380.783 -4.20923 0.200382 0
M  V30 3874 H 379.458 -3.20559 -0.449876 0
M  V30 3875 H 378.365 -3.24172 1.86716 0
M  V30 3876 H 379.698 -4.2749 2.43953 0
M  V30 3877 N 381.35 -0.985608 -1.22978 0
M  V30 3878 C 382.596 -0.65836 -1.91816 0
M  V30 3879 C 382.929 0.806692 -1.76653 0
M  V30 3880 O 382.204 1.58252 -1.13078 0
M  V30 3881 C 382.487 -1.056 -3.44268 0
M  V30 3882 C 382.34 -2.57906 -3.68516 0
M  V30 3883 C 383.659 -0.603781 -4.35939 0
M  V30 3884 H 380.778 -0.24065 -0.696604 0
M  V30 3885 H 383.42 -1.22783 -1.44998 0
M  V30 3886 H 381.57 -0.571445 -3.84274 0
M  V30 3887 H 383.242 -3.13976 -3.3796 0
M  V30 3888 H 381.485 -3.00305 -3.13048 0
M  V30 3889 H 382.156 -2.80779 -4.75255 0
M  V30 3890 H 384.632 -1.01987 -4.03408 0
M  V30 3891 H 383.508 -0.910383 -5.41298 0
M  V30 3892 H 383.769 0.495761 -4.39312 0
M  V30 3893 N 382.828 1.3818 -0.7579 0
M  V30 3894 C 383.738 2.3421 -0.135247 0
M  V30 3895 C 384.754 1.59487 0.695683 0
M  V30 3896 O 385.93 1.91657 0.618832 0
M  V30 3897 C 382.995 3.3862 0.744139 0
M  V30 3898 C 382.056 4.2918 -0.101658 0
M  V30 3899 C 381.289 5.28603 0.735851 0
M  V30 3900 O 381.512 5.35166 1.97366 0
M  V30 3901 O 380.446 6.01707 0.152372 0
M  V30 3902 H 384.272 2.8916 -0.928436 0
M  V30 3903 H 381.857 1.40101 -0.518855 0
M  V30 3904 H 383.739 4.02539 1.2466 0
M  V30 3905 H 382.414 2.86019 1.51575 0
M  V30 3906 H 381.321 3.68407 -0.650167 0
M  V30 3907 H 382.654 4.85048 -0.836024 0
M  V30 3908 N 384.306 0.507319 1.49211 0
M  V30 3909 C 385.536 -0.0315292 2.06576 0
M  V30 3910 C 385.944 -1.30791 1.36713 0
M  V30 3911 O 385.287 -1.78324 0.441181 0
M  V30 3912 C 385.349 -0.349104 3.57801 0
M  V30 3913 C 385.013 0.830475 4.49391 0
M  V30 3914 C 386.01 1.72271 4.90529 0
M  V30 3915 C 383.695 1.03107 4.91604 0
M  V30 3916 C 385.689 2.79964 5.72625 0
M  V30 3917 C 383.376 2.11116 5.73475 0
M  V30 3918 C 384.374 2.99379 6.1389 0
M  V30 3919 O 384.062 4.05523 6.94123 0
M  V30 3920 H 383.794 0.0201002 0.675701 0
M  V30 3921 H 386.348 0.705737 1.92895 0
M  V30 3922 H 384.578 -1.14005 3.69513 0
M  V30 3923 H 386.267 -0.827319 3.97379 0
M  V30 3924 H 387.033 1.57958 4.58557 0
M  V30 3925 H 382.912 0.353417 4.59643 0
M  V30 3926 H 386.456 3.48884 6.04091 0
M  V30 3927 H 382.353 2.25421 6.0486 0
M  V30 3928 H 383.121 4.02953 7.1244 0
M  V30 3929 N 385.784 -1.5574 0.241426 0
M  V30 3930 C 387.032 -1.98417 -0.384075 0
M  V30 3931 C 387.353 -1.13078 -1.58866 0
M  V30 3932 O 386.623 -0.212312 -1.94746 0
M  V30 3933 H 385.203 -0.732813 -0.144894 0
M  V30 3934 H 387.865 -1.9193 0.338943 0
M  V30 3935 H 386.961 -3.04219 -0.696939 0
M  V30 3936 N 387.262 0.0317525 -1.57568 0
M  V30 3937 C 388.508 0.718712 -1.90279 0
M  V30 3938 C 388.863 1.73108 -0.839727 0
M  V30 3939 O 388.156 1.90997 0.15188 0
M  V30 3940 C 388.35 1.43167 -3.27472 0
M  V30 3941 C 388.179 0.489869 -4.47024 0
M  V30 3942 C 386.949 0.111909 -5.05176 0
M  V30 3943 C 389.147 -0.230592 -5.13783 0
M  V30 3944 N 387.129 -0.831427 -6.08244 0
M  V30 3945 C 388.5 -1.02968 -6.1139 0
M  V30 3946 C 390.555 -0.297821 -4.97008 0
M  V30 3947 C 389.258 -1.88982 -6.9403 0
M  V30 3948 C 391.284 -1.14507 -5.80209 0
M  V30 3949 C 390.646 -1.9321 -6.77384 0
M  V30 3950 H 386.745 0.237177 -0.745165 0
M  V30 3951 H 389.329 -0.0211267 -1.94689 0
M  V30 3952 H 387.5 2.14199 -3.23996 0
M  V30 3953 H 389.232 2.0708 -3.47707 0
M  V30 3954 H 385.987 0.473513 -4.71227 0
M  V30 3955 H 386.411 -1.29752 -6.6445 0
M  V30 3956 H 391.053 0.296346 -4.2176 0
M  V30 3957 H 388.771 -2.4948 -7.68626 0
M  V30 3958 H 392.357 -1.20059 -5.69278 0
M  V30 3959 H 391.237 -2.57711 -7.40645 0
M  V30 3960 N 388.74 1.54641 0.303973 0
M  V30 3961 C 389.965 1.78092 1.06292 0
M  V30 3962 C 390.39 0.537342 1.80262 0
M  V30 3963 O 389.748 -0.511993 1.7392 0
M  V30 3964 C 389.796 2.98612 2.02147 0
M  V30 3965 O 388.9 2.71528 3.10397 0
M  V30 3966 H 388.241 0.589548 0.305497 0
M  V30 3967 H 390.771 2.01716 0.3423 0
M  V30 3968 H 390.781 3.265 2.44667 0
M  V30 3969 H 389.456 3.88785 1.47714 0
M  V30 3970 H 388.033 2.54648 2.72413 0
M  V30 3971 N 390.218 -0.567019 1.47046 0
M  V30 3972 C 391.181 -1.65696 1.58359 0
M  V30 3973 C 392.181 -1.54097 0.459441 0
M  V30 3974 O 393.371 -1.58432 0.724225 0
M  V30 3975 C 390.503 -3.05197 1.51879 0
M  V30 3976 H 391.696 -1.57019 2.5551 0
M  V30 3977 H 389.249 -0.786148 1.3509 0
M  V30 3978 H 389.984 -3.19417 0.560673 0
M  V30 3979 H 389.769 -3.15025 2.33455 0
M  V30 3980 H 391.259 -3.84511 1.62913 0
M  V30 3981 N 391.696 -1.35014 -0.812953 0
M  V30 3982 C 393.112 -1.14914 -1.10757 0
M  V30 3983 C 393.312 0.0426818 -2.01455 0
M  V30 3984 O 392.368 0.715212 -2.42159 0
M  V30 3985 C 393.681 -2.44911 -1.74468 0
M  V30 3986 C 395.229 -2.5106 -1.86917 0
M  V30 3987 C 395.704 -3.81085 -2.54044 0
M  V30 3988 N 397.195 -3.82301 -2.61535 0
M  V30 3989 C 397.93 -4.79634 -3.14227 0
M  V30 3990 N 397.426 -5.87353 -3.67407 0
M  V30 3991 N 399.219 -4.67078 -3.12721 0
M  V30 3992 H 391.37 -2.1136 -0.20989 0
M  V30 3993 H 393.633 -0.935128 -0.155692 0
M  V30 3994 H 393.339 -3.32267 -1.15289 0
M  V30 3995 H 393.213 -2.58989 -2.74234 0
M  V30 3996 H 395.6 -1.64137 -2.45241 0
M  V30 3997 H 395.681 -2.40901 -0.860242 0
M  V30 3998 H 395.325 -4.68402 -1.96372 0
M  V30 3999 H 395.255 -3.88529 -3.55461 0
M  V30 4000 H 397.746 -3.04465 -2.23851 0
M  V30 4001 H 398.059 -6.57624 -4.05894 0
M  V30 4002 H 396.404 -5.91054 -3.65623 0
M  V30 4003 H 399.595 -3.82067 -2.70449 0
M  V30 4004 H 399.768 -5.43098 -3.53481 0
M  V30 4005 N 393.175 1.03435 -1.18907 0
M  V30 4006 C 394.403 1.80381 -1.01342 0
M  V30 4007 C 394.818 1.83649 0.438005 0
M  V30 4008 O 394.175 1.27655 1.30424 0
M  V30 4009 C 394.226 3.25689 -1.56873 0
M  V30 4010 O 393.947 3.22673 -2.96334 0
M  V30 4011 C 395.448 4.19255 -1.44014 0
M  V30 4012 H 392.668 0.56784 -0.35749 0
M  V30 4013 H 395.212 1.30317 -1.576 0
M  V30 4014 H 393.367 3.72962 -1.04777 0
M  V30 4015 H 393.781 4.13748 -3.22355 0
M  V30 4016 H 395.255 5.19123 -1.87657 0
M  V30 4017 H 395.732 4.37467 -0.389815 0
M  V30 4018 H 396.338 3.77851 -1.95214 0
M  V30 4019 N 394.653 0.992116 1.22453 0
M  V30 4020 C 395.899 0.668523 1.91464 0
M  V30 4021 C 396.232 -0.797313 1.77078 0
M  V30 4022 O 395.507 -1.5765 1.13916 0
M  V30 4023 C 395.79 1.07424 3.43703 0
M  V30 4024 C 395.643 2.59857 3.67143 0
M  V30 4025 C 396.962 0.626891 4.35612 0
M  V30 4026 H 394.081 0.244341 0.695318 0
M  V30 4027 H 396.723 1.2355 1.44345 0
M  V30 4028 H 394.873 0.591816 3.83966 0
M  V30 4029 H 396.545 3.15764 3.3629 0
M  V30 4030 H 394.788 3.01961 3.11451 0
M  V30 4031 H 395.459 2.83296 4.73759 0
M  V30 4032 H 397.935 1.04125 4.02861 0
M  V30 4033 H 396.811 0.939076 5.40807 0
M  V30 4034 H 397.072 -0.472457 4.39568 0
M  V30 4035 N 396.131 -1.37776 0.765217 0
M  V30 4036 C 397.408 -1.93975 0.251596 0
M  V30 4037 C 397.788 -1.69949 -1.25222 0
M  V30 4038 O 397.136 -1.04457 -2.03226 0
M  V30 4039 C 397.346 -3.43487 0.617895 0
M  V30 4040 C 398.694 -4.20564 0.584029 0
M  V30 4041 O 399.718 -3.5182 0.556888 0
M  V30 4042 O 398.577 -5.43138 0.605291 0
M  V30 4043 H 395.671 -0.82509 0.0561806 0
M  V30 4044 H 398.217 -1.47101 0.846128 0
M  V30 4045 H 396.989 -3.5453 1.65602 0
M  V30 4046 H 396.612 -3.976 -0.00403411 0
M  V30 4047 N 397.609 -0.515225 -1.4894 0
M  V30 4048 C 399.025 -0.172099 -1.58669 0
M  V30 4049 C 399.225 1.32405 -1.51892 0
M  V30 4050 O 398.281 2.10116 -1.40027 0
M  V30 4051 C 399.594 -0.761533 -2.90897 0
M  V30 4052 C 401.142 -0.728926 -3.04394 0
M  V30 4053 C 401.617 -1.29667 -4.39261 0
M  V30 4054 N 403.108 -1.25799 -4.4579 0
M  V30 4055 C 403.843 -1.66733 -5.48623 0
M  V30 4056 N 403.339 -2.15327 -6.58488 0
M  V30 4057 N 405.132 -1.58061 -5.39419 0
M  V30 4058 H 397.283 -1.48778 -1.51588 0
M  V30 4059 H 399.546 -0.617968 -0.718901 0
M  V30 4060 H 399.252 -1.81136 -3.01468 0
M  V30 4061 H 399.126 -0.230106 -3.76497 0
M  V30 4062 H 401.513 0.312098 -2.93445 0
M  V30 4063 H 401.594 -1.29766 -2.20442 0
M  V30 4064 H 401.238 -2.33655 -4.50963 0
M  V30 4065 H 401.168 -0.703752 -5.21876 0
M  V30 4066 H 403.659 -0.902102 -3.66975 0
M  V30 4067 H 403.972 -2.44594 -7.33071 0
M  V30 4068 H 402.317 -2.19311 -6.59491 0
M  V30 4069 H 405.508 -1.19906 -4.52482 0
M  V30 4070 H 405.681 -1.90284 -6.19432 0
M  V30 4071 N 399.087 1.5561 -0.249682 0
M  V30 4072 C 400.312 2.03865 0.381305 0
M  V30 4073 C 400.737 1.12769 1.50548 0
M  V30 4074 O 400.095 0.121189 1.80895 0
M  V30 4075 C 400.143 3.50101 0.863816 0
M  V30 4076 O 399.247 3.62132 1.97318 0
M  V30 4077 H 398.588 0.658827 0.0827194 0
M  V30 4078 H 401.118 2.01105 -0.376552 0
M  V30 4079 H 401.128 3.90975 1.1663 0
M  V30 4080 H 399.803 4.1588 0.0411816 0
M  V30 4081 H 398.38 3.33155 1.67517 0
M  V30 4082 N 400.565 -0.0233959 1.57583 0
M  V30 4083 C 401.811 -0.708611 1.90657 0
M  V30 4084 C 402.166 -1.7266 0.848895 0
M  V30 4085 O 401.459 -1.91075 -0.141749 0
M  V30 4086 C 401.653 -1.41428 3.28227 0
M  V30 4087 C 401.482 -0.466155 4.47277 0
M  V30 4088 C 400.252 -0.085117 5.05228 0
M  V30 4089 C 402.45 0.257836 5.13653 0
M  V30 4090 N 400.432 0.863672 6.07794 0
M  V30 4091 C 401.803 1.06209 6.10835 0
M  V30 4092 C 403.858 0.324174 4.96844 0
M  V30 4093 C 402.561 1.9266 6.93018 0
M  V30 4094 C 404.587 1.17583 5.79593 0
M  V30 4095 C 403.949 1.96799 6.7635 0
M  V30 4096 H 400.048 -0.233222 0.746412 0
M  V30 4097 H 402.632 0.0314512 1.94675 0
M  V30 4098 H 400.803 -2.12477 3.25128 0
M  V30 4099 H 402.535 -2.05233 3.488 0
M  V30 4100 H 399.29 -0.448516 4.71471 0
M  V30 4101 H 399.714 1.33274 6.63752 0
M  V30 4102 H 404.356 -0.273975 4.21911 0
M  V30 4103 H 402.074 2.53552 7.67292 0
M  V30 4104 H 405.66 1.23076 5.68633 0
M  V30 4105 H 404.54 2.61635 7.39268 0
M  V30 4106 N 402.043 -1.548 -0.295768 0
M  V30 4107 C 403.289 -1.74588 -1.03184 0
M  V30 4108 C 403.622 -0.532962 -1.86744 0
M  V30 4109 O 402.897 0.469872 -1.88739 0
M  V30 4110 C 403.18 -3.03791 -1.93347 0
M  V30 4111 C 403.033 -4.35392 -1.12933 0
M  V30 4112 C 404.352 -3.28892 -2.92435 0
M  V30 4113 H 401.471 -0.635221 -0.373715 0
M  V30 4114 H 404.113 -1.87519 -0.30606 0
M  V30 4115 H 402.263 -2.92898 -2.55232 0
M  V30 4116 H 403.935 -4.58211 -0.532943 0
M  V30 4117 H 402.178 -4.31642 -0.432168 0
M  V30 4118 H 402.849 -5.22074 -1.79284 0
M  V30 4119 H 405.325 -3.39429 -2.4068 0
M  V30 4120 H 404.201 -4.20603 -3.52682 0
M  V30 4121 H 404.462 -2.47437 -3.6637 0
M  V30 4122 N 403.521 0.559213 -1.47345 0
M  V30 4123 C 404.767 1.31843 -1.54095 0
M  V30 4124 C 405.1 1.93149 -0.201726 0
M  V30 4125 O 404.375 1.77759 0.789428 0
M  V30 4126 C 404.658 2.43006 -2.65744 0
M  V30 4127 C 404.511 1.86581 -4.09277 0
M  V30 4128 C 405.83 3.44943 -2.73318 0
M  V30 4129 H 402.949 0.478012 -0.560957 0
M  V30 4130 H 405.591 0.625977 -1.79392 0
M  V30 4131 H 403.741 3.02072 -2.44305 0
M  V30 4132 H 405.413 1.31792 -4.42073 0
M  V30 4133 H 403.656 1.17268 -4.17649 0
M  V30 4134 H 404.327 2.66933 -4.83168 0
M  V30 4135 H 406.803 2.95793 -2.92653 0
M  V30 4136 H 405.679 4.20153 -3.53218 0
M  V30 4137 H 405.94 4.03665 -1.80296 0
M  V30 4138 N 404.999 1.35443 0.805782 0
M  V30 4139 C 406.245 1.28952 1.56522 0
M  V30 4140 C 406.578 -0.135597 1.93726 0
M  V30 4141 O 405.853 -1.08516 1.61414 0
M  V30 4142 C 406.136 2.19678 2.85331 0
M  V30 4143 C 405.989 3.7081 2.54598 0
M  V30 4144 C 407.308 2.09495 3.8704 0
M  V30 4145 H 404.427 0.469764 0.567883 0
M  V30 4146 H 407.069 1.65851 0.927001 0
M  V30 4147 H 405.219 1.8834 3.39795 0
M  V30 4148 H 406.891 4.12593 2.06312 0
M  V30 4149 H 405.134 3.91051 1.8778 0
M  V30 4150 H 405.805 4.29679 3.46525 0
M  V30 4151 H 408.281 2.37045 3.41978 0
M  V30 4152 H 407.157 2.75173 4.74943 0
M  V30 4153 H 407.418 1.07714 4.28777 0
M  V30 4154 N 406.477 -1.02803 1.19454 0
M  V30 4155 C 407.893 -1.28473 0.946937 0
M  V30 4156 C 408.093 -1.97881 -0.380202 0
M  V30 4157 O 407.149 -2.26719 -1.11151 0
M  V30 4158 C 408.462 -2.13099 2.12154 0
M  V30 4159 C 410.01 -2.26404 2.16126 0
M  V30 4160 C 410.485 -3.14402 3.33039 0
M  V30 4161 N 411.976 -3.21991 3.32981 0
M  V30 4162 C 412.711 -3.90272 4.20089 0
M  V30 4163 N 412.207 -4.60777 5.17355 0
M  V30 4164 N 414 -3.8668 4.07964 0
M  V30 4165 H 406.151 -0.561665 2.04839 0
M  V30 4166 H 408.414 -0.310438 0.89573 0
M  V30 4167 H 408.12 -1.69422 3.08203 0
M  V30 4168 H 407.994 -3.13813 2.09287 0
M  V30 4169 H 410.381 -2.69311 1.20647 0
M  V30 4170 H 410.462 -1.25237 2.23045 0
M  V30 4171 H 410.106 -2.72204 4.28798 0
M  V30 4172 H 410.036 -4.1563 3.23356 0
M  V30 4173 H 412.527 -2.71778 2.62574 0
M  V30 4174 H 412.84 -5.10513 5.80169 0
M  V30 4175 H 411.185 -4.5964 5.21302 0
M  V30 4176 H 414.376 -3.30739 3.31254 0
M  V30 4177 H 414.549 -4.39621 4.76064 0
M  V30 4178 N 407.956 -0.998596 -1.21925 0
M  V30 4179 C 408.906 -0.524743 -2.21879 0
M  V30 4180 C 409.89 0.41017 -1.55584 0
M  V30 4181 O 411.082 0.236063 -1.75419 0
M  V30 4182 C 408.211 0.153636 -3.42956 0
M  V30 4183 C 407.297 -0.801918 -4.16449 0
M  V30 4184 N 407.688 -1.95211 -4.66611 0
M  V30 4185 C 405.986 -0.618972 -4.41684 0
M  V30 4186 C 406.687 -2.55234 -5.22715 0
M  V30 4187 N 405.663 -1.83451 -5.1171 0
M  V30 4188 H 409.465 -1.40189 -2.58311 0
M  V30 4189 H 406.979 -0.86159 -1.3766 0
M  V30 4190 H 408.976 0.510534 -4.13762 0
M  V30 4191 H 407.636 1.02684 -3.08036 0
M  V30 4192 H 408.647 -2.33271 -4.62391 0
M  V30 4193 H 405.324 0.207694 -4.16983 0
M  V30 4194 H 406.714 -3.52471 -5.72026 0
M  V30 4195 N 409.434 1.37368 -0.772513 0
M  V30 4196 C 410.711 1.93839 -0.26188 0
M  V30 4197 C 411.091 1.7061 1.24319 0
M  V30 4198 O 410.439 1.05534 2.02669 0
M  V30 4199 C 410.649 3.43154 -0.636102 0
M  V30 4200 C 411.997 4.20249 -0.606324 0
M  V30 4201 O 413.021 3.5152 -0.575538 0
M  V30 4202 O 411.88 5.42809 -0.634086 0
M  V30 4203 H 408.974 0.82478 -0.0605555 0
M  V30 4204 H 411.52 1.4665 -0.853917 0
M  V30 4205 H 410.292 3.53647 -1.6748 0
M  V30 4206 H 409.915 3.97596 -0.0170516 0
M  V30 4207 N 410.912 0.523116 1.48665 0
M  V30 4208 C 412.137 -0.0117284 2.07397 0
M  V30 4209 C 412.562 -1.28031 1.37803 0
M  V30 4210 O 411.92 -1.75836 0.441762 0
M  V30 4211 C 411.968 -0.225786 3.59892 0
M  V30 4212 O 411.072 -1.29592 3.91509 0
M  V30 4213 H 410.413 0.0360673 0.66302 0
M  V30 4214 H 412.943 0.729066 1.9117 0
M  V30 4215 H 412.953 -0.450552 4.05505 0
M  V30 4216 H 411.628 0.700944 4.09951 0
M  V30 4217 H 410.205 -1.05436 3.57684 0
M  V30 4218 N 412.39 -1.55475 0.257931 0
M  V30 4219 C 413.801 -1.8511 -0.243135 0
M  V30 4220 C 414.152 -1.17986 -1.5676 0
M  V30 4221 O 413.277 -0.462102 -2.11409 0
M  V30 4222 C 413.872 -3.35826 -0.447929 0
M  V30 4223 C 412.431 -3.65647 -0.893245 0
M  V30 4224 C 411.578 -2.7729 0.0232965 0
M  V30 4225 H 414.529 -1.51261 0.480199 0
M  V30 4226 H 414.55 -3.58002 -1.28898 0
M  V30 4227 H 414.062 -3.84652 0.516196 0
M  V30 4228 H 412.163 -3.22308 -1.86945 0
M  V30 4229 H 412.276 -4.73312 -0.742469 0
M  V30 4230 H 410.64 -2.49942 -0.490021 0
M  V30 4231 H 411.423 -3.28926 0.982994 0
M  V30 4232 N 413.868 0.0150385 -1.57593 0
M  V30 4233 C 415.093 0.718067 -1.94573 0
M  V30 4234 C 415.518 1.6734 -0.859005 0
M  V30 4235 O 414.876 1.80362 0.184147 0
M  V30 4236 C 414.924 1.43918 -3.30636 0
M  V30 4237 O 414.028 2.55299 -3.23876 0
M  V30 4238 H 413.369 0.192125 -0.635597 0
M  V30 4239 H 415.899 -0.0336708 -2.04572 0
M  V30 4240 H 415.909 1.80598 -3.65853 0
M  V30 4241 H 414.584 0.738619 -4.09289 0
M  V30 4242 H 413.161 2.21058 -3.00312 0
M  V30 4243 N 415.346 1.54954 0.287554 0
M  V30 4244 C 416.279 1.81737 1.3801 0
M  V30 4245 C 417.257 0.669412 1.48181 0
M  V30 4246 O 418.441 0.910839 1.65033 0
M  V30 4247 C 415.568 1.96606 2.75796 0
M  V30 4248 C 414.614 3.19098 2.82982 0
M  V30 4249 S 415.447 4.7683 2.43707 0
M  V30 4250 C 416.603 4.94653 3.83496 0
M  V30 4251 H 416.836 2.74122 1.15085 0
M  V30 4252 H 414.369 1.46538 0.486403 0
M  V30 4253 H 416.327 2.05858 3.55152 0
M  V30 4254 H 414.988 1.05136 2.95982 0
M  V30 4255 H 414.181 3.26344 3.84077 0
M  V30 4256 H 413.783 3.08361 2.11635 0
M  V30 4257 H 416.075 4.79502 4.78628 0
M  V30 4258 H 417.018 5.96728 3.8121 0
M  V30 4259 H 417.426 4.2272 3.74123 0
M  V30 4260 N 416.824 -0.551391 1.4764 0
M  V30 4261 C 418.07 -1.30789 1.55774 0
M  V30 4262 C 418.425 -1.91143 0.219562 0
M  V30 4263 O 417.718 -1.7521 -0.775375 0
M  V30 4264 C 417.912 -2.43469 2.61644 0
M  V30 4265 C 417.741 -1.94157 4.05627 0
M  V30 4266 C 416.511 -1.77734 4.7301 0
M  V30 4267 C 418.709 -1.48262 4.92466 0
M  V30 4268 N 416.691 -1.22823 6.01488 0
M  V30 4269 C 418.062 -1.05156 6.11017 0
M  V30 4270 C 420.117 -1.36367 4.78862 0
M  V30 4271 C 418.82 -0.513357 7.17466 0
M  V30 4272 C 420.846 -0.839484 5.85411 0
M  V30 4273 C 420.208 -0.418377 7.03156 0
M  V30 4274 H 416.307 -0.470406 0.624694 0
M  V30 4275 H 418.891 -0.624331 1.84419 0
M  V30 4276 H 417.062 -3.09348 2.34859 0
M  V30 4277 H 418.794 -3.10477 2.59589 0
M  V30 4278 H 415.549 -2.00623 4.29007 0
M  V30 4279 H 415.973 -0.974393 6.69951 0
M  V30 4280 H 420.615 -1.67535 3.88191 0
M  V30 4281 H 418.333 -0.189318 8.07878 0
M  V30 4282 H 421.919 -0.750921 5.76934 0
M  V30 4283 H 420.799 -0.0190538 7.84198 0
M  V30 4284 N 418.302 -1.35869 -0.798587 0
M  V30 4285 C 419.55 -1.29332 -1.55298 0
M  V30 4286 C 419.871 0.129729 -1.94568 0
M  V30 4287 O 419.141 1.06796 -1.6423 0
M  V30 4288 H 417.721 -0.475737 -0.57592 0
M  V30 4289 H 420.383 -1.70062 -0.952093 0
M  V30 4290 H 419.479 -1.91458 -2.46476 0
M  V30 4291 N 419.78 1.02168 -1.19998 0
M  V30 4292 C 420.73 2.08969 -0.911921 0
M  V30 4293 C 421.714 1.60404 0.12621 0
M  V30 4294 O 422.906 1.76817 -0.0804706 0
M  V30 4295 C 420.035 3.402 -0.460277 0
M  V30 4296 C 419.121 3.9548 -1.53155 0
M  V30 4297 N 419.512 4.24332 -2.75275 0
M  V30 4298 C 417.81 4.23572 -1.39653 0
M  V30 4299 C 418.511 4.68834 -3.44339 0
M  V30 4300 N 417.487 4.70804 -2.71744 0
M  V30 4301 H 421.289 2.29178 -1.83997 0
M  V30 4302 H 418.803 1.20094 -1.09322 0
M  V30 4303 H 420.8 4.16235 -0.235337 0
M  V30 4304 H 419.46 3.21408 0.4612 0
M  V30 4305 H 420.471 4.13393 -3.11973 0
M  V30 4306 H 417.148 4.14005 -0.539067 0
M  V30 4307 H 418.538 5.00019 -4.4881 0
M  V30 4308 N 421.258 1.00505 1.21394 0
M  V30 4309 C 422.205 0.565496 2.23765 0
M  V30 4310 C 423.175 -0.408466 1.60999 0
M  V30 4311 O 424.36 -0.310503 1.88257 0
M  V30 4312 C 421.5 -0.101667 3.4495 0
M  V30 4313 C 420.613 0.915479 4.22188 0
M  V30 4314 C 419.748 0.220574 5.30742 0
M  V30 4315 C 418.787 1.22527 5.99711 0
M  V30 4316 N 417.924 0.557831 6.9988 0
M  V30 4317 H 422.764 1.44314 2.60725 0
M  V30 4318 H 420.301 0.722643 1.28126 0
M  V30 4319 H 422.259 -0.505504 4.14126 0
M  V30 4320 H 420.889 -0.94303 3.08718 0
M  V30 4321 H 419.941 1.43756 3.52191 0
M  V30 4322 H 421.253 1.68005 4.69655 0
M  V30 4323 H 420.407 -0.239368 6.06228 0
M  V30 4324 H 419.146 -0.576401 4.84282 0
M  V30 4325 H 418.151 1.69571 5.22997 0
M  V30 4326 H 419.376 2.02332 6.48258 0
M  V30 4327 H 417.322 -0.219486 6.55633 0
M  V30 4328 H 417.239 1.26065 7.45415 0
M  V30 4329 H 418.507 0.121095 7.79406 0
M  V30 4330 N 422.737 -1.36956 0.779787 0
M  V30 4331 C 423.962 -2.04283 0.358224 0
M  V30 4332 C 424.387 -1.58422 -1.01411 0
M  V30 4333 O 423.745 -0.748179 -1.65142 0
M  V30 4334 C 423.793 -3.58152 0.419479 0
M  V30 4335 O 422.897 -4.08342 -0.577142 0
M  V30 4336 H 422.238 -0.645967 0.153698 0
M  V30 4337 H 424.768 -1.75108 1.05822 0
M  V30 4338 H 424.778 -4.07041 0.279636 0
M  V30 4339 H 423.453 -3.90886 1.42061 0
M  V30 4340 H 422.03 -3.70751 -0.399755 0
M  V30 4341 N 424.215 -0.530993 -1.48385 0
M  V30 4342 C 425.461 0.00274135 -2.028 0
M  V30 4343 C 425.794 1.33838 -1.40716 0
M  V30 4344 O 425.069 1.86465 -0.553277 0
M  V30 4345 C 425.352 0.123676 -3.59888 0
M  V30 4346 C 425.205 -1.2372 -4.3245 0
M  V30 4347 C 426.524 0.849967 -4.31814 0
M  V30 4348 H 423.643 -0.000477758 -0.737 0
M  V30 4349 H 426.285 -0.688217 -1.77098 0
M  V30 4350 H 424.435 0.712157 -3.81917 0
M  V30 4351 H 426.107 -1.86687 -4.21836 0
M  V30 4352 H 424.35 -1.81882 -3.93829 0
M  V30 4353 H 425.021 -1.10557 -5.40815 0
M  V30 4354 H 427.497 0.350572 -4.14621 0
M  V30 4355 H 426.373 0.903486 -5.41413 0
M  V30 4356 H 426.634 1.90047 -3.99167 0
M  V30 4357 N 425.693 1.55336 -0.266172 0
M  V30 4358 C 427.109 1.59356 0.0882065 0
M  V30 4359 C 427.309 1.2834 1.55342 0
M  V30 4360 O 426.365 1.03996 2.30089 0
M  V30 4361 C 427.678 2.99409 -0.278364 0
M  V30 4362 C 429.226 3.12196 -0.224243 0
M  V30 4363 C 429.701 4.545 -0.565123 0
M  V30 4364 N 431.192 4.60313 -0.51634 0
M  V30 4365 C 431.927 5.68434 -0.753013 0
M  V30 4366 N 431.423 6.84738 -1.05383 0
M  V30 4367 N 433.216 5.57942 -0.682414 0
M  V30 4368 H 425.367 1.73764 -1.22147 0
M  V30 4369 H 427.63 0.809822 -0.492841 0
M  V30 4370 H 427.336 3.2691 -1.29703 0
M  V30 4371 H 427.21 3.75228 0.385186 0
M  V30 4372 H 429.597 2.84464 0.78512 0
M  V30 4373 H 429.678 2.38609 -0.921922 0
M  V30 4374 H 429.322 4.82956 -1.57213 0
M  V30 4375 H 429.252 5.26374 0.154248 0
M  V30 4376 H 431.743 3.7676 -0.29335 0
M  V30 4377 H 432.056 7.63088 -1.22133 0
M  V30 4378 H 430.401 6.86375 -1.09151 0
M  V30 4379 H 433.592 4.65958 -0.44731 0
M  V30 4380 H 433.765 6.4213 -0.870248 0
M  V30 4381 N 427.171 -0.0066808 1.57599 0
M  V30 4382 C 428.448 -0.729586 1.81484 0
M  V30 4383 C 428.828 -1.92359 0.869558 0
M  V30 4384 O 428.176 -2.28348 -0.0832533 0
M  V30 4385 C 428.386 -1.1416 3.29801 0
M  V30 4386 C 429.734 -1.54823 3.95367 0
M  V30 4387 O 430.758 -1.23558 3.34084 0
M  V30 4388 O 429.617 -2.12937 5.03309 0
M  V30 4389 H 426.711 -0.354674 0.747085 0
M  V30 4390 H 429.257 0.0182609 1.6969 0
M  V30 4391 H 428.029 -0.290231 3.90222 0
M  V30 4392 H 427.652 -1.94876 3.46568 0
M  V30 4393 N 428.649 -1.55105 -0.279332 0
M  V30 4394 C 429.596 -1.8755 -1.34513 0
M  V30 4395 C 430.566 -0.726384 -1.49375 0
M  V30 4396 O 431.751 -0.977063 -1.63884 0
M  V30 4397 C 428.891 -2.14738 -2.70151 0
M  V30 4398 C 428.004 -3.42285 -2.63562 0
M  V30 4399 C 427.139 -3.59206 -3.91337 0
M  V30 4400 C 426.178 -4.80467 -3.79233 0
M  V30 4401 N 425.315 -4.94079 -4.98829 0
M  V30 4402 H 430.155 -2.78456 -1.06143 0
M  V30 4403 H 427.692 -1.37867 -0.512936 0
M  V30 4404 H 429.65 -2.28501 -3.49061 0
M  V30 4405 H 428.28 -1.27075 -2.96735 0
M  V30 4406 H 427.332 -3.37029 -1.76397 0
M  V30 4407 H 428.644 -4.31328 -2.50515 0
M  V30 4408 H 427.798 -3.72751 -4.78687 0
M  V30 4409 H 426.537 -2.68337 -4.07243 0
M  V30 4410 H 425.542 -4.66932 -2.90266 0
M  V30 4411 H 426.767 -5.72765 -3.64852 0
M  V30 4412 H 424.713 -4.06139 -5.15158 0
M  V30 4413 H 424.63 -5.77156 -4.8829 0
M  V30 4414 H 425.898 -5.12003 -5.8777 0
M  V30 4415 N 430.127 0.543554 -1.4793 0
M  V30 4416 C 431.09 1.63156 -1.60975 0
M  V30 4417 C 432.09 1.53346 -0.483899 0
M  V30 4418 O 433.28 1.5726 -0.749339 0
M  V30 4419 C 430.412 3.02743 -1.56716 0
M  V30 4420 H 431.605 1.52934 -2.57975 0
M  V30 4421 H 429.158 0.764557 -1.36324 0
M  V30 4422 H 429.893 3.18484 -0.611418 0
M  V30 4423 H 429.678 3.11272 -2.38438 0
M  V30 4424 H 431.168 3.81871 -1.6901 0
M  V30 4425 N 431.605 1.3629 0.791371 0
M  V30 4426 C 432.568 1.30309 1.88553 0
M  V30 4427 C 433.568 0.211204 1.59407 0
M  V30 4428 O 434.758 0.465865 1.67855 0
M  V30 4429 C 431.89 1.01956 3.25297 0
M  V30 4430 H 433.083 2.27614 1.95273 0
M  V30 4431 H 430.636 1.21035 0.988953 0
M  V30 4432 H 431.371 0.050998 3.2426 0
M  V30 4433 H 431.156 1.80968 3.4784 0
M  V30 4434 H 432.646 1.0037 4.05359 0
M  V30 4435 N 433.083 -1.0153 1.20538 0
M  V30 4436 C 434.046 -2.0826 0.957098 0
M  V30 4437 C 435.046 -1.60657 -0.0678655 0
M  V30 4438 O 436.236 -1.73385 0.168332 0
M  V30 4439 C 433.368 -3.38033 0.441188 0
M  V30 4440 H 434.561 -2.31719 1.90384 0
M  V30 4441 H 432.114 -1.1835 1.02093 0
M  V30 4442 H 432.849 -3.20249 -0.510961 0
M  V30 4443 H 432.634 -3.73911 1.18038 0
M  V30 4444 H 434.124 -4.16613 0.287009 0
M  V30 4445 N 434.561 -1.01147 -1.20859 0
M  V30 4446 C 435.977 -0.725422 -1.42161 0
M  V30 4447 C 436.177 0.696919 -1.89064 0
M  V30 4448 O 435.233 1.46539 -2.05627 0
M  V30 4449 C 436.546 -1.74678 -2.44761 0
M  V30 4450 C 438.094 -1.76433 -2.58535 0
M  V30 4451 C 438.569 -2.77481 -3.64374 0
M  V30 4452 N 440.06 -2.76189 -3.71852 0
M  V30 4453 C 440.795 -3.51035 -4.53389 0
M  V30 4454 N 440.291 -4.35541 -5.38773 0
M  V30 4455 N 442.084 -3.39655 -4.47873 0
M  V30 4456 H 434.235 -1.92979 -0.887282 0
M  V30 4457 H 436.498 -0.833327 -0.451962 0
M  V30 4458 H 436.204 -2.76551 -2.17285 0
M  V30 4459 H 436.078 -1.55472 -3.43669 0
M  V30 4460 H 438.465 -0.75248 -2.85345 0
M  V30 4461 H 438.546 -1.99712 -1.5984 0
M  V30 4462 H 438.19 -3.78827 -3.38308 0
M  V30 4463 H 438.12 -2.51466 -4.6268 0
M  V30 4464 H 440.611 -2.14885 -3.10858 0
M  V30 4465 H 440.924 -4.89432 -5.98061 0
M  V30 4466 H 439.269 -4.39621 -5.38292 0
M  V30 4467 H 442.46 -2.73063 -3.80203 0
M  V30 4468 H 442.633 -3.9824 -5.11184 0
M  V30 4469 N 436.039 1.36541 -0.78704 0
M  V30 4470 C 436.987 2.31965 -0.171724 0
M  V30 4471 C 437.981 1.55689 0.667631 0
M  V30 4472 O 439.187 1.70969 0.562981 0
M  V30 4473 H 435.562 0.751101 -0.0367545 0
M  V30 4474 H 437.533 2.81428 -0.992017 0
M  V30 4475 C 436.282 3.40968 0.680904 0
M  V30 4476 H 435.605 3.99775 0.0443961 0
M  V30 4477 H 437.045 4.10063 1.07815 0
M  V30 4478 C 435.504 2.82338 1.83813 0
M  V30 4479 O 436.034 2.74311 2.93456 0
M  V30 4480 N 434.24 2.39661 1.6435 0
M  V30 4481 H 433.787 2.46389 0.751668 0
M  V30 4482 H 433.745 2.00779 2.4194 0
M  V30 4483 N 437.518 0.538854 1.48102 0
M  V30 4484 C 438.465 -0.219042 2.29758 0
M  V30 4485 C 439.435 -0.925562 1.37922 0
M  V30 4486 O 440.62 -0.924855 1.66886 0
M  V30 4487 C 437.76 -1.25452 3.2149 0
M  V30 4488 C 436.873 -0.555943 4.28408 0
M  V30 4489 C 436.008 -1.57512 5.0731 0
M  V30 4490 C 435.047 -0.860498 6.06021 0
M  V30 4491 N 434.184 -1.82564 6.77949 0
M  V30 4492 H 439.024 0.483449 2.94052 0
M  V30 4493 H 436.561 0.250247 1.44956 0
M  V30 4494 H 438.519 -1.86727 3.7308 0
M  V30 4495 H 437.149 -1.92528 2.591 0
M  V30 4496 H 436.201 0.170938 3.80016 0
M  V30 4497 H 437.513 0.00474616 4.988 0
M  V30 4498 H 436.667 -2.26191 5.62959 0
M  V30 4499 H 435.406 -2.16972 4.36778 0
M  V30 4500 H 434.411 -0.159686 5.49568 0
M  V30 4501 H 435.636 -0.271897 6.78555 0
M  V30 4502 H 433.582 -2.40915 6.10161 0
M  V30 4503 H 433.499 -1.31662 7.44447 0
M  V30 4504 H 434.767 -2.50414 7.38182 0
M  V30 4505 N 438.996 -1.55193 0.274407 0
M  V30 4506 C 439.959 -2.212 -0.600279 0
M  V30 4507 C 440.959 -1.18963 -1.08187 0
M  V30 4508 O 442.149 -1.43873 -0.982158 0
M  V30 4509 C 439.281 -2.87739 -1.82809 0
M  V30 4510 H 440.474 -2.9989 -0.0239682 0
M  V30 4511 H 438.027 -1.5628 0.0250192 0
M  V30 4512 H 438.762 -2.13058 -2.44493 0
M  V30 4513 H 438.547 -3.62658 -1.49069 0
M  V30 4514 H 440.037 -3.38171 -2.45011 0
M  V30 4515 O 440.513 -0.140013 -1.60892 0
M  V30 4516 H 441.204 0.455152 -1.88277 0
M  V30 END ATOM
M  V30 BEGIN BOND
M  V30 END BOND
M  V30 END CTAB
M  END
$$$$
