drugbank_target|Q9HVZ0 Phosphoheptose isomerase (DB02470)
 OpenBabel12092120013D

  0  0  0     0  0            999 V3000
M  V30 BEGIN CTAB
M  V30 COUNTS 3006 3025 0 0 0
M  V30 BEGIN ATOM
M  V30 1 H -0.908 1.98254 -0.117106 0
M  V30 2 N 0 1.576 0 0
M  V30 3 C 0.933 2.03868 1.02534 0
M  V30 4 C 1.911 0.928543 1.3348 0
M  V30 5 O 3.095 1.19667 1.45644 0
M  V30 6 C 0.222 2.43627 2.35294 0
M  V30 7 C -0.732 3.65373 2.2001 0
M  V30 8 S 0.101 5.13292 1.52614 0
M  V30 9 C 1.257 5.56322 2.86805 0
M  V30 10 H 1.49 2.90518 0.631377 0
M  V30 11 H -0.977 1.52953 0.210867 0
M  V30 12 H 0.981 2.67203 3.11629 0
M  V30 13 H -0.358 1.57376 2.7183 0
M  V30 14 H -1.165 3.90944 3.18086 0
M  V30 15 H -1.563 3.418 1.51819 0
M  V30 16 H 0.729 5.58782 3.83104 0
M  V30 17 H 1.672 6.56266 2.65933 0
M  V30 18 H 2.08 4.83886 2.90714 0
M  V30 19 N 1.4781 -0.272755 1.55222 0
M  V30 20 C 2.7551 -1.02562 1.66555 0
M  V30 21 C 3.1351 -2.04282 0.532189 0
M  V30 22 O 2.4831 -2.23662 -0.467717 0
M  V30 23 C 2.6931 -1.6822 3.05782 0
M  V30 24 C 4.0411 -2.19373 3.63539 0
M  V30 25 O 5.0651 -1.78206 3.08417 0
M  V30 26 O 3.9241 -2.94883 4.60115 0
M  V30 27 H 1.0181 -0.475755 0.676451 0
M  V30 28 H 3.5641 -0.268593 1.67561 0
M  V30 29 H 2.3361 -0.945112 3.79715 0
M  V30 30 H 1.9591 -2.50609 3.08676 0
M  V30 31 N 2.9562 -1.48159 -0.537278 0
M  V30 32 C 3.8892 -1.567 -1.65893 0
M  V30 33 C 4.8672 -0.41787 -1.57139 0
M  V30 34 O 6.0512 -0.628461 -1.77715 0
M  V30 35 C 3.1782 -1.48818 -3.04255 0
M  V30 36 C 2.2242 -2.68482 -3.31391 0
M  V30 37 S 3.0572 -4.30516 -3.1846 0
M  V30 38 C 4.2132 -4.2522 -4.59281 0
M  V30 39 H 4.4462 -2.5159 -1.58397 0
M  V30 40 H 1.9792 -1.36602 -0.719672 0
M  V30 41 H 3.9372 -1.44958 -3.84054 0
M  V30 42 H 2.5982 -0.552777 -3.09198 0
M  V30 43 H 1.7912 -2.59085 -4.32309 0
M  V30 44 H 1.3932 -2.69567 -2.59248 0
M  V30 45 H 3.6852 -3.94703 -5.5065 0
M  V30 46 H 4.6282 -5.26292 -4.73732 0
M  V30 47 H 5.0362 -3.55791 -4.38261 0
M  V30 48 N 4.4343 0.785586 -1.36625 0
M  V30 49 C 5.3663 1.90711 -1.2713 0
M  V30 50 C 6.3793 1.61688 -0.189986 0
M  V30 51 O 7.5683 1.72864 -0.445014 0
M  V30 52 C 4.6683 3.25611 -0.939713 0
M  V30 53 C 3.8413 3.82385 -2.12369 0
M  V30 54 C 2.9003 4.95732 -1.76456 0
M  V30 55 O 1.9263 5.12047 -2.48589 0
M  V30 56 N 3.1283 5.76258 -0.700492 0
M  V30 57 H 5.8933 1.99376 -2.23762 0
M  V30 58 H 3.4543 0.964041 -1.30069 0
M  V30 59 H 5.4463 3.98937 -0.680554 0
M  V30 60 H 4.0163 3.12538 -0.0624074 0
M  V30 61 H 3.2363 3.01001 -2.54543 0
M  V30 62 H 4.5243 4.17047 -2.9146 0
M  V30 63 H 3.9223 5.65609 -0.101624 0
M  V30 64 H 2.4793 6.4987 -0.501165 0
M  V30 65 N 5.9124 1.20967 1.01018 0
M  V30 66 C 6.8624 0.93182 2.08089 0
M  V30 67 C 7.8464 -0.110898 1.60517 0
M  V30 68 O 9.0384 0.0973392 1.76732 0
M  V30 69 C 6.1674 0.492719 3.39746 0
M  V30 70 C 5.2534 1.56922 3.94 0
M  V30 71 N 5.6444 2.79312 4.21686 0
M  V30 72 C 3.9424 1.43688 4.2222 0
M  V30 73 C 4.6434 3.48797 4.65527 0
M  V30 74 N 3.6194 2.76224 4.68189 0
M  V30 75 H 7.4214 1.86175 2.27412 0
M  V30 76 H 4.9354 1.10463 1.19045 0
M  V30 77 H 6.9324 0.275044 4.15992 0
M  V30 78 H 5.5924 -0.430509 3.21833 0
M  V30 79 H 6.6034 3.15903 4.10397 0
M  V30 80 H 3.2804 0.578548 4.13472 0
M  V30 81 H 4.6704 4.53561 4.95714 0
M  V30 82 N 7.3905 -1.2043 1.01659 0
M  V30 83 C 8.8065 -1.41852 0.731442 0
M  V30 84 C 9.0065 -1.89358 -0.688898 0
M  V30 85 O 8.0625 -2.06247 -1.45666 0
M  V30 86 C 9.3755 -2.44019 1.75714 0
M  V30 87 C 10.9235 -2.57785 1.77527 0
M  V30 88 C 11.3985 -3.63194 2.79023 0
M  V30 89 N 12.8895 -3.70678 2.77763 0
M  V30 90 C 13.6245 -4.51897 3.52954 0
M  V30 91 N 13.1205 -5.36921 4.37821 0
M  V30 92 N 14.9135 -4.4643 3.41551 0
M  V30 93 H 7.0645 -0.879093 1.93354 0
M  V30 94 H 9.3275 -0.448425 0.835236 0
M  V30 95 H 9.0335 -2.1611 2.77469 0
M  V30 96 H 8.9075 -3.43007 1.56927 0
M  V30 97 H 11.2945 -2.85023 0.764569 0
M  V30 98 H 11.3755 -1.58992 2.00387 0
M  V30 99 H 11.0195 -3.36699 3.80258 0
M  V30 100 H 10.9495 -4.61609 2.53425 0
M  V30 101 H 13.4405 -3.09944 2.16201 0
M  V30 102 H 13.7535 -5.95981 4.91962 0
M  V30 103 H 12.0985 -5.36424 4.41899 0
M  V30 104 H 15.2895 -3.79042 2.74672 0
M  V30 105 H 15.4625 -5.09491 4.00404 0
M  V30 106 N 8.8686 -0.792821 -1.36206 0
M  V30 107 C 10.1176 -0.363353 -1.984 0
M  V30 108 C 10.4306 1.07172 -1.63626 0
M  V30 109 O 11.6366 1.60362 -2.19081 0
M  V30 110 C 10.0926 -0.59872 -3.54885 0
M  V30 111 C 9.7006 -2.04543 -3.9858 0
M  V30 112 C 11.4446 -0.233926 -4.23855 0
M  V30 113 C 9.3516 -2.22727 -5.47856 0
M  V30 114 H 8.2816 -0.13212 -0.742334 0
M  V30 115 H 10.9326 -0.974935 -1.55458 0
M  V30 116 H 9.3146 0.0826222 -3.95914 0
M  V30 117 H 10.4886 -2.76345 -3.68741 0
M  V30 118 H 8.8036 -2.36879 -3.42458 0
M  V30 119 H 11.4006 -0.348027 -5.33566 0
M  V30 120 H 11.7436 0.818351 -4.08177 0
M  V30 121 H 12.2766 -0.868639 -3.882 0
M  V30 122 H 9.0156 -3.2635 -5.68486 0
M  V30 123 H 8.5356 -1.55434 -5.7931 0
M  V30 124 H 10.2146 -2.03607 -6.14128 0
M  V30 125 N 10.3467 1.47872 -0.545128 0
M  V30 126 C 11.7627 1.5829 -0.204032 0
M  V30 127 C 11.9627 1.54529 1.29317 0
M  V30 128 O 11.0187 1.44232 2.07252 0
M  V30 129 C 12.3317 2.89304 -0.819987 0
M  V30 130 C 13.8797 3.02864 -0.790105 0
M  V30 131 C 14.3547 4.3656 -1.38491 0
M  V30 132 N 15.8457 4.43165 -1.34755 0
M  V30 133 C 16.5807 5.45153 -1.77753 0
M  V30 134 N 16.0767 6.54016 -2.2855 0
M  V30 135 N 17.8697 5.36125 -1.68897 0
M  V30 136 H 10.0207 1.4856 -1.51802 0
M  V30 137 H 12.2837 0.706305 -0.632327 0
M  V30 138 H 11.9897 2.97757 -1.87173 0
M  V30 139 H 11.8637 3.75957 -0.305915 0
M  V30 140 H 14.2507 2.94014 0.252913 0
M  V30 141 H 14.3317 2.17782 -1.34181 0
M  V30 142 H 13.9757 4.46164 -2.42693 0
M  V30 143 H 13.9057 5.20353 -0.808754 0
M  V30 144 H 16.3967 3.65083 -0.975855 0
M  V30 145 H 16.7097 7.27994 -2.59314 0
M  V30 146 H 15.0547 6.54938 -2.32553 0
M  V30 147 H 18.2457 4.49975 -1.28998 0
M  V30 148 H 18.4187 6.15472 -2.02726 0
M  V30 149 N 11.8248 0.280983 1.55075 0
M  V30 150 C 12.7568 -0.637268 2.20163 0
M  V30 151 C 13.7698 -1.11298 1.18813 0
M  V30 152 O 14.9588 -1.03388 1.4551 0
M  V30 153 C 12.0588 -1.88199 2.81841 0
M  V30 154 C 11.2318 -1.55211 4.08936 0
M  V30 155 C 10.2908 -2.64991 4.54606 0
M  V30 156 O 9.3168 -2.30929 5.2025 0
M  V30 157 N 10.5188 -3.95161 4.25238 0
M  V30 158 H 13.2838 -0.0801694 2.99593 0
M  V30 159 H 10.8448 0.102329 1.61576 0
M  V30 160 H 12.8368 -2.60948 3.09335 0
M  V30 161 H 11.4068 -2.34799 2.06369 0
M  V30 162 H 10.6268 -0.658185 3.88666 0
M  V30 163 H 11.9148 -1.30681 4.91732 0
M  V30 164 H 11.3128 -4.25653 3.72607 0
M  V30 165 H 9.8698 -4.6427 4.5749 0
M  V30 166 N 13.3029 -1.57598 0.00835791 0
M  V30 167 C 14.2329 -2.1198 -0.979113 0
M  V30 168 C 15.2139 -1.03091 -1.35301 0
M  V30 169 O 16.3989 -1.30818 -1.43528 0
M  V30 170 C 13.5289 -2.62995 -2.26828 0
M  V30 171 C 12.4829 -3.76485 -2.03576 0
M  V30 172 C 11.8089 -4.13846 -3.38579 0
M  V30 173 C 13.1089 -5.0342 -1.39161 0
M  V30 174 H 14.8029 -2.94738 -0.526281 0
M  V30 175 H 12.3489 -1.41783 -0.251704 0
M  V30 176 H 14.3019 -2.99669 -2.96271 0
M  V30 177 H 13.0259 -1.7737 -2.7424 0
M  V30 178 H 11.6849 -3.40217 -1.36557 0
M  V30 179 H 11.3329 -3.25232 -3.83709 0
M  V30 180 H 11.0329 -4.90312 -3.23834 0
M  V30 181 H 12.5569 -4.53086 -4.09323 0
M  V30 182 H 13.9709 -5.37812 -1.98573 0
M  V30 183 H 12.3679 -5.84746 -1.34878 0
M  V30 184 H 13.4379 -4.83548 -0.361868 0
M  V30 185 N 14.781 0.264519 -1.55364 0
M  V30 186 C 16.028 0.994986 -1.7637 0
M  V30 187 C 16.356 1.85976 -0.5695 0
M  V30 188 O 15.611 1.90509 0.44776 0
M  V30 189 C 15.91 1.9004 -3.02687 0
M  V30 190 C 15.576 1.19243 -4.34847 0
M  V30 191 C 14.238 0.996709 -4.70764 0
M  V30 192 C 16.59 0.689296 -5.16622 0
M  V30 193 C 13.918 0.285261 -5.86006 0
M  V30 194 C 16.27 -0.00860079 -6.32599 0
M  V30 195 C 14.934 -0.215963 -6.67151 0
M  V30 196 H 14.204 0.364091 -0.645383 0
M  V30 197 H 16.851 0.266543 -1.89636 0
M  V30 198 H 15.156 2.69533 -2.84357 0
M  V30 199 H 16.853 2.46695 -3.16137 0
M  V30 200 H 13.443 1.3549 -4.06621 0
M  V30 201 H 17.627 0.828108 -4.89342 0
M  V30 202 H 12.883 0.113961 -6.11294 0
M  V30 203 H 17.057 -0.406186 -6.95214 0
M  V30 204 H 14.684 -0.769217 -7.56298 0
M  V30 205 N 16.2591 1.48442 0.529413 0
M  V30 206 C 17.1911 1.59095 1.64989 0
M  V30 207 C 18.2041 0.475212 1.5571 0
M  V30 208 O 19.3931 0.746081 1.6216 0
M  V30 209 C 16.4931 1.50518 3.0364 0
M  V30 210 C 15.6661 2.77142 3.38395 0
M  V30 211 C 14.7251 2.62012 4.56329 0
M  V30 212 O 13.7511 3.35898 4.59522 0
M  V30 213 N 14.9531 1.71667 5.54536 0
M  V30 214 H 17.7181 2.55723 1.56287 0
M  V30 215 H 15.2791 1.45173 0.716697 0
M  V30 216 H 17.2711 1.38091 3.80412 0
M  V30 217 H 15.8411 0.618627 3.06418 0
M  V30 218 H 15.0611 3.0413 2.50796 0
M  V30 219 H 16.3491 3.61146 3.58401 0
M  V30 220 H 15.7471 1.10841 5.54735 0
M  V30 221 H 14.3041 1.65178 6.30523 0
M  V30 222 N 17.7372 -0.778329 1.37039 0
M  V30 223 C 18.7002 -1.87301 1.32102 0
M  V30 224 C 19.7002 -1.59198 0.226405 0
M  V30 225 O 20.8902 -1.67403 0.481861 0
M  V30 226 C 18.0222 -3.24309 1.05055 0
M  V30 227 H 19.2152 -1.93093 2.29467 0
M  V30 228 H 16.7682 -0.977358 1.21973 0
M  V30 229 H 17.5032 -3.24196 0.0819373 0
M  V30 230 H 17.2882 -3.46098 1.84279 0
M  V30 231 H 18.7782 -4.04382 1.04234 0
M  V30 232 N 19.2153 -1.21501 -1.00376 0
M  V30 233 C 20.4403 -1.05977 -1.78279 0
M  V30 234 C 20.8653 0.385994 -1.84097 0
M  V30 235 O 20.2233 1.27849 -1.28547 0
M  V30 236 C 20.2713 -1.66302 -3.19963 0
M  V30 237 O 19.3753 -0.909333 -4.0225 0
M  V30 238 H 18.7163 -0.372906 -0.549397 0
M  V30 239 H 21.2463 -1.6107 -1.26165 0
M  V30 240 H 21.2563 -1.70574 -3.70632 0
M  V30 241 H 19.9313 -2.71515 -3.15043 0
M  V30 242 H 18.5083 -0.941795 -3.60811 0
M  V30 243 N 20.6934 1.19889 -1.02296 0
M  V30 244 C 21.9424 1.88743 -0.711257 0
M  V30 245 C 22.2554 1.80112 0.762817 0
M  V30 246 O 23.4614 2.44161 1.18733 0
M  V30 247 C 21.9174 3.38525 -1.22185 0
M  V30 248 C 21.5254 3.55727 -2.72328 0
M  V30 249 C 23.2694 4.12893 -0.985864 0
M  V30 250 C 21.1764 4.99369 -3.16835 0
M  V30 251 H 20.1064 0.706885 -0.262353 0
M  V30 252 H 22.7574 1.35586 -1.23648 0
M  V30 253 H 21.1394 3.91044 -0.624571 0
M  V30 254 H 22.3134 3.13564 -3.3766 0
M  V30 255 H 20.6284 2.94739 -2.9414 0
M  V30 256 H 23.2254 5.18813 -1.29374 0
M  V30 257 H 23.5684 4.16228 0.0775055 0
M  V30 258 H 24.1014 3.66494 -1.54684 0
M  V30 259 H 20.8404 5.01193 -4.22476 0
M  V30 260 H 20.3604 5.42317 -2.56228 0
M  V30 261 H 22.0394 5.67988 -3.09837 0
M  V30 262 N 22.1715 0.800033 1.35784 0
M  V30 263 C 23.0815 0.207204 2.33683 0
M  V30 264 C 24.0975 -0.64631 1.61551 0
M  V30 265 O 25.2735 -0.559604 1.93469 0
M  V30 266 C 22.3385 -0.639659 3.40748 0
M  V30 267 C 21.3995 0.233585 4.28664 0
M  V30 268 C 20.6325 -0.572954 5.30616 0
M  V30 269 O 20.8555 -1.80816 5.40982 0
M  V30 270 O 19.7895 0.0327285 6.01891 0
M  V30 271 H 23.6155 1.01692 2.86169 0
M  V30 272 H 21.2005 0.561691 1.38439 0
M  V30 273 H 23.0825 -1.12223 4.06182 0
M  V30 274 H 21.7575 -1.42708 2.90544 0
M  V30 275 H 20.6645 0.763147 3.66233 0
M  V30 276 H 21.9975 0.984784 4.82248 0
M  V30 277 N 23.6496 -1.47581 0.552962 0
M  V30 278 C 24.8776 -2.06875 0.0320556 0
M  V30 279 C 25.2926 -1.40625 -1.25976 0
M  V30 280 O 24.6496 -0.501349 -1.75479 0
M  V30 281 C 24.7006 -3.61092 -0.17167 0
M  V30 282 O 24.4216 -4.24858 1.06899 0
M  V30 283 C 25.9226 -4.37242 -0.730344 0
M  V30 284 H 23.1426 -0.669561 0.043915 0
M  V30 285 H 25.6866 -1.89646 0.765163 0
M  V30 286 H 23.8416 -3.7785 -0.854894 0
M  V30 287 H 24.2556 -5.17334 0.864059 0
M  V30 288 H 25.7296 -5.45842 -0.822203 0
M  V30 289 H 26.2066 -4.03235 -1.74064 0
M  V30 290 H 26.8126 -4.25219 -0.0829543 0
M  V30 291 N 25.1277 -0.289203 -1.54924 0
M  V30 292 C 26.0747 0.592115 -2.23075 0
M  V30 293 C 27.0447 1.13881 -1.20915 0
M  V30 294 O 28.2297 1.18551 -1.495 0
M  V30 295 C 25.3697 1.76376 -2.96623 0
M  V30 296 C 24.4827 1.24959 -4.13533 0
M  V30 297 C 23.6177 2.38416 -4.74691 0
M  V30 298 C 22.6567 1.84072 -5.83767 0
M  V30 299 N 21.7937 2.91057 -6.38929 0
M  V30 300 H 26.6337 0.00432038 -2.98 0
M  V30 301 H 24.1707 -0.00963529 -1.47097 0
M  V30 302 H 26.1287 2.45268 -3.3749 0
M  V30 303 H 24.7587 2.32337 -2.24097 0
M  V30 304 H 23.8107 0.453307 -3.77689 0
M  V30 305 H 25.1227 0.811662 -4.92152 0
M  V30 306 H 24.2767 3.15276 -5.18349 0
M  V30 307 H 23.0157 2.8553 -3.95378 0
M  V30 308 H 22.0207 1.05697 -5.39545 0
M  V30 309 H 23.2457 1.37877 -6.64956 0
M  V30 310 H 21.1917 3.37526 -5.62505 0
M  V30 311 H 21.1087 2.51724 -7.12861 0
M  V30 312 H 22.3767 3.6785 -6.87246 0
M  V30 313 N 26.6058 1.57591 -0.0167156 0
M  V30 314 C 27.5378 2.06343 0.997753 0
M  V30 315 C 28.5508 0.984469 1.29661 0
M  V30 316 O 29.7398 1.26093 1.26344 0
M  V30 317 C 26.8398 2.46255 2.32834 0
M  V30 318 C 26.0128 3.77083 2.21646 0
M  V30 319 C 25.0718 4.0368 3.37534 0
M  V30 320 O 24.0978 4.7411 3.14973 0
M  V30 321 N 25.2998 3.52881 4.60929 0
M  V30 322 H 28.0648 2.93997 0.581875 0
M  V30 323 H 25.6258 1.61002 0.170316 0
M  V30 324 H 27.6178 2.61149 3.09166 0
M  V30 325 H 26.1878 1.64032 2.66106 0
M  V30 326 H 25.4078 3.72106 1.30119 0
M  V30 327 H 26.6958 4.62822 2.11361 0
M  V30 328 H 26.0938 2.95878 4.82154 0
M  V30 329 H 24.6508 3.73076 5.34469 0
M  V30 330 N 28.0839 -0.256276 1.55502 0
M  V30 331 C 29.0159 -1.33981 1.85962 0
M  V30 332 C 30.0289 -1.44743 0.745212 0
M  V30 333 O 31.2179 -1.4626 1.02324 0
M  V30 334 C 28.3179 -2.7194 2.02242 0
M  V30 335 C 27.4909 -2.83562 3.33033 0
M  V30 336 C 26.5499 -4.02304 3.39172 0
M  V30 337 O 25.5759 -3.92273 4.12444 0
M  V30 338 N 26.7779 -5.15045 2.67784 0
M  V30 339 H 29.5429 -1.08191 2.7949 0
M  V30 340 H 27.1039 -0.446388 1.55624 0
M  V30 341 H 29.0959 -3.49697 2.03701 0
M  V30 342 H 27.6659 -2.90479 1.15502 0
M  V30 343 H 26.8859 -1.92555 3.43971 0
M  V30 344 H 28.1739 -2.88271 4.19258 0
M  V30 345 H 27.5719 -5.26085 2.07968 0
M  V30 346 H 26.1289 -5.90972 2.74947 0
M  V30 347 N 29.562 -1.4872 -0.521534 0
M  V30 348 C 30.525 -1.63379 -1.60748 0
M  V30 349 C 31.525 -0.50661 -1.52611 0
M  V30 350 O 32.715 -0.772601 -1.5613 0
M  V30 351 C 29.847 -1.61192 -3.00383 0
M  V30 352 H 31.04 -2.60217 -1.49087 0
M  V30 353 H 28.593 -1.37444 -0.744235 0
M  V30 354 H 29.328 -0.65863 -3.17541 0
M  V30 355 H 29.113 -2.43032 -3.07698 0
M  V30 356 H 30.603 -1.7466 -3.7932 0
M  V30 357 N 31.0401 0.771051 -1.3745 0
M  V30 358 C 31.9701 1.89827 -1.3597 0
M  V30 359 C 32.9511 1.68562 -0.228216 0
M  V30 360 O 34.1361 1.8941 -0.428675 0
M  V30 361 C 31.2661 3.2712 -1.16662 0
M  V30 362 C 30.2201 3.6295 -2.2683 0
M  V30 363 C 29.5461 4.98791 -1.92644 0
M  V30 364 C 30.8461 3.69627 -3.69017 0
M  V30 365 H 32.5401 1.91323 -2.30295 0
M  V30 366 H 30.0861 0.919082 -1.10855 0
M  V30 367 H 32.0391 4.05615 -1.14256 0
M  V30 368 H 30.7631 3.26059 -0.187926 0
M  V30 369 H 29.4221 2.86763 -2.28392 0
M  V30 370 H 29.0701 4.94271 -0.933021 0
M  V30 371 H 28.7701 5.23733 -2.66416 0
M  V30 372 H 30.2941 5.79685 -1.91826 0
M  V30 373 H 31.7081 4.38273 -3.69581 0
M  V30 374 H 30.1051 4.06067 -4.41848 0
M  V30 375 H 31.1751 2.70273 -4.02592 0
M  V30 376 N 32.5182 1.22032 0.997298 0
M  V30 377 C 33.4282 1.00271 2.12092 0
M  V30 378 C 34.4442 -0.047621 1.73935 0
M  V30 379 O 35.6202 0.144136 2.00884 0
M  V30 380 C 32.6852 0.578449 3.4184 0
M  V30 381 C 31.7462 1.70189 3.94125 0
M  V30 382 C 30.9792 1.29778 5.17681 0
M  V30 383 O 31.2022 0.174676 5.70132 0
M  V30 384 O 30.1362 2.11261 5.63607 0
M  V30 385 H 33.9622 1.94398 2.3333 0
M  V30 386 H 31.5472 1.00587 1.10465 0
M  V30 387 H 33.4292 0.351998 4.19927 0
M  V30 388 H 32.1042 -0.334019 3.21972 0
M  V30 389 H 31.0112 1.98282 3.1723 0
M  V30 390 H 32.3442 2.59206 4.18417 0
M  V30 391 N 33.9963 -1.19345 1.0293 0
M  V30 392 C 35.2423 -1.89318 0.727083 0
M  V30 393 C 35.5753 -1.79446 -0.742483 0
M  V30 394 O 34.8503 -1.1871 -1.54072 0
M  V30 395 C 35.1333 -3.40238 1.17942 0
M  V30 396 C 34.9863 -3.58979 2.71024 0
M  V30 397 C 36.3053 -4.33479 0.760548 0
M  V30 398 H 33.4243 -0.687475 0.265606 0
M  V30 399 H 36.0663 -1.40477 1.2793 0
M  V30 400 H 34.2163 -3.81964 0.709608 0
M  V30 401 H 35.8883 -3.26421 3.25955 0
M  V30 402 H 34.1313 -3.02018 3.11396 0
M  V30 403 H 34.8023 -4.64823 2.9773 0
M  V30 404 H 37.2783 -3.99469 1.16464 0
M  V30 405 H 36.1543 -5.37664 1.10493 0
M  V30 406 H 36.4153 -4.40813 -0.337063 0
M  V30 407 N 35.4744 -0.807222 -1.35358 0
M  V30 408 C 36.4044 -0.232509 -2.3234 0
M  V30 409 C 37.3854 0.642386 -1.57504 0
M  V30 410 O 38.5704 0.572526 -1.85569 0
M  V30 411 C 35.7004 0.619238 -3.41735 0
M  V30 412 C 34.6544 -0.157215 -4.27711 0
M  V30 413 C 33.9804 0.816273 -5.28433 0
M  V30 414 C 35.2804 -1.35656 -5.04376 0
M  V30 415 H 36.9744 -1.04276 -2.80654 0
M  V30 416 H 34.5204 -0.50288 -1.34934 0
M  V30 417 H 36.4734 1.03137 -4.08584 0
M  V30 418 H 35.1974 1.46239 -2.92031 0
M  V30 419 H 33.8564 -0.550525 -3.62443 0
M  V30 420 H 33.5044 1.65494 -4.74996 0
M  V30 421 H 33.2044 0.301067 -5.86828 0
M  V30 422 H 34.7284 1.22659 -5.98153 0
M  V30 423 H 36.1424 -1.01927 -5.64166 0
M  V30 424 H 34.5394 -1.8063 -5.7227 0
M  V30 425 H 35.6094 -2.14288 -4.34981 0
M  V30 426 N 36.9525 1.47285 -0.560781 0
M  V30 427 C 38.3635 1.86258 -0.128343 0
M  V30 428 C 38.7145 1.46699 1.30284 0
M  V30 429 O 37.8395 0.871698 1.98067 0
M  V30 430 C 38.4345 3.38044 -0.22614 0
M  V30 431 C 36.9935 3.76096 0.151283 0
M  V30 432 C 36.1405 2.71335 -0.572084 0
M  V30 433 H 39.0915 1.38752 -0.770297 0
M  V30 434 H 39.1125 3.76441 0.554322 0
M  V30 435 H 38.6245 3.66806 -1.26788 0
M  V30 436 H 36.7255 3.52951 1.19399 0
M  V30 437 H 36.8385 4.78641 -0.209765 0
M  V30 438 H 35.2025 2.54696 -0.0147653 0
M  V30 439 H 35.9855 3.02938 -1.61504 0
M  V30 440 N 38.4306 0.297415 1.54768 0
M  V30 441 C 39.8416 -0.195947 1.85669 0
M  V30 442 C 40.1926 -1.53707 1.21937 0
M  V30 443 O 39.3176 -2.10164 0.515754 0
M  V30 444 C 39.9126 -0.362318 3.36857 0
M  V30 445 C 38.4716 -0.799901 3.67802 0
M  V30 446 C 37.6186 0.0938578 2.77141 0
M  V30 447 H 40.5696 0.518538 1.4999 0
M  V30 448 H 40.5906 -1.19745 3.61167 0
M  V30 449 H 40.1026 0.613921 3.83214 0
M  V30 450 H 38.2036 -1.78682 3.26961 0
M  V30 451 H 38.3166 -0.621773 4.75048 0
M  V30 452 H 36.6806 -0.426254 2.51108 0
M  V30 453 H 37.4636 1.06639 3.26318 0
M  V30 454 N 39.9087 -1.5758 0.0250728 0
M  V30 455 C 41.1387 -1.95646 -0.663783 0
M  V30 456 C 41.5467 -0.899935 -1.66427 0
M  V30 457 O 40.8897 0.127191 -1.83259 0
M  V30 458 C 40.9517 -3.29835 -1.43 0
M  V30 459 C 40.6157 -4.53197 -0.588305 0
M  V30 460 C 41.6127 -5.19726 0.13469 0
M  V30 461 C 39.2977 -4.99529 -0.526897 0
M  V30 462 C 41.2917 -6.30902 0.90781 0
M  V30 463 C 38.9787 -6.10589 0.24993 0
M  V30 464 C 39.9767 -6.76134 0.965994 0
M  V30 465 O 39.6647 -7.85062 1.7301 0
M  V30 466 H 39.3967 -0.649282 -0.188174 0
M  V30 467 H 41.9507 -2.05245 0.0799006 0
M  V30 468 H 40.1807 -3.16716 -2.21873 0
M  V30 469 H 41.8697 -3.52833 -2.00658 0
M  V30 470 H 42.6357 -4.84904 0.0965562 0
M  V30 471 H 38.5147 -4.48319 -1.07381 0
M  V30 472 H 42.0587 -6.81995 1.46724 0
M  V30 473 H 37.9557 -6.44849 0.289795 0
M  V30 474 H 38.7237 -8.01708 1.64944 0
M  V30 475 N 41.3868 0.248026 -1.55636 0
M  V30 476 C 42.6358 0.974134 -1.76617 0
M  V30 477 C 42.9488 1.86528 -0.588796 0
M  V30 478 O 44.1548 2.62805 -0.681594 0
M  V30 479 C 42.6108 1.78213 -3.12679 0
M  V30 480 C 42.2188 0.93843 -4.38061 0
M  V30 481 C 43.9628 2.50104 -3.42999 0
M  V30 482 C 41.8698 1.74225 -5.65155 0
M  V30 483 H 40.7998 0.36745 -0.658405 0
M  V30 484 H 43.4508 0.22884 -1.82067 0
M  V30 485 H 41.8328 2.56933 -3.01333 0
M  V30 486 H 43.0068 0.193635 -4.60393 0
M  V30 487 H 41.3218 0.332905 -4.15067 0
M  V30 488 H 43.9188 3.10694 -4.3517 0
M  V30 489 H 44.2618 3.21662 -2.64271 0
M  V30 490 H 44.7948 1.78395 -3.55556 0
M  V30 491 H 41.5338 1.07043 -6.46701 0
M  V30 492 H 41.0538 2.46235 -5.46926 0
M  V30 493 H 42.7328 2.30967 -6.0437 0
M  V30 494 N 42.8649 1.48995 0.513639 0
M  V30 495 C 43.7749 1.67443 1.64317 0
M  V30 496 C 44.7909 0.556947 1.64846 0
M  V30 497 O 45.9669 0.830082 1.83498 0
M  V30 498 C 43.0319 1.72515 3.00732 0
M  V30 499 C 42.0929 2.96009 3.1093 0
M  V30 500 C 41.3259 3.00829 4.40837 0
M  V30 501 O 41.5489 2.13594 5.28898 0
M  V30 502 O 40.4829 3.93168 4.55744 0
M  V30 503 H 44.3089 2.63106 1.51687 0
M  V30 504 H 41.8939 1.32588 0.688543 0
M  V30 505 H 43.7759 1.78277 3.81831 0
M  V30 506 H 42.4509 0.800278 3.13651 0
M  V30 507 H 41.3579 2.9577 2.29065 0
M  V30 508 H 42.6909 3.87934 3.02933 0
M  V30 509 N 44.343 -0.763751 1.37857 0
M  V30 510 C 45.275 -1.88664 1.30148 0
M  V30 511 C 46.288 -1.61365 0.215685 0
M  V30 512 O 47.477 -1.72134 0.472459 0
M  V30 513 C 44.577 -3.24075 0.991396 0
M  V30 514 C 43.75 -3.78958 2.18426 0
M  V30 515 C 42.809 -4.92862 1.8432 0
M  V30 516 O 41.835 -5.08027 2.56704 0
M  V30 517 N 43.037 -5.75071 0.792081 0
M  V30 518 H 45.802 -1.95791 2.26905 0
M  V30 519 H 43.363 -0.943226 1.31586 0
M  V30 520 H 45.355 -3.97804 0.743935 0
M  V30 521 H 43.925 -3.12399 0.112122 0
M  V30 522 H 43.145 -2.96913 2.59299 0
M  V30 523 H 44.433 -4.12357 2.98058 0
M  V30 524 H 43.831 -5.65375 0.191595 0
M  V30 525 H 42.388 -6.48991 0.60449 0
M  V30 526 N 45.8211 -1.22559 -0.990812 0
M  V30 527 C 46.7841 -0.998863 -2.0629 0
M  V30 528 C 47.7841 0.0354834 -1.60761 0
M  V30 529 O 48.9741 -0.203231 -1.7301 0
M  V30 530 C 46.1061 -0.509203 -3.37076 0
M  V30 531 H 47.2991 -1.95014 -2.27837 0
M  V30 532 H 44.8521 -1.04456 -1.16269 0
M  V30 533 H 45.5871 0.446335 -3.21214 0
M  V30 534 H 45.3721 -1.25547 -3.71457 0
M  V30 535 H 46.8621 -0.370888 -4.1595 0
M  V30 536 N 47.2992 1.18797 -1.03562 0
M  V30 537 C 48.5242 1.9314 -0.755764 0
M  V30 538 C 48.9492 1.7537 0.68022 0
M  V30 539 O 48.3072 1.06046 1.47051 0
M  V30 540 C 48.3552 3.42747 -1.12058 0
M  V30 541 O 47.4592 4.11683 -0.243124 0
M  V30 542 H 46.8002 0.602724 -0.278604 0
M  V30 543 H 49.3302 1.50678 -1.3841 0
M  V30 544 H 49.3402 3.93437 -1.08035 0
M  V30 545 H 48.0152 3.55002 -2.16672 0
M  V30 546 H 46.5922 3.71323 -0.342539 0
M  V30 547 N 48.7773 0.814389 1.34928 0
M  V30 548 C 49.7073 0.244827 2.32213 0
M  V30 549 C 50.6883 -0.634024 1.57842 0
M  V30 550 O 51.8733 -0.562676 1.8587 0
M  V30 551 C 49.0033 -0.601106 3.42058 0
M  V30 552 C 47.9573 0.179896 4.27622 0
M  V30 553 C 47.2833 -0.788237 5.28858 0
M  V30 554 C 48.5833 1.38329 5.03649 0
M  V30 555 H 50.2773 1.05763 2.80097 0
M  V30 556 H 47.8233 0.510029 1.34665 0
M  V30 557 H 49.7763 -1.00968 4.09125 0
M  V30 558 H 48.5003 -1.44688 2.92802 0
M  V30 559 H 47.1593 0.569739 3.62146 0
M  V30 560 H 46.8073 -1.62973 4.75866 0
M  V30 561 H 46.5073 -0.269942 5.8698 0
M  V30 562 H 48.0313 -1.19485 5.98795 0
M  V30 563 H 49.4453 1.04918 5.63618 0
M  V30 564 H 47.8423 1.83662 5.71304 0
M  V30 565 H 48.9123 2.16592 4.33839 0
M  V30 566 N 50.2554 -1.46986 0.568584 0
M  V30 567 C 51.5014 -2.02741 0.0488709 0
M  V30 568 C 51.8344 -1.44077 -1.30214 0
M  V30 569 O 51.1094 -0.600552 -1.84996 0
M  V30 570 C 51.3924 -3.60086 -0.032047 0
M  V30 571 C 51.2454 -4.29162 1.34686 0
M  V30 572 C 52.5644 -4.33838 -0.739798 0
M  V30 573 H 49.6834 -0.736749 0.0192338 0
M  V30 574 H 52.3254 -1.75289 0.733065 0
M  V30 575 H 50.4754 -3.83606 -0.61473 0
M  V30 576 H 52.1474 -4.16948 1.97362 0
M  V30 577 H 50.3904 -3.89073 1.91846 0
M  V30 578 H 51.0614 -5.37826 1.24285 0
M  V30 579 H 53.5374 -4.15378 -0.244939 0
M  V30 580 H 52.4134 -5.43537 -0.765406 0
M  V30 581 H 52.6744 -4.03875 -1.79827 0
M  V30 582 N 51.7335 -0.305618 -1.54608 0
M  V30 583 C 52.6665 0.610536 -2.19881 0
M  V30 584 C 53.6445 1.1294 -1.16976 0
M  V30 585 O 54.8285 1.19673 -1.45638 0
M  V30 586 C 51.9555 1.83583 -2.84631 0
M  V30 587 C 51.0015 1.4498 -4.01102 0
M  V30 588 S 51.8345 0.501793 -5.33144 0
M  V30 589 C 52.9905 1.73478 -6.01379 0
M  V30 590 H 53.2235 0.0560177 -2.97247 0
M  V30 591 H 50.7565 -0.0897434 -1.54139 0
M  V30 592 H 52.7145 2.53898 -3.22562 0
M  V30 593 H 51.3755 2.36152 -2.07102 0
M  V30 594 H 50.5685 2.36236 -4.45206 0
M  V30 595 H 50.1705 0.826553 -3.64752 0
M  V30 596 H 52.4625 2.67473 -6.22467 0
M  V30 597 H 53.4055 1.33622 -6.95378 0
M  V30 598 H 53.8135 1.9136 -5.31076 0
M  V30 599 N 53.2116 1.57565 -0.0334293 0
M  V30 600 C 54.4576 1.92262 0.645226 0
M  V30 601 C 54.7906 0.910543 1.71531 0
M  V30 602 O 54.0656 -0.066099 1.94388 0
M  V30 603 C 54.3486 3.37422 1.2577 0
M  V30 604 C 54.2016 4.49369 0.196891 0
M  V30 605 C 55.5206 3.82628 2.17449 0
M  V30 606 H 52.6396 0.699171 0.233085 0
M  V30 607 H 55.2816 1.89779 -0.0915694 0
M  V30 608 H 53.4316 3.39669 1.88566 0
M  V30 609 H 55.1036 4.59254 -0.433962 0
M  V30 610 H 53.3466 4.31168 -0.477137 0
M  V30 611 H 54.0176 5.47978 0.665124 0
M  V30 612 H 56.4936 3.82145 1.64634 0
M  V30 613 H 55.3696 4.84883 2.57254 0
M  V30 614 H 55.6306 3.18376 3.0674 0
M  V30 615 N 54.6897 -0.239769 1.55765 0
M  V30 616 C 55.6377 -1.31668 1.91745 0
M  V30 617 C 56.6317 -1.49462 0.797338 0
M  V30 618 O 57.8377 -1.50852 0.982021 0
M  V30 619 H 54.2127 -0.441048 0.609082 0
M  V30 620 H 56.1837 -0.985923 2.81642 0
M  V30 621 C 54.9327 -2.66368 2.2348 0
M  V30 622 H 54.2557 -2.53478 3.09175 0
M  V30 623 H 55.6957 -3.40578 2.52553 0
M  V30 624 C 54.1547 -3.20002 1.05359 0
M  V30 625 O 54.6847 -4.00538 0.305261 0
M  V30 626 N 52.8907 -2.78126 0.842292 0
M  V30 627 H 52.4377 -2.12742 1.45253 0
M  V30 628 H 52.3957 -3.14354 0.053652 0
M  V30 629 N 56.1678 -1.49265 -0.50573 0
M  V30 630 C 57.1308 -1.65075 -1.59006 0
M  V30 631 C 58.1308 -0.522768 -1.52065 0
M  V30 632 O 59.3208 -0.789117 -1.55302 0
M  V30 633 C 56.4528 -1.64369 -2.98656 0
M  V30 634 H 57.6458 -2.61784 -1.46319 0
M  V30 635 H 55.1988 -1.38226 -0.729616 0
M  V30 636 H 55.9338 -0.692272 -3.16825 0
M  V30 637 H 55.7188 -2.46282 -3.05103 0
M  V30 638 H 57.2088 -1.78674 -3.77446 0
M  V30 639 N 57.6459 0.756429 -1.3826 0
M  V30 640 C 58.5759 1.88374 -1.37976 0
M  V30 641 C 59.5569 1.68311 -0.246082 0
M  V30 642 O 60.7419 1.88944 -0.44874 0
M  V30 643 C 57.8719 3.25864 -1.20125 0
M  V30 644 C 56.8259 3.60523 -2.30666 0
M  V30 645 C 56.1519 4.9672 -1.97923 0
M  V30 646 C 57.4519 3.65692 -3.72916 0
M  V30 647 H 59.1459 1.88869 -2.32312 0
M  V30 648 H 56.6919 0.907272 -1.11824 0
M  V30 649 H 58.6449 4.0438 -1.18552 0
M  V30 650 H 57.3689 3.25841 -0.222498 0
M  V30 651 H 56.0279 2.84324 -2.3142 0
M  V30 652 H 55.6759 4.93253 -0.985393 0
M  V30 653 H 55.3759 5.20878 -2.71955 0
M  V30 654 H 56.8999 5.77618 -1.97964 0
M  V30 655 H 58.3139 4.34328 -3.74208 0
M  V30 656 H 56.7109 4.01358 -4.4613 0
M  V30 657 H 57.7809 2.65987 -4.05436 0
M  V30 658 N 59.124 1.23083 0.984299 0
M  V30 659 C 60.054 1.03292 2.09411 0
M  V30 660 C 61.035 -0.048923 1.7003 0
M  V30 661 O 62.22 0.114967 1.93859 0
M  V30 662 C 59.35 0.619155 3.41736 0
M  V30 663 C 58.304 1.64791 3.95004 0
M  V30 664 C 57.63 1.0897 5.23478 0
M  V30 665 C 58.93 3.03999 4.24714 0
M  V30 666 H 60.624 1.96119 2.26225 0
M  V30 667 H 58.17 0.944344 1.08711 0
M  V30 668 H 60.123 0.467777 4.18796 0
M  V30 669 H 58.847 -0.344786 3.24775 0
M  V30 670 H 57.506 1.78721 3.20085 0
M  V30 671 H 57.154 0.11686 5.02864 0
M  V30 672 H 56.854 1.77704 5.60085 0
M  V30 673 H 58.378 0.950093 6.03163 0
M  V30 674 H 59.792 2.93393 4.92538 0
M  V30 675 H 58.189 3.69936 4.72512 0
M  V30 676 H 59.259 3.53285 3.32142 0
M  V30 677 N 60.6021 -1.18246 1.0419 0
M  V30 678 C 61.5501 -2.23968 0.627792 0
M  V30 679 C 62.5441 -1.65828 -0.346019 0
M  V30 680 O 63.7501 -1.78733 -0.213175 0
M  V30 681 H 60.1251 -0.728939 0.184802 0
M  V30 682 H 62.0961 -2.56202 1.52981 0
M  V30 683 C 60.8451 -3.47699 0.00796591 0
M  V30 684 H 60.1681 -3.92734 0.748347 0
M  V30 685 H 61.6081 -4.23294 -0.24455 0
M  V30 686 C 60.0671 -3.13153 -1.24246 0
M  V30 687 O 60.5971 -3.27003 -2.33307 0
M  V30 688 N 58.8031 -2.67467 -1.13622 0
M  V30 689 H 58.3501 -2.56396 -0.248734 0
M  V30 690 H 58.3081 -2.44724 -1.97377 0
M  V30 691 N 62.0802 -0.821533 -1.34494 0
M  V30 692 C 62.9902 -0.244355 -2.33324 0
M  V30 693 C 64.0062 0.620527 -1.62559 0
M  V30 694 O 65.1822 0.528754 -1.94335 0
M  V30 695 C 62.2472 0.585368 -3.41723 0
M  V30 696 C 61.3082 -0.301752 -4.28238 0
M  V30 697 C 60.5412 0.488466 -5.3146 0
M  V30 698 O 60.7642 1.72186 -5.4379 0
M  V30 699 O 59.6982 -0.12848 -6.01763 0
M  V30 700 H 63.5242 -1.06231 -2.84515 0
M  V30 701 H 61.1092 -0.583645 -1.37528 0
M  V30 702 H 62.9912 1.05747 -4.07916 0
M  V30 703 H 61.6662 1.38068 -2.92778 0
M  V30 704 H 60.5732 -0.821315 -3.64973 0
M  V30 705 H 61.9062 -1.06138 -4.8062 0
M  V30 706 N 63.5583 1.46682 -0.576371 0
M  V30 707 C 64.8063 2.02013 -0.0594163 0
M  V30 708 C 65.1273 1.45101 1.30271 0
M  V30 709 O 64.3973 0.633317 1.8538 0
M  V30 710 H 62.9773 0.746759 -0.0189745 0
M  V30 711 H 65.6393 1.79862 -0.750717 0
M  V30 712 H 64.7353 3.12097 0.014345 0
M  V30 713 N 65.0364 0.313813 1.54444 0
M  V30 714 C 65.9834 -0.55655 2.23989 0
M  V30 715 C 66.9534 -1.11943 1.22711 0
M  V30 716 O 68.1384 -1.16158 1.51367 0
M  V30 717 C 65.2784 -1.71635 2.99392 0
M  V30 718 C 64.3914 -1.18364 4.15468 0
M  V30 719 C 63.5264 -2.30834 4.78424 0
M  V30 720 C 62.5654 -1.74762 5.86622 0
M  V30 721 N 61.7024 -2.80855 6.43479 0
M  V30 722 H 66.5424 0.0430893 2.97969 0
M  V30 723 H 64.0794 0.0330359 1.47063 0
M  V30 724 H 66.0374 -2.39868 3.41349 0
M  V30 725 H 64.6674 -2.28742 2.27765 0
M  V30 726 H 63.7194 -0.393163 3.78363 0
M  V30 727 H 65.0314 -0.733262 4.93381 0
M  V30 728 H 64.1854 -3.0699 5.23299 0
M  V30 729 H 62.9244 -2.79204 3.99871 0
M  V30 730 H 61.9294 -0.970995 5.41158 0
M  V30 731 H 63.1544 -1.2728 6.67066 0
M  V30 732 H 61.1004 -3.28535 5.67804 0
M  V30 733 H 61.0174 -2.40351 7.16776 0
M  V30 734 H 62.2854 -3.5687 6.93011 0
M  V30 735 N 66.5145 -1.57545 0.0417849 0
M  V30 736 C 67.7635 -1.91494 -0.633492 0
M  V30 737 C 68.0765 -0.921084 -1.72556 0
M  V30 738 O 69.2825 -1.15228 -2.45835 0
M  V30 739 C 67.7385 -3.40072 -1.17808 0
M  V30 740 C 67.3465 -4.47843 -0.118633 0
M  V30 741 C 69.0905 -3.8307 -1.82915 0
M  V30 742 C 66.9975 -5.87529 -0.675578 0
M  V30 743 H 65.9275 -0.714653 -0.24039 0
M  V30 744 H 68.5785 -1.83175 0.109148 0
M  V30 745 H 66.9605 -3.43364 -1.97274 0
M  V30 746 H 68.1345 -4.56128 0.654494 0
M  V30 747 H 66.4495 -4.14128 0.434414 0
M  V30 748 H 69.0465 -4.84794 -2.25563 0
M  V30 749 H 69.3895 -3.1881 -2.67705 0
M  V30 750 H 69.9225 -3.82255 -1.10119 0
M  V30 751 H 66.6615 -6.55362 0.134475 0
M  V30 752 H 66.1815 -5.82824 -1.4169 0
M  V30 753 H 67.8605 -6.36491 -1.1614 0
M  V30 754 N 67.9926 0.231505 -1.5589 0
M  V30 755 C 68.9226 1.29022 -1.94617 0
M  V30 756 C 69.9036 1.4941 -0.813067 0
M  V30 757 O 71.0886 1.6176 -1.07459 0
M  V30 758 C 68.2186 2.64199 -2.25424 0
M  V30 759 C 67.1726 2.58484 -3.41131 0
M  V30 760 C 66.4986 3.97599 -3.57518 0
M  V30 761 C 67.7986 2.1413 -4.76388 0
M  V30 762 H 69.4926 0.968563 -2.83301 0
M  V30 763 H 67.0386 0.464479 -1.36303 0
M  V30 764 H 68.9916 3.38413 -2.51107 0
M  V30 765 H 67.7156 2.98032 -1.33583 0
M  V30 766 H 66.3746 1.86727 -3.15481 0
M  V30 767 H 66.0226 4.28723 -2.6307 0
M  V30 768 H 65.7226 3.94659 -4.35337 0
M  V30 769 H 67.2466 4.7349 -3.85538 0
M  V30 770 H 68.6606 2.78083 -5.01341 0
M  V30 771 H 67.0576 2.2227 -5.57419 0
M  V30 772 H 68.1276 1.09331 -4.72414 0
M  V30 773 N 69.4707 1.49531 0.497807 0
M  V30 774 C 70.6957 1.63159 1.28039 0
M  V30 775 C 71.1207 0.30418 1.85624 0
M  V30 776 O 70.4787 -0.728618 1.66015 0
M  V30 777 C 70.5267 2.70537 2.38416 0
M  V30 778 O 69.6307 2.29931 3.42353 0
M  V30 779 H 68.9717 0.546001 0.377861 0
M  V30 780 H 71.5017 1.9574 0.59558 0
M  V30 781 H 71.5117 2.92802 2.84132 0
M  V30 782 H 70.1867 3.6689 1.95869 0
M  V30 783 H 68.7637 2.18009 3.02533 0
M  V30 784 N 70.9488 -0.749086 1.3866 0
M  V30 785 C 72.1888 -1.52112 1.36534 0
M  V30 786 C 72.5528 -1.91951 -0.0432316 0
M  V30 787 O 73.7538 -2.68132 -0.189396 0
M  V30 788 C 72.0248 -2.73704 2.29828 0
M  V30 789 S 73.5838 -3.63519 2.45763 0
M  V30 790 H 70.4018 -0.520482 0.484375 0
M  V30 791 H 73.0038 -0.878963 1.74627 0
M  V30 792 H 71.7078 -2.42552 3.31054 0
M  V30 793 H 71.2388 -3.4286 1.929 0
M  V30 794 H 73.2538 -4.66712 1.68505 0
M  V30 795 N 72.4269 -1.23603 -0.977757 0
M  V30 796 C 73.6749 -1.06759 -1.71601 0
M  V30 797 C 73.9959 0.395929 -1.90938 0
M  V30 798 O 73.2659 1.28356 -1.47992 0
M  V30 799 H 71.8459 -0.392062 -0.635843 0
M  V30 800 H 74.5079 -1.55362 -1.1768 0
M  V30 801 H 73.6039 -1.55763 -2.70452 0
M  V30 802 N 73.905 1.17692 -1.04816 0
M  V30 803 C 74.853 2.23632 -0.63966 0
M  V30 804 C 75.847 1.6601 0.337219 0
M  V30 805 O 77.053 1.78844 0.203693 0
M  V30 806 H 73.428 0.727949 -0.188665 0
M  V30 807 H 75.399 2.55387 -1.54337 0
M  V30 808 C 74.148 3.4769 -0.0264051 0
M  V30 809 H 73.471 3.92331 -0.769164 0
M  V30 810 H 74.911 4.23418 0.222098 0
M  V30 811 C 73.37 3.13807 1.22584 0
M  V30 812 O 73.9 3.28236 2.31569 0
M  V30 813 N 72.106 2.68065 1.12202 0
M  V30 814 H 71.653 2.56525 0.235133 0
M  V30 815 H 71.611 2.45767 1.96076 0
M  V30 816 N 75.3831 0.828654 1.34056 0
M  V30 817 C 76.6311 0.41863 1.97717 0
M  V30 818 C 76.9521 -1.02314 1.66002 0
M  V30 819 O 76.2221 -1.71119 0.953683 0
M  V30 820 H 74.8021 0.151809 0.731412 0
M  V30 821 H 77.4641 1.05936 1.63596 0
M  V30 822 H 76.5601 0.542318 3.07352 0
M  V30 823 N 76.8612 -1.46375 0.584142 0
M  V30 824 C 78.1092 -2.01978 0.0701287 0
M  V30 825 C 78.4302 -1.4579 -1.295 0
M  V30 826 O 77.7002 -0.64314 -1.85042 0
M  V30 827 H 76.2802 -0.746648 0.0229345 0
M  V30 828 H 78.9422 -1.79461 0.760245 0
M  V30 829 H 78.0382 -3.121 0.0022064 0
M  V30 830 N 78.3393 -0.321999 -1.54275 0
M  V30 831 C 79.5643 0.285791 -2.05422 0
M  V30 832 C 79.9893 1.45124 -1.19669 0
M  V30 833 O 79.3473 1.80132 -0.205441 0
M  V30 834 C 79.3953 0.69956 -3.53749 0
M  V30 835 O 78.4993 1.8021 -3.70942 0
M  V30 836 H 77.8403 0.0518962 -0.661969 0
M  V30 837 H 80.3703 -0.469954 -1.9913 0
M  V30 838 H 80.3803 0.982649 -3.9599 0
M  V30 839 H 79.0553 -0.152864 -4.15619 0
M  V30 840 H 77.6323 1.51794 -3.40607 0
M  V30 841 N 79.8174 1.5752 -0.0501392 0
M  V30 842 C 80.7804 2.1037 0.909786 0
M  V30 843 C 81.7804 1.02308 1.24056 0
M  V30 844 O 82.9704 1.28385 1.17741 0
M  V30 845 C 80.1024 2.58708 2.21998 0
M  V30 846 H 81.2954 2.96479 0.451665 0
M  V30 847 H 78.8484 1.55038 0.198248 0
M  V30 848 H 79.5834 1.75989 2.72394 0
M  V30 849 H 79.3684 3.37675 1.99295 0
M  V30 850 H 80.8584 2.99747 2.9076 0
M  V30 851 N 81.2955 -0.223234 1.56011 0
M  V30 852 C 82.5435 -0.946003 1.78592 0
M  V30 853 C 82.8645 -1.84936 0.618349 0
M  V30 854 O 82.1345 -1.92473 -0.364833 0
M  V30 855 H 80.7145 -0.352298 0.658707 0
M  V30 856 H 83.3765 -0.235494 1.93472 0
M  V30 857 H 82.4725 -1.55381 2.70672 0
M  V30 858 N 82.7736 -1.49793 -0.48987 0
M  V30 859 C 84.0506 -1.50348 -1.25119 0
M  V30 860 C 84.4306 -0.237466 -2.0976 0
M  V30 861 O 83.7786 0.77981 -2.14782 0
M  V30 862 C 83.9886 -2.78872 -2.09837 0
M  V30 863 C 85.3366 -3.288 -2.68655 0
M  V30 864 O 86.3606 -2.80065 -2.20096 0
M  V30 865 O 85.2196 -4.13707 -3.57083 0
M  V30 866 H 82.3136 -0.602242 -0.566775 0
M  V30 867 H 84.8596 -1.62067 -0.503229 0
M  V30 868 H 83.6316 -3.62499 -1.47343 0
M  V30 869 H 83.2546 -2.70066 -2.91805 0
M  V30 870 N 84.2517 0.741722 -1.39055 0
M  V30 871 C 85.2147 1.83733 -1.37021 0
M  V30 872 C 86.2147 1.58542 -0.268534 0
M  V30 873 O 87.4047 1.66067 -0.526076 0
M  V30 874 C 84.5367 3.2141 -1.13617 0
M  V30 875 H 85.7297 1.86941 -2.34506 0
M  V30 876 H 83.2827 0.944676 -1.24521 0
M  V30 877 H 84.0177 3.23865 -0.167863 0
M  V30 878 H 83.8027 3.4109 -1.93391 0
M  V30 879 H 85.2927 4.01477 -1.14918 0
M  V30 880 N 85.7298 1.2412 0.971189 0
M  V30 881 C 86.6618 0.988349 2.06795 0
M  V30 882 C 87.6748 -0.0409541 1.62748 0
M  V30 883 O 88.8638 0.195673 1.77424 0
M  V30 884 C 85.9638 0.469023 3.35639 0
M  V30 885 C 85.1368 1.56065 4.08611 0
M  V30 886 C 84.1958 1.04458 5.15728 0
M  V30 887 O 83.2218 1.73553 5.42096 0
M  V30 888 N 84.4238 -0.122817 5.8037 0
M  V30 889 H 87.1888 1.93265 2.29061 0
M  V30 890 H 84.7498 1.15102 1.13856 0
M  V30 891 H 86.7418 0.108613 4.04554 0
M  V30 892 H 85.3118 -0.380919 3.1027 0
M  V30 893 H 84.5318 2.09341 3.34021 0
M  V30 894 H 85.8198 2.29449 4.54126 0
M  V30 895 H 85.2178 -0.700563 5.61345 0
M  V30 896 H 83.7748 -0.424404 6.50417 0
M  V30 897 N 87.2079 -1.17134 1.05439 0
M  V30 898 C 88.1579 -2.1919 0.627675 0
M  V30 899 C 89.1419 -1.57328 -0.337147 0
M  V30 900 O 90.3339 -1.76329 -0.153976 0
M  V30 901 C 87.4629 -3.43299 0.00651435 0
M  V30 902 C 86.5489 -4.12255 0.995312 0
M  V30 903 N 86.9399 -4.56997 2.16765 0
M  V30 904 C 85.2379 -4.38316 0.824336 0
M  V30 905 C 85.9389 -5.10239 2.7934 0
M  V30 906 N 84.9149 -5.02595 2.07122 0
M  V30 907 H 88.7169 -2.5149 1.52086 0
M  V30 908 H 86.2309 -1.33491 0.924868 0
M  V30 909 H 88.2279 -4.15693 -0.316965 0
M  V30 910 H 86.8879 -3.1249 -0.882033 0
M  V30 911 H 87.8989 -4.51006 2.54587 0
M  V30 912 H 84.5759 -4.17498 -0.0129526 0
M  V30 913 H 85.9659 -5.54961 3.78772 0
M  V30 914 N 88.686 -0.835752 -1.33615 0
M  V30 915 C 89.933 -0.429959 -1.97883 0
M  V30 916 C 90.261 1.01006 -1.66217 0
M  V30 917 O 89.516 1.72047 -0.93265 0
M  V30 918 C 89.815 -0.593925 -3.52431 0
M  V30 919 C 89.481 -2.00158 -4.04039 0
M  V30 920 C 88.143 -2.38662 -4.17844 0
M  V30 921 C 90.495 -2.92117 -4.31644 0
M  V30 922 C 87.823 -3.68435 -4.56588 0
M  V30 923 C 90.175 -4.21368 -4.71838 0
M  V30 924 C 88.839 -4.59833 -4.83849 0
M  V30 925 H 88.109 -0.157333 -0.724104 0
M  V30 926 H 90.756 -1.06217 -1.59343 0
M  V30 927 H 89.061 0.121619 -3.91611 0
M  V30 928 H 90.758 -0.260282 -4.00154 0
M  V30 929 H 87.348 -1.69252 -3.93766 0
M  V30 930 H 91.532 -2.63608 -4.20505 0
M  V30 931 H 86.788 -3.98046 -4.64079 0
M  V30 932 H 90.962 -4.92703 -4.92155 0
M  V30 933 H 88.589 -5.60438 -5.13627 0
M  V30 934 N 90.1641 1.46063 -0.591896 0
M  V30 935 C 91.3891 2.07226 -0.0850314 0
M  V30 936 C 91.8141 1.43625 1.21463 0
M  V30 937 O 91.1721 0.523305 1.73583 0
M  V30 938 C 91.2201 3.60554 0.0576567 0
M  V30 939 O 90.3241 3.97128 1.11188 0
M  V30 940 H 89.6651 0.660615 -0.0669568 0
M  V30 941 H 92.1951 1.8756 -0.81745 0
M  V30 942 H 92.2051 4.07165 0.2609 0
M  V30 943 H 90.8801 4.06235 -0.891416 0
M  V30 944 H 89.4571 3.62213 0.886356 0
M  V30 945 N 91.6422 0.330177 1.54103 0
M  V30 946 C 92.8672 -0.274893 2.0557 0
M  V30 947 C 93.2922 -1.44487 1.20437 0
M  V30 948 O 92.6502 -1.80021 0.214991 0
M  V30 949 C 92.6982 -0.68079 3.54115 0
M  V30 950 O 91.8022 -1.7824 3.71893 0
M  V30 951 H 91.1432 -0.0483849 0.662235 0
M  V30 952 H 93.6732 0.480508 1.98878 0
M  V30 953 H 93.6832 -0.961635 3.96505 0
M  V30 954 H 92.3582 0.174903 4.15532 0
M  V30 955 H 90.9352 -1.49985 3.41407 0
M  V30 956 N 93.1203 -1.57491 0.0584922 0
M  V30 957 C 94.0303 -2.15448 -0.928414 0
M  V30 958 C 95.0463 -1.11416 -1.3365 0
M  V30 959 O 96.2223 -1.4362 -1.41193 0
M  V30 960 C 93.2873 -2.69393 -2.18239 0
M  V30 961 C 92.3483 -3.88249 -1.83196 0
M  V30 962 C 91.5813 -4.39613 -3.02616 0
M  V30 963 O 91.8043 -3.90023 -4.16219 0
M  V30 964 O 90.7383 -5.31111 -2.83204 0
M  V30 965 H 94.5643 -3.00112 -0.465483 0
M  V30 966 H 92.1493 -1.48499 -0.163826 0
M  V30 967 H 94.0313 -3.04026 -2.91798 0
M  V30 968 H 92.7063 -1.87796 -2.63656 0
M  V30 969 H 91.6133 -3.58492 -1.06931 0
M  V30 970 H 92.9463 -4.71098 -1.42573 0
M  V30 971 N 94.5984 0.214957 -1.56127 0
M  V30 972 C 95.5284 1.2695 -1.95974 0
M  V30 973 C 96.5094 1.48539 -0.828868 0
M  V30 974 O 97.6944 1.60611 -1.09168 0
M  V30 975 C 94.8244 2.61794 -2.28214 0
M  V30 976 C 93.7784 2.54851 -3.43853 0
M  V30 977 C 93.1044 3.93785 -3.61715 0
M  V30 978 C 94.4044 2.09065 -4.78632 0
M  V30 979 H 96.0984 0.93846 -2.84312 0
M  V30 980 H 93.6444 0.449996 -1.36788 0
M  V30 981 H 95.5974 3.35731 -2.54682 0
M  V30 982 H 94.3214 2.96599 -1.36736 0
M  V30 983 H 92.9804 1.8337 -3.17444 0
M  V30 984 H 92.6284 4.25908 -2.67602 0
M  V30 985 H 92.3284 3.90019 -4.39498 0
M  V30 986 H 93.8524 4.69374 -3.90539 0
M  V30 987 H 95.2664 2.7275 -5.04262 0
M  V30 988 H 93.6634 2.16346 -5.59745 0
M  V30 989 H 94.7334 1.04315 -4.73547 0
M  V30 990 N 96.0765 1.50051 0.48192 0
M  V30 991 C 97.0065 1.71046 1.58951 0
M  V30 992 C 97.9875 0.559288 1.60642 0
M  V30 993 O 99.1725 0.797243 1.77081 0
M  V30 994 C 96.3025 1.79462 2.97339 0
M  V30 995 C 95.2565 2.94558 3.10515 0
M  V30 996 C 94.5825 2.88105 4.50444 0
M  V30 997 C 95.8825 4.35227 2.88747 0
M  V30 998 H 97.5765 2.6378 1.41635 0
M  V30 999 H 95.1225 1.26936 0.679942 0
M  V30 1000 H 97.0755 1.92734 3.74742 0
M  V30 1001 H 95.7995 0.833412 3.15788 0
M  V30 1002 H 94.4585 2.80918 2.35543 0
M  V30 1003 H 94.1065 1.89853 4.65795 0
M  V30 1004 H 93.8065 3.65366 4.60197 0
M  V30 1005 H 95.3305 3.03412 5.29881 0
M  V30 1006 H 96.7445 4.49449 3.55905 0
M  V30 1007 H 95.1415 5.13856 3.09955 0
M  V30 1008 H 96.2115 4.48347 1.84696 0
M  V30 1009 N 97.5546 -0.734337 1.39446 0
M  V30 1010 C 98.5026 -1.86971 1.38364 0
M  V30 1011 C 99.4966 -1.67288 0.266687 0
M  V30 1012 O 100.703 -1.74621 0.436755 0
M  V30 1013 H 97.0776 -0.615474 0.432082 0
M  V30 1014 H 99.0486 -1.85 2.34132 0
M  V30 1015 C 97.7976 -3.2466 1.24465 0
M  V30 1016 H 97.1206 -3.40402 2.09682 0
M  V30 1017 H 98.5606 -4.04292 1.27764 0
M  V30 1018 C 97.0196 -3.36867 -0.0468674 0
M  V30 1019 O 97.5496 -3.88618 -1.01681 0
M  V30 1020 N 95.7556 -2.90391 -0.110145 0
M  V30 1021 H 95.3026 -2.48466 0.679868 0
M  V30 1022 H 95.2606 -2.98939 -0.973799 0
M  V30 1023 N 99.0327 -1.24633 -0.964593 0
M  V30 1024 C 100.449 -1.01239 -1.2338 0
M  V30 1025 C 100.649 0.2769 -1.99588 0
M  V30 1026 O 99.7047 0.992241 -2.32187 0
M  V30 1027 C 101.018 -2.22937 -2.01791 0
M  V30 1028 C 102.566 -2.27594 -2.14872 0
M  V30 1029 C 103.041 -3.48921 -2.96678 0
M  V30 1030 N 104.532 -3.49257 -3.04259 0
M  V30 1031 C 105.267 -4.39795 -3.67924 0
M  V30 1032 N 104.763 -5.40591 -4.33281 0
M  V30 1033 N 106.556 -4.275 -3.64966 0
M  V30 1034 H 98.7067 -2.0748 -0.454502 0
M  V30 1035 H 100.97 -0.910647 -0.26349 0
M  V30 1036 H 100.676 -3.16587 -1.53184 0
M  V30 1037 H 100.55 -2.25306 -3.02518 0
M  V30 1038 H 102.937 -1.34473 -2.6268 0
M  V30 1039 H 103.018 -2.2925 -1.13482 0
M  V30 1040 H 102.662 -4.42359 -2.49562 0
M  V30 1041 H 102.592 -3.4451 -3.98272 0
M  V30 1042 H 105.083 -2.76337 -2.57771 0
M  V30 1043 H 105.396 -6.05904 -4.79687 0
M  V30 1044 H 103.741 -5.44475 -4.3194 0
M  V30 1045 H 106.932 -3.47987 -3.13086 0
M  V30 1046 H 107.105 -4.98258 -4.14298 0
M  V30 1047 N 100.511 1.16574 -1.06058 0
M  V30 1048 C 101.758 1.87047 -0.775873 0
M  V30 1049 C 102.086 1.81562 0.697534 0
M  V30 1050 O 101.341 1.22445 1.52662 0
M  V30 1051 C 101.64 3.36195 -1.21275 0
M  V30 1052 C 101.306 3.6188 -2.68986 0
M  V30 1053 C 99.9678 3.68599 -3.09335 0
M  V30 1054 C 102.32 3.72648 -3.64394 0
M  V30 1055 C 99.6478 3.83584 -4.43937 0
M  V30 1056 C 102 3.89154 -4.98741 0
M  V30 1057 C 100.664 3.94114 -5.3873 0
M  V30 1058 H 99.9338 0.684452 -0.283912 0
M  V30 1059 H 102.581 1.37853 -1.32925 0
M  V30 1060 H 100.886 3.87505 -0.578528 0
M  V30 1061 H 102.583 3.89103 -0.969542 0
M  V30 1062 H 99.1728 3.57281 -2.36744 0
M  V30 1063 H 103.357 3.66769 -3.34356 0
M  V30 1064 H 98.6128 3.85677 -4.74409 0
M  V30 1065 H 102.787 3.96427 -5.72554 0
M  V30 1066 H 100.414 4.05478 -6.43033 0
M  V30 1067 N 101.989 0.842826 1.3317 0
M  V30 1068 C 102.899 0.281444 2.32906 0
M  V30 1069 C 103.915 -0.594587 1.63526 0
M  V30 1070 O 105.091 -0.49777 1.95152 0
M  V30 1071 C 102.156 -0.530929 3.42611 0
M  V30 1072 C 101.217 0.369843 4.27704 0
M  V30 1073 C 100.45 -0.403853 5.3217 0
M  V30 1074 O 100.673 -1.63513 5.46461 0
M  V30 1075 O 99.6069 0.224199 6.01482 0
M  V30 1076 H 103.433 1.10744 2.82789 0
M  V30 1077 H 101.018 0.60545 1.36582 0
M  V30 1078 H 102.9 -0.992437 4.09547 0
M  V30 1079 H 101.575 -1.33392 2.94938 0
M  V30 1080 H 100.482 0.879275 3.6362 0
M  V30 1081 H 101.815 1.13771 4.78871 0
M  V30 1082 N 103.467 -1.45747 0.599634 0
M  V30 1083 C 104.883 -1.57424 0.26264 0
M  V30 1084 C 105.083 -1.59222 -1.23493 0
M  V30 1085 O 104.139 -1.51825 -2.01756 0
M  V30 1086 C 105.452 -2.86061 0.926795 0
M  V30 1087 C 107 -2.99722 0.901967 0
M  V30 1088 C 107.475 -4.31119 1.54598 0
M  V30 1089 N 108.966 -4.37858 1.5111 0
M  V30 1090 C 109.701 -5.3818 1.97863 0
M  V30 1091 N 109.197 -6.45083 2.52666 0
M  V30 1092 N 110.99 -5.29487 1.88679 0
M  V30 1093 H 103.141 -1.42823 1.57211 0
M  V30 1094 H 105.404 -0.68235 0.658105 0
M  V30 1095 H 105.11 -2.90605 1.98095 0
M  V30 1096 H 104.984 -3.74563 0.445238 0
M  V30 1097 H 107.371 -2.9475 -0.143617 0
M  V30 1098 H 107.452 -2.12652 1.42171 0
M  V30 1099 H 107.096 -4.36849 2.59085 0
M  V30 1100 H 107.026 -5.16992 1.00132 0
M  V30 1101 H 109.517 -3.61209 1.11068 0
M  V30 1102 H 109.83 -7.17869 2.86155 0
M  V30 1103 H 108.175 -6.45856 2.56701 0
M  V30 1104 H 111.366 -4.44877 1.4561 0
M  V30 1105 H 111.539 -6.07524 2.25429 0
M  V30 1106 N 104.945 -0.338344 -1.53925 0
M  V30 1107 C 105.855 0.529421 -2.28548 0
M  V30 1108 C 106.871 1.11645 -1.3346 0
M  V30 1109 O 108.047 1.13325 -1.66492 0
M  V30 1110 C 105.112 1.66713 -3.03987 0
M  V30 1111 C 104.173 1.11041 -4.14691 0
M  V30 1112 C 103.406 2.19389 -4.86522 0
M  V30 1113 O 103.629 3.40013 -4.57982 0
M  V30 1114 O 102.563 1.83976 -5.73094 0
M  V30 1115 H 106.389 -0.0770399 -3.03602 0
M  V30 1116 H 103.974 -0.103555 -1.49041 0
M  V30 1117 H 105.856 2.32918 -3.5118 0
M  V30 1118 H 104.531 2.25949 -2.31794 0
M  V30 1119 H 103.438 0.413024 -3.71813 0
M  V30 1120 H 104.771 0.562975 -4.8897 0
M  V30 1121 N 106.423 1.57458 -0.0668435 0
M  V30 1122 C 107.839 1.56947 0.289772 0
M  V30 1123 C 108.039 1.07584 1.70376 0
M  V30 1124 O 107.095 0.739486 2.41429 0
M  V30 1125 C 108.408 3.0052 0.103943 0
M  V30 1126 C 109.956 3.12517 0.173857 0
M  V30 1127 C 110.431 4.57997 0.0163682 0
M  V30 1128 N 111.922 4.63144 0.0721352 0
M  V30 1129 C 112.657 5.73394 -0.0253794 0
M  V30 1130 N 112.153 6.92576 -0.176133 0
M  V30 1131 N 113.946 5.62091 0.0313305 0
M  V30 1132 H 106.097 1.87863 -0.991027 0
M  V30 1133 H 108.36 0.86583 -0.38606 0
M  V30 1134 H 108.066 3.40729 -0.871572 0
M  V30 1135 H 107.94 3.67304 0.858366 0
M  V30 1136 H 110.327 2.72197 1.13985 0
M  V30 1137 H 110.408 2.48381 -0.611586 0
M  V30 1138 H 110.052 4.99005 -0.946374 0
M  V30 1139 H 109.982 5.20158 0.821153 0
M  V30 1140 H 112.473 3.77436 0.187263 0
M  V30 1141 H 112.786 7.72418 -0.242821 0
M  V30 1142 H 111.131 6.94678 -0.211429 0
M  V30 1143 H 114.322 4.67867 0.147773 0
M  V30 1144 H 114.495 6.47982 -0.048121 0
M  V30 1145 N 107.901 -0.206675 1.56239 0
M  V30 1146 C 109.312 -0.772383 1.69974 0
M  V30 1147 C 109.663 -1.84353 0.671436 0
M  V30 1148 O 108.788 -2.15695 -0.174491 0
M  V30 1149 C 109.383 -1.40779 3.08167 0
M  V30 1150 C 107.942 -1.92072 3.23706 0
M  V30 1151 C 107.089 -0.786347 2.65917 0
M  V30 1152 H 110.04 0.0182223 1.5869 0
M  V30 1153 H 110.061 -2.27696 3.04852 0
M  V30 1154 H 109.573 -0.627958 3.82986 0
M  V30 1155 H 107.674 -2.7281 2.53782 0
M  V30 1156 H 107.787 -2.09046 4.31087 0
M  V30 1157 H 106.151 -1.1976 2.24788 0
M  V30 1158 H 106.934 -0.0189416 3.43295 0
M  V30 1159 N 109.379 -1.50304 -0.473955 0
M  V30 1160 C 110.604 -1.65175 -1.25427 0
M  V30 1161 C 111.029 -0.333673 -1.85117 0
M  V30 1162 O 110.387 0.702114 -1.67153 0
M  V30 1163 C 110.435 -2.74295 -2.34082 0
M  V30 1164 O 109.539 -2.35349 -3.38651 0
M  V30 1165 H 108.88 -0.551944 -0.369126 0
M  V30 1166 H 111.41 -1.96662 -0.564364 0
M  V30 1167 H 111.42 -2.97285 -2.79438 0
M  V30 1168 H 110.095 -3.69959 -1.90008 0
M  V30 1169 H 108.672 -2.22794 -2.99027 0
M  V30 1170 N 110.857 0.726932 -1.39834 0
M  V30 1171 C 111.787 1.85405 -1.41941 0
M  V30 1172 C 112.768 1.67751 -0.281728 0
M  V30 1173 O 113.953 1.8795 -0.488717 0
M  V30 1174 C 111.083 3.23243 -1.2701 0
M  V30 1175 C 110.037 3.55549 -2.38262 0
M  V30 1176 C 109.363 4.9241 -2.08415 0
M  V30 1177 C 110.663 3.577 -3.80589 0
M  V30 1178 H 112.357 1.83899 -2.36266 0
M  V30 1179 H 109.903 0.883349 -1.13723 0
M  V30 1180 H 111.856 4.01775 -1.27103 0
M  V30 1181 H 110.58 3.25296 -0.291564 0
M  V30 1182 H 109.239 2.79351 -2.37399 0
M  V30 1183 H 108.887 4.91052 -1.0898 0
M  V30 1184 H 108.587 5.14992 -2.82943 0
M  V30 1185 H 110.111 5.73289 -2.10171 0
M  V30 1186 H 111.525 4.26293 -3.83337 0
M  V30 1187 H 109.922 3.91804 -4.54543 0
M  V30 1188 H 110.992 2.57328 -4.10987 0
M  V30 1189 N 112.336 1.25143 0.95797 0
M  V30 1190 C 113.747 1.08851 1.51685 0
M  V30 1191 C 114.098 -0.33687 1.93286 0
M  V30 1192 O 113.223 -1.22644 1.7829 0
M  V30 1193 C 113.818 1.96978 2.75654 0
M  V30 1194 C 112.377 1.84881 3.27866 0
M  V30 1195 C 111.524 1.91329 2.0072 0
M  V30 1196 H 114.475 1.38478 0.77522 0
M  V30 1197 H 114.496 1.5078 3.4935 0
M  V30 1198 H 114.008 3.00712 2.45345 0
M  V30 1199 H 112.109 0.840182 3.63004 0
M  V30 1200 H 112.222 2.6951 3.96107 0
M  V30 1201 H 110.586 1.35174 2.15871 0
M  V30 1202 H 111.369 2.96661 1.72764 0
M  V30 1203 N 113.814 -1.1601 1.06675 0
M  V30 1204 C 114.777 -2.18724 0.685001 0
M  V30 1205 C 115.777 -1.58496 -0.271246 0
M  V30 1206 O 116.967 -1.74119 -0.0531156 0
M  V30 1207 C 114.099 -3.40899 0.00853648 0
M  V30 1208 H 115.292 -2.54011 1.59431 0
M  V30 1209 H 112.845 -1.30352 0.862441 0
M  V30 1210 H 113.58 -3.11173 -0.913337 0
M  V30 1211 H 113.365 -3.8587 0.696204 0
M  V30 1212 H 114.855 -4.16886 -0.24414 0
M  V30 1213 N 115.292 -0.849877 -1.32721 0
M  V30 1214 C 116.538 -0.451591 -1.97708 0
M  V30 1215 C 116.871 0.989175 -1.6712 0
M  V30 1216 O 116.146 1.69334 -0.956891 0
M  V30 1217 C 116.429 -0.685598 -3.53513 0
M  V30 1218 C 116.282 -2.17444 -3.93749 0
M  V30 1219 C 117.601 -0.138874 -4.39881 0
M  V30 1220 H 114.72 -0.16555 -0.718166 0
M  V30 1221 H 117.362 -1.06742 -1.57182 0
M  V30 1222 H 115.512 -0.161416 -3.88165 0
M  V30 1223 H 117.184 -2.76433 -3.693 0
M  V30 1224 H 115.427 -2.65476 -3.43081 0
M  V30 1225 H 116.098 -2.28888 -5.02309 0
M  V30 1226 H 118.574 -0.587068 -4.11938 0
M  V30 1227 H 117.45 -0.332213 -5.47894 0
M  V30 1228 H 117.711 0.95806 -4.31594 0
M  V30 1229 N 116.77 1.45427 -0.607355 0
M  V30 1230 C 117.733 2.28974 0.101693 0
M  V30 1231 C 118.733 1.39754 0.795329 0
M  V30 1232 O 119.923 1.61878 0.643527 0
M  V30 1233 C 117.055 3.20768 1.15414 0
M  V30 1234 H 118.248 2.93147 -0.632844 0
M  V30 1235 H 115.801 1.51945 -0.366391 0
M  V30 1236 H 116.536 2.61395 1.91945 0
M  V30 1237 H 116.321 3.86489 0.66098 0
M  V30 1238 H 117.811 3.83589 1.65073 0
M  V30 1239 N 118.248 0.346503 1.53744 0
M  V30 1240 C 119.178 -0.501193 2.28058 0
M  V30 1241 C 120.159 -1.10014 1.29734 0
M  V30 1242 O 121.344 -1.12097 1.58581 0
M  V30 1243 C 118.474 -1.65078 3.05559 0
M  V30 1244 C 117.428 -1.18003 4.11411 0
M  V30 1245 C 116.754 -2.41837 4.76884 0
M  V30 1246 C 118.054 -0.278394 5.21558 0
M  V30 1247 H 119.748 0.11875 2.99164 0
M  V30 1248 H 117.294 0.0585531 1.43881 0
M  V30 1249 H 119.247 -2.25028 3.56287 0
M  V30 1250 H 117.971 -2.29767 2.32109 0
M  V30 1251 H 116.63 -0.603331 3.61601 0
M  V30 1252 H 116.278 -3.0494 4.00026 0
M  V30 1253 H 115.978 -2.1102 5.48402 0
M  V30 1254 H 117.502 -3.02508 5.30397 0
M  V30 1255 H 118.916 -0.784823 5.67903 0
M  V30 1256 H 117.313 -0.0619707 6.00068 0
M  V30 1257 H 118.383 0.684677 4.80042 0
M  V30 1258 N 119.726 -1.57421 0.075193 0
M  V30 1259 C 120.954 -1.97946 -0.602076 0
M  V30 1260 C 121.369 -0.953674 -1.62943 0
M  V30 1261 O 120.726 0.0592551 -1.82404 0
M  V30 1262 C 120.777 -3.38546 -1.26762 0
M  V30 1263 O 120.498 -4.37195 -0.281376 0
M  V30 1264 C 121.999 -3.93966 -2.03239 0
M  V30 1265 H 119.219 -0.650918 -0.162931 0
M  V30 1266 H 121.763 -2.03959 0.148601 0
M  V30 1267 H 119.918 -3.33609 -1.96936 0
M  V30 1268 H 120.332 -5.18975 -0.759267 0
M  V30 1269 H 121.806 -4.94555 -2.45193 0
M  V30 1270 H 122.283 -3.30693 -2.8903 0
M  V30 1271 H 122.889 -4.02315 -1.37924 0
M  V30 1272 N 121.204 0.198386 -1.56346 0
M  V30 1273 C 122.432 0.935572 -1.84539 0
M  V30 1274 C 122.847 1.76989 -0.657281 0
M  V30 1275 O 122.204 1.78626 0.374043 0
M  V30 1276 C 122.255 1.8344 -3.11499 0
M  V30 1277 O 121.976 1.03377 -4.25728 0
M  V30 1278 C 123.477 2.68355 -3.52846 0
M  V30 1279 H 120.697 0.273126 -0.612897 0
M  V30 1280 H 123.241 0.20663 -2.03453 0
M  V30 1281 H 121.396 2.51701 -2.94492 0
M  V30 1282 H 121.81 1.64599 -4.98003 0
M  V30 1283 H 123.284 3.27085 -4.44657 0
M  V30 1284 H 123.761 3.41901 -2.75681 0
M  V30 1285 H 124.367 2.05471 -3.72373 0
M  V30 1286 N 122.682 1.50554 0.465978 0
M  V30 1287 C 123.959 1.5232 1.22712 0
M  V30 1288 C 124.339 0.270807 2.09356 0
M  V30 1289 O 123.687 -0.745541 2.15995 0
M  V30 1290 C 123.897 2.82175 2.05374 0
M  V30 1291 C 125.245 3.33033 2.6339 0
M  V30 1292 O 126.269 2.83531 2.15612 0
M  V30 1293 O 125.128 4.19336 3.50456 0
M  V30 1294 H 122.222 0.611183 0.557122 0
M  V30 1295 H 124.768 1.62847 0.477381 0
M  V30 1296 H 123.54 3.64797 1.41558 0
M  V30 1297 H 123.163 2.74675 2.87471 0
M  V30 1298 N 124.16 -0.719506 1.40217 0
M  V30 1299 C 125.385 -1.51371 1.4178 0
M  V30 1300 C 125.81 -1.88091 0.0182355 0
M  V30 1301 O 125.168 -1.52997 -0.972707 0
M  V30 1302 C 125.216 -2.768 2.31115 0
M  V30 1303 O 124.32 -3.73349 1.7517 0
M  V30 1304 H 123.661 -0.456529 0.482159 0
M  V30 1305 H 126.191 -0.88644 1.844 0
M  V30 1306 H 126.201 -3.25371 2.46167 0
M  V30 1307 H 124.876 -2.49407 3.3282 0
M  V30 1308 H 123.453 -3.32179 1.69444 0
M  V30 1309 N 125.638 -1.25649 -0.95132 0
M  V30 1310 C 126.863 -1.13443 -1.73624 0
M  V30 1311 C 127.288 0.307565 -1.85568 0
M  V30 1312 O 126.646 1.22282 -1.33854 0
M  V30 1313 C 126.694 -1.79723 -3.12621 0
M  V30 1314 O 125.798 -1.07912 -3.98031 0
M  V30 1315 H 125.139 -0.395872 -0.533086 0
M  V30 1316 H 127.669 -1.66276 -1.1922 0
M  V30 1317 H 127.679 -1.86141 -3.63064 0
M  V30 1318 H 126.354 -2.84633 -3.03244 0
M  V30 1319 H 124.931 -1.09398 -3.56492 0
M  V30 1320 N 127.117 1.15442 -1.07289 0
M  V30 1321 C 128.345 1.90096 -0.81676 0
M  V30 1322 C 128.76 1.7798 0.629966 0
M  V30 1323 O 128.117 1.1313 1.43206 0
M  V30 1324 C 128.168 3.40466 -1.21512 0
M  V30 1325 O 127.889 3.52232 -2.60508 0
M  V30 1326 C 129.39 4.32145 -0.988198 0
M  V30 1327 H 126.61 0.602495 -0.295366 0
M  V30 1328 H 129.154 1.4627 -1.42918 0
M  V30 1329 H 127.309 3.81958 -0.647039 0
M  V30 1330 H 127.723 4.45549 -2.76742 0
M  V30 1331 H 129.197 5.36072 -1.31645 0
M  V30 1332 H 129.674 4.39135 0.0755063 0
M  V30 1333 H 130.28 3.96395 -1.54115 0
M  V30 1334 N 128.595 0.856903 1.32268 0
M  V30 1335 C 129.844 0.457599 1.96441 0
M  V30 1336 C 130.157 -0.992426 1.68553 0
M  V30 1337 O 131.363 -1.49727 2.26482 0
M  V30 1338 C 129.819 0.767358 3.51624 0
M  V30 1339 C 129.427 2.23326 3.88367 0
M  V30 1340 C 131.171 0.435887 4.22256 0
M  V30 1341 C 129.078 2.48613 5.36606 0
M  V30 1342 H 128.008 0.167387 0.735185 0
M  V30 1343 H 130.659 1.048 1.5063 0
M  V30 1344 H 129.041 0.106367 3.95857 0
M  V30 1345 H 130.215 2.93623 3.55137 0
M  V30 1346 H 128.53 2.52948 3.30766 0
M  V30 1347 H 131.127 0.602202 5.31298 0
M  V30 1348 H 131.47 -0.622672 4.11617 0
M  V30 1349 H 132.003 1.05286 3.83614 0
M  V30 1350 H 128.742 3.53101 5.52268 0
M  V30 1351 H 128.262 1.82896 5.71235 0
M  V30 1352 H 129.941 2.32676 6.03714 0
M  V30 1353 N 130.073 -1.45103 0.615059 0
M  V30 1354 C 131.301 -2.06553 0.11977 0
M  V30 1355 C 131.716 -1.45842 -1.19898 0
M  V30 1356 O 131.073 -0.575325 -1.73194 0
M  V30 1357 C 131.124 -3.61495 -0.018364 0
M  V30 1358 O 130.845 -4.19942 1.24822 0
M  V30 1359 C 132.346 -4.39947 -0.544237 0
M  V30 1360 H 129.566 -0.667096 0.0722739 0
M  V30 1361 H 132.11 -1.8623 0.84491 0
M  V30 1362 H 130.265 -3.81135 -0.693865 0
M  V30 1363 H 130.679 -5.13204 1.0827 0
M  V30 1364 H 132.153 -5.48838 -0.589953 0
M  V30 1365 H 132.63 -4.10255 -1.56805 0
M  V30 1366 H 133.236 -4.25188 0.0974703 0
M  V30 1367 N 131.551 -0.354651 -1.53558 0
M  V30 1368 C 132.776 0.242153 -2.05981 0
M  V30 1369 C 133.201 1.42553 -1.2272 0
M  V30 1370 O 132.559 1.79656 -0.243604 0
M  V30 1371 C 132.607 0.624367 -3.55154 0
M  V30 1372 O 131.711 1.72301 -3.74681 0
M  V30 1373 H 131.052 0.0378432 -0.662921 0
M  V30 1374 H 133.582 -0.512087 -1.98088 0
M  V30 1375 H 133.592 0.898433 -3.97985 0
M  V30 1376 H 132.267 -0.240989 -4.15201 0
M  V30 1377 H 130.844 1.44535 -3.4375 0
M  V30 1378 N 133.029 1.57378 -0.0835403 0
M  V30 1379 C 134.278 1.93106 0.582498 0
M  V30 1380 C 134.591 0.96651 1.70053 0
M  V30 1381 O 135.797 1.21705 2.42693 0
M  V30 1382 C 134.253 3.43076 1.08751 0
M  V30 1383 C 133.861 4.48 -0.000146404 0
M  V30 1384 C 135.605 3.87785 1.72694 0
M  V30 1385 C 133.512 5.89113 0.519568 0
M  V30 1386 H 132.442 0.720775 0.221358 0
M  V30 1387 H 135.093 1.82821 -0.157675 0
M  V30 1388 H 133.475 3.48474 1.88101 0
M  V30 1389 H 134.649 4.54233 -0.775199 0
M  V30 1390 H 132.964 4.1283 -0.54406 0
M  V30 1391 H 135.561 4.90604 2.1263 0
M  V30 1392 H 135.904 3.25796 2.59158 0
M  V30 1393 H 136.437 3.8504 0.999457 0
M  V30 1394 H 133.176 6.54775 -0.308186 0
M  V30 1395 H 132.696 5.86376 1.26188 0
M  V30 1396 H 134.375 6.39346 0.992237 0
M  V30 1397 N 134.507 -0.190092 1.56449 0
M  V30 1398 C 135.47 -1.21925 1.9408 0
M  V30 1399 C 136.47 -1.38176 0.822431 0
M  V30 1400 O 137.66 -1.35903 1.08977 0
M  V30 1401 C 134.792 -2.58773 2.21922 0
M  V30 1402 H 135.985 -0.897464 2.86157 0
M  V30 1403 H 133.538 -0.43181 1.50217 0
M  V30 1404 H 134.273 -2.95998 1.32499 0
M  V30 1405 H 134.058 -2.48348 3.03424 0
M  V30 1406 H 135.548 -3.32978 2.52022 0
M  V30 1407 N 135.985 -1.50799 -0.457987 0
M  V30 1408 C 136.933 -1.71162 -1.575 0
M  V30 1409 C 137.927 -0.577592 -1.59249 0
M  V30 1410 O 139.133 -0.758443 -1.63241 0
M  V30 1411 H 135.508 -0.540468 -0.522875 0
M  V30 1412 H 137.479 -2.64837 -1.37492 0
M  V30 1413 C 136.228 -1.83496 -2.95338 0
M  V30 1414 H 135.551 -2.70153 -2.94716 0
M  V30 1415 H 136.991 -2.01765 -3.72917 0
M  V30 1416 C 135.45 -0.589694 -3.31699 0
M  V30 1417 O 135.98 0.265163 -4.00824 0
M  V30 1418 N 134.186 -0.439845 -2.87252 0
M  V30 1419 H 133.733 -1.13655 -2.31172 0
M  V30 1420 H 133.691 0.392159 -3.11945 0
M  V30 1421 N 137.463 0.71206 -1.40597 0
M  V30 1422 C 138.74 1.46536 -1.29563 0
M  V30 1423 C 139.12 2.10931 0.0844217 0
M  V30 1424 O 138.468 2.00418 1.0975 0
M  V30 1425 C 138.678 2.49821 -2.43701 0
M  V30 1426 C 140.026 3.15551 -2.841 0
M  V30 1427 O 141.05 2.60142 -2.4332 0
M  V30 1428 O 139.909 4.15867 -3.54566 0
M  V30 1429 H 137.003 0.651801 -0.509004 0
M  V30 1430 H 139.549 0.743935 -1.52524 0
M  V30 1431 H 138.321 2.00778 -3.35863 0
M  V30 1432 H 137.944 3.29495 -2.22528 0
M  V30 1433 N 138.941 1.26152 0.944643 0
M  V30 1434 C 140.171 1.14094 1.72239 0
M  V30 1435 C 140.579 -0.306931 1.86694 0
M  V30 1436 O 139.922 -1.22222 1.3714 0
M  V30 1437 C 139.984 1.73316 3.14963 0
M  V30 1438 C 139.648 3.2239 3.23904 0
M  V30 1439 C 140.645 4.19252 3.07447 0
M  V30 1440 C 138.33 3.62788 3.47405 0
M  V30 1441 C 140.324 5.54491 3.14353 0
M  V30 1442 C 138.011 4.98162 3.53947 0
M  V30 1443 C 139.009 5.93823 3.37436 0
M  V30 1444 O 138.697 7.26732 3.43679 0
M  V30 1445 H 138.429 0.398292 0.546205 0
M  V30 1446 H 140.983 1.67201 1.19301 0
M  V30 1447 H 139.213 1.14667 3.69308 0
M  V30 1448 H 140.902 1.56214 3.74636 0
M  V30 1449 H 141.668 3.8938 2.8915 0
M  V30 1450 H 137.547 2.88816 3.59313 0
M  V30 1451 H 141.091 6.29137 3.01384 0
M  V30 1452 H 136.988 5.27695 3.71763 0
M  V30 1453 H 137.756 7.3496 3.60245 0
M  V30 1454 N 140.419 -1.14872 1.07899 0
M  V30 1455 C 141.644 -1.90202 0.826926 0
M  V30 1456 C 142.069 -1.77774 -0.614664 0
M  V30 1457 O 141.427 -1.11431 -1.43013 0
M  V30 1458 C 141.475 -3.38352 1.24702 0
M  V30 1459 O 140.579 -4.10497 0.39575 0
M  V30 1460 H 139.92 -0.591968 0.300782 0
M  V30 1461 H 142.45 -1.45437 1.43907 0
M  V30 1462 H 142.46 -3.89156 1.22563 0
M  V30 1463 H 141.135 -3.46715 2.29698 0
M  V30 1464 H 139.712 -3.69796 0.480117 0
M  V30 1465 N 141.898 -0.863906 -1.31812 0
M  V30 1466 C 143.128 -0.485406 -2.00817 0
M  V30 1467 C 143.536 0.925007 -1.65046 0
M  V30 1468 O 142.879 1.61653 -0.872574 0
M  V30 1469 C 142.941 -0.555589 -3.55181 0
M  V30 1470 C 142.605 -1.92654 -4.14407 0
M  V30 1471 C 143.602 -2.89324 -4.31958 0
M  V30 1472 C 141.287 -2.2262 -4.50273 0
M  V30 1473 C 143.281 -4.14108 -4.84555 0
M  V30 1474 C 140.968 -3.47654 -5.02573 0
M  V30 1475 C 141.966 -4.43214 -5.19664 0
M  V30 1476 O 141.654 -5.66033 -5.70843 0
M  V30 1477 H 141.386 -0.188224 -0.649267 0
M  V30 1478 H 143.94 -1.16514 -1.69156 0
M  V30 1479 H 142.17 0.181037 -3.86276 0
M  V30 1480 H 143.859 -0.19138 -4.05449 0
M  V30 1481 H 144.625 -2.6748 -4.04573 0
M  V30 1482 H 140.504 -1.4902 -4.3625 0
M  V30 1483 H 144.048 -4.88703 -4.9781 0
M  V30 1484 H 139.945 -3.69345 -5.29391 0
M  V30 1485 H 140.713 -5.6812 -5.89222 0
M  V30 1486 N 143.376 1.44774 -0.622745 0
M  V30 1487 C 144.324 2.32387 0.0994683 0
M  V30 1488 C 145.318 1.46859 0.844326 0
M  V30 1489 O 146.524 1.63254 0.758174 0
M  V30 1490 H 142.899 0.750273 0.0509291 0
M  V30 1491 H 144.87 2.91062 -0.65767 0
M  V30 1492 C 143.619 3.30723 1.07319 0
M  V30 1493 H 142.942 3.96541 0.509462 0
M  V30 1494 H 144.382 3.94725 1.54817 0
M  V30 1495 C 142.841 2.59021 2.15429 0
M  V30 1496 O 143.371 2.38286 3.23393 0
M  V30 1497 N 141.577 2.189 1.91131 0
M  V30 1498 H 141.124 2.35964 1.03337 0
M  V30 1499 H 141.082 1.71251 2.63668 0
M  V30 1500 N 144.854 0.36279 1.53368 0
M  V30 1501 C 145.764 -0.492994 2.29362 0
M  V30 1502 C 146.78 -1.09507 1.35219 0
M  V30 1503 O 147.956 -1.10662 1.68273 0
M  V30 1504 C 145.021 -1.61855 3.066 0
M  V30 1505 C 144.082 -1.04429 4.16405 0
M  V30 1506 C 143.315 -2.11621 4.89951 0
M  V30 1507 O 143.538 -3.32684 4.63333 0
M  V30 1508 O 142.472 -1.74835 5.75948 0
M  V30 1509 H 146.298 0.125331 3.03441 0
M  V30 1510 H 143.883 0.127253 1.48857 0
M  V30 1511 H 145.765 -2.27302 3.54841 0
M  V30 1512 H 144.44 -2.22233 2.3536 0
M  V30 1513 H 143.347 -0.353819 3.72423 0
M  V30 1514 H 144.68 -0.485113 4.89804 0
M  V30 1515 N 146.332 -1.57332 0.0918853 0
M  V30 1516 C 147.578 -1.94524 -0.573425 0
M  V30 1517 C 147.911 -0.973578 -1.68033 0
M  V30 1518 O 147.186 -0.00609226 -1.94499 0
M  V30 1519 C 147.469 -3.41858 -1.13161 0
M  V30 1520 C 147.322 -4.4979 -0.0299747 0
M  V30 1521 C 148.641 -3.90435 -2.03098 0
M  V30 1522 H 145.76 -0.70734 -0.206975 0
M  V30 1523 H 148.402 -1.89309 0.161942 0
M  V30 1524 H 146.552 -3.46433 -1.7583 0
M  V30 1525 H 148.224 -4.57327 0.604112 0
M  V30 1526 H 146.467 -4.291 0.636833 0
M  V30 1527 H 147.138 -5.50069 -0.461287 0
M  V30 1528 H 149.614 -3.87992 -1.50338 0
M  V30 1529 H 148.49 -4.94097 -2.39081 0
M  V30 1530 H 148.751 -3.29541 -2.94712 0
M  V30 1531 N 147.81 0.181792 -1.56548 0
M  V30 1532 C 149.057 0.900097 -1.81396 0
M  V30 1533 C 149.385 1.82695 -0.667281 0
M  V30 1534 O 148.64 1.92614 0.346146 0
M  V30 1535 C 148.939 1.73728 -3.12335 0
M  V30 1536 C 148.605 0.960255 -4.40556 0
M  V30 1537 C 147.267 0.745766 -4.75386 0
M  V30 1538 C 149.619 0.414477 -5.19549 0
M  V30 1539 C 146.947 -0.0257694 -5.86694 0
M  V30 1540 C 149.299 -0.343916 -6.31664 0
M  V30 1541 C 147.963 -0.569301 -6.65068 0
M  V30 1542 H 147.233 0.329369 -0.663775 0
M  V30 1543 H 149.88 0.165647 -1.90782 0
M  V30 1544 H 148.185 2.54081 -2.98245 0
M  V30 1545 H 149.882 2.29591 -3.28769 0
M  V30 1546 H 146.472 1.13746 -4.13231 0
M  V30 1547 H 150.656 0.567554 -4.93044 0
M  V30 1548 H 145.912 -0.210233 -6.11038 0
M  V30 1549 H 150.086 -0.774133 -6.92084 0
M  V30 1550 H 147.713 -1.16903 -7.51158 0
M  V30 1551 N 149.288 1.51039 0.449983 0
M  V30 1552 C 150.513 1.6715 1.22783 0
M  V30 1553 C 150.938 0.363081 1.84563 0
M  V30 1554 O 150.296 -0.675433 1.68249 0
M  V30 1555 C 150.344 2.77985 2.29689 0
M  V30 1556 O 149.448 2.40707 3.34864 0
M  V30 1557 H 148.789 0.557746 0.360299 0
M  V30 1558 H 151.319 1.97535 0.533005 0
M  V30 1559 H 151.329 3.01693 2.74673 0
M  V30 1560 H 150.004 3.72935 1.84098 0
M  V30 1561 H 148.581 2.27523 2.95445 0
M  V30 1562 N 150.766 -0.704594 1.40972 0
M  V30 1563 C 151.713 -1.81862 1.42109 0
M  V30 1564 C 152.683 -1.63781 0.276593 0
M  V30 1565 O 153.868 -1.84759 0.4763 0
M  V30 1566 C 151.008 -3.19669 1.30022 0
M  V30 1567 C 150.121 -3.49246 2.54267 0
M  V30 1568 C 149.256 -4.76618 2.3454 0
M  V30 1569 C 148.295 -4.99133 3.54306 0
M  V30 1570 N 147.432 -6.17726 3.33706 0
M  V30 1571 H 152.272 -1.80226 2.37324 0
M  V30 1572 H 149.809 -0.880238 1.17857 0
M  V30 1573 H 151.767 -3.99263 1.21018 0
M  V30 1574 H 150.397 -3.20506 0.384192 0
M  V30 1575 H 149.449 -2.64125 2.73756 0
M  V30 1576 H 150.761 -3.61788 3.43381 0
M  V30 1577 H 149.915 -5.64249 2.22952 0
M  V30 1578 H 148.654 -4.66305 1.42867 0
M  V30 1579 H 147.659 -4.09953 3.66359 0
M  V30 1580 H 148.884 -5.11311 4.4692 0
M  V30 1581 H 146.83 -6.08642 2.44725 0
M  V30 1582 H 146.747 -6.30995 4.16391 0
M  V30 1583 H 148.015 -7.08115 3.25873 0
M  V30 1584 N 152.244 -1.26651 -0.937939 0
M  V30 1585 C 153.176 -1.04283 -2.04102 0
M  V30 1586 C 154.189 -0.00221014 -1.628 0
M  V30 1587 O 155.378 -0.242645 -1.76843 0
M  V30 1588 C 152.478 -0.557846 -3.34277 0
M  V30 1589 C 151.651 -1.66843 -4.04329 0
M  V30 1590 C 150.71 -1.18095 -5.12777 0
M  V30 1591 O 149.736 -1.87865 -5.37304 0
M  V30 1592 N 150.938 -0.0311006 -5.80492 0
M  V30 1593 H 153.703 -1.9927 -2.23856 0
M  V30 1594 H 151.264 -1.1808 -1.10764 0
M  V30 1595 H 153.256 -0.215836 -4.04124 0
M  V30 1596 H 151.826 0.298523 -3.11171 0
M  V30 1597 H 151.046 -2.18123 -3.28353 0
M  V30 1598 H 152.334 -2.41408 -4.47883 0
M  V30 1599 H 151.732 0.551486 -5.63005 0
M  V30 1600 H 150.289 0.251809 -6.51313 0
M  V30 1601 N 153.722 1.14298 -1.08507 0
M  V30 1602 C 154.971 1.84708 -0.810305 0
M  V30 1603 C 155.284 1.83903 0.666271 0
M  V30 1604 O 156.49 2.50112 1.05624 0
M  V30 1605 C 154.946 3.31572 -1.39957 0
M  V30 1606 C 154.554 3.40791 -2.90801 0
M  V30 1607 C 156.298 4.07087 -1.20334 0
M  V30 1608 C 154.205 4.81872 -3.4286 0
M  V30 1609 H 153.135 0.691985 -0.299454 0
M  V30 1610 H 155.786 1.28841 -1.30661 0
M  V30 1611 H 154.168 3.87183 -0.830976 0
M  V30 1612 H 155.342 2.95225 -3.53806 0
M  V30 1613 H 153.657 2.78732 -3.0935 0
M  V30 1614 H 156.254 5.11225 -1.56693 0
M  V30 1615 H 156.597 4.16054 -0.143237 0
M  V30 1616 H 157.13 3.57779 -1.73893 0
M  V30 1617 H 153.869 4.78094 -4.48449 0
M  V30 1618 H 153.389 5.27972 -2.84615 0
M  V30 1619 H 155.068 5.50765 -3.39509 0
M  V30 1620 N 155.201 0.870884 1.31352 0
M  V30 1621 C 156.617 0.562932 1.49343 0
M  V30 1622 C 156.817 -0.902725 1.80148 0
M  V30 1623 O 155.873 -1.68484 1.88067 0
M  V30 1624 C 157.186 1.46393 2.62659 0
M  V30 1625 C 158.734 1.46607 2.76542 0
M  V30 1626 C 159.209 2.35266 3.92955 0
M  V30 1627 N 160.7 2.33151 4.00243 0
M  V30 1628 C 161.435 2.98471 4.89594 0
M  V30 1629 N 160.931 3.72964 5.8384 0
M  V30 1630 N 162.724 2.87775 4.82848 0
M  V30 1631 H 154.875 1.81923 1.09626 0
M  V30 1632 H 157.138 0.777934 0.541777 0
M  V30 1633 H 156.844 2.50689 2.46674 0
M  V30 1634 H 156.718 1.16314 3.58819 0
M  V30 1635 H 159.105 0.43069 2.9194 0
M  V30 1636 H 159.186 1.8071 1.81046 0
M  V30 1637 H 158.83 3.38881 3.78315 0
M  V30 1638 H 158.76 1.98487 4.87761 0
M  V30 1639 H 161.251 1.79006 3.32814 0
M  V30 1640 H 161.564 4.19932 6.4875 0
M  V30 1641 H 159.909 3.77073 5.83816 0
M  V30 1642 H 163.1 2.29116 4.08195 0
M  V30 1643 H 163.273 3.38961 5.52277 0
M  V30 1644 N 156.679 -1.44442 0.630414 0
M  V30 1645 C 157.642 -2.29107 -0.0652523 0
M  V30 1646 C 158.642 -1.41002 -0.772995 0
M  V30 1647 O 159.832 -1.62881 -0.617692 0
M  V30 1648 C 156.964 -3.22564 -1.10296 0
M  V30 1649 H 158.157 -2.92103 0.679401 0
M  V30 1650 H 155.71 -1.51343 0.390517 0
M  V30 1651 H 156.445 -2.64416 -1.87762 0
M  V30 1652 H 156.23 -3.87491 -0.59941 0
M  V30 1653 H 157.72 -3.86167 -1.5895 0
M  V30 1654 N 158.157 -0.370918 -1.53173 0
M  V30 1655 C 159.087 0.464847 -2.28826 0
M  V30 1656 C 160.068 1.07936 -1.31468 0
M  V30 1657 O 161.253 1.0956 -1.60344 0
M  V30 1658 C 158.383 1.60196 -3.08147 0
M  V30 1659 C 157.337 1.11443 -4.13237 0
M  V30 1660 C 156.663 2.3422 -4.80672 0
M  V30 1661 C 157.963 0.195384 -5.21934 0
M  V30 1662 H 159.657 -0.166329 -2.98938 0
M  V30 1663 H 157.203 -0.0814359 -1.4377 0
M  V30 1664 H 159.156 2.19332 -3.59822 0
M  V30 1665 H 157.88 2.26045 -2.35735 0
M  V30 1666 H 156.539 0.545727 -3.62515 0
M  V30 1667 H 156.187 2.98537 -4.04827 0
M  V30 1668 H 155.887 2.02269 -5.51689 0
M  V30 1669 H 157.411 2.94032 -5.35143 0
M  V30 1670 H 158.825 0.694375 -5.69079 0
M  V30 1671 H 157.222 -0.0335027 -6.00091 0
M  V30 1672 H 158.292 -0.760961 -4.78892 0
M  V30 1673 N 159.635 1.57281 -0.100228 0
M  V30 1674 C 160.883 1.94153 0.561157 0
M  V30 1675 C 161.204 0.983157 1.68401 0
M  V30 1676 O 160.474 0.0361132 1.95867 0
M  V30 1677 H 159.054 0.716791 0.210283 0
M  V30 1678 H 161.716 1.94202 -0.164765 0
M  V30 1679 H 160.812 2.96709 0.968008 0
M  V30 1680 N 161.113 -0.173488 1.56642 0
M  V30 1681 C 162.045 -1.23935 1.92802 0
M  V30 1682 C 163.058 -1.40589 0.820889 0
M  V30 1683 O 164.247 -1.40631 1.09933 0
M  V30 1684 C 161.347 -2.60837 2.16373 0
M  V30 1685 C 160.52 -2.6551 3.47596 0
M  V30 1686 C 159.579 -3.8376 3.60021 0
M  V30 1687 O 158.605 -3.69859 4.32658 0
M  V30 1688 N 159.807 -5.00127 2.94709 0
M  V30 1689 H 162.572 -0.932236 2.84832 0
M  V30 1690 H 160.133 -0.363268 1.57772 0
M  V30 1691 H 162.125 -3.38407 2.21952 0
M  V30 1692 H 160.695 -2.83948 1.30738 0
M  V30 1693 H 159.915 -1.74052 3.53694 0
M  V30 1694 H 161.203 -2.65641 4.33949 0
M  V30 1695 H 160.601 -5.14322 2.35563 0
M  V30 1696 H 159.158 -5.75567 3.05886 0
M  V30 1697 N 162.591 -1.51276 -0.441967 0
M  V30 1698 C 164.002 -1.56244 -1.02199 0
M  V30 1699 C 164.353 -0.383149 -1.92422 0
M  V30 1700 O 163.478 0.500613 -2.1053 0
M  V30 1701 C 164.073 -2.83162 -1.86024 0
M  V30 1702 C 162.632 -2.90716 -2.39084 0
M  V30 1703 C 161.779 -2.50858 -1.18175 0
M  V30 1704 H 164.73 -1.5712 -0.223416 0
M  V30 1705 H 164.751 -2.66663 -2.71425 0
M  V30 1706 H 164.263 -3.68974 -1.20331 0
M  V30 1707 H 162.364 -2.09323 -3.08244 0
M  V30 1708 H 162.477 -3.94266 -2.72198 0
M  V30 1709 H 160.841 -2.03951 -1.52565 0
M  V30 1710 H 161.624 -3.3901 -0.541001 0
M  V30 1711 N 164.069 0.697108 -1.41344 0
M  V30 1712 C 165.317 1.45426 -1.40341 0
M  V30 1713 C 165.638 1.94996 -0.0128787 0
M  V30 1714 O 164.908 1.71599 0.945027 0
M  V30 1715 H 163.488 0.539594 -0.516573 0
M  V30 1716 H 166.15 0.825201 -1.76569 0
M  V30 1717 H 165.246 2.31817 -2.08967 0
M  V30 1718 N 165.547 1.27147 0.931209 0
M  V30 1719 C 166.824 1.0401 1.65654 0
M  V30 1720 C 167.204 -0.426297 2.06751 0
M  V30 1721 O 166.552 -1.40879 1.79904 0
M  V30 1722 C 166.762 1.99834 2.86125 0
M  V30 1723 C 168.11 2.29007 3.57549 0
M  V30 1724 O 169.134 1.97779 2.96246 0
M  V30 1725 O 167.993 2.82222 4.67989 0
M  V30 1726 H 165.087 0.396239 0.725895 0
M  V30 1727 H 167.633 1.38397 0.982056 0
M  V30 1728 H 166.405 2.98744 2.52721 0
M  V30 1729 H 166.028 1.65987 3.61295 0
M  V30 1730 N 167.025 -1.13721 1.09112 0
M  V30 1731 C 168.271 -1.85198 0.826414 0
M  V30 1732 C 168.604 -1.83129 -0.646319 0
M  V30 1733 O 167.879 -1.2671 -1.47563 0
M  V30 1734 C 168.162 -3.33507 1.35812 0
M  V30 1735 C 168.015 -3.44108 2.89672 0
M  V30 1736 C 169.334 -4.28838 0.989256 0
M  V30 1737 H 166.453 -0.67243 0.301675 0
M  V30 1738 H 169.095 -1.33499 1.35197 0
M  V30 1739 H 167.245 -3.77666 0.911082 0
M  V30 1740 H 168.917 -3.08684 3.428 0
M  V30 1741 H 167.16 -2.85087 3.26967 0
M  V30 1742 H 167.831 -4.48388 3.21951 0
M  V30 1743 H 170.307 -3.92734 1.37475 0
M  V30 1744 H 169.183 -5.31051 1.38838 0
M  V30 1745 H 169.444 -4.4198 -0.102924 0
M  V30 1746 N 168.503 -0.877838 -1.30888 0
M  V30 1747 C 169.433 -0.35534 -2.3078 0
M  V30 1748 C 170.414 0.557994 -1.60687 0
M  V30 1749 O 171.599 0.473355 -1.88343 0
M  V30 1750 C 168.729 0.437221 -3.44537 0
M  V30 1751 C 167.683 -0.383715 -4.26276 0
M  V30 1752 C 167.009 0.535014 -5.32017 0
M  V30 1753 C 168.309 -1.62201 -4.96476 0
M  V30 1754 H 170.003 -1.19007 -2.74732 0
M  V30 1755 H 167.549 -0.573698 -1.32078 0
M  V30 1756 H 169.502 0.813334 -4.13477 0
M  V30 1757 H 168.226 1.30553 -2.99372 0
M  V30 1758 H 166.885 -0.741874 -3.59015 0
M  V30 1759 H 166.533 1.40083 -4.831 0
M  V30 1760 H 166.233 -0.0104211 -5.87599 0
M  V30 1761 H 167.757 0.907799 -6.03814 0
M  V30 1762 H 169.171 -1.31689 -5.5797 0
M  V30 1763 H 167.568 -2.10711 -5.61891 0
M  V30 1764 H 168.638 -2.37044 -4.23011 0
M  V30 1765 N 169.982 1.44106 -0.638065 0
M  V30 1766 C 170.912 2.33448 0.0494287 0
M  V30 1767 C 171.893 1.48606 0.827672 0
M  V30 1768 O 173.078 1.77308 0.792173 0
M  V30 1769 C 170.208 3.31771 1.02691 0
M  V30 1770 C 169.162 4.26485 0.359823 0
M  V30 1771 C 168.488 5.14729 1.44769 0
M  V30 1772 C 169.788 5.17056 -0.738296 0
M  V30 1773 H 171.482 2.91183 -0.696636 0
M  V30 1774 H 169.028 1.40014 -0.336456 0
M  V30 1775 H 170.981 3.93161 1.51666 0
M  V30 1776 H 169.705 2.7226 1.80395 0
M  V30 1777 H 168.364 3.66437 -0.10934 0
M  V30 1778 H 168.012 4.51566 2.21578 0
M  V30 1779 H 167.712 5.78913 1.00668 0
M  V30 1780 H 169.236 5.78991 1.93911 0
M  V30 1781 H 170.65 5.72342 -0.331354 0
M  V30 1782 H 169.047 5.89879 -1.10286 0
M  V30 1783 H 170.117 4.57652 -1.60258 0
M  V30 1784 N 171.46 0.379036 1.52974 0
M  V30 1785 C 172.423 -0.448865 2.24762 0
M  V30 1786 C 173.423 -0.998689 1.26027 0
M  V30 1787 O 174.613 -0.882313 1.50203 0
M  V30 1788 C 171.745 -1.62872 2.99476 0
M  V30 1789 H 172.938 0.179491 2.99362 0
M  V30 1790 H 170.491 0.13096 1.5575 0
M  V30 1791 H 171.226 -2.29479 2.29151 0
M  V30 1792 H 171.011 -1.24128 3.71934 0
M  V30 1793 H 172.501 -2.2151 3.5401 0
M  V30 1794 N 172.938 -1.57226 0.108567 0
M  V30 1795 C 174.187 -1.94008 -0.551703 0
M  V30 1796 C 174.5 -0.993442 -1.68494 0
M  V30 1797 O 175.706 -1.25551 -2.40726 0
M  V30 1798 C 174.162 -3.44763 -1.03279 0
M  V30 1799 C 173.77 -4.47943 0.0714193 0
M  V30 1800 C 175.514 -3.90483 -1.66503 0
M  V30 1801 C 173.421 -5.89865 -0.425779 0
M  V30 1802 H 172.351 -0.724206 -0.209863 0
M  V30 1803 H 175.002 -1.82547 0.186741 0
M  V30 1804 H 173.384 -3.51422 -1.82533 0
M  V30 1805 H 174.558 -4.52942 0.847365 0
M  V30 1806 H 172.873 -4.11913 0.609669 0
M  V30 1807 H 175.47 -4.93925 -2.04798 0
M  V30 1808 H 175.813 -3.29877 -2.53942 0
M  V30 1809 H 176.346 -3.86581 -0.938074 0
M  V30 1810 H 173.085 -6.54202 0.412316 0
M  V30 1811 H 172.605 -5.88309 -1.16843 0
M  V30 1812 H 174.284 -6.40844 -0.890397 0
M  V30 1813 N 174.416 0.165178 -1.56732 0
M  V30 1814 C 175.641 0.900253 -1.86843 0
M  V30 1815 C 176.066 1.74766 -0.695596 0
M  V30 1816 O 175.424 1.77786 0.35522 0
M  V30 1817 C 175.472 1.74777 -3.15413 0
M  V30 1818 O 174.576 2.85007 -2.98068 0
M  V30 1819 H 173.917 0.251832 -0.614391 0
M  V30 1820 H 176.447 0.161468 -2.03962 0
M  V30 1821 H 176.457 2.14646 -3.46974 0
M  V30 1822 H 175.132 1.12537 -4.00385 0
M  V30 1823 H 173.709 2.48676 -2.77875 0
M  V30 1824 N 175.894 1.51508 0.433938 0
M  V30 1825 C 177.122 1.68157 1.20543 0
M  V30 1826 C 177.537 0.380362 1.84929 0
M  V30 1827 O 176.894 -0.641446 1.70856 0
M  V30 1828 C 176.945 2.79965 2.28696 0
M  V30 1829 O 176.666 4.05045 1.66943 0
M  V30 1830 C 178.167 3.07912 3.18912 0
M  V30 1831 H 175.387 0.56421 0.363191 0
M  V30 1832 H 177.931 1.97941 0.513754 0
M  V30 1833 H 176.086 2.5277 2.93574 0
M  V30 1834 H 176.5 4.67165 2.38448 0
M  V30 1835 H 177.974 3.89719 3.90926 0
M  V30 1836 H 178.451 2.20456 3.79863 0
M  V30 1837 H 179.057 3.36779 2.59731 0
M  V30 1838 N 177.372 -0.689602 1.41712 0
M  V30 1839 C 178.597 -1.48329 1.44959 0
M  V30 1840 C 179.022 -1.8801 0.0581283 0
M  V30 1841 O 178.38 -1.55026 -0.940035 0
M  V30 1842 C 178.428 -2.71835 2.36935 0
M  V30 1843 O 177.532 -3.69549 1.8305 0
M  V30 1844 H 176.873 -0.446199 0.491734 0
M  V30 1845 H 179.403 -0.847127 1.86239 0
M  V30 1846 H 179.413 -3.20076 2.53013 0
M  V30 1847 H 178.088 -2.42291 3.38035 0
M  V30 1848 H 176.665 -3.2851 1.76452 0
M  V30 1849 N 178.85 -1.27639 -0.924453 0
M  V30 1850 C 180.098 -1.13941 -1.66918 0
M  V30 1851 C 180.419 0.314589 -1.92446 0
M  V30 1852 O 179.689 1.21964 -1.53303 0
M  V30 1853 H 178.269 -0.418678 -0.618642 0
M  V30 1854 H 180.931 -1.60213 -1.10985 0
M  V30 1855 H 180.027 -1.67094 -2.63602 0
M  V30 1856 N 180.328 1.1314 -1.09713 0
M  V30 1857 C 181.276 2.20717 -0.733934 0
M  V30 1858 C 182.27 1.6729 0.266506 0
M  V30 1859 O 183.476 1.79547 0.127656 0
M  V30 1860 H 179.851 0.719292 -0.21937 0
M  V30 1861 H 181.822 2.48611 -1.6503 0
M  V30 1862 C 180.571 3.47265 -0.173849 0
M  V30 1863 H 179.894 3.88716 -0.934873 0
M  V30 1864 H 181.334 4.23979 0.0423126 0
M  V30 1865 C 179.793 3.18724 1.09164 0
M  V30 1866 O 180.323 3.37762 2.17439 0
M  V30 1867 N 178.529 2.72583 1.00732 0
M  V30 1868 H 178.076 2.57291 0.126121 0
M  V30 1869 H 178.034 2.53862 1.85476 0
M  V30 1870 N 181.806 0.884767 1.30421 0
M  V30 1871 C 183.031 0.517288 2.00845 0
M  V30 1872 C 183.456 -0.886779 1.65885 0
M  V30 1873 O 182.814 -1.58768 0.875354 0
M  V30 1874 C 182.862 0.698994 3.5376 0
M  V30 1875 O 181.966 -0.255208 4.1161 0
M  V30 1876 H 181.307 0.203872 0.631927 0
M  V30 1877 H 183.837 1.19225 1.66272 0
M  V30 1878 H 183.847 0.597912 4.03595 0
M  V30 1879 H 182.522 1.72271 3.78544 0
M  V30 1880 H 181.099 -0.10784 3.72744 0
M  V30 1881 N 183.284 -1.43765 0.645699 0
M  V30 1882 C 184.247 -2.29163 -0.0409488 0
M  V30 1883 C 185.247 -1.41813 -0.757996 0
M  V30 1884 O 186.437 -1.63527 -0.600382 0
M  V30 1885 C 183.569 -3.23716 -1.06869 0
M  V30 1886 H 184.762 -2.91366 0.710345 0
M  V30 1887 H 182.315 -1.5092 0.406547 0
M  V30 1888 H 183.05 -2.66393 -1.84947 0
M  V30 1889 H 182.835 -3.88105 -0.558277 0
M  V30 1890 H 184.325 -3.87831 -1.54845 0
M  V30 1891 N 184.763 -0.387143 -1.52771 0
M  V30 1892 C 185.711 0.463953 -2.27926 0
M  V30 1893 C 186.705 1.06493 -1.31741 0
M  V30 1894 O 187.911 1.00565 -1.49287 0
M  V30 1895 H 184.286 0.16837 -0.732909 0
M  V30 1896 H 186.257 -0.19141 -2.97785 0
M  V30 1897 C 185.006 1.5803 -3.09713 0
M  V30 1898 H 184.329 1.12718 -3.83581 0
M  V30 1899 H 185.769 2.15008 -3.65442 0
M  V30 1900 C 184.228 2.53509 -2.2189 0
M  V30 1901 O 184.758 3.56863 -1.84422 0
M  V30 1902 N 182.964 2.23199 -1.86093 0
M  V30 1903 H 182.511 1.39185 -2.16761 0
M  V30 1904 H 182.469 2.87333 -1.27621 0
M  V30 1905 N 186.241 1.57166 -0.116904 0
M  V30 1906 C 187.487 1.95412 0.542405 0
M  V30 1907 C 187.82 1.00019 1.66463 0
M  V30 1908 O 187.095 0.0370346 1.94465 0
M  V30 1909 C 187.378 3.43615 1.07708 0
M  V30 1910 C 187.231 4.49781 -0.0415868 0
M  V30 1911 C 188.55 3.93616 1.96861 0
M  V30 1912 H 185.669 0.710543 0.195696 0
M  V30 1913 H 188.311 1.89027 -0.192038 0
M  V30 1914 H 186.461 3.49187 1.70296 0
M  V30 1915 H 188.133 4.56308 -0.676793 0
M  V30 1916 H 186.376 4.28033 -0.705019 0
M  V30 1917 H 187.047 5.50733 0.373717 0
M  V30 1918 H 189.523 3.90335 1.44146 0
M  V30 1919 H 188.399 4.97838 2.3119 0
M  V30 1920 H 188.66 3.34188 2.89432 0
M  V30 1921 N 187.719 -0.156864 1.56817 0
M  V30 1922 C 188.968 -0.869504 1.81996 0
M  V30 1923 C 189.281 -1.82777 0.696545 0
M  V30 1924 O 190.487 -2.58384 0.833658 0
M  V30 1925 C 188.943 -1.59679 3.22538 0
M  V30 1926 C 188.551 -0.681431 4.42787 0
M  V30 1927 C 190.295 -2.2968 3.56997 0
M  V30 1928 C 188.202 -1.40978 5.74351 0
M  V30 1929 H 187.132 -0.328438 0.678708 0
M  V30 1930 H 189.783 -0.1223 1.83092 0
M  V30 1931 H 188.165 -2.38927 3.158 0
M  V30 1932 H 189.339 0.0751166 4.60739 0
M  V30 1933 H 187.654 -0.0903431 4.16302 0
M  V30 1934 H 190.251 -2.84794 4.52544 0
M  V30 1935 H 190.594 -3.05707 2.82576 0
M  V30 1936 H 191.127 -1.57361 3.65352 0
M  V30 1937 H 187.866 -0.691561 6.51842 0
M  V30 1938 H 187.386 -2.13929 5.60352 0
M  V30 1939 H 189.065 -1.95337 6.16808 0
M  V30 1940 N 189.197 -1.51736 -0.425897 0
M  V30 1941 C 190.129 -1.70083 -1.53638 0
M  V30 1942 C 191.142 -0.581349 -1.52066 0
M  V30 1943 O 192.331 -0.856017 -1.56635 0
M  V30 1944 C 189.431 -1.71078 -2.9255 0
M  V30 1945 C 188.604 -2.99795 -3.185 0
M  V30 1946 C 187.663 -2.92825 -4.37196 0
M  V30 1947 O 186.689 -3.66756 -4.35291 0
M  V30 1948 N 187.891 -2.0946 -5.41393 0
M  V30 1949 H 190.656 -2.65882 -1.383 0
M  V30 1950 H 188.217 -1.49765 -0.614988 0
M  V30 1951 H 190.209 -1.63969 -3.69995 0
M  V30 1952 H 188.779 -0.828242 -3.01428 0
M  V30 1953 H 187.999 -3.20684 -2.2925 0
M  V30 1954 H 189.287 -3.84977 -3.32671 0
M  V30 1955 H 188.685 -1.48792 -5.45781 0
M  V30 1956 H 187.242 -2.08221 -6.17647 0
M  V30 1957 N 190.675 0.682077 -1.42076 0
M  V30 1958 C 191.638 1.77756 -1.44691 0
M  V30 1959 C 192.638 1.5726 -0.335535 0
M  V30 1960 O 193.828 1.63686 -0.596037 0
M  V30 1961 C 190.96 3.16301 -1.27146 0
M  V30 1962 H 192.153 1.76826 -2.42224 0
M  V30 1963 H 189.706 0.891012 -1.28416 0
M  V30 1964 H 190.441 3.22862 -0.305075 0
M  V30 1965 H 190.226 3.32581 -2.07683 0
M  V30 1966 H 191.716 3.96241 -1.31843 0
M  V30 1967 N 192.153 1.28127 0.917671 0
M  V30 1968 C 193.402 1.14432 1.66097 0
M  V30 1969 C 193.715 -0.307247 1.93172 0
M  V30 1970 O 194.921 -0.565259 2.65551 0
M  V30 1971 C 193.377 2.00015 2.99202 0
M  V30 1972 C 192.985 3.49889 2.79789 0
M  V30 1973 C 194.729 1.94996 3.77064 0
M  V30 1974 C 192.636 4.27636 4.08511 0
M  V30 1975 H 191.566 0.424662 0.62304 0
M  V30 1976 H 194.217 1.52628 1.01868 0
M  V30 1977 H 192.599 1.54672 3.64544 0
M  V30 1978 H 193.773 4.03162 2.23152 0
M  V30 1979 H 192.088 3.56392 2.15345 0
M  V30 1980 H 194.685 2.50354 4.72469 0
M  V30 1981 H 195.028 0.925819 4.05875 0
M  V30 1982 H 195.561 2.38287 3.18534 0
M  V30 1983 H 192.3 5.30615 3.84874 0
M  V30 1984 H 191.82 3.79137 4.64774 0
M  V30 1985 H 193.499 4.37346 4.76799 0
M  V30 1986 N 193.631 -1.12557 1.10312 0
M  V30 1987 C 194.563 -2.17971 0.708625 0
M  V30 1988 C 195.576 -1.60806 -0.254027 0
M  V30 1989 O 196.765 -1.78458 -0.0386891 0
M  V30 1990 C 193.865 -3.38891 0.0248198 0
M  V30 1991 C 193.038 -4.25548 1.01132 0
M  V30 1992 C 192.097 -5.24972 0.35924 0
M  V30 1993 O 191.123 -5.60174 1.00965 0
M  V30 1994 N 192.325 -5.73747 -0.882847 0
M  V30 1995 H 195.09 -2.52427 1.61557 0
M  V30 1996 H 192.651 -1.27967 0.991771 0
M  V30 1997 H 194.643 -4.02485 -0.422852 0
M  V30 1998 H 193.213 -3.02596 -0.784514 0
M  V30 1999 H 192.433 -3.58589 1.6373 0
M  V30 2000 H 193.721 -4.80294 1.67914 0
M  V30 2001 H 193.119 -5.4731 -1.43065 0
M  V30 2002 H 191.676 -6.39234 -1.27369 0
M  V30 2003 N 195.109 -0.891671 -1.2995 0
M  V30 2004 C 196.072 -0.36828 -2.26222 0
M  V30 2005 C 197.072 0.493014 -1.53056 0
M  V30 2006 O 198.262 0.299213 -1.71611 0
M  V30 2007 C 195.394 0.47442 -3.37583 0
M  V30 2008 H 196.587 -1.21844 -2.74033 0
M  V30 2009 H 194.14 -0.669107 -1.41254 0
M  V30 2010 H 194.875 1.34489 -2.95099 0
M  V30 2011 H 194.66 -0.142615 -3.91841 0
M  V30 2012 H 196.15 0.83218 -4.09224 0
M  V30 2013 N 196.587 1.43421 -0.653314 0
M  V30 2014 C 197.55 2.29182 0.0287951 0
M  V30 2015 C 198.55 1.42213 0.750465 0
M  V30 2016 O 199.74 1.63843 0.591701 0
M  V30 2017 C 196.872 3.24278 1.05151 0
M  V30 2018 H 198.065 2.90985 -0.725786 0
M  V30 2019 H 195.618 1.50702 -0.414545 0
M  V30 2020 H 196.353 2.6737 1.83532 0
M  V30 2021 H 196.138 3.88396 0.537687 0
M  V30 2022 H 197.628 3.88647 1.52786 0
M  V30 2023 N 198.065 0.39524 1.52563 0
M  V30 2024 C 199.015 -0.4541 2.23432 0
M  V30 2025 C 199.999 -1.02482 1.24042 0
M  V30 2026 O 201.191 -0.949938 1.49349 0
M  V30 2027 C 198.32 -1.57769 3.049 0
M  V30 2028 C 197.406 -1.01842 4.1169 0
M  V30 2029 N 197.797 -0.184613 5.05463 0
M  V30 2030 C 196.095 -1.29033 4.26927 0
M  V30 2031 C 196.796 0.125013 5.81566 0
M  V30 2032 N 195.772 -0.480498 5.41472 0
M  V30 2033 H 199.574 0.189413 2.93289 0
M  V30 2034 H 197.088 0.204877 1.61102 0
M  V30 2035 H 199.085 -2.19862 3.54212 0
M  V30 2036 H 197.745 -2.22397 2.36579 0
M  V30 2037 H 198.756 0.178602 5.17592 0
M  V30 2038 H 195.433 -1.93721 3.69836 0
M  V30 2039 H 196.823 0.800962 6.67109 0
M  V30 2040 N 199.544 -1.57102 0.125237 0
M  V30 2041 C 200.821 -1.86953 -0.575142 0
M  V30 2042 C 201.201 -1.02749 -1.84407 0
M  V30 2043 O 200.549 -0.108144 -2.28244 0
M  V30 2044 C 200.759 -3.38198 -0.861583 0
M  V30 2045 C 202.107 -4.06937 -1.21192 0
M  V30 2046 O 203.131 -3.43252 -0.951645 0
M  V30 2047 O 201.99 -5.19364 -1.70068 0
M  V30 2048 H 199.084 -0.774147 -0.290906 0
M  V30 2049 H 201.63 -1.68942 0.160211 0
M  V30 2050 H 200.402 -3.91282 0.0373647 0
M  V30 2051 H 200.025 -3.61661 -1.65188 0
M  V30 2052 N 201.022 0.148545 -1.56898 0
M  V30 2053 C 202.438 0.501131 -1.51528 0
M  V30 2054 C 202.638 1.83458 -0.833399 0
M  V30 2055 O 201.694 2.49259 -0.40328 0
M  V30 2056 C 203.007 0.512864 -2.96294 0
M  V30 2057 C 204.555 0.598487 -3.07225 0
M  V30 2058 C 205.03 0.640897 -4.53494 0
M  V30 2059 N 206.521 0.703163 -4.57832 0
M  V30 2060 C 207.256 0.756935 -5.68382 0
M  V30 2061 N 206.752 0.770147 -6.88506 0
M  V30 2062 N 208.545 0.797698 -5.56411 0
M  V30 2063 H 200.696 -0.725532 -1.99624 0
M  V30 2064 H 202.959 -0.264358 -0.910395 0
M  V30 2065 H 202.665 -0.398691 -3.49433 0
M  V30 2066 H 202.539 1.35133 -3.52163 0
M  V30 2067 H 204.926 1.50046 -2.54106 0
M  V30 2068 H 205.007 -0.267093 -2.54402 0
M  V30 2069 H 204.651 -0.256915 -5.0725 0
M  V30 2070 H 204.581 1.52295 -5.04097 0
M  V30 2071 H 207.072 0.700314 -3.71354 0
M  V30 2072 H 207.385 0.812983 -7.68512 0
M  V30 2073 H 205.73 0.738049 -6.9107 0
M  V30 2074 H 208.921 0.784535 -4.61479 0
M  V30 2075 H 209.094 0.83614 -6.42583 0
M  V30 2076 N 202.5 1.5196 0.417844 0
M  V30 2077 C 203.41 1.77554 1.53336 0
M  V30 2078 C 204.426 0.660655 1.6097 0
M  V30 2079 O 205.602 0.945099 1.77848 0
M  V30 2080 C 202.667 1.91291 2.89152 0
M  V30 2081 C 201.728 3.15183 2.91475 0
M  V30 2082 C 200.961 3.28256 4.20813 0
M  V30 2083 O 201.184 2.46798 5.14244 0
M  V30 2084 O 200.118 4.21356 4.29817 0
M  V30 2085 H 203.944 2.7222 1.34647 0
M  V30 2086 H 201.529 1.36698 0.602828 0
M  V30 2087 H 203.411 2.02199 3.69721 0
M  V30 2088 H 202.086 0.998129 3.07927 0
M  V30 2089 H 200.993 3.09739 2.09791 0
M  V30 2090 H 202.326 4.06414 2.77648 0
M  V30 2091 N 203.978 -0.674533 1.42435 0
M  V30 2092 C 204.911 -1.79924 1.40366 0
M  V30 2093 C 205.889 -1.60378 0.267899 0
M  V30 2094 O 207.073 -1.82847 0.458159 0
M  V30 2095 C 204.2 -3.16927 1.19478 0
M  V30 2096 C 203.246 -3.55221 2.36051 0
M  V30 2097 S 204.079 -3.5762 3.98583 0
M  V30 2098 C 205.235 -4.97315 3.80038 0
M  V30 2099 H 205.468 -1.81405 2.35541 0
M  V30 2100 H 203.001 -0.845221 1.29211 0
M  V30 2101 H 204.959 -3.96007 1.08114 0
M  V30 2102 H 203.62 -3.13031 0.258883 0
M  V30 2103 H 202.813 -4.54804 2.17185 0
M  V30 2104 H 202.415 -2.83502 2.43932 0
M  V30 2105 H 204.707 -5.85401 3.41045 0
M  V30 2106 H 205.65 -5.21228 4.79298 0
M  V30 2107 H 206.058 -4.69845 3.12899 0
M  V30 2108 N 205.456 -1.28612 -0.910864 0
M  V30 2109 C 206.386 -1.15326 -2.03032 0
M  V30 2110 C 207.367 -0.0502924 -1.70026 0
M  V30 2111 O 208.552 -0.227797 -1.92859 0
M  V30 2112 C 205.682 -0.817343 -3.37545 0
M  V30 2113 C 204.636 -1.8754 -3.84724 0
M  V30 2114 C 203.962 -1.39305 -5.16235 0
M  V30 2115 C 205.262 -3.28244 -4.06267 0
M  V30 2116 H 206.956 -2.08975 -2.14406 0
M  V30 2117 H 204.502 -1.00612 -1.03021 0
M  V30 2118 H 206.455 -0.711151 -4.15356 0
M  V30 2119 H 205.179 0.154846 -3.26233 0
M  V30 2120 H 203.838 -1.97079 -3.09121 0
M  V30 2121 H 203.486 -0.409846 -5.01328 0
M  V30 2122 H 203.186 -2.10057 -5.48771 0
M  V30 2123 H 204.71 -1.30014 -5.96598 0
M  V30 2124 H 206.124 -3.21611 -4.74594 0
M  V30 2125 H 204.521 -3.96855 -4.5014 0
M  V30 2126 H 205.591 -3.72048 -3.10979 0
M  V30 2127 N 206.934 1.1197 -1.10907 0
M  V30 2128 C 208.18 1.8386 -0.855773 0
M  V30 2129 C 208.513 1.84134 0.617103 0
M  V30 2130 O 207.788 1.29041 1.45529 0
M  V30 2131 C 208.071 3.31305 -1.411 0
M  V30 2132 C 207.924 3.39456 -2.9511 0
M  V30 2133 C 209.243 4.2721 -1.05736 0
M  V30 2134 H 206.362 0.667545 -0.312334 0
M  V30 2135 H 209.004 1.31331 -1.37303 0
M  V30 2136 H 207.154 3.76169 -0.97105 0
M  V30 2137 H 208.826 3.03191 -3.47668 0
M  V30 2138 H 207.069 2.79849 -3.31462 0
M  V30 2139 H 207.74 4.43209 -3.29044 0
M  V30 2140 H 210.216 3.90497 -1.43706 0
M  V30 2141 H 209.092 5.28775 -1.47269 0
M  V30 2142 H 209.353 4.42088 0.0325958 0
M  V30 2143 N 208.412 0.89855 1.29475 0
M  V30 2144 C 209.658 0.524658 1.95896 0
M  V30 2145 C 209.991 -0.926468 1.70676 0
M  V30 2146 O 209.266 -1.65665 1.01908 0
M  V30 2147 C 209.549 0.81633 3.50725 0
M  V30 2148 C 209.402 2.31907 3.85408 0
M  V30 2149 C 210.721 0.302038 4.39062 0
M  V30 2150 H 207.84 0.19209 0.711527 0
M  V30 2151 H 210.482 1.12502 1.53112 0
M  V30 2152 H 208.632 0.305369 3.87298 0
M  V30 2153 H 210.304 2.89949 3.58786 0
M  V30 2154 H 208.547 2.78027 3.32992 0
M  V30 2155 H 209.218 2.47373 4.93468 0
M  V30 2156 H 211.694 0.739551 4.09475 0
M  V30 2157 H 210.57 0.535331 5.46283 0
M  V30 2158 H 210.831 -0.797216 4.34853 0
M  V30 2159 N 209.89 -1.43072 0.660911 0
M  V30 2160 C 210.853 -2.29194 -0.0166406 0
M  V30 2161 C 211.853 -1.42609 -0.742912 0
M  V30 2162 O 213.043 -1.64155 -0.583004 0
M  V30 2163 C 210.175 -3.24831 -1.0343 0
M  V30 2164 H 211.368 -2.90596 0.741208 0
M  V30 2165 H 208.921 -1.5048 0.422532 0
M  V30 2166 H 209.656 -2.68339 -1.82111 0
M  V30 2167 H 209.441 -3.88676 -0.517082 0
M  V30 2168 H 210.931 -3.89451 -1.50723 0
M  V30 2169 N 211.368 -0.403325 -1.52352 0
M  V30 2170 C 212.298 0.416205 -2.29761 0
M  V30 2171 C 213.279 1.05123 -1.33728 0
M  V30 2172 O 214.464 1.06134 -1.62632 0
M  V30 2173 C 211.594 1.53624 -3.11475 0
M  V30 2174 C 210.548 1.02653 -4.15507 0
M  V30 2175 C 209.874 2.23971 -4.85532 0
M  V30 2176 C 211.174 0.08463 -5.22231 0
M  V30 2177 H 212.868 -0.229701 -2.98518 0
M  V30 2178 H 210.414 -0.111913 -1.43564 0
M  V30 2179 H 212.367 2.1165 -3.64393 0
M  V30 2180 H 211.091 2.20994 -2.40477 0
M  V30 2181 H 209.75 0.46871 -3.63591 0
M  V30 2182 H 209.398 2.89883 -4.11068 0
M  V30 2183 H 209.098 1.90521 -5.55856 0
M  V30 2184 H 210.622 2.82614 -5.41259 0
M  V30 2185 H 212.036 0.573509 -5.70424 0
M  V30 2186 H 210.433 -0.160783 -5.99885 0
M  V30 2187 H 211.503 -0.86237 -4.7717 0
M  V30 2188 N 212.846 1.57033 -0.133567 0
M  V30 2189 C 214.074 2.00044 0.528195 0
M  V30 2190 C 214.489 1.01349 1.59291 0
M  V30 2191 O 213.846 0.00848369 1.82498 0
M  V30 2192 C 213.897 3.43018 1.1411 0
M  V30 2193 O 213.618 4.37939 0.11892 0
M  V30 2194 C 215.119 4.01237 1.88477 0
M  V30 2195 H 212.339 0.656517 0.138661 0
M  V30 2196 H 214.883 2.03267 -0.224196 0
M  V30 2197 H 213.038 3.40688 1.84418 0
M  V30 2198 H 213.452 5.21436 0.56613 0
M  V30 2199 H 214.926 5.03314 2.26669 0
M  V30 2200 H 215.403 3.41193 2.76558 0
M  V30 2201 H 216.009 4.07156 1.22898 0
M  V30 2202 N 214.325 -0.140222 1.56975 0
M  V30 2203 C 215.573 -0.850005 1.83356 0
M  V30 2204 C 215.894 -1.81399 0.71551 0
M  V30 2205 O 215.164 -1.94136 -0.262294 0
M  V30 2206 H 213.744 -0.316886 0.676456 0
M  V30 2207 H 216.406 -0.132608 1.94448 0
M  V30 2208 H 215.502 -1.40814 2.78528 0
M  V30 2209 N 215.803 -1.52179 -0.40978 0
M  V30 2210 C 217.219 -1.40968 -0.74835 0
M  V30 2211 C 217.419 -0.513657 -1.94843 0
M  V30 2212 O 216.475 0.0208026 -2.52491 0
M  V30 2213 C 217.788 -2.83483 -1.0029 0
M  V30 2214 C 219.336 -2.92821 -1.10565 0
M  V30 2215 C 219.811 -4.36303 -1.39296 0
M  V30 2216 N 221.302 -4.39535 -1.46162 0
M  V30 2217 C 222.037 -5.47614 -1.70018 0
M  V30 2218 N 221.533 -6.65812 -1.91483 0
M  V30 2219 N 223.326 -5.35129 -1.72027 0
M  V30 2220 H 215.477 -2.0897 0.380186 0
M  V30 2221 H 217.74 -0.94185 0.107805 0
M  V30 2222 H 217.446 -3.51168 -0.193461 0
M  V30 2223 H 217.32 -3.24487 -1.92323 0
M  V30 2224 H 219.707 -2.25318 -1.90568 0
M  V30 2225 H 219.788 -2.55276 -0.16369 0
M  V30 2226 H 219.432 -5.04366 -0.598109 0
M  V30 2227 H 219.362 -4.71385 -2.34743 0
M  V30 2228 H 221.853 -3.54332 -1.31367 0
M  V30 2229 H 222.166 -7.43964 -2.09134 0
M  V30 2230 H 220.511 -6.68879 -1.88749 0
M  V30 2231 H 223.702 -4.41764 -1.54796 0
M  V30 2232 H 223.875 -6.19433 -1.9028 0
M  V30 2233 N 217.281 0.66697 -1.42791 0
M  V30 2234 C 218.558 1.4234 -1.34159 0
M  V30 2235 C 218.938 2.11093 0.0172729 0
M  V30 2236 O 218.286 2.03808 1.03318 0
M  V30 2237 C 218.496 2.41942 -2.51526 0
M  V30 2238 C 219.844 3.06353 -2.93995 0
M  V30 2239 O 220.868 2.52269 -2.51473 0
M  V30 2240 O 219.727 4.04376 -3.67617 0
M  V30 2241 H 216.821 0.635277 -0.529483 0
M  V30 2242 H 219.367 0.695034 -1.54814 0
M  V30 2243 H 218.139 1.89991 -3.42081 0
M  V30 2244 H 217.762 3.22249 -2.32898 0
M  V30 2245 N 218.759 1.29093 0.90403 0
M  V30 2246 C 220.007 1.16583 1.65085 0
M  V30 2247 C 220.328 -0.283933 1.92922 0
M  V30 2248 O 219.598 -1.19509 1.55224 0
M  V30 2249 H 218.178 0.428467 0.611903 0
M  V30 2250 H 220.84 1.61959 1.08422 0
M  V30 2251 H 219.936 1.71266 2.6091 0
M  V30 2252 N 220.237 -1.11381 1.11499 0
M  V30 2253 C 221.485 -1.8277 0.862524 0
M  V30 2254 C 221.806 -1.85097 -0.613534 0
M  V30 2255 O 221.076 -1.32198 -1.4457 0
M  V30 2256 H 219.656 -0.676823 0.316101 0
M  V30 2257 H 222.318 -1.34816 1.4075 0
M  V30 2258 H 221.414 -2.86614 1.23527 0
M  V30 2259 N 221.715 -0.905404 -1.28997 0
M  V30 2260 C 222.963 -0.533192 -1.9494 0
M  V30 2261 C 223.284 0.924618 -1.71685 0
M  V30 2262 O 222.554 1.65268 -1.05183 0
M  V30 2263 H 221.134 -0.194194 -0.721317 0
M  V30 2264 H 223.796 -1.15294 -1.57141 0
M  V30 2265 H 222.892 -0.72059 -3.03667 0
M  V30 2266 N 223.193 1.4272 -0.668489 0
M  V30 2267 C 224.126 2.28111 0.0637898 0
M  V30 2268 C 225.104 1.40705 0.814912 0
M  V30 2269 O 226.288 1.70146 0.81134 0
M  V30 2270 C 223.415 3.20429 1.0974 0
M  V30 2271 C 222.461 4.24197 0.442579 0
M  V30 2272 S 223.294 5.29563 -0.795173 0
M  V30 2273 C 224.45 6.25449 0.237516 0
M  V30 2274 H 224.683 2.8987 -0.660521 0
M  V30 2275 H 222.216 1.47456 -0.457821 0
M  V30 2276 H 224.174 3.74158 1.68868 0
M  V30 2277 H 222.835 2.57818 1.79411 0
M  V30 2278 H 222.028 4.88954 1.22227 0
M  V30 2279 H 221.63 3.73925 -0.0749554 0
M  V30 2280 H 223.922 6.68524 1.09915 0
M  V30 2281 H 224.865 7.07104 -0.375421 0
M  V30 2282 H 225.273 5.61511 0.580167 0
M  V30 2283 N 224.671 0.411399 1.52136 0
M  V30 2284 C 225.634 -0.401089 2.25663 0
M  V30 2285 C 226.634 -0.971732 1.28117 0
M  V30 2286 O 227.824 -0.850254 1.52041 0
M  V30 2287 C 224.956 -1.56483 3.02863 0
M  V30 2288 H 226.149 0.24295 2.98914 0
M  V30 2289 H 223.702 0.163968 1.55438 0
M  V30 2290 H 224.437 -2.24567 2.33967 0
M  V30 2291 H 224.222 -1.16211 3.74483 0
M  V30 2292 H 225.712 -2.13951 3.58629 0
M  V30 2293 N 226.149 -1.5696 0.141893 0
M  V30 2294 C 227.374 -2.00754 -0.520838 0
M  V30 2295 C 227.799 -1.0213 -1.57959 0
M  V30 2296 O 227.157 0.00371324 -1.813 0
M  V30 2297 C 227.205 -3.43318 -1.10294 0
M  V30 2298 O 226.309 -3.47679 -2.21795 0
M  V30 2299 H 225.65 -0.651564 -0.127908 0
M  V30 2300 H 228.18 -2.03221 0.23712 0
M  V30 2301 H 228.19 -3.82012 -1.43287 0
M  V30 2302 H 226.865 -4.14608 -0.327574 0
M  V30 2303 H 225.442 -3.20824 -1.9007 0
M  V30 2304 N 227.627 0.131896 -1.57047 0
M  V30 2305 C 228.557 1.16384 -2.02428 0
M  V30 2306 C 229.538 1.43936 -0.90644 0
M  V30 2307 O 230.723 1.54599 -1.17528 0
M  V30 2308 C 227.853 2.49328 -2.4177 0
M  V30 2309 C 226.807 2.36266 -3.56879 0
M  V30 2310 C 226.133 3.74057 -3.8208 0
M  V30 2311 C 227.433 1.834 -4.89042 0
M  V30 2312 H 229.127 0.786433 -2.88887 0
M  V30 2313 H 226.673 0.376855 -1.38981 0
M  V30 2314 H 228.626 3.21759 -2.7212 0
M  V30 2315 H 227.35 2.88934 -1.52266 0
M  V30 2316 H 226.009 1.66286 -3.26718 0
M  V30 2317 H 225.657 4.11125 -2.89803 0
M  V30 2318 H 225.357 3.66174 -4.59554 0
M  V30 2319 H 226.881 4.48012 -4.1487 0
M  V30 2320 H 228.295 2.45636 -5.18011 0
M  V30 2321 H 226.692 1.8637 -5.70426 0
M  V30 2322 H 227.762 0.790662 -4.7841 0
M  V30 2323 N 229.106 1.52395 0.401703 0
M  V30 2324 C 230.036 1.79231 1.49661 0
M  V30 2325 C 231.017 0.643654 1.57452 0
M  V30 2326 O 232.202 0.889989 1.72606 0
M  V30 2327 C 229.332 1.94971 2.87409 0
M  V30 2328 C 228.286 3.10604 2.94465 0
M  V30 2329 C 227.612 3.11577 4.34538 0
M  V30 2330 C 228.912 4.49921 2.6527 0
M  V30 2331 H 230.606 2.70917 1.27454 0
M  V30 2332 H 228.152 1.30362 0.6117 0
M  V30 2333 H 230.105 2.12328 3.63999 0
M  V30 2334 H 228.829 0.999632 3.10926 0
M  V30 2335 H 227.488 2.93009 2.20321 0
M  V30 2336 H 227.136 2.14277 4.55076 0
M  V30 2337 H 226.836 3.89247 4.40183 0
M  V30 2338 H 228.36 3.31073 5.13053 0
M  V30 2339 H 229.774 4.67683 3.31581 0
M  V30 2340 H 228.171 5.29564 2.82281 0
M  V30 2341 H 229.241 4.57507 1.60671 0
M  V30 2342 N 230.584 -0.659388 1.43143 0
M  V30 2343 C 231.514 -1.78422 1.50625 0
M  V30 2344 C 232.495 -1.66216 0.361443 0
M  V30 2345 O 233.68 -1.85404 0.577834 0
M  V30 2346 C 230.81 -3.16815 1.42287 0
M  V30 2347 C 229.764 -3.43777 2.54954 0
M  V30 2348 C 229.09 -4.81905 2.31671 0
M  V30 2349 C 230.39 -3.39134 3.97222 0
M  V30 2350 H 232.084 -1.72417 2.44771 0
M  V30 2351 H 229.63 -0.828084 1.17808 0
M  V30 2352 H 231.583 -3.95253 1.46127 0
M  V30 2353 H 230.307 -3.23534 0.446435 0
M  V30 2354 H 228.966 -2.67707 2.50457 0
M  V30 2355 H 228.614 -4.85294 1.32284 0
M  V30 2356 H 228.314 -5.00906 3.07192 0
M  V30 2357 H 229.838 -5.62609 2.37284 0
M  V30 2358 H 231.252 -4.07518 4.03239 0
M  V30 2359 H 229.649 -3.69671 4.72719 0
M  V30 2360 H 230.719 -2.37426 4.22797 0
M  V30 2361 N 232.062 -1.29571 -0.897171 0
M  V30 2362 C 233.473 -1.15964 -1.46319 0
M  V30 2363 C 233.824 0.244267 -1.94674 0
M  V30 2364 O 232.949 1.13998 -1.83939 0
M  V30 2365 C 233.544 -2.09906 -2.65942 0
M  V30 2366 C 232.103 -2.00314 -3.18671 0
M  V30 2367 C 231.25 -2.00687 -1.91363 0
M  V30 2368 H 234.201 -1.42019 -0.708268 0
M  V30 2369 H 234.222 -1.67276 -3.41759 0
M  V30 2370 H 233.734 -3.12075 -2.30718 0
M  V30 2371 H 231.835 -1.01242 -3.58582 0
M  V30 2372 H 231.948 -2.88102 -3.82798 0
M  V30 2373 H 230.312 -1.45319 -2.09175 0
M  V30 2374 H 231.095 -3.04566 -1.58413 0
M  V30 2375 N 233.54 1.10788 -1.12088 0
M  V30 2376 C 234.45 2.20599 -0.798338 0
M  V30 2377 C 235.466 1.72712 0.21135 0
M  V30 2378 O 236.642 2.01348 0.0458477 0
M  V30 2379 C 233.707 3.45771 -0.253674 0
M  V30 2380 C 232.768 4.08411 -1.32283 0
M  V30 2381 C 232.001 5.27608 -0.80406 0
M  V30 2382 O 232.224 5.69241 0.363478 0
M  V30 2383 O 231.158 5.8101 -1.57198 0
M  V30 2384 H 234.984 2.50614 -1.7154 0
M  V30 2385 H 232.569 1.19454 -0.897275 0
M  V30 2386 H 234.451 4.21376 0.0453691 0
M  V30 2387 H 233.126 3.1739 0.636005 0
M  V30 2388 H 232.033 3.34507 -1.67499 0
M  V30 2389 H 233.366 4.40986 -2.18614 0
M  V30 2390 N 235.018 0.912232 1.28515 0
M  V30 2391 C 236.295 0.463597 1.90027 0
M  V30 2392 C 236.675 -1.05753 1.82701 0
M  V30 2393 O 236.023 -1.90492 1.26194 0
M  V30 2394 C 236.233 0.992253 3.34597 0
M  V30 2395 C 237.581 1.04344 4.11579 0
M  V30 2396 O 238.605 0.94079 3.43551 0
M  V30 2397 O 237.464 1.1995 5.33174 0
M  V30 2398 H 234.558 0.146666 0.813891 0
M  V30 2399 H 237.104 1.00292 1.36893 0
M  V30 2400 H 235.876 2.03623 3.34146 0
M  V30 2401 H 235.499 0.433672 3.95228 0
M  V30 2402 N 236.496 -1.42363 0.676048 0
M  V30 2403 C 237.742 -2.0182 0.199125 0
M  V30 2404 C 238.075 -1.53339 -1.19168 0
M  V30 2405 O 237.35 -0.736124 -1.80032 0
M  V30 2406 C 237.633 -3.59331 0.235144 0
M  V30 2407 C 237.486 -4.17989 1.66149 0
M  V30 2408 C 238.805 -4.3813 -0.41595 0
M  V30 2409 H 235.924 -0.733293 0.0738311 0
M  V30 2410 H 238.566 -1.69368 0.86107 0
M  V30 2411 H 236.716 -3.87109 -0.328487 0
M  V30 2412 H 238.388 -4.0116 2.27747 0
M  V30 2413 H 236.631 -3.7377 2.20178 0
M  V30 2414 H 237.302 -5.27126 1.63837 0
M  V30 2415 H 239.778 -4.16051 0.0638529 0
M  V30 2416 H 238.654 -5.47717 -0.360115 0
M  V30 2417 H 238.915 -4.16101 -1.49373 0
M  V30 2418 N 237.974 -0.419461 -1.51915 0
M  V30 2419 C 238.884 0.407528 -2.31033 0
M  V30 2420 C 239.9 1.04413 -1.3919 0
M  V30 2421 O 241.076 1.0434 -1.72265 0
M  V30 2422 C 238.141 1.50365 -3.12396 0
M  V30 2423 C 237.202 0.889029 -4.19994 0
M  V30 2424 C 236.435 1.93291 -4.97468 0
M  V30 2425 O 236.658 3.15259 -4.75361 0
M  V30 2426 O 235.592 1.53339 -5.8204 0
M  V30 2427 H 239.418 -0.237865 -3.02767 0
M  V30 2428 H 237.003 -0.182413 -1.48282 0
M  V30 2429 H 238.885 2.13975 -3.63032 0
M  V30 2430 H 237.56 2.13345 -2.43445 0
M  V30 2431 H 236.467 0.215353 -3.7348 0
M  V30 2432 H 237.8 0.302991 -4.91267 0
M  V30 2433 N 239.452 1.56882 -0.150215 0
M  V30 2434 C 240.701 1.95403 0.500071 0
M  V30 2435 C 241.014 1.03777 1.658 0
M  V30 2436 O 242.22 1.31889 2.37313 0
M  V30 2437 C 240.676 3.4738 0.941018 0
M  V30 2438 C 240.284 4.47596 -0.190158 0
M  V30 2439 C 242.028 3.9476 1.56091 0
M  V30 2440 C 239.935 5.90787 0.269237 0
M  V30 2441 H 238.865 0.729515 0.190588 0
M  V30 2442 H 241.516 1.81988 -0.235074 0
M  V30 2443 H 239.898 3.56138 1.73152 0
M  V30 2444 H 241.072 4.50536 -0.967157 0
M  V30 2445 H 239.387 4.10151 -0.718666 0
M  V30 2446 H 241.984 4.99181 1.9163 0
M  V30 2447 H 242.327 3.36494 2.45107 0
M  V30 2448 H 242.86 3.88932 0.835249 0
M  V30 2449 H 239.599 6.52879 -0.585621 0
M  V30 2450 H 239.119 5.912 1.01204 0
M  V30 2451 H 240.798 6.42979 0.720176 0
M  V30 2452 N 240.93 -0.123565 1.57115 0
M  V30 2453 C 242.346 -0.476961 1.52306 0
M  V30 2454 C 242.546 -1.82109 0.86248 0
M  V30 2455 O 241.602 -2.48586 0.442884 0
M  V30 2456 C 242.915 -0.465661 2.97073 0
M  V30 2457 C 244.463 -0.549534 3.08138 0
M  V30 2458 C 244.938 -0.568669 4.54456 0
M  V30 2459 N 246.429 -0.630237 4.58892 0
M  V30 2460 C 247.164 -0.666415 5.69514 0
M  V30 2461 N 246.66 -0.660514 6.89644 0
M  V30 2462 N 248.453 -0.709077 5.5761 0
M  V30 2463 H 240.604 0.757198 1.98445 0
M  V30 2464 H 242.867 0.278808 0.906074 0
M  V30 2465 H 242.573 0.454232 3.48754 0
M  V30 2466 H 242.447 -1.29513 3.54269 0
M  V30 2467 H 244.834 -1.45985 2.56461 0
M  V30 2468 H 244.915 0.307532 2.53945 0
M  V30 2469 H 244.559 0.337581 5.06777 0
M  V30 2470 H 244.489 -1.44256 5.06456 0
M  V30 2471 H 246.98 -0.641146 3.72421 0
M  V30 2472 H 247.293 -0.690616 7.69708 0
M  V30 2473 H 245.638 -0.628012 6.92157 0
M  V30 2474 H 248.829 -0.711019 4.62668 0
M  V30 2475 H 249.002 -0.733804 6.43832 0
M  V30 2476 N 242.408 -1.52605 -0.393616 0
M  V30 2477 C 243.654 -1.67672 -1.14079 0
M  V30 2478 C 243.987 -0.413121 -1.89755 0
M  V30 2479 O 243.262 0.588952 -1.85369 0
M  V30 2480 C 243.545 -2.9088 -2.12276 0
M  V30 2481 C 243.398 -4.27329 -1.40394 0
M  V30 2482 C 244.717 -3.09628 -3.12759 0
M  V30 2483 H 241.836 -0.610168 -0.413356 0
M  V30 2484 H 244.478 -1.85193 -0.424696 0
M  V30 2485 H 242.628 -2.76073 -2.73342 0
M  V30 2486 H 244.3 -4.53894 -0.82327 0
M  V30 2487 H 242.543 -4.2802 -0.705801 0
M  V30 2488 H 243.214 -5.09615 -2.12123 0
M  V30 2489 H 245.69 -3.23436 -2.61779 0
M  V30 2490 H 244.566 -3.97322 -3.78717 0
M  V30 2491 H 244.827 -2.23637 -3.81365 0
M  V30 2492 N 243.887 0.651787 -1.4349 0
M  V30 2493 C 245.298 1.233 -1.40193 0
M  V30 2494 C 245.649 1.9591 -0.106727 0
M  V30 2495 O 244.774 2.01316 0.793773 0
M  V30 2496 C 245.369 2.24257 -2.53957 0
M  V30 2497 C 243.928 2.77852 -2.5392 0
M  V30 2498 C 243.075 1.52517 -2.3159 0
M  V30 2499 H 246.026 0.443717 -1.52371 0
M  V30 2500 H 246.047 3.0646 -2.25528 0
M  V30 2501 H 245.559 1.71382 -3.4821 0
M  V30 2502 H 243.66 3.34786 -1.63551 0
M  V30 2503 H 243.773 3.25299 -3.51735 0
M  V30 2504 H 242.137 1.79915 -1.80285 0
M  V30 2505 H 242.92 1.01574 -3.27929 0
M  V30 2506 N 245.365 1.30045 0.890287 0
M  V30 2507 C 246.59 1.21598 1.68014 0
M  V30 2508 C 247.015 -0.218678 1.86825 0
M  V30 2509 O 246.373 -1.15756 1.39536 0
M  V30 2510 C 246.421 1.94434 3.03691 0
M  V30 2511 O 245.525 1.2678 3.92429 0
M  V30 2512 H 244.866 0.420856 0.513592 0
M  V30 2513 H 247.396 1.71775 1.11151 0
M  V30 2514 H 247.406 2.03251 3.5377 0
M  V30 2515 H 246.081 2.98777 2.89318 0
M  V30 2516 H 244.658 1.26282 3.50866 0
M  V30 2517 N 246.843 -1.10192 1.12674 0
M  V30 2518 C 247.79 -2.16606 0.796906 0
M  V30 2519 C 248.76 -1.64394 -0.237476 0
M  V30 2520 O 249.945 -1.90474 -0.111484 0
M  V30 2521 C 247.085 -3.44116 0.26043 0
M  V30 2522 C 246.198 -4.10268 1.35293 0
M  V30 2523 C 245.333 -5.25507 0.775621 0
M  V30 2524 C 244.372 -5.83567 1.84706 0
M  V30 2525 N 243.509 -6.90179 1.28829 0
M  V30 2526 H 248.349 -2.44163 1.70846 0
M  V30 2527 H 245.886 -1.19846 0.85295 0
M  V30 2528 H 247.844 -4.17143 -0.0686814 0
M  V30 2529 H 246.474 -3.16901 -0.614274 0
M  V30 2530 H 245.526 -3.35184 1.79877 0
M  V30 2531 H 246.838 -4.4946 2.16303 0
M  V30 2532 H 245.992 -6.05398 0.397327 0
M  V30 2533 H 244.731 -4.87656 -0.0656581 0
M  V30 2534 H 243.736 -5.02344 2.23452 0
M  V30 2535 H 244.961 -6.23482 2.69161 0
M  V30 2536 H 242.907 -6.54322 0.468881 0
M  V30 2537 H 242.824 -7.28097 2.03497 0
M  V30 2538 H 244.092 -7.73844 0.937311 0
M  V30 2539 N 248.321 -0.919034 -1.28029 0
M  V30 2540 C 249.57 -0.550802 -1.94034 0
M  V30 2541 C 249.883 0.910877 -1.73096 0
M  V30 2542 O 251.089 1.3875 -2.33368 0
M  V30 2543 C 249.545 -0.934249 -3.47563 0
M  V30 2544 C 249.153 -2.41602 -3.7727 0
M  V30 2545 C 250.897 -0.636854 -4.19696 0
M  V30 2546 C 248.804 -2.73932 -5.24133 0
M  V30 2547 H 247.734 -0.202273 -0.726362 0
M  V30 2548 H 250.385 -1.11867 -1.45458 0
M  V30 2549 H 248.767 -0.295115 -3.94899 0
M  V30 2550 H 249.941 -3.10233 -3.40723 0
M  V30 2551 H 248.256 -2.68441 -3.18321 0
M  V30 2552 H 250.853 -0.855005 -5.2782 0
M  V30 2553 H 251.196 0.425575 -4.14119 0
M  V30 2554 H 251.729 -1.23469 -3.78154 0
M  V30 2555 H 248.468 -3.79049 -5.34792 0
M  V30 2556 H 247.988 -2.09942 -5.61858 0
M  V30 2557 H 249.667 -2.61215 -5.91925 0
M  V30 2558 N 249.799 1.42003 -0.683588 0
M  V30 2559 C 251.027 2.05746 -0.218182 0
M  V30 2560 C 251.442 1.51396 1.12804 0
M  V30 2561 O 250.799 0.657303 1.70252 0
M  V30 2562 C 250.85 3.61171 -0.154131 0
M  V30 2563 O 250.571 4.13508 -1.44716 0
M  V30 2564 C 252.072 4.42042 0.333713 0
M  V30 2565 H 249.292 0.662888 -0.10402 0
M  V30 2566 H 251.836 1.81987 -0.9328 0
M  V30 2567 H 249.991 3.84012 0.511231 0
M  V30 2568 H 250.405 5.07453 -1.32632 0
M  V30 2569 H 251.879 5.51028 0.327423 0
M  V30 2570 H 252.356 4.17269 1.37053 0
M  V30 2571 H 252.962 4.24239 -0.300222 0
M  V30 2572 N 251.277 0.427512 1.51691 0
M  V30 2573 C 252.24 -0.377132 2.26076 0
M  V30 2574 C 253.24 -0.958089 1.29141 0
M  V30 2575 O 254.43 -0.83408 1.52934 0
M  V30 2576 C 251.562 -1.53262 3.04506 0
M  V30 2577 H 252.755 0.27464 2.9864 0
M  V30 2578 H 250.308 0.180445 1.55255 0
M  V30 2579 H 251.043 -2.22072 2.36335 0
M  V30 2580 H 250.828 -1.12232 3.75694 0
M  V30 2581 H 252.318 -2.10135 3.60878 0
M  V30 2582 N 252.755 -1.56801 0.158532 0
M  V30 2583 C 254.171 -1.5837 -0.197774 0
M  V30 2584 C 254.371 -1.17334 -1.63814 0
M  V30 2585 O 253.427 -0.878988 -2.36707 0
M  V30 2586 C 254.74 -3.00615 0.0714459 0
M  V30 2587 C 256.288 -3.12999 0.00864533 0
M  V30 2588 C 256.763 -4.57313 0.250685 0
M  V30 2589 N 258.254 -4.62777 0.198014 0
M  V30 2590 C 258.989 -5.72271 0.359642 0
M  V30 2591 N 258.485 -6.90371 0.579625 0
M  V30 2592 N 260.278 -5.61318 0.296438 0
M  V30 2593 H 252.429 -1.81765 1.09887 0
M  V30 2594 H 254.692 -0.841849 0.435884 0
M  V30 2595 H 254.398 -3.35068 1.06874 0
M  V30 2596 H 254.272 -3.71683 -0.642757 0
M  V30 2597 H 256.659 -2.7838 -0.979217 0
M  V30 2598 H 256.74 -2.44393 0.755359 0
M  V30 2599 H 256.384 -4.92639 1.2357 0
M  V30 2600 H 256.314 -5.24061 -0.516489 0
M  V30 2601 H 258.805 -3.77885 0.0331115 0
M  V30 2602 H 259.118 -7.69689 0.69275 0
M  V30 2603 H 257.463 -6.92264 0.616087 0
M  V30 2604 H 260.654 -4.67932 0.125258 0
M  V30 2605 H 260.827 -6.46599 0.425831 0
M  V30 2606 N 254.233 0.115231 -1.57178 0
M  V30 2607 C 255.482 0.820945 -1.84237 0
M  V30 2608 C 255.795 1.80866 -0.744761 0
M  V30 2609 O 257.001 2.56083 -0.901871 0
M  V30 2610 C 255.457 1.51072 -3.26658 0
M  V30 2611 C 255.065 0.563795 -4.44438 0
M  V30 2612 C 256.809 2.20134 -3.62962 0
M  V30 2613 C 254.716 1.25701 -5.77887 0
M  V30 2614 H 253.646 0.310328 -0.687177 0
M  V30 2615 H 256.297 0.0737134 -1.83352 0
M  V30 2616 H 254.679 2.30471 -3.22024 0
M  V30 2617 H 255.853 -0.197247 -4.60378 0
M  V30 2618 H 254.168 -0.0200638 -4.16395 0
M  V30 2619 H 256.765 2.72696 -4.59936 0
M  V30 2620 H 257.108 2.98107 -2.90582 0
M  V30 2621 H 257.641 1.47619 -3.69396 0
M  V30 2622 H 254.38 0.518493 -6.53446 0
M  V30 2623 H 253.9 1.98997 -5.65827 0
M  V30 2624 H 255.579 1.78915 -6.2177 0
M  V30 2625 N 255.711 1.52812 0.385517 0
M  V30 2626 C 256.643 1.74096 1.49074 0
M  V30 2627 C 257.656 0.621462 1.50472 0
M  V30 2628 O 258.845 0.897245 1.54311 0
M  V30 2629 C 255.945 1.78774 2.87911 0
M  V30 2630 C 255.118 3.08134 3.10439 0
M  V30 2631 C 254.177 3.04313 4.29278 0
M  V30 2632 O 253.203 3.78168 4.25415 0
M  V30 2633 N 254.405 2.23741 5.35649 0
M  V30 2634 H 257.17 2.69455 1.31202 0
M  V30 2635 H 254.731 1.51343 0.575065 0
M  V30 2636 H 256.723 1.73721 3.65518 0
M  V30 2637 H 255.293 0.907869 2.99126 0
M  V30 2638 H 254.513 3.26649 2.20667 0
M  V30 2639 H 255.801 3.93662 3.22347 0
M  V30 2640 H 255.199 1.63211 5.41645 0
M  V30 2641 H 253.756 2.24524 6.11909 0
M  V30 2642 N 257.189 -0.644168 1.43834 0
M  V30 2643 C 258.099 -1.78563 1.52159 0
M  V30 2644 C 259.115 -1.69147 0.408069 0
M  V30 2645 O 260.291 -1.90156 0.663524 0
M  V30 2646 C 257.356 -3.14888 1.45073 0
M  V30 2647 C 256.417 -3.36034 2.6717 0
M  V30 2648 C 255.65 -4.65855 2.60413 0
M  V30 2649 O 255.873 -5.45805 1.65689 0
M  V30 2650 O 254.807 -4.88918 3.5106 0
M  V30 2651 H 258.633 -1.74494 2.48567 0
M  V30 2652 H 256.218 -0.80378 1.25935 0
M  V30 2653 H 258.1 -3.96179 1.43597 0
M  V30 2654 H 256.775 -3.19528 0.518037 0
M  V30 2655 H 255.682 -2.54472 2.74217 0
M  V30 2656 H 257.015 -3.36247 3.59442 0
M  V30 2657 N 258.668 -1.30515 -0.883378 0
M  V30 2658 C 259.914 -1.19607 -1.63774 0
M  V30 2659 C 260.247 0.248314 -1.92606 0
M  V30 2660 O 259.522 1.17742 -1.54813 0
M  V30 2661 C 259.805 -2.02669 -2.97653 0
M  V30 2662 C 259.658 -3.55335 -2.75784 0
M  V30 2663 C 260.977 -1.86573 -3.98596 0
M  V30 2664 H 258.096 -0.435856 -0.594305 0
M  V30 2665 H 260.738 -1.60165 -1.02212 0
M  V30 2666 H 258.888 -1.68208 -3.50197 0
M  V30 2667 H 260.56 -3.99863 -2.30016 0
M  V30 2668 H 258.803 -3.79438 -2.1026 0
M  V30 2669 H 259.474 -4.08745 -3.70988 0
M  V30 2670 H 261.95 -2.16703 -3.55217 0
M  V30 2671 H 260.826 -2.47014 -4.90179 0
M  V30 2672 H 261.087 -0.825321 -4.34328 0
M  V30 2673 N 260.146 1.09593 -1.13257 0
M  V30 2674 C 261.096 2.14345 -0.777179 0
M  V30 2675 C 262.08 1.59277 0.227966 0
M  V30 2676 O 263.272 1.76971 0.0321413 0
M  V30 2677 C 260.401 3.42439 -0.242991 0
M  V30 2678 C 259.487 4.04419 -1.27694 0
M  V30 2679 N 259.878 4.40979 -2.47732 0
M  V30 2680 C 258.176 4.31596 -1.12432 0
M  V30 2681 C 258.877 4.89784 -3.13826 0
M  V30 2682 N 257.853 4.87133 -2.41252 0
M  V30 2683 H 261.655 2.40415 -1.69049 0
M  V30 2684 H 259.169 1.26803 -1.01463 0
M  V30 2685 H 261.166 4.16889 0.0298496 0
M  V30 2686 H 259.826 3.17824 0.66467 0
M  V30 2687 H 260.837 4.32396 -2.85051 0
M  V30 2688 H 257.514 4.16595 -0.274684 0
M  V30 2689 H 258.904 5.2755 -4.16102 0
M  V30 2690 N 261.624 0.925811 1.2754 0
M  V30 2691 C 262.554 0.440748 2.29303 0
M  V30 2692 C 263.535 -0.497971 1.62648 0
M  V30 2693 O 264.72 -0.403126 1.8997 0
M  V30 2694 C 261.85 -0.309048 3.45922 0
M  V30 2695 C 260.804 0.54166 4.24559 0
M  V30 2696 C 260.13 -0.337191 5.33636 0
M  V30 2697 C 261.43 1.80516 4.90114 0
M  V30 2698 H 263.124 1.29121 2.70126 0
M  V30 2699 H 260.67 0.622323 1.29858 0
M  V30 2700 H 262.623 -0.659315 4.1621 0
M  V30 2701 H 261.347 -1.19352 3.04011 0
M  V30 2702 H 260.006 0.874609 3.56014 0
M  V30 2703 H 259.654 -1.22056 4.87966 0
M  V30 2704 H 259.354 0.228497 5.87156 0
M  V30 2705 H 260.878 -0.683072 6.06767 0
M  V30 2706 H 262.292 1.52307 5.52698 0
M  V30 2707 H 260.689 2.3142 5.53683 0
M  V30 2708 H 261.759 2.52581 4.13921 0
M  V30 2709 N 263.102 -1.41638 0.69111 0
M  V30 2710 C 264.032 -2.3347 0.037248 0
M  V30 2711 C 265.013 -1.51575 -0.771947 0
M  V30 2712 O 266.198 -1.80126 -0.72582 0
M  V30 2713 C 263.328 -3.35354 -0.903064 0
M  V30 2714 C 262.282 -4.27526 -0.201288 0
M  V30 2715 C 261.608 -5.19747 -1.25565 0
M  V30 2716 C 262.908 -5.13959 0.929689 0
M  V30 2717 H 264.602 -2.88397 0.804227 0
M  V30 2718 H 262.148 -1.38669 0.388189 0
M  V30 2719 H 264.101 -3.98519 -1.36969 0
M  V30 2720 H 262.825 -2.78767 -1.70166 0
M  V30 2721 H 261.484 -3.65779 0.245265 0
M  V30 2722 H 261.132 -4.59479 -2.04666 0
M  V30 2723 H 260.832 -5.8225 -0.791128 0
M  V30 2724 H 262.356 -5.85789 -1.72288 0
M  V30 2725 H 263.77 -5.70718 0.543546 0
M  V30 2726 H 262.167 -5.85379 1.32103 0
M  V30 2727 H 263.237 -4.51389 1.77133 0
M  V30 2728 N 264.58 -0.43555 -1.51462 0
M  V30 2729 C 265.543 0.365137 -2.26273 0
M  V30 2730 C 266.543 0.951227 -1.29647 0
M  V30 2731 O 267.733 0.825958 -1.53374 0
M  V30 2732 C 264.865 1.51645 -3.05314 0
M  V30 2733 H 266.058 -0.290474 -2.9849 0
M  V30 2734 H 263.611 -0.188676 -1.55157 0
M  V30 2735 H 264.346 2.20816 -2.3751 0
M  V30 2736 H 264.131 1.10238 -3.76284 0
M  V30 2737 H 265.621 2.08218 -3.61987 0
M  V30 2738 N 266.058 1.56714 -0.166846 0
M  V30 2739 C 267.307 1.95922 0.479318 0
M  V30 2740 C 267.62 1.05529 1.6469 0
M  V30 2741 O 268.826 1.34399 2.35901 0
M  V30 2742 C 267.282 3.48359 0.90412 0
M  V30 2743 C 266.89 4.47369 -0.237621 0
M  V30 2744 C 268.634 3.96394 1.51896 0
M  V30 2745 C 266.541 5.91039 0.206561 0
M  V30 2746 H 265.471 0.731495 0.18284 0
M  V30 2747 H 268.122 1.81728 -0.254363 0
M  V30 2748 H 266.504 3.57955 1.69365 0
M  V30 2749 H 267.678 4.49485 -1.01489 0
M  V30 2750 H 265.993 4.09366 -0.762128 0
M  V30 2751 H 268.59 5.01186 1.86325 0
M  V30 2752 H 268.933 3.39075 2.41524 0
M  V30 2753 H 269.466 3.89796 0.79395 0
M  V30 2754 H 266.205 6.52221 -0.654834 0
M  V30 2755 H 265.725 5.9224 0.949282 0
M  V30 2756 H 267.404 6.43707 0.651939 0
M  V30 2757 N 267.536 -0.106894 1.57237 0
M  V30 2758 C 268.486 -1.1366 1.9765 0
M  V30 2759 C 269.47 -1.36416 0.853203 0
M  V30 2760 O 270.662 -1.37305 1.11697 0
M  V30 2761 C 267.791 -2.46 2.39455 0
M  V30 2762 C 266.877 -2.26668 3.58445 0
M  V30 2763 N 267.268 -1.77176 4.73754 0
M  V30 2764 C 265.566 -2.57279 3.64312 0
M  V30 2765 C 266.267 -1.71836 5.5574 0
M  V30 2766 N 265.243 -2.16623 4.98573 0
M  V30 2767 H 269.045 -0.74669 2.84256 0
M  V30 2768 H 266.559 -0.314483 1.59326 0
M  V30 2769 H 268.556 -3.2049 2.6663 0
M  V30 2770 H 267.216 -2.85738 1.54219 0
M  V30 2771 H 268.227 -1.46545 4.96734 0
M  V30 2772 H 264.904 -3.00622 2.89711 0
M  V30 2773 H 266.294 -1.34723 6.58255 0
M  V30 2774 N 269.014 -1.53014 -0.377408 0
M  V30 2775 C 270.254 -1.70318 -1.1301 0
M  V30 2776 C 270.618 -0.439538 -1.86901 0
M  V30 2777 O 271.819 -0.489095 -2.64313 0
M  V30 2778 C 270.09 -2.91125 -2.07319 0
M  V30 2779 S 271.649 -3.29075 -2.90268 0
M  V30 2780 H 268.467 -0.599426 -0.382374 0
M  V30 2781 H 271.069 -1.91089 -0.412933 0
M  V30 2782 H 269.773 -3.81303 -1.51777 0
M  V30 2783 H 269.304 -2.7272 -2.83526 0
M  V30 2784 H 271.319 -2.80165 -4.09539 0
M  V30 2785 N 270.492 0.636531 -1.44174 0
M  V30 2786 C 271.422 1.76003 -1.53444 0
M  V30 2787 C 272.403 1.65619 -0.387841 0
M  V30 2788 O 273.588 1.84461 -0.607257 0
M  V30 2789 C 270.718 3.14511 -1.4731 0
M  V30 2790 C 269.672 3.39677 -2.60391 0
M  V30 2791 C 268.998 4.78159 -2.39308 0
M  V30 2792 C 270.298 3.32772 -4.02567 0
M  V30 2793 H 271.992 1.68501 -2.47483 0
M  V30 2794 H 269.538 0.809237 -1.19111 0
M  V30 2795 H 271.491 3.92878 -1.52397 0
M  V30 2796 H 270.215 3.22783 -0.49785 0
M  V30 2797 H 268.874 2.63688 -2.54684 0
M  V30 2798 H 268.522 4.83128 -1.39988 0
M  V30 2799 H 268.222 4.95956 -3.15122 0
M  V30 2800 H 269.746 5.58762 -2.46205 0
M  V30 2801 H 271.16 4.01051 -4.09672 0
M  V30 2802 H 269.557 3.62104 -4.7854 0
M  V30 2803 H 270.627 2.30669 -4.2652 0
M  V30 2804 N 271.97 1.30982 0.876444 0
M  V30 2805 C 273.21 1.21589 1.64303 0
M  V30 2806 C 273.574 -0.223962 1.90689 0
M  V30 2807 O 274.775 -0.44128 2.65153 0
M  V30 2808 C 273.046 2.03007 2.94148 0
M  V30 2809 S 274.605 2.10405 3.85065 0
M  V30 2810 H 271.423 0.433161 0.563819 0
M  V30 2811 H 274.025 1.65565 1.03964 0
M  V30 2812 H 272.729 3.06719 2.72675 0
M  V30 2813 H 272.26 1.59725 3.59515 0
M  V30 2814 H 274.275 1.23765 4.80517 0
M  V30 2815 N 273.449 -1.08991 1.13837 0
M  V30 2816 C 274.726 -1.77863 0.813876 0
M  V30 2817 C 275.106 -1.99375 -0.693746 0
M  V30 2818 O 274.454 -1.59875 -1.63255 0
M  V30 2819 C 274.664 -3.0986 1.60586 0
M  V30 2820 C 276.012 -3.84493 1.8014 0
M  V30 2821 O 277.036 -3.19624 1.57222 0
M  V30 2822 O 275.895 -5.00957 2.18413 0
M  V30 2823 H 272.989 -0.771589 0.297624 0
M  V30 2824 H 275.535 -1.15507 1.24323 0
M  V30 2825 H 274.307 -2.89715 2.63022 0
M  V30 2826 H 273.93 -3.79942 1.17173 0
M  V30 2827 N 274.927 -0.932562 -1.27047 0
M  V30 2828 C 275.857 -0.452902 -2.29066 0
M  V30 2829 C 276.838 0.489338 -1.62909 0
M  V30 2830 O 278.023 0.393046 -1.90181 0
M  V30 2831 C 275.153 0.290698 -3.46081 0
M  V30 2832 C 274.107 -0.564168 -4.24265 0
M  V30 2833 C 273.433 0.308886 -5.33807 0
M  V30 2834 C 274.733 -1.83112 -4.89149 0
M  V30 2835 H 276.427 -1.30552 -2.69437 0
M  V30 2836 H 273.973 -0.629201 -1.29526 0
M  V30 2837 H 275.926 0.637233 -4.16554 0
M  V30 2838 H 274.65 1.17738 -3.0464 0
M  V30 2839 H 273.309 -0.893477 -3.55545 0
M  V30 2840 H 272.957 1.19467 -4.88607 0
M  V30 2841 H 272.657 -0.259633 -5.87026 0
M  V30 2842 H 274.181 0.650884 -6.07121 0
M  V30 2843 H 275.595 -1.55236 -5.51883 0
M  V30 2844 H 273.992 -2.34353 -5.52448 0
M  V30 2845 H 275.062 -2.54772 -4.12576 0
M  V30 2846 N 276.405 1.4127 -0.698611 0
M  V30 2847 C 277.654 2.00408 -0.227949 0
M  V30 2848 C 277.967 1.55981 1.18023 0
M  V30 2849 O 279.173 2.07699 1.74852 0
M  V30 2850 C 277.629 3.58129 -0.356636 0
M  V30 2851 C 277.237 4.11536 -1.77037 0
M  V30 2852 C 278.981 4.24466 0.0540969 0
M  V30 2853 C 276.888 5.61701 -1.85055 0
M  V30 2854 H 275.818 0.749586 -0.0814657 0
M  V30 2855 H 278.469 1.61713 -0.867249 0
M  V30 2856 H 276.851 3.94442 0.350965 0
M  V30 2857 H 278.025 3.86636 -2.50698 0
M  V30 2858 H 276.34 3.57736 -2.13105 0
M  V30 2859 H 278.937 5.34698 0.0146723 0
M  V30 2860 H 279.28 4.01687 1.09332 0
M  V30 2861 H 279.813 3.93198 -0.603337 0
M  V30 2862 H 276.552 5.89312 -2.8704 0
M  V30 2863 H 276.072 5.88519 -1.15783 0
M  V30 2864 H 277.751 6.26524 -1.61484 0
M  V30 2865 N 277.883 0.443576 1.51229 0
M  V30 2866 C 279.16 -0.181038 1.9476 0
M  V30 2867 C 279.54 -1.59523 1.38259 0
M  V30 2868 O 278.888 -2.2122 0.572198 0
M  V30 2869 C 279.098 -0.152422 3.48667 0
M  V30 2870 C 280.446 -0.354923 4.23114 0
M  V30 2871 O 281.47 -0.230257 3.55455 0
M  V30 2872 O 280.329 -0.603674 5.43156 0
M  V30 2873 H 277.423 -0.1266 0.817252 0
M  V30 2874 H 279.969 0.502004 1.62105 0
M  V30 2875 H 278.741 0.836022 3.82265 0
M  V30 2876 H 278.364 -0.878107 3.87782 0
M  V30 2877 N 279.361 -1.56624 0.175154 0
M  V30 2878 C 280.777 -1.58571 -0.180966 0
M  V30 2879 C 280.977 -1.19065 -1.6256 0
M  V30 2880 O 280.033 -0.904044 -2.35761 0
M  V30 2881 C 281.346 -3.00522 0.103326 0
M  V30 2882 C 282.894 -3.12972 0.0418426 0
M  V30 2883 C 283.369 -4.57022 0.299175 0
M  V30 2884 N 284.86 -4.62541 0.247086 0
M  V30 2885 C 285.595 -5.71857 0.420318 0
M  V30 2886 N 285.091 -6.89717 0.652816 0
M  V30 2887 N 286.884 -5.60972 0.355957 0
M  V30 2888 H 279.035 -1.80589 1.11809 0
M  V30 2889 H 281.298 -0.837178 0.444788 0
M  V30 2890 H 281.004 -3.33916 1.10422 0
M  V30 2891 H 280.878 -3.72344 -0.603299 0
M  V30 2892 H 283.265 -2.79403 -0.949636 0
M  V30 2893 H 283.346 -2.43578 0.781238 0
M  V30 2894 H 282.99 -4.913 1.28788 0
M  V30 2895 H 282.92 -5.24579 -0.460876 0
M  V30 2896 H 285.411 -3.77829 0.0731895 0
M  V30 2897 H 285.724 -7.68911 0.774347 0
M  V30 2898 H 284.069 -6.91572 0.689476 0
M  V30 2899 H 287.26 -4.67773 0.174882 0
M  V30 2900 H 287.433 -6.46111 0.494388 0
M  V30 2901 N 280.839 0.0985539 -1.57292 0
M  V30 2902 C 281.771 1.14595 -1.98496 0
M  V30 2903 C 282.784 1.36512 -0.887031 0
M  V30 2904 O 283.973 1.35225 -1.16518 0
M  V30 2905 C 281.073 2.50216 -2.28572 0
M  V30 2906 C 280.246 2.48624 -3.59868 0
M  V30 2907 C 279.305 3.66146 -3.7792 0
M  V30 2908 O 278.331 3.48795 -4.49812 0
M  V30 2909 N 279.533 4.85496 -3.18235 0
M  V30 2910 H 282.298 0.795277 -2.88956 0
M  V30 2911 H 279.859 0.287579 -1.59325 0
M  V30 2912 H 281.851 3.27432 -2.37845 0
M  V30 2913 H 280.421 2.77387 -1.44136 0
M  V30 2914 H 279.641 1.56978 -3.61596 0
M  V30 2915 H 280.929 2.44635 -4.46129 0
M  V30 2916 H 280.327 5.02497 -2.59833 0
M  V30 2917 H 278.884 5.60317 -3.32999 0
M  V30 2918 N 282.317 1.53212 0.369288 0
M  V30 2919 C 283.247 1.82365 1.45826 0
M  V30 2920 C 284.228 0.676907 1.56051 0
M  V30 2921 O 285.413 0.926401 1.70679 0
M  V30 2922 C 282.543 2.01023 2.83208 0
M  V30 2923 C 281.497 3.1678 2.8781 0
M  V30 2924 C 280.823 3.20724 4.27832 0
M  V30 2925 C 282.123 4.55447 2.55667 0
M  V30 2926 H 283.817 2.73559 1.21678 0
M  V30 2927 H 281.363 1.3163 0.583911 0
M  V30 2928 H 283.316 2.20001 3.59413 0
M  V30 2929 H 282.04 1.06536 3.08736 0
M  V30 2930 H 280.699 2.97616 2.14056 0
M  V30 2931 H 280.347 2.23882 4.50429 0
M  V30 2932 H 280.047 3.98496 4.31827 0
M  V30 2933 H 281.571 3.41881 5.05915 0
M  V30 2934 H 282.985 4.74611 3.21586 0
M  V30 2935 H 281.382 5.35432 2.70984 0
M  V30 2936 H 282.452 4.60812 1.5093 0
M  V30 2937 N 283.795 -0.628877 1.44509 0
M  V30 2938 C 285.042 -1.38839 1.47411 0
M  V30 2939 C 285.37 -1.94202 0.10757 0
M  V30 2940 O 284.625 -1.74243 -0.890947 0
M  V30 2941 C 284.924 -2.56995 2.48371 0
M  V30 2942 C 284.59 -2.19908 3.93639 0
M  V30 2943 C 283.252 -2.09506 4.33198 0
M  V30 2944 C 285.604 -1.9064 4.85083 0
M  V30 2945 C 282.932 -1.68028 5.62124 0
M  V30 2946 C 285.284 -1.50655 6.14399 0
M  V30 2947 C 283.948 -1.38796 6.5291 0
M  V30 2948 H 283.218 -0.508048 0.539414 0
M  V30 2949 H 285.865 -0.712913 1.77735 0
M  V30 2950 H 284.17 -3.29786 2.11538 0
M  V30 2951 H 285.867 -3.15223 2.47861 0
M  V30 2952 H 282.457 -2.28922 3.62343 0
M  V30 2953 H 286.641 -1.97585 4.55273 0
M  V30 2954 H 281.897 -1.57452 5.90778 0
M  V30 2955 H 286.071 -1.27048 6.84713 0
M  V30 2956 H 283.698 -1.06429 7.52713 0
M  V30 2957 N 285.273 -1.31445 -0.869486 0
M  V30 2958 C 286.521 -1.20918 -1.61936 0
M  V30 2959 C 286.842 0.232683 -1.93607 0
M  V30 2960 O 286.112 1.15352 -1.58338 0
M  V30 2961 H 284.692 -0.44454 -0.600328 0
M  V30 2962 H 287.354 -1.64776 -1.0409 0
M  V30 2963 H 286.45 -1.78124 -2.56278 0
M  V30 2964 N 286.751 1.08385 -1.14413 0
M  V30 2965 C 287.976 1.85057 -0.936413 0
M  V30 2966 C 288.401 1.81055 0.509971 0
M  V30 2967 O 287.759 1.1958 1.36273 0
M  V30 2968 C 287.807 3.30505 -1.44217 0
M  V30 2969 O 286.911 4.07491 -0.634409 0
M  V30 2970 H 286.252 0.573425 -0.334784 0
M  V30 2971 H 288.782 1.36799 -1.52142 0
M  V30 2972 H 288.792 3.81348 -1.45043 0
M  V30 2973 H 287.467 3.32734 -2.49522 0
M  V30 2974 H 286.044 3.66368 -0.694902 0
M  V30 2975 N 288.23 0.939286 1.26551 0
M  V30 2976 C 289.14 0.453432 2.30176 0
M  V30 2977 C 290.156 -0.471649 1.67486 0
M  V30 2978 O 291.332 -0.35164 1.98306 0
M  V30 2979 C 288.397 -0.275326 3.45605 0
M  V30 2980 C 287.458 0.686084 4.23782 0
M  V30 2981 C 286.691 -0.00798994 5.33699 0
M  V30 2982 O 286.914 -1.22528 5.57085 0
M  V30 2983 O 285.848 0.669746 5.98162 0
M  V30 2984 H 289.674 1.31416 2.73795 0
M  V30 2985 H 287.259 0.705095 1.31715 0
M  V30 2986 H 289.141 -0.685911 4.1578 0
M  V30 2987 H 287.816 -1.11147 3.0402 0
M  V30 2988 H 286.723 1.14658 3.56096 0
M  V30 2989 H 288.056 1.48979 4.69112 0
M  V30 2990 N 289.708 -1.40897 0.706093 0
M  V30 2991 C 290.618 -2.3455 0.0482286 0
M  V30 2992 C 291.634 -1.56796 -0.754396 0
M  V30 2993 O 292.81 -1.89228 -0.689538 0
M  V30 2994 C 289.875 -3.35625 -0.869303 0
M  V30 2995 C 288.936 -4.29261 -0.0576994 0
M  V30 2996 C 288.169 -5.25508 -0.931531 0
M  V30 2997 O 288.392 -5.27472 -2.17092 0
M  V30 2998 O 287.326 -6.00727 -0.375587 0
M  V30 2999 H 291.152 -2.92407 0.820476 0
M  V30 3000 H 288.737 -1.4193 0.4665 0
M  V30 3001 H 290.619 -3.97635 -1.39514 0
M  V30 3002 H 289.294 -2.80196 -1.62086 0
M  V30 3003 H 288.201 -3.70566 0.512988 0
M  V30 3004 H 289.534 -4.87817 0.655426 0
M  V30 3005 O 291.225 -0.593567 -1.50197 0
M  V30 3006 H 291.916 -0.101366 -1.93435 0
M  V30 END ATOM
M  V30 BEGIN BOND
M  V30 END BOND
M  V30 END CTAB
M  END
$$$$
