drugbank_target|P21340 Spermidine/spermine N(1)-acetyltransferase (DB01992; DB04447)
 OpenBabel12092119583D

  0  0  0     0  0            999 V3000
M  V30 BEGIN CTAB
M  V30 COUNTS 2783 2808 0 0 0
M  V30 BEGIN ATOM
M  V30 1 H -0.908 1.98254 -0.117106 0
M  V30 2 N 0 1.576 0 0
M  V30 3 C 0.933 2.03868 1.02534 0
M  V30 4 C 1.911 0.928543 1.3348 0
M  V30 5 O 3.095 1.19667 1.45644 0
M  V30 6 C 0.222 2.43627 2.35294 0
M  V30 7 C -0.732 3.65373 2.2001 0
M  V30 8 S 0.101 5.13292 1.52614 0
M  V30 9 C 1.257 5.56322 2.86805 0
M  V30 10 H 1.49 2.90518 0.631377 0
M  V30 11 H -0.977 1.52953 0.210867 0
M  V30 12 H 0.981 2.67203 3.11629 0
M  V30 13 H -0.358 1.57376 2.7183 0
M  V30 14 H -1.165 3.90944 3.18086 0
M  V30 15 H -1.563 3.418 1.51819 0
M  V30 16 H 0.729 5.58782 3.83104 0
M  V30 17 H 1.672 6.56266 2.65933 0
M  V30 18 H 2.08 4.83886 2.90714 0
M  V30 19 N 1.4781 -0.272755 1.55222 0
M  V30 20 C 2.7031 -1.02683 1.80197 0
M  V30 21 C 3.1281 -1.79142 0.573551 0
M  V30 22 O 2.4861 -1.74917 -0.476849 0
M  V30 23 C 2.5341 -1.9609 3.02624 0
M  V30 24 O 1.6381 -3.04863 2.77727 0
M  V30 25 H 0.9791 -0.293557 0.595584 0
M  V30 26 H 3.5091 -0.30159 2.02365 0
M  V30 27 H 3.5191 -2.38039 3.31363 0
M  V30 28 H 2.1941 -1.39851 3.91682 0
M  V30 29 H 0.7711 -2.67228 2.60084 0
M  V30 30 N 2.9562 -1.48159 -0.537278 0
M  V30 31 C 4.2022 -1.56035 -1.29541 0
M  V30 32 C 4.5352 -0.230377 -1.92829 0
M  V30 33 O 3.8102 0.762952 -1.78911 0
M  V30 34 C 4.0932 -2.69323 -2.39034 0
M  V30 35 C 3.9462 -4.12002 -1.80485 0
M  V30 36 C 5.2652 -2.78408 -3.40847 0
M  V30 37 H 2.3842 -0.567992 -0.469632 0
M  V30 38 H 5.0262 -1.80302 -0.599277 0
M  V30 39 H 3.1762 -2.48763 -2.98412 0
M  V30 40 H 4.8482 -4.43981 -1.25215 0
M  V30 41 H 3.0912 -4.19344 -1.11055 0
M  V30 42 H 3.7622 -4.87077 -2.59731 0
M  V30 43 H 6.2382 -2.97012 -2.91416 0
M  V30 44 H 5.1142 -3.59416 -4.14863 0
M  V30 45 H 5.3752 -1.86269 -4.00944 0
M  V30 46 N 4.4343 0.785586 -1.36625 0
M  V30 47 C 5.3813 1.89838 -1.31264 0
M  V30 48 C 6.3513 1.65115 -0.180633 0
M  V30 49 O 7.5363 1.87222 -0.36777 0
M  V30 50 C 4.6763 3.26706 -1.11163 0
M  V30 51 C 3.7893 3.63476 -2.33472 0
M  V30 52 C 2.9243 4.89481 -2.06353 0
M  V30 53 C 1.9633 5.18941 -3.24602 0
M  V30 54 N 1.1003 6.36131 -2.97123 0
M  V30 55 H 5.9403 1.93756 -2.26413 0
M  V30 56 H 3.4773 0.947454 -1.12524 0
M  V30 57 H 5.4353 4.05639 -0.975337 0
M  V30 58 H 4.0653 3.222 -0.196674 0
M  V30 59 H 3.1173 2.79636 -2.57891 0
M  V30 60 H 4.4293 3.81193 -3.21704 0
M  V30 61 H 3.5833 5.76288 -1.89675 0
M  V30 62 H 2.3223 4.73841 -1.15437 0
M  V30 63 H 1.3273 4.30615 -3.41834 0
M  V30 64 H 2.5523 5.36498 -4.16349 0
M  V30 65 H 0.4983 6.21875 -2.08823 0
M  V30 66 H 0.4153 6.54198 -3.78894 0
M  V30 67 H 1.6833 7.2591 -2.84033 0
M  V30 68 N 5.9124 1.20967 1.01018 0
M  V30 69 C 6.8454 0.907578 2.09376 0
M  V30 70 C 7.8234 -0.142868 1.61971 0
M  V30 71 O 9.0074 -0.0150391 1.88494 0
M  V30 72 C 6.1344 0.361791 3.36762 0
M  V30 73 C 5.1804 1.39423 4.03068 0
M  V30 74 S 6.0134 2.96159 4.4615 0
M  V30 75 C 7.1694 2.43173 5.7673 0
M  V30 76 H 7.4024 1.82519 2.34678 0
M  V30 77 H 4.9354 1.03884 1.14225 0
M  V30 78 H 6.8934 0.0534523 4.10465 0
M  V30 79 H 5.5544 -0.53443 3.0952 0
M  V30 80 H 4.7474 0.961853 4.94737 0
M  V30 81 H 4.3494 1.65038 3.35617 0
M  V30 82 H 6.6414 1.83335 6.52223 0
M  V30 83 H 7.5844 3.33264 6.24773 0
M  V30 84 H 7.9924 1.85069 5.33301 0
M  V30 85 N 7.3905 -1.2043 1.01659 0
M  V30 86 C 8.3375 -2.23215 0.586822 0
M  V30 87 C 9.3075 -1.61382 -0.393085 0
M  V30 88 O 10.4925 -1.88544 -0.292525 0
M  V30 89 C 7.6325 -3.45032 -0.0687464 0
M  V30 90 C 6.7455 -4.21296 0.955724 0
M  V30 91 C 5.8805 -5.30507 0.271208 0
M  V30 92 C 4.9195 -5.98515 1.28244 0
M  V30 93 N 4.0565 -6.99316 0.62459 0
M  V30 94 H 8.8965 -2.59336 1.46796 0
M  V30 95 H 6.4335 -1.27431 0.734836 0
M  V30 96 H 8.3915 -4.1459 -0.465965 0
M  V30 97 H 7.0215 -3.09604 -0.913529 0
M  V30 98 H 6.0735 -3.50803 1.4711 0
M  V30 99 H 7.3855 -4.6803 1.72479 0
M  V30 100 H 6.5395 -6.06428 -0.18151 0
M  V30 101 H 5.2785 -4.8481 -0.530163 0
M  V30 102 H 4.2835 -5.21355 1.74554 0
M  V30 103 H 5.5085 -6.46298 2.08509 0
M  V30 104 H 3.4545 -6.55812 -0.156914 0
M  V30 105 H 3.3715 -7.44178 1.33172 0
M  V30 106 H 4.6395 -7.79255 0.195462 0
M  V30 107 N 8.8686 -0.792821 -1.36206 0
M  V30 108 C 9.8156 -0.191653 -2.30003 0
M  V30 109 C 10.7856 0.666453 -1.52143 0
M  V30 110 O 11.9706 0.61442 -1.80636 0
M  V30 111 C 9.1106 0.664848 -3.38635 0
M  V30 112 C 8.2236 -0.212175 -4.31479 0
M  V30 113 C 7.3586 0.651022 -5.27196 0
M  V30 114 C 6.3976 -0.227247 -6.11678 0
M  V30 115 N 5.5346 0.595127 -6.99573 0
M  V30 116 H 10.3746 -0.996978 -2.80828 0
M  V30 117 H 7.9116 -0.503206 -1.38225 0
M  V30 118 H 9.8696 1.17645 -4.00269 0
M  V30 119 H 8.4996 1.43557 -2.89122 0
M  V30 120 H 7.5516 -0.841777 -3.70969 0
M  V30 121 H 8.8636 -0.888751 -4.90818 0
M  V30 122 H 8.0176 1.2283 -5.94136 0
M  V30 123 H 6.7566 1.36121 -4.68319 0
M  V30 124 H 5.7616 -0.816904 -5.43697 0
M  V30 125 H 6.9866 -0.93509 -6.72631 0
M  V30 126 H 4.9326 1.28955 -6.432 0
M  V30 127 H 4.8496 -0.0236952 -7.55996 0
M  V30 128 H 6.1176 1.15613 -7.70879 0
M  V30 129 N 10.3467 1.47872 -0.545128 0
M  V30 130 C 11.5867 2.04391 -0.0187854 0
M  V30 131 C 11.9507 1.41162 1.30144 0
M  V30 132 O 13.1517 1.88656 1.91474 0
M  V30 133 C 11.4227 3.57299 0.0850867 0
M  V30 134 S 12.9817 4.35221 0.559302 0
M  V30 135 H 9.7997 0.710737 -0.0193301 0
M  V30 136 H 12.4017 1.81395 -0.729125 0
M  V30 137 H 11.1057 4.00847 -0.880351 0
M  V30 138 H 10.6367 3.84773 0.819348 0
M  V30 139 H 12.6517 4.61571 1.82118 0
M  V30 140 N 11.8248 0.280983 1.55075 0
M  V30 141 C 13.0498 -0.340154 2.04592 0
M  V30 142 C 13.4748 -1.48246 1.15779 0
M  V30 143 O 12.8328 -1.80614 0.15761 0
M  V30 144 C 12.8808 -0.793104 3.5177 0
M  V30 145 O 11.9848 -1.89981 3.66034 0
M  V30 146 H 11.3258 -0.0694289 0.66036 0
M  V30 147 H 13.8558 0.416993 2.00306 0
M  V30 148 H 13.8658 -1.08729 3.93245 0
M  V30 149 H 12.5408 0.0426163 4.15878 0
M  V30 150 H 11.1178 -1.60771 3.36463 0
M  V30 151 N 13.3029 -1.57598 0.00835791 0
M  V30 152 C 14.7189 -1.55764 -0.347822 0
M  V30 153 C 14.9189 -1.01186 -1.74252 0
M  V30 154 O 13.9749 -0.649371 -2.44007 0
M  V30 155 C 15.2879 -2.99927 -0.215407 0
M  V30 156 C 16.8359 -3.11656 -0.289725 0
M  V30 157 C 17.3109 -4.57621 -0.18634 0
M  V30 158 N 18.8019 -4.62557 -0.243978 0
M  V30 159 C 19.5369 -5.73094 -0.18745 0
M  V30 160 N 19.0329 -6.92753 -0.0810331 0
M  V30 161 N 20.8259 -5.61588 -0.239925 0
M  V30 162 H 12.9769 -1.91411 0.92062 0
M  V30 163 H 15.2399 -0.879562 0.353659 0
M  V30 164 H 14.9459 -3.43729 0.744512 0
M  V30 165 H 14.8199 -3.63865 -0.994097 0
M  V30 166 H 17.2069 -2.67779 -1.24009 0
M  V30 167 H 17.2879 -2.5048 0.51898 0
M  V30 168 H 16.9319 -5.02174 0.760519 0
M  V30 169 H 16.8619 -5.16752 -1.01364 0
M  V30 170 H 19.3529 -3.76481 -0.327217 0
M  V30 171 H 19.6659 -7.72787 -0.0440241 0
M  V30 172 H 18.0109 -6.94984 -0.0465419 0
M  V30 173 H 21.2019 -4.66996 -0.321317 0
M  V30 174 H 21.3749 -6.47714 -0.192407 0
M  V30 175 N 14.781 0.264519 -1.55364 0
M  V30 176 C 15.691 1.34902 -1.91934 0
M  V30 177 C 16.707 1.53595 -0.817593 0
M  V30 178 O 17.883 1.67558 -1.11742 0
M  V30 179 C 14.948 2.68676 -2.19121 0
M  V30 180 C 14.009 2.58657 -3.4263 0
M  V30 181 C 13.242 3.86051 -3.68511 0
M  V30 182 O 13.465 4.87126 -2.96757 0
M  V30 183 O 12.399 3.85744 -4.62045 0
M  V30 184 H 16.225 1.06883 -2.8427 0
M  V30 185 H 13.81 0.463775 -1.42019 0
M  V30 186 H 15.692 3.47759 -2.37995 0
M  V30 187 H 14.367 2.96463 -1.29966 0
M  V30 188 H 13.274 1.7792 -3.29082 0
M  V30 189 H 14.607 2.35818 -4.32031 0
M  V30 190 N 16.2591 1.48442 0.529413 0
M  V30 191 C 17.5361 1.46978 1.29062 0
M  V30 192 C 17.9161 0.181769 2.10316 0
M  V30 193 O 17.2641 -0.836481 2.12639 0
M  V30 194 C 17.4741 2.7321 2.17157 0
M  V30 195 C 18.8221 3.21562 2.77278 0
M  V30 196 O 19.8461 2.74131 2.27444 0
M  V30 197 O 18.7051 4.04094 3.67927 0
M  V30 198 H 15.7991 0.587003 0.582543 0
M  V30 199 H 18.3451 1.60676 0.546021 0
M  V30 200 H 17.1171 3.58465 1.56903 0
M  V30 201 H 16.7401 2.62235 2.98862 0
M  V30 202 N 17.7372 -0.778329 1.37039 0
M  V30 203 C 18.6672 -1.90546 1.34962 0
M  V30 204 C 19.6482 -1.68681 0.219274 0
M  V30 205 O 20.8332 -1.89634 0.418624 0
M  V30 206 C 17.9632 -3.27734 1.14925 0
M  V30 207 C 16.9172 -3.64147 2.24902 0
M  V30 208 C 16.2432 -4.99806 1.89996 0
M  V30 209 C 17.5432 -3.71579 3.67051 0
M  V30 210 H 19.2372 -1.92541 2.29277 0
M  V30 211 H 16.7832 -0.924948 1.10366 0
M  V30 212 H 18.7362 -4.06215 1.12104 0
M  V30 213 H 17.4602 -3.26154 0.170631 0
M  V30 214 H 16.1192 -2.8797 2.26868 0
M  V30 215 H 15.7672 -4.94759 0.906796 0
M  V30 216 H 15.4672 -5.25139 2.63634 0
M  V30 217 H 16.9912 -5.80694 1.88749 0
M  V30 218 H 18.4052 -4.40227 3.67251 0
M  V30 219 H 16.8022 -4.08405 4.39688 0
M  V30 220 H 17.8722 -2.72404 4.01154 0
M  V30 221 N 19.2153 -1.21501 -1.00376 0
M  V30 222 C 20.1473 -0.933174 -2.09343 0
M  V30 223 C 21.1603 0.0840896 -1.62583 0
M  V30 224 O 22.3493 -0.148563 -1.77881 0
M  V30 225 C 19.4493 -0.379869 -3.36764 0
M  V30 226 C 18.6223 -1.45176 -4.12605 0
M  V30 227 C 17.6813 -0.907476 -5.18316 0
M  V30 228 O 16.7073 -1.5912 -5.46507 0
M  V30 229 N 17.9093 0.276649 -5.7984 0
M  V30 230 H 20.6743 -1.87124 -2.34104 0
M  V30 231 H 18.2353 -1.12043 -1.16867 0
M  V30 232 H 20.2273 -0.00131488 -4.047 0
M  V30 233 H 18.7973 0.463048 -3.09151 0
M  V30 234 H 18.0173 -2.00411 -3.39454 0
M  V30 235 H 19.3053 -2.17328 -4.6005 0
M  V30 236 H 18.7033 0.849147 -5.59291 0
M  V30 237 H 17.2603 0.596702 -6.49063 0
M  V30 238 N 20.6934 1.19889 -1.02296 0
M  V30 239 C 21.9214 1.9339 -0.735399 0
M  V30 240 C 22.3364 1.75148 0.704887 0
M  V30 241 O 21.6934 1.06954 1.47875 0
M  V30 242 C 21.7444 3.45313 -1.06962 0
M  V30 243 O 21.4654 3.62964 -2.45334 0
M  V30 244 C 22.9664 4.35948 -0.804021 0
M  V30 245 H 20.1864 0.61448 -0.269546 0
M  V30 246 H 22.7304 1.522 -1.36585 0
M  V30 247 H 20.8854 3.84359 -0.484455 0
M  V30 248 H 21.2994 4.56886 -2.57595 0
M  V30 249 H 22.7734 5.41174 -1.0879 0
M  V30 250 H 23.2504 4.3842 0.261691 0
M  V30 251 H 23.8564 4.02574 -1.37164 0
M  V30 252 N 22.1715 0.800033 1.35784 0
M  V30 253 C 23.1015 0.220184 2.3246 0
M  V30 254 C 24.0825 -0.65073 1.57161 0
M  V30 255 O 25.2675 -0.582359 1.85263 0
M  V30 256 C 22.3975 -0.637353 3.41402 0
M  V30 257 C 21.3515 0.134531 4.27789 0
M  V30 258 C 20.6775 -0.844285 5.27992 0
M  V30 259 C 21.9775 1.32979 5.05088 0
M  V30 260 H 23.6715 1.02787 2.81203 0
M  V30 261 H 21.2175 0.495717 1.35199 0
M  V30 262 H 23.1705 -1.05302 4.08031 0
M  V30 263 H 21.8945 -1.47785 2.91251 0
M  V30 264 H 20.5535 0.531296 3.6273 0
M  V30 265 H 20.2015 -1.68011 4.74111 0
M  V30 266 H 19.9015 -0.332184 5.8666 0
M  V30 267 H 21.4255 -1.2583 5.97494 0
M  V30 268 H 22.8395 0.98934 5.64699 0
M  V30 269 H 21.2365 1.77593 5.7322 0
M  V30 270 H 22.3065 2.11978 4.36111 0
M  V30 271 N 23.6496 -1.47581 0.552962 0
M  V30 272 C 24.5816 -2.27997 -0.234533 0
M  V30 273 C 25.5946 -1.36753 -0.883321 0
M  V30 274 O 26.7836 -1.61612 -0.757889 0
M  V30 275 C 23.8836 -3.10879 -1.34935 0
M  V30 276 C 23.0566 -4.30056 -0.798158 0
M  V30 277 C 22.1156 -4.94567 -1.79694 0
M  V30 278 O 21.1416 -5.53087 -1.34474 0
M  V30 279 N 22.3436 -4.88878 -3.13015 0
M  V30 280 H 25.1086 -2.96222 0.455255 0
M  V30 281 H 22.6696 -1.57163 0.388761 0
M  V30 282 H 24.6616 -3.50903 -2.01616 0
M  V30 283 H 23.2316 -2.44924 -1.94244 0
M  V30 284 H 22.4516 -3.94174 0.0453079 0
M  V30 285 H 23.7396 -5.07152 -0.409173 0
M  V30 286 H 23.1376 -4.42526 -3.52402 0
M  V30 287 H 21.6946 -5.32934 -3.75266 0
M  V30 288 N 25.1277 -0.289203 -1.54924 0
M  V30 289 C 26.0597 0.625583 -2.20497 0
M  V30 290 C 27.0727 1.10667 -1.19402 0
M  V30 291 O 28.2617 1.02615 -1.46056 0
M  V30 292 C 25.3617 1.86702 -2.82835 0
M  V30 293 C 24.5347 1.5304 -4.09753 0
M  V30 294 C 23.5937 2.62576 -4.56005 0
M  V30 295 O 22.6197 2.28167 -5.21468 0
M  V30 296 N 23.8217 3.92901 -4.27328 0
M  V30 297 H 26.5867 0.0642801 -2.99631 0
M  V30 298 H 24.1477 -0.110896 -1.6152 0
M  V30 299 H 26.1397 2.59304 -3.10715 0
M  V30 300 H 24.7097 2.33702 -2.07611 0
M  V30 301 H 23.9297 0.637564 -3.8901 0
M  V30 302 H 25.2177 1.28072 -4.92418 0
M  V30 303 H 24.6157 4.23671 -3.74859 0
M  V30 304 H 23.1727 4.61837 -4.59946 0
M  V30 305 N 26.6058 1.57591 -0.0167156 0
M  V30 306 C 27.5358 2.12496 0.967858 0
M  V30 307 C 28.5168 1.03807 1.34752 0
M  V30 308 O 29.7018 1.31577 1.42833 0
M  V30 309 C 26.8318 2.64194 2.25431 0
M  V30 310 C 25.7858 3.77559 2.01576 0
M  V30 311 C 25.1118 4.15636 3.36379 0
M  V30 312 C 26.4118 5.04151 1.36489 0
M  V30 313 H 28.1058 2.95013 0.510643 0
M  V30 314 H 25.6518 1.41915 0.244181 0
M  V30 315 H 27.6048 3.01236 2.94678 0
M  V30 316 H 26.3288 1.78821 2.73296 0
M  V30 317 H 24.9878 3.40937 1.34751 0
M  V30 318 H 24.6358 3.27263 3.81979 0
M  V30 319 H 24.3358 4.92022 3.21229 0
M  V30 320 H 25.8598 4.5525 4.06915 0
M  V30 321 H 27.2738 5.38857 1.95718 0
M  V30 322 H 25.6708 5.85453 1.31776 0
M  V30 323 H 26.7408 4.83733 0.336219 0
M  V30 324 N 28.0839 -0.256276 1.55502 0
M  V30 325 C 29.3089 -1.00766 1.81276 0
M  V30 326 C 29.7339 -1.78524 0.59252 0
M  V30 327 O 29.0919 -1.75413 -0.45827 0
M  V30 328 C 29.1399 -1.92869 3.04687 0
M  V30 329 O 28.2439 -3.019 2.80945 0
M  V30 330 H 27.5849 -0.287224 0.598664 0
M  V30 331 H 30.1149 -0.280109 2.02674 0
M  V30 332 H 30.1249 -2.34511 3.33869 0
M  V30 333 H 28.7999 -1.35689 3.93143 0
M  V30 334 H 27.3769 -2.64454 2.62904 0
M  V30 335 N 29.562 -1.4872 -0.521534 0
M  V30 336 C 30.811 -1.56419 -1.27341 0
M  V30 337 C 31.124 -0.246805 -1.94037 0
M  V30 338 O 32.33 -0.202122 -2.70747 0
M  V30 339 C 30.786 -2.75896 -2.31105 0
M  V30 340 C 30.394 -4.14311 -1.70441 0
M  V30 341 C 32.138 -2.92913 -3.07249 0
M  V30 342 C 30.045 -5.25038 -2.72194 0
M  V30 343 H 28.975 -0.582344 -0.478949 0
M  V30 344 H 31.626 -1.75071 -0.549779 0
M  V30 345 H 30.008 -2.50697 -3.06541 0
M  V30 346 H 31.182 -4.49564 -1.01136 0
M  V30 347 H 29.497 -4.02482 -1.06759 0
M  V30 348 H 32.094 -3.72805 -3.83302 0
M  V30 349 H 32.437 -2.02689 -3.63625 0
M  V30 350 H 32.97 -3.18054 -2.38928 0
M  V30 351 H 29.709 -6.17255 -2.20627 0
M  V30 352 H 29.229 -4.94263 -3.39801 0
M  V30 353 H 30.908 -5.53508 -3.35019 0
M  V30 354 N 31.0401 0.771051 -1.3745 0
M  V30 355 C 31.9501 1.91538 -1.35464 0
M  V30 356 C 32.9661 1.72134 -0.254123 0
M  V30 357 O 34.1421 1.95358 -0.489626 0
M  V30 358 C 31.2071 3.26671 -1.16134 0
M  V30 359 C 30.2681 3.58723 -2.35831 0
M  V30 360 C 29.5011 4.87409 -2.17413 0
M  V30 361 O 29.7241 5.58506 -1.15876 0
M  V30 362 O 28.6581 5.18539 -3.05615 0
M  V30 363 H 32.4841 1.96165 -2.31847 0
M  V30 364 H 30.0691 0.9139 -1.18187 0
M  V30 365 H 31.9511 4.07499 -1.07345 0
M  V30 366 H 30.6261 3.22894 -0.228251 0
M  V30 367 H 29.5331 2.78127 -2.50192 0
M  V30 368 H 30.8661 3.67243 -3.27709 0
M  V30 369 N 32.5182 1.22032 0.997298 0
M  V30 370 C 33.7462 1.06841 1.7718 0
M  V30 371 C 34.1612 -0.381325 1.84909 0
M  V30 372 O 33.5182 -1.26437 1.31605 0
M  V30 373 C 33.5692 1.66814 3.20711 0
M  V30 374 O 33.2902 3.06116 3.13408 0
M  V30 375 C 34.7912 1.56838 4.14628 0
M  V30 376 H 32.0112 0.374782 0.556578 0
M  V30 377 H 34.5552 1.61532 1.2541 0
M  V30 378 H 32.7102 1.16196 3.69564 0
M  V30 379 H 33.1242 3.34926 4.0364 0
M  V30 380 H 34.5982 2.03532 5.13107 0
M  V30 381 H 35.0752 0.524155 4.36061 0
M  V30 382 H 35.6812 2.06741 3.7167 0
M  V30 383 N 33.9963 -1.19345 1.0293 0
M  V30 384 C 35.2433 -1.89038 0.726008 0
M  V30 385 C 35.5713 -1.79649 -0.745427 0
M  V30 386 O 34.8263 -1.18354 -1.55855 0
M  V30 387 C 35.1253 -3.39292 1.12319 0
M  V30 388 C 34.7913 -3.68885 2.59297 0
M  V30 389 C 33.4533 -3.76671 2.99453 0
M  V30 390 C 35.8053 -3.82178 3.54386 0
M  V30 391 C 33.1333 -3.9522 4.33611 0
M  V30 392 C 35.4853 -4.0224 4.88248 0
M  V30 393 C 34.1493 -4.08259 5.28092 0
M  V30 394 H 33.4193 -0.691739 0.265665 0
M  V30 395 H 36.0663 -1.41328 1.29223 0
M  V30 396 H 34.3713 -3.88903 0.475584 0
M  V30 397 H 36.0683 -3.91536 0.866037 0
M  V30 398 H 32.6583 -3.63433 2.27189 0
M  V30 399 H 36.8423 -3.75505 3.24514 0
M  V30 400 H 32.0983 -3.98119 4.64016 0
M  V30 401 H 36.2723 -4.11468 5.61843 0
M  V30 402 H 33.8993 -4.22384 6.32057 0
M  V30 403 N 35.4744 -0.807222 -1.35358 0
M  V30 404 C 36.4224 -0.20614 -2.31685 0
M  V30 405 C 37.4164 0.644445 -1.56663 0
M  V30 406 O 38.6224 0.537538 -1.71786 0
M  V30 407 H 34.9974 -0.0479006 -0.750473 0
M  V30 408 H 36.9684 -1.03369 -2.79924 0
M  V30 409 C 35.7174 0.630212 -3.41941 0
M  V30 410 H 35.0404 -0.0149558 -3.99797 0
M  V30 411 H 36.4804 1.01716 -4.11619 0
M  V30 412 C 34.9394 1.79601 -2.85035 0
M  V30 413 O 35.4694 2.89351 -2.78637 0
M  V30 414 N 33.6754 1.60774 -2.42074 0
M  V30 415 H 33.2224 0.715009 -2.47478 0
M  V30 416 H 33.1804 2.38933 -2.04349 0
M  V30 417 N 36.9525 1.47285 -0.560781 0
M  V30 418 C 38.2295 1.9558 0.0277798 0
M  V30 419 C 38.6095 1.5034 1.48192 0
M  V30 420 O 37.9575 0.743882 2.16052 0
M  V30 421 C 38.1675 3.48789 -0.121418 0
M  V30 422 C 39.5155 4.24594 0.0220912 0
M  V30 423 O 40.5395 3.56166 -0.0491439 0
M  V30 424 O 39.3985 5.46217 0.175958 0
M  V30 425 H 36.4925 0.824663 0.0621342 0
M  V30 426 H 39.0385 1.5767 -0.627556 0
M  V30 427 H 37.8105 3.74533 -1.13316 0
M  V30 428 H 37.4335 3.93473 0.571366 0
M  V30 429 N 38.4306 0.297415 1.54768 0
M  V30 430 C 39.6586 -0.315623 2.04478 0
M  V30 431 C 40.0736 -1.47792 1.17486 0
M  V30 432 O 39.4306 -1.81404 0.19971 0
M  V30 433 C 39.4816 -0.7753 3.53088 0
M  V30 434 O 39.2026 0.340732 4.36773 0
M  V30 435 C 40.7036 -1.45386 4.18781 0
M  V30 436 H 37.9236 -0.0690887 0.667434 0
M  V30 437 H 40.4676 0.436003 1.99798 0
M  V30 438 H 38.6226 -1.47696 3.58141 0
M  V30 439 H 39.0366 -0.0165035 5.24497 0
M  V30 440 H 40.5106 -1.72669 5.24299 0
M  V30 441 H 40.9876 -2.39275 3.68299 0
M  V30 442 H 41.5936 -0.795475 4.17795 0
M  V30 443 N 39.9087 -1.5758 0.0250728 0
M  V30 444 C 41.1557 -1.91633 -0.654444 0
M  V30 445 C 41.4837 -0.901103 -1.72367 0
M  V30 446 O 40.7387 0.0905647 -1.9549 0
M  V30 447 C 41.0377 -3.32421 -1.31268 0
M  V30 448 C 40.7037 -4.49344 -0.374223 0
M  V30 449 C 39.3657 -4.8106 -0.115911 0
M  V30 450 C 41.7177 -5.20498 0.270432 0
M  V30 451 C 39.0457 -5.8129 0.79493 0
M  V30 452 C 41.3977 -6.21699 1.1693 0
M  V30 453 C 40.0617 -6.51859 1.43655 0
M  V30 454 H 39.3317 -0.701236 -0.239478 0
M  V30 455 H 41.9787 -1.91307 0.0859734 0
M  V30 456 H 40.2837 -3.28989 -2.12775 0
M  V30 457 H 41.9807 -3.56038 -1.84494 0
M  V30 458 H 38.5707 -4.24579 -0.58573 0
M  V30 459 H 42.7547 -4.96229 0.0839194 0
M  V30 460 H 38.0107 -6.03005 1.00973 0
M  V30 461 H 42.1847 -6.75955 1.67504 0
M  V30 462 H 39.8117 -7.2934 2.144 0
M  V30 463 N 41.3868 0.248026 -1.55636 0
M  V30 464 C 42.3338 1.30707 -1.90222 0
M  V30 465 C 43.3038 1.47881 -0.756332 0
M  V30 466 O 44.4888 1.61883 -1.00988 0
M  V30 467 C 41.6288 2.65769 -2.20138 0
M  V30 468 C 40.7418 2.56612 -3.47526 0
M  V30 469 C 39.8768 3.8402 -3.67017 0
M  V30 470 C 38.9158 3.69476 -4.8801 0
M  V30 471 N 38.0528 4.88774 -5.04029 0
M  V30 472 H 42.8928 1.00512 -2.80538 0
M  V30 473 H 40.4298 0.485055 -1.38873 0
M  V30 474 H 42.3878 3.44386 -2.35487 0
M  V30 475 H 41.0178 2.94115 -1.33027 0
M  V30 476 H 40.0698 1.69571 -3.40514 0
M  V30 477 H 41.3818 2.41774 -4.36287 0
M  V30 478 H 40.5358 4.7108 -3.8232 0
M  V30 479 H 39.2748 4.01754 -2.76487 0
M  V30 480 H 38.2798 2.80799 -4.72686 0
M  V30 481 H 39.5048 3.53238 -5.8 0
M  V30 482 H 37.4508 5.0687 -4.16435 0
M  V30 483 H 37.3678 4.76562 -5.86877 0
M  V30 484 H 38.6358 5.77335 -5.23741 0
M  V30 485 N 42.8649 1.48995 0.513639 0
M  V30 486 C 43.7749 1.67443 1.64317 0
M  V30 487 C 44.7909 0.556947 1.64846 0
M  V30 488 O 45.9669 0.830082 1.83498 0
M  V30 489 C 43.0319 1.72515 3.00732 0
M  V30 490 C 42.0929 2.96009 3.1093 0
M  V30 491 C 41.3259 3.00829 4.40837 0
M  V30 492 O 41.5489 2.13594 5.28898 0
M  V30 493 O 40.4829 3.93168 4.55744 0
M  V30 494 H 44.3089 2.63106 1.51687 0
M  V30 495 H 41.8939 1.32588 0.688543 0
M  V30 496 H 43.7759 1.78277 3.81831 0
M  V30 497 H 42.4509 0.800278 3.13651 0
M  V30 498 H 41.3579 2.9577 2.29065 0
M  V30 499 H 42.6909 3.87934 3.02933 0
M  V30 500 N 44.343 -0.763751 1.37857 0
M  V30 501 C 45.275 -1.88664 1.30148 0
M  V30 502 C 46.288 -1.61365 0.215685 0
M  V30 503 O 47.477 -1.72134 0.472459 0
M  V30 504 C 44.577 -3.24075 0.991396 0
M  V30 505 C 43.75 -3.78958 2.18426 0
M  V30 506 C 42.809 -4.92862 1.8432 0
M  V30 507 O 41.835 -5.08027 2.56704 0
M  V30 508 N 43.037 -5.75071 0.792081 0
M  V30 509 H 45.802 -1.95791 2.26905 0
M  V30 510 H 43.363 -0.943226 1.31586 0
M  V30 511 H 45.355 -3.97804 0.743935 0
M  V30 512 H 43.925 -3.12399 0.112122 0
M  V30 513 H 43.145 -2.96913 2.59299 0
M  V30 514 H 44.433 -4.12357 2.98058 0
M  V30 515 H 43.831 -5.65375 0.191595 0
M  V30 516 H 42.388 -6.48991 0.60449 0
M  V30 517 N 45.8211 -1.22559 -0.990812 0
M  V30 518 C 46.7691 -0.994798 -2.10253 0
M  V30 519 C 47.7631 0.0627798 -1.69284 0
M  V30 520 O 48.9691 -0.0898392 -1.79776 0
M  V30 521 H 45.3441 -0.304527 -0.687581 0
M  V30 522 H 47.3151 -1.93812 -2.26891 0
M  V30 523 C 46.0641 -0.591439 -3.42633 0
M  V30 524 H 45.3871 -1.3969 -3.74602 0
M  V30 525 H 46.8271 -0.469385 -4.21394 0
M  V30 526 C 45.2861 0.699232 -3.29564 0
M  V30 527 O 45.8161 1.75112 -3.61523 0
M  V30 528 N 44.0221 0.671182 -2.82743 0
M  V30 529 H 43.5691 -0.185136 -2.56934 0
M  V30 530 H 43.5271 1.53502 -2.7438 0
M  V30 531 N 47.2992 1.18797 -1.03562 0
M  V30 532 C 48.5242 1.9314 -0.755764 0
M  V30 533 C 48.9492 1.7537 0.68022 0
M  V30 534 O 48.3072 1.06046 1.47051 0
M  V30 535 C 48.3552 3.42747 -1.12058 0
M  V30 536 O 47.4592 4.11683 -0.243124 0
M  V30 537 H 46.8002 0.602724 -0.278604 0
M  V30 538 H 49.3302 1.50678 -1.3841 0
M  V30 539 H 49.3402 3.93437 -1.08035 0
M  V30 540 H 48.0152 3.55002 -2.16672 0
M  V30 541 H 46.5922 3.71323 -0.342539 0
M  V30 542 N 48.7773 0.814389 1.34928 0
M  V30 543 C 50.1883 0.458364 1.80986 0
M  V30 544 C 50.5393 -1.02042 1.67577 0
M  V30 545 O 49.6643 -1.79352 1.21086 0
M  V30 546 C 50.2593 0.825212 3.28597 0
M  V30 547 C 48.8183 0.521677 3.72767 0
M  V30 548 C 47.9653 1.04668 2.56788 0
M  V30 549 H 50.9163 1.00533 1.22795 0
M  V30 550 H 50.9373 0.12571 3.80292 0
M  V30 551 H 50.4493 1.90154 3.38324 0
M  V30 552 H 48.5503 -0.545589 3.68584 0
M  V30 553 H 48.6633 1.05977 4.67232 0
M  V30 554 H 47.0273 0.468622 2.50352 0
M  V30 555 H 47.8103 2.12927 2.6929 0
M  V30 556 N 50.2554 -1.46986 0.568584 0
M  V30 557 C 51.1654 -2.33942 -0.17555 0
M  V30 558 C 52.1814 -1.48891 -0.90041 0
M  V30 559 O 53.3574 -1.81794 -0.86676 0
M  V30 560 C 50.4224 -3.25811 -1.18524 0
M  V30 561 C 49.4834 -4.26757 -0.466582 0
M  V30 562 C 48.7164 -5.14236 -1.42817 0
M  V30 563 O 48.9394 -5.04379 -2.66379 0
M  V30 564 O 47.8734 -5.94412 -0.946453 0
M  V30 565 H 51.6994 -2.98896 0.538036 0
M  V30 566 H 49.2844 -1.4573 0.329097 0
M  V30 567 H 51.1664 -3.82527 -1.76779 0
M  V30 568 H 49.8414 -2.63471 -1.88055 0
M  V30 569 H 48.7484 -3.73769 0.157451 0
M  V30 570 H 50.0814 -4.91843 0.187485 0
M  V30 571 N 51.7335 -0.305618 -1.54608 0
M  V30 572 C 52.6815 0.584119 -2.25146 0
M  V30 573 C 53.6755 1.13326 -1.25911 0
M  V30 574 O 54.8815 1.08337 -1.43747 0
M  V30 575 H 51.2565 0.206983 -0.722954 0
M  V30 576 H 53.2275 -0.033291 -2.98381 0
M  V30 577 C 51.9765 1.74225 -3.009 0
M  V30 578 H 51.2995 1.32892 -3.77067 0
M  V30 579 H 52.7395 2.34077 -3.53531 0
M  V30 580 C 51.1985 2.64914 -2.0814 0
M  V30 581 O 51.7285 3.66137 -1.65246 0
M  V30 582 N 49.9345 2.3275 -1.74 0
M  V30 583 H 49.4815 1.50479 -2.09078 0
M  V30 584 H 49.4395 2.93694 -1.12211 0
M  V30 585 N 53.2116 1.57565 -0.0334293 0
M  V30 586 C 54.1446 2.05997 0.981866 0
M  V30 587 C 55.1226 0.956647 1.3148 0
M  V30 588 O 56.3066 1.22729 1.43073 0
M  V30 589 C 53.4336 2.48564 2.30074 0
M  V30 590 C 52.4796 3.69958 2.12211 0
M  V30 591 S 53.3126 5.16414 1.41692 0
M  V30 592 C 54.4686 5.6228 2.7494 0
M  V30 593 H 54.7016 2.91792 0.569612 0
M  V30 594 H 52.2346 1.53366 0.178376 0
M  V30 595 H 54.1926 2.73753 3.05892 0
M  V30 596 H 52.8536 1.63106 2.68431 0
M  V30 597 H 52.0466 3.97603 3.09722 0
M  V30 598 H 51.6486 3.44943 1.44535 0
M  V30 599 H 53.9406 5.66783 3.71165 0
M  V30 600 H 54.8836 6.61759 2.51953 0
M  V30 601 H 55.2916 4.89944 2.80384 0
M  V30 602 N 54.6897 -0.239769 1.55765 0
M  V30 603 C 55.6367 -1.29696 1.90913 0
M  V30 604 C 56.6067 -1.47478 0.764164 0
M  V30 605 O 57.7917 -1.61345 1.01845 0
M  V30 606 C 54.9317 -2.64598 2.21544 0
M  V30 607 C 54.0447 -2.54765 3.48882 0
M  V30 608 C 53.1797 -3.82069 3.69049 0
M  V30 609 C 52.2187 -3.66883 4.89963 0
M  V30 610 N 51.3557 -4.86094 5.06614 0
M  V30 611 H 56.1957 -0.990224 2.81067 0
M  V30 612 H 53.7327 -0.477684 1.39128 0
M  V30 613 H 55.6907 -3.43132 2.3731 0
M  V30 614 H 54.3207 -2.93405 1.34585 0
M  V30 615 H 53.3727 -1.67763 3.41409 0
M  V30 616 H 54.6847 -2.39457 4.37563 0
M  V30 617 H 53.8387 -4.69046 3.84812 0
M  V30 618 H 52.5777 -4.00282 2.78614 0
M  V30 619 H 51.5827 -2.78289 4.74168 0
M  V30 620 H 52.8077 -3.50157 5.81865 0
M  V30 621 H 50.7537 -5.04655 4.19117 0
M  V30 622 H 50.6707 -4.73443 5.89396 0
M  V30 623 H 51.9387 -5.74549 5.26795 0
M  V30 624 N 56.1678 -1.49265 -0.50573 0
M  V30 625 C 57.1308 -1.65075 -1.59006 0
M  V30 626 C 58.1308 -0.522768 -1.52065 0
M  V30 627 O 59.3208 -0.789117 -1.55302 0
M  V30 628 C 56.4528 -1.64369 -2.98656 0
M  V30 629 H 57.6458 -2.61784 -1.46319 0
M  V30 630 H 55.1988 -1.38226 -0.729616 0
M  V30 631 H 55.9338 -0.692272 -3.16825 0
M  V30 632 H 55.7188 -2.46282 -3.05103 0
M  V30 633 H 57.2088 -1.78674 -3.77446 0
M  V30 634 N 57.6459 0.756429 -1.3826 0
M  V30 635 C 58.8759 1.54341 -1.3734 0
M  V30 636 C 59.2839 1.89159 0.0393917 0
M  V30 637 O 58.6269 1.5307 1.01565 0
M  V30 638 C 58.6889 2.87238 -2.16182 0
M  V30 639 C 58.3529 2.74973 -3.65019 0
M  V30 640 C 59.3499 2.44962 -4.58574 0
M  V30 641 C 57.0349 2.92515 -4.08338 0
M  V30 642 C 59.0289 2.32642 -5.93428 0
M  V30 643 C 56.7159 2.79815 -5.43274 0
M  V30 644 C 57.7139 2.49921 -6.35632 0
M  V30 645 O 57.4019 2.37275 -7.68086 0
M  V30 646 H 57.1339 0.484281 -0.471643 0
M  V30 647 H 59.6879 0.944152 -1.82414 0
M  V30 648 H 57.9179 3.49342 -1.65822 0
M  V30 649 H 59.6069 3.48731 -2.07705 0
M  V30 650 H 60.3729 2.31081 -4.26412 0
M  V30 651 H 56.2519 3.14781 -3.368 0
M  V30 652 H 59.7959 2.0923 -6.65484 0
M  V30 653 H 55.6929 2.93269 -5.75034 0
M  V30 654 H 56.4609 2.52509 -7.78577 0
M  V30 655 N 59.124 1.23083 0.984299 0
M  V30 656 C 60.054 1.03292 2.09411 0
M  V30 657 C 61.035 -0.048923 1.7003 0
M  V30 658 O 62.22 0.114967 1.93859 0
M  V30 659 C 59.35 0.619155 3.41736 0
M  V30 660 C 58.304 1.64791 3.95004 0
M  V30 661 C 57.63 1.0897 5.23478 0
M  V30 662 C 58.93 3.03999 4.24714 0
M  V30 663 H 60.624 1.96119 2.26225 0
M  V30 664 H 58.17 0.944344 1.08711 0
M  V30 665 H 60.123 0.467777 4.18796 0
M  V30 666 H 58.847 -0.344786 3.24775 0
M  V30 667 H 57.506 1.78721 3.20085 0
M  V30 668 H 57.154 0.11686 5.02864 0
M  V30 669 H 56.854 1.77704 5.60085 0
M  V30 670 H 58.378 0.950093 6.03163 0
M  V30 671 H 59.792 2.93393 4.92538 0
M  V30 672 H 58.189 3.69936 4.72512 0
M  V30 673 H 59.259 3.53285 3.32142 0
M  V30 674 N 60.6021 -1.18246 1.0419 0
M  V30 675 C 61.5121 -2.25574 0.644476 0
M  V30 676 C 62.5281 -1.70845 -0.329826 0
M  V30 677 O 63.7041 -2.00554 -0.184443 0
M  V30 678 C 60.7691 -3.46697 0.014877 0
M  V30 679 C 59.8301 -4.16554 1.03834 0
M  V30 680 C 59.0631 -5.31894 0.438692 0
M  V30 681 O 59.2861 -5.65385 -0.754752 0
M  V30 682 O 58.2201 -5.90459 1.168 0
M  V30 683 H 62.0461 -2.61836 1.53869 0
M  V30 684 H 59.6311 -1.25352 0.812854 0
M  V30 685 H 61.5131 -4.20062 -0.335538 0
M  V30 686 H 60.1881 -3.12255 -0.853138 0
M  V30 687 H 59.0951 -3.45251 1.44057 0
M  V30 688 H 60.4281 -4.54998 1.87716 0
M  V30 689 N 62.0802 -0.821533 -1.34494 0
M  V30 690 C 63.3052 -0.420873 -2.03085 0
M  V30 691 C 63.7302 0.964915 -1.61465 0
M  V30 692 O 63.0882 1.62763 -0.798607 0
M  V30 693 C 63.1362 -0.529414 -3.56693 0
M  V30 694 O 62.2402 0.451302 -4.09923 0
M  V30 695 H 61.5812 -0.173489 -0.640935 0
M  V30 696 H 64.1112 -1.11157 -1.71771 0
M  V30 697 H 64.1212 -0.404671 -4.05988 0
M  V30 698 H 62.7962 -1.54014 -3.86332 0
M  V30 699 H 61.3732 0.285558 -3.71805 0
M  V30 700 N 63.5583 1.46682 -0.576371 0
M  V30 701 C 64.5213 2.28707 0.150239 0
M  V30 702 C 65.5213 1.38035 0.824794 0
M  V30 703 O 66.7113 1.60476 0.677719 0
M  V30 704 C 63.8433 3.18248 1.22192 0
M  V30 705 H 65.0363 2.94423 -0.570521 0
M  V30 706 H 62.5893 1.52688 -0.334078 0
M  V30 707 H 63.3243 2.57265 1.97447 0
M  V30 708 H 63.1093 3.85 0.742812 0
M  V30 709 H 64.5993 3.80001 1.73172 0
M  V30 710 N 65.0364 0.313813 1.54444 0
M  V30 711 C 66.2834 -0.291675 2.00388 0
M  V30 712 C 66.6114 -1.52904 1.2021 0
M  V30 713 O 65.8664 -1.93833 0.269707 0
M  V30 714 C 66.1654 -0.680386 3.50864 0
M  V30 715 C 65.8314 0.456699 4.48581 0
M  V30 716 C 64.4934 0.768824 4.75018 0
M  V30 717 C 66.8454 1.22098 5.06697 0
M  V30 718 C 64.1734 1.84812 5.56831 0
M  V30 719 C 66.5254 2.29029 5.89685 0
M  V30 720 C 65.1894 2.60834 6.14428 0
M  V30 721 H 64.4594 -0.106732 0.733273 0
M  V30 722 H 67.1064 0.43557 1.86481 0
M  V30 723 H 65.4114 -1.48791 3.62448 0
M  V30 724 H 67.1084 -1.16026 3.83847 0
M  V30 725 H 63.6984 0.203337 4.28117 0
M  V30 726 H 67.8824 0.993096 4.86263 0
M  V30 727 H 63.1384 2.09912 5.74236 0
M  V30 728 H 67.3124 2.887 6.33739 0
M  V30 729 H 64.9394 3.44596 6.77612 0
M  V30 730 N 66.5145 -1.57545 0.0417849 0
M  V30 731 C 67.4625 -2.12148 -0.953723 0
M  V30 732 C 68.4565 -1.05104 -1.32852 0
M  V30 733 O 69.6625 -1.23524 -1.30927 0
M  V30 734 H 66.0375 -0.677957 -0.325389 0
M  V30 735 H 68.0085 -2.94707 -0.467991 0
M  V30 736 C 66.7575 -2.6739 -2.22257 0
M  V30 737 H 66.0805 -3.49413 -1.94295 0
M  V30 738 H 67.5205 -3.09227 -2.90094 0
M  V30 739 C 65.9795 -1.60723 -2.96091 0
M  V30 740 O 66.5095 -1.01449 -3.88679 0
M  V30 741 N 64.7155 -1.32466 -2.58652 0
M  V30 742 H 64.2625 -1.80856 -1.83437 0
M  V30 743 H 64.2205 -0.61325 -3.08361 0
M  V30 744 N 67.9926 0.231505 -1.5589 0
M  V30 745 C 69.2206 0.974505 -1.82513 0
M  V30 746 C 69.6356 1.78344 -0.619591 0
M  V30 747 O 68.9926 1.77792 0.411848 0
M  V30 748 C 69.0436 1.90007 -3.07538 0
M  V30 749 O 68.7646 1.12385 -4.2344 0
M  V30 750 C 70.2656 2.75779 -3.47075 0
M  V30 751 H 67.4856 0.286065 -0.606966 0
M  V30 752 H 70.0296 0.249739 -2.02969 0
M  V30 753 H 68.1846 2.57891 -2.89086 0
M  V30 754 H 68.5986 1.75125 -4.944 0
M  V30 755 H 70.0726 3.36443 -4.37619 0
M  V30 756 H 70.5496 3.47672 -2.68367 0
M  V30 757 H 71.1556 2.13323 -3.67931 0
M  V30 758 N 69.4707 1.49531 0.497807 0
M  V30 759 C 70.3807 1.69176 1.62532 0
M  V30 760 C 71.3967 0.5744 1.64246 0
M  V30 761 O 72.5727 0.849497 1.82608 0
M  V30 762 C 69.6377 1.75695 2.98885 0
M  V30 763 C 68.6987 2.9929 3.07773 0
M  V30 764 C 67.9317 3.05488 4.37622 0
M  V30 765 O 68.1547 2.19192 5.26603 0
M  V30 766 O 67.0887 3.9798 4.51548 0
M  V30 767 H 70.9147 2.647 1.48887 0
M  V30 768 H 68.4997 1.3331 0.674441 0
M  V30 769 H 70.3817 1.82317 3.79919 0
M  V30 770 H 69.0567 0.8335 3.12785 0
M  V30 771 H 67.9637 2.98183 2.25915 0
M  V30 772 H 69.2967 3.91125 2.98801 0
M  V30 773 N 70.9488 -0.749086 1.3866 0
M  V30 774 C 71.8808 -1.87273 1.32142 0
M  V30 775 C 72.8938 -1.61127 0.232787 0
M  V30 776 O 74.0828 -1.71623 0.49069 0
M  V30 777 C 71.1828 -3.23005 1.02571 0
M  V30 778 C 70.3558 -3.7662 2.22433 0
M  V30 779 C 69.4148 -4.90879 1.89537 0
M  V30 780 O 68.4408 -5.05276 2.62078 0
M  V30 781 N 69.6428 -5.74198 0.853031 0
M  V30 782 H 72.4078 -1.93373 2.28969 0
M  V30 783 H 69.9688 -0.929216 1.32579 0
M  V30 784 H 71.9608 -3.96992 0.786085 0
M  V30 785 H 70.5308 -3.12262 0.145249 0
M  V30 786 H 69.7508 -2.94147 2.62434 0
M  V30 787 H 71.0388 -4.09173 3.02415 0
M  V30 788 H 70.4368 -5.6514 0.25155 0
M  V30 789 H 68.9938 -6.48313 0.67329 0
M  V30 790 N 72.4269 -1.23603 -0.977757 0
M  V30 791 C 73.3569 -1.04401 -2.0886 0
M  V30 792 C 74.3379 0.0399052 -1.70053 0
M  V30 793 O 75.5229 -0.125246 -1.93796 0
M  V30 794 C 72.6529 -0.637269 -3.41403 0
M  V30 795 C 71.6069 -1.66883 -3.94124 0
M  V30 796 C 70.9329 -1.11745 -5.22893 0
M  V30 797 C 72.2329 -3.06247 -4.23096 0
M  V30 798 H 73.9269 -1.97316 -2.25182 0
M  V30 799 H 71.4729 -0.950096 -1.08209 0
M  V30 800 H 73.4259 -0.48998 -4.18542 0
M  V30 801 H 72.1499 0.327557 -3.24953 0
M  V30 802 H 70.8089 -1.80416 -3.19133 0
M  V30 803 H 70.4569 -0.143527 -5.02795 0
M  V30 804 H 70.1569 -1.80672 -5.59134 0
M  V30 805 H 71.6809 -0.982067 -6.02651 0
M  V30 806 H 73.0949 -2.96001 -4.90975 0
M  V30 807 H 71.4919 -3.72436 -4.70544 0
M  V30 808 H 72.5619 -3.55041 -3.30263 0
M  V30 809 N 73.905 1.17692 -1.04816 0
M  V30 810 C 74.815 2.25229 -0.65643 0
M  V30 811 C 75.831 1.71018 0.320761 0
M  V30 812 O 77.007 2.00649 0.173805 0
M  V30 813 C 74.072 3.46684 -0.0332629 0
M  V30 814 C 73.133 4.15997 -1.06042 0
M  V30 815 C 72.366 5.31654 -0.466893 0
M  V30 816 O 72.589 5.65777 0.724758 0
M  V30 817 O 71.523 5.89831 -1.1993 0
M  V30 818 H 75.349 2.61016 -1.55255 0
M  V30 819 H 72.934 1.24919 -0.81949 0
M  V30 820 H 74.816 4.20234 0.313256 0
M  V30 821 H 73.491 3.12703 0.836566 0
M  V30 822 H 72.398 3.44482 -1.45886 0
M  V30 823 H 73.731 4.53996 -1.90127 0
M  V30 824 N 75.3831 0.828654 1.34056 0
M  V30 825 C 76.3301 0.252567 2.29414 0
M  V30 826 C 77.3001 -0.62588 1.53857 0
M  V30 827 O 78.4851 -0.566312 1.82202 0
M  V30 828 C 75.6251 -0.574831 3.40279 0
M  V30 829 C 74.7381 0.326499 4.30764 0
M  V30 830 C 73.8731 -0.511016 5.28736 0
M  V30 831 C 72.9121 0.389342 6.1086 0
M  V30 832 N 72.0491 -0.409439 7.00905 0
M  V30 833 H 76.8891 1.07108 2.78086 0
M  V30 834 H 74.4261 0.539677 1.36843 0
M  V30 835 H 76.3841 -1.06992 4.03248 0
M  V30 836 H 75.0141 -1.35841 2.92826 0
M  V30 837 H 74.0661 0.939837 3.68607 0
M  V30 838 H 75.3781 1.01857 4.88289 0
M  V30 839 H 74.5321 -1.07035 5.97184 0
M  V30 840 H 73.2711 -1.23657 4.71763 0
M  V30 841 H 72.2761 0.960769 5.4134 0
M  V30 842 H 73.5011 1.1131 6.69916 0
M  V30 843 H 71.4471 -1.11856 6.46393 0
M  V30 844 H 71.3641 0.224126 7.55668 0
M  V30 845 H 72.6321 -0.951336 7.73673 0
M  V30 846 N 76.8612 -1.46375 0.584142 0
M  V30 847 C 77.7712 -2.34115 -0.150728 0
M  V30 848 C 78.7872 -1.49838 -0.884567 0
M  V30 849 O 79.9632 -1.82704 -0.847429 0
M  V30 850 C 77.0282 -3.2705 -1.15062 0
M  V30 851 C 76.0892 -4.27228 -0.421293 0
M  V30 852 C 75.3222 -5.15722 -1.37355 0
M  V30 853 O 75.5452 -5.07176 -2.61014 0
M  V30 854 O 74.4792 -5.95383 -0.883355 0
M  V30 855 H 78.3052 -2.98309 0.569708 0
M  V30 856 H 75.8902 -1.45373 0.344535 0
M  V30 857 H 77.7722 -3.84381 -1.72712 0
M  V30 858 H 76.4472 -2.65451 -1.8525 0
M  V30 859 H 75.3542 -3.7358 0.197085 0
M  V30 860 H 76.6872 -4.91616 0.239641 0
M  V30 861 N 78.3393 -0.321999 -1.54275 0
M  V30 862 C 79.2693 0.537411 -2.27231 0
M  V30 863 C 80.2503 1.12064 -1.27968 0
M  V30 864 O 81.4353 1.14606 -1.56777 0
M  V30 865 C 78.5653 1.69919 -3.02894 0
M  V30 866 C 77.5193 1.24534 -4.09482 0
M  V30 867 C 76.8453 2.49394 -4.72977 0
M  V30 868 C 78.1453 0.361335 -5.21049 0
M  V30 869 H 79.8393 -0.0711406 -2.99315 0
M  V30 870 H 77.3853 -0.0356555 -1.43956 0
M  V30 871 H 79.3383 2.30668 -3.52662 0
M  V30 872 H 78.0623 2.33431 -2.28424 0
M  V30 873 H 76.7213 0.660782 -3.60596 0
M  V30 874 H 76.3693 3.11265 -3.95124 0
M  V30 875 H 76.0693 2.19718 -5.44975 0
M  V30 876 H 77.5933 3.10908 -5.25517 0
M  V30 877 H 79.0073 0.875072 -5.66582 0
M  V30 878 H 77.4043 0.157428 -5.99893 0
M  V30 879 H 78.4743 -0.60822 -4.8107 0
M  V30 880 N 79.8174 1.5752 -0.0501392 0
M  V30 881 C 81.0424 1.97376 0.636997 0
M  V30 882 C 81.4674 0.927466 1.63645 0
M  V30 883 O 80.8254 -0.10941 1.8097 0
M  V30 884 C 80.8734 3.36304 1.30123 0
M  V30 885 O 79.9774 3.34156 2.41689 0
M  V30 886 H 79.3184 0.642998 0.165679 0
M  V30 887 H 81.8484 2.04258 -0.118233 0
M  V30 888 H 81.8584 3.73008 1.65315 0
M  V30 889 H 80.5334 4.11993 0.568746 0
M  V30 890 H 79.1104 3.09196 2.08451 0
M  V30 891 N 81.2955 -0.223234 1.56011 0
M  V30 892 C 82.2435 -1.29627 1.93131 0
M  V30 893 C 83.2375 -1.48608 0.813146 0
M  V30 894 O 84.4435 -1.49802 0.997966 0
M  V30 895 H 80.8185 -0.434563 0.613726 0
M  V30 896 H 82.7895 -0.955995 2.82672 0
M  V30 897 C 81.5385 -2.63983 2.26292 0
M  V30 898 H 80.8615 -2.50185 3.11846 0
M  V30 899 H 82.3015 -3.3788 2.56151 0
M  V30 900 C 80.7605 -3.18866 1.08747 0
M  V30 901 O 81.2905 -4.00192 0.347727 0
M  V30 902 N 79.4965 -2.77217 0.871743 0
M  V30 903 H 79.0435 -2.1119 1.47501 0
M  V30 904 H 79.0015 -3.1428 0.0869905 0
M  V30 905 N 82.7736 -1.49793 -0.48987 0
M  V30 906 C 83.7066 -1.61898 -1.60823 0
M  V30 907 C 84.6846 -0.467651 -1.5573 0
M  V30 908 O 85.8686 -0.684682 -1.75626 0
M  V30 909 C 82.9956 -1.58422 -2.99366 0
M  V30 910 C 82.0416 -2.78889 -3.22682 0
M  V30 911 S 82.8746 -4.40429 -3.04602 0
M  V30 912 C 84.0306 -4.39617 -4.4552 0
M  V30 913 H 84.2636 -2.56502 -1.50312 0
M  V30 914 H 81.7966 -1.38822 -0.675849 0
M  V30 915 H 83.7546 -1.57103 -3.79248 0
M  V30 916 H 82.4156 -0.650866 -3.07283 0
M  V30 917 H 81.6086 -2.72708 -4.23847 0
M  V30 918 H 81.2106 -2.77678 -2.50541 0
M  V30 919 H 83.5026 -4.12022 -5.37814 0
M  V30 920 H 84.4456 -5.41097 -4.56749 0
M  V30 921 H 84.8536 -3.69554 -4.2672 0
M  V30 922 N 84.2517 0.741722 -1.39055 0
M  V30 923 C 85.4767 1.53607 -1.39354 0
M  V30 924 C 85.9017 1.88096 0.0116905 0
M  V30 925 O 85.2597 1.5143 0.996924 0
M  V30 926 C 85.3077 2.80441 -2.26682 0
M  V30 927 O 84.4117 3.76088 -1.69208 0
M  V30 928 H 83.7527 0.464142 -0.474835 0
M  V30 929 H 86.2827 0.915665 -1.82967 0
M  V30 930 H 86.2927 3.29246 -2.40959 0
M  V30 931 H 84.9677 2.5467 -3.2881 0
M  V30 932 H 83.5447 3.34833 -1.64138 0
M  V30 933 N 85.7298 1.2412 0.971189 0
M  V30 934 C 86.9548 1.10667 1.75407 0
M  V30 935 C 87.3798 -0.337048 1.85056 0
M  V30 936 O 86.7378 -1.24396 1.31892 0
M  V30 937 C 86.7858 1.74726 3.15441 0
M  V30 938 O 85.8898 1.01566 3.99697 0
M  V30 939 H 85.2308 0.387341 0.539317 0
M  V30 940 H 87.7608 1.64358 1.2185 0
M  V30 941 H 87.7708 1.80341 3.6598 0
M  V30 942 H 86.4458 2.79773 3.07734 0
M  V30 943 H 85.0228 1.03713 3.58187 0
M  V30 944 N 87.2079 -1.17134 1.05439 0
M  V30 945 C 88.1399 -2.2078 0.615539 0
M  V30 946 C 89.1529 -1.59584 -0.322001 0
M  V30 947 O 90.3419 -1.78133 -0.114344 0
M  V30 948 C 87.4419 -3.38691 -0.118938 0
M  V30 949 C 86.6149 -4.29454 0.829924 0
M  V30 950 C 85.6739 -5.26024 0.136258 0
M  V30 951 O 84.6999 -5.63952 0.77115 0
M  V30 952 N 85.9019 -5.69487 -1.1254 0
M  V30 953 H 88.6669 -2.59052 1.50705 0
M  V30 954 H 86.2279 -1.32058 0.936603 0
M  V30 955 H 88.2199 -4.00329 -0.593179 0
M  V30 956 H 86.7899 -2.98996 -0.91215 0
M  V30 957 H 86.0099 -3.65211 1.48373 0
M  V30 958 H 87.2979 -4.86984 1.47392 0
M  V30 959 H 86.6959 -5.4075 -1.6615 0
M  V30 960 H 85.2529 -6.33257 -1.54366 0
M  V30 961 N 88.686 -0.835752 -1.33615 0
M  V30 962 C 89.933 -0.429959 -1.97883 0
M  V30 963 C 90.261 1.01006 -1.66217 0
M  V30 964 O 89.516 1.72047 -0.93265 0
M  V30 965 C 89.815 -0.593925 -3.52431 0
M  V30 966 C 89.481 -2.00158 -4.04039 0
M  V30 967 C 88.143 -2.38662 -4.17844 0
M  V30 968 C 90.495 -2.92117 -4.31644 0
M  V30 969 C 87.823 -3.68435 -4.56588 0
M  V30 970 C 90.175 -4.21368 -4.71838 0
M  V30 971 C 88.839 -4.59833 -4.83849 0
M  V30 972 H 88.109 -0.157333 -0.724104 0
M  V30 973 H 90.756 -1.06217 -1.59343 0
M  V30 974 H 89.061 0.121619 -3.91611 0
M  V30 975 H 90.758 -0.260282 -4.00154 0
M  V30 976 H 87.348 -1.69252 -3.93766 0
M  V30 977 H 91.532 -2.63608 -4.20505 0
M  V30 978 H 86.788 -3.98046 -4.64079 0
M  V30 979 H 90.962 -4.92703 -4.92155 0
M  V30 980 H 88.589 -5.60438 -5.13627 0
M  V30 981 N 90.1641 1.46063 -0.591896 0
M  V30 982 C 91.4111 2.02338 -0.0809991 0
M  V30 983 C 91.7391 1.46228 1.28249 0
M  V30 984 O 90.9941 0.620818 1.85592 0
M  V30 985 C 91.2931 3.57391 0.0249813 0
M  V30 986 C 90.9591 4.32583 -1.27211 0
M  V30 987 C 89.6211 4.52844 -1.62745 0
M  V30 988 C 91.9731 4.75687 -2.13005 0
M  V30 989 C 89.3011 5.13462 -2.83855 0
M  V30 990 C 91.6531 5.37644 -3.3335 0
M  V30 991 C 90.3171 5.5613 -3.69155 0
M  V30 992 H 89.5871 0.740407 -0.0296397 0
M  V30 993 H 92.2341 1.75321 -0.770374 0
M  V30 994 H 90.5391 3.83597 0.797537 0
M  V30 995 H 92.2361 3.98621 0.436184 0
M  V30 996 H 88.8261 4.17116 -0.985499 0
M  V30 997 H 93.0101 4.59782 -1.86855 0
M  V30 998 H 88.2661 5.25965 -3.11722 0
M  V30 999 H 92.4401 5.7 -4.00092 0
M  V30 1000 H 90.0671 6.0287 -4.63089 0
M  V30 1001 N 91.6422 0.330177 1.54103 0
M  V30 1002 C 92.8892 -0.270405 2.00686 0
M  V30 1003 C 93.2172 -1.51621 1.21825 0
M  V30 1004 O 92.4722 -1.93536 0.29025 0
M  V30 1005 C 92.7712 -0.643134 3.51566 0
M  V30 1006 C 92.4372 0.504251 4.48072 0
M  V30 1007 C 91.0992 0.819163 4.74176 0
M  V30 1008 C 93.4512 1.27465 5.05373 0
M  V30 1009 C 90.7792 1.90708 5.5484 0
M  V30 1010 C 93.1312 2.35271 5.87223 0
M  V30 1011 C 91.7952 2.67336 6.11627 0
M  V30 1012 H 91.0652 -0.0989482 0.734364 0
M  V30 1013 H 93.7122 0.455324 1.86008 0
M  V30 1014 H 92.0172 -1.44938 3.64006 0
M  V30 1015 H 93.7142 -1.11949 3.85056 0
M  V30 1016 H 90.3042 0.248733 4.27878 0
M  V30 1017 H 94.4882 1.04462 4.85182 0
M  V30 1018 H 89.7442 2.15991 5.71977 0
M  V30 1019 H 93.9182 2.95405 6.30641 0
M  V30 1020 H 91.5452 3.51763 6.73919 0
M  V30 1021 N 93.1203 -1.57491 0.0584922 0
M  V30 1022 C 94.3693 -1.92155 -0.613146 0
M  V30 1023 C 94.6823 -0.939334 -1.71569 0
M  V30 1024 O 95.8883 -1.17829 -2.44599 0
M  V30 1025 C 94.3443 -3.41303 -1.14195 0
M  V30 1026 C 93.9523 -4.47944 -0.0711265 0
M  V30 1027 C 95.6963 -3.84988 -1.78841 0
M  V30 1028 C 93.6033 -5.88212 -0.613225 0
M  V30 1029 H 92.5333 -0.717162 -0.232796 0
M  V30 1030 H 95.1843 -1.83049 0.12857 0
M  V30 1031 H 93.5663 -3.45437 -1.93621 0
M  V30 1032 H 94.7403 -4.55408 0.702836 0
M  V30 1033 H 93.0553 -4.13644 0.478313 0
M  V30 1034 H 95.6523 -4.87159 -2.20408 0
M  V30 1035 H 95.9953 -3.21632 -2.64308 0
M  V30 1036 H 96.5283 -3.83401 -1.06059 0
M  V30 1037 H 93.2673 -6.55183 0.203978 0
M  V30 1038 H 92.7873 -5.84294 -1.35501 0
M  V30 1039 H 94.4663 -6.37687 -1.09383 0
M  V30 1040 N 94.5984 0.214957 -1.56127 0
M  V30 1041 C 95.8284 0.953707 -1.8327 0
M  V30 1042 C 96.2364 1.78181 -0.636262 0
M  V30 1043 O 95.5794 1.79191 0.404516 0
M  V30 1044 C 95.6414 1.91516 -3.0424 0
M  V30 1045 C 95.3054 1.27094 -4.38972 0
M  V30 1046 C 96.3024 0.657575 -5.15725 0
M  V30 1047 C 93.9874 1.28073 -4.85698 0
M  V30 1048 C 95.9814 0.0625968 -6.37369 0
M  V30 1049 C 93.6684 0.681914 -6.07283 0
M  V30 1050 C 94.6664 0.0739046 -6.8296 0
M  V30 1051 O 94.3544 -0.515582 -8.02245 0
M  V30 1052 H 94.0864 0.284764 -0.613095 0
M  V30 1053 H 96.6404 0.233283 -2.04071 0
M  V30 1054 H 94.8704 2.67475 -2.79274 0
M  V30 1055 H 96.5594 2.52001 -3.18198 0
M  V30 1056 H 97.3254 0.642288 -4.80728 0
M  V30 1057 H 93.2044 1.74337 -4.26764 0
M  V30 1058 H 96.7484 -0.412593 -6.96379 0
M  V30 1059 H 92.6454 0.694636 -6.41752 0
M  V30 1060 H 93.4134 -0.410544 -8.1747 0
M  V30 1061 N 96.0765 1.50051 0.48192 0
M  V30 1062 C 97.3235 1.60498 1.23477 0
M  V30 1063 C 97.6515 0.300331 1.92167 0
M  V30 1064 O 96.9065 -0.713094 1.82246 0
M  V30 1065 C 97.2055 2.72717 2.30998 0
M  V30 1066 C 96.8715 4.13572 1.79636 0
M  V30 1067 C 95.5335 4.519 1.65348 0
M  V30 1068 C 97.8855 5.01649 1.41412 0
M  V30 1069 C 95.2135 5.76057 1.11244 0
M  V30 1070 C 97.5655 6.26343 0.887538 0
M  V30 1071 C 96.2295 6.63483 0.731207 0
M  V30 1072 H 95.4995 0.587303 0.451836 0
M  V30 1073 H 98.1465 1.83948 0.532468 0
M  V30 1074 H 96.4515 2.43312 3.07094 0
M  V30 1075 H 98.1485 2.78006 2.88988 0
M  V30 1076 H 94.7385 3.83329 1.91721 0
M  V30 1077 H 98.9225 4.72679 1.51289 0
M  V30 1078 H 94.1785 6.03516 0.978686 0
M  V30 1079 H 98.3525 6.93958 0.582654 0
M  V30 1080 H 95.9795 7.59568 0.309806 0
M  V30 1081 N 97.5546 -0.734337 1.39446 0
M  V30 1082 C 98.8316 -1.48579 1.27215 0
M  V30 1083 C 99.2116 -2.1077 -0.117968 0
M  V30 1084 O 98.5596 -1.98646 -1.12924 0
M  V30 1085 C 98.7696 -2.53667 2.39696 0
M  V30 1086 C 100.118 -3.20031 2.79044 0
M  V30 1087 O 101.142 -2.6398 2.39151 0
M  V30 1088 O 100.001 -4.21455 3.47905 0
M  V30 1089 H 97.0946 -0.659816 0.49857 0
M  V30 1090 H 99.6406 -0.768106 1.51322 0
M  V30 1091 H 98.4126 -2.06096 3.32626 0
M  V30 1092 H 98.0356 -3.32994 2.17258 0
M  V30 1093 N 99.0327 -1.24633 -0.964593 0
M  V30 1094 C 99.9827 -1.00841 -2.04487 0
M  V30 1095 C 100.967 0.0512468 -1.60818 0
M  V30 1096 O 102.159 -0.162865 -1.76249 0
M  V30 1097 C 99.2877 -0.618474 -3.37683 0
M  V30 1098 C 98.3737 -1.71437 -3.87905 0
M  V30 1099 N 98.7647 -2.9477 -4.11029 0
M  V30 1100 C 97.0627 -1.5926 -4.16596 0
M  V30 1101 C 97.7637 -3.65834 -4.52261 0
M  V30 1102 N 96.7397 -2.9341 -4.57615 0
M  V30 1103 H 100.542 -1.94487 -2.20345 0
M  V30 1104 H 98.0557 -1.14805 -1.14863 0
M  V30 1105 H 100.053 -0.429247 -4.14684 0
M  V30 1106 H 98.7127 0.310766 -3.23209 0
M  V30 1107 H 99.7237 -3.30917 -3.9839 0
M  V30 1108 H 96.4007 -0.731606 -4.1104 0
M  V30 1109 H 97.7907 -4.71646 -4.78539 0
M  V30 1110 N 100.511 1.16574 -1.06058 0
M  V30 1111 C 101.421 2.2452 -0.680282 0
M  V30 1112 C 102.437 1.71348 0.302604 0
M  V30 1113 O 103.613 2.00822 0.152513 0
M  V30 1114 C 100.678 3.46629 -0.0700315 0
M  V30 1115 C 99.7388 4.14849 -1.10448 0
M  V30 1116 C 98.9718 5.31129 -0.523256 0
M  V30 1117 O 99.1948 5.66514 0.664709 0
M  V30 1118 O 98.1288 5.88526 -1.26179 0
M  V30 1119 H 101.955 2.59355 -1.58015 0
M  V30 1120 H 99.5398 1.24043 -0.832694 0
M  V30 1121 H 101.422 4.20543 0.268667 0
M  V30 1122 H 100.097 3.13573 0.803353 0
M  V30 1123 H 99.0038 3.42916 -1.49532 0
M  V30 1124 H 100.337 4.51954 -1.94931 0
M  V30 1125 N 101.989 0.842826 1.3317 0
M  V30 1126 C 103.238 0.436738 1.96915 0
M  V30 1127 C 103.551 -1.01025 1.67491 0
M  V30 1128 O 104.757 -1.5212 2.24881 0
M  V30 1129 C 103.213 0.730021 3.52418 0
M  V30 1130 C 102.821 2.19195 3.90714 0
M  V30 1131 C 104.565 0.391076 4.22695 0
M  V30 1132 C 102.472 2.42907 5.39212 0
M  V30 1133 H 101.402 0.15958 0.736919 0
M  V30 1134 H 104.053 1.03196 1.51733 0
M  V30 1135 H 102.435 0.0643755 3.95948 0
M  V30 1136 H 103.609 2.8984 3.58231 0
M  V30 1137 H 101.924 2.49425 3.33431 0
M  V30 1138 H 104.521 0.545817 5.31907 0
M  V30 1139 H 104.864 -0.666294 4.10933 0
M  V30 1140 H 105.397 1.01212 3.84709 0
M  V30 1141 H 102.136 3.47224 5.55982 0
M  V30 1142 H 101.656 1.76827 5.73142 0
M  V30 1143 H 103.335 2.2626 6.06148 0
M  V30 1144 N 103.467 -1.45747 0.599634 0
M  V30 1145 C 104.43 -2.28917 -0.113835 0
M  V30 1146 C 105.43 -1.3933 -0.802729 0
M  V30 1147 O 106.62 -1.61534 -0.652103 0
M  V30 1148 C 103.752 -3.20152 -1.17114 0
M  V30 1149 H 104.945 -2.93478 0.617289 0
M  V30 1150 H 102.498 -1.52137 0.358327 0
M  V30 1151 H 103.233 -2.60374 -1.93329 0
M  V30 1152 H 103.018 -3.86133 -0.681468 0
M  V30 1153 H 104.508 -3.82708 -1.67105 0
M  V30 1154 N 104.945 -0.338344 -1.53925 0
M  V30 1155 C 106.193 0.259245 -2.0043 0
M  V30 1156 C 106.514 1.51484 -1.22791 0
M  V30 1157 O 105.784 1.93037 -0.33368 0
M  V30 1158 H 104.364 0.0987845 -0.740439 0
M  V30 1159 H 107.026 -0.458302 -1.89435 0
M  V30 1160 H 106.122 0.505334 -3.07982 0
M  V30 1161 N 106.423 1.57458 -0.0668435 0
M  V30 1162 C 107.653 1.97337 0.611677 0
M  V30 1163 C 108.061 0.943744 1.63982 0
M  V30 1164 O 107.404 -0.0785584 1.83532 0
M  V30 1165 C 107.466 3.33511 1.34205 0
M  V30 1166 C 107.13 4.54598 0.467941 0
M  V30 1167 C 108.127 5.19186 -0.272439 0
M  V30 1168 C 105.812 5.0075 0.39427 0
M  V30 1169 C 107.806 6.28274 -1.07476 0
M  V30 1170 C 105.493 6.09711 -0.411729 0
M  V30 1171 C 106.491 6.73335 -1.14492 0
M  V30 1172 O 106.179 7.80199 -1.93763 0
M  V30 1173 H 105.911 0.654042 0.170893 0
M  V30 1174 H 108.465 2.04961 -0.134289 0
M  V30 1175 H 106.695 3.22487 2.13398 0
M  V30 1176 H 108.384 3.58029 1.91233 0
M  V30 1177 H 109.15 4.84477 -0.225086 0
M  V30 1178 H 105.029 4.51009 0.954569 0
M  V30 1179 H 108.573 6.77866 -1.64755 0
M  V30 1180 H 104.47 6.43854 -0.460664 0
M  V30 1181 H 105.238 7.97053 -1.86142 0
M  V30 1182 N 107.901 -0.206675 1.56239 0
M  V30 1183 C 109.147 -0.930218 1.80208 0
M  V30 1184 C 109.48 -1.83387 0.638981 0
M  V30 1185 O 108.755 -1.91119 -0.361066 0
M  V30 1186 C 109.038 -1.75641 3.1436 0
M  V30 1187 C 108.891 -0.878257 4.41142 0
M  V30 1188 C 110.21 -2.73129 3.45092 0
M  V30 1189 H 107.329 -0.336742 0.655571 0
M  V30 1190 H 109.971 -0.198222 1.88963 0
M  V30 1191 H 108.121 -2.38048 3.07027 0
M  V30 1192 H 109.793 -0.269787 4.6051 0
M  V30 1193 H 108.036 -0.184385 4.33408 0
M  V30 1194 H 108.707 -1.49106 5.3148 0
M  V30 1195 H 111.183 -2.20856 3.52649 0
M  V30 1196 H 110.059 -3.28028 4.40101 0
M  V30 1197 H 110.32 -3.51606 2.68003 0
M  V30 1198 N 109.379 -1.50304 -0.473955 0
M  V30 1199 C 110.326 -1.68959 -1.57231 0
M  V30 1200 C 111.296 -0.530899 -1.57387 0
M  V30 1201 O 112.481 -0.761133 -1.74961 0
M  V30 1202 C 109.621 -1.7871 -2.95223 0
M  V30 1203 C 108.734 -3.06061 -3.04878 0
M  V30 1204 C 107.869 -3.06626 -4.33767 0
M  V30 1205 C 106.908 -4.28443 -4.37154 0
M  V30 1206 N 106.045 -4.26763 -5.5751 0
M  V30 1207 H 110.885 -2.6273 -1.40631 0
M  V30 1208 H 108.422 -1.30241 -0.683789 0
M  V30 1209 H 110.38 -1.82344 -3.75242 0
M  V30 1210 H 109.01 -0.883806 -3.10465 0
M  V30 1211 H 108.062 -3.11911 -2.17751 0
M  V30 1212 H 109.374 -3.96039 -3.0324 0
M  V30 1213 H 108.528 -3.08973 -5.22131 0
M  V30 1214 H 107.267 -2.14473 -4.3801 0
M  V30 1215 H 106.272 -4.2631 -3.47188 0
M  V30 1216 H 107.497 -5.2182 -4.34605 0
M  V30 1217 H 105.443 -3.37462 -5.62544 0
M  V30 1218 H 105.36 -5.10507 -5.57601 0
M  V30 1219 H 106.628 -4.33253 -6.48006 0
M  V30 1220 N 110.857 0.726932 -1.39834 0
M  V30 1221 C 112.103 1.48884 -1.377 0
M  V30 1222 C 112.436 1.94185 0.0244852 0
M  V30 1223 O 111.711 1.67361 0.990986 0
M  V30 1224 C 111.994 2.72288 -2.3565 0
M  V30 1225 C 111.847 2.32956 -3.84775 0
M  V30 1226 C 113.166 3.74414 -2.31306 0
M  V30 1227 H 110.285 0.540062 -0.5015 0
M  V30 1228 H 112.927 0.830547 -1.70886 0
M  V30 1229 H 111.077 3.28457 -2.07481 0
M  V30 1230 H 112.749 1.82356 -4.23726 0
M  V30 1231 H 110.992 1.65088 -4.01159 0
M  V30 1232 H 111.663 3.21362 -4.4881 0
M  V30 1233 H 114.139 3.27849 -2.56231 0
M  V30 1234 H 113.015 4.58414 -3.01907 0
M  V30 1235 H 113.276 4.21909 -1.32081 0
M  V30 1236 N 112.336 1.25143 0.95797 0
M  V30 1237 C 113.284 1.05019 2.07542 0
M  V30 1238 C 114.278 -0.0178751 1.69391 0
M  V30 1239 O 115.484 0.137472 1.79474 0
M  V30 1240 H 111.859 0.32265 0.679265 0
M  V30 1241 H 113.83 1.99759 2.21673 0
M  V30 1242 C 112.579 0.682074 3.40944 0
M  V30 1243 H 111.902 1.49573 3.70767 0
M  V30 1244 H 113.342 0.580945 4.20001 0
M  V30 1245 C 111.801 -0.611608 3.31302 0
M  V30 1246 O 112.331 -1.65465 3.66038 0
M  V30 1247 N 110.537 -0.595982 2.84423 0
M  V30 1248 H 110.084 0.253192 2.56353 0
M  V30 1249 H 110.042 -1.46173 2.78354 0
M  V30 1250 N 113.814 -1.1601 1.06675 0
M  V30 1251 C 115.063 -1.85973 0.780818 0
M  V30 1252 C 115.376 -1.82819 -0.695444 0
M  V30 1253 O 116.582 -2.484 -1.09589 0
M  V30 1254 C 115.038 -3.33757 1.34665 0
M  V30 1255 C 114.646 -3.45374 2.85343 0
M  V30 1256 C 116.39 -4.0895 1.13843 0
M  V30 1257 C 114.297 -4.87266 3.35151 0
M  V30 1258 H 113.227 -0.696661 0.288407 0
M  V30 1259 H 115.878 -1.30903 1.28595 0
M  V30 1260 H 114.26 -3.88456 0.769274 0
M  V30 1261 H 115.434 -3.00816 3.49065 0
M  V30 1262 H 113.749 -2.83619 3.04876 0
M  V30 1263 H 116.346 -5.13654 1.4854 0
M  V30 1264 H 116.689 -4.16229 0.0770282 0
M  V30 1265 H 117.222 -3.605 1.68179 0
M  V30 1266 H 113.961 -4.85168 4.40786 0
M  V30 1267 H 113.481 -5.32433 2.76179 0
M  V30 1268 H 115.16 -5.56097 3.30704 0
M  V30 1269 N 115.292 -0.849877 -1.32721 0
M  V30 1270 C 116.569 -0.372405 -1.92022 0
M  V30 1271 C 116.949 1.1435 -1.77447 0
M  V30 1272 O 116.297 1.96296 -1.16962 0
M  V30 1273 C 116.507 -0.831482 -3.3895 0
M  V30 1274 C 117.855 -0.845882 -4.16089 0
M  V30 1275 O 118.879 -0.775806 -3.47649 0
M  V30 1276 O 117.738 -0.943753 -5.38289 0
M  V30 1277 H 114.832 -0.107667 -0.819961 0
M  V30 1278 H 117.378 -0.93646 -1.41522 0
M  V30 1279 H 116.15 -1.87448 -3.4348 0
M  V30 1280 H 115.773 -0.24461 -3.96847 0
M  V30 1281 N 116.77 1.45427 -0.607355 0
M  V30 1282 C 118.047 1.9557 -0.0344566 0
M  V30 1283 C 118.427 1.54979 1.43334 0
M  V30 1284 O 117.775 0.812241 2.13576 0
M  V30 1285 C 117.985 3.48226 -0.232321 0
M  V30 1286 C 119.333 4.2445 -0.113001 0
M  V30 1287 O 120.357 3.55829 -0.162431 0
M  V30 1288 O 119.216 5.465 0.00209442 0
M  V30 1289 H 116.31 0.826222 0.0358667 0
M  V30 1290 H 118.856 1.55594 -0.6774 0
M  V30 1291 H 117.628 3.70739 -1.25174 0
M  V30 1292 H 117.251 3.95092 0.445896 0
M  V30 1293 N 118.248 0.346503 1.53744 0
M  V30 1294 C 119.211 -0.496439 2.23759 0
M  V30 1295 C 120.211 -1.0252 1.2388 0
M  V30 1296 O 121.401 -0.913974 1.48297 0
M  V30 1297 C 118.533 -1.69187 2.95954 0
M  V30 1298 H 119.726 0.115952 2.99676 0
M  V30 1299 H 117.279 0.0978939 1.55993 0
M  V30 1300 H 118.014 -2.34288 2.24231 0
M  V30 1301 H 117.799 -1.31989 3.69217 0
M  V30 1302 H 119.289 -2.28969 3.49232 0
M  V30 1303 N 119.726 -1.57421 0.075193 0
M  V30 1304 C 120.658 -2.09904 -0.920483 0
M  V30 1305 C 121.671 -1.03191 -1.25918 0
M  V30 1306 O 122.86 -1.30695 -1.21577 0
M  V30 1307 C 119.96 -2.54726 -2.23534 0
M  V30 1308 C 119.133 -3.8505 -2.07498 0
M  V30 1309 C 118.192 -4.15929 -3.22319 0
M  V30 1310 O 117.218 -4.85474 -2.9716 0
M  V30 1311 N 118.42 -3.69745 -4.47514 0
M  V30 1312 H 121.185 -2.95954 -0.472359 0
M  V30 1313 H 118.746 -1.61523 -0.110444 0
M  V30 1314 H 120.738 -2.72443 -2.9926 0
M  V30 1315 H 119.308 -1.73795 -2.59835 0
M  V30 1316 H 118.528 -3.76679 -1.16219 0
M  V30 1317 H 119.816 -4.70348 -1.94038 0
M  V30 1318 H 119.214 -3.13569 -4.7084 0
M  V30 1319 H 117.771 -3.92655 -5.20255 0
M  V30 1320 N 121.204 0.198386 -1.56346 0
M  V30 1321 C 122.429 0.939682 -1.84891 0
M  V30 1322 C 122.854 1.76202 -0.658369 0
M  V30 1323 O 122.212 1.76993 0.392851 0
M  V30 1324 C 122.26 1.81428 -3.11635 0
M  V30 1325 O 121.364 2.91265 -2.91956 0
M  V30 1326 H 120.705 0.264807 -0.608912 0
M  V30 1327 H 123.235 0.204695 -2.03573 0
M  V30 1328 H 123.245 2.21958 -3.42343 0
M  V30 1329 H 121.92 1.21004 -3.97908 0
M  V30 1330 H 120.497 2.54514 -2.72538 0
M  V30 1331 N 122.682 1.50554 0.465978 0
M  V30 1332 C 123.592 1.72585 1.58907 0
M  V30 1333 C 124.608 0.60911 1.6299 0
M  V30 1334 O 125.784 0.88804 1.80765 0
M  V30 1335 C 122.849 1.81995 2.95091 0
M  V30 1336 C 121.91 3.05751 3.01355 0
M  V30 1337 C 121.143 3.14702 4.31043 0
M  V30 1338 O 121.366 2.30313 5.21835 0
M  V30 1339 O 120.3 4.07468 4.43005 0
M  V30 1340 H 124.126 2.67799 1.43239 0
M  V30 1341 H 121.711 1.34711 0.646013 0
M  V30 1342 H 123.593 1.90335 3.75966 0
M  V30 1343 H 122.268 0.899659 3.10947 0
M  V30 1344 H 121.175 3.02908 2.19539 0
M  V30 1345 H 122.508 3.97375 2.90437 0
M  V30 1346 N 124.16 -0.719506 1.40217 0
M  V30 1347 C 125.07 -1.86378 1.42479 0
M  V30 1348 C 126.086 -1.71073 0.317834 0
M  V30 1349 O 127.262 -1.93406 0.561794 0
M  V30 1350 C 124.327 -3.22136 1.28178 0
M  V30 1351 C 123.388 -3.49723 2.48982 0
M  V30 1352 C 122.621 -4.79004 2.35353 0
M  V30 1353 O 122.844 -5.53821 1.36524 0
M  V30 1354 O 121.778 -5.06839 3.2465 0
M  V30 1355 H 125.604 -1.87425 2.38968 0
M  V30 1356 H 123.189 -0.869405 1.21498 0
M  V30 1357 H 125.071 -4.03234 1.22395 0
M  V30 1358 H 123.746 -3.21825 0.347934 0
M  V30 1359 H 122.653 -2.6865 2.60342 0
M  V30 1360 H 123.986 -3.54828 3.41113 0
M  V30 1361 N 125.638 -1.25649 -0.95132 0
M  V30 1362 C 126.571 -1.00644 -2.04807 0
M  V30 1363 C 127.549 0.0654271 -1.62468 0
M  V30 1364 O 128.733 -0.074911 -1.88351 0
M  V30 1365 C 125.86 -0.522052 -3.34653 0
M  V30 1366 C 124.906 -1.58495 -3.95957 0
M  V30 1367 S 125.739 -3.17108 -4.31512 0
M  V30 1368 C 126.895 -2.70412 -5.64471 0
M  V30 1369 H 127.128 -1.93508 -2.25703 0
M  V30 1370 H 124.661 -1.09216 -1.09139 0
M  V30 1371 H 126.619 -0.24923 -4.09743 0
M  V30 1372 H 125.28 0.386146 -3.11717 0
M  V30 1373 H 124.473 -1.1968 -4.89584 0
M  V30 1374 H 124.075 -1.80862 -3.2736 0
M  V30 1375 H 126.367 -2.14245 -6.42733 0
M  V30 1376 H 127.31 -3.62693 -6.08161 0
M  V30 1377 H 127.718 -2.10302 -5.23864 0
M  V30 1378 N 127.117 1.15442 -1.07289 0
M  V30 1379 C 128.365 1.85845 -0.794096 0
M  V30 1380 C 128.686 1.82692 0.681809 0
M  V30 1381 O 127.956 1.26741 1.49377 0
M  V30 1382 H 126.536 0.688089 -0.290763 0
M  V30 1383 H 129.198 1.39947 -1.3565 0
M  V30 1384 H 128.294 2.91001 -1.12804 0
M  V30 1385 N 128.595 0.856903 1.32268 0
M  V30 1386 C 129.558 0.308171 2.27119 0
M  V30 1387 C 130.558 -0.533421 1.51695 0
M  V30 1388 O 131.748 -0.344607 1.70757 0
M  V30 1389 C 128.88 -0.563757 3.36206 0
M  V30 1390 H 130.073 1.14535 2.77167 0
M  V30 1391 H 127.626 0.631421 1.42978 0
M  V30 1392 H 128.361 -1.42266 2.91429 0
M  V30 1393 H 128.146 0.0386749 3.92081 0
M  V30 1394 H 129.636 -0.940386 4.06874 0
M  V30 1395 N 130.073 -1.45103 0.615059 0
M  V30 1396 C 130.983 -2.34382 -0.101034 0
M  V30 1397 C 131.999 -1.51681 -0.852585 0
M  V30 1398 O 133.175 -1.8446 -0.808484 0
M  V30 1399 C 130.24 -3.29417 -1.08099 0
M  V30 1400 C 129.301 -4.28025 -0.330577 0
M  V30 1401 C 128.534 -5.1852 -1.26385 0
M  V30 1402 O 128.757 -5.12598 -2.50198 0
M  V30 1403 O 127.691 -5.97122 -0.756866 0
M  V30 1404 H 131.517 -2.97033 0.632855 0
M  V30 1405 H 129.102 -1.4461 0.375293 0
M  V30 1406 H 130.984 -3.87958 -1.6452 0
M  V30 1407 H 129.659 -2.69321 -1.79577 0
M  V30 1408 H 128.566 -3.73078 0.276283 0
M  V30 1409 H 129.899 -4.90997 0.343866 0
M  V30 1410 N 131.551 -0.354651 -1.53558 0
M  V30 1411 C 132.776 0.242153 -2.05981 0
M  V30 1412 C 133.201 1.42553 -1.2272 0
M  V30 1413 O 132.559 1.79656 -0.243604 0
M  V30 1414 C 132.607 0.624367 -3.55154 0
M  V30 1415 O 131.711 1.72301 -3.74681 0
M  V30 1416 H 131.052 0.0378432 -0.662921 0
M  V30 1417 H 133.582 -0.512087 -1.98088 0
M  V30 1418 H 133.592 0.898433 -3.97985 0
M  V30 1419 H 132.267 -0.240989 -4.15201 0
M  V30 1420 H 130.844 1.44535 -3.4375 0
M  V30 1421 N 133.029 1.57378 -0.0835403 0
M  V30 1422 C 133.959 2.1641 0.87686 0
M  V30 1423 C 134.94 1.09429 1.30228 0
M  V30 1424 O 136.125 1.37516 1.37124 0
M  V30 1425 C 133.255 2.73517 2.14022 0
M  V30 1426 C 132.209 3.85769 1.85381 0
M  V30 1427 C 131.535 4.29529 3.18448 0
M  V30 1428 C 132.835 5.09486 1.14984 0
M  V30 1429 H 134.529 2.96914 0.385059 0
M  V30 1430 H 132.075 1.42823 0.18377 0
M  V30 1431 H 134.028 3.13463 2.81636 0
M  V30 1432 H 132.752 1.90252 2.65465 0
M  V30 1433 H 131.411 3.46345 1.20169 0
M  V30 1434 H 131.059 3.43169 3.67755 0
M  V30 1435 H 130.759 5.05204 3.00071 0
M  V30 1436 H 132.283 4.72099 3.8724 0
M  V30 1437 H 133.697 5.46674 1.72687 0
M  V30 1438 H 132.094 5.90515 1.06826 0
M  V30 1439 H 133.164 4.84724 0.130749 0
M  V30 1440 N 134.507 -0.190092 1.56449 0
M  V30 1441 C 135.417 -1.25591 1.98152 0
M  V30 1442 C 136.433 -1.49519 0.889944 0
M  V30 1443 O 137.609 -1.62036 1.19609 0
M  V30 1444 C 134.674 -2.57916 2.3169 0
M  V30 1445 C 133.735 -2.42015 3.5458 0
M  V30 1446 C 132.968 -3.6803 3.8651 0
M  V30 1447 O 133.191 -4.72413 3.1966 0
M  V30 1448 O 132.125 -3.6326 4.79923 0
M  V30 1449 H 135.951 -0.931988 2.89046 0
M  V30 1450 H 133.536 -0.395488 1.4407 0
M  V30 1451 H 135.418 -3.36008 2.54316 0
M  V30 1452 H 134.093 -2.89925 1.43963 0
M  V30 1453 H 133 -1.62017 3.37196 0
M  V30 1454 H 134.333 -2.14937 4.4279 0
M  V30 1455 N 135.985 -1.50799 -0.457987 0
M  V30 1456 C 137.234 -1.6168 -1.20593 0
M  V30 1457 C 137.547 -0.32888 -1.92815 0
M  V30 1458 O 138.753 -0.316773 -2.69646 0
M  V30 1459 C 137.209 -2.8545 -2.19195 0
M  V30 1460 C 136.817 -4.21168 -1.52715 0
M  V30 1461 C 138.561 -3.05681 -2.94549 0
M  V30 1462 C 136.468 -5.3611 -2.4968 0
M  V30 1463 H 135.398 -0.602134 -0.453818 0
M  V30 1464 H 138.049 -1.77245 -0.475031 0
M  V30 1465 H 136.431 -2.63472 -2.95632 0
M  V30 1466 H 137.605 -4.53449 -0.819775 0
M  V30 1467 H 135.92 -4.06648 -0.895922 0
M  V30 1468 H 138.517 -3.88727 -3.67145 0
M  V30 1469 H 138.86 -2.17929 -3.54701 0
M  V30 1470 H 139.393 -3.27901 -2.25223 0
M  V30 1471 H 136.132 -6.26057 -1.94249 0
M  V30 1472 H 135.652 -5.0823 -3.18532 0
M  V30 1473 H 137.331 -5.6722 -3.11241 0
M  V30 1474 N 137.463 0.71206 -1.40597 0
M  V30 1475 C 138.373 1.8562 -1.43466 0
M  V30 1476 C 139.389 1.70902 -0.326902 0
M  V30 1477 O 140.565 1.93105 -0.572043 0
M  V30 1478 C 137.63 3.21451 -1.29884 0
M  V30 1479 C 136.691 3.48398 -2.50833 0
M  V30 1480 C 135.924 4.77749 -2.3789 0
M  V30 1481 O 136.147 5.53089 -1.39459 0
M  V30 1482 O 135.081 5.05111 -3.27333 0
M  V30 1483 H 138.907 1.86155 -2.39958 0
M  V30 1484 H 136.492 0.86295 -1.21957 0
M  V30 1485 H 138.374 4.02579 -1.24531 0
M  V30 1486 H 137.049 3.21636 -0.364997 0
M  V30 1487 H 135.956 2.67265 -2.61763 0
M  V30 1488 H 137.289 3.53014 -3.4299 0
M  V30 1489 N 138.941 1.26152 0.944643 0
M  V30 1490 C 140.357 1.03189 1.21754 0
M  V30 1491 C 140.557 -0.245112 2.00004 0
M  V30 1492 O 139.613 -0.955176 2.33736 0
M  V30 1493 C 140.926 2.26119 1.98219 0
M  V30 1494 C 142.474 2.30984 2.11224 0
M  V30 1495 C 142.949 3.53597 2.91089 0
M  V30 1496 N 144.44 3.54053 2.98664 0
M  V30 1497 C 145.175 4.45593 3.60881 0
M  V30 1498 N 144.671 5.47416 4.24626 0
M  V30 1499 N 146.464 4.33252 3.58119 0
M  V30 1500 H 138.615 2.08177 0.421437 0
M  V30 1501 H 140.878 0.914723 0.248969 0
M  V30 1502 H 140.584 3.18984 1.48128 0
M  V30 1503 H 140.458 2.3009 2.98895 0
M  V30 1504 H 142.845 1.38635 2.60508 0
M  V30 1505 H 142.926 2.31026 1.09821 0
M  V30 1506 H 142.57 4.46273 2.42493 0
M  V30 1507 H 142.5 3.50802 3.92741 0
M  V30 1508 H 144.991 2.80403 2.53343 0
M  V30 1509 H 145.304 6.13459 4.69987 0
M  V30 1510 H 143.649 5.51278 4.23223 0
M  V30 1511 H 146.84 3.52924 3.0751 0
M  V30 1512 H 147.013 5.04786 4.06319 0
M  V30 1513 N 140.419 -1.14872 1.07899 0
M  V30 1514 C 141.668 -1.85135 0.800499 0
M  V30 1515 C 141.981 -1.83547 -0.676014 0
M  V30 1516 O 143.187 -2.49548 -1.06948 0
M  V30 1517 C 141.643 -3.3231 1.38197 0
M  V30 1518 C 141.251 -3.42329 2.8899 0
M  V30 1519 C 142.995 -4.0772 1.18174 0
M  V30 1520 C 140.902 -4.83684 3.403 0
M  V30 1521 H 139.832 -0.693563 0.29578 0
M  V30 1522 H 142.483 -1.29532 1.29976 0
M  V30 1523 H 140.865 -3.87618 0.810431 0
M  V30 1524 H 142.039 -2.97097 3.52236 0
M  V30 1525 H 140.354 -2.80369 3.07867 0
M  V30 1526 H 142.951 -5.12049 1.5398 0
M  V30 1527 H 143.294 -4.16124 0.12117 0
M  V30 1528 H 143.827 -3.58696 1.71994 0
M  V30 1529 H 140.566 -4.80465 4.45907 0
M  V30 1530 H 140.086 -5.29474 2.81811 0
M  V30 1531 H 141.765 -5.52558 3.36584 0
M  V30 1532 N 141.898 -0.863906 -1.31812 0
M  V30 1533 C 143.128 -0.485406 -2.00817 0
M  V30 1534 C 143.536 0.925007 -1.65046 0
M  V30 1535 O 142.879 1.61653 -0.872574 0
M  V30 1536 C 142.941 -0.555589 -3.55181 0
M  V30 1537 C 142.605 -1.92654 -4.14407 0
M  V30 1538 C 143.602 -2.89324 -4.31958 0
M  V30 1539 C 141.287 -2.2262 -4.50273 0
M  V30 1540 C 143.281 -4.14108 -4.84555 0
M  V30 1541 C 140.968 -3.47654 -5.02573 0
M  V30 1542 C 141.966 -4.43214 -5.19664 0
M  V30 1543 O 141.654 -5.66033 -5.70843 0
M  V30 1544 H 141.386 -0.188224 -0.649267 0
M  V30 1545 H 143.94 -1.16514 -1.69156 0
M  V30 1546 H 142.17 0.181037 -3.86276 0
M  V30 1547 H 143.859 -0.19138 -4.05449 0
M  V30 1548 H 144.625 -2.6748 -4.04573 0
M  V30 1549 H 140.504 -1.4902 -4.3625 0
M  V30 1550 H 144.048 -4.88703 -4.9781 0
M  V30 1551 H 139.945 -3.69345 -5.29391 0
M  V30 1552 H 140.713 -5.6812 -5.89222 0
M  V30 1553 N 143.376 1.44774 -0.622745 0
M  V30 1554 C 144.625 2.01334 -0.121397 0
M  V30 1555 C 144.938 1.49505 1.26125 0
M  V30 1556 O 146.144 1.98139 1.85616 0
M  V30 1557 C 144.6 3.59516 -0.166298 0
M  V30 1558 C 144.208 4.20342 -1.54974 0
M  V30 1559 C 145.952 4.23582 0.279021 0
M  V30 1560 C 143.859 5.70721 -1.55021 0
M  V30 1561 H 142.789 0.752851 -0.0416172 0
M  V30 1562 H 145.44 1.66083 -0.780309 0
M  V30 1563 H 143.822 3.92027 0.559557 0
M  V30 1564 H 144.996 3.99381 -2.29851 0
M  V30 1565 H 143.311 3.68529 -1.93843 0
M  V30 1566 H 145.908 5.33868 0.298083 0
M  V30 1567 H 146.251 3.95327 1.30471 0
M  V30 1568 H 146.784 3.95843 -0.394063 0
M  V30 1569 H 143.523 6.03698 -2.55399 0
M  V30 1570 H 143.043 5.93829 -0.844245 0
M  V30 1571 H 144.722 6.34203 -1.28047 0
M  V30 1572 N 144.854 0.36279 1.53368 0
M  V30 1573 C 145.801 -0.485008 2.25646 0
M  V30 1574 C 146.771 -1.07982 1.2621 0
M  V30 1575 O 147.956 -1.11284 1.54986 0
M  V30 1576 C 145.096 -1.62023 3.04701 0
M  V30 1577 C 144.209 -1.05086 4.19024 0
M  V30 1578 C 143.344 -2.15496 4.85525 0
M  V30 1579 C 142.383 -1.5601 5.91884 0
M  V30 1580 N 141.52 -2.60241 6.52088 0
M  V30 1581 H 146.36 0.137864 2.97681 0
M  V30 1582 H 143.897 0.0798061 1.46883 0
M  V30 1583 H 145.855 -2.28887 3.48807 0
M  V30 1584 H 144.485 -2.2138 2.34927 0
M  V30 1585 H 143.537 -0.27259 3.79422 0
M  V30 1586 H 144.849 -0.575926 4.95464 0
M  V30 1587 H 144.003 -2.90186 5.32801 0
M  V30 1588 H 142.742 -2.66341 4.08551 0
M  V30 1589 H 141.747 -0.798338 5.43973 0
M  V30 1590 H 142.972 -1.05994 6.70777 0
M  V30 1591 H 140.918 -3.10304 5.77968 0
M  V30 1592 H 140.835 -2.17426 7.24059 0
M  V30 1593 H 142.103 -3.34641 7.04014 0
M  V30 1594 N 146.332 -1.57332 0.0918853 0
M  V30 1595 C 147.28 -2.15075 -0.885747 0
M  V30 1596 C 148.274 -1.09277 -1.29441 0
M  V30 1597 O 149.48 -1.27627 -1.26931 0
M  V30 1598 H 145.855 -0.687966 -0.303656 0
M  V30 1599 H 147.826 -2.96047 -0.373995 0
M  V30 1600 C 146.575 -2.74325 -2.13638 0
M  V30 1601 H 145.898 -3.55418 -1.8308 0
M  V30 1602 H 147.338 -3.183 -2.80109 0
M  V30 1603 C 145.797 -1.70062 -2.90827 0
M  V30 1604 O 146.327 -1.13763 -3.85254 0
M  V30 1605 N 144.533 -1.40628 -2.54307 0
M  V30 1606 H 144.08 -1.866 -1.7759 0
M  V30 1607 H 144.038 -0.711043 -3.06254 0
M  V30 1608 N 147.81 0.181792 -1.56548 0
M  V30 1609 C 149.035 0.920019 -1.85877 0
M  V30 1610 C 149.46 1.75494 -0.677021 0
M  V30 1611 O 148.818 1.77399 0.374056 0
M  V30 1612 C 148.866 1.78112 -3.13542 0
M  V30 1613 O 147.97 2.88152 -2.95029 0
M  V30 1614 H 147.311 0.258334 -0.611686 0
M  V30 1615 H 149.841 0.183092 -2.03779 0
M  V30 1616 H 149.851 2.18314 -3.44678 0
M  V30 1617 H 148.526 1.16777 -3.99169 0
M  V30 1618 H 147.103 2.51609 -2.75222 0
M  V30 1619 N 149.288 1.51039 0.449983 0
M  V30 1620 C 150.535 1.63081 1.20045 0
M  V30 1621 C 150.863 0.341024 1.91487 0
M  V30 1622 O 150.118 -0.674276 1.83717 0
M  V30 1623 C 150.417 2.77556 2.25161 0
M  V30 1624 C 150.083 4.17289 1.70823 0
M  V30 1625 C 148.745 4.55305 1.55725 0
M  V30 1626 C 151.097 5.04536 1.3074 0
M  V30 1627 C 148.425 5.78287 0.989999 0
M  V30 1628 C 150.777 6.28085 0.754482 0
M  V30 1629 C 149.441 6.64885 0.590308 0
M  V30 1630 H 148.711 0.596755 0.439277 0
M  V30 1631 H 151.358 1.85037 0.49333 0
M  V30 1632 H 149.663 2.49771 3.01863 0
M  V30 1633 H 151.36 2.84073 2.83026 0
M  V30 1634 H 147.95 3.8731 1.83546 0
M  V30 1635 H 152.134 4.75782 1.41229 0
M  V30 1636 H 147.39 6.05456 0.850451 0
M  V30 1637 H 151.564 6.95038 0.435324 0
M  V30 1638 H 149.191 7.60055 0.14862 0
M  V30 1639 N 150.766 -0.704594 1.40972 0
M  V30 1640 C 151.698 -1.82974 1.38033 0
M  V30 1641 C 152.711 -1.60305 0.283931 0
M  V30 1642 O 153.9 -1.69975 0.545042 0
M  V30 1643 C 151 -3.19578 1.12795 0
M  V30 1644 C 150.173 -3.69352 2.34302 0
M  V30 1645 C 149.232 -4.84601 2.05058 0
M  V30 1646 O 148.258 -4.96682 2.7802 0
M  V30 1647 N 149.46 -5.71194 1.03528 0
M  V30 1648 H 152.225 -1.85991 2.35005 0
M  V30 1649 H 149.786 -0.886567 1.35468 0
M  V30 1650 H 151.778 -3.9429 0.911987 0
M  V30 1651 H 150.348 -3.11642 0.24452 0
M  V30 1652 H 149.568 -2.85649 2.71659 0
M  V30 1653 H 150.856 -3.99345 3.1528 0
M  V30 1654 H 150.254 -5.64054 0.431217 0
M  V30 1655 H 148.811 -6.45843 0.879205 0
M  V30 1656 N 152.244 -1.26651 -0.937939 0
M  V30 1657 C 153.191 -1.0849 -2.03712 0
M  V30 1658 C 154.161 0.011033 -1.66096 0
M  V30 1659 O 155.346 -0.149353 -1.90215 0
M  V30 1660 C 152.486 -0.72735 -3.37348 0
M  V30 1661 C 151.599 -1.89986 -3.87981 0
M  V30 1662 C 150.734 -1.48513 -5.10017 0
M  V30 1663 C 149.773 -2.62575 -5.5292 0
M  V30 1664 N 148.91 -2.21762 -6.66158 0
M  V30 1665 H 153.75 -2.02551 -2.18579 0
M  V30 1666 H 151.287 -1.00844 -1.07093 0
M  V30 1667 H 153.245 -0.50092 -4.14182 0
M  V30 1668 H 151.875 0.176298 -3.22318 0
M  V30 1669 H 150.927 -2.23913 -3.07518 0
M  V30 1670 H 152.239 -2.75586 -4.15757 0
M  V30 1671 H 151.393 -1.21934 -5.94321 0
M  V30 1672 H 150.132 -0.60009 -4.83994 0
M  V30 1673 H 149.137 -2.8988 -4.67172 0
M  V30 1674 H 150.362 -3.51685 -5.80943 0
M  V30 1675 H 148.308 -1.35696 -6.41812 0
M  V30 1676 H 148.225 -3.00903 -6.93537 0
M  V30 1677 H 149.493 -1.98403 -7.53828 0
M  V30 1678 N 153.722 1.14298 -1.08507 0
M  V30 1679 C 154.672 2.17449 -0.685569 0
M  V30 1680 C 155.656 1.58167 0.295315 0
M  V30 1681 O 156.848 1.76675 0.107172 0
M  V30 1682 C 153.977 3.43161 -0.0975318 0
M  V30 1683 C 153.063 4.09471 -1.10426 0
M  V30 1684 N 153.454 4.51089 -2.28806 0
M  V30 1685 C 151.752 4.35976 -0.940258 0
M  V30 1686 C 152.453 5.02654 -2.9277 0
M  V30 1687 N 151.429 4.96927 -2.20374 0
M  V30 1688 H 155.231 2.47369 -1.587 0
M  V30 1689 H 152.745 1.30992 -0.959936 0
M  V30 1690 H 154.742 4.16388 0.20664 0
M  V30 1691 H 153.402 3.14719 0.798872 0
M  V30 1692 H 154.413 4.44097 -2.66455 0
M  V30 1693 H 151.09 4.17386 -0.0977441 0
M  V30 1694 H 152.48 5.44723 -3.93352 0
M  V30 1695 N 155.201 0.870884 1.31352 0
M  V30 1696 C 156.449 0.48132 1.96285 0
M  V30 1697 C 156.77 -0.969813 1.69173 0
M  V30 1698 O 156.04 -1.67998 1.00764 0
M  V30 1699 H 154.62 0.175002 0.726212 0
M  V30 1700 H 157.282 1.11087 1.60143 0
M  V30 1701 H 156.378 0.639825 3.05471 0
M  V30 1702 N 156.679 -1.44442 0.630414 0
M  V30 1703 C 157.609 -2.33418 -0.0618083 0
M  V30 1704 C 158.59 -1.48165 -0.835541 0
M  V30 1705 O 159.775 -1.76886 -0.801564 0
M  V30 1706 C 156.905 -3.31222 -1.04449 0
M  V30 1707 C 155.859 -4.26288 -0.382436 0
M  V30 1708 C 155.185 -5.13954 -1.47497 0
M  V30 1709 C 156.485 -5.1744 0.710865 0
M  V30 1710 H 158.179 -2.91548 0.681184 0
M  V30 1711 H 155.725 -1.40191 0.329026 0
M  V30 1712 H 157.678 -3.92351 -1.53748 0
M  V30 1713 H 156.402 -2.71299 -1.81836 0
M  V30 1714 H 155.061 -3.6649 0.0899054 0
M  V30 1715 H 154.709 -4.50385 -2.2397 0
M  V30 1716 H 154.409 -5.7837 -1.03737 0
M  V30 1717 H 155.933 -5.77955 -1.96979 0
M  V30 1718 H 157.347 -5.72509 0.300996 0
M  V30 1719 H 155.744 -5.90455 1.07156 0
M  V30 1720 H 156.814 -4.58496 1.57829 0
M  V30 1721 N 158.157 -0.370918 -1.53173 0
M  V30 1722 C 159.405 0.216673 -2.00935 0
M  V30 1723 C 159.726 1.48845 -1.25977 0
M  V30 1724 O 158.996 1.92286 -0.374551 0
M  V30 1725 H 157.576 0.0830565 -0.742368 0
M  V30 1726 H 160.238 -0.49838 -1.8842 0
M  V30 1727 H 159.334 0.439893 -3.08984 0
M  V30 1728 N 159.635 1.57281 -0.100228 0
M  V30 1729 C 160.582 2.14305 0.856858 0
M  V30 1730 C 161.552 1.06296 1.27634 0
M  V30 1731 O 162.737 1.34109 1.35718 0
M  V30 1732 C 159.877 2.73184 2.10866 0
M  V30 1733 C 158.99 3.95442 1.73925 0
M  V30 1734 C 158.125 4.42468 2.93931 0
M  V30 1735 C 157.164 5.57303 2.5314 0
M  V30 1736 N 156.301 5.99158 3.65997 0
M  V30 1737 H 161.141 2.95772 0.363726 0
M  V30 1738 H 158.678 1.46139 0.167858 0
M  V30 1739 H 160.636 3.05442 2.84185 0
M  V30 1740 H 159.266 1.94437 2.57671 0
M  V30 1741 H 158.318 3.69464 0.905554 0
M  V30 1742 H 159.63 4.78769 1.39935 0
M  V30 1743 H 158.784 4.76537 3.75496 0
M  V30 1744 H 157.523 3.58052 3.31134 0
M  V30 1745 H 156.528 5.22857 1.70003 0
M  V30 1746 H 157.753 6.43471 2.17075 0
M  V30 1747 H 155.699 5.17687 4.02909 0
M  V30 1748 H 155.616 6.77295 3.35869 0
M  V30 1749 H 156.884 6.3786 4.48057 0
M  V30 1750 N 161.113 -0.173488 1.56642 0
M  V30 1751 C 162.063 -1.21941 1.92651 0
M  V30 1752 C 163.047 -1.39912 0.794577 0
M  V30 1753 O 164.239 -1.41919 1.05773 0
M  V30 1754 C 161.368 -2.55935 2.28806 0
M  V30 1755 C 160.454 -2.41667 3.48508 0
M  V30 1756 N 160.845 -1.9711 4.65813 0
M  V30 1757 C 159.143 -2.72499 3.53072 0
M  V30 1758 C 159.844 -1.95253 5.47952 0
M  V30 1759 N 158.82 -2.37575 4.88937 0
M  V30 1760 H 162.622 -0.866581 2.80834 0
M  V30 1761 H 160.136 -0.381776 1.57849 0
M  V30 1762 H 162.133 -3.31511 2.52797 0
M  V30 1763 H 160.793 -2.92022 1.41961 0
M  V30 1764 H 161.804 -1.67481 4.90072 0
M  V30 1765 H 158.481 -3.12639 2.767 0
M  V30 1766 H 159.871 -1.6252 6.51948 0
M  V30 1767 N 162.591 -1.51276 -0.441967 0
M  V30 1768 C 163.521 -1.752 -1.54361 0
M  V30 1769 C 164.502 -0.601682 -1.59103 0
M  V30 1770 O 165.687 -0.843913 -1.74905 0
M  V30 1771 C 162.817 -1.87282 -2.92477 0
M  V30 1772 C 161.771 -3.02687 -3.02596 0
M  V30 1773 C 161.097 -2.99947 -4.42647 0
M  V30 1774 C 162.397 -4.4273 -2.77106 0
M  V30 1775 H 164.091 -2.67442 -1.34592 0
M  V30 1776 H 161.637 -1.28694 -0.646048 0
M  V30 1777 H 163.59 -2.02602 -3.695 0
M  V30 1778 H 162.314 -0.916844 -3.13467 0
M  V30 1779 H 160.973 -2.87065 -2.28012 0
M  V30 1780 H 160.621 -2.02136 -4.60597 0
M  V30 1781 H 160.321 -3.77439 -4.50348 0
M  V30 1782 H 161.845 -3.17354 -5.2165 0
M  V30 1783 H 163.259 -4.58727 -3.43864 0
M  V30 1784 H 161.656 -5.21893 -2.96222 0
M  V30 1785 H 162.726 -4.53087 -1.72744 0
M  V30 1786 N 164.069 0.697108 -1.41344 0
M  V30 1787 C 164.999 1.82353 -1.45841 0
M  V30 1788 C 165.98 1.67115 -0.317247 0
M  V30 1789 O 167.165 1.86871 -0.528474 0
M  V30 1790 C 164.295 3.20476 -1.33838 0
M  V30 1791 C 163.249 3.50415 -2.4575 0
M  V30 1792 C 162.575 4.87878 -2.18813 0
M  V30 1793 C 163.875 3.49546 -3.88091 0
M  V30 1794 H 165.569 1.78846 -2.40113 0
M  V30 1795 H 163.115 0.859028 -1.15571 0
M  V30 1796 H 165.068 3.98988 -1.35596 0
M  V30 1797 H 163.792 3.24604 -0.360498 0
M  V30 1798 H 162.451 2.74253 -2.43271 0
M  V30 1799 H 162.099 4.8863 -1.19371 0
M  V30 1800 H 161.799 5.08875 -2.93803 0
M  V30 1801 H 163.323 5.68702 -2.22284 0
M  V30 1802 H 164.737 4.18066 -3.92293 0
M  V30 1803 H 163.134 3.82075 -4.62751 0
M  V30 1804 H 164.204 2.48552 -4.16353 0
M  V30 1805 N 165.547 1.27147 0.931209 0
M  V30 1806 C 166.495 1.09398 2.05268 0
M  V30 1807 C 167.489 0.0180591 1.6939 0
M  V30 1808 O 168.695 0.17551 1.79142 0
M  V30 1809 H 165.07 0.336986 0.672268 0
M  V30 1810 H 167.041 2.04416 2.17386 0
M  V30 1811 C 165.79 0.75424 3.39421 0
M  V30 1812 H 165.113 1.57404 3.67511 0
M  V30 1813 H 166.553 0.669903 4.18674 0
M  V30 1814 C 165.012 -0.541197 3.32525 0
M  V30 1815 O 165.542 -1.57664 3.69466 0
M  V30 1816 N 163.748 -0.535517 2.85623 0
M  V30 1817 H 163.295 0.307511 2.55758 0
M  V30 1818 H 163.253 -1.40236 2.81392 0
M  V30 1819 N 167.025 -1.13721 1.09112 0
M  V30 1820 C 167.972 -2.19031 0.727591 0
M  V30 1821 C 168.942 -1.63555 -0.289656 0
M  V30 1822 O 170.127 -1.90023 -0.172026 0
M  V30 1823 C 167.267 -3.4477 0.15082 0
M  V30 1824 C 166.38 -4.14365 1.22172 0
M  V30 1825 C 165.515 -5.27709 0.608042 0
M  V30 1826 C 164.554 -5.89147 1.66047 0
M  V30 1827 N 163.691 -6.93929 1.06806 0
M  V30 1828 H 168.531 -2.49475 1.62991 0
M  V30 1829 H 166.068 -1.22499 0.81439 0
M  V30 1830 H 168.026 -4.16714 -0.201358 0
M  V30 1831 H 166.656 -3.14787 -0.714783 0
M  V30 1832 H 165.708 -3.40737 1.69122 0
M  V30 1833 H 167.02 -4.56114 2.01895 0
M  V30 1834 H 166.174 -6.06355 0.204523 0
M  V30 1835 H 164.913 -4.872 -0.220769 0
M  V30 1836 H 163.918 -5.09198 2.07357 0
M  V30 1837 H 165.143 -6.31729 2.49189 0
M  V30 1838 H 163.089 -6.55483 0.260476 0
M  V30 1839 H 163.006 -7.34202 1.8023 0
M  V30 1840 H 164.274 -7.76434 0.690644 0
M  V30 1841 N 168.503 -0.877838 -1.30888 0
M  V30 1842 C 169.466 -0.344265 -2.266 0
M  V30 1843 C 170.466 0.50922 -1.52524 0
M  V30 1844 O 171.656 0.317398 -1.71284 0
M  V30 1845 C 168.788 0.510198 -3.37061 0
M  V30 1846 H 169.981 -1.1893 -2.7531 0
M  V30 1847 H 167.534 -0.654088 -1.41956 0
M  V30 1848 H 168.269 1.37612 -2.93655 0
M  V30 1849 H 168.054 -0.101047 -3.9197 0
M  V30 1850 H 169.544 0.875537 -4.08319 0
M  V30 1851 N 169.982 1.44106 -0.638065 0
M  V30 1852 C 171.231 2.01194 -0.142744 0
M  V30 1853 C 171.544 1.50835 1.24532 0
M  V30 1854 O 172.75 2.00096 1.83504 0
M  V30 1855 C 171.206 3.59319 -0.20442 0
M  V30 1856 C 170.814 4.18674 -1.59423 0
M  V30 1857 C 172.558 4.23854 0.234079 0
M  V30 1858 C 170.465 5.69045 -1.61065 0
M  V30 1859 H 169.395 0.752367 -0.0495998 0
M  V30 1860 H 172.046 1.65246 -0.797881 0
M  V30 1861 H 170.428 3.92598 0.517946 0
M  V30 1862 H 171.602 3.96921 -2.34074 0
M  V30 1863 H 169.917 3.66453 -1.97741 0
M  V30 1864 H 172.514 5.34155 0.241443 0
M  V30 1865 H 172.857 3.96688 1.2627 0
M  V30 1866 H 173.39 3.95403 -0.436025 0
M  V30 1867 H 170.129 6.00956 -2.61787 0
M  V30 1868 H 169.649 5.929 -0.90718 0
M  V30 1869 H 171.328 6.32809 -1.34766 0
M  V30 1870 N 171.46 0.379036 1.52974 0
M  V30 1871 C 172.37 -0.468639 2.29872 0
M  V30 1872 C 173.386 -1.08067 1.36373 0
M  V30 1873 O 174.562 -1.08871 1.69438 0
M  V30 1874 C 171.627 -1.58594 3.083 0
M  V30 1875 C 170.688 -1.00007 4.17489 0
M  V30 1876 C 169.921 -2.06413 4.92168 0
M  V30 1877 O 170.144 -3.27751 4.66835 0
M  V30 1878 O 169.078 -1.68717 5.7777 0
M  V30 1879 H 172.904 0.157508 3.03291 0
M  V30 1880 H 170.489 0.143035 1.48714 0
M  V30 1881 H 172.371 -2.23525 3.57232 0
M  V30 1882 H 171.046 -2.19724 2.37703 0
M  V30 1883 H 169.953 -0.314299 3.72777 0
M  V30 1884 H 171.286 -0.433135 4.90291 0
M  V30 1885 N 172.938 -1.57226 0.108567 0
M  V30 1886 C 174.187 -1.94008 -0.551703 0
M  V30 1887 C 174.5 -0.993442 -1.68494 0
M  V30 1888 O 175.706 -1.25551 -2.40726 0
M  V30 1889 C 174.162 -3.44763 -1.03279 0
M  V30 1890 C 173.77 -4.47943 0.0714193 0
M  V30 1891 C 175.514 -3.90483 -1.66503 0
M  V30 1892 C 173.421 -5.89865 -0.425779 0
M  V30 1893 H 172.351 -0.724206 -0.209863 0
M  V30 1894 H 175.002 -1.82547 0.186741 0
M  V30 1895 H 173.384 -3.51422 -1.82533 0
M  V30 1896 H 174.558 -4.52942 0.847365 0
M  V30 1897 H 172.873 -4.11913 0.609669 0
M  V30 1898 H 175.47 -4.93925 -2.04798 0
M  V30 1899 H 175.813 -3.29877 -2.53942 0
M  V30 1900 H 176.346 -3.86581 -0.938074 0
M  V30 1901 H 173.085 -6.54202 0.412316 0
M  V30 1902 H 172.605 -5.88309 -1.16843 0
M  V30 1903 H 174.284 -6.40844 -0.890397 0
M  V30 1904 N 174.416 0.165178 -1.56732 0
M  V30 1905 C 175.379 1.18822 -1.95995 0
M  V30 1906 C 176.379 1.3685 -0.84431 0
M  V30 1907 O 177.569 1.34152 -1.11126 0
M  V30 1908 C 174.701 2.5521 -2.26011 0
M  V30 1909 H 175.894 0.851825 -2.87548 0
M  V30 1910 H 173.447 0.407857 -1.50885 0
M  V30 1911 H 174.182 2.93852 -1.37191 0
M  V30 1912 H 173.967 2.43489 -3.07336 0
M  V30 1913 H 175.457 3.28927 -2.57288 0
M  V30 1914 N 175.894 1.51508 0.433938 0
M  V30 1915 C 176.824 1.76016 1.53429 0
M  V30 1916 C 177.805 0.610112 1.58782 0
M  V30 1917 O 178.99 0.853177 1.74455 0
M  V30 1918 C 176.12 1.88831 2.9148 0
M  V30 1919 C 175.074 3.04288 3.00987 0
M  V30 1920 C 174.4 3.0229 4.4105 0
M  V30 1921 C 175.7 4.44193 2.74754 0
M  V30 1922 H 177.394 2.68152 1.33171 0
M  V30 1923 H 174.94 1.29035 0.639214 0
M  V30 1924 H 176.893 2.04559 3.6842 0
M  V30 1925 H 175.617 0.933455 3.12976 0
M  V30 1926 H 174.276 2.8827 2.26486 0
M  V30 1927 H 173.924 2.04576 4.59519 0
M  V30 1928 H 173.624 3.79822 4.4834 0
M  V30 1929 H 175.148 3.20116 5.1996 0
M  V30 1930 H 176.562 4.60544 3.41426 0
M  V30 1931 H 174.959 5.23457 2.9345 0
M  V30 1932 H 176.029 4.53996 1.70339 0
M  V30 1933 N 177.372 -0.689602 1.41712 0
M  V30 1934 C 178.282 -1.83314 1.46401 0
M  V30 1935 C 179.298 -1.7036 0.35405 0
M  V30 1936 O 180.474 -1.92171 0.602692 0
M  V30 1937 C 177.539 -3.19344 1.34982 0
M  V30 1938 C 176.6 -3.44363 2.56344 0
M  V30 1939 C 175.833 -4.73904 2.45461 0
M  V30 1940 O 176.056 -5.508 1.48241 0
M  V30 1941 O 174.99 -4.99839 3.35328 0
M  V30 1942 H 178.816 -1.82314 2.42889 0
M  V30 1943 H 176.401 -0.843438 1.23315 0
M  V30 1944 H 178.283 -4.00547 1.3092 0
M  V30 1945 H 176.958 -3.21014 0.41612 0
M  V30 1946 H 175.865 -2.63067 2.65982 0
M  V30 1947 H 177.198 -3.47512 3.48563 0
M  V30 1948 N 178.85 -1.27639 -0.924453 0
M  V30 1949 C 180.266 -1.05113 -1.20097 0
M  V30 1950 C 180.466 0.213262 -2.00368 0
M  V30 1951 O 179.522 0.91787 -2.35226 0
M  V30 1952 C 180.835 -2.29244 -1.94596 0
M  V30 1953 C 182.383 -2.34315 -2.07522 0
M  V30 1954 C 182.858 -3.58183 -2.85427 0
M  V30 1955 N 184.349 -3.5876 -2.92994 0
M  V30 1956 C 185.084 -4.51277 -3.53746 0
M  V30 1957 N 184.58 -5.54102 -4.15863 0
M  V30 1958 N 186.373 -4.38894 -3.51181 0
M  V30 1959 H 178.524 -2.08821 -0.388264 0
M  V30 1960 H 180.787 -0.918568 -0.234385 0
M  V30 1961 H 180.493 -3.21301 -1.43034 0
M  V30 1962 H 180.367 -2.34816 -2.95197 0
M  V30 1963 H 182.754 -1.42762 -2.58269 0
M  V30 1964 H 182.835 -2.32744 -1.06131 0
M  V30 1965 H 182.479 -4.50074 -2.35363 0
M  V30 1966 H 182.409 -3.57006 -3.8711 0
M  V30 1967 H 184.9 -2.84398 -2.4885 0
M  V30 1968 H 185.213 -6.20859 -4.60168 0
M  V30 1969 H 183.558 -5.57941 -4.144 0
M  V30 1970 H 186.749 -3.57772 -3.01856 0
M  V30 1971 H 186.922 -5.11186 -3.98237 0
M  V30 1972 N 180.328 1.1314 -1.09713 0
M  V30 1973 C 181.276 2.20717 -0.733934 0
M  V30 1974 C 182.27 1.6729 0.266506 0
M  V30 1975 O 183.476 1.79547 0.127656 0
M  V30 1976 H 179.851 0.719292 -0.21937 0
M  V30 1977 H 181.822 2.48611 -1.6503 0
M  V30 1978 C 180.571 3.47265 -0.173849 0
M  V30 1979 H 179.894 3.88716 -0.934873 0
M  V30 1980 H 181.334 4.23979 0.0423126 0
M  V30 1981 C 179.793 3.18724 1.09164 0
M  V30 1982 O 180.323 3.37762 2.17439 0
M  V30 1983 N 178.529 2.72583 1.00732 0
M  V30 1984 H 178.076 2.57291 0.126121 0
M  V30 1985 H 178.034 2.53862 1.85476 0
M  V30 1986 N 181.806 0.884767 1.30421 0
M  V30 1987 C 182.753 0.349642 2.28136 0
M  V30 1988 C 183.723 -0.560061 1.56373 0
M  V30 1989 O 184.908 -0.488524 1.8444 0
M  V30 1990 C 182.048 -0.42999 3.42411 0
M  V30 1991 C 181.161 0.508907 4.28992 0
M  V30 1992 C 180.296 -0.286301 5.30428 0
M  V30 1993 C 179.335 0.648079 6.08659 0
M  V30 1994 N 178.472 -0.111792 7.02011 0
M  V30 1995 H 183.312 1.18807 2.73293 0
M  V30 1996 H 180.849 0.597231 1.3443 0
M  V30 1997 H 182.807 -0.897923 4.07423 0
M  V30 1998 H 181.437 -1.23299 2.98324 0
M  V30 1999 H 180.489 1.09533 3.64289 0
M  V30 2000 H 181.801 1.22475 4.8353 0
M  V30 2001 H 180.955 -0.816098 6.01186 0
M  V30 2002 H 179.694 -1.03536 4.76583 0
M  V30 2003 H 178.699 1.18951 5.36778 0
M  V30 2004 H 179.924 1.39623 6.64592 0
M  V30 2005 H 177.87 -0.843395 6.50556 0
M  V30 2006 H 177.787 0.544429 7.54037 0
M  V30 2007 H 179.055 -0.622339 7.77012 0
M  V30 2008 N 183.284 -1.43765 0.645699 0
M  V30 2009 C 184.231 -2.30745 -0.0504648 0
M  V30 2010 C 185.201 -1.4432 -0.822241 0
M  V30 2011 O 186.386 -1.73202 -0.800358 0
M  V30 2012 C 183.526 -3.29802 -1.0161 0
M  V30 2013 C 182.639 -4.31326 -0.241219 0
M  V30 2014 C 181.774 -5.17469 -1.19998 0
M  V30 2015 C 180.813 -6.10691 -0.415094 0
M  V30 2016 N 179.95 -6.89483 -1.32506 0
M  V30 2017 H 184.79 -2.8973 0.697155 0
M  V30 2018 H 182.327 -1.42738 0.355563 0
M  V30 2019 H 184.285 -3.85734 -1.58949 0
M  V30 2020 H 182.915 -2.72483 -1.73069 0
M  V30 2021 H 181.967 -3.77749 0.448334 0
M  V30 2022 H 183.279 -4.9743 0.369437 0
M  V30 2023 H 182.433 -5.7799 -1.84424 0
M  V30 2024 H 181.172 -4.51473 -1.84455 0
M  V30 2025 H 180.177 -5.49265 0.242565 0
M  V30 2026 H 181.402 -6.78727 0.224966 0
M  V30 2027 H 179.348 -6.26142 -1.95657 0
M  V30 2028 H 179.265 -7.52081 -0.768783 0
M  V30 2029 H 180.533 -7.54516 -1.9577 0
M  V30 2030 N 184.763 -0.387143 -1.52771 0
M  V30 2031 C 185.711 0.463953 -2.27926 0
M  V30 2032 C 186.705 1.06493 -1.31741 0
M  V30 2033 O 187.911 1.00565 -1.49287 0
M  V30 2034 H 184.286 0.16837 -0.732909 0
M  V30 2035 H 186.257 -0.19141 -2.97785 0
M  V30 2036 C 185.006 1.5803 -3.09713 0
M  V30 2037 H 184.329 1.12718 -3.83581 0
M  V30 2038 H 185.769 2.15008 -3.65442 0
M  V30 2039 C 184.228 2.53509 -2.2189 0
M  V30 2040 O 184.758 3.56863 -1.84422 0
M  V30 2041 N 182.964 2.23199 -1.86093 0
M  V30 2042 H 182.511 1.39185 -2.16761 0
M  V30 2043 H 182.469 2.87333 -1.27621 0
M  V30 2044 N 186.241 1.57166 -0.116904 0
M  V30 2045 C 187.49 1.94298 0.541407 0
M  V30 2046 C 187.803 1.00236 1.67964 0
M  V30 2047 O 189.009 1.26826 2.40057 0
M  V30 2048 C 187.465 3.45306 1.01449 0
M  V30 2049 C 187.073 4.47899 -0.0951738 0
M  V30 2050 C 188.817 3.91361 1.6443 0
M  V30 2051 C 186.724 5.90083 0.394491 0
M  V30 2052 H 185.654 0.725308 0.206019 0
M  V30 2053 H 188.305 1.82446 -0.196419 0
M  V30 2054 H 186.687 3.52385 1.80667 0
M  V30 2055 H 187.861 4.52486 -0.871374 0
M  V30 2056 H 186.176 4.11583 -0.631505 0
M  V30 2057 H 188.773 4.95004 2.02176 0
M  V30 2058 H 189.116 3.3122 2.52189 0
M  V30 2059 H 189.649 3.87073 0.917559 0
M  V30 2060 H 186.388 6.53974 -0.447004 0
M  V30 2061 H 185.908 5.88921 1.13722 0
M  V30 2062 H 187.587 6.41307 0.856399 0
M  V30 2063 N 187.719 -0.156864 1.56817 0
M  V30 2064 C 188.965 -0.867645 1.83966 0
M  V30 2065 C 189.32 -1.79233 0.699511 0
M  V30 2066 O 188.613 -1.89186 -0.303176 0
M  V30 2067 C 188.807 -1.68737 3.1506 0
M  V30 2068 C 188.636 -0.843548 4.41718 0
M  V30 2069 C 187.406 -0.512994 5.02689 0
M  V30 2070 C 189.604 -0.178416 5.1399 0
M  V30 2071 N 187.586 0.345456 6.12927 0
M  V30 2072 C 188.957 0.540586 6.17639 0
M  V30 2073 C 191.012 -0.0980696 4.97803 0
M  V30 2074 C 189.715 1.33233 7.06853 0
M  V30 2075 C 191.741 0.680387 5.87473 0
M  V30 2076 C 191.103 1.3877 6.90596 0
M  V30 2077 H 187.202 -0.295642 0.723961 0
M  V30 2078 H 189.786 -0.13365 1.94241 0
M  V30 2079 H 187.957 -2.39268 3.0595 0
M  V30 2080 H 189.689 -2.34056 3.30151 0
M  V30 2081 H 186.444 -0.846476 4.65974 0
M  V30 2082 H 186.868 0.765415 6.72659 0
M  V30 2083 H 191.51 -0.630562 4.18071 0
M  V30 2084 H 189.228 1.87612 7.8602 0
M  V30 2085 H 192.814 0.744415 5.77018 0
M  V30 2086 H 191.694 1.9804 7.58782 0
M  V30 2087 N 189.197 -1.51736 -0.425897 0
M  V30 2088 C 190.127 -1.76827 -1.52494 0
M  V30 2089 C 191.108 -0.618524 -1.58456 0
M  V30 2090 O 192.293 -0.862416 -1.74 0
M  V30 2091 C 189.423 -1.90374 -2.90474 0
M  V30 2092 C 188.377 -3.0588 -2.99369 0
M  V30 2093 C 187.703 -3.04625 -4.3944 0
M  V30 2094 C 189.003 -4.45644 -2.72394 0
M  V30 2095 H 190.697 -2.68855 -1.31748 0
M  V30 2096 H 188.243 -1.29372 -0.632362 0
M  V30 2097 H 190.196 -2.0651 -3.6733 0
M  V30 2098 H 188.92 -0.95004 -3.12477 0
M  V30 2099 H 187.579 -2.89467 -2.24954 0
M  V30 2100 H 187.227 -2.0701 -4.58428 0
M  V30 2101 H 186.927 -3.82195 -4.46319 0
M  V30 2102 H 188.451 -3.22869 -5.18255 0
M  V30 2103 H 189.865 -4.62348 -3.38979 0
M  V30 2104 H 188.262 -5.25006 -2.9067 0
M  V30 2105 H 189.332 -4.54893 -1.67929 0
M  V30 2106 N 190.675 0.682077 -1.42076 0
M  V30 2107 C 191.923 1.4393 -1.41876 0
M  V30 2108 C 192.244 1.94971 -0.0335599 0
M  V30 2109 O 191.514 1.72591 0.926773 0
M  V30 2110 H 190.094 0.534085 -0.522267 0
M  V30 2111 H 192.756 0.806427 -1.77434 0
M  V30 2112 H 191.852 2.29588 -2.11414 0
M  V30 2113 N 192.153 1.28127 0.917671 0
M  V30 2114 C 193.399 1.15223 1.66888 0
M  V30 2115 C 193.732 -0.299293 1.9188 0
M  V30 2116 O 193.007 -1.21805 1.51637 0
M  V30 2117 C 193.29 1.94706 3.02922 0
M  V30 2118 C 193.143 3.47898 2.85109 0
M  V30 2119 C 194.462 1.75939 4.03402 0
M  V30 2120 H 191.581 0.419946 0.605652 0
M  V30 2121 H 194.223 1.57398 1.06423 0
M  V30 2122 H 192.373 1.58864 3.54534 0
M  V30 2123 H 194.045 3.93624 2.40537 0
M  V30 2124 H 192.288 3.7373 2.20246 0
M  V30 2125 H 192.959 3.98765 3.81694 0
M  V30 2126 H 195.435 2.07209 3.60837 0
M  V30 2127 H 194.311 2.33931 4.96556 0
M  V30 2128 H 194.572 0.709877 4.36364 0
M  V30 2129 N 193.631 -1.12557 1.10312 0
M  V30 2130 C 194.877 -1.84515 0.855901 0
M  V30 2131 C 195.232 -1.82409 -0.611936 0
M  V30 2132 O 194.525 -1.25778 -1.44535 0
M  V30 2133 C 194.719 -3.31462 1.33669 0
M  V30 2134 C 194.548 -3.47879 2.84974 0
M  V30 2135 C 193.318 -3.61589 3.52961 0
M  V30 2136 C 195.516 -3.43152 3.83081 0
M  V30 2137 N 193.498 -3.66359 4.926 0
M  V30 2138 C 194.869 -3.54401 5.08724 0
M  V30 2139 C 196.924 -3.2661 3.75807 0
M  V30 2140 C 195.627 -3.50815 6.2795 0
M  V30 2141 C 197.653 -3.24335 4.94531 0
M  V30 2142 C 197.015 -3.36144 6.19021 0
M  V30 2143 H 193.114 -0.690967 0.366182 0
M  V30 2144 H 195.698 -1.34763 1.40524 0
M  V30 2145 H 193.869 -3.7976 0.814686 0
M  V30 2146 H 195.601 -3.91272 1.03385 0
M  V30 2147 H 192.356 -3.63652 3.03404 0
M  V30 2148 H 192.78 -3.72411 5.65366 0
M  V30 2149 H 197.422 -3.16375 2.80476 0
M  V30 2150 H 195.14 -3.5982 7.23571 0
M  V30 2151 H 198.726 -3.12719 4.9061 0
M  V30 2152 H 197.606 -3.34357 7.09348 0
M  V30 2153 N 195.109 -0.891671 -1.2995 0
M  V30 2154 C 196.019 -0.367691 -2.31701 0
M  V30 2155 C 197.035 0.533486 -1.6562 0
M  V30 2156 O 198.211 0.424997 -1.96865 0
M  V30 2157 C 195.276 0.403406 -3.44345 0
M  V30 2158 C 194.337 -0.528328 -4.26037 0
M  V30 2159 C 193.57 0.206063 -5.33302 0
M  V30 2160 O 193.793 1.43119 -5.52153 0
M  V30 2161 O 192.727 -0.447281 -6.00236 0
M  V30 2162 H 196.553 -1.21163 -2.78484 0
M  V30 2163 H 194.138 -0.655725 -1.34241 0
M  V30 2164 H 196.02 0.839753 -4.12948 0
M  V30 2165 H 194.695 1.22354 -2.99685 0
M  V30 2166 H 193.602 -1.01362 -3.60106 0
M  V30 2167 H 194.935 -1.31465 -4.74318 0
M  V30 2168 N 196.587 1.43421 -0.653314 0
M  V30 2169 C 197.534 2.30768 0.0382271 0
M  V30 2170 C 198.504 1.44755 0.814576 0
M  V30 2171 O 199.689 1.73624 0.791162 0
M  V30 2172 C 196.829 3.30336 0.998599 0
M  V30 2173 C 195.942 4.31448 0.218342 0
M  V30 2174 C 195.077 5.18098 1.17252 0
M  V30 2175 C 194.116 6.10902 0.382702 0
M  V30 2176 N 193.253 6.90176 1.28848 0
M  V30 2177 H 198.093 2.89357 -0.712511 0
M  V30 2178 H 195.63 1.42548 -0.363128 0
M  V30 2179 H 197.588 3.86572 1.56901 0
M  V30 2180 H 196.218 2.73397 1.71621 0
M  V30 2181 H 195.27 3.77506 -0.46836 0
M  V30 2182 H 196.582 4.97227 -0.395812 0
M  V30 2183 H 195.736 5.7896 1.81356 0
M  V30 2184 H 194.475 4.52444 1.82058 0
M  V30 2185 H 193.48 5.49128 -0.27169 0
M  V30 2186 H 194.705 6.78598 -0.260957 0
M  V30 2187 H 192.651 6.27171 1.92334 0
M  V30 2188 H 192.568 7.52478 0.728887 0
M  V30 2189 H 193.836 7.55543 1.91766 0
M  V30 2190 N 198.065 0.39524 1.52563 0
M  V30 2191 C 199.013 -0.451859 2.28169 0
M  V30 2192 C 200.007 -1.05792 1.32304 0
M  V30 2193 O 201.213 -0.997718 1.49818 0
M  V30 2194 H 197.588 -0.164481 0.733792 0
M  V30 2195 H 199.559 0.207199 2.9768 0
M  V30 2196 C 198.308 -1.56385 3.10546 0
M  V30 2197 H 197.631 -1.10682 3.84174 0
M  V30 2198 H 199.071 -2.13067 3.66577 0
M  V30 2199 C 197.53 -2.52328 2.23231 0
M  V30 2200 O 198.06 -3.5588 1.86312 0
M  V30 2201 N 196.266 -2.22209 1.87274 0
M  V30 2202 H 195.813 -1.38033 2.17496 0
M  V30 2203 H 195.771 -2.86652 1.29143 0
M  V30 2204 N 199.544 -1.57102 0.125237 0
M  V30 2205 C 200.454 -2.19191 -0.8362 0
M  V30 2206 C 201.47 -1.16985 -1.28805 0
M  V30 2207 O 202.646 -1.49479 -1.34974 0
M  V30 2208 C 199.711 -2.78407 -2.06617 0
M  V30 2209 C 198.772 -3.9567 -1.66565 0
M  V30 2210 C 198.005 -4.52052 -2.83698 0
M  V30 2211 O 198.228 -4.07326 -3.99302 0
M  V30 2212 O 197.162 -5.42645 -2.60423 0
M  V30 2213 H 200.988 -3.01816 -0.337776 0
M  V30 2214 H 198.573 -1.4906 -0.100695 0
M  V30 2215 H 200.455 -3.16129 -2.7864 0
M  V30 2216 H 199.13 -1.9881 -2.55453 0
M  V30 2217 H 198.037 -3.62705 -0.916296 0
M  V30 2218 H 199.37 -4.76722 -1.22464 0
M  V30 2219 N 201.022 0.148545 -1.56898 0
M  V30 2220 C 201.97 1.20265 -1.99096 0
M  V30 2221 C 202.964 1.44559 -0.883123 0
M  V30 2222 O 204.17 1.4487 -1.0683 0
M  V30 2223 H 200.545 0.404786 -0.63376 0
M  V30 2224 H 202.516 0.82004 -2.86911 0
M  V30 2225 C 201.265 2.52886 -2.3863 0
M  V30 2226 H 200.588 2.35021 -3.23427 0
M  V30 2227 H 202.028 3.25274 -2.7198 0
M  V30 2228 C 200.487 3.13315 -1.23837 0
M  V30 2229 O 201.017 3.98077 -0.538268 0
M  V30 2230 N 199.223 2.72742 -1.00301 0
M  V30 2231 H 198.77 2.03912 -1.5741 0
M  V30 2232 H 198.728 3.13507 -0.236838 0
M  V30 2233 N 202.5 1.5196 0.417844 0
M  V30 2234 C 203.463 1.74065 1.49111 0
M  V30 2235 C 204.463 0.610537 1.48758 0
M  V30 2236 O 205.653 0.87832 1.50437 0
M  V30 2237 C 202.785 1.81502 2.88565 0
M  V30 2238 H 203.978 2.69869 1.30807 0
M  V30 2239 H 201.531 1.42244 0.647785 0
M  V30 2240 H 202.266 0.875813 3.1225 0
M  V30 2241 H 202.051 2.63651 2.90225 0
M  V30 2242 H 203.541 2.00376 3.66387 0
M  V30 2243 N 203.978 -0.674533 1.42435 0
M  V30 2244 C 205.227 -1.43034 1.42212 0
M  V30 2245 C 205.54 -1.95555 0.0420788 0
M  V30 2246 O 206.746 -2.71374 -0.0827558 0
M  V30 2247 C 205.202 -2.58748 2.50155 0
M  V30 2248 C 204.81 -2.12925 3.94166 0
M  V30 2249 C 206.554 -3.36257 2.59098 0
M  V30 2250 C 204.461 -3.25723 4.93618 0
M  V30 2251 H 203.391 -0.537345 0.528939 0
M  V30 2252 H 206.042 -0.73024 1.68344 0
M  V30 2253 H 204.424 -3.31128 2.17188 0
M  V30 2254 H 205.598 -1.47697 4.36488 0
M  V30 2255 H 203.913 -1.48354 3.89076 0
M  V30 2256 H 206.51 -4.20264 3.30578 0
M  V30 2257 H 206.853 -3.82866 1.63461 0
M  V30 2258 H 207.386 -2.70947 2.9126 0
M  V30 2259 H 204.125 -2.84105 5.90732 0
M  V30 2260 H 203.645 -3.89732 4.55926 0
M  V30 2261 H 205.324 -3.91186 5.15347 0
M  V30 2262 N 205.456 -1.28612 -0.910864 0
M  V30 2263 C 206.419 -1.12803 -1.9952 0
M  V30 2264 C 207.419 -0.0668264 -1.60661 0
M  V30 2265 O 208.609 -0.312847 -1.71368 0
M  V30 2266 C 205.741 -0.72254 -3.33155 0
M  V30 2267 H 206.934 -2.09109 -2.14973 0
M  V30 2268 H 204.487 -1.11639 -1.09391 0
M  V30 2269 H 205.222 0.241152 -3.23402 0
M  V30 2270 H 205.007 -1.48916 -3.62721 0
M  V30 2271 H 206.497 -0.634666 -4.12749 0
M  V30 2272 N 206.934 1.1197 -1.10907 0
M  V30 2273 C 208.181 1.83588 -0.854507 0
M  V30 2274 C 208.509 1.84357 0.6199 0
M  V30 2275 O 207.764 1.28809 1.47332 0
M  V30 2276 C 208.063 3.30749 -1.35425 0
M  V30 2277 C 207.729 3.50146 -2.84093 0
M  V30 2278 C 206.391 3.55148 -3.2469 0
M  V30 2279 C 208.743 3.56857 -3.79872 0
M  V30 2280 C 206.071 3.6441 -4.59806 0
M  V30 2281 C 208.423 3.6765 -5.14797 0
M  V30 2282 C 207.087 3.7091 -5.54961 0
M  V30 2283 H 206.357 0.671795 -0.312686 0
M  V30 2284 H 209.004 1.32091 -1.38652 0
M  V30 2285 H 207.309 3.84703 -0.742361 0
M  V30 2286 H 209.006 3.8464 -1.1337 0
M  V30 2287 H 205.596 3.46919 -2.51685 0
M  V30 2288 H 209.78 3.52258 -3.49611 0
M  V30 2289 H 205.036 3.65208 -4.9034 0
M  V30 2290 H 209.21 3.71786 -5.88853 0
M  V30 2291 H 206.837 3.7784 -6.59652 0
M  V30 2292 N 208.412 0.89855 1.29475 0
M  V30 2293 C 209.642 0.538479 1.99459 0
M  V30 2294 C 210.05 -0.880922 1.67441 0
M  V30 2295 O 209.393 -1.59283 0.915127 0
M  V30 2296 C 209.455 0.649564 3.53583 0
M  V30 2297 C 209.119 2.03573 4.09154 0
M  V30 2298 C 210.116 3.00675 4.24135 0
M  V30 2299 C 207.801 2.3448 4.44212 0
M  V30 2300 C 209.795 4.26809 4.73405 0
M  V30 2301 C 207.482 3.60857 4.93179 0
M  V30 2302 C 208.48 4.56836 5.0773 0
M  V30 2303 O 208.168 5.80969 5.55635 0
M  V30 2304 H 207.9 0.205372 0.644048 0
M  V30 2305 H 210.454 1.20958 1.66007 0
M  V30 2306 H 208.684 -0.0785592 3.8662 0
M  V30 2307 H 210.373 0.29881 4.04799 0
M  V30 2308 H 211.139 2.78112 3.97339 0
M  V30 2309 H 207.018 1.60534 4.32145 0
M  V30 2310 H 210.562 5.0173 4.84678 0
M  V30 2311 H 206.459 3.83251 5.19412 0
M  V30 2312 H 207.227 5.83542 5.73952 0
M  V30 2313 N 209.89 -1.43072 0.660911 0
M  V30 2314 C 210.837 -2.30785 -0.0259884 0
M  V30 2315 C 211.807 -1.45184 -0.806888 0
M  V30 2316 O 212.992 -1.74041 -0.781943 0
M  V30 2317 C 210.132 -3.30861 -0.981067 0
M  V30 2318 C 209.245 -4.31558 -0.195458 0
M  V30 2319 C 208.38 -5.18712 -1.14503 0
M  V30 2320 C 207.419 -6.11097 -0.350299 0
M  V30 2321 N 206.556 -6.90849 -1.25186 0
M  V30 2322 H 211.396 -2.88975 0.727846 0
M  V30 2323 H 208.933 -1.42353 0.370682 0
M  V30 2324 H 210.891 -3.87399 -1.54849 0
M  V30 2325 H 209.521 -2.74304 -1.70169 0
M  V30 2326 H 208.573 -3.77252 0.488374 0
M  V30 2327 H 209.885 -4.9701 0.422176 0
M  V30 2328 H 209.039 -5.79914 -1.78284 0
M  V30 2329 H 207.778 -4.53404 -1.79656 0
M  V30 2330 H 206.783 -5.48976 0.300808 0
M  V30 2331 H 208.008 -6.7845 0.296941 0
M  V30 2332 H 205.954 -6.28182 -1.89005 0
M  V30 2333 H 205.871 -7.52854 -0.688971 0
M  V30 2334 H 207.139 -7.5655 -1.87757 0
M  V30 2335 N 211.368 -0.403325 -1.52352 0
M  V30 2336 C 212.315 0.425011 -2.26853 0
M  V30 2337 C 213.285 1.04598 -1.29029 0
M  V30 2338 O 214.47 1.07135 -1.57882 0
M  V30 2339 C 211.61 1.53888 -3.08889 0
M  V30 2340 C 210.723 0.939396 -4.21663 0
M  V30 2341 C 209.858 2.02547 -4.91068 0
M  V30 2342 C 208.897 1.40263 -5.95813 0
M  V30 2343 N 208.034 2.4286 -6.58759 0
M  V30 2344 H 212.874 -0.21674 -2.97211 0
M  V30 2345 H 210.411 -0.118722 -1.4662 0
M  V30 2346 H 212.369 2.19558 -3.54753 0
M  V30 2347 H 210.999 2.15074 -2.40714 0
M  V30 2348 H 210.051 0.171898 -3.80011 0
M  V30 2349 H 211.363 0.44436 -4.96817 0
M  V30 2350 H 210.517 2.75958 -5.40308 0
M  V30 2351 H 209.256 2.55415 -4.15469 0
M  V30 2352 H 208.261 0.653833 -5.45898 0
M  V30 2353 H 209.486 0.881719 -6.73352 0
M  V30 2354 H 207.432 2.94871 -5.85992 0
M  V30 2355 H 207.349 1.98152 -7.2957 0
M  V30 2356 H 208.617 3.15858 -7.12639 0
M  V30 2357 N 212.846 1.57033 -0.133567 0
M  V30 2358 C 213.779 2.11824 0.848872 0
M  V30 2359 C 214.757 1.03833 1.2513 0
M  V30 2360 O 215.941 1.31579 1.34978 0
M  V30 2361 C 213.068 2.62692 2.138 0
M  V30 2362 C 212.114 3.82705 1.88253 0
M  V30 2363 S 212.947 5.2438 1.08563 0
M  V30 2364 C 214.103 5.78627 2.38624 0
M  V30 2365 H 214.336 2.94824 0.38289 0
M  V30 2366 H 211.869 1.5419 0.0804796 0
M  V30 2367 H 213.827 2.92652 2.87863 0
M  V30 2368 H 212.488 1.79847 2.57515 0
M  V30 2369 H 211.681 4.16496 2.83809 0
M  V30 2370 H 211.283 3.53437 1.22305 0
M  V30 2371 H 213.575 5.8924 3.34369 0
M  V30 2372 H 214.518 6.76443 2.09358 0
M  V30 2373 H 214.926 5.06783 2.48658 0
M  V30 2374 N 214.325 -0.140222 1.56975 0
M  V30 2375 C 215.573 -0.850005 1.83356 0
M  V30 2376 C 215.894 -1.81399 0.71551 0
M  V30 2377 O 215.164 -1.94136 -0.262294 0
M  V30 2378 H 213.744 -0.316886 0.676456 0
M  V30 2379 H 216.406 -0.132608 1.94448 0
M  V30 2380 H 215.502 -1.40814 2.78528 0
M  V30 2381 N 215.803 -1.52179 -0.40978 0
M  V30 2382 C 217.05 -1.66206 -1.15679 0
M  V30 2383 C 217.378 -0.391674 -1.90516 0
M  V30 2384 O 216.633 0.62533 -1.8544 0
M  V30 2385 C 216.932 -2.83428 -2.17723 0
M  V30 2386 C 216.598 -4.21672 -1.59699 0
M  V30 2387 C 215.26 -4.59274 -1.43599 0
M  V30 2388 C 217.612 -5.07825 -1.17317 0
M  V30 2389 C 214.94 -5.80709 -0.836328 0
M  V30 2390 C 217.292 -6.29864 -0.587691 0
M  V30 2391 C 215.956 -6.66216 -0.413818 0
M  V30 2392 H 215.226 -0.608192 -0.423301 0
M  V30 2393 H 217.873 -1.86279 -0.444097 0
M  V30 2394 H 216.178 -2.57687 -2.95135 0
M  V30 2395 H 217.875 -2.91477 -2.75394 0
M  V30 2396 H 214.465 -3.9204 -1.73213 0
M  V30 2397 H 218.649 -4.79359 -1.28565 0
M  V30 2398 H 213.905 -6.07498 -0.689626 0
M  V30 2399 H 218.079 -6.95948 -0.250894 0
M  V30 2400 H 215.706 -7.60182 0.0529471 0
M  V30 2401 N 217.281 0.66697 -1.42791 0
M  V30 2402 C 218.527 1.4291 -1.43891 0
M  V30 2403 C 218.86 1.94114 -0.0578972 0
M  V30 2404 O 218.135 1.71414 0.91911 0
M  V30 2405 C 218.418 2.62049 -2.46987 0
M  V30 2406 C 218.271 2.16426 -3.94309 0
M  V30 2407 C 219.59 3.64266 -2.46978 0
M  V30 2408 H 216.709 0.518306 -0.523954 0
M  V30 2409 H 219.351 0.757321 -1.74255 0
M  V30 2410 H 217.501 3.19361 -2.21225 0
M  V30 2411 H 219.173 1.64221 -4.31079 0
M  V30 2412 H 217.416 1.47925 -4.078 0
M  V30 2413 H 218.087 3.02038 -4.62036 0
M  V30 2414 H 220.563 3.16686 -2.69906 0
M  V30 2415 H 219.439 4.45196 -3.21079 0
M  V30 2416 H 219.7 4.15927 -1.49857 0
M  V30 2417 N 218.759 1.29093 0.90403 0
M  V30 2418 C 219.691 1.09658 2.01266 0
M  V30 2419 C 220.704 0.0453729 1.62737 0
M  V30 2420 O 221.893 0.289446 1.76138 0
M  V30 2421 C 218.993 0.646278 3.32681 0
M  V30 2422 C 218.166 1.77505 3.99763 0
M  V30 2423 C 217.225 1.31649 5.09465 0
M  V30 2424 O 216.251 2.02045 5.32134 0
M  V30 2425 N 217.453 0.184997 5.80205 0
M  V30 2426 H 220.218 2.05135 2.18494 0
M  V30 2427 H 217.779 1.20975 1.07594 0
M  V30 2428 H 219.771 0.322906 4.0341 0
M  V30 2429 H 218.341 -0.215916 3.11853 0
M  V30 2430 H 217.561 2.26752 3.22455 0
M  V30 2431 H 218.849 2.53198 4.41325 0
M  V30 2432 H 218.247 -0.402021 5.6427 0
M  V30 2433 H 216.804 -0.0790358 6.51752 0
M  V30 2434 N 220.237 -1.11381 1.11499 0
M  V30 2435 C 221.465 -1.86934 0.88675 0
M  V30 2436 C 221.88 -1.80195 -0.563476 0
M  V30 2437 O 221.237 -1.18367 -1.38908 0
M  V30 2438 C 221.288 -3.35722 1.34064 0
M  V30 2439 O 221.009 -3.4232 2.73401 0
M  V30 2440 C 222.51 -4.2818 1.14791 0
M  V30 2441 H 219.73 -0.591117 0.317523 0
M  V30 2442 H 222.274 -1.40865 1.48248 0
M  V30 2443 H 220.429 -3.79294 0.788355 0
M  V30 2444 H 220.843 -4.34971 2.93087 0
M  V30 2445 H 222.317 -5.30817 1.5145 0
M  V30 2446 H 222.794 -4.39113 0.0875279 0
M  V30 2447 H 223.4 -3.90402 1.68721 0
M  V30 2448 N 221.715 -0.905404 -1.28997 0
M  V30 2449 C 222.963 -0.533192 -1.9494 0
M  V30 2450 C 223.284 0.924618 -1.71685 0
M  V30 2451 O 222.554 1.65268 -1.05183 0
M  V30 2452 H 221.134 -0.194194 -0.721317 0
M  V30 2453 H 223.796 -1.15294 -1.57141 0
M  V30 2454 H 222.892 -0.72059 -3.03667 0
M  V30 2455 N 223.193 1.4272 -0.668489 0
M  V30 2456 C 224.156 2.292 0.00448567 0
M  V30 2457 C 225.156 1.43001 0.735339 0
M  V30 2458 O 226.346 1.64461 0.57429 0
M  V30 2459 C 223.478 3.25375 1.01705 0
M  V30 2460 H 224.671 2.90199 -0.756608 0
M  V30 2461 H 222.224 1.50254 -0.430506 0
M  V30 2462 H 222.959 2.69301 1.80686 0
M  V30 2463 H 222.744 3.88944 0.496463 0
M  V30 2464 H 224.234 3.90245 1.48655 0
M  V30 2465 N 224.671 0.411399 1.52136 0
M  V30 2466 C 225.621 -0.430376 2.23901 0
M  V30 2467 C 226.605 -1.0116 1.25121 0
M  V30 2468 O 227.797 -0.934044 1.50348 0
M  V30 2469 C 224.926 -1.54527 3.06556 0
M  V30 2470 C 224.012 -0.9747 4.12747 0
M  V30 2471 N 224.403 -0.130991 5.0563 0
M  V30 2472 C 222.701 -1.24497 4.28271 0
M  V30 2473 C 223.402 0.186689 5.814 0
M  V30 2474 N 222.378 -0.42304 5.41951 0
M  V30 2475 H 226.18 0.220509 2.93072 0
M  V30 2476 H 223.694 0.221952 1.60876 0
M  V30 2477 H 225.691 -2.16093 3.56524 0
M  V30 2478 H 224.351 -2.19875 2.38925 0
M  V30 2479 H 225.362 0.23349 5.17373 0
M  V30 2480 H 222.039 -1.89787 3.7187 0
M  V30 2481 H 223.429 0.871673 6.66222 0
M  V30 2482 N 226.149 -1.5696 0.141893 0
M  V30 2483 C 227.374 -2.00754 -0.520838 0
M  V30 2484 C 227.799 -1.0213 -1.57959 0
M  V30 2485 O 227.157 0.00371324 -1.813 0
M  V30 2486 C 227.205 -3.43318 -1.10294 0
M  V30 2487 O 226.309 -3.47679 -2.21795 0
M  V30 2488 H 225.65 -0.651564 -0.127908 0
M  V30 2489 H 228.18 -2.03221 0.23712 0
M  V30 2490 H 228.19 -3.82012 -1.43287 0
M  V30 2491 H 226.865 -4.14608 -0.327574 0
M  V30 2492 H 225.442 -3.20824 -1.9007 0
M  V30 2493 N 227.627 0.131896 -1.57047 0
M  V30 2494 C 228.874 0.841932 -1.84168 0
M  V30 2495 C 229.202 1.8048 -0.725066 0
M  V30 2496 O 228.457 1.93618 0.284692 0
M  V30 2497 C 228.756 1.63703 -3.17704 0
M  V30 2498 C 228.422 0.81961 -4.43388 0
M  V30 2499 C 227.084 0.594148 -4.77518 0
M  V30 2500 C 229.436 0.248977 -5.20605 0
M  V30 2501 C 226.764 -0.212409 -5.86315 0
M  V30 2502 C 229.116 -0.544701 -6.30251 0
M  V30 2503 C 227.78 -0.780599 -6.6292 0
M  V30 2504 H 227.05 0.308085 -0.673917 0
M  V30 2505 H 229.697 0.104867 -1.91213 0
M  V30 2506 H 228.002 2.44464 -3.06177 0
M  V30 2507 H 229.699 2.19015 -3.35907 0
M  V30 2508 H 226.289 1.00542 -4.16641 0
M  V30 2509 H 230.473 0.410408 -4.946 0
M  V30 2510 H 225.729 -0.404524 -6.1006 0
M  V30 2511 H 229.903 -0.993922 -6.89271 0
M  V30 2512 H 227.53 -1.40742 -7.47058 0
M  V30 2513 N 229.106 1.52395 0.401703 0
M  V30 2514 C 230.336 1.70429 1.1678 0
M  V30 2515 C 230.744 0.416702 1.84554 0
M  V30 2516 O 230.087 -0.617697 1.73003 0
M  V30 2517 C 230.149 2.78919 2.26814 0
M  V30 2518 C 229.813 4.20437 1.79113 0
M  V30 2519 C 230.81 5.04028 1.27482 0
M  V30 2520 C 228.495 4.66704 1.85722 0
M  V30 2521 C 230.489 6.31961 0.830913 0
M  V30 2522 C 228.176 5.94625 1.40942 0
M  V30 2523 C 229.174 6.77082 0.897128 0
M  V30 2524 O 228.862 8.02607 0.455822 0
M  V30 2525 H 228.594 0.574272 0.356634 0
M  V30 2526 H 231.148 1.99767 0.477724 0
M  V30 2527 H 229.378 2.44973 2.99207 0
M  V30 2528 H 231.067 2.8548 2.88541 0
M  V30 2529 H 231.833 4.69471 1.21744 0
M  V30 2530 H 227.712 4.0262 2.24539 0
M  V30 2531 H 231.256 6.96271 0.430368 0
M  V30 2532 H 227.153 6.28688 1.46362 0
M  V30 2533 H 227.921 8.16453 0.578457 0
M  V30 2534 N 230.584 -0.659388 1.43143 0
M  V30 2535 C 231.517 -1.78425 1.42267 0
M  V30 2536 C 232.495 -1.60085 0.284894 0
M  V30 2537 O 233.679 -1.82351 0.477527 0
M  V30 2538 C 230.806 -3.15642 1.22833 0
M  V30 2539 C 229.852 -3.52698 2.39806 0
M  V30 2540 S 230.685 -3.53372 4.02353 0
M  V30 2541 C 231.841 -4.93256 3.85291 0
M  V30 2542 H 232.074 -1.78897 2.37452 0
M  V30 2543 H 229.607 -0.831469 1.301 0
M  V30 2544 H 231.565 -3.94838 1.12308 0
M  V30 2545 H 230.226 -3.12739 0.29207 0
M  V30 2546 H 229.419 -4.52475 2.21996 0
M  V30 2547 H 229.021 -2.80899 2.46925 0
M  V30 2548 H 231.313 -5.81751 3.47235 0
M  V30 2549 H 232.256 -5.16115 4.84799 0
M  V30 2550 H 232.664 -4.665 3.17865 0
M  V30 2551 N 232.062 -1.29571 -0.897171 0
M  V30 2552 C 233.31 -1.17456 -1.64464 0
M  V30 2553 C 233.631 0.273698 -1.9307 0
M  V30 2554 O 232.901 1.18684 -1.55855 0
M  V30 2555 H 231.481 -0.431706 -0.609622 0
M  V30 2556 H 234.143 -1.62531 -1.07562 0
M  V30 2557 H 233.239 -1.72648 -2.59998 0
M  V30 2558 N 233.54 1.10788 -1.12088 0
M  V30 2559 C 234.817 1.79136 -0.785476 0
M  V30 2560 C 235.197 1.98246 0.725377 0
M  V30 2561 O 234.545 1.57258 1.65778 0
M  V30 2562 C 234.755 3.12375 -1.55636 0
M  V30 2563 C 236.103 3.8731 -1.74001 0
M  V30 2564 O 237.127 3.22085 -1.52117 0
M  V30 2565 O 235.986 5.04369 -2.10415 0
M  V30 2566 H 233.08 0.776226 -0.285311 0
M  V30 2567 H 235.626 1.1747 -1.2247 0
M  V30 2568 H 234.398 2.93863 -2.5838 0
M  V30 2569 H 234.021 3.81758 -1.11114 0
M  V30 2570 N 235.018 0.912232 1.28515 0
M  V30 2571 C 235.928 0.404506 2.31086 0
M  V30 2572 C 236.944 -0.50707 1.66448 0
M  V30 2573 O 238.12 -0.393624 1.97516 0
M  V30 2574 C 235.185 -0.348572 3.44943 0
M  V30 2575 C 234.246 0.59604 4.25142 0
M  V30 2576 C 233.479 -0.121194 5.33562 0
M  V30 2577 O 233.702 -1.34317 5.5436 0
M  V30 2578 O 232.636 0.542716 5.99448 0
M  V30 2579 H 236.462 1.25579 2.76521 0
M  V30 2580 H 234.047 0.676998 1.33181 0
M  V30 2581 H 235.929 -0.77395 4.14232 0
M  V30 2582 H 234.604 -1.17571 3.01594 0
M  V30 2583 H 233.511 1.07079 3.58448 0
M  V30 2584 H 234.844 1.38995 4.72167 0
M  V30 2585 N 236.496 -1.42363 0.676048 0
M  V30 2586 C 237.406 -2.346 -0.00153389 0
M  V30 2587 C 238.422 -1.5516 -0.787485 0
M  V30 2588 O 239.598 -1.87723 -0.729521 0
M  V30 2589 C 236.663 -3.33705 -0.940298 0
M  V30 2590 C 235.724 -4.29042 -0.148739 0
M  V30 2591 C 234.957 -5.23413 -1.04279 0
M  V30 2592 O 235.18 -5.22749 -2.28232 0
M  V30 2593 O 234.114 -5.99795 -0.502925 0
M  V30 2594 H 237.94 -2.94082 0.758268 0
M  V30 2595 H 235.525 -1.42888 0.436289 0
M  V30 2596 H 237.407 -3.94586 -1.47917 0
M  V30 2597 H 236.082 -2.76695 -1.67993 0
M  V30 2598 H 234.989 -3.71571 0.43427 0
M  V30 2599 H 236.322 -4.89097 0.551805 0
M  V30 2600 N 237.974 -0.419461 -1.51915 0
M  V30 2601 C 238.906 0.43646 -2.25006 0
M  V30 2602 C 239.919 1.00149 -1.28351 0
M  V30 2603 O 241.108 0.898674 -1.54227 0
M  V30 2604 C 238.208 1.6206 -2.9764 0
M  V30 2605 C 237.381 1.17763 -4.21249 0
M  V30 2606 C 236.44 2.22985 -4.76617 0
M  V30 2607 O 235.466 1.83151 -5.38929 0
M  V30 2608 N 236.668 3.55271 -4.59089 0
M  V30 2609 H 239.433 -0.18989 -2.99098 0
M  V30 2610 H 236.994 -0.247386 -1.59999 0
M  V30 2611 H 238.986 2.32038 -3.31573 0
M  V30 2612 H 237.556 2.15266 -2.2667 0
M  V30 2613 H 236.776 0.305582 -3.93014 0
M  V30 2614 H 238.064 0.858781 -5.015 0
M  V30 2615 H 237.462 3.90377 -4.09417 0
M  V30 2616 H 236.019 4.21195 -4.97432 0
M  V30 2617 N 239.452 1.56882 -0.150215 0
M  V30 2618 C 240.68 2.00593 0.506948 0
M  V30 2619 C 241.095 1.03033 1.58208 0
M  V30 2620 O 240.452 0.0278396 1.82479 0
M  V30 2621 C 240.503 3.44209 1.10465 0
M  V30 2622 O 240.224 4.3804 0.0724636 0
M  V30 2623 C 241.725 4.03214 1.84211 0
M  V30 2624 H 238.945 0.65795 0.13169 0
M  V30 2625 H 241.489 2.03018 -0.245743 0
M  V30 2626 H 239.644 3.42625 1.80795 0
M  V30 2627 H 240.058 5.22007 0.510793 0
M  V30 2628 H 241.532 5.0569 2.21318 0
M  V30 2629 H 242.009 3.44107 2.72923 0
M  V30 2630 H 242.615 4.08437 1.18572 0
M  V30 2631 N 240.93 -0.123565 1.57115 0
M  V30 2632 C 242.207 -0.862196 1.75572 0
M  V30 2633 C 242.587 -1.98279 0.724475 0
M  V30 2634 O 241.935 -2.27102 -0.252407 0
M  V30 2635 C 242.145 -1.38309 3.20424 0
M  V30 2636 C 243.493 -1.83724 3.82793 0
M  V30 2637 O 244.517 -1.47999 3.23998 0
M  V30 2638 O 243.376 -2.49685 4.86127 0
M  V30 2639 H 240.47 -0.409113 0.718718 0
M  V30 2640 H 243.016 -0.107661 1.69358 0
M  V30 2641 H 241.788 -0.578889 3.86994 0
M  V30 2642 H 241.411 -2.20046 3.31158 0
M  V30 2643 N 242.408 -1.52605 -0.393616 0
M  V30 2644 C 243.338 -1.80022 -1.48709 0
M  V30 2645 C 244.319 -0.651995 -1.57108 0
M  V30 2646 O 245.504 -0.89913 -1.72132 0
M  V30 2647 C 242.634 -1.96492 -2.86371 0
M  V30 2648 C 241.588 -3.12161 -2.92813 0
M  V30 2649 C 240.914 -3.13877 -4.3288 0
M  V30 2650 C 242.214 -4.51322 -2.6288 0
M  V30 2651 H 243.908 -2.71589 -1.26015 0
M  V30 2652 H 241.454 -1.30684 -0.604778 0
M  V30 2653 H 243.407 -2.14255 -3.62867 0
M  V30 2654 H 242.131 -1.01611 -3.10391 0
M  V30 2655 H 240.79 -2.94173 -2.18764 0
M  V30 2656 H 240.438 -2.16687 -4.53933 0
M  V30 2657 H 240.138 -3.91576 -4.38112 0
M  V30 2658 H 241.662 -3.33789 -5.1129 0
M  V30 2659 H 243.076 -4.69435 -3.29096 0
M  V30 2660 H 241.473 -5.31053 -2.79468 0
M  V30 2661 H 242.543 -4.58353 -1.58242 0
M  V30 2662 N 243.887 0.651787 -1.4349 0
M  V30 2663 C 245.136 1.40754 -1.44469 0
M  V30 2664 C 245.449 1.95463 -0.0731845 0
M  V30 2665 O 246.655 2.71471 0.0395721 0
M  V30 2666 C 245.111 2.54735 -2.5424 0
M  V30 2667 C 244.719 2.06628 -3.97504 0
M  V30 2668 C 246.463 3.32092 -2.64414 0
M  V30 2669 C 244.37 3.17829 -4.98737 0
M  V30 2670 H 243.3 0.528862 -0.53742 0
M  V30 2671 H 245.951 0.703365 -1.69485 0
M  V30 2672 H 244.333 3.2763 -2.22428 0
M  V30 2673 H 245.507 1.40734 -4.38783 0
M  V30 2674 H 243.822 1.42146 -3.91387 0
M  V30 2675 H 246.419 4.14952 -3.37223 0
M  V30 2676 H 246.762 3.80217 -1.69532 0
M  V30 2677 H 247.295 2.66279 -2.95534 0
M  V30 2678 H 244.034 2.74671 -5.95177 0
M  V30 2679 H 243.554 3.82429 -4.62069 0
M  V30 2680 H 245.233 3.82937 -5.21505 0
M  V30 2681 N 245.365 1.30045 0.890287 0
M  V30 2682 C 246.298 1.10301 1.99772 0
M  V30 2683 C 247.276 0.0121631 1.62595 0
M  V30 2684 O 248.46 0.16469 1.87779 0
M  V30 2685 C 245.587 0.681125 3.31781 0
M  V30 2686 C 244.633 1.77206 3.87944 0
M  V30 2687 S 245.466 3.37335 4.15891 0
M  V30 2688 C 246.622 2.97036 5.50927 0
M  V30 2689 H 246.855 2.04057 2.16213 0
M  V30 2690 H 244.388 1.14299 1.03804 0
M  V30 2691 H 246.346 0.444439 4.08087 0
M  V30 2692 H 245.007 -0.236981 3.13205 0
M  V30 2693 H 244.2 1.42903 4.83316 0
M  V30 2694 H 243.802 1.96275 3.18358 0
M  V30 2695 H 246.094 2.44666 6.31779 0
M  V30 2696 H 247.037 3.91296 5.90164 0
M  V30 2697 H 247.445 2.35057 5.13233 0
M  V30 2698 N 246.843 -1.10192 1.12674 0
M  V30 2699 C 247.806 -2.14786 0.799979 0
M  V30 2700 C 248.806 -1.59711 -0.18685 0
M  V30 2701 O 249.996 -1.74156 0.0392558 0
M  V30 2702 C 247.128 -3.40374 0.189228 0
M  V30 2703 H 248.321 -2.45203 1.72671 0
M  V30 2704 H 245.874 -1.25597 0.930326 0
M  V30 2705 H 246.609 -3.15577 -0.747107 0
M  V30 2706 H 246.394 -3.81637 0.899766 0
M  V30 2707 H 247.884 -4.17594 -0.0228143 0
M  V30 2708 N 248.321 -0.919034 -1.28029 0
M  V30 2709 C 249.268 -0.410005 -2.27129 0
M  V30 2710 C 250.238 0.518405 -1.57803 0
M  V30 2711 O 251.423 0.439451 -1.8567 0
M  V30 2712 C 248.563 0.339054 -3.4343 0
M  V30 2713 C 247.676 -0.622468 -4.27492 0
M  V30 2714 C 246.811 0.145567 -5.31001 0
M  V30 2715 C 245.85 -0.809226 -6.06727 0
M  V30 2716 N 244.987 -0.0743728 -7.02061 0
M  V30 2717 H 249.827 -1.26011 -2.70047 0
M  V30 2718 H 247.364 -0.632663 -1.328 0
M  V30 2719 H 249.322 0.789586 -4.0966 0
M  V30 2720 H 247.952 1.15346 -3.01488 0
M  V30 2721 H 247.004 -1.19153 -3.61257 0
M  V30 2722 H 248.316 -1.35252 -4.80113 0
M  V30 2723 H 247.47 0.656417 -6.03139 0
M  V30 2724 H 246.209 0.908643 -4.79161 0
M  V30 2725 H 245.214 -1.3314 -5.33436 0
M  V30 2726 H 246.439 -1.57194 -6.60656 0
M  V30 2727 H 244.385 0.670616 -6.52563 0
M  V30 2728 H 244.302 -0.744157 -7.52329 0
M  V30 2729 H 245.57 0.416109 -7.78389 0
M  V30 2730 N 249.799 1.42003 -0.683588 0
M  V30 2731 C 251.027 2.05746 -0.218182 0
M  V30 2732 C 251.442 1.51396 1.12804 0
M  V30 2733 O 250.799 0.657303 1.70252 0
M  V30 2734 C 250.85 3.61171 -0.154131 0
M  V30 2735 O 250.571 4.13508 -1.44716 0
M  V30 2736 C 252.072 4.42042 0.333713 0
M  V30 2737 H 249.292 0.662888 -0.10402 0
M  V30 2738 H 251.836 1.81987 -0.9328 0
M  V30 2739 H 249.991 3.84012 0.511231 0
M  V30 2740 H 250.405 5.07453 -1.32632 0
M  V30 2741 H 251.879 5.51028 0.327423 0
M  V30 2742 H 252.356 4.17269 1.37053 0
M  V30 2743 H 252.962 4.24239 -0.300222 0
M  V30 2744 N 251.277 0.427512 1.51691 0
M  V30 2745 C 252.207 -0.3796 2.30394 0
M  V30 2746 C 253.188 -1.02982 1.35384 0
M  V30 2747 O 254.373 -1.03534 1.643 0
M  V30 2748 C 251.503 -1.48649 3.1388 0
M  V30 2749 C 250.457 -0.960294 4.17088 0
M  V30 2750 C 249.783 -2.16219 4.89033 0
M  V30 2751 C 251.083 -0.00153679 5.223 0
M  V30 2752 H 252.777 0.277164 2.98114 0
M  V30 2753 H 250.323 0.134739 1.43368 0
M  V30 2754 H 252.276 -2.05826 3.67714 0
M  V30 2755 H 251 -2.1714 2.43962 0
M  V30 2756 H 249.659 -0.410806 3.64291 0
M  V30 2757 H 249.307 -2.83307 4.15628 0
M  V30 2758 H 249.007 -1.81654 5.58816 0
M  V30 2759 H 250.531 -2.73968 5.45687 0
M  V30 2760 H 251.945 -0.482687 5.71264 0
M  V30 2761 H 250.342 0.256199 5.99553 0
M  V30 2762 H 251.412 0.938174 4.75738 0
M  V30 2763 N 252.755 -1.56801 0.158532 0
M  V30 2764 C 254.004 -1.95665 -0.489702 0
M  V30 2765 C 254.317 -1.04654 -1.65248 0
M  V30 2766 O 255.523 -1.33146 -2.3661 0
M  V30 2767 C 253.979 -3.47874 -0.922582 0
M  V30 2768 C 253.587 -4.47489 0.213893 0
M  V30 2769 C 255.331 -3.95583 -1.53996 0
M  V30 2770 C 253.238 -5.90921 -0.237903 0
M  V30 2771 H 252.168 -0.730516 -0.186716 0
M  V30 2772 H 254.819 -1.81861 0.244722 0
M  V30 2773 H 253.201 -3.57051 -1.71261 0
M  V30 2774 H 254.375 -4.50017 0.991036 0
M  V30 2775 H 252.69 -4.09764 0.740407 0
M  V30 2776 H 255.287 -5.0019 -1.8898 0
M  V30 2777 H 255.63 -3.37789 -2.43319 0
M  V30 2778 H 256.163 -3.8937 -0.814611 0
M  V30 2779 H 252.902 -6.52559 0.620236 0
M  V30 2780 H 252.422 -5.91729 -0.980676 0
M  V30 2781 H 254.101 -6.43352 -0.686067 0
M  V30 2782 O 254.272 -0.0202813 -1.61487 0
M  V30 2783 H 254.963 0.593557 -1.84382 0
M  V30 END ATOM
M  V30 BEGIN BOND
M  V30 END BOND
M  V30 END CTAB
M  END
$$$$
