drugbank_target|P43088 Prostaglandin F2-alpha receptor (DB00287; DB00654; DB00905; DB01160; DB08819; DB11660)
 OpenBabel12092119353D

  0  0  0     0  0            999 V3000
M  V30 BEGIN CTAB
M  V30 COUNTS 5726 5784 0 0 0
M  V30 BEGIN ATOM
M  V30 1 H -0.908 1.98254 -0.117106 0
M  V30 2 N 0 1.576 0 0
M  V30 3 C 0.933 2.03868 1.02534 0
M  V30 4 C 1.911 0.928543 1.3348 0
M  V30 5 O 3.095 1.19667 1.45644 0
M  V30 6 C 0.222 2.43627 2.35294 0
M  V30 7 C -0.732 3.65373 2.2001 0
M  V30 8 S 0.101 5.13292 1.52614 0
M  V30 9 C 1.257 5.56322 2.86805 0
M  V30 10 H 1.49 2.90518 0.631377 0
M  V30 11 H -0.977 1.52953 0.210867 0
M  V30 12 H 0.981 2.67203 3.11629 0
M  V30 13 H -0.358 1.57376 2.7183 0
M  V30 14 H -1.165 3.90944 3.18086 0
M  V30 15 H -1.563 3.418 1.51819 0
M  V30 16 H 0.729 5.58782 3.83104 0
M  V30 17 H 1.672 6.56266 2.65933 0
M  V30 18 H 2.08 4.83886 2.90714 0
M  V30 19 N 1.4781 -0.272755 1.55222 0
M  V30 20 C 2.7031 -1.02683 1.80197 0
M  V30 21 C 3.1281 -1.79142 0.573551 0
M  V30 22 O 2.4861 -1.74917 -0.476849 0
M  V30 23 C 2.5341 -1.9609 3.02624 0
M  V30 24 O 1.6381 -3.04863 2.77727 0
M  V30 25 H 0.9791 -0.293557 0.595584 0
M  V30 26 H 3.5091 -0.30159 2.02365 0
M  V30 27 H 3.5191 -2.38039 3.31363 0
M  V30 28 H 2.1941 -1.39851 3.91682 0
M  V30 29 H 0.7711 -2.67228 2.60084 0
M  V30 30 N 2.9562 -1.48159 -0.537278 0
M  V30 31 C 3.8892 -1.567 -1.65893 0
M  V30 32 C 4.8672 -0.41787 -1.57139 0
M  V30 33 O 6.0512 -0.628461 -1.77715 0
M  V30 34 C 3.1782 -1.48818 -3.04255 0
M  V30 35 C 2.2242 -2.68482 -3.31391 0
M  V30 36 S 3.0572 -4.30516 -3.1846 0
M  V30 37 C 4.2132 -4.2522 -4.59281 0
M  V30 38 H 4.4462 -2.5159 -1.58397 0
M  V30 39 H 1.9792 -1.36602 -0.719672 0
M  V30 40 H 3.9372 -1.44958 -3.84054 0
M  V30 41 H 2.5982 -0.552777 -3.09198 0
M  V30 42 H 1.7912 -2.59085 -4.32309 0
M  V30 43 H 1.3932 -2.69567 -2.59248 0
M  V30 44 H 3.6852 -3.94703 -5.5065 0
M  V30 45 H 4.6282 -5.26292 -4.73732 0
M  V30 46 H 5.0362 -3.55791 -4.38261 0
M  V30 47 N 4.4343 0.785586 -1.36625 0
M  V30 48 C 5.3823 1.91978 -1.31329 0
M  V30 49 C 6.3763 1.68162 -0.204416 0
M  V30 50 O 7.5823 1.76122 -0.371645 0
M  V30 51 H 3.9573 0.631087 -0.408942 0
M  V30 52 H 5.9283 1.93562 -2.27104 0
M  V30 53 C 4.6773 3.29055 -1.12329 0
M  V30 54 H 4.0003 3.4795 -1.96903 0
M  V30 55 H 5.4403 4.08756 -1.12671 0
M  V30 56 C 3.8993 3.36461 0.171861 0
M  V30 57 O 4.4293 3.84576 1.16035 0
M  V30 58 N 2.6353 2.89782 0.217846 0
M  V30 59 H 2.1823 2.50819 -0.587183 0
M  V30 60 H 2.1403 2.95119 1.08408 0
M  V30 61 N 5.9124 1.20967 1.01018 0
M  V30 62 C 6.8604 0.961223 2.1181 0
M  V30 63 C 7.8544 -0.0897034 1.69162 0
M  V30 64 O 9.0604 0.0612271 1.79896 0
M  V30 65 H 5.4354 0.29355 0.692338 0
M  V30 66 H 7.4064 1.90178 2.29946 0
M  V30 67 C 6.1554 0.536854 3.4353 0
M  V30 68 H 5.4784 1.33713 3.76777 0
M  V30 69 H 6.9184 0.402286 4.22087 0
M  V30 70 C 5.3774 -0.751574 3.2841 0
M  V30 71 O 5.9074 -1.80841 3.58691 0
M  V30 72 N 4.1134 -0.716079 2.81639 0
M  V30 73 H 3.6604 0.144236 2.57196 0
M  V30 74 H 3.6184 -1.57847 2.71904 0
M  V30 75 N 7.3905 -1.2043 1.01659 0
M  V30 76 C 8.6155 -1.94318 0.724942 0
M  V30 77 C 9.0405 -1.74266 -0.708034 0
M  V30 78 O 8.3985 -1.03694 -1.48719 0
M  V30 79 C 8.4465 -3.44486 1.06591 0
M  V30 80 O 7.5505 -4.12017 0.177599 0
M  V30 81 H 6.8915 -0.60708 0.26898 0
M  V30 82 H 9.4215 -1.52861 1.35995 0
M  V30 83 H 9.4315 -3.95106 1.01762 0
M  V30 84 H 8.1065 -3.58404 2.10997 0
M  V30 85 H 6.6835 -3.71821 0.283421 0
M  V30 86 N 8.8686 -0.792821 -1.36206 0
M  V30 87 C 9.8156 -0.191653 -2.30003 0
M  V30 88 C 10.7856 0.666453 -1.52143 0
M  V30 89 O 11.9706 0.61442 -1.80636 0
M  V30 90 C 9.1106 0.664848 -3.38635 0
M  V30 91 C 8.2236 -0.212175 -4.31479 0
M  V30 92 C 7.3586 0.651022 -5.27196 0
M  V30 93 C 6.3976 -0.227247 -6.11678 0
M  V30 94 N 5.5346 0.595127 -6.99573 0
M  V30 95 H 10.3746 -0.996978 -2.80828 0
M  V30 96 H 7.9116 -0.503206 -1.38225 0
M  V30 97 H 9.8696 1.17645 -4.00269 0
M  V30 98 H 8.4996 1.43557 -2.89122 0
M  V30 99 H 7.5516 -0.841777 -3.70969 0
M  V30 100 H 8.8636 -0.888751 -4.90818 0
M  V30 101 H 8.0176 1.2283 -5.94136 0
M  V30 102 H 6.7566 1.36121 -4.68319 0
M  V30 103 H 5.7616 -0.816904 -5.43697 0
M  V30 104 H 6.9866 -0.93509 -6.72631 0
M  V30 105 H 4.9326 1.28955 -6.432 0
M  V30 106 H 4.8496 -0.0236952 -7.55996 0
M  V30 107 H 6.1176 1.15613 -7.70879 0
M  V30 108 N 10.3467 1.47872 -0.545128 0
M  V30 109 C 11.2787 2.27869 0.246621 0
M  V30 110 C 12.2917 1.36282 0.890561 0
M  V30 111 O 13.4807 1.61207 0.766449 0
M  V30 112 C 10.5807 3.10159 1.36582 0
M  V30 113 C 9.7537 4.29627 0.820954 0
M  V30 114 C 8.8127 4.93607 1.82314 0
M  V30 115 O 7.8387 5.52366 1.37406 0
M  V30 116 N 9.0407 4.87211 3.15603 0
M  V30 117 H 11.8057 2.96459 -0.439539 0
M  V30 118 H 9.3667 1.57367 -0.380421 0
M  V30 119 H 11.3587 3.49829 2.03474 0
M  V30 120 H 9.9287 2.43891 1.9554 0
M  V30 121 H 9.1487 3.94192 -0.0244032 0
M  V30 122 H 10.4367 5.06928 0.436063 0
M  V30 123 H 9.8347 4.40651 3.54744 0
M  V30 124 H 8.3917 5.30937 3.78087 0
M  V30 125 N 11.8248 0.280983 1.55075 0
M  V30 126 C 12.7548 -0.597469 2.25727 0
M  V30 127 C 13.7358 -1.15417 1.24952 0
M  V30 128 O 14.9208 -1.18722 1.53684 0
M  V30 129 C 12.0508 -1.7789 2.98283 0
M  V30 130 C 11.0048 -1.35347 4.06036 0
M  V30 131 C 10.3308 -2.61846 4.66198 0
M  V30 132 C 11.6308 -0.499354 5.19907 0
M  V30 133 H 13.3248 -0.00824265 2.99399 0
M  V30 134 H 10.8708 -0.0025244 1.44 0
M  V30 135 H 12.8238 -2.39937 3.46422 0
M  V30 136 H 11.5478 -2.39405 2.22155 0
M  V30 137 H 10.2068 -0.756156 3.58717 0
M  V30 138 H 9.8548 -3.21632 3.86732 0
M  V30 139 H 9.5548 -2.3409 5.38958 0
M  V30 140 H 11.0788 -3.24732 5.1709 0
M  V30 141 H 12.4928 -1.02498 5.64063 0
M  V30 142 H 10.8898 -0.316424 5.99265 0
M  V30 143 H 11.9598 0.480459 4.82514 0
M  V30 144 N 13.3029 -1.57598 0.00835791 0
M  V30 145 C 14.5489 -1.91211 -0.675732 0
M  V30 146 C 14.8819 -0.883139 -1.72958 0
M  V30 147 O 14.1569 0.097016 -1.94258 0
M  V30 148 C 14.4399 -3.35379 -1.31123 0
M  V30 149 C 14.2929 -4.48999 -0.268356 0
M  V30 150 C 15.6119 -3.7912 -2.23508 0
M  V30 151 H 12.7309 -0.695374 -0.244179 0
M  V30 152 H 15.3729 -1.89901 0.0613655 0
M  V30 153 H 13.5229 -3.36626 -1.93946 0
M  V30 154 H 15.1949 -4.59887 0.360844 0
M  V30 155 H 13.4379 -4.31873 0.408482 0
M  V30 156 H 14.1089 -5.46851 -0.752218 0
M  V30 157 H 16.5849 -3.79477 -1.70693 0
M  V30 158 H 15.4609 -4.80729 -2.64936 0
M  V30 159 H 15.7219 -3.13455 -3.11766 0
M  V30 160 N 14.781 0.264519 -1.55364 0
M  V30 161 C 16.006 1.01726 -1.80739 0
M  V30 162 C 16.431 1.78836 -0.583044 0
M  V30 163 O 15.789 1.75167 0.467566 0
M  V30 164 C 15.837 1.94482 -3.03659 0
M  V30 165 O 14.941 3.03386 -2.7934 0
M  V30 166 H 14.282 0.290395 -0.597132 0
M  V30 167 H 16.812 0.290854 -2.02522 0
M  V30 168 H 16.822 2.36278 -3.32621 0
M  V30 169 H 15.497 1.37772 -3.92418 0
M  V30 170 H 14.074 2.65844 -2.61498 0
M  V30 171 N 16.2591 1.48442 0.529413 0
M  V30 172 C 17.6701 1.5002 1.11134 0
M  V30 173 C 18.0211 0.27031 1.94329 0
M  V30 174 O 17.1461 -0.622507 2.07253 0
M  V30 175 C 17.7411 2.71834 2.02217 0
M  V30 176 C 16.3001 2.76283 2.55627 0
M  V30 177 C 15.4471 2.43542 1.326 0
M  V30 178 H 18.3981 1.5555 0.314641 0
M  V30 179 H 18.4191 2.50384 2.8651 0
M  V30 180 H 17.9311 3.61331 1.41639 0
M  V30 181 H 16.0321 1.90995 3.19924 0
M  V30 182 H 16.1451 3.77725 2.94721 0
M  V30 183 H 14.5091 1.94709 1.64196 0
M  V30 184 H 15.2921 3.3528 0.737734 0
M  V30 185 N 17.7372 -0.778329 1.37039 0
M  V30 186 C 18.7002 -1.87301 1.32102 0
M  V30 187 C 19.7002 -1.59198 0.226405 0
M  V30 188 O 20.8902 -1.67403 0.481861 0
M  V30 189 C 18.0222 -3.24309 1.05055 0
M  V30 190 H 19.2152 -1.93093 2.29467 0
M  V30 191 H 16.7682 -0.977358 1.21973 0
M  V30 192 H 17.5032 -3.24196 0.0819373 0
M  V30 193 H 17.2882 -3.46098 1.84279 0
M  V30 194 H 18.7782 -4.04382 1.04234 0
M  V30 195 N 19.2153 -1.21501 -1.00376 0
M  V30 196 C 20.1783 -0.976927 -2.07337 0
M  V30 197 C 21.1783 0.0525322 -1.60714 0
M  V30 198 O 22.3683 -0.184869 -1.73216 0
M  V30 199 C 19.5003 -0.473423 -3.37597 0
M  V30 200 H 20.6933 -1.92587 -2.29892 0
M  V30 201 H 18.2463 -1.03217 -1.17371 0
M  V30 202 H 18.9813 0.480379 -3.20722 0
M  V30 203 H 18.7663 -1.216 -3.72768 0
M  V30 204 H 20.2563 -0.32675 -4.1632 0
M  V30 205 N 20.6934 1.19889 -1.02296 0
M  V30 206 C 21.6564 2.21116 -0.603351 0
M  V30 207 C 22.6564 1.5738 0.329884 0
M  V30 208 O 23.8464 1.73802 0.117702 0
M  V30 209 C 20.9784 3.40696 0.117992 0
M  V30 210 H 22.1714 2.59754 -1.49893 0
M  V30 211 H 19.7244 1.33463 -0.813468 0
M  V30 212 H 20.4594 3.07569 1.0282 0
M  V30 213 H 20.2444 3.88188 -0.552511 0
M  V30 214 H 21.7344 4.15692 0.398696 0
M  V30 215 N 22.1715 0.800033 1.35784 0
M  V30 216 C 23.1015 0.220184 2.3246 0
M  V30 217 C 24.0825 -0.65073 1.57161 0
M  V30 218 O 25.2675 -0.582359 1.85263 0
M  V30 219 C 22.3975 -0.637353 3.41402 0
M  V30 220 C 21.3515 0.134531 4.27789 0
M  V30 221 C 20.6775 -0.844285 5.27992 0
M  V30 222 C 21.9775 1.32979 5.05088 0
M  V30 223 H 23.6715 1.02787 2.81203 0
M  V30 224 H 21.2175 0.495717 1.35199 0
M  V30 225 H 23.1705 -1.05302 4.08031 0
M  V30 226 H 21.8945 -1.47785 2.91251 0
M  V30 227 H 20.5535 0.531296 3.6273 0
M  V30 228 H 20.2015 -1.68011 4.74111 0
M  V30 229 H 19.9015 -0.332184 5.8666 0
M  V30 230 H 21.4255 -1.2583 5.97494 0
M  V30 231 H 22.8395 0.98934 5.64699 0
M  V30 232 H 21.2365 1.77593 5.7322 0
M  V30 233 H 22.3065 2.11978 4.36111 0
M  V30 234 N 23.6496 -1.47581 0.552962 0
M  V30 235 C 24.5796 -2.32762 -0.185451 0
M  V30 236 C 25.5606 -1.43527 -0.912905 0
M  V30 237 O 26.7456 -1.72388 -0.894201 0
M  V30 238 C 23.8756 -3.25219 -1.21859 0
M  V30 239 C 22.8296 -4.23661 -0.607864 0
M  V30 240 C 22.1556 -5.05413 -1.74533 0
M  V30 241 C 23.4556 -5.20481 0.435582 0
M  V30 242 H 25.1496 -2.94749 0.525684 0
M  V30 243 H 22.6956 -1.41738 0.254251 0
M  V30 244 H 24.6486 -3.8365 -1.7433 0
M  V30 245 H 23.3726 -2.61279 -1.95961 0
M  V30 246 H 22.0316 -3.66451 -0.104489 0
M  V30 247 H 21.6796 -4.3788 -2.47529 0
M  V30 248 H 21.3796 -5.72059 -1.34249 0
M  V30 249 H 22.9036 -5.66701 -2.27338 0
M  V30 250 H 24.3176 -5.733 -0.00290157 0
M  V30 251 H 22.7146 -5.95305 0.757067 0
M  V30 252 H 23.7846 -4.66217 1.33303 0
M  V30 253 N 25.1277 -0.289203 -1.54924 0
M  V30 254 C 26.3527 0.329299 -2.04769 0
M  V30 255 C 26.7777 1.4763 -1.16564 0
M  V30 256 O 26.1357 1.80527 -0.167186 0
M  V30 257 C 26.1837 0.774438 -3.52186 0
M  V30 258 O 25.2877 1.88038 -3.67036 0
M  V30 259 H 24.6287 0.0659259 -0.660719 0
M  V30 260 H 27.1587 -0.42761 -2.00082 0
M  V30 261 H 27.1687 1.06642 -3.93816 0
M  V30 262 H 25.8437 -0.0646707 -4.1585 0
M  V30 263 H 24.4207 1.58985 -3.3731 0
M  V30 264 N 26.6058 1.57591 -0.0167156 0
M  V30 265 C 27.5538 2.10604 0.987353 0
M  V30 266 C 28.5478 1.02977 1.34507 0
M  V30 267 O 29.7538 1.21425 1.32875 0
M  V30 268 H 26.1288 0.672695 0.336134 0
M  V30 269 H 28.0998 2.93925 0.514817 0
M  V30 270 C 26.8488 2.6382 2.26483 0
M  V30 271 H 26.1718 3.46278 1.99829 0
M  V30 272 H 27.6118 3.04573 2.94977 0
M  V30 273 C 26.0708 1.55992 2.9861 0
M  V30 274 O 26.6008 0.952521 3.90243 0
M  V30 275 N 24.8068 1.28335 2.60727 0
M  V30 276 H 24.3538 1.77914 1.86291 0
M  V30 277 H 24.3118 0.564115 3.09298 0
M  V30 278 N 28.0839 -0.256276 1.55502 0
M  V30 279 C 29.3119 -1.00342 1.8094 0
M  V30 280 C 29.7269 -1.79307 0.59114 0
M  V30 281 O 29.0839 -1.77114 -0.440081 0
M  V30 282 C 29.1349 -1.94875 3.04476 0
M  V30 283 O 28.8559 -1.19107 4.21598 0
M  V30 284 C 30.3569 -2.81266 3.42644 0
M  V30 285 H 27.5769 -0.295685 0.602338 0
M  V30 286 H 30.1209 -0.281998 2.02546 0
M  V30 287 H 28.2759 -2.62457 2.84947 0
M  V30 288 H 28.6899 -1.82969 4.91551 0
M  V30 289 H 30.1639 -3.43362 4.32211 0
M  V30 290 H 30.6409 -3.51897 2.62802 0
M  V30 291 H 31.2469 -2.1915 3.64491 0
M  V30 292 N 29.562 -1.4872 -0.521534 0
M  V30 293 C 30.79 -1.60843 -1.30142 0
M  V30 294 C 31.205 -0.271897 -1.86832 0
M  V30 295 O 30.562 0.739969 -1.66825 0
M  V30 296 C 30.613 -2.66155 -2.4463 0
M  V30 297 O 30.334 -3.94623 -1.90275 0
M  V30 298 C 31.835 -2.88795 -3.36322 0
M  V30 299 H 29.055 -0.542075 -0.395468 0
M  V30 300 H 31.599 -1.94609 -0.628285 0
M  V30 301 H 29.754 -2.35224 -3.07812 0
M  V30 302 H 30.168 -4.52468 -2.65279 0
M  V30 303 H 31.642 -3.66264 -4.12983 0
M  V30 304 H 32.119 -1.97934 -3.9207 0
M  V30 305 H 32.725 -3.21063 -2.78924 0
M  V30 306 N 31.0401 0.771051 -1.3745 0
M  V30 307 C 32.2801 1.54264 -1.34096 0
M  V30 308 C 32.6441 1.91858 0.0737639 0
M  V30 309 O 33.8451 2.67797 0.23203 0
M  V30 310 C 32.1161 2.77326 -2.25445 0
M  V30 311 S 33.6751 3.67383 -2.39948 0
M  V30 312 H 30.4931 0.528122 -0.476034 0
M  V30 313 H 33.0951 0.906633 -1.73206 0
M  V30 314 H 31.7991 2.47788 -3.27153 0
M  V30 315 H 31.3301 3.45886 -1.87421 0
M  V30 316 H 33.3451 4.69334 -1.61059 0
M  V30 317 N 32.5182 1.22032 0.997298 0
M  V30 318 C 33.4502 0.944263 2.08845 0
M  V30 319 C 34.4632 -0.0754663 1.62625 0
M  V30 320 O 35.6522 0.157994 1.77799 0
M  V30 321 C 32.7522 0.397723 3.36558 0
M  V30 322 C 31.9252 1.47362 4.11829 0
M  V30 323 C 30.9842 0.934951 5.17827 0
M  V30 324 O 30.0102 1.62016 5.45655 0
M  V30 325 N 31.2122 -0.245895 5.79979 0
M  V30 326 H 33.9772 1.88363 2.33109 0
M  V30 327 H 31.5382 1.12661 1.16272 0
M  V30 328 H 33.5302 0.0227771 4.04694 0
M  V30 329 H 32.1002 -0.446646 3.09393 0
M  V30 330 H 31.3202 2.02208 3.38386 0
M  V30 331 H 32.6082 2.19764 4.58891 0
M  V30 332 H 32.0062 -0.819475 5.59733 0
M  V30 333 H 30.5632 -0.562272 6.4937 0
M  V30 334 N 33.9963 -1.19345 1.0293 0
M  V30 335 C 35.2243 -1.92997 0.745644 0
M  V30 336 C 35.6393 -1.75519 -0.695589 0
M  V30 337 O 34.9963 -1.07737 -1.47306 0
M  V30 338 C 35.0473 -3.44741 1.08792 0
M  V30 339 O 34.7683 -3.61658 2.47256 0
M  V30 340 C 36.2693 -4.35515 0.827129 0
M  V30 341 H 33.4893 -0.613042 0.272801 0
M  V30 342 H 36.0333 -1.51473 1.3739 0
M  V30 343 H 34.1883 -3.84097 0.504832 0
M  V30 344 H 34.6023 -4.55514 2.60015 0
M  V30 345 H 36.0763 -5.40589 1.11658 0
M  V30 346 H 36.5533 -4.38552 -0.238436 0
M  V30 347 H 37.1593 -4.01841 1.39297 0
M  V30 348 N 35.4744 -0.807222 -1.35358 0
M  V30 349 C 36.3844 -0.219594 -2.3357 0
M  V30 350 C 37.4004 0.637734 -1.61892 0
M  V30 351 O 38.5764 0.549336 -1.93763 0
M  V30 352 C 35.6414 0.62158 -3.41083 0
M  V30 353 C 34.7024 -0.256315 -4.28534 0
M  V30 354 C 33.9354 0.544807 -5.30912 0
M  V30 355 O 34.1584 1.77944 -5.41934 0
M  V30 356 O 33.0924 -0.0646478 -6.01865 0
M  V30 357 H 36.9184 -1.03208 -2.85625 0
M  V30 358 H 34.5034 -0.569025 -1.38139 0
M  V30 359 H 36.3854 1.10067 -4.06772 0
M  V30 360 H 35.0604 1.41165 -2.91297 0
M  V30 361 H 33.9674 -0.782559 -3.65823 0
M  V30 362 H 35.3004 -1.01034 -4.81719 0
M  V30 363 N 36.9525 1.47285 -0.560781 0
M  V30 364 C 37.9005 2.31756 0.197942 0
M  V30 365 C 38.8945 1.43146 0.905854 0
M  V30 366 O 40.1005 1.59891 0.826733 0
M  V30 367 H 36.4755 0.747438 0.0827049 0
M  V30 368 H 38.4465 2.9359 -0.533629 0
M  V30 369 C 37.1955 3.25874 1.21249 0
M  V30 370 H 36.5185 3.94023 0.67719 0
M  V30 371 H 37.9585 3.87803 1.71419 0
M  V30 372 C 36.4175 2.49651 2.26221 0
M  V30 373 O 36.9475 2.24355 3.33208 0
M  V30 374 N 35.1535 2.10597 2.00243 0
M  V30 375 H 34.7005 2.31369 1.13252 0
M  V30 376 H 34.6585 1.59913 2.70694 0
M  V30 377 N 38.4306 0.297415 1.54768 0
M  V30 378 C 39.8466 -0.0560823 1.59501 0
M  V30 379 C 40.0466 -1.52725 1.31444 0
M  V30 380 O 39.1026 -2.27947 1.08611 0
M  V30 381 C 40.4156 0.338631 2.98787 0
M  V30 382 C 41.9636 0.287097 3.11681 0
M  V30 383 C 42.4386 0.656579 4.53269 0
M  V30 384 N 43.9296 0.608977 4.59179 0
M  V30 385 C 44.6646 0.867385 5.66802 0
M  V30 386 N 44.1606 1.19157 6.82476 0
M  V30 387 N 45.9536 0.794687 5.56454 0
M  V30 388 H 38.1046 1.25624 1.71267 0
M  V30 389 H 40.3676 0.509057 0.799728 0
M  V30 390 H 40.0736 1.36263 3.2423 0
M  V30 391 H 39.9476 -0.309508 3.75928 0
M  V30 392 H 42.3346 -0.727649 2.85988 0
M  V30 393 H 42.4156 0.969809 2.36703 0
M  V30 394 H 42.0596 1.66912 4.7969 0
M  V30 395 H 41.9896 -0.0481649 5.26578 0
M  V30 396 H 44.4806 0.369198 3.76092 0
M  V30 397 H 44.7936 1.37482 7.60473 0
M  V30 398 H 43.1386 1.22958 6.84037 0
M  V30 399 H 46.3296 0.541098 4.64962 0
M  V30 400 H 46.5026 0.999445 6.40246 0
M  V30 401 N 39.9087 -1.5758 0.0250728 0
M  V30 402 C 40.8387 -2.13007 -0.956575 0
M  V30 403 C 41.8197 -1.0452 -1.342 0
M  V30 404 O 43.0047 -1.32332 -1.42133 0
M  V30 405 C 40.1347 -2.65386 -2.24026 0
M  V30 406 C 39.0887 -3.78623 -1.99571 0
M  V30 407 C 38.4147 -4.17414 -3.3417 0
M  V30 408 C 39.7147 -5.04867 -1.33814 0
M  V30 409 H 41.4087 -2.9528 -0.494991 0
M  V30 410 H 38.9547 -1.42042 -0.236651 0
M  V30 411 H 40.9077 -3.02794 -2.93076 0
M  V30 412 H 39.6317 -1.80268 -2.72343 0
M  V30 413 H 38.2907 -3.41646 -1.32941 0
M  V30 414 H 37.9387 -3.29284 -3.80238 0
M  V30 415 H 37.6387 -4.93719 -3.18615 0
M  V30 416 H 39.1627 -4.57402 -4.04495 0
M  V30 417 H 40.5767 -5.39888 -1.92857 0
M  V30 418 H 38.9737 -5.86144 -1.28669 0
M  V30 419 H 40.0437 -4.83904 -0.310561 0
M  V30 420 N 41.3868 0.248026 -1.55636 0
M  V30 421 C 42.6118 0.998028 -1.81808 0
M  V30 422 C 43.0368 1.78207 -0.601979 0
M  V30 423 O 42.3948 1.75653 0.448961 0
M  V30 424 C 42.4428 1.9125 -3.05705 0
M  V30 425 O 41.5468 3.00406 -2.82542 0
M  V30 426 H 40.8878 0.284045 -0.600179 0
M  V30 427 H 43.4178 0.269357 -2.02819 0
M  V30 428 H 43.4278 2.32737 -3.35108 0
M  V30 429 H 42.1028 1.33602 -3.93857 0
M  V30 430 H 40.6798 2.63056 -2.64303 0
M  V30 431 N 42.8649 1.48995 0.513639 0
M  V30 432 C 44.1109 1.58076 1.27042 0
M  V30 433 C 44.4439 0.261026 1.92438 0
M  V30 434 O 43.7189 -0.734393 1.80103 0
M  V30 435 C 44.0019 2.73091 2.34719 0
M  V30 436 C 43.8549 4.14821 1.73907 0
M  V30 437 C 45.1739 2.83796 3.36375 0
M  V30 438 H 42.2929 0.575391 0.460536 0
M  V30 439 H 44.9349 1.81232 0.570516 0
M  V30 440 H 43.0849 2.53479 2.94416 0
M  V30 441 H 44.7569 4.45917 1.18135 0
M  V30 442 H 42.9999 4.21058 1.0437 0
M  V30 443 H 43.6709 4.91147 2.51949 0
M  V30 444 H 46.1469 3.01611 2.86653 0
M  V30 445 H 45.0229 3.65971 4.09093 0
M  V30 446 H 45.2839 1.92624 3.9793 0
M  V30 447 N 44.343 -0.763751 1.37857 0
M  V30 448 C 45.59 -1.52257 1.33506 0
M  V30 449 C 45.918 -1.94343 -0.078022 0
M  V30 450 O 45.173 -1.64958 -1.05297 0
M  V30 451 C 45.472 -2.79499 2.22745 0
M  V30 452 C 45.138 -2.56426 3.70886 0
M  V30 453 C 43.8 -2.49842 4.11257 0
M  V30 454 C 46.152 -2.36008 4.64704 0
M  V30 455 C 43.48 -2.20841 5.43549 0
M  V30 456 C 45.832 -2.0853 5.97242 0
M  V30 457 C 44.496 -2.00396 6.36709 0
M  V30 458 H 43.766 -0.557149 0.488534 0
M  V30 459 H 46.413 -0.879073 1.70131 0
M  V30 460 H 44.718 -3.48447 1.79142 0
M  V30 461 H 46.415 -3.37413 2.16688 0
M  V30 462 H 43.005 -2.62416 3.38874 0
M  V30 463 H 47.189 -2.40079 4.34368 0
M  V30 464 H 42.445 -2.13045 5.73081 0
M  V30 465 H 46.619 -1.91732 6.69486 0
M  V30 466 H 44.246 -1.77688 7.39142 0
M  V30 467 N 45.8211 -1.22559 -0.990812 0
M  V30 468 C 47.0681 -1.05141 -1.73065 0
M  V30 469 C 47.3961 0.413191 -1.9006 0
M  V30 470 O 46.6511 1.32257 -1.44245 0
M  V30 471 C 46.9501 -1.71011 -3.13831 0
M  V30 472 C 46.6161 -3.20911 -3.16745 0
M  V30 473 C 45.2781 -3.61812 -3.17247 0
M  V30 474 C 47.6301 -4.16846 -3.12872 0
M  V30 475 C 44.9581 -4.97127 -3.1158 0
M  V30 476 C 47.3101 -5.5214 -3.08746 0
M  V30 477 C 45.9741 -5.92419 -3.07565 0
M  V30 478 H 45.2441 -0.384738 -0.633291 0
M  V30 479 H 47.8911 -1.5235 -1.16025 0
M  V30 480 H 46.1961 -1.16133 -3.74193 0
M  V30 481 H 47.8931 -1.55023 -3.69823 0
M  V30 482 H 44.4831 -2.88344 -3.17105 0
M  V30 483 H 48.6671 -3.86263 -3.11632 0
M  V30 484 H 43.9231 -5.27562 -3.09012 0
M  V30 485 H 48.0971 -6.26201 -3.04705 0
M  V30 486 H 45.7241 -6.97236 -3.02929 0
M  V30 487 N 47.2992 1.18797 -1.03562 0
M  V30 488 C 48.5242 1.9314 -0.755764 0
M  V30 489 C 48.9492 1.7537 0.68022 0
M  V30 490 O 48.3072 1.06046 1.47051 0
M  V30 491 C 48.3552 3.42747 -1.12058 0
M  V30 492 O 47.4592 4.11683 -0.243124 0
M  V30 493 H 46.8002 0.602724 -0.278604 0
M  V30 494 H 49.3302 1.50678 -1.3841 0
M  V30 495 H 49.3402 3.93437 -1.08035 0
M  V30 496 H 48.0152 3.55002 -2.16672 0
M  V30 497 H 46.5922 3.71323 -0.342539 0
M  V30 498 N 48.7773 0.814389 1.34928 0
M  V30 499 C 50.0233 0.399013 1.98836 0
M  V30 500 C 50.3563 -1.03314 1.64438 0
M  V30 501 O 49.6313 -1.71811 0.911659 0
M  V30 502 C 49.9143 0.591629 3.55207 0
M  V30 503 C 49.7673 2.06928 3.99376 0
M  V30 504 C 51.0863 0.022199 4.40094 0
M  V30 505 H 48.2053 0.146451 0.722303 0
M  V30 506 H 50.8473 1.02537 1.59957 0
M  V30 507 H 48.9973 0.0584441 3.88456 0
M  V30 508 H 50.6693 2.66544 3.76499 0
M  V30 509 H 48.9123 2.56287 3.49999 0
M  V30 510 H 49.5833 2.1549 5.08201 0
M  V30 511 H 52.0593 0.477643 4.13349 0
M  V30 512 H 50.9353 0.186832 5.48582 0
M  V30 513 H 51.1963 -1.07215 4.28902 0
M  V30 514 N 50.2554 -1.46986 0.568584 0
M  V30 515 C 51.5044 -2.01646 0.0465894 0
M  V30 516 C 51.8174 -1.44721 -1.31587 0
M  V30 517 O 53.0234 -1.91113 -1.92842 0
M  V30 518 C 51.4794 -3.59885 0.032752 0
M  V30 519 C 51.0874 -4.25804 1.39266 0
M  V30 520 C 52.8314 -4.22255 -0.436038 0
M  V30 521 C 50.7384 -5.76081 1.33732 0
M  V30 522 H 49.6684 -0.753876 0.013647 0
M  V30 523 H 52.3194 -1.68864 0.718131 0
M  V30 524 H 50.7014 -3.8968 -0.704669 0
M  V30 525 H 51.8754 -4.07637 2.1487 0
M  V30 526 H 50.1904 -3.7547 1.80032 0
M  V30 527 H 52.7874 -5.32394 -0.49602 0
M  V30 528 H 53.1304 -3.90212 -1.45053 0
M  V30 529 H 53.6634 -3.97033 0.246877 0
M  V30 530 H 50.4024 -6.12761 2.32817 0
M  V30 531 H 49.9224 -5.96553 0.623267 0
M  V30 532 H 51.6014 -6.38518 1.0442 0
M  V30 533 N 51.7335 -0.305618 -1.54608 0
M  V30 534 C 52.9805 0.302298 -2.00231 0
M  V30 535 C 53.3085 1.5354 -1.19398 0
M  V30 536 O 52.5635 1.93973 -0.259423 0
M  V30 537 C 52.8625 0.698983 -3.50498 0
M  V30 538 C 52.5285 -0.432903 -4.48817 0
M  V30 539 C 51.1905 -0.743622 -4.75419 0
M  V30 540 C 53.5425 -1.19409 -5.07337 0
M  V30 541 C 50.8705 -1.81857 -5.57804 0
M  V30 542 C 53.2225 -2.25899 -5.90891 0
M  V30 543 C 51.8865 -2.57572 -6.15803 0
M  V30 544 H 51.1565 0.110619 -0.732697 0
M  V30 545 H 53.8035 -0.425674 -1.86709 0
M  V30 546 H 52.1085 1.50711 -3.61654 0
M  V30 547 H 53.8055 1.1806 -3.83227 0
M  V30 548 H 50.3955 -0.18063 -4.28219 0
M  V30 549 H 54.5795 -0.967295 -4.86782 0
M  V30 550 H 49.8355 -2.06864 -5.75341 0
M  V30 551 H 54.0095 -2.85335 -6.35261 0
M  V30 552 H 51.6365 -3.40998 -6.7943 0
M  V30 553 N 53.2116 1.57565 -0.0334293 0
M  V30 554 C 54.1446 2.05997 0.981866 0
M  V30 555 C 55.1226 0.956647 1.3148 0
M  V30 556 O 56.3066 1.22729 1.43073 0
M  V30 557 C 53.4336 2.48564 2.30074 0
M  V30 558 C 52.4796 3.69958 2.12211 0
M  V30 559 S 53.3126 5.16414 1.41692 0
M  V30 560 C 54.4686 5.6228 2.7494 0
M  V30 561 H 54.7016 2.91792 0.569612 0
M  V30 562 H 52.2346 1.53366 0.178376 0
M  V30 563 H 54.1926 2.73753 3.05892 0
M  V30 564 H 52.8536 1.63106 2.68431 0
M  V30 565 H 52.0466 3.97603 3.09722 0
M  V30 566 H 51.6486 3.44943 1.44535 0
M  V30 567 H 53.9406 5.66783 3.71165 0
M  V30 568 H 54.8836 6.61759 2.51953 0
M  V30 569 H 55.2916 4.89944 2.80384 0
M  V30 570 N 54.6897 -0.239769 1.55765 0
M  V30 571 C 55.9177 -0.98417 1.81994 0
M  V30 572 C 56.3327 -1.7867 0.610124 0
M  V30 573 O 55.6897 -1.77571 -0.421271 0
M  V30 574 C 55.7407 -1.91635 3.06526 0
M  V30 575 O 55.4617 -1.14629 4.22838 0
M  V30 576 C 56.9627 -2.77616 3.45607 0
M  V30 577 H 54.1827 -0.28928 0.605441 0
M  V30 578 H 56.7267 -0.260499 2.02834 0
M  V30 579 H 54.8817 -2.5942 2.87715 0
M  V30 580 H 55.2957 -1.77745 4.93464 0
M  V30 581 H 56.7697 -3.38759 4.35828 0
M  V30 582 H 57.2467 -3.4909 2.6652 0
M  V30 583 H 57.8527 -2.15271 3.66795 0
M  V30 584 N 56.1678 -1.49265 -0.50573 0
M  V30 585 C 57.4138 -1.58748 -1.26202 0
M  V30 586 C 57.7468 -0.271227 -1.92297 0
M  V30 587 O 57.0218 0.724831 -1.80489 0
M  V30 588 C 57.3048 -2.74332 -2.33268 0
M  V30 589 C 57.1578 -4.15737 -1.71705 0
M  V30 590 C 58.4768 -2.85576 -3.34865 0
M  V30 591 H 55.5958 -0.577826 -0.457478 0
M  V30 592 H 58.2378 -1.81532 -0.560897 0
M  V30 593 H 56.3878 -2.55036 -2.93068 0
M  V30 594 H 58.0598 -4.46537 -1.15769 0
M  V30 595 H 56.3028 -4.21605 -1.02135 0
M  V30 596 H 56.9738 -4.92477 -2.49341 0
M  V30 597 H 59.4498 -3.03127 -2.8505 0
M  V30 598 H 58.3258 -3.68135 -4.07146 0
M  V30 599 H 58.5868 -1.94732 -3.96903 0
M  V30 600 N 57.6459 0.756429 -1.3826 0
M  V30 601 C 58.8939 1.51248 -1.34047 0
M  V30 602 C 59.2149 1.94875 0.0698372 0
M  V30 603 O 58.4849 1.67436 1.01696 0
M  V30 604 H 57.0649 0.561018 -0.493222 0
M  V30 605 H 59.7269 0.899347 -1.7291 0
M  V30 606 H 58.8229 2.40472 -1.98947 0
M  V30 607 N 59.124 1.23083 0.984299 0
M  V30 608 C 60.373 1.05466 1.71929 0
M  V30 609 C 60.686 -0.409211 1.91272 0
M  V30 610 O 61.892 -0.705226 2.62181 0
M  V30 611 C 60.348 1.83874 3.09384 0
M  V30 612 C 59.956 3.34566 2.97943 0
M  V30 613 C 61.7 1.74734 3.8687 0
M  V30 614 C 59.607 4.05381 4.30605 0
M  V30 615 H 58.537 0.391039 0.644674 0
M  V30 616 H 61.188 1.47013 1.09815 0
M  V30 617 H 59.57 1.35131 3.72231 0
M  V30 618 H 60.744 3.90767 2.44209 0
M  V30 619 H 59.059 3.44476 2.33934 0
M  V30 620 H 61.656 2.24957 4.85076 0
M  V30 621 H 61.999 0.709372 4.10212 0
M  V30 622 H 62.532 2.21067 3.30717 0
M  V30 623 H 59.271 5.09467 4.1246 0
M  V30 624 H 58.791 3.53967 4.84218 0
M  V30 625 H 60.47 4.11458 4.99311 0
M  V30 626 N 60.6021 -1.18246 1.0419 0
M  V30 627 C 61.5321 -2.24127 0.654914 0
M  V30 628 C 62.5131 -1.66617 -0.342451 0
M  V30 629 O 63.6981 -1.92924 -0.222277 0
M  V30 630 C 60.8281 -3.47295 0.0183757 0
M  V30 631 C 59.7821 -4.17563 0.939414 0
M  V30 632 C 59.1081 -5.34438 0.167286 0
M  V30 633 C 60.4081 -4.70917 2.25908 0
M  V30 634 H 62.1021 -2.56753 1.54007 0
M  V30 635 H 59.6481 -1.23414 0.74195 0
M  V30 636 H 61.6011 -4.20572 -0.264082 0
M  V30 637 H 60.3251 -3.13907 -0.901664 0
M  V30 638 H 58.9841 -3.46186 1.20628 0
M  V30 639 H 58.6321 -4.97298 -0.7552 0
M  V30 640 H 58.3321 -5.82388 0.780901 0
M  V30 641 H 59.8561 -6.10504 -0.108125 0
M  V30 642 H 61.2701 -5.35882 2.03724 0
M  V30 643 H 59.6671 -5.29406 2.82577 0
M  V30 644 H 60.7371 -3.88272 2.9047 0
M  V30 645 N 62.0802 -0.821533 -1.34494 0
M  V30 646 C 63.3052 -0.420873 -2.03085 0
M  V30 647 C 63.7302 0.964915 -1.61465 0
M  V30 648 O 63.0882 1.62763 -0.798607 0
M  V30 649 C 63.1362 -0.529414 -3.56693 0
M  V30 650 O 62.2402 0.451302 -4.09923 0
M  V30 651 H 61.5812 -0.173489 -0.640935 0
M  V30 652 H 64.1112 -1.11157 -1.71771 0
M  V30 653 H 64.1212 -0.404671 -4.05988 0
M  V30 654 H 62.7962 -1.54014 -3.86332 0
M  V30 655 H 61.3732 0.285558 -3.71805 0
M  V30 656 N 63.5583 1.46682 -0.576371 0
M  V30 657 C 64.5063 2.31953 0.17335 0
M  V30 658 C 65.5003 1.44098 0.89062 0
M  V30 659 O 66.7063 1.60759 0.809728 0
M  V30 660 H 63.0813 0.748273 0.0747727 0
M  V30 661 H 65.0523 2.93007 -0.564738 0
M  V30 662 C 63.8013 3.27142 1.17786 0
M  V30 663 H 63.1243 3.94719 0.635361 0
M  V30 664 H 64.5643 3.896 1.67296 0
M  V30 665 C 63.0233 2.52036 2.23561 0
M  V30 666 O 63.5533 2.27877 3.3081 0
M  V30 667 N 61.7593 2.12709 1.97998 0
M  V30 668 H 61.3063 2.32557 1.10792 0
M  V30 669 H 61.2643 1.62776 2.68982 0
M  V30 670 N 65.0364 0.313813 1.54444 0
M  V30 671 C 66.2614 -0.296681 2.05267 0
M  V30 672 C 66.6864 -1.45757 1.18897 0
M  V30 673 O 66.0444 -1.80239 0.195886 0
M  V30 674 C 66.0924 -0.71831 3.53373 0
M  V30 675 O 65.1964 -1.82175 3.69981 0
M  V30 676 H 64.5374 -0.0554061 0.661684 0
M  V30 677 H 67.0674 0.459387 1.99376 0
M  V30 678 H 67.0774 -1.00364 3.95463 0
M  V30 679 H 65.7524 0.130821 4.15694 0
M  V30 680 H 64.3294 -1.53598 3.39797 0
M  V30 681 N 66.5145 -1.57545 0.0417849 0
M  V30 682 C 67.4445 -2.14009 -0.933929 0
M  V30 683 C 68.4255 -1.05938 -1.33083 0
M  V30 684 O 69.6105 -1.33833 -1.40721 0
M  V30 685 C 66.7405 -2.67747 -2.21199 0
M  V30 686 C 65.6945 -3.80718 -1.95544 0
M  V30 687 C 65.0205 -4.20935 -3.29724 0
M  V30 688 C 66.3205 -5.06258 -1.28452 0
M  V30 689 H 68.0145 -2.95788 -0.463645 0
M  V30 690 H 65.5605 -1.42285 -0.221573 0
M  V30 691 H 67.5135 -3.05886 -2.89848 0
M  V30 692 H 66.2375 -1.83147 -2.70416 0
M  V30 693 H 64.8965 -3.43037 -1.2931 0
M  V30 694 H 64.5445 -3.33298 -3.76724 0
M  V30 695 H 64.2445 -4.9707 -3.13361 0
M  V30 696 H 65.7685 -4.61666 -3.9962 0
M  V30 697 H 67.1825 -5.41903 -1.8712 0
M  V30 698 H 65.5795 -5.87475 -1.22445 0
M  V30 699 H 66.6495 -4.84207 -0.259219 0
M  V30 700 N 67.9926 0.231505 -1.5589 0
M  V30 701 C 68.9556 1.27028 -1.90779 0
M  V30 702 C 69.9556 1.40308 -0.785507 0
M  V30 703 O 71.1456 1.38744 -1.05336 0
M  V30 704 C 68.2776 2.64566 -2.14983 0
M  V30 705 H 69.4706 0.973017 -2.83677 0
M  V30 706 H 67.0236 0.471486 -1.49019 0
M  V30 707 H 67.7586 2.99406 -1.24604 0
M  V30 708 H 67.5436 2.56305 -2.96732 0
M  V30 709 H 69.0336 3.39543 -2.43105 0
M  V30 710 N 69.4707 1.49531 0.497807 0
M  V30 711 C 70.7197 1.58426 1.24837 0
M  V30 712 C 71.0327 0.277643 1.93619 0
M  V30 713 O 72.2387 0.24517 2.70391 0
M  V30 714 C 70.6947 2.79538 2.26686 0
M  V30 715 C 70.3027 4.16971 1.63828 0
M  V30 716 C 72.0467 2.97764 3.0255 0
M  V30 717 C 69.9537 5.29301 2.63807 0
M  V30 718 H 68.8837 0.58989 0.469623 0
M  V30 719 H 71.5347 1.75923 0.521857 0
M  V30 720 H 69.9167 2.55542 3.02514 0
M  V30 721 H 71.0907 4.51116 0.939711 0
M  V30 722 H 69.4057 4.04129 1.00342 0
M  V30 723 H 72.0027 3.78856 3.77323 0
M  V30 724 H 72.3457 2.08448 3.60354 0
M  V30 725 H 72.8787 3.21815 2.33838 0
M  V30 726 H 69.6177 6.20687 2.10779 0
M  V30 727 H 69.1377 4.99606 3.31894 0
M  V30 728 H 70.8167 5.58768 3.2617 0
M  V30 729 N 70.9488 -0.749086 1.3866 0
M  V30 730 C 71.9118 -1.84457 1.36045 0
M  V30 731 C 72.9118 -1.58682 0.260122 0
M  V30 732 O 74.1018 -1.66343 0.517261 0
M  V30 733 C 71.2338 -3.22008 1.11911 0
M  V30 734 H 72.4268 -1.88182 2.33512 0
M  V30 735 H 69.9798 -0.951266 1.24019 0
M  V30 736 H 70.7148 -3.2395 0.150686 0
M  V30 737 H 70.4998 -3.42111 1.91579 0
M  V30 738 H 71.9898 -4.0208 1.12788 0
M  V30 739 N 72.4269 -1.23603 -0.977757 0
M  V30 740 C 73.6759 -1.06377 -1.71368 0
M  V30 741 C 73.9889 0.399062 -1.91486 0
M  V30 742 O 75.1949 0.691312 -2.62551 0
M  V30 743 C 73.6509 -1.85512 -3.08404 0
M  V30 744 C 73.2589 -3.36141 -2.96164 0
M  V30 745 C 75.0029 -1.76783 -3.85938 0
M  V30 746 C 72.9099 -4.07659 -4.28449 0
M  V30 747 H 71.8399 -0.394452 -0.642591 0
M  V30 748 H 74.4909 -1.47594 -1.09034 0
M  V30 749 H 72.8729 -1.37103 -3.71509 0
M  V30 750 H 74.0469 -3.92056 -2.42133 0
M  V30 751 H 72.3619 -3.45712 -2.32104 0
M  V30 752 H 74.9589 -2.27526 -4.83876 0
M  V30 753 H 75.3019 -0.731116 -4.0983 0
M  V30 754 H 75.8349 -2.22818 -3.2954 0
M  V30 755 H 72.5739 -5.11648 -4.09752 0
M  V30 756 H 72.0939 -3.5653 -4.82334 0
M  V30 757 H 73.7729 -4.141 -4.97122 0
M  V30 758 N 73.905 1.17692 -1.04816 0
M  V30 759 C 74.835 2.23777 -0.666791 0
M  V30 760 C 75.816 1.66796 0.33361 0
M  V30 761 O 77.001 1.93039 0.212042 0
M  V30 762 C 74.131 3.47281 -0.0367933 0
M  V30 763 C 73.085 4.17059 -0.961546 0
M  V30 764 C 72.411 5.34342 -0.195626 0
M  V30 765 C 73.711 4.69713 -2.28402 0
M  V30 766 H 75.405 2.55933 -1.55367 0
M  V30 767 H 72.951 1.23019 -0.748484 0
M  V30 768 H 74.904 4.20706 0.241775 0
M  V30 769 H 73.628 3.14381 0.885004 0
M  V30 770 H 72.287 3.45541 -1.22462 0
M  V30 771 H 71.935 4.97692 0.728816 0
M  V30 772 H 71.635 5.81966 -0.811775 0
M  V30 773 H 73.159 6.10553 0.0757473 0
M  V30 774 H 74.573 5.34794 -2.06563 0
M  V30 775 H 72.97 5.279 -2.8538 0
M  V30 776 H 74.04 3.86726 -2.92525 0
M  V30 777 N 75.3831 0.828654 1.34056 0
M  V30 778 C 76.3161 0.199763 2.27324 0
M  V30 779 C 77.2941 -0.647168 1.49166 0
M  V30 780 O 78.4781 -0.609661 1.78369 0
M  V30 781 C 75.6051 -0.720455 3.30949 0
M  V30 782 C 74.6511 0.0496888 4.26471 0
M  V30 783 S 75.4841 1.40072 5.16856 0
M  V30 784 C 76.6401 0.485527 6.24014 0
M  V30 785 H 76.8731 0.990478 2.80316 0
M  V30 786 H 74.4061 0.624857 1.41191 0
M  V30 787 H 76.3641 -1.24581 3.91139 0
M  V30 788 H 75.0251 -1.48474 2.76793 0
M  V30 789 H 74.2181 -0.650104 4.9979 0
M  V30 790 H 73.8201 0.505779 3.70564 0
M  V30 791 H 76.1121 -0.320672 6.76741 0
M  V30 792 H 77.0551 1.18856 6.98054 0
M  V30 793 H 77.4631 0.0714109 5.64455 0
M  V30 794 N 76.8612 -1.46375 0.584142 0
M  V30 795 C 77.8082 -2.30323 -0.148286 0
M  V30 796 C 78.7782 -1.40703 -0.882713 0
M  V30 797 O 79.9632 -1.69651 -0.873099 0
M  V30 798 C 77.1032 -3.25196 -1.15507 0
M  V30 799 C 76.2162 -4.29915 -0.423943 0
M  V30 800 C 75.3512 -5.11914 -1.41838 0
M  V30 801 C 74.3902 -6.08381 -0.673736 0
M  V30 802 N 73.5272 -6.83242 -1.6163 0
M  V30 803 H 78.3672 -2.92427 0.573644 0
M  V30 804 H 75.9042 -1.44118 0.294703 0
M  V30 805 H 77.8622 -3.78646 -1.75166 0
M  V30 806 H 76.4922 -2.64898 -1.8447 0
M  V30 807 H 75.5442 -3.7931 0.287714 0
M  V30 808 H 76.8562 -4.98549 0.158128 0
M  V30 809 H 76.0102 -5.69648 -2.08773 0
M  V30 810 H 74.7492 -4.43243 -2.03438 0
M  V30 811 H 73.7542 -5.49799 0.00938483 0
M  V30 812 H 74.9792 -6.79071 -0.0631082 0
M  V30 813 H 72.9252 -6.1728 -2.22038 0
M  V30 814 H 72.8422 -7.48144 -1.08707 0
M  V30 815 H 74.1102 -7.45534 -2.27596 0
M  V30 816 N 78.3393 -0.321999 -1.54275 0
M  V30 817 C 79.3023 0.531975 -2.22941 0
M  V30 818 C 80.3023 1.04478 -1.22234 0
M  V30 819 O 81.4923 0.937452 -1.46825 0
M  V30 820 C 78.6243 1.73874 -2.93224 0
M  V30 821 H 79.8173 -0.0682612 -2.99822 0
M  V30 822 H 77.3703 -0.0730644 -1.56129 0
M  V30 823 H 78.1053 2.37825 -2.20476 0
M  V30 824 H 77.8903 1.37847 -3.6707 0
M  V30 825 H 79.3803 2.34496 -3.45545 0
M  V30 826 N 79.8174 1.5752 -0.0501392 0
M  V30 827 C 81.0474 1.96678 0.632573 0
M  V30 828 C 81.4554 0.926298 1.64974 0
M  V30 829 O 80.7984 -0.09802 1.83438 0
M  V30 830 C 80.8604 3.32068 1.37735 0
M  V30 831 C 80.5244 4.54076 0.516131 0
M  V30 832 C 81.5214 5.19445 -0.217357 0
M  V30 833 C 79.2064 5.00304 0.44736 0
M  V30 834 C 81.2004 6.29378 -1.00807 0
M  V30 835 C 78.8874 6.10114 -0.347038 0
M  V30 836 C 79.8854 6.74512 -1.07344 0
M  V30 837 O 79.5734 7.82211 -1.85477 0
M  V30 838 H 79.3054 0.652193 0.177821 0
M  V30 839 H 81.8594 2.05091 -0.112543 0
M  V30 840 H 80.0894 3.20206 2.16807 0
M  V30 841 H 81.7784 3.55981 1.95019 0
M  V30 842 H 82.5444 4.84689 -0.173688 0
M  V30 843 H 78.4234 4.49971 1.00235 0
M  V30 844 H 81.9674 6.79575 -1.57556 0
M  V30 845 H 77.8644 6.44307 -0.392349 0
M  V30 846 H 78.6324 7.98982 -1.77678 0
M  V30 847 N 81.2955 -0.223234 1.56011 0
M  V30 848 C 82.2275 -1.30006 1.88762 0
M  V30 849 C 83.2405 -1.43129 0.775746 0
M  V30 850 O 84.4295 -1.44057 1.05403 0
M  V30 851 C 81.5295 -2.67589 2.07965 0
M  V30 852 C 80.7025 -2.76434 3.38973 0
M  V30 853 C 79.7615 -3.95019 3.47629 0
M  V30 854 O 78.7875 -3.83436 4.20672 0
M  V30 855 N 79.9895 -5.09249 2.78649 0
M  V30 856 H 82.7545 -1.02238 2.81722 0
M  V30 857 H 80.3155 -0.413278 1.56536 0
M  V30 858 H 82.3075 -3.45297 2.11073 0
M  V30 859 H 80.8775 -2.87964 1.21638 0
M  V30 860 H 80.0975 -1.85216 3.47978 0
M  V30 861 H 81.3855 -2.79313 4.25278 0
M  V30 862 H 80.7835 -5.21556 2.19081 0
M  V30 863 H 79.3405 -5.85007 2.8742 0
M  V30 864 N 82.7736 -1.49793 -0.48987 0
M  V30 865 C 84.1896 -1.36803 -0.822022 0
M  V30 866 C 84.3896 -0.409652 -1.97292 0
M  V30 867 O 83.4456 0.154614 -2.52026 0
M  V30 868 C 84.7586 -2.77768 -1.15175 0
M  V30 869 C 86.3066 -2.86549 -1.25931 0
M  V30 870 C 86.7816 -4.28306 -1.62228 0
M  V30 871 N 88.2726 -4.31169 -1.69256 0
M  V30 872 C 89.0076 -5.37832 -1.98807 0
M  V30 873 N 88.5036 -6.54726 -2.26507 0
M  V30 874 N 90.2966 -5.25258 -2.00152 0
M  V30 875 H 82.4476 -2.10691 0.268881 0
M  V30 876 H 84.7106 -0.946241 0.057728 0
M  V30 877 H 84.4166 -3.49648 -0.379335 0
M  V30 878 H 84.2906 -3.13836 -2.09253 0
M  V30 879 H 86.6776 -2.14899 -2.02243 0
M  V30 880 H 86.7586 -2.54049 -0.298776 0
M  V30 881 H 86.4026 -5.00486 -0.864622 0
M  V30 882 H 86.3326 -4.58279 -2.594 0
M  V30 883 H 88.8236 -3.4687 -1.49965 0
M  V30 884 H 89.1366 -7.31833 -2.48276 0
M  V30 885 H 87.4816 -6.57933 -2.23939 0
M  V30 886 H 90.6726 -4.32938 -1.77996 0
M  V30 887 H 90.8456 -6.08476 -2.22848 0
M  V30 888 N 84.2517 0.741722 -1.39055 0
M  V30 889 C 85.4987 1.50114 -1.35912 0
M  V30 890 C 85.8267 1.94443 0.0470937 0
M  V30 891 O 85.0817 1.66612 1.02659 0
M  V30 892 C 85.3807 2.7592 -2.27163 0
M  V30 893 C 85.0467 2.50493 -3.74919 0
M  V30 894 C 83.7087 2.43267 -4.1518 0
M  V30 895 C 86.0607 2.28585 -4.684 0
M  V30 896 C 83.3887 2.12166 -5.46994 0
M  V30 897 C 85.7407 1.99002 -6.00484 0
M  V30 898 C 84.4047 1.90241 -6.39816 0
M  V30 899 H 83.6747 0.549306 -0.497336 0
M  V30 900 H 86.3217 0.851896 -1.71508 0
M  V30 901 H 84.6267 3.45553 -1.84663 0
M  V30 902 H 86.3237 3.33923 -2.22028 0
M  V30 903 H 82.9137 2.56992 -3.43006 0
M  V30 904 H 87.0977 2.33139 -4.38132 0
M  V30 905 H 82.3537 2.03901 -5.76398 0
M  V30 906 H 86.5277 1.81057 -6.72452 0
M  V30 907 H 84.1547 1.65907 -7.41875 0
M  V30 908 N 85.7298 1.2412 0.971189 0
M  V30 909 C 87.1458 1.00584 1.23916 0
M  V30 910 C 87.3458 -0.287481 1.99439 0
M  V30 911 O 86.4018 -1.00454 2.31658 0
M  V30 912 C 87.7148 2.21864 2.0297 0
M  V30 913 C 89.2628 2.26452 2.16076 0
M  V30 914 C 89.7378 3.47343 2.98524 0
M  V30 915 N 91.2288 3.47639 3.06107 0
M  V30 916 C 91.9638 4.37837 3.70251 0
M  V30 917 N 91.4598 5.38286 4.36142 0
M  V30 918 N 93.2528 4.25558 3.67228 0
M  V30 919 H 85.4038 2.07236 0.465499 0
M  V30 920 H 87.6668 0.909236 0.268315 0
M  V30 921 H 87.3728 3.15771 1.54861 0
M  V30 922 H 87.2468 2.23698 3.03709 0
M  V30 923 H 89.6338 1.33078 2.6339 0
M  V30 924 H 89.7148 2.28645 1.14696 0
M  V30 925 H 89.3588 4.41029 2.51905 0
M  V30 926 H 89.2888 3.42393 4.00093 0
M  V30 927 H 91.7798 2.74966 2.59233 0
M  V30 928 H 92.0928 6.03352 4.82894 0
M  V30 929 H 90.4378 5.42176 4.34822 0
M  V30 930 H 93.6288 3.46322 3.14927 0
M  V30 931 H 93.8018 4.96054 4.16935 0
M  V30 932 N 87.2079 -1.17134 1.05439 0
M  V30 933 C 88.1399 -2.2078 0.615539 0
M  V30 934 C 89.1529 -1.59584 -0.322001 0
M  V30 935 O 90.3419 -1.78133 -0.114344 0
M  V30 936 C 87.4419 -3.38691 -0.118938 0
M  V30 937 C 86.6149 -4.29454 0.829924 0
M  V30 938 C 85.6739 -5.26024 0.136258 0
M  V30 939 O 84.6999 -5.63952 0.77115 0
M  V30 940 N 85.9019 -5.69487 -1.1254 0
M  V30 941 H 88.6669 -2.59052 1.50705 0
M  V30 942 H 86.2279 -1.32058 0.936603 0
M  V30 943 H 88.2199 -4.00329 -0.593179 0
M  V30 944 H 86.7899 -2.98996 -0.91215 0
M  V30 945 H 86.0099 -3.65211 1.48373 0
M  V30 946 H 87.2979 -4.86984 1.47392 0
M  V30 947 H 86.6959 -5.4075 -1.6615 0
M  V30 948 H 85.2529 -6.33257 -1.54366 0
M  V30 949 N 88.686 -0.835752 -1.33615 0
M  V30 950 C 89.633 -0.26473 -2.29277 0
M  V30 951 C 90.603 0.617712 -1.54187 0
M  V30 952 O 91.788 0.556641 -1.825 0
M  V30 953 C 88.928 0.556777 -3.40579 0
M  V30 954 C 88.041 -0.349339 -4.30585 0
M  V30 955 C 87.176 0.482969 -5.29 0
M  V30 956 C 86.215 -0.421732 -6.10645 0
M  V30 957 N 85.352 0.372262 -7.01112 0
M  V30 958 H 90.192 -1.08582 -2.77514 0
M  V30 959 H 87.729 -0.546927 -1.36554 0
M  V30 960 H 89.687 1.04852 -4.03809 0
M  V30 961 H 88.317 1.34286 -2.93542 0
M  V30 962 H 87.369 -0.959372 -3.68104 0
M  V30 963 H 88.681 -1.04445 -4.87742 0
M  V30 964 H 87.835 1.03866 -5.97743 0
M  V30 965 H 86.574 1.21153 -4.72412 0
M  V30 966 H 85.579 -0.989464 -5.40823 0
M  V30 967 H 86.804 -1.14861 -6.69316 0
M  V30 968 H 84.75 1.08426 -6.46977 0
M  V30 969 H 84.667 -0.264198 -7.55538 0
M  V30 970 H 85.935 0.910293 -7.74167 0
M  V30 971 N 90.1641 1.46063 -0.591896 0
M  V30 972 C 91.3891 2.07226 -0.0850314 0
M  V30 973 C 91.8141 1.43625 1.21463 0
M  V30 974 O 91.1721 0.523305 1.73583 0
M  V30 975 C 91.2201 3.60554 0.0576567 0
M  V30 976 O 90.3241 3.97128 1.11188 0
M  V30 977 H 89.6651 0.660615 -0.0669568 0
M  V30 978 H 92.1951 1.8756 -0.81745 0
M  V30 979 H 92.2051 4.07165 0.2609 0
M  V30 980 H 90.8801 4.06235 -0.891416 0
M  V30 981 H 89.4571 3.62213 0.886356 0
M  V30 982 N 91.6422 0.330177 1.54103 0
M  V30 983 C 92.5892 -0.532762 2.24567 0
M  V30 984 C 93.5592 -1.10635 1.23892 0
M  V30 985 O 94.7442 -1.14546 1.5259 0
M  V30 986 C 91.8842 -1.6845 3.01195 0
M  V30 987 C 90.9972 -1.13951 4.167 0
M  V30 988 C 90.1322 -2.25746 4.80845 0
M  V30 989 C 89.1712 -1.6853 5.88442 0
M  V30 990 N 88.3082 -2.74014 6.46421 0
M  V30 991 H 93.1482 0.0746905 2.97906 0
M  V30 992 H 90.6852 0.048632 1.4702 0
M  V30 993 H 92.6432 -2.36234 3.43874 0
M  V30 994 H 91.2732 -2.26314 2.30178 0
M  V30 995 H 90.3252 -0.35301 3.78758 0
M  V30 996 H 91.6372 -0.680892 4.94131 0
M  V30 997 H 90.7912 -3.01422 5.26526 0
M  V30 998 H 89.5302 -2.74947 4.0281 0
M  V30 999 H 88.5352 -0.913543 5.42157 0
M  V30 1000 H 89.7602 -1.20198 6.68378 0
M  V30 1001 H 87.7062 -3.22494 5.71256 0
M  V30 1002 H 87.6232 -2.32735 7.19285 0
M  V30 1003 H 88.8912 -3.49499 6.96757 0
M  V30 1004 N 93.1203 -1.57491 0.0584922 0
M  V30 1005 C 94.0833 -2.1085 -0.898617 0
M  V30 1006 C 95.0833 -1.02964 -1.23511 0
M  V30 1007 O 96.2733 -1.29007 -1.17059 0
M  V30 1008 C 93.4053 -2.59881 -2.20623 0
M  V30 1009 H 94.5983 -2.96715 -0.435936 0
M  V30 1010 H 92.1513 -1.55141 -0.190023 0
M  V30 1011 H 92.8863 -1.77431 -2.71457 0
M  V30 1012 H 92.6713 -3.38727 -1.97501 0
M  V30 1013 H 94.1613 -3.01285 -2.89166 0
M  V30 1014 N 94.5984 0.214957 -1.56127 0
M  V30 1015 C 95.8234 0.95924 -1.83884 0
M  V30 1016 C 96.2484 1.7689 -0.639644 0
M  V30 1017 O 95.6064 1.76566 0.411601 0
M  V30 1018 C 95.6544 1.84723 -3.09693 0
M  V30 1019 O 94.7584 2.94346 -2.8885 0
M  V30 1020 H 94.0994 0.27125 -0.606069 0
M  V30 1021 H 96.6294 0.226276 -2.03345 0
M  V30 1022 H 96.6394 2.25576 -3.39969 0
M  V30 1023 H 95.3144 1.25218 -3.96602 0
M  V30 1024 H 93.8914 2.57391 -2.69823 0
M  V30 1025 N 96.0765 1.50051 0.48192 0
M  V30 1026 C 97.3235 1.60498 1.23477 0
M  V30 1027 C 97.6515 0.300331 1.92167 0
M  V30 1028 O 96.9065 -0.713094 1.82246 0
M  V30 1029 C 97.2055 2.72717 2.30998 0
M  V30 1030 C 96.8715 4.13572 1.79636 0
M  V30 1031 C 95.5335 4.519 1.65348 0
M  V30 1032 C 97.8855 5.01649 1.41412 0
M  V30 1033 C 95.2135 5.76057 1.11244 0
M  V30 1034 C 97.5655 6.26343 0.887538 0
M  V30 1035 C 96.2295 6.63483 0.731207 0
M  V30 1036 H 95.4995 0.587303 0.451836 0
M  V30 1037 H 98.1465 1.83948 0.532468 0
M  V30 1038 H 96.4515 2.43312 3.07094 0
M  V30 1039 H 98.1485 2.78006 2.88988 0
M  V30 1040 H 94.7385 3.83329 1.91721 0
M  V30 1041 H 98.9225 4.72679 1.51289 0
M  V30 1042 H 94.1785 6.03516 0.978686 0
M  V30 1043 H 98.3525 6.93958 0.582654 0
M  V30 1044 H 95.9795 7.59568 0.309806 0
M  V30 1045 N 97.5546 -0.734337 1.39446 0
M  V30 1046 C 98.4846 -1.86155 1.40955 0
M  V30 1047 C 99.4656 -1.67898 0.272827 0
M  V30 1048 O 100.651 -1.88207 0.478743 0
M  V30 1049 C 97.7806 -3.23912 1.25294 0
M  V30 1050 C 96.7346 -3.56808 2.36373 0
M  V30 1051 C 96.0606 -4.93508 2.058 0
M  V30 1052 C 97.3606 -3.59713 3.78687 0
M  V30 1053 H 99.0546 -1.8515 2.35287 0
M  V30 1054 H 96.6006 -0.889367 1.13253 0
M  V30 1055 H 98.5536 -4.02443 1.2497 0
M  V30 1056 H 97.2776 -3.25446 0.274308 0
M  V30 1057 H 95.9366 -2.80606 2.35914 0
M  V30 1058 H 95.5846 -4.91623 1.06374 0
M  V30 1059 H 95.2846 -5.16486 2.80208 0
M  V30 1060 H 96.8086 -5.74396 2.07128 0
M  V30 1061 H 98.2226 -4.2832 3.81071 0
M  V30 1062 H 96.6196 -3.94209 4.52459 0
M  V30 1063 H 97.6896 -2.59504 4.09617 0
M  V30 1064 N 99.0327 -1.24633 -0.964593 0
M  V30 1065 C 99.9627 -1.06611 -2.07741 0
M  V30 1066 C 100.944 0.0218666 -1.70086 0
M  V30 1067 O 102.129 -0.145793 -1.93652 0
M  V30 1068 C 99.2587 -0.673444 -3.40708 0
M  V30 1069 C 98.2127 -1.71054 -3.92332 0
M  V30 1070 C 97.5387 -1.17285 -5.21678 0
M  V30 1071 C 98.8387 -3.10718 -4.19824 0
M  V30 1072 H 100.533 -1.99693 -2.23076 0
M  V30 1073 H 98.0787 -0.96152 -1.07195 0
M  V30 1074 H 100.032 -0.534345 -4.17998 0
M  V30 1075 H 98.7557 0.293073 -3.25282 0
M  V30 1076 H 97.4147 -1.83791 -3.17201 0
M  V30 1077 H 97.0627 -0.196847 -5.02615 0
M  V30 1078 H 96.7627 -1.86592 -5.57187 0
M  V30 1079 H 98.2867 -1.04593 -6.01575 0
M  V30 1080 H 99.7007 -3.01192 -4.87808 0
M  V30 1081 H 98.0977 -3.77406 -4.66567 0
M  V30 1082 H 99.1677 -3.58524 -3.26479 0
M  V30 1083 N 100.511 1.16574 -1.06058 0
M  V30 1084 C 101.441 2.23057 -0.690488 0
M  V30 1085 C 102.422 1.67141 0.315901 0
M  V30 1086 O 103.607 1.93253 0.191556 0
M  V30 1087 C 100.737 3.47222 -0.073625 0
M  V30 1088 C 99.6908 4.16016 -1.00573 0
M  V30 1089 C 99.0168 5.34104 -0.252289 0
M  V30 1090 C 100.317 4.67264 -2.33371 0
M  V30 1091 H 102.011 2.54271 -1.58072 0
M  V30 1092 H 99.5568 1.22218 -0.76149 0
M  V30 1093 H 101.51 4.20939 0.19714 0
M  V30 1094 H 100.234 3.15302 0.85161 0
M  V30 1095 H 98.8928 3.44223 -1.2612 0
M  V30 1096 H 98.5408 4.98437 0.675988 0
M  V30 1097 H 98.2408 5.81072 -0.873455 0
M  V30 1098 H 99.7648 6.10599 0.0109857 0
M  V30 1099 H 101.179 5.32573 -2.12223 0
M  V30 1100 H 99.5758 5.24843 -2.90963 0
M  V30 1101 H 100.646 3.83602 -2.96611 0
M  V30 1102 N 101.989 0.842826 1.3317 0
M  V30 1103 C 102.952 0.284065 2.27433 0
M  V30 1104 C 103.952 -0.54948 1.5112 0
M  V30 1105 O 105.142 -0.362699 1.70382 0
M  V30 1106 C 102.274 -0.599384 3.35589 0
M  V30 1107 H 103.467 1.11589 2.78366 0
M  V30 1108 H 101.02 0.616221 1.4364 0
M  V30 1109 H 101.755 -1.45349 2.89904 0
M  V30 1110 H 101.54 -0.00291266 3.921 0
M  V30 1111 H 103.03 -0.983488 4.05854 0
M  V30 1112 N 103.467 -1.45747 0.599634 0
M  V30 1113 C 104.692 -2.07178 0.0960198 0
M  V30 1114 C 105.117 -1.44268 -1.207 0
M  V30 1115 O 104.475 -0.532503 -1.73303 0
M  V30 1116 C 104.523 -3.60579 -0.0385348 0
M  V30 1117 O 103.627 -3.97713 -1.0908 0
M  V30 1118 H 102.968 -0.660251 0.0704593 0
M  V30 1119 H 105.498 -1.87124 0.827385 0
M  V30 1120 H 105.508 -4.07298 -0.239304 0
M  V30 1121 H 104.183 -4.05756 0.912947 0
M  V30 1122 H 102.76 -3.62678 -0.867135 0
M  V30 1123 N 104.945 -0.338344 -1.53925 0
M  V30 1124 C 106.193 0.259245 -2.0043 0
M  V30 1125 C 106.514 1.51484 -1.22791 0
M  V30 1126 O 105.784 1.93037 -0.33368 0
M  V30 1127 H 104.364 0.0987845 -0.740439 0
M  V30 1128 H 107.026 -0.458302 -1.89435 0
M  V30 1129 H 106.122 0.505334 -3.07982 0
M  V30 1130 N 106.423 1.57458 -0.0668435 0
M  V30 1131 C 107.353 2.15468 0.899764 0
M  V30 1132 C 108.334 1.08042 1.31381 0
M  V30 1133 O 109.519 1.36054 1.38574 0
M  V30 1134 C 106.649 2.71232 2.16911 0
M  V30 1135 C 105.603 3.83781 1.89463 0
M  V30 1136 C 104.929 4.26127 3.22986 0
M  V30 1137 C 106.229 5.08238 1.20381 0
M  V30 1138 H 107.923 2.96488 0.416529 0
M  V30 1139 H 105.469 1.4262 0.198908 0
M  V30 1140 H 107.422 3.10458 2.84945 0
M  V30 1141 H 106.146 1.87426 2.67468 0
M  V30 1142 H 104.805 3.45051 1.23836 0
M  V30 1143 H 104.453 3.39249 3.71374 0
M  V30 1144 H 104.153 5.01993 3.05413 0
M  V30 1145 H 105.677 4.67966 3.92225 0
M  V30 1146 H 107.091 5.44811 1.78475 0
M  V30 1147 H 105.488 5.89349 1.13083 0
M  V30 1148 H 106.558 4.84558 0.182153 0
M  V30 1149 N 107.901 -0.206675 1.56239 0
M  V30 1150 C 109.147 -0.930218 1.80208 0
M  V30 1151 C 109.48 -1.83387 0.638981 0
M  V30 1152 O 108.755 -1.91119 -0.361066 0
M  V30 1153 C 109.038 -1.75641 3.1436 0
M  V30 1154 C 108.891 -0.878257 4.41142 0
M  V30 1155 C 110.21 -2.73129 3.45092 0
M  V30 1156 H 107.329 -0.336742 0.655571 0
M  V30 1157 H 109.971 -0.198222 1.88963 0
M  V30 1158 H 108.121 -2.38048 3.07027 0
M  V30 1159 H 109.793 -0.269787 4.6051 0
M  V30 1160 H 108.036 -0.184385 4.33408 0
M  V30 1161 H 108.707 -1.49106 5.3148 0
M  V30 1162 H 111.183 -2.20856 3.52649 0
M  V30 1163 H 110.059 -3.28028 4.40101 0
M  V30 1164 H 110.32 -3.51606 2.68003 0
M  V30 1165 N 109.379 -1.50304 -0.473955 0
M  V30 1166 C 110.628 -1.60392 -1.22301 0
M  V30 1167 C 110.941 -0.308411 -1.93153 0
M  V30 1168 O 112.147 -0.288156 -2.69966 0
M  V30 1169 C 110.603 -2.83109 -2.2221 0
M  V30 1170 C 110.211 -4.19524 -1.57173 0
M  V30 1171 C 111.955 -3.0254 -2.97775 0
M  V30 1172 C 109.862 -5.33431 -2.55353 0
M  V30 1173 H 108.792 -0.597286 -0.460179 0
M  V30 1174 H 111.443 -1.76731 -0.493803 0
M  V30 1175 H 109.825 -2.60322 -2.9841 0
M  V30 1176 H 110.999 -4.52554 -0.867824 0
M  V30 1177 H 109.314 -4.05674 -0.939002 0
M  V30 1178 H 111.911 -3.84811 -3.71248 0
M  V30 1179 H 112.254 -2.14154 -3.56992 0
M  V30 1180 H 112.787 -3.25494 -2.28688 0
M  V30 1181 H 109.526 -6.23962 -2.00878 0
M  V30 1182 H 109.046 -5.04823 -3.23904 0
M  V30 1183 H 110.725 -5.63887 -3.17239 0
M  V30 1184 N 110.857 0.726932 -1.39834 0
M  V30 1185 C 112.085 1.51613 -1.40787 0
M  V30 1186 C 112.5 1.88799 -0.00451505 0
M  V30 1187 O 111.857 1.54662 0.968809 0
M  V30 1188 C 111.908 2.79863 -2.28821 0
M  V30 1189 O 111.629 2.44253 -3.63692 0
M  V30 1190 C 113.13 3.73837 -2.38245 0
M  V30 1191 H 110.35 0.468264 -0.480593 0
M  V30 1192 H 112.894 0.897607 -1.83748 0
M  V30 1193 H 111.049 3.38027 -1.89252 0
M  V30 1194 H 111.463 3.26695 -4.1033 0
M  V30 1195 H 112.937 4.60699 -3.04073 0
M  V30 1196 H 113.414 4.16153 -1.40403 0
M  V30 1197 H 114.02 3.21589 -2.78317 0
M  V30 1198 N 112.336 1.25143 0.95797 0
M  V30 1199 C 113.613 1.00472 1.67823 0
M  V30 1200 C 113.993 -0.470056 2.058 0
M  V30 1201 O 113.341 -1.44663 1.76875 0
M  V30 1202 C 113.551 1.9372 2.90299 0
M  V30 1203 C 114.899 2.21371 3.62326 0
M  V30 1204 O 115.923 1.91451 3.00375 0
M  V30 1205 O 114.782 2.72231 4.7387 0
M  V30 1206 H 111.876 0.380752 0.734137 0
M  V30 1207 H 114.422 1.36283 1.01119 0
M  V30 1208 H 113.194 2.93316 2.59001 0
M  V30 1209 H 112.817 1.58286 3.64735 0
M  V30 1210 N 113.814 -1.1601 1.06675 0
M  V30 1211 C 115.061 -1.86633 0.785781 0
M  V30 1212 C 115.389 -1.81929 -0.687896 0
M  V30 1213 O 114.644 -1.23253 -1.52011 0
M  V30 1214 C 114.943 -3.35547 1.23057 0
M  V30 1215 C 114.609 -3.60448 2.70902 0
M  V30 1216 C 113.271 -3.66954 3.11285 0
M  V30 1217 C 115.623 -3.7071 3.66365 0
M  V30 1218 C 112.951 -3.81225 4.45965 0
M  V30 1219 C 115.303 -3.86503 5.00797 0
M  V30 1220 C 113.967 -3.91252 5.40813 0
M  V30 1221 H 113.237 -0.682937 0.287538 0
M  V30 1222 H 115.884 -1.37146 1.33654 0
M  V30 1223 H 114.189 -3.87193 0.59907 0
M  V30 1224 H 115.886 -3.88583 0.990163 0
M  V30 1225 H 112.476 -3.56021 2.38636 0
M  V30 1226 H 116.66 -3.64991 3.36296 0
M  V30 1227 H 111.916 -3.83155 4.76447 0
M  V30 1228 H 116.09 -3.93385 5.74649 0
M  V30 1229 H 113.717 -4.02062 6.45174 0
M  V30 1230 N 115.292 -0.849877 -1.32721 0
M  V30 1231 C 116.539 -0.450923 -1.97416 0
M  V30 1232 C 116.867 0.992376 -1.67279 0
M  V30 1233 O 116.122 1.71048 -0.950845 0
M  V30 1234 C 116.421 -0.631272 -3.51781 0
M  V30 1235 C 116.087 -2.04432 -4.01894 0
M  V30 1236 C 114.749 -2.4308 -4.1529 0
M  V30 1237 C 117.101 -2.96679 -4.28522 0
M  V30 1238 C 114.429 -3.73257 -4.52654 0
M  V30 1239 C 116.781 -4.26349 -4.67343 0
M  V30 1240 C 115.445 -4.64939 -4.78945 0
M  V30 1241 H 114.715 -0.165004 -0.722395 0
M  V30 1242 H 117.362 -1.07901 -1.58207 0
M  V30 1243 H 115.667 0.0800767 -3.91718 0
M  V30 1244 H 117.364 -0.302709 -3.99856 0
M  V30 1245 H 113.954 -1.73419 -3.91949 0
M  V30 1246 H 118.138 -2.68054 -4.17685 0
M  V30 1247 H 113.394 -4.02946 -4.59831 0
M  V30 1248 H 117.568 -4.97895 -4.86902 0
M  V30 1249 H 115.195 -5.65855 -5.07654 0
M  V30 1250 N 116.77 1.45427 -0.607355 0
M  V30 1251 C 118.018 2.01841 -0.102253 0
M  V30 1252 C 118.339 1.47832 1.27164 0
M  V30 1253 O 117.609 0.672497 1.83995 0
M  V30 1254 H 116.189 0.746188 -0.0348101 0
M  V30 1255 H 118.851 1.78229 -0.7887 0
M  V30 1256 H 117.947 3.12057 -0.0518585 0
M  V30 1257 N 118.248 0.346503 1.53744 0
M  V30 1258 C 119.198 -0.524953 2.21874 0
M  V30 1259 C 120.182 -1.06376 1.20718 0
M  V30 1260 O 121.374 -0.996972 1.46251 0
M  V30 1261 C 118.503 -1.6739 2.99726 0
M  V30 1262 C 117.589 -1.14888 4.08242 0
M  V30 1263 N 117.98 -0.345329 5.0462 0
M  V30 1264 C 116.278 -1.4255 4.22606 0
M  V30 1265 C 116.979 -0.0600706 5.81669 0
M  V30 1266 N 115.955 -0.65252 5.39669 0
M  V30 1267 H 119.757 0.0960091 2.93743 0
M  V30 1268 H 117.271 0.15352 1.61673 0
M  V30 1269 H 119.268 -2.3102 3.47038 0
M  V30 1270 H 117.928 -2.29811 2.29384 0
M  V30 1271 H 118.939 0.0138439 5.17898 0
M  V30 1272 H 115.616 -2.05389 3.63486 0
M  V30 1273 H 117.006 0.588321 6.69319 0
M  V30 1274 N 119.726 -1.57421 0.075193 0
M  V30 1275 C 120.656 -2.15942 -0.888324 0
M  V30 1276 C 121.637 -1.08737 -1.30806 0
M  V30 1277 O 122.822 -1.36787 -1.37851 0
M  V30 1278 C 119.952 -2.72379 -2.1547 0
M  V30 1279 C 118.906 -3.8478 -1.87425 0
M  V30 1280 C 118.232 -4.27834 -3.20721 0
M  V30 1281 C 119.532 -5.08869 -1.17684 0
M  V30 1282 H 121.226 -2.96705 -0.400799 0
M  V30 1283 H 118.772 -1.42723 -0.191342 0
M  V30 1284 H 120.725 -3.11965 -2.83295 0
M  V30 1285 H 119.449 -1.88841 -2.6647 0
M  V30 1286 H 118.108 -3.45703 -1.22004 0
M  V30 1287 H 117.756 -3.41214 -3.6957 0
M  V30 1288 H 117.456 -5.03605 -3.02746 0
M  V30 1289 H 118.98 -4.70039 -3.89738 0
M  V30 1290 H 120.394 -5.4575 -1.75584 0
M  V30 1291 H 118.791 -5.8994 -1.09956 0
M  V30 1292 H 119.861 -4.84648 -0.156453 0
M  V30 1293 N 121.204 0.198386 -1.56346 0
M  V30 1294 C 122.453 0.917451 -1.79627 0
M  V30 1295 C 122.766 1.8456 -0.64784 0
M  V30 1296 O 123.972 2.60504 -0.764859 0
M  V30 1297 C 122.428 1.68175 -3.18191 0
M  V30 1298 C 122.036 0.798589 -4.40825 0
M  V30 1299 C 123.78 2.39065 -3.50782 0
M  V30 1300 C 121.687 1.56157 -5.70411 0
M  V30 1301 H 120.617 0.346317 -0.669762 0
M  V30 1302 H 123.268 0.170801 -1.82703 0
M  V30 1303 H 121.65 2.47216 -3.09354 0
M  V30 1304 H 122.824 0.0470665 -4.60776 0
M  V30 1305 H 121.139 0.200686 -4.15916 0
M  V30 1306 H 123.736 2.96692 -4.44835 0
M  V30 1307 H 124.079 3.13091 -2.74371 0
M  V30 1308 H 124.612 1.66993 -3.61052 0
M  V30 1309 H 121.351 0.864142 -6.49779 0
M  V30 1310 H 120.871 2.2871 -5.54483 0
M  V30 1311 H 122.55 2.11622 -6.11412 0
M  V30 1312 N 122.682 1.50554 0.465978 0
M  V30 1313 C 123.63 1.70324 1.58406 0
M  V30 1314 C 124.624 0.569139 1.59553 0
M  V30 1315 O 125.83 0.749776 1.63641 0
M  V30 1316 H 122.205 0.537688 0.525734 0
M  V30 1317 H 124.176 2.64104 1.38894 0
M  V30 1318 C 122.925 1.81928 2.96307 0
M  V30 1319 H 122.248 2.68586 2.96144 0
M  V30 1320 H 123.688 1.99784 3.73982 0
M  V30 1321 C 122.147 0.572095 3.32007 0
M  V30 1322 O 122.677 -0.286416 4.00678 0
M  V30 1323 N 120.883 0.424606 2.87481 0
M  V30 1324 H 120.43 1.12427 2.31771 0
M  V30 1325 H 120.388 -0.408697 3.11732 0
M  V30 1326 N 124.16 -0.719506 1.40217 0
M  V30 1327 C 125.408 -1.47641 1.3801 0
M  V30 1328 C 125.729 -1.94992 -0.018145 0
M  V30 1329 O 124.999 -1.70073 -0.972207 0
M  V30 1330 H 123.579 -0.547744 0.507923 0
M  V30 1331 H 126.241 -0.853187 1.75233 0
M  V30 1332 H 125.337 -2.35112 2.05253 0
M  V30 1333 N 125.638 -1.25649 -0.95132 0
M  V30 1334 C 126.601 -1.06399 -2.03007 0
M  V30 1335 C 127.601 -0.0156794 -1.60792 0
M  V30 1336 O 128.791 -0.25817 -1.72276 0
M  V30 1337 C 125.923 -0.616184 -3.35285 0
M  V30 1338 H 127.116 -2.02164 -2.21517 0
M  V30 1339 H 124.669 -1.08103 -1.12887 0
M  V30 1340 H 125.404 0.343917 -3.22471 0
M  V30 1341 H 125.189 -1.37301 -3.67275 0
M  V30 1342 H 126.679 -0.503032 -4.14559 0
M  V30 1343 N 127.117 1.15442 -1.07289 0
M  V30 1344 C 128.366 1.85557 -0.790669 0
M  V30 1345 C 128.679 1.83186 0.685739 0
M  V30 1346 O 129.885 2.48977 1.0827 0
M  V30 1347 C 128.341 3.33038 -1.36433 0
M  V30 1348 C 127.949 3.43856 -2.8717 0
M  V30 1349 C 129.693 4.0834 -1.1601 0
M  V30 1350 C 127.6 4.85482 -3.3773 0
M  V30 1351 H 126.53 0.695122 -0.292098 0
M  V30 1352 H 129.181 1.30219 -1.29287 0
M  V30 1353 H 127.563 3.88043 -0.789864 0
M  V30 1354 H 128.737 2.98961 -3.50655 0
M  V30 1355 H 127.052 2.81998 -3.06376 0
M  V30 1356 H 129.649 5.12859 -1.51262 0
M  V30 1357 H 129.992 4.16182 -0.0991007 0
M  V30 1358 H 130.525 3.59603 -1.70089 0
M  V30 1359 H 127.264 4.82823 -4.43353 0
M  V30 1360 H 126.784 5.30961 -2.78999 0
M  V30 1361 H 128.463 5.54335 -3.33648 0
M  V30 1362 N 128.595 0.856903 1.32268 0
M  V30 1363 C 129.558 0.308171 2.27119 0
M  V30 1364 C 130.558 -0.533421 1.51695 0
M  V30 1365 O 131.748 -0.344607 1.70757 0
M  V30 1366 C 128.88 -0.563757 3.36206 0
M  V30 1367 H 130.073 1.14535 2.77167 0
M  V30 1368 H 127.626 0.631421 1.42978 0
M  V30 1369 H 128.361 -1.42266 2.91429 0
M  V30 1370 H 128.146 0.0386749 3.92081 0
M  V30 1371 H 129.636 -0.940386 4.06874 0
M  V30 1372 N 130.073 -1.45103 0.615059 0
M  V30 1373 C 131.319 -2.02483 0.113347 0
M  V30 1374 C 131.652 -1.48146 -1.25564 0
M  V30 1375 O 130.927 -0.659104 -1.82992 0
M  V30 1376 C 131.21 -3.60005 0.0825278 0
M  V30 1377 C 131.063 -4.2466 1.48271 0
M  V30 1378 C 132.382 -4.35972 -0.601401 0
M  V30 1379 H 129.501 -0.735764 0.0426632 0
M  V30 1380 H 132.143 -1.72868 0.788461 0
M  V30 1381 H 130.293 -3.85367 -0.492378 0
M  V30 1382 H 131.965 -4.10458 2.10527 0
M  V30 1383 H 130.208 -3.82772 2.04127 0
M  V30 1384 H 130.879 -5.336 1.41332 0
M  V30 1385 H 133.355 -4.15947 -0.112666 0
M  V30 1386 H 132.231 -5.45697 -0.592097 0
M  V30 1387 H 132.492 -4.09391 -1.66887 0
M  V30 1388 N 131.551 -0.354651 -1.53558 0
M  V30 1389 C 132.798 0.238443 -2.01091 0
M  V30 1390 C 133.126 1.49663 -1.24222 0
M  V30 1391 O 132.381 1.93049 -0.321003 0
M  V30 1392 C 132.68 0.587121 -3.52545 0
M  V30 1393 C 132.346 -0.575472 -4.47213 0
M  V30 1394 C 131.008 -0.894497 -4.72813 0
M  V30 1395 C 133.36 -1.35489 -5.03281 0
M  V30 1396 C 130.688 -1.99511 -5.51736 0
M  V30 1397 C 133.04 -2.44583 -5.83405 0
M  V30 1398 C 131.704 -2.77033 -6.07296 0
M  V30 1399 H 130.974 0.0872526 -0.735845 0
M  V30 1400 H 133.621 -0.484859 -1.8526 0
M  V30 1401 H 131.926 1.39129 -3.66265 0
M  V30 1402 H 133.623 1.05809 -3.86789 0
M  V30 1403 H 130.213 -0.316774 -4.27428 0
M  V30 1404 H 134.397 -1.12167 -4.83459 0
M  V30 1405 H 129.653 -2.25063 -5.68469 0
M  V30 1406 H 133.827 -3.05401 -6.25862 0
M  V30 1407 H 131.454 -3.6244 -6.68237 0
M  V30 1408 N 133.029 1.57378 -0.0835403 0
M  V30 1409 C 134.275 1.94217 0.583733 0
M  V30 1410 C 134.608 0.964653 1.68547 0
M  V30 1411 O 133.883 -0.00422258 1.945 0
M  V30 1412 C 134.166 3.41253 1.14972 0
M  V30 1413 C 134.019 4.49768 0.0538277 0
M  V30 1414 C 135.338 3.89352 2.05166 0
M  V30 1415 H 132.457 0.706233 0.210724 0
M  V30 1416 H 135.099 1.89392 -0.1519 0
M  V30 1417 H 133.249 3.45496 1.77665 0
M  V30 1418 H 134.921 4.57641 -0.579851 0
M  V30 1419 H 133.164 4.29432 -0.614068 0
M  V30 1420 H 133.835 5.49817 0.490452 0
M  V30 1421 H 136.311 3.87189 1.52393 0
M  V30 1422 H 135.187 4.92822 2.41698 0
M  V30 1423 H 135.448 3.27973 2.96456 0
M  V30 1424 N 134.507 -0.190092 1.56449 0
M  V30 1425 C 135.737 -0.92443 1.84764 0
M  V30 1426 C 136.145 -1.77146 0.664529 0
M  V30 1427 O 135.488 -1.79812 -0.375957 0
M  V30 1428 C 135.55 -1.86651 3.07248 0
M  V30 1429 C 135.214 -1.20094 4.40938 0
M  V30 1430 C 136.211 -0.575445 5.16706 0
M  V30 1431 C 133.896 -1.2033 4.87674 0
M  V30 1432 C 135.89 0.0388111 6.37388 0
M  V30 1433 C 133.577 -0.585214 6.08291 0
M  V30 1434 C 134.575 0.0347578 6.82991 0
M  V30 1435 O 134.263 0.643147 8.01323 0
M  V30 1436 H 133.995 -0.274974 0.617548 0
M  V30 1437 H 136.549 -0.200788 2.04416 0
M  V30 1438 H 134.779 -2.62998 2.83494 0
M  V30 1439 H 136.468 -2.46907 3.22167 0
M  V30 1440 H 137.234 -0.565728 4.81689 0
M  V30 1441 H 133.113 -1.67526 4.29484 0
M  V30 1442 H 136.657 0.523329 6.95634 0
M  V30 1443 H 132.554 -0.592451 6.42775 0
M  V30 1444 H 133.322 0.540545 8.16713 0
M  V30 1445 N 135.985 -1.50799 -0.457987 0
M  V30 1446 C 136.948 -1.7005 -1.53674 0
M  V30 1447 C 137.948 -0.570881 -1.50325 0
M  V30 1448 O 139.138 -0.838126 -1.52712 0
M  V30 1449 C 136.27 -1.73788 -2.93276 0
M  V30 1450 H 137.463 -2.66306 -1.37917 0
M  V30 1451 H 135.016 -1.40477 -0.685271 0
M  V30 1452 H 135.751 -0.792717 -3.14462 0
M  V30 1453 H 135.536 -2.55864 -2.97113 0
M  V30 1454 H 137.026 -1.90591 -3.71571 0
M  V30 1455 N 137.463 0.71206 -1.40597 0
M  V30 1456 C 138.688 1.50617 -1.42581 0
M  V30 1457 C 139.113 1.88079 -0.0282102 0
M  V30 1458 O 138.471 1.53511 0.964579 0
M  V30 1459 C 138.519 2.7557 -2.3258 0
M  V30 1460 O 137.623 3.72414 -1.77148 0
M  V30 1461 H 136.964 0.453966 -0.484573 0
M  V30 1462 H 139.494 0.876649 -1.84868 0
M  V30 1463 H 139.504 3.2406 -2.47889 0
M  V30 1464 H 138.179 2.47639 -3.34138 0
M  V30 1465 H 136.756 3.31276 -1.71204 0
M  V30 1466 N 138.941 1.26152 0.944643 0
M  V30 1467 C 140.218 1.02247 1.66748 0
M  V30 1468 C 140.598 -0.448202 2.06287 0
M  V30 1469 O 139.946 -1.42779 1.78399 0
M  V30 1470 C 140.156 1.96788 2.88228 0
M  V30 1471 C 141.504 2.25201 3.59958 0
M  V30 1472 O 142.528 1.94626 2.98327 0
M  V30 1473 O 141.387 2.77242 4.70956 0
M  V30 1474 H 138.481 0.388517 0.730057 0
M  V30 1475 H 141.027 1.37348 0.99668 0
M  V30 1476 H 139.799 2.96047 2.55875 0
M  V30 1477 H 139.422 1.62145 3.63035 0
M  V30 1478 N 140.419 -1.14872 1.07899 0
M  V30 1479 C 141.366 -2.19791 0.704319 0
M  V30 1480 C 142.336 -1.63238 -0.306987 0
M  V30 1481 O 143.521 -1.8983 -0.192171 0
M  V30 1482 C 140.661 -3.44911 0.114244 0
M  V30 1483 C 139.774 -4.15637 1.1777 0
M  V30 1484 C 138.909 -5.28324 0.552037 0
M  V30 1485 C 137.948 -5.90875 1.59789 0
M  V30 1486 N 137.085 -6.95022 0.994404 0
M  V30 1487 H 141.925 -2.5119 1.60336 0
M  V30 1488 H 139.462 -1.23356 0.801352 0
M  V30 1489 H 141.42 -4.16477 -0.245544 0
M  V30 1490 H 140.05 -3.14011 -0.74813 0
M  V30 1491 H 139.102 -3.42512 1.65499 0
M  V30 1492 H 140.414 -4.5823 1.97046 0
M  V30 1493 H 139.568 -6.06538 0.1402 0
M  V30 1494 H 138.307 -4.86939 -0.272431 0
M  V30 1495 H 137.312 -5.11369 2.01945 0
M  V30 1496 H 138.537 -6.34337 2.42474 0
M  V30 1497 H 136.483 -6.55722 0.190939 0
M  V30 1498 H 136.4 -7.36073 1.72432 0
M  V30 1499 H 137.668 -7.77123 0.608253 0
M  V30 1500 N 141.898 -0.863906 -1.31812 0
M  V30 1501 C 142.808 -0.318461 -2.32428 0
M  V30 1502 C 143.824 0.568496 -1.64451 0
M  V30 1503 O 145 0.46666 -1.95919 0
M  V30 1504 C 142.065 0.476355 -3.43412 0
M  V30 1505 C 141.126 -0.43784 -4.27061 0
M  V30 1506 C 140.359 0.319138 -5.32745 0
M  V30 1507 O 140.582 1.54799 -5.48993 0
M  V30 1508 O 139.516 -0.319861 -6.01049 0
M  V30 1509 H 143.342 -1.15229 -2.80991 0
M  V30 1510 H 140.927 -0.627103 -1.35602 0
M  V30 1511 H 142.809 0.927156 -4.11074 0
M  V30 1512 H 141.484 1.28683 -2.97022 0
M  V30 1513 H 140.391 -0.937013 -3.62175 0
M  V30 1514 H 141.724 -1.21375 -4.77 0
M  V30 1515 N 143.376 1.44774 -0.622745 0
M  V30 1516 C 144.622 2.02968 -0.13257 0
M  V30 1517 C 144.977 1.48047 1.22881 0
M  V30 1518 O 144.27 0.651625 1.80179 0
M  V30 1519 C 144.464 3.57364 -0.0508323 0
M  V30 1520 C 144.293 4.27262 -1.40275 0
M  V30 1521 C 143.063 4.64577 -1.98737 0
M  V30 1522 C 145.261 4.58248 -2.3348 0
M  V30 1523 N 143.243 5.19404 -3.27251 0
M  V30 1524 C 144.614 5.14069 -3.46603 0
M  V30 1525 C 146.669 4.40195 -2.32664 0
M  V30 1526 C 145.372 5.53738 -4.59093 0
M  V30 1527 C 147.398 4.80907 -3.44213 0
M  V30 1528 C 146.76 5.36834 -4.56058 0
M  V30 1529 H 142.859 0.776541 -0.0922354 0
M  V30 1530 H 145.443 1.76385 -0.82441 0
M  V30 1531 H 143.614 3.83576 0.610265 0
M  V30 1532 H 145.346 4.02219 0.447397 0
M  V30 1533 H 142.101 4.48622 -1.51774 0
M  V30 1534 H 142.525 5.51301 -3.92933 0
M  V30 1535 H 147.167 3.96257 -1.47446 0
M  V30 1536 H 144.885 5.96635 -5.45025 0
M  V30 1537 H 148.471 4.68659 -3.44747 0
M  V30 1538 H 147.351 5.67755 -5.40947 0
M  V30 1539 N 144.854 0.36279 1.53368 0
M  V30 1540 C 146.103 -0.22888 2.00397 0
M  V30 1541 C 146.416 -1.50096 1.25421 0
M  V30 1542 O 147.622 -2.17106 1.63025 0
M  V30 1543 C 146.078 -0.458417 3.56969 0
M  V30 1544 C 145.686 0.798877 4.4082 0
M  V30 1545 C 147.43 -1.00789 4.12361 0
M  V30 1546 C 145.337 0.539078 5.88938 0
M  V30 1547 H 144.267 -0.089305 0.748693 0
M  V30 1548 H 146.918 0.481099 1.77081 0
M  V30 1549 H 145.3 -1.22959 3.76427 0
M  V30 1550 H 146.474 1.57262 4.33134 0
M  V30 1551 H 144.789 1.27137 3.96516 0
M  V30 1552 H 147.386 -1.21754 5.20653 0
M  V30 1553 H 147.729 -1.9692 3.66781 0
M  V30 1554 H 148.262 -0.296961 3.9669 0
M  V30 1555 H 145.001 1.47064 6.3879 0
M  V30 1556 H 144.521 -0.196222 5.99479 0
M  V30 1557 H 146.2 0.163542 6.46793 0
M  V30 1558 N 146.332 -1.57332 0.0918853 0
M  V30 1559 C 147.748 -1.57389 -0.264766 0
M  V30 1560 C 147.948 -1.10281 -1.68643 0
M  V30 1561 O 147.004 -0.777801 -2.40222 0
M  V30 1562 C 148.317 -3.00648 -0.0561195 0
M  V30 1563 C 149.865 -3.12754 -0.124116 0
M  V30 1564 C 150.34 -4.57965 0.0564972 0
M  V30 1565 N 151.831 -4.632 0.00155611 0
M  V30 1566 C 152.566 -5.73281 0.116598 0
M  V30 1567 N 152.062 -6.92208 0.286294 0
M  V30 1568 N 153.855 -5.6207 0.0580973 0
M  V30 1569 H 146.006 -1.86262 1.02079 0
M  V30 1570 H 148.269 -0.859579 0.399786 0
M  V30 1571 H 147.975 -3.393 0.925669 0
M  V30 1572 H 147.849 -3.68623 -0.799823 0
M  V30 1573 H 150.236 -2.73976 -1.09641 0
M  V30 1574 H 150.317 -2.47377 0.651024 0
M  V30 1575 H 149.961 -4.97436 1.02564 0
M  V30 1576 H 149.891 -5.21399 -0.738297 0
M  V30 1577 H 152.382 -3.77686 -0.127192 0
M  V30 1578 H 152.695 -7.71934 0.365676 0
M  V30 1579 H 151.04 -6.94254 0.32192 0
M  V30 1580 H 154.231 -4.68043 -0.0733204 0
M  V30 1581 H 154.404 -6.47824 0.151203 0
M  V30 1582 N 147.81 0.181792 -1.56548 0
M  V30 1583 C 149.057 0.900097 -1.81396 0
M  V30 1584 C 149.385 1.82695 -0.667281 0
M  V30 1585 O 148.64 1.92614 0.346146 0
M  V30 1586 C 148.939 1.73728 -3.12335 0
M  V30 1587 C 148.605 0.960255 -4.40556 0
M  V30 1588 C 147.267 0.745766 -4.75386 0
M  V30 1589 C 149.619 0.414477 -5.19549 0
M  V30 1590 C 146.947 -0.0257694 -5.86694 0
M  V30 1591 C 149.299 -0.343916 -6.31664 0
M  V30 1592 C 147.963 -0.569301 -6.65068 0
M  V30 1593 H 147.233 0.329369 -0.663775 0
M  V30 1594 H 149.88 0.165647 -1.90782 0
M  V30 1595 H 148.185 2.54081 -2.98245 0
M  V30 1596 H 149.882 2.29591 -3.28769 0
M  V30 1597 H 146.472 1.13746 -4.13231 0
M  V30 1598 H 150.656 0.567554 -4.93044 0
M  V30 1599 H 145.912 -0.210233 -6.11038 0
M  V30 1600 H 150.086 -0.774133 -6.92084 0
M  V30 1601 H 147.713 -1.16903 -7.51158 0
M  V30 1602 N 149.288 1.51039 0.449983 0
M  V30 1603 C 150.565 1.53612 1.21089 0
M  V30 1604 C 150.945 0.292997 2.09057 0
M  V30 1605 O 150.293 -0.72259 2.16774 0
M  V30 1606 C 150.503 2.84337 2.0237 0
M  V30 1607 C 151.851 3.35807 2.59843 0
M  V30 1608 O 152.875 2.85802 2.12593 0
M  V30 1609 O 151.734 4.23029 3.45989 0
M  V30 1610 H 148.828 0.617057 0.550608 0
M  V30 1611 H 151.374 1.63344 0.460082 0
M  V30 1612 H 150.146 3.66278 1.37681 0
M  V30 1613 H 149.769 2.77708 2.84542 0
M  V30 1614 N 150.766 -0.704594 1.40972 0
M  V30 1615 C 151.698 -1.82974 1.38033 0
M  V30 1616 C 152.711 -1.60305 0.283931 0
M  V30 1617 O 153.9 -1.69975 0.545042 0
M  V30 1618 C 151 -3.19578 1.12795 0
M  V30 1619 C 150.173 -3.69352 2.34302 0
M  V30 1620 C 149.232 -4.84601 2.05058 0
M  V30 1621 O 148.258 -4.96682 2.7802 0
M  V30 1622 N 149.46 -5.71194 1.03528 0
M  V30 1623 H 152.225 -1.85991 2.35005 0
M  V30 1624 H 149.786 -0.886567 1.35468 0
M  V30 1625 H 151.778 -3.9429 0.911987 0
M  V30 1626 H 150.348 -3.11642 0.24452 0
M  V30 1627 H 149.568 -2.85649 2.71659 0
M  V30 1628 H 150.856 -3.99345 3.1528 0
M  V30 1629 H 150.254 -5.64054 0.431217 0
M  V30 1630 H 148.811 -6.45843 0.879205 0
M  V30 1631 N 152.244 -1.26651 -0.937939 0
M  V30 1632 C 153.469 -1.15279 -1.72411 0
M  V30 1633 C 153.894 0.287866 -1.85884 0
M  V30 1634 O 153.252 1.20855 -1.35143 0
M  V30 1635 C 153.3 -1.83028 -3.10698 0
M  V30 1636 O 152.404 -1.12128 -3.96864 0
M  V30 1637 H 151.745 -0.401504 -0.528858 0
M  V30 1638 H 154.275 -1.67531 -1.1745 0
M  V30 1639 H 154.285 -1.89981 -3.6107 0
M  V30 1640 H 152.96 -2.87833 -3.00208 0
M  V30 1641 H 151.537 -1.13173 -3.55312 0
M  V30 1642 N 153.722 1.14298 -1.08507 0
M  V30 1643 C 154.67 2.21483 -0.710483 0
M  V30 1644 C 155.664 1.66998 0.284234 0
M  V30 1645 O 156.87 1.79401 0.146692 0
M  V30 1646 H 153.245 0.721578 -0.211729 0
M  V30 1647 H 155.216 2.50348 -1.62384 0
M  V30 1648 C 153.965 3.4743 -0.137007 0
M  V30 1649 H 153.288 3.89686 -0.893592 0
M  V30 1650 H 154.728 4.2391 0.0872789 0
M  V30 1651 C 153.187 3.17548 1.12538 0
M  V30 1652 O 153.717 3.35437 2.21009 0
M  V30 1653 N 151.923 2.71499 1.03617 0
M  V30 1654 H 151.47 2.57143 0.153403 0
M  V30 1655 H 151.428 2.51881 1.88158 0
M  V30 1656 N 155.201 0.870884 1.31352 0
M  V30 1657 C 156.447 0.482987 1.96965 0
M  V30 1658 C 156.78 -0.962462 1.68672 0
M  V30 1659 O 156.055 -1.6779 0.98371 0
M  V30 1660 C 156.338 0.741752 3.52378 0
M  V30 1661 C 156.191 2.2368 3.9024 0
M  V30 1662 C 157.51 0.208838 4.39604 0
M  V30 1663 H 154.629 0.176955 0.715441 0
M  V30 1664 H 157.271 1.09229 1.55464 0
M  V30 1665 H 155.421 0.223149 3.87859 0
M  V30 1666 H 157.093 2.82273 3.64856 0
M  V30 1667 H 155.336 2.70901 3.38814 0
M  V30 1668 H 156.007 2.3685 4.98604 0
M  V30 1669 H 158.483 0.652529 4.10952 0
M  V30 1670 H 157.359 0.419336 5.47296 0
M  V30 1671 H 157.62 -0.889275 4.33064 0
M  V30 1672 N 156.679 -1.44442 0.630414 0
M  V30 1673 C 157.609 -2.33418 -0.0618083 0
M  V30 1674 C 158.59 -1.48165 -0.835541 0
M  V30 1675 O 159.775 -1.76886 -0.801564 0
M  V30 1676 C 156.905 -3.31222 -1.04449 0
M  V30 1677 C 155.859 -4.26288 -0.382436 0
M  V30 1678 C 155.185 -5.13954 -1.47497 0
M  V30 1679 C 156.485 -5.1744 0.710865 0
M  V30 1680 H 158.179 -2.91548 0.681184 0
M  V30 1681 H 155.725 -1.40191 0.329026 0
M  V30 1682 H 157.678 -3.92351 -1.53748 0
M  V30 1683 H 156.402 -2.71299 -1.81836 0
M  V30 1684 H 155.061 -3.6649 0.0899054 0
M  V30 1685 H 154.709 -4.50385 -2.2397 0
M  V30 1686 H 154.409 -5.7837 -1.03737 0
M  V30 1687 H 155.933 -5.77955 -1.96979 0
M  V30 1688 H 157.347 -5.72509 0.300996 0
M  V30 1689 H 155.744 -5.90455 1.07156 0
M  V30 1690 H 156.814 -4.58496 1.57829 0
M  V30 1691 N 158.157 -0.370918 -1.53173 0
M  V30 1692 C 159.397 0.217106 -2.03244 0
M  V30 1693 C 159.761 1.45558 -1.25207 0
M  V30 1694 O 160.962 2.11957 -1.65311 0
M  V30 1695 C 159.233 0.496664 -3.53932 0
M  V30 1696 S 160.792 1.0576 -4.25864 0
M  V30 1697 H 157.61 0.0627827 -0.708223 0
M  V30 1698 H 160.212 -0.515019 -1.88594 0
M  V30 1699 H 158.916 -0.412096 -4.08326 0
M  V30 1700 H 158.447 1.25772 -3.72753 0
M  V30 1701 H 160.462 2.34145 -4.37482 0
M  V30 1702 N 159.635 1.57281 -0.100228 0
M  V30 1703 C 160.86 1.99302 0.573881 0
M  V30 1704 C 161.285 0.979059 1.60611 0
M  V30 1705 O 160.643 -0.0517803 1.81226 0
M  V30 1706 C 160.691 3.40274 1.19358 0
M  V30 1707 O 159.795 3.41676 2.30935 0
M  V30 1708 H 159.136 0.647944 0.145138 0
M  V30 1709 H 161.666 2.03779 -0.183156 0
M  V30 1710 H 161.676 3.78078 1.53365 0
M  V30 1711 H 160.351 4.13594 0.437385 0
M  V30 1712 H 158.928 3.15672 1.98509 0
M  V30 1713 N 161.113 -0.173488 1.56642 0
M  V30 1714 C 162.362 -0.888758 1.81063 0
M  V30 1715 C 162.675 -1.83506 0.67712 0
M  V30 1716 O 163.881 -2.59254 0.806206 0
M  V30 1717 C 162.337 -1.63091 3.20826 0
M  V30 1718 C 161.945 -0.728357 4.4204 0
M  V30 1719 C 163.689 -2.33454 3.54541 0
M  V30 1720 C 161.596 -1.47062 5.72823 0
M  V30 1721 H 160.526 -0.335618 0.675186 0
M  V30 1722 H 163.177 -0.141712 1.82952 0
M  V30 1723 H 161.559 -2.42263 3.13248 0
M  V30 1724 H 162.733 0.0262449 4.60793 0
M  V30 1725 H 161.048 -0.134492 4.16183 0
M  V30 1726 H 163.645 -2.89578 4.49498 0
M  V30 1727 H 163.988 -3.08687 2.79317 0
M  V30 1728 H 164.521 -1.61227 3.63663 0
M  V30 1729 H 161.26 -0.760658 6.51072 0
M  V30 1730 H 160.78 -2.1986 5.58052 0
M  V30 1731 H 162.459 -2.01868 6.14702 0
M  V30 1732 N 162.591 -1.51276 -0.441967 0
M  V30 1733 C 163.838 -1.63715 -1.19179 0
M  V30 1734 C 164.166 -0.351175 -1.91303 0
M  V30 1735 O 163.421 0.664524 -1.84072 0
M  V30 1736 C 163.72 -2.78746 -2.23686 0
M  V30 1737 C 163.386 -4.18189 -1.68607 0
M  V30 1738 C 162.048 -4.56125 -1.53308 0
M  V30 1739 C 164.4 -5.05222 -1.28062 0
M  V30 1740 C 161.728 -5.78804 -0.959317 0
M  V30 1741 C 164.08 -6.28476 -0.721162 0
M  V30 1742 C 162.744 -6.65188 -0.55504 0
M  V30 1743 H 162.014 -0.599076 -0.436106 0
M  V30 1744 H 164.661 -1.85296 -0.48351 0
M  V30 1745 H 162.966 -2.51369 -3.00535 0
M  V30 1746 H 164.663 -2.8557 -2.81515 0
M  V30 1747 H 161.253 -3.88277 -1.8149 0
M  V30 1748 H 165.437 -4.76524 -1.38704 0
M  V30 1749 H 160.693 -6.05899 -0.81833 0
M  V30 1750 H 164.867 -6.95259 -0.398458 0
M  V30 1751 H 162.494 -7.60123 -0.108311 0
M  V30 1752 N 164.069 0.697108 -1.41344 0
M  V30 1753 C 165.317 1.45426 -1.40341 0
M  V30 1754 C 165.638 1.94996 -0.0128787 0
M  V30 1755 O 164.908 1.71599 0.945027 0
M  V30 1756 H 163.488 0.539594 -0.516573 0
M  V30 1757 H 166.15 0.825201 -1.76569 0
M  V30 1758 H 165.246 2.31817 -2.08967 0
M  V30 1759 N 165.547 1.27147 0.931209 0
M  V30 1760 C 166.796 1.12664 1.67302 0
M  V30 1761 C 167.109 -0.327718 1.92835 0
M  V30 1762 O 168.315 -0.593392 2.64936 0
M  V30 1763 C 166.771 1.9683 3.01307 0
M  V30 1764 C 166.379 3.46901 2.83485 0
M  V30 1765 C 168.123 1.90985 3.79111 0
M  V30 1766 C 166.03 4.23279 4.13024 0
M  V30 1767 H 164.96 0.41803 0.627509 0
M  V30 1768 H 167.611 1.51539 1.03481 0
M  V30 1769 H 165.993 1.50797 3.66164 0
M  V30 1770 H 167.167 4.00773 2.27415 0
M  V30 1771 H 165.482 3.54088 2.19113 0
M  V30 1772 H 168.079 2.45328 4.75098 0
M  V30 1773 H 168.422 0.882718 4.06834 0
M  V30 1774 H 168.955 2.34895 3.21044 0
M  V30 1775 H 165.694 5.26503 3.90481 0
M  V30 1776 H 165.214 3.74186 4.6877 0
M  V30 1777 H 166.893 4.32265 4.81411 0
M  V30 1778 N 167.025 -1.13721 1.09112 0
M  V30 1779 C 168.265 -1.86576 0.834801 0
M  V30 1780 C 168.629 -1.81435 -0.628122 0
M  V30 1781 O 169.83 -2.49497 -1.00024 0
M  V30 1782 C 168.101 -3.30872 1.35124 0
M  V30 1783 S 169.66 -4.21257 1.22832 0
M  V30 1784 H 166.478 -0.643666 0.302017 0
M  V30 1785 H 169.08 -1.37085 1.39385 0
M  V30 1786 H 167.784 -3.32166 2.41027 0
M  V30 1787 H 167.315 -3.85423 0.788185 0
M  V30 1788 H 169.33 -4.95884 0.177191 0
M  V30 1789 N 168.503 -0.877838 -1.30888 0
M  V30 1790 C 169.436 -0.283995 -2.26426 0
M  V30 1791 C 170.414 0.591361 -1.51465 0
M  V30 1792 O 171.598 0.54304 -1.80509 0
M  V30 1793 C 168.725 0.597129 -3.33395 0
M  V30 1794 C 167.771 -0.207937 -4.25993 0
M  V30 1795 S 168.604 -1.59158 -5.11301 0
M  V30 1796 C 169.76 -0.716791 -6.21782 0
M  V30 1797 H 169.993 -1.09383 -2.76446 0
M  V30 1798 H 167.526 -0.676828 -1.38775 0
M  V30 1799 H 169.484 1.09978 -3.95493 0
M  V30 1800 H 168.145 1.38099 -2.82113 0
M  V30 1801 H 167.338 0.464163 -5.01858 0
M  V30 1802 H 166.94 -0.642963 -3.68432 0
M  V30 1803 H 169.232 0.0692833 -6.77465 0
M  V30 1804 H 170.175 -1.44682 -6.93161 0
M  V30 1805 H 170.583 -0.280855 -5.63801 0
M  V30 1806 N 169.982 1.44106 -0.638065 0
M  V30 1807 C 171.228 2.02277 -0.145546 0
M  V30 1808 C 171.561 1.50125 1.23191 0
M  V30 1809 O 170.836 0.688133 1.8192 0
M  V30 1810 C 171.119 3.59829 -0.139791 0
M  V30 1811 C 170.972 4.22247 -1.55008 0
M  V30 1812 C 172.291 4.36873 0.531966 0
M  V30 1813 H 169.41 0.734992 -0.0543632 0
M  V30 1814 H 172.052 1.71592 -0.815863 0
M  V30 1815 H 170.202 3.86102 0.431007 0
M  V30 1816 H 171.874 4.07057 -2.1703 0
M  V30 1817 H 170.117 3.79476 -2.10191 0
M  V30 1818 H 170.788 5.31284 -1.49804 0
M  V30 1819 H 173.264 4.16074 0.0464781 0
M  V30 1820 H 172.14 5.4657 0.505206 0
M  V30 1821 H 172.401 4.11995 1.60352 0
M  V30 1822 N 171.46 0.379036 1.52974 0
M  V30 1823 C 172.707 -0.206421 2.01445 0
M  V30 1824 C 173.035 -1.47668 1.26587 0
M  V30 1825 O 172.29 -1.92514 0.351675 0
M  V30 1826 C 172.589 -0.53096 3.53434 0
M  V30 1827 C 172.255 0.646546 4.46241 0
M  V30 1828 C 170.917 0.969604 4.7133 0
M  V30 1829 C 173.269 1.43479 5.01062 0
M  V30 1830 C 170.597 2.08263 5.48492 0
M  V30 1831 C 172.949 2.53834 5.7944 0
M  V30 1832 C 171.613 2.86659 6.02812 0
M  V30 1833 H 170.883 -0.0755349 0.73714 0
M  V30 1834 H 173.53 0.514271 1.84465 0
M  V30 1835 H 171.835 -1.33285 3.68432 0
M  V30 1836 H 173.532 -0.996417 3.88423 0
M  V30 1837 H 170.122 0.384734 4.2687 0
M  V30 1838 H 174.306 1.19844 4.81613 0
M  V30 1839 H 169.562 2.34078 5.64816 0
M  V30 1840 H 173.736 3.15319 6.20924 0
M  V30 1841 H 171.363 3.73026 6.62387 0
M  V30 1842 N 172.938 -1.57226 0.108567 0
M  V30 1843 C 174.163 -1.99604 -0.563303 0
M  V30 1844 C 174.588 -0.987563 -1.6009 0
M  V30 1845 O 173.946 0.0421687 -1.81251 0
M  V30 1846 C 173.994 -3.40902 -1.17552 0
M  V30 1847 O 173.098 -3.42896 -2.2912 0
M  V30 1848 H 172.439 -0.648704 -0.1417 0
M  V30 1849 H 174.969 -2.03679 0.193961 0
M  V30 1850 H 174.979 -3.78886 -1.51357 0
M  V30 1851 H 173.654 -4.1382 -0.415445 0
M  V30 1852 H 172.231 -3.1672 -1.96832 0
M  V30 1853 N 174.416 0.165178 -1.56732 0
M  V30 1854 C 175.664 0.879068 -1.8198 0
M  V30 1855 C 175.985 1.82514 -0.686561 0
M  V30 1856 O 175.255 1.93694 0.293146 0
M  V30 1857 H 173.835 0.327608 -0.671329 0
M  V30 1858 H 176.497 0.163526 -1.94213 0
M  V30 1859 H 175.593 1.45228 -2.76252 0
M  V30 1860 N 175.894 1.51508 0.433938 0
M  V30 1861 C 176.824 1.76016 1.53429 0
M  V30 1862 C 177.805 0.610112 1.58782 0
M  V30 1863 O 178.99 0.853177 1.74455 0
M  V30 1864 C 176.12 1.88831 2.9148 0
M  V30 1865 C 175.074 3.04288 3.00987 0
M  V30 1866 C 174.4 3.0229 4.4105 0
M  V30 1867 C 175.7 4.44193 2.74754 0
M  V30 1868 H 177.394 2.68152 1.33171 0
M  V30 1869 H 174.94 1.29035 0.639214 0
M  V30 1870 H 176.893 2.04559 3.6842 0
M  V30 1871 H 175.617 0.933455 3.12976 0
M  V30 1872 H 174.276 2.8827 2.26486 0
M  V30 1873 H 173.924 2.04576 4.59519 0
M  V30 1874 H 173.624 3.79822 4.4834 0
M  V30 1875 H 175.148 3.20116 5.1996 0
M  V30 1876 H 176.562 4.60544 3.41426 0
M  V30 1877 H 174.959 5.23457 2.9345 0
M  V30 1878 H 176.029 4.53996 1.70339 0
M  V30 1879 N 177.372 -0.689602 1.41712 0
M  V30 1880 C 178.612 -1.46184 1.42862 0
M  V30 1881 C 178.976 -1.91962 0.0382204 0
M  V30 1882 O 180.177 -2.68694 -0.0755019 0
M  V30 1883 C 178.448 -2.6371 2.4123 0
M  V30 1884 S 180.007 -3.52768 2.6096 0
M  V30 1885 H 176.825 -0.49947 0.506015 0
M  V30 1886 H 179.427 -0.804107 1.78198 0
M  V30 1887 H 178.131 -2.28293 3.41044 0
M  V30 1888 H 177.662 -3.3437 2.07269 0
M  V30 1889 H 179.677 -4.59146 1.88148 0
M  V30 1890 N 178.85 -1.27639 -0.924453 0
M  V30 1891 C 180.261 -1.12834 -1.48746 0
M  V30 1892 C 180.612 0.285505 -1.94112 0
M  V30 1893 O 179.737 1.17874 -1.81479 0
M  V30 1894 C 180.332 -2.04217 -2.70334 0
M  V30 1895 C 178.891 -1.93509 -3.22848 0
M  V30 1896 C 178.038 -1.96583 -1.95577 0
M  V30 1897 H 180.989 -1.40484 -0.738233 0
M  V30 1898 H 181.01 -1.59989 -3.4523 0
M  V30 1899 H 180.522 -3.07111 -2.37285 0
M  V30 1900 H 178.623 -0.936131 -3.60649 0
M  V30 1901 H 178.736 -2.79917 -3.88823 0
M  V30 1902 H 177.1 -1.4085 -2.12211 0
M  V30 1903 H 177.883 -3.01137 -1.64837 0
M  V30 1904 N 180.328 1.1314 -1.09713 0
M  V30 1905 C 181.258 2.20748 -0.761102 0
M  V30 1906 C 182.239 1.68061 0.262566 0
M  V30 1907 O 183.424 1.93765 0.129977 0
M  V30 1908 C 180.554 3.46812 -0.184054 0
M  V30 1909 C 179.508 4.12606 -1.13757 0
M  V30 1910 C 178.834 5.33031 -0.422083 0
M  V30 1911 C 180.134 4.59603 -2.48118 0
M  V30 1912 H 181.828 2.49113 -1.66082 0
M  V30 1913 H 179.374 1.19734 -0.799987 0
M  V30 1914 H 181.327 4.21353 0.0631215 0
M  V30 1915 H 180.051 3.17851 0.750868 0
M  V30 1916 H 178.71 3.40036 -1.37007 0
M  V30 1917 H 178.358 5.00335 0.517072 0
M  V30 1918 H 178.058 5.77999 -1.05788 0
M  V30 1919 H 179.582 6.10325 -0.183277 0
M  V30 1920 H 180.996 5.25552 -2.29059 0
M  V30 1921 H 179.393 5.15321 -3.07514 0
M  V30 1922 H 180.463 3.73971 -3.08665 0
M  V30 1923 N 181.806 0.884767 1.30421 0
M  V30 1924 C 182.736 0.367574 2.30589 0
M  V30 1925 C 183.717 -0.549464 1.60981 0
M  V30 1926 O 184.902 -0.46336 1.88591 0
M  V30 1927 C 182.032 -0.418944 3.44764 0
M  V30 1928 C 180.986 0.406316 4.26067 0
M  V30 1929 C 180.312 -0.506793 5.32293 0
M  V30 1930 C 181.612 1.64832 4.95608 0
M  V30 1931 H 183.306 1.20462 2.74097 0
M  V30 1932 H 180.852 0.580695 1.31772 0
M  V30 1933 H 182.805 -0.791395 4.13902 0
M  V30 1934 H 181.529 -1.28964 3.0006 0
M  V30 1935 H 180.188 0.760903 3.58617 0
M  V30 1936 H 179.836 -1.37519 4.83836 0
M  V30 1937 H 179.536 0.0415828 5.87585 0
M  V30 1938 H 181.06 -0.875764 6.04287 0
M  V30 1939 H 182.474 1.34646 5.57264 0
M  V30 1940 H 180.871 2.13688 5.60765 0
M  V30 1941 H 181.941 2.39284 4.21748 0
M  V30 1942 N 183.284 -1.43765 0.645699 0
M  V30 1943 C 184.214 -2.33471 -0.0370477 0
M  V30 1944 C 185.195 -1.49042 -0.819779 0
M  V30 1945 O 186.38 -1.77726 -0.782758 0
M  V30 1946 C 183.51 -3.32311 -1.0093 0
M  V30 1947 C 182.464 -4.2667 -0.337201 0
M  V30 1948 C 181.79 -5.1549 -1.42037 0
M  V30 1949 C 183.09 -5.16657 0.765706 0
M  V30 1950 H 184.784 -2.90809 0.712069 0
M  V30 1951 H 182.33 -1.39834 0.343876 0
M  V30 1952 H 184.283 -3.9396 -1.49578 0
M  V30 1953 H 183.007 -2.73213 -1.78948 0
M  V30 1954 H 181.666 -3.66374 0.128771 0
M  V30 1955 H 181.314 -4.52735 -2.1918 0
M  V30 1956 H 181.014 -5.79438 -0.975966 0
M  V30 1957 H 182.538 -5.80012 -1.90838 0
M  V30 1958 H 183.952 -5.72158 0.361702 0
M  V30 1959 H 182.349 -5.89286 1.13413 0
M  V30 1960 H 183.419 -4.56796 1.62683 0
M  V30 1961 N 184.763 -0.387143 -1.52771 0
M  V30 1962 C 186.011 0.195349 -2.01154 0
M  V30 1963 C 186.332 1.475 -1.27549 0
M  V30 1964 O 185.602 1.91878 -0.394924 0
M  V30 1965 H 184.182 0.075178 -0.743207 0
M  V30 1966 H 186.844 -0.518337 -1.87881 0
M  V30 1967 H 185.94 0.407096 -3.09434 0
M  V30 1968 N 186.241 1.57166 -0.116904 0
M  V30 1969 C 187.466 1.999 0.55271 0
M  V30 1970 C 187.891 0.996039 1.59564 0
M  V30 1971 O 187.249 -0.032556 1.81271 0
M  V30 1972 C 187.297 3.4152 1.15742 0
M  V30 1973 O 186.401 3.44106 2.27299 0
M  V30 1974 H 185.742 0.649447 0.138258 0
M  V30 1975 H 188.272 2.03573 -0.204759 0
M  V30 1976 H 188.282 3.79684 1.49346 0
M  V30 1977 H 186.957 4.14034 0.393493 0
M  V30 1978 H 185.534 3.17759 1.9515 0
M  V30 1979 N 187.719 -0.156864 1.56817 0
M  V30 1980 C 188.965 -0.872416 1.83076 0
M  V30 1981 C 189.298 -1.81261 0.697001 0
M  V30 1982 O 188.573 -1.92171 -0.30008 0
M  V30 1983 C 188.856 -1.65551 3.19789 0
M  V30 1984 C 188.709 -0.737467 4.43713 0
M  V30 1985 C 190.028 -2.62012 3.53606 0
M  V30 1986 H 187.147 -0.315715 0.665953 0
M  V30 1987 H 189.789 -0.138004 1.89498 0
M  V30 1988 H 187.939 -2.28159 3.14445 0
M  V30 1989 H 189.611 -0.123143 4.61136 0
M  V30 1990 H 187.854 -0.0464067 4.33775 0
M  V30 1991 H 188.525 -1.32122 5.35955 0
M  V30 1992 H 191.001 -2.09525 3.59497 0
M  V30 1993 H 189.877 -3.13861 4.50314 0
M  V30 1994 H 190.138 -3.42902 2.79053 0
M  V30 1995 N 189.197 -1.51736 -0.425897 0
M  V30 1996 C 190.13 -1.68574 -1.53812 0
M  V30 1997 C 191.108 -0.53328 -1.53606 0
M  V30 1998 O 192.292 -0.758555 -1.72564 0
M  V30 1999 C 189.419 -1.70977 -2.92377 0
M  V30 2000 C 188.465 -2.92324 -3.10563 0
M  V30 2001 S 189.298 -4.52952 -2.85648 0
M  V30 2002 C 190.454 -4.58117 -4.26474 0
M  V30 2003 H 190.687 -2.62647 -1.39298 0
M  V30 2004 H 188.22 -1.41564 -0.616361 0
M  V30 2005 H 190.178 -1.73047 -3.72243 0
M  V30 2006 H 188.839 -0.78061 -3.04245 0
M  V30 2007 H 188.032 -2.90439 -4.11899 0
M  V30 2008 H 187.634 -2.88055 -2.38538 0
M  V30 2009 H 189.926 -4.34462 -5.19855 0
M  V30 2010 H 190.869 -5.59983 -4.33388 0
M  V30 2011 H 191.277 -3.8732 -4.10662 0
M  V30 2012 N 190.675 0.682077 -1.42076 0
M  V30 2013 C 191.638 1.77756 -1.44691 0
M  V30 2014 C 192.638 1.5726 -0.335535 0
M  V30 2015 O 193.828 1.63686 -0.596037 0
M  V30 2016 C 190.96 3.16301 -1.27146 0
M  V30 2017 H 192.153 1.76826 -2.42224 0
M  V30 2018 H 189.706 0.891012 -1.28416 0
M  V30 2019 H 190.441 3.22862 -0.305075 0
M  V30 2020 H 190.226 3.32581 -2.07683 0
M  V30 2021 H 191.716 3.96241 -1.31843 0
M  V30 2022 N 192.153 1.28127 0.917671 0
M  V30 2023 C 193.402 1.14432 1.66097 0
M  V30 2024 C 193.715 -0.307247 1.93172 0
M  V30 2025 O 194.921 -0.565259 2.65551 0
M  V30 2026 C 193.377 2.00015 2.99202 0
M  V30 2027 C 192.985 3.49889 2.79789 0
M  V30 2028 C 194.729 1.94996 3.77064 0
M  V30 2029 C 192.636 4.27636 4.08511 0
M  V30 2030 H 191.566 0.424662 0.62304 0
M  V30 2031 H 194.217 1.52628 1.01868 0
M  V30 2032 H 192.599 1.54672 3.64544 0
M  V30 2033 H 193.773 4.03162 2.23152 0
M  V30 2034 H 192.088 3.56392 2.15345 0
M  V30 2035 H 194.685 2.50354 4.72469 0
M  V30 2036 H 195.028 0.925819 4.05875 0
M  V30 2037 H 195.561 2.38287 3.18534 0
M  V30 2038 H 192.3 5.30615 3.84874 0
M  V30 2039 H 191.82 3.79137 4.64774 0
M  V30 2040 H 193.499 4.37346 4.76799 0
M  V30 2041 N 193.631 -1.12557 1.10312 0
M  V30 2042 C 194.541 -2.21841 0.763142 0
M  V30 2043 C 195.557 -1.72354 -0.238801 0
M  V30 2044 O 196.733 -2.01249 -0.0778746 0
M  V30 2045 C 193.798 -3.46131 0.198632 0
M  V30 2046 C 192.859 -4.10464 1.25769 0
M  V30 2047 C 192.092 -5.28821 0.72002 0
M  V30 2048 O 192.315 -5.6859 -0.453993 0
M  V30 2049 O 191.249 -5.83437 1.47935 0
M  V30 2050 H 195.075 -2.53312 1.67532 0
M  V30 2051 H 192.66 -1.20867 0.878157 0
M  V30 2052 H 194.542 -4.2125 -0.112401 0
M  V30 2053 H 193.217 -3.16338 -0.686419 0
M  V30 2054 H 192.124 -3.3713 1.62156 0
M  V30 2055 H 193.457 -4.44408 2.11571 0
M  V30 2056 N 195.109 -0.891671 -1.2995 0
M  V30 2057 C 196.525 -0.58662 -1.48428 0
M  V30 2058 C 196.725 0.873951 -1.81561 0
M  V30 2059 O 195.781 1.65471 -1.90724 0
M  V30 2060 C 197.094 -1.50553 -2.60296 0
M  V30 2061 C 198.642 -1.50988 -2.74175 0
M  V30 2062 C 199.117 -2.41488 -3.89163 0
M  V30 2063 N 200.608 -2.39489 -3.96483 0
M  V30 2064 C 201.343 -3.06223 -4.84784 0
M  V30 2065 N 200.839 -3.82206 -5.77833 0
M  V30 2066 N 202.632 -2.95421 -4.78208 0
M  V30 2067 H 194.783 -1.83644 -1.06718 0
M  V30 2068 H 197.046 -0.786455 -0.529332 0
M  V30 2069 H 196.752 -2.54581 -2.42654 0
M  V30 2070 H 196.626 -1.22008 -3.56923 0
M  V30 2071 H 199.013 -0.47708 -2.91218 0
M  V30 2072 H 199.094 -1.83567 -1.78148 0
M  V30 2073 H 198.738 -3.44857 -3.72876 0
M  V30 2074 H 198.668 -2.06222 -4.84541 0
M  V30 2075 H 201.159 -1.84278 -3.29924 0
M  V30 2076 H 201.472 -4.302 -6.41988 0
M  V30 2077 H 199.817 -3.86313 -5.77743 0
M  V30 2078 H 203.008 -2.35581 -4.04499 0
M  V30 2079 H 203.181 -3.47704 -5.46814 0
M  V30 2080 N 196.587 1.43421 -0.653314 0
M  V30 2081 C 197.827 2.03689 -0.170346 0
M  V30 2082 C 198.191 1.50427 1.19314 0
M  V30 2083 O 199.392 2.0234 1.76952 0
M  V30 2084 C 197.663 3.56946 -0.180183 0
M  V30 2085 S 199.222 4.38171 0.234925 0
M  V30 2086 H 196.04 0.707345 -0.0719976 0
M  V30 2087 H 198.642 1.75486 -0.86167 0
M  V30 2088 H 197.346 3.93212 -1.17526 0
M  V30 2089 H 196.877 3.89791 0.531675 0
M  V30 2090 H 198.892 4.73808 1.47378 0
M  V30 2091 N 198.065 0.39524 1.52563 0
M  V30 2092 C 199.314 -0.186321 2.00838 0
M  V30 2093 C 199.627 -1.47402 1.28577 0
M  V30 2094 O 200.833 -2.13599 1.67593 0
M  V30 2095 C 199.289 -0.382595 3.57861 0
M  V30 2096 C 198.897 0.892202 4.39026 0
M  V30 2097 C 200.641 -0.9202 4.14406 0
M  V30 2098 C 198.548 0.66388 5.87662 0
M  V30 2099 H 197.478 -0.0734041 0.750418 0
M  V30 2100 H 200.129 0.518552 1.76021 0
M  V30 2101 H 198.511 -1.14946 3.7895 0
M  V30 2102 H 199.685 1.66414 4.29701 0
M  V30 2103 H 198 1.35519 3.9373 0
M  V30 2104 H 200.597 -1.10683 5.23119 0
M  V30 2105 H 200.94 -1.89096 3.70875 0
M  V30 2106 H 201.473 -0.212751 3.97231 0
M  V30 2107 H 198.212 1.6058 6.35527 0
M  V30 2108 H 197.732 -0.0690193 5.9976 0
M  V30 2109 H 199.411 0.300699 6.46301 0
M  V30 2110 N 199.544 -1.57102 0.125237 0
M  V30 2111 C 200.792 -1.95021 -0.530198 0
M  V30 2112 C 201.113 -1.00982 -1.66816 0
M  V30 2113 O 200.383 -0.0672693 -1.95784 0
M  V30 2114 H 198.963 -0.720046 -0.198853 0
M  V30 2115 H 201.625 -1.93916 0.19564 0
M  V30 2116 H 200.721 -2.98211 -0.920681 0
M  V30 2117 N 201.022 0.148545 -1.56898 0
M  V30 2118 C 202.268 0.862694 -1.83536 0
M  V30 2119 C 202.601 1.80889 -0.706604 0
M  V30 2120 O 201.876 1.92328 0.289885 0
M  V30 2121 C 202.159 1.63853 -3.20662 0
M  V30 2122 C 202.012 0.713925 -4.44098 0
M  V30 2123 C 203.331 2.60133 -3.54991 0
M  V30 2124 H 200.45 0.312179 -0.667618 0
M  V30 2125 H 203.092 0.127953 -1.89569 0
M  V30 2126 H 201.242 2.26489 -3.1565 0
M  V30 2127 H 202.914 0.098686 -4.61194 0
M  V30 2128 H 201.157 0.0234019 -4.33794 0
M  V30 2129 H 201.828 1.29278 -5.36648 0
M  V30 2130 H 204.304 2.07616 -3.60603 0
M  V30 2131 H 203.18 3.11468 -4.51972 0
M  V30 2132 H 203.441 3.41417 -2.80868 0
M  V30 2133 N 202.5 1.5196 0.417844 0
M  V30 2134 C 203.728 1.69426 1.18753 0
M  V30 2135 C 204.143 0.399955 1.84515 0
M  V30 2136 O 203.5 -0.623288 1.71527 0
M  V30 2137 C 203.551 2.82375 2.25714 0
M  V30 2138 O 203.272 4.06793 1.62638 0
M  V30 2139 C 204.773 3.11277 3.15628 0
M  V30 2140 H 201.993 0.568031 0.357186 0
M  V30 2141 H 204.537 1.98475 0.49273 0
M  V30 2142 H 202.692 2.5587 2.90877 0
M  V30 2143 H 203.106 4.69667 2.3348 0
M  V30 2144 H 204.58 3.93843 3.86771 0
M  V30 2145 H 205.057 2.24473 3.77503 0
M  V30 2146 H 205.663 3.39515 2.56144 0
M  V30 2147 N 203.978 -0.674533 1.42435 0
M  V30 2148 C 204.925 -1.78807 1.45934 0
M  V30 2149 C 205.895 -1.63157 0.311271 0
M  V30 2150 O 207.08 -1.83707 0.515383 0
M  V30 2151 C 204.22 -3.16839 1.36773 0
M  V30 2152 C 203.333 -3.43774 2.61617 0
M  V30 2153 C 202.468 -4.71536 2.44597 0
M  V30 2154 C 201.507 -4.91505 3.64814 0
M  V30 2155 N 200.644 -6.10508 3.46734 0
M  V30 2156 H 205.484 -1.75151 2.41093 0
M  V30 2157 H 203.021 -0.85504 1.19697 0
M  V30 2158 H 204.979 -3.96606 1.29459 0
M  V30 2159 H 203.609 -3.19619 0.452089 0
M  V30 2160 H 202.661 -2.58259 2.79297 0
M  V30 2161 H 203.973 -3.54423 3.50978 0
M  V30 2162 H 203.127 -5.59393 2.3487 0
M  V30 2163 H 201.866 -4.6317 1.52726 0
M  V30 2164 H 200.871 -4.0209 3.74972 0
M  V30 2165 H 202.096 -5.01716 4.57665 0
M  V30 2166 H 200.042 -6.03315 2.5758 0
M  V30 2167 H 199.959 -6.2202 4.29682 0
M  V30 2168 H 201.227 -7.01044 3.40819 0
M  V30 2169 N 205.456 -1.28612 -0.910864 0
M  V30 2170 C 206.867 -1.14406 -1.47541 0
M  V30 2171 C 207.218 0.264901 -1.94403 0
M  V30 2172 O 206.343 1.15942 -1.82719 0
M  V30 2173 C 206.938 -2.07073 -2.68153 0
M  V30 2174 C 205.497 -1.96923 -3.20778 0
M  V30 2175 C 204.644 -1.98646 -1.93481 0
M  V30 2176 H 207.595 -1.41259 -0.723291 0
M  V30 2177 H 207.616 -1.63642 -3.43514 0
M  V30 2178 H 207.128 -3.09611 -2.34015 0
M  V30 2179 H 205.229 -0.97433 -3.59635 0
M  V30 2180 H 205.342 -2.84026 -3.85832 0
M  V30 2181 H 203.706 -1.43093 -2.10705 0
M  V30 2182 H 204.489 -3.02868 -1.61634 0
M  V30 2183 N 206.934 1.1197 -1.10907 0
M  V30 2184 C 208.183 1.82947 -0.849302 0
M  V30 2185 C 208.496 1.85275 0.627112 0
M  V30 2186 O 209.702 2.52296 1.00295 0
M  V30 2187 C 208.158 3.28529 -1.46959 0
M  V30 2188 C 207.766 3.34546 -2.97965 0
M  V30 2189 C 209.51 4.04443 -1.28942 0
M  V30 2190 C 207.417 4.74491 -3.53004 0
M  V30 2191 H 206.347 0.685477 -0.314065 0
M  V30 2192 H 208.998 1.2604 -1.33365 0
M  V30 2193 H 207.38 3.85333 -0.912917 0
M  V30 2194 H 208.554 2.87654 -3.59989 0
M  V30 2195 H 206.869 2.72108 -3.15192 0
M  V30 2196 H 209.466 5.07787 -1.67502 0
M  V30 2197 H 209.809 4.15656 -0.231456 0
M  V30 2198 H 210.342 3.5401 -1.81443 0
M  V30 2199 H 207.081 4.68474 -4.58489 0
M  V30 2200 H 206.601 5.21816 -2.9575 0
M  V30 2201 H 208.28 5.4344 -3.51115 0
M  V30 2202 N 208.412 0.89855 1.29475 0
M  V30 2203 C 209.659 0.523882 1.95606 0
M  V30 2204 C 209.987 -0.929608 1.70847 0
M  V30 2205 O 209.242 -1.67401 1.01367 0
M  V30 2206 C 209.541 0.761398 3.49195 0
M  V30 2207 C 209.207 2.19207 3.94029 0
M  V30 2208 C 207.869 2.58326 4.05982 0
M  V30 2209 C 210.221 3.12379 4.17216 0
M  V30 2210 C 207.549 3.898 4.38489 0
M  V30 2211 C 209.901 4.43401 4.51197 0
M  V30 2212 C 208.565 4.82394 4.61359 0
M  V30 2213 H 207.835 0.191702 0.715773 0
M  V30 2214 H 210.482 1.13699 1.54094 0
M  V30 2215 H 208.787 0.0653622 3.91745 0
M  V30 2216 H 210.484 0.450904 3.98457 0
M  V30 2217 H 207.074 1.87846 3.85242 0
M  V30 2218 H 211.258 2.83371 4.07449 0
M  V30 2219 H 206.514 4.19734 4.44559 0
M  V30 2220 H 210.688 5.15623 4.68087 0
M  V30 2221 H 208.315 5.84306 4.86303 0
M  V30 2222 N 209.89 -1.43072 0.660911 0
M  V30 2223 C 210.84 -2.27948 -0.04847 0
M  V30 2224 C 211.824 -1.40325 -0.787246 0
M  V30 2225 O 213.016 -1.63893 -0.668446 0
M  V30 2226 C 210.145 -3.28143 -1.00881 0
M  V30 2227 C 209.231 -4.23252 -0.268108 0
M  V30 2228 N 209.622 -5.00656 0.719528 0
M  V30 2229 C 207.92 -4.43092 -0.508493 0
M  V30 2230 C 208.621 -5.70019 1.15988 0
M  V30 2231 N 207.597 -5.41364 0.492584 0
M  V30 2232 H 211.399 -2.85213 0.709279 0
M  V30 2233 H 208.913 -1.54869 0.488822 0
M  V30 2234 H 210.91 -3.87736 -1.53188 0
M  V30 2235 H 209.57 -2.7244 -1.76654 0
M  V30 2236 H 210.581 -5.06115 1.09855 0
M  V30 2237 H 207.258 -3.98449 -1.24679 0
M  V30 2238 H 208.648 -6.4214 1.97751 0
M  V30 2239 N 211.368 -0.403325 -1.52352 0
M  V30 2240 C 212.593 0.176499 -2.06648 0
M  V30 2241 C 213.018 1.38577 -1.27193 0
M  V30 2242 O 212.376 1.7879 -0.300637 0
M  V30 2243 C 212.424 0.511061 -3.5696 0
M  V30 2244 O 211.528 1.60294 -3.79973 0
M  V30 2245 H 210.869 0.0167337 -0.663789 0
M  V30 2246 H 213.399 -0.574848 -1.96359 0
M  V30 2247 H 213.409 0.771362 -4.00642 0
M  V30 2248 H 212.084 -0.37296 -4.14224 0
M  V30 2249 H 210.661 1.33526 -3.48174 0
M  V30 2250 N 212.846 1.57033 -0.133567 0
M  V30 2251 C 214.074 2.00044 0.528195 0
M  V30 2252 C 214.489 1.01349 1.59291 0
M  V30 2253 O 213.846 0.00848369 1.82498 0
M  V30 2254 C 213.897 3.43018 1.1411 0
M  V30 2255 O 213.618 4.37939 0.11892 0
M  V30 2256 C 215.119 4.01237 1.88477 0
M  V30 2257 H 212.339 0.656517 0.138661 0
M  V30 2258 H 214.883 2.03267 -0.224196 0
M  V30 2259 H 213.038 3.40688 1.84418 0
M  V30 2260 H 213.452 5.21436 0.56613 0
M  V30 2261 H 214.926 5.03314 2.26669 0
M  V30 2262 H 215.403 3.41193 2.76558 0
M  V30 2263 H 216.009 4.07156 1.22898 0
M  V30 2264 N 214.325 -0.140222 1.56975 0
M  V30 2265 C 215.272 -1.17292 1.98774 0
M  V30 2266 C 216.242 -1.4232 0.856408 0
M  V30 2267 O 217.427 -1.54541 1.119 0
M  V30 2268 C 214.567 -2.49973 2.37923 0
M  V30 2269 C 213.68 -2.32062 3.64378 0
M  V30 2270 C 212.815 -3.57825 3.926 0
M  V30 2271 C 211.854 -3.3498 5.12303 0
M  V30 2272 N 210.991 -4.52891 5.36502 0
M  V30 2273 H 215.831 -0.809472 2.86795 0
M  V30 2274 H 213.368 -0.388237 1.41884 0
M  V30 2275 H 215.326 -3.27346 2.58652 0
M  V30 2276 H 213.956 -2.84252 1.52972 0
M  V30 2277 H 213.008 -1.45711 3.51387 0
M  V30 2278 H 214.32 -2.11145 4.51906 0
M  V30 2279 H 213.474 -4.43624 4.13863 0
M  V30 2280 H 212.213 -3.81753 3.03506 0
M  V30 2281 H 211.218 -2.4757 4.90906 0
M  V30 2282 H 212.443 -3.12444 6.02956 0
M  V30 2283 H 210.389 -4.76979 4.50363 0
M  V30 2284 H 210.306 -4.35001 6.18312 0
M  V30 2285 H 211.574 -5.39884 5.62268 0
M  V30 2286 N 215.803 -1.52179 -0.40978 0
M  V30 2287 C 217.052 -1.65434 -1.15388 0
M  V30 2288 C 217.365 -0.390056 -1.91671 0
M  V30 2289 O 218.571 -0.402399 -2.68501 0
M  V30 2290 C 217.027 -2.92279 -2.10003 0
M  V30 2291 C 216.635 -4.25813 -1.39239 0
M  V30 2292 C 218.379 -3.14897 -2.84675 0
M  V30 2293 C 216.286 -5.43782 -2.32498 0
M  V30 2294 H 215.216 -0.616267 -0.434432 0
M  V30 2295 H 217.867 -1.78666 -0.418401 0
M  V30 2296 H 216.249 -2.72744 -2.871 0
M  V30 2297 H 217.423 -4.55828 -0.675099 0
M  V30 2298 H 215.738 -4.09292 -0.766097 0
M  V30 2299 H 218.335 -4.0021 -3.54593 0
M  V30 2300 H 218.678 -2.29103 -3.47588 0
M  V30 2301 H 219.211 -3.34901 -2.14677 0
M  V30 2302 H 215.95 -6.3192 -1.74233 0
M  V30 2303 H 215.47 -5.18106 -3.02201 0
M  V30 2304 H 217.149 -5.76834 -2.93038 0
M  V30 2305 N 217.281 0.66697 -1.42791 0
M  V30 2306 C 218.509 1.45505 -1.47091 0
M  V30 2307 C 218.924 1.8861 -0.0845873 0
M  V30 2308 O 218.281 1.58632 0.90234 0
M  V30 2309 C 218.332 2.69906 -2.40485 0
M  V30 2310 O 218.053 2.28608 -3.73725 0
M  V30 2311 C 219.554 3.63396 -2.53886 0
M  V30 2312 H 216.774 0.447459 -0.500022 0
M  V30 2313 H 219.318 0.818866 -1.8739 0
M  V30 2314 H 217.473 3.29696 -2.03419 0
M  V30 2315 H 217.887 3.08997 -4.23817 0
M  V30 2316 H 219.361 4.47387 -3.2334 0
M  V30 2317 H 219.838 4.09824 -1.57927 0
M  V30 2318 H 220.444 3.09495 -2.91706 0
M  V30 2319 N 218.759 1.29093 0.90403 0
M  V30 2320 C 219.984 1.19809 1.69294 0
M  V30 2321 C 220.409 -0.238481 1.86582 0
M  V30 2322 O 219.767 -1.1723 1.383 0
M  V30 2323 C 219.815 1.91202 3.05736 0
M  V30 2324 O 218.919 1.22611 3.93752 0
M  V30 2325 H 218.26 0.415385 0.518027 0
M  V30 2326 H 220.79 1.70586 1.12967 0
M  V30 2327 H 220.8 1.99487 3.55906 0
M  V30 2328 H 219.475 2.95692 2.92471 0
M  V30 2329 H 218.052 1.22554 3.52186 0
M  V30 2330 N 220.237 -1.11381 1.11499 0
M  V30 2331 C 221.184 -2.17439 0.773887 0
M  V30 2332 C 222.154 -1.64132 -0.254899 0
M  V30 2333 O 223.339 -1.90345 -0.13168 0
M  V30 2334 C 220.479 -3.44373 0.223917 0
M  V30 2335 C 219.592 -4.1168 1.30934 0
M  V30 2336 C 218.727 -5.263 0.71984 0
M  V30 2337 C 217.766 -5.85493 1.78507 0
M  V30 2338 N 216.903 -6.91507 1.21502 0
M  V30 2339 H 221.743 -2.45962 1.68246 0
M  V30 2340 H 219.28 -1.20744 0.840191 0
M  V30 2341 H 221.238 -4.17047 -0.112921 0
M  V30 2342 H 219.868 -3.16232 -0.647851 0
M  V30 2343 H 218.92 -3.37073 1.76312 0
M  V30 2344 H 220.232 -4.51729 2.11524 0
M  V30 2345 H 219.386 -6.05785 0.333094 0
M  V30 2346 H 218.125 -4.87559 -0.117377 0
M  V30 2347 H 217.13 -5.04686 2.18111 0
M  V30 2348 H 218.355 -6.26301 2.62533 0
M  V30 2349 H 216.301 -6.54783 0.399455 0
M  V30 2350 H 216.218 -7.30214 1.95763 0
M  V30 2351 H 217.486 -7.74795 0.855181 0
M  V30 2352 N 221.715 -0.905404 -1.28997 0
M  V30 2353 C 222.665 -0.358713 -2.25161 0
M  V30 2354 C 223.649 0.524449 -1.52113 0
M  V30 2355 O 224.841 0.365534 -1.73184 0
M  V30 2356 C 221.97 0.407609 -3.40872 0
M  V30 2357 C 221.056 -0.490797 -4.21251 0
M  V30 2358 N 221.447 -1.60061 -4.79806 0
M  V30 2359 C 219.745 -0.289636 -4.45059 0
M  V30 2360 C 220.446 -2.15757 -5.40207 0
M  V30 2361 N 219.422 -1.44988 -5.23908 0
M  V30 2362 H 223.224 -1.20642 -2.67998 0
M  V30 2363 H 220.738 -0.757103 -1.43672 0
M  V30 2364 H 222.735 0.816046 -4.08835 0
M  V30 2365 H 221.395 1.25251 -2.9957 0
M  V30 2366 H 222.406 -1.98329 -4.7842 0
M  V30 2367 H 219.083 0.51643 -4.14294 0
M  V30 2368 H 220.473 -3.09069 -5.96595 0
M  V30 2369 N 223.193 1.4272 -0.668489 0
M  V30 2370 C 224.439 2.01923 -0.188419 0
M  V30 2371 C 224.772 1.52704 1.19979 0
M  V30 2372 O 224.047 0.726566 1.8042 0
M  V30 2373 C 224.33 3.59451 -0.216085 0
M  V30 2374 C 224.183 4.18864 -1.6393 0
M  V30 2375 C 225.502 4.37903 0.439179 0
M  V30 2376 H 222.621 0.733674 -0.0699412 0
M  V30 2377 H 225.263 1.69822 -0.852076 0
M  V30 2378 H 223.413 3.86929 0.349012 0
M  V30 2379 H 225.085 4.02362 -2.25616 0
M  V30 2380 H 223.328 3.74933 -2.18193 0
M  V30 2381 H 223.999 5.27987 -1.61039 0
M  V30 2382 H 226.475 4.16079 -0.0417878 0
M  V30 2383 H 225.351 5.47519 0.389157 0
M  V30 2384 H 225.612 4.15303 1.51577 0
M  V30 2385 N 224.671 0.411399 1.52136 0
M  V30 2386 C 225.618 -0.412975 2.27075 0
M  V30 2387 C 226.588 -1.03912 1.29582 0
M  V30 2388 O 227.773 -1.06296 1.58448 0
M  V30 2389 C 224.913 -1.52247 3.09701 0
M  V30 2390 C 224.026 -0.917021 4.22155 0
M  V30 2391 C 223.161 -1.9994 4.92135 0
M  V30 2392 C 222.2 -1.37101 5.96548 0
M  V30 2393 N 221.337 -2.39364 6.60038 0
M  V30 2394 H 226.177 0.232499 2.97092 0
M  V30 2395 H 223.714 0.126496 1.46555 0
M  V30 2396 H 225.672 -2.17674 3.55913 0
M  V30 2397 H 224.302 -2.13794 2.41851 0
M  V30 2398 H 223.354 -0.151742 3.80097 0
M  V30 2399 H 224.666 -0.418006 4.97045 0
M  V30 2400 H 223.82 -2.73088 5.41763 0
M  V30 2401 H 222.559 -2.53208 4.16818 0
M  V30 2402 H 221.564 -0.624873 5.46237 0
M  V30 2403 H 222.789 -0.845998 6.7381 0
M  V30 2404 H 220.735 -2.91759 5.87548 0
M  V30 2405 H 220.652 -1.9428 7.3061 0
M  V30 2406 H 221.92 -3.12074 7.14304 0
M  V30 2407 N 226.149 -1.5696 0.141893 0
M  V30 2408 C 227.082 -2.12271 -0.837627 0
M  V30 2409 C 228.06 -1.04495 -1.24578 0
M  V30 2410 O 229.244 -1.32293 -1.34278 0
M  V30 2411 C 226.371 -2.63822 -2.12404 0
M  V30 2412 C 225.417 -3.83698 -1.86221 0
M  V30 2413 S 226.25 -5.24948 -1.05781 0
M  V30 2414 C 227.406 -5.79884 -2.35552 0
M  V30 2415 H 227.639 -2.95023 -0.367249 0
M  V30 2416 H 225.172 -1.54231 -0.0723014 0
M  V30 2417 H 227.13 -2.94175 -2.86307 0
M  V30 2418 H 225.791 -1.8121 -2.56557 0
M  V30 2419 H 224.984 -4.17995 -2.81596 0
M  V30 2420 H 224.586 -3.5408 -1.20429 0
M  V30 2421 H 226.878 -5.91005 -3.31239 0
M  V30 2422 H 227.821 -6.77544 -2.05767 0
M  V30 2423 H 228.229 -5.08095 -2.45967 0
M  V30 2424 N 227.627 0.131896 -1.57047 0
M  V30 2425 C 228.56 1.19236 -1.94571 0
M  V30 2426 C 229.538 1.40782 -0.813576 0
M  V30 2427 O 230.722 1.55148 -1.07058 0
M  V30 2428 C 227.849 2.54858 -2.23081 0
M  V30 2429 C 226.895 2.49817 -3.45679 0
M  V30 2430 S 227.728 1.95036 -4.98719 0
M  V30 2431 C 228.884 3.32357 -5.30367 0
M  V30 2432 H 229.117 0.872297 -2.84215 0
M  V30 2433 H 226.65 0.338134 -1.50652 0
M  V30 2434 H 228.608 3.32898 -2.40185 0
M  V30 2435 H 227.269 2.84047 -1.34074 0
M  V30 2436 H 226.462 3.49688 -3.62952 0
M  V30 2437 H 226.064 1.79892 -3.27895 0
M  V30 2438 H 228.356 4.28525 -5.2476 0
M  V30 2439 H 229.299 3.19923 -6.31708 0
M  V30 2440 H 229.707 3.3019 -4.57859 0
M  V30 2441 N 229.106 1.52395 0.401703 0
M  V30 2442 C 230.036 1.79231 1.49661 0
M  V30 2443 C 231.017 0.643654 1.57452 0
M  V30 2444 O 232.202 0.889989 1.72606 0
M  V30 2445 C 229.332 1.94971 2.87409 0
M  V30 2446 C 228.286 3.10604 2.94465 0
M  V30 2447 C 227.612 3.11577 4.34538 0
M  V30 2448 C 228.912 4.49921 2.6527 0
M  V30 2449 H 230.606 2.70917 1.27454 0
M  V30 2450 H 228.152 1.30362 0.6117 0
M  V30 2451 H 230.105 2.12328 3.63999 0
M  V30 2452 H 228.829 0.999632 3.10926 0
M  V30 2453 H 227.488 2.93009 2.20321 0
M  V30 2454 H 227.136 2.14277 4.55076 0
M  V30 2455 H 226.836 3.89247 4.40183 0
M  V30 2456 H 228.36 3.31073 5.13053 0
M  V30 2457 H 229.774 4.67683 3.31581 0
M  V30 2458 H 228.171 5.29564 2.82281 0
M  V30 2459 H 229.241 4.57507 1.60671 0
M  V30 2460 N 230.584 -0.659388 1.43143 0
M  V30 2461 C 231.809 -1.45221 1.48073 0
M  V30 2462 C 232.234 -1.87845 0.097995 0
M  V30 2463 O 231.592 -1.56985 -0.90694 0
M  V30 2464 C 231.64 -2.66748 2.42647 0
M  V30 2465 O 230.744 -3.65583 1.90848 0
M  V30 2466 H 230.085 -0.435669 0.501088 0
M  V30 2467 H 232.615 -0.807432 1.87994 0
M  V30 2468 H 232.625 -3.14637 2.59745 0
M  V30 2469 H 231.3 -2.35067 3.43098 0
M  V30 2470 H 229.877 -3.24693 1.83381 0
M  V30 2471 N 232.062 -1.29571 -0.897171 0
M  V30 2472 C 233.31 -1.17456 -1.64464 0
M  V30 2473 C 233.631 0.273698 -1.9307 0
M  V30 2474 O 232.901 1.18684 -1.55855 0
M  V30 2475 H 231.481 -0.431706 -0.609622 0
M  V30 2476 H 234.143 -1.62531 -1.07562 0
M  V30 2477 H 233.239 -1.72648 -2.59998 0
M  V30 2478 N 233.54 1.10788 -1.12088 0
M  V30 2479 C 234.786 1.82942 -0.875226 0
M  V30 2480 C 235.119 1.84779 0.597538 0
M  V30 2481 O 234.394 1.30578 1.44152 0
M  V30 2482 C 234.677 3.29789 -1.44606 0
M  V30 2483 C 234.53 3.36307 -2.98693 0
M  V30 2484 C 235.849 4.26064 -1.10261 0
M  V30 2485 H 232.968 0.664195 -0.319397 0
M  V30 2486 H 235.61 1.29867 -1.38689 0
M  V30 2487 H 233.76 3.75118 -1.01089 0
M  V30 2488 H 235.432 2.99487 -3.50864 0
M  V30 2489 H 233.675 2.76318 -3.34411 0
M  V30 2490 H 234.346 4.39694 -3.33726 0
M  V30 2491 H 236.822 3.88951 -1.4784 0
M  V30 2492 H 235.698 5.27183 -1.52869 0
M  V30 2493 H 235.959 4.42098 -0.0142953 0
M  V30 2494 N 235.018 0.912232 1.28515 0
M  V30 2495 C 236.258 0.551677 1.96814 0
M  V30 2496 C 236.622 -0.887825 1.7024 0
M  V30 2497 O 237.823 -1.35588 2.32098 0
M  V30 2498 C 236.094 0.850555 3.47132 0
M  V30 2499 S 237.653 0.59619 4.34731 0
M  V30 2500 H 234.471 0.204191 0.681049 0
M  V30 2501 H 237.073 1.17736 1.56072 0
M  V30 2502 H 235.777 1.8962 3.63968 0
M  V30 2503 H 235.308 0.213471 3.9282 0
M  V30 2504 H 237.323 -0.553154 4.93107 0
M  V30 2505 N 236.496 -1.42363 0.676048 0
M  V30 2506 C 237.426 -2.33497 0.0124832 0
M  V30 2507 C 238.407 -1.50748 -0.787981 0
M  V30 2508 O 239.592 -1.79346 -0.744884 0
M  V30 2509 C 236.722 -3.34377 -0.938582 0
M  V30 2510 C 235.676 -4.27289 -0.246622 0
M  V30 2511 C 235.002 -5.18386 -1.31071 0
M  V30 2512 C 236.302 -5.14916 0.875125 0
M  V30 2513 H 237.996 -2.89233 0.773593 0
M  V30 2514 H 235.542 -1.39073 0.37346 0
M  V30 2515 H 237.495 -3.97044 -1.41188 0
M  V30 2516 H 236.219 -2.76947 -1.73113 0
M  V30 2517 H 234.878 -3.66018 0.206456 0
M  V30 2518 H 234.526 -4.57282 -2.09528 0
M  V30 2519 H 234.226 -5.81378 -0.852839 0
M  V30 2520 H 235.75 -5.83929 -1.78492 0
M  V30 2521 H 237.164 -5.71262 0.482983 0
M  V30 2522 H 235.561 -5.86747 1.25887 0
M  V30 2523 H 236.631 -4.53242 1.72335 0
M  V30 2524 N 237.974 -0.419461 -1.51915 0
M  V30 2525 C 239.221 0.152939 -2.01922 0
M  V30 2526 C 239.549 1.4426 -1.30458 0
M  V30 2527 O 238.804 1.91514 -0.402593 0
M  V30 2528 C 239.103 0.437067 -3.54717 0
M  V30 2529 C 238.769 -0.764632 -4.44369 0
M  V30 2530 C 237.431 -1.09423 -4.68594 0
M  V30 2531 C 239.783 -1.56713 -4.97082 0
M  V30 2532 C 237.111 -2.22732 -5.42777 0
M  V30 2533 C 239.463 -2.69107 -5.72507 0
M  V30 2534 C 238.127 -3.02541 -5.95 0
M  V30 2535 H 237.397 0.0559644 -0.738884 0
M  V30 2536 H 240.044 -0.562998 -1.83037 0
M  V30 2537 H 238.349 1.23469 -3.71837 0
M  V30 2538 H 240.046 0.893083 -3.90928 0
M  V30 2539 H 236.636 -0.497775 -4.257 0
M  V30 2540 H 240.82 -1.32571 -4.78266 0
M  V30 2541 H 236.076 -2.48971 -5.58411 0
M  V30 2542 H 240.25 -3.31671 -6.12346 0
M  V30 2543 H 237.877 -3.90457 -6.52264 0
M  V30 2544 N 239.452 1.56882 -0.150215 0
M  V30 2545 C 240.415 2.1573 0.774157 0
M  V30 2546 C 241.415 1.0999 1.17298 0
M  V30 2547 O 242.605 1.35613 1.09338 0
M  V30 2548 C 239.737 2.72302 2.05096 0
M  V30 2549 H 240.93 2.98752 0.262201 0
M  V30 2550 H 238.483 1.55985 0.099248 0
M  V30 2551 H 239.218 1.92956 2.6065 0
M  V30 2552 H 239.003 3.49665 1.77416 0
M  V30 2553 H 240.493 3.17632 2.71109 0
M  V30 2554 N 240.93 -0.123565 1.57115 0
M  V30 2555 C 242.176 -0.833386 1.84885 0
M  V30 2556 C 242.509 -1.79742 0.735292 0
M  V30 2557 O 241.784 -1.92764 -0.25925 0
M  V30 2558 C 242.067 -1.5873 3.23228 0
M  V30 2559 C 241.92 -0.643183 4.45178 0
M  V30 2560 C 243.239 -2.54453 3.59085 0
M  V30 2561 H 240.358 -0.301518 0.6725 0
M  V30 2562 H 243 -0.097778 1.89748 0
M  V30 2563 H 241.15 -2.21438 3.19214 0
M  V30 2564 H 242.822 -0.0253015 4.61293 0
M  V30 2565 H 241.065 0.0456139 4.33776 0
M  V30 2566 H 241.736 -1.20724 5.38637 0
M  V30 2567 H 244.212 -2.01853 3.63861 0
M  V30 2568 H 243.088 -3.04238 4.5687 0
M  V30 2569 H 243.349 -3.36906 2.86264 0
M  V30 2570 N 242.408 -1.52605 -0.393616 0
M  V30 2571 C 243.655 -1.67424 -1.1391 0
M  V30 2572 C 243.983 -0.411859 -1.90089 0
M  V30 2573 O 243.238 0.605626 -1.86093 0
M  V30 2574 C 243.537 -2.85721 -2.14705 0
M  V30 2575 C 243.203 -4.23342 -1.55218 0
M  V30 2576 C 241.865 -4.60771 -1.3872 0
M  V30 2577 C 244.217 -5.09041 -1.11924 0
M  V30 2578 C 241.545 -5.81563 -0.774689 0
M  V30 2579 C 243.897 -6.30452 -0.520853 0
M  V30 2580 C 242.561 -6.66617 -0.343134 0
M  V30 2581 H 241.831 -0.612648 -0.416826 0
M  V30 2582 H 244.478 -1.8674 -0.424315 0
M  V30 2583 H 242.783 -2.60803 -2.92385 0
M  V30 2584 H 244.48 -2.94382 -2.72288 0
M  V30 2585 H 241.07 -3.93855 -1.69045 0
M  V30 2586 H 245.254 -4.80695 -1.23473 0
M  V30 2587 H 240.51 -6.08196 -0.625154 0
M  V30 2588 H 244.684 -6.96175 -0.177065 0
M  V30 2589 H 242.311 -7.60083 0.133571 0
M  V30 2590 N 243.887 0.651787 -1.4349 0
M  V30 2591 C 245.136 1.40754 -1.44469 0
M  V30 2592 C 245.449 1.95463 -0.0731845 0
M  V30 2593 O 246.655 2.71471 0.0395721 0
M  V30 2594 C 245.111 2.54735 -2.5424 0
M  V30 2595 C 244.719 2.06628 -3.97504 0
M  V30 2596 C 246.463 3.32092 -2.64414 0
M  V30 2597 C 244.37 3.17829 -4.98737 0
M  V30 2598 H 243.3 0.528862 -0.53742 0
M  V30 2599 H 245.951 0.703365 -1.69485 0
M  V30 2600 H 244.333 3.2763 -2.22428 0
M  V30 2601 H 245.507 1.40734 -4.38783 0
M  V30 2602 H 243.822 1.42146 -3.91387 0
M  V30 2603 H 246.419 4.14952 -3.37223 0
M  V30 2604 H 246.762 3.80217 -1.69532 0
M  V30 2605 H 247.295 2.66279 -2.95534 0
M  V30 2606 H 244.034 2.74671 -5.95177 0
M  V30 2607 H 243.554 3.82429 -4.62069 0
M  V30 2608 H 245.233 3.82937 -5.21505 0
M  V30 2609 N 245.365 1.30045 0.890287 0
M  V30 2610 C 246.328 1.15963 1.977 0
M  V30 2611 C 247.328 0.0923777 1.60534 0
M  V30 2612 O 248.518 0.340071 1.70848 0
M  V30 2613 C 245.65 0.775451 3.31963 0
M  V30 2614 H 246.843 2.12502 2.11619 0
M  V30 2615 H 244.396 1.13366 1.07601 0
M  V30 2616 H 245.131 -0.189671 3.23745 0
M  V30 2617 H 244.916 1.54668 3.60306 0
M  V30 2618 H 246.406 0.700251 4.11687 0
M  V30 2619 N 246.843 -1.10192 1.12674 0
M  V30 2620 C 247.773 -2.18652 0.819362 0
M  V30 2621 C 248.754 -1.68698 -0.217915 0
M  V30 2622 O 249.939 -1.94041 -0.0785581 0
M  V30 2623 C 247.069 -3.46202 0.27594 0
M  V30 2624 C 246.023 -4.09444 1.24656 0
M  V30 2625 C 245.349 -5.31725 0.563258 0
M  V30 2626 C 246.649 -4.52863 2.60217 0
M  V30 2627 H 248.343 -2.44622 1.72628 0
M  V30 2628 H 245.889 -1.17571 0.831451 0
M  V30 2629 H 247.842 -4.21372 0.0486149 0
M  V30 2630 H 246.566 -3.1973 -0.666331 0
M  V30 2631 H 245.225 -3.36284 1.45974 0
M  V30 2632 H 244.873 -5.0153 -0.384235 0
M  V30 2633 H 244.573 -5.74991 1.21075 0
M  V30 2634 H 246.097 -6.09624 0.34503 0
M  V30 2635 H 247.511 -5.19294 2.42913 0
M  V30 2636 H 245.908 -5.06986 3.21068 0
M  V30 2637 H 246.978 -3.65656 3.18471 0
M  V30 2638 N 248.321 -0.919034 -1.28029 0
M  V30 2639 C 249.251 -0.428581 -2.29533 0
M  V30 2640 C 250.232 0.50659 -1.62381 0
M  V30 2641 O 251.417 0.413195 -1.89753 0
M  V30 2642 C 248.547 0.327388 -3.45753 0
M  V30 2643 C 247.501 -0.519137 -4.2484 0
M  V30 2644 C 246.827 0.365486 -5.33449 0
M  V30 2645 C 248.127 -1.77914 -4.91064 0
M  V30 2646 H 249.821 -1.27687 -2.70807 0
M  V30 2647 H 247.367 -0.615428 -1.30186 0
M  V30 2648 H 249.32 0.681378 -4.15855 0
M  V30 2649 H 248.044 1.20963 -3.03374 0
M  V30 2650 H 246.703 -0.855717 -3.56473 0
M  V30 2651 H 246.351 1.24642 -4.87312 0
M  V30 2652 H 246.051 -0.197356 -5.87268 0
M  V30 2653 H 247.575 0.715241 -6.06396 0
M  V30 2654 H 248.989 -1.49374 -5.53498 0
M  V30 2655 H 247.386 -2.2848 -5.54903 0
M  V30 2656 H 248.456 -2.50382 -4.15255 0
M  V30 2657 N 249.799 1.42003 -0.683588 0
M  V30 2658 C 251.21 1.84501 -0.285736 0
M  V30 2659 C 251.561 1.57213 1.17382 0
M  V30 2660 O 250.686 1.03642 1.89966 0
M  V30 2661 C 251.281 3.34912 -0.511821 0
M  V30 2662 C 249.84 3.76025 -0.168005 0
M  V30 2663 C 248.987 2.6551 -0.799983 0
M  V30 2664 H 251.938 1.31724 -0.885119 0
M  V30 2665 H 251.959 3.79784 0.233292 0
M  V30 2666 H 251.471 3.54741 -1.57418 0
M  V30 2667 H 249.572 3.61801 0.890567 0
M  V30 2668 H 249.685 4.75141 -0.614661 0
M  V30 2669 H 248.049 2.53654 -0.230568 0
M  V30 2670 H 248.832 2.8816 -1.86597 0
M  V30 2671 N 251.277 0.427512 1.51691 0
M  V30 2672 C 252.526 -0.143679 2.01188 0
M  V30 2673 C 252.839 -1.44642 1.31674 0
M  V30 2674 O 254.045 -2.09997 1.72086 0
M  V30 2675 C 252.501 -0.306602 3.58592 0
M  V30 2676 C 252.109 0.985125 4.37035 0
M  V30 2677 C 253.853 -0.832091 4.16265 0
M  V30 2678 C 251.76 0.788382 5.86122 0
M  V30 2679 H 250.69 -0.0574701 0.751807 0
M  V30 2680 H 253.341 0.555772 1.74881 0
M  V30 2681 H 251.723 -1.06882 3.81303 0
M  V30 2682 H 252.897 1.75492 4.26074 0
M  V30 2683 H 251.212 1.4384 3.90767 0
M  V30 2684 H 253.809 -0.995617 5.25349 0
M  V30 2685 H 254.152 -1.81186 3.74803 0
M  V30 2686 H 254.685 -0.128444 3.97593 0
M  V30 2687 H 251.424 1.74025 6.31978 0
M  V30 2688 H 250.944 0.0582143 5.99772 0
M  V30 2689 H 252.623 0.437722 6.45518 0
M  V30 2690 N 252.755 -1.56801 0.158532 0
M  V30 2691 C 253.685 -2.20347 -0.772609 0
M  V30 2692 C 254.666 -1.15518 -1.24859 0
M  V30 2693 O 255.851 -1.43902 -1.30406 0
M  V30 2694 C 252.981 -2.83417 -2.00729 0
M  V30 2695 C 251.935 -3.94174 -1.66765 0
M  V30 2696 C 251.261 -4.44233 -2.97592 0
M  V30 2697 C 252.561 -5.14392 -0.905447 0
M  V30 2698 H 254.255 -2.98413 -0.242959 0
M  V30 2699 H 251.801 -1.43537 -0.115419 0
M  V30 2700 H 253.754 -3.26543 -2.6636 0
M  V30 2701 H 252.478 -2.02701 -2.56086 0
M  V30 2702 H 251.137 -3.51684 -1.03508 0
M  V30 2703 H 250.785 -3.60325 -3.50963 0
M  V30 2704 H 250.485 -5.18945 -2.75626 0
M  V30 2705 H 252.009 -4.90037 -3.64274 0
M  V30 2706 H 253.423 -5.5429 -1.46408 0
M  V30 2707 H 251.82 -5.9494 -0.7853 0
M  V30 2708 H 252.89 -4.84795 0.100668 0
M  V30 2709 N 254.233 0.115231 -1.57178 0
M  V30 2710 C 255.481 0.820727 -1.84685 0
M  V30 2711 C 255.802 1.80237 -0.744279 0
M  V30 2712 O 255.072 1.94529 0.231375 0
M  V30 2713 H 253.652 0.306084 -0.681411 0
M  V30 2714 H 256.314 0.101656 -1.94635 0
M  V30 2715 H 255.41 1.36366 -2.80733 0
M  V30 2716 N 255.711 1.52812 0.385517 0
M  V30 2717 C 256.661 1.74219 1.47078 0
M  V30 2718 C 257.645 0.59632 1.49442 0
M  V30 2719 O 258.837 0.85428 1.5502 0
M  V30 2720 C 255.966 1.9176 2.84751 0
M  V30 2721 C 255.052 3.12289 2.86943 0
M  V30 2722 N 255.443 4.34575 2.58802 0
M  V30 2723 C 253.741 3.12605 3.1811 0
M  V30 2724 C 254.442 5.162 2.68166 0
M  V30 2725 N 253.418 4.51964 3.02043 0
M  V30 2726 H 257.22 2.6639 1.24152 0
M  V30 2727 H 254.734 1.51166 0.593504 0
M  V30 2728 H 256.731 2.05218 3.62893 0
M  V30 2729 H 255.391 1.00805 3.08656 0
M  V30 2730 H 256.402 4.62649 2.32759 0
M  V30 2731 H 253.079 2.31472 3.47458 0
M  V30 2732 H 254.469 6.23689 2.49923 0
M  V30 2733 N 257.189 -0.644168 1.43834 0
M  V30 2734 C 258.605 -0.960875 1.27434 0
M  V30 2735 C 258.805 -2.00499 0.200618 0
M  V30 2736 O 257.861 -2.49018 -0.417906 0
M  V30 2737 C 259.174 -1.43653 2.64167 0
M  V30 2738 C 260.722 -1.55271 2.71772 0
M  V30 2739 C 261.197 -2.06224 4.08944 0
M  V30 2740 N 262.688 -2.13513 4.11055 0
M  V30 2741 C 263.423 -2.54081 5.14033 0
M  V30 2742 N 262.919 -2.9388 6.27381 0
M  V30 2743 N 264.712 -2.54101 5.01387 0
M  V30 2744 H 256.863 0.0465779 2.12349 0
M  V30 2745 H 259.126 -0.0417638 0.94708 0
M  V30 2746 H 258.832 -0.743706 3.43747 0
M  V30 2747 H 258.706 -2.40993 2.90176 0
M  V30 2748 H 261.093 -2.23653 1.92519 0
M  V30 2749 H 261.174 -0.563395 2.49519 0
M  V30 2750 H 260.818 -1.38441 4.88668 0
M  V30 2751 H 260.748 -3.06003 4.28567 0
M  V30 2752 H 263.239 -1.85493 3.29242 0
M  V30 2753 H 263.552 -3.2361 7.01781 0
M  V30 2754 H 261.897 -2.91663 6.30839 0
M  V30 2755 H 265.088 -2.22391 4.11898 0
M  V30 2756 H 265.261 -2.85394 5.81768 0
M  V30 2757 N 258.668 -1.30515 -0.883378 0
M  V30 2758 C 259.945 -1.10086 -1.6168 0
M  V30 2759 C 260.325 0.349269 -2.08191 0
M  V30 2760 O 259.673 1.34105 -1.85008 0
M  V30 2761 C 259.883 -2.10315 -2.78511 0
M  V30 2762 C 261.231 -2.42119 -3.48803 0
M  V30 2763 O 262.255 -2.08638 -2.88702 0
M  V30 2764 O 261.114 -2.99396 -4.57192 0
M  V30 2765 H 258.208 -0.422907 -0.710689 0
M  V30 2766 H 260.754 -1.41947 -0.930015 0
M  V30 2767 H 259.526 -3.07917 -2.41459 0
M  V30 2768 H 259.149 -1.79282 -3.54886 0
M  V30 2769 N 260.146 1.09593 -1.13257 0
M  V30 2770 C 261.376 1.85231 -0.915049 0
M  V30 2771 C 261.784 1.81345 0.539498 0
M  V30 2772 O 261.127 1.20664 1.38513 0
M  V30 2773 C 261.189 3.34275 -1.3229 0
M  V30 2774 C 260.853 3.6191 -2.79052 0
M  V30 2775 C 261.85 3.57777 -3.77216 0
M  V30 2776 C 259.535 3.90309 -3.16171 0
M  V30 2777 C 261.529 3.81652 -5.1051 0
M  V30 2778 C 259.216 4.13839 -4.49644 0
M  V30 2779 C 260.214 4.09502 -5.46623 0
M  V30 2780 O 259.902 4.32426 -6.77689 0
M  V30 2781 H 259.634 0.591997 -0.326367 0
M  V30 2782 H 262.188 1.394 -1.50854 0
M  V30 2783 H 260.418 3.80805 -0.672667 0
M  V30 2784 H 262.107 3.9132 -1.07812 0
M  V30 2785 H 262.873 3.35865 -3.49885 0
M  V30 2786 H 258.752 3.92811 -2.41289 0
M  V30 2787 H 262.296 3.78182 -5.86195 0
M  V30 2788 H 258.193 4.35232 -4.767 0
M  V30 2789 H 258.961 4.49896 -6.83766 0
M  V30 2790 N 261.624 0.925811 1.2754 0
M  V30 2791 C 262.571 0.422045 2.26908 0
M  V30 2792 C 263.541 -0.510029 1.58076 0
M  V30 2793 O 264.726 -0.429599 1.85901 0
M  V30 2794 C 261.866 -0.320837 3.43605 0
M  V30 2795 C 260.979 0.64513 4.27156 0
M  V30 2796 C 260.114 -0.117405 5.3107 0
M  V30 2797 C 259.153 0.841391 6.0629 0
M  V30 2798 N 258.29 0.111604 7.02011 0
M  V30 2799 H 263.13 1.27441 2.69375 0
M  V30 2800 H 260.667 0.639697 1.32462 0
M  V30 2801 H 262.625 -0.76785 4.10073 0
M  V30 2802 H 261.255 -1.13745 3.02096 0
M  V30 2803 H 260.307 1.21067 3.6062 0
M  V30 2804 H 261.619 1.37797 4.79389 0
M  V30 2805 H 260.773 -0.624422 6.03478 0
M  V30 2806 H 259.512 -0.883219 4.79636 0
M  V30 2807 H 258.517 1.35967 5.32722 0
M  V30 2808 H 259.742 1.60696 6.59813 0
M  V30 2809 H 257.688 -0.635999 6.5291 0
M  V30 2810 H 257.605 0.784044 7.51923 0
M  V30 2811 H 258.873 -0.374823 7.78598 0
M  V30 2812 N 263.102 -1.41638 0.69111 0
M  V30 2813 C 264.351 -2.00526 0.217318 0
M  V30 2814 C 264.664 -1.55353 -1.18848 0
M  V30 2815 O 265.87 -2.06769 -1.75951 0
M  V30 2816 C 264.326 -3.58313 0.337639 0
M  V30 2817 C 263.934 -4.12469 1.74852 0
M  V30 2818 C 265.678 -4.24431 -0.0766066 0
M  V30 2819 C 263.585 -5.62675 1.82074 0
M  V30 2820 H 262.515 -0.750008 0.0774893 0
M  V30 2821 H 265.166 -1.6217 0.858661 0
M  V30 2822 H 263.548 -3.9425 -0.371879 0
M  V30 2823 H 264.722 -3.8796 2.48644 0
M  V30 2824 H 263.037 -3.58861 2.11205 0
M  V30 2825 H 265.634 -5.34683 -0.0430284 0
M  V30 2826 H 265.977 -4.01101 -1.1146 0
M  V30 2827 H 266.51 -3.93512 0.582476 0
M  V30 2828 H 263.249 -5.90826 2.83911 0
M  V30 2829 H 262.769 -5.89124 1.12661 0
M  V30 2830 H 264.448 -6.27371 1.58159 0
M  V30 2831 N 264.58 -0.43555 -1.51462 0
M  V30 2832 C 265.512 0.41257 -2.25456 0
M  V30 2833 C 266.525 0.987822 -1.29406 0
M  V30 2834 O 267.714 0.882266 -1.55172 0
M  V30 2835 C 264.814 1.58894 -2.99342 0
M  V30 2836 C 263.987 1.13288 -4.22474 0
M  V30 2837 C 263.046 2.17917 -4.78956 0
M  V30 2838 O 262.072 1.77425 -5.40841 0
M  V30 2839 N 263.274 3.50382 -4.62832 0
M  V30 2840 H 266.039 -0.221603 -2.9888 0
M  V30 2841 H 263.6 -0.264342 -1.59727 0
M  V30 2842 H 265.592 2.28508 -3.34015 0
M  V30 2843 H 264.162 2.12849 -2.28941 0
M  V30 2844 H 263.382 0.263881 -3.93316 0
M  V30 2845 H 264.67 0.805542 -5.02383 0
M  V30 2846 H 264.068 3.86013 -4.13534 0
M  V30 2847 H 262.625 4.15895 -5.01871 0
M  V30 2848 N 266.058 1.56714 -0.166846 0
M  V30 2849 C 267.021 2.16539 0.751232 0
M  V30 2850 C 268.021 1.11228 1.16125 0
M  V30 2851 O 269.211 1.36765 1.07894 0
M  V30 2852 C 266.343 2.74462 2.02196 0
M  V30 2853 H 267.536 2.99013 0.230499 0
M  V30 2854 H 265.089 1.56081 0.0826982 0
M  V30 2855 H 265.824 1.95709 2.58589 0
M  V30 2856 H 265.609 3.51527 1.73698 0
M  V30 2857 H 267.099 3.20489 2.67725 0
M  V30 2858 N 267.536 -0.106894 1.57237 0
M  V30 2859 C 268.761 -0.830287 1.90055 0
M  V30 2860 C 269.186 -1.72064 0.75998 0
M  V30 2861 O 268.544 -1.78982 -0.288991 0
M  V30 2862 C 268.592 -1.6295 3.21683 0
M  V30 2863 O 267.696 -2.73748 3.08441 0
M  V30 2864 H 267.037 -0.228855 0.623315 0
M  V30 2865 H 269.567 -0.085658 2.04421 0
M  V30 2866 H 269.577 -2.01621 3.54701 0
M  V30 2867 H 268.252 -0.975989 4.04286 0
M  V30 2868 H 266.829 -2.38192 2.86913 0
M  V30 2869 N 269.014 -1.53014 -0.377408 0
M  V30 2870 C 270.43 -1.42523 -0.718281 0
M  V30 2871 C 270.63 -0.55487 -1.9371 0
M  V30 2872 O 269.686 -0.0327593 -2.52479 0
M  V30 2873 C 270.999 -2.85546 -0.942539 0
M  V30 2874 C 272.547 -2.95101 -1.04329 0
M  V30 2875 C 273.022 -4.3916 -1.3001 0
M  V30 2876 N 274.513 -4.42536 -1.36806 0
M  V30 2877 C 275.248 -5.51097 -1.58364 0
M  V30 2878 N 274.744 -6.69724 -1.77317 0
M  V30 2879 N 276.537 -5.38657 -1.60638 0
M  V30 2880 H 268.688 -2.08116 0.424426 0
M  V30 2881 H 270.951 -0.939352 0.127759 0
M  V30 2882 H 270.657 -3.51499 -0.118929 0
M  V30 2883 H 270.531 -3.28493 -1.85397 0
M  V30 2884 H 272.918 -2.29309 -1.85745 0
M  V30 2885 H 272.999 -2.55566 -0.109505 0
M  V30 2886 H 272.643 -5.05521 -0.490991 0
M  V30 2887 H 272.573 -4.76258 -2.24691 0
M  V30 2888 H 275.064 -3.57039 -1.23821 0
M  V30 2889 H 275.377 -7.48233 -1.93306 0
M  V30 2890 H 273.722 -6.72732 -1.74518 0
M  V30 2891 H 276.913 -4.44948 -1.45391 0
M  V30 2892 H 277.086 -6.2333 -1.77098 0
M  V30 2893 N 270.492 0.636531 -1.44174 0
M  V30 2894 C 271.72 1.42353 -1.50144 0
M  V30 2895 C 272.135 1.88389 -0.124575 0
M  V30 2896 O 271.492 1.6051 0.868489 0
M  V30 2897 C 271.543 2.64744 -2.46156 0
M  V30 2898 O 271.264 2.20629 -3.7849 0
M  V30 2899 C 272.765 3.57929 -2.61537 0
M  V30 2900 H 269.985 0.436752 -0.5094 0
M  V30 2901 H 272.529 0.778933 -1.89084 0
M  V30 2902 H 270.684 3.25307 -2.10366 0
M  V30 2903 H 271.098 2.99938 -4.30276 0
M  V30 2904 H 272.572 4.40428 -3.32757 0
M  V30 2905 H 273.049 4.06382 -1.66585 0
M  V30 2906 H 273.655 3.03238 -2.98206 0
M  V30 2907 N 271.97 1.30982 0.876444 0
M  V30 2908 C 273.216 1.21484 1.63136 0
M  V30 2909 C 273.571 -0.226339 1.91064 0
M  V30 2910 O 272.864 -1.15788 1.52656 0
M  V30 2911 C 273.058 1.98572 2.9716 0
M  V30 2912 C 272.887 3.50039 2.82317 0
M  V30 2913 C 271.657 4.19393 2.81847 0
M  V30 2914 C 273.855 4.45111 2.57644 0
M  V30 2915 N 271.837 5.57061 2.57985 0
M  V30 2916 C 273.208 5.70402 2.42986 0
M  V30 2917 C 275.263 4.3461 2.42937 0
M  V30 2918 C 273.966 6.8638 2.15115 0
M  V30 2919 C 275.992 5.50365 2.16454 0
M  V30 2920 C 275.354 6.74642 2.02578 0
M  V30 2921 H 271.453 0.499632 0.601575 0
M  V30 2922 H 274.037 1.65094 1.03209 0
M  V30 2923 H 272.208 1.5734 3.55104 0
M  V30 2924 H 273.94 1.81146 3.61895 0
M  V30 2925 H 270.695 3.71303 2.93991 0
M  V30 2926 H 271.119 6.29529 2.49043 0
M  V30 2927 H 275.761 3.39199 2.52396 0
M  V30 2928 H 273.479 7.81824 2.04394 0
M  V30 2929 H 277.065 5.44154 2.05884 0
M  V30 2930 H 275.945 7.62699 1.82374 0
M  V30 2931 N 273.449 -1.08991 1.13837 0
M  V30 2932 C 274.689 -1.82867 0.913183 0
M  V30 2933 C 275.053 -1.83936 -0.550604 0
M  V30 2934 O 276.254 -2.53515 -0.893515 0
M  V30 2935 C 274.525 -3.24843 1.49036 0
M  V30 2936 S 276.084 -4.15669 1.40588 0
M  V30 2937 H 272.902 -0.630278 0.329046 0
M  V30 2938 H 275.504 -1.31049 1.45073 0
M  V30 2939 H 274.208 -3.21644 2.54899 0
M  V30 2940 H 273.739 -3.81734 0.950947 0
M  V30 2941 H 275.754 -4.94686 0.387353 0
M  V30 2942 N 274.927 -0.932562 -1.27047 0
M  V30 2943 C 276.174 -0.575559 -1.94148 0
M  V30 2944 C 276.502 0.883984 -1.73251 0
M  V30 2945 O 275.757 1.64655 -1.0577 0
M  V30 2946 C 276.056 -0.853713 -3.47054 0
M  V30 2947 C 275.722 -2.29577 -3.88079 0
M  V30 2948 C 274.384 -2.68999 -3.9899 0
M  V30 2949 C 276.736 -3.23331 -4.08787 0
M  V30 2950 C 274.064 -4.01289 -4.28 0
M  V30 2951 C 276.416 -4.55207 -4.39282 0
M  V30 2952 C 275.08 -4.94457 -4.48407 0
M  V30 2953 H 274.35 -0.210612 -0.710439 0
M  V30 2954 H 276.997 -1.17744 -1.51025 0
M  V30 2955 H 275.302 -0.169204 -3.91434 0
M  V30 2956 H 276.999 -0.55639 -3.97121 0
M  V30 2957 H 273.589 -1.97994 -3.80127 0
M  V30 2958 H 277.773 -2.94074 -3.99793 0
M  V30 2959 H 273.029 -4.31374 -4.33275 0
M  V30 2960 H 277.203 -5.27852 -4.54252 0
M  V30 2961 H 274.83 -5.96994 -4.7064 0
M  V30 2962 N 276.405 1.4127 -0.698611 0
M  V30 2963 C 277.635 2.05205 -0.239644 0
M  V30 2964 C 278.043 1.52684 1.11733 0
M  V30 2965 O 277.386 0.671222 1.70998 0
M  V30 2966 C 277.448 3.59289 -0.123126 0
M  V30 2967 C 277.112 4.34619 -1.41263 0
M  V30 2968 C 278.109 4.63701 -2.35111 0
M  V30 2969 C 275.794 4.73837 -1.66684 0
M  V30 2970 C 277.788 5.30966 -3.52639 0
M  V30 2971 C 275.475 5.40837 -2.84498 0
M  V30 2972 C 276.473 5.69329 -3.77298 0
M  V30 2973 O 276.161 6.34949 -4.93047 0
M  V30 2974 H 275.893 0.66723 -0.108537 0
M  V30 2975 H 278.447 1.81974 -0.952602 0
M  V30 2976 H 276.677 3.81272 0.645628 0
M  V30 2977 H 278.366 4.04797 0.299056 0
M  V30 2978 H 279.132 4.33882 -2.16729 0
M  V30 2979 H 275.011 4.51039 -0.953135 0
M  V30 2980 H 278.555 5.53121 -4.25091 0
M  V30 2981 H 274.452 5.70075 -3.02795 0
M  V30 2982 H 275.22 6.53445 -4.92902 0
M  V30 2983 N 277.883 0.443576 1.51229 0
M  V30 2984 C 278.831 -0.37904 2.29491 0
M  V30 2985 C 279.825 -1.0153 1.35603 0
M  V30 2986 O 281.031 -0.94955 1.52917 0
M  V30 2987 H 277.406 -0.141053 0.738653 0
M  V30 2988 H 279.377 0.301799 2.9687 0
M  V30 2989 C 278.126 -1.46426 3.15364 0
M  V30 2990 H 277.449 -0.984037 3.87501 0
M  V30 2991 H 278.889 -2.01297 3.7317 0
M  V30 2992 C 277.348 -2.45099 2.31146 0
M  V30 2993 O 277.878 -3.49773 1.9754 0
M  V30 2994 N 276.084 -2.16139 1.94249 0
M  V30 2995 H 275.631 -1.31044 2.21777 0
M  V30 2996 H 275.589 -2.82398 1.38198 0
M  V30 2997 N 279.361 -1.56624 0.175154 0
M  V30 2998 C 280.589 -2.01374 -0.474971 0
M  V30 2999 C 281.004 -1.05537 -1.56548 0
M  V30 3000 O 280.361 -0.0568668 -1.82411 0
M  V30 3001 C 280.412 -3.45923 -1.04975 0
M  V30 3002 O 280.133 -4.381 -0.00276605 0
M  V30 3003 C 281.634 -4.06093 -1.77773 0
M  V30 3004 H 278.854 -0.659962 -0.121206 0
M  V30 3005 H 281.398 -2.02601 0.27801 0
M  V30 3006 H 279.553 -3.45458 -1.75321 0
M  V30 3007 H 279.967 -5.22753 -0.427681 0
M  V30 3008 H 281.441 -5.09147 -2.13245 0
M  V30 3009 H 281.918 -3.48405 -2.67414 0
M  V30 3010 H 282.524 -4.10272 -1.12059 0
M  V30 3011 N 280.839 0.0985539 -1.57292 0
M  V30 3012 C 281.749 1.13824 -2.05137 0
M  V30 3013 C 282.765 1.44076 -0.975604 0
M  V30 3014 O 283.941 1.54786 -1.28853 0
M  V30 3015 C 281.006 2.43969 -2.46333 0
M  V30 3016 C 280.067 2.2093 -3.68087 0
M  V30 3017 C 279.3 3.44869 -4.0731 0
M  V30 3018 O 279.523 4.52972 -3.46659 0
M  V30 3019 O 278.457 3.34661 -5.00285 0
M  V30 3020 H 282.283 0.761881 -2.93988 0
M  V30 3021 H 279.868 0.310818 -1.46131 0
M  V30 3022 H 281.75 3.20609 -2.73473 0
M  V30 3023 H 280.425 2.81038 -1.60621 0
M  V30 3024 H 279.332 1.42081 -3.46069 0
M  V30 3025 H 280.665 1.88755 -4.54568 0
M  V30 3026 N 282.317 1.53212 0.369288 0
M  V30 3027 C 283.594 1.59815 1.12776 0
M  V30 3028 C 283.974 0.403402 2.0721 0
M  V30 3029 O 283.322 -0.606667 2.20299 0
M  V30 3030 C 283.532 2.94664 1.87013 0
M  V30 3031 C 284.88 3.49109 2.41677 0
M  V30 3032 O 285.904 2.96669 1.97144 0
M  V30 3033 O 284.763 4.40775 3.23079 0
M  V30 3034 H 281.857 0.645376 0.517125 0
M  V30 3035 H 284.403 1.65553 0.37285 0
M  V30 3036 H 283.175 3.73061 1.18071 0
M  V30 3037 H 282.798 2.92401 2.69421 0
M  V30 3038 N 283.795 -0.628877 1.44509 0
M  V30 3039 C 285.044 -1.38437 1.4669 0
M  V30 3040 C 285.357 -1.95322 0.104272 0
M  V30 3041 O 286.563 -2.715 0.00362163 0
M  V30 3042 C 285.019 -2.50659 2.5826 0
M  V30 3043 C 284.627 -2.00277 4.0074 0
M  V30 3044 C 286.371 -3.27844 2.69664 0
M  V30 3045 C 284.278 -3.09854 5.0373 0
M  V30 3046 H 283.208 -0.520245 0.545766 0
M  V30 3047 H 285.859 -0.676313 1.70582 0
M  V30 3048 H 284.241 -3.2405 2.27612 0
M  V30 3049 H 285.415 -1.33736 4.40966 0
M  V30 3050 H 283.73 -1.35901 3.93599 0
M  V30 3051 H 286.327 -4.09534 3.43781 0
M  V30 3052 H 286.67 -3.77471 1.75559 0
M  V30 3053 H 287.203 -2.61543 2.99733 0
M  V30 3054 H 283.942 -2.65168 5.99472 0
M  V30 3055 H 283.462 -3.7503 4.68095 0
M  V30 3056 H 285.141 -3.74592 5.27532 0
M  V30 3057 N 285.273 -1.31445 -0.869486 0
M  V30 3058 C 286.22 -1.19135 -1.97675 0
M  V30 3059 C 287.19 -0.0770266 -1.65921 0
M  V30 3060 O 288.375 -0.249972 -1.89155 0
M  V30 3061 C 285.515 -0.905149 -3.33018 0
M  V30 3062 C 284.628 -2.10285 -3.77365 0
M  V30 3063 C 283.763 -1.75339 -5.01427 0
M  V30 3064 C 282.802 -2.91515 -5.38224 0
M  V30 3065 N 281.939 -2.56762 -6.53466 0
M  V30 3066 H 286.779 -2.13853 -2.07535 0
M  V30 3067 H 284.316 -1.06379 -1.01597 0
M  V30 3068 H 286.274 -0.719765 -4.10944 0
M  V30 3069 H 284.904 0.00519624 -3.228 0
M  V30 3070 H 283.956 -2.39899 -2.95216 0
M  V30 3071 H 285.268 -2.97237 -4.00564 0
M  V30 3072 H 284.422 -1.53266 -5.87022 0
M  V30 3073 H 283.161 -0.855801 -4.80133 0
M  V30 3074 H 282.166 -3.14237 -4.51149 0
M  V30 3075 H 283.391 -3.81985 -5.61484 0
M  V30 3076 H 281.337 -1.69526 -6.33717 0
M  V30 3077 H 281.254 -3.37243 -6.76612 0
M  V30 3078 H 282.522 -2.38083 -7.42251 0
M  V30 3079 N 286.751 1.08385 -1.14413 0
M  V30 3080 C 288.028 1.77429 -0.823297 0
M  V30 3081 C 288.408 1.9974 0.683163 0
M  V30 3082 O 287.756 1.60739 1.62405 0
M  V30 3083 C 287.966 3.09004 -1.62227 0
M  V30 3084 C 289.314 3.83532 -1.82177 0
M  V30 3085 O 290.338 3.18786 -1.58915 0
M  V30 3086 O 289.197 4.99792 -2.21067 0
M  V30 3087 H 286.291 0.769999 -0.301712 0
M  V30 3088 H 288.837 1.14846 -1.24934 0
M  V30 3089 H 287.609 2.88316 -2.64555 0
M  V30 3090 H 287.232 3.79316 -1.19187 0
M  V30 3091 N 288.23 0.939286 1.26551 0
M  V30 3092 C 289.476 0.596234 1.94465 0
M  V30 3093 C 289.831 -0.855013 1.72358 0
M  V30 3094 O 289.124 -1.6034 1.04889 0
M  V30 3095 C 289.318 0.872106 3.46596 0
M  V30 3096 C 289.147 2.34862 3.83497 0
M  V30 3097 C 287.917 3.00344 4.06352 0
M  V30 3098 C 290.115 3.32697 3.92195 0
M  V30 3099 N 288.097 4.38027 4.30123 0
M  V30 3100 C 289.468 4.55631 4.20476 0
M  V30 3101 C 291.523 3.27747 3.74815 0
M  V30 3102 C 290.226 5.74233 4.33185 0
M  V30 3103 C 292.252 4.45672 3.88755 0
M  V30 3104 C 291.614 5.67388 4.17433 0
M  V30 3105 H 287.713 0.268515 0.734455 0
M  V30 3106 H 290.297 1.2083 1.5267 0
M  V30 3107 H 288.468 0.289102 3.87323 0
M  V30 3108 H 290.2 0.490513 4.01716 0
M  V30 3109 H 286.955 2.50969 4.01636 0
M  V30 3110 H 287.379 5.09288 4.46044 0
M  V30 3111 H 292.021 2.34703 3.51673 0
M  V30 3112 H 289.739 6.67731 4.55149 0
M  V30 3113 H 293.325 4.43372 3.76713 0
M  V30 3114 H 292.205 6.57115 4.27983 0
M  V30 3115 N 289.708 -1.40897 0.706093 0
M  V30 3116 C 290.618 -2.3455 0.0482286 0
M  V30 3117 C 291.634 -1.56796 -0.754396 0
M  V30 3118 O 292.81 -1.89228 -0.689538 0
M  V30 3119 C 289.875 -3.35625 -0.869303 0
M  V30 3120 C 288.936 -4.29261 -0.0576994 0
M  V30 3121 C 288.169 -5.25508 -0.931531 0
M  V30 3122 O 288.392 -5.27472 -2.17092 0
M  V30 3123 O 287.326 -6.00727 -0.375587 0
M  V30 3124 H 291.152 -2.92407 0.820476 0
M  V30 3125 H 288.737 -1.4193 0.4665 0
M  V30 3126 H 290.619 -3.97635 -1.39514 0
M  V30 3127 H 289.294 -2.80196 -1.62086 0
M  V30 3128 H 288.201 -3.70566 0.512988 0
M  V30 3129 H 289.534 -4.87817 0.655426 0
M  V30 3130 N 291.186 -0.45159 -1.50991 0
M  V30 3131 C 292.463 0.170707 -1.94854 0
M  V30 3132 C 292.843 1.58788 -1.39103 0
M  V30 3133 O 292.191 2.20913 -0.583921 0
M  V30 3134 C 292.401 0.133929 -3.48743 0
M  V30 3135 C 293.749 0.33248 -4.23296 0
M  V30 3136 O 294.773 0.211403 -3.55572 0
M  V30 3137 O 293.632 0.57486 -5.43468 0
M  V30 3138 H 290.726 0.122264 -0.817912 0
M  V30 3139 H 293.272 -0.510594 -1.61836 0
M  V30 3140 H 292.044 -0.856283 -3.81816 0
M  V30 3141 H 291.667 0.857529 -3.88242 0
M  V30 3142 N 292.664 1.56529 -0.183458 0
M  V30 3143 C 294.08 1.58664 0.172554 0
M  V30 3144 C 294.28 1.19925 1.61926 0
M  V30 3145 O 293.336 0.916534 2.35278 0
M  V30 3146 C 294.649 3.00463 -0.119262 0
M  V30 3147 C 296.197 3.12945 -0.0584396 0
M  V30 3148 C 296.672 4.56857 -0.323408 0
M  V30 3149 N 298.163 4.62403 -0.271612 0
M  V30 3150 C 298.898 5.71626 -0.450639 0
M  V30 3151 N 298.394 6.89362 -0.689384 0
M  V30 3152 N 300.187 5.60775 -0.385701 0
M  V30 3153 H 292.338 1.79994 -1.12765 0
M  V30 3154 H 294.601 0.834808 -0.449222 0
M  V30 3155 H 294.307 3.33326 -1.12192 0
M  V30 3156 H 294.181 3.72659 0.583544 0
M  V30 3157 H 296.568 2.79902 0.934805 0
M  V30 3158 H 296.649 2.4316 -0.794144 0
M  V30 3159 H 296.293 4.9061 -1.31392 0
M  V30 3160 H 296.223 5.24816 0.43305 0
M  V30 3161 H 298.714 3.77785 -0.0932256 0
M  V30 3162 H 299.027 7.68489 -0.815113 0
M  V30 3163 H 297.372 6.91196 -0.726142 0
M  V30 3164 H 300.563 4.67674 -0.199687 0
M  V30 3165 H 300.736 6.4584 -0.528646 0
M  V30 3166 N 294.142 -0.090211 1.57342 0
M  V30 3167 C 295.389 -0.792807 1.86335 0
M  V30 3168 C 295.717 -1.78494 0.772662 0
M  V30 3169 O 294.972 -1.94305 -0.233258 0
M  V30 3170 C 295.271 -1.55222 3.21933 0
M  V30 3171 C 294.937 -0.701765 4.45406 0
M  V30 3172 C 293.599 -0.467334 4.78925 0
M  V30 3173 C 295.951 -0.11086 5.21082 0
M  V30 3174 C 293.279 0.367785 5.85546 0
M  V30 3175 C 295.631 0.711609 6.28585 0
M  V30 3176 C 294.295 0.956086 6.60617 0
M  V30 3177 H 293.565 -0.290109 0.681849 0
M  V30 3178 H 296.212 -0.0541332 1.91423 0
M  V30 3179 H 294.517 -2.3626 3.12551 0
M  V30 3180 H 296.214 -2.10032 3.41595 0
M  V30 3181 H 292.804 -0.894598 4.1916 0
M  V30 3182 H 296.988 -0.279129 4.95514 0
M  V30 3183 H 292.244 0.566128 6.08773 0
M  V30 3184 H 296.418 1.17632 6.86393 0
M  V30 3185 H 294.045 1.60499 7.43064 0
M  V30 3186 N 295.62 -1.53406 -0.361157 0
M  V30 3187 C 296.85 -1.73465 -1.1222 0
M  V30 3188 C 297.258 -0.465486 -1.83384 0
M  V30 3189 O 296.601 0.571611 -1.7458 0
M  V30 3190 C 296.663 -2.84834 -2.19339 0
M  V30 3191 C 296.327 -4.25038 -1.67903 0
M  V30 3192 C 297.324 -5.07231 -1.14074 0
M  V30 3193 C 295.009 -4.71464 -1.73282 0
M  V30 3194 C 297.003 -6.33942 -0.663068 0
M  V30 3195 C 294.69 -5.98153 -1.25127 0
M  V30 3196 C 295.688 -6.79223 -0.717296 0
M  V30 3197 O 295.376 -8.03533 -0.242865 0
M  V30 3198 H 295.108 -0.583526 -0.341283 0
M  V30 3199 H 297.662 -2.00964 -0.424591 0
M  V30 3200 H 295.892 -2.5282 -2.92607 0
M  V30 3201 H 297.581 -2.9303 -2.80871 0
M  V30 3202 H 298.347 -4.72534 -1.09254 0
M  V30 3203 H 294.226 -4.08432 -2.13786 0
M  V30 3204 H 297.77 -6.97167 -0.245612 0
M  V30 3205 H 293.667 -6.32347 -1.29642 0
M  V30 3206 H 294.435 -8.177 -0.361786 0
M  V30 3207 N 297.098 0.621204 -1.44841 0
M  V30 3208 C 298.028 1.74366 -1.55303 0
M  V30 3209 C 299.009 1.65199 -0.405385 0
M  V30 3210 O 300.194 1.83807 -0.626787 0
M  V30 3211 C 297.324 3.12931 -1.50637 0
M  V30 3212 C 296.278 3.36896 -2.63979 0
M  V30 3213 C 295.604 4.75594 -2.44366 0
M  V30 3214 C 296.904 3.28483 -4.06074 0
M  V30 3215 H 298.598 1.65867 -2.49256 0
M  V30 3216 H 296.144 0.796558 -1.19962 0
M  V30 3217 H 298.097 3.9124 -1.56555 0
M  V30 3218 H 296.821 3.22237 -0.532057 0
M  V30 3219 H 295.48 2.60972 -2.57467 0
M  V30 3220 H 295.128 4.81616 -1.45105 0
M  V30 3221 H 294.828 4.92586 -3.20364 0
M  V30 3222 H 296.352 5.5612 -2.52117 0
M  V30 3223 H 297.766 3.96684 -4.13902 0
M  V30 3224 H 296.163 3.57008 -4.82354 0
M  V30 3225 H 297.233 2.26133 -4.28943 0
M  V30 3226 N 298.576 1.31904 0.862503 0
M  V30 3227 C 299.506 1.22782 1.98612 0
M  V30 3228 C 300.487 0.113362 1.69722 0
M  V30 3229 O 301.672 0.299218 1.91881 0
M  V30 3230 C 298.802 0.942058 3.34279 0
M  V30 3231 C 297.756 2.0169 3.77499 0
M  V30 3232 C 297.082 1.58369 5.10709 0
M  V30 3233 C 298.382 3.43096 3.93805 0
M  V30 3234 H 300.076 2.16788 2.06502 0
M  V30 3235 H 297.622 1.04366 0.992154 0
M  V30 3236 H 299.575 0.864818 4.1243 0
M  V30 3237 H 298.299 -0.0336603 3.26583 0
M  V30 3238 H 296.958 2.08416 3.01593 0
M  V30 3239 H 296.606 0.595628 4.99461 0
M  V30 3240 H 296.306 2.30279 5.40597 0
M  V30 3241 H 297.83 1.52067 5.91361 0
M  V30 3242 H 299.244 3.39003 4.62331 0
M  V30 3243 H 297.641 4.13288 4.35101 0
M  V30 3244 H 298.711 3.83334 2.96957 0
M  V30 3245 N 300.054 -1.07777 1.14986 0
M  V30 3246 C 300.984 -2.16865 0.865557 0
M  V30 3247 C 301.965 -1.69123 -0.182083 0
M  V30 3248 O 303.15 -1.94164 -0.0373815 0
M  V30 3249 C 300.28 -3.45539 0.349313 0
M  V30 3250 C 299.234 -4.06708 1.33313 0
M  V30 3251 C 298.56 -5.30411 0.675918 0
M  V30 3252 C 299.86 -4.47241 2.69764 0
M  V30 3253 H 301.554 -2.40905 1.77778 0
M  V30 3254 H 299.1 -1.15781 0.856203 0
M  V30 3255 H 301.053 -4.21174 0.137983 0
M  V30 3256 H 299.777 -3.21072 -0.598362 0
M  V30 3257 H 298.436 -3.33112 1.53075 0
M  V30 3258 H 298.084 -5.02232 -0.277767 0
M  V30 3259 H 297.784 -5.72293 1.33244 0
M  V30 3260 H 299.308 -6.08755 0.474262 0
M  V30 3261 H 300.722 -5.14025 2.53873 0
M  V30 3262 H 299.119 -5.00062 3.3175 0
M  V30 3263 H 300.189 -3.58818 3.26156 0
M  V30 3264 N 301.532 -0.945985 -1.26051 0
M  V30 3265 C 302.779 -0.596118 -1.93527 0
M  V30 3266 C 303.107 0.865559 -1.74179 0
M  V30 3267 O 302.362 1.63524 -1.0751 0
M  V30 3268 C 302.661 -0.890475 -3.46129 0
M  V30 3269 C 302.327 -2.3368 -3.85622 0
M  V30 3270 C 300.989 -2.73216 -3.96114 0
M  V30 3271 C 303.341 -3.27648 -4.05334 0
M  V30 3272 C 300.669 -4.05806 -4.2372 0
M  V30 3273 C 303.021 -4.59841 -4.3443 0
M  V30 3274 C 301.685 -4.99185 -4.43137 0
M  V30 3275 H 300.955 -0.218135 -0.708165 0
M  V30 3276 H 303.602 -1.1934 -1.49768 0
M  V30 3277 H 301.907 -0.210711 -3.91233 0
M  V30 3278 H 303.604 -0.598478 -3.96509 0
M  V30 3279 H 300.194 -2.02015 -3.78005 0
M  V30 3280 H 304.378 -2.98298 -3.96651 0
M  V30 3281 H 299.634 -4.35945 -4.28675 0
M  V30 3282 H 303.808 -5.32641 -4.48628 0
M  V30 3283 H 301.435 -6.01952 -4.64282 0
M  V30 3284 N 303.011 1.40521 -0.713556 0
M  V30 3285 C 304.236 2.05759 -0.26035 0
M  V30 3286 C 304.661 1.53403 1.08854 0
M  V30 3287 O 304.019 0.668535 1.68524 0
M  V30 3288 C 304.067 3.59745 -0.248122 0
M  V30 3289 O 303.171 4.05123 0.77131 0
M  V30 3290 H 302.512 0.652564 -0.122703 0
M  V30 3291 H 305.042 1.79958 -0.973467 0
M  V30 3292 H 305.052 4.07911 -0.0851129 0
M  V30 3293 H 303.727 3.97218 -1.2325 0
M  V30 3294 H 302.304 3.68422 0.57619 0
M  V30 3295 N 304.489 0.459591 1.5075 0
M  V30 3296 C 305.736 -0.0993495 2.02256 0
M  V30 3297 C 306.064 -1.40751 1.34237 0
M  V30 3298 O 305.319 -1.90379 0.453228 0
M  V30 3299 C 305.618 -0.342866 3.55752 0
M  V30 3300 C 305.284 0.88218 4.42186 0
M  V30 3301 C 303.946 1.21808 4.65528 0
M  V30 3302 C 306.298 1.69837 4.92752 0
M  V30 3303 C 303.626 2.37045 5.36681 0
M  V30 3304 C 305.978 2.84192 5.65171 0
M  V30 3305 C 304.642 3.1821 5.8677 0
M  V30 3306 H 303.912 -0.0363545 0.740108 0
M  V30 3307 H 306.559 0.611329 1.8148 0
M  V30 3308 H 304.864 -1.13567 3.7498 0
M  V30 3309 H 306.561 -0.789121 3.93159 0
M  V30 3310 H 303.151 0.610467 4.2423 0
M  V30 3311 H 307.335 1.45205 4.74583 0
M  V30 3312 H 302.591 2.63689 5.51614 0
M  V30 3313 H 306.765 3.4779 6.03337 0
M  V30 3314 H 304.392 4.07613 6.41682 0
M  V30 3315 N 305.967 -1.56429 0.191757 0
M  V30 3316 C 306.897 -2.21937 -0.725696 0
M  V30 3317 C 307.878 -1.1814 -1.2238 0
M  V30 3318 O 309.063 -1.46636 -1.27325 0
M  V30 3319 C 306.193 -2.87611 -1.94672 0
M  V30 3320 C 305.147 -3.97623 -1.58366 0
M  V30 3321 C 304.473 -4.50446 -2.88102 0
M  V30 3322 C 305.773 -5.16197 -0.796133 0
M  V30 3323 H 307.467 -2.98861 -0.179606 0
M  V30 3324 H 305.013 -1.43749 -0.0849464 0
M  V30 3325 H 306.966 -3.3212 -2.59373 0
M  V30 3326 H 305.69 -2.08087 -2.51728 0
M  V30 3327 H 304.349 -3.53801 -0.960247 0
M  V30 3328 H 303.997 -3.67688 -3.43241 0
M  V30 3329 H 303.697 -5.24675 -2.64556 0
M  V30 3330 H 305.221 -4.97654 -3.53798 0
M  V30 3331 H 306.635 -5.57271 -1.34618 0
M  V30 3332 H 305.032 -5.96471 -0.658928 0
M  V30 3333 H 306.102 -4.84473 0.203478 0
M  V30 3334 N 307.445 0.0818655 -1.57387 0
M  V30 3335 C 308.693 0.781368 -1.86384 0
M  V30 3336 C 309.014 1.78618 -0.782342 0
M  V30 3337 O 308.284 1.94976 0.190061 0
M  V30 3338 H 306.864 0.291562 -0.687751 0
M  V30 3339 H 309.526 0.060348 -1.94807 0
M  V30 3340 H 308.622 1.3038 -2.83562 0
M  V30 3341 N 308.923 1.53595 0.353017 0
M  V30 3342 C 309.853 1.83902 1.43883 0
M  V30 3343 C 310.834 0.693421 1.55324 0
M  V30 3344 O 312.019 0.944452 1.69687 0
M  V30 3345 C 309.149 2.04016 2.8106 0
M  V30 3346 C 308.103 3.19814 2.84434 0
M  V30 3347 C 307.429 3.25244 4.24406 0
M  V30 3348 C 308.729 4.58133 2.50822 0
M  V30 3349 H 310.423 2.74835 1.1877 0
M  V30 3350 H 307.969 1.32242 0.569917 0
M  V30 3351 H 309.922 2.238 3.57059 0
M  V30 3352 H 308.646 1.09804 3.07588 0
M  V30 3353 H 307.305 2.9987 2.10887 0
M  V30 3354 H 306.953 2.28646 4.48029 0
M  V30 3355 H 306.653 4.03054 4.27576 0
M  V30 3356 H 308.177 3.47228 5.0226 0
M  V30 3357 H 309.591 4.77995 3.16534 0
M  V30 3358 H 307.988 5.38276 2.6529 0
M  V30 3359 H 309.058 4.62387 1.46034 0
M  V30 3360 N 310.401 -0.613514 1.45168 0
M  V30 3361 C 311.331 -1.7354 1.56225 0
M  V30 3362 C 312.312 -1.64981 0.41414 0
M  V30 3363 O 313.497 -1.83472 0.636526 0
M  V30 3364 C 310.627 -3.12128 1.52295 0
M  V30 3365 C 309.581 -3.35491 2.65762 0
M  V30 3366 C 308.907 -4.74291 2.46885 0
M  V30 3367 C 310.207 -3.26325 4.0781 0
M  V30 3368 H 311.901 -1.64543 2.50132 0
M  V30 3369 H 309.447 -0.790185 1.20383 0
M  V30 3370 H 311.4 -3.90404 1.58628 0
M  V30 3371 H 310.124 -3.2195 0.549139 0
M  V30 3372 H 308.783 -2.59603 2.58847 0
M  V30 3373 H 308.431 -4.80839 1.47657 0
M  V30 3374 H 308.131 -4.9088 3.22972 0
M  V30 3375 H 309.655 -5.54775 2.55063 0
M  V30 3376 H 311.069 -3.94483 4.16 0
M  V30 3377 H 309.466 -3.54445 4.8424 0
M  V30 3378 H 310.536 -2.23855 4.30136 0
M  V30 3379 N 311.879 -1.3236 -0.855495 0
M  V30 3380 C 312.842 -1.21164 -1.94556 0
M  V30 3381 C 313.842 -0.134908 -1.60233 0
M  V30 3382 O 315.032 -0.385249 -1.69887 0
M  V30 3383 C 312.164 -0.863192 -3.29791 0
M  V30 3384 H 313.357 -2.18038 -2.05911 0
M  V30 3385 H 310.91 -1.16179 -1.04557 0
M  V30 3386 H 311.645 0.103769 -3.24134 0
M  V30 3387 H 311.43 -1.64166 -3.56078 0
M  V30 3388 H 312.92 -0.809156 -4.09686 0
M  V30 3389 N 313.357 1.07166 -1.15556 0
M  V30 3390 C 314.287 2.16403 -0.877046 0
M  V30 3391 C 315.268 1.69217 0.173111 0
M  V30 3392 O 316.453 1.94181 0.027084 0
M  V30 3393 C 313.583 3.45349 -0.367632 0
M  V30 3394 C 312.537 4.05995 -1.35468 0
M  V30 3395 C 311.863 5.30045 -0.704038 0
M  V30 3396 C 313.163 4.45804 -2.72132 0
M  V30 3397 H 314.857 2.39959 -1.79053 0
M  V30 3398 H 312.403 1.15325 -0.862331 0
M  V30 3399 H 314.356 4.21095 -0.160317 0
M  V30 3400 H 313.08 3.21385 0.581326 0
M  V30 3401 H 311.739 3.32296 -1.54839 0
M  V30 3402 H 311.387 5.02373 0.251128 0
M  V30 3403 H 311.087 5.71579 -1.36277 0
M  V30 3404 H 312.611 6.08495 -0.50654 0
M  V30 3405 H 314.025 5.12671 -2.56595 0
M  V30 3406 H 312.422 4.98296 -3.34397 0
M  V30 3407 H 313.492 3.57083 -3.28054 0
M  V30 3408 N 314.835 0.952656 1.25548 0
M  V30 3409 C 316.083 0.605176 1.92826 0
M  V30 3410 C 316.404 -0.860261 1.74999 0
M  V30 3411 O 315.674 -1.6125 1.11244 0
M  V30 3412 H 314.254 0.220832 0.713612 0
M  V30 3413 H 316.916 1.21047 1.52754 0
M  V30 3414 H 316.012 0.832798 3.00784 0
M  V30 3415 N 316.313 -1.40141 0.720998 0
M  V30 3416 C 317.559 -2.01084 0.263231 0
M  V30 3417 C 317.892 -1.57052 -1.14229 0
M  V30 3418 O 317.167 -0.793027 -1.77599 0
M  V30 3419 C 317.45 -3.58401 0.349344 0
M  V30 3420 C 317.303 -4.12491 1.79363 0
M  V30 3421 C 318.622 -4.39231 -0.276351 0
M  V30 3422 H 315.741 -0.730572 0.0971228 0
M  V30 3423 H 318.383 -1.66543 0.914518 0
M  V30 3424 H 316.533 -3.87958 -0.205165 0
M  V30 3425 H 318.205 -3.93711 2.40394 0
M  V30 3426 H 316.448 -3.66576 2.31958 0
M  V30 3427 H 317.119 -5.21646 1.80524 0
M  V30 3428 H 319.595 -4.15637 0.196184 0
M  V30 3429 H 318.471 -5.48586 -0.185681 0
M  V30 3430 H 318.732 -4.20643 -1.36059 0
M  V30 3431 N 317.792 -0.46758 -1.50504 0
M  V30 3432 C 319.017 0.0886943 -2.0721 0
M  V30 3433 C 319.442 1.33057 -1.32956 0
M  V30 3434 O 318.8 1.77354 -0.376197 0
M  V30 3435 C 318.848 0.359202 -3.58806 0
M  V30 3436 O 317.952 1.44034 -3.8643 0
M  V30 3437 H 317.293 -0.0114349 -0.663902 0
M  V30 3438 H 319.823 -0.657613 -1.93744 0
M  V30 3439 H 319.833 0.600742 -4.03553 0
M  V30 3440 H 318.508 -0.548311 -4.1227 0
M  V30 3441 H 317.085 1.18638 -3.53524 0
M  V30 3442 N 319.27 1.56325 -0.20005 0
M  V30 3443 C 320.2 2.22318 0.713916 0
M  V30 3444 C 321.181 1.18788 1.21752 0
M  V30 3445 O 322.366 1.47309 1.26545 0
M  V30 3446 C 319.496 2.88639 1.93144 0
M  V30 3447 C 318.45 3.98457 1.56255 0
M  V30 3448 C 317.776 4.51967 2.85709 0
M  V30 3449 C 319.076 5.16612 0.768747 0
M  V30 3450 H 320.77 2.98952 0.163755 0
M  V30 3451 H 318.316 1.43792 0.0773219 0
M  V30 3452 H 320.269 3.33491 2.57608 0
M  V30 3453 H 318.993 2.09419 2.50621 0
M  V30 3454 H 317.652 3.54305 0.941471 0
M  V30 3455 H 317.3 3.69503 3.41287 0
M  V30 3456 H 317 5.26071 2.6177 0
M  V30 3457 H 318.524 4.99523 3.51154 0
M  V30 3458 H 319.938 5.57977 1.3166 0
M  V30 3459 H 318.335 5.96812 0.627286 0
M  V30 3460 H 319.405 4.84358 -0.229168 0
M  V30 3461 N 320.748 -0.0735177 1.57428 0
M  V30 3462 C 321.678 -1.0879 2.06608 0
M  V30 3463 C 322.659 -1.40473 0.959237 0
M  V30 3464 O 323.844 -1.5013 1.23185 0
M  V30 3465 C 320.974 -2.40183 2.50857 0
M  V30 3466 C 319.928 -2.22858 3.65402 0
M  V30 3467 C 319.254 -3.59619 3.957 0
M  V30 3468 C 320.554 -1.65123 4.95511 0
M  V30 3469 H 322.248 -0.678673 2.91607 0
M  V30 3470 H 319.794 -0.325013 1.40284 0
M  V30 3471 H 321.747 -3.11437 2.83874 0
M  V30 3472 H 320.471 -2.83083 1.62885 0
M  V30 3473 H 319.13 -1.54045 3.32664 0
M  V30 3474 H 318.778 -4.00086 3.04861 0
M  V30 3475 H 318.478 -3.48866 4.72828 0
M  V30 3476 H 320.002 -4.32306 4.31212 0
M  V30 3477 H 321.416 -2.26241 5.26771 0
M  V30 3478 H 319.813 -1.65071 5.7695 0
M  V30 3479 H 320.883 -0.612559 4.81015 0
M  V30 3480 N 322.226 -1.5378 -0.344866 0
M  V30 3481 C 323.466 -1.72677 -1.09371 0
M  V30 3482 C 323.83 -0.479084 -1.85927 0
M  V30 3483 O 325.031 -0.54505 -2.63216 0
M  V30 3484 C 323.302 -2.95457 -2.01097 0
M  V30 3485 S 324.861 -3.35158 -2.83222 0
M  V30 3486 H 321.679 -0.607402 -0.369573 0
M  V30 3487 H 324.281 -1.91922 -0.372307 0
M  V30 3488 H 322.985 -3.84437 -1.43655 0
M  V30 3489 H 322.516 -2.78673 -2.77678 0
M  V30 3490 H 324.531 -2.88789 -4.03504 0
M  V30 3491 N 323.704 0.605807 -1.45491 0
M  V30 3492 C 324.652 1.73754 -1.54636 0
M  V30 3493 C 325.646 1.64207 -0.416219 0
M  V30 3494 O 326.852 1.69979 -0.592199 0
M  V30 3495 H 323.227 0.574073 -0.485741 0
M  V30 3496 H 325.198 1.63169 -2.49837 0
M  V30 3497 C 323.947 3.12135 -1.53189 0
M  V30 3498 H 323.27 3.20141 -2.39478 0
M  V30 3499 H 324.71 3.91147 -1.63645 0
M  V30 3500 C 323.169 3.35921 -0.256616 0
M  V30 3501 O 323.699 3.96194 0.662798 0
M  V30 3502 N 321.905 2.90204 -0.151751 0
M  V30 3503 H 321.452 2.41336 -0.90081 0
M  V30 3504 H 321.41 3.06492 0.700699 0
M  V30 3505 N 325.182 1.32811 0.848464 0
M  V30 3506 C 326.145 1.22194 1.9391 0
M  V30 3507 C 327.145 0.143404 1.60159 0
M  V30 3508 O 328.335 0.394253 1.6968 0
M  V30 3509 C 325.467 0.88067 3.29328 0
M  V30 3510 H 326.66 2.19127 2.04752 0
M  V30 3511 H 324.213 1.16731 1.0394 0
M  V30 3512 H 324.948 -0.0865776 3.24184 0
M  V30 3513 H 324.733 1.66052 3.55203 0
M  V30 3514 H 326.223 0.830871 4.09251 0
M  V30 3515 N 326.66 -1.06551 1.16123 0
M  V30 3516 C 327.909 -1.78687 0.935622 0
M  V30 3517 C 328.222 -1.88056 -0.538001 0
M  V30 3518 O 329.428 -2.56794 -0.88143 0
M  V30 3519 C 327.884 -3.21143 1.62466 0
M  V30 3520 C 327.492 -3.19949 3.13587 0
M  V30 3521 C 329.236 -3.9783 1.48092 0
M  V30 3522 C 327.143 -4.57108 3.75241 0
M  V30 3523 H 326.073 -0.669712 0.346412 0
M  V30 3524 H 328.724 -1.19534 1.39226 0
M  V30 3525 H 327.106 -3.80539 1.09572 0
M  V30 3526 H 328.28 -2.70151 3.73303 0
M  V30 3527 H 326.595 -2.5676 3.27816 0
M  V30 3528 H 329.192 -4.99217 1.91538 0
M  V30 3529 H 329.535 -4.14078 0.429507 0
M  V30 3530 H 330.068 -3.4495 1.98127 0
M  V30 3531 H 326.807 -4.46065 4.80319 0
M  V30 3532 H 326.327 -5.07111 3.20309 0
M  V30 3533 H 328.006 -5.26069 3.76644 0
M  V30 3534 N 328.138 -0.959301 -1.25041 0
M  V30 3535 C 329.366 -0.633949 -1.96948 0
M  V30 3536 C 329.781 0.794916 -1.7125 0
M  V30 3537 O 329.138 1.53231 -0.991287 0
M  V30 3538 C 329.189 -0.888805 -3.50403 0
M  V30 3539 O 328.91 -2.26149 -3.75218 0
M  V30 3540 C 330.411 -0.576482 -4.39536 0
M  V30 3541 H 327.631 -0.237263 -0.627652 0
M  V30 3542 H 330.175 -1.28495 -1.59089 0
M  V30 3543 H 328.33 -0.284145 -3.86357 0
M  V30 3544 H 328.744 -2.33514 -4.6965 0
M  V30 3545 H 330.218 -0.805314 -5.46094 0
M  V30 3546 H 330.695 0.489075 -4.36468 0
M  V30 3547 H 331.301 -1.16067 -4.09156 0
M  V30 3548 N 329.616 1.39756 -0.72842 0
M  V30 3549 C 330.864 2.00248 -0.272946 0
M  V30 3550 C 331.185 1.58077 1.14178 0
M  V30 3551 O 330.455 0.826014 1.77634 0
M  V30 3552 H 329.035 0.740554 -0.0979247 0
M  V30 3553 H 331.697 1.70903 -0.936912 0
M  V30 3554 H 330.793 3.10495 -0.316142 0
M  V30 3555 N 331.094 0.475555 1.50254 0
M  V30 3556 C 332.343 -0.0795996 2.01543 0
M  V30 3557 C 332.656 -1.4038 1.36209 0
M  V30 3558 O 333.862 -2.04415 1.7868 0
M  V30 3559 C 332.318 -0.192363 3.59386 0
M  V30 3560 C 331.926 1.12367 4.33679 0
M  V30 3561 C 333.67 -0.699238 4.18701 0
M  V30 3562 C 331.577 0.974453 5.83317 0
M  V30 3563 H 330.507 -0.0335228 0.753254 0
M  V30 3564 H 333.158 0.611128 1.73025 0
M  V30 3565 H 331.54 -0.946974 3.84511 0
M  V30 3566 H 332.714 1.88958 4.20276 0
M  V30 3567 H 331.029 1.562 3.85993 0
M  V30 3568 H 333.626 -0.827978 5.28251 0
M  V30 3569 H 333.969 -1.69171 3.80377 0
M  V30 3570 H 334.502 -0.00188807 3.978 0
M  V30 3571 H 331.241 1.94042 6.26121 0
M  V30 3572 H 330.761 0.248998 5.99283 0
M  V30 3573 H 332.44 0.642867 6.43798 0
M  V30 3574 N 332.573 -1.56217 0.208337 0
M  V30 3575 C 333.801 -2.02337 -0.43215 0
M  V30 3576 C 334.216 -1.08834 -1.54275 0
M  V30 3577 O 333.573 -0.0955462 -1.8225 0
M  V30 3578 C 333.624 -3.48072 -0.976138 0
M  V30 3579 O 333.345 -4.38007 0.0901621 0
M  V30 3580 C 334.846 -4.09773 -1.69119 0
M  V30 3581 H 332.066 -0.662385 -0.10718 0
M  V30 3582 H 334.61 -2.01966 0.320923 0
M  V30 3583 H 332.765 -3.49099 -1.67954 0
M  V30 3584 H 333.179 -5.23543 -0.316701 0
M  V30 3585 H 334.653 -5.13556 -2.02397 0
M  V30 3586 H 335.13 -3.53999 -2.59964 0
M  V30 3587 H 335.736 -4.12556 -1.03332 0
M  V30 3588 N 334.051 0.0651679 -1.57465 0
M  V30 3589 C 334.981 1.07693 -2.07182 0
M  V30 3590 C 335.962 1.39962 -0.966673 0
M  V30 3591 O 337.147 1.49475 -1.2398 0
M  V30 3592 C 334.277 2.3885 -2.52127 0
M  V30 3593 C 333.231 2.20917 -3.66579 0
M  V30 3594 C 332.557 3.57515 -3.97601 0
M  V30 3595 C 333.857 1.62493 -4.9638 0
M  V30 3596 H 335.551 0.663199 -2.91962 0
M  V30 3597 H 333.097 0.317569 -1.40455 0
M  V30 3598 H 335.05 3.09928 -2.85522 0
M  V30 3599 H 333.774 2.82215 -1.64384 0
M  V30 3600 H 332.433 1.52279 -3.33477 0
M  V30 3601 H 332.081 3.98463 -3.06979 0
M  V30 3602 H 331.781 3.46353 -4.74672 0
M  V30 3603 H 333.305 4.30013 -4.33499 0
M  V30 3604 H 334.719 2.23445 -5.27963 0
M  V30 3605 H 333.116 1.62009 -5.77818 0
M  V30 3606 H 334.186 0.587041 -4.81333 0
M  V30 3607 N 335.529 1.53961 0.336706 0
M  V30 3608 C 336.459 1.85417 1.41925 0
M  V30 3609 C 337.44 0.709856 1.5458 0
M  V30 3610 O 338.625 0.962396 1.68676 0
M  V30 3611 C 335.755 2.06985 2.78881 0
M  V30 3612 C 334.709 3.22813 2.81026 0
M  V30 3613 C 334.035 3.29727 4.20932 0
M  V30 3614 C 335.335 4.60767 2.45949 0
M  V30 3615 H 337.029 2.76079 1.15848 0
M  V30 3616 H 334.575 1.32839 0.555859 0
M  V30 3617 H 336.528 2.27575 3.54665 0
M  V30 3618 H 335.252 1.13061 3.06406 0
M  V30 3619 H 333.911 3.0209 2.07695 0
M  V30 3620 H 333.559 2.33385 4.45579 0
M  V30 3621 H 333.259 4.07566 4.23277 0
M  V30 3622 H 334.783 3.52536 4.98549 0
M  V30 3623 H 336.197 4.81325 3.11446 0
M  V30 3624 H 334.594 5.4106 2.59566 0
M  V30 3625 H 335.664 4.6391 1.41122 0
M  V30 3626 N 337.007 -0.598083 1.45811 0
M  V30 3627 C 338.423 -0.919847 1.30426 0
M  V30 3628 C 338.623 -1.99759 0.264303 0
M  V30 3629 O 337.679 -2.50221 -0.338472 0
M  V30 3630 C 338.992 -1.35176 2.68603 0
M  V30 3631 C 340.54 -1.46546 2.76574 0
M  V30 3632 C 341.015 -1.9311 4.15298 0
M  V30 3633 N 342.506 -2.00328 4.1764 0
M  V30 3634 C 343.241 -2.37599 5.21856 0
M  V30 3635 N 342.737 -2.73771 6.36413 0
M  V30 3636 N 344.53 -2.38021 5.09218 0
M  V30 3637 H 336.681 0.114111 2.12093 0
M  V30 3638 H 338.944 -0.0116121 0.947929 0
M  V30 3639 H 338.65 -0.633969 3.45939 0
M  V30 3640 H 338.524 -2.3164 2.97696 0
M  V30 3641 H 340.911 -2.17415 1.99537 0
M  V30 3642 H 340.992 -0.483727 2.51185 0
M  V30 3643 H 340.636 -1.22824 4.92825 0
M  V30 3644 H 340.566 -2.92213 4.38086 0
M  V30 3645 H 343.057 -1.74925 3.34977 0
M  V30 3646 H 343.37 -3.0112 7.11721 0
M  V30 3647 H 341.715 -2.71445 6.39799 0
M  V30 3648 H 344.906 -2.09174 4.18765 0
M  V30 3649 H 345.079 -2.66741 5.90554 0
M  V30 3650 N 338.485 -1.33259 -0.841409 0
M  V30 3651 C 339.731 -1.24757 -1.59886 0
M  V30 3652 C 340.064 0.186913 -1.93298 0
M  V30 3653 O 339.339 1.12757 -1.5848 0
M  V30 3654 C 339.622 -2.12036 -2.91055 0
M  V30 3655 C 339.475 -3.63929 -2.6434 0
M  V30 3656 C 340.794 -1.9916 -3.92458 0
M  V30 3657 H 337.913 -0.454542 -0.580138 0
M  V30 3658 H 340.555 -1.63335 -0.970647 0
M  V30 3659 H 338.705 -1.79265 -3.44669 0
M  V30 3660 H 340.377 -4.06978 -2.17178 0
M  V30 3661 H 338.62 -3.85935 -1.98082 0
M  V30 3662 H 339.291 -4.20341 -3.57796 0
M  V30 3663 H 341.767 -2.27895 -3.48143 0
M  V30 3664 H 340.643 -2.62484 -4.82072 0
M  V30 3665 H 340.904 -0.963082 -4.31482 0
M  V30 3666 N 339.963 1.05934 -1.16686 0
M  V30 3667 C 340.91 2.13499 -0.876748 0
M  V30 3668 C 341.88 1.65162 0.176299 0
M  V30 3669 O 343.065 1.90757 0.0407143 0
M  V30 3670 C 340.205 3.42912 -0.387967 0
M  V30 3671 C 339.318 4.04964 -1.50426 0
M  V30 3672 C 338.453 5.22266 -0.970125 0
M  V30 3673 C 337.492 5.76309 -2.06238 0
M  V30 3674 N 336.629 6.84922 -1.54356 0
M  V30 3675 H 341.469 2.37654 -1.7979 0
M  V30 3676 H 339.006 1.16598 -0.896843 0
M  V30 3677 H 340.964 4.17111 -0.086186 0
M  V30 3678 H 339.594 3.18963 0.496235 0
M  V30 3679 H 338.646 3.28277 -1.92193 0
M  V30 3680 H 339.958 4.41122 -2.32836 0
M  V30 3681 H 339.112 6.03506 -0.621743 0
M  V30 3682 H 337.851 4.87564 -0.115377 0
M  V30 3683 H 336.856 4.93704 -2.41942 0
M  V30 3684 H 338.081 6.13062 -2.92115 0
M  V30 3685 H 336.027 6.52131 -0.711406 0
M  V30 3686 H 335.944 7.20043 -2.30379 0
M  V30 3687 H 337.212 7.69832 -1.22387 0
M  V30 3688 N 341.441 0.965919 1.2453 0
M  V30 3689 C 342.688 0.626831 1.92554 0
M  V30 3690 C 343.016 -0.837739 1.75534 0
M  V30 3691 O 342.271 -1.61793 1.10098 0
M  V30 3692 C 342.57 0.945428 3.44669 0
M  V30 3693 C 342.236 2.39785 3.81856 0
M  V30 3694 C 340.898 2.79483 3.91718 0
M  V30 3695 C 343.25 3.34055 4.00071 0
M  V30 3696 C 340.578 4.12496 4.1721 0
M  V30 3697 C 342.93 4.66694 4.27059 0
M  V30 3698 C 341.594 5.06172 4.3514 0
M  V30 3699 H 340.864 0.229374 0.704605 0
M  V30 3700 H 343.511 1.21707 1.4785 0
M  V30 3701 H 341.816 0.272926 3.90848 0
M  V30 3702 H 343.513 0.661484 3.95507 0
M  V30 3703 H 340.103 2.08003 3.74743 0
M  V30 3704 H 344.287 3.04571 3.91855 0
M  V30 3705 H 339.543 4.42709 4.21685 0
M  V30 3706 H 343.717 5.3971 4.40097 0
M  V30 3707 H 341.344 6.09262 4.54646 0
M  V30 3708 N 342.919 -1.39368 0.735821 0
M  V30 3709 C 343.866 -2.30599 0.0963825 0
M  V30 3710 C 344.836 -1.49257 -0.728794 0
M  V30 3711 O 346.021 -1.77941 -0.688588 0
M  V30 3712 C 343.161 -3.35596 -0.804305 0
M  V30 3713 C 342.274 -4.31987 0.0335761 0
M  V30 3714 C 341.409 -5.24053 -0.868461 0
M  V30 3715 C 340.448 -6.12095 -0.0258776 0
M  V30 3716 N 339.585 -6.96514 -0.883893 0
M  V30 3717 H 344.425 -2.8471 0.880002 0
M  V30 3718 H 341.962 -1.40188 0.445619 0
M  V30 3719 H 343.92 -3.95062 -1.34096 0
M  V30 3720 H 342.55 -2.82938 -1.55389 0
M  V30 3721 H 341.602 -3.74133 0.68766 0
M  V30 3722 H 342.914 -4.94074 0.685036 0
M  V30 3723 H 342.068 -5.88549 -1.47293 0
M  V30 3724 H 340.807 -4.62289 -1.5537 0
M  V30 3725 H 339.812 -5.4661 0.591386 0
M  V30 3726 H 341.037 -6.75923 0.656156 0
M  V30 3727 H 338.983 -6.37318 -1.55441 0
M  V30 3728 H 338.9 -7.55448 -0.288931 0
M  V30 3729 H 340.168 -7.65439 -1.4739 0
M  V30 3730 N 344.397 -0.483516 -1.5 0
M  V30 3731 C 345.622 0.0667119 -2.07293 0
M  V30 3732 C 346.047 1.3164 -1.3436 0
M  V30 3733 O 345.405 1.76945 -0.394987 0
M  V30 3734 C 345.453 0.321126 -3.59167 0
M  V30 3735 O 344.557 1.39927 -3.87936 0
M  V30 3736 H 343.898 -0.0184758 -0.663743 0
M  V30 3737 H 346.428 -0.678125 -1.93035 0
M  V30 3738 H 346.438 0.557906 -4.04168 0
M  V30 3739 H 345.113 -0.592007 -4.11665 0
M  V30 3740 H 343.69 1.14882 -3.54763 0
M  V30 3741 N 345.875 1.56104 -0.216619 0
M  V30 3742 C 346.807 2.17339 0.72776 0
M  V30 3743 C 347.82 1.14109 1.16116 0
M  V30 3744 O 349.009 1.4111 1.09317 0
M  V30 3745 C 346.109 2.73818 1.99693 0
M  V30 3746 C 345.282 4.02168 1.71988 0
M  V30 3747 C 344.341 4.43259 2.83562 0
M  V30 3748 O 343.367 5.10257 2.52244 0
M  V30 3749 N 344.569 4.08535 4.12407 0
M  V30 3750 H 347.334 2.99005 0.203983 0
M  V30 3751 H 344.895 1.61861 -0.0354289 0
M  V30 3752 H 346.887 2.9828 2.73516 0
M  V30 3753 H 345.457 1.96483 2.43132 0
M  V30 3754 H 344.677 3.85612 0.818337 0
M  V30 3755 H 345.965 4.85907 1.50903 0
M  V30 3756 H 345.363 3.54687 4.40696 0
M  V30 3757 H 343.92 4.37901 4.8279 0
M  V30 3758 N 347.353 -0.0568162 1.57498 0
M  V30 3759 C 348.285 -1.09292 2.01464 0
M  V30 3760 C 349.298 -1.34112 0.922913 0
M  V30 3761 O 350.487 -1.32089 1.20062 0
M  V30 3762 C 347.587 -2.44068 2.35125 0
M  V30 3763 C 346.76 -2.38995 3.66333 0
M  V30 3764 C 345.819 -3.55997 3.87495 0
M  V30 3765 O 344.845 -3.36746 4.58901 0
M  V30 3766 N 346.047 -4.76888 3.30996 0
M  V30 3767 H 348.812 -0.718386 2.90963 0
M  V30 3768 H 346.373 -0.245235 1.60032 0
M  V30 3769 H 348.365 -3.21011 2.46443 0
M  V30 3770 H 346.935 -2.73468 1.5144 0
M  V30 3771 H 346.155 -1.47336 3.65631 0
M  V30 3772 H 347.443 -2.3272 4.52458 0
M  V30 3773 H 346.841 -4.95431 2.73065 0
M  V30 3774 H 345.398 -5.51291 3.47738 0
M  V30 3775 N 348.832 -1.54138 -0.328536 0
M  V30 3776 C 349.782 -1.79557 -1.4051 0
M  V30 3777 C 350.766 -0.651373 -1.47126 0
M  V30 3778 O 351.958 -0.911226 -1.51742 0
M  V30 3779 C 349.087 -2.02196 -2.77438 0
M  V30 3780 C 348.173 -3.22724 -2.75155 0
M  V30 3781 N 348.564 -4.43881 -2.42494 0
M  V30 3782 C 346.862 -3.24196 -3.06289 0
M  V30 3783 C 347.563 -5.25797 -2.48822 0
M  V30 3784 N 346.539 -4.62862 -2.8506 0
M  V30 3785 H 350.341 -2.70814 -1.1418 0
M  V30 3786 H 347.855 -1.53265 -0.536991 0
M  V30 3787 H 349.852 -2.18546 -3.55026 0
M  V30 3788 H 348.512 -1.12191 -3.04702 0
M  V30 3789 H 349.523 -4.70969 -2.15428 0
M  V30 3790 H 346.2 -2.44208 -3.38627 0
M  V30 3791 H 347.59 -6.32535 -2.26603 0
M  V30 3792 N 350.31 0.590341 -1.46126 0
M  V30 3793 C 351.726 0.912917 -1.30912 0
M  V30 3794 C 351.926 1.99616 -0.274893 0
M  V30 3795 O 350.982 2.50397 0.325197 0
M  V30 3796 C 352.295 1.3375 -2.69317 0
M  V30 3797 C 353.843 1.45077 -2.77348 0
M  V30 3798 C 354.318 1.90904 -4.16317 0
M  V30 3799 N 355.809 1.9811 -4.18696 0
M  V30 3800 C 356.544 2.34828 -5.23109 0
M  V30 3801 N 356.04 2.70393 -6.37856 0
M  V30 3802 N 357.833 2.35317 -5.10473 0
M  V30 3803 H 349.984 -0.125358 -2.1203 0
M  V30 3804 H 352.247 0.00658481 -0.947977 0
M  V30 3805 H 351.953 0.615614 -3.4627 0
M  V30 3806 H 351.827 2.30058 -2.9892 0
M  V30 3807 H 354.214 2.16353 -2.00687 0
M  V30 3808 H 354.295 0.4704 -2.51438 0
M  V30 3809 H 353.939 1.20209 -4.9347 0
M  V30 3810 H 353.869 2.89886 -4.39629 0
M  V30 3811 H 356.36 1.73146 -3.359 0
M  V30 3812 H 356.673 2.97341 -7.13308 0
M  V30 3813 H 355.018 2.68048 -6.41229 0
M  V30 3814 H 358.209 2.0695 -4.19868 0
M  V30 3815 H 358.382 2.63605 -5.9196 0
M  V30 3816 N 351.788 1.33704 0.83433 0
M  V30 3817 C 352.72 1.20172 1.9517 0
M  V30 3818 C 353.733 0.131572 1.62267 0
M  V30 3819 O 354.922 0.382406 1.74356 0
M  V30 3820 C 352.022 0.821716 3.28787 0
M  V30 3821 C 351.195 1.98446 3.89792 0
M  V30 3822 C 350.254 1.58469 5.01771 0
M  V30 3823 O 349.28 2.29968 5.20676 0
M  V30 3824 N 350.482 0.492291 5.78409 0
M  V30 3825 H 353.247 2.16429 2.07313 0
M  V30 3826 H 350.808 1.26509 1.0103 0
M  V30 3827 H 352.8 0.536291 4.01131 0
M  V30 3828 H 351.37 -0.0503058 3.1256 0
M  V30 3829 H 350.59 2.43526 3.09982 0
M  V30 3830 H 351.878 2.76236 4.27283 0
M  V30 3831 H 351.276 -0.102349 5.65607 0
M  V30 3832 H 349.833 0.266555 6.51255 0
M  V30 3833 N 353.266 -1.05314 1.17247 0
M  V30 3834 C 354.514 -1.77941 0.958194 0
M  V30 3835 C 354.835 -1.88089 -0.514556 0
M  V30 3836 O 354.105 -1.39676 -1.37359 0
M  V30 3837 H 352.685 -0.659116 0.351533 0
M  V30 3838 H 355.347 -1.27166 1.47699 0
M  V30 3839 H 354.443 -2.79663 1.38546 0
M  V30 3840 N 354.744 -0.972509 -1.24016 0
M  V30 3841 C 356.16 -0.679827 -1.44397 0
M  V30 3842 C 356.36 0.756716 -1.86751 0
M  V30 3843 O 355.416 1.53007 -2.00861 0
M  V30 3844 C 356.729 -1.66803 -2.50195 0
M  V30 3845 C 358.277 -1.68119 -2.64017 0
M  V30 3846 C 358.752 -2.65748 -3.73017 0
M  V30 3847 N 360.243 -2.64219 -3.8045 0
M  V30 3848 C 360.978 -3.36433 -4.64328 0
M  V30 3849 N 360.474 -4.1818 -5.52356 0
M  V30 3850 N 362.267 -3.25235 -4.58453 0
M  V30 3851 H 354.418 -1.90059 -0.948228 0
M  V30 3852 H 356.681 -0.818527 -0.478245 0
M  V30 3853 H 356.387 -2.69498 -2.25973 0
M  V30 3854 H 356.261 -1.4446 -3.48441 0
M  V30 3855 H 358.648 -0.661319 -2.87594 0
M  V30 3856 H 358.729 -1.94525 -1.66113 0
M  V30 3857 H 358.373 -3.67872 -3.50189 0
M  V30 3858 H 358.303 -2.36619 -4.70446 0
M  V30 3859 H 360.794 -2.04887 -3.17537 0
M  V30 3860 H 361.107 -4.70157 -6.13329 0
M  V30 3861 H 359.452 -4.22273 -5.52006 0
M  V30 3862 H 362.643 -2.60829 -3.88698 0
M  V30 3863 H 362.816 -3.81776 -5.23594 0
M  V30 3864 N 356.222 1.38976 -0.743202 0
M  V30 3865 C 357.447 2.05161 -0.303936 0
M  V30 3866 C 357.872 1.55677 1.05576 0
M  V30 3867 O 357.23 0.704131 1.67068 0
M  V30 3868 C 357.278 3.59138 -0.324373 0
M  V30 3869 O 356.382 4.06668 0.685204 0
M  V30 3870 H 355.723 0.649815 -0.136518 0
M  V30 3871 H 358.253 1.77852 -1.01142 0
M  V30 3872 H 358.263 4.07639 -0.171618 0
M  V30 3873 H 356.938 3.94515 -1.31647 0
M  V30 3874 H 355.515 3.69561 0.497913 0
M  V30 3875 N 357.7 0.491464 1.49741 0
M  V30 3876 C 358.65 -0.311086 2.25868 0
M  V30 3877 C 359.634 -0.943857 1.30308 0
M  V30 3878 O 360.826 -0.853035 1.55088 0
M  V30 3879 C 357.955 -1.38059 3.14316 0
M  V30 3880 C 357.041 -0.754541 4.17334 0
M  V30 3881 N 357.432 0.137216 5.05614 0
M  V30 3882 C 355.73 -1.01621 4.34269 0
M  V30 3883 C 356.431 0.494614 5.79593 0
M  V30 3884 N 355.407 -0.135169 5.43432 0
M  V30 3885 H 359.209 0.37555 2.91491 0
M  V30 3886 H 356.723 0.306917 1.59473 0
M  V30 3887 H 358.72 -1.96891 3.67477 0
M  V30 3888 H 357.38 -2.06901 2.50244 0
M  V30 3889 H 358.391 0.50741 5.15408 0
M  V30 3890 H 355.068 -1.69808 3.81407 0
M  V30 3891 H 356.458 1.2236 6.60665 0
M  V30 3892 N 359.178 -1.55987 0.224894 0
M  V30 3893 C 360.128 -2.17076 -0.697296 0
M  V30 3894 C 361.112 -1.12006 -1.15514 0
M  V30 3895 O 362.304 -1.37985 -1.10857 0
M  V30 3896 C 359.433 -2.85679 -1.90374 0
M  V30 3897 C 358.519 -3.97977 -1.46543 0
M  V30 3898 N 358.91 -5.00359 -0.739909 0
M  V30 3899 C 357.208 -4.10128 -1.75245 0
M  V30 3900 C 357.909 -5.79407 -0.515939 0
M  V30 3901 N 356.885 -5.32892 -1.07364 0
M  V30 3902 H 360.687 -2.93592 -0.134594 0
M  V30 3903 H 358.201 -1.62379 0.0262885 0
M  V30 3904 H 360.198 -3.27857 -2.57518 0
M  V30 3905 H 358.858 -2.1066 -2.47088 0
M  V30 3906 H 359.869 -5.16412 -0.392253 0
M  V30 3907 H 356.546 -3.46263 -2.33255 0
M  V30 3908 H 357.936 -6.71872 0.0617349 0
M  V30 3909 N 360.656 0.0484629 -1.57525 0
M  V30 3910 C 361.586 1.0549 -2.08313 0
M  V30 3911 C 362.567 1.38929 -0.981463 0
M  V30 3912 O 363.752 1.48151 -1.25558 0
M  V30 3913 C 360.882 2.36162 -2.54646 0
M  V30 3914 C 359.836 2.17016 -3.68901 0
M  V30 3915 C 359.162 3.53278 -4.01371 0
M  V30 3916 C 360.462 1.57219 -4.98076 0
M  V30 3917 H 362.156 0.632195 -2.92649 0
M  V30 3918 H 359.702 0.302654 -1.40784 0
M  V30 3919 H 361.655 3.06882 -2.88793 0
M  V30 3920 H 360.379 2.80456 -1.67368 0
M  V30 3921 H 359.038 1.48733 -3.35073 0
M  V30 3922 H 358.686 3.95185 -3.11188 0
M  V30 3923 H 358.386 3.41299 -4.78318 0
M  V30 3924 H 359.91 4.25391 -4.38035 0
M  V30 3925 H 361.324 2.17832 -5.30304 0
M  V30 3926 H 359.721 1.55871 -5.79503 0
M  V30 3927 H 360.791 0.535956 -4.81929 0
M  V30 3928 N 362.134 1.5431 0.320358 0
M  V30 3929 C 363.044 1.86946 1.41734 0
M  V30 3930 C 364.06 0.761689 1.56443 0
M  V30 3931 O 365.236 1.05629 1.71477 0
M  V30 3932 C 362.301 2.09293 2.76401 0
M  V30 3933 C 361.362 3.33082 2.70841 0
M  V30 3934 C 360.595 3.54353 3.99086 0
M  V30 3935 O 360.818 2.79002 4.97508 0
M  V30 3936 O 359.752 4.47838 4.0215 0
M  V30 3937 H 363.578 2.80232 1.17062 0
M  V30 3938 H 361.163 1.40255 0.514673 0
M  V30 3939 H 363.045 2.25303 3.56113 0
M  V30 3940 H 361.72 1.19194 3.00956 0
M  V30 3941 H 360.627 3.22454 1.89668 0
M  V30 3942 H 361.96 4.23249 2.5124 0
M  V30 3943 N 363.613 -0.582584 1.46437 0
M  V30 3944 C 364.546 -1.70633 1.51524 0
M  V30 3945 C 365.524 -1.58349 0.369351 0
M  V30 3946 O 366.708 -1.79563 0.573516 0
M  V30 3947 C 363.835 -3.08687 1.39392 0
M  V30 3948 C 362.881 -3.3949 2.58164 0
M  V30 3949 S 363.714 -3.31548 4.20519 0
M  V30 3950 C 364.87 -4.72139 4.10896 0
M  V30 3951 H 365.103 -1.66058 2.46601 0
M  V30 3952 H 362.636 -0.761337 1.34324 0
M  V30 3953 H 364.594 -3.8833 1.33079 0
M  V30 3954 H 363.255 -3.10751 0.457436 0
M  V30 3955 H 362.448 -4.40071 2.45669 0
M  V30 3956 H 362.05 -2.67415 2.61468 0
M  V30 3957 H 364.342 -5.62527 3.77584 0
M  V30 3958 H 365.285 -4.89692 5.11476 0
M  V30 3959 H 365.693 -4.48995 3.42146 0
M  V30 3960 N 365.091 -1.34144 -0.827227 0
M  V30 3961 C 366.337 -1.26446 -1.58554 0
M  V30 3962 C 366.67 0.1664 -1.93486 0
M  V30 3963 O 365.945 1.1107 -1.59667 0
M  V30 3964 C 366.228 -2.15111 -2.8879 0
M  V30 3965 C 366.081 -3.66712 -2.60465 0
M  V30 3966 C 367.4 -2.03311 -3.90324 0
M  V30 3967 H 364.519 -0.46067 -0.575284 0
M  V30 3968 H 367.161 -1.64356 -0.953269 0
M  V30 3969 H 365.311 -1.8291 -3.42748 0
M  V30 3970 H 366.983 -4.09259 -2.1285 0
M  V30 3971 H 365.226 -3.88014 -1.93978 0
M  V30 3972 H 365.897 -4.24112 -3.53317 0
M  V30 3973 H 368.373 -2.31574 -3.45706 0
M  V30 3974 H 367.249 -2.67582 -4.79261 0
M  V30 3975 H 367.51 -1.00879 -4.30437 0
M  V30 3976 N 366.569 1.04691 -1.17803 0
M  V30 3977 C 367.818 1.77176 -0.963931 0
M  V30 3978 C 368.131 1.88888 0.508015 0
M  V30 3979 O 369.337 2.58164 0.840465 0
M  V30 3980 C 367.793 3.18518 -1.67555 0
M  V30 3981 C 367.401 3.14919 -3.18637 0
M  V30 3982 C 369.145 3.95424 -1.54402 0
M  V30 3983 C 367.052 4.51081 -3.82466 0
M  V30 3984 H 365.982 0.664116 -0.357023 0
M  V30 3985 H 368.633 1.17303 -1.4111 0
M  V30 3986 H 367.015 3.78748 -1.15613 0
M  V30 3987 H 368.189 2.64178 -3.77554 0
M  V30 3988 H 366.504 2.51512 -3.31859 0
M  V30 3989 H 369.101 4.96106 -1.99456 0
M  V30 3990 H 369.444 4.13343 -0.495329 0
M  V30 3991 H 369.977 3.41754 -2.0359 0
M  V30 3992 H 366.716 4.38368 -4.87354 0
M  V30 3993 H 366.236 5.01951 -3.28337 0
M  V30 3994 H 367.915 5.2001 -3.84965 0
M  V30 3995 N 368.047 0.979072 1.23499 0
M  V30 3996 C 368.979 0.476271 2.24197 0
M  V30 3997 C 369.992 -0.421166 1.57258 0
M  V30 3998 O 371.181 -0.225515 1.7707 0
M  V30 3999 C 368.281 -0.330503 3.37285 0
M  V30 4000 C 367.454 0.559744 4.33804 0
M  V30 4001 C 366.513 -0.192954 5.25846 0
M  V30 4002 O 365.539 0.416978 5.67671 0
M  V30 4003 N 366.741 -1.47932 5.61334 0
M  V30 4004 H 369.506 1.34211 2.67969 0
M  V30 4005 H 367.067 0.852189 1.37657 0
M  V30 4006 H 369.059 -0.842361 3.95836 0
M  V30 4007 H 367.629 -1.09734 2.92707 0
M  V30 4008 H 366.849 1.25245 3.73775 0
M  V30 4009 H 368.137 1.1665 4.95248 0
M  V30 4010 H 367.535 -1.9964 5.29302 0
M  V30 4011 H 366.092 -1.93664 6.22364 0
M  V30 4012 N 369.525 -1.3858 0.750561 0
M  V30 4013 C 370.455 -2.33102 0.136237 0
M  V30 4014 C 371.436 -1.54713 -0.706965 0
M  V30 4015 O 372.621 -1.83043 -0.648769 0
M  V30 4016 C 369.751 -3.38882 -0.760017 0
M  V30 4017 C 368.705 -4.27995 -0.0197785 0
M  V30 4018 C 368.031 -5.24605 -1.03408 0
M  V30 4019 C 369.331 -5.09554 1.14684 0
M  V30 4020 H 371.025 -2.84726 0.925822 0
M  V30 4021 H 368.571 -1.36898 0.446654 0
M  V30 4022 H 370.524 -4.0397 -1.19943 0
M  V30 4023 H 369.248 -2.85734 -1.58189 0
M  V30 4024 H 367.907 -3.64409 0.400184 0
M  V30 4025 H 367.555 -4.67746 -1.84994 0
M  V30 4026 H 367.255 -5.85081 -0.543464 0
M  V30 4027 H 368.779 -5.9257 -1.47288 0
M  V30 4028 H 370.193 -5.67899 0.785118 0
M  V30 4029 H 368.59 -5.7925 1.56812 0
M  V30 4030 H 369.66 -4.4347 1.96118 0
M  V30 4031 N 371.003 -0.499398 -1.49478 0
M  V30 4032 C 371.933 0.269244 -2.31943 0
M  V30 4033 C 372.914 0.964054 -1.40143 0
M  V30 4034 O 374.099 0.955767 -1.69052 0
M  V30 4035 C 371.229 1.33504 -3.20615 0
M  V30 4036 C 370.183 0.760202 -4.21195 0
M  V30 4037 C 369.509 1.9264 -4.98792 0
M  V30 4038 C 370.809 -0.247661 -5.21712 0
M  V30 4039 H 372.503 -0.419082 -2.96452 0
M  V30 4040 H 370.049 -0.202988 -1.42562 0
M  V30 4041 H 372.002 1.88048 -3.77115 0
M  V30 4042 H 370.726 2.05253 -2.54045 0
M  V30 4043 H 369.385 0.23653 -3.65836 0
M  V30 4044 H 369.033 2.63154 -4.28671 0
M  V30 4045 H 368.733 1.54785 -5.66847 0
M  V30 4046 H 370.257 2.4762 -5.58137 0
M  V30 4047 H 371.671 0.209579 -5.72917 0
M  V30 4048 H 370.068 -0.541962 -5.97648 0
M  V30 4049 H 371.138 -1.16409 -4.7072 0
M  V30 4050 N 372.481 1.55866 -0.233164 0
M  V30 4051 C 373.444 2.1953 0.658715 0
M  V30 4052 C 374.444 1.16053 1.11303 0
M  V30 4053 O 375.634 1.41218 1.01996 0
M  V30 4054 C 372.766 2.82791 1.90373 0
M  V30 4055 H 373.959 2.99721 0.10347 0
M  V30 4056 H 371.512 1.56291 0.0164245 0
M  V30 4057 H 372.247 2.06501 2.50056 0
M  V30 4058 H 372.032 3.58578 1.58632 0
M  V30 4059 H 373.522 3.31556 2.53891 0
M  V30 4060 N 373.959 -0.0401083 1.57549 0
M  V30 4061 C 375.208 -0.732108 1.87944 0
M  V30 4062 C 375.521 -1.77107 0.830206 0
M  V30 4063 O 376.727 -2.51488 1.02302 0
M  V30 4064 C 375.183 -1.35315 3.33494 0
M  V30 4065 C 374.791 -0.351105 4.46622 0
M  V30 4066 C 376.535 -2.02566 3.73051 0
M  V30 4067 C 374.442 -0.979859 5.83226 0
M  V30 4068 H 373.372 -0.277188 0.701201 0
M  V30 4069 H 376.023 0.0138501 1.83495 0
M  V30 4070 H 374.405 -2.14844 3.32653 0
M  V30 4071 H 375.579 0.416674 4.58912 0
M  V30 4072 H 373.894 0.218708 4.15825 0
M  V30 4073 H 376.491 -2.50441 4.72423 0
M  V30 4074 H 376.834 -2.83904 3.04474 0
M  V30 4075 H 377.367 -1.29827 3.76018 0
M  V30 4076 H 374.106 -0.206135 6.55176 0
M  V30 4077 H 373.626 -1.71774 5.74677 0
M  V30 4078 H 375.305 -1.49046 6.29599 0
M  V30 4079 N 375.437 -1.54477 -0.31217 0
M  V30 4080 C 376.37 -1.79519 -1.40884 0
M  V30 4081 C 377.348 -0.645753 -1.49227 0
M  V30 4082 O 378.532 -0.884468 -1.66461 0
M  V30 4083 C 375.659 -1.92194 -2.78889 0
M  V30 4084 C 374.705 -3.14555 -2.88023 0
M  V30 4085 S 375.538 -4.72893 -2.51262 0
M  V30 4086 C 376.694 -4.8849 -3.91317 0
M  V30 4087 H 376.927 -2.72256 -1.19432 0
M  V30 4088 H 374.46 -1.45746 -0.509654 0
M  V30 4089 H 376.418 -2.00182 -3.58382 0
M  V30 4090 H 375.079 -1.00414 -2.97617 0
M  V30 4091 H 374.272 -3.20193 -3.89221 0
M  V30 4092 H 373.874 -3.04955 -2.16514 0
M  V30 4093 H 376.166 -4.71826 -4.86196 0
M  V30 4094 H 377.109 -5.90588 -3.90656 0
M  V30 4095 H 377.517 -4.16715 -3.80801 0
M  V30 4096 N 376.915 0.57481 -1.46744 0
M  V30 4097 C 378.155 1.34369 -1.54027 0
M  V30 4098 C 378.519 1.91051 -0.190642 0
M  V30 4099 O 379.72 2.68444 -0.138255 0
M  V30 4100 C 377.991 2.43706 -2.61423 0
M  V30 4101 S 379.55 3.30915 -2.88167 0
M  V30 4102 H 376.368 0.45768 -0.544105 0
M  V30 4103 H 378.97 0.659959 -1.84024 0
M  V30 4104 H 377.674 2.0047 -3.58106 0
M  V30 4105 H 377.205 3.16842 -2.33184 0
M  V30 4106 H 379.22 4.42742 -2.24039 0
M  V30 4107 N 378.394 1.34581 0.820102 0
M  V30 4108 C 379.64 1.27285 1.57881 0
M  V30 4109 C 379.973 -0.156137 1.93571 0
M  V30 4110 O 379.248 -1.10222 1.60254 0
M  V30 4111 C 379.531 2.16639 2.87645 0
M  V30 4112 C 379.384 3.68088 2.58517 0
M  V30 4113 C 380.703 2.05378 3.8924 0
M  V30 4114 H 377.822 0.463714 0.572833 0
M  V30 4115 H 380.464 1.64859 0.944539 0
M  V30 4116 H 378.614 1.84725 3.41773 0
M  V30 4117 H 380.286 4.10382 2.10676 0
M  V30 4118 H 378.529 3.89038 1.91917 0
M  V30 4119 H 379.2 4.2598 3.51063 0
M  V30 4120 H 381.676 2.33404 3.44473 0
M  V30 4121 H 380.552 2.7012 4.77835 0
M  V30 4122 H 380.813 1.0316 4.29896 0
M  V30 4123 N 379.872 -1.04064 1.18357 0
M  V30 4124 C 381.097 -1.81454 1.00445 0
M  V30 4125 C 381.522 -1.82823 -0.442423 0
M  V30 4126 O 380.88 -1.24555 -1.31741 0
M  V30 4127 C 380.928 -3.24925 1.56384 0
M  V30 4128 O 380.032 -4.04856 0.785209 0
M  V30 4129 H 379.373 -0.560604 0.355835 0
M  V30 4130 H 381.903 -1.31059 1.57114 0
M  V30 4131 H 381.913 -3.75702 1.59097 0
M  V30 4132 H 380.588 -3.23244 2.61699 0
M  V30 4133 H 379.165 -3.63537 0.830399 0
M  V30 4134 N 381.35 -0.985608 -1.22978 0
M  V30 4135 C 382.59 -0.665487 -1.93263 0
M  V30 4136 C 382.954 0.78706 -1.75127 0
M  V30 4137 O 384.155 1.21826 -2.39608 0
M  V30 4138 C 382.426 -1.0515 -3.41582 0
M  V30 4139 S 383.985 -0.848637 -4.30516 0
M  V30 4140 H 380.803 -0.24355 -0.667985 0
M  V30 4141 H 383.405 -1.26635 -1.48942 0
M  V30 4142 H 382.109 -2.10517 -3.52293 0
M  V30 4143 H 381.64 -0.442134 -3.90908 0
M  V30 4144 H 383.655 0.264717 -4.95493 0
M  V30 4145 N 382.828 1.3818 -0.7579 0
M  V30 4146 C 384.077 1.99261 -0.312744 0
M  V30 4147 C 384.39 1.60846 1.11301 0
M  V30 4148 O 385.596 2.14929 1.65885 0
M  V30 4149 C 384.052 3.56294 -0.50821 0
M  V30 4150 C 383.66 4.03657 -1.94333 0
M  V30 4151 C 385.404 4.24313 -0.125982 0
M  V30 4152 C 383.311 5.53347 -2.08712 0
M  V30 4153 H 382.241 0.745456 -0.113185 0
M  V30 4154 H 384.892 1.57889 -0.935056 0
M  V30 4155 H 383.274 3.95575 0.183353 0
M  V30 4156 H 384.448 3.75655 -2.66871 0
M  V30 4157 H 382.763 3.48376 -2.28086 0
M  V30 4158 H 385.36 5.34279 -0.212125 0
M  V30 4159 H 385.703 4.05962 0.921964 0
M  V30 4160 H 386.236 3.90285 -0.769563 0
M  V30 4161 H 382.975 5.76607 -3.11777 0
M  V30 4162 H 382.495 5.83078 -1.4064 0
M  V30 4163 H 384.174 6.19111 -1.87912 0
M  V30 4164 N 384.306 0.507319 1.49211 0
M  V30 4165 C 385.546 -0.0332372 2.04373 0
M  V30 4166 C 385.91 -1.33694 1.37804 0
M  V30 4167 O 387.111 -1.96213 1.83722 0
M  V30 4168 C 385.382 -0.17599 3.56966 0
M  V30 4169 S 386.941 -0.669882 4.33657 0
M  V30 4170 H 383.759 0.00123603 0.710999 0
M  V30 4171 H 386.361 0.682725 1.83191 0
M  V30 4172 H 385.065 0.778053 4.02957 0
M  V30 4173 H 384.596 -0.917005 3.82563 0
M  V30 4174 H 386.611 -1.93806 4.56786 0
M  V30 4175 N 385.784 -1.5574 0.241426 0
M  V30 4176 C 387.03 -1.99846 -0.378555 0
M  V30 4177 C 387.385 -1.12665 -1.55963 0
M  V30 4178 O 386.678 -0.180966 -1.90743 0
M  V30 4179 C 386.872 -3.47308 -0.843317 0
M  V30 4180 C 386.701 -4.48756 0.291178 0
M  V30 4181 C 385.471 -4.9949 0.764077 0
M  V30 4182 C 387.669 -5.02039 1.11631 0
M  V30 4183 N 385.651 -5.84676 1.87156 0
M  V30 4184 C 387.022 -5.84343 2.07226 0
M  V30 4185 C 389.077 -4.84354 1.15349 0
M  V30 4186 C 387.78 -6.50851 3.06245 0
M  V30 4187 C 389.806 -5.51636 2.13195 0
M  V30 4188 C 389.168 -6.33724 3.07528 0
M  V30 4189 H 385.267 -0.774968 -0.104634 0
M  V30 4190 H 387.851 -1.91385 0.357751 0
M  V30 4191 H 386.022 -3.56178 -1.54893 0
M  V30 4192 H 387.754 -3.78299 -1.43779 0
M  V30 4193 H 384.509 -4.72311 0.349175 0
M  V30 4194 H 384.933 -6.31967 2.42789 0
M  V30 4195 H 389.575 -4.20525 0.438057 0
M  V30 4196 H 387.293 -7.1385 3.78739 0
M  V30 4197 H 390.879 -5.39909 2.16771 0
M  V30 4198 H 389.759 -6.84867 3.82003 0
M  V30 4199 N 387.262 0.0317525 -1.57568 0
M  V30 4200 C 388.487 0.738664 -1.938 0
M  V30 4201 C 388.912 1.68242 -0.841208 0
M  V30 4202 O 388.27 1.80157 0.203267 0
M  V30 4203 C 388.318 1.47417 -3.29091 0
M  V30 4204 O 387.422 2.5872 -3.2115 0
M  V30 4205 H 386.763 0.198856 -0.633524 0
M  V30 4206 H 389.293 -0.0119713 -2.04596 0
M  V30 4207 H 389.303 1.84468 -3.63917 0
M  V30 4208 H 387.978 0.781988 -4.08482 0
M  V30 4209 H 386.555 2.24231 -2.97951 0
M  V30 4210 N 388.74 1.54641 0.303973 0
M  V30 4211 C 390.151 1.64811 0.877163 0
M  V30 4212 C 390.502 0.554838 1.88191 0
M  V30 4213 O 389.627 -0.309033 2.14182 0
M  V30 4214 C 390.222 2.9876 1.59775 0
M  V30 4215 C 388.781 3.11061 2.11938 0
M  V30 4216 C 387.928 2.60479 0.951097 0
M  V30 4217 H 390.879 1.58493 0.0810486 0
M  V30 4218 H 390.9 2.90017 2.46314 0
M  V30 4219 H 390.412 3.7831 0.866226 0
M  V30 4220 H 388.513 2.36225 2.88146 0
M  V30 4221 H 388.626 4.17171 2.35595 0
M  V30 4222 H 386.99 2.16859 1.33583 0
M  V30 4223 H 387.773 3.42504 0.233581 0
M  V30 4224 N 390.218 -0.567019 1.47046 0
M  V30 4225 C 391.465 -1.32462 1.53167 0
M  V30 4226 C 391.793 -1.93571 0.189841 0
M  V30 4227 O 391.048 -1.77865 -0.816243 0
M  V30 4228 C 391.347 -2.4623 2.59047 0
M  V30 4229 C 391.013 -2.03014 4.02612 0
M  V30 4230 C 389.675 -1.90944 4.41694 0
M  V30 4231 C 392.027 -1.69895 4.92732 0
M  V30 4232 C 389.355 -1.44035 5.68745 0
M  V30 4233 C 391.707 -1.2446 6.20236 0
M  V30 4234 C 390.371 -1.10979 6.5821 0
M  V30 4235 H 389.641 -0.484713 0.560477 0
M  V30 4236 H 392.288 -0.636888 1.80599 0
M  V30 4237 H 390.593 -3.20517 2.25335 0
M  V30 4238 H 392.29 -3.04427 2.61008 0
M  V30 4239 H 388.88 -2.13348 3.71726 0
M  V30 4240 H 393.064 -1.78098 4.63244 0
M  V30 4241 H 388.32 -1.32254 5.96925 0
M  V30 4242 H 392.494 -0.978924 6.89485 0
M  V30 4243 H 390.121 -0.744078 7.5655 0
M  V30 4244 N 391.696 -1.35014 -0.812953 0
M  V30 4245 C 392.626 -1.30069 -1.93919 0
M  V30 4246 C 393.607 -0.176275 -1.69184 0
M  V30 4247 O 394.792 -0.370227 -1.90638 0
M  V30 4248 C 391.922 -1.06547 -3.30552 0
M  V30 4249 C 390.876 -2.15561 -3.69753 0
M  V30 4250 C 390.202 -1.77214 -5.04479 0
M  V30 4251 C 391.502 -3.57476 -3.808 0
M  V30 4252 H 393.196 -2.24303 -1.98314 0
M  V30 4253 H 390.742 -1.07977 -0.952736 0
M  V30 4254 H 392.695 -1.01729 -4.08937 0
M  V30 4255 H 391.419 -0.0875719 -3.26483 0
M  V30 4256 H 390.078 -2.19466 -2.9365 0
M  V30 4257 H 389.726 -0.780589 -4.96906 0
M  V30 4258 H 389.426 -2.50184 -5.31678 0
M  V30 4259 H 390.95 -1.7391 -5.8531 0
M  V30 4260 H 392.364 -3.55929 -4.4943 0
M  V30 4261 H 390.761 -4.29152 -4.19462 0
M  V30 4262 H 391.831 -3.94091 -2.82525 0
M  V30 4263 N 393.175 1.03435 -1.18907 0
M  V30 4264 C 394.421 1.77005 -0.989798 0
M  V30 4265 C 394.754 1.88205 0.478816 0
M  V30 4266 O 394.029 1.39481 1.35556 0
M  V30 4267 C 394.312 3.19925 -1.65287 0
M  V30 4268 C 394.165 3.1663 -3.19477 0
M  V30 4269 C 395.484 4.18189 -1.37134 0
M  V30 4270 H 392.603 0.642538 -0.360991 0
M  V30 4271 H 395.245 1.20784 -1.46667 0
M  V30 4272 H 393.395 3.67929 -1.24741 0
M  V30 4273 H 395.067 2.76567 -3.692 0
M  V30 4274 H 393.31 2.54491 -3.51307 0
M  V30 4275 H 393.981 4.1758 -3.61013 0
M  V30 4276 H 396.457 3.78761 -1.72276 0
M  V30 4277 H 395.333 5.16394 -1.86087 0
M  V30 4278 H 395.594 4.41112 -0.295424 0
M  V30 4279 N 394.653 0.992116 1.22453 0
M  V30 4280 C 395.881 0.685944 1.95198 0
M  V30 4281 C 396.296 -0.749233 1.73297 0
M  V30 4282 O 395.653 -1.50549 1.03156 0
M  V30 4283 C 395.704 0.981395 3.47924 0
M  V30 4284 O 395.425 2.36018 3.6909 0
M  V30 4285 C 396.926 0.692815 4.37853 0
M  V30 4286 H 394.146 0.253821 0.621141 0
M  V30 4287 H 396.69 1.32668 1.55626 0
M  V30 4288 H 394.845 0.386481 3.85467 0
M  V30 4289 H 395.259 2.45884 4.63294 0
M  V30 4290 H 396.733 0.949818 5.43767 0
M  V30 4291 H 397.21 -0.373181 4.37612 0
M  V30 4292 H 397.816 1.26874 4.05935 0
M  V30 4293 N 396.131 -1.37776 0.765217 0
M  V30 4294 C 397.064 -2.28008 0.0935025 0
M  V30 4295 C 398.042 -1.45985 -0.716047 0
M  V30 4296 O 399.226 -1.75331 -0.692203 0
M  V30 4297 C 396.353 -3.27228 -0.874052 0
M  V30 4298 C 395.399 -4.26239 -0.149307 0
M  V30 4299 S 396.232 -5.22827 1.15809 0
M  V30 4300 C 397.388 -6.256 0.193906 0
M  V30 4301 H 397.621 -2.84631 0.858637 0
M  V30 4302 H 395.154 -1.43952 0.558313 0
M  V30 4303 H 397.112 -3.84902 -1.42691 0
M  V30 4304 H 395.773 -2.69565 -1.61225 0
M  V30 4305 H 394.966 -4.96213 -0.88254 0
M  V30 4306 H 394.568 -3.7252 0.332366 0
M  V30 4307 H 396.86 -6.74508 -0.636011 0
M  V30 4308 H 397.803 -7.02838 0.861638 0
M  V30 4309 H 398.211 -5.64173 -0.191975 0
M  V30 4310 N 397.609 -0.515225 -1.4894 0
M  V30 4311 C 398.572 0.244681 -2.2789 0
M  V30 4312 C 399.572 0.881166 -1.34507 0
M  V30 4313 O 400.762 0.743497 -1.57537 0
M  V30 4314 C 397.894 1.35247 -3.12923 0
M  V30 4315 H 399.087 -0.448289 -2.96531 0
M  V30 4316 H 396.64 -0.270656 -1.53939 0
M  V30 4317 H 397.375 2.07916 -2.48881 0
M  V30 4318 H 397.16 0.901374 -3.81599 0
M  V30 4319 H 398.65 1.88737 -3.72516 0
M  V30 4320 N 399.087 1.5561 -0.249682 0
M  V30 4321 C 400.035 2.22894 0.664906 0
M  V30 4322 C 401.029 1.21743 1.17792 0
M  V30 4323 O 402.235 1.39748 1.13449 0
M  V30 4324 H 398.61 0.715022 0.232912 0
M  V30 4325 H 400.581 2.98307 0.0742998 0
M  V30 4326 C 399.33 2.94424 1.84959 0
M  V30 4327 H 398.653 3.72031 1.46399 0
M  V30 4328 H 400.093 3.44862 2.4667 0
M  V30 4329 C 398.552 1.98454 2.72245 0
M  V30 4330 O 399.082 1.51939 3.71857 0
M  V30 4331 N 397.288 1.65496 2.38871 0
M  V30 4332 H 396.835 2.03517 1.57919 0
M  V30 4333 H 396.793 1.0155 2.97548 0
M  V30 4334 N 400.565 -0.0233959 1.57583 0
M  V30 4335 C 401.814 -0.712133 1.8871 0
M  V30 4336 C 402.127 -1.76217 0.848944 0
M  V30 4337 O 403.333 -2.50389 1.04964 0
M  V30 4338 C 401.789 -1.3177 3.3491 0
M  V30 4339 C 401.397 -0.303715 4.46969 0
M  V30 4340 C 403.141 -1.98598 3.75179 0
M  V30 4341 C 401.048 -0.917945 5.84233 0
M  V30 4342 H 399.978 -0.269735 0.704101 0
M  V30 4343 H 402.629 0.0333114 1.8347 0
M  V30 4344 H 401.011 -2.11304 3.34913 0
M  V30 4345 H 402.185 0.465325 4.58445 0
M  V30 4346 H 400.5 0.2628 4.1557 0
M  V30 4347 H 403.097 -2.45416 4.75053 0
M  V30 4348 H 403.44 -2.80659 3.07468 0
M  V30 4349 H 403.973 -1.25831 3.77374 0
M  V30 4350 H 400.712 -0.136633 6.55358 0
M  V30 4351 H 400.232 -1.65669 5.76467 0
M  V30 4352 H 401.911 -1.4236 6.31144 0
M  V30 4353 N 402.043 -1.548 -0.295768 0
M  V30 4354 C 403.291 -1.73985 -1.02828 0
M  V30 4355 C 403.612 -0.531406 -1.87619 0
M  V30 4356 O 402.882 0.454221 -1.90561 0
M  V30 4357 H 401.462 -0.641556 -0.382642 0
M  V30 4358 H 404.124 -1.92163 -0.325489 0
M  V30 4359 H 403.22 -2.63129 -1.67838 0
M  V30 4360 N 403.521 0.559213 -1.47345 0
M  V30 4361 C 404.77 1.31281 -1.53128 0
M  V30 4362 C 405.083 1.94602 -0.197344 0
M  V30 4363 O 406.289 2.71173 -0.133154 0
M  V30 4364 C 404.745 2.38051 -2.69925 0
M  V30 4365 C 404.353 1.8093 -4.0984 0
M  V30 4366 C 406.097 3.14604 -2.84999 0
M  V30 4367 C 404.004 2.85468 -5.1794 0
M  V30 4368 H 402.934 0.493614 -0.569966 0
M  V30 4369 H 405.585 0.594155 -1.73615 0
M  V30 4370 H 403.967 3.12822 -2.42814 0
M  V30 4371 H 405.141 1.12544 -4.46845 0
M  V30 4372 H 403.456 1.16967 -3.99634 0
M  V30 4373 H 406.053 3.92666 -3.62929 0
M  V30 4374 H 406.396 3.68665 -1.93369 0
M  V30 4375 H 406.929 2.46945 -3.1187 0
M  V30 4376 H 403.668 2.36264 -6.1144 0
M  V30 4377 H 403.188 3.52269 -4.85455 0
M  V30 4378 H 404.867 3.48996 -5.44803 0
M  V30 4379 N 404.999 1.35443 0.805782 0
M  V30 4380 C 405.947 1.28465 1.93906 0
M  V30 4381 C 406.941 0.17943 1.68447 0
M  V30 4382 O 408.147 0.345459 1.76654 0
M  V30 4383 H 404.522 0.399528 0.637088 0
M  V30 4384 H 406.493 2.24206 1.96912 0
M  V30 4385 C 405.242 1.07432 3.30687 0
M  V30 4386 H 404.565 1.91716 3.50835 0
M  V30 4387 H 406.005 1.06591 4.10383 0
M  V30 4388 C 404.464 -0.22179 3.36169 0
M  V30 4389 O 404.994 -1.21731 3.82811 0
M  V30 4390 N 403.2 -0.260841 2.89427 0
M  V30 4391 H 402.747 0.549884 2.51663 0
M  V30 4392 H 402.705 -1.12777 2.93477 0
M  V30 4393 N 406.477 -1.02803 1.19454 0
M  V30 4394 C 407.725 -1.75869 0.995722 0
M  V30 4395 C 408.046 -1.89138 -0.474543 0
M  V30 4396 O 407.316 -1.42558 -1.34366 0
M  V30 4397 H 405.896 -0.651511 0.365435 0
M  V30 4398 H 408.558 -1.24004 1.50363 0
M  V30 4399 H 407.654 -2.76661 1.44447 0
M  V30 4400 N 407.956 -0.998596 -1.21925 0
M  V30 4401 C 408.904 -0.546641 -2.26085 0
M  V30 4402 C 409.898 0.405576 -1.64473 0
M  V30 4403 O 411.104 0.277471 -1.77849 0
M  V30 4404 H 407.479 -0.158403 -0.735127 0
M  V30 4405 H 409.45 -1.43645 -2.61551 0
M  V30 4406 C 408.199 0.117388 -3.47502 0
M  V30 4407 H 407.522 -0.606277 -3.95176 0
M  V30 4408 H 408.962 0.396993 -4.22137 0
M  V30 4409 C 407.421 1.35455 -3.0847 0
M  V30 4410 O 407.951 2.44944 -3.18379 0
M  V30 4411 N 406.157 1.23191 -2.63196 0
M  V30 4412 H 405.704 0.341006 -2.55333 0
M  V30 4413 H 405.662 2.06071 -2.37449 0
M  V30 4414 N 409.434 1.37368 -0.772513 0
M  V30 4415 C 410.384 2.27613 -0.132823 0
M  V30 4416 C 411.368 1.46138 0.673247 0
M  V30 4417 O 412.56 1.68686 0.536095 0
M  V30 4418 C 409.689 3.35122 0.744864 0
M  V30 4419 C 408.775 4.24044 -0.0690771 0
M  V30 4420 N 409.166 4.93355 -1.1151 0
M  V30 4421 C 407.464 4.45731 0.154782 0
M  V30 4422 C 408.165 5.59 -1.60917 0
M  V30 4423 N 407.141 5.35737 -0.921222 0
M  V30 4424 H 410.943 2.78675 -0.933681 0
M  V30 4425 H 408.457 1.50494 -0.610342 0
M  V30 4426 H 410.454 3.98683 1.21892 0
M  V30 4427 H 409.114 2.85616 1.54446 0
M  V30 4428 H 410.125 4.95785 -1.49726 0
M  V30 4429 H 406.802 4.07096 0.926224 0
M  V30 4430 H 408.192 6.24395 -2.48153 0
M  V30 4431 N 410.912 0.523116 1.48665 0
M  V30 4432 C 412.137 -0.0117284 2.07397 0
M  V30 4433 C 412.562 -1.28031 1.37803 0
M  V30 4434 O 411.92 -1.75836 0.441762 0
M  V30 4435 C 411.968 -0.225786 3.59892 0
M  V30 4436 O 411.072 -1.29592 3.91509 0
M  V30 4437 H 410.413 0.0360673 0.66302 0
M  V30 4438 H 412.943 0.729066 1.9117 0
M  V30 4439 H 412.953 -0.450552 4.05505 0
M  V30 4440 H 411.628 0.700944 4.09951 0
M  V30 4441 H 410.205 -1.05436 3.57684 0
M  V30 4442 N 412.39 -1.55475 0.257931 0
M  V30 4443 C 413.32 -2.24815 -0.630912 0
M  V30 4444 C 414.301 -1.23224 -1.17259 0
M  V30 4445 O 415.486 -1.51904 -1.20991 0
M  V30 4446 C 412.616 -2.95609 -1.82298 0
M  V30 4447 C 411.57 -4.03982 -1.41359 0
M  V30 4448 C 410.896 -4.6226 -2.68738 0
M  V30 4449 C 412.196 -5.19109 -0.57648 0
M  V30 4450 H 413.89 -2.99354 -0.0526878 0
M  V30 4451 H 411.436 -1.4398 -0.023901 0
M  V30 4452 H 413.389 -3.42822 -2.45054 0
M  V30 4453 H 412.113 -2.18577 -2.42676 0
M  V30 4454 H 410.772 -3.57555 -0.809324 0
M  V30 4455 H 410.42 -3.81915 -3.27338 0
M  V30 4456 H 410.12 -5.35424 -2.42065 0
M  V30 4457 H 411.644 -5.12212 -3.32372 0
M  V30 4458 H 413.058 -5.62479 -1.10861 0
M  V30 4459 H 411.455 -5.98729 -0.405351 0
M  V30 4460 H 412.525 -4.83174 0.408776 0
M  V30 4461 N 413.868 0.0150385 -1.57593 0
M  V30 4462 C 414.778 1.02791 -2.10882 0
M  V30 4463 C 415.794 1.38702 -1.0506 0
M  V30 4464 O 416.97 1.47739 -1.36877 0
M  V30 4465 C 414.035 2.30568 -2.58919 0
M  V30 4466 C 413.096 2.01108 -3.79281 0
M  V30 4467 C 412.329 3.22794 -4.25018 0
M  V30 4468 O 412.552 4.33959 -3.70183 0
M  V30 4469 O 411.486 3.07672 -5.17322 0
M  V30 4470 H 415.312 0.604973 -2.97613 0
M  V30 4471 H 412.897 0.23292 -1.47573 0
M  V30 4472 H 414.779 3.05662 -2.90084 0
M  V30 4473 H 413.454 2.72129 -1.75293 0
M  V30 4474 H 412.361 1.23537 -3.53114 0
M  V30 4475 H 413.694 1.64394 -4.63935 0
M  V30 4476 N 415.346 1.54954 0.287554 0
M  V30 4477 C 416.574 1.78881 1.03967 0
M  V30 4478 C 416.989 0.554894 1.80462 0
M  V30 4479 O 416.346 -0.475676 1.76192 0
M  V30 4480 C 416.397 3.00488 2.0097 0
M  V30 4481 O 416.118 4.19113 1.27577 0
M  V30 4482 C 417.619 3.36907 2.88112 0
M  V30 4483 H 414.839 0.596259 0.307761 0
M  V30 4484 H 417.383 2.01937 0.322749 0
M  V30 4485 H 415.538 2.79601 2.68145 0
M  V30 4486 H 415.952 4.87765 1.92835 0
M  V30 4487 H 417.426 4.25205 3.52001 0
M  V30 4488 H 417.903 2.55659 3.57121 0
M  V30 4489 H 418.509 3.60001 2.26449 0
M  V30 4490 N 416.824 -0.551391 1.4764 0
M  V30 4491 C 418.064 -1.31901 1.56145 0
M  V30 4492 C 418.428 -1.90724 0.221013 0
M  V30 4493 O 419.629 -2.6819 0.180945 0
M  V30 4494 C 417.9 -2.39517 2.65267 0
M  V30 4495 S 419.459 -3.26289 2.93395 0
M  V30 4496 H 416.277 -0.448965 0.551318 0
M  V30 4497 H 418.879 -0.630599 1.85051 0
M  V30 4498 H 417.583 -1.94747 3.6125 0
M  V30 4499 H 417.114 -3.13092 2.38195 0
M  V30 4500 H 419.129 -4.39122 2.31055 0
M  V30 4501 N 418.302 -1.35869 -0.798587 0
M  V30 4502 C 419.212 -1.31578 -1.94228 0
M  V30 4503 C 420.228 -0.21939 -1.72611 0
M  V30 4504 O 421.404 -0.450167 -1.96305 0
M  V30 4505 C 418.469 -1.09528 -3.28944 0
M  V30 4506 C 417.53 -2.28556 -3.63402 0
M  V30 4507 C 416.763 -2.07549 -4.9169 0
M  V30 4508 O 416.986 -1.046 -5.60727 0
M  V30 4509 O 415.92 -2.95106 -5.24591 0
M  V30 4510 H 419.746 -2.27847 -2.00796 0
M  V30 4511 H 417.331 -1.16322 -0.937526 0
M  V30 4512 H 419.213 -0.991127 -4.09579 0
M  V30 4513 H 417.888 -0.16315 -3.23289 0
M  V30 4514 H 416.795 -2.44538 -2.83112 0
M  V30 4515 H 418.128 -3.20244 -3.73771 0
M  V30 4516 N 419.78 1.02168 -1.19998 0
M  V30 4517 C 421.008 1.79296 -1.03249 0
M  V30 4518 C 421.423 1.84103 0.418502 0
M  V30 4519 O 420.78 1.29031 1.29063 0
M  V30 4520 C 420.831 3.24007 -1.60319 0
M  V30 4521 O 420.552 3.19512 -2.99739 0
M  V30 4522 C 422.053 4.17704 -1.48453 0
M  V30 4523 H 419.273 0.564016 -0.363493 0
M  V30 4524 H 421.817 1.28639 -1.58973 0
M  V30 4525 H 419.972 3.7183 -1.08727 0
M  V30 4526 H 420.386 4.10306 -3.26725 0
M  V30 4527 H 421.86 5.17104 -1.93153 0
M  V30 4528 H 422.337 4.37029 -0.436193 0
M  V30 4529 H 422.943 3.7576 -1.99211 0
M  V30 4530 N 421.258 1.00505 1.21394 0
M  V30 4531 C 422.486 0.706609 1.9446 0
M  V30 4532 C 422.901 -0.73081 1.74082 0
M  V30 4533 O 422.258 -1.49446 1.04747 0
M  V30 4534 C 422.309 1.01824 3.46863 0
M  V30 4535 O 422.03 2.39919 3.66566 0
M  V30 4536 C 423.531 0.739216 4.37093 0
M  V30 4537 H 420.751 0.260394 0.618414 0
M  V30 4538 H 423.295 1.34311 1.54211 0
M  V30 4539 H 421.45 0.427343 3.85036 0
M  V30 4540 H 421.864 2.50784 4.6066 0
M  V30 4541 H 423.338 1.00744 5.42729 0
M  V30 4542 H 423.815 -0.326746 4.37983 0
M  V30 4543 H 424.421 1.31173 4.04566 0
M  V30 4544 N 422.737 -1.36956 0.779787 0
M  V30 4545 C 423.667 -2.32761 0.185651 0
M  V30 4546 C 424.648 -1.56177 -0.673989 0
M  V30 4547 O 425.833 -1.84378 -0.609797 0
M  V30 4548 C 422.963 -3.40418 -0.687964 0
M  V30 4549 C 421.917 -4.27941 0.0710102 0
M  V30 4550 C 421.243 -5.26681 -0.922573 0
M  V30 4551 C 422.543 -5.07006 1.25467 0
M  V30 4552 H 424.237 -2.82698 0.986008 0
M  V30 4553 H 421.783 -1.3592 0.475592 0
M  V30 4554 H 423.736 -4.06423 -1.11348 0
M  V30 4555 H 422.46 -2.89025 -1.52093 0
M  V30 4556 H 421.119 -3.63478 0.47739 0
M  V30 4557 H 420.767 -4.71565 -1.7503 0
M  V30 4558 H 420.467 -5.86103 -0.419237 0
M  V30 4559 H 421.991 -5.9556 -1.34686 0
M  V30 4560 H 423.405 -5.66105 0.905401 0
M  V30 4561 H 421.802 -5.75793 1.69063 0
M  V30 4562 H 422.872 -4.3921 2.05481 0
M  V30 4563 N 424.215 -0.530993 -1.48385 0
M  V30 4564 C 425.462 0.0027373 -2.025 0
M  V30 4565 C 425.79 1.34186 -1.40799 0
M  V30 4566 O 425.045 1.88 -0.543544 0
M  V30 4567 C 425.344 0.172742 -3.56982 0
M  V30 4568 C 425.01 -1.09215 -4.37473 0
M  V30 4569 C 423.672 -1.43881 -4.59186 0
M  V30 4570 C 426.024 -1.93153 -4.84088 0
M  V30 4571 C 423.352 -2.62381 -5.2476 0
M  V30 4572 C 425.704 -3.10833 -5.50968 0
M  V30 4573 C 424.368 -3.45843 -5.70919 0
M  V30 4574 H 423.638 0.00100165 -0.740999 0
M  V30 4575 H 426.285 -0.697219 -1.78357 0
M  V30 4576 H 424.59 0.955473 -3.79971 0
M  V30 4577 H 426.287 0.600642 -3.96476 0
M  V30 4578 H 422.877 -0.812177 -4.20834 0
M  V30 4579 H 427.061 -1.67683 -4.67115 0
M  V30 4580 H 422.317 -2.89707 -5.38405 0
M  V30 4581 H 426.491 -3.7618 -5.86056 0
M  V30 4582 H 424.118 -4.37764 -6.21503 0
M  V30 4583 N 425.693 1.55336 -0.266172 0
M  V30 4584 C 426.656 2.20878 0.612001 0
M  V30 4585 C 427.656 1.18388 1.08816 0
M  V30 4586 O 428.846 1.4335 0.989774 0
M  V30 4587 C 425.978 2.86765 1.84332 0
M  V30 4588 H 427.171 2.99873 0.0398718 0
M  V30 4589 H 424.724 1.56291 -0.0167309 0
M  V30 4590 H 425.459 2.11759 2.45619 0
M  V30 4591 H 425.244 3.61862 1.5099 0
M  V30 4592 H 426.734 3.36867 2.46801 0
M  V30 4593 N 427.171 -0.0066808 1.57599 0
M  V30 4594 C 428.101 -0.999296 2.11036 0
M  V30 4595 C 429.082 -1.36278 1.01795 0
M  V30 4596 O 430.267 -1.4477 1.29442 0
M  V30 4597 C 427.397 -2.29328 2.60818 0
M  V30 4598 C 426.351 -2.07159 3.74525 0
M  V30 4599 C 425.677 -3.42512 4.10596 0
M  V30 4600 C 426.977 -1.43959 5.02069 0
M  V30 4601 H 428.671 -0.554382 2.94223 0
M  V30 4602 H 426.217 -0.265221 1.41536 0
M  V30 4603 H 428.17 -2.99117 2.96828 0
M  V30 4604 H 426.894 -2.7592 1.74745 0
M  V30 4605 H 425.553 -1.39797 3.38899 0
M  V30 4606 H 425.201 -3.86795 3.21556 0
M  V30 4607 H 424.901 -3.28498 4.87199 0
M  V30 4608 H 426.425 -4.13628 4.4916 0
M  V30 4609 H 427.839 -2.03696 5.35893 0
M  V30 4610 H 426.236 -1.40452 5.83432 0
M  V30 4611 H 427.306 -0.407992 4.83181 0
M  V30 4612 N 428.649 -1.55105 -0.279332 0
M  V30 4613 C 430.065 -1.46803 -0.626187 0
M  V30 4614 C 430.265 -0.676939 -1.89789 0
M  V30 4615 O 429.321 -0.19326 -2.51759 0
M  V30 4616 C 430.634 -2.90962 -0.759034 0
M  V30 4617 C 432.182 -3.01138 -0.853504 0
M  V30 4618 C 432.657 -4.46539 -1.01818 0
M  V30 4619 N 434.148 -4.50341 -1.08386 0
M  V30 4620 C 434.883 -5.60053 -1.22996 0
M  V30 4621 N 434.379 -6.79645 -1.34366 0
M  V30 4622 N 436.172 -5.47783 -1.26056 0
M  V30 4623 H 428.323 -2.04996 0.555921 0
M  V30 4624 H 430.586 -0.929325 0.187239 0
M  V30 4625 H 430.292 -3.51544 0.104852 0
M  V30 4626 H 430.166 -3.39619 -1.64131 0
M  V30 4627 H 432.553 -2.40658 -1.70786 0
M  V30 4628 H 432.634 -2.55745 0.0532466 0
M  V30 4629 H 432.278 -5.0762 -0.168504 0
M  V30 4630 H 432.208 -4.89583 -1.93948 0
M  V30 4631 H 434.699 -3.64191 -1.00864 0
M  V30 4632 H 435.012 -7.59012 -1.4533 0
M  V30 4633 H 433.357 -6.82469 -1.31382 0
M  V30 4634 H 436.548 -4.53294 -1.168 0
M  V30 4635 H 436.721 -6.33331 -1.37098 0
M  V30 4636 N 430.127 0.543554 -1.4793 0
M  V30 4637 C 431.06 1.66556 -1.55995 0
M  V30 4638 C 432.038 1.57315 -0.411205 0
M  V30 4639 O 433.222 1.7798 -0.620922 0
M  V30 4640 C 430.349 3.04883 -1.47527 0
M  V30 4641 C 429.395 3.32526 -2.67074 0
M  V30 4642 S 430.228 3.20282 -4.29162 0
M  V30 4643 C 431.384 4.61079 -4.23269 0
M  V30 4644 H 431.617 1.59462 -2.50917 0
M  V30 4645 H 429.15 0.725456 -1.36296 0
M  V30 4646 H 431.108 3.84665 -1.43328 0
M  V30 4647 H 429.769 3.09429 -0.539665 0
M  V30 4648 H 428.962 4.33403 -2.5725 0
M  V30 4649 H 428.564 2.60389 -2.68466 0
M  V30 4650 H 430.856 5.52318 -3.92365 0
M  V30 4651 H 431.799 4.75959 -5.24279 0
M  V30 4652 H 432.207 4.39766 -3.5393 0
M  V30 4653 N 431.605 1.3629 0.791371 0
M  V30 4654 C 432.568 1.30309 1.88553 0
M  V30 4655 C 433.568 0.211204 1.59407 0
M  V30 4656 O 434.758 0.465865 1.67855 0
M  V30 4657 C 431.89 1.01956 3.25297 0
M  V30 4658 H 433.083 2.27614 1.95273 0
M  V30 4659 H 430.636 1.21035 0.988953 0
M  V30 4660 H 431.371 0.050998 3.2426 0
M  V30 4661 H 431.156 1.80968 3.4784 0
M  V30 4662 H 432.646 1.0037 4.05359 0
M  V30 4663 N 433.083 -1.0153 1.20538 0
M  V30 4664 C 434.311 -1.78746 1.04199 0
M  V30 4665 C 434.726 -1.84323 -0.408733 0
M  V30 4666 O 434.083 -1.29714 -1.28377 0
M  V30 4667 C 434.134 -3.23152 1.62035 0
M  V30 4668 O 433.855 -3.17918 3.0143 0
M  V30 4669 C 435.356 -4.16911 1.50666 0
M  V30 4670 H 432.576 -0.56208 0.366479 0
M  V30 4671 H 435.12 -1.27794 1.59653 0
M  V30 4672 H 433.275 -3.71248 1.10697 0
M  V30 4673 H 433.689 -4.08567 3.28897 0
M  V30 4674 H 435.163 -5.16072 1.95892 0
M  V30 4675 H 435.64 -4.36791 0.459363 0
M  V30 4676 H 436.246 -3.74698 2.01201 0
M  V30 4677 N 434.561 -1.01147 -1.20859 0
M  V30 4678 C 435.807 -0.708598 -1.90658 0
M  V30 4679 C 436.162 0.753069 -1.7705 0
M  V30 4680 O 435.455 1.53952 -1.14059 0
M  V30 4681 C 435.649 -1.0727 -3.40922 0
M  V30 4682 C 435.478 -2.56821 -3.69152 0
M  V30 4683 C 434.248 -3.23524 -3.8815 0
M  V30 4684 C 436.446 -3.54997 -3.72131 0
M  V30 4685 N 434.428 -4.62359 -4.03853 0
M  V30 4686 C 435.799 -4.79371 -3.93196 0
M  V30 4687 C 437.854 -3.49042 -3.55069 0
M  V30 4688 C 436.557 -5.98512 -3.98969 0
M  V30 4689 C 438.583 -4.67579 -3.6211 0
M  V30 4690 C 437.945 -5.9076 -3.83643 0
M  V30 4691 H 434.044 -0.31088 -0.71755 0
M  V30 4692 H 436.628 -1.29526 -1.45366 0
M  V30 4693 H 434.799 -0.51443 -3.84978 0
M  V30 4694 H 436.531 -0.723891 -3.98173 0
M  V30 4695 H 433.286 -2.73958 -3.86321 0
M  V30 4696 H 433.71 -5.34427 -4.15592 0
M  V30 4697 H 438.352 -2.54808 -3.37391 0
M  V30 4698 H 436.07 -6.93132 -4.15444 0
M  V30 4699 H 439.656 -4.64581 -3.50222 0
M  V30 4700 H 438.536 -6.8095 -3.88944 0
M  V30 4701 N 436.039 1.36541 -0.78704 0
M  V30 4702 C 436.987 2.31965 -0.171724 0
M  V30 4703 C 437.981 1.55689 0.667631 0
M  V30 4704 O 439.187 1.70969 0.562981 0
M  V30 4705 H 435.562 0.751101 -0.0367545 0
M  V30 4706 H 437.533 2.81428 -0.992017 0
M  V30 4707 C 436.282 3.40968 0.680904 0
M  V30 4708 H 435.605 3.99775 0.0443961 0
M  V30 4709 H 437.045 4.10063 1.07815 0
M  V30 4710 C 435.504 2.82338 1.83813 0
M  V30 4711 O 436.034 2.74311 2.93456 0
M  V30 4712 N 434.24 2.39661 1.6435 0
M  V30 4713 H 433.787 2.46389 0.751668 0
M  V30 4714 H 433.745 2.00779 2.4194 0
M  V30 4715 N 437.518 0.538854 1.48102 0
M  V30 4716 C 438.45 -0.256278 2.27763 0
M  V30 4717 C 439.463 -0.89633 1.35904 0
M  V30 4718 O 440.652 -0.773275 1.60881 0
M  V30 4719 C 437.752 -1.37896 3.09577 0
M  V30 4720 C 436.925 -0.839159 4.29275 0
M  V30 4721 C 435.984 -1.84405 4.9283 0
M  V30 4722 O 435.01 -1.39746 5.51779 0
M  V30 4723 N 436.212 -3.17666 4.85869 0
M  V30 4724 H 438.977 0.426968 2.96643 0
M  V30 4725 H 436.538 0.373747 1.57527 0
M  V30 4726 H 438.53 -2.04955 3.48963 0
M  V30 4727 H 437.1 -1.96572 2.4306 0
M  V30 4728 H 436.32 0.00769287 3.94199 0
M  V30 4729 H 437.608 -0.457548 5.06739 0
M  V30 4730 H 437.006 -3.56609 4.39143 0
M  V30 4731 H 435.563 -3.80334 5.29329 0
M  V30 4732 N 438.996 -1.55193 0.274407 0
M  V30 4733 C 440.245 -1.98758 -0.343213 0
M  V30 4734 C 440.558 -1.16624 -1.5703 0
M  V30 4735 O 441.764 -1.5033 -2.26082 0
M  V30 4736 C 440.22 -3.53759 -0.661996 0
M  V30 4737 C 439.828 -4.4467 0.54524 0
M  V30 4738 C 441.572 -4.05916 -1.24228 0
M  V30 4739 C 439.479 -5.91058 0.201084 0
M  V30 4740 H 438.409 -0.742353 -0.132014 0
M  V30 4741 H 441.06 -1.79545 0.378948 0
M  V30 4742 H 439.442 -3.68772 -1.44304 0
M  V30 4743 H 440.616 -4.41426 1.32212 0
M  V30 4744 H 438.931 -4.03143 1.04232 0
M  V30 4745 H 441.528 -5.12831 -1.51357 0
M  V30 4746 H 441.871 -3.54908 -2.17592 0
M  V30 4747 H 442.404 -3.9434 -0.523542 0
M  V30 4748 H 439.143 -6.46161 1.10258 0
M  V30 4749 H 438.663 -5.97373 -0.539045 0
M  V30 4750 H 440.342 -6.46669 -0.206954 0
M  V30 4751 N 440.474 -0.00167713 -1.576 0
M  V30 4752 C 441.404 0.988091 -2.11563 0
M  V30 4753 C 442.385 1.35736 -1.02517 0
M  V30 4754 O 443.57 1.44082 -1.30208 0
M  V30 4755 C 440.7 2.27941 -2.62031 0
M  V30 4756 C 439.654 2.0517 -3.75619 0
M  V30 4757 C 438.98 3.4033 -4.12407 0
M  V30 4758 C 440.28 1.41294 -5.02825 0
M  V30 4759 H 441.974 0.538771 -2.94513 0
M  V30 4760 H 439.52 0.257712 -1.41675 0
M  V30 4761 H 441.473 2.97539 -2.9841 0
M  V30 4762 H 440.197 2.74989 -1.76205 0
M  V30 4763 H 438.856 1.37998 -3.39635 0
M  V30 4764 H 438.504 3.85085 -3.23603 0
M  V30 4765 H 438.204 3.25909 -4.88935 0
M  V30 4766 H 439.728 4.1124 -4.51347 0
M  V30 4767 H 441.142 2.00851 -5.36965 0
M  V30 4768 H 439.539 1.37356 -5.84169 0
M  V30 4769 H 440.609 0.382362 -4.8339 0
M  V30 4770 N 441.952 1.55251 0.271103 0
M  V30 4771 C 443.229 1.66664 1.02384 0
M  V30 4772 C 443.609 0.534363 2.04225 0
M  V30 4773 O 442.957 -0.465337 2.23712 0
M  V30 4774 C 443.167 3.05961 1.67895 0
M  V30 4775 C 444.515 3.63772 2.18986 0
M  V30 4776 O 445.539 3.08606 1.77878 0
M  V30 4777 O 444.398 4.60429 2.94393 0
M  V30 4778 H 441.492 0.676957 0.475035 0
M  V30 4779 H 444.038 1.67589 0.26681 0
M  V30 4780 H 442.81 3.79815 0.941071 0
M  V30 4781 H 442.433 3.08943 2.5028 0
M  V30 4782 N 443.43 -0.535701 1.48216 0
M  V30 4783 C 444.841 -1.11769 1.49548 0
M  V30 4784 C 445.192 -1.94442 0.26207 0
M  V30 4785 O 444.317 -2.06987 -0.631287 0
M  V30 4786 C 444.912 -2.03367 2.70975 0
M  V30 4787 C 443.471 -2.56795 2.75196 0
M  V30 4788 C 442.618 -1.33631 2.42977 0
M  V30 4789 H 445.569 -0.321232 1.55415 0
M  V30 4790 H 445.59 -2.87569 2.49167 0
M  V30 4791 H 445.102 -1.43169 3.60727 0
M  V30 4792 H 443.203 -3.20731 1.89638 0
M  V30 4793 H 443.316 -2.9632 3.76472 0
M  V30 4794 H 441.68 -1.6502 1.94012 0
M  V30 4795 H 442.463 -0.75194 3.34964 0
M  V30 4796 N 444.908 -1.36708 -0.784132 0
M  V30 4797 C 446.154 -1.32433 -1.54379 0
M  V30 4798 C 446.509 0.0941816 -1.92169 0
M  V30 4799 O 445.802 1.04997 -1.60269 0
M  V30 4800 C 445.996 -2.18571 -2.82774 0
M  V30 4801 C 445.825 -3.68656 -2.57533 0
M  V30 4802 C 444.595 -4.37813 -2.52286 0
M  V30 4803 C 446.793 -4.61802 -2.2637 0
M  V30 4804 N 444.775 -5.7351 -2.18997 0
M  V30 4805 C 446.146 -5.85785 -2.03115 0
M  V30 4806 C 448.201 -4.50313 -2.12421 0
M  V30 4807 C 446.904 -6.99569 -1.67321 0
M  V30 4808 C 448.93 -5.63969 -1.78026 0
M  V30 4809 C 448.292 -6.86994 -1.55622 0
M  V30 4810 H 444.391 -0.539886 -0.565727 0
M  V30 4811 H 446.975 -1.71812 -0.915908 0
M  V30 4812 H 445.146 -1.81429 -3.43421 0
M  V30 4813 H 446.878 -2.05646 -3.48557 0
M  V30 4814 H 443.633 -3.90674 -2.67714 0
M  V30 4815 H 444.057 -6.45189 -2.05084 0
M  V30 4816 H 448.699 -3.55781 -2.28429 0
M  V30 4817 H 446.417 -7.94047 -1.5005 0
M  V30 4818 H 450.003 -5.57044 -1.67909 0
M  V30 4819 H 448.883 -7.7345 -1.294 0
M  V30 4820 N 446.386 1.0089 -1.21074 0
M  V30 4821 C 447.632 1.74866 -1.02712 0
M  V30 4822 C 447.965 1.89178 0.438787 0
M  V30 4823 O 447.24 1.42325 1.32567 0
M  V30 4824 C 447.523 3.16347 -1.72036 0
M  V30 4825 C 447.376 3.09782 -3.26121 0
M  V30 4826 C 448.695 4.15187 -1.45973 0
M  V30 4827 H 445.814 0.634736 -0.374539 0
M  V30 4828 H 448.456 1.17646 -1.49196 0
M  V30 4829 H 446.606 3.65201 -1.32517 0
M  V30 4830 H 448.278 2.68673 -3.74983 0
M  V30 4831 H 446.521 2.46982 -3.56626 0
M  V30 4832 H 447.192 4.09829 -3.6979 0
M  V30 4833 H 449.668 3.75022 -1.80272 0
M  V30 4834 H 448.544 5.12331 -1.96999 0
M  V30 4835 H 448.805 4.40386 -0.388924 0
M  V30 4836 N 447.864 1.01787 1.20321 0
M  V30 4837 C 449.094 0.72614 1.93419 0
M  V30 4838 C 449.502 -0.717317 1.75075 0
M  V30 4839 O 448.845 -1.49836 1.06278 0
M  V30 4840 C 448.907 0.983621 3.45782 0
M  V30 4841 C 448.571 2.41645 3.87888 0
M  V30 4842 C 449.568 3.39732 3.93545 0
M  V30 4843 C 447.253 2.75752 4.19841 0
M  V30 4844 C 449.247 4.69988 4.30569 0
M  V30 4845 C 446.934 4.06221 4.56539 0
M  V30 4846 C 447.932 5.0315 4.61876 0
M  V30 4847 O 447.62 6.31284 4.97731 0
M  V30 4848 H 447.352 0.265824 0.621541 0
M  V30 4849 H 449.906 1.3623 1.53722 0
M  V30 4850 H 448.136 0.290301 3.85609 0
M  V30 4851 H 449.825 0.683279 4.00108 0
M  V30 4852 H 450.591 3.14718 3.69022 0
M  V30 4853 H 446.47 2.00993 4.14877 0
M  V30 4854 H 450.014 5.45642 4.3465 0
M  V30 4855 H 445.911 4.31013 4.80518 0
M  V30 4856 H 446.679 6.35591 5.15719 0
M  V30 4857 N 449.342 -1.36122 0.79427 0
M  V30 4858 C 450.591 -1.98361 0.365464 0
M  V30 4859 C 450.904 -1.6374 -1.06997 0
M  V30 4860 O 452.11 -2.19251 -1.60129 0
M  V30 4861 C 450.566 -3.54821 0.602496 0
M  V30 4862 C 450.174 -3.98362 2.04967 0
M  V30 4863 C 451.918 -4.2383 0.238437 0
M  V30 4864 C 449.825 -5.47619 2.2331 0
M  V30 4865 H 448.755 -0.742193 0.13291 0
M  V30 4866 H 451.406 -1.55354 0.976589 0
M  V30 4867 H 449.788 -3.95922 -0.078409 0
M  V30 4868 H 450.962 -3.68447 2.76737 0
M  V30 4869 H 449.277 -3.42206 2.37243 0
M  V30 4870 H 451.874 -5.33529 0.353705 0
M  V30 4871 H 452.217 -4.08264 -0.814006 0
M  V30 4872 H 452.75 -3.88108 0.872769 0
M  V30 4873 H 449.489 -5.68138 3.26955 0
M  V30 4874 H 449.009 -5.79145 1.5605 0
M  V30 4875 H 450.688 -6.13911 2.0426 0
M  V30 4876 N 450.82 -0.546701 -1.47814 0
M  V30 4877 C 451.75 0.195317 -2.32682 0
M  V30 4878 C 452.731 0.918981 -1.43139 0
M  V30 4879 O 453.916 0.901501 -1.72008 0
M  V30 4880 C 451.046 1.23237 -3.247 0
M  V30 4881 C 450 0.625818 -4.234 0
M  V30 4882 C 449.326 1.76674 -5.04669 0
M  V30 4883 C 450.626 -0.413515 -5.2066 0
M  V30 4884 H 452.32 -0.513184 -2.94969 0
M  V30 4885 H 449.866 -0.248241 -1.41844 0
M  V30 4886 H 451.819 1.75955 -3.82907 0
M  V30 4887 H 450.543 1.97067 -2.60446 0
M  V30 4888 H 449.202 0.120023 -3.66403 0
M  V30 4889 H 448.85 2.49383 -4.36826 0
M  V30 4890 H 448.55 1.36673 -5.71484 0
M  V30 4891 H 450.074 2.29738 -5.65732 0
M  V30 4892 H 451.488 0.0272042 -5.73294 0
M  V30 4893 H 449.885 -0.731825 -5.95621 0
M  V30 4894 H 450.955 -1.31325 -4.66778 0
M  V30 4895 N 452.299 1.55045 -0.282633 0
M  V30 4896 C 453.229 2.2579 0.595066 0
M  V30 4897 C 454.21 1.25074 1.15284 0
M  V30 4898 O 455.395 1.5381 1.18559 0
M  V30 4899 C 452.525 2.98472 1.77572 0
M  V30 4900 C 451.479 4.0618 1.34914 0
M  V30 4901 C 450.805 4.66477 2.6135 0
M  V30 4902 C 452.105 5.1996 0.493821 0
M  V30 4903 H 453.799 2.994 0.00505653 0
M  V30 4904 H 451.345 1.44 0.000992001 0
M  V30 4905 H 453.298 3.46677 2.39568 0
M  V30 4906 H 452.022 2.2241 2.39168 0
M  V30 4907 H 450.681 3.58797 0.752338 0
M  V30 4908 H 450.329 3.87074 3.2122 0
M  V30 4909 H 450.029 5.39207 2.33516 0
M  V30 4910 H 451.553 5.17435 3.24181 0
M  V30 4911 H 452.967 5.64172 1.01898 0
M  V30 4912 H 451.364 5.99299 0.310047 0
M  V30 4913 H 452.434 4.82462 -0.485593 0
M  V30 4914 N 453.777 0.010035 1.57597 0
M  V30 4915 C 455.193 -0.346164 1.55801 0
M  V30 4916 C 455.393 -1.74144 1.01371 0
M  V30 4917 O 454.449 -2.43938 0.651968 0
M  V30 4918 C 455.762 -0.212216 2.9995 0
M  V30 4919 C 457.31 -0.286409 3.11687 0
M  V30 4920 C 457.785 -0.18147 4.5764 0
M  V30 4921 N 459.276 -0.239056 4.62583 0
M  V30 4922 C 460.011 -0.181351 5.73113 0
M  V30 4923 N 459.507 -0.073661 6.92761 0
M  V30 4924 N 461.3 -0.233949 5.61613 0
M  V30 4925 H 453.451 0.922657 1.91313 0
M  V30 4926 H 455.714 0.354595 0.879185 0
M  V30 4927 H 455.42 0.748169 3.4365 0
M  V30 4928 H 455.294 -0.990224 3.6397 0
M  V30 4929 H 457.681 -1.23724 2.67911 0
M  V30 4930 H 457.762 0.521645 2.50425 0
M  V30 4931 H 457.406 0.765863 5.02093 0
M  V30 4932 H 457.336 -1.00814 5.1686 0
M  V30 4933 H 459.827 -0.32321 3.76515 0
M  V30 4934 H 460.14 -0.0358003 7.72792 0
M  V30 4935 H 458.485 -0.0391461 6.94989 0
M  V30 4936 H 461.676 -0.316347 4.6703 0
M  V30 4937 H 461.849 -0.185514 6.47734 0
M  V30 4938 N 455.255 -1.55392 -0.262866 0
M  V30 4939 C 456.202 -1.88966 -1.32516 0
M  V30 4940 C 457.172 -0.742187 -1.48596 0
M  V30 4941 O 458.357 -0.99439 -1.62839 0
M  V30 4942 C 455.497 -2.17592 -2.67858 0
M  V30 4943 C 454.61 -3.45061 -2.59917 0
M  V30 4944 C 453.745 -3.63336 -3.87505 0
M  V30 4945 C 452.784 -4.84462 -3.74116 0
M  V30 4946 N 451.921 -4.99342 -4.93561 0
M  V30 4947 H 456.761 -2.79566 -1.03184 0
M  V30 4948 H 454.298 -1.38404 -0.498285 0
M  V30 4949 H 456.256 -2.3219 -3.46617 0
M  V30 4950 H 454.886 -1.30215 -2.95371 0
M  V30 4951 H 453.938 -3.38881 -1.72812 0
M  V30 4952 H 455.25 -4.3396 -2.45926 0
M  V30 4953 H 454.404 -3.77807 -4.74707 0
M  V30 4954 H 453.143 -2.72641 -4.04374 0
M  V30 4955 H 452.148 -4.69985 -2.85297 0
M  V30 4956 H 453.373 -5.76603 -3.58757 0
M  V30 4957 H 451.319 -4.1158 -5.10821 0
M  V30 4958 H 451.236 -5.82303 -4.82141 0
M  V30 4959 H 452.504 -5.18208 -5.82306 0
M  V30 4960 N 456.733 0.527833 -1.48498 0
M  V30 4961 C 457.696 1.61439 -1.62696 0
M  V30 4962 C 458.696 1.52824 -0.500136 0
M  V30 4963 O 459.886 1.56456 -0.765976 0
M  V30 4964 C 457.018 3.01063 -1.59918 0
M  V30 4965 H 458.211 1.50189 -2.59583 0
M  V30 4966 H 455.764 0.750055 -1.37127 0
M  V30 4967 H 456.499 3.17818 -0.645163 0
M  V30 4968 H 456.284 3.08725 -2.41726 0
M  V30 4969 H 457.774 3.80057 -1.73051 0
M  V30 4970 N 458.211 1.37122 0.776871 0
M  V30 4971 C 459.457 1.32243 1.53752 0
M  V30 4972 C 459.79 -0.0944745 1.9397 0
M  V30 4973 O 459.065 -1.05068 1.6368 0
M  V30 4974 C 459.348 2.25681 2.80607 0
M  V30 4975 C 459.201 3.76127 2.46676 0
M  V30 4976 C 460.52 2.17657 3.82509 0
M  V30 4977 H 457.639 0.481704 0.557791 0
M  V30 4978 H 460.281 1.6778 0.891612 0
M  V30 4979 H 458.431 1.95505 3.35723 0
M  V30 4980 H 460.103 4.16877 1.97513 0
M  V30 4981 H 458.346 3.94946 1.79443 0
M  V30 4982 H 459.017 4.36933 3.37333 0
M  V30 4983 H 461.493 2.44245 3.36873 0
M  V30 4984 H 460.369 2.85185 4.69 0
M  V30 4985 H 460.63 1.16785 4.26396 0
M  V30 4986 N 459.689 -1.00246 1.21608 0
M  V30 4987 C 460.619 -2.10921 1.00172 0
M  V30 4988 C 461.6 -1.69938 -0.0741587 0
M  V30 4989 O 462.785 -1.94009 0.0861753 0
M  V30 4990 C 459.915 -3.42618 0.568355 0
M  V30 4991 C 458.869 -3.97407 1.58909 0
M  V30 4992 C 458.195 -5.25038 1.01187 0
M  V30 4993 C 459.495 -4.2918 2.97661 0
M  V30 4994 H 461.189 -2.29112 1.92739 0
M  V30 4995 H 458.735 -1.10101 0.928102 0
M  V30 4996 H 460.688 -4.19444 0.405555 0
M  V30 4997 H 459.412 -3.24227 -0.392961 0
M  V30 4998 H 458.071 -3.22703 1.73949 0
M  V30 4999 H 457.719 -5.02982 0.0421965 0
M  V30 5000 H 457.419 -5.62661 1.6937 0
M  V30 5001 H 458.943 -6.04507 0.860448 0
M  V30 5002 H 460.357 -4.96839 2.86049 0
M  V30 5003 H 458.754 -4.77952 3.6288 0
M  V30 5004 H 459.824 -3.3735 3.48315 0
M  V30 5005 N 461.167 -1.02423 -1.1978 0
M  V30 5006 C 462.114 -0.601023 -2.22837 0
M  V30 5007 C 463.084 0.382801 -1.61629 0
M  V30 5008 O 464.269 0.280514 -1.88727 0
M  V30 5009 C 461.409 0.0467755 -3.45068 0
M  V30 5010 C 460.522 -0.98253 -4.20678 0
M  V30 5011 C 459.657 -0.304982 -5.30324 0
M  V30 5012 C 458.696 -1.32052 -5.97686 0
M  V30 5013 N 457.833 -0.669105 -6.98904 0
M  V30 5014 H 462.673 -1.48444 -2.58396 0
M  V30 5015 H 460.21 -0.742936 -1.2696 0
M  V30 5016 H 462.168 0.439556 -4.14878 0
M  V30 5017 H 460.798 0.893796 -3.10179 0
M  V30 5018 H 459.85 -1.49341 -3.49859 0
M  V30 5019 H 461.162 -1.75455 -4.66923 0
M  V30 5020 H 460.316 0.142893 -6.06532 0
M  V30 5021 H 459.055 0.499283 -4.85138 0
M  V30 5022 H 458.06 -1.7787 -5.20233 0
M  V30 5023 H 459.285 -2.1262 -6.44957 0
M  V30 5024 H 457.231 0.115152 -6.55899 0
M  V30 5025 H 457.148 -1.37908 -7.43315 0
M  V30 5026 H 458.416 -0.245076 -7.79115 0
M  V30 5027 N 462.645 1.35699 -0.801477 0
M  V30 5028 C 463.593 2.3177 -0.196317 0
M  V30 5029 C 464.587 1.56388 0.651081 0
M  V30 5030 O 465.793 1.71557 0.544815 0
M  V30 5031 H 462.168 0.750669 -0.0447189 0
M  V30 5032 H 464.139 2.8036 -1.02181 0
M  V30 5033 C 462.888 3.41671 0.644702 0
M  V30 5034 H 462.211 3.998 0.0019921 0
M  V30 5035 H 463.651 4.11184 1.0346 0
M  V30 5036 C 462.11 2.84271 1.80808 0
M  V30 5037 O 462.64 2.77408 2.9053 0
M  V30 5038 N 460.846 2.41391 1.61799 0
M  V30 5039 H 460.393 2.47173 0.725493 0
M  V30 5040 H 460.351 2.03334 2.39797 0
M  V30 5041 N 464.123 0.554532 1.47522 0
M  V30 5042 C 465.053 -0.182974 2.32782 0
M  V30 5043 C 466.034 -0.911377 1.43624 0
M  V30 5044 O 467.219 -0.892366 1.72483 0
M  V30 5045 C 464.349 -1.21513 3.25349 0
M  V30 5046 C 463.303 -0.603355 4.23726 0
M  V30 5047 C 462.629 -1.73995 5.05598 0
M  V30 5048 C 463.929 0.441121 5.20434 0
M  V30 5049 H 465.623 0.52882 2.94693 0
M  V30 5050 H 463.169 0.255759 1.41711 0
M  V30 5051 H 465.122 -1.73922 3.83835 0
M  V30 5052 H 463.846 -1.95683 2.61487 0
M  V30 5053 H 462.505 -0.10059 3.66462 0
M  V30 5054 H 462.153 -2.47063 4.38143 0
M  V30 5055 H 461.853 -1.3364 5.72201 0
M  V30 5056 H 463.377 -2.26735 5.66942 0
M  V30 5057 H 464.791 0.00319931 5.733 0
M  V30 5058 H 463.188 0.763402 5.95224 0
M  V30 5059 H 464.258 1.33799 4.66075 0
M  V30 5060 N 465.601 -1.54893 0.290851 0
M  V30 5061 C 466.831 -2.04047 -0.323818 0
M  V30 5062 C 467.239 -1.16809 -1.48837 0
M  V30 5063 O 466.582 -0.184145 -1.82775 0
M  V30 5064 C 466.644 -3.49248 -0.852395 0
M  V30 5065 C 466.308 -4.56623 0.185557 0
M  V30 5066 C 467.305 -5.09985 1.01053 0
M  V30 5067 C 464.99 -5.01252 0.324332 0
M  V30 5068 C 466.984 -6.06507 1.96031 0
M  V30 5069 C 464.671 -5.97596 1.27757 0
M  V30 5070 C 465.669 -6.50107 2.09405 0
M  V30 5071 O 465.357 -7.44565 3.03114 0
M  V30 5072 H 465.089 -0.671735 -0.0758129 0
M  V30 5073 H 467.643 -2.00947 0.425393 0
M  V30 5074 H 465.873 -3.49639 -1.65195 0
M  V30 5075 H 467.562 -3.81654 -1.38185 0
M  V30 5076 H 468.328 -4.76307 0.914129 0
M  V30 5077 H 464.207 -4.60015 -0.301213 0
M  V30 5078 H 467.751 -6.47418 2.598 0
M  V30 5079 H 463.648 -6.30691 1.37473 0
M  V30 5080 H 464.416 -7.62334 2.97976 0
M  V30 5081 N 467.08 -0.0183926 -1.57589 0
M  V30 5082 C 468.027 0.967022 -2.09565 0
M  V30 5083 C 468.997 1.32983 -0.995225 0
M  V30 5084 O 470.182 1.42501 -1.26878 0
M  V30 5085 C 467.322 2.24772 -2.61861 0
M  V30 5086 C 466.435 1.94232 -3.85873 0
M  V30 5087 C 465.57 3.16518 -4.26603 0
M  V30 5088 C 464.609 2.81748 -5.43401 0
M  V30 5089 N 463.746 3.96626 -5.79338 0
M  V30 5090 H 468.586 0.516874 -2.93483 0
M  V30 5091 H 466.123 0.243544 -1.4507 0
M  V30 5092 H 468.081 2.99667 -2.90268 0
M  V30 5093 H 466.711 2.67423 -1.8079 0
M  V30 5094 H 465.763 1.09625 -3.64262 0
M  V30 5095 H 467.075 1.64616 -4.70853 0
M  V30 5096 H 466.229 3.99743 -4.56389 0
M  V30 5097 H 464.968 3.49286 -3.40368 0
M  V30 5098 H 463.973 1.96933 -5.1332 0
M  V30 5099 H 465.198 2.50207 -6.31327 0
M  V30 5100 H 463.144 4.29257 -4.96059 0
M  V30 5101 H 463.061 3.70598 -6.58933 0
M  V30 5102 H 464.329 4.80586 -6.13724 0
M  V30 5103 N 468.558 1.5553 0.254621 0
M  V30 5104 C 469.488 1.9268 1.31897 0
M  V30 5105 C 470.469 0.790797 1.506 0
M  V30 5106 O 471.654 1.05045 1.63337 0
M  V30 5107 C 468.784 2.21477 2.67517 0
M  V30 5108 C 467.738 3.37256 2.63519 0
M  V30 5109 C 467.064 3.51576 4.02862 0
M  V30 5110 C 468.364 4.73157 2.21179 0
M  V30 5111 H 470.058 2.81832 1.01051 0
M  V30 5112 H 467.604 1.35599 0.484662 0
M  V30 5113 H 469.557 2.46055 3.42104 0
M  V30 5114 H 468.281 1.29144 2.99982 0
M  V30 5115 H 466.94 3.12675 1.9139 0
M  V30 5116 H 466.588 2.56676 4.32581 0
M  V30 5117 H 466.288 4.2943 4.01078 0
M  V30 5118 H 467.812 3.78467 4.79161 0
M  V30 5119 H 469.226 4.97158 2.85494 0
M  V30 5120 H 467.623 5.54058 2.30521 0
M  V30 5121 H 468.693 4.70739 1.16332 0
M  V30 5122 N 470.036 -0.519951 1.48776 0
M  V30 5123 C 470.999 -1.60574 1.6355 0
M  V30 5124 C 471.999 -1.52557 0.508234 0
M  V30 5125 O 473.189 -1.56047 0.774262 0
M  V30 5126 C 470.321 -3.00211 1.61512 0
M  V30 5127 H 471.514 -1.4881 2.60376 0
M  V30 5128 H 469.067 -0.742772 1.37523 0
M  V30 5129 H 469.802 -3.17471 0.662009 0
M  V30 5130 H 469.587 -3.07439 2.43359 0
M  V30 5131 H 471.077 -3.79134 1.75064 0
M  V30 5132 N 471.514 -1.37532 -0.769588 0
M  V30 5133 C 472.739 -1.36231 -1.56384 0
M  V30 5134 C 473.164 0.0495849 -1.88035 0
M  V30 5135 O 472.522 1.02723 -1.49391 0
M  V30 5136 C 472.57 -2.20986 -2.84952 0
M  V30 5137 O 471.674 -1.61597 -3.79421 0
M  V30 5138 H 471.015 -0.465387 -0.473615 0
M  V30 5139 H 473.545 -1.81085 -0.952342 0
M  V30 5140 H 473.555 -2.34277 -3.34034 0
M  V30 5141 H 472.23 -3.23612 -2.61243 0
M  V30 5142 H 470.807 -1.57359 -3.38072 0
M  V30 5143 N 472.992 0.995999 -1.22138 0
M  V30 5144 C 473.924 2.08745 -0.946485 0
M  V30 5145 C 474.937 1.62633 0.0737356 0
M  V30 5146 O 476.126 1.77782 -0.159886 0
M  V30 5147 C 473.226 3.36516 -0.401305 0
M  V30 5148 C 472.399 4.11672 -1.47801 0
M  V30 5149 C 471.458 5.17728 -0.940461 0
M  V30 5150 O 470.484 5.45482 -1.62596 0
M  V30 5151 N 471.686 5.80005 0.239723 0
M  V30 5152 H 474.451 2.32908 -1.88611 0
M  V30 5153 H 472.012 1.16152 -1.12785 0
M  V30 5154 H 474.004 4.04691 -0.0270837 0
M  V30 5155 H 472.574 3.0944 0.443354 0
M  V30 5156 H 471.794 3.38171 -2.02568 0
M  V30 5157 H 473.082 4.58657 -2.20253 0
M  V30 5158 H 472.48 5.5982 0.813518 0
M  V30 5159 H 471.037 6.4943 0.555361 0
M  V30 5160 N 474.47 1.03057 1.19235 0
M  V30 5161 C 475.71 0.736757 1.9066 0
M  V30 5162 C 476.074 -0.721521 1.77927 0
M  V30 5163 O 477.275 -1.12849 2.43964 0
M  V30 5164 C 475.546 1.17755 3.37444 0
M  V30 5165 S 477.105 1.00783 4.27069 0
M  V30 5166 H 473.923 0.268174 0.658486 0
M  V30 5167 H 476.525 1.32076 1.4414 0
M  V30 5168 H 475.229 2.23448 3.44237 0
M  V30 5169 H 474.76 0.586912 3.88997 0
M  V30 5170 H 476.775 -0.0806356 4.96134 0
M  V30 5171 N 475.948 -1.35272 0.808662 0
M  V30 5172 C 477.188 -2.00534 0.395668 0
M  V30 5173 C 477.552 -1.62755 -1.01857 0
M  V30 5174 O 478.753 -2.20752 -1.53368 0
M  V30 5175 C 477.024 -3.52732 0.575771 0
M  V30 5176 S 478.583 -4.38067 0.253507 0
M  V30 5177 H 475.401 -0.694962 0.150165 0
M  V30 5178 H 478.003 -1.64823 1.05137 0
M  V30 5179 H 476.707 -3.77714 1.60499 0
M  V30 5180 H 476.238 -3.93285 -0.0951739 0
M  V30 5181 H 478.253 -4.87252 -0.938068 0
M  V30 5182 N 477.426 -0.562348 -1.47226 0
M  V30 5183 C 478.674 -0.0401371 -2.0206 0
M  V30 5184 C 478.995 1.3165 -1.43852 0
M  V30 5185 O 478.265 1.85976 -0.615599 0
M  V30 5186 H 476.845 -0.0118479 -0.746906 0
M  V30 5187 H 479.507 -0.73352 -1.8057 0
M  V30 5188 H 478.603 0.0441254 -3.12069 0
M  V30 5189 N 478.904 1.54736 -0.299062 0
M  V30 5190 C 480.15 2.00397 0.311244 0
M  V30 5191 C 480.483 1.18716 1.53688 0
M  V30 5192 O 479.758 0.263154 1.92712 0
M  V30 5193 C 480.041 3.53817 0.669761 0
M  V30 5194 C 479.894 4.46239 -0.564882 0
M  V30 5195 C 481.213 4.13856 1.49702 0
M  V30 5196 H 478.332 0.728493 0.111653 0
M  V30 5197 H 480.974 1.85506 -0.410774 0
M  V30 5198 H 479.124 3.66637 1.28491 0
M  V30 5199 H 480.796 4.45328 -1.20337 0
M  V30 5200 H 479.039 4.16916 -1.19849 0
M  V30 5201 H 479.71 5.5134 -0.269918 0
M  V30 5202 H 482.186 4.04461 0.977284 0
M  V30 5203 H 481.062 5.21365 1.71666 0
M  V30 5204 H 481.323 3.65608 2.48563 0
M  V30 5205 N 480.382 0.0267497 1.57577 0
M  V30 5206 C 481.332 -0.965003 2.06571 0
M  V30 5207 C 482.316 -1.28694 0.965746 0
M  V30 5208 O 483.508 -1.27345 1.22932 0
M  V30 5209 C 480.637 -2.24821 2.59443 0
M  V30 5210 C 479.723 -1.95474 3.76365 0
M  V30 5211 N 480.114 -1.36387 4.87065 0
M  V30 5212 C 478.412 -2.25478 3.84806 0
M  V30 5213 C 479.113 -1.24119 5.68304 0
M  V30 5214 N 478.089 -1.7359 5.15138 0
M  V30 5215 H 481.891 -0.503095 2.89562 0
M  V30 5216 H 479.405 -0.178322 1.61418 0
M  V30 5217 H 481.402 -2.9674 2.92833 0
M  V30 5218 H 480.062 -2.7164 1.77881 0
M  V30 5219 H 481.073 -1.03919 5.07367 0
M  V30 5220 H 477.75 -2.74987 3.14147 0
M  V30 5221 H 479.14 -0.784504 6.67304 0
M  V30 5222 N 481.861 -1.55662 -0.24637 0
M  V30 5223 C 483.107 -1.77782 -0.975779 0
M  V30 5224 C 483.44 -0.592103 -1.84953 0
M  V30 5225 O 482.715 0.409588 -1.90138 0
M  V30 5226 C 482.998 -3.09788 -1.83584 0
M  V30 5227 C 482.851 -4.38764 -0.990241 0
M  V30 5228 C 484.17 -3.38029 -2.81823 0
M  V30 5229 H 481.289 -0.646789 -0.353317 0
M  V30 5230 H 483.931 -1.88398 -0.246248 0
M  V30 5231 H 482.081 -3.00869 -2.45784 0
M  V30 5232 H 483.753 -4.59675 -0.386897 0
M  V30 5233 H 481.996 -4.32798 -0.294626 0
M  V30 5234 H 482.667 -5.27514 -1.62584 0
M  V30 5235 H 485.143 -3.46915 -2.2976 0
M  V30 5236 H 484.019 -4.3161 -3.39122 0
M  V30 5237 H 484.28 -2.58968 -3.58313 0
M  V30 5238 N 483.339 0.512053 -1.4905 0
M  V30 5239 C 484.588 1.26343 -1.57227 0
M  V30 5240 C 484.901 1.93876 -0.259155 0
M  V30 5241 O 486.107 2.70612 -0.219358 0
M  V30 5242 C 484.563 2.29343 -2.77362 0
M  V30 5243 C 484.171 1.67799 -4.15388 0
M  V30 5244 C 485.915 3.05378 -2.94864 0
M  V30 5245 C 483.822 2.68845 -5.2676 0
M  V30 5246 H 482.752 0.475231 -0.585382 0
M  V30 5247 H 485.403 0.53862 -1.75417 0
M  V30 5248 H 483.785 3.04938 -2.52643 0
M  V30 5249 H 484.959 0.982715 -4.50199 0
M  V30 5250 H 483.274 1.04194 -4.03153 0
M  V30 5251 H 485.871 3.80921 -3.75238 0
M  V30 5252 H 486.214 3.62327 -2.05 0
M  V30 5253 H 486.747 2.36898 -3.19569 0
M  V30 5254 H 483.486 2.16692 -6.18647 0
M  V30 5255 H 483.006 3.36647 -4.96416 0
M  V30 5256 H 484.685 3.31487 -5.5563 0
M  V30 5257 N 484.817 1.37938 0.762283 0
M  V30 5258 C 486.042 1.37059 1.55659 0
M  V30 5259 C 486.467 -0.0396123 1.88058 0
M  V30 5260 O 485.825 -1.01929 1.49934 0
M  V30 5261 C 485.873 2.22494 2.83776 0
M  V30 5262 O 484.977 1.63607 3.78559 0
M  V30 5263 H 484.318 0.467892 0.47114 0
M  V30 5264 H 486.848 1.81587 0.942725 0
M  V30 5265 H 486.858 2.36045 3.32786 0
M  V30 5266 H 485.533 3.24993 2.59524 0
M  V30 5267 H 484.11 1.5915 3.37233 0
M  V30 5268 N 486.295 -0.989507 1.22664 0
M  V30 5269 C 487.225 -2.09847 1.02404 0
M  V30 5270 C 488.206 -1.70007 -0.0561303 0
M  V30 5271 O 489.391 -1.93906 0.106748 0
M  V30 5272 C 486.521 -3.41996 0.604663 0
M  V30 5273 C 485.475 -3.95699 1.63115 0
M  V30 5274 C 484.801 -5.23936 1.0675 0
M  V30 5275 C 486.101 -4.25999 3.02196 0
M  V30 5276 H 487.795 -2.27054 1.95158 0
M  V30 5277 H 485.341 -1.09111 0.939727 0
M  V30 5278 H 487.294 -4.1899 0.45002 0
M  V30 5279 H 486.018 -3.24626 -0.35855 0
M  V30 5280 H 484.677 -3.2084 1.77362 0
M  V30 5281 H 484.325 -5.02909 0.0955422 0
M  V30 5282 H 484.025 -5.60833 1.75328 0
M  V30 5283 H 485.549 -6.0356 0.924516 0
M  V30 5284 H 486.963 -4.93777 2.91303 0
M  V30 5285 H 485.36 -4.74076 3.67929 0
M  V30 5286 H 486.43 -3.33636 3.51873 0
M  V30 5287 N 487.773 -1.03688 -1.18687 0
M  V30 5288 C 488.723 -0.595067 -2.20098 0
M  V30 5289 C 489.707 0.360465 -1.5681 0
M  V30 5290 O 490.899 0.180136 -1.76081 0
M  V30 5291 C 488.028 0.0444495 -3.43271 0
M  V30 5292 C 487.114 -0.934002 -4.13687 0
M  V30 5293 N 487.505 -2.09957 -4.60165 0
M  V30 5294 C 485.803 -0.759177 -4.39491 0
M  V30 5295 C 486.504 -2.71735 -5.1433 0
M  V30 5296 N 485.48 -1.99638 -5.05614 0
M  V30 5297 H 489.282 -1.48336 -2.5372 0
M  V30 5298 H 486.796 -0.904949 -1.3485 0
M  V30 5299 H 488.793 0.37864 -4.15177 0
M  V30 5300 H 487.453 0.928325 -3.11147 0
M  V30 5301 H 488.464 -2.47863 -4.54735 0
M  V30 5302 H 485.141 0.0749292 -4.17433 0
M  V30 5303 H 486.531 -3.70492 -5.60523 0
M  V30 5304 N 489.251 1.34841 -0.815825 0
M  V30 5305 C 490.5 1.97755 -0.396976 0
M  V30 5306 C 490.813 1.65422 1.04379 0
M  V30 5307 O 492.019 2.21771 1.5662 0
M  V30 5308 C 490.475 3.53818 -0.658869 0
M  V30 5309 C 490.083 3.95051 -2.11278 0
M  V30 5310 C 491.827 4.23397 -0.305834 0
M  V30 5311 C 489.734 5.43997 -2.31994 0
M  V30 5312 H 488.664 0.739985 -0.1447 0
M  V30 5313 H 491.315 1.53781 -1.00118 0
M  V30 5314 H 489.697 3.95997 0.0154112 0
M  V30 5315 H 490.871 3.63998 -2.82564 0
M  V30 5316 H 489.186 3.38388 -2.42657 0
M  V30 5317 H 491.783 5.32899 -0.43854 0
M  V30 5318 H 492.126 4.09508 0.748952 0
M  V30 5319 H 492.659 3.8667 -0.934403 0
M  V30 5320 H 489.398 5.62865 -3.35952 0
M  V30 5321 H 488.918 5.76589 -1.65244 0
M  V30 5322 H 490.597 6.10584 -2.14001 0
M  V30 5323 N 490.729 0.570148 1.46925 0
M  V30 5324 C 491.975 0.0593124 2.03314 0
M  V30 5325 C 492.33 -1.28139 1.43521 0
M  V30 5326 O 491.623 -1.82411 0.586245 0
M  V30 5327 C 491.817 -0.0780336 3.57315 0
M  V30 5328 C 491.646 1.2478 4.32042 0
M  V30 5329 C 490.416 1.81859 4.7144 0
M  V30 5330 C 492.614 2.16808 4.66368 0
M  V30 5331 N 490.596 3.08313 5.30864 0
M  V30 5332 C 491.967 3.27845 5.2623 0
M  V30 5333 C 494.022 2.16643 4.48297 0
M  V30 5334 C 492.725 4.38832 5.69929 0
M  V30 5335 C 494.751 3.26652 4.93004 0
M  V30 5336 C 494.113 4.36408 5.52926 0
M  V30 5337 H 490.212 0.0641804 0.779362 0
M  V30 5338 H 492.796 0.760285 1.79242 0
M  V30 5339 H 490.967 -0.748151 3.81126 0
M  V30 5340 H 492.699 -0.59211 4.00345 0
M  V30 5341 H 489.454 1.35502 4.53802 0
M  V30 5342 H 489.878 3.72802 5.65108 0
M  V30 5343 H 494.52 1.33065 4.01315 0
M  V30 5344 H 492.238 5.23162 6.15896 0
M  V30 5345 H 495.824 3.27627 4.80782 0
M  V30 5346 H 494.704 5.20127 5.86888 0
M  V30 5347 N 492.207 -1.54576 0.307264 0
M  V30 5348 C 493.117 -2.27435 -0.57536 0
M  V30 5349 C 494.133 -1.31183 -1.14311 0
M  V30 5350 O 495.309 -1.64175 -1.16656 0
M  V30 5351 C 492.374 -3.00566 -1.72803 0
M  V30 5352 C 491.435 -4.12369 -1.19373 0
M  V30 5353 C 490.668 -4.82003 -2.29147 0
M  V30 5354 O 490.891 -4.51038 -3.49171 0
M  V30 5355 O 489.825 -5.69271 -1.95485 0
M  V30 5356 H 493.651 -3.03696 0.0158558 0
M  V30 5357 H 491.236 -1.49219 0.0735064 0
M  V30 5358 H 493.118 -3.46416 -2.39946 0
M  V30 5359 H 491.793 -2.27195 -2.30574 0
M  V30 5360 H 490.7 -3.70905 -0.487851 0
M  V30 5361 H 492.033 -4.87736 -0.661376 0
M  V30 5362 N 493.685 -0.035106 -1.57561 0
M  V30 5363 C 494.615 0.942993 -2.13612 0
M  V30 5364 C 495.596 1.33531 -1.05373 0
M  V30 5365 O 496.781 1.41287 -1.33235 0
M  V30 5366 C 493.911 2.22332 -2.66807 0
M  V30 5367 C 492.865 1.97156 -3.79886 0
M  V30 5368 C 492.191 3.31506 -4.19533 0
M  V30 5369 C 493.491 1.30596 -5.05709 0
M  V30 5370 H 495.185 0.476179 -2.95589 0
M  V30 5371 H 492.731 0.227602 -1.4219 0
M  V30 5372 H 494.684 2.91142 -3.04654 0
M  V30 5373 H 493.408 2.7119 -1.81999 0
M  V30 5374 H 492.067 1.30763 -3.42486 0
M  V30 5375 H 491.715 3.78134 -3.31698 0
M  V30 5376 H 491.415 3.15465 -4.95738 0
M  V30 5377 H 492.939 4.01574 -4.59968 0
M  V30 5378 H 494.353 1.89416 -5.41105 0
M  V30 5379 H 492.75 1.24934 -5.86951 0
M  V30 5380 H 493.82 0.279742 -4.84092 0
M  V30 5381 N 495.163 1.55791 0.238111 0
M  V30 5382 C 496.388 1.8244 0.986432 0
M  V30 5383 C 496.813 0.613314 1.7782 0
M  V30 5384 O 496.171 -0.437767 1.75935 0
M  V30 5385 C 496.219 3.06917 1.893 0
M  V30 5386 O 495.323 2.84449 2.98601 0
M  V30 5387 H 494.664 0.601975 0.280218 0
M  V30 5388 H 497.194 2.02987 0.256437 0
M  V30 5389 H 497.204 3.36583 2.30598 0
M  V30 5390 H 495.879 3.947 1.31091 0
M  V30 5391 H 494.456 2.65972 2.61368 0
M  V30 5392 N 496.642 -0.504142 1.49319 0
M  V30 5393 C 497.867 -1.28729 1.62615 0
M  V30 5394 C 498.292 -1.85752 0.296309 0
M  V30 5395 O 497.65 -1.65704 -0.735649 0
M  V30 5396 C 497.698 -2.39561 2.69524 0
M  V30 5397 O 496.802 -3.43324 2.28478 0
M  V30 5398 H 496.143 -0.380172 0.544395 0
M  V30 5399 H 498.673 -0.603872 1.95485 0
M  V30 5400 H 498.683 -2.8537 2.91595 0
M  V30 5401 H 497.358 -1.97423 3.66056 0
M  V30 5402 H 495.935 -3.03455 2.16725 0
M  V30 5403 N 498.12 -1.38341 -0.754957 0
M  V30 5404 C 499.369 -1.33791 -1.5094 0
M  V30 5405 C 499.682 0.0699267 -1.95475 0
M  V30 5406 O 500.888 0.237956 -2.70455 0
M  V30 5407 C 499.344 -2.34934 -2.72643 0
M  V30 5408 C 498.952 -3.81332 -2.35138 0
M  V30 5409 C 500.696 -2.39425 -3.50536 0
M  V30 5410 C 498.603 -4.74164 -3.53444 0
M  V30 5411 H 497.533 -0.497314 -0.566741 0
M  V30 5412 H 500.184 -1.63888 -0.825403 0
M  V30 5413 H 498.566 -1.97878 -3.43017 0
M  V30 5414 H 499.74 -4.27319 -1.7244 0
M  V30 5415 H 498.055 -3.79946 -1.70382 0
M  V30 5416 H 500.652 -3.0598 -4.38498 0
M  V30 5417 H 500.995 -1.41278 -3.91594 0
M  V30 5418 H 501.528 -2.75274 -2.87174 0
M  V30 5419 H 498.267 -5.73501 -3.17453 0
M  V30 5420 H 497.787 -4.3287 -4.15191 0
M  V30 5421 H 499.466 -4.92111 -4.20043 0
M  V30 5422 N 499.598 0.982988 -1.23187 0
M  V30 5423 C 500.545 2.07491 -1.01075 0
M  V30 5424 C 501.515 1.65949 0.070905 0
M  V30 5425 O 502.7 1.90629 -0.0806822 0
M  V30 5426 C 499.84 3.39751 -0.605261 0
M  V30 5427 C 498.953 3.94578 -1.75876 0
M  V30 5428 C 498.088 5.15039 -1.3003 0
M  V30 5429 C 497.127 5.62027 -2.42472 0
M  V30 5430 N 496.264 6.73719 -1.97602 0
M  V30 5431 H 501.104 2.25739 -1.9454 0
M  V30 5432 H 498.641 1.10659 -0.969179 0
M  V30 5433 H 500.599 4.15719 -0.351279 0
M  V30 5434 H 499.229 3.21473 0.292382 0
M  V30 5435 H 498.281 3.1539 -2.12681 0
M  V30 5436 H 499.593 4.25422 -2.60418 0
M  V30 5437 H 498.747 5.9833 -1.00429 0
M  V30 5438 H 497.486 4.85843 -0.425216 0
M  V30 5439 H 496.491 4.77318 -2.7285 0
M  V30 5440 H 497.716 5.93244 -3.30512 0
M  V30 5441 H 495.662 6.46287 -1.1247 0
M  V30 5442 H 495.579 7.03934 -2.75705 0
M  V30 5443 H 496.847 7.6049 -1.71098 0
M  V30 5444 N 501.076 1.04316 1.18135 0
M  V30 5445 C 502.024 0.630175 2.23901 0
M  V30 5446 C 503.018 -0.344254 1.65865 0
M  V30 5447 O 504.224 -0.211273 1.78756 0
M  V30 5448 H 500.599 0.185578 0.728742 0
M  V30 5449 H 502.57 1.53253 2.56039 0
M  V30 5450 C 501.319 0.011666 3.47698 0
M  V30 5451 H 500.642 0.752526 3.92654 0
M  V30 5452 H 502.082 -0.240046 4.2332 0
M  V30 5453 C 500.541 -1.23913 3.13285 0
M  V30 5454 O 501.071 -2.32959 3.27251 0
M  V30 5455 N 499.277 -1.13338 2.67587 0
M  V30 5456 H 498.824 -0.246006 2.56423 0
M  V30 5457 H 498.782 -1.97116 2.44934 0
M  V30 5458 N 502.554 -1.34406 0.822964 0
M  V30 5459 C 503.779 -2.0304 0.423034 0
M  V30 5460 C 504.204 -1.61568 -0.963196 0
M  V30 5461 O 503.562 -0.800339 -1.62678 0
M  V30 5462 C 503.61 -3.56636 0.53321 0
M  V30 5463 O 502.714 -4.09971 -0.446939 0
M  V30 5464 H 502.055 -0.64075 0.174171 0
M  V30 5465 H 504.585 -1.71653 1.11339 0
M  V30 5466 H 504.595 -4.05945 0.408991 0
M  V30 5467 H 503.27 -3.86168 1.54425 0
M  V30 5468 H 501.847 -3.71835 -0.281601 0
M  V30 5469 N 504.032 -0.577932 -1.46621 0
M  V30 5470 C 504.962 0.145917 -2.33044 0
M  V30 5471 C 505.943 0.888412 -1.45056 0
M  V30 5472 O 507.128 0.864812 -1.73881 0
M  V30 5473 C 504.258 1.16322 -3.27241 0
M  V30 5474 C 503.212 0.535868 -4.24632 0
M  V30 5475 C 502.538 1.65929 -5.08303 0
M  V30 5476 C 503.838 -0.523861 -5.19666 0
M  V30 5477 H 505.532 -0.575636 -2.93814 0
M  V30 5478 H 503.078 -0.278272 -1.41286 0
M  V30 5479 H 505.031 1.67793 -3.86553 0
M  V30 5480 H 503.755 1.91498 -2.64567 0
M  V30 5481 H 502.414 0.0422759 -3.66576 0
M  V30 5482 H 502.062 2.40061 -4.42018 0
M  V30 5483 H 501.762 1.2452 -5.74255 0
M  V30 5484 H 503.286 2.17686 -5.70478 0
M  V30 5485 H 504.7 -0.0944059 -5.73222 0
M  V30 5486 H 503.097 -0.858 -5.93935 0
M  V30 5487 H 504.167 -1.41197 -4.63887 0
M  V30 5488 N 505.51 1.54411 -0.315457 0
M  V30 5489 C 506.457 2.24048 0.554166 0
M  V30 5490 C 507.427 1.2283 1.11812 0
M  V30 5491 O 508.612 1.51491 1.15997 0
M  V30 5492 C 505.752 2.99574 1.71316 0
M  V30 5493 C 504.865 4.15594 1.17922 0
M  V30 5494 C 504 4.78669 2.30324 0
M  V30 5495 C 503.039 5.86807 1.74137 0
M  V30 5496 N 502.176 6.43777 2.8017 0
M  V30 5497 H 507.016 2.97964 -0.0462602 0
M  V30 5498 H 504.553 1.47059 -0.0346009 0
M  V30 5499 H 506.511 3.41604 2.39505 0
M  V30 5500 H 505.141 2.28008 2.285 0
M  V30 5501 H 504.193 3.78404 0.389136 0
M  V30 5502 H 505.505 4.93459 0.728012 0
M  V30 5503 H 504.659 5.23626 3.06433 0
M  V30 5504 H 503.398 4.00168 2.78778 0
M  V30 5505 H 502.403 5.41261 0.965236 0
M  V30 5506 H 503.628 6.67201 1.2657 0
M  V30 5507 H 501.574 5.68153 3.2793 0
M  V30 5508 H 501.491 7.17031 2.39588 0
M  V30 5509 H 502.759 6.9339 3.56132 0
M  V30 5510 N 506.988 0.0434614 1.5754 0
M  V30 5511 C 508.234 -0.632971 1.92669 0
M  V30 5512 C 508.567 -1.70947 0.921446 0
M  V30 5513 O 507.842 -1.94426 -0.0537202 0
M  V30 5514 C 508.125 -1.23619 3.38216 0
M  V30 5515 C 507.978 -0.168274 4.49485 0
M  V30 5516 C 509.297 -2.15008 3.84005 0
M  V30 5517 H 506.416 -0.228629 0.700641 0
M  V30 5518 H 509.058 0.103651 1.89717 0
M  V30 5519 H 507.208 -1.864 3.40863 0
M  V30 5520 H 508.88 0.463196 4.58969 0
M  V30 5521 H 507.123 0.504581 4.30855 0
M  V30 5522 H 507.794 -0.630218 5.48391 0
M  V30 5523 H 510.27 -1.62198 3.83185 0
M  V30 5524 H 509.146 -2.54161 4.86511 0
M  V30 5525 H 509.407 -3.04707 3.20322 0
M  V30 5526 N 508.466 -1.55915 -0.229846 0
M  V30 5527 C 509.429 -1.90914 -1.26824 0
M  V30 5528 C 510.429 -0.786999 -1.40225 0
M  V30 5529 O 511.619 -1.05484 -1.38632 0
M  V30 5530 C 508.751 -2.15264 -2.64337 0
M  V30 5531 H 509.944 -2.8378 -0.969998 0
M  V30 5532 H 507.497 -1.49069 -0.4699 0
M  V30 5533 H 508.232 -1.24923 -2.99274 0
M  V30 5534 H 508.017 -2.97005 -2.55989 0
M  V30 5535 H 509.507 -2.43467 -3.39284 0
M  V30 5536 N 509.944 0.496216 -1.49584 0
M  V30 5537 C 510.907 1.57952 -1.66084 0
M  V30 5538 C 511.907 1.51729 -0.53244 0
M  V30 5539 O 513.097 1.54796 -0.79899 0
M  V30 5540 C 510.229 2.97604 -1.66268 0
M  V30 5541 H 511.422 1.44649 -2.6271 0
M  V30 5542 H 508.975 0.7208 -1.38687 0
M  V30 5543 H 509.71 3.16378 -0.712432 0
M  V30 5544 H 509.495 3.03528 -2.4822 0
M  V30 5545 H 510.985 3.76301 -1.81073 0
M  V30 5546 N 511.423 1.38739 0.74761 0
M  V30 5547 C 512.672 1.3459 1.50228 0
M  V30 5548 C 512.985 -0.0595592 1.95509 0
M  V30 5549 O 514.191 -0.22361 2.70578 0
M  V30 5550 C 512.647 2.36377 2.71393 0
M  V30 5551 C 512.255 3.82573 2.33113 0
M  V30 5552 C 513.999 2.41281 3.49262 0
M  V30 5553 C 511.906 4.76032 3.50924 0
M  V30 5554 H 510.836 0.500312 0.564096 0
M  V30 5555 H 513.487 1.64324 0.8167 0
M  V30 5556 H 511.869 1.99694 3.41962 0
M  V30 5557 H 513.043 4.28227 1.70171 0
M  V30 5558 H 511.358 3.80844 1.68365 0
M  V30 5559 H 513.955 3.08301 4.36869 0
M  V30 5560 H 514.298 1.43353 3.9084 0
M  V30 5561 H 514.831 2.76793 2.85711 0
M  V30 5562 H 511.57 5.75177 3.14408 0
M  V30 5563 H 511.09 4.35066 4.12889 0
M  V30 5564 H 512.769 4.94331 4.17427 0
M  V30 5565 N 512.901 -0.976442 1.23707 0
M  V30 5566 C 514.126 -1.75875 1.09922 0
M  V30 5567 C 514.551 -1.84911 -0.34489 0
M  V30 5568 O 513.909 -1.31363 -1.24954 0
M  V30 5569 C 513.957 -3.16179 1.73388 0
M  V30 5570 O 513.061 -4.00124 0.99871 0
M  V30 5571 H 512.402 -0.540954 0.385052 0
M  V30 5572 H 514.932 -1.22546 1.6384 0
M  V30 5573 H 514.942 -3.66741 1.78788 0
M  V30 5574 H 513.617 -3.08917 2.78466 0
M  V30 5575 H 512.194 -3.58624 1.02193 0
M  V30 5576 N 514.379 -1.04941 -1.1758 0
M  V30 5577 C 515.289 -0.658826 -2.25159 0
M  V30 5578 C 516.305 0.318941 -1.71052 0
M  V30 5579 O 517.481 0.171669 -2.00667 0
M  V30 5580 C 514.546 -0.0369522 -3.4668 0
M  V30 5581 C 513.607 -1.06484 -4.15884 0
M  V30 5582 C 512.84 -0.472551 -5.31604 0
M  V30 5583 O 513.063 0.718736 -5.65854 0
M  V30 5584 O 511.997 -1.20557 -5.89703 0
M  V30 5585 H 515.823 -1.55533 -2.60851 0
M  V30 5586 H 513.408 -0.820819 -1.24832 0
M  V30 5587 H 515.29 0.308784 -4.20267 0
M  V30 5588 H 513.965 0.833238 -3.12792 0
M  V30 5589 H 512.872 -1.46253 -3.44327 0
M  V30 5590 H 514.205 -1.9061 -4.53794 0
M  V30 5591 N 515.857 1.33968 -0.830081 0
M  V30 5592 C 517.082 2.02813 -0.433796 0
M  V30 5593 C 517.507 1.62076 0.954614 0
M  V30 5594 O 516.865 0.808955 1.62252 0
M  V30 5595 C 516.913 3.56348 -0.552115 0
M  V30 5596 O 516.017 4.10202 0.425191 0
M  V30 5597 H 515.358 0.639817 -0.177567 0
M  V30 5598 H 517.888 1.7106 -1.12248 0
M  V30 5599 H 517.898 4.05722 -0.430513 0
M  V30 5600 H 516.573 3.85344 -1.56471 0
M  V30 5601 H 515.15 3.71979 0.261878 0
M  V30 5602 N 517.335 0.585699 1.46312 0
M  V30 5603 C 518.746 0.159938 1.86014 0
M  V30 5604 C 519.097 -1.27775 1.48889 0
M  V30 5605 O 518.222 -1.96559 0.90519 0
M  V30 5606 C 518.817 0.283485 3.37612 0
M  V30 5607 C 517.376 -0.0874256 3.76298 0
M  V30 5608 C 516.523 0.618055 2.70325 0
M  V30 5609 H 519.474 0.793737 1.37425 0
M  V30 5610 H 519.495 -0.490348 3.77327 0
M  V30 5611 H 519.007 1.32995 3.64601 0
M  V30 5612 H 517.108 -1.13391 3.54927 0
M  V30 5613 H 517.221 0.290975 4.78216 0
M  V30 5614 H 515.585 0.057993 2.54634 0
M  V30 5615 H 516.368 1.66623 3.00153 0
M  V30 5616 N 518.813 -1.54241 0.323641 0
M  V30 5617 C 520.059 -2.00867 -0.279323 0
M  V30 5618 C 520.392 -1.21146 -1.5178 0
M  V30 5619 O 519.667 -0.29378 -1.92269 0
M  V30 5620 C 519.95 -3.54837 -0.613387 0
M  V30 5621 C 519.803 -4.45284 0.635803 0
M  V30 5622 C 521.122 -4.16186 -1.43099 0
M  V30 5623 H 518.241 -0.730177 -0.100049 0
M  V30 5624 H 520.883 -1.84829 0.440235 0
M  V30 5625 H 519.033 -3.68634 -1.22641 0
M  V30 5626 H 520.705 -4.43357 1.27406 0
M  V30 5627 H 518.948 -4.14956 1.26466 0
M  V30 5628 H 519.619 -5.5084 0.357597 0
M  V30 5629 H 522.095 -4.05964 -0.912814 0
M  V30 5630 H 520.971 -5.24031 -1.6335 0
M  V30 5631 H 521.232 -3.69516 -2.42715 0
M  V30 5632 N 520.291 -0.0518155 -1.57515 0
M  V30 5633 C 521.254 0.907547 -2.10467 0
M  V30 5634 C 522.254 1.23947 -1.02439 0
M  V30 5635 O 523.444 1.17604 -1.2851 0
M  V30 5636 C 520.576 2.21723 -2.58944 0
M  V30 5637 H 521.769 0.44851 -2.96527 0
M  V30 5638 H 519.322 0.196598 -1.55059 0
M  V30 5639 H 520.057 2.72206 -1.76279 0
M  V30 5640 H 519.842 1.98935 -3.37886 0
M  V30 5641 H 521.332 2.90441 -3.00056 0
M  V30 5642 N 521.769 1.56035 0.221574 0
M  V30 5643 C 522.679 1.95581 1.29558 0
M  V30 5644 C 523.695 0.859639 1.51282 0
M  V30 5645 O 524.871 1.16321 1.64413 0
M  V30 5646 C 521.936 2.26447 2.62531 0
M  V30 5647 C 520.997 3.49632 2.4911 0
M  V30 5648 C 520.23 3.79017 3.75742 0
M  V30 5649 O 520.453 3.10077 4.78757 0
M  V30 5650 O 519.387 4.72507 3.72855 0
M  V30 5651 H 523.213 2.8711 0.990035 0
M  V30 5652 H 520.798 1.43244 0.424434 0
M  V30 5653 H 522.68 2.47494 3.41064 0
M  V30 5654 H 521.355 1.38092 2.92766 0
M  V30 5655 H 520.262 3.33864 1.68777 0
M  V30 5656 H 521.595 4.3837 2.23814 0
M  V30 5657 N 523.247 -0.488276 1.49845 0
M  V30 5658 C 524.194 -1.58836 1.67451 0
M  V30 5659 C 525.164 -1.57886 0.515857 0
M  V30 5660 O 526.349 -1.75679 0.744403 0
M  V30 5661 C 523.489 -2.96915 1.75885 0
M  V30 5662 C 522.602 -3.07784 3.03138 0
M  V30 5663 C 521.737 -4.36673 3.02473 0
M  V30 5664 C 520.776 -4.41222 4.24252 0
M  V30 5665 N 519.913 -5.61557 4.21424 0
M  V30 5666 H 524.753 -1.43131 2.61376 0
M  V30 5667 H 522.29 -0.696186 1.29583 0
M  V30 5668 H 524.248 -3.76965 1.78755 0
M  V30 5669 H 522.878 -3.11295 0.85414 0
M  V30 5670 H 521.93 -2.20717 3.09819 0
M  V30 5671 H 523.242 -3.07005 3.93128 0
M  V30 5672 H 522.396 -5.25055 3.03977 0
M  V30 5673 H 521.135 -4.40037 2.10283 0
M  V30 5674 H 520.14 -3.5124 4.22978 0
M  V30 5675 H 521.365 -4.39564 5.17649 0
M  V30 5676 H 519.311 -5.65738 3.32078 0
M  V30 5677 H 519.228 -5.62447 5.05163 0
M  V30 5678 H 520.496 -6.52111 4.2705 0
M  V30 5679 N 524.725 -1.39134 -0.740242 0
M  V30 5680 C 525.95 -1.39518 -1.53459 0
M  V30 5681 C 526.375 0.00968883 -1.88098 0
M  V30 5682 O 525.733 0.995312 -1.51536 0
M  V30 5683 C 525.781 -2.26981 -2.802 0
M  V30 5684 O 524.885 -1.69609 -3.75908 0
M  V30 5685 H 524.226 -0.475328 -0.463637 0
M  V30 5686 H 526.756 -1.83064 -0.913717 0
M  V30 5687 H 526.766 -2.41309 -3.28989 0
M  V30 5688 H 525.441 -3.29081 -2.5432 0
M  V30 5689 H 524.018 -1.64495 -3.34658 0
M  V30 5690 N 526.204 0.969867 -1.24223 0
M  V30 5691 C 527.167 2.04564 -1.03373 0
M  V30 5692 C 528.167 1.60798 0.00819206 0
M  V30 5693 O 529.357 1.72641 -0.232567 0
M  V30 5694 C 526.489 3.36163 -0.566343 0
M  V30 5695 H 527.682 2.24494 -1.98853 0
M  V30 5696 H 525.235 1.1448 -1.06415 0
M  V30 5697 H 525.97 3.21925 0.391751 0
M  V30 5698 H 525.755 3.69273 -1.31834 0
M  V30 5699 H 527.245 4.1526 -0.441435 0
M  V30 5700 N 527.682 1.05563 1.17022 0
M  V30 5701 C 528.907 0.788437 1.91829 0
M  V30 5702 C 529.332 -0.650356 1.76499 0
M  V30 5703 O 528.69 -1.45229 1.08527 0
M  V30 5704 C 528.738 1.1786 3.40795 0
M  V30 5705 O 527.842 0.312965 4.11211 0
M  V30 5706 H 527.183 0.288794 0.597908 0
M  V30 5707 H 529.713 1.40948 1.48307 0
M  V30 5708 H 529.723 1.14697 3.91546 0
M  V30 5709 H 528.398 2.22666 3.51273 0
M  V30 5710 H 526.975 0.405515 3.70689 0
M  V30 5711 N 529.16 -1.33526 0.837174 0
M  V30 5712 C 530.388 -2.02047 0.445494 0
M  V30 5713 C 530.803 -1.62995 -0.952788 0
M  V30 5714 O 530.16 -0.842447 -1.61892 0
M  V30 5715 C 530.211 -3.57221 0.554577 0
M  V30 5716 O 529.932 -3.94863 1.89776 0
M  V30 5717 C 531.433 -4.43012 0.159634 0
M  V30 5718 H 528.653 -0.647221 0.177048 0
M  V30 5719 H 531.197 -1.70492 1.12928 0
M  V30 5720 H 529.352 -3.87315 -0.0812781 0
M  V30 5721 H 529.766 -4.89569 1.88208 0
M  V30 5722 H 531.24 -5.51253 0.28701 0
M  V30 5723 H 531.717 -4.29916 -0.898289 0
M  V30 5724 H 532.323 -4.18274 0.769855 0
M  V30 5725 O 530.677 -0.734023 -1.43855 0
M  V30 5726 H 531.368 -0.285275 -1.91588 0
M  V30 END ATOM
M  V30 BEGIN BOND
M  V30 END BOND
M  V30 END CTAB
M  END
$$$$
