drugbank_target|P51178 1-phosphatidylinositol 4,5-bisphosphate phosphodiesterase delta-1 (DB03401; DB03956)
 OpenBabel12092120543D

  0  0  0     0  0            999 V3000
M  V30 BEGIN CTAB
M  V30 COUNTS 11939 12074 0 0 0
M  V30 BEGIN ATOM
M  V30 1 H -0.908 1.98254 -0.117106 0
M  V30 2 N 0 1.576 0 0
M  V30 3 C 0.933 2.03868 1.02534 0
M  V30 4 C 1.911 0.928543 1.3348 0
M  V30 5 O 3.095 1.19667 1.45644 0
M  V30 6 C 0.222 2.43627 2.35294 0
M  V30 7 C -0.732 3.65373 2.2001 0
M  V30 8 S 0.101 5.13292 1.52614 0
M  V30 9 C 1.257 5.56322 2.86805 0
M  V30 10 H 1.49 2.90518 0.631377 0
M  V30 11 H -0.977 1.52953 0.210867 0
M  V30 12 H 0.981 2.67203 3.11629 0
M  V30 13 H -0.358 1.57376 2.7183 0
M  V30 14 H -1.165 3.90944 3.18086 0
M  V30 15 H -1.563 3.418 1.51819 0
M  V30 16 H 0.729 5.58782 3.83104 0
M  V30 17 H 1.672 6.56266 2.65933 0
M  V30 18 H 2.08 4.83886 2.90714 0
M  V30 19 N 1.4781 -0.272755 1.55222 0
M  V30 20 C 2.7551 -1.02562 1.66555 0
M  V30 21 C 3.1351 -2.04282 0.532189 0
M  V30 22 O 2.4831 -2.23662 -0.467717 0
M  V30 23 C 2.6931 -1.6822 3.05782 0
M  V30 24 C 4.0411 -2.19373 3.63539 0
M  V30 25 O 5.0651 -1.78206 3.08417 0
M  V30 26 O 3.9241 -2.94883 4.60115 0
M  V30 27 H 1.0181 -0.475755 0.676451 0
M  V30 28 H 3.5641 -0.268593 1.67561 0
M  V30 29 H 2.3361 -0.945112 3.79715 0
M  V30 30 H 1.9591 -2.50609 3.08676 0
M  V30 31 N 2.9562 -1.48159 -0.537278 0
M  V30 32 C 4.1812 -1.59707 -1.32319 0
M  V30 33 C 4.6062 -0.254859 -1.86365 0
M  V30 34 O 3.9642 0.772378 -1.64024 0
M  V30 35 C 4.0122 -2.6412 -2.45505 0
M  V30 36 O 3.1162 -2.20774 -3.48328 0
M  V30 37 H 2.4572 -0.535791 -0.392204 0
M  V30 38 H 4.9872 -1.94092 -0.647268 0
M  V30 39 H 4.9972 -2.85166 -2.91795 0
M  V30 40 H 3.6722 -3.61567 -2.05528 0
M  V30 41 H 2.2492 -2.09911 -3.08207 0
M  V30 42 N 4.4343 0.785586 -1.36625 0
M  V30 43 C 5.6823 1.54057 -1.30808 0
M  V30 44 C 6.0033 1.94683 0.111157 0
M  V30 45 O 5.2733 1.65241 1.05224 0
M  V30 46 H 3.8533 0.571354 -0.481211 0
M  V30 47 H 6.5153 0.935821 -1.70963 0
M  V30 48 H 5.6113 2.44637 -1.93801 0
M  V30 49 N 5.9124 1.20967 1.01018 0
M  V30 50 C 7.3284 0.965905 1.27053 0
M  V30 51 C 7.5284 -0.350785 1.98423 0
M  V30 52 O 6.5844 -1.07773 2.28344 0
M  V30 53 C 7.8974 2.15294 2.09926 0
M  V30 54 C 9.4454 2.19463 2.23171 0
M  V30 55 C 9.9204 3.3767 3.09424 0
M  V30 56 N 11.4114 3.37724 3.17012 0
M  V30 57 C 12.1464 4.25837 3.83993 0
M  V30 58 N 11.6424 5.24138 4.53047 0
M  V30 59 N 13.4354 4.1366 3.80581 0
M  V30 60 H 5.5864 2.0565 0.531194 0
M  V30 61 H 7.8494 0.90024 0.297106 0
M  V30 62 H 7.5554 3.10684 1.64828 0
M  V30 63 H 7.4294 2.13923 3.10672 0
M  V30 64 H 9.8164 1.24632 2.6749 0
M  V30 65 H 9.8974 2.2488 1.21912 0
M  V30 66 H 9.5414 4.32791 2.65808 0
M  V30 67 H 9.4714 3.29491 4.10784 0
M  V30 68 H 11.9624 2.6658 2.6785 0
M  V30 69 H 12.2754 5.87684 5.01844 0
M  V30 70 H 10.6204 5.28068 4.5185 0
M  V30 71 H 13.8114 3.36127 3.25785 0
M  V30 72 H 13.9844 4.82538 4.32505 0
M  V30 73 N 7.3905 -1.2043 1.01659 0
M  V30 74 C 8.6675 -1.8548 0.621004 0
M  V30 75 C 9.0475 -1.9091 -0.900919 0
M  V30 76 O 8.3955 -1.41694 -1.79263 0
M  V30 77 C 8.6055 -3.25119 1.2688 0
M  V30 78 C 9.9535 -4.01403 1.38423 0
M  V30 79 O 10.9775 -3.34473 1.22501 0
M  V30 80 O 9.8365 -5.21265 1.64151 0
M  V30 81 H 6.9305 -0.798761 0.214266 0
M  V30 82 H 9.4765 -1.28019 1.11396 0
M  V30 83 H 8.2485 -3.15932 2.30873 0
M  V30 84 H 7.8715 -3.90212 0.762917 0
M  V30 85 N 8.8686 -0.792821 -1.36206 0
M  V30 86 C 10.1156 -0.366786 -1.99151 0
M  V30 87 C 10.4436 1.06243 -1.62919 0
M  V30 88 O 9.6986 1.74927 -0.877442 0
M  V30 89 C 9.9976 -0.481501 -3.54142 0
M  V30 90 C 9.6636 -1.87202 -4.10203 0
M  V30 91 C 8.3256 -2.25248 -4.25226 0
M  V30 92 C 10.6776 -2.78237 -4.40719 0
M  V30 93 C 8.0056 -3.53723 -4.68078 0
M  V30 94 C 10.3576 -4.06144 -4.85005 0
M  V30 95 C 9.0216 -4.44207 -4.98234 0
M  V30 96 H 8.2916 -0.134217 -0.728743 0
M  V30 97 H 10.9386 -1.01094 -1.62641 0
M  V30 98 H 9.2436 0.246146 -3.91026 0
M  V30 99 H 10.9406 -0.132844 -4.0078 0
M  V30 100 H 7.5306 -1.56639 -3.98951 0
M  V30 101 H 11.7146 -2.50097 -4.28679 0
M  V30 102 H 6.9706 -3.8308 -4.76508 0
M  V30 103 H 11.1446 -4.76796 -5.07581 0
M  V30 104 H 8.7716 -5.43814 -5.31197 0
M  V30 105 N 10.3467 1.47872 -0.545128 0
M  V30 106 C 11.2767 2.32661 0.197793 0
M  V30 107 C 12.2577 1.43041 0.920504 0
M  V30 108 O 13.4427 1.71912 0.90333 0
M  V30 109 C 10.5727 3.24569 1.23582 0
M  V30 110 C 9.5267 4.23333 0.630323 0
M  V30 111 C 8.8527 5.0448 1.77211 0
M  V30 112 C 10.1527 5.20704 -0.407974 0
M  V30 113 H 11.8467 2.95024 -0.510045 0
M  V30 114 H 9.3927 1.4187 -0.246731 0
M  V30 115 H 11.3457 3.8272 1.76362 0
M  V30 116 H 10.0697 2.60236 1.97344 0
M  V30 117 H 8.7287 3.6639 0.123922 0
M  V30 118 H 8.3767 4.36561 2.49847 0
M  V30 119 H 8.0767 5.71339 1.37281 0
M  V30 120 H 9.6007 5.65487 2.3034 0
M  V30 121 H 11.0147 5.7329 0.033305 0
M  V30 122 H 9.4117 5.95699 -0.725486 0
M  V30 123 H 10.4817 4.66917 -1.30828 0
M  V30 124 N 11.8248 0.280983 1.55075 0
M  V30 125 C 13.0528 -0.337293 2.04132 0
M  V30 126 C 13.4678 -1.4903 1.15912 0
M  V30 127 O 12.8248 -1.81606 0.180459 0
M  V30 128 C 12.8758 -0.812706 3.52246 0
M  V30 129 O 12.5968 0.294387 4.3711 0
M  V30 130 C 14.0978 -1.4982 4.17216 0
M  V30 131 H 11.3178 -0.0761638 0.666663 0
M  V30 132 H 13.8618 0.414787 2.00249 0
M  V30 133 H 12.0168 -1.51486 3.56554 0
M  V30 134 H 12.4308 -0.0721325 5.2445 0
M  V30 135 H 13.9048 -1.7822 5.22438 0
M  V30 136 H 14.3818 -2.43168 3.65741 0
M  V30 137 H 14.9878 -0.839742 4.16927 0
M  V30 138 N 13.3029 -1.57598 0.00835791 0
M  V30 139 C 14.2329 -2.1198 -0.979113 0
M  V30 140 C 15.2139 -1.03091 -1.35301 0
M  V30 141 O 16.3989 -1.30818 -1.43528 0
M  V30 142 C 13.5289 -2.62995 -2.26828 0
M  V30 143 C 12.4829 -3.76485 -2.03576 0
M  V30 144 C 11.8089 -4.13846 -3.38579 0
M  V30 145 C 13.1089 -5.0342 -1.39161 0
M  V30 146 H 14.8029 -2.94738 -0.526281 0
M  V30 147 H 12.3489 -1.41783 -0.251704 0
M  V30 148 H 14.3019 -2.99669 -2.96271 0
M  V30 149 H 13.0259 -1.7737 -2.7424 0
M  V30 150 H 11.6849 -3.40217 -1.36557 0
M  V30 151 H 11.3329 -3.25232 -3.83709 0
M  V30 152 H 11.0329 -4.90312 -3.23834 0
M  V30 153 H 12.5569 -4.53086 -4.09323 0
M  V30 154 H 13.9709 -5.37812 -1.98573 0
M  V30 155 H 12.3679 -5.84746 -1.34878 0
M  V30 156 H 13.4379 -4.83548 -0.361868 0
M  V30 157 N 14.781 0.264519 -1.55364 0
M  V30 158 C 15.731 1.32966 -1.85214 0
M  V30 159 C 16.715 1.44306 -0.711653 0
M  V30 160 O 17.907 1.47844 -0.973192 0
M  V30 161 C 15.036 2.68839 -2.13495 0
M  V30 162 C 14.122 2.61575 -3.33825 0
M  V30 163 N 14.513 2.23933 -4.53528 0
M  V30 164 C 12.811 2.92621 -3.36584 0
M  V30 165 C 13.512 2.26868 -5.35636 0
M  V30 166 N 12.488 2.65677 -4.74254 0
M  V30 167 H 16.29 1.02884 -2.75304 0
M  V30 168 H 13.804 0.473157 -1.55354 0
M  V30 169 H 15.801 3.45685 -2.33039 0
M  V30 170 H 14.461 2.99802 -1.24694 0
M  V30 171 H 15.472 1.95769 -4.79474 0
M  V30 172 H 12.149 3.2824 -2.58002 0
M  V30 173 H 13.539 2.00254 -6.41364 0
M  V30 174 N 16.2591 1.48442 0.529413 0
M  V30 175 C 17.5071 1.56179 1.28267 0
M  V30 176 C 17.8281 0.237721 1.93546 0
M  V30 177 O 17.0981 -0.740779 1.81354 0
M  V30 178 H 15.6781 0.575367 0.476405 0
M  V30 179 H 18.3401 1.84909 0.61602 0
M  V30 180 H 17.4361 2.34312 2.06165 0
M  V30 181 N 17.7372 -0.778329 1.37039 0
M  V30 182 C 18.6672 -1.90546 1.34962 0
M  V30 183 C 19.6482 -1.68681 0.219274 0
M  V30 184 O 20.8332 -1.89634 0.418624 0
M  V30 185 C 17.9632 -3.27734 1.14925 0
M  V30 186 C 16.9172 -3.64147 2.24902 0
M  V30 187 C 16.2432 -4.99806 1.89996 0
M  V30 188 C 17.5432 -3.71579 3.67051 0
M  V30 189 H 19.2372 -1.92541 2.29277 0
M  V30 190 H 16.7832 -0.924948 1.10366 0
M  V30 191 H 18.7362 -4.06215 1.12104 0
M  V30 192 H 17.4602 -3.26154 0.170631 0
M  V30 193 H 16.1192 -2.8797 2.26868 0
M  V30 194 H 15.7672 -4.94759 0.906796 0
M  V30 195 H 15.4672 -5.25139 2.63634 0
M  V30 196 H 16.9912 -5.80694 1.88749 0
M  V30 197 H 18.4052 -4.40227 3.67251 0
M  V30 198 H 16.8022 -4.08405 4.39688 0
M  V30 199 H 17.8722 -2.72404 4.01154 0
M  V30 200 N 19.2153 -1.21501 -1.00376 0
M  V30 201 C 20.1473 -0.933174 -2.09343 0
M  V30 202 C 21.1603 0.0840896 -1.62583 0
M  V30 203 O 22.3493 -0.148563 -1.77881 0
M  V30 204 C 19.4493 -0.379869 -3.36764 0
M  V30 205 C 18.6223 -1.45176 -4.12605 0
M  V30 206 C 17.6813 -0.907476 -5.18316 0
M  V30 207 O 16.7073 -1.5912 -5.46507 0
M  V30 208 N 17.9093 0.276649 -5.7984 0
M  V30 209 H 20.6743 -1.87124 -2.34104 0
M  V30 210 H 18.2353 -1.12043 -1.16867 0
M  V30 211 H 20.2273 -0.00131488 -4.047 0
M  V30 212 H 18.7973 0.463048 -3.09151 0
M  V30 213 H 18.0173 -2.00411 -3.39454 0
M  V30 214 H 19.3053 -2.17328 -4.6005 0
M  V30 215 H 18.7033 0.849147 -5.59291 0
M  V30 216 H 17.2603 0.596702 -6.49063 0
M  V30 217 N 20.6934 1.19889 -1.02296 0
M  V30 218 C 21.9704 1.85148 -0.630832 0
M  V30 219 C 22.3504 1.91385 0.890782 0
M  V30 220 O 21.6984 1.42642 1.78509 0
M  V30 221 C 21.9084 3.24442 -1.28602 0
M  V30 222 C 23.2564 4.00663 -1.4055 0
M  V30 223 O 24.2804 3.33818 -1.24273 0
M  V30 224 O 23.1394 5.20387 -1.66913 0
M  V30 225 H 20.2334 0.797613 -0.218499 0
M  V30 226 H 22.7794 1.27427 -1.12074 0
M  V30 227 H 21.5514 3.14704 -2.32545 0
M  V30 228 H 21.1744 3.89802 -0.7836 0
M  V30 229 N 22.1715 0.800033 1.35784 0
M  V30 230 C 23.4485 0.30088 1.93272 0
M  V30 231 C 23.8285 -1.20857 1.73081 0
M  V30 232 O 23.1765 -2.00502 1.09596 0
M  V30 233 C 23.3865 0.70511 3.41803 0
M  V30 234 C 24.7345 0.690871 4.18942 0
M  V30 235 O 25.7585 0.646244 3.50289 0
M  V30 236 O 24.6175 0.74332 5.41421 0
M  V30 237 H 21.7115 0.0771605 0.823393 0
M  V30 238 H 24.2575 0.88329 1.449 0
M  V30 239 H 23.0295 1.74571 3.50201 0
M  V30 240 H 22.6525 0.0971541 3.97481 0
M  V30 241 N 23.6496 -1.47581 0.552962 0
M  V30 242 C 24.5596 -2.33743 -0.200353 0
M  V30 243 C 25.5756 -1.47928 -0.916151 0
M  V30 244 O 26.7516 -1.80865 -0.885993 0
M  V30 245 C 23.8166 -3.24536 -1.21973 0
M  V30 246 C 22.8776 -4.26238 -0.511819 0
M  V30 247 C 22.1106 -5.12693 -1.48263 0
M  V30 248 O 22.3336 -5.01525 -2.71714 0
M  V30 249 O 21.2676 -5.93375 -1.00945 0
M  V30 250 H 25.0936 -2.9945 0.506304 0
M  V30 251 H 22.6786 -1.46071 0.313622 0
M  V30 252 H 24.5606 -3.80631 -1.80827 0
M  V30 253 H 23.2356 -2.61462 -1.90839 0
M  V30 254 H 22.1426 -3.73914 0.117799 0
M  V30 255 H 23.4756 -4.92014 0.135308 0
M  V30 256 N 25.1277 -0.289203 -1.54924 0
M  V30 257 C 26.4047 0.376032 -1.91951 0
M  V30 258 C 26.7847 1.72622 -1.21511 0
M  V30 259 O 26.1327 2.25853 -0.346767 0
M  V30 260 C 26.3427 0.502378 -3.45365 0
M  V30 261 C 27.6907 0.778741 -4.17398 0
M  V30 262 O 28.7147 0.586647 -3.51336 0
M  V30 263 O 27.5737 1.14698 -5.34328 0
M  V30 264 H 24.6677 0.208167 -0.800372 0
M  V30 265 H 27.2137 -0.336394 -1.66332 0
M  V30 266 H 25.9857 -0.447255 -3.88736 0
M  V30 267 H 25.6087 1.26373 -3.76982 0
M  V30 268 N 26.6058 1.57591 -0.0167156 0
M  V30 269 C 27.5358 2.12496 0.967858 0
M  V30 270 C 28.5168 1.03807 1.34752 0
M  V30 271 O 29.7018 1.31577 1.42833 0
M  V30 272 C 26.8318 2.64194 2.25431 0
M  V30 273 C 25.7858 3.77559 2.01576 0
M  V30 274 C 25.1118 4.15636 3.36379 0
M  V30 275 C 26.4118 5.04151 1.36489 0
M  V30 276 H 28.1058 2.95013 0.510643 0
M  V30 277 H 25.6518 1.41915 0.244181 0
M  V30 278 H 27.6048 3.01236 2.94678 0
M  V30 279 H 26.3288 1.78821 2.73296 0
M  V30 280 H 24.9878 3.40937 1.34751 0
M  V30 281 H 24.6358 3.27263 3.81979 0
M  V30 282 H 24.3358 4.92022 3.21229 0
M  V30 283 H 25.8598 4.5525 4.06915 0
M  V30 284 H 27.2738 5.38857 1.95718 0
M  V30 285 H 25.6708 5.85453 1.31776 0
M  V30 286 H 26.7408 4.83733 0.336219 0
M  V30 287 N 28.0839 -0.256276 1.55502 0
M  V30 288 C 29.0159 -1.33981 1.85962 0
M  V30 289 C 30.0289 -1.44743 0.745212 0
M  V30 290 O 31.2179 -1.4626 1.02324 0
M  V30 291 C 28.3179 -2.7194 2.02242 0
M  V30 292 C 27.4909 -2.83562 3.33033 0
M  V30 293 C 26.5499 -4.02304 3.39172 0
M  V30 294 O 25.5759 -3.92273 4.12444 0
M  V30 295 N 26.7779 -5.15045 2.67784 0
M  V30 296 H 29.5429 -1.08191 2.7949 0
M  V30 297 H 27.1039 -0.446388 1.55624 0
M  V30 298 H 29.0959 -3.49697 2.03701 0
M  V30 299 H 27.6659 -2.90479 1.15502 0
M  V30 300 H 26.8859 -1.92555 3.43971 0
M  V30 301 H 28.1739 -2.88271 4.19258 0
M  V30 302 H 27.5719 -5.26085 2.07968 0
M  V30 303 H 26.1289 -5.90972 2.74947 0
M  V30 304 N 29.562 -1.4872 -0.521534 0
M  V30 305 C 30.525 -1.63379 -1.60748 0
M  V30 306 C 31.525 -0.50661 -1.52611 0
M  V30 307 O 32.715 -0.772601 -1.5613 0
M  V30 308 C 29.847 -1.61192 -3.00383 0
M  V30 309 H 31.04 -2.60217 -1.49087 0
M  V30 310 H 28.593 -1.37444 -0.744235 0
M  V30 311 H 29.328 -0.65863 -3.17541 0
M  V30 312 H 29.113 -2.43032 -3.07698 0
M  V30 313 H 30.603 -1.7466 -3.7932 0
M  V30 314 N 31.0401 0.771051 -1.3745 0
M  V30 315 C 31.9701 1.89827 -1.3597 0
M  V30 316 C 32.9511 1.68562 -0.228216 0
M  V30 317 O 34.1361 1.8941 -0.428675 0
M  V30 318 C 31.2661 3.2712 -1.16662 0
M  V30 319 C 30.2201 3.6295 -2.2683 0
M  V30 320 C 29.5461 4.98791 -1.92644 0
M  V30 321 C 30.8461 3.69627 -3.69017 0
M  V30 322 H 32.5401 1.91323 -2.30295 0
M  V30 323 H 30.0861 0.919082 -1.10855 0
M  V30 324 H 32.0391 4.05615 -1.14256 0
M  V30 325 H 30.7631 3.26059 -0.187926 0
M  V30 326 H 29.4221 2.86763 -2.28392 0
M  V30 327 H 29.0701 4.94271 -0.933021 0
M  V30 328 H 28.7701 5.23733 -2.66416 0
M  V30 329 H 30.2941 5.79685 -1.91826 0
M  V30 330 H 31.7081 4.38273 -3.69581 0
M  V30 331 H 30.1051 4.06067 -4.41848 0
M  V30 332 H 31.1751 2.70273 -4.02592 0
M  V30 333 N 32.5182 1.22032 0.997298 0
M  V30 334 C 33.4482 1.01065 2.10495 0
M  V30 335 C 34.4292 -0.0669542 1.69968 0
M  V30 336 O 35.6142 0.0943987 1.9397 0
M  V30 337 C 32.7442 0.582874 3.42374 0
M  V30 338 C 31.6982 1.60592 3.96729 0
M  V30 339 C 31.0242 1.03412 5.24605 0
M  V30 340 C 32.3242 2.99478 4.27914 0
M  V30 341 H 34.0182 1.93708 2.28292 0
M  V30 342 H 31.5642 0.932761 1.09707 0
M  V30 343 H 33.5172 0.423332 4.19268 0
M  V30 344 H 32.2412 -0.379213 3.24391 0
M  V30 345 H 30.9002 1.75316 3.21963 0
M  V30 346 H 30.5482 0.063518 5.0296 0
M  V30 347 H 30.2482 1.71754 5.61938 0
M  V30 348 H 31.7722 0.886066 6.04137 0
M  V30 349 H 33.1862 2.88153 4.95622 0
M  V30 350 H 31.5832 3.64903 4.76409 0
M  V30 351 H 32.6532 3.49742 3.3587 0
M  V30 352 N 33.9963 -1.19345 1.0293 0
M  V30 353 C 34.9433 -2.2258 0.610464 0
M  V30 354 C 35.9133 -1.6179 -0.375946 0
M  V30 355 O 37.0983 -1.88844 -0.272511 0
M  V30 356 C 34.2383 -3.45085 -0.0321473 0
M  V30 357 C 33.3513 -4.20258 1.00035 0
M  V30 358 C 32.4863 -5.3019 0.32746 0
M  V30 359 C 31.5253 -5.97121 1.34584 0
M  V30 360 N 30.6623 -6.98615 0.698726 0
M  V30 361 H 35.5023 -2.57764 1.49538 0
M  V30 362 H 33.0393 -1.26644 0.748311 0
M  V30 363 H 34.9973 -4.15061 -0.421966 0
M  V30 364 H 33.6273 -3.10555 -0.88064 0
M  V30 365 H 32.6793 -3.49223 1.50823 0
M  V30 366 H 33.9913 -4.66175 1.77433 0
M  V30 367 H 33.1453 -6.06587 -0.11718 0
M  V30 368 H 31.8843 -4.85345 -0.478713 0
M  V30 369 H 30.8893 -5.19474 1.80074 0
M  V30 370 H 32.1143 -6.4405 2.15352 0
M  V30 371 H 30.0603 -6.55942 -0.0873471 0
M  V30 372 H 29.9773 -7.42724 1.41058 0
M  V30 373 H 31.2453 -7.79004 0.278102 0
M  V30 374 N 35.4744 -0.807222 -1.35358 0
M  V30 375 C 36.7224 -0.387122 -1.98358 0
M  V30 376 C 37.0434 1.04942 -1.64354 0
M  V30 377 O 36.3134 1.72615 -0.926339 0
M  V30 378 H 34.8934 -0.140154 -0.733734 0
M  V30 379 H 37.5554 -1.0332 -1.6526 0
M  V30 380 H 36.6514 -0.493352 -3.08176 0
M  V30 381 N 36.9525 1.47285 -0.560781 0
M  V30 382 C 38.1775 2.07359 -0.0410566 0
M  V30 383 C 38.6025 1.41017 1.24483 0
M  V30 384 O 37.9605 0.486368 1.74654 0
M  V30 385 C 38.0085 3.6035 0.134123 0
M  V30 386 O 37.1125 3.94681 1.19587 0
M  V30 387 H 36.4535 0.661887 -0.0529291 0
M  V30 388 H 38.9835 1.89252 -0.777482 0
M  V30 389 H 38.9935 4.0652 0.347207 0
M  V30 390 H 37.6685 4.08034 -0.805047 0
M  V30 391 H 36.2455 3.60251 0.962987 0
M  V30 392 N 38.4306 0.297415 1.54768 0
M  V30 393 C 39.3626 -0.613881 2.20826 0
M  V30 394 C 40.3756 -1.10032 1.19987 0
M  V30 395 O 41.5646 -1.01839 1.46598 0
M  V30 396 C 38.6646 -1.852 2.83821 0
M  V30 397 C 37.8376 -1.50865 4.10559 0
M  V30 398 C 36.8966 -2.60154 4.57391 0
M  V30 399 O 35.9226 -2.25398 5.2267 0
M  V30 400 N 37.1246 -3.90629 4.29406 0
M  V30 401 H 39.8896 -0.048389 2.99661 0
M  V30 402 H 37.4506 0.11946 1.61459 0
M  V30 403 H 39.4426 -2.57652 3.12086 0
M  V30 404 H 38.0126 -2.32597 2.08847 0
M  V30 405 H 37.2326 -0.616925 3.89343 0
M  V30 406 H 38.5206 -1.25458 4.9309 0
M  V30 407 H 37.9186 -4.21677 3.77101 0
M  V30 408 H 36.4756 -4.59391 4.62388 0
M  V30 409 N 39.9087 -1.5758 0.0250728 0
M  V30 410 C 40.8387 -2.13007 -0.956575 0
M  V30 411 C 41.8197 -1.0452 -1.342 0
M  V30 412 O 43.0047 -1.32332 -1.42133 0
M  V30 413 C 40.1347 -2.65386 -2.24026 0
M  V30 414 C 39.0887 -3.78623 -1.99571 0
M  V30 415 C 38.4147 -4.17414 -3.3417 0
M  V30 416 C 39.7147 -5.04867 -1.33814 0
M  V30 417 H 41.4087 -2.9528 -0.494991 0
M  V30 418 H 38.9547 -1.42042 -0.236651 0
M  V30 419 H 40.9077 -3.02794 -2.93076 0
M  V30 420 H 39.6317 -1.80268 -2.72343 0
M  V30 421 H 38.2907 -3.41646 -1.32941 0
M  V30 422 H 37.9387 -3.29284 -3.80238 0
M  V30 423 H 37.6387 -4.93719 -3.18615 0
M  V30 424 H 39.1627 -4.57402 -4.04495 0
M  V30 425 H 40.5767 -5.39888 -1.92857 0
M  V30 426 H 38.9737 -5.86144 -1.28669 0
M  V30 427 H 40.0437 -4.83904 -0.310561 0
M  V30 428 N 41.3868 0.248026 -1.55636 0
M  V30 429 C 42.3168 1.31079 -1.93237 0
M  V30 430 C 43.2978 1.50264 -0.797174 0
M  V30 431 O 44.4828 1.62891 -1.05737 0
M  V30 432 C 41.6128 2.66575 -2.22609 0
M  V30 433 C 40.5668 2.62087 -3.3837 0
M  V30 434 C 39.8928 4.01369 -3.53281 0
M  V30 435 C 41.1928 2.19171 -4.7409 0
M  V30 436 H 42.8868 0.998556 -2.82257 0
M  V30 437 H 40.4328 0.47891 -1.35803 0
M  V30 438 H 42.3858 3.41057 -2.47503 0
M  V30 439 H 41.1098 2.99432 -1.30414 0
M  V30 440 H 39.7688 1.90063 -3.13483 0
M  V30 441 H 39.4168 4.31489 -2.58508 0
M  V30 442 H 39.1168 3.99254 -4.31127 0
M  V30 443 H 40.6408 4.77552 -3.80495 0
M  V30 444 H 42.0548 2.83384 -4.98363 0
M  V30 445 H 40.4518 2.2817 -5.5503 0
M  V30 446 H 41.5218 1.14336 -4.71227 0
M  V30 447 N 42.8649 1.48995 0.513639 0
M  V30 448 C 43.8119 1.6473 1.61656 0
M  V30 449 C 44.7819 0.488984 1.58739 0
M  V30 450 O 45.9669 0.714478 1.76918 0
M  V30 451 C 43.1069 1.7082 2.99858 0
M  V30 452 C 42.2199 2.9787 3.12885 0
M  V30 453 C 41.3549 2.95017 4.41744 0
M  V30 454 C 40.3939 4.16702 4.48359 0
M  V30 455 N 39.5309 4.11832 5.68629 0
M  V30 456 H 44.3709 2.58909 1.47547 0
M  V30 457 H 41.9079 1.28382 0.71808 0
M  V30 458 H 43.8659 1.72331 3.79944 0
M  V30 459 H 42.4959 0.801181 3.12699 0
M  V30 460 H 41.5479 3.06029 2.25944 0
M  V30 461 H 42.8599 3.8786 3.13633 0
M  V30 462 H 42.0139 2.95021 5.30139 0
M  V30 463 H 40.7529 2.02784 4.43542 0
M  V30 464 H 39.7579 4.16955 3.58369 0
M  V30 465 H 40.9829 5.10113 4.48287 0
M  V30 466 H 38.9289 3.22428 5.71293 0
M  V30 467 H 38.8459 4.95543 5.7094 0
M  V30 468 H 40.1139 4.1592 6.59266 0
M  V30 469 N 44.343 -0.763751 1.37857 0
M  V30 470 C 45.589 -1.52483 1.33704 0
M  V30 471 C 45.922 -1.94051 -0.0759612 0
M  V30 472 O 45.197 -1.64675 -1.03501 0
M  V30 473 C 45.48 -2.78441 2.28348 0
M  V30 474 C 45.333 -2.43075 3.78463 0
M  V30 475 C 46.652 -3.80415 2.21298 0
M  V30 476 H 43.771 -0.553169 0.487005 0
M  V30 477 H 46.413 -0.875562 1.68624 0
M  V30 478 H 44.563 -3.33842 1.987 0
M  V30 479 H 46.235 -1.93527 4.18742 0
M  V30 480 H 44.478 -1.75666 3.96641 0
M  V30 481 H 45.149 -3.33149 4.40132 0
M  V30 482 H 47.625 -3.34527 2.47449 0
M  V30 483 H 46.501 -4.66257 2.89647 0
M  V30 484 H 46.762 -4.25262 1.20849 0
M  V30 485 N 45.8211 -1.22559 -0.990812 0
M  V30 486 C 46.7681 -0.997519 -2.0813 0
M  V30 487 C 47.7381 0.0814702 -1.659 0
M  V30 488 O 48.9231 -0.0685424 -1.90677 0
M  V30 489 C 46.0631 -0.583615 -3.40129 0
M  V30 490 C 45.1761 -1.7336 -3.9569 0
M  V30 491 C 44.3111 -1.26748 -5.15857 0
M  V30 492 C 43.3501 -2.38888 -5.63559 0
M  V30 493 N 42.4871 -1.93308 -6.74964 0
M  V30 494 H 47.3271 -1.93099 -2.26973 0
M  V30 495 H 44.8641 -0.962114 -1.11273 0
M  V30 496 H 46.8221 -0.324801 -4.15934 0
M  V30 497 H 45.4521 0.312845 -3.2128 0
M  V30 498 H 44.5041 -2.10669 -3.16738 0
M  V30 499 H 45.8161 -2.57704 -4.27071 0
M  V30 500 H 44.9701 -0.966173 -5.98957 0
M  V30 501 H 43.7091 -0.394272 -4.86104 0
M  V30 502 H 42.7141 -2.69805 -4.79046 0
M  V30 503 H 43.9391 -3.26728 -5.95336 0
M  V30 504 H 41.8851 -1.08352 -6.4699 0
M  V30 505 H 41.8021 -2.71217 -7.05675 0
M  V30 506 H 43.0701 -1.66252 -7.61564 0
M  V30 507 N 47.2992 1.18797 -1.03562 0
M  V30 508 C 48.5242 1.9314 -0.755764 0
M  V30 509 C 48.9492 1.7537 0.68022 0
M  V30 510 O 48.3072 1.06046 1.47051 0
M  V30 511 C 48.3552 3.42747 -1.12058 0
M  V30 512 O 47.4592 4.11683 -0.243124 0
M  V30 513 H 46.8002 0.602724 -0.278604 0
M  V30 514 H 49.3302 1.50678 -1.3841 0
M  V30 515 H 49.3402 3.93437 -1.08035 0
M  V30 516 H 48.0152 3.55002 -2.16672 0
M  V30 517 H 46.5922 3.71323 -0.342539 0
M  V30 518 N 48.7773 0.814389 1.34928 0
M  V30 519 C 50.0023 0.410097 2.03305 0
M  V30 520 C 50.4273 -0.973464 1.60951 0
M  V30 521 O 49.7853 -1.63185 0.789964 0
M  V30 522 C 49.8333 0.51049 3.56968 0
M  V30 523 O 48.9373 -0.473035 4.09678 0
M  V30 524 H 48.2783 0.170088 0.641846 0
M  V30 525 H 50.8083 1.10244 1.72358 0
M  V30 526 H 50.8183 0.383135 4.06197 0
M  V30 527 H 49.4933 1.51963 3.87144 0
M  V30 528 H 48.0703 -0.305272 3.71648 0
M  V30 529 N 50.2554 -1.46986 0.568584 0
M  V30 530 C 51.4804 -2.07335 0.0520528 0
M  V30 531 C 51.9054 -1.41675 -1.23733 0
M  V30 532 O 51.2634 -0.495623 -1.74394 0
M  V30 533 C 51.3114 -3.60417 -0.11501 0
M  V30 534 O 50.4154 -3.95309 -1.17492 0
M  V30 535 H 49.7564 -0.661597 0.0564385 0
M  V30 536 H 52.2864 -1.88837 0.787507 0
M  V30 537 H 52.2964 -4.06698 -0.325644 0
M  V30 538 H 50.9714 -4.07601 0.826675 0
M  V30 539 H 49.5484 -3.60757 -0.943869 0
M  V30 540 N 51.7335 -0.305618 -1.54608 0
M  V30 541 C 52.9795 0.295595 -2.01241 0
M  V30 542 C 53.3345 1.51171 -1.19018 0
M  V30 543 O 52.6275 1.89832 -0.259684 0
M  V30 544 C 52.8215 0.698983 -3.50498 0
M  V30 545 C 52.6505 -0.476491 -4.47168 0
M  V30 546 C 51.4205 -0.969963 -4.95903 0
M  V30 547 C 53.6185 -1.32294 -4.96994 0
M  V30 548 N 51.6005 -2.11172 -5.76437 0
M  V30 549 C 52.9715 -2.31212 -5.75275 0
M  V30 550 C 55.0265 -1.35278 -4.7917 0
M  V30 551 C 53.7295 -3.32896 -6.37631 0
M  V30 552 C 55.7555 -2.35823 -5.42348 0
M  V30 553 C 55.1175 -3.33469 -6.20466 0
M  V30 554 H 51.2165 0.0724992 -0.778632 0
M  V30 555 H 53.8005 -0.436583 -1.89742 0
M  V30 556 H 51.9715 1.40032 -3.62278 0
M  V30 557 H 53.7035 1.28013 -3.8392 0
M  V30 558 H 50.4585 -0.544178 -4.70463 0
M  V30 559 H 50.8825 -2.68714 -6.21387 0
M  V30 560 H 55.5245 -0.61157 -4.18354 0
M  V30 561 H 53.2425 -4.07933 -6.97579 0
M  V30 562 H 56.8285 -2.38911 -5.30484 0
M  V30 563 H 55.7085 -4.09996 -6.68485 0
M  V30 564 N 53.2116 1.57565 -0.0334293 0
M  V30 565 C 54.6276 1.56297 0.322997 0
M  V30 566 C 54.8276 1.03945 1.7262 0
M  V30 567 O 53.8836 0.688109 2.42943 0
M  V30 568 C 55.1966 3.00232 0.167664 0
M  V30 569 C 56.7446 3.12078 0.240107 0
M  V30 570 C 57.2196 4.57859 0.113513 0
M  V30 571 N 58.7106 4.62887 0.170359 0
M  V30 572 C 59.4456 5.73319 0.0962517 0
M  V30 573 N 58.9416 6.92794 -0.0291881 0
M  V30 574 N 60.7346 5.61898 0.150551 0
M  V30 575 H 52.8856 1.89923 -0.950956 0
M  V30 576 H 55.1486 0.873824 -0.367608 0
M  V30 577 H 54.8546 3.42501 -0.799102 0
M  V30 578 H 54.7286 3.654 0.936083 0
M  V30 579 H 57.1156 2.69718 1.19733 0
M  V30 580 H 57.1966 2.49623 -0.558763 0
M  V30 581 H 56.8406 5.009 -0.840314 0
M  V30 582 H 56.7706 5.18299 0.931302 0
M  V30 583 H 59.2616 3.76954 0.26728 0
M  V30 584 H 59.5746 7.7276 -0.0789252 0
M  V30 585 H 57.9196 6.94971 -0.0640299 0
M  V30 586 H 61.1106 4.67448 0.246981 0
M  V30 587 H 61.2836 6.47938 0.0893365 0
M  V30 588 N 54.6897 -0.239769 1.55765 0
M  V30 589 C 56.1057 -0.588624 1.48349 0
M  V30 590 C 56.3057 -1.88005 0.72502 0
M  V30 591 O 55.3617 -2.51186 0.257269 0
M  V30 592 C 56.6747 -0.68474 2.928 0
M  V30 593 C 58.2227 -0.77659 3.03213 0
M  V30 594 C 58.6977 -0.904207 4.48986 0
M  V30 595 N 60.1887 -0.968896 4.52953 0
M  V30 596 C 60.9237 -1.08703 5.63002 0
M  V30 597 N 60.4197 -1.17026 6.82845 0
M  V30 598 N 62.2127 -1.12074 5.50814 0
M  V30 599 H 54.3637 0.607911 2.03515 0
M  V30 600 H 56.6267 0.21083 0.924259 0
M  V30 601 H 56.3327 0.194284 3.51163 0
M  V30 602 H 56.2067 -1.55435 3.43686 0
M  V30 603 H 58.5937 -1.64606 2.44926 0
M  V30 604 H 58.6747 0.118315 2.55526 0
M  V30 605 H 58.3187 -0.0392633 5.07885 0
M  V30 606 H 58.2487 -1.81426 4.9436 0
M  V30 607 H 60.7397 -0.915633 3.6664 0
M  V30 608 H 61.0527 -1.25966 7.62465 0
M  V30 609 H 59.3977 -1.13971 6.85591 0
M  V30 610 H 62.5887 -1.05226 4.5612 0
M  V30 611 H 62.7617 -1.20936 6.36615 0
M  V30 612 N 56.1678 -1.49265 -0.50573 0
M  V30 613 C 57.0778 -1.68312 -1.63427 0
M  V30 614 C 58.0938 -0.565682 -1.64548 0
M  V30 615 O 59.2698 -0.839801 -1.83055 0
M  V30 616 C 56.3348 -1.74107 -2.99813 0
M  V30 617 C 55.3958 -2.97653 -3.09356 0
M  V30 618 C 54.6288 -3.03163 -4.39236 0
M  V30 619 O 54.8518 -2.16396 -5.27758 0
M  V30 620 O 53.7858 -3.9558 -4.53652 0
M  V30 621 H 57.6118 -2.63907 -1.50289 0
M  V30 622 H 55.1968 -1.32951 -0.681502 0
M  V30 623 H 57.0788 -1.803 -3.80881 0
M  V30 624 H 55.7538 -0.816901 -3.13223 0
M  V30 625 H 54.6608 -2.96981 -2.27493 0
M  V30 626 H 55.9938 -3.89535 -3.00871 0
M  V30 627 N 57.6459 0.756429 -1.3826 0
M  V30 628 C 59.0619 1.0591 -1.19395 0
M  V30 629 C 59.2619 2.01459 -0.0406567 0
M  V30 630 O 58.3179 2.44909 0.614467 0
M  V30 631 C 59.6309 1.64191 -2.51916 0
M  V30 632 C 61.1789 1.76376 -2.58574 0
M  V30 633 C 61.6539 2.38069 -3.91264 0
M  V30 634 N 63.1449 2.45503 -3.92788 0
M  V30 635 C 63.8799 2.94126 -4.92217 0
M  V30 636 N 63.3759 3.42805 -6.02043 0
M  V30 637 N 65.1689 2.9314 -4.7961 0
M  V30 638 H 57.3199 0.122313 -2.12048 0
M  V30 639 H 59.5829 0.116892 -0.940766 0
M  V30 640 H 59.2889 1.01451 -3.3675 0
M  V30 641 H 59.1629 2.6329 -2.70108 0
M  V30 642 H 61.5499 2.38244 -1.74137 0
M  V30 643 H 61.6309 0.759894 -2.44252 0
M  V30 644 H 61.2749 1.76835 -4.76121 0
M  V30 645 H 61.2049 3.39091 -4.02895 0
M  V30 646 H 63.6959 2.1107 -3.13461 0
M  V30 647 H 64.0089 3.78354 -6.73846 0
M  V30 648 H 62.3539 3.4087 -6.05667 0
M  V30 649 H 65.5449 2.54419 -3.92923 0
M  V30 650 H 65.7179 3.30721 -5.5725 0
M  V30 651 N 59.124 1.23083 0.984299 0
M  V30 652 C 60.371 1.06057 1.72505 0
M  V30 653 C 60.699 -0.403105 1.90277 0
M  V30 654 O 59.954 -1.3149 1.44944 0
M  V30 655 C 60.253 1.72673 3.1292 0
M  V30 656 C 59.919 3.22586 3.15038 0
M  V30 657 C 58.581 3.63489 3.15324 0
M  V30 658 C 60.933 4.185 3.10657 0
M  V30 659 C 58.261 4.98772 3.08939 0
M  V30 660 C 60.613 5.53769 3.05814 0
M  V30 661 C 59.277 5.94041 3.04419 0
M  V30 662 H 58.547 0.388091 0.631242 0
M  V30 663 H 61.194 1.52963 1.15215 0
M  V30 664 H 59.499 1.18116 3.73572 0
M  V30 665 H 61.196 1.56982 3.68996 0
M  V30 666 H 57.786 2.90022 3.15571 0
M  V30 667 H 61.97 3.87911 3.09579 0
M  V30 668 H 57.226 5.29193 3.0621 0
M  V30 669 H 61.4 6.27808 3.0138 0
M  V30 670 H 59.027 6.98833 2.99227 0
M  V30 671 N 60.6021 -1.18246 1.0419 0
M  V30 672 C 61.8321 -1.91916 0.764961 0
M  V30 673 C 62.2401 -1.76485 -0.681898 0
M  V30 674 O 61.5831 -1.09275 -1.47664 0
M  V30 675 C 61.6451 -3.4373 1.05309 0
M  V30 676 C 61.3091 -3.8294 2.4941 0
M  V30 677 C 62.3061 -3.86621 3.47592 0
M  V30 678 C 59.9911 -4.142 2.84155 0
M  V30 679 C 61.9851 -4.21013 4.78568 0
M  V30 680 C 59.6721 -4.48262 4.15337 0
M  V30 681 C 60.6701 -4.51645 5.12353 0
M  V30 682 O 60.3581 -4.84911 6.41183 0
M  V30 683 H 60.0901 -0.61606 0.278292 0
M  V30 684 H 62.6441 -1.50947 1.39299 0
M  V30 685 H 60.8741 -3.84946 0.367933 0
M  V30 686 H 62.5631 -3.9865 0.763752 0
M  V30 687 H 63.3291 -3.62607 3.22089 0
M  V30 688 H 59.2081 -4.10743 2.09311 0
M  V30 689 H 62.7521 -4.23568 5.54289 0
M  V30 690 H 58.6491 -4.71737 4.40607 0
M  V30 691 H 59.4171 -5.02809 6.45852 0
M  V30 692 N 62.0802 -0.821533 -1.34494 0
M  V30 693 C 63.0272 -0.240397 -2.29545 0
M  V30 694 C 63.9972 0.634031 -1.53523 0
M  V30 695 O 65.1822 0.575966 -1.81899 0
M  V30 696 C 62.3222 0.592869 -3.39969 0
M  V30 697 C 61.4352 -0.30365 -4.30932 0
M  V30 698 C 60.5702 0.539049 -5.28458 0
M  V30 699 C 59.6092 -0.356942 -6.11058 0
M  V30 700 N 58.7462 0.446603 -7.00678 0
M  V30 701 H 63.5862 -1.05632 -2.7865 0
M  V30 702 H 61.1232 -0.532413 -1.37127 0
M  V30 703 H 63.0812 1.09129 -4.02675 0
M  V30 704 H 61.7112 1.37392 -2.92102 0
M  V30 705 H 60.7632 -0.920276 -3.691 0
M  V30 706 H 62.0752 -0.992661 -4.88823 0
M  V30 707 H 61.2292 1.102 -5.96608 0
M  V30 708 H 59.9682 1.26157 -4.71101 0
M  V30 709 H 58.9732 -0.932047 -5.41842 0
M  V30 710 H 60.1982 -1.07755 -6.70497 0
M  V30 711 H 58.1442 1.15282 -6.45791 0
M  V30 712 H 58.0612 -0.184048 -7.55776 0
M  V30 713 H 59.3292 0.992352 -7.73158 0
M  V30 714 N 63.5583 1.46682 -0.576371 0
M  V30 715 C 64.4883 2.33028 0.148397 0
M  V30 716 C 65.4693 1.44961 0.889956 0
M  V30 717 O 66.6543 1.73789 0.866662 0
M  V30 718 C 63.7843 3.27117 1.1667 0
M  V30 719 C 62.7383 4.24575 0.540386 0
M  V30 720 C 62.0643 5.08126 1.6647 0
M  V30 721 C 63.3643 5.19722 -0.518331 0
M  V30 722 H 65.0583 2.93875 -0.572509 0
M  V30 723 H 62.6043 1.41315 -0.276768 0
M  V30 724 H 64.5573 3.86374 1.68204 0
M  V30 725 H 63.2813 2.64364 1.9178 0
M  V30 726 H 61.9403 3.66571 0.0461769 0
M  V30 727 H 61.5883 4.41762 2.40531 0
M  V30 728 H 61.2883 5.74122 1.25131 0
M  V30 729 H 62.8123 5.70246 2.18293 0
M  V30 730 H 64.2263 5.73232 -0.0883058 0
M  V30 731 H 62.6233 5.94026 -0.851679 0
M  V30 732 H 63.6933 4.64037 -1.40703 0
M  V30 733 N 65.0364 0.313813 1.54444 0
M  V30 734 C 65.9684 -0.590425 2.21465 0
M  V30 735 C 66.9814 -1.08753 1.21147 0
M  V30 736 O 68.1704 -1.00278 1.4767 0
M  V30 737 C 65.2704 -1.82179 2.85769 0
M  V30 738 C 64.4434 -1.46502 4.12136 0
M  V30 739 C 63.5024 -2.55288 4.60124 0
M  V30 740 O 62.5284 -2.19842 5.25032 0
M  V30 741 N 63.7304 -3.86053 4.33525 0
M  V30 742 H 66.4954 -0.0166033 2.99695 0
M  V30 743 H 64.0564 0.136578 1.61323 0
M  V30 744 H 66.0484 -2.54328 3.14801 0
M  V30 745 H 64.6184 -2.30369 2.11303 0
M  V30 746 H 63.8384 -0.575595 3.89975 0
M  V30 747 H 65.1264 -1.20221 4.94393 0
M  V30 748 H 64.5244 -4.17654 3.81552 0
M  V30 749 H 63.0814 -4.54461 4.67235 0
M  V30 750 N 66.5145 -1.57545 0.0417849 0
M  V30 751 C 67.4245 -2.14451 -0.951213 0
M  V30 752 C 68.4405 -1.09992 -1.34825 0
M  V30 753 O 69.6165 -1.42114 -1.42708 0
M  V30 754 C 66.6815 -2.67063 -2.21084 0
M  V30 755 C 65.7425 -3.86284 -1.87304 0
M  V30 756 C 64.9755 -4.36378 -3.07261 0
M  V30 757 O 65.1985 -3.85587 -4.20332 0
M  V30 758 O 64.1325 -5.28077 -2.88822 0
M  V30 759 H 67.9585 -2.99601 -0.497287 0
M  V30 760 H 65.5435 -1.48317 -0.179567 0
M  V30 761 H 67.4255 -3.00914 -2.95006 0
M  V30 762 H 66.1005 -1.84989 -2.65633 0
M  V30 763 H 65.0075 -3.57338 -1.10727 0
M  V30 764 H 66.3405 -4.6956 -1.47562 0
M  V30 765 N 67.9926 0.231505 -1.5589 0
M  V30 766 C 69.2696 0.981096 -1.69215 0
M  V30 767 C 69.6496 2.02799 -0.586164 0
M  V30 768 O 68.9976 2.24823 0.408253 0
M  V30 769 C 69.2076 1.60054 -3.10135 0
M  V30 770 C 70.5556 2.09658 -3.69227 0
M  V30 771 O 71.5796 1.69967 -3.13033 0
M  V30 772 O 70.4386 2.8258 -4.67772 0
M  V30 773 H 67.5326 0.457653 -0.688827 0
M  V30 774 H 70.0786 0.224073 -1.68214 0
M  V30 775 H 68.8506 0.844105 -3.82087 0
M  V30 776 H 68.4736 2.42336 -3.15212 0
M  V30 777 N 69.4707 1.49531 0.497807 0
M  V30 778 C 70.7107 1.60799 1.26187 0
M  V30 779 C 71.0747 0.289627 1.89803 0
M  V30 780 O 72.2757 0.277512 2.67364 0
M  V30 781 C 70.5467 2.73729 2.29798 0
M  V30 782 S 72.1057 3.04968 3.155 0
M  V30 783 H 68.9237 0.567145 0.428798 0
M  V30 784 H 71.5257 1.87204 0.563477 0
M  V30 785 H 70.2297 3.68036 1.81597 0
M  V30 786 H 69.7607 2.49328 3.04301 0
M  V30 787 H 71.7757 2.46735 4.30507 0
M  V30 788 N 70.9488 -0.749086 1.3866 0
M  V30 789 C 71.8958 -1.86291 1.36251 0
M  V30 790 C 72.8658 -1.64578 0.224347 0
M  V30 791 O 74.0508 -1.86181 0.417279 0
M  V30 792 C 71.1908 -3.23644 1.19786 0
M  V30 793 C 70.3038 -3.57158 2.43027 0
M  V30 794 C 69.4388 -4.83838 2.19258 0
M  V30 795 C 68.4778 -5.10152 3.38247 0
M  V30 796 N 67.6148 -6.28029 3.13884 0
M  V30 797 H 72.4548 -1.87685 2.3147 0
M  V30 798 H 69.9918 -0.917287 1.14997 0
M  V30 799 H 71.9498 -4.0291 1.08254 0
M  V30 800 H 70.5798 -3.21566 0.282031 0
M  V30 801 H 69.6318 -2.72701 2.65214 0
M  V30 802 H 70.9438 -3.7253 3.31697 0
M  V30 803 H 70.0978 -5.71057 2.04888 0
M  V30 804 H 68.8368 -4.70614 1.2796 0
M  V30 805 H 67.8418 -4.21401 3.53131 0
M  V30 806 H 69.0668 -5.25271 4.30427 0
M  V30 807 H 67.0128 -6.1612 2.25238 0
M  V30 808 H 66.9298 -6.43922 3.96106 0
M  V30 809 H 68.1978 -7.18124 3.03179 0
M  V30 810 N 72.4269 -1.23603 -0.977757 0
M  V30 811 C 73.6549 -1.09646 -1.75458 0
M  V30 812 C 74.0699 0.351859 -1.85492 0
M  V30 813 O 73.4269 1.24327 -1.336 0
M  V30 814 C 73.4779 -1.71895 -3.18016 0
M  V30 815 O 73.1989 -3.11063 -3.08498 0
M  V30 816 C 74.6999 -1.63415 -4.12081 0
M  V30 817 H 71.9199 -0.38359 -0.550545 0
M  V30 818 H 74.4639 -1.63507 -1.22824 0
M  V30 819 H 72.6189 -1.22061 -3.67668 0
M  V30 820 H 73.0329 -3.41305 -3.9826 0
M  V30 821 H 74.5069 -2.11669 -5.09804 0
M  V30 822 H 74.9839 -0.593462 -4.35172 0
M  V30 823 H 75.5899 -2.12628 -3.68334 0
M  V30 824 N 73.905 1.17692 -1.04816 0
M  V30 825 C 75.154 1.87192 -0.751132 0
M  V30 826 C 75.467 1.8169 0.724441 0
M  V30 827 O 76.673 2.46625 1.13527 0
M  V30 828 C 75.129 3.35857 -1.29338 0
M  V30 829 C 74.737 3.4987 -2.79812 0
M  V30 830 C 76.481 4.10709 -1.07322 0
M  V30 831 C 74.388 4.92536 -3.27356 0
M  V30 832 H 73.318 0.701162 -0.277288 0
M  V30 833 H 75.969 1.32932 -1.26496 0
M  V30 834 H 74.351 3.89631 -0.707376 0
M  V30 835 H 75.525 3.06332 -3.44235 0
M  V30 836 H 73.84 2.88433 -3.00325 0
M  V30 837 H 76.437 5.15952 -1.4035 0
M  V30 838 H 76.78 4.16299 -0.0108001 0
M  V30 839 H 77.313 3.6313 -1.62423 0
M  V30 840 H 74.052 4.92119 -4.33012 0
M  V30 841 H 73.572 5.3676 -2.67673 0
M  V30 842 H 75.251 5.61288 -3.21815 0
M  V30 843 N 75.3831 0.828654 1.34056 0
M  V30 844 C 76.6291 0.429279 1.98818 0
M  V30 845 C 76.9841 -0.998011 1.64492 0
M  V30 846 O 76.2771 -1.68652 0.909228 0
M  V30 847 C 76.4711 0.575226 3.52741 0
M  V30 848 C 76.3001 2.01515 4.02022 0
M  V30 849 C 75.0701 2.64825 4.30344 0
M  V30 850 C 77.2681 2.98261 4.18981 0
M  V30 851 N 75.2501 3.99998 4.65698 0
M  V30 852 C 76.6211 4.18356 4.57578 0
M  V30 853 C 78.6761 2.94802 4.01243 0
M  V30 854 C 77.3791 5.35454 4.80293 0
M  V30 855 C 79.4051 4.11121 4.25128 0
M  V30 856 C 78.7671 5.29969 4.64018 0
M  V30 857 H 74.8661 0.205304 0.754569 0
M  V30 858 H 77.4501 1.07457 1.62361 0
M  V30 859 H 75.6211 -0.0401962 3.88379 0
M  V30 860 H 77.3531 0.148292 4.04428 0
M  V30 861 H 74.1081 2.16027 4.21461 0
M  V30 862 H 74.5321 4.69653 4.87601 0
M  V30 863 H 79.1741 2.04054 3.70299 0
M  V30 864 H 76.8921 6.26755 5.10102 0
M  V30 865 H 80.4781 4.0985 4.12934 0
M  V30 866 H 79.3581 6.18479 4.82134 0
M  V30 867 N 76.8612 -1.46375 0.584142 0
M  V30 868 C 77.7932 -2.28443 -0.186119 0
M  V30 869 C 78.8062 -1.38596 -0.854115 0
M  V30 870 O 79.9952 -1.63183 -0.723438 0
M  V30 871 C 77.0952 -3.13671 -1.28311 0
M  V30 872 C 76.2682 -4.31652 -0.706758 0
M  V30 873 C 75.3272 -4.98267 -1.69163 0
M  V30 874 O 74.3532 -5.55815 -1.22712 0
M  V30 875 N 75.5552 -4.95408 -3.02575 0
M  V30 876 H 78.3202 -2.9519 0.517986 0
M  V30 877 H 75.8812 -1.56303 0.42201 0
M  V30 878 H 77.8732 -3.55101 -1.94128 0
M  V30 879 H 76.4432 -2.48989 -1.89005 0
M  V30 880 H 75.6632 -3.93989 0.128908 0
M  V30 881 H 76.9512 -5.07906 -0.301506 0
M  V30 882 H 76.3492 -4.49902 -3.42936 0
M  V30 883 H 74.9062 -5.40774 -3.63877 0
M  V30 884 N 78.3393 -0.321999 -1.54275 0
M  V30 885 C 79.2493 0.553631 -2.27974 0
M  V30 886 C 80.2653 1.13054 -1.32268 0
M  V30 887 O 81.4413 1.15084 -1.6528 0
M  V30 888 C 78.5063 1.69927 -3.02201 0
M  V30 889 C 77.5673 1.15433 -4.1349 0
M  V30 890 C 76.8003 2.24537 -4.84168 0
M  V30 891 O 77.0233 3.44852 -4.5435 0
M  V30 892 O 75.9573 1.90044 -5.7111 0
M  V30 893 H 79.7833 -0.0448345 -3.03667 0
M  V30 894 H 77.3683 -0.0877418 -1.49142 0
M  V30 895 H 79.2503 2.3663 -3.48689 0
M  V30 896 H 77.9253 2.28395 -2.29385 0
M  V30 897 H 76.8323 0.452436 -3.71354 0
M  V30 898 H 78.1653 0.614805 -4.88345 0
M  V30 899 N 79.8174 1.5752 -0.0501392 0
M  V30 900 C 81.0424 1.97376 0.636997 0
M  V30 901 C 81.4674 0.927466 1.63645 0
M  V30 902 O 80.8254 -0.10941 1.8097 0
M  V30 903 C 80.8734 3.36304 1.30123 0
M  V30 904 O 79.9774 3.34156 2.41689 0
M  V30 905 H 79.3184 0.642998 0.165679 0
M  V30 906 H 81.8484 2.04258 -0.118233 0
M  V30 907 H 81.8584 3.73008 1.65315 0
M  V30 908 H 80.5334 4.11993 0.568746 0
M  V30 909 H 79.1104 3.09196 2.08451 0
M  V30 910 N 81.2955 -0.223234 1.56011 0
M  V30 911 C 82.7115 -0.572856 1.48965 0
M  V30 912 C 82.9115 -1.87225 0.74492 0
M  V30 913 O 81.9675 -2.50899 0.283896 0
M  V30 914 C 83.2805 -0.653646 2.9351 0
M  V30 915 C 84.8285 -0.744386 3.0402 0
M  V30 916 C 85.3035 -0.856535 4.49919 0
M  V30 917 N 86.7945 -0.9208 4.53955 0
M  V30 918 C 87.5295 -1.02726 5.64123 0
M  V30 919 N 87.0255 -1.09777 6.84047 0
M  V30 920 N 88.8185 -1.06226 5.51971 0
M  V30 921 H 80.9695 0.629462 2.02858 0
M  V30 922 H 83.2325 0.220621 0.921971 0
M  V30 923 H 82.9385 0.231518 3.50937 0
M  V30 924 H 82.8125 -1.51781 3.45315 0
M  V30 925 H 85.1995 -1.61999 2.46658 0
M  V30 926 H 85.2805 0.14541 2.55386 0
M  V30 927 H 84.9245 0.0146069 5.07898 0
M  V30 928 H 84.8545 -1.76172 4.96257 0
M  V30 929 H 87.3455 -0.876694 3.6759 0
M  V30 930 H 87.6585 -1.17872 7.63758 0
M  V30 931 H 86.0035 -1.06693 6.86762 0
M  V30 932 H 89.1945 -1.00382 4.5721 0
M  V30 933 H 89.3675 -1.14177 6.37862 0
M  V30 934 N 82.7736 -1.49793 -0.48987 0
M  V30 935 C 83.7206 -1.67281 -1.59014 0
M  V30 936 C 84.6906 -0.514177 -1.57941 0
M  V30 937 O 85.8756 -0.742533 -1.75759 0
M  V30 938 C 83.0156 -1.75569 -2.97102 0
M  V30 939 C 82.1286 -3.0281 -3.08107 0
M  V30 940 C 81.2636 -3.02008 -4.36995 0
M  V30 941 C 80.3026 -4.23782 -4.41673 0
M  V30 942 N 79.4396 -4.20826 -5.62005 0
M  V30 943 H 84.2796 -2.61224 -1.43409 0
M  V30 944 H 81.8166 -1.29508 -0.697565 0
M  V30 945 H 83.7746 -1.78354 -3.77155 0
M  V30 946 H 82.4046 -0.850827 -3.11385 0
M  V30 947 H 81.4566 -3.09584 -2.21047 0
M  V30 948 H 82.7686 -3.92801 -3.07423 0
M  V30 949 H 81.9226 -3.03418 -5.25378 0
M  V30 950 H 80.6616 -2.09815 -4.4026 0
M  V30 951 H 79.6666 -4.22604 -3.5169 0
M  V30 952 H 80.8916 -5.17181 -4.40115 0
M  V30 953 H 78.8376 -3.31476 -5.66091 0
M  V30 954 H 78.7546 -5.04564 -5.62984 0
M  V30 955 H 80.0226 -4.26355 -6.52565 0
M  V30 956 N 84.2517 0.741722 -1.39055 0
M  V30 957 C 85.4977 1.50336 -1.36113 0
M  V30 958 C 85.8307 1.94148 0.0450796 0
M  V30 959 O 85.1057 1.66301 1.00868 0
M  V30 960 C 85.3887 2.74773 -2.32749 0
M  V30 961 C 85.2417 2.37023 -3.82283 0
M  V30 962 C 86.5607 3.76846 -2.27322 0
M  V30 963 H 83.6797 0.545351 -0.495743 0
M  V30 964 H 86.3217 0.848624 -1.69995 0
M  V30 965 H 84.4717 3.30639 -2.03986 0
M  V30 966 H 86.1437 1.8684 -4.21768 0
M  V30 967 H 84.3867 1.69334 -3.99385 0
M  V30 968 H 85.0577 3.26104 -4.45376 0
M  V30 969 H 87.5337 3.30548 -2.5274 0
M  V30 970 H 86.4097 4.6159 -2.97028 0
M  V30 971 H 86.6707 4.23286 -1.27599 0
M  V30 972 N 85.7298 1.2412 0.971189 0
M  V30 973 C 86.6628 0.97373 2.06382 0
M  V30 974 C 87.6408 -0.0912662 1.62344 0
M  V30 975 O 88.8248 0.0449365 1.88446 0
M  V30 976 C 85.9518 0.468746 3.35441 0
M  V30 977 C 84.9978 1.52176 3.98428 0
M  V30 978 S 85.8308 3.10203 4.36503 0
M  V30 979 C 86.9868 2.61398 5.68702 0
M  V30 980 H 87.2198 1.89893 2.28753 0
M  V30 981 H 84.7528 1.07466 1.10862 0
M  V30 982 H 86.7108 0.184012 4.10087 0
M  V30 983 H 85.3718 -0.435688 3.11064 0
M  V30 984 H 84.5648 1.11876 4.91426 0
M  V30 985 H 84.1668 1.75632 3.30196 0
M  V30 986 H 86.4588 2.03992 6.4606 0
M  V30 987 H 87.4018 3.52972 6.13854 0
M  V30 988 H 87.8098 2.01941 5.27143 0
M  V30 989 N 87.2079 -1.17134 1.05439 0
M  V30 990 C 88.6239 -1.39454 0.776201 0
M  V30 991 C 88.8239 -1.91454 -0.628307 0
M  V30 992 O 87.8799 -2.10777 -1.39031 0
M  V30 993 C 89.1929 -2.38305 1.83388 0
M  V30 994 C 90.7409 -2.52006 1.85639 0
M  V30 995 C 91.2159 -3.54133 2.90437 0
M  V30 996 N 92.7069 -3.61653 2.89415 0
M  V30 997 C 93.4419 -4.4044 3.67152 0
M  V30 998 N 92.9379 -5.22721 4.54681 0
M  V30 999 N 94.7309 -4.35337 3.55581 0
M  V30 1000 H 86.8819 -0.817134 1.96053 0
M  V30 1001 H 89.1449 -0.421626 0.849079 0
M  V30 1002 H 88.8509 -2.07173 2.84204 0
M  V30 1003 H 88.7249 -3.37841 1.67761 0
M  V30 1004 H 91.1119 -2.82447 0.85486 0
M  V30 1005 H 91.1929 -1.52537 2.05344 0
M  V30 1006 H 90.8369 -3.24431 3.90777 0
M  V30 1007 H 90.7669 -4.53313 2.67983 0
M  V30 1008 H 93.2579 -3.02909 2.25952 0
M  V30 1009 H 93.5709 -5.80027 5.10674 0
M  V30 1010 H 91.9159 -5.22093 4.58741 0
M  V30 1011 H 95.1069 -3.70112 2.86592 0
M  V30 1012 H 95.2799 -4.96494 4.1641 0
M  V30 1013 N 88.686 -0.835752 -1.33615 0
M  V30 1014 C 89.914 -0.443344 -2.02094 0
M  V30 1015 C 90.329 0.954522 -1.62894 0
M  V30 1016 O 89.686 1.61982 -0.840723 0
M  V30 1017 C 89.737 -0.550775 -3.5728 0
M  V30 1018 O 89.458 -1.89356 -3.95065 0
M  V30 1019 C 90.959 -0.154919 -4.43029 0
M  V30 1020 H 88.179 -0.176359 -0.647409 0
M  V30 1021 H 90.723 -1.12746 -1.70612 0
M  V30 1022 H 88.878 0.0853997 -3.87306 0
M  V30 1023 H 89.292 -1.87687 -4.89769 0
M  V30 1024 H 90.766 -0.281144 -5.51284 0
M  V30 1025 H 91.243 0.902863 -4.2982 0
M  V30 1026 H 91.849 -0.765404 -4.18356 0
M  V30 1027 N 90.1641 1.46063 -0.591896 0
M  V30 1028 C 91.5751 1.85944 -0.167822 0
M  V30 1029 C 91.9261 1.49429 1.27143 0
M  V30 1030 O 91.0511 0.913515 1.96173 0
M  V30 1031 C 91.6461 3.37489 -0.297794 0
M  V30 1032 C 90.2051 3.76332 0.0714732 0
M  V30 1033 C 89.3521 2.7006 -0.629509 0
M  V30 1034 H 92.3031 1.37087 -0.799555 0
M  V30 1035 H 92.3241 3.77532 0.474349 0
M  V30 1036 H 91.8361 3.64034 -1.3454 0
M  V30 1037 H 89.9371 3.55405 1.11886 0
M  V30 1038 H 90.0501 4.78088 -0.311245 0
M  V30 1039 H 88.4141 2.54607 -0.0687867 0
M  V30 1040 H 89.1971 2.99444 -1.67894 0
M  V30 1041 N 91.6422 0.330177 1.54103 0
M  V30 1042 C 92.5522 -0.541534 2.28264 0
M  V30 1043 C 93.5682 -1.12351 1.32866 0
M  V30 1044 O 94.7442 -1.14206 1.65888 0
M  V30 1045 C 91.8092 -1.68322 3.03098 0
M  V30 1046 C 90.8702 -1.13238 4.14096 0
M  V30 1047 C 90.1032 -2.21966 4.85352 0
M  V30 1048 O 90.3262 -3.42437 4.56172 0
M  V30 1049 O 89.2602 -1.87013 5.7211 0
M  V30 1050 H 93.0862 0.060938 3.03639 0
M  V30 1051 H 90.6712 0.09565 1.49093 0
M  V30 1052 H 92.5532 -2.34777 3.49939 0
M  V30 1053 H 91.2282 -2.27176 2.30593 0
M  V30 1054 H 90.1352 -0.432736 3.71589 0
M  V30 1055 H 91.4682 -0.588898 4.88664 0
M  V30 1056 N 93.1203 -1.57491 0.0584922 0
M  V30 1057 C 94.3453 -1.97711 -0.62652 0
M  V30 1058 C 94.7703 -0.936132 -1.63151 0
M  V30 1059 O 94.1283 0.099811 -1.81025 0
M  V30 1060 C 94.1763 -3.36989 -1.28338 0
M  V30 1061 O 93.2803 -3.35433 -2.39913 0
M  V30 1062 H 92.6213 -0.643868 -0.162266 0
M  V30 1063 H 95.1513 -2.04193 0.129064 0
M  V30 1064 H 95.1613 -3.73879 -1.63335 0
M  V30 1065 H 93.8363 -4.12289 -0.546889 0
M  V30 1066 H 92.4133 -3.10298 -2.06809 0
M  V30 1067 N 94.5984 0.214957 -1.56127 0
M  V30 1068 C 95.5304 1.29004 -1.89448 0
M  V30 1069 C 96.5434 1.42716 -0.783326 0
M  V30 1070 O 97.7324 1.43496 -1.06166 0
M  V30 1071 C 94.8324 2.66482 -2.09381 0
M  V30 1072 C 94.0054 2.74633 -3.40434 0
M  V30 1073 C 93.0644 3.9317 -3.49719 0
M  V30 1074 O 92.0904 3.812 -4.227 0
M  V30 1075 N 93.2924 5.07765 -2.81346 0
M  V30 1076 H 96.0574 1.00743 -2.82261 0
M  V30 1077 H 93.6184 0.40497 -1.56753 0
M  V30 1078 H 95.6104 3.44173 -2.12901 0
M  V30 1079 H 94.1804 2.87314 -1.23163 0
M  V30 1080 H 93.4004 1.83368 -3.48955 0
M  V30 1081 H 94.6884 2.77054 -4.26754 0
M  V30 1082 H 94.0864 5.20386 -2.21843 0
M  V30 1083 H 92.6434 5.83474 -2.90519 0
M  V30 1084 N 96.0765 1.50051 0.48192 0
M  V30 1085 C 97.0065 1.71046 1.58951 0
M  V30 1086 C 97.9875 0.559288 1.60642 0
M  V30 1087 O 99.1725 0.797243 1.77081 0
M  V30 1088 C 96.3025 1.79462 2.97339 0
M  V30 1089 C 95.2565 2.94558 3.10515 0
M  V30 1090 C 94.5825 2.88105 4.50444 0
M  V30 1091 C 95.8825 4.35227 2.88747 0
M  V30 1092 H 97.5765 2.6378 1.41635 0
M  V30 1093 H 95.1225 1.26936 0.679942 0
M  V30 1094 H 97.0755 1.92734 3.74742 0
M  V30 1095 H 95.7995 0.833412 3.15788 0
M  V30 1096 H 94.4585 2.80918 2.35543 0
M  V30 1097 H 94.1065 1.89853 4.65795 0
M  V30 1098 H 93.8065 3.65366 4.60197 0
M  V30 1099 H 95.3305 3.03412 5.29881 0
M  V30 1100 H 96.7445 4.49449 3.55905 0
M  V30 1101 H 95.1415 5.13856 3.09955 0
M  V30 1102 H 96.2115 4.48347 1.84696 0
M  V30 1103 N 97.5546 -0.734337 1.39446 0
M  V30 1104 C 98.8016 -1.49391 1.36706 0
M  V30 1105 C 99.1296 -1.94465 -0.0367813 0
M  V30 1106 O 98.3846 -1.67154 -1.01774 0
M  V30 1107 C 98.6836 -2.74711 2.28623 0
M  V30 1108 C 98.3496 -2.48501 3.76242 0
M  V30 1109 C 97.0116 -2.41062 4.16464 0
M  V30 1110 C 99.3636 -2.26098 4.69606 0
M  V30 1111 C 96.6916 -2.09262 5.48112 0
M  V30 1112 C 99.0436 -1.95814 6.01531 0
M  V30 1113 C 97.7076 -1.86845 6.40816 0
M  V30 1114 H 96.9776 -0.546661 0.500243 0
M  V30 1115 H 99.6246 -0.842788 1.71957 0
M  V30 1116 H 97.9296 -3.44569 1.86492 0
M  V30 1117 H 99.6266 -3.32741 2.23796 0
M  V30 1118 H 96.2166 -2.55169 3.44364 0
M  V30 1119 H 100.401 -2.30812 4.39363 0
M  V30 1120 H 95.6566 -2.00841 5.77471 0
M  V30 1121 H 99.8306 -1.77488 6.73403 0
M  V30 1122 H 97.4576 -1.6197 7.42745 0
M  V30 1123 N 99.0327 -1.24633 -0.964593 0
M  V30 1124 C 100.258 -1.11596 -1.74818 0
M  V30 1125 C 100.683 0.32723 -1.85232 0
M  V30 1126 O 100.041 1.23695 -1.32549 0
M  V30 1127 C 100.089 -1.76397 -3.1451 0
M  V30 1128 O 99.1927 -1.03685 -3.99153 0
M  V30 1129 H 98.5337 -0.390196 -0.537255 0
M  V30 1130 H 101.064 -1.65002 -1.20977 0
M  V30 1131 H 101.074 -1.8228 -3.65018 0
M  V30 1132 H 99.7487 -2.81401 -3.06246 0
M  V30 1133 H 98.3257 -1.05611 -3.57632 0
M  V30 1134 N 100.511 1.16574 -1.06058 0
M  V30 1135 C 101.76 1.86385 -0.770944 0
M  V30 1136 C 102.073 1.82448 0.705129 0
M  V30 1137 O 103.279 2.47815 1.10905 0
M  V30 1138 C 101.735 3.34466 -1.32893 0
M  V30 1139 C 101.343 3.46883 -2.83507 0
M  V30 1140 C 103.087 4.09548 -1.11672 0
M  V30 1141 C 100.994 4.89036 -3.32562 0
M  V30 1142 H 99.9238 0.698181 -0.284709 0
M  V30 1143 H 102.575 1.31583 -1.27899 0
M  V30 1144 H 100.957 3.88859 -0.748662 0
M  V30 1145 H 102.131 3.02663 -3.47465 0
M  V30 1146 H 100.446 2.85232 -3.03368 0
M  V30 1147 H 103.043 5.14434 -1.45814 0
M  V30 1148 H 103.386 4.16264 -0.0549535 0
M  V30 1149 H 103.919 3.61387 -1.66265 0
M  V30 1150 H 100.658 4.87499 -4.38207 0
M  V30 1151 H 100.178 5.3389 -2.73351 0
M  V30 1152 H 101.857 5.57843 -3.2775 0
M  V30 1153 N 101.989 0.842826 1.3317 0
M  V30 1154 C 102.899 0.281444 2.32906 0
M  V30 1155 C 103.915 -0.594587 1.63526 0
M  V30 1156 O 105.091 -0.49777 1.95152 0
M  V30 1157 C 102.156 -0.530929 3.42611 0
M  V30 1158 C 101.217 0.369843 4.27704 0
M  V30 1159 C 100.45 -0.403853 5.3217 0
M  V30 1160 O 100.673 -1.63513 5.46461 0
M  V30 1161 O 99.6069 0.224199 6.01482 0
M  V30 1162 H 103.433 1.10744 2.82789 0
M  V30 1163 H 101.018 0.60545 1.36582 0
M  V30 1164 H 102.9 -0.992437 4.09547 0
M  V30 1165 H 101.575 -1.33392 2.94938 0
M  V30 1166 H 100.482 0.879275 3.6362 0
M  V30 1167 H 101.815 1.13771 4.78871 0
M  V30 1168 N 103.467 -1.45747 0.599634 0
M  V30 1169 C 104.744 -1.95585 0.0240846 0
M  V30 1170 C 105.124 -1.54217 -1.44154 0
M  V30 1171 O 104.472 -0.800903 -2.14004 0
M  V30 1172 C 104.682 -3.48344 0.21385 0
M  V30 1173 C 106.03 -4.24504 0.0904902 0
M  V30 1174 O 107.054 -3.55911 0.143558 0
M  V30 1175 O 105.913 -5.46491 -0.0310766 0
M  V30 1176 H 103.007 -0.82602 -0.0402478 0
M  V30 1177 H 105.553 -1.55951 0.669139 0
M  V30 1178 H 104.325 -3.71397 1.23206 0
M  V30 1179 H 103.948 -3.9485 -0.466842 0
M  V30 1180 N 104.945 -0.338344 -1.53925 0
M  V30 1181 C 106.194 0.260732 -2.00008 0
M  V30 1182 C 106.507 1.52073 -1.23017 0
M  V30 1183 O 107.713 2.19672 -1.5955 0
M  V30 1184 C 106.169 0.51515 -3.56194 0
M  V30 1185 C 105.777 -0.728645 -4.42035 0
M  V30 1186 C 107.521 1.07337 -4.10706 0
M  V30 1187 C 105.428 -0.445315 -5.89721 0
M  V30 1188 H 104.358 0.101205 -0.747177 0
M  V30 1189 H 107.009 -0.452866 -1.77824 0
M  V30 1190 H 105.391 1.28932 -3.74423 0
M  V30 1191 H 106.565 -1.50352 -4.35581 0
M  V30 1192 H 104.88 -1.20813 -3.98489 0
M  V30 1193 H 107.477 1.30022 -5.18651 0
M  V30 1194 H 107.82 2.0273 -3.63602 0
M  V30 1195 H 108.353 0.360034 -3.96167 0
M  V30 1196 H 105.092 -1.36883 -6.41049 0
M  V30 1197 H 104.612 0.291569 -5.99091 0
M  V30 1198 H 106.291 -0.0606218 -6.46972 0
M  V30 1199 N 106.423 1.57458 -0.0668435 0
M  V30 1200 C 107.355 2.09413 0.931601 0
M  V30 1201 C 108.368 1.02522 1.26464 0
M  V30 1202 O 109.557 1.30049 1.22269 0
M  V30 1203 C 106.657 2.53537 2.24882 0
M  V30 1204 C 105.83 3.83944 2.09537 0
M  V30 1205 C 104.889 4.14214 3.2452 0
M  V30 1206 O 103.915 4.83891 2.9973 0
M  V30 1207 N 105.117 3.67367 4.49469 0
M  V30 1208 H 107.882 2.95699 0.488048 0
M  V30 1209 H 105.443 1.61462 0.119009 0
M  V30 1210 H 107.435 2.70853 3.00701 0
M  V30 1211 H 106.005 1.72415 2.60753 0
M  V30 1212 H 105.225 3.76057 1.18215 0
M  V30 1213 H 106.513 4.69312 1.96529 0
M  V30 1214 H 105.911 3.11068 4.72497 0
M  V30 1215 H 104.468 3.89891 5.2233 0
M  V30 1216 N 107.901 -0.206675 1.56239 0
M  V30 1217 C 108.811 -1.27686 1.96808 0
M  V30 1218 C 109.827 -1.50455 0.874035 0
M  V30 1219 O 111.003 -1.63295 1.17884 0
M  V30 1220 C 108.068 -2.60358 2.28942 0
M  V30 1221 C 107.129 -2.45762 3.51994 0
M  V30 1222 C 106.362 -3.72108 3.82585 0
M  V30 1223 O 106.585 -4.75776 3.14631 0
M  V30 1224 O 105.519 -3.6833 4.76043 0
M  V30 1225 H 109.345 -0.962593 2.88041 0
M  V30 1226 H 106.93 -0.410746 1.43643 0
M  V30 1227 H 108.812 -3.38687 2.50737 0
M  V30 1228 H 107.487 -2.91435 1.4088 0
M  V30 1229 H 106.394 -1.65584 3.35459 0
M  V30 1230 H 107.727 -2.19621 4.40486 0
M  V30 1231 N 109.379 -1.50304 -0.473955 0
M  V30 1232 C 110.625 -1.61389 -1.22806 0
M  V30 1233 C 110.958 -0.311955 -1.91678 0
M  V30 1234 O 110.233 0.686384 -1.81986 0
M  V30 1235 C 110.516 -2.79219 -2.27396 0
M  V30 1236 C 110.369 -4.19286 -1.62848 0
M  V30 1237 C 111.688 -2.92614 -3.28732 0
M  V30 1238 H 108.807 -0.587399 -0.445119 0
M  V30 1239 H 111.449 -1.82681 -0.522265 0
M  V30 1240 H 109.599 -2.61195 -2.87592 0
M  V30 1241 H 111.271 -4.48892 -1.06271 0
M  V30 1242 H 109.514 -4.23677 -0.931693 0
M  V30 1243 H 110.185 -4.97655 -2.38838 0
M  V30 1244 H 112.661 -3.09105 -2.78556 0
M  V30 1245 H 111.537 -3.76688 -3.99246 0
M  V30 1246 H 111.798 -2.03107 -3.92683 0
M  V30 1247 N 110.857 0.726932 -1.39834 0
M  V30 1248 C 112.273 1.03354 -1.21615 0
M  V30 1249 C 112.473 2.01327 -0.08338 0
M  V30 1250 O 111.529 2.46158 0.56238 0
M  V30 1251 C 112.842 1.58811 -2.55342 0
M  V30 1252 C 114.39 1.70851 -2.62257 0
M  V30 1253 C 114.865 2.29716 -3.96225 0
M  V30 1254 N 116.356 2.37116 -3.97907 0
M  V30 1255 C 117.091 2.83619 -4.98345 0
M  V30 1256 N 116.587 3.29958 -6.09179 0
M  V30 1257 N 118.38 2.82901 -4.8572 0
M  V30 1258 H 110.531 0.0773069 -2.12259 0
M  V30 1259 H 112.794 0.0969102 -0.943034 0
M  V30 1260 H 112.5 0.942855 -3.38826 0
M  V30 1261 H 112.374 2.57502 -2.75632 0
M  V30 1262 H 114.761 2.34497 -1.79152 0
M  V30 1263 H 114.842 0.707913 -2.45809 0
M  V30 1264 H 114.486 1.66696 -4.79765 0
M  V30 1265 H 114.416 3.30469 -4.09997 0
M  V30 1266 H 116.907 2.04374 -3.17868 0
M  V30 1267 H 117.22 3.63976 -6.8172 0
M  V30 1268 H 115.565 3.27946 -6.12761 0
M  V30 1269 H 118.756 2.46027 -3.98231 0
M  V30 1270 H 118.929 3.18827 -5.6414 0
M  V30 1271 N 112.336 1.25143 0.95797 0
M  V30 1272 C 113.269 0.995565 2.05338 0
M  V30 1273 C 114.247 -0.0740423 1.62431 0
M  V30 1274 O 115.431 0.0649212 1.88388 0
M  V30 1275 C 112.558 0.504298 3.34925 0
M  V30 1276 C 111.604 1.56393 3.96792 0
M  V30 1277 S 112.437 3.14815 4.33188 0
M  V30 1278 C 113.593 2.67415 5.65898 0
M  V30 1279 H 113.826 1.92309 2.26726 0
M  V30 1280 H 111.359 1.08635 1.09716 0
M  V30 1281 H 113.317 0.227497 4.09869 0
M  V30 1282 H 111.978 -0.402671 3.11508 0
M  V30 1283 H 111.171 1.17082 4.90212 0
M  V30 1284 H 110.773 1.79124 3.28315 0
M  V30 1285 H 113.065 2.10833 6.4386 0
M  V30 1286 H 114.008 3.59463 6.10076 0
M  V30 1287 H 114.416 2.07521 5.24972 0
M  V30 1288 N 113.814 -1.1601 1.06675 0
M  V30 1289 C 115.062 -1.86264 0.784229 0
M  V30 1290 C 115.383 -1.82328 -0.691488 0
M  V30 1291 O 114.653 -1.25947 -1.50047 0
M  V30 1292 H 113.233 -0.689621 0.28711 0
M  V30 1293 H 115.895 -1.40664 1.34906 0
M  V30 1294 H 114.991 -2.91595 1.11259 0
M  V30 1295 N 115.292 -0.849877 -1.32721 0
M  V30 1296 C 116.242 -0.262892 -2.26479 0
M  V30 1297 C 117.226 0.588493 -1.49752 0
M  V30 1298 O 118.418 0.438659 -1.71478 0
M  V30 1299 C 115.547 0.551818 -3.38836 0
M  V30 1300 C 114.633 -0.311689 -4.22953 0
M  V30 1301 N 115.024 -1.39567 -4.86163 0
M  V30 1302 C 113.322 -0.100611 -4.45887 0
M  V30 1303 C 114.023 -1.92651 -5.48872 0
M  V30 1304 N 112.999 -1.22637 -5.29586 0
M  V30 1305 H 116.801 -1.09166 -2.72873 0
M  V30 1306 H 114.315 -0.695486 -1.46754 0
M  V30 1307 H 116.312 0.988713 -4.05006 0
M  V30 1308 H 114.972 1.37844 -2.93988 0
M  V30 1309 H 115.983 -1.77859 -4.86402 0
M  V30 1310 H 112.66 0.691681 -4.11731 0
M  V30 1311 H 114.05 -2.83487 -6.09167 0
M  V30 1312 N 116.77 1.45427 -0.607355 0
M  V30 1313 C 118.186 1.57283 -0.270985 0
M  V30 1314 C 118.386 1.59875 1.22647 0
M  V30 1315 O 117.442 1.52893 2.00948 0
M  V30 1316 C 118.755 2.85566 -0.941952 0
M  V30 1317 C 120.303 2.9924 -0.917849 0
M  V30 1318 C 120.778 4.30293 -1.56882 0
M  V30 1319 N 122.269 4.37051 -1.5343 0
M  V30 1320 C 123.004 5.37123 -2.00715 0
M  V30 1321 N 122.5 6.43734 -2.56084 0
M  V30 1322 N 124.293 5.28479 -1.91484 0
M  V30 1323 H 116.444 1.41988 -1.57966 0
M  V30 1324 H 118.707 0.67885 -0.661715 0
M  V30 1325 H 118.413 2.8955 -1.99633 0
M  V30 1326 H 118.287 3.74322 -0.465096 0
M  V30 1327 H 120.674 2.94822 0.127984 0
M  V30 1328 H 120.755 2.11895 -1.43297 0
M  V30 1329 H 120.399 4.35469 -2.61398 0
M  V30 1330 H 120.329 5.16454 -1.02873 0
M  V30 1331 H 122.82 3.60615 -1.12982 0
M  V30 1332 H 123.133 7.16341 -2.89958 0
M  V30 1333 H 121.478 6.44485 -2.60122 0
M  V30 1334 H 124.669 4.44098 -1.47967 0
M  V30 1335 H 124.842 6.0632 -2.28648 0
M  V30 1336 N 118.248 0.346503 1.53744 0
M  V30 1337 C 119.476 -0.25041 2.05379 0
M  V30 1338 C 119.891 -1.43979 1.22129 0
M  V30 1339 O 119.248 -1.80677 0.257321 0
M  V30 1340 C 119.299 -0.662575 3.55376 0
M  V30 1341 O 119.02 0.479515 4.35468 0
M  V30 1342 C 120.521 -1.31989 4.23195 0
M  V30 1343 H 117.741 -0.0478198 0.669294 0
M  V30 1344 H 120.285 0.499346 1.9831 0
M  V30 1345 H 118.44 -1.36227 3.62658 0
M  V30 1346 H 118.854 0.15037 5.24284 0
M  V30 1347 H 120.328 -1.55902 5.29527 0
M  V30 1348 H 120.805 -2.27436 3.75725 0
M  V30 1349 H 121.411 -0.662154 4.20114 0
M  V30 1350 N 119.726 -1.57421 0.075193 0
M  V30 1351 C 120.636 -2.1642 -0.905511 0
M  V30 1352 C 121.652 -1.12828 -1.32461 0
M  V30 1353 O 122.828 -1.45109 -1.39661 0
M  V30 1354 C 119.893 -2.71693 -2.15369 0
M  V30 1355 C 118.954 -3.90171 -1.79068 0
M  V30 1356 C 118.187 -4.42798 -2.97936 0
M  V30 1357 O 118.41 -3.94416 -4.12058 0
M  V30 1358 O 117.344 -5.34085 -2.77555 0
M  V30 1359 H 121.17 -3.00588 -0.433626 0
M  V30 1360 H 118.755 -1.48664 -0.148067 0
M  V30 1361 H 120.637 -3.07104 -2.88557 0
M  V30 1362 H 119.312 -1.90582 -2.61649 0
M  V30 1363 H 118.219 -3.59606 -1.03122 0
M  V30 1364 H 119.552 -4.72584 -1.37569 0
M  V30 1365 N 121.204 0.198386 -1.56346 0
M  V30 1366 C 122.452 0.91747 -1.80075 0
M  V30 1367 C 122.773 1.83929 -0.647692 0
M  V30 1368 O 122.043 1.93029 0.334166 0
M  V30 1369 H 120.623 0.341774 -0.664228 0
M  V30 1370 H 123.285 0.204684 -1.93822 0
M  V30 1371 H 122.381 1.51055 -2.7311 0
M  V30 1372 N 122.682 1.50554 0.465978 0
M  V30 1373 C 123.612 1.72722 1.57128 0
M  V30 1374 C 124.593 0.576294 1.6004 0
M  V30 1375 O 125.778 0.81598 1.76225 0
M  V30 1376 C 122.908 1.82605 2.95419 0
M  V30 1377 C 121.862 2.97835 3.07373 0
M  V30 1378 C 121.188 2.92867 4.47363 0
M  V30 1379 C 122.488 4.38265 2.84114 0
M  V30 1380 H 124.182 2.65267 1.38829 0
M  V30 1381 H 121.728 1.2765 0.666441 0
M  V30 1382 H 123.681 1.96698 3.72677 0
M  V30 1383 H 122.405 0.866858 3.14886 0
M  V30 1384 H 121.064 2.83401 2.3255 0
M  V30 1385 H 120.712 1.94783 4.63755 0
M  V30 1386 H 120.412 3.70227 4.56296 0
M  V30 1387 H 121.936 3.09015 5.26633 0
M  V30 1388 H 123.35 4.53198 3.51118 0
M  V30 1389 H 121.747 5.17115 3.04487 0
M  V30 1390 H 122.817 4.50281 1.7993 0
M  V30 1391 N 124.16 -0.719506 1.40217 0
M  V30 1392 C 125.07 -1.86378 1.42479 0
M  V30 1393 C 126.086 -1.71073 0.317834 0
M  V30 1394 O 127.262 -1.93406 0.561794 0
M  V30 1395 C 124.327 -3.22136 1.28178 0
M  V30 1396 C 123.388 -3.49723 2.48982 0
M  V30 1397 C 122.621 -4.79004 2.35353 0
M  V30 1398 O 122.844 -5.53821 1.36524 0
M  V30 1399 O 121.778 -5.06839 3.2465 0
M  V30 1400 H 125.604 -1.87425 2.38968 0
M  V30 1401 H 123.189 -0.869405 1.21498 0
M  V30 1402 H 125.071 -4.03234 1.22395 0
M  V30 1403 H 123.746 -3.21825 0.347934 0
M  V30 1404 H 122.653 -2.6865 2.60342 0
M  V30 1405 H 123.986 -3.54828 3.41113 0
M  V30 1406 N 125.638 -1.25649 -0.95132 0
M  V30 1407 C 126.585 -1.06323 -2.04851 0
M  V30 1408 C 127.555 0.0286491 -1.66075 0
M  V30 1409 O 128.74 -0.12917 -1.90362 0
M  V30 1410 C 125.88 -0.691529 -3.381 0
M  V30 1411 C 124.993 -1.85861 -3.89974 0
M  V30 1412 C 124.128 -1.43096 -5.11563 0
M  V30 1413 C 123.167 -2.56696 -5.55674 0
M  V30 1414 N 122.304 -2.14684 -6.68472 0
M  V30 1415 H 127.144 -2.00222 -2.20715 0
M  V30 1416 H 124.681 -0.997027 -1.08156 0
M  V30 1417 H 126.639 -0.456963 -4.1469 0
M  V30 1418 H 125.269 0.210474 -3.22113 0
M  V30 1419 H 124.321 -2.20639 -3.09875 0
M  V30 1420 H 125.633 -2.71161 -4.18657 0
M  V30 1421 H 124.787 -1.15624 -5.9558 0
M  V30 1422 H 123.526 -0.548722 -4.84603 0
M  V30 1423 H 122.531 -2.84909 -4.7022 0
M  V30 1424 H 123.756 -3.45503 -5.8464 0
M  V30 1425 H 121.702 -1.28881 -6.43215 0
M  V30 1426 H 121.619 -2.9353 -6.96689 0
M  V30 1427 H 122.887 -1.90397 -7.5589 0
M  V30 1428 N 127.117 1.15442 -1.07289 0
M  V30 1429 C 128.364 1.86213 -0.795668 0
M  V30 1430 C 128.692 1.82291 0.678238 0
M  V30 1431 O 127.947 1.24057 1.51355 0
M  V30 1432 C 128.246 3.3489 -1.24834 0
M  V30 1433 C 127.912 3.59007 -2.72809 0
M  V30 1434 C 126.574 3.65298 -3.13227 0
M  V30 1435 C 128.926 3.68762 -3.68326 0
M  V30 1436 C 126.254 3.78854 -4.4798 0
M  V30 1437 C 128.606 3.83842 -5.0284 0
M  V30 1438 C 127.27 3.88378 -5.4288 0
M  V30 1439 H 126.54 0.681403 -0.291155 0
M  V30 1440 H 129.187 1.36435 -1.34379 0
M  V30 1441 H 127.492 3.8687 -0.619595 0
M  V30 1442 H 129.189 3.88052 -1.01076 0
M  V30 1443 H 125.779 3.5475 -2.40521 0
M  V30 1444 H 129.963 3.63202 -3.38227 0
M  V30 1445 H 125.219 3.80623 -4.78472 0
M  V30 1446 H 129.393 3.90332 -5.76727 0
M  V30 1447 H 127.02 3.98635 -6.47298 0
M  V30 1448 N 128.595 0.856903 1.32268 0
M  V30 1449 C 129.558 0.308171 2.27119 0
M  V30 1450 C 130.558 -0.533421 1.51695 0
M  V30 1451 O 131.748 -0.344607 1.70757 0
M  V30 1452 C 128.88 -0.563757 3.36206 0
M  V30 1453 H 130.073 1.14535 2.77167 0
M  V30 1454 H 127.626 0.631421 1.42978 0
M  V30 1455 H 128.361 -1.42266 2.91429 0
M  V30 1456 H 128.146 0.0386749 3.92081 0
M  V30 1457 H 129.636 -0.940386 4.06874 0
M  V30 1458 N 130.073 -1.45103 0.615059 0
M  V30 1459 C 131.489 -1.57137 0.279322 0
M  V30 1460 C 131.689 -1.60523 -1.21797 0
M  V30 1461 O 130.745 -1.53956 -2.00134 0
M  V30 1462 C 132.058 -2.85062 0.957083 0
M  V30 1463 C 133.606 -2.98749 0.933706 0
M  V30 1464 C 134.081 -4.29455 1.59162 0
M  V30 1465 N 135.572 -4.36231 1.55746 0
M  V30 1466 C 136.307 -5.36051 2.0356 0
M  V30 1467 N 135.803 -6.42367 2.59494 0
M  V30 1468 N 137.596 -5.27456 1.94284 0
M  V30 1469 H 129.747 -1.41148 1.58717 0
M  V30 1470 H 132.01 -0.675331 0.665306 0
M  V30 1471 H 131.716 -2.88488 2.01166 0
M  V30 1472 H 131.59 -3.7407 0.48494 0
M  V30 1473 H 133.977 -2.94886 -0.112347 0
M  V30 1474 H 134.058 -2.11132 1.44419 0
M  V30 1475 H 133.702 -4.34077 2.63704 0
M  V30 1476 H 133.632 -5.15901 1.0561 0
M  V30 1477 H 136.123 -3.60011 1.14893 0
M  V30 1478 H 136.436 -7.14793 2.93752 0
M  V30 1479 H 134.781 -6.43097 2.63537 0
M  V30 1480 H 137.972 -4.43308 1.5032 0
M  V30 1481 H 138.145 -6.05099 2.3186 0
M  V30 1482 N 131.551 -0.354651 -1.53558 0
M  V30 1483 C 132.828 0.294281 -1.93374 0
M  V30 1484 C 133.208 1.67313 -1.28723 0
M  V30 1485 O 132.556 2.24179 -0.442247 0
M  V30 1486 C 132.766 0.355445 -3.47185 0
M  V30 1487 C 134.114 0.601007 -4.20325 0
M  V30 1488 O 135.138 0.437106 -3.53508 0
M  V30 1489 O 133.997 0.919322 -5.38712 0
M  V30 1490 H 131.091 0.174033 -0.808481 0
M  V30 1491 H 133.637 -0.406638 -1.64756 0
M  V30 1492 H 132.409 -0.611729 -3.86489 0
M  V30 1493 H 132.032 1.1027 -3.82003 0
M  V30 1494 N 133.029 1.57378 -0.0835403 0
M  V30 1495 C 134.275 1.94217 0.583733 0
M  V30 1496 C 134.608 0.964653 1.68547 0
M  V30 1497 O 133.883 -0.00422258 1.945 0
M  V30 1498 C 134.166 3.41253 1.14972 0
M  V30 1499 C 134.019 4.49768 0.0538277 0
M  V30 1500 C 135.338 3.89352 2.05166 0
M  V30 1501 H 132.457 0.706233 0.210724 0
M  V30 1502 H 135.099 1.89392 -0.1519 0
M  V30 1503 H 133.249 3.45496 1.77665 0
M  V30 1504 H 134.921 4.57641 -0.579851 0
M  V30 1505 H 133.164 4.29432 -0.614068 0
M  V30 1506 H 133.835 5.49817 0.490452 0
M  V30 1507 H 136.311 3.87189 1.52393 0
M  V30 1508 H 135.187 4.92822 2.41698 0
M  V30 1509 H 135.448 3.27973 2.96456 0
M  V30 1510 N 134.507 -0.190092 1.56449 0
M  V30 1511 C 135.918 -0.754312 1.70784 0
M  V30 1512 C 136.269 -1.83631 0.690951 0
M  V30 1513 O 135.394 -2.15868 -0.151604 0
M  V30 1514 C 135.989 -1.37503 3.09642 0
M  V30 1515 C 134.548 -1.88628 3.25725 0
M  V30 1516 C 133.695 -0.758098 2.66736 0
M  V30 1517 H 136.646 0.0350524 1.58661 0
M  V30 1518 H 136.667 -2.2445 3.0725 0
M  V30 1519 H 136.179 -0.587302 3.83631 0
M  V30 1520 H 134.28 -2.70103 2.56661 0
M  V30 1521 H 134.393 -2.04462 4.3328 0
M  V30 1522 H 132.757 -1.17369 2.26046 0
M  V30 1523 H 133.54 0.0174705 3.43296 0
M  V30 1524 N 135.985 -1.50799 -0.457987 0
M  V30 1525 C 136.895 -1.73426 -1.57989 0
M  V30 1526 C 137.911 -0.617745 -1.62665 0
M  V30 1527 O 139.087 -0.897614 -1.80291 0
M  V30 1528 C 136.152 -1.83557 -2.94122 0
M  V30 1529 C 135.213 -3.07345 -2.99729 0
M  V30 1530 C 134.446 -3.16983 -4.29368 0
M  V30 1531 O 134.669 -2.33077 -5.20607 0
M  V30 1532 O 133.603 -4.09812 -4.40837 0
M  V30 1533 H 137.429 -2.68555 -1.41817 0
M  V30 1534 H 135.014 -1.35052 -0.638859 0
M  V30 1535 H 136.896 -1.92326 -3.74952 0
M  V30 1536 H 135.571 -0.916137 -3.10465 0
M  V30 1537 H 134.478 -3.04068 -2.1793 0
M  V30 1538 H 135.811 -3.9891 -2.88326 0
M  V30 1539 N 137.463 0.71206 -1.40597 0
M  V30 1540 C 138.74 1.46536 -1.29563 0
M  V30 1541 C 139.12 2.10931 0.0844217 0
M  V30 1542 O 138.468 2.00418 1.0975 0
M  V30 1543 C 138.678 2.49821 -2.43701 0
M  V30 1544 C 140.026 3.15551 -2.841 0
M  V30 1545 O 141.05 2.60142 -2.4332 0
M  V30 1546 O 139.909 4.15867 -3.54566 0
M  V30 1547 H 137.003 0.651801 -0.509004 0
M  V30 1548 H 139.549 0.743935 -1.52524 0
M  V30 1549 H 138.321 2.00778 -3.35863 0
M  V30 1550 H 137.944 3.29495 -2.22528 0
M  V30 1551 N 138.941 1.26152 0.944643 0
M  V30 1552 C 140.357 1.03189 1.21754 0
M  V30 1553 C 140.557 -0.245112 2.00004 0
M  V30 1554 O 139.613 -0.955176 2.33736 0
M  V30 1555 C 140.926 2.26119 1.98219 0
M  V30 1556 C 142.474 2.30984 2.11224 0
M  V30 1557 C 142.949 3.53597 2.91089 0
M  V30 1558 N 144.44 3.54053 2.98664 0
M  V30 1559 C 145.175 4.45593 3.60881 0
M  V30 1560 N 144.671 5.47416 4.24626 0
M  V30 1561 N 146.464 4.33252 3.58119 0
M  V30 1562 H 138.615 2.08177 0.421437 0
M  V30 1563 H 140.878 0.914723 0.248969 0
M  V30 1564 H 140.584 3.18984 1.48128 0
M  V30 1565 H 140.458 2.3009 2.98895 0
M  V30 1566 H 142.845 1.38635 2.60508 0
M  V30 1567 H 142.926 2.31026 1.09821 0
M  V30 1568 H 142.57 4.46273 2.42493 0
M  V30 1569 H 142.5 3.50802 3.92741 0
M  V30 1570 H 144.991 2.80403 2.53343 0
M  V30 1571 H 145.304 6.13459 4.69987 0
M  V30 1572 H 143.649 5.51278 4.23223 0
M  V30 1573 H 146.84 3.52924 3.0751 0
M  V30 1574 H 147.013 5.04786 4.06319 0
M  V30 1575 N 140.419 -1.14872 1.07899 0
M  V30 1576 C 141.659 -1.8745 0.814965 0
M  V30 1577 C 142.023 -1.80758 -0.64733 0
M  V30 1578 O 143.224 -2.48422 -1.02664 0
M  V30 1579 C 141.495 -3.32286 1.31607 0
M  V30 1580 S 143.054 -4.22537 1.18357 0
M  V30 1581 H 139.872 -0.646833 0.295174 0
M  V30 1582 H 142.474 -1.38555 1.37923 0
M  V30 1583 H 141.178 -3.34703 2.37491 0
M  V30 1584 H 140.709 -3.86238 0.747261 0
M  V30 1585 H 142.724 -4.96044 0.124586 0
M  V30 1586 N 141.898 -0.863906 -1.31812 0
M  V30 1587 C 143.145 -0.471836 -1.96926 0
M  V30 1588 C 143.473 0.974578 -1.68322 0
M  V30 1589 O 142.728 1.7003 -0.968933 0
M  V30 1590 C 143.027 -0.668547 -3.51091 0
M  V30 1591 C 142.693 -2.08683 -3.99703 0
M  V30 1592 C 141.355 -2.47471 -4.12688 0
M  V30 1593 C 143.707 -3.01207 -4.25351 0
M  V30 1594 C 141.035 -3.78037 -4.4867 0
M  V30 1595 C 143.387 -4.31282 -4.62794 0
M  V30 1596 C 142.051 -4.69992 -4.73987 0
M  V30 1597 H 141.321 -0.172657 -0.720604 0
M  V30 1598 H 143.968 -1.09573 -1.57054 0
M  V30 1599 H 142.273 0.0385252 -3.91781 0
M  V30 1600 H 143.97 -0.345102 -3.99512 0
M  V30 1601 H 140.56 -1.77566 -3.90087 0
M  V30 1602 H 144.744 -2.72469 -4.14819 0
M  V30 1603 H 140 -4.078 -4.55532 0
M  V30 1604 H 144.174 -5.03031 -4.81594 0
M  V30 1605 H 141.801 -5.71207 -5.01624 0
M  V30 1606 N 143.376 1.44774 -0.622745 0
M  V30 1607 C 144.601 2.06999 -0.128968 0
M  V30 1608 C 145.026 1.4617 1.1839 0
M  V30 1609 O 144.384 0.560007 1.72434 0
M  V30 1610 C 144.432 3.60595 -0.0188351 0
M  V30 1611 O 143.536 3.99398 1.02739 0
M  V30 1612 H 142.877 0.659047 -0.0809544 0
M  V30 1613 H 145.407 1.85784 -0.85705 0
M  V30 1614 H 145.417 4.07627 0.174476 0
M  V30 1615 H 144.092 4.04252 -0.977384 0
M  V30 1616 H 142.669 3.64011 0.809326 0
M  V30 1617 N 144.854 0.36279 1.53368 0
M  V30 1618 C 146.103 -0.22888 2.00397 0
M  V30 1619 C 146.416 -1.50096 1.25421 0
M  V30 1620 O 147.622 -2.17106 1.63025 0
M  V30 1621 C 146.078 -0.458417 3.56969 0
M  V30 1622 C 145.686 0.798877 4.4082 0
M  V30 1623 C 147.43 -1.00789 4.12361 0
M  V30 1624 C 145.337 0.539078 5.88938 0
M  V30 1625 H 144.267 -0.089305 0.748693 0
M  V30 1626 H 146.918 0.481099 1.77081 0
M  V30 1627 H 145.3 -1.22959 3.76427 0
M  V30 1628 H 146.474 1.57262 4.33134 0
M  V30 1629 H 144.789 1.27137 3.96516 0
M  V30 1630 H 147.386 -1.21754 5.20653 0
M  V30 1631 H 147.729 -1.9692 3.66781 0
M  V30 1632 H 148.262 -0.296961 3.9669 0
M  V30 1633 H 145.001 1.47064 6.3879 0
M  V30 1634 H 144.521 -0.196222 5.99479 0
M  V30 1635 H 146.2 0.163542 6.46793 0
M  V30 1636 N 146.332 -1.57332 0.0918853 0
M  V30 1637 C 147.578 -1.94524 -0.573425 0
M  V30 1638 C 147.911 -0.973578 -1.68033 0
M  V30 1639 O 147.186 -0.00609226 -1.94499 0
M  V30 1640 C 147.469 -3.41858 -1.13161 0
M  V30 1641 C 147.322 -4.4979 -0.0299747 0
M  V30 1642 C 148.641 -3.90435 -2.03098 0
M  V30 1643 H 145.76 -0.70734 -0.206975 0
M  V30 1644 H 148.402 -1.89309 0.161942 0
M  V30 1645 H 146.552 -3.46433 -1.7583 0
M  V30 1646 H 148.224 -4.57327 0.604112 0
M  V30 1647 H 146.467 -4.291 0.636833 0
M  V30 1648 H 147.138 -5.50069 -0.461287 0
M  V30 1649 H 149.614 -3.87992 -1.50338 0
M  V30 1650 H 148.49 -4.94097 -2.39081 0
M  V30 1651 H 148.751 -3.29541 -2.94712 0
M  V30 1652 N 147.81 0.181792 -1.56548 0
M  V30 1653 C 149.057 0.900097 -1.81396 0
M  V30 1654 C 149.385 1.82695 -0.667281 0
M  V30 1655 O 148.64 1.92614 0.346146 0
M  V30 1656 C 148.939 1.73728 -3.12335 0
M  V30 1657 C 148.605 0.960255 -4.40556 0
M  V30 1658 C 147.267 0.745766 -4.75386 0
M  V30 1659 C 149.619 0.414477 -5.19549 0
M  V30 1660 C 146.947 -0.0257694 -5.86694 0
M  V30 1661 C 149.299 -0.343916 -6.31664 0
M  V30 1662 C 147.963 -0.569301 -6.65068 0
M  V30 1663 H 147.233 0.329369 -0.663775 0
M  V30 1664 H 149.88 0.165647 -1.90782 0
M  V30 1665 H 148.185 2.54081 -2.98245 0
M  V30 1666 H 149.882 2.29591 -3.28769 0
M  V30 1667 H 146.472 1.13746 -4.13231 0
M  V30 1668 H 150.656 0.567554 -4.93044 0
M  V30 1669 H 145.912 -0.210233 -6.11038 0
M  V30 1670 H 150.086 -0.774133 -6.92084 0
M  V30 1671 H 147.713 -1.16903 -7.51158 0
M  V30 1672 N 149.288 1.51039 0.449983 0
M  V30 1673 C 150.235 1.71439 1.54523 0
M  V30 1674 C 151.205 0.555871 1.56522 0
M  V30 1675 O 152.39 0.788871 1.73728 0
M  V30 1676 C 149.53 1.83384 2.92343 0
M  V30 1677 C 148.643 3.10873 2.9997 0
M  V30 1678 C 147.778 3.13488 4.28834 0
M  V30 1679 C 146.817 4.35343 4.30282 0
M  V30 1680 N 145.954 4.35579 5.5065 0
M  V30 1681 H 150.794 2.64934 1.36433 0
M  V30 1682 H 148.331 1.31312 0.662982 0
M  V30 1683 H 150.289 1.88291 3.72293 0
M  V30 1684 H 148.919 0.933086 3.0902 0
M  V30 1685 H 147.971 3.15336 2.12761 0
M  V30 1686 H 149.283 4.00814 2.96901 0
M  V30 1687 H 148.437 3.17241 5.17149 0
M  V30 1688 H 147.176 2.21414 4.34543 0
M  V30 1689 H 146.181 4.3178 3.40362 0
M  V30 1690 H 147.406 5.28668 4.26248 0
M  V30 1691 H 145.352 3.46369 5.57104 0
M  V30 1692 H 145.269 5.19313 5.49409 0
M  V30 1693 H 146.537 4.43507 6.41032 0
M  V30 1694 N 150.766 -0.704594 1.40972 0
M  V30 1695 C 152.043 -1.45847 1.30338 0
M  V30 1696 C 152.423 -2.10973 -0.0732344 0
M  V30 1697 O 151.771 -2.00997 -1.08685 0
M  V30 1698 C 151.981 -2.48525 2.45023 0
M  V30 1699 C 153.329 -3.1404 2.8577 0
M  V30 1700 O 154.353 -2.58848 2.44696 0
M  V30 1701 O 153.212 -4.13981 3.56766 0
M  V30 1702 H 150.306 -0.649092 0.512454 0
M  V30 1703 H 152.852 -0.735836 1.52917 0
M  V30 1704 H 151.624 -1.98994 3.36923 0
M  V30 1705 H 151.247 -3.2831 2.24272 0
M  V30 1706 N 152.244 -1.26651 -0.937939 0
M  V30 1707 C 153.176 -1.04283 -2.04102 0
M  V30 1708 C 154.189 -0.00221014 -1.628 0
M  V30 1709 O 155.378 -0.242645 -1.76843 0
M  V30 1710 C 152.478 -0.557846 -3.34277 0
M  V30 1711 C 151.651 -1.66843 -4.04329 0
M  V30 1712 C 150.71 -1.18095 -5.12777 0
M  V30 1713 O 149.736 -1.87865 -5.37304 0
M  V30 1714 N 150.938 -0.0311006 -5.80492 0
M  V30 1715 H 153.703 -1.9927 -2.23856 0
M  V30 1716 H 151.264 -1.1808 -1.10764 0
M  V30 1717 H 153.256 -0.215836 -4.04124 0
M  V30 1718 H 151.826 0.298523 -3.11171 0
M  V30 1719 H 151.046 -2.18123 -3.28353 0
M  V30 1720 H 152.334 -2.41408 -4.47883 0
M  V30 1721 H 151.732 0.551486 -5.63005 0
M  V30 1722 H 150.289 0.251809 -6.51313 0
M  V30 1723 N 153.722 1.14298 -1.08507 0
M  V30 1724 C 155.138 1.37347 -0.812901 0
M  V30 1725 C 155.338 1.93052 0.577325 0
M  V30 1726 O 154.394 2.14389 1.33393 0
M  V30 1727 C 155.707 2.33359 -1.89642 0
M  V30 1728 C 157.255 2.46996 -1.92255 0
M  V30 1729 C 157.73 3.46309 -2.99724 0
M  V30 1730 N 159.221 3.53853 -2.98902 0
M  V30 1731 C 159.956 4.3055 -3.787 0
M  V30 1732 N 159.452 5.10482 -4.6838 0
M  V30 1733 N 161.245 4.25757 -3.66998 0
M  V30 1734 H 153.396 0.764867 -1.9815 0
M  V30 1735 H 155.659 0.398966 -0.859959 0
M  V30 1736 H 155.365 1.99565 -2.89597 0
M  V30 1737 H 155.239 3.33274 -1.76659 0
M  V30 1738 H 157.626 2.80081 -0.929445 0
M  V30 1739 H 157.707 1.47039 -2.09316 0
M  V30 1740 H 157.351 3.13957 -3.99241 0
M  V30 1741 H 157.281 4.46049 -2.79907 0
M  V30 1742 H 159.772 2.96812 -2.33904 0
M  V30 1743 H 160.085 5.66284 -5.25873 0
M  V30 1744 H 158.43 5.09747 -4.72422 0
M  V30 1745 H 161.621 3.62383 -2.96304 0
M  V30 1746 H 161.794 4.85279 -4.29427 0
M  V30 1747 N 155.201 0.870884 1.31352 0
M  V30 1748 C 156.149 0.316445 2.30437 0
M  V30 1749 C 157.143 -0.568965 1.59559 0
M  V30 1750 O 158.349 -0.454964 1.74155 0
M  V30 1751 H 154.724 0.0836521 0.747333 0
M  V30 1752 H 156.695 1.16606 2.74673 0
M  V30 1753 C 155.444 -0.46635 3.44558 0
M  V30 1754 H 154.767 0.205687 3.99271 0
M  V30 1755 H 156.207 -0.819614 4.16003 0
M  V30 1756 C 154.666 -1.65797 2.9328 0
M  V30 1757 O 155.196 -2.75728 2.92125 0
M  V30 1758 N 153.402 -1.49041 2.4947 0
M  V30 1759 H 152.949 -0.59612 2.50608 0
M  V30 1760 H 152.907 -2.28911 2.15516 0
M  V30 1761 N 156.679 -1.44442 0.630414 0
M  V30 1762 C 157.907 -2.06414 0.141671 0
M  V30 1763 C 158.322 -1.47105 -1.18345 0
M  V30 1764 O 157.679 -0.593662 -1.72574 0
M  V30 1765 C 157.73 -3.61494 0.0199784 0
M  V30 1766 O 157.451 -4.18594 1.29269 0
M  V30 1767 C 158.952 -4.40499 -0.497544 0
M  V30 1768 H 156.172 -0.666292 0.0793452 0
M  V30 1769 H 158.716 -1.85323 0.864614 0
M  V30 1770 H 156.871 -3.8185 -0.653402 0
M  V30 1771 H 157.285 -5.12026 1.13707 0
M  V30 1772 H 158.759 -5.49433 -0.531708 0
M  V30 1773 H 159.236 -4.11895 -1.52445 0
M  V30 1774 H 159.842 -4.25061 0.142562 0
M  V30 1775 N 158.157 -0.370918 -1.53173 0
M  V30 1776 C 159.087 0.464847 -2.28826 0
M  V30 1777 C 160.068 1.07936 -1.31468 0
M  V30 1778 O 161.253 1.0956 -1.60344 0
M  V30 1779 C 158.383 1.60196 -3.08147 0
M  V30 1780 C 157.337 1.11443 -4.13237 0
M  V30 1781 C 156.663 2.3422 -4.80672 0
M  V30 1782 C 157.963 0.195384 -5.21934 0
M  V30 1783 H 159.657 -0.166329 -2.98938 0
M  V30 1784 H 157.203 -0.0814359 -1.4377 0
M  V30 1785 H 159.156 2.19332 -3.59822 0
M  V30 1786 H 157.88 2.26045 -2.35735 0
M  V30 1787 H 156.539 0.545727 -3.62515 0
M  V30 1788 H 156.187 2.98537 -4.04827 0
M  V30 1789 H 155.887 2.02269 -5.51689 0
M  V30 1790 H 157.411 2.94032 -5.35143 0
M  V30 1791 H 158.825 0.694375 -5.69079 0
M  V30 1792 H 157.222 -0.0335027 -6.00091 0
M  V30 1793 H 158.292 -0.760961 -4.78892 0
M  V30 1794 N 159.635 1.57281 -0.100228 0
M  V30 1795 C 160.912 1.86014 0.604812 0
M  V30 1796 C 161.292 0.998025 1.86018 0
M  V30 1797 O 160.64 0.0718184 2.28387 0
M  V30 1798 C 160.85 3.36784 0.915278 0
M  V30 1799 C 162.198 4.04957 1.27651 0
M  V30 1800 O 163.222 3.41695 1.00613 0
M  V30 1801 O 162.081 5.16593 1.7831 0
M  V30 1802 H 159.175 0.76942 0.303185 0
M  V30 1803 H 161.721 1.69176 -0.133313 0
M  V30 1804 H 160.493 3.91292 0.0248896 0
M  V30 1805 H 160.116 3.58987 1.70921 0
M  V30 1806 N 161.113 -0.173488 1.56642 0
M  V30 1807 C 162.043 -1.2171 1.99271 0
M  V30 1808 C 163.024 -1.46289 0.867959 0
M  V30 1809 O 164.209 -1.5766 1.13388 0
M  V30 1810 C 161.339 -2.55651 2.35074 0
M  V30 1811 C 160.293 -2.45645 3.50489 0
M  V30 1812 C 159.619 -3.84056 3.72028 0
M  V30 1813 C 160.919 -1.96302 4.84007 0
M  V30 1814 H 162.613 -0.86275 2.867 0
M  V30 1815 H 160.159 -0.413571 1.37933 0
M  V30 1816 H 162.112 -3.2886 2.63494 0
M  V30 1817 H 160.836 -2.92869 1.44552 0
M  V30 1818 H 159.495 -1.7489 3.22194 0
M  V30 1819 H 159.143 -4.18664 2.788 0
M  V30 1820 H 158.843 -3.7823 4.49684 0
M  V30 1821 H 160.367 -4.58854 4.02846 0
M  V30 1822 H 161.781 -2.59284 5.11317 0
M  V30 1823 H 160.178 -2.01429 5.65284 0
M  V30 1824 H 161.248 -0.917226 4.76146 0
M  V30 1825 N 162.591 -1.51276 -0.441967 0
M  V30 1826 C 163.84 -1.6295 -1.18871 0
M  V30 1827 C 164.153 -0.349312 -1.92456 0
M  V30 1828 O 165.359 -0.345355 -2.69295 0
M  V30 1829 C 163.815 -2.87759 -2.16155 0
M  V30 1830 C 163.423 -4.22764 -1.48239 0
M  V30 1831 C 165.167 -3.08788 -2.91291 0
M  V30 1832 C 163.074 -5.38728 -2.4398 0
M  V30 1833 H 162.004 -0.606913 -0.447406 0
M  V30 1834 H 164.655 -1.77739 -0.456205 0
M  V30 1835 H 163.037 -2.66593 -2.92821 0
M  V30 1836 H 164.211 -4.54293 -0.771635 0
M  V30 1837 H 162.526 -4.07575 -0.852741 0
M  V30 1838 H 165.123 -3.92599 -3.63002 0
M  V30 1839 H 165.466 -2.21679 -3.5237 0
M  V30 1840 H 165.999 -3.30272 -2.21733 0
M  V30 1841 H 162.738 -6.28082 -1.87598 0
M  V30 1842 H 162.258 -5.1158 -3.13123 0
M  V30 1843 H 163.937 -5.70489 -3.05207 0
M  V30 1844 N 164.069 0.697108 -1.41344 0
M  V30 1845 C 165.032 1.79281 -1.42797 0
M  V30 1846 C 166.032 1.57607 -0.318837 0
M  V30 1847 O 167.222 1.64309 -0.578642 0
M  V30 1848 C 164.354 3.17632 -1.23785 0
M  V30 1849 H 165.547 1.79385 -2.40335 0
M  V30 1850 H 163.1 0.904582 -1.27464 0
M  V30 1851 H 163.835 3.23167 -0.270814 0
M  V30 1852 H 163.62 3.34765 -2.04144 0
M  V30 1853 H 165.11 3.97617 -1.27633 0
M  V30 1854 N 165.547 1.27147 0.931209 0
M  V30 1855 C 166.958 1.12044 1.49342 0
M  V30 1856 C 167.309 -0.295795 1.93957 0
M  V30 1857 O 166.434 -1.18835 1.80852 0
M  V30 1858 C 167.029 2.02781 2.71414 0
M  V30 1859 C 165.588 1.91794 3.2387 0
M  V30 1860 C 164.735 1.95543 1.96617 0
M  V30 1861 H 167.686 1.40091 0.745672 0
M  V30 1862 H 167.707 1.58156 3.46074 0
M  V30 1863 H 167.219 3.05848 2.38911 0
M  V30 1864 H 165.32 0.916992 3.6114 0
M  V30 1865 H 165.433 2.77852 3.90302 0
M  V30 1866 H 163.797 1.39722 2.12955 0
M  V30 1867 H 164.58 3.00259 1.66432 0
M  V30 1868 N 167.025 -1.13721 1.09112 0
M  V30 1869 C 168.25 -1.89314 0.847053 0
M  V30 1870 C 168.675 -1.78416 -0.595774 0
M  V30 1871 O 168.033 -1.12942 -1.41823 0
M  V30 1872 C 168.081 -3.3701 1.28284 0
M  V30 1873 O 167.185 -4.10054 0.439267 0
M  V30 1874 H 166.526 -0.588745 0.307044 0
M  V30 1875 H 169.056 -1.43902 1.45442 0
M  V30 1876 H 169.066 -3.87834 1.26683 0
M  V30 1877 H 167.741 -3.4426 2.33363 0
M  V30 1878 H 166.318 -3.69266 0.519312 0
M  V30 1879 N 168.503 -0.877838 -1.30888 0
M  V30 1880 C 169.914 -0.544193 -1.78593 0
M  V30 1881 C 170.265 0.939301 -1.72254 0
M  V30 1882 O 169.39 1.7337 -1.29505 0
M  V30 1883 C 169.985 -0.98105 -3.24285 0
M  V30 1884 C 168.544 -0.698935 -3.69854 0
M  V30 1885 C 167.691 -1.168 -2.51502 0
M  V30 1886 H 170.642 -1.06278 -1.17859 0
M  V30 1887 H 170.663 -0.307009 -3.79259 0
M  V30 1888 H 170.175 -2.06079 -3.28866 0
M  V30 1889 H 168.276 0.369112 -3.70767 0
M  V30 1890 H 168.389 -1.28148 -4.61644 0
M  V30 1891 H 166.753 -0.587535 -2.47831 0
M  V30 1892 H 167.536 -2.25533 -2.58824 0
M  V30 1893 N 169.982 1.44106 -0.638065 0
M  V30 1894 C 170.945 2.29138 0.0531013 0
M  V30 1895 C 171.945 1.41409 0.765506 0
M  V30 1896 O 173.135 1.63206 0.609046 0
M  V30 1897 C 170.267 3.23144 1.08584 0
M  V30 1898 H 171.46 2.91739 -0.694883 0
M  V30 1899 H 169.013 1.51134 -0.398538 0
M  V30 1900 H 169.748 2.65408 1.86357 0
M  V30 1901 H 169.533 3.87804 0.578852 0
M  V30 1902 H 171.023 3.87004 1.56899 0
M  V30 1903 N 171.46 0.379036 1.52974 0
M  V30 1904 C 172.737 -0.263479 1.93817 0
M  V30 1905 C 173.117 -1.65244 1.31368 0
M  V30 1906 O 172.465 -2.23448 0.477856 0
M  V30 1907 C 172.675 -0.300166 3.47707 0
M  V30 1908 C 174.023 -0.534061 4.21228 0
M  V30 1909 O 175.047 -0.38081 3.54159 0
M  V30 1910 O 173.906 -0.833501 5.40106 0
M  V30 1911 H 171 -0.161149 0.811147 0
M  V30 1912 H 173.546 0.432798 1.64088 0
M  V30 1913 H 172.318 0.673138 3.85467 0
M  V30 1914 H 171.941 -1.04179 3.83709 0
M  V30 1915 N 172.938 -1.57226 0.108567 0
M  V30 1916 C 173.901 -2.13602 -0.831082 0
M  V30 1917 C 174.901 -1.06841 -1.20173 0
M  V30 1918 O 176.091 -1.32666 -1.12895 0
M  V30 1919 C 173.223 -2.66769 -2.12243 0
M  V30 1920 H 174.416 -2.97951 -0.341317 0
M  V30 1921 H 171.969 -1.55667 -0.14057 0
M  V30 1922 H 172.704 -1.85977 -2.65675 0
M  V30 1923 H 172.489 -3.44839 -1.86625 0
M  V30 1924 H 173.979 -3.10332 -2.79435 0
M  V30 1925 N 174.416 0.165178 -1.56732 0
M  V30 1926 C 175.348 1.22911 -1.93457 0
M  V30 1927 C 176.361 1.40152 -0.828333 0
M  V30 1928 O 177.55 1.40046 -1.10677 0
M  V30 1929 C 174.65 2.59686 -2.17753 0
M  V30 1930 C 173.823 2.63663 -3.48999 0
M  V30 1931 C 172.882 3.81845 -3.62051 0
M  V30 1932 O 171.908 3.67559 -4.34613 0
M  V30 1933 N 173.11 4.98557 -2.97357 0
M  V30 1934 H 175.875 0.917118 -2.85323 0
M  V30 1935 H 173.436 0.354895 -1.57962 0
M  V30 1936 H 175.428 3.37225 -2.23743 0
M  V30 1937 H 173.998 2.83251 -1.32242 0
M  V30 1938 H 173.218 1.72173 -3.54612 0
M  V30 1939 H 174.506 2.63336 -4.35352 0
M  V30 1940 H 173.904 5.13065 -2.38287 0
M  V30 1941 H 172.461 5.73936 -3.08934 0
M  V30 1942 N 175.894 1.51508 0.433938 0
M  V30 1943 C 176.844 1.69451 1.52546 0
M  V30 1944 C 177.828 0.548474 1.51263 0
M  V30 1945 O 179.02 0.804529 1.57659 0
M  V30 1946 C 176.149 1.82604 2.90707 0
M  V30 1947 C 175.235 3.03002 2.96733 0
M  V30 1948 N 175.626 4.26121 2.72496 0
M  V30 1949 C 173.924 3.02327 3.27894 0
M  V30 1950 C 174.625 5.07407 2.84452 0
M  V30 1951 N 173.601 4.42126 3.16269 0
M  V30 1952 H 177.403 2.62305 1.32564 0
M  V30 1953 H 174.917 1.49202 0.641297 0
M  V30 1954 H 176.914 1.93569 3.69238 0
M  V30 1955 H 175.574 0.909339 3.11707 0
M  V30 1956 H 176.585 4.55009 2.4736 0
M  V30 1957 H 173.262 2.20301 3.54646 0
M  V30 1958 H 174.652 6.15422 2.69639 0
M  V30 1959 N 177.372 -0.689602 1.41712 0
M  V30 1960 C 178.618 -1.45041 1.42599 0
M  V30 1961 C 178.973 -1.92366 0.0363764 0
M  V30 1962 O 178.266 -1.67022 -0.938844 0
M  V30 1963 C 178.46 -2.67298 2.37247 0
M  V30 1964 C 178.289 -2.31935 3.85274 0
M  V30 1965 C 177.059 -2.2201 4.53916 0
M  V30 1966 C 179.257 -1.94526 4.76093 0
M  V30 1967 N 177.239 -1.79594 5.87043 0
M  V30 1968 C 178.61 -1.62915 5.98213 0
M  V30 1969 C 180.665 -1.81388 4.63684 0
M  V30 1970 C 179.368 -1.19486 7.09306 0
M  V30 1971 C 181.394 -1.39364 5.74745 0
M  V30 1972 C 180.756 -1.08668 6.95967 0
M  V30 1973 H 176.855 -0.527806 0.577014 0
M  V30 1974 H 179.439 -0.797266 1.77628 0
M  V30 1975 H 177.61 -3.30325 2.04304 0
M  V30 1976 H 179.342 -3.33806 2.28814 0
M  V30 1977 H 176.097 -2.406 4.07932 0
M  V30 1978 H 176.521 -1.60851 6.57614 0
M  V30 1979 H 181.163 -2.03772 3.70455 0
M  V30 1980 H 178.881 -0.958477 8.02396 0
M  V30 1981 H 182.467 -1.2974 5.6715 0
M  V30 1982 H 181.347 -0.766417 7.80446 0
M  V30 1983 N 178.85 -1.27639 -0.924453 0
M  V30 1984 C 180.096 -1.14336 -1.67497 0
M  V30 1985 C 180.429 0.309465 -1.91718 0
M  V30 1986 O 179.704 1.22608 -1.50989 0
M  V30 1987 C 179.987 -1.93096 -3.0395 0
M  V30 1988 C 179.84 -3.46381 -2.8695 0
M  V30 1989 C 181.159 -1.73798 -4.0433 0
M  V30 1990 H 178.278 -0.416728 -0.607871 0
M  V30 1991 H 180.92 -1.56832 -1.07256 0
M  V30 1992 H 179.07 -1.56982 -3.55372 0
M  V30 1993 H 180.742 -3.92343 -2.42621 0
M  V30 1994 H 178.985 -3.72557 -2.22225 0
M  V30 1995 H 179.656 -3.96735 -3.83804 0
M  V30 1996 H 182.132 -2.05293 -3.61931 0
M  V30 1997 H 181.008 -2.31294 -4.97789 0
M  V30 1998 H 181.269 -0.686725 -4.36734 0
M  V30 1999 N 180.328 1.1314 -1.09713 0
M  V30 2000 C 181.258 2.20748 -0.761102 0
M  V30 2001 C 182.239 1.68061 0.262566 0
M  V30 2002 O 183.424 1.93765 0.129977 0
M  V30 2003 C 180.554 3.46812 -0.184054 0
M  V30 2004 C 179.508 4.12606 -1.13757 0
M  V30 2005 C 178.834 5.33031 -0.422083 0
M  V30 2006 C 180.134 4.59603 -2.48118 0
M  V30 2007 H 181.828 2.49113 -1.66082 0
M  V30 2008 H 179.374 1.19734 -0.799987 0
M  V30 2009 H 181.327 4.21353 0.0631215 0
M  V30 2010 H 180.051 3.17851 0.750868 0
M  V30 2011 H 178.71 3.40036 -1.37007 0
M  V30 2012 H 178.358 5.00335 0.517072 0
M  V30 2013 H 178.058 5.77999 -1.05788 0
M  V30 2014 H 179.582 6.10325 -0.183277 0
M  V30 2015 H 180.996 5.25552 -2.29059 0
M  V30 2016 H 179.393 5.15321 -3.07514 0
M  V30 2017 H 180.463 3.73971 -3.08665 0
M  V30 2018 N 181.806 0.884767 1.30421 0
M  V30 2019 C 183.054 0.502112 1.95763 0
M  V30 2020 C 183.375 -0.951815 1.70192 0
M  V30 2021 O 182.645 -1.6692 1.0254 0
M  V30 2022 H 181.225 0.182694 0.724315 0
M  V30 2023 H 183.887 1.1278 1.58955 0
M  V30 2024 H 182.983 0.672188 3.04775 0
M  V30 2025 N 183.284 -1.43765 0.645699 0
M  V30 2026 C 184.214 -2.33471 -0.0370477 0
M  V30 2027 C 185.195 -1.49042 -0.819779 0
M  V30 2028 O 186.38 -1.77726 -0.782758 0
M  V30 2029 C 183.51 -3.32311 -1.0093 0
M  V30 2030 C 182.464 -4.2667 -0.337201 0
M  V30 2031 C 181.79 -5.1549 -1.42037 0
M  V30 2032 C 183.09 -5.16657 0.765706 0
M  V30 2033 H 184.784 -2.90809 0.712069 0
M  V30 2034 H 182.33 -1.39834 0.343876 0
M  V30 2035 H 184.283 -3.9396 -1.49578 0
M  V30 2036 H 183.007 -2.73213 -1.78948 0
M  V30 2037 H 181.666 -3.66374 0.128771 0
M  V30 2038 H 181.314 -4.52735 -2.1918 0
M  V30 2039 H 181.014 -5.79438 -0.975966 0
M  V30 2040 H 182.538 -5.80012 -1.90838 0
M  V30 2041 H 183.952 -5.72158 0.361702 0
M  V30 2042 H 182.349 -5.89286 1.13413 0
M  V30 2043 H 183.419 -4.56796 1.62683 0
M  V30 2044 N 184.763 -0.387143 -1.52771 0
M  V30 2045 C 185.713 0.465942 -2.23188 0
M  V30 2046 C 186.697 1.03138 -1.23496 0
M  V30 2047 O 187.889 0.957845 -1.48843 0
M  V30 2048 C 185.018 1.59384 -3.04059 0
M  V30 2049 C 184.104 1.04024 -4.11144 0
M  V30 2050 N 184.495 0.211416 -5.05358 0
M  V30 2051 C 182.793 1.31295 -4.26237 0
M  V30 2052 C 183.494 -0.0941698 -5.81624 0
M  V30 2053 N 182.47 0.509207 -5.4121 0
M  V30 2054 H 186.272 -0.173856 -2.93385 0
M  V30 2055 H 183.786 -0.19633 -1.61209 0
M  V30 2056 H 185.783 2.21738 -3.53041 0
M  V30 2057 H 184.443 2.23648 -2.35397 0
M  V30 2058 H 185.454 -0.151151 -5.17679 0
M  V30 2059 H 182.131 1.95679 -3.68803 0
M  V30 2060 H 183.521 -0.765572 -6.67524 0
M  V30 2061 N 186.241 1.57166 -0.116904 0
M  V30 2062 C 187.188 2.15202 0.83408 0
M  V30 2063 C 188.158 1.07644 1.26499 0
M  V30 2064 O 189.343 1.35541 1.34288 0
M  V30 2065 C 186.483 2.75405 2.07957 0
M  V30 2066 C 185.596 3.97264 1.69721 0
M  V30 2067 C 184.731 4.45561 2.89221 0
M  V30 2068 C 183.77 5.59956 2.47215 0
M  V30 2069 N 182.907 6.03006 3.59622 0
M  V30 2070 H 187.747 2.96141 0.332335 0
M  V30 2071 H 185.284 1.46309 0.152349 0
M  V30 2072 H 187.242 3.08439 2.80929 0
M  V30 2073 H 185.872 1.97159 2.55594 0
M  V30 2074 H 184.924 3.70404 0.866316 0
M  V30 2075 H 186.236 4.80226 1.34849 0
M  V30 2076 H 185.39 4.80493 3.7042 0
M  V30 2077 H 184.129 3.61544 3.27318 0
M  V30 2078 H 183.134 5.2463 1.64448 0
M  V30 2079 H 184.359 6.45738 2.10238 0
M  V30 2080 H 182.305 5.21931 3.97396 0
M  V30 2081 H 182.222 6.80819 3.28667 0
M  V30 2082 H 183.49 6.42576 4.41267 0
M  V30 2083 N 187.719 -0.156864 1.56817 0
M  V30 2084 C 188.968 -0.869504 1.81996 0
M  V30 2085 C 189.281 -1.82777 0.696545 0
M  V30 2086 O 190.487 -2.58384 0.833658 0
M  V30 2087 C 188.943 -1.59679 3.22538 0
M  V30 2088 C 188.551 -0.681431 4.42787 0
M  V30 2089 C 190.295 -2.2968 3.56997 0
M  V30 2090 C 188.202 -1.40978 5.74351 0
M  V30 2091 H 187.132 -0.328438 0.678708 0
M  V30 2092 H 189.783 -0.1223 1.83092 0
M  V30 2093 H 188.165 -2.38927 3.158 0
M  V30 2094 H 189.339 0.0751166 4.60739 0
M  V30 2095 H 187.654 -0.0903431 4.16302 0
M  V30 2096 H 190.251 -2.84794 4.52544 0
M  V30 2097 H 190.594 -3.05707 2.82576 0
M  V30 2098 H 191.127 -1.57361 3.65352 0
M  V30 2099 H 187.866 -0.691561 6.51842 0
M  V30 2100 H 187.386 -2.13929 5.60352 0
M  V30 2101 H 189.065 -1.95337 6.16808 0
M  V30 2102 N 189.197 -1.51736 -0.425897 0
M  V30 2103 C 190.446 -1.64201 -1.17136 0
M  V30 2104 C 190.759 -0.369705 -1.92074 0
M  V30 2105 O 191.965 -0.373898 -2.68913 0
M  V30 2106 C 190.421 -2.90035 -2.13091 0
M  V30 2107 C 190.029 -4.24312 -1.43747 0
M  V30 2108 C 191.773 -3.1186 -2.87999 0
M  V30 2109 C 189.68 -5.41285 -2.38253 0
M  V30 2110 H 188.61 -0.611624 -0.440944 0
M  V30 2111 H 191.261 -1.78212 -0.437328 0
M  V30 2112 H 189.643 -2.69684 -2.89977 0
M  V30 2113 H 190.817 -4.55086 -0.723408 0
M  V30 2114 H 189.132 -4.08456 -0.809465 0
M  V30 2115 H 191.729 -3.96427 -3.58817 0
M  V30 2116 H 192.072 -2.25403 -3.49999 0
M  V30 2117 H 192.605 -3.32605 -2.18217 0
M  V30 2118 H 189.344 -6.30037 -1.80925 0
M  V30 2119 H 188.864 -5.14872 -3.0768 0
M  V30 2120 H 190.543 -5.73694 -2.99139 0
M  V30 2121 N 190.675 0.682077 -1.42076 0
M  V30 2122 C 191.625 1.78823 -1.41444 0
M  V30 2123 C 192.609 1.58323 -0.28681 0
M  V30 2124 O 193.801 1.68926 -0.528498 0
M  V30 2125 C 190.93 3.17232 -1.3122 0
M  V30 2126 C 190.016 3.4338 -2.489 0
M  V30 2127 N 190.407 3.40152 -3.7434 0
M  V30 2128 C 188.705 3.73986 -2.43003 0
M  V30 2129 C 189.406 3.65581 -4.52466 0
M  V30 2130 N 188.382 3.85989 -3.8277 0
M  V30 2131 H 192.184 1.7471 -2.36334 0
M  V30 2132 H 189.698 0.882622 -1.36321 0
M  V30 2133 H 191.695 3.96489 -1.2885 0
M  V30 2134 H 190.355 3.22547 -0.373263 0
M  V30 2135 H 191.366 3.20221 -4.07037 0
M  V30 2136 H 188.043 3.86591 -1.57651 0
M  V30 2137 H 189.433 3.69108 -5.61435 0
M  V30 2138 N 192.153 1.28127 0.917671 0
M  V30 2139 C 193.103 1.08361 2.00604 0
M  V30 2140 C 194.087 0.00847518 1.60898 0
M  V30 2141 O 195.279 0.228167 1.75523 0
M  V30 2142 C 192.408 0.743376 3.35155 0
M  V30 2143 C 191.494 1.85716 3.81275 0
M  V30 2144 N 191.885 3.09822 3.99805 0
M  V30 2145 C 190.183 1.74612 4.10398 0
M  V30 2146 C 190.884 3.82368 4.38372 0
M  V30 2147 N 189.86 3.10192 4.4641 0
M  V30 2148 H 193.662 2.02531 2.12975 0
M  V30 2149 H 191.176 1.18989 1.10523 0
M  V30 2150 H 193.173 0.582859 4.12805 0
M  V30 2151 H 191.833 -0.190595 3.2414 0
M  V30 2152 H 192.844 3.45475 3.85833 0
M  V30 2153 H 189.521 0.883657 4.08041 0
M  V30 2154 H 190.911 4.89082 4.60704 0
M  V30 2155 N 193.631 -1.12557 1.10312 0
M  V30 2156 C 194.856 -1.88405 0.867085 0
M  V30 2157 C 195.281 -1.79038 -0.576817 0
M  V30 2158 O 194.639 -1.14439 -1.40618 0
M  V30 2159 C 194.687 -3.3563 1.31851 0
M  V30 2160 O 193.791 -4.09565 0.482734 0
M  V30 2161 H 193.132 -0.585455 0.313271 0
M  V30 2162 H 195.662 -1.42352 1.4696 0
M  V30 2163 H 195.672 -3.86469 1.3079 0
M  V30 2164 H 194.347 -3.41765 2.37001 0
M  V30 2165 H 192.924 -3.68695 0.558448 0
M  V30 2166 N 195.109 -0.891671 -1.2995 0
M  V30 2167 C 196.357 -0.512486 -1.95494 0
M  V30 2168 C 196.678 0.942776 -1.70695 0
M  V30 2169 O 195.948 1.66374 -1.03424 0
M  V30 2170 H 194.528 -0.186533 -0.723336 0
M  V30 2171 H 197.19 -1.13621 -1.58355 0
M  V30 2172 H 196.286 -0.688342 -3.04415 0
M  V30 2173 N 196.587 1.43421 -0.653314 0
M  V30 2174 C 197.812 2.06678 -0.172846 0
M  V30 2175 C 198.237 1.48648 1.15262 0
M  V30 2176 O 197.595 0.596457 1.71208 0
M  V30 2177 C 197.643 3.60474 -0.0953184 0
M  V30 2178 O 196.747 4.01487 0.942442 0
M  V30 2179 H 196.088 0.657181 -0.0949155 0
M  V30 2180 H 198.618 1.83925 -0.896265 0
M  V30 2181 H 198.628 4.07905 0.0879728 0
M  V30 2182 H 197.303 4.02088 -1.06291 0
M  V30 2183 H 195.88 3.65646 0.731932 0
M  V30 2184 N 198.065 0.39524 1.52563 0
M  V30 2185 C 198.998 -0.4813 2.23067 0
M  V30 2186 C 199.976 -1.05927 1.23362 0
M  V30 2187 O 201.16 -1.10979 1.52368 0
M  V30 2188 C 198.287 -1.66676 2.9485 0
M  V30 2189 C 197.333 -1.21348 4.08873 0
M  V30 2190 S 198.166 -0.190102 5.35162 0
M  V30 2191 C 199.322 -1.38121 6.1047 0
M  V30 2192 H 199.555 0.117381 2.97068 0
M  V30 2193 H 197.088 0.179458 1.53354 0
M  V30 2194 H 199.046 -2.3466 3.36816 0
M  V30 2195 H 197.707 -2.23676 2.20518 0
M  V30 2196 H 196.9 -2.09877 4.58222 0
M  V30 2197 H 196.502 -0.612486 3.68951 0
M  V30 2198 H 198.794 -2.30726 6.37002 0
M  V30 2199 H 199.737 -0.928521 7.01986 0
M  V30 2200 H 200.145 -1.60071 5.41329 0
M  V30 2201 N 199.544 -1.57102 0.125237 0
M  V30 2202 C 200.821 -1.86953 -0.575142 0
M  V30 2203 C 201.201 -1.02749 -1.84407 0
M  V30 2204 O 200.549 -0.108144 -2.28244 0
M  V30 2205 C 200.759 -3.38198 -0.861583 0
M  V30 2206 C 202.107 -4.06937 -1.21192 0
M  V30 2207 O 203.131 -3.43252 -0.951645 0
M  V30 2208 O 201.99 -5.19364 -1.70068 0
M  V30 2209 H 199.084 -0.774147 -0.290906 0
M  V30 2210 H 201.63 -1.68942 0.160211 0
M  V30 2211 H 200.402 -3.91282 0.0373647 0
M  V30 2212 H 200.025 -3.61661 -1.65188 0
M  V30 2213 N 201.022 0.148545 -1.56898 0
M  V30 2214 C 201.954 1.20852 -1.9475 0
M  V30 2215 C 202.967 1.39265 -0.843152 0
M  V30 2216 O 204.156 1.38864 -1.12156 0
M  V30 2217 C 201.256 2.57362 -2.20495 0
M  V30 2218 C 200.429 2.59947 -3.51776 0
M  V30 2219 C 199.488 3.77984 -3.6608 0
M  V30 2220 O 198.514 3.62929 -4.38487 0
M  V30 2221 N 199.716 4.95375 -3.02629 0
M  V30 2222 H 202.481 0.886804 -2.86279 0
M  V30 2223 H 200.042 0.338121 -1.5833 0
M  V30 2224 H 202.034 3.34833 -2.27307 0
M  V30 2225 H 200.604 2.81832 -1.35238 0
M  V30 2226 H 199.824 1.68403 -3.56419 0
M  V30 2227 H 201.112 2.58704 -4.38121 0
M  V30 2228 H 200.51 5.10509 -2.43715 0
M  V30 2229 H 199.067 5.70627 -3.15004 0
M  V30 2230 N 202.5 1.5196 0.417844 0
M  V30 2231 C 203.916 1.40569 0.755816 0
M  V30 2232 C 204.116 0.503316 1.95113 0
M  V30 2233 O 203.172 -0.0341925 2.52477 0
M  V30 2234 C 204.485 2.82947 1.01791 0
M  V30 2235 C 206.033 2.92231 1.12116 0
M  V30 2236 C 206.508 4.35559 1.41608 0
M  V30 2237 N 207.999 4.38753 1.48491 0
M  V30 2238 C 208.734 5.46705 1.7292 0
M  V30 2239 N 208.23 6.64788 1.95011 0
M  V30 2240 N 210.023 5.34209 1.74863 0
M  V30 2241 H 202.174 2.09168 -0.369098 0
M  V30 2242 H 204.437 0.942409 -0.102809 0
M  V30 2243 H 204.143 3.5106 0.212081 0
M  V30 2244 H 204.017 3.23462 1.94042 0
M  V30 2245 H 206.404 2.24304 1.9176 0
M  V30 2246 H 206.485 2.55185 0.177225 0
M  V30 2247 H 206.129 5.04042 0.624848 0
M  V30 2248 H 206.059 4.70133 2.37239 0
M  V30 2249 H 208.55 3.5363 1.33244 0
M  V30 2250 H 208.863 7.42845 2.13076 0
M  V30 2251 H 207.208 6.67869 1.92293 0
M  V30 2252 H 210.399 4.40937 1.57137 0
M  V30 2253 H 210.572 6.18415 1.93563 0
M  V30 2254 N 203.978 -0.674533 1.42435 0
M  V30 2255 C 204.91 -1.80005 1.41883 0
M  V30 2256 C 205.923 -1.59667 0.31787 0
M  V30 2257 O 207.112 -1.68781 0.580973 0
M  V30 2258 C 204.212 -3.17114 1.19549 0
M  V30 2259 C 203.385 -3.64299 2.42084 0
M  V30 2260 C 202.444 -4.80142 2.15291 0
M  V30 2261 O 201.47 -4.90673 2.88493 0
M  V30 2262 N 202.672 -5.68869 1.1562 0
M  V30 2263 H 205.437 -1.80964 2.38898 0
M  V30 2264 H 202.998 -0.857633 1.37318 0
M  V30 2265 H 204.99 -3.92267 0.995417 0
M  V30 2266 H 203.56 -3.11053 0.310569 0
M  V30 2267 H 202.78 -2.79822 2.77657 0
M  V30 2268 H 204.068 -3.92567 3.23679 0
M  V30 2269 H 203.466 -5.63012 0.550765 0
M  V30 2270 H 202.023 -6.43833 1.016 0
M  V30 2271 N 205.456 -1.28612 -0.910864 0
M  V30 2272 C 206.403 -1.12786 -2.01365 0
M  V30 2273 C 207.373 -0.024201 -1.66082 0
M  V30 2274 O 208.558 -0.189667 -1.89855 0
M  V30 2275 C 205.698 -0.798743 -3.35729 0
M  V30 2276 C 204.811 -1.98173 -3.83864 0
M  V30 2277 C 203.946 -1.59298 -5.06752 0
M  V30 2278 C 202.985 -2.74245 -5.47226 0
M  V30 2279 N 202.122 -2.35842 -6.61304 0
M  V30 2280 H 206.962 -2.07142 -2.14234 0
M  V30 2281 H 204.499 -1.03093 -1.0493 0
M  V30 2282 H 206.457 -0.588662 -4.13026 0
M  V30 2283 H 205.087 0.10789 -3.2262 0
M  V30 2284 H 204.139 -2.30386 -3.02699 0
M  V30 2285 H 205.451 -2.84343 -4.09818 0
M  V30 2286 H 204.605 -1.34513 -5.916 0
M  V30 2287 H 203.344 -0.702618 -4.82612 0
M  V30 2288 H 202.349 -2.99725 -4.60918 0
M  V30 2289 H 203.574 -3.63928 -5.73353 0
M  V30 2290 H 201.52 -1.49279 -6.38789 0
M  V30 2291 H 201.437 -3.15546 -6.86998 0
M  V30 2292 H 202.705 -2.14348 -7.4945 0
M  V30 2293 N 206.934 1.1197 -1.10907 0
M  V30 2294 C 207.864 2.19928 -0.784473 0
M  V30 2295 C 208.845 1.6833 0.244726 0
M  V30 2296 O 210.03 1.93892 0.109418 0
M  V30 2297 C 207.16 3.46597 -0.220827 0
M  V30 2298 C 206.114 4.11376 -1.18127 0
M  V30 2299 C 205.44 5.32554 -0.478594 0
M  V30 2300 C 206.74 4.56945 -2.52979 0
M  V30 2301 H 208.434 2.47337 -1.68715 0
M  V30 2302 H 205.98 1.18879 -0.812642 0
M  V30 2303 H 207.933 4.21396 0.0184278 0
M  V30 2304 H 206.657 3.1863 0.717113 0
M  V30 2305 H 205.316 3.38564 -1.40606 0
M  V30 2306 H 204.964 5.00856 0.463976 0
M  V30 2307 H 204.664 5.76844 -1.11912 0
M  V30 2308 H 206.188 6.10096 -0.248 0
M  V30 2309 H 207.602 5.23093 -2.3462 0
M  V30 2310 H 205.999 5.1203 -3.12962 0
M  V30 2311 H 207.069 3.70676 -3.12614 0
M  V30 2312 N 208.412 0.89855 1.29475 0
M  V30 2313 C 209.344 0.332726 2.26772 0
M  V30 2314 C 210.357 -0.520323 1.54261 0
M  V30 2315 O 211.546 -0.337668 1.75277 0
M  V30 2316 C 208.646 -0.544334 3.345 0
M  V30 2317 C 207.819 0.282728 4.36485 0
M  V30 2318 C 206.878 -0.526982 5.23555 0
M  V30 2319 O 205.904 0.0551165 5.69173 0
M  V30 2320 N 207.106 -1.83331 5.5079 0
M  V30 2321 H 209.871 1.16897 2.75962 0
M  V30 2322 H 207.432 0.762919 1.42798 0
M  V30 2323 H 209.424 -1.09239 3.89678 0
M  V30 2324 H 207.994 -1.28127 2.85136 0
M  V30 2325 H 207.214 1.01221 3.80983 0
M  V30 2326 H 208.502 0.84918 5.01664 0
M  V30 2327 H 207.9 -2.32898 5.15534 0
M  V30 2328 H 206.457 -2.32852 6.08788 0
M  V30 2329 N 209.89 -1.43072 0.660911 0
M  V30 2330 C 210.84 -2.27948 -0.04847 0
M  V30 2331 C 211.824 -1.40325 -0.787246 0
M  V30 2332 O 213.016 -1.63893 -0.668446 0
M  V30 2333 C 210.145 -3.28143 -1.00881 0
M  V30 2334 C 209.231 -4.23252 -0.268108 0
M  V30 2335 N 209.622 -5.00656 0.719528 0
M  V30 2336 C 207.92 -4.43092 -0.508493 0
M  V30 2337 C 208.621 -5.70019 1.15988 0
M  V30 2338 N 207.597 -5.41364 0.492584 0
M  V30 2339 H 211.399 -2.85213 0.709279 0
M  V30 2340 H 208.913 -1.54869 0.488822 0
M  V30 2341 H 210.91 -3.87736 -1.53188 0
M  V30 2342 H 209.57 -2.7244 -1.76654 0
M  V30 2343 H 210.581 -5.06115 1.09855 0
M  V30 2344 H 207.258 -3.98449 -1.24679 0
M  V30 2345 H 208.648 -6.4214 1.97751 0
M  V30 2346 N 211.368 -0.403325 -1.52352 0
M  V30 2347 C 212.614 0.167015 -2.02713 0
M  V30 2348 C 212.969 1.43296 -1.28391 0
M  V30 2349 O 212.262 1.87796 -0.379885 0
M  V30 2350 C 212.456 0.474665 -3.54234 0
M  V30 2351 C 212.285 -0.759909 -4.43233 0
M  V30 2352 C 211.055 -1.28338 -4.88731 0
M  V30 2353 C 213.253 -1.63634 -4.87574 0
M  V30 2354 N 211.235 -2.47404 -5.6184 0
M  V30 2355 C 212.606 -2.67329 -5.59406 0
M  V30 2356 C 214.661 -1.65478 -4.69597 0
M  V30 2357 C 213.364 -3.72773 -6.15169 0
M  V30 2358 C 215.39 -2.69837 -5.26253 0
M  V30 2359 C 214.752 -3.72253 -5.98002 0
M  V30 2360 H 210.851 0.0228343 -0.781667 0
M  V30 2361 H 213.435 -0.556368 -1.86581 0
M  V30 2362 H 211.606 1.16709 -3.7045 0
M  V30 2363 H 213.338 1.03338 -3.91284 0
M  V30 2364 H 210.093 -0.842273 -4.6605 0
M  V30 2365 H 210.517 -3.07688 -6.0304 0
M  V30 2366 H 215.159 -0.876389 -4.13617 0
M  V30 2367 H 212.877 -4.51471 -6.70223 0
M  V30 2368 H 216.463 -2.72164 -5.14216 0
M  V30 2369 H 215.343 -4.51679 -6.41058 0
M  V30 2370 N 212.846 1.57033 -0.133567 0
M  V30 2371 C 214.095 1.94861 0.520768 0
M  V30 2372 C 214.408 1.02012 1.66892 0
M  V30 2373 O 215.614 1.29365 2.38699 0
M  V30 2374 C 214.07 3.46362 0.977809 0
M  V30 2375 C 213.678 4.47773 -0.142674 0
M  V30 2376 C 215.422 3.93083 1.60269 0
M  V30 2377 C 213.329 5.90468 0.331883 0
M  V30 2378 H 212.259 0.727453 0.198315 0
M  V30 2379 H 214.91 1.82227 -0.215759 0
M  V30 2380 H 213.292 3.54282 1.7692 0
M  V30 2381 H 214.466 4.51536 -0.919317 0
M  V30 2382 H 212.781 4.10891 -0.675124 0
M  V30 2383 H 215.378 4.97121 1.96914 0
M  V30 2384 H 215.721 3.33876 2.48662 0
M  V30 2385 H 216.254 3.88025 0.876453 0
M  V30 2386 H 212.993 6.53463 -0.516341 0
M  V30 2387 H 212.513 5.90094 1.07469 0
M  V30 2388 H 214.192 6.42179 0.788332 0
M  V30 2389 N 214.325 -0.140222 1.56975 0
M  V30 2390 C 215.275 -1.17827 1.95194 0
M  V30 2391 C 216.259 -1.38195 0.824075 0
M  V30 2392 O 217.451 -1.39643 1.0876 0
M  V30 2393 C 214.58 -2.51024 2.34184 0
M  V30 2394 C 213.666 -2.3422 3.53556 0
M  V30 2395 N 214.057 -1.87185 4.69889 0
M  V30 2396 C 212.355 -2.64949 3.58773 0
M  V30 2397 C 213.056 -1.83586 5.5197 0
M  V30 2398 N 212.032 -2.2715 4.93866 0
M  V30 2399 H 215.834 -0.806817 2.82609 0
M  V30 2400 H 213.348 -0.348208 1.58623 0
M  V30 2401 H 215.345 -3.26074 2.59772 0
M  V30 2402 H 214.005 -2.88945 1.48124 0
M  V30 2403 H 215.016 -1.57048 4.93514 0
M  V30 2404 H 211.693 -3.067 2.8327 0
M  V30 2405 H 213.083 -1.48655 6.55249 0
M  V30 2406 N 215.803 -1.52179 -0.40978 0
M  V30 2407 C 217.028 -1.70347 -1.18308 0
M  V30 2408 C 217.453 -0.411887 -1.83535 0
M  V30 2409 O 216.811 0.630587 -1.6998 0
M  V30 2410 C 216.859 -2.83977 -2.22238 0
M  V30 2411 O 215.963 -2.495 -3.28365 0
M  V30 2412 H 215.304 -0.567103 -0.345384 0
M  V30 2413 H 217.834 -1.98879 -0.480445 0
M  V30 2414 H 217.844 -3.0887 -2.66577 0
M  V30 2415 H 216.519 -3.77685 -1.74146 0
M  V30 2416 H 215.096 -2.35277 -2.89308 0
M  V30 2417 N 217.281 0.66697 -1.42791 0
M  V30 2418 C 218.521 1.43892 -1.4517 0
M  V30 2419 C 218.885 1.91877 -0.0687551 0
M  V30 2420 O 220.086 2.6878 0.0327455 0
M  V30 2421 C 218.357 2.59839 -2.45395 0
M  V30 2422 S 219.916 3.48572 -2.66539 0
M  V30 2423 H 216.734 0.491356 -0.513897 0
M  V30 2424 H 219.336 0.775656 -1.79454 0
M  V30 2425 H 218.04 2.22838 -3.44632 0
M  V30 2426 H 217.571 3.3103 -2.12562 0
M  V30 2427 H 219.586 4.56094 -1.95429 0
M  V30 2428 N 218.759 1.29093 0.90403 0
M  V30 2429 C 219.689 1.16401 2.02418 0
M  V30 2430 C 220.67 0.0593085 1.69997 0
M  V30 2431 O 221.855 0.238021 1.92736 0
M  V30 2432 C 218.985 0.835233 3.37107 0
M  V30 2433 C 217.939 1.89578 3.83724 0
M  V30 2434 C 217.265 1.42041 5.15489 0
M  V30 2435 C 218.565 3.30394 4.04521 0
M  V30 2436 H 220.259 2.10109 2.13295 0
M  V30 2437 H 217.805 1.01157 1.02486 0
M  V30 2438 H 219.758 0.733169 4.14973 0
M  V30 2439 H 218.482 -0.137543 3.2631 0
M  V30 2440 H 217.141 1.98715 3.08071 0
M  V30 2441 H 216.789 0.436426 5.01103 0
M  V30 2442 H 216.489 2.12964 5.4765 0
M  V30 2443 H 218.013 1.33176 5.959 0
M  V30 2444 H 219.427 3.24123 4.72882 0
M  V30 2445 H 217.824 3.99237 4.48029 0
M  V30 2446 H 218.894 3.73692 3.09002 0
M  V30 2447 N 220.237 -1.11381 1.11499 0
M  V30 2448 C 221.653 -1.35143 0.849031 0
M  V30 2449 C 221.853 -1.94515 -0.525938 0
M  V30 2450 O 220.909 -2.1785 -1.27662 0
M  V30 2451 C 222.222 -2.28249 1.95762 0
M  V30 2452 C 223.77 -2.41812 1.98736 0
M  V30 2453 C 224.245 -3.3824 3.088 0
M  V30 2454 N 225.736 -3.45803 3.08179 0
M  V30 2455 C 226.471 -4.20358 3.89982 0
M  V30 2456 N 225.967 -4.97884 4.8175 0
M  V30 2457 N 227.76 -4.15877 3.78157 0
M  V30 2458 H 219.911 -0.712062 2.00109 0
M  V30 2459 H 222.174 -0.376025 0.870235 0
M  V30 2460 H 221.88 -1.91817 2.94787 0
M  V30 2461 H 221.754 -3.28473 1.85433 0
M  V30 2462 H 224.141 -2.77518 1.00338 0
M  V30 2463 H 224.222 -1.41437 2.13141 0
M  V30 2464 H 223.866 -3.03261 4.07425 0
M  V30 2465 H 223.796 -4.38471 2.91635 0
M  V30 2466 H 226.287 -2.90506 2.41691 0
M  V30 2467 H 226.6 -5.52142 5.40702 0
M  V30 2468 H 224.945 -4.97043 4.85771 0
M  V30 2469 H 228.136 -3.544 3.05808 0
M  V30 2470 H 228.309 -4.73723 4.42143 0
M  V30 2471 N 221.715 -0.905404 -1.28997 0
M  V30 2472 C 222.662 -0.385892 -2.27551 0
M  V30 2473 C 223.632 0.535113 -1.57244 0
M  V30 2474 O 224.817 0.459119 -1.85194 0
M  V30 2475 C 221.957 0.375461 -3.43051 0
M  V30 2476 C 221.07 -0.577092 -4.28128 0
M  V30 2477 C 220.205 0.201879 -5.30816 0
M  V30 2478 C 219.244 -0.744829 -6.07551 0
M  V30 2479 N 218.381 9.42587e-05 -7.021 0
M  V30 2480 H 223.221 -1.23139 -2.71368 0
M  V30 2481 H 220.758 -0.618542 -1.33463 0
M  V30 2482 H 222.716 0.832992 -4.088 0
M  V30 2483 H 221.346 1.18537 -3.00248 0
M  V30 2484 H 220.398 -1.15315 -3.62501 0
M  V30 2485 H 221.71 -1.30152 -4.8152 0
M  V30 2486 H 220.864 0.720351 -6.02408 0
M  V30 2487 H 219.603 0.959413 -4.7817 0
M  V30 2488 H 218.608 -1.27475 -5.34818 0
M  V30 2489 H 219.833 -1.50178 -6.62286 0
M  V30 2490 H 217.779 0.739791 -6.51815 0
M  V30 2491 H 217.696 -0.664321 -7.53076 0
M  V30 2492 H 218.964 0.498644 -7.77903 0
M  V30 2493 N 223.193 1.4272 -0.668489 0
M  V30 2494 C 224.156 2.292 0.00448567 0
M  V30 2495 C 225.156 1.43001 0.735339 0
M  V30 2496 O 226.346 1.64461 0.57429 0
M  V30 2497 C 223.478 3.25375 1.01705 0
M  V30 2498 H 224.671 2.90199 -0.756608 0
M  V30 2499 H 222.224 1.50254 -0.430506 0
M  V30 2500 H 222.959 2.69301 1.80686 0
M  V30 2501 H 222.744 3.88944 0.496463 0
M  V30 2502 H 224.234 3.90245 1.48655 0
M  V30 2503 N 224.671 0.411399 1.52136 0
M  V30 2504 C 225.948 -0.222308 1.94333 0
M  V30 2505 C 226.328 -1.6242 1.34844 0
M  V30 2506 O 225.676 -2.22384 0.525145 0
M  V30 2507 C 225.886 -0.226345 3.48265 0
M  V30 2508 C 227.234 -0.444592 4.22266 0
M  V30 2509 O 228.258 -0.305602 3.54887 0
M  V30 2510 O 227.117 -0.718749 5.41753 0
M  V30 2511 H 224.211 -0.143907 0.814383 0
M  V30 2512 H 226.757 0.467506 1.63133 0
M  V30 2513 H 225.529 0.75475 3.83952 0
M  V30 2514 H 225.152 -0.960163 3.85832 0
M  V30 2515 N 226.149 -1.5696 0.141893 0
M  V30 2516 C 227.096 -2.16501 -0.799737 0
M  V30 2517 C 228.066 -1.09643 -1.24771 0
M  V30 2518 O 229.251 -1.3766 -1.32115 0
M  V30 2519 C 226.391 -2.78679 -2.03549 0
M  V30 2520 C 225.504 -3.99914 -1.6338 0
M  V30 2521 C 224.639 -4.50106 -2.82096 0
M  V30 2522 C 223.678 -5.63819 -2.38275 0
M  V30 2523 N 222.815 -6.08651 -3.49983 0
M  V30 2524 H 227.655 -2.96632 -0.285179 0
M  V30 2525 H 225.192 -1.46533 -0.129053 0
M  V30 2526 H 227.15 -3.1287 -2.75986 0
M  V30 2527 H 225.78 -2.012 -2.52425 0
M  V30 2528 H 224.832 -3.71735 -0.807279 0
M  V30 2529 H 226.144 -4.82311 -1.27192 0
M  V30 2530 H 225.298 -4.86325 -3.62729 0
M  V30 2531 H 224.037 -3.66706 -3.21525 0
M  V30 2532 H 223.042 -5.2718 -1.56081 0
M  V30 2533 H 224.267 -6.49 -1.99938 0
M  V30 2534 H 222.213 -5.28188 -3.89042 0
M  V30 2535 H 222.13 -6.85961 -3.17794 0
M  V30 2536 H 223.398 -6.49515 -4.30988 0
M  V30 2537 N 227.627 0.131896 -1.57047 0
M  V30 2538 C 228.575 1.18146 -2.0036 0
M  V30 2539 C 229.569 1.43614 -0.898406 0
M  V30 2540 O 230.775 1.43729 -1.08361 0
M  V30 2541 H 227.15 0.398042 -0.638018 0
M  V30 2542 H 229.121 0.789564 -2.87765 0
M  V30 2543 C 227.87 2.50341 -2.41298 0
M  V30 2544 H 227.193 2.31578 -3.25902 0
M  V30 2545 H 228.633 3.22371 -2.75414 0
M  V30 2546 C 227.092 3.11984 -1.27153 0
M  V30 2547 O 227.622 3.97484 -0.580459 0
M  V30 2548 N 225.828 2.71662 -1.03189 0
M  V30 2549 H 225.375 2.02231 -1.59564 0
M  V30 2550 H 225.333 3.13238 -0.270077 0
M  V30 2551 N 229.106 1.52395 0.401703 0
M  V30 2552 C 230.053 1.76268 1.48991 0
M  V30 2553 C 231.023 0.605386 1.54675 0
M  V30 2554 O 232.208 0.843742 1.7113 0
M  V30 2555 C 229.348 1.92592 2.86361 0
M  V30 2556 C 228.461 3.20259 2.89928 0
M  V30 2557 C 227.596 3.26972 4.18644 0
M  V30 2558 C 226.635 4.48812 4.16214 0
M  V30 2559 N 225.772 4.52877 5.36514 0
M  V30 2560 H 230.612 2.6914 1.27935 0
M  V30 2561 H 228.149 1.33355 0.620871 0
M  V30 2562 H 230.107 2.0004 3.66115 0
M  V30 2563 H 228.737 1.03093 3.05895 0
M  V30 2564 H 227.789 3.21945 2.02621 0
M  V30 2565 H 229.101 4.10056 2.83999 0
M  V30 2566 H 228.255 3.33533 5.06794 0
M  V30 2567 H 226.994 2.35126 4.27278 0
M  V30 2568 H 225.999 4.4239 3.26453 0
M  V30 2569 H 227.224 5.41961 4.09213 0
M  V30 2570 H 225.17 3.63917 5.45802 0
M  V30 2571 H 225.087 5.36529 5.32609 0
M  V30 2572 H 226.355 4.63676 6.26597 0
M  V30 2573 N 230.584 -0.659388 1.43143 0
M  V30 2574 C 231.861 -1.41627 1.34912 0
M  V30 2575 C 232.241 -2.11099 -0.00607785 0
M  V30 2576 O 231.589 -2.04353 -1.02236 0
M  V30 2577 C 231.799 -2.40604 2.52805 0
M  V30 2578 C 233.147 -3.04789 2.95616 0
M  V30 2579 O 234.171 -2.50932 2.52807 0
M  V30 2580 O 233.03 -4.02421 3.69756 0
M  V30 2581 H 230.124 -0.63246 0.532844 0
M  V30 2582 H 232.67 -0.686814 1.5518 0
M  V30 2583 H 231.442 -1.88174 3.43083 0
M  V30 2584 H 231.065 -3.21009 2.34604 0
M  V30 2585 N 232.062 -1.29571 -0.897171 0
M  V30 2586 C 233.01 -1.14802 -2.02295 0
M  V30 2587 C 234.004 -0.0629637 -1.69283 0
M  V30 2588 O 235.21 -0.222945 -1.78614 0
M  V30 2589 H 231.585 -0.354692 -0.663097 0
M  V30 2590 H 233.556 -2.10108 -2.11889 0
M  V30 2591 C 232.305 -0.843966 -3.37302 0
M  V30 2592 H 231.628 -1.67093 -3.63208 0
M  V30 2593 H 233.068 -0.780672 -4.16751 0
M  V30 2594 C 231.527 0.452843 -3.33843 0
M  V30 2595 O 232.057 1.47813 -3.73516 0
M  V30 2596 N 230.263 0.459601 -2.86943 0
M  V30 2597 H 229.81 -0.375213 -2.54853 0
M  V30 2598 H 229.768 1.32726 -2.85011 0
M  V30 2599 N 233.54 1.10788 -1.12088 0
M  V30 2600 C 234.487 2.17025 -0.785407 0
M  V30 2601 C 235.457 1.64265 0.246191 0
M  V30 2602 O 236.642 1.90412 0.121584 0
M  V30 2603 C 233.782 3.44249 -0.242177 0
M  V30 2604 C 232.895 4.1098 -1.33115 0
M  V30 2605 C 232.03 5.25911 -0.747741 0
M  V30 2606 C 231.069 5.84538 -1.81609 0
M  V30 2607 N 230.206 6.90853 -1.25167 0
M  V30 2608 H 235.046 2.45066 -1.69548 0
M  V30 2609 H 232.583 1.20297 -0.846582 0
M  V30 2610 H 234.541 4.17101 0.0908026 0
M  V30 2611 H 233.171 3.16571 0.631072 0
M  V30 2612 H 232.223 3.36133 -1.78097 0
M  V30 2613 H 233.535 4.50601 -2.13917 0
M  V30 2614 H 232.689 6.056 -0.365216 0
M  V30 2615 H 231.428 4.87614 0.0915188 0
M  V30 2616 H 230.433 5.03522 -2.20785 0
M  V30 2617 H 231.658 6.249 -2.6585 0
M  V30 2618 H 229.604 6.54562 -0.434174 0
M  V30 2619 H 229.521 7.29166 -1.99633 0
M  V30 2620 H 230.789 7.7433 -0.896259 0
M  V30 2621 N 235.018 0.912232 1.28515 0
M  V30 2622 C 235.951 0.343928 2.25593 0
M  V30 2623 C 236.929 -0.550994 1.5298 0
M  V30 2624 O 238.113 -0.494991 1.81885 0
M  V30 2625 C 235.24 -0.508525 3.34861 0
M  V30 2626 C 234.286 0.320808 4.25292 0
M  V30 2627 S 235.119 1.72658 5.06902 0
M  V30 2628 C 236.275 0.881394 6.19663 0
M  V30 2629 H 236.508 1.16674 2.73449 0
M  V30 2630 H 234.041 0.713384 1.36931 0
M  V30 2631 H 235.999 -0.994539 3.9827 0
M  V30 2632 H 234.66 -1.30571 2.85675 0
M  V30 2633 H 233.853 -0.330941 5.02912 0
M  V30 2634 H 233.455 0.74042 3.66598 0
M  V30 2635 H 235.747 0.110359 6.7741 0
M  V30 2636 H 236.69 1.63009 6.89082 0
M  V30 2637 H 237.098 0.430239 5.62858 0
M  V30 2638 N 236.496 -1.42363 0.676048 0
M  V30 2639 C 237.721 -2.06377 0.205705 0
M  V30 2640 C 238.146 -1.50463 -1.12883 0
M  V30 2641 O 237.504 -0.623619 -1.70237 0
M  V30 2642 C 237.552 -3.60277 0.152655 0
M  V30 2643 O 236.656 -4.02935 -0.87845 0
M  V30 2644 H 235.997 -0.655588 0.105359 0
M  V30 2645 H 238.527 -1.82475 0.925412 0
M  V30 2646 H 238.537 -4.07993 -0.0230675 0
M  V30 2647 H 237.212 -4.00346 1.12675 0
M  V30 2648 H 235.789 -3.66764 -0.673668 0
M  V30 2649 N 237.974 -0.419461 -1.51915 0
M  V30 2650 C 239.221 0.152939 -2.01922 0
M  V30 2651 C 239.549 1.4426 -1.30458 0
M  V30 2652 O 238.804 1.91514 -0.402593 0
M  V30 2653 C 239.103 0.437067 -3.54717 0
M  V30 2654 C 238.769 -0.764632 -4.44369 0
M  V30 2655 C 237.431 -1.09423 -4.68594 0
M  V30 2656 C 239.783 -1.56713 -4.97082 0
M  V30 2657 C 237.111 -2.22732 -5.42777 0
M  V30 2658 C 239.463 -2.69107 -5.72507 0
M  V30 2659 C 238.127 -3.02541 -5.95 0
M  V30 2660 H 237.397 0.0559644 -0.738884 0
M  V30 2661 H 240.044 -0.562998 -1.83037 0
M  V30 2662 H 238.349 1.23469 -3.71837 0
M  V30 2663 H 240.046 0.893083 -3.90928 0
M  V30 2664 H 236.636 -0.497775 -4.257 0
M  V30 2665 H 240.82 -1.32571 -4.78266 0
M  V30 2666 H 236.076 -2.48971 -5.58411 0
M  V30 2667 H 240.25 -3.31671 -6.12346 0
M  V30 2668 H 237.877 -3.90457 -6.52264 0
M  V30 2669 N 239.452 1.56882 -0.150215 0
M  V30 2670 C 240.399 2.16922 0.788244 0
M  V30 2671 C 241.369 1.10303 1.24187 0
M  V30 2672 O 242.554 1.38359 1.31383 0
M  V30 2673 C 239.694 2.79754 2.02068 0
M  V30 2674 C 238.807 4.00775 1.61257 0
M  V30 2675 C 237.942 4.51595 2.79705 0
M  V30 2676 C 236.981 5.65074 2.35282 0
M  V30 2677 N 236.118 6.10499 3.4675 0
M  V30 2678 H 240.958 2.96779 0.269444 0
M  V30 2679 H 238.495 1.46599 0.12128 0
M  V30 2680 H 240.453 3.14329 2.74323 0
M  V30 2681 H 239.083 2.02536 2.51354 0
M  V30 2682 H 238.135 3.72158 0.787553 0
M  V30 2683 H 239.447 4.82978 1.24633 0
M  V30 2684 H 238.601 4.88242 3.60145 0
M  V30 2685 H 237.34 3.68406 3.19576 0
M  V30 2686 H 236.345 5.28 1.53283 0
M  V30 2687 H 237.57 6.50052 1.96493 0
M  V30 2688 H 235.516 5.30243 3.86236 0
M  V30 2689 H 235.433 6.87637 3.14152 0
M  V30 2690 H 236.701 6.51791 4.27537 0
M  V30 2691 N 240.93 -0.123565 1.57115 0
M  V30 2692 C 241.84 -1.17074 2.033 0
M  V30 2693 C 242.856 -1.4561 0.952559 0
M  V30 2694 O 244.032 -1.56817 1.26374 0
M  V30 2695 C 241.097 -2.47857 2.42421 0
M  V30 2696 C 240.158 -2.26758 3.64526 0
M  V30 2697 C 239.391 -3.51305 4.01771 0
M  V30 2698 O 239.614 -4.5843 3.39409 0
M  V30 2699 O 238.548 -3.42578 4.94898 0
M  V30 2700 H 242.374 -0.808555 2.92739 0
M  V30 2701 H 239.959 -0.334027 1.45618 0
M  V30 2702 H 241.841 -3.2492 2.68338 0
M  V30 2703 H 240.516 -2.83558 1.5613 0
M  V30 2704 H 239.423 -1.47569 3.43765 0
M  V30 2705 H 240.756 -1.95963 4.51508 0
M  V30 2706 N 242.408 -1.52605 -0.393616 0
M  V30 2707 C 243.338 -1.80022 -1.48709 0
M  V30 2708 C 244.319 -0.651995 -1.57108 0
M  V30 2709 O 245.504 -0.89913 -1.72132 0
M  V30 2710 C 242.634 -1.96492 -2.86371 0
M  V30 2711 C 241.588 -3.12161 -2.92813 0
M  V30 2712 C 240.914 -3.13877 -4.3288 0
M  V30 2713 C 242.214 -4.51322 -2.6288 0
M  V30 2714 H 243.908 -2.71589 -1.26015 0
M  V30 2715 H 241.454 -1.30684 -0.604778 0
M  V30 2716 H 243.407 -2.14255 -3.62867 0
M  V30 2717 H 242.131 -1.01611 -3.10391 0
M  V30 2718 H 240.79 -2.94173 -2.18764 0
M  V30 2719 H 240.438 -2.16687 -4.53933 0
M  V30 2720 H 240.138 -3.91576 -4.38112 0
M  V30 2721 H 241.662 -3.33789 -5.1129 0
M  V30 2722 H 243.076 -4.69435 -3.29096 0
M  V30 2723 H 241.473 -5.31053 -2.79468 0
M  V30 2724 H 242.543 -4.58353 -1.58242 0
M  V30 2725 N 243.887 0.651787 -1.4349 0
M  V30 2726 C 244.819 1.77725 -1.44729 0
M  V30 2727 C 245.832 1.59141 -0.343231 0
M  V30 2728 O 247.021 1.67835 -0.607751 0
M  V30 2729 C 244.121 3.15172 -1.24579 0
M  V30 2730 C 243.294 3.60402 -2.47849 0
M  V30 2731 C 242.353 4.76656 -2.22902 0
M  V30 2732 O 241.379 4.86022 -2.96263 0
M  V30 2733 N 242.581 5.66958 -1.24656 0
M  V30 2734 H 245.346 1.77141 -2.41746 0
M  V30 2735 H 242.907 0.835678 -1.38665 0
M  V30 2736 H 244.899 3.90634 -1.0577 0
M  V30 2737 H 243.469 3.1052 -0.360015 0
M  V30 2738 H 242.689 2.75369 -2.82073 0
M  V30 2739 H 243.977 3.87368 -3.29884 0
M  V30 2740 H 243.375 5.62065 -0.640265 0
M  V30 2741 H 241.932 6.42135 -1.1183 0
M  V30 2742 N 245.365 1.30045 0.890287 0
M  V30 2743 C 246.313 1.15873 2.01683 0
M  V30 2744 C 247.307 0.0719403 1.69247 0
M  V30 2745 O 248.513 0.232414 1.78493 0
M  V30 2746 H 244.888 0.358203 0.661207 0
M  V30 2747 H 246.859 2.11229 2.10772 0
M  V30 2748 C 245.608 0.861842 3.36849 0
M  V30 2749 H 244.931 1.69016 3.62317 0
M  V30 2750 H 246.371 0.802762 4.16331 0
M  V30 2751 C 244.83 -0.435132 3.34078 0
M  V30 2752 O 245.36 -1.4583 3.74295 0
M  V30 2753 N 243.566 -0.444377 2.87182 0
M  V30 2754 H 243.113 0.388723 2.5465 0
M  V30 2755 H 243.071 -1.31213 2.85711 0
M  V30 2756 N 246.843 -1.10192 1.12674 0
M  V30 2757 C 248.09 -1.82205 0.883606 0
M  V30 2758 C 248.418 -1.8532 -0.590492 0
M  V30 2759 O 247.673 -1.31137 -1.45264 0
M  V30 2760 C 247.972 -3.28552 1.4067 0
M  V30 2761 C 247.638 -3.45582 2.89627 0
M  V30 2762 C 246.3 -3.49937 3.30299 0
M  V30 2763 C 248.652 -3.50768 3.85501 0
M  V30 2764 C 245.98 -3.57049 4.65546 0
M  V30 2765 C 248.332 -3.59414 5.20581 0
M  V30 2766 C 246.996 -3.62034 5.60792 0
M  V30 2767 H 246.266 -0.666735 0.323334 0
M  V30 2768 H 248.913 -1.29868 1.40736 0
M  V30 2769 H 247.218 -3.83473 0.80347 0
M  V30 2770 H 248.915 -3.82788 1.19475 0
M  V30 2771 H 245.505 -3.42871 2.57172 0
M  V30 2772 H 249.689 -3.46651 3.55171 0
M  V30 2773 H 244.945 -3.57361 4.96088 0
M  V30 2774 H 249.119 -3.62371 5.94693 0
M  V30 2775 H 246.746 -3.67298 6.6558 0
M  V30 2776 N 248.321 -0.919034 -1.28029 0
M  V30 2777 C 249.251 -0.428581 -2.29533 0
M  V30 2778 C 250.232 0.50659 -1.62381 0
M  V30 2779 O 251.417 0.413195 -1.89753 0
M  V30 2780 C 248.547 0.327388 -3.45753 0
M  V30 2781 C 247.501 -0.519137 -4.2484 0
M  V30 2782 C 246.827 0.365486 -5.33449 0
M  V30 2783 C 248.127 -1.77914 -4.91064 0
M  V30 2784 H 249.821 -1.27687 -2.70807 0
M  V30 2785 H 247.367 -0.615428 -1.30186 0
M  V30 2786 H 249.32 0.681378 -4.15855 0
M  V30 2787 H 248.044 1.20963 -3.03374 0
M  V30 2788 H 246.703 -0.855717 -3.56473 0
M  V30 2789 H 246.351 1.24642 -4.87312 0
M  V30 2790 H 246.051 -0.197356 -5.87268 0
M  V30 2791 H 247.575 0.715241 -6.06396 0
M  V30 2792 H 248.989 -1.49374 -5.53498 0
M  V30 2793 H 247.386 -2.2848 -5.54903 0
M  V30 2794 H 248.456 -2.50382 -4.15255 0
M  V30 2795 N 249.799 1.42003 -0.683588 0
M  V30 2796 C 250.746 2.30798 -0.0107309 0
M  V30 2797 C 251.716 1.4645 0.783688 0
M  V30 2798 O 252.901 1.75263 0.754156 0
M  V30 2799 C 250.041 3.3238 0.928306 0
M  V30 2800 C 249.154 4.31814 0.126776 0
M  V30 2801 C 248.289 5.20468 1.06236 0
M  V30 2802 C 247.328 6.11577 0.253035 0
M  V30 2803 N 246.465 6.92754 1.14179 0
M  V30 2804 H 251.305 2.8778 -0.773727 0
M  V30 2805 H 248.842 1.41745 -0.393283 0
M  V30 2806 H 250.8 3.89813 1.48666 0
M  V30 2807 H 249.43 2.76976 1.65783 0
M  V30 2808 H 248.482 3.76427 -0.54833 0
M  V30 2809 H 249.794 4.96276 -0.501192 0
M  V30 2810 H 248.948 5.82677 1.69035 0
M  V30 2811 H 247.687 4.56204 1.7242 0
M  V30 2812 H 246.692 5.48428 -0.388108 0
M  V30 2813 H 247.917 6.77892 -0.404839 0
M  V30 2814 H 245.863 6.3111 1.78987 0
M  V30 2815 H 245.78 7.53855 0.569111 0
M  V30 2816 H 247.048 7.59441 1.75697 0
M  V30 2817 N 251.277 0.427512 1.51691 0
M  V30 2818 C 252.187 -0.39527 2.31246 0
M  V30 2819 C 253.203 -1.03674 1.39742 0
M  V30 2820 O 254.379 -1.03425 1.72816 0
M  V30 2821 C 251.444 -1.48706 3.13189 0
M  V30 2822 C 250.505 -0.866743 4.20459 0
M  V30 2823 C 249.738 -1.90651 4.98486 0
M  V30 2824 O 249.961 -3.12733 4.77026 0
M  V30 2825 O 248.895 -1.5025 5.82845 0
M  V30 2826 H 252.721 0.253918 3.02637 0
M  V30 2827 H 250.306 0.190274 1.48183 0
M  V30 2828 H 252.188 -2.12047 3.64162 0
M  V30 2829 H 250.863 -2.12051 2.44573 0
M  V30 2830 H 249.77 -0.195544 3.73589 0
M  V30 2831 H 251.103 -0.276934 4.9142 0
M  V30 2832 N 252.755 -1.56801 0.158532 0
M  V30 2833 C 253.685 -2.20347 -0.772609 0
M  V30 2834 C 254.666 -1.15518 -1.24859 0
M  V30 2835 O 255.851 -1.43902 -1.30406 0
M  V30 2836 C 252.981 -2.83417 -2.00729 0
M  V30 2837 C 251.935 -3.94174 -1.66765 0
M  V30 2838 C 251.261 -4.44233 -2.97592 0
M  V30 2839 C 252.561 -5.14392 -0.905447 0
M  V30 2840 H 254.255 -2.98413 -0.242959 0
M  V30 2841 H 251.801 -1.43537 -0.115419 0
M  V30 2842 H 253.754 -3.26543 -2.6636 0
M  V30 2843 H 252.478 -2.02701 -2.56086 0
M  V30 2844 H 251.137 -3.51684 -1.03508 0
M  V30 2845 H 250.785 -3.60325 -3.50963 0
M  V30 2846 H 250.485 -5.18945 -2.75626 0
M  V30 2847 H 252.009 -4.90037 -3.64274 0
M  V30 2848 H 253.423 -5.5429 -1.46408 0
M  V30 2849 H 251.82 -5.9494 -0.7853 0
M  V30 2850 H 252.89 -4.84795 0.100668 0
M  V30 2851 N 254.233 0.115231 -1.57178 0
M  V30 2852 C 255.181 1.16014 -2.01602 0
M  V30 2853 C 256.175 1.42653 -0.913587 0
M  V30 2854 O 257.381 1.42571 -1.09879 0
M  V30 2855 H 253.756 0.391252 -0.642204 0
M  V30 2856 H 255.727 0.758998 -2.88586 0
M  V30 2857 C 254.476 2.47767 -2.4394 0
M  V30 2858 H 253.799 2.28108 -3.28339 0
M  V30 2859 H 255.239 3.19432 -2.78818 0
M  V30 2860 C 253.698 3.10617 -1.30455 0
M  V30 2861 O 254.228 3.96846 -0.622585 0
M  V30 2862 N 252.434 2.70553 -1.06064 0
M  V30 2863 H 251.981 2.00527 -1.61699 0
M  V30 2864 H 251.939 3.12934 -0.303284 0
M  V30 2865 N 255.711 1.52812 0.385517 0
M  V30 2866 C 256.96 1.67249 1.12741 0
M  V30 2867 C 257.273 0.4205 1.91027 0
M  V30 2868 O 258.479 0.445064 2.67827 0
M  V30 2869 C 256.935 2.95583 2.05326 0
M  V30 2870 C 256.543 4.27974 1.32447 0
M  V30 2871 C 258.287 3.19386 2.7963 0
M  V30 2872 C 256.194 5.47412 2.23818 0
M  V30 2873 H 255.124 0.6231 0.424573 0
M  V30 2874 H 257.775 1.79309 0.389924 0
M  V30 2875 H 256.157 2.77277 2.82725 0
M  V30 2876 H 257.331 4.56844 0.602495 0
M  V30 2877 H 255.646 4.10459 0.700885 0
M  V30 2878 H 258.243 4.05801 3.48181 0
M  V30 2879 H 258.586 2.34604 3.43899 0
M  V30 2880 H 259.119 3.38274 2.09322 0
M  V30 2881 H 255.858 6.34612 1.64157 0
M  V30 2882 H 255.378 5.22849 2.93921 0
M  V30 2883 H 257.057 5.81423 2.83824 0
M  V30 2884 N 257.189 -0.644168 1.43834 0
M  V30 2885 C 258.121 -1.76955 1.45669 0
M  V30 2886 C 259.134 -1.58956 0.351666 0
M  V30 2887 O 260.323 -1.6751 0.616644 0
M  V30 2888 C 257.423 -3.14507 1.26248 0
M  V30 2889 C 256.596 -3.59083 2.49757 0
M  V30 2890 C 255.655 -4.75467 2.25427 0
M  V30 2891 O 254.681 -4.84444 2.98836 0
M  V30 2892 N 255.883 -5.66289 1.27661 0
M  V30 2893 H 258.648 -1.75856 2.42682 0
M  V30 2894 H 256.209 -0.828312 1.39106 0
M  V30 2895 H 258.201 -3.90067 1.0784 0
M  V30 2896 H 256.771 -3.10325 0.376478 0
M  V30 2897 H 255.991 -2.7387 2.8353 0
M  V30 2898 H 257.279 -3.85613 3.31934 0
M  V30 2899 H 256.677 -5.61718 0.670064 0
M  V30 2900 H 255.234 -6.41533 1.15234 0
M  V30 2901 N 258.668 -1.30515 -0.883378 0
M  V30 2902 C 259.914 -1.19607 -1.63774 0
M  V30 2903 C 260.247 0.248314 -1.92606 0
M  V30 2904 O 259.522 1.17742 -1.54813 0
M  V30 2905 C 259.805 -2.02669 -2.97653 0
M  V30 2906 C 259.658 -3.55335 -2.75784 0
M  V30 2907 C 260.977 -1.86573 -3.98596 0
M  V30 2908 H 258.096 -0.435856 -0.594305 0
M  V30 2909 H 260.738 -1.60165 -1.02212 0
M  V30 2910 H 258.888 -1.68208 -3.50197 0
M  V30 2911 H 260.56 -3.99863 -2.30016 0
M  V30 2912 H 258.803 -3.79438 -2.1026 0
M  V30 2913 H 259.474 -4.08745 -3.70988 0
M  V30 2914 H 261.95 -2.16703 -3.55217 0
M  V30 2915 H 260.826 -2.47014 -4.90179 0
M  V30 2916 H 261.087 -0.825321 -4.34328 0
M  V30 2917 N 260.146 1.09593 -1.13257 0
M  V30 2918 C 261.423 1.78293 -0.804432 0
M  V30 2919 C 261.803 1.99004 0.70431 0
M  V30 2920 O 261.151 1.59007 1.641 0
M  V30 2921 C 261.361 3.10707 -1.5894 0
M  V30 2922 C 262.709 3.85443 -1.78099 0
M  V30 2923 O 263.733 3.20454 -1.55525 0
M  V30 2924 O 262.592 5.02108 -2.15753 0
M  V30 2925 H 259.686 0.773156 -0.293528 0
M  V30 2926 H 262.232 1.16164 -1.23709 0
M  V30 2927 H 261.004 2.91106 -2.61482 0
M  V30 2928 H 260.627 3.80558 -1.15157 0
M  V30 2929 N 261.624 0.925811 1.2754 0
M  V30 2930 C 262.901 0.483726 1.89524 0
M  V30 2931 C 263.281 -1.03809 1.83812 0
M  V30 2932 O 262.629 -1.89143 1.28207 0
M  V30 2933 C 262.839 1.02769 3.33526 0
M  V30 2934 C 264.187 1.08703 4.10449 0
M  V30 2935 O 265.211 0.977175 3.42534 0
M  V30 2936 O 264.07 1.25599 5.31871 0
M  V30 2937 H 261.164 0.15529 0.812289 0
M  V30 2938 H 263.71 1.01738 1.35822 0
M  V30 2939 H 262.482 2.07155 3.31967 0
M  V30 2940 H 262.105 0.475567 3.94746 0
M  V30 2941 N 263.102 -1.41638 0.69111 0
M  V30 2942 C 264.327 -2.06148 0.227583 0
M  V30 2943 C 264.752 -1.51652 -1.11281 0
M  V30 2944 O 264.11 -0.64164 -1.69566 0
M  V30 2945 C 264.158 -3.60095 0.190858 0
M  V30 2946 O 263.262 -4.03845 -0.835664 0
M  V30 2947 H 262.603 -0.654434 0.112306 0
M  V30 2948 H 265.133 -1.81484 0.944714 0
M  V30 2949 H 265.143 -4.07995 0.020207 0
M  V30 2950 H 263.818 -3.99129 1.16915 0
M  V30 2951 H 262.395 -3.67458 -0.63473 0
M  V30 2952 N 264.58 -0.43555 -1.51462 0
M  V30 2953 C 265.81 0.130053 -2.0619 0
M  V30 2954 C 266.218 1.37164 -1.30317 0
M  V30 2955 O 265.561 1.80225 -0.355598 0
M  V30 2956 C 265.623 0.519418 -3.55728 0
M  V30 2957 C 265.287 -0.615119 -4.52841 0
M  V30 2958 C 266.284 -1.48671 -4.9819 0
M  V30 2959 C 263.969 -0.795341 -4.95963 0
M  V30 2960 C 265.963 -2.52324 -5.8533 0
M  V30 2961 C 263.65 -1.83514 -5.82894 0
M  V30 2962 C 264.648 -2.69748 -6.27475 0
M  V30 2963 O 264.336 -3.71944 -7.1268 0
M  V30 2964 H 264.068 0.0121612 -0.675891 0
M  V30 2965 H 266.622 -0.6129 -1.96043 0
M  V30 2966 H 264.852 1.31505 -3.63653 0
M  V30 2967 H 266.541 1.01597 -3.92979 0
M  V30 2968 H 267.307 -1.359 -4.65571 0
M  V30 2969 H 263.186 -0.133713 -4.60806 0
M  V30 2970 H 266.73 -3.19665 -6.20048 0
M  V30 2971 H 262.627 -1.96306 -6.14926 0
M  V30 2972 H 263.395 -3.68503 -7.30854 0
M  V30 2973 N 266.058 1.56714 -0.166846 0
M  V30 2974 C 267.021 2.16539 0.751232 0
M  V30 2975 C 268.021 1.11228 1.16125 0
M  V30 2976 O 269.211 1.36765 1.07894 0
M  V30 2977 C 266.343 2.74462 2.02196 0
M  V30 2978 H 267.536 2.99013 0.230499 0
M  V30 2979 H 265.089 1.56081 0.0826982 0
M  V30 2980 H 265.824 1.95709 2.58589 0
M  V30 2981 H 265.609 3.51527 1.73698 0
M  V30 2982 H 267.099 3.20489 2.67725 0
M  V30 2983 N 267.536 -0.106894 1.57237 0
M  V30 2984 C 268.952 -0.46078 1.52804 0
M  V30 2985 C 269.152 -1.81184 0.881746 0
M  V30 2986 O 268.208 -2.48102 0.469224 0
M  V30 2987 C 269.521 -0.434127 2.9755 0
M  V30 2988 C 271.069 -0.516821 3.08704 0
M  V30 2989 C 271.544 -0.520436 4.55033 0
M  V30 2990 N 273.035 -0.58153 4.59535 0
M  V30 2991 C 273.77 -0.605973 5.70189 0
M  V30 2992 N 273.266 -0.587331 6.90306 0
M  V30 2993 N 275.059 -0.649895 5.5833 0
M  V30 2994 H 267.21 0.778203 1.9763 0
M  V30 2995 H 269.473 0.288403 0.903066 0
M  V30 2996 H 269.179 0.491197 3.48253 0
M  V30 2997 H 269.053 -1.25748 3.55622 0
M  V30 2998 H 271.44 -1.43256 2.57995 0
M  V30 2999 H 271.521 0.334449 2.53604 0
M  V30 3000 H 271.165 0.391313 5.0639 0
M  V30 3001 H 271.095 -1.38876 5.07958 0
M  V30 3002 H 273.586 -0.60161 3.73081 0
M  V30 3003 H 273.899 -0.60894 7.70397 0
M  V30 3004 H 272.244 -0.554564 6.92784 0
M  V30 3005 H 275.435 -0.661907 4.63397 0
M  V30 3006 H 275.608 -0.665476 6.44574 0
M  V30 3007 N 269.014 -1.53014 -0.377408 0
M  V30 3008 C 269.961 -1.78616 -1.46168 0
M  V30 3009 C 270.931 -0.629917 -1.53692 0
M  V30 3010 O 272.116 -0.870861 -1.69766 0
M  V30 3011 C 269.256 -1.97123 -2.8326 0
M  V30 3012 C 268.369 -3.24831 -2.84796 0
M  V30 3013 C 267.504 -3.33591 -4.13389 0
M  V30 3014 C 266.543 -4.55377 -4.09021 0
M  V30 3015 N 265.68 -4.61355 -5.29241 0
M  V30 3016 H 270.52 -2.71142 -1.23637 0
M  V30 3017 H 268.057 -1.34326 -0.599577 0
M  V30 3018 H 270.015 -2.05839 -3.62886 0
M  V30 3019 H 268.645 -1.07946 -3.04216 0
M  V30 3020 H 267.697 -3.25128 -1.97474 0
M  V30 3021 H 269.009 -4.14523 -2.77439 0
M  V30 3022 H 268.163 -3.41554 -5.01424 0
M  V30 3023 H 266.902 -2.41894 -4.23484 0
M  V30 3024 H 265.907 -4.47527 -3.19373 0
M  V30 3025 H 267.132 -5.48402 -4.00539 0
M  V30 3026 H 265.078 -3.72554 -5.39944 0
M  V30 3027 H 264.995 -5.44935 -5.24006 0
M  V30 3028 H 266.263 -4.73586 -6.19141 0
M  V30 3029 N 270.492 0.636531 -1.44174 0
M  V30 3030 C 271.741 1.39213 -1.45954 0
M  V30 3031 C 272.054 1.95374 -0.0939119 0
M  V30 3032 O 273.26 2.71498 0.0107767 0
M  V30 3033 C 271.716 2.52025 -2.56927 0
M  V30 3034 C 271.324 2.024 -3.99673 0
M  V30 3035 C 273.068 3.29269 -2.67922 0
M  V30 3036 C 270.975 3.12521 -5.0208 0
M  V30 3037 H 269.905 0.523132 -0.542999 0
M  V30 3038 H 272.556 0.685349 -1.70221 0
M  V30 3039 H 270.938 3.25253 -2.25891 0
M  V30 3040 H 272.112 1.36073 -4.40251 0
M  V30 3041 H 270.427 1.37987 -3.92872 0
M  V30 3042 H 273.024 4.11352 -3.41605 0
M  V30 3043 H 273.367 3.78397 -1.73555 0
M  V30 3044 H 273.9 2.63129 -2.98342 0
M  V30 3045 H 270.639 2.68343 -5.98057 0
M  V30 3046 H 270.159 3.77507 -4.66099 0
M  V30 3047 H 271.838 3.77385 -5.25538 0
M  V30 3048 N 271.97 1.30982 0.876444 0
M  V30 3049 C 273.217 1.20296 1.62896 0
M  V30 3050 C 273.545 -0.240395 1.93009 0
M  V30 3051 O 272.8 -1.18733 1.55567 0
M  V30 3052 C 273.099 1.98572 2.9716 0
M  V30 3053 C 272.765 3.48125 2.86566 0
M  V30 3054 C 271.427 3.88905 2.83383 0
M  V30 3055 C 273.779 4.43322 2.74071 0
M  V30 3056 C 271.107 5.2316 2.65556 0
M  V30 3057 C 273.459 5.77695 2.57781 0
M  V30 3058 C 272.123 6.17704 2.52979 0
M  V30 3059 H 271.393 0.440193 0.59608 0
M  V30 3060 H 274.04 1.62177 1.01837 0
M  V30 3061 H 272.345 1.49352 3.62217 0
M  V30 3062 H 274.042 1.8769 3.54364 0
M  V30 3063 H 270.632 3.15723 2.89856 0
M  V30 3064 H 274.816 4.12752 2.75589 0
M  V30 3065 H 270.072 5.53241 2.60259 0
M  V30 3066 H 274.246 6.51091 2.47089 0
M  V30 3067 H 271.873 7.21678 2.38924 0
M  V30 3068 N 273.449 -1.08991 1.13837 0
M  V30 3069 C 274.865 -1.33312 0.877506 0
M  V30 3070 C 275.065 -1.95587 -0.48456 0
M  V30 3071 O 274.121 -2.20509 -1.23013 0
M  V30 3072 C 275.434 -2.24045 2.0056 0
M  V30 3073 C 276.982 -2.37542 2.03821 0
M  V30 3074 C 277.457 -3.31614 3.15905 0
M  V30 3075 N 278.948 -3.39189 3.15445 0
M  V30 3076 C 279.683 -4.11992 3.98811 0
M  V30 3077 N 279.179 -4.87553 4.92203 0
M  V30 3078 N 280.972 -4.07762 3.86894 0
M  V30 3079 H 273.123 -0.669456 2.01574 0
M  V30 3080 H 275.386 -0.357482 0.878015 0
M  V30 3081 H 275.092 -1.85521 2.98789 0
M  V30 3082 H 274.966 -3.24466 1.92359 0
M  V30 3083 H 277.353 -2.75327 1.06202 0
M  V30 3084 H 277.434 -1.36884 2.16093 0
M  V30 3085 H 277.078 -2.94551 4.13766 0
M  V30 3086 H 277.008 -4.32186 3.0087 0
M  V30 3087 H 279.499 -2.85314 2.47799 0
M  V30 3088 H 279.812 -5.40549 5.52292 0
M  V30 3089 H 278.157 -4.86627 4.96205 0
M  V30 3090 H 281.348 -3.47833 3.13257 0
M  V30 3091 H 281.521 -4.64238 4.52092 0
M  V30 3092 N 274.927 -0.932562 -1.27047 0
M  V30 3093 C 275.837 -0.441219 -2.30414 0
M  V30 3094 C 276.853 0.480525 -1.67233 0
M  V30 3095 O 278.029 0.362151 -1.98117 0
M  V30 3096 C 275.094 0.293651 -3.45454 0
M  V30 3097 C 274.155 -0.663601 -4.2414 0
M  V30 3098 C 273.388 0.0362932 -5.33688 0
M  V30 3099 O 273.611 1.2548 -5.56427 0
M  V30 3100 O 272.545 -0.638015 -5.98509 0
M  V30 3101 H 276.371 -1.29962 -2.74488 0
M  V30 3102 H 273.956 -0.6981 -1.32087 0
M  V30 3103 H 275.838 0.707951 -4.15411 0
M  V30 3104 H 274.513 1.12758 -3.03426 0
M  V30 3105 H 273.42 -1.12768 -3.56699 0
M  V30 3106 H 274.753 -1.46489 -4.69896 0
M  V30 3107 N 276.405 1.4127 -0.698611 0
M  V30 3108 C 277.645 2.03044 -0.235062 0
M  V30 3109 C 278.009 1.54146 1.14468 0
M  V30 3110 O 279.21 2.07867 1.70425 0
M  V30 3111 C 277.481 3.56192 -0.293651 0
M  V30 3112 S 279.04 4.38696 0.0954053 0
M  V30 3113 H 275.858 0.704697 -0.0944648 0
M  V30 3114 H 278.46 1.72656 -0.917064 0
M  V30 3115 H 277.164 3.89274 -1.29977 0
M  V30 3116 H 276.695 3.91285 0.407397 0
M  V30 3117 H 278.71 4.78257 1.3223 0
M  V30 3118 N 277.883 0.443576 1.51229 0
M  V30 3119 C 279.16 -0.181038 1.9476 0
M  V30 3120 C 279.54 -1.59523 1.38259 0
M  V30 3121 O 278.888 -2.2122 0.572198 0
M  V30 3122 C 279.098 -0.152422 3.48667 0
M  V30 3123 C 280.446 -0.354923 4.23114 0
M  V30 3124 O 281.47 -0.230257 3.55455 0
M  V30 3125 O 280.329 -0.603674 5.43156 0
M  V30 3126 H 277.423 -0.1266 0.817252 0
M  V30 3127 H 279.969 0.502004 1.62105 0
M  V30 3128 H 278.741 0.836022 3.82265 0
M  V30 3129 H 278.364 -0.878107 3.87782 0
M  V30 3130 N 279.361 -1.56624 0.175154 0
M  V30 3131 C 280.311 -2.14747 -0.766004 0
M  V30 3132 C 281.295 -1.08275 -1.19018 0
M  V30 3133 O 282.487 -1.34388 -1.15191 0
M  V30 3134 C 279.616 -2.79478 -1.99366 0
M  V30 3135 C 278.702 -3.93114 -1.5913 0
M  V30 3136 N 279.093 -4.97752 -0.89872 0
M  V30 3137 C 277.391 -4.04345 -1.88204 0
M  V30 3138 C 278.092 -5.77473 -0.700012 0
M  V30 3139 N 277.068 -5.29207 -1.24263 0
M  V30 3140 H 280.87 -2.93015 -0.22793 0
M  V30 3141 H 278.384 -1.6238 -0.0253843 0
M  V30 3142 H 280.381 -3.19498 -2.67818 0
M  V30 3143 H 279.041 -2.02692 -2.53665 0
M  V30 3144 H 280.052 -5.14903 -0.556347 0
M  V30 3145 H 276.729 -3.38667 -2.44153 0
M  V30 3146 H 278.119 -6.71728 -0.152047 0
M  V30 3147 N 280.839 0.0985539 -1.57292 0
M  V30 3148 C 282.064 0.820196 -1.90493 0
M  V30 3149 C 282.489 1.71658 -0.769094 0
M  V30 3150 O 281.847 1.79133 0.279495 0
M  V30 3151 C 281.895 1.61242 -3.22542 0
M  V30 3152 O 280.999 2.72108 -3.09888 0
M  V30 3153 H 280.34 0.225547 -0.62452 0
M  V30 3154 H 282.87 0.0748159 -2.04463 0
M  V30 3155 H 282.88 1.99737 -3.55766 0
M  V30 3156 H 281.555 0.954535 -4.04798 0
M  V30 3157 H 280.132 2.36667 -2.88172 0
M  V30 3158 N 282.317 1.53212 0.369288 0
M  V30 3159 C 283.249 1.75668 1.47219 0
M  V30 3160 C 284.262 0.637387 1.49804 0
M  V30 3161 O 285.451 0.913561 1.5335 0
M  V30 3162 C 282.551 1.81818 2.85999 0
M  V30 3163 C 281.724 3.11409 3.07153 0
M  V30 3164 C 280.783 3.08849 4.26026 0
M  V30 3165 O 279.809 3.82659 4.2138 0
M  V30 3166 N 281.011 2.29409 5.33246 0
M  V30 3167 H 283.776 2.70832 1.28337 0
M  V30 3168 H 281.337 1.51944 0.55898 0
M  V30 3169 H 283.329 1.77588 3.63655 0
M  V30 3170 H 281.899 0.939544 2.98146 0
M  V30 3171 H 281.119 3.28971 2.1719 0
M  V30 3172 H 282.407 3.97059 3.18154 0
M  V30 3173 H 281.805 1.68946 5.39883 0
M  V30 3174 H 280.362 2.31001 6.09493 0
M  V30 3175 N 283.795 -0.628877 1.44509 0
M  V30 3176 C 285.023 -1.41554 1.50897 0
M  V30 3177 C 285.438 -1.8832 0.134564 0
M  V30 3178 O 284.795 -1.60969 -0.859965 0
M  V30 3179 C 284.846 -2.63435 2.47556 0
M  V30 3180 O 284.567 -2.18619 3.79654 0
M  V30 3181 C 286.068 -3.56537 2.63431 0
M  V30 3182 H 283.288 -0.434044 0.511709 0
M  V30 3183 H 285.832 -0.768895 1.89495 0
M  V30 3184 H 283.987 -3.24187 2.12089 0
M  V30 3185 H 284.401 -2.97652 4.31861 0
M  V30 3186 H 285.875 -4.38657 3.35088 0
M  V30 3187 H 286.352 -4.05493 1.68738 0
M  V30 3188 H 286.958 -3.01653 2.9981 0
M  V30 3189 N 285.273 -1.31445 -0.869486 0
M  V30 3190 C 286.55 -1.11795 -1.60503 0
M  V30 3191 C 286.93 0.327168 -2.08549 0
M  V30 3192 O 286.278 1.32135 -1.8642 0
M  V30 3193 C 286.488 -2.13258 -2.76265 0
M  V30 3194 C 287.836 -2.45805 -3.46215 0
M  V30 3195 O 288.86 -2.11688 -2.86473 0
M  V30 3196 O 287.719 -3.04228 -4.5399 0
M  V30 3197 H 284.813 -0.430421 -0.706163 0
M  V30 3198 H 287.359 -1.42925 -0.914907 0
M  V30 3199 H 286.131 -3.10461 -2.3818 0
M  V30 3200 H 285.754 -1.83035 -3.52964 0
M  V30 3201 N 286.751 1.08385 -1.14413 0
M  V30 3202 C 287.976 1.85057 -0.936413 0
M  V30 3203 C 288.401 1.81055 0.509971 0
M  V30 3204 O 287.759 1.1958 1.36273 0
M  V30 3205 C 287.807 3.30505 -1.44217 0
M  V30 3206 O 286.911 4.07491 -0.634409 0
M  V30 3207 H 286.252 0.573425 -0.334784 0
M  V30 3208 H 288.782 1.36799 -1.52142 0
M  V30 3209 H 288.792 3.81348 -1.45043 0
M  V30 3210 H 287.467 3.32734 -2.49522 0
M  V30 3211 H 286.044 3.66368 -0.694902 0
M  V30 3212 N 288.23 0.939286 1.26551 0
M  V30 3213 C 289.16 0.465044 2.28822 0
M  V30 3214 C 290.141 -0.480692 1.63167 0
M  V30 3215 O 291.326 -0.382955 1.90387 0
M  V30 3216 C 288.456 -0.27234 3.46231 0
M  V30 3217 C 287.41 0.58666 4.2396 0
M  V30 3218 C 286.736 -0.280573 5.33963 0
M  V30 3219 C 288.036 1.85704 4.88171 0
M  V30 3220 H 289.73 1.31979 2.68741 0
M  V30 3221 H 287.276 0.636061 1.29191 0
M  V30 3222 H 289.229 -0.615133 4.16886 0
M  V30 3223 H 287.953 -1.16121 3.0526 0
M  V30 3224 H 286.612 0.91232 3.55067 0
M  V30 3225 H 286.26 -1.16874 4.89234 0
M  V30 3226 H 285.96 0.29076 5.8688 0
M  V30 3227 H 287.484 -0.618678 6.07458 0
M  V30 3228 H 288.898 1.58161 5.51052 0
M  V30 3229 H 287.295 2.37279 5.51197 0
M  V30 3230 H 288.365 2.56957 4.11219 0
M  V30 3231 N 289.708 -1.40897 0.706093 0
M  V30 3232 C 290.618 -2.3455 0.0482286 0
M  V30 3233 C 291.634 -1.56796 -0.754396 0
M  V30 3234 O 292.81 -1.89228 -0.689538 0
M  V30 3235 C 289.875 -3.35625 -0.869303 0
M  V30 3236 C 288.936 -4.29261 -0.0576994 0
M  V30 3237 C 288.169 -5.25508 -0.931531 0
M  V30 3238 O 288.392 -5.27472 -2.17092 0
M  V30 3239 O 287.326 -6.00727 -0.375587 0
M  V30 3240 H 291.152 -2.92407 0.820476 0
M  V30 3241 H 288.737 -1.4193 0.4665 0
M  V30 3242 H 290.619 -3.97635 -1.39514 0
M  V30 3243 H 289.294 -2.80196 -1.62086 0
M  V30 3244 H 288.201 -3.70566 0.512988 0
M  V30 3245 H 289.534 -4.87817 0.655426 0
M  V30 3246 N 291.186 -0.45159 -1.50991 0
M  V30 3247 C 292.463 0.170707 -1.94854 0
M  V30 3248 C 292.843 1.58788 -1.39103 0
M  V30 3249 O 292.191 2.20913 -0.583921 0
M  V30 3250 C 292.401 0.133929 -3.48743 0
M  V30 3251 C 293.749 0.33248 -4.23296 0
M  V30 3252 O 294.773 0.211403 -3.55572 0
M  V30 3253 O 293.632 0.57486 -5.43468 0
M  V30 3254 H 290.726 0.122264 -0.817912 0
M  V30 3255 H 293.272 -0.510594 -1.61836 0
M  V30 3256 H 292.044 -0.856283 -3.81816 0
M  V30 3257 H 291.667 0.857529 -3.88242 0
M  V30 3258 N 292.664 1.56529 -0.183458 0
M  V30 3259 C 293.574 2.22144 0.754272 0
M  V30 3260 C 294.59 1.21684 1.24374 0
M  V30 3261 O 295.766 1.54385 1.29333 0
M  V30 3262 C 292.831 2.85884 1.96141 0
M  V30 3263 C 291.892 4.01579 1.51765 0
M  V30 3264 C 291.125 4.6227 2.66725 0
M  V30 3265 O 291.348 4.21865 3.83909 0
M  V30 3266 O 290.282 5.51936 2.40104 0
M  V30 3267 H 294.108 3.02861 0.225527 0
M  V30 3268 H 291.693 1.49331 0.0453032 0
M  V30 3269 H 293.575 3.26253 2.66715 0
M  V30 3270 H 292.25 2.08154 2.47899 0
M  V30 3271 H 291.157 3.65856 0.781049 0
M  V30 3272 H 292.49 4.80938 1.04686 0
M  V30 3273 N 294.142 -0.090211 1.57342 0
M  V30 3274 C 295.052 -1.12735 2.05738 0
M  V30 3275 C 296.068 -1.43557 0.983231 0
M  V30 3276 O 297.244 -1.54101 1.29672 0
M  V30 3277 C 294.309 -2.42659 2.47624 0
M  V30 3278 C 293.37 -2.18975 3.69254 0
M  V30 3279 C 292.603 -3.42704 4.09133 0
M  V30 3280 O 292.826 -4.51127 3.49057 0
M  V30 3281 O 291.76 -3.32003 5.02053 0
M  V30 3282 H 295.586 -0.746279 2.94388 0
M  V30 3283 H 293.171 -0.303064 1.46294 0
M  V30 3284 H 295.053 -3.19155 2.7517 0
M  V30 3285 H 293.728 -2.80182 1.62109 0
M  V30 3286 H 292.635 -1.40244 3.46818 0
M  V30 3287 H 293.968 -1.86342 4.55563 0
M  V30 3288 N 295.62 -1.53406 -0.361157 0
M  V30 3289 C 296.869 -1.69022 -1.10066 0
M  V30 3290 C 297.182 -0.450838 -1.90333 0
M  V30 3291 O 298.388 -0.487617 -2.67085 0
M  V30 3292 C 296.844 -2.98812 -2.00598 0
M  V30 3293 C 296.452 -4.30027 -1.25621 0
M  V30 3294 C 298.196 -3.23795 -2.74513 0
M  V30 3295 C 296.103 -5.50903 -2.1508 0
M  V30 3296 H 295.033 -0.629776 -0.414606 0
M  V30 3297 H 297.684 -1.79907 -0.361348 0
M  V30 3298 H 296.066 -2.8174 -2.78278 0
M  V30 3299 H 297.24 -4.57745 -0.529739 0
M  V30 3300 H 295.555 -4.11522 -0.635496 0
M  V30 3301 H 298.152 -4.11289 -3.41681 0
M  V30 3302 H 298.495 -2.40045 -3.40123 0
M  V30 3303 H 299.028 -3.41561 -2.03914 0
M  V30 3304 H 295.767 -6.37143 -1.54041 0
M  V30 3305 H 295.287 -5.27459 -2.85565 0
M  V30 3306 H 296.966 -5.85865 -2.74538 0
M  V30 3307 N 297.098 0.621204 -1.44841 0
M  V30 3308 C 298.008 1.7612 -1.5498 0
M  V30 3309 C 299.024 1.68477 -0.434927 0
M  V30 3310 O 300.2 1.89076 -0.693693 0
M  V30 3311 C 297.265 3.1254 -1.50065 0
M  V30 3312 C 296.326 3.31741 -2.72482 0
M  V30 3313 C 295.559 4.61653 -2.67792 0
M  V30 3314 O 295.782 5.431 -1.74352 0
M  V30 3315 O 294.716 4.83271 -3.58794 0
M  V30 3316 H 298.542 1.70518 -2.51311 0
M  V30 3317 H 296.127 0.783643 -1.27198 0
M  V30 3318 H 298.009 3.93844 -1.49882 0
M  V30 3319 H 296.684 3.18663 -0.568806 0
M  V30 3320 H 295.591 2.50077 -2.7823 0
M  V30 3321 H 296.924 3.30486 -3.64746 0
M  V30 3322 N 298.576 1.31904 0.862503 0
M  V30 3323 C 299.539 1.20131 1.95195 0
M  V30 3324 C 300.539 0.126409 1.60302 0
M  V30 3325 O 301.729 0.376234 1.70089 0
M  V30 3326 C 298.861 0.845691 3.30244 0
M  V30 3327 H 300.054 2.16943 2.07064 0
M  V30 3328 H 297.607 1.15622 1.05172 0
M  V30 3329 H 298.342 -0.120957 3.24074 0
M  V30 3330 H 298.127 1.62276 3.56944 0
M  V30 3331 H 299.617 0.787418 4.10109 0
M  V30 3332 N 300.054 -1.07777 1.14986 0
M  V30 3333 C 301.301 -1.8029 0.922056 0
M  V30 3334 C 301.629 -1.86531 -0.55105 0
M  V30 3335 O 300.884 -1.34189 -1.42449 0
M  V30 3336 C 301.183 -3.25495 1.47608 0
M  V30 3337 C 300.849 -3.39361 2.96893 0
M  V30 3338 C 299.511 -3.42852 3.37647 0
M  V30 3339 C 301.863 -3.42512 3.92854 0
M  V30 3340 C 299.191 -3.47094 4.73015 0
M  V30 3341 C 301.543 -3.4829 5.28088 0
M  V30 3342 C 300.207 -3.50058 5.68345 0
M  V30 3343 H 299.477 -0.659727 0.337404 0
M  V30 3344 H 302.124 -1.26854 1.43459 0
M  V30 3345 H 300.429 -3.81683 0.88463 0
M  V30 3346 H 302.126 -3.80168 1.27568 0
M  V30 3347 H 298.716 -3.37339 2.64387 0
M  V30 3348 H 302.9 -3.3904 3.62444 0
M  V30 3349 H 298.156 -3.46758 5.03556 0
M  V30 3350 H 302.33 -3.49675 6.02246 0
M  V30 3351 H 299.957 -3.53097 6.73221 0
M  V30 3352 N 301.532 -0.945985 -1.26051 0
M  V30 3353 C 302.762 -0.612136 -1.97323 0
M  V30 3354 C 303.17 0.818171 -1.70595 0
M  V30 3355 O 302.513 1.55777 -0.973613 0
M  V30 3356 C 302.575 -0.780347 -3.50929 0
M  V30 3357 C 302.239 -2.18619 -4.01317 0
M  V30 3358 C 303.236 -3.16209 -4.12683 0
M  V30 3359 C 300.921 -2.50805 -4.35203 0
M  V30 3360 C 302.915 -4.44085 -4.57238 0
M  V30 3361 C 300.602 -3.78912 -4.79446 0
M  V30 3362 C 301.6 -4.75365 -4.90425 0
M  V30 3363 O 301.288 -6.01191 -5.3369 0
M  V30 3364 H 301.02 -0.229134 -0.635982 0
M  V30 3365 H 303.574 -1.27036 -1.61404 0
M  V30 3366 H 301.804 -0.0649864 -3.86645 0
M  V30 3367 H 303.493 -0.448842 -4.03411 0
M  V30 3368 H 304.259 -2.92668 -3.86744 0
M  V30 3369 H 300.138 -1.76463 -4.2589 0
M  V30 3370 H 303.682 -5.19373 -4.65723 0
M  V30 3371 H 299.579 -4.02265 -5.0483 0
M  V30 3372 H 300.347 -6.04442 -5.51899 0
M  V30 3373 N 303.011 1.40521 -0.713556 0
M  V30 3374 C 303.958 2.30723 -0.059684 0
M  V30 3375 C 304.928 1.48079 0.752448 0
M  V30 3376 O 306.113 1.76823 0.71681 0
M  V30 3377 C 303.253 3.34274 0.857594 0
M  V30 3378 C 302.366 4.31986 0.0351536 0
M  V30 3379 C 301.501 5.22605 0.951724 0
M  V30 3380 C 300.54 6.11976 0.123253 0
M  V30 3381 N 299.677 6.9502 0.99459 0
M  V30 3382 H 304.517 2.86074 -0.834596 0
M  V30 3383 H 302.054 1.40879 -0.42326 0
M  V30 3384 H 304.012 3.92879 1.40364 0
M  V30 3385 H 302.642 2.8043 1.59871 0
M  V30 3386 H 301.694 3.7518 -0.628052 0
M  V30 3387 H 303.006 4.95101 -0.606347 0
M  V30 3388 H 302.16 5.86131 1.56638 0
M  V30 3389 H 300.899 4.59759 1.62705 0
M  V30 3390 H 299.904 5.47482 -0.50435 0
M  V30 3391 H 301.129 6.76881 -0.548539 0
M  V30 3392 H 299.075 6.34764 1.6556 0
M  V30 3393 H 298.992 7.54892 0.40908 0
M  V30 3394 H 300.26 7.62997 1.59549 0
M  V30 3395 N 304.489 0.459591 1.5075 0
M  V30 3396 C 305.422 -0.386257 2.24907 0
M  V30 3397 C 306.4 -1.006 1.27744 0
M  V30 3398 O 307.584 -1.04416 1.56938 0
M  V30 3399 C 304.711 -1.54021 3.01654 0
M  V30 3400 C 303.757 -1.03898 4.13651 0
M  V30 3401 S 304.59 0.0370501 5.35487 0
M  V30 3402 C 305.746 -1.12105 6.15779 0
M  V30 3403 H 305.979 0.243272 2.96303 0
M  V30 3404 H 303.512 0.244339 1.52454 0
M  V30 3405 H 305.47 -2.20163 3.46466 0
M  V30 3406 H 304.131 -2.14121 2.29806 0
M  V30 3407 H 303.324 -1.90254 4.66711 0
M  V30 3408 H 302.926 -0.45545 3.71216 0
M  V30 3409 H 305.218 -2.03501 6.46215 0
M  V30 3410 H 306.161 -0.62995 7.05292 0
M  V30 3411 H 306.569 -1.36967 5.47631 0
M  V30 3412 N 305.967 -1.56429 0.191757 0
M  V30 3413 C 306.897 -2.21937 -0.725696 0
M  V30 3414 C 307.878 -1.1814 -1.2238 0
M  V30 3415 O 309.063 -1.46636 -1.27325 0
M  V30 3416 C 306.193 -2.87611 -1.94672 0
M  V30 3417 C 305.147 -3.97623 -1.58366 0
M  V30 3418 C 304.473 -4.50446 -2.88102 0
M  V30 3419 C 305.773 -5.16197 -0.796133 0
M  V30 3420 H 307.467 -2.98861 -0.179606 0
M  V30 3421 H 305.013 -1.43749 -0.0849464 0
M  V30 3422 H 306.966 -3.3212 -2.59373 0
M  V30 3423 H 305.69 -2.08087 -2.51728 0
M  V30 3424 H 304.349 -3.53801 -0.960247 0
M  V30 3425 H 303.997 -3.67688 -3.43241 0
M  V30 3426 H 303.697 -5.24675 -2.64556 0
M  V30 3427 H 305.221 -4.97654 -3.53798 0
M  V30 3428 H 306.635 -5.57271 -1.34618 0
M  V30 3429 H 305.032 -5.96471 -0.658928 0
M  V30 3430 H 306.102 -4.84473 0.203478 0
M  V30 3431 N 307.445 0.0818655 -1.57387 0
M  V30 3432 C 308.673 0.796108 -1.9097 0
M  V30 3433 C 309.088 1.71626 -0.786757 0
M  V30 3434 O 308.445 1.80908 0.240513 0
M  V30 3435 C 308.496 1.59829 -3.24248 0
M  V30 3436 O 308.217 0.715131 -4.32224 0
M  V30 3437 C 309.718 2.41442 -3.7178 0
M  V30 3438 H 306.938 0.22691 -0.631469 0
M  V30 3439 H 309.482 0.0551439 -2.04426 0
M  V30 3440 H 307.637 2.29163 -3.12351 0
M  V30 3441 H 308.051 1.27205 -5.08841 0
M  V30 3442 H 309.525 2.932 -4.67694 0
M  V30 3443 H 310.002 3.2051 -3.00283 0
M  V30 3444 H 310.608 1.77283 -3.86589 0
M  V30 3445 N 308.923 1.53595 0.353017 0
M  V30 3446 C 309.855 1.77219 1.45348 0
M  V30 3447 C 310.868 0.65324 1.49119 0
M  V30 3448 O 312.057 0.929775 1.52373 0
M  V30 3449 C 309.157 1.84841 2.84055 0
M  V30 3450 C 308.33 3.14649 3.03833 0
M  V30 3451 C 307.389 3.13351 4.22727 0
M  V30 3452 O 306.415 3.87107 4.17297 0
M  V30 3453 N 307.617 2.35052 5.30783 0
M  V30 3454 H 310.382 2.72178 1.25457 0
M  V30 3455 H 307.943 1.52528 0.542833 0
M  V30 3456 H 309.935 1.81435 3.61751 0
M  V30 3457 H 308.505 0.971114 2.97133 0
M  V30 3458 H 307.725 3.31256 2.13689 0
M  V30 3459 H 309.013 4.00411 3.13925 0
M  V30 3460 H 308.411 1.74663 5.38061 0
M  V30 3461 H 306.968 2.37453 6.07009 0
M  V30 3462 N 310.401 -0.613514 1.45168 0
M  V30 3463 C 311.817 -0.933629 1.29443 0
M  V30 3464 C 312.017 -2.00028 0.243101 0
M  V30 3465 O 311.073 -2.49848 -0.364992 0
M  V30 3466 C 312.386 -1.38018 2.67155 0
M  V30 3467 C 313.934 -1.49471 2.75004 0
M  V30 3468 C 314.409 -1.97503 4.13227 0
M  V30 3469 N 315.9 -2.04746 4.15491 0
M  V30 3470 C 316.635 -2.43121 5.19307 0
M  V30 3471 N 316.131 -2.80506 6.33473 0
M  V30 3472 N 317.924 -2.43408 5.06664 0
M  V30 3473 H 310.075 0.0916097 2.12202 0
M  V30 3474 H 312.338 -0.0216655 0.947752 0
M  V30 3475 H 312.044 -0.670625 3.45247 0
M  V30 3476 H 311.918 -2.34784 2.95222 0
M  V30 3477 H 314.305 -2.19519 1.9722 0
M  V30 3478 H 314.386 -0.510342 2.50657 0
M  V30 3479 H 314.03 -1.28045 4.91495 0
M  V30 3480 H 313.96 -2.96843 4.34962 0
M  V30 3481 H 316.451 -1.78468 3.33103 0
M  V30 3482 H 316.764 -3.08652 7.08487 0
M  V30 3483 H 315.109 -2.78216 6.36884 0
M  V30 3484 H 318.3 -2.13604 4.16523 0
M  V30 3485 H 318.473 -2.72989 5.87691 0
M  V30 3486 N 311.879 -1.3236 -0.855495 0
M  V30 3487 C 313.125 -1.23054 -1.612 0
M  V30 3488 C 313.458 0.207404 -1.93089 0
M  V30 3489 O 312.733 1.14432 -1.57275 0
M  V30 3490 C 313.016 -2.08937 -2.93287 0
M  V30 3491 C 312.869 -3.61105 -2.68185 0
M  V30 3492 C 314.188 -1.94986 -3.94549 0
M  V30 3493 H 311.307 -0.448364 -0.584926 0
M  V30 3494 H 313.949 -1.62297 -0.987917 0
M  V30 3495 H 312.099 -1.75599 -3.46551 0
M  V30 3496 H 313.771 -4.04652 -2.21483 0
M  V30 3497 H 312.014 -3.83813 -2.02164 0
M  V30 3498 H 312.685 -4.16522 -3.62234 0
M  V30 3499 H 315.161 -2.24189 -3.5054 0
M  V30 3500 H 314.037 -2.57356 -4.84829 0
M  V30 3501 H 314.298 -0.917263 -4.3248 0
M  V30 3502 N 313.357 1.07166 -1.15556 0
M  V30 3503 C 314.267 2.17947 -0.868116 0
M  V30 3504 C 315.283 1.73297 0.156297 0
M  V30 3505 O 316.459 2.01392 -0.0182327 0
M  V30 3506 C 313.524 3.44789 -0.36355 0
M  V30 3507 C 312.585 4.03996 -1.45209 0
M  V30 3508 C 311.818 5.24783 -0.971508 0
M  V30 3509 O 312.041 5.70109 0.182194 0
M  V30 3510 O 310.975 5.75715 -1.75603 0
M  V30 3511 H 314.801 2.4503 -1.79427 0
M  V30 3512 H 312.386 1.16539 -0.934824 0
M  V30 3513 H 314.268 4.21307 -0.0887113 0
M  V30 3514 H 312.943 3.19253 0.534708 0
M  V30 3515 H 311.85 3.29009 -1.78056 0
M  V30 3516 H 313.183 4.33808 -2.32533 0
M  V30 3517 N 314.835 0.952656 1.25548 0
M  V30 3518 C 316.084 0.602053 1.92505 0
M  V30 3519 C 316.397 -0.864663 1.75451 0
M  V30 3520 O 317.603 -1.32514 2.36965 0
M  V30 3521 C 316.059 1.02607 3.44963 0
M  V30 3522 C 315.667 2.51519 3.70732 0
M  V30 3523 C 317.411 0.747905 4.1786 0
M  V30 3524 C 315.318 2.87732 5.16686 0
M  V30 3525 H 314.248 0.22146 0.720744 0
M  V30 3526 H 316.899 1.15684 1.42441 0
M  V30 3527 H 315.281 0.399712 3.93978 0
M  V30 3528 H 316.455 3.19157 3.32378 0
M  V30 3529 H 314.77 2.76786 3.11092 0
M  V30 3530 H 317.367 0.994647 5.25367 0
M  V30 3531 H 317.71 -0.315629 4.15102 0
M  V30 3532 H 318.243 1.33452 3.74747 0
M  V30 3533 H 314.982 3.93095 5.24554 0
M  V30 3534 H 314.502 2.24765 5.56094 0
M  V30 3535 H 316.181 2.76817 5.84792 0
M  V30 3536 N 316.313 -1.40141 0.720998 0
M  V30 3537 C 317.59 -1.94677 0.189757 0
M  V30 3538 C 317.97 -1.65879 -1.30566 0
M  V30 3539 O 317.318 -0.979391 -2.06447 0
M  V30 3540 C 317.528 -3.45279 0.508304 0
M  V30 3541 C 318.876 -4.22209 0.449934 0
M  V30 3542 O 319.9 -3.53413 0.444677 0
M  V30 3543 O 318.759 -5.44788 0.432189 0
M  V30 3544 H 315.853 -0.826459 0.0299026 0
M  V30 3545 H 318.399 -1.49719 0.7989 0
M  V30 3546 H 317.171 -3.59619 1.54239 0
M  V30 3547 H 316.794 -3.97386 -0.130525 0
M  V30 3548 N 317.792 -0.46758 -1.50504 0
M  V30 3549 C 319.208 -0.121533 -1.59137 0
M  V30 3550 C 319.408 1.3717 -1.47603 0
M  V30 3551 O 318.464 2.14464 -1.33272 0
M  V30 3552 C 319.777 -0.6686 -2.93173 0
M  V30 3553 C 321.325 -0.631716 -3.06559 0
M  V30 3554 C 321.8 -1.15627 -4.43164 0
M  V30 3555 N 323.291 -1.11553 -4.49567 0
M  V30 3556 C 324.026 -1.49195 -5.5365 0
M  V30 3557 N 323.522 -1.94269 -6.65005 0
M  V30 3558 N 325.315 -1.4082 -5.44175 0
M  V30 3559 H 317.466 -1.4388 -1.56245 0
M  V30 3560 H 319.729 -0.594784 -0.738198 0
M  V30 3561 H 319.435 -1.71453 -3.07078 0
M  V30 3562 H 319.309 -0.11021 -3.77039 0
M  V30 3563 H 321.696 0.405297 -2.92304 0
M  V30 3564 H 321.777 -1.22687 -2.24458 0
M  V30 3565 H 321.421 -2.1919 -4.58168 0
M  V30 3566 H 321.351 -0.537365 -5.23851 0
M  V30 3567 H 323.842 -0.784895 -3.69659 0
M  V30 3568 H 324.155 -2.21148 -7.40482 0
M  V30 3569 H 322.5 -1.98219 -6.66134 0
M  V30 3570 H 325.691 -1.0545 -4.56068 0
M  V30 3571 H 325.864 -1.70481 -6.25172 0
M  V30 3572 N 319.27 1.56325 -0.20005 0
M  V30 3573 C 320.498 2.02105 0.442874 0
M  V30 3574 C 320.913 1.08014 1.5485 0
M  V30 3575 O 320.27 0.0858797 1.82298 0
M  V30 3576 C 320.321 3.47549 0.994583 0
M  V30 3577 O 320.042 4.38049 -0.0669322 0
M  V30 3578 C 321.543 4.0887 1.7129 0
M  V30 3579 H 318.763 0.661807 0.110691 0
M  V30 3580 H 321.307 2.02134 -0.310207 0
M  V30 3581 H 319.462 3.48204 1.69803 0
M  V30 3582 H 319.876 5.23368 0.344462 0
M  V30 3583 H 321.35 5.12475 2.05118 0
M  V30 3584 H 321.827 3.52615 2.61838 0
M  V30 3585 H 322.433 4.12002 1.05518 0
M  V30 3586 N 320.748 -0.0735177 1.57428 0
M  V30 3587 C 321.995 -0.772999 1.87166 0
M  V30 3588 C 322.323 -1.77665 0.791551 0
M  V30 3589 O 321.578 -1.94541 -0.212636 0
M  V30 3590 C 321.877 -1.51799 3.23561 0
M  V30 3591 C 321.543 -0.654484 4.46125 0
M  V30 3592 C 320.205 -0.416511 4.79394 0
M  V30 3593 C 322.557 -0.0555862 5.2117 0
M  V30 3594 C 319.885 0.429869 5.85123 0
M  V30 3595 C 322.237 0.778239 6.27795 0
M  V30 3596 C 320.901 1.0261 6.59566 0
M  V30 3597 H 320.171 -0.282861 0.684888 0
M  V30 3598 H 322.818 -0.0338272 1.9147 0
M  V30 3599 H 321.123 -2.32932 3.1504 0
M  V30 3600 H 322.82 -2.06397 3.43804 0
M  V30 3601 H 319.41 -0.850091 4.20085 0
M  V30 3602 H 323.594 -0.226558 4.95783 0
M  V30 3603 H 318.85 0.630665 6.08139 0
M  V30 3604 H 323.024 1.24906 6.85107 0
M  V30 3605 H 320.651 1.68371 7.4132 0
M  V30 3606 N 322.226 -1.5378 -0.344866 0
M  V30 3607 C 323.189 -1.80981 -1.40637 0
M  V30 3608 C 324.189 -0.680816 -1.45676 0
M  V30 3609 O 325.379 -0.949095 -1.46075 0
M  V30 3610 C 322.511 -1.95063 -2.79577 0
M  V30 3611 H 323.704 -2.75803 -1.17783 0
M  V30 3612 H 321.257 -1.45173 -0.579181 0
M  V30 3613 H 321.992 -1.02379 -3.07716 0
M  V30 3614 H 321.777 -2.77198 -2.77315 0
M  V30 3615 H 323.267 -2.17629 -3.56409 0
M  V30 3616 N 323.704 0.605807 -1.45491 0
M  V30 3617 C 324.614 1.74466 -1.56839 0
M  V30 3618 C 325.63 1.68006 -0.452772 0
M  V30 3619 O 326.806 1.8833 -0.713708 0
M  V30 3620 C 323.871 3.10931 -1.53371 0
M  V30 3621 C 322.932 3.28832 -2.75986 0
M  V30 3622 C 322.165 4.58787 -2.72673 0
M  V30 3623 O 322.388 5.4122 -1.80102 0
M  V30 3624 O 321.322 4.79438 -3.63899 0
M  V30 3625 H 325.148 1.67843 -2.53106 0
M  V30 3626 H 322.733 0.770108 -1.28022 0
M  V30 3627 H 324.615 3.92233 -1.54051 0
M  V30 3628 H 323.29 3.18042 -0.602572 0
M  V30 3629 H 322.197 2.47112 -2.80867 0
M  V30 3630 H 323.53 3.26599 -3.68231 0
M  V30 3631 N 325.182 1.32811 0.848464 0
M  V30 3632 C 326.145 1.22194 1.9391 0
M  V30 3633 C 327.145 0.143404 1.60159 0
M  V30 3634 O 328.335 0.394253 1.6968 0
M  V30 3635 C 325.467 0.88067 3.29328 0
M  V30 3636 H 326.66 2.19127 2.04752 0
M  V30 3637 H 324.213 1.16731 1.0394 0
M  V30 3638 H 324.948 -0.0865776 3.24184 0
M  V30 3639 H 324.733 1.66052 3.55203 0
M  V30 3640 H 326.223 0.830871 4.09251 0
M  V30 3641 N 326.66 -1.06551 1.16123 0
M  V30 3642 C 327.623 -2.12132 0.867906 0
M  V30 3643 C 328.623 -1.60224 -0.135944 0
M  V30 3644 O 329.813 -1.73943 0.0946422 0
M  V30 3645 C 326.945 -3.396 0.297419 0
M  V30 3646 H 328.138 -2.39586 1.80385 0
M  V30 3647 H 325.691 -1.22574 0.969812 0
M  V30 3648 H 326.426 -3.17794 -0.64633 0
M  V30 3649 H 326.211 -3.78581 1.02073 0
M  V30 3650 H 327.701 -4.17455 0.110052 0
M  V30 3651 N 328.138 -0.959301 -1.25041 0
M  V30 3652 C 329.386 -0.615393 -1.92503 0
M  V30 3653 C 329.707 0.850969 -1.75452 0
M  V30 3654 O 328.977 1.60658 -1.12098 0
M  V30 3655 H 327.557 -0.224613 -0.712431 0
M  V30 3656 H 330.219 -1.21855 -1.5211 0
M  V30 3657 H 329.315 -0.848738 -3.00338 0
M  V30 3658 N 329.616 1.39756 -0.72842 0
M  V30 3659 C 330.841 2.05472 -0.282159 0
M  V30 3660 C 331.266 1.54549 1.07221 0
M  V30 3661 O 330.624 0.686372 1.67805 0
M  V30 3662 C 330.672 3.59462 -0.286264 0
M  V30 3663 O 329.776 4.05918 0.728298 0
M  V30 3664 H 329.117 0.651226 -0.129618 0
M  V30 3665 H 331.647 1.78915 -0.992499 0
M  V30 3666 H 331.657 4.07798 -0.128373 0
M  V30 3667 H 330.332 3.95889 -1.27456 0
M  V30 3668 H 328.909 3.69012 0.537081 0
M  V30 3669 N 331.094 0.475555 1.50254 0
M  V30 3670 C 332.342 -0.077738 2.0195 0
M  V30 3671 C 332.663 -1.39813 1.35931 0
M  V30 3672 O 331.933 -1.89249 0.506123 0
M  V30 3673 H 330.513 -0.031719 0.746326 0
M  V30 3674 H 333.175 0.626995 1.84539 0
M  V30 3675 H 332.271 -0.225995 3.11281 0
M  V30 3676 N 332.573 -1.56217 0.208337 0
M  V30 3677 C 333.483 -2.23316 -0.718836 0
M  V30 3678 C 334.499 -1.23648 -1.22422 0
M  V30 3679 O 335.675 -1.56423 -1.26861 0
M  V30 3680 C 332.74 -2.88968 -1.91568 0
M  V30 3681 C 331.801 -4.03943 -1.45357 0
M  V30 3682 C 331.034 -4.66455 -2.59337 0
M  V30 3683 O 331.257 -4.27919 -3.77149 0
M  V30 3684 O 330.191 -5.55686 -2.31293 0
M  V30 3685 H 334.017 -3.03182 -0.177315 0
M  V30 3686 H 331.602 -1.49384 -0.0215402 0
M  V30 3687 H 333.484 -3.30455 -2.61491 0
M  V30 3688 H 332.159 -2.12071 -2.44556 0
M  V30 3689 H 331.066 -3.67052 -0.722746 0
M  V30 3690 H 332.399 -4.82543 -0.970219 0
M  V30 3691 N 334.051 0.0651679 -1.57465 0
M  V30 3692 C 335.279 0.775808 -1.91804 0
M  V30 3693 C 335.694 1.70782 -0.804916 0
M  V30 3694 O 335.051 1.81153 0.221311 0
M  V30 3695 C 335.102 1.56381 -3.25925 0
M  V30 3696 O 334.823 0.669248 -4.32958 0
M  V30 3697 C 336.324 2.37485 -3.7432 0
M  V30 3698 H 333.544 0.2202 -0.63384 0
M  V30 3699 H 336.088 0.0334587 -2.04473 0
M  V30 3700 H 334.243 2.25837 -3.14764 0
M  V30 3701 H 334.657 1.21801 -5.10162 0
M  V30 3702 H 336.131 2.88223 -4.70778 0
M  V30 3703 H 336.608 3.17307 -3.03666 0
M  V30 3704 H 337.214 1.73173 -3.88447 0
M  V30 3705 N 335.529 1.53961 0.336706 0
M  V30 3706 C 336.459 1.85417 1.41925 0
M  V30 3707 C 337.44 0.709856 1.5458 0
M  V30 3708 O 338.625 0.962396 1.68676 0
M  V30 3709 C 335.755 2.06985 2.78881 0
M  V30 3710 C 334.709 3.22813 2.81026 0
M  V30 3711 C 334.035 3.29727 4.20932 0
M  V30 3712 C 335.335 4.60767 2.45949 0
M  V30 3713 H 337.029 2.76079 1.15848 0
M  V30 3714 H 334.575 1.32839 0.555859 0
M  V30 3715 H 336.528 2.27575 3.54665 0
M  V30 3716 H 335.252 1.13061 3.06406 0
M  V30 3717 H 333.911 3.0209 2.07695 0
M  V30 3718 H 333.559 2.33385 4.45579 0
M  V30 3719 H 333.259 4.07566 4.23277 0
M  V30 3720 H 334.783 3.52536 4.98549 0
M  V30 3721 H 336.197 4.81325 3.11446 0
M  V30 3722 H 334.594 5.4106 2.59566 0
M  V30 3723 H 335.664 4.6391 1.41122 0
M  V30 3724 N 337.007 -0.598083 1.45811 0
M  V30 3725 C 338.232 -1.3881 1.54099 0
M  V30 3726 C 338.657 -1.8726 0.177578 0
M  V30 3727 O 338.015 -1.6069 -0.839541 0
M  V30 3728 C 338.063 -2.56217 2.53743 0
M  V30 3729 O 337.167 -3.5716 2.06182 0
M  V30 3730 H 336.508 -0.414024 0.519115 0
M  V30 3731 H 339.038 -0.726971 1.91249 0
M  V30 3732 H 339.048 -3.03337 2.72856 0
M  V30 3733 H 337.723 -2.20303 3.5276 0
M  V30 3734 H 336.3 -3.16624 1.96987 0
M  V30 3735 N 338.485 -1.33259 -0.841409 0
M  V30 3736 C 339.731 -1.24757 -1.59886 0
M  V30 3737 C 340.064 0.186913 -1.93298 0
M  V30 3738 O 339.339 1.12757 -1.5848 0
M  V30 3739 C 339.622 -2.12036 -2.91055 0
M  V30 3740 C 339.475 -3.63929 -2.6434 0
M  V30 3741 C 340.794 -1.9916 -3.92458 0
M  V30 3742 H 337.913 -0.454542 -0.580138 0
M  V30 3743 H 340.555 -1.63335 -0.970647 0
M  V30 3744 H 338.705 -1.79265 -3.44669 0
M  V30 3745 H 340.377 -4.06978 -2.17178 0
M  V30 3746 H 338.62 -3.85935 -1.98082 0
M  V30 3747 H 339.291 -4.20341 -3.57796 0
M  V30 3748 H 341.767 -2.27895 -3.48143 0
M  V30 3749 H 340.643 -2.62484 -4.82072 0
M  V30 3750 H 340.904 -0.963082 -4.31482 0
M  V30 3751 N 339.963 1.05934 -1.16686 0
M  V30 3752 C 341.24 1.75643 -0.860747 0
M  V30 3753 C 341.62 2.01144 0.640641 0
M  V30 3754 O 340.968 1.64147 1.58959 0
M  V30 3755 C 341.178 3.05493 -1.68745 0
M  V30 3756 C 342.526 3.79581 -1.90271 0
M  V30 3757 O 343.55 3.15344 -1.65641 0
M  V30 3758 O 342.409 4.9499 -2.31618 0
M  V30 3759 H 339.503 0.763426 -0.317977 0
M  V30 3760 H 342.049 1.1217 -1.27342 0
M  V30 3761 H 340.821 2.8264 -2.70611 0
M  V30 3762 H 340.444 3.76702 -1.27206 0
M  V30 3763 N 341.441 0.965919 1.2453 0
M  V30 3764 C 342.373 0.452465 2.2469 0
M  V30 3765 C 343.386 -0.437821 1.56802 0
M  V30 3766 O 344.575 -0.244283 1.76821 0
M  V30 3767 C 341.675 -0.366258 3.36915 0
M  V30 3768 C 340.848 0.513701 4.34373 0
M  V30 3769 C 339.907 -0.248716 5.25612 0
M  V30 3770 O 338.933 0.356745 5.68081 0
M  V30 3771 N 340.135 -1.53877 5.59734 0
M  V30 3772 H 342.9 1.31361 2.69378 0
M  V30 3773 H 340.461 0.837541 1.38553 0
M  V30 3774 H 342.453 -0.884297 3.94921 0
M  V30 3775 H 341.023 -1.12832 2.91526 0
M  V30 3776 H 340.243 1.21273 3.75082 0
M  V30 3777 H 341.531 1.11391 4.96457 0
M  V30 3778 H 340.929 -2.05243 5.27154 0
M  V30 3779 H 339.486 -2.00254 6.20275 0
M  V30 3780 N 342.919 -1.39368 0.735821 0
M  V30 3781 C 343.849 -2.33234 0.111506 0
M  V30 3782 C 344.83 -1.53954 -0.723334 0
M  V30 3783 O 346.015 -1.82344 -0.668147 0
M  V30 3784 C 343.145 -3.38057 -0.795917 0
M  V30 3785 C 342.099 -4.2795 -0.065172 0
M  V30 3786 C 341.425 -5.23479 -1.08967 0
M  V30 3787 C 342.725 -5.10741 1.09273 0
M  V30 3788 H 344.419 -2.85692 0.895571 0
M  V30 3789 H 341.965 -1.37364 0.432109 0
M  V30 3790 H 343.918 -4.02675 -1.24221 0
M  V30 3791 H 342.642 -2.8404 -1.61211 0
M  V30 3792 H 341.301 -3.64813 0.361511 0
M  V30 3793 H 340.949 -4.65758 -1.89944 0
M  V30 3794 H 340.649 -5.84472 -0.605489 0
M  V30 3795 H 342.173 -5.90974 -1.53565 0
M  V30 3796 H 343.587 -5.68699 0.724841 0
M  V30 3797 H 341.984 -5.8088 1.50659 0
M  V30 3798 H 343.054 -4.45525 1.91404 0
M  V30 3799 N 344.397 -0.483516 -1.5 0
M  V30 3800 C 345.643 0.0672592 -2.02688 0
M  V30 3801 C 345.976 1.38247 -1.36387 0
M  V30 3802 O 345.251 1.88131 -0.493675 0
M  V30 3803 C 345.534 0.238109 -3.59312 0
M  V30 3804 C 345.387 -1.099 -4.36168 0
M  V30 3805 C 346.706 0.986916 -4.28892 0
M  V30 3806 H 343.825 0.0229696 -0.736642 0
M  V30 3807 H 346.467 -0.631527 -1.79197 0
M  V30 3808 H 344.617 0.8333 -3.79458 0
M  V30 3809 H 346.289 -1.73172 -4.27562 0
M  V30 3810 H 344.532 -1.69261 -3.99416 0
M  V30 3811 H 345.203 -0.932954 -5.44059 0
M  V30 3812 H 347.679 0.482302 -4.13295 0
M  V30 3813 H 346.555 1.07527 -5.38265 0
M  V30 3814 H 346.816 2.0265 -3.92919 0
M  V30 3815 N 345.875 1.56104 -0.216619 0
M  V30 3816 C 347.103 2.02563 0.421413 0
M  V30 3817 C 347.518 1.0965 1.53695 0
M  V30 3818 O 346.875 0.10521 1.82196 0
M  V30 3819 C 346.926 3.48584 0.957665 0
M  V30 3820 O 346.647 4.37953 -0.113389 0
M  V30 3821 C 348.148 4.10664 1.66943 0
M  V30 3822 H 345.368 0.662944 0.103665 0
M  V30 3823 H 347.912 2.01793 -0.331629 0
M  V30 3824 H 346.067 3.49985 1.661 0
M  V30 3825 H 346.481 5.23704 0.288932 0
M  V30 3826 H 347.955 5.14622 1.99671 0
M  V30 3827 H 348.432 3.55373 2.58083 0
M  V30 3828 H 349.038 4.13098 1.01142 0
M  V30 3829 N 347.353 -0.0568162 1.57498 0
M  V30 3830 C 348.6 -0.753104 1.87975 0
M  V30 3831 C 348.928 -1.76815 0.81035 0
M  V30 3832 O 348.183 -1.94756 -0.19199 0
M  V30 3833 C 348.482 -1.48359 3.25153 0
M  V30 3834 C 348.148 -0.60713 4.46794 0
M  V30 3835 C 346.81 -0.365642 4.79809 0
M  V30 3836 C 349.162 -0.000305978 5.212 0
M  V30 3837 C 346.49 0.491905 5.84634 0
M  V30 3838 C 348.842 0.844781 6.26934 0
M  V30 3839 C 347.506 1.096 6.58441 0
M  V30 3840 H 346.776 -0.27558 0.687849 0
M  V30 3841 H 349.423 -0.0135173 1.91495 0
M  V30 3842 H 347.728 -2.29577 3.17492 0
M  V30 3843 H 349.425 -2.02739 3.45974 0
M  V30 3844 H 346.015 -0.805487 4.20963 0
M  V30 3845 H 350.199 -0.173961 4.95995 0
M  V30 3846 H 345.455 0.695131 6.07436 0
M  V30 3847 H 349.629 1.32165 6.83744 0
M  V30 3848 H 347.256 1.76224 7.39492 0
M  V30 3849 N 348.832 -1.54138 -0.328536 0
M  V30 3850 C 349.762 -1.86167 -1.40939 0
M  V30 3851 C 350.743 -0.718044 -1.54202 0
M  V30 3852 O 351.928 -0.971328 -1.68163 0
M  V30 3853 C 349.058 -2.08461 -2.77779 0
M  V30 3854 C 348.012 -3.24299 -2.7931 0
M  V30 3855 C 347.338 -3.31955 -4.19178 0
M  V30 3856 C 348.638 -4.62065 -2.43502 0
M  V30 3857 H 350.332 -2.76689 -1.14383 0
M  V30 3858 H 347.878 -1.33132 -0.548806 0
M  V30 3859 H 349.831 -2.29453 -3.53454 0
M  V30 3860 H 348.555 -1.14684 -3.05802 0
M  V30 3861 H 347.214 -3.03187 -2.0609 0
M  V30 3862 H 346.862 -2.35745 -4.44335 0
M  V30 3863 H 346.562 -4.09805 -4.2111 0
M  V30 3864 H 348.086 -3.55175 -4.96672 0
M  V30 3865 H 349.5 -4.8297 -3.08889 0
M  V30 3866 H 347.897 -5.42429 -2.56693 0
M  V30 3867 H 348.967 -4.64652 -1.38659 0
M  V30 3868 N 350.31 0.590341 -1.46126 0
M  V30 3869 C 351.242 1.71427 -1.52136 0
M  V30 3870 C 352.255 1.57542 -0.41042 0
M  V30 3871 O 353.444 1.65106 -0.678389 0
M  V30 3872 C 350.544 3.09605 -1.37834 0
M  V30 3873 C 349.717 3.49566 -2.62912 0
M  V30 3874 C 348.776 4.66773 -2.42918 0
M  V30 3875 O 347.802 4.73019 -3.1661 0
M  V30 3876 N 349.004 5.61161 -1.4859 0
M  V30 3877 H 351.769 1.66728 -2.49042 0
M  V30 3878 H 349.33 0.776113 -1.42085 0
M  V30 3879 H 351.322 3.85796 -1.22243 0
M  V30 3880 H 349.892 3.08714 -0.491393 0
M  V30 3881 H 349.112 2.63158 -2.93499 0
M  V30 3882 H 350.4 3.73028 -3.46017 0
M  V30 3883 H 349.798 5.58844 -0.87808 0
M  V30 3884 H 348.355 6.36814 -1.38965 0
M  V30 3885 N 351.788 1.33704 0.83433 0
M  V30 3886 C 352.738 1.20899 1.93306 0
M  V30 3887 C 353.722 0.110783 1.60518 0
M  V30 3888 O 354.914 0.339331 1.73717 0
M  V30 3889 C 352.043 0.955018 3.29749 0
M  V30 3890 C 351.129 2.09587 3.68692 0
M  V30 3891 N 351.52 3.34621 3.79292 0
M  V30 3892 C 349.818 2.00358 3.98463 0
M  V30 3893 C 350.519 4.09472 4.13167 0
M  V30 3894 N 349.495 3.37954 4.25779 0
M  V30 3895 H 353.297 2.15665 1.99664 0
M  V30 3896 H 350.811 1.25777 1.02732 0
M  V30 3897 H 352.808 0.844208 4.08263 0
M  V30 3898 H 351.468 0.0159317 3.24696 0
M  V30 3899 H 352.479 3.69313 3.63082 0
M  V30 3900 H 349.156 1.14137 4.01596 0
M  V30 3901 H 350.546 5.17391 4.28668 0
M  V30 3902 N 353.266 -1.05314 1.17247 0
M  V30 3903 C 354.198 -2.13023 0.845812 0
M  V30 3904 C 355.211 -1.62096 -0.151246 0
M  V30 3905 O 356.4 -1.78343 0.0748818 0
M  V30 3906 C 353.5 -3.38047 0.240292 0
M  V30 3907 C 352.673 -4.18255 1.27991 0
M  V30 3908 C 351.732 -5.21625 0.692375 0
M  V30 3909 O 350.758 -5.52619 1.36385 0
M  V30 3910 N 351.96 -5.78201 -0.516178 0
M  V30 3911 H 354.725 -2.41642 1.77283 0
M  V30 3912 H 352.286 -1.21401 1.07115 0
M  V30 3913 H 354.278 -4.04359 -0.16603 0
M  V30 3914 H 352.848 -3.06972 -0.590487 0
M  V30 3915 H 352.068 -3.47451 1.86203 0
M  V30 3916 H 353.356 -4.68643 1.98119 0
M  V30 3917 H 352.754 -5.55301 -1.07969 0
M  V30 3918 H 351.311 -6.4604 -0.86458 0
M  V30 3919 N 354.744 -0.972509 -1.24016 0
M  V30 3920 C 355.676 -0.464375 -2.24446 0
M  V30 3921 C 356.689 0.4295 -1.57032 0
M  V30 3922 O 357.878 0.234902 -1.76948 0
M  V30 3923 C 354.978 0.348385 -3.37105 0
M  V30 3924 C 354.151 -0.53673 -4.34094 0
M  V30 3925 C 353.21 0.220838 -5.25736 0
M  V30 3926 O 352.236 -0.386867 -5.67884 0
M  V30 3927 N 353.438 1.50907 -5.60542 0
M  V30 3928 H 356.203 -1.32788 -2.68677 0
M  V30 3929 H 353.764 -0.844877 -1.38107 0
M  V30 3930 H 355.756 0.863341 -3.95384 0
M  V30 3931 H 354.326 1.11285 -2.92121 0
M  V30 3932 H 353.546 -1.23261 -3.74433 0
M  V30 3933 H 354.834 -1.14022 -4.95859 0
M  V30 3934 H 354.232 2.02444 -5.28236 0
M  V30 3935 H 352.789 1.96962 -6.21329 0
M  V30 3936 N 356.222 1.38976 -0.743202 0
M  V30 3937 C 357.638 1.53984 -0.419664 0
M  V30 3938 C 357.838 1.70837 1.0685 0
M  V30 3939 O 356.894 1.7135 1.8546 0
M  V30 3940 C 358.207 2.75287 -1.20985 0
M  V30 3941 C 359.755 2.89129 -1.19889 0
M  V30 3942 C 360.23 4.13381 -1.97181 0
M  V30 3943 N 361.721 4.20437 -1.94389 0
M  V30 3944 C 362.456 5.15547 -2.50996 0
M  V30 3945 N 361.952 6.16395 -3.16274 0
M  V30 3946 N 363.745 5.07822 -2.40984 0
M  V30 3947 H 355.896 1.26285 -1.7078 0
M  V30 3948 H 358.159 0.612689 -0.723406 0
M  V30 3949 H 357.865 2.69204 -2.26323 0
M  V30 3950 H 357.739 3.68184 -0.819759 0
M  V30 3951 H 360.126 2.947 -0.153606 0
M  V30 3952 H 360.207 1.97272 -1.62841 0
M  V30 3953 H 359.851 4.08572 -3.01714 0
M  V30 3954 H 359.781 5.04298 -1.51629 0
M  V30 3955 H 362.272 3.48205 -1.46839 0
M  V30 3956 H 362.585 6.85443 -3.56915 0
M  V30 3957 H 360.93 6.16758 -3.20367 0
M  V30 3958 H 364.121 4.27973 -1.89622 0
M  V30 3959 H 364.294 5.81767 -2.85397 0
M  V30 3960 N 357.7 0.491464 1.49741 0
M  V30 3961 C 358.61 -0.296835 2.32715 0
M  V30 3962 C 359.626 -0.976536 1.44013 0
M  V30 3963 O 360.802 -0.960023 1.77047 0
M  V30 3964 C 357.867 -1.35288 3.19215 0
M  V30 3965 C 356.928 -0.687632 4.23757 0
M  V30 3966 C 356.161 -1.69336 5.06123 0
M  V30 3967 O 356.384 -2.92219 4.89861 0
M  V30 3968 O 355.318 -1.25394 5.88693 0
M  V30 3969 H 359.144 0.382048 3.01287 0
M  V30 3970 H 356.729 0.252953 1.47243 0
M  V30 3971 H 358.611 -1.96411 3.72828 0
M  V30 3972 H 357.286 -2.01487 2.53347 0
M  V30 3973 H 356.193 -0.0369159 3.74082 0
M  V30 3974 H 357.526 -0.0682566 4.92153 0
M  V30 3975 N 359.178 -1.55987 0.224894 0
M  V30 3976 C 360.088 -2.24066 -0.69511 0
M  V30 3977 C 361.104 -1.24939 -1.21104 0
M  V30 3978 O 362.28 -1.5776 -1.25195 0
M  V30 3979 C 359.345 -2.90983 -1.88493 0
M  V30 3980 C 358.406 -4.05462 -1.41064 0
M  V30 3981 C 357.639 -4.69179 -2.54375 0
M  V30 3982 O 357.862 -4.31895 -3.72589 0
M  V30 3983 O 356.796 -5.58108 -2.25386 0
M  V30 3984 H 360.622 -3.03353 -0.145149 0
M  V30 3985 H 358.207 -1.49399 -0.00569476 0
M  V30 3986 H 360.089 -3.33209 -2.57972 0
M  V30 3987 H 358.764 -2.14653 -2.42293 0
M  V30 3988 H 357.671 -3.67798 -0.683774 0
M  V30 3989 H 359.004 -4.83545 -0.918985 0
M  V30 3990 N 360.656 0.0484629 -1.57525 0
M  V30 3991 C 361.619 1.03956 -2.04269 0
M  V30 3992 C 362.619 1.30211 -0.943496 0
M  V30 3993 O 363.809 1.25539 -1.20771 0
M  V30 3994 C 360.941 2.37742 -2.44319 0
M  V30 3995 H 362.134 0.636182 -2.93075 0
M  V30 3996 H 359.687 0.294811 -1.53494 0
M  V30 3997 H 360.422 2.82866 -1.5861 0
M  V30 3998 H 360.207 2.20021 -3.24551 0
M  V30 3999 H 361.697 3.08936 -2.80978 0
M  V30 4000 N 362.134 1.5431 0.320358 0
M  V30 4001 C 363.097 1.83195 1.3774 0
M  V30 4002 C 364.097 0.703906 1.44575 0
M  V30 4003 O 365.287 0.972214 1.44546 0
M  V30 4004 C 362.419 1.99487 2.76438 0
M  V30 4005 H 363.612 2.77642 1.1338 0
M  V30 4006 H 361.165 1.46076 0.556012 0
M  V30 4007 H 361.9 1.07262 3.06048 0
M  V30 4008 H 361.685 2.81575 2.7287 0
M  V30 4009 H 363.175 2.23271 3.52902 0
M  V30 4010 N 363.613 -0.582584 1.46437 0
M  V30 4011 C 364.861 -1.33814 1.51453 0
M  V30 4012 C 365.182 -1.94277 0.167792 0
M  V30 4013 O 364.452 -1.78566 -0.805677 0
M  V30 4014 H 363.032 -0.496838 0.557818 0
M  V30 4015 H 365.694 -0.682281 1.82568 0
M  V30 4016 H 364.79 -2.14479 2.26728 0
M  V30 4017 N 365.091 -1.34144 -0.827227 0
M  V30 4018 C 366.502 -1.23557 -1.39966 0
M  V30 4019 C 366.853 0.140731 -1.95695 0
M  V30 4020 O 365.978 1.04087 -1.89723 0
M  V30 4021 C 366.573 -2.23708 -2.54441 0
M  V30 4022 C 365.132 -2.16924 -3.07605 0
M  V30 4023 C 364.279 -2.10549 -1.80456 0
M  V30 4024 H 367.23 -1.45573 -0.631991 0
M  V30 4025 H 367.251 -1.85157 -3.32411 0
M  V30 4026 H 366.763 -3.23866 -2.13851 0
M  V30 4027 H 364.864 -1.20107 -3.52711 0
M  V30 4028 H 364.977 -3.07988 -3.66988 0
M  V30 4029 H 363.341 -1.56203 -2.01178 0
M  V30 4030 H 364.124 -3.12535 -1.42046 0
M  V30 4031 N 366.569 1.04691 -1.17803 0
M  V30 4032 C 367.532 2.10724 -0.901545 0
M  V30 4033 C 368.532 1.6042 0.110437 0
M  V30 4034 O 369.722 1.7377 -0.122303 0
M  V30 4035 C 366.854 3.39084 -0.351409 0
M  V30 4036 H 368.047 2.36686 -1.84174 0
M  V30 4037 H 365.6 1.21015 -0.98919 0
M  V30 4038 H 366.335 3.18782 0.59569 0
M  V30 4039 H 366.12 3.76909 -1.08083 0
M  V30 4040 H 367.61 4.17227 -0.176451 0
M  V30 4041 N 368.047 0.979072 1.23499 0
M  V30 4042 C 368.977 0.537606 2.27227 0
M  V30 4043 C 369.958 -0.428539 1.64613 0
M  V30 4044 O 371.143 -0.322191 1.91509 0
M  V30 4045 C 368.273 -0.162052 3.46922 0
M  V30 4046 C 367.227 0.721242 4.21879 0
M  V30 4047 C 366.553 -0.110555 5.34586 0
M  V30 4048 C 367.853 2.01141 4.82016 0
M  V30 4049 H 369.547 1.40462 2.64406 0
M  V30 4050 H 367.093 0.67684 1.27102 0
M  V30 4051 H 369.046 -0.482192 4.18632 0
M  V30 4052 H 367.77 -1.06351 3.08799 0
M  V30 4053 H 366.429 1.02482 3.51984 0
M  V30 4054 H 366.077 -1.0125 4.92704 0
M  V30 4055 H 365.777 0.477325 5.85658 0
M  V30 4056 H 367.301 -0.425107 6.09118 0
M  V30 4057 H 368.715 1.75612 5.45741 0
M  V30 4058 H 367.112 2.54695 5.43369 0
M  V30 4059 H 368.182 2.69909 4.02836 0
M  V30 4060 N 369.525 -1.3858 0.750561 0
M  V30 4061 C 370.488 -2.28836 0.129152 0
M  V30 4062 C 371.488 -1.47045 -0.650714 0
M  V30 4063 O 372.678 -1.6753 -0.477428 0
M  V30 4064 C 369.81 -3.30751 -0.825622 0
M  V30 4065 H 371.003 -2.85294 0.924516 0
M  V30 4066 H 368.556 -1.47489 0.517376 0
M  V30 4067 H 369.291 -2.79378 -1.64677 0
M  V30 4068 H 369.076 -3.91177 -0.268852 0
M  V30 4069 H 370.566 -3.98249 -1.2565 0
M  V30 4070 N 371.003 -0.499398 -1.49478 0
M  V30 4071 C 371.933 0.269244 -2.31943 0
M  V30 4072 C 372.914 0.964054 -1.40143 0
M  V30 4073 O 374.099 0.955767 -1.69052 0
M  V30 4074 C 371.229 1.33504 -3.20615 0
M  V30 4075 C 370.183 0.760202 -4.21195 0
M  V30 4076 C 369.509 1.9264 -4.98792 0
M  V30 4077 C 370.809 -0.247661 -5.21712 0
M  V30 4078 H 372.503 -0.419082 -2.96452 0
M  V30 4079 H 370.049 -0.202988 -1.42562 0
M  V30 4080 H 372.002 1.88048 -3.77115 0
M  V30 4081 H 370.726 2.05253 -2.54045 0
M  V30 4082 H 369.385 0.23653 -3.65836 0
M  V30 4083 H 369.033 2.63154 -4.28671 0
M  V30 4084 H 368.733 1.54785 -5.66847 0
M  V30 4085 H 370.257 2.4762 -5.58137 0
M  V30 4086 H 371.671 0.209579 -5.72917 0
M  V30 4087 H 370.068 -0.541962 -5.97648 0
M  V30 4088 H 371.138 -1.16409 -4.7072 0
M  V30 4089 N 372.481 1.55866 -0.233164 0
M  V30 4090 C 373.706 2.03449 0.402906 0
M  V30 4091 C 374.131 1.11166 1.51736 0
M  V30 4092 O 373.489 0.101996 1.81013 0
M  V30 4093 C 373.537 3.49165 0.9009 0
M  V30 4094 O 372.641 3.60019 2.01147 0
M  V30 4095 H 371.982 0.657913 0.0897025 0
M  V30 4096 H 374.512 2.01493 -0.355201 0
M  V30 4097 H 374.522 3.89716 1.2077 0
M  V30 4098 H 373.197 4.15813 0.0852889 0
M  V30 4099 H 371.774 3.3136 1.71042 0
M  V30 4100 N 373.959 -0.0401083 1.57549 0
M  V30 4101 C 374.889 -1.04384 2.08869 0
M  V30 4102 C 375.87 -1.38407 0.988817 0
M  V30 4103 O 377.055 -1.47483 1.26342 0
M  V30 4104 C 374.185 -2.34808 2.55895 0
M  V30 4105 C 373.139 -2.15057 3.70047 0
M  V30 4106 C 372.465 -3.51145 4.03239 0
M  V30 4107 C 373.765 -1.54576 4.98902 0
M  V30 4108 H 375.459 -0.616666 2.92981 0
M  V30 4109 H 373.005 -0.295184 1.40942 0
M  V30 4110 H 374.958 -3.05346 2.90417 0
M  V30 4111 H 373.682 -2.79565 1.68853 0
M  V30 4112 H 372.341 -1.46954 3.35857 0
M  V30 4113 H 371.989 -3.93529 3.13279 0
M  V30 4114 H 371.689 -3.38758 4.80122 0
M  V30 4115 H 373.213 -4.23062 4.40285 0
M  V30 4116 H 374.627 -2.15017 5.31451 0
M  V30 4117 H 373.024 -1.52796 5.80322 0
M  V30 4118 H 374.094 -0.51039 4.82206 0
M  V30 4119 N 375.437 -1.54477 -0.31217 0
M  V30 4120 C 376.686 -1.72438 -1.04633 0
M  V30 4121 C 376.999 -0.511163 -1.88803 0
M  V30 4122 O 378.205 -0.572341 -2.65399 0
M  V30 4123 C 376.661 -3.05043 -1.9099 0
M  V30 4124 C 376.269 -4.33806 -1.11877 0
M  V30 4125 C 378.013 -3.32364 -2.64073 0
M  V30 4126 C 375.92 -5.57467 -1.97445 0
M  V30 4127 H 374.85 -0.642647 -0.394361 0
M  V30 4128 H 377.501 -1.80966 -0.303929 0
M  V30 4129 H 375.883 -2.90451 -2.69173 0
M  V30 4130 H 377.057 -4.59199 -0.383843 0
M  V30 4131 H 375.372 -4.13336 -0.504252 0
M  V30 4132 H 377.969 -4.21951 -3.28423 0
M  V30 4133 H 378.312 -2.50745 -3.32314 0
M  V30 4134 H 378.845 -3.47875 -1.92944 0
M  V30 4135 H 375.584 -6.41722 -1.33692 0
M  V30 4136 H 375.104 -5.36277 -2.6864 0
M  V30 4137 H 376.783 -5.94303 -2.5576 0
M  V30 4138 N 376.915 0.57481 -1.46744 0
M  V30 4139 C 377.825 1.711 -1.60505 0
M  V30 4140 C 378.841 1.67008 -0.488307 0
M  V30 4141 O 380.017 1.86774 -0.753495 0
M  V30 4142 C 377.082 3.07608 -1.59932 0
M  V30 4143 C 376.143 3.22904 -2.82898 0
M  V30 4144 C 375.376 4.529 -2.82343 0
M  V30 4145 O 375.599 5.37278 -1.91542 0
M  V30 4146 O 374.533 4.71611 -3.73987 0
M  V30 4147 H 378.359 1.62436 -2.56609 0
M  V30 4148 H 375.944 0.742779 -1.29627 0
M  V30 4149 H 377.826 3.88877 -1.62336 0
M  V30 4150 H 376.501 3.16692 -0.669898 0
M  V30 4151 H 375.408 2.41099 -2.86046 0
M  V30 4152 H 376.741 3.18715 -3.75076 0
M  V30 4153 N 378.394 1.34581 0.820102 0
M  V30 4154 C 379.81 1.14325 1.11364 0
M  V30 4155 C 380.01 -0.0533648 2.01429 0
M  V30 4156 O 379.066 -0.728044 2.41776 0
M  V30 4157 C 380.379 2.43983 1.75764 0
M  V30 4158 C 381.927 2.50065 1.88246 0
M  V30 4159 C 382.402 3.79732 2.56061 0
M  V30 4160 N 383.893 3.80908 2.63558 0
M  V30 4161 C 384.628 4.77961 3.16766 0
M  V30 4162 N 384.124 5.85397 3.70517 0
M  V30 4163 N 385.917 4.65413 3.15194 0
M  V30 4164 H 378.068 2.11246 0.221096 0
M  V30 4165 H 380.331 0.934289 0.160649 0
M  V30 4166 H 380.037 3.31651 1.1705 0
M  V30 4167 H 379.911 2.57531 2.75604 0
M  V30 4168 H 382.298 1.62834 2.46108 0
M  V30 4169 H 382.379 2.40442 0.873006 0
M  V30 4170 H 382.023 4.67354 1.98853 0
M  V30 4171 H 381.953 3.86639 3.57516 0
M  V30 4172 H 384.444 3.03274 2.25463 0
M  V30 4173 H 384.757 6.55463 4.09376 0
M  V30 4174 H 383.102 5.89107 3.68752 0
M  V30 4175 H 386.293 3.80627 2.72471 0
M  V30 4176 H 386.466 5.41216 3.56356 0
M  V30 4177 N 379.872 -1.04064 1.18357 0
M  V30 4178 C 381.102 -1.80654 1.00238 0
M  V30 4179 C 381.51 -1.83713 -0.452362 0
M  V30 4180 O 380.853 -1.27135 -1.32599 0
M  V30 4181 C 380.915 -3.27582 1.48088 0
M  V30 4182 C 380.579 -3.48184 2.96002 0
M  V30 4183 C 381.576 -3.39372 3.93856 0
M  V30 4184 C 379.261 -3.7478 3.34433 0
M  V30 4185 C 381.255 -3.5686 5.28138 0
M  V30 4186 C 378.942 -3.91915 4.68877 0
M  V30 4187 C 379.94 -3.82956 5.65539 0
M  V30 4188 O 379.628 -3.996 6.97549 0
M  V30 4189 H 379.36 -0.575751 0.354241 0
M  V30 4190 H 381.914 -1.32044 1.57333 0
M  V30 4191 H 380.144 -3.77161 0.853588 0
M  V30 4192 H 381.833 -3.8573 1.2636 0
M  V30 4193 H 382.599 -3.18789 3.65511 0
M  V30 4194 H 378.478 -3.80852 2.59756 0
M  V30 4195 H 382.022 -3.49783 6.03571 0
M  V30 4196 H 377.919 -4.11992 4.96923 0
M  V30 4197 H 378.687 -4.1676 7.04452 0
M  V30 4198 N 381.35 -0.985608 -1.22978 0
M  V30 4199 C 382.26 -0.538548 -2.28335 0
M  V30 4200 C 383.276 0.409163 -1.69121 0
M  V30 4201 O 384.452 0.277797 -1.99475 0
M  V30 4202 C 381.517 0.146867 -3.46389 0
M  V30 4203 C 380.578 -0.842896 -4.20944 0
M  V30 4204 C 379.811 -0.190095 -5.33361 0
M  V30 4205 O 380.034 1.01767 -5.61248 0
M  V30 4206 O 378.968 -0.891289 -5.95264 0
M  V30 4207 H 382.794 -1.41487 -2.68729 0
M  V30 4208 H 380.379 -0.753495 -1.29007 0
M  V30 4209 H 382.261 0.531125 -4.1804 0
M  V30 4210 H 380.936 0.997871 -3.07935 0
M  V30 4211 H 379.843 -1.27795 -3.51595 0
M  V30 4212 H 381.176 -1.66287 -4.6326 0
M  V30 4213 N 382.828 1.3818 -0.7579 0
M  V30 4214 C 384.239 1.82726 -0.383134 0
M  V30 4215 C 384.59 1.63214 1.08884 0
M  V30 4216 O 383.715 1.13566 1.84205 0
M  V30 4217 C 384.31 3.31728 -0.688631 0
M  V30 4218 C 382.869 3.74606 -0.367091 0
M  V30 4219 C 382.016 2.60896 -0.939599 0
M  V30 4220 H 384.967 1.26847 -0.953699 0
M  V30 4221 H 384.988 3.80487 0.0316492 0
M  V30 4222 H 384.5 3.45898 -1.76001 0
M  V30 4223 H 382.601 3.66013 0.697532 0
M  V30 4224 H 382.714 4.71215 -0.865658 0
M  V30 4225 H 381.078 2.52075 -0.3647 0
M  V30 4226 H 381.861 2.77864 -2.0161 0
M  V30 4227 N 384.306 0.507319 1.49211 0
M  V30 4228 C 385.531 -0.033725 2.07373 0
M  V30 4229 C 385.956 -1.29485 1.36437 0
M  V30 4230 O 385.314 -1.76294 0.423087 0
M  V30 4231 C 385.362 -0.263945 3.59633 0
M  V30 4232 O 384.466 -1.33737 3.90113 0
M  V30 4233 H 383.807 0.0290331 0.663365 0
M  V30 4234 H 386.337 0.708749 1.91932 0
M  V30 4235 H 386.347 -0.493536 4.05004 0
M  V30 4236 H 385.022 0.657424 4.10671 0
M  V30 4237 H 383.599 -1.09224 3.56545 0
M  V30 4238 N 385.784 -1.5574 0.241426 0
M  V30 4239 C 386.694 -2.2479 -0.671305 0
M  V30 4240 C 387.71 -1.26217 -1.19772 0
M  V30 4241 O 388.886 -1.59079 -1.23514 0
M  V30 4242 C 385.951 -2.92966 -1.85396 0
M  V30 4243 C 385.012 -4.06935 -1.36756 0
M  V30 4244 C 384.245 -4.71851 -2.49384 0
M  V30 4245 O 384.468 -4.35823 -3.67987 0
M  V30 4246 O 383.402 -5.60467 -2.19454 0
M  V30 4247 H 387.228 -3.0349 -0.112966 0
M  V30 4248 H 384.813 -1.49397 0.0101513 0
M  V30 4249 H 386.695 -3.35927 -2.54423 0
M  V30 4250 H 385.37 -2.17211 -2.40002 0
M  V30 4251 H 384.277 -3.68503 -0.644726 0
M  V30 4252 H 385.61 -4.84492 -0.867647 0
M  V30 4253 N 387.262 0.0317525 -1.57568 0
M  V30 4254 C 388.49 0.734949 -1.93407 0
M  V30 4255 C 388.905 1.69036 -0.84096 0
M  V30 4256 O 388.262 1.81582 0.182836 0
M  V30 4257 C 388.313 1.49432 -3.29169 0
M  V30 4258 O 388.034 0.577261 -4.3428 0
M  V30 4259 C 389.535 2.29492 -3.79273 0
M  V30 4260 H 386.755 0.206706 -0.638368 0
M  V30 4261 H 389.299 -0.00992046 -2.04498 0
M  V30 4262 H 387.454 2.1911 -3.19483 0
M  V30 4263 H 387.868 1.10952 -5.1263 0
M  V30 4264 H 389.342 2.78172 -4.76785 0
M  V30 4265 H 389.819 3.10794 -3.10328 0
M  V30 4266 H 390.425 1.64894 -3.92033 0
M  V30 4267 N 388.74 1.54641 0.303973 0
M  V30 4268 C 389.703 1.84646 1.35789 0
M  V30 4269 C 390.703 0.7192 1.4382 0
M  V30 4270 O 391.893 0.987491 1.43507 0
M  V30 4271 C 389.025 2.02407 2.74307 0
M  V30 4272 H 390.218 2.78829 1.10429 0
M  V30 4273 H 387.771 1.46658 0.540487 0
M  V30 4274 H 388.506 1.10502 3.04893 0
M  V30 4275 H 388.291 2.84453 2.69868 0
M  V30 4276 H 389.781 2.27002 3.50514 0
M  V30 4277 N 390.218 -0.567019 1.47046 0
M  V30 4278 C 391.165 -1.67489 1.58796 0
M  V30 4279 C 392.135 -1.60399 0.43144 0
M  V30 4280 O 393.32 -1.79378 0.650233 0
M  V30 4281 C 390.46 -3.05821 1.59899 0
M  V30 4282 C 389.573 -3.2342 2.86397 0
M  V30 4283 C 388.708 -4.52093 2.789 0
M  V30 4284 C 387.747 -4.6309 4.00267 0
M  V30 4285 N 386.884 -5.83106 3.91064 0
M  V30 4286 H 391.724 -1.56785 2.53422 0
M  V30 4287 H 389.261 -0.763896 1.2571 0
M  V30 4288 H 391.219 -3.8591 1.58522 0
M  V30 4289 H 389.849 -3.15384 0.687929 0
M  V30 4290 H 388.901 -2.3683 2.97684 0
M  V30 4291 H 390.213 -3.27412 3.76301 0
M  V30 4292 H 389.367 -5.4043 2.75718 0
M  V30 4293 H 388.106 -4.50565 1.86662 0
M  V30 4294 H 387.111 -3.73168 4.03765 0
M  V30 4295 H 388.336 -4.66386 4.93621 0
M  V30 4296 H 386.282 -5.82546 3.01623 0
M  V30 4297 H 386.199 -5.88434 4.74638 0
M  V30 4298 H 387.467 -6.73831 3.91882 0
M  V30 4299 N 391.696 -1.35014 -0.812953 0
M  V30 4300 C 392.659 -1.27292 -1.90602 0
M  V30 4301 C 393.659 -0.185817 -1.59723 0
M  V30 4302 O 394.849 -0.439102 -1.68575 0
M  V30 4303 C 391.981 -0.967676 -3.26877 0
M  V30 4304 H 393.174 -2.24479 -1.9887 0
M  V30 4305 H 390.727 -1.19446 -1.00808 0
M  V30 4306 H 391.462 0.0005954 -3.243 0
M  V30 4307 H 391.247 -1.75412 -3.50675 0
M  V30 4308 H 392.737 -0.939085 -4.06904 0
M  V30 4309 N 393.175 1.03435 -1.18907 0
M  V30 4310 C 394.107 2.1165 -0.879595 0
M  V30 4311 C 395.12 1.62316 0.125439 0
M  V30 4312 O 396.309 1.78201 -0.103245 0
M  V30 4313 C 393.409 3.37622 -0.294042 0
M  V30 4314 C 392.582 4.16166 -1.34629 0
M  V30 4315 C 391.641 5.20457 -0.775274 0
M  V30 4316 O 390.667 5.50379 -1.4516 0
M  V30 4317 N 391.869 5.78949 0.424126 0
M  V30 4318 H 394.634 2.38791 -1.81105 0
M  V30 4319 H 392.195 1.19681 -1.09032 0
M  V30 4320 H 394.187 4.04572 0.101679 0
M  V30 4321 H 392.757 3.07873 0.541575 0
M  V30 4322 H 391.977 3.44444 -1.91707 0
M  V30 4323 H 393.265 4.65432 -2.05549 0
M  V30 4324 H 392.663 5.56948 0.991209 0
M  V30 4325 H 391.22 6.47334 0.761691 0
M  V30 4326 N 394.653 0.992116 1.22453 0
M  V30 4327 C 396.069 0.702713 1.43297 0
M  V30 4328 C 396.269 -0.726909 1.87932 0
M  V30 4329 O 395.325 -1.49792 2.0327 0
M  V30 4330 C 396.638 1.70762 2.47509 0
M  V30 4331 C 398.186 1.72298 2.61309 0
M  V30 4332 C 398.661 2.71649 3.68742 0
M  V30 4333 N 400.152 2.70239 3.76199 0
M  V30 4334 C 400.887 3.43778 4.58917 0
M  V30 4335 N 400.383 4.26914 5.45633 0
M  V30 4336 N 402.176 3.32487 4.5322 0
M  V30 4337 H 394.327 1.91543 0.917871 0
M  V30 4338 H 396.59 0.826031 0.465162 0
M  V30 4339 H 396.296 2.73059 2.21657 0
M  V30 4340 H 396.17 1.49985 3.46099 0
M  V30 4341 H 398.557 0.706989 2.86506 0
M  V30 4342 H 398.638 1.97143 1.62997 0
M  V30 4343 H 398.282 3.73397 3.44292 0
M  V30 4344 H 398.212 2.44074 4.66622 0
M  V30 4345 H 400.703 2.09912 3.14237 0
M  V30 4346 H 401.016 4.79855 6.05771 0
M  V30 4347 H 399.361 4.31002 5.45218 0
M  V30 4348 H 402.552 2.6698 3.84499 0
M  V30 4349 H 402.725 3.90058 5.17454 0
M  V30 4350 N 396.131 -1.37776 0.765217 0
M  V30 4351 C 397.063 -2.28958 0.105361 0
M  V30 4352 C 398.076 -1.48316 -0.67128 0
M  V30 4353 O 399.265 -1.71046 -0.51045 0
M  V30 4354 C 396.365 -3.27421 -0.874569 0
M  V30 4355 C 395.538 -4.37132 -0.153123 0
M  V30 4356 C 394.597 -5.1571 -1.04547 0
M  V30 4357 O 393.623 -5.66896 -0.511672 0
M  V30 4358 N 394.825 -5.29808 -2.37243 0
M  V30 4359 H 397.59 -2.86227 0.888495 0
M  V30 4360 H 395.151 -1.49682 0.617 0
M  V30 4361 H 397.143 -3.7687 -1.47483 0
M  V30 4362 H 395.713 -2.70967 -1.55871 0
M  V30 4363 H 394.933 -3.89166 0.627975 0
M  V30 4364 H 396.221 -5.07625 0.345643 0
M  V30 4365 H 395.619 -4.89793 -2.83054 0
M  V30 4366 H 394.176 -5.82589 -2.9229 0
M  V30 4367 N 397.609 -0.515225 -1.4894 0
M  V30 4368 C 398.542 0.302518 -2.26186 0
M  V30 4369 C 399.52 0.957895 -1.31389 0
M  V30 4370 O 400.704 0.985198 -1.60705 0
M  V30 4371 C 397.831 1.42719 -3.07163 0
M  V30 4372 C 396.877 0.884736 -4.17223 0
M  V30 4373 S 397.71 -0.235767 -5.34981 0
M  V30 4374 C 398.866 0.891731 -6.19515 0
M  V30 4375 H 399.099 -0.353076 -2.95196 0
M  V30 4376 H 396.632 -0.300753 -1.51443 0
M  V30 4377 H 398.59 2.07152 -3.54398 0
M  V30 4378 H 397.251 2.05445 -2.37595 0
M  V30 4379 H 396.444 1.72801 -4.73451 0
M  V30 4380 H 396.046 0.317362 -3.72651 0
M  V30 4381 H 398.338 1.79377 -6.53322 0
M  V30 4382 H 399.281 0.367751 -7.07144 0
M  V30 4383 H 399.689 1.16548 -5.52338 0
M  V30 4384 N 399.087 1.5561 -0.249682 0
M  V30 4385 C 400.315 2.03411 0.378352 0
M  V30 4386 C 400.73 1.12886 1.51335 0
M  V30 4387 O 400.087 0.143833 1.81932 0
M  V30 4388 C 400.138 3.50537 0.88351 0
M  V30 4389 O 399.859 4.37614 -0.20626 0
M  V30 4390 C 401.36 4.14113 1.58195 0
M  V30 4391 H 398.58 0.664994 0.08958 0
M  V30 4392 H 401.124 2.01044 -0.374357 0
M  V30 4393 H 399.279 3.5343 1.58639 0
M  V30 4394 H 399.693 5.24199 0.177782 0
M  V30 4395 H 401.167 5.18741 1.8871 0
M  V30 4396 H 401.644 3.60767 2.50487 0
M  V30 4397 H 402.25 4.15151 0.923573 0
M  V30 4398 N 400.565 -0.0233959 1.57583 0
M  V30 4399 C 401.512 -1.02224 2.06927 0
M  V30 4400 C 402.482 -1.35575 0.959617 0
M  V30 4401 O 403.667 -1.45815 1.23055 0
M  V30 4402 C 400.807 -2.31636 2.5581 0
M  V30 4403 C 399.92 -2.04394 3.80588 0
M  V30 4404 C 399.055 -3.27717 4.18061 0
M  V30 4405 C 398.094 -2.96056 5.3574 0
M  V30 4406 N 397.231 -4.11847 5.68618 0
M  V30 4407 H 402.071 -0.594504 2.9201 0
M  V30 4408 H 399.608 -0.281921 1.44373 0
M  V30 4409 H 401.566 -3.07258 2.82221 0
M  V30 4410 H 400.196 -2.72122 1.73636 0
M  V30 4411 H 399.248 -1.19244 3.61227 0
M  V30 4412 H 400.56 -1.77042 4.66323 0
M  V30 4413 H 399.714 -4.11702 4.4563 0
M  V30 4414 H 398.453 -3.58188 3.30988 0
M  V30 4415 H 397.458 -2.10474 5.07918 0
M  V30 4416 H 398.683 -2.66857 6.24471 0
M  V30 4417 H 396.629 -4.42258 4.84504 0
M  V30 4418 H 396.546 -3.87938 6.48876 0
M  V30 4419 H 397.814 -4.96689 6.00766 0
M  V30 4420 N 402.043 -1.548 -0.295768 0
M  V30 4421 C 403.32 -1.65014 -1.05023 0
M  V30 4422 C 403.7 -0.501805 -2.05049 0
M  V30 4423 O 403.048 0.500869 -2.22943 0
M  V30 4424 C 403.258 -3.03252 -1.72741 0
M  V30 4425 C 404.606 -3.60242 -2.24746 0
M  V30 4426 O 405.63 -3.05737 -1.82765 0
M  V30 4427 O 404.489 -4.55687 -3.01681 0
M  V30 4428 H 401.583 -0.669314 -0.485744 0
M  V30 4429 H 404.129 -1.67144 -0.293438 0
M  V30 4430 H 402.901 -3.7827 -1.00138 0
M  V30 4431 H 402.524 -3.04922 -2.55163 0
M  V30 4432 N 403.521 0.559213 -1.47345 0
M  V30 4433 C 404.769 1.31388 -1.53563 0
M  V30 4434 C 405.09 1.93985 -0.198678 0
M  V30 4435 O 404.36 1.79825 0.777167 0
M  V30 4436 H 402.94 0.487901 -0.565652 0
M  V30 4437 H 405.602 0.65315 -1.8363 0
M  V30 4438 H 404.698 2.10844 -2.30111 0
M  V30 4439 N 404.999 1.35443 0.805782 0
M  V30 4440 C 406.246 1.28761 1.56291 0
M  V30 4441 C 406.574 -0.137747 1.94012 0
M  V30 4442 O 405.829 -1.1032 1.61642 0
M  V30 4443 C 406.128 2.14045 2.86216 0
M  V30 4444 C 405.794 3.62826 2.67709 0
M  V30 4445 C 404.456 4.0338 2.6237 0
M  V30 4446 C 406.808 4.57227 2.50186 0
M  V30 4447 C 404.136 5.36501 2.37451 0
M  V30 4448 C 406.488 5.90547 2.26797 0
M  V30 4449 C 405.152 6.30245 2.1988 0
M  V30 4450 H 404.422 0.471171 0.571908 0
M  V30 4451 H 407.069 1.67347 0.930974 0
M  V30 4452 H 405.374 1.68342 3.53791 0
M  V30 4453 H 407.071 2.0621 3.43917 0
M  V30 4454 H 403.661 3.30644 2.72713 0
M  V30 4455 H 407.845 4.2678 2.53323 0
M  V30 4456 H 403.101 5.66259 2.30567 0
M  V30 4457 H 407.275 6.63274 2.12228 0
M  V30 4458 H 404.902 7.33328 2.00333 0
M  V30 4459 N 406.477 -1.02803 1.19454 0
M  V30 4460 C 407.407 -2.12999 0.956758 0
M  V30 4461 C 408.388 -1.69743 -0.110188 0
M  V30 4462 O 409.573 -1.94148 0.0450038 0
M  V30 4463 C 406.703 -3.43746 0.495553 0
M  V30 4464 C 405.657 -4.00688 1.50443 0
M  V30 4465 C 404.983 -5.27067 0.900275 0
M  V30 4466 C 406.283 -4.35397 2.8849 0
M  V30 4467 H 407.977 -2.33148 1.87836 0
M  V30 4468 H 405.523 -1.12045 0.904539 0
M  V30 4469 H 407.476 -4.2021 0.316493 0
M  V30 4470 H 406.2 -3.23321 -0.461646 0
M  V30 4471 H 404.859 -3.2632 1.67065 0
M  V30 4472 H 404.507 -5.02959 -0.064503 0
M  V30 4473 H 404.207 -5.66127 1.57397 0
M  V30 4474 H 405.731 -6.06196 0.73203 0
M  V30 4475 H 407.145 -5.02795 2.75446 0
M  V30 4476 H 405.542 -4.85541 3.52661 0
M  V30 4477 H 406.612 -3.44662 3.41081 0
M  V30 4478 N 407.956 -0.998596 -1.21925 0
M  V30 4479 C 408.889 -0.498517 -2.22688 0
M  V30 4480 C 409.867 0.444301 -1.56412 0
M  V30 4481 O 411.051 0.368518 -1.84863 0
M  V30 4482 C 408.178 0.276639 -3.37568 0
M  V30 4483 C 407.224 -0.61302 -4.22071 0
M  V30 4484 S 408.057 -2.07168 -4.93803 0
M  V30 4485 C 409.213 -1.30617 -6.12119 0
M  V30 4486 H 409.446 -1.35234 -2.64762 0
M  V30 4487 H 406.979 -0.806018 -1.31692 0
M  V30 4488 H 408.937 0.717817 -4.04175 0
M  V30 4489 H 407.598 1.10581 -2.93991 0
M  V30 4490 H 406.791 -0.0162909 -5.03997 0
M  V30 4491 H 406.393 -0.991202 -3.60626 0
M  V30 4492 H 408.685 -0.57675 -6.75041 0
M  V30 4493 H 409.628 -2.10091 -6.76215 0
M  V30 4494 H 410.036 -0.816957 -5.58557 0
M  V30 4495 N 409.434 1.37368 -0.772513 0
M  V30 4496 C 410.664 2.03647 -0.348082 0
M  V30 4497 C 411.072 1.58392 1.03482 0
M  V30 4498 O 410.415 0.760921 1.672 0
M  V30 4499 C 410.477 3.58131 -0.313404 0
M  V30 4500 C 410.141 4.2652 -1.64102 0
M  V30 4501 C 411.138 4.50587 -2.5936 0
M  V30 4502 C 408.823 4.64335 -1.91567 0
M  V30 4503 C 410.817 5.11526 -3.80289 0
M  V30 4504 C 408.504 5.24996 -3.12766 0
M  V30 4505 C 409.502 5.48529 -4.06946 0
M  V30 4506 O 409.19 6.07921 -5.26011 0
M  V30 4507 H 408.922 0.660538 -0.143753 0
M  V30 4508 H 411.476 1.76669 -1.04772 0
M  V30 4509 H 409.706 3.84159 0.442617 0
M  V30 4510 H 411.395 4.05813 0.0840613 0
M  V30 4511 H 412.161 4.21784 -2.39423 0
M  V30 4512 H 408.04 4.45353 -1.19088 0
M  V30 4513 H 411.584 5.29811 -4.53813 0
M  V30 4514 H 407.481 5.53223 -3.32588 0
M  V30 4515 H 408.249 6.26398 -5.26847 0
M  V30 4516 N 410.912 0.523116 1.48665 0
M  V30 4517 C 411.842 -0.23231 2.32342 0
M  V30 4518 C 412.823 -0.941637 1.41659 0
M  V30 4519 O 414.008 -0.928751 1.70552 0
M  V30 4520 C 411.138 -1.28387 3.22698 0
M  V30 4521 C 410.092 -0.693098 4.22351 0
M  V30 4522 C 409.418 -1.8468 5.01794 0
M  V30 4523 C 410.718 0.33063 5.21252 0
M  V30 4524 H 412.412 0.466192 2.95748 0
M  V30 4525 H 409.958 0.225643 1.42221 0
M  V30 4526 H 411.911 -1.82024 3.80059 0
M  V30 4527 H 410.635 -2.01186 2.57278 0
M  V30 4528 H 409.294 -0.178299 3.66166 0
M  V30 4529 H 408.942 -2.56301 4.32804 0
M  V30 4530 H 408.642 -1.45747 5.69238 0
M  V30 4531 H 410.166 -2.38709 5.62006 0
M  V30 4532 H 411.58 -0.118407 5.73178 0
M  V30 4533 H 409.977 0.636974 5.9671 0
M  V30 4534 H 411.047 1.23883 4.68808 0
M  V30 4535 N 412.39 -1.55475 0.257931 0
M  V30 4536 C 413.32 -2.24815 -0.630912 0
M  V30 4537 C 414.301 -1.23224 -1.17259 0
M  V30 4538 O 415.486 -1.51904 -1.20991 0
M  V30 4539 C 412.616 -2.95609 -1.82298 0
M  V30 4540 C 411.57 -4.03982 -1.41359 0
M  V30 4541 C 410.896 -4.6226 -2.68738 0
M  V30 4542 C 412.196 -5.19109 -0.57648 0
M  V30 4543 H 413.89 -2.99354 -0.0526878 0
M  V30 4544 H 411.436 -1.4398 -0.023901 0
M  V30 4545 H 413.389 -3.42822 -2.45054 0
M  V30 4546 H 412.113 -2.18577 -2.42676 0
M  V30 4547 H 410.772 -3.57555 -0.809324 0
M  V30 4548 H 410.42 -3.81915 -3.27338 0
M  V30 4549 H 410.12 -5.35424 -2.42065 0
M  V30 4550 H 411.644 -5.12212 -3.32372 0
M  V30 4551 H 413.058 -5.62479 -1.10861 0
M  V30 4552 H 411.455 -5.98729 -0.405351 0
M  V30 4553 H 412.525 -4.83174 0.408776 0
M  V30 4554 N 413.868 0.0150385 -1.57593 0
M  V30 4555 C 415.093 0.718067 -1.94573 0
M  V30 4556 C 415.518 1.6734 -0.859005 0
M  V30 4557 O 414.876 1.80362 0.184147 0
M  V30 4558 C 414.924 1.43918 -3.30636 0
M  V30 4559 O 414.028 2.55299 -3.23876 0
M  V30 4560 H 413.369 0.192125 -0.635597 0
M  V30 4561 H 415.899 -0.0336708 -2.04572 0
M  V30 4562 H 415.909 1.80598 -3.65853 0
M  V30 4563 H 414.584 0.738619 -4.09289 0
M  V30 4564 H 413.161 2.21058 -3.00312 0
M  V30 4565 N 415.346 1.54954 0.287554 0
M  V30 4566 C 416.309 1.86076 1.33823 0
M  V30 4567 C 417.309 0.734414 1.43049 0
M  V30 4568 O 418.499 1.00266 1.42452 0
M  V30 4569 C 415.631 2.05305 2.72144 0
M  V30 4570 H 416.824 2.79984 1.07465 0
M  V30 4571 H 414.377 1.47223 0.524902 0
M  V30 4572 H 415.112 1.1373 3.03704 0
M  V30 4573 H 414.897 2.873 2.66836 0
M  V30 4574 H 416.387 2.30706 3.48087 0
M  V30 4575 N 416.824 -0.551391 1.4764 0
M  V30 4576 C 418.101 -1.31229 1.45046 0
M  V30 4577 C 418.481 -2.10563 0.150527 0
M  V30 4578 O 417.829 -2.11374 -0.867956 0
M  V30 4579 C 418.039 -2.21189 2.69956 0
M  V30 4580 C 419.387 -2.82021 3.1741 0
M  V30 4581 O 420.411 -2.31488 2.70724 0
M  V30 4582 O 419.27 -3.73885 3.98588 0
M  V30 4583 H 416.364 -0.591193 0.578291 0
M  V30 4584 H 418.91 -0.569813 1.59847 0
M  V30 4585 H 417.682 -1.62207 3.56096 0
M  V30 4586 H 417.305 -3.02722 2.57769 0
M  V30 4587 N 418.302 -1.35869 -0.798587 0
M  V30 4588 C 419.55 -1.29332 -1.55298 0
M  V30 4589 C 419.871 0.129729 -1.94568 0
M  V30 4590 O 419.141 1.06796 -1.6423 0
M  V30 4591 H 417.721 -0.475737 -0.57592 0
M  V30 4592 H 420.383 -1.70062 -0.952093 0
M  V30 4593 H 419.479 -1.91458 -2.46476 0
M  V30 4594 N 419.78 1.02168 -1.19998 0
M  V30 4595 C 421.005 1.79833 -1.03319 0
M  V30 4596 C 421.43 1.83504 0.413281 0
M  V30 4597 O 420.788 1.26635 1.29743 0
M  V30 4598 C 420.836 3.22396 -1.61533 0
M  V30 4599 O 419.94 4.03555 -0.849519 0
M  V30 4600 H 419.281 0.554872 -0.364709 0
M  V30 4601 H 421.811 1.28542 -1.59179 0
M  V30 4602 H 421.821 3.73124 -1.65054 0
M  V30 4603 H 420.496 3.19039 -2.66809 0
M  V30 4604 H 419.073 3.62169 -0.888129 0
M  V30 4605 N 421.258 1.00505 1.21394 0
M  V30 4606 C 422.221 0.570459 2.21987 0
M  V30 4607 C 423.221 -0.353211 1.56873 0
M  V30 4608 O 424.411 -0.14349 1.73608 0
M  V30 4609 C 421.543 -0.168555 3.40483 0
M  V30 4610 H 422.736 1.46021 2.6195 0
M  V30 4611 H 420.289 0.793565 1.34656 0
M  V30 4612 H 421.024 -1.07374 3.06009 0
M  V30 4613 H 420.809 0.494823 3.88965 0
M  V30 4614 H 422.299 -0.460362 4.15055 0
M  V30 4615 N 422.737 -1.36956 0.779787 0
M  V30 4616 C 423.984 -1.99491 0.347766 0
M  V30 4617 C 424.312 -1.61898 -1.07793 0
M  V30 4618 O 423.567 -0.86071 -1.75756 0
M  V30 4619 C 423.866 -3.54585 0.447686 0
M  V30 4620 C 423.532 -4.1197 1.83279 0
M  V30 4621 C 422.194 -4.27356 2.2118 0
M  V30 4622 C 424.546 -4.43354 2.74019 0
M  V30 4623 C 421.874 -4.71432 3.4924 0
M  V30 4624 C 424.226 -4.88858 4.01497 0
M  V30 4625 C 422.89 -5.0245 4.39432 0
M  V30 4626 H 422.16 -0.729991 0.127257 0
M  V30 4627 H 424.807 -1.63599 0.995376 0
M  V30 4628 H 423.112 -3.90773 -0.283447 0
M  V30 4629 H 424.809 -4.00888 0.0945948 0
M  V30 4630 H 421.399 -4.00428 1.52825 0
M  V30 4631 H 425.583 -4.31045 2.45995 0
M  V30 4632 H 420.839 -4.80141 3.78516 0
M  V30 4633 H 425.013 -5.12108 4.71931 0
M  V30 4634 H 422.64 -5.36362 5.38721 0
M  V30 4635 N 424.215 -0.530993 -1.48385 0
M  V30 4636 C 425.44 0.000729535 -2.074 0
M  V30 4637 C 425.865 1.27298 -1.3848 0
M  V30 4638 O 425.223 1.75599 -0.451081 0
M  V30 4639 C 425.271 0.206697 -3.60007 0
M  V30 4640 O 424.375 1.27514 -3.92191 0
M  V30 4641 H 423.716 -0.039583 -0.662819 0
M  V30 4642 H 426.246 -0.739194 -1.9078 0
M  V30 4643 H 426.256 0.42904 -4.05738 0
M  V30 4644 H 424.931 -0.722675 -4.09573 0
M  V30 4645 H 423.508 1.03537 -3.58238 0
M  V30 4646 N 425.693 1.55336 -0.266172 0
M  V30 4647 C 426.623 2.25146 0.618981 0
M  V30 4648 C 427.604 1.23845 1.16604 0
M  V30 4649 O 428.789 1.52544 1.20183 0
M  V30 4650 C 425.919 2.96572 1.80728 0
M  V30 4651 C 424.873 4.04726 1.39215 0
M  V30 4652 C 424.199 4.63678 2.66283 0
M  V30 4653 C 425.499 5.19407 0.548942 0
M  V30 4654 H 427.193 2.99377 0.0368116 0
M  V30 4655 H 424.739 1.43991 0.0162651 0
M  V30 4656 H 426.692 3.44116 2.43232 0
M  V30 4657 H 425.416 2.19861 2.41514 0
M  V30 4658 H 424.075 3.57979 0.790351 0
M  V30 4659 H 423.723 3.83646 3.25308 0
M  V30 4660 H 423.423 5.367 2.39222 0
M  V30 4661 H 424.947 5.13967 3.29651 0
M  V30 4662 H 426.361 5.63059 1.07876 0
M  V30 4663 H 424.758 5.98936 0.373593 0
M  V30 4664 H 425.828 4.8295 -0.434394 0
M  V30 4665 N 427.171 -0.0066808 1.57599 0
M  V30 4666 C 428.134 -0.985035 2.06953 0
M  V30 4667 C 429.134 -1.27663 0.977687 0
M  V30 4668 O 430.324 -1.22293 1.24057 0
M  V30 4669 C 427.456 -2.3118 2.50536 0
M  V30 4670 H 428.649 -0.558255 2.94658 0
M  V30 4671 H 426.202 -0.254011 1.54222 0
M  V30 4672 H 426.937 -2.78561 1.66054 0
M  V30 4673 H 426.722 -2.11338 3.3027 0
M  V30 4674 H 428.212 -3.01377 2.8907 0
M  V30 4675 N 428.649 -1.55105 -0.279332 0
M  V30 4676 C 429.599 -1.83937 -1.34727 0
M  V30 4677 C 430.583 -0.69785 -1.44979 0
M  V30 4678 O 431.775 -0.95904 -1.48766 0
M  V30 4679 C 428.904 -2.1092 -2.70864 0
M  V30 4680 C 427.99 -3.31314 -2.64748 0
M  V30 4681 N 428.381 -4.51371 -2.2825 0
M  V30 4682 C 426.679 -3.33777 -2.95819 0
M  V30 4683 C 427.38 -5.33447 -2.31969 0
M  V30 4684 N 426.356 -4.71697 -2.7019 0
M  V30 4685 H 430.158 -2.74309 -1.05506 0
M  V30 4686 H 427.672 -1.54896 -0.487959 0
M  V30 4687 H 429.669 -2.2973 -3.47893 0
M  V30 4688 H 428.329 -1.21828 -3.00979 0
M  V30 4689 H 429.34 -4.77584 -2.00335 0
M  V30 4690 H 426.017 -2.54858 -3.30687 0
M  V30 4691 H 427.407 -6.39424 -2.06365 0
M  V30 4692 N 430.127 0.543554 -1.4793 0
M  V30 4693 C 431.543 0.870806 -1.3375 0
M  V30 4694 C 431.743 1.9864 -0.338261 0
M  V30 4695 O 430.799 2.51305 0.245371 0
M  V30 4696 C 432.112 1.25114 -2.73435 0
M  V30 4697 C 433.66 1.3618 -2.81823 0
M  V30 4698 C 434.135 1.77563 -4.22179 0
M  V30 4699 N 435.626 1.8469 -4.24787 0
M  V30 4700 C 436.361 2.18067 -5.30315 0
M  V30 4701 N 435.857 2.49963 -6.46135 0
M  V30 4702 N 437.65 2.18958 -5.17701 0
M  V30 4703 H 429.801 -0.19275 -2.11524 0
M  V30 4704 H 432.064 -0.0235777 -0.947707 0
M  V30 4705 H 431.77 0.50514 -3.48053 0
M  V30 4706 H 431.644 2.20431 -3.06088 0
M  V30 4707 H 434.031 2.09859 -2.07468 0
M  V30 4708 H 434.112 0.390169 -2.52807 0
M  V30 4709 H 433.756 1.04449 -4.97044 0
M  V30 4710 H 433.686 2.75753 -4.48629 0
M  V30 4711 H 436.177 1.62372 -3.41239 0
M  V30 4712 H 436.49 2.74497 -7.22406 0
M  V30 4713 H 434.835 2.47513 -6.49432 0
M  V30 4714 H 438.026 1.93488 -4.2624 0
M  V30 4715 H 438.199 2.44639 -6.00047 0
M  V30 4716 N 431.605 1.3629 0.791371 0
M  V30 4717 C 433.021 1.16661 1.08914 0
M  V30 4718 C 433.221 -0.0106266 2.01497 0
M  V30 4719 O 432.277 -0.676596 2.43266 0
M  V30 4720 C 433.59 2.47656 1.70549 0
M  V30 4721 C 435.138 2.54002 1.82899 0
M  V30 4722 C 435.613 3.85078 2.47949 0
M  V30 4723 N 437.104 3.86413 2.5542 0
M  V30 4724 C 437.839 4.84572 3.06557 0
M  V30 4725 N 437.335 5.93124 3.58016 0
M  V30 4726 N 439.128 4.71994 3.05251 0
M  V30 4727 H 431.279 2.11668 0.176238 0
M  V30 4728 H 433.542 0.937486 0.140796 0
M  V30 4729 H 433.248 3.34059 1.09989 0
M  V30 4730 H 433.122 2.63319 2.70079 0
M  V30 4731 H 435.509 1.68018 2.42598 0
M  V30 4732 H 435.59 2.42239 0.821808 0
M  V30 4733 H 435.234 4.71467 1.88895 0
M  V30 4734 H 435.164 3.94135 3.49235 0
M  V30 4735 H 437.655 3.07988 2.18979 0
M  V30 4736 H 437.968 6.63999 3.95381 0
M  V30 4737 H 436.313 5.96796 3.56173 0
M  V30 4738 H 439.504 3.86321 2.64336 0
M  V30 4739 H 439.677 5.48653 3.44796 0
M  V30 4740 N 433.083 -1.0153 1.20538 0
M  V30 4741 C 434.329 -1.75408 1.01783 0
M  V30 4742 C 434.662 -1.88943 -0.448814 0
M  V30 4743 O 433.937 -1.4162 -1.33319 0
M  V30 4744 C 434.22 -3.17255 1.70356 0
M  V30 4745 C 434.073 -3.11508 3.24473 0
M  V30 4746 C 435.392 -4.15955 1.43769 0
M  V30 4747 H 432.511 -0.636713 0.371167 0
M  V30 4748 H 435.153 -1.18436 1.4857 0
M  V30 4749 H 433.303 -3.65898 1.30578 0
M  V30 4750 H 434.975 -2.70658 3.73553 0
M  V30 4751 H 433.218 -2.4887 3.55311 0
M  V30 4752 H 433.889 -4.11784 3.67611 0
M  V30 4753 H 436.365 -3.75973 1.7828 0
M  V30 4754 H 435.241 -5.13368 1.94279 0
M  V30 4755 H 435.502 -4.40586 0.365564 0
M  V30 4756 N 434.561 -1.01147 -1.20859 0
M  V30 4757 C 435.791 -0.715872 -1.93801 0
M  V30 4758 C 436.199 0.726592 -1.74692 0
M  V30 4759 O 435.542 1.50397 -1.05482 0
M  V30 4760 C 435.604 -0.965269 -3.46299 0
M  V30 4761 C 435.268 -2.39584 -3.89164 0
M  V30 4762 C 436.265 -3.3764 -3.95342 0
M  V30 4763 C 433.95 -2.73522 -4.21297 0
M  V30 4764 C 435.944 -4.67698 -4.33056 0
M  V30 4765 C 433.631 -4.03794 -4.58687 0
M  V30 4766 C 434.629 -5.00693 -4.64538 0
M  V30 4767 O 434.317 -6.28635 -5.01072 0
M  V30 4768 H 434.049 -0.262524 -0.622942 0
M  V30 4769 H 436.603 -1.35413 -1.54443 0
M  V30 4770 H 434.833 -0.269847 -3.85757 0
M  V30 4771 H 436.522 -0.662051 -4.00464 0
M  V30 4772 H 437.288 -3.12757 -3.70686 0
M  V30 4773 H 433.167 -1.9879 -4.15937 0
M  V30 4774 H 436.711 -5.4333 -4.37537 0
M  V30 4775 H 432.608 -4.28459 -4.82797 0
M  V30 4776 H 433.376 -6.32847 -5.19083 0
M  V30 4777 N 436.039 1.36541 -0.78704 0
M  V30 4778 C 436.971 2.28761 -0.141773 0
M  V30 4779 C 437.984 1.49365 0.647599 0
M  V30 4780 O 439.173 1.71836 0.483173 0
M  V30 4781 C 436.273 3.28771 0.822368 0
M  V30 4782 C 435.446 4.3732 0.0835594 0
M  V30 4783 C 434.505 5.17307 0.963296 0
M  V30 4784 O 433.531 5.67638 0.421419 0
M  V30 4785 N 434.733 5.33515 2.28784 0
M  V30 4786 H 437.498 2.84777 -0.933919 0
M  V30 4787 H 435.059 1.48682 -0.640735 0
M  V30 4788 H 437.051 3.79169 1.41468 0
M  V30 4789 H 435.621 2.73412 1.5154 0
M  V30 4790 H 434.841 3.88118 -0.689809 0
M  V30 4791 H 436.129 5.0701 -0.426358 0
M  V30 4792 H 435.527 4.94234 2.75226 0
M  V30 4793 H 434.084 5.87165 2.82985 0
M  V30 4794 N 437.518 0.538854 1.48102 0
M  V30 4795 C 438.795 -0.0568108 1.95517 0
M  V30 4796 C 439.175 -1.50408 1.48124 0
M  V30 4797 O 438.523 -2.17133 0.711727 0
M  V30 4798 C 438.733 0.0696262 3.48931 0
M  V30 4799 C 440.081 -0.0851202 4.24515 0
M  V30 4800 O 441.105 -0.0037347 3.562 0
M  V30 4801 O 439.964 -0.257025 5.45895 0
M  V30 4802 H 437.058 -0.0743695 0.823649 0
M  V30 4803 H 439.604 0.604081 1.58584 0
M  V30 4804 H 438.376 1.07744 3.76174 0
M  V30 4805 H 437.999 -0.629714 3.92582 0
M  V30 4806 N 438.996 -1.55193 0.274407 0
M  V30 4807 C 439.929 -2.18606 -0.654712 0
M  V30 4808 C 440.907 -1.14677 -1.15273 0
M  V30 4809 O 442.091 -1.43198 -1.22583 0
M  V30 4810 C 439.218 -2.80875 -1.89281 0
M  V30 4811 C 438.264 -3.981 -1.53032 0
M  V30 4812 S 439.097 -5.32025 -0.609107 0
M  V30 4813 C 440.253 -5.97761 -1.85559 0
M  V30 4814 H 440.486 -2.97074 -0.115894 0
M  V30 4815 H 438.019 -1.54288 0.05867 0
M  V30 4816 H 439.977 -3.17381 -2.60345 0
M  V30 4817 H 438.638 -2.02302 -2.40277 0
M  V30 4818 H 437.831 -4.40356 -2.45158 0
M  V30 4819 H 437.433 -3.63013 -0.899874 0
M  V30 4820 H 439.725 -6.16951 -2.7996 0
M  V30 4821 H 440.668 -6.92545 -1.47605 0
M  V30 4822 H 441.076 -5.27113 -2.02021 0
M  V30 4823 N 440.474 -0.00167713 -1.576 0
M  V30 4824 C 441.722 0.681471 -1.90264 0
M  V30 4825 C 442.043 1.7422 -0.875924 0
M  V30 4826 O 441.313 1.95709 0.0864412 0
M  V30 4827 H 439.893 0.254696 -0.702239 0
M  V30 4828 H 442.555 -0.0429996 -1.94853 0
M  V30 4829 H 441.651 1.15166 -2.90075 0
M  V30 4830 N 441.952 1.55251 0.271103 0
M  V30 4831 C 442.884 1.84675 1.35749 0
M  V30 4832 C 443.897 0.731366 1.45447 0
M  V30 4833 O 445.086 1.00924 1.4723 0
M  V30 4834 C 442.186 1.99638 2.73857 0
M  V30 4835 C 441.359 3.30312 2.86727 0
M  V30 4836 C 440.418 3.35318 4.05522 0
M  V30 4837 O 439.444 4.08682 3.96191 0
M  V30 4838 N 440.646 2.62857 5.17577 0
M  V30 4839 H 443.411 2.78445 1.10853 0
M  V30 4840 H 440.972 1.55191 0.461218 0
M  V30 4841 H 442.964 2.00355 3.51625 0
M  V30 4842 H 441.534 1.12725 2.91568 0
M  V30 4843 H 440.754 3.42118 1.95829 0
M  V30 4844 H 442.042 4.16488 2.92258 0
M  V30 4845 H 441.44 2.02939 5.28046 0
M  V30 4846 H 439.997 2.69295 5.93568 0
M  V30 4847 N 443.43 -0.535701 1.48216 0
M  V30 4848 C 444.841 -1.11769 1.49548 0
M  V30 4849 C 445.192 -1.94442 0.26207 0
M  V30 4850 O 444.317 -2.06987 -0.631287 0
M  V30 4851 C 444.912 -2.03367 2.70975 0
M  V30 4852 C 443.471 -2.56795 2.75196 0
M  V30 4853 C 442.618 -1.33631 2.42977 0
M  V30 4854 H 445.569 -0.321232 1.55415 0
M  V30 4855 H 445.59 -2.87569 2.49167 0
M  V30 4856 H 445.102 -1.43169 3.60727 0
M  V30 4857 H 443.203 -3.20731 1.89638 0
M  V30 4858 H 443.316 -2.9632 3.76472 0
M  V30 4859 H 441.68 -1.6502 1.94012 0
M  V30 4860 H 442.463 -0.75194 3.34964 0
M  V30 4861 N 444.908 -1.36708 -0.784132 0
M  V30 4862 C 445.838 -1.34153 -1.91116 0
M  V30 4863 C 446.819 -0.212121 -1.68772 0
M  V30 4864 O 448.004 -0.410581 -1.8981 0
M  V30 4865 C 445.134 -1.13535 -3.28218 0
M  V30 4866 C 444.088 -2.23356 -3.65097 0
M  V30 4867 C 443.414 -1.87875 -5.00607 0
M  V30 4868 C 444.714 -3.65473 -3.73131 0
M  V30 4869 H 446.408 -2.28459 -1.93512 0
M  V30 4870 H 443.954 -1.09973 -0.929618 0
M  V30 4871 H 445.907 -1.10381 -4.06687 0
M  V30 4872 H 444.631 -0.156804 -3.26223 0
M  V30 4873 H 443.29 -2.25645 -2.88929 0
M  V30 4874 H 442.938 -0.885814 -4.95139 0
M  V30 4875 H 442.638 -2.61406 -5.26252 0
M  V30 4876 H 444.162 -1.86286 -5.81489 0
M  V30 4877 H 445.576 -3.65382 -4.41779 0
M  V30 4878 H 443.973 -4.37953 -4.10265 0
M  V30 4879 H 445.043 -3.99995 -2.74102 0
M  V30 4880 N 446.386 1.0089 -1.21074 0
M  V30 4881 C 447.611 1.78727 -1.05221 0
M  V30 4882 C 448.036 1.83932 0.393795 0
M  V30 4883 O 447.394 1.28004 1.28393 0
M  V30 4884 C 447.442 3.20665 -1.64944 0
M  V30 4885 O 446.546 4.02632 -0.892273 0
M  V30 4886 H 445.887 0.550973 -0.370574 0
M  V30 4887 H 448.417 1.26847 -1.60534 0
M  V30 4888 H 448.427 3.71352 -1.69002 0
M  V30 4889 H 447.102 3.16191 -2.70177 0
M  V30 4890 H 445.679 3.61207 -0.926492 0
M  V30 4891 N 447.864 1.01787 1.20321 0
M  V30 4892 C 448.814 0.559976 2.21016 0
M  V30 4893 C 449.798 -0.385366 1.56217 0
M  V30 4894 O 450.99 -0.208126 1.75772 0
M  V30 4895 C 448.119 -0.0990553 3.43157 0
M  V30 4896 C 447.205 0.86807 4.15121 0
M  V30 4897 N 447.596 2.0261 4.63447 0
M  V30 4898 C 445.894 0.689162 4.40643 0
M  V30 4899 C 446.595 2.63518 5.18588 0
M  V30 4900 N 445.571 1.91569 5.08726 0
M  V30 4901 H 449.373 1.44281 2.56048 0
M  V30 4902 H 446.887 0.883381 1.36272 0
M  V30 4903 H 448.884 -0.444643 4.14522 0
M  V30 4904 H 447.544 -0.977709 3.0963 0
M  V30 4905 H 448.555 2.40598 4.58621 0
M  V30 4906 H 445.232 -0.14133 4.17261 0
M  V30 4907 H 446.622 3.61527 5.66346 0
M  V30 4908 N 449.342 -1.36122 0.79427 0
M  V30 4909 C 450.572 -2.03067 0.380437 0
M  V30 4910 C 450.98 -1.60018 -1.00949 0
M  V30 4911 O 450.323 -0.787425 -1.65968 0
M  V30 4912 C 450.385 -3.57587 0.37034 0
M  V30 4913 C 450.049 -4.23855 1.70867 0
M  V30 4914 C 451.046 -4.46404 2.66496 0
M  V30 4915 C 448.731 -4.61229 1.9893 0
M  V30 4916 C 450.725 -5.05412 3.88378 0
M  V30 4917 C 448.412 -5.19953 3.21079 0
M  V30 4918 C 449.41 -5.41985 4.15621 0
M  V30 4919 O 449.098 -5.99475 5.35616 0
M  V30 4920 H 448.83 -0.658168 0.154243 0
M  V30 4921 H 451.384 -1.7498 1.0757 0
M  V30 4922 H 449.614 -3.84814 -0.381444 0
M  V30 4923 H 451.303 -4.05895 -0.0194894 0
M  V30 4924 H 452.069 -4.17921 2.46103 0
M  V30 4925 H 447.948 -4.43402 1.26158 0
M  V30 4926 H 451.492 -5.22524 4.62185 0
M  V30 4927 H 447.389 -5.47862 3.41347 0
M  V30 4928 H 448.157 -6.17937 5.36745 0
M  V30 4929 N 450.82 -0.546701 -1.47814 0
M  V30 4930 C 451.75 0.195317 -2.32682 0
M  V30 4931 C 452.731 0.918981 -1.43139 0
M  V30 4932 O 453.916 0.901501 -1.72008 0
M  V30 4933 C 451.046 1.23237 -3.247 0
M  V30 4934 C 450 0.625818 -4.234 0
M  V30 4935 C 449.326 1.76674 -5.04669 0
M  V30 4936 C 450.626 -0.413515 -5.2066 0
M  V30 4937 H 452.32 -0.513184 -2.94969 0
M  V30 4938 H 449.866 -0.248241 -1.41844 0
M  V30 4939 H 451.819 1.75955 -3.82907 0
M  V30 4940 H 450.543 1.97067 -2.60446 0
M  V30 4941 H 449.202 0.120023 -3.66403 0
M  V30 4942 H 448.85 2.49383 -4.36826 0
M  V30 4943 H 448.55 1.36673 -5.71484 0
M  V30 4944 H 450.074 2.29738 -5.65732 0
M  V30 4945 H 451.488 0.0272042 -5.73294 0
M  V30 4946 H 449.885 -0.731825 -5.95621 0
M  V30 4947 H 450.955 -1.31325 -4.66778 0
M  V30 4948 N 452.299 1.55045 -0.282633 0
M  V30 4949 C 453.545 2.00056 0.332481 0
M  V30 4950 C 453.878 1.1708 1.54939 0
M  V30 4951 O 453.153 0.2427 1.9298 0
M  V30 4952 C 453.436 3.53086 0.70725 0
M  V30 4953 C 453.289 4.46813 -0.517521 0
M  V30 4954 C 454.608 4.12245 1.54084 0
M  V30 4955 H 451.727 0.727268 0.119373 0
M  V30 4956 H 454.369 1.85932 -0.391076 0
M  V30 4957 H 452.519 3.65253 1.32372 0
M  V30 4958 H 454.191 4.46579 -1.15607 0
M  V30 4959 H 452.434 4.18163 -1.1542 0
M  V30 4960 H 453.105 5.51595 -0.211426 0
M  V30 4961 H 455.581 4.03401 1.02013 0
M  V30 4962 H 454.457 5.19515 1.77186 0
M  V30 4963 H 454.718 3.62951 2.52427 0
M  V30 4964 N 453.777 0.010035 1.57597 0
M  V30 4965 C 455.002 -0.687021 1.95691 0
M  V30 4966 C 455.427 -1.65952 0.885519 0
M  V30 4967 O 454.785 -1.80633 -0.15543 0
M  V30 4968 C 454.833 -1.3864 3.32884 0
M  V30 4969 O 453.937 -2.50115 3.27897 0
M  V30 4970 H 453.278 -0.181989 0.638573 0
M  V30 4971 H 455.808 0.0662122 2.04493 0
M  V30 4972 H 455.818 -1.74754 3.6868 0
M  V30 4973 H 454.493 -0.673411 4.10412 0
M  V30 4974 H 453.07 -2.16253 3.03791 0
M  V30 4975 N 455.255 -1.55392 -0.262866 0
M  V30 4976 C 456.48 -1.80847 -1.01533 0
M  V30 4977 C 456.905 -0.584946 -1.78774 0
M  V30 4978 O 456.263 0.465701 -1.75217 0
M  V30 4979 C 456.311 -3.03866 -1.94159 0
M  V30 4980 O 455.415 -2.79662 -3.03089 0
M  V30 4981 H 454.756 -0.597441 -0.289759 0
M  V30 4982 H 457.286 -2.02553 -0.288698 0
M  V30 4983 H 457.296 -3.32872 -2.35924 0
M  V30 4984 H 455.971 -3.92564 -1.37354 0
M  V30 4985 H 454.548 -2.61781 -2.65566 0
M  V30 4986 N 456.733 0.527833 -1.48498 0
M  V30 4987 C 457.958 1.313 -1.60546 0
M  V30 4988 C 458.383 1.86199 -0.26672 0
M  V30 4989 O 457.741 1.64513 0.761918 0
M  V30 4990 C 457.789 2.43818 -2.65678 0
M  V30 4991 O 456.893 3.46916 -2.22987 0
M  V30 4992 H 456.234 0.388784 -0.538277 0
M  V30 4993 H 458.764 0.634896 -1.945 0
M  V30 4994 H 458.774 2.89973 -2.87018 0
M  V30 4995 H 457.449 2.03222 -3.62869 0
M  V30 4996 H 456.026 3.06864 -2.11869 0
M  V30 4997 N 458.211 1.37122 0.776871 0
M  V30 4998 C 459.161 1.28989 1.88005 0
M  V30 4999 C 460.145 0.178765 1.59904 0
M  V30 5000 O 461.337 0.412705 1.72121 0
M  V30 5001 C 458.466 1.09402 3.25402 0
M  V30 5002 C 457.552 2.25036 3.59471 0
M  V30 5003 N 457.943 3.50407 3.64759 0
M  V30 5004 C 456.241 2.17078 3.89607 0
M  V30 5005 C 456.942 4.26628 3.95428 0
M  V30 5006 N 455.918 3.55709 4.11062 0
M  V30 5007 H 459.72 2.2394 1.90337 0
M  V30 5008 H 457.234 1.30021 0.973052 0
M  V30 5009 H 459.231 1.01661 4.04315 0
M  V30 5010 H 457.891 0.153632 3.24336 0
M  V30 5011 H 458.902 3.8438 3.47091 0
M  V30 5012 H 455.579 1.31067 3.96393 0
M  V30 5013 H 456.969 5.35107 4.06338 0
M  V30 5014 N 459.689 -1.00246 1.21608 0
M  V30 5015 C 460.637 -2.11193 0.97469 0
M  V30 5016 C 461.631 -1.69216 -0.0789303 0
M  V30 5017 O 462.837 -1.79853 0.0726806 0
M  V30 5018 H 459.212 -0.690455 0.297953 0
M  V30 5019 H 461.183 -2.2873 1.91638 0
M  V30 5020 C 459.932 -3.43182 0.558717 0
M  V30 5021 H 459.255 -3.75918 1.3611 0
M  V30 5022 H 460.695 -4.21823 0.429154 0
M  V30 5023 C 459.154 -3.28882 -0.730648 0
M  V30 5024 O 459.684 -3.59835 -1.78554 0
M  V30 5025 N 457.89 -2.8209 -0.698131 0
M  V30 5026 H 457.437 -2.57099 0.16061 0
M  V30 5027 H 457.395 -2.72903 -1.56113 0
M  V30 5028 N 461.167 -1.02423 -1.1978 0
M  V30 5029 C 462.395 -0.737456 -1.93311 0
M  V30 5030 C 462.81 0.703023 -1.75223 0
M  V30 5031 O 462.167 1.47761 -1.07112 0
M  V30 5032 C 462.218 -1.0733 -3.45199 0
M  V30 5033 O 461.939 -2.4572 -3.62702 0
M  V30 5034 C 463.44 -0.80866 -4.35862 0
M  V30 5035 H 460.66 -0.2702 -0.614193 0
M  V30 5036 H 463.204 -1.36747 -1.52054 0
M  V30 5037 H 461.359 -0.488545 -3.84307 0
M  V30 5038 H 461.773 -2.58081 -4.56612 0
M  V30 5039 H 463.247 -1.09365 -5.41057 0
M  V30 5040 H 463.724 0.257025 -4.38447 0
M  V30 5041 H 464.33 -1.37592 -4.02428 0
M  V30 5042 N 462.645 1.35699 -0.801477 0
M  V30 5043 C 463.875 2.02862 -0.3912 0
M  V30 5044 C 464.283 1.60552 1.00099 0
M  V30 5045 O 463.626 0.796215 1.65548 0
M  V30 5046 C 463.688 3.57386 -0.389299 0
M  V30 5047 C 463.352 4.22943 -1.73113 0
M  V30 5048 C 464.349 4.44984 -2.68859 0
M  V30 5049 C 462.034 4.60167 -2.01373 0
M  V30 5050 C 464.028 5.03345 -3.91053 0
M  V30 5051 C 461.715 5.18243 -3.23832 0
M  V30 5052 C 462.713 5.39773 -4.1849 0
M  V30 5053 O 462.401 5.96626 -5.38788 0
M  V30 5054 H 462.133 0.657341 -0.157732 0
M  V30 5055 H 464.687 1.74407 -1.08496 0
M  V30 5056 H 462.917 3.85011 0.361031 0
M  V30 5057 H 464.606 4.059 -0.0020365 0
M  V30 5058 H 465.372 4.1661 -2.48316 0
M  V30 5059 H 461.251 4.42726 -1.28508 0
M  V30 5060 H 464.795 5.20065 -4.64949 0
M  V30 5061 H 460.692 5.46044 -3.44248 0
M  V30 5062 H 461.46 6.15082 -5.40015 0
M  V30 5063 N 464.123 0.554532 1.47522 0
M  V30 5064 C 465.053 -0.182974 2.32782 0
M  V30 5065 C 466.034 -0.911377 1.43624 0
M  V30 5066 O 467.219 -0.892366 1.72483 0
M  V30 5067 C 464.349 -1.21513 3.25349 0
M  V30 5068 C 463.303 -0.603355 4.23726 0
M  V30 5069 C 462.629 -1.73995 5.05598 0
M  V30 5070 C 463.929 0.441121 5.20434 0
M  V30 5071 H 465.623 0.52882 2.94693 0
M  V30 5072 H 463.169 0.255759 1.41711 0
M  V30 5073 H 465.122 -1.73922 3.83835 0
M  V30 5074 H 463.846 -1.95683 2.61487 0
M  V30 5075 H 462.505 -0.10059 3.66462 0
M  V30 5076 H 462.153 -2.47063 4.38143 0
M  V30 5077 H 461.853 -1.3364 5.72201 0
M  V30 5078 H 463.377 -2.26735 5.66942 0
M  V30 5079 H 464.791 0.00319931 5.733 0
M  V30 5080 H 463.188 0.763402 5.95224 0
M  V30 5081 H 464.258 1.33799 4.66075 0
M  V30 5082 N 465.601 -1.54893 0.290851 0
M  V30 5083 C 466.531 -2.26103 -0.583084 0
M  V30 5084 C 467.512 -1.25684 -1.14619 0
M  V30 5085 O 468.697 -1.54436 -1.17741 0
M  V30 5086 C 465.827 -2.99409 -1.75987 0
M  V30 5087 C 464.781 -4.0689 -1.32758 0
M  V30 5088 C 464.107 -4.67856 -2.58872 0
M  V30 5089 C 465.407 -5.20215 -0.46624 0
M  V30 5090 H 467.101 -2.99398 0.0108214 0
M  V30 5091 H 464.647 -1.43998 0.00664468 0
M  V30 5092 H 466.6 -3.47943 -2.37727 0
M  V30 5093 H 465.324 -2.23675 -2.37985 0
M  V30 5094 H 463.983 -3.59191 -0.733299 0
M  V30 5095 H 463.631 -3.88772 -3.19163 0
M  V30 5096 H 463.331 -5.40438 -2.30653 0
M  V30 5097 H 464.855 -5.19147 -3.21433 0
M  V30 5098 H 466.269 -5.64704 -0.989047 0
M  V30 5099 H 464.666 -5.99455 -0.27826 0
M  V30 5100 H 465.736 -4.82198 0.511173 0
M  V30 5101 N 467.08 -0.0183926 -1.57589 0
M  V30 5102 C 467.99 0.982943 -2.13015 0
M  V30 5103 C 469.006 1.36443 -1.07979 0
M  V30 5104 O 470.182 1.44802 -1.3998 0
M  V30 5105 C 467.247 2.25024 -2.63752 0
M  V30 5106 C 466.308 1.93018 -3.83461 0
M  V30 5107 C 465.541 3.13706 -4.31769 0
M  V30 5108 O 465.764 4.2601 -3.79305 0
M  V30 5109 O 464.698 2.96629 -5.23732 0
M  V30 5110 H 468.524 0.541709 -2.9883 0
M  V30 5111 H 466.109 0.201565 -1.48034 0
M  V30 5112 H 467.991 2.99441 -2.96502 0
M  V30 5113 H 466.666 2.68349 -1.81026 0
M  V30 5114 H 465.573 1.16019 -3.55655 0
M  V30 5115 H 466.906 1.54516 -4.67317 0
M  V30 5116 N 468.558 1.5553 0.254621 0
M  V30 5117 C 469.835 1.6774 1.00611 0
M  V30 5118 C 470.215 0.555993 2.03647 0
M  V30 5119 O 469.563 -0.441583 2.24193 0
M  V30 5120 C 469.773 3.07725 1.6464 0
M  V30 5121 C 471.121 3.66074 2.15116 0
M  V30 5122 O 472.145 3.10476 1.74595 0
M  V30 5123 O 471.004 4.63526 2.89493 0
M  V30 5124 H 468.098 0.681958 0.467828 0
M  V30 5125 H 470.644 1.67863 0.24902 0
M  V30 5126 H 469.416 3.80792 0.900734 0
M  V30 5127 H 469.039 3.1158 2.46989 0
M  V30 5128 N 470.036 -0.519951 1.48776 0
M  V30 5129 C 470.968 -1.63973 1.60142 0
M  V30 5130 C 471.981 -1.55404 0.485117 0
M  V30 5131 O 473.17 -1.61682 0.756391 0
M  V30 5132 C 470.27 -3.02676 1.52449 0
M  V30 5133 C 469.443 -3.36624 2.79291 0
M  V30 5134 C 468.502 -4.54652 2.64912 0
M  V30 5135 O 467.528 -4.57374 3.38818 0
M  V30 5136 N 468.73 -5.53432 1.75195 0
M  V30 5137 H 471.495 -1.54656 2.56713 0
M  V30 5138 H 469.056 -0.707439 1.45626 0
M  V30 5139 H 471.048 -3.79525 1.4051 0
M  V30 5140 H 469.618 -3.06018 0.638125 0
M  V30 5141 H 468.838 -2.48855 3.0572 0
M  V30 5142 H 470.126 -3.56094 3.6342 0
M  V30 5143 H 469.524 -5.54018 1.14371 0
M  V30 5144 H 468.081 -6.29459 1.69189 0
M  V30 5145 N 471.514 -1.37532 -0.769588 0
M  V30 5146 C 472.444 -1.36172 -1.89682 0
M  V30 5147 C 473.425 -0.23001 -1.68538 0
M  V30 5148 O 474.61 -0.43069 -1.89364 0
M  V30 5149 C 471.74 -1.1701 -3.26995 0
M  V30 5150 C 470.694 -2.27216 -3.62708 0
M  V30 5151 C 470.02 -1.93174 -4.98586 0
M  V30 5152 C 471.32 -3.6941 -3.69234 0
M  V30 5153 H 473.014 -2.30499 -1.91078 0
M  V30 5154 H 470.56 -1.10953 -0.917902 0
M  V30 5155 H 472.513 -1.14688 -4.05493 0
M  V30 5156 H 471.237 -0.191395 -3.26039 0
M  V30 5157 H 469.896 -2.28697 -2.86519 0
M  V30 5158 H 469.544 -0.938281 -4.94171 0
M  V30 5159 H 469.244 -2.66973 -5.23449 0
M  V30 5160 H 470.768 -1.92443 -5.79481 0
M  V30 5161 H 472.182 -3.70047 -4.37879 0
M  V30 5162 H 470.579 -4.4228 -4.05597 0
M  V30 5163 H 471.649 -4.0288 -2.69844 0
M  V30 5164 N 472.992 0.995999 -1.22138 0
M  V30 5165 C 473.955 2.06711 -0.990109 0
M  V30 5166 C 474.955 1.60744 0.0422978 0
M  V30 5167 O 476.145 1.73095 -0.195895 0
M  V30 5168 C 473.277 3.37288 -0.49491 0
M  V30 5169 H 474.47 2.28661 -1.94047 0
M  V30 5170 H 472.023 1.16711 -1.03963 0
M  V30 5171 H 472.758 3.21022 0.459948 0
M  V30 5172 H 472.543 3.71986 -1.23971 0
M  V30 5173 H 474.033 4.16103 -0.353253 0
M  V30 5174 N 474.47 1.03057 1.19235 0
M  V30 5175 C 475.718 0.726581 1.88587 0
M  V30 5176 C 476.039 -0.747227 1.80115 0
M  V30 5177 O 475.309 -1.53849 1.21274 0
M  V30 5178 H 473.889 0.265768 0.698124 0
M  V30 5179 H 476.551 1.30516 1.44746 0
M  V30 5180 H 475.647 1.0224 2.94879 0
M  V30 5181 N 475.948 -1.35272 0.808662 0
M  V30 5182 C 477.359 -1.81179 0.450688 0
M  V30 5183 C 477.71 -1.67143 -1.02751 0
M  V30 5184 O 476.835 -1.20325 -1.79864 0
M  V30 5185 C 477.43 -3.28943 0.811275 0
M  V30 5186 C 475.989 -3.72985 0.505871 0
M  V30 5187 C 475.136 -2.57229 1.03578 0
M  V30 5188 H 478.087 -1.2322 1.00012 0
M  V30 5189 H 478.108 -3.80342 0.109588 0
M  V30 5190 H 477.62 -3.39127 1.88718 0
M  V30 5191 H 475.721 -3.68349 -0.561209 0
M  V30 5192 H 475.834 -4.67677 1.03995 0
M  V30 5193 H 474.198 -2.50548 0.458005 0
M  V30 5194 H 474.981 -2.7019 2.11784 0
M  V30 5195 N 477.426 -0.562348 -1.47226 0
M  V30 5196 C 478.651 -0.0432632 -2.07355 0
M  V30 5197 C 479.076 1.24332 -1.41149 0
M  V30 5198 O 478.434 1.74603 -0.488226 0
M  V30 5199 C 478.482 0.130288 -3.60365 0
M  V30 5200 O 477.586 1.19166 -3.94808 0
M  V30 5201 H 476.927 -0.0536334 -0.66183 0
M  V30 5202 H 479.457 -0.779495 -1.89169 0
M  V30 5203 H 479.467 0.342881 -4.06557 0
M  V30 5204 H 478.142 -0.809389 -4.07948 0
M  V30 5205 H 476.719 0.959153 -3.60354 0
M  V30 5206 N 478.904 1.54736 -0.299062 0
M  V30 5207 C 480.129 2.04975 0.316254 0
M  V30 5208 C 480.554 1.17501 1.46885 0
M  V30 5209 O 479.912 0.178678 1.80417 0
M  V30 5210 C 479.96 3.52672 0.751997 0
M  V30 5211 O 479.064 3.68226 1.85697 0
M  V30 5212 H 478.405 0.661126 0.0617175 0
M  V30 5213 H 480.935 1.99805 -0.440341 0
M  V30 5214 H 480.945 3.94488 1.04133 0
M  V30 5215 H 479.62 4.158 -0.0911482 0
M  V30 5216 H 478.197 3.38316 1.56834 0
M  V30 5217 N 480.382 0.0267497 1.57577 0
M  V30 5218 C 481.61 -0.662661 1.96001 0
M  V30 5219 C 482.025 -1.65799 0.903117 0
M  V30 5220 O 481.382 -1.82135 -0.115317 0
M  V30 5221 C 481.433 -1.37112 3.34488 0
M  V30 5222 O 481.154 -0.415683 4.36123 0
M  V30 5223 C 482.655 -2.15257 3.8753 0
M  V30 5224 H 479.875 -0.18287 0.6456 0
M  V30 5225 H 482.419 0.0858116 2.0432 0
M  V30 5226 H 480.574 -2.07101 3.27395 0
M  V30 5227 H 480.988 -0.918496 5.16395 0
M  V30 5228 H 482.462 -2.60285 4.86781 0
M  V30 5229 H 482.939 -2.99063 3.21649 0
M  V30 5230 H 483.545 -1.50231 3.97883 0
M  V30 5231 N 481.861 -1.55662 -0.24637 0
M  V30 5232 C 482.771 -1.93495 -1.32653 0
M  V30 5233 C 483.787 -0.835462 -1.5263 0
M  V30 5234 O 484.963 -1.1369 -1.66242 0
M  V30 5235 C 482.028 -2.22242 -2.66101 0
M  V30 5236 C 481.089 -3.45625 -2.54641 0
M  V30 5237 C 480.322 -3.72991 -3.81724 0
M  V30 5238 O 480.545 -3.02421 -4.8363 0
M  V30 5239 O 479.479 -4.66515 -3.80325 0
M  V30 5240 H 483.305 -2.85498 -1.03559 0
M  V30 5241 H 480.89 -1.42551 -0.44717 0
M  V30 5242 H 482.772 -2.42037 -3.44958 0
M  V30 5243 H 481.447 -1.33417 -2.94926 0
M  V30 5244 H 480.354 -3.31136 -1.74067 0
M  V30 5245 H 481.687 -4.34754 -2.3076 0
M  V30 5246 N 483.339 0.512053 -1.4905 0
M  V30 5247 C 484.302 1.59704 -1.64399 0
M  V30 5248 C 485.302 1.52285 -0.516317 0
M  V30 5249 O 486.492 1.55635 -0.782527 0
M  V30 5250 C 483.624 2.9935 -1.63102 0
M  V30 5251 H 484.817 1.47428 -2.61161 0
M  V30 5252 H 482.37 0.735469 -1.37915 0
M  V30 5253 H 483.105 3.17116 -0.678836 0
M  V30 5254 H 482.89 3.06144 -2.44986 0
M  V30 5255 H 484.38 3.782 -1.77072 0
M  V30 5256 N 484.817 1.37938 0.762283 0
M  V30 5257 C 486.047 1.36685 1.54922 0
M  V30 5258 C 486.455 -0.0474099 1.89141 0
M  V30 5259 O 485.798 -1.02213 1.52638 0
M  V30 5260 C 485.86 2.14963 2.88152 0
M  V30 5261 C 485.524 3.6385 2.76518 0
M  V30 5262 C 486.521 4.57531 2.46904 0
M  V30 5263 C 484.206 4.07095 2.94243 0
M  V30 5264 C 486.2 5.92436 2.35156 0
M  V30 5265 C 483.887 5.42083 2.82116 0
M  V30 5266 C 484.885 6.34567 2.52614 0
M  V30 5267 O 484.573 7.67073 2.40529 0
M  V30 5268 H 484.305 0.469586 0.486276 0
M  V30 5269 H 486.859 1.82012 0.951876 0
M  V30 5270 H 485.089 1.6434 3.50042 0
M  V30 5271 H 486.778 2.06224 3.49609 0
M  V30 5272 H 487.544 4.25428 2.32886 0
M  V30 5273 H 483.423 3.35462 3.16206 0
M  V30 5274 H 486.967 6.64591 2.12049 0
M  V30 5275 H 482.864 5.73785 2.95704 0
M  V30 5276 H 483.632 7.77499 2.55807 0
M  V30 5277 N 486.295 -0.989507 1.22664 0
M  V30 5278 C 487.544 -1.72375 1.04737 0
M  V30 5279 C 487.857 -1.91096 -0.417316 0
M  V30 5280 O 489.063 -2.6188 -0.716334 0
M  V30 5281 C 487.519 -3.10161 1.82561 0
M  V30 5282 C 487.127 -2.99358 3.333 0
M  V30 5283 C 488.871 -3.87607 1.73093 0
M  V30 5284 C 486.778 -4.32319 4.03552 0
M  V30 5285 H 485.708 -0.646326 0.388302 0
M  V30 5286 H 488.359 -1.10437 1.46546 0
M  V30 5287 H 486.741 -3.728 1.33552 0
M  V30 5288 H 487.915 -2.45863 3.89728 0
M  V30 5289 H 486.23 -2.35392 3.43481 0
M  V30 5290 H 488.827 -4.86025 2.22899 0
M  V30 5291 H 489.17 -4.10509 0.691976 0
M  V30 5292 H 489.703 -3.31652 2.19663 0
M  V30 5293 H 486.442 -4.14616 5.07714 0
M  V30 5294 H 485.962 -4.85714 3.51911 0
M  V30 5295 H 487.641 -5.01051 4.09337 0
M  V30 5296 N 487.773 -1.03688 -1.18687 0
M  V30 5297 C 489.189 -0.755413 -1.4059 0
M  V30 5298 C 489.389 0.656659 -1.905 0
M  V30 5299 O 488.445 1.42144 -2.08689 0
M  V30 5300 C 489.758 -1.7983 -2.41001 0
M  V30 5301 C 491.306 -1.81877 -2.54735 0
M  V30 5302 C 491.781 -2.85148 -3.58406 0
M  V30 5303 N 493.272 -2.84015 -3.6591 0
M  V30 5304 C 494.007 -3.60573 -4.45841 0
M  V30 5305 N 493.503 -4.46871 -5.29413 0
M  V30 5306 N 495.296 -3.49079 -4.40568 0
M  V30 5307 H 487.447 -1.94818 -0.846148 0
M  V30 5308 H 489.71 -0.842727 -0.434184 0
M  V30 5309 H 489.416 -2.81097 -2.1137 0
M  V30 5310 H 489.29 -1.62727 -3.40294 0
M  V30 5311 H 491.677 -0.812836 -2.83685 0
M  V30 5312 H 491.758 -2.03057 -1.55568 0
M  V30 5313 H 491.402 -3.85918 -3.30197 0
M  V30 5314 H 491.332 -2.61224 -4.57241 0
M  V30 5315 H 493.823 -2.21431 -3.0623 0
M  V30 5316 H 494.136 -5.02007 -5.87545 0
M  V30 5317 H 492.481 -4.5094 -5.28846 0
M  V30 5318 H 495.672 -2.81066 -3.74325 0
M  V30 5319 H 495.845 -4.08994 -5.02621 0
M  V30 5320 N 489.251 1.34841 -0.815825 0
M  V30 5321 C 490.214 2.27959 -0.238185 0
M  V30 5322 C 491.214 1.49983 0.579816 0
M  V30 5323 O 492.404 1.69617 0.396953 0
M  V30 5324 C 489.536 3.34314 0.666876 0
M  V30 5325 H 490.729 2.80558 -1.05958 0
M  V30 5326 H 488.282 1.44852 -0.587156 0
M  V30 5327 H 489.017 2.86916 1.5116 0
M  V30 5328 H 488.802 3.92014 0.0819106 0
M  V30 5329 H 490.292 4.0379 1.06506 0
M  V30 5330 N 490.729 0.570148 1.46925 0
M  V30 5331 C 491.659 -0.158274 2.32963 0
M  V30 5332 C 492.64 -0.896093 1.44583 0
M  V30 5333 O 493.825 -0.874022 1.7342 0
M  V30 5334 C 490.955 -1.18055 3.26619 0
M  V30 5335 C 489.909 -0.558379 4.24342 0
M  V30 5336 C 489.235 -1.68623 5.07415 0
M  V30 5337 C 490.535 0.496295 5.19937 0
M  V30 5338 H 492.229 0.560046 2.94115 0
M  V30 5339 H 489.775 0.270775 1.41431 0
M  V30 5340 H 491.728 -1.69841 3.85658 0
M  V30 5341 H 490.452 -1.92899 2.63548 0
M  V30 5342 H 489.111 -0.0617157 3.66548 0
M  V30 5343 H 488.759 -2.42402 4.40738 0
M  V30 5344 H 488.459 -1.27564 5.73586 0
M  V30 5345 H 489.983 -2.20709 5.69315 0
M  V30 5346 H 491.397 0.0640052 5.73264 0
M  V30 5347 H 489.794 0.82649 5.94381 0
M  V30 5348 H 490.864 1.38735 4.6463 0
M  V30 5349 N 492.207 -1.54576 0.307264 0
M  V30 5350 C 493.447 -2.02172 -0.300962 0
M  V30 5351 C 493.811 -1.19081 -1.50611 0
M  V30 5352 O 495.012 -1.56405 -2.18612 0
M  V30 5353 C 493.283 -3.51576 -0.642591 0
M  V30 5354 S 494.842 -4.21127 -1.23279 0
M  V30 5355 H 491.66 -0.705021 -0.0920141 0
M  V30 5356 H 494.262 -1.90563 0.436594 0
M  V30 5357 H 492.966 -4.09681 0.242901 0
M  V30 5358 H 492.497 -3.67234 -1.41077 0
M  V30 5359 H 494.512 -4.27426 -2.52034 0
M  V30 5360 N 493.685 -0.035106 -1.57561 0
M  V30 5361 C 494.632 0.94474 -2.10578 0
M  V30 5362 C 495.602 1.3192 -1.00927 0
M  V30 5363 O 496.787 1.41147 -1.28382 0
M  V30 5364 C 493.927 2.21982 -2.64231 0
M  V30 5365 C 493.04 1.90128 -3.87911 0
M  V30 5366 C 492.175 3.11975 -4.29936 0
M  V30 5367 C 491.214 2.75968 -5.46359 0
M  V30 5368 N 490.351 3.90459 -5.83512 0
M  V30 5369 H 495.191 0.485717 -2.94015 0
M  V30 5370 H 492.728 0.228143 -1.4532 0
M  V30 5371 H 494.686 2.96572 -2.9343 0
M  V30 5372 H 493.316 2.6549 -1.83616 0
M  V30 5373 H 492.368 1.05755 -3.65404 0
M  V30 5374 H 493.68 1.59613 -4.72573 0
M  V30 5375 H 492.834 3.9488 -4.60603 0
M  V30 5376 H 491.573 3.45657 -3.44053 0
M  V30 5377 H 490.578 1.91478 -5.1538 0
M  V30 5378 H 491.803 2.43497 -6.33945 0
M  V30 5379 H 489.749 4.23971 -5.00584 0
M  V30 5380 H 489.666 3.63588 -6.62827 0
M  V30 5381 H 490.934 4.7405 -6.18787 0
M  V30 5382 N 495.163 1.55791 0.238111 0
M  V30 5383 C 496.411 1.77681 0.963001 0
M  V30 5384 C 496.732 0.600674 1.85518 0
M  V30 5385 O 496.002 -0.383182 1.92116 0
M  V30 5386 H 494.582 0.655315 0.358568 0
M  V30 5387 H 497.244 1.93239 0.253945 0
M  V30 5388 H 496.34 2.69177 1.57956 0
M  V30 5389 N 496.642 -0.504142 1.49319 0
M  V30 5390 C 497.882 -1.26867 1.60263 0
M  V30 5391 C 498.246 -1.89924 0.281578 0
M  V30 5392 O 499.447 -2.67479 0.266176 0
M  V30 5393 C 497.718 -2.30956 2.72753 0
M  V30 5394 S 499.277 -3.1679 3.03628 0
M  V30 5395 H 496.095 -0.431198 0.565322 0
M  V30 5396 H 498.697 -0.571407 1.86963 0
M  V30 5397 H 497.401 -1.83156 3.67263 0
M  V30 5398 H 496.932 -3.05356 2.48035 0
M  V30 5399 H 498.947 -4.31549 2.44908 0
M  V30 5400 N 498.12 -1.38341 -0.754957 0
M  V30 5401 C 499.536 -1.19508 -1.05783 0
M  V30 5402 C 499.736 -0.0428005 -2.01455 0
M  V30 5403 O 498.792 0.611861 -2.44975 0
M  V30 5404 C 500.105 -2.52091 -1.63923 0
M  V30 5405 C 501.653 -2.58762 -1.76101 0
M  V30 5406 C 502.128 -3.91517 -2.37652 0
M  V30 5407 N 503.619 -3.93049 -2.45085 0
M  V30 5408 C 504.354 -4.9253 -2.93602 0
M  V30 5409 N 503.85 -6.02408 -3.42165 0
M  V30 5410 N 505.643 -4.79921 -2.92629 0
M  V30 5411 H 497.794 -2.1206 -0.120056 0
M  V30 5412 H 500.057 -0.94089 -0.11589 0
M  V30 5413 H 499.763 -3.36858 -1.01093 0
M  V30 5414 H 499.637 -2.70388 -2.63003 0
M  V30 5415 H 502.024 -1.74391 -2.38058 0
M  V30 5416 H 502.105 -2.44333 -0.757294 0
M  V30 5417 H 501.749 -4.76309 -1.76329 0
M  V30 5418 H 501.679 -4.03256 -3.38662 0
M  V30 5419 H 504.17 -3.13685 -2.10736 0
M  V30 5420 H 504.483 -6.74248 -3.77637 0
M  V30 5421 H 502.828 -6.0603 -3.40225 0
M  V30 5422 H 506.019 -3.93194 -2.54001 0
M  V30 5423 H 506.192 -5.57601 -3.30128 0
M  V30 5424 N 499.598 0.982988 -1.23187 0
M  V30 5425 C 500.838 1.73903 -1.07412 0
M  V30 5426 C 501.202 1.88146 0.382764 0
M  V30 5427 O 502.403 2.6053 0.661638 0
M  V30 5428 C 500.674 3.10105 -1.77678 0
M  V30 5429 S 502.233 4.01323 -1.77441 0
M  V30 5430 H 499.051 0.598093 -0.384456 0
M  V30 5431 H 501.653 1.17456 -1.56283 0
M  V30 5432 H 500.357 2.97388 -2.82822 0
M  V30 5433 H 499.888 3.71622 -1.29077 0
M  V30 5434 H 501.903 4.89189 -0.831162 0
M  V30 5435 N 501.076 1.04316 1.18135 0
M  V30 5436 C 502.006 0.657299 2.24058 0
M  V30 5437 C 502.987 -0.340678 1.66654 0
M  V30 5438 O 504.172 -0.220223 1.92947 0
M  V30 5439 C 501.302 0.0220715 3.47293 0
M  V30 5440 C 500.256 0.943857 4.17463 0
M  V30 5441 C 499.582 0.172973 5.3442 0
M  V30 5442 C 500.882 2.26409 4.70677 0
M  V30 5443 H 502.576 1.5428 2.56589 0
M  V30 5444 H 500.122 0.743263 1.23335 0
M  V30 5445 H 502.075 -0.259607 4.206 0
M  V30 5446 H 500.799 -0.898323 3.14003 0
M  V30 5447 H 499.458 1.20996 3.46057 0
M  V30 5448 H 499.106 -0.749907 4.97379 0
M  V30 5449 H 498.806 0.787098 5.82304 0
M  V30 5450 H 500.33 -0.101628 6.10515 0
M  V30 5451 H 501.744 2.04294 5.35665 0
M  V30 5452 H 500.141 2.8314 5.29105 0
M  V30 5453 H 501.211 2.90883 3.87962 0
M  V30 5454 N 502.554 -1.34406 0.822964 0
M  V30 5455 C 503.464 -2.33298 0.246838 0
M  V30 5456 C 504.48 -1.62625 -0.618797 0
M  V30 5457 O 505.656 -1.94391 -0.526685 0
M  V30 5458 C 502.721 -3.41785 -0.581731 0
M  V30 5459 C 501.782 -4.28206 0.306309 0
M  V30 5460 C 501.015 -5.31512 -0.48281 0
M  V30 5461 O 501.238 -5.43973 -1.71607 0
M  V30 5462 O 500.172 -6.01749 0.134884 0
M  V30 5463 H 503.998 -2.84401 1.06534 0
M  V30 5464 H 501.583 -1.37466 0.585108 0
M  V30 5465 H 503.465 -4.08028 -1.05313 0
M  V30 5466 H 502.14 -2.92925 -1.37756 0
M  V30 5467 H 501.047 -3.64885 0.825199 0
M  V30 5468 H 502.38 -4.80507 1.06649 0
M  V30 5469 N 504.032 -0.577932 -1.46621 0
M  V30 5470 C 504.962 0.145917 -2.33044 0
M  V30 5471 C 505.943 0.888412 -1.45056 0
M  V30 5472 O 507.128 0.864812 -1.73881 0
M  V30 5473 C 504.258 1.16322 -3.27241 0
M  V30 5474 C 503.212 0.535868 -4.24632 0
M  V30 5475 C 502.538 1.65929 -5.08303 0
M  V30 5476 C 503.838 -0.523861 -5.19666 0
M  V30 5477 H 505.532 -0.575636 -2.93814 0
M  V30 5478 H 503.078 -0.278272 -1.41286 0
M  V30 5479 H 505.031 1.67793 -3.86553 0
M  V30 5480 H 503.755 1.91498 -2.64567 0
M  V30 5481 H 502.414 0.0422759 -3.66576 0
M  V30 5482 H 502.062 2.40061 -4.42018 0
M  V30 5483 H 501.762 1.2452 -5.74255 0
M  V30 5484 H 503.286 2.17686 -5.70478 0
M  V30 5485 H 504.7 -0.0944059 -5.73222 0
M  V30 5486 H 503.097 -0.858 -5.93935 0
M  V30 5487 H 504.167 -1.41197 -4.63887 0
M  V30 5488 N 505.51 1.54411 -0.315457 0
M  V30 5489 C 506.787 1.92562 0.343398 0
M  V30 5490 C 507.167 1.24423 1.70535 0
M  V30 5491 O 506.515 0.385051 2.25232 0
M  V30 5492 C 506.725 3.46168 0.443687 0
M  V30 5493 C 508.073 4.18659 0.707783 0
M  V30 5494 O 509.097 3.52281 0.52693 0
M  V30 5495 O 507.956 5.36198 1.05612 0
M  V30 5496 H 505.05 0.80379 0.194552 0
M  V30 5497 H 507.596 1.65738 -0.364577 0
M  V30 5498 H 506.368 3.8792 -0.513172 0
M  V30 5499 H 505.991 3.79073 1.19956 0
M  V30 5500 N 506.988 0.0434614 1.5754 0
M  V30 5501 C 508.228 -0.636023 1.94253 0
M  V30 5502 C 508.592 -1.68461 0.921132 0
M  V30 5503 O 509.793 -2.41762 1.17494 0
M  V30 5504 C 508.064 -1.22357 3.35803 0
M  V30 5505 S 509.623 -1.92213 3.94461 0
M  V30 5506 H 506.441 -0.209041 0.679575 0
M  V30 5507 H 509.043 0.110556 1.95187 0
M  V30 5508 H 507.747 -0.448162 4.07946 0
M  V30 5509 H 507.278 -2.00713 3.38346 0
M  V30 5510 H 509.293 -3.20199 3.79061 0
M  V30 5511 N 508.466 -1.55915 -0.229846 0
M  V30 5512 C 509.712 -1.79718 -0.952517 0
M  V30 5513 C 510.067 -0.61514 -1.82301 0
M  V30 5514 O 509.36 0.391098 -1.87566 0
M  V30 5515 C 509.554 -3.06845 -1.8325 0
M  V30 5516 C 509.383 -4.37302 -1.04868 0
M  V30 5517 C 508.153 -4.99749 -0.746932 0
M  V30 5518 C 510.351 -5.12599 -0.417989 0
M  V30 5519 N 508.333 -6.13871 0.0591596 0
M  V30 5520 C 509.704 -6.19488 0.251879 0
M  V30 5521 C 511.759 -4.96804 -0.33018 0
M  V30 5522 C 510.462 -7.12299 1.00115 0
M  V30 5523 C 512.488 -5.90007 0.4056 0
M  V30 5524 C 511.85 -6.96317 1.06404 0
M  V30 5525 H 507.949 -0.709382 -0.329091 0
M  V30 5526 H 510.533 -1.93406 -0.224114 0
M  V30 5527 H 508.704 -2.94456 -2.53279 0
M  V30 5528 H 510.436 -3.18874 -2.49202 0
M  V30 5529 H 507.191 -4.61518 -1.06292 0
M  V30 5530 H 507.615 -6.75497 0.450798 0
M  V30 5531 H 512.257 -4.14675 -0.824898 0
M  V30 5532 H 509.975 -7.93916 1.50741 0
M  V30 5533 H 513.561 -5.79862 0.474436 0
M  V30 5534 H 512.441 -7.67194 1.62429 0
M  V30 5535 N 509.944 0.496216 -1.49584 0
M  V30 5536 C 511.221 1.25755 -1.49816 0
M  V30 5537 C 511.601 2.09859 -0.228572 0
M  V30 5538 O 510.949 2.14449 0.788908 0
M  V30 5539 C 511.159 2.11017 -2.7798 0
M  V30 5540 C 512.507 2.70047 -3.27658 0
M  V30 5541 O 513.531 2.21281 -2.79129 0
M  V30 5542 O 512.39 3.58834 -4.1219 0
M  V30 5543 H 509.484 0.569322 -0.599834 0
M  V30 5544 H 512.03 0.510094 -1.61852 0
M  V30 5545 H 510.802 1.48879 -3.61871 0
M  V30 5546 H 510.425 2.92947 -2.68827 0
M  V30 5547 N 511.423 1.38739 0.74761 0
M  V30 5548 C 512.671 1.35007 1.50391 0
M  V30 5549 C 512.992 -0.0574274 1.94915 0
M  V30 5550 O 512.262 -1.00628 1.6808 0
M  V30 5551 H 510.842 0.496784 0.557866 0
M  V30 5552 H 513.504 1.73479 0.888319 0
M  V30 5553 H 512.6 2.00474 2.392 0
M  V30 5554 N 512.901 -0.976442 1.23707 0
M  V30 5555 C 514.312 -1.53284 1.06587 0
M  V30 5556 C 514.663 -1.92765 -0.365526 0
M  V30 5557 O 513.788 -1.7645 -1.25277 0
M  V30 5558 C 514.383 -2.78548 1.92864 0
M  V30 5559 C 512.942 -3.30574 1.79994 0
M  V30 5560 C 512.089 -2.03538 1.88328 0
M  V30 5561 H 515.04 -0.795692 1.37311 0
M  V30 5562 H 515.061 -3.5155 1.45577 0
M  V30 5563 H 514.573 -2.49782 2.97037 0
M  V30 5564 H 512.674 -3.64211 0.786202 0
M  V30 5565 H 512.787 -4.00065 2.636 0
M  V30 5566 H 511.151 -2.17853 1.31954 0
M  V30 5567 H 511.934 -1.77149 2.94063 0
M  V30 5568 N 514.379 -1.04941 -1.1758 0
M  V30 5569 C 515.327 -0.64204 -2.23563 0
M  V30 5570 C 516.321 0.335453 -1.66045 0
M  V30 5571 O 517.527 0.20179 -1.78865 0
M  V30 5572 H 513.902 -0.18944 -0.727748 0
M  V30 5573 H 515.873 -1.54609 -2.55223 0
M  V30 5574 C 514.622 -0.0301051 -3.47687 0
M  V30 5575 H 513.945 -0.773339 -3.92249 0
M  V30 5576 H 515.385 0.217592 -4.23441 0
M  V30 5577 C 513.844 1.2225 -3.13937 0
M  V30 5578 O 514.374 2.3122 -3.28482 0
M  V30 5579 N 512.58 1.11917 -2.68185 0
M  V30 5580 H 512.127 0.232403 -2.5655 0
M  V30 5581 H 512.085 1.95814 -2.45976 0
M  V30 5582 N 515.857 1.33968 -0.830081 0
M  V30 5583 C 516.789 2.28194 -0.21448 0
M  V30 5584 C 517.802 1.5135 0.599752 0
M  V30 5585 O 518.991 1.73286 0.42826 0
M  V30 5586 C 516.091 3.31221 0.717356 0
M  V30 5587 C 515.264 4.37365 -0.055613 0
M  V30 5588 C 514.323 5.2011 0.798231 0
M  V30 5589 O 513.349 5.68691 0.240616 0
M  V30 5590 N 514.551 5.40523 2.11695 0
M  V30 5591 H 517.316 2.81662 -1.02405 0
M  V30 5592 H 514.877 1.46568 -0.687713 0
M  V30 5593 H 516.869 3.83477 1.29334 0
M  V30 5594 H 515.439 2.78095 1.42765 0
M  V30 5595 H 514.659 3.85727 -0.812936 0
M  V30 5596 H 515.947 5.05397 -0.587444 0
M  V30 5597 H 515.345 5.0274 2.59363 0
M  V30 5598 H 513.902 5.95871 2.64162 0
M  V30 5599 N 517.335 0.585699 1.46312 0
M  V30 5600 C 518.245 -0.148236 2.34131 0
M  V30 5601 C 519.261 -0.882972 1.49932 0
M  V30 5602 O 520.437 -0.845484 1.82794 0
M  V30 5603 C 517.502 -1.14714 3.27172 0
M  V30 5604 C 516.563 -0.416746 4.27272 0
M  V30 5605 C 515.796 -1.36806 5.15868 0
M  V30 5606 O 516.019 -2.60475 5.07454 0
M  V30 5607 O 514.953 -0.877018 5.95476 0
M  V30 5608 H 518.779 0.572882 2.98248 0
M  V30 5609 H 516.364 0.346082 1.45336 0
M  V30 5610 H 518.246 -1.72303 3.84564 0
M  V30 5611 H 516.921 -1.84967 2.65648 0
M  V30 5612 H 515.828 0.201061 3.73559 0
M  V30 5613 H 517.161 0.244872 4.9159 0
M  V30 5614 N 518.813 -1.54241 0.323641 0
M  V30 5615 C 520.224 -1.85975 -0.164405 0
M  V30 5616 C 520.575 -1.24529 -1.51615 0
M  V30 5617 O 519.7 -0.551351 -2.09258 0
M  V30 5618 C 520.295 -3.37424 -0.305091 0
M  V30 5619 C 518.854 -3.69107 -0.737358 0
M  V30 5620 C 518.001 -2.76942 0.140884 0
M  V30 5621 H 520.952 -1.49088 0.543922 0
M  V30 5622 H 520.973 -3.63147 -1.13598 0
M  V30 5623 H 520.485 -3.82116 0.678876 0
M  V30 5624 H 518.586 -3.29947 -1.73107 0
M  V30 5625 H 518.699 -4.76035 -0.541053 0
M  V30 5626 H 517.063 -2.51795 -0.383572 0
M  V30 5627 H 517.846 -3.24461 1.12162 0
M  V30 5628 N 520.291 -0.0518155 -1.57515 0
M  V30 5629 C 521.54 0.621286 -1.91893 0
M  V30 5630 C 521.853 1.71966 -0.932052 0
M  V30 5631 O 523.059 2.45096 -1.16791 0
M  V30 5632 C 521.515 1.15641 -3.40816 0
M  V30 5633 C 521.123 0.0901146 -4.47909 0
M  V30 5634 C 522.867 1.80472 -3.84227 0
M  V30 5635 C 520.774 0.638154 -5.87947 0
M  V30 5636 H 519.704 0.235835 -0.716169 0
M  V30 5637 H 522.355 -0.120809 -1.83102 0
M  V30 5638 H 520.737 1.95084 -3.44613 0
M  V30 5639 H 521.911 -0.683525 -4.55702 0
M  V30 5640 H 520.226 -0.460774 -4.13843 0
M  V30 5641 H 522.823 2.22471 -4.86221 0
M  V30 5642 H 523.166 2.65669 -3.20508 0
M  V30 5643 H 523.699 1.07683 -3.82948 0
M  V30 5644 H 520.438 -0.176202 -6.55263 0
M  V30 5645 H 519.958 1.37976 -5.83714 0
M  V30 5646 H 521.637 1.12085 -6.37217 0
M  V30 5647 N 521.769 1.56035 0.221574 0
M  V30 5648 C 523.018 1.78245 0.944016 0
M  V30 5649 C 523.331 0.620371 1.85501 0
M  V30 5650 O 524.537 0.726103 2.6161 0
M  V30 5651 C 522.993 3.15659 1.7288 0
M  V30 5652 C 522.601 4.39591 0.863942 0
M  V30 5653 C 524.345 3.47195 2.44246 0
M  V30 5654 C 522.252 5.6803 1.64607 0
M  V30 5655 H 521.182 0.664547 0.356222 0
M  V30 5656 H 523.833 1.8243 0.197904 0
M  V30 5657 H 522.215 3.0565 2.51781 0
M  V30 5658 H 523.389 4.60655 0.115464 0
M  V30 5659 H 521.704 4.15572 0.262407 0
M  V30 5660 H 524.301 4.40381 3.03263 0
M  V30 5661 H 524.644 2.69693 3.1713 0
M  V30 5662 H 525.177 3.58533 1.72334 0
M  V30 5663 H 521.916 6.48425 0.960507 0
M  V30 5664 H 521.436 5.51027 2.36917 0
M  V30 5665 H 523.115 6.08203 2.20675 0
M  V30 5666 N 523.247 -0.488276 1.49845 0
M  V30 5667 C 524.477 -1.26344 1.63465 0
M  V30 5668 C 524.885 -1.86637 0.310379 0
M  V30 5669 O 524.228 -1.69184 -0.715712 0
M  V30 5670 C 524.29 -2.42407 2.65479 0
M  V30 5671 C 523.954 -2.02886 4.09495 0
M  V30 5672 C 524.951 -1.56124 4.95904 0
M  V30 5673 C 522.636 -2.12131 4.55308 0
M  V30 5674 C 524.63 -1.19129 6.26169 0
M  V30 5675 C 522.317 -1.74747 5.85582 0
M  V30 5676 C 523.315 -1.28322 6.70837 0
M  V30 5677 O 523.003 -0.914491 7.98682 0
M  V30 5678 H 522.735 -0.388921 0.552916 0
M  V30 5679 H 525.289 -0.591288 1.96705 0
M  V30 5680 H 523.519 -3.12739 2.27445 0
M  V30 5681 H 525.208 -3.04409 2.68495 0
M  V30 5682 H 525.974 -1.48417 4.61733 0
M  V30 5683 H 521.853 -2.47217 3.89107 0
M  V30 5684 H 525.397 -0.828211 6.92666 0
M  V30 5685 H 521.294 -1.82109 6.19279 0
M  V30 5686 H 522.062 -1.04485 8.11804 0
M  V30 5687 N 524.725 -1.39134 -0.740242 0
M  V30 5688 C 525.675 -1.33928 -1.84519 0
M  V30 5689 C 526.659 -0.221097 -1.59374 0
M  V30 5690 O 527.851 -0.458195 -1.70967 0
M  V30 5691 C 524.98 -1.17991 -3.22387 0
M  V30 5692 C 524.066 -2.34488 -3.53378 0
M  V30 5693 N 524.457 -3.59954 -3.5534 0
M  V30 5694 C 522.755 -2.27331 -3.83714 0
M  V30 5695 C 523.456 -4.36962 -3.83978 0
M  V30 5696 N 522.432 -3.66482 -4.01487 0
M  V30 5697 H 526.234 -2.28907 -1.84333 0
M  V30 5698 H 523.748 -1.32555 -0.938237 0
M  V30 5699 H 525.745 -1.12345 -4.01478 0
M  V30 5700 H 524.405 -0.23957 -3.23815 0
M  V30 5701 H 525.416 -3.93448 -3.36778 0
M  V30 5702 H 522.093 -1.41531 -3.92779 0
M  V30 5703 H 523.483 -5.45692 -3.92008 0
M  V30 5704 N 526.204 0.969867 -1.24223 0
M  V30 5705 C 527.452 1.70918 -1.0785 0
M  V30 5706 C 527.773 1.91186 0.383763 0
M  V30 5707 O 527.043 1.48806 1.27411 0
M  V30 5708 H 525.623 0.633334 -0.396103 0
M  V30 5709 H 528.285 1.16689 -1.56108 0
M  V30 5710 H 527.381 2.69455 -1.57482 0
M  V30 5711 N 527.682 1.05563 1.17022 0
M  V30 5712 C 528.912 0.787307 1.91011 0
M  V30 5713 C 529.32 -0.661256 1.77268 0
M  V30 5714 O 528.663 -1.46379 1.10991 0
M  V30 5715 C 528.725 1.09313 3.42478 0
M  V30 5716 C 528.389 2.53863 3.80004 0
M  V30 5717 C 529.386 3.52081 3.82538 0
M  V30 5718 C 527.071 2.88969 4.10855 0
M  V30 5719 C 529.065 4.83449 4.15399 0
M  V30 5720 C 526.752 4.2054 4.43384 0
M  V30 5721 C 527.75 5.17589 4.45635 0
M  V30 5722 O 527.438 6.46799 4.77395 0
M  V30 5723 H 527.17 0.285463 0.61277 0
M  V30 5724 H 529.724 1.41051 1.49311 0
M  V30 5725 H 527.954 0.412833 3.8449 0
M  V30 5726 H 529.643 0.810224 3.97731 0
M  V30 5727 H 530.409 3.26299 3.58823 0
M  V30 5728 H 526.288 2.1409 4.08272 0
M  V30 5729 H 529.832 5.59194 4.1707 0
M  V30 5730 H 525.729 4.46083 4.66563 0
M  V30 5731 H 526.497 6.51677 4.95237 0
M  V30 5732 N 529.16 -1.33526 0.837174 0
M  V30 5733 C 530.388 -2.02047 0.445494 0
M  V30 5734 C 530.803 -1.62995 -0.952788 0
M  V30 5735 O 530.16 -0.842447 -1.61892 0
M  V30 5736 C 530.211 -3.57221 0.554577 0
M  V30 5737 O 529.932 -3.94863 1.89776 0
M  V30 5738 C 531.433 -4.43012 0.159634 0
M  V30 5739 H 528.653 -0.647221 0.177048 0
M  V30 5740 H 531.197 -1.70492 1.12928 0
M  V30 5741 H 529.352 -3.87315 -0.0812781 0
M  V30 5742 H 529.766 -4.89569 1.88208 0
M  V30 5743 H 531.24 -5.51253 0.28701 0
M  V30 5744 H 531.717 -4.29916 -0.898289 0
M  V30 5745 H 532.323 -4.18274 0.769855 0
M  V30 5746 N 530.638 -0.59345 -1.46 0
M  V30 5747 C 531.885 -0.0831523 -2.02329 0
M  V30 5748 C 532.213 1.28093 -1.46364 0
M  V30 5749 O 531.468 1.85526 -0.622793 0
M  V30 5750 C 531.767 0.021178 -3.57394 0
M  V30 5751 C 531.433 -1.27671 -4.32448 0
M  V30 5752 C 530.095 -1.63227 -4.5267 0
M  V30 5753 C 532.447 -2.13511 -4.7546 0
M  V30 5754 C 529.775 -2.84401 -5.1316 0
M  V30 5755 C 532.127 -3.33922 -5.37289 0
M  V30 5756 C 530.791 -3.69747 -5.55737 0
M  V30 5757 H 530.061 -0.0304276 -0.740375 0
M  V30 5758 H 532.708 -0.772239 -1.75239 0
M  V30 5759 H 531.013 0.793454 -3.83682 0
M  V30 5760 H 532.71 0.431942 -3.98667 0
M  V30 5761 H 529.3 -0.989937 -4.17011 0
M  V30 5762 H 533.484 -1.87344 -4.59582 0
M  V30 5763 H 528.74 -3.12282 -5.25633 0
M  V30 5764 H 532.914 -4.00698 -5.69574 0
M  V30 5765 H 530.541 -4.6373 -6.02377 0
M  V30 5766 N 532.116 1.54067 -0.331816 0
M  V30 5767 C 533.344 2.05131 0.269996 0
M  V30 5768 C 533.759 1.20749 1.45138 0
M  V30 5769 O 533.116 0.240069 1.80914 0
M  V30 5770 C 533.167 3.54728 0.696456 0
M  V30 5771 O 532.888 4.35906 -0.43794 0
M  V30 5772 C 534.389 4.21916 1.36021 0
M  V30 5773 H 531.609 0.668807 0.0542042 0
M  V30 5774 H 534.153 1.98777 -0.4804 0
M  V30 5775 H 532.308 3.61342 1.39681 0
M  V30 5776 H 532.722 5.24404 -0.100334 0
M  V30 5777 H 534.196 5.28015 1.60947 0
M  V30 5778 H 534.673 3.73538 2.31011 0
M  V30 5779 H 535.279 4.19463 0.702212 0
M  V30 5780 N 533.594 0.0601682 1.57485 0
M  V30 5781 C 534.819 -0.624416 1.97777 0
M  V30 5782 C 535.244 -1.63051 0.937867 0
M  V30 5783 O 534.602 -1.81036 -0.0978845 0
M  V30 5784 C 534.65 -1.27979 3.37126 0
M  V30 5785 O 533.754 -2.39556 3.35688 0
M  V30 5786 H 533.095 -0.161581 0.64404 0
M  V30 5787 H 535.625 0.131237 2.04179 0
M  V30 5788 H 535.635 -1.62937 3.74053 0
M  V30 5789 H 534.31 -0.542501 4.12347 0
M  V30 5790 H 532.887 -2.06478 3.10517 0
M  V30 5791 N 535.072 -1.5615 -0.213296 0
M  V30 5792 C 536.019 -1.93086 -1.26437 0
M  V30 5793 C 536.989 -0.789086 -1.4616 0
M  V30 5794 O 538.174 -1.04569 -1.59593 0
M  V30 5795 C 535.314 -2.26003 -2.608 0
M  V30 5796 C 534.427 -3.53156 -2.48807 0
M  V30 5797 C 533.562 -3.7548 -3.7575 0
M  V30 5798 C 532.601 -4.96119 -3.58514 0
M  V30 5799 N 531.738 -5.14791 -4.77425 0
M  V30 5800 H 536.578 -2.82707 -0.942376 0
M  V30 5801 H 534.115 -1.39919 -0.454001 0
M  V30 5802 H 536.073 -2.431 -3.39055 0
M  V30 5803 H 534.703 -1.39546 -2.91079 0
M  V30 5804 H 533.755 -3.44207 -1.61944 0
M  V30 5805 H 535.067 -4.41565 -2.31996 0
M  V30 5806 H 534.221 -3.92718 -4.62447 0
M  V30 5807 H 532.96 -2.85368 -3.95495 0
M  V30 5808 H 531.965 -4.78823 -2.70201 0
M  V30 5809 H 533.19 -5.87724 -3.40231 0
M  V30 5810 H 531.136 -4.27623 -4.97468 0
M  V30 5811 H 531.053 -5.97347 -4.63371 0
M  V30 5812 H 532.321 -5.36471 -5.65525 0
M  V30 5813 N 536.55 0.480323 -1.50102 0
M  V30 5814 C 537.799 1.22979 -1.59872 0
M  V30 5815 C 538.112 1.93282 -0.30022 0
M  V30 5816 O 539.318 2.70086 -0.276709 0
M  V30 5817 C 537.774 2.23408 -2.82164 0
M  V30 5818 C 537.382 1.5895 -4.18854 0
M  V30 5819 C 539.126 2.99055 -3.01275 0
M  V30 5820 C 537.033 2.57611 -5.32344 0
M  V30 5821 H 535.963 0.462707 -0.59533 0
M  V30 5822 H 538.614 0.501291 -1.7652 0
M  V30 5823 H 536.996 2.99511 -2.59055 0
M  V30 5824 H 538.17 0.887 -4.52182 0
M  V30 5825 H 536.485 0.956191 -4.05273 0
M  V30 5826 H 539.082 3.72876 -3.83233 0
M  V30 5827 H 539.425 3.57897 -2.12639 0
M  V30 5828 H 539.958 2.30066 -3.24522 0
M  V30 5829 H 536.697 2.03521 -6.23105 0
M  V30 5830 H 536.217 3.26041 -5.03445 0
M  V30 5831 H 537.896 3.19627 -5.62537 0
M  V30 5832 N 538.028 1.39524 0.732853 0
M  V30 5833 C 538.958 1.41153 1.86005 0
M  V30 5834 C 539.939 0.274614 1.67869 0
M  V30 5835 O 541.124 0.480745 1.88155 0
M  V30 5836 C 538.254 1.25638 3.23778 0
M  V30 5837 C 537.208 2.36752 3.56556 0
M  V30 5838 C 536.534 2.06326 4.93289 0
M  V30 5839 C 537.834 3.79069 3.5931 0
M  V30 5840 H 539.528 2.35484 1.84899 0
M  V30 5841 H 537.074 1.13348 0.888162 0
M  V30 5842 H 539.027 1.25398 4.0231 0
M  V30 5843 H 537.751 0.277772 3.25417 0
M  V30 5844 H 536.41 2.36213 2.80355 0
M  V30 5845 H 536.058 1.06897 4.9151 0
M  V30 5846 H 535.758 2.80757 5.16187 0
M  V30 5847 H 537.282 2.07739 5.74175 0
M  V30 5848 H 538.696 3.81526 4.27914 0
M  V30 5849 H 537.093 4.52878 3.93728 0
M  V30 5850 H 538.163 4.09893 2.59068 0
M  V30 5851 N 539.506 -0.963266 1.24736 0
M  V30 5852 C 540.753 -1.7068 1.0897 0
M  V30 5853 C 541.081 -1.90934 -0.370751 0
M  V30 5854 O 540.336 -1.47155 -1.29011 0
M  V30 5855 C 540.635 -3.09944 1.7796 0
M  V30 5856 C 540.301 -3.09518 3.27887 0
M  V30 5857 C 538.963 -3.09109 3.68789 0
M  V30 5858 C 541.315 -3.03509 4.23712 0
M  V30 5859 C 538.643 -3.00429 5.03944 0
M  V30 5860 C 540.995 -2.96371 5.5888 0
M  V30 5861 C 539.659 -2.94293 5.99123 0
M  V30 5862 H 538.929 -0.624564 0.398749 0
M  V30 5863 H 541.576 -1.12603 1.54896 0
M  V30 5864 H 539.881 -3.71513 1.2444 0
M  V30 5865 H 541.578 -3.66278 1.63222 0
M  V30 5866 H 538.168 -3.10603 2.95337 0
M  V30 5867 H 542.352 -3.0295 3.93109 0
M  V30 5868 H 537.608 -2.97183 5.34314 0
M  V30 5869 H 541.782 -2.90681 6.32833 0
M  V30 5870 H 539.409 -2.87322 7.03811 0
M  V30 5871 N 540.985 -1.06182 -1.16461 0
M  V30 5872 C 542.225 -0.787048 -1.8864 0
M  V30 5873 C 542.589 0.674093 -1.79778 0
M  V30 5874 O 543.79 1.06341 -2.46871 0
M  V30 5875 C 542.061 -1.2666 -3.34203 0
M  V30 5876 S 543.62 -1.12071 -4.24247 0
M  V30 5877 H 540.438 -0.285539 -0.651144 0
M  V30 5878 H 543.04 -1.35851 -1.40587 0
M  V30 5879 H 541.744 -2.32496 -3.38192 0
M  V30 5880 H 541.275 -0.689841 -3.87304 0
M  V30 5881 H 543.29 -0.0509341 -4.96174 0
M  V30 5882 N 542.463 1.3308 -0.844243 0
M  V30 5883 C 543.74 1.92178 -0.364261 0
M  V30 5884 C 544.12 1.76961 1.15101 0
M  V30 5885 O 543.468 1.16128 1.9679 0
M  V30 5886 C 543.678 3.393 -0.817106 0
M  V30 5887 C 545.026 4.16444 -0.828236 0
M  V30 5888 O 546.05 3.47975 -0.761062 0
M  V30 5889 O 544.909 5.38685 -0.920926 0
M  V30 5890 H 542.003 0.820411 -0.10419 0
M  V30 5891 H 544.549 1.41918 -0.930453 0
M  V30 5892 H 543.321 3.44272 -1.85991 0
M  V30 5893 H 542.944 3.96947 -0.227785 0
M  V30 5894 N 543.941 0.601185 1.45683 0
M  V30 5895 C 545.187 0.0940202 2.02582 0
M  V30 5896 C 545.52 -1.26972 1.46941 0
M  V30 5897 O 544.795 -1.83613 0.641612 0
M  V30 5898 C 545.078 0.0481715 3.60068 0
M  V30 5899 C 544.931 1.44212 4.26055 0
M  V30 5900 C 546.25 -0.642975 4.35378 0
M  V30 5901 H 543.369 0.0356404 0.736138 0
M  V30 5902 H 546.011 0.771929 1.73612 0
M  V30 5903 H 544.161 -0.529128 3.8488 0
M  V30 5904 H 545.833 2.06601 4.12449 0
M  V30 5905 H 544.076 2.00465 3.84703 0
M  V30 5906 H 544.747 1.36234 5.34925 0
M  V30 5907 H 547.223 -0.152351 4.15821 0
M  V30 5908 H 546.099 -0.644141 5.45107 0
M  V30 5909 H 546.36 -1.70785 4.0778 0
M  V30 5910 N 545.419 -1.53889 0.339982 0
M  V30 5911 C 546.349 -2.27843 -0.510856 0
M  V30 5912 C 547.33 -1.29267 -1.10563 0
M  V30 5913 O 548.515 -1.58104 -1.12768 0
M  V30 5914 C 545.645 -3.04857 -1.66372 0
M  V30 5915 C 544.599 -4.10907 -1.19746 0
M  V30 5916 C 543.925 -4.75855 -2.43857 0
M  V30 5917 C 545.225 -5.21435 -0.300501 0
M  V30 5918 H 546.919 -2.99212 0.106067 0
M  V30 5919 H 544.465 -1.43904 0.0524533 0
M  V30 5920 H 546.418 -3.5533 -2.26537 0
M  V30 5921 H 545.142 -2.31133 -2.30749 0
M  V30 5922 H 543.801 -3.61342 -0.618654 0
M  V30 5923 H 543.449 -3.9873 -3.06633 0
M  V30 5924 H 543.149 -5.47502 -2.13343 0
M  V30 5925 H 544.673 -5.2911 -3.04754 0
M  V30 5926 H 546.087 -5.67565 -0.80889 0
M  V30 5927 H 544.484 -6.00036 -0.0874076 0
M  V30 5928 H 545.554 -4.80328 0.664321 0
M  V30 5929 N 546.897 -0.0685191 -1.57451 0
M  V30 5930 C 548.313 0.288101 -1.56978 0
M  V30 5931 C 548.513 1.70262 -1.07765 0
M  V30 5932 O 547.569 2.4135 -0.742054 0
M  V30 5933 C 548.882 0.100745 -3.00531 0
M  V30 5934 C 550.43 0.170531 -3.12535 0
M  V30 5935 C 550.905 0.0114944 -4.57999 0
M  V30 5936 N 552.396 0.0672065 -4.63151 0
M  V30 5937 C 553.131 -0.0314813 -5.73391 0
M  V30 5938 N 552.627 -0.183503 -6.92557 0
M  V30 5939 N 554.42 0.0253489 -5.62094 0
M  V30 5940 H 546.571 -0.993026 -1.87757 0
M  V30 5941 H 548.834 -0.386981 -0.865419 0
M  V30 5942 H 548.54 -0.875197 -3.40636 0
M  V30 5943 H 548.414 0.854457 -3.67395 0
M  V30 5944 H 550.801 1.13696 -2.72318 0
M  V30 5945 H 550.882 -0.614229 -2.48316 0
M  V30 5946 H 550.526 -0.951684 -4.98904 0
M  V30 5947 H 550.456 0.815617 -5.20245 0
M  V30 5948 H 552.947 0.183246 -3.77455 0
M  V30 5949 H 553.26 -0.251041 -7.72392 0
M  V30 5950 H 551.605 -0.218822 -6.94655 0
M  V30 5951 H 554.796 0.142794 -4.67882 0
M  V30 5952 H 554.969 -0.0550166 -6.47977 0
M  V30 5953 N 548.375 1.56261 0.205012 0
M  V30 5954 C 549.338 1.92908 1.23771 0
M  V30 5955 C 550.338 0.809208 1.38955 0
M  V30 5956 O 551.528 1.07676 1.36936 0
M  V30 5957 C 548.66 2.19442 2.60879 0
M  V30 5958 H 549.853 2.85287 0.924728 0
M  V30 5959 H 547.406 1.49798 0.446125 0
M  V30 5960 H 548.141 1.29668 2.97248 0
M  V30 5961 H 547.926 3.0104 2.51232 0
M  V30 5962 H 549.416 2.48833 3.35368 0
M  V30 5963 N 549.853 -0.472356 1.50355 0
M  V30 5964 C 551.102 -1.2213 1.60522 0
M  V30 5965 C 551.415 -1.9312 0.310466 0
M  V30 5966 O 552.621 -2.69936 0.291029 0
M  V30 5967 C 551.077 -2.21909 2.83345 0
M  V30 5968 C 550.685 -1.56727 4.19691 0
M  V30 5969 C 552.429 -2.97453 3.02856 0
M  V30 5970 C 550.336 -2.54785 5.33703 0
M  V30 5971 H 549.266 -0.459543 0.597776 0
M  V30 5972 H 551.917 -0.491922 1.76783 0
M  V30 5973 H 550.299 -2.98133 2.60639 0
M  V30 5974 H 551.473 -0.863007 4.52646 0
M  V30 5975 H 549.788 -0.934685 4.05774 0
M  V30 5976 H 552.385 -3.70838 3.85205 0
M  V30 5977 H 552.728 -3.56764 2.14534 0
M  V30 5978 H 553.261 -2.28342 3.25737 0
M  V30 5979 H 550 -2.00214 6.24175 0
M  V30 5980 H 549.52 -3.23367 5.05167 0
M  V30 5981 H 551.199 -3.16639 5.64224 0
M  V30 5982 N 551.331 -1.39911 -0.725443 0
M  V30 5983 C 552.747 -1.21725 -1.03224 0
M  V30 5984 C 552.947 -0.0855224 -2.01318 0
M  V30 5985 O 552.003 0.55976 -2.46217 0
M  V30 5986 C 553.316 -2.55511 -1.58539 0
M  V30 5987 C 554.864 -2.62439 -1.70572 0
M  V30 5988 C 555.339 -3.9647 -2.29294 0
M  V30 5989 N 556.83 -3.98159 -2.36692 0
M  V30 5990 C 557.565 -4.98647 -2.83088 0
M  V30 5991 N 557.061 -6.0953 -3.2931 0
M  V30 5992 N 558.854 -4.8602 -2.82384 0
M  V30 5993 H 551.005 -2.12267 -0.075048 0
M  V30 5994 H 553.268 -0.943136 -0.0959066 0
M  V30 5995 H 552.974 -3.38926 -0.939249 0
M  V30 5996 H 552.848 -2.75905 -2.57208 0
M  V30 5997 H 555.235 -1.79401 -2.34306 0
M  V30 5998 H 555.316 -2.45885 -0.705297 0
M  V30 5999 H 554.96 -4.79942 -1.66186 0
M  V30 6000 H 554.89 -4.10349 -3.30032 0
M  V30 6001 H 557.381 -3.18085 -2.04035 0
M  V30 6002 H 557.694 -6.82106 -3.6325 0
M  V30 6003 H 556.039 -6.1311 -3.27294 0
M  V30 6004 H 559.23 -3.98493 -2.45603 0
M  V30 6005 H 559.403 -5.64478 -3.18226 0
M  V30 6006 N 552.809 0.956637 -1.25245 0
M  V30 6007 C 554.086 1.67716 -1.00651 0
M  V30 6008 C 554.466 2.0585 0.467866 0
M  V30 6009 O 553.814 1.77029 1.44475 0
M  V30 6010 C 554.024 2.90093 -1.94028 0
M  V30 6011 C 555.372 3.6209 -2.21756 0
M  V30 6012 O 556.396 3.00171 -1.9177 0
M  V30 6013 O 555.255 4.7358 -2.72735 0
M  V30 6014 H 552.349 0.733731 -0.381533 0
M  V30 6015 H 554.895 1.00974 -1.3639 0
M  V30 6016 H 553.667 2.58689 -2.93591 0
M  V30 6017 H 553.29 3.64566 -1.58674 0
M  V30 6018 N 554.287 1.06798 1.15896 0
M  V30 6019 C 555.517 0.807522 1.90165 0
M  V30 6020 C 555.925 -0.642417 1.7796 0
M  V30 6021 O 555.268 -1.45193 1.12537 0
M  V30 6022 C 555.33 1.12939 3.41299 0
M  V30 6023 C 554.994 2.57879 3.7729 0
M  V30 6024 C 555.991 3.56118 3.78782 0
M  V30 6025 C 553.676 2.93311 4.07767 0
M  V30 6026 C 555.67 4.87827 4.10248 0
M  V30 6027 C 553.357 4.25219 4.38899 0
M  V30 6028 C 554.355 5.22287 4.4012 0
M  V30 6029 O 554.043 6.51826 4.70508 0
M  V30 6030 H 553.775 0.291946 0.609708 0
M  V30 6031 H 556.329 1.42627 1.47806 0
M  V30 6032 H 554.559 0.45359 3.84031 0
M  V30 6033 H 556.248 0.852363 3.9685 0
M  V30 6034 H 557.014 3.30086 3.55342 0
M  V30 6035 H 552.893 2.18409 4.05979 0
M  V30 6036 H 556.437 5.63586 4.11116 0
M  V30 6037 H 552.334 4.51006 4.61805 0
M  V30 6038 H 553.102 6.56893 4.88298 0
M  V30 6039 N 555.766 -1.3263 0.851289 0
M  V30 6040 C 556.729 -2.27247 0.298541 0
M  V30 6041 C 557.729 -1.51467 -0.539847 0
M  V30 6042 O 558.919 -1.7061 -0.351843 0
M  V30 6043 C 556.051 -3.35964 -0.578004 0
M  V30 6044 H 557.244 -2.7765 1.13359 0
M  V30 6045 H 554.797 -1.43245 0.625354 0
M  V30 6046 H 555.532 -2.90823 -1.435 0
M  V30 6047 H 555.317 -3.92094 0.0220539 0
M  V30 6048 H 556.807 -4.06472 -0.957626 0
M  V30 6049 N 557.244 -0.608902 -1.45362 0
M  V30 6050 C 558.491 -0.104607 -2.0223 0
M  V30 6051 C 558.819 1.26534 -1.47714 0
M  V30 6052 O 558.074 1.84855 -0.642435 0
M  V30 6053 C 558.373 -0.0167296 -3.57396 0
M  V30 6054 C 558.039 -1.32251 -4.31069 0
M  V30 6055 C 556.701 -1.68019 -4.50914 0
M  V30 6056 C 559.053 -2.18542 -4.73169 0
M  V30 6057 C 556.381 -2.89828 -5.10114 0
M  V30 6058 C 558.733 -3.39602 -5.33717 0
M  V30 6059 C 557.397 -3.7562 -5.51784 0
M  V30 6060 H 556.667 -0.0382785 -0.740011 0
M  V30 6061 H 559.314 -0.790782 -1.7441 0
M  V30 6062 H 557.619 0.752715 -3.84502 0
M  V30 6063 H 559.316 0.389634 -3.99103 0
M  V30 6064 H 555.906 -1.03411 -4.15938 0
M  V30 6065 H 560.09 -1.92208 -4.5757 0
M  V30 6066 H 555.346 -3.17839 -5.22291 0
M  V30 6067 H 559.52 -4.06716 -5.65292 0
M  V30 6068 H 557.147 -4.70093 -5.97425 0
M  V30 6069 N 558.722 1.53707 -0.348139 0
M  V30 6070 C 559.669 2.25173 0.506518 0
M  V30 6071 C 560.639 1.25174 1.09182 0
M  V30 6072 O 561.824 1.53917 1.12757 0
M  V30 6073 C 558.964 3.03141 1.64923 0
M  V30 6074 C 558.077 4.18002 1.0908 0
M  V30 6075 C 557.212 4.83447 2.20119 0
M  V30 6076 C 556.251 5.90369 1.61651 0
M  V30 6077 N 555.388 6.49575 2.66451 0
M  V30 6078 H 560.228 2.97799 -0.109452 0
M  V30 6079 H 557.765 1.46953 -0.0657866 0
M  V30 6080 H 559.723 3.46607 2.32205 0
M  V30 6081 H 558.353 2.32803 2.23612 0
M  V30 6082 H 557.405 3.79145 0.308783 0
M  V30 6083 H 558.717 4.94892 0.623178 0
M  V30 6084 H 557.871 5.30008 2.95257 0
M  V30 6085 H 556.61 4.05991 2.70227 0
M  V30 6086 H 555.615 5.43186 0.850209 0
M  V30 6087 H 556.84 6.69735 1.1239 0
M  V30 6088 H 554.786 5.74981 3.15805 0
M  V30 6089 H 554.703 7.21952 2.24325 0
M  V30 6090 H 555.971 7.00789 3.41344 0
M  V30 6091 N 560.2 0.0768682 1.57412 0
M  V30 6092 C 561.163 -0.873949 2.11884 0
M  V30 6093 C 562.163 -1.22301 1.04398 0
M  V30 6094 O 563.353 -1.15545 1.30365 0
M  V30 6095 C 560.485 -2.17575 2.62438 0
M  V30 6096 H 561.678 -0.401278 2.97203 0
M  V30 6097 H 559.231 -0.171904 1.55352 0
M  V30 6098 H 559.966 -2.69368 1.80587 0
M  V30 6099 H 559.751 -1.93534 3.41009 0
M  V30 6100 H 561.241 -2.85631 3.04639 0
M  V30 6101 N 561.678 -1.56367 -0.196722 0
M  V30 6102 C 562.903 -1.84991 -0.937714 0
M  V30 6103 C 563.328 -0.660244 -1.76132 0
M  V30 6104 O 562.686 0.390967 -1.77034 0
M  V30 6105 C 562.734 -3.11828 -1.81096 0
M  V30 6106 O 561.838 -2.92266 -2.90955 0
M  V30 6107 H 561.179 -0.609193 -0.264159 0
M  V30 6108 H 563.709 -2.03595 -0.202529 0
M  V30 6109 H 563.719 -3.42579 -2.21594 0
M  V30 6110 H 562.394 -3.98037 -1.2058 0
M  V30 6111 H 560.971 -2.72809 -2.54224 0
M  V30 6112 N 563.156 0.464375 -1.50603 0
M  V30 6113 C 564.567 1.04507 -1.5471 0
M  V30 6114 C 564.918 1.9297 -0.354542 0
M  V30 6115 O 564.043 2.09763 0.531812 0
M  V30 6116 C 564.638 1.90207 -2.80369 0
M  V30 6117 C 563.197 2.43373 -2.87135 0
M  V30 6118 C 562.344 1.21886 -2.49076 0
M  V30 6119 H 565.295 0.246716 -1.56771 0
M  V30 6120 H 565.316 2.75353 -2.62604 0
M  V30 6121 H 564.828 1.25796 -3.67147 0
M  V30 6122 H 562.929 3.11318 -2.04724 0
M  V30 6123 H 563.042 2.7802 -3.90181 0
M  V30 6124 H 561.406 1.55575 -2.01664 0
M  V30 6125 H 562.189 0.591268 -3.3817 0
M  V30 6126 N 564.634 1.40294 0.718013 0
M  V30 6127 C 565.864 1.41544 1.50495 0
M  V30 6128 C 566.272 0.0127877 1.89196 0
M  V30 6129 O 565.615 -0.97305 1.55812 0
M  V30 6130 C 565.677 2.24021 2.81167 0
M  V30 6131 C 565.341 3.72463 2.64803 0
M  V30 6132 C 566.338 4.65154 2.32223 0
M  V30 6133 C 564.023 4.1625 2.81143 0
M  V30 6134 C 566.017 5.99618 2.16189 0
M  V30 6135 C 563.704 5.50784 2.64727 0
M  V30 6136 C 564.702 6.42283 2.32297 0
M  V30 6137 O 564.39 7.74337 2.16004 0
M  V30 6138 H 564.122 0.484819 0.471091 0
M  V30 6139 H 566.676 1.84948 0.893488 0
M  V30 6140 H 564.906 1.75393 3.44636 0
M  V30 6141 H 566.595 2.17243 3.42871 0
M  V30 6142 H 567.361 4.32622 2.19234 0
M  V30 6143 H 563.24 3.45352 3.05373 0
M  V30 6144 H 566.784 6.71 1.90799 0
M  V30 6145 H 562.681 5.82902 2.773 0
M  V30 6146 H 563.449 7.85244 2.30942 0
M  V30 6147 N 566.112 -0.949982 1.2575 0
M  V30 6148 C 567.523 -1.50989 1.09815 0
M  V30 6149 C 567.874 -1.93497 -0.324556 0
M  V30 6150 O 566.999 -1.79068 -1.21506 0
M  V30 6151 C 567.594 -2.74394 1.98729 0
M  V30 6152 C 566.153 -3.26682 1.86965 0
M  V30 6153 C 565.3 -1.99498 1.92603 0
M  V30 6154 H 568.251 -0.766387 1.38968 0
M  V30 6155 H 568.272 -3.48383 1.53001 0
M  V30 6156 H 567.784 -2.43425 3.02268 0
M  V30 6157 H 565.885 -3.62461 0.863279 0
M  V30 6158 H 565.998 -3.94383 2.72027 0
M  V30 6159 H 564.362 -2.15005 1.36546 0
M  V30 6160 H 565.145 -1.70871 2.97755 0
M  V30 6161 N 567.59 -1.07411 -1.15328 0
M  V30 6162 C 568.836 -0.798831 -1.86404 0
M  V30 6163 C 569.169 0.673433 -1.8215 0
M  V30 6164 O 568.444 1.49428 -1.24505 0
M  V30 6165 C 568.727 -1.30846 -3.35487 0
M  V30 6166 C 568.58 -2.84532 -3.4837 0
M  V30 6167 C 569.899 -0.925486 -4.30259 0
M  V30 6168 H 567.018 -0.291659 -0.676834 0
M  V30 6169 H 569.66 -1.332 -1.35491 0
M  V30 6170 H 567.81 -0.854916 -3.78977 0
M  V30 6171 H 569.482 -3.3818 -3.13739 0
M  V30 6172 H 567.725 -3.22699 -2.8991 0
M  V30 6173 H 568.396 -3.15259 -4.53118 0
M  V30 6174 H 570.872 -1.3163 -3.94731 0
M  V30 6175 H 569.748 -1.3094 -5.33053 0
M  V30 6176 H 570.009 0.168525 -4.41779 0
M  V30 6177 N 569.068 1.32177 -0.85831 0
M  V30 6178 C 570.317 1.96392 -0.459689 0
M  V30 6179 C 570.63 1.68659 0.990632 0
M  V30 6180 O 571.836 2.26641 1.49485 0
M  V30 6181 C 570.292 3.51542 -0.7711 0
M  V30 6182 C 569.9 3.8813 -2.2374 0
M  V30 6183 C 571.644 4.2221 -0.44038 0
M  V30 6184 C 569.551 5.36341 -2.49183 0
M  V30 6185 H 568.481 0.735007 -0.168169 0
M  V30 6186 H 571.132 1.50518 -1.0496 0
M  V30 6187 H 569.514 3.95846 -0.11058 0
M  V30 6188 H 570.688 3.54824 -2.94001 0
M  V30 6189 H 569.003 3.30497 -2.533 0
M  V30 6190 H 571.6 5.31234 -0.607855 0
M  V30 6191 H 571.943 4.11683 0.618291 0
M  V30 6192 H 572.476 3.83502 -1.05695 0
M  V30 6193 H 569.215 5.51892 -3.53689 0
M  V30 6194 H 568.735 5.7104 -1.83504 0
M  V30 6195 H 570.414 6.03466 -2.33318 0
M  V30 6196 N 570.547 0.616602 1.45037 0
M  V30 6197 C 571.477 -0.0840787 2.33349 0
M  V30 6198 C 572.458 -0.849641 1.4736 0
M  V30 6199 O 573.643 -0.818407 1.76113 0
M  V30 6200 C 570.773 -1.07604 3.3021 0
M  V30 6201 C 569.727 -0.423096 4.25904 0
M  V30 6202 C 569.053 -1.52394 5.12523 0
M  V30 6203 C 570.353 0.661457 5.18095 0
M  V30 6204 H 572.047 0.653333 2.92185 0
M  V30 6205 H 569.593 0.315634 1.40498 0
M  V30 6206 H 571.546 -1.57485 3.90866 0
M  V30 6207 H 570.27 -1.84416 2.69552 0
M  V30 6208 H 568.929 0.05493 3.66559 0
M  V30 6209 H 568.577 -2.28257 4.48227 0
M  V30 6210 H 568.277 -1.09251 5.77354 0
M  V30 6211 H 569.801 -2.02485 5.76049 0
M  V30 6212 H 571.215 0.246353 5.7277 0
M  V30 6213 H 569.612 1.01517 5.91451 0
M  V30 6214 H 570.682 1.53446 4.59981 0
M  V30 6215 N 572.025 -1.5352 0.356285 0
M  V30 6216 C 573.25 -2.06007 -0.239961 0
M  V30 6217 C 573.675 -1.22872 -1.42422 0
M  V30 6218 O 573.033 -0.245516 -1.7963 0
M  V30 6219 C 573.081 -3.5522 -0.620587 0
M  V30 6220 O 572.185 -3.74864 -1.71902 0
M  V30 6221 H 571.526 -0.662961 -0.0371377 0
M  V30 6222 H 574.056 -1.98033 0.514194 0
M  V30 6223 H 574.066 -3.98081 -0.894197 0
M  V30 6224 H 572.741 -4.15175 0.245407 0
M  V30 6225 H 571.318 -3.43904 -1.44169 0
M  V30 6226 N 573.503 -0.0852151 -1.57369 0
M  V30 6227 C 574.433 0.874556 -2.16503 0
M  V30 6228 C 575.414 1.30111 -1.09568 0
M  V30 6229 O 576.599 1.36977 -1.37662 0
M  V30 6230 C 573.729 2.13731 -2.73745 0
M  V30 6231 C 572.683 1.84971 -3.85966 0
M  V30 6232 C 572.009 3.17991 -4.29867 0
M  V30 6233 C 573.309 1.14442 -5.09608 0
M  V30 6234 H 575.003 0.381899 -2.96954 0
M  V30 6235 H 572.549 0.18225 -1.42842 0
M  V30 6236 H 574.502 2.81302 -3.13763 0
M  V30 6237 H 573.226 2.65263 -1.90534 0
M  V30 6238 H 571.885 1.19801 -3.46473 0
M  V30 6239 H 571.533 3.6739 -3.4356 0
M  V30 6240 H 571.233 2.99534 -5.05523 0
M  V30 6241 H 572.757 3.86737 -4.72511 0
M  V30 6242 H 574.171 1.72105 -5.46857 0
M  V30 6243 H 572.568 1.06197 -5.90629 0
M  V30 6244 H 573.638 0.12559 -4.84737 0
M  V30 6245 N 574.981 1.5647 0.188427 0
M  V30 6246 C 575.891 1.98285 1.2538 0
M  V30 6247 C 576.907 0.891535 1.49424 0
M  V30 6248 O 578.083 1.19782 1.61908 0
M  V30 6249 C 575.148 2.31965 2.57669 0
M  V30 6250 C 574.209 3.54838 2.41638 0
M  V30 6251 C 573.442 3.86901 3.67618 0
M  V30 6252 O 573.665 3.20163 4.72072 0
M  V30 6253 O 572.599 4.80309 3.62749 0
M  V30 6254 H 576.425 2.89145 0.928912 0
M  V30 6255 H 574.01 1.44112 0.393955 0
M  V30 6256 H 575.892 2.54673 3.35737 0
M  V30 6257 H 574.567 1.44271 2.89771 0
M  V30 6258 H 573.474 3.37369 1.61658 0
M  V30 6259 H 574.807 4.43019 2.14465 0
M  V30 6260 N 576.459 -0.456382 1.50847 0
M  V30 6261 C 577.407 -1.57318 1.71329 0
M  V30 6262 C 578.401 -1.59187 0.579287 0
M  V30 6263 O 579.607 -1.6316 0.76018 0
M  V30 6264 H 575.982 -0.5223 0.541024 0
M  V30 6265 H 577.953 -1.3721 2.64983 0
M  V30 6266 C 576.702 -2.95142 1.83811 0
M  V30 6267 H 576.025 -2.94428 2.70467 0
M  V30 6268 H 577.465 -3.72702 2.02161 0
M  V30 6269 C 575.924 -3.31636 0.593224 0
M  V30 6270 O 576.454 -4.00852 -0.260898 0
M  V30 6271 N 574.66 -2.87205 0.442902 0
M  V30 6272 H 574.207 -2.31051 1.13901 0
M  V30 6273 H 574.165 -3.11986 -0.38884 0
M  V30 6274 N 577.937 -1.40673 -0.710563 0
M  V30 6275 C 578.887 -1.37812 -1.81636 0
M  V30 6276 C 579.871 -0.254853 -1.58869 0
M  V30 6277 O 581.063 -0.494356 -1.69956 0
M  V30 6278 C 578.192 -1.24802 -3.19811 0
M  V30 6279 C 577.278 -2.41931 -3.48325 0
M  V30 6280 N 577.669 -3.67411 -3.47625 0
M  V30 6281 C 575.967 -2.35419 -3.78806 0
M  V30 6282 C 576.668 -4.45008 -3.74623 0
M  V30 6283 N 575.644 -3.74916 -3.93623 0
M  V30 6284 H 579.446 -2.32766 -1.79436 0
M  V30 6285 H 576.96 -1.34516 -0.909909 0
M  V30 6286 H 578.957 -1.20835 -3.99004 0
M  V30 6287 H 577.617 -0.308202 -3.23234 0
M  V30 6288 H 578.628 -4.00503 -3.28356 0
M  V30 6289 H 575.305 -1.4983 -3.89689 0
M  V30 6290 H 576.695 -5.53884 -3.80344 0
M  V30 6291 N 579.415 0.9433 -1.26252 0
M  V30 6292 C 580.655 1.70397 -1.1289 0
M  V30 6293 C 581.019 1.89268 0.322713 0
M  V30 6294 O 582.22 2.62503 0.578418 0
M  V30 6295 C 580.491 3.04296 -1.87453 0
M  V30 6296 S 582.05 3.95475 -1.90119 0
M  V30 6297 H 578.868 0.585559 -0.403289 0
M  V30 6298 H 581.47 1.12424 -1.59941 0
M  V30 6299 H 580.174 2.8824 -2.9214 0
M  V30 6300 H 579.705 3.67327 -1.40835 0
M  V30 6301 H 581.72 4.86297 -0.986373 0
M  V30 6302 N 580.893 1.08022 1.14757 0
M  V30 6303 C 582.121 0.828847 1.89572 0
M  V30 6304 C 582.536 -0.618621 1.78377 0
M  V30 6305 O 581.893 -1.42482 1.1404 0
M  V30 6306 C 581.944 1.23677 3.39685 0
M  V30 6307 O 581.665 2.62746 3.50566 0
M  V30 6308 C 583.166 1.01569 4.31507 0
M  V30 6309 H 580.386 0.299196 0.600602 0
M  V30 6310 H 582.93 1.43846 1.45357 0
M  V30 6311 H 581.085 0.671347 3.81539 0
M  V30 6312 H 581.499 2.79573 4.43778 0
M  V30 6313 H 582.973 1.35055 5.35223 0
M  V30 6314 H 583.45 -0.0475433 4.39174 0
M  V30 6315 H 584.056 1.56636 3.95405 0
M  V30 6316 N 582.371 -1.3172 0.865308 0
M  V30 6317 C 583.301 -2.31109 0.333302 0
M  V30 6318 C 584.282 -1.60148 -0.573301 0
M  V30 6319 O 585.467 -1.87882 -0.491305 0
M  V30 6320 C 582.597 -3.44104 -0.470078 0
M  V30 6321 C 581.551 -4.26623 0.343021 0
M  V30 6322 C 580.877 -5.31482 -0.585756 0
M  V30 6323 C 582.177 -4.98001 1.57456 0
M  V30 6324 H 583.871 -2.75855 1.1638 0
M  V30 6325 H 581.417 -1.3262 0.561069 0
M  V30 6326 H 583.37 -4.12682 -0.852752 0
M  V30 6327 H 582.094 -2.98112 -1.33404 0
M  V30 6328 H 580.753 -3.59707 0.707583 0
M  V30 6329 H 580.401 -4.81741 -1.44686 0
M  V30 6330 H 580.101 -5.87582 -0.0456494 0
M  V30 6331 H 581.625 -6.0292 -0.965375 0
M  V30 6332 H 583.039 -5.59201 1.26359 0
M  V30 6333 H 581.436 -5.63876 2.05339 0
M  V30 6334 H 582.506 -4.25253 2.32997 0
M  V30 6335 N 583.85 -0.624285 -1.44708 0
M  V30 6336 C 584.76 0.0861083 -2.34442 0
M  V30 6337 C 585.776 0.84291 -1.5222 0
M  V30 6338 O 586.952 0.796723 -1.84971 0
M  V30 6339 C 584.017 1.05999 -3.30099 0
M  V30 6340 C 583.077 0.303316 -4.28227 0
M  V30 6341 C 582.311 1.23081 -5.19314 0
M  V30 6342 O 582.534 2.46929 -5.14181 0
M  V30 6343 O 581.468 0.71883 -5.97592 0
M  V30 6344 H 585.293 -0.651756 -2.96624 0
M  V30 6345 H 582.879 -0.384493 -1.44368 0
M  V30 6346 H 584.76 1.62046 -3.88997 0
M  V30 6347 H 583.436 1.77859 -2.70459 0
M  V30 6348 H 582.343 -0.300033 -3.72895 0
M  V30 6349 H 583.676 -0.375123 -4.90768 0
M  V30 6350 N 585.328 1.53329 -0.364422 0
M  V30 6351 C 586.26 2.23286 0.517293 0
M  V30 6352 C 587.273 1.24657 1.04711 0
M  V30 6353 O 588.462 1.50887 0.95369 0
M  V30 6354 C 585.562 2.91604 1.72685 0
M  V30 6355 C 584.735 4.1673 1.32873 0
M  V30 6356 C 583.794 4.68269 2.40022 0
M  V30 6357 O 582.82 5.31976 2.02461 0
M  V30 6358 N 584.022 4.45983 3.7159 0
M  V30 6359 H 586.787 2.99588 -0.0819391 0
M  V30 6360 H 584.348 1.60787 -0.189544 0
M  V30 6361 H 586.34 3.22992 2.4384 0
M  V30 6362 H 584.91 2.18763 2.23297 0
M  V30 6363 H 584.13 3.91657 0.447069 0
M  V30 6364 H 585.418 4.98078 1.03902 0
M  V30 6365 H 584.816 3.95077 4.04883 0
M  V30 6366 H 583.373 4.81924 4.38854 0
M  V30 6367 N 586.806 0.0935595 1.57322 0
M  V30 6368 C 587.738 -0.895923 2.10964 0
M  V30 6369 C 588.751 -1.24705 1.04654 0
M  V30 6370 O 589.94 -1.20044 1.32105 0
M  V30 6371 C 587.04 -2.20546 2.57318 0
M  V30 6372 C 586.213 -2.0299 3.87445 0
M  V30 6373 C 585.272 -3.17443 4.19662 0
M  V30 6374 O 584.298 -2.91474 4.88909 0
M  V30 6375 N 585.5 -4.43168 3.74943 0
M  V30 6376 H 588.265 -0.437788 2.96485 0
M  V30 6377 H 585.826 -0.0915863 1.61641 0
M  V30 6378 H 587.818 -2.9606 2.75917 0
M  V30 6379 H 586.388 -2.57789 1.76816 0
M  V30 6380 H 585.608 -1.11815 3.78009 0
M  V30 6381 H 586.896 -1.88535 4.7258 0
M  V30 6382 H 586.294 -4.67149 3.19043 0
M  V30 6383 H 584.851 -5.15637 3.987 0
M  V30 6384 N 588.284 -1.56567 -0.180126 0
M  V30 6385 C 589.7 -1.50488 -0.531559 0
M  V30 6386 C 589.9 -0.796267 -1.851 0
M  V30 6387 O 588.956 -0.352978 -2.50021 0
M  V30 6388 C 590.269 -2.95201 -0.572456 0
M  V30 6389 C 591.817 -3.05957 -0.660264 0
M  V30 6390 C 592.292 -4.5211 -0.732135 0
M  V30 6391 N 593.783 -4.56322 -0.795262 0
M  V30 6392 C 594.518 -5.66742 -0.871296 0
M  V30 6393 N 594.014 -6.86815 -0.908708 0
M  V30 6394 N 595.807 -5.54691 -0.909639 0
M  V30 6395 H 587.958 -2.01045 0.685165 0
M  V30 6396 H 590.221 -0.915536 0.245962 0
M  V30 6397 H 589.927 -3.50165 0.328208 0
M  V30 6398 H 589.801 -3.49369 -1.422 0
M  V30 6399 H 592.188 -2.51032 -1.55136 0
M  V30 6400 H 592.269 -2.54888 0.215783 0
M  V30 6401 H 591.913 -5.07664 0.154664 0
M  V30 6402 H 591.843 -5.00926 -1.6242 0
M  V30 6403 H 594.334 -3.69868 -0.77499 0
M  V30 6404 H 594.647 -7.66718 -0.967654 0
M  V30 6405 H 592.992 -6.89443 -0.877132 0
M  V30 6406 H 596.183 -4.59804 -0.877353 0
M  V30 6407 H 596.356 -6.40768 -0.965434 0
M  V30 6408 N 589.762 0.448376 -1.51087 0
M  V30 6409 C 591.008 1.20049 -1.6345 0
M  V30 6410 C 591.341 1.91121 -0.344444 0
M  V30 6411 O 590.616 1.83125 0.655396 0
M  V30 6412 C 590.899 2.22624 -2.83038 0
M  V30 6413 C 590.752 1.55708 -4.21989 0
M  V30 6414 C 592.071 3.23718 -2.98152 0
M  V30 6415 H 589.19 0.435085 -0.59487 0
M  V30 6416 H 591.832 0.491183 -1.83541 0
M  V30 6417 H 589.982 2.83117 -2.66039 0
M  V30 6418 H 591.654 0.986367 -4.50631 0
M  V30 6419 H 589.897 0.859647 -4.25197 0
M  V30 6420 H 590.568 2.30357 -5.01637 0
M  V30 6421 H 593.044 2.73269 -3.13788 0
M  V30 6422 H 591.92 3.92795 -3.83411 0
M  V30 6423 H 592.181 3.89179 -2.09743 0
M  V30 6424 N 591.24 1.41047 0.703093 0
M  V30 6425 C 592.173 1.36713 1.82715 0
M  V30 6426 C 593.151 0.235533 1.60885 0
M  V30 6427 O 594.335 0.421227 1.83733 0
M  V30 6428 C 591.462 1.13069 3.1927 0
M  V30 6429 C 590.508 2.28846 3.59905 0
M  V30 6430 S 591.341 3.91297 3.65578 0
M  V30 6431 C 592.497 3.69941 5.04871 0
M  V30 6432 H 592.73 2.31838 1.86114 0
M  V30 6433 H 590.263 1.27481 0.871083 0
M  V30 6434 H 592.221 1.00113 3.98105 0
M  V30 6435 H 590.882 0.195763 3.13489 0
M  V30 6436 H 590.075 2.07977 4.59088 0
M  V30 6437 H 589.677 2.3817 2.88359 0
M  V30 6438 H 591.969 3.29181 5.92154 0
M  V30 6439 H 592.912 4.68699 5.30779 0
M  V30 6440 H 593.32 3.03369 4.76054 0
M  V30 6441 N 592.718 -0.936591 1.26751 0
M  V30 6442 C 593.681 -2.01752 1.08761 0
M  V30 6443 C 594.681 -1.60763 0.0344435 0
M  V30 6444 O 595.871 -1.71963 0.278258 0
M  V30 6445 C 593.003 -3.34543 0.655271 0
M  V30 6446 H 594.196 -2.19143 2.04735 0
M  V30 6447 H 591.749 -1.11618 1.09413 0
M  V30 6448 H 592.484 -3.22851 -0.30626 0
M  V30 6449 H 592.269 -3.65647 1.41578 0
M  V30 6450 H 593.759 -4.13944 0.551378 0
M  V30 6451 N 594.196 -1.08629 -1.14182 0
M  V30 6452 C 595.612 -0.814363 -1.3726 0
M  V30 6453 C 595.812 0.575271 -1.93114 0
M  V30 6454 O 594.868 1.33165 -2.1453 0
M  V30 6455 C 596.181 -1.8989 -2.33157 0
M  V30 6456 C 597.729 -1.92518 -2.46791 0
M  V30 6457 C 598.204 -3.00092 -3.45989 0
M  V30 6458 N 599.695 -2.99279 -3.53534 0
M  V30 6459 C 600.43 -3.79158 -4.30147 0
M  V30 6460 N 599.926 -4.68923 -5.09983 0
M  V30 6461 N 601.719 -3.67451 -4.25366 0
M  V30 6462 H 593.87 -1.98232 -0.762758 0
M  V30 6463 H 596.133 -0.860383 -0.398051 0
M  V30 6464 H 595.839 -2.89809 -1.99257 0
M  V30 6465 H 595.713 -1.77013 -3.33086 0
M  V30 6466 H 598.1 -0.932425 -2.79982 0
M  V30 6467 H 598.181 -2.09473 -1.46816 0
M  V30 6468 H 597.825 -3.99575 -3.13532 0
M  V30 6469 H 597.755 -2.80382 -4.45751 0
M  V30 6470 H 600.246 -2.3422 -2.96563 0
M  V30 6471 H 600.559 -5.26475 -5.65724 0
M  V30 6472 H 598.904 -4.72964 -5.09244 0
M  V30 6473 H 602.095 -2.9669 -3.62067 0
M  V30 6474 H 602.268 -4.29944 -4.84822 0
M  V30 6475 N 595.674 1.31259 -0.872281 0
M  V30 6476 C 596.624 2.26 -0.301295 0
M  V30 6477 C 597.608 1.50729 0.562991 0
M  V30 6478 O 598.8 1.72198 0.40949 0
M  V30 6479 C 595.929 3.39724 0.494227 0
M  V30 6480 C 595.015 4.22363 -0.383432 0
M  V30 6481 N 595.406 4.83724 -1.47799 0
M  V30 6482 C 593.704 4.45652 -0.176278 0
M  V30 6483 C 594.405 5.45523 -2.01939 0
M  V30 6484 N 593.381 5.27428 -1.31608 0
M  V30 6485 H 597.183 2.70981 -1.13782 0
M  V30 6486 H 594.697 1.45552 -0.720294 0
M  V30 6487 H 596.694 4.06626 0.919828 0
M  V30 6488 H 595.354 2.96286 1.32834 0
M  V30 6489 H 596.365 4.83313 -1.8609 0
M  V30 6490 H 593.042 4.12845 0.621698 0
M  V30 6491 H 594.432 6.04268 -2.93786 0
M  V30 6492 N 597.152 0.631951 1.44375 0
M  V30 6493 C 598.082 -0.0593243 2.33425 0
M  V30 6494 C 599.063 -0.833964 1.48253 0
M  V30 6495 O 600.248 -0.799682 1.76971 0
M  V30 6496 C 597.378 -1.04096 3.31333 0
M  V30 6497 C 596.332 -0.377899 4.26328 0
M  V30 6498 C 595.658 -1.4695 5.14111 0
M  V30 6499 C 596.958 0.716371 5.17364 0
M  V30 6500 H 598.652 0.684287 2.91475 0
M  V30 6501 H 596.198 0.330518 1.40156 0
M  V30 6502 H 598.151 -1.53331 3.92514 0
M  V30 6503 H 596.875 -1.81547 2.71493 0
M  V30 6504 H 595.534 0.0938054 3.6648 0
M  V30 6505 H 595.182 -2.2349 4.50623 0
M  V30 6506 H 594.882 -1.03121 5.78481 0
M  V30 6507 H 596.406 -1.96363 5.78164 0
M  V30 6508 H 597.82 0.307089 5.72477 0
M  V30 6509 H 596.217 1.07784 5.90341 0
M  V30 6510 H 597.287 1.58316 4.58327 0
M  V30 6511 N 598.631 -1.53133 0.372548 0
M  V30 6512 C 599.581 -2.22733 -0.487218 0
M  V30 6513 C 600.565 -1.22506 -1.04312 0
M  V30 6514 O 601.757 -1.47923 -0.972005 0
M  V30 6515 C 598.886 -3.02524 -1.62278 0
M  V30 6516 C 597.972 -4.10133 -1.07943 0
M  V30 6517 N 598.363 -5.05133 -0.259629 0
M  V30 6518 C 596.661 -4.24964 -1.35356 0
M  V30 6519 C 597.362 -5.81687 0.0386656 0
M  V30 6520 N 596.338 -5.40699 -0.560827 0
M  V30 6521 H 600.14 -2.93538 0.145853 0
M  V30 6522 H 597.654 -1.61389 0.180938 0
M  V30 6523 H 599.651 -3.50909 -2.25096 0
M  V30 6524 H 598.311 -2.33252 -2.25884 0
M  V30 6525 H 599.322 -5.178 0.101746 0
M  V30 6526 H 595.999 -3.66919 -1.9919 0
M  V30 6527 H 597.389 -6.68224 0.701841 0
M  V30 6528 N 600.109 -0.101901 -1.5727 0
M  V30 6529 C 601.072 0.840129 -2.13247 0
M  V30 6530 C 602.072 1.20625 -1.06331 0
M  V30 6531 O 603.262 1.13456 -1.32186 0
M  V30 6532 C 600.394 2.13372 -2.65867 0
M  V30 6533 H 601.587 0.353945 -2.97804 0
M  V30 6534 H 599.14 0.147167 -1.55606 0
M  V30 6535 H 599.875 2.66461 -1.84849 0
M  V30 6536 H 599.66 1.88085 -3.44044 0
M  V30 6537 H 601.15 2.80748 -3.09145 0
M  V30 6538 N 601.587 1.56661 0.17182 0
M  V30 6539 C 602.836 1.81158 0.886831 0
M  V30 6540 C 603.149 0.679072 1.83434 0
M  V30 6541 O 604.355 0.808964 2.59168 0
M  V30 6542 C 602.811 3.20999 1.6275 0
M  V30 6543 C 602.419 4.42117 0.723652 0
M  V30 6544 C 604.163 3.5479 2.33076 0
M  V30 6545 C 602.07 5.7298 1.46452 0
M  V30 6546 H 601 0.675543 0.334899 0
M  V30 6547 H 603.651 1.82967 0.139765 0
M  V30 6548 H 602.033 3.13506 2.4193 0
M  V30 6549 H 603.207 4.60789 -0.0311485 0
M  V30 6550 H 601.522 4.16197 0.130063 0
M  V30 6551 H 604.119 4.49806 2.89099 0
M  V30 6552 H 604.462 2.79646 3.08389 0
M  V30 6553 H 604.995 3.63834 1.6084 0
M  V30 6554 H 601.734 6.51152 0.753729 0
M  V30 6555 H 601.254 5.58285 2.19266 0
M  V30 6556 H 602.933 6.14916 2.01214 0
M  V30 6557 N 603.065 -0.440357 1.51323 0
M  V30 6558 C 603.995 -1.54174 1.75364 0
M  V30 6559 C 604.976 -1.59039 0.603375 0
M  V30 6560 O 606.161 -1.74815 0.845774 0
M  V30 6561 C 603.291 -2.92277 1.87593 0
M  V30 6562 C 602.245 -3.02274 3.03009 0
M  V30 6563 C 601.571 -4.42327 3.00418 0
M  V30 6564 C 602.871 -2.76634 4.43024 0
M  V30 6565 H 604.565 -1.34307 2.67585 0
M  V30 6566 H 602.111 -0.644678 1.28763 0
M  V30 6567 H 604.064 -3.69284 2.02995 0
M  V30 6568 H 602.788 -3.13369 0.920179 0
M  V30 6569 H 601.447 -2.27706 2.87307 0
M  V30 6570 H 601.095 -4.60382 2.02626 0
M  V30 6571 H 600.795 -4.49946 3.77918 0
M  V30 6572 H 602.319 -5.21312 3.17909 0
M  V30 6573 H 603.733 -3.43376 4.59093 0
M  V30 6574 H 602.13 -2.95666 5.22208 0
M  V30 6575 H 603.2 -1.72262 4.5327 0
M  V30 6576 N 604.543 -1.41418 -0.695603 0
M  V30 6577 C 605.791 -1.40496 -1.45277 0
M  V30 6578 C 606.112 -0.0149538 -1.94994 0
M  V30 6579 O 605.382 0.9432 -1.71699 0
M  V30 6580 H 603.962 -0.517147 -0.539044 0
M  V30 6581 H 606.624 -1.76656 -0.823321 0
M  V30 6582 H 605.72 -2.09214 -2.31595 0
M  V30 6583 N 606.021 0.929856 -1.27246 0
M  V30 6584 C 607.432 1.49223 -1.12203 0
M  V30 6585 C 607.783 1.93989 0.293731 0
M  V30 6586 O 606.908 1.80978 1.18642 0
M  V30 6587 C 607.503 2.71198 -2.0307 0
M  V30 6588 C 606.062 3.23666 -1.92139 0
M  V30 6589 C 605.209 1.96409 -1.95752 0
M  V30 6590 H 608.16 0.744181 -1.4017 0
M  V30 6591 H 608.181 3.45905 -1.58524 0
M  V30 6592 H 607.693 2.38585 -3.06102 0
M  V30 6593 H 605.794 3.61042 -0.920834 0
M  V30 6594 H 605.907 3.90006 -2.78267 0
M  V30 6595 H 604.271 2.12806 -1.39949 0
M  V30 6596 H 605.054 1.66113 -3.00436 0
M  V30 6597 N 607.499 1.09233 1.13605 0
M  V30 6598 C 608.432 0.6739 2.18023 0
M  V30 6599 C 609.41 -0.318603 1.59448 0
M  V30 6600 O 610.594 -0.220452 1.87206 0
M  V30 6601 C 607.721 -0.00751458 3.38699 0
M  V30 6602 C 606.767 0.946481 4.15865 0
M  V30 6603 S 607.6 2.45753 4.75779 0
M  V30 6604 C 608.756 1.78846 5.99804 0
M  V30 6605 H 608.989 1.55846 2.53178 0
M  V30 6606 H 606.522 0.908118 1.2487 0
M  V30 6607 H 608.48 -0.394368 4.08601 0
M  V30 6608 H 607.141 -0.868693 3.01849 0
M  V30 6609 H 606.334 0.416742 5.02274 0
M  V30 6610 H 605.936 1.27464 3.51609 0
M  V30 6611 H 608.228 1.11135 6.68323 0
M  V30 6612 H 609.171 2.63163 6.57382 0
M  V30 6613 H 609.579 1.25823 5.50299 0
M  V30 6614 N 608.977 -1.30795 0.87923 0
M  V30 6615 C 609.907 -2.30742 0.357796 0
M  V30 6616 C 610.888 -1.60747 -0.556283 0
M  V30 6617 O 612.073 -1.88393 -0.47135 0
M  V30 6618 C 609.203 -3.44583 -0.433555 0
M  V30 6619 C 608.157 -4.26235 0.388251 0
M  V30 6620 C 607.483 -5.32073 -0.529352 0
M  V30 6621 C 608.783 -4.96303 1.62729 0
M  V30 6622 H 610.477 -2.74605 1.19299 0
M  V30 6623 H 608.023 -1.32017 0.575104 0
M  V30 6624 H 609.976 -4.13563 -0.808934 0
M  V30 6625 H 608.7 -2.99511 -1.30234 0
M  V30 6626 H 607.359 -3.58936 0.745695 0
M  V30 6627 H 607.007 -4.83249 -1.39569 0
M  V30 6628 H 606.707 -5.87598 0.0166741 0
M  V30 6629 H 608.231 -6.0391 -0.901373 0
M  V30 6630 H 609.645 -5.5783 1.32283 0
M  V30 6631 H 608.042 -5.61666 2.11309 0
M  V30 6632 H 609.112 -4.22758 2.37494 0
M  V30 6633 N 610.455 -0.639598 -1.44038 0
M  V30 6634 C 611.385 0.0469443 -2.33453 0
M  V30 6635 C 612.366 0.82609 -1.48694 0
M  V30 6636 O 613.551 0.790285 -1.77393 0
M  V30 6637 C 610.681 1.02338 -3.3188 0
M  V30 6638 C 609.635 0.355284 -4.26523 0
M  V30 6639 C 608.961 1.44221 -5.14883 0
M  V30 6640 C 610.261 -0.743798 -5.16977 0
M  V30 6641 H 611.955 -0.699735 -2.91108 0
M  V30 6642 H 609.501 -0.337946 -1.39978 0
M  V30 6643 H 611.454 1.51247 -3.93322 0
M  V30 6644 H 610.178 1.80105 -2.72451 0
M  V30 6645 H 608.837 -0.113239 -3.66425 0
M  V30 6646 H 608.485 2.21097 -4.51802 0
M  V30 6647 H 608.185 1.00052 -5.79019 0
M  V30 6648 H 609.709 1.93295 -5.79197 0
M  V30 6649 H 611.123 -0.337444 -5.72306 0
M  V30 6650 H 609.52 -1.10914 -5.89761 0
M  V30 6651 H 610.59 -1.60745 -4.57481 0
M  V30 6652 N 611.933 1.52934 -0.380664 0
M  V30 6653 C 612.881 2.27727 0.47361 0
M  V30 6654 C 613.875 1.31288 1.0705 0
M  V30 6655 O 615.081 1.4886 1.01197 0
M  V30 6656 H 611.456 0.732189 0.171475 0
M  V30 6657 H 613.427 2.97864 -0.178785 0
M  V30 6658 C 612.176 3.0904 1.59341 0
M  V30 6659 H 611.499 3.831 1.14343 0
M  V30 6660 H 612.939 3.64527 2.16555 0
M  V30 6661 C 611.398 2.20813 2.54447 0
M  V30 6662 O 611.928 1.82907 3.57642 0
M  V30 6663 N 610.134 1.85145 2.23986 0
M  V30 6664 H 609.681 2.16169 1.40103 0
M  V30 6665 H 609.639 1.26402 2.87871 0
M  V30 6666 N 613.412 0.11024 1.57214 0
M  V30 6667 C 614.828 -0.24638 1.57687 0
M  V30 6668 C 615.028 -1.67344 1.12241 0
M  V30 6669 O 614.084 -2.39298 0.805783 0
M  V30 6670 C 615.397 -0.0210288 3.00693 0
M  V30 6671 C 616.945 -0.0876077 3.12877 0
M  V30 6672 C 617.42 0.10994 4.57868 0
M  V30 6673 N 618.911 0.0556135 4.63167 0
M  V30 6674 C 619.646 0.183495 5.73106 0
M  V30 6675 N 619.142 0.367058 6.91827 0
M  V30 6676 N 620.935 0.123689 5.61964 0
M  V30 6677 H 613.086 1.04246 1.85058 0
M  V30 6678 H 615.349 0.40979 0.854854 0
M  V30 6679 H 615.055 0.965203 3.38196 0
M  V30 6680 H 614.929 -0.756748 3.69531 0
M  V30 6681 H 617.316 -1.06436 2.75237 0
M  V30 6682 H 617.397 0.67985 2.466 0
M  V30 6683 H 617.041 1.08362 4.96206 0
M  V30 6684 H 616.971 -0.677397 5.22225 0
M  V30 6685 H 619.462 -0.0831062 3.77809 0
M  V30 6686 H 619.775 0.455739 7.71455 0
M  V30 6687 H 618.12 0.40292 6.93831 0
M  V30 6688 H 621.311 -0.0186928 4.68096 0
M  V30 6689 H 621.484 0.226797 6.47603 0
M  V30 6690 N 614.89 -1.56749 -0.16351 0
M  V30 6691 C 616.301 -1.72039 -0.725216 0
M  V30 6692 C 616.652 -0.72202 -1.82432 0
M  V30 6693 O 615.777 0.114942 -2.16095 0
M  V30 6694 C 616.372 -3.11932 -1.32227 0
M  V30 6695 C 614.931 -3.28879 -1.83072 0
M  V30 6696 C 614.078 -2.67984 -0.712716 0
M  V30 6697 H 617.029 -1.58579 0.0619772 0
M  V30 6698 H 617.05 -3.11015 -2.19202 0
M  V30 6699 H 616.562 -3.84572 -0.522103 0
M  V30 6700 H 614.663 -2.61209 -2.65708 0
M  V30 6701 H 614.776 -4.36688 -1.97079 0
M  V30 6702 H 613.14 -2.28005 -1.13515 0
M  V30 6703 H 613.923 -3.43216 0.0757361 0
M  V30 6704 N 616.368 0.432326 -1.51554 0
M  V30 6705 C 617.298 1.53242 -1.76179 0
M  V30 6706 C 618.279 1.58717 -0.611801 0
M  V30 6707 O 619.464 1.74364 -0.855033 0
M  V30 6708 C 616.594 2.91278 -1.89141 0
M  V30 6709 C 615.548 3.00663 -3.04608 0
M  V30 6710 C 614.874 4.40728 -3.02759 0
M  V30 6711 C 616.174 2.74281 -4.44485 0
M  V30 6712 H 617.868 1.32886 -2.68294 0
M  V30 6713 H 615.414 0.637841 -1.29103 0
M  V30 6714 H 617.367 3.68203 -2.04951 0
M  V30 6715 H 616.091 3.12877 -0.936785 0
M  V30 6716 H 614.75 2.26179 -2.88511 0
M  V30 6717 H 614.398 4.59301 -2.05065 0
M  V30 6718 H 614.098 4.47936 -3.80299 0
M  V30 6719 H 615.622 5.19619 -3.20669 0
M  V30 6720 H 617.036 3.40936 -4.60907 0
M  V30 6721 H 615.433 2.92893 -5.23769 0
M  V30 6722 H 616.503 1.69856 -4.54177 0
M  V30 6723 N 617.846 1.41785 0.688094 0
M  V30 6724 C 619.123 1.32031 1.44316 0
M  V30 6725 C 619.503 -0.0486079 2.11044 0
M  V30 6726 O 618.851 -1.06332 2.02252 0
M  V30 6727 C 619.061 2.47906 2.45649 0
M  V30 6728 C 620.409 2.89415 3.10683 0
M  V30 6729 O 621.433 2.477 2.55975 0
M  V30 6730 O 620.292 3.61573 4.09789 0
M  V30 6731 H 617.386 0.519994 0.643067 0
M  V30 6732 H 619.932 1.53765 0.71794 0
M  V30 6733 H 618.704 3.39222 1.95048 0
M  V30 6734 H 618.327 2.28089 3.25671 0
M  V30 6735 N 619.324 -0.923095 1.27737 0
M  V30 6736 C 620.572 -1.66797 1.14119 0
M  V30 6737 C 620.893 -1.92479 -0.312541 0
M  V30 6738 O 620.163 -1.53432 -1.218 0
M  V30 6739 H 618.743 -0.618196 0.419336 0
M  V30 6740 H 621.405 -1.10815 1.60331 0
M  V30 6741 H 620.501 -2.63424 1.67374 0
M  V30 6742 N 620.802 -1.09834 -1.13024 0
M  V30 6743 C 622.048 -0.83819 -1.84668 0
M  V30 6744 C 622.381 0.634645 -1.83537 0
M  V30 6745 O 621.656 1.46753 -1.27647 0
M  V30 6746 C 621.939 -1.37933 -3.32636 0
M  V30 6747 C 621.792 -2.91857 -3.42257 0
M  V30 6748 C 623.111 -1.01654 -4.28199 0
M  V30 6749 H 620.23 -0.30595 -0.670495 0
M  V30 6750 H 622.872 -1.36044 -1.32635 0
M  V30 6751 H 621.022 -0.935111 -3.77078 0
M  V30 6752 H 622.694 -3.44759 -3.06495 0
M  V30 6753 H 620.937 -3.28776 -2.83 0
M  V30 6754 H 621.608 -3.24799 -4.46329 0
M  V30 6755 H 624.084 -1.39973 -3.9185 0
M  V30 6756 H 622.96 -1.42217 -5.30156 0
M  V30 6757 H 623.221 0.0747794 -4.42037 0
M  V30 6758 N 622.28 1.30327 -0.886154 0
M  V30 6759 C 623.508 2.00254 -0.520176 0
M  V30 6760 C 623.923 1.66419 0.891637 0
M  V30 6761 O 623.28 0.901951 1.58654 0
M  V30 6762 C 623.331 3.54916 -0.686775 0
M  V30 6763 O 623.052 3.87547 -2.04301 0
M  V30 6764 C 624.553 4.42115 -0.323945 0
M  V30 6765 H 621.773 0.640204 -0.200947 0
M  V30 6766 H 624.317 1.66183 -1.19178 0
M  V30 6767 H 622.472 3.8735 -0.0625273 0
M  V30 6768 H 622.886 4.82247 -2.06249 0
M  V30 6769 H 624.36 5.49808 -0.491407 0
M  V30 6770 H 624.837 4.32953 0.73811 0
M  V30 6771 H 625.443 4.15129 -0.924565 0
M  V30 6772 N 623.758 0.647228 1.43697 0
M  V30 6773 C 624.706 -0.0600105 2.32523 0
M  V30 6774 C 625.7 -0.819277 1.48271 0
M  V30 6775 O 626.906 -0.730356 1.64517 0
M  V30 6776 H 623.281 -0.0381872 0.75103 0
M  V30 6777 H 625.252 0.706978 2.89904 0
M  V30 6778 C 624.001 -1.0169 3.32497 0
M  V30 6779 H 623.324 -0.442083 3.97348 0
M  V30 6780 H 624.764 -1.48095 3.97296 0
M  V30 6781 C 623.223 -2.11002 2.6264 0
M  V30 6782 O 623.753 -3.19302 2.4374 0
M  V30 6783 N 621.959 -1.87388 2.22113 0
M  V30 6784 H 621.506 -0.993174 2.37684 0
M  V30 6785 H 621.464 -2.60723 1.75701 0
M  V30 6786 N 625.236 -1.5273 0.388769 0
M  V30 6787 C 626.461 -2.0647 -0.19621 0
M  V30 6788 C 626.886 -1.25865 -1.39784 0
M  V30 6789 O 626.244 -0.283562 -1.79069 0
M  V30 6790 C 626.292 -3.56456 -0.5451 0
M  V30 6791 O 625.396 -3.78426 -1.63912 0
M  V30 6792 H 624.737 -0.663599 -0.023067 0
M  V30 6793 H 627.267 -1.96898 0.556084 0
M  V30 6794 H 627.277 -3.99888 -0.809557 0
M  V30 6795 H 625.952 -4.14561 0.333417 0
M  V30 6796 H 624.529 -3.46884 -1.36842 0
M  V30 6797 N 626.714 -0.118576 -1.57153 0
M  V30 6798 C 627.644 0.828436 -2.1831 0
M  V30 6799 C 628.625 1.27758 -1.12303 0
M  V30 6800 O 629.81 1.34026 -1.40537 0
M  V30 6801 C 626.94 2.07876 -2.78217 0
M  V30 6802 C 625.894 1.76742 -3.89803 0
M  V30 6803 C 625.22 3.08801 -4.36516 0
M  V30 6804 C 626.52 1.03606 -5.11921 0
M  V30 6805 H 628.214 0.318824 -2.97698 0
M  V30 6806 H 625.76 0.151911 -1.43196 0
M  V30 6807 H 627.713 2.74584 -3.19659 0
M  V30 6808 H 626.437 2.61161 -1.96118 0
M  V30 6809 H 625.096 1.12424 -3.48936 0
M  V30 6810 H 624.744 3.6002 -3.51276 0
M  V30 6811 H 624.444 2.88743 -5.11763 0
M  V30 6812 H 625.968 3.76627 -4.80608 0
M  V30 6813 H 627.382 1.60467 -5.50385 0
M  V30 6814 H 625.779 0.936454 -5.92748 0
M  V30 6815 H 626.849 0.0227421 -4.84895 0
M  V30 6816 N 628.193 1.56834 0.155195 0
M  V30 6817 C 629.604 1.72421 0.716082 0
M  V30 6818 C 629.955 0.731685 1.82046 0
M  V30 6819 O 629.08 -0.103481 2.16152 0
M  V30 6820 C 629.675 3.12629 1.30571 0
M  V30 6821 C 628.234 3.29846 1.81325 0
M  V30 6822 C 627.381 2.68359 0.698494 0
M  V30 6823 H 630.332 1.58544 -0.0703861 0
M  V30 6824 H 630.353 3.12174 2.1755 0
M  V30 6825 H 629.865 3.84844 0.501701 0
M  V30 6826 H 627.966 2.62614 2.64319 0
M  V30 6827 H 628.079 4.37727 1.9476 0
M  V30 6828 H 626.443 2.28604 1.12305 0
M  V30 6829 H 627.226 3.43171 -0.0939366 0
M  V30 6830 N 629.671 -0.424282 1.51781 0
M  V30 6831 C 630.896 -1.19928 1.6921 0
M  V30 6832 C 631.321 -1.8392 0.394355 0
M  V30 6833 O 630.679 -1.69371 -0.646778 0
M  V30 6834 C 630.727 -2.24937 2.81843 0
M  V30 6835 O 629.831 -3.3073 2.46356 0
M  V30 6836 H 629.172 -0.35078 0.563781 0
M  V30 6837 H 631.702 -0.499401 1.98412 0
M  V30 6838 H 631.712 -2.69512 3.06312 0
M  V30 6839 H 630.387 -1.77742 3.76006 0
M  V30 6840 H 628.964 -2.9154 2.32505 0
M  V30 6841 N 631.149 -1.42148 -0.680565 0
M  V30 6842 C 632.56 -1.3768 -1.26099 0
M  V30 6843 C 632.911 -0.0672348 -1.96085 0
M  V30 6844 O 632.036 0.834172 -1.99676 0
M  V30 6845 C 632.631 -2.49387 -2.29328 0
M  V30 6846 C 631.19 -2.4827 -2.82911 0
M  V30 6847 C 630.337 -2.2847 -1.57152 0
M  V30 6848 H 633.288 -1.51446 -0.474326 0
M  V30 6849 H 633.309 -2.19307 -3.10941 0
M  V30 6850 H 632.821 -3.44686 -1.78363 0
M  V30 6851 H 630.922 -1.56773 -3.38013 0
M  V30 6852 H 631.035 -3.45109 -3.3232 0
M  V30 6853 H 629.399 -1.76623 -1.83511 0
M  V30 6854 H 630.182 -3.25816 -1.0816 0
M  V30 6855 N 632.627 0.916307 -1.28225 0
M  V30 6856 C 633.537 2.05165 -1.13775 0
M  V30 6857 C 634.553 1.73879 -0.0649418 0
M  V30 6858 O 635.729 1.99531 -0.273722 0
M  V30 6859 C 632.794 3.37385 -0.798267 0
M  V30 6860 C 631.855 3.82296 -1.95316 0
M  V30 6861 C 631.088 5.08206 -1.62978 0
M  V30 6862 O 631.311 5.6781 -0.542948 0
M  V30 6863 O 630.245 5.48768 -2.47261 0
M  V30 6864 H 634.071 2.20273 -2.09078 0
M  V30 6865 H 631.656 1.0373 -1.07519 0
M  V30 6866 H 633.538 4.16773 -0.62278 0
M  V30 6867 H 632.213 3.23458 0.125139 0
M  V30 6868 H 631.12 3.03746 -2.18378 0
M  V30 6869 H 632.453 4.00782 -2.85718 0
M  V30 6870 N 634.105 1.10431 1.1244 0
M  V30 6871 C 635.037 0.710945 2.17895 0
M  V30 6872 C 636.05 -0.252315 1.60833 0
M  V30 6873 O 637.239 -0.03679 1.78462 0
M  V30 6874 C 634.339 0.0284262 3.38888 0
M  V30 6875 C 633.512 1.01585 4.2544 0
M  V30 6876 C 632.571 0.364826 5.24934 0
M  V30 6877 O 631.597 1.01561 5.60066 0
M  V30 6878 N 632.799 -0.87674 5.73841 0
M  V30 6879 H 635.564 1.61826 2.52255 0
M  V30 6880 H 633.125 0.993132 1.27861 0
M  V30 6881 H 635.117 -0.418568 4.0253 0
M  V30 6882 H 633.687 -0.781294 3.02679 0
M  V30 6883 H 632.907 1.64111 3.58415 0
M  V30 6884 H 634.195 1.68425 4.80115 0
M  V30 6885 H 633.593 -1.42483 5.47462 0
M  V30 6886 H 632.15 -1.26688 6.39369 0
M  V30 6887 N 635.583 -1.29855 0.893053 0
M  V30 6888 C 636.513 -2.3035 0.382249 0
M  V30 6889 C 637.494 -1.61328 -0.539203 0
M  V30 6890 O 638.679 -1.88882 -0.451342 0
M  V30 6891 C 635.809 -3.45024 -0.396983 0
M  V30 6892 C 634.763 -4.258 0.433437 0
M  V30 6893 C 634.089 -5.32605 -0.472889 0
M  V30 6894 C 635.389 -4.94549 1.67984 0
M  V30 6895 H 637.083 -2.73325 1.22205 0
M  V30 6896 H 634.629 -1.314 0.589073 0
M  V30 6897 H 636.582 -4.14398 -0.765024 0
M  V30 6898 H 635.306 -3.00875 -1.2705 0
M  V30 6899 H 633.965 -3.58125 0.783723 0
M  V30 6900 H 633.613 -4.84702 -1.34435 0
M  V30 6901 H 633.313 -5.87547 0.0789958 0
M  V30 6902 H 634.837 -6.04832 -0.837269 0
M  V30 6903 H 636.251 -5.56395 1.38192 0
M  V30 6904 H 634.648 -5.59393 2.17254 0
M  V30 6905 H 635.718 -4.20215 2.41965 0
M  V30 6906 N 637.061 -0.65484 -1.43351 0
M  V30 6907 C 638.008 0.0357713 -2.30772 0
M  V30 6908 C 638.978 0.813035 -1.44841 0
M  V30 6909 O 640.163 0.789314 -1.73708 0
M  V30 6910 C 637.303 0.995084 -3.30442 0
M  V30 6911 C 636.416 0.21375 -4.31471 0
M  V30 6912 C 635.551 1.16701 -5.18222 0
M  V30 6913 C 634.59 0.376201 -6.10943 0
M  V30 6914 N 633.727 1.28113 -6.90313 0
M  V30 6915 H 638.567 -0.71559 -2.89281 0
M  V30 6916 H 636.104 -0.364645 -1.42509 0
M  V30 6917 H 638.062 1.5649 -3.86739 0
M  V30 6918 H 636.692 1.7133 -2.7358 0
M  V30 6919 H 635.744 -0.472377 -3.77456 0
M  V30 6920 H 637.056 -0.401103 -4.97185 0
M  V30 6921 H 636.21 1.8074 -5.79153 0
M  V30 6922 H 634.949 1.81577 -4.52638 0
M  V30 6923 H 633.954 -0.277534 -5.49099 0
M  V30 6924 H 635.179 -0.268178 -6.7857 0
M  V30 6925 H 633.125 1.91666 -6.27376 0
M  V30 6926 H 633.042 0.720879 -7.52555 0
M  V30 6927 H 634.31 1.90962 -7.55747 0
M  V30 6928 N 638.539 1.52521 -0.396863 0
M  V30 6929 C 639.787 2.01274 0.182536 0
M  V30 6930 C 640.108 1.28485 1.46685 0
M  V30 6931 O 639.378 0.407134 1.91623 0
M  V30 6932 H 637.958 0.743671 0.0704442 0
M  V30 6933 H 640.62 1.87547 -0.530289 0
M  V30 6934 H 639.716 3.09687 0.387385 0
M  V30 6935 N 640.017 0.126909 1.57088 0
M  V30 6936 C 640.964 -0.82036 2.15728 0
M  V30 6937 C 641.934 -1.25811 1.08447 0
M  V30 6938 O 643.119 -1.33422 1.36393 0
M  V30 6939 C 640.259 -2.06199 2.76724 0
M  V30 6940 C 639.372 -1.67188 3.98337 0
M  V30 6941 C 638.507 -2.86378 4.47393 0
M  V30 6942 C 637.546 -2.43644 5.61519 0
M  V30 6943 N 636.683 -3.55775 6.05284 0
M  V30 6944 H 641.523 -0.313472 2.96347 0
M  V30 6945 H 639.06 -0.14303 1.46403 0
M  V30 6946 H 641.018 -2.78959 3.10222 0
M  V30 6947 H 639.648 -2.54333 1.98782 0
M  V30 6948 H 638.7 -0.842714 3.70948 0
M  V30 6949 H 640.012 -1.31789 4.81075 0
M  V30 6950 H 639.166 -3.67353 4.82842 0
M  V30 6951 H 637.905 -3.25009 3.63621 0
M  V30 6952 H 636.91 -1.61104 5.25667 0
M  V30 6953 H 638.135 -2.06122 6.47063 0
M  V30 6954 H 636.081 -3.94065 5.24451 0
M  V30 6955 H 635.998 -3.24325 6.82898 0
M  V30 6956 H 637.266 -4.37166 6.45373 0
M  V30 6957 N 641.495 -1.56914 -0.146875 0
M  V30 6958 C 642.744 -1.82546 -0.857898 0
M  V30 6959 C 643.057 -0.708169 -1.8233 0
M  V30 6960 O 644.263 -0.850093 -2.57848 0
M  V30 6961 C 642.719 -3.23548 -1.57623 0
M  V30 6962 C 642.327 -4.43212 -0.653224 0
M  V30 6963 C 644.071 -3.58453 -2.27402 0
M  V30 6964 C 641.978 -5.75237 -1.37318 0
M  V30 6965 H 640.908 -0.680786 -0.32411 0
M  V30 6966 H 643.559 -1.83166 -0.110639 0
M  V30 6967 H 641.941 -3.17315 -2.36912 0
M  V30 6968 H 643.115 -4.60682 0.104452 0
M  V30 6969 H 641.43 -4.16351 -0.0638336 0
M  V30 6970 H 644.027 -4.54349 -2.81907 0
M  V30 6971 H 644.37 -2.84516 -3.03901 0
M  V30 6972 H 644.903 -3.66347 -1.55032 0
M  V30 6973 H 641.642 -6.52269 -0.650041 0
M  V30 6974 H 641.162 -5.61703 -2.10357 0
M  V30 6975 H 642.841 -6.18039 -1.91406 0
M  V30 6976 N 642.974 0.416227 -1.52004 0
M  V30 6977 C 643.904 1.51365 -1.77795 0
M  V30 6978 C 644.885 1.58059 -0.628601 0
M  V30 6979 O 646.07 1.73447 -0.873478 0
M  V30 6980 C 643.2 2.89256 -1.92219 0
M  V30 6981 C 642.154 2.97415 -3.0778 0
M  V30 6982 C 641.48 4.37492 -3.07417 0
M  V30 6983 C 642.78 2.69551 -4.47369 0
M  V30 6984 H 644.474 1.30033 -2.69688 0
M  V30 6985 H 642.02 0.624112 -1.29772 0
M  V30 6986 H 643.973 3.66008 -2.08845 0
M  V30 6987 H 642.697 3.11866 -0.969917 0
M  V30 6988 H 641.356 2.23107 -2.90893 0
M  V30 6989 H 641.004 4.571 -2.09925 0
M  V30 6990 H 640.704 4.43877 -3.85029 0
M  V30 6991 H 642.228 5.16188 -3.26162 0
M  V30 6992 H 643.642 3.36028 -4.64497 0
M  V30 6993 H 642.039 2.87321 -5.26846 0
M  V30 6994 H 643.109 1.65029 -4.55953 0
M  V30 6995 N 644.452 1.42507 0.673017 0
M  V30 6996 C 645.382 1.48916 1.79851 0
M  V30 6997 C 646.363 0.345566 1.66553 0
M  V30 6998 O 647.548 0.560116 1.85947 0
M  V30 6999 C 644.678 1.39258 3.18158 0
M  V30 7000 C 643.632 2.51662 3.46194 0
M  V30 7001 C 642.958 2.27062 4.84094 0
M  V30 7002 C 644.258 3.93968 3.42909 0
M  V30 7003 H 645.952 2.43114 1.74745 0
M  V30 7004 H 643.498 1.17013 0.839288 0
M  V30 7005 H 645.451 1.42349 3.96629 0
M  V30 7006 H 644.175 0.415542 3.23946 0
M  V30 7007 H 642.834 2.47891 2.70084 0
M  V30 7008 H 642.482 1.27648 4.86534 0
M  V30 7009 H 642.182 3.02398 5.03815 0
M  V30 7010 H 643.706 2.31905 5.64847 0
M  V30 7011 H 645.12 3.99332 4.11347 0
M  V30 7012 H 643.517 4.6917 3.74165 0
M  V30 7013 H 644.587 4.20512 2.41449 0
M  V30 7014 N 645.93 -0.909495 1.28709 0
M  V30 7015 C 646.877 -2.01245 1.13 0
M  V30 7016 C 647.847 -1.6608 0.0259684 0
M  V30 7017 O 649.032 -1.89835 0.191687 0
M  V30 7018 C 646.172 -3.35644 0.802315 0
M  V30 7019 C 645.285 -3.83653 1.98582 0
M  V30 7020 C 644.42 -5.06582 1.59837 0
M  V30 7021 C 643.459 -5.46934 2.74827 0
M  V30 7022 N 642.596 -6.61053 2.36546 0
M  V30 7023 H 647.436 -2.14013 2.0737 0
M  V30 7024 H 644.973 -1.0482 1.03205 0
M  V30 7025 H 646.931 -4.12963 0.593057 0
M  V30 7026 H 645.561 -3.22631 -0.104457 0
M  V30 7027 H 644.613 -3.02454 2.30708 0
M  V30 7028 H 645.925 -4.09515 2.84779 0
M  V30 7029 H 645.079 -5.91457 1.35143 0
M  V30 7030 H 643.818 -4.82537 0.707753 0
M  V30 7031 H 642.823 -4.60599 3.00215 0
M  V30 7032 H 644.048 -5.72965 3.64538 0
M  V30 7033 H 641.994 -6.3863 1.49959 0
M  V30 7034 H 641.911 -6.86662 3.16277 0
M  V30 7035 H 643.179 -7.49221 2.15146 0
M  V30 7036 N 647.408 -1.11026 -1.11852 0
M  V30 7037 C 648.656 -0.854769 -1.83134 0
M  V30 7038 C 648.977 0.621375 -1.84835 0
M  V30 7039 O 648.247 1.45129 -1.31584 0
M  V30 7040 H 646.827 -0.313229 -0.678157 0
M  V30 7041 H 649.489 -1.40178 -1.35411 0
M  V30 7042 H 648.585 -1.22311 -2.87135 0
M  V30 7043 N 648.886 1.2938 -0.899927 0
M  V30 7044 C 649.833 2.27713 -0.376243 0
M  V30 7045 C 650.803 1.57016 0.541774 0
M  V30 7046 O 651.988 1.84997 0.466966 0
M  V30 7047 C 649.128 3.42889 0.39 0
M  V30 7048 C 648.241 4.28369 -0.558938 0
M  V30 7049 C 647.376 5.30726 0.224379 0
M  V30 7050 C 646.415 6.07862 -0.719068 0
M  V30 7051 N 645.552 7.02094 0.0298569 0
M  V30 7052 H 650.392 2.71888 -1.21988 0
M  V30 7053 H 647.929 1.33724 -0.612879 0
M  V30 7054 H 649.887 4.08443 0.850314 0
M  V30 7055 H 648.517 2.99743 1.19809 0
M  V30 7056 H 647.569 3.62986 -1.13777 0
M  V30 7057 H 648.881 4.82068 -1.2811 0
M  V30 7058 H 648.035 6.02098 0.745881 0
M  V30 7059 H 646.774 4.77759 0.979674 0
M  V30 7060 H 645.779 5.35353 -1.25207 0
M  V30 7061 H 647.004 6.62917 -1.4737 0
M  V30 7062 H 644.95 6.51496 0.767415 0
M  V30 7063 H 644.867 7.5335 -0.632391 0
M  V30 7064 H 646.135 7.77685 0.531615 0
M  V30 7065 N 650.364 0.662433 1.43002 0
M  V30 7066 C 651.311 -0.0235324 2.30788 0
M  V30 7067 C 652.281 -0.805342 1.4527 0
M  V30 7068 O 653.466 -0.78009 1.74124 0
M  V30 7069 C 650.606 -0.977545 3.30965 0
M  V30 7070 C 649.719 -0.190865 4.31578 0
M  V30 7071 C 648.854 -1.13951 5.18834 0
M  V30 7072 C 647.893 -0.343796 6.11134 0
M  V30 7073 N 647.03 -1.2445 6.90982 0
M  V30 7074 H 651.87 0.730921 2.88897 0
M  V30 7075 H 649.407 0.372197 1.42313 0
M  V30 7076 H 651.365 -1.54437 3.87563 0
M  V30 7077 H 649.995 -1.69877 2.74484 0
M  V30 7078 H 649.047 0.492388 3.772 0
M  V30 7079 H 650.359 0.427464 4.96965 0
M  V30 7080 H 649.513 -1.77666 5.80103 0
M  V30 7081 H 648.252 -1.79174 4.53595 0
M  V30 7082 H 647.257 0.30665 5.48944 0
M  V30 7083 H 648.482 0.304161 6.78419 0
M  V30 7084 H 646.428 -1.88336 6.28383 0
M  V30 7085 H 646.345 -0.680959 7.52927 0
M  V30 7086 H 647.613 -1.86952 7.56749 0
M  V30 7087 N 651.842 -1.52309 0.404946 0
M  V30 7088 C 652.772 -2.29805 -0.41376 0
M  V30 7089 C 653.753 -1.3384 -1.0498 0
M  V30 7090 O 654.938 -1.62745 -1.05961 0
M  V30 7091 C 652.068 -3.11639 -1.53292 0
M  V30 7092 C 651.022 -4.15616 -1.02211 0
M  V30 7093 C 650.348 -4.8577 -2.23455 0
M  V30 7094 C 651.648 -5.2224 -0.0790725 0
M  V30 7095 H 653.342 -2.98493 0.232878 0
M  V30 7096 H 650.888 -1.43552 0.113441 0
M  V30 7097 H 652.841 -3.64618 -2.11262 0
M  V30 7098 H 651.565 -2.40712 -2.20738 0
M  V30 7099 H 650.224 -3.63641 -0.46484 0
M  V30 7100 H 649.872 -4.11376 -2.89445 0
M  V30 7101 H 649.572 -5.56058 -1.89929 0
M  V30 7102 H 651.096 -5.4156 -2.82038 0
M  V30 7103 H 652.51 -5.70485 -0.567438 0
M  V30 7104 H 650.907 -5.99867 0.167167 0
M  V30 7105 H 651.977 -4.77078 0.867447 0
M  V30 7106 N 653.32 -0.135238 -1.57019 0
M  V30 7107 C 654.568 0.51777 -1.95355 0
M  V30 7108 C 654.889 1.6617 -1.02042 0
M  V30 7109 O 654.159 1.95738 -0.0797343 0
M  V30 7110 H 652.739 0.194264 -0.721298 0
M  V30 7111 H 655.401 -0.207983 -1.93787 0
M  V30 7112 H 654.497 0.901675 -2.98791 0
M  V30 7113 N 654.798 1.5699 0.138552 0
M  V30 7114 C 656.046 1.83446 0.848053 0
M  V30 7115 C 656.367 0.71744 1.81322 0
M  V30 7116 O 655.637 -0.260228 1.94164 0
M  V30 7117 H 654.217 0.676792 0.316166 0
M  V30 7118 H 656.879 1.94462 0.130538 0
M  V30 7119 H 655.975 2.78677 1.40518 0
M  V30 7120 N 656.276 -0.40816 1.52223 0
M  V30 7121 C 657.206 -1.5042 1.78595 0
M  V30 7122 C 658.187 -1.57723 0.636974 0
M  V30 7123 O 659.372 -1.72982 0.882664 0
M  V30 7124 C 656.502 -2.88232 1.93751 0
M  V30 7125 C 655.456 -2.95779 3.09352 0
M  V30 7126 C 654.782 -4.35855 3.09732 0
M  V30 7127 C 656.082 -2.67175 4.48793 0
M  V30 7128 H 657.776 -1.28601 2.70374 0
M  V30 7129 H 655.322 -0.617221 1.30101 0
M  V30 7130 H 657.275 -3.64895 2.10783 0
M  V30 7131 H 655.999 -3.11347 0.986443 0
M  V30 7132 H 654.658 -2.21561 2.92072 0
M  V30 7133 H 654.306 -4.55981 2.12346 0
M  V30 7134 H 654.006 -4.41829 3.87377 0
M  V30 7135 H 655.53 -5.14451 3.28895 0
M  V30 7136 H 656.944 -3.3356 4.66273 0
M  V30 7137 H 655.341 -2.84523 5.28362 0
M  V30 7138 H 656.411 -1.62609 4.56822 0
M  V30 7139 N 657.755 -1.42862 -0.66545 0
M  V30 7140 C 658.685 -1.49867 -1.79059 0
M  V30 7141 C 659.666 -0.354394 -1.66367 0
M  V30 7142 O 660.851 -0.569969 -1.85647 0
M  V30 7143 C 657.981 -1.40943 -3.17415 0
M  V30 7144 C 656.935 -2.53495 -3.44854 0
M  V30 7145 C 656.261 -2.29626 -4.82883 0
M  V30 7146 C 657.561 -3.95781 -3.40815 0
M  V30 7147 H 659.255 -2.44037 -1.73453 0
M  V30 7148 H 656.801 -1.17456 -0.833071 0
M  V30 7149 H 658.754 -1.4445 -3.95869 0
M  V30 7150 H 657.478 -0.432716 -3.23721 0
M  V30 7151 H 656.137 -2.4932 -2.68766 0
M  V30 7152 H 655.785 -1.30226 -4.8585 0
M  V30 7153 H 655.485 -3.05065 -5.02204 0
M  V30 7154 H 657.009 -2.34897 -5.63609 0
M  V30 7155 H 658.423 -4.01508 -4.09224 0
M  V30 7156 H 656.82 -4.71148 -3.71672 0
M  V30 7157 H 657.89 -4.21786 -2.39216 0
M  V30 7158 N 659.233 0.902656 -1.29189 0
M  V30 7159 C 660.644 1.46809 -1.15343 0
M  V30 7160 C 660.995 1.94568 0.252517 0
M  V30 7161 O 660.12 1.83454 1.14777 0
M  V30 7162 C 660.715 2.66829 -2.08776 0
M  V30 7163 C 659.274 3.19518 -1.98961 0
M  V30 7164 C 658.421 1.92212 -1.99874 0
M  V30 7165 H 661.372 0.714282 -1.41717 0
M  V30 7166 H 661.393 3.42465 -1.65826 0
M  V30 7167 H 660.905 2.32039 -3.11094 0
M  V30 7168 H 659.006 3.59008 -0.99721 0
M  V30 7169 H 659.119 3.84016 -2.86477 0
M  V30 7170 H 657.483 2.0979 -1.44431 0
M  V30 7171 H 658.266 1.59702 -3.03891 0
M  V30 7172 N 660.711 1.11618 1.11262 0
M  V30 7173 C 662.122 0.881942 1.64556 0
M  V30 7174 C 662.473 -0.585442 1.87262 0
M  V30 7175 O 661.598 -1.44795 1.60821 0
M  V30 7176 C 662.193 1.59446 2.98935 0
M  V30 7177 C 660.752 1.40661 3.4913 0
M  V30 7178 C 659.899 1.63593 2.23903 0
M  V30 7179 H 662.85 1.27217 0.94877 0
M  V30 7180 H 662.871 1.04054 3.65996 0
M  V30 7181 H 662.383 2.66241 2.82378 0
M  V30 7182 H 660.484 0.360835 3.70849 0
M  V30 7183 H 660.597 2.15693 4.27801 0
M  V30 7184 H 658.961 1.05944 2.3162 0
M  V30 7185 H 659.744 2.71666 2.09886 0
M  V30 7186 N 662.189 -1.289 0.906776 0
M  V30 7187 C 663.437 -1.94883 0.535266 0
M  V30 7188 C 663.758 -1.71784 -0.922791 0
M  V30 7189 O 663.028 -1.05359 -1.65156 0
M  V30 7190 H 661.608 -0.721109 0.194962 0
M  V30 7191 H 664.27 -1.57018 1.15461 0
M  V30 7192 H 663.366 -3.03591 0.723821 0
M  V30 7193 N 663.667 -0.670007 -1.42649 0
M  V30 7194 C 664.915 -0.18991 -2.01206 0
M  V30 7195 C 665.236 1.20617 -1.53221 0
M  V30 7196 O 664.506 1.80898 -0.751856 0
M  V30 7197 H 663.086 -0.0672189 -0.743969 0
M  V30 7198 H 665.748 -0.865442 -1.74631 0
M  V30 7199 H 664.844 -0.187481 -3.11536 0
M  V30 7200 N 665.145 1.52092 -0.413018 0
M  V30 7201 C 666.055 2.30858 0.417318 0
M  V30 7202 C 667.071 1.38746 1.05003 0
M  V30 7203 O 668.247 1.71821 1.05069 0
M  V30 7204 C 665.312 3.11756 1.51687 0
M  V30 7205 C 664.373 4.19613 0.906825 0
M  V30 7206 C 663.606 4.96644 1.95399 0
M  V30 7207 O 663.829 4.7402 3.17271 0
M  V30 7208 O 662.763 5.81385 1.55805 0
M  V30 7209 H 666.589 3.02865 -0.225028 0
M  V30 7210 H 664.174 1.48358 -0.176126 0
M  V30 7211 H 666.056 3.62122 2.15512 0
M  V30 7212 H 664.731 2.42539 2.14375 0
M  V30 7213 H 663.638 3.73385 0.231183 0
M  V30 7214 H 664.971 4.91134 0.323814 0
M  V30 7215 N 666.623 0.143563 1.56945 0
M  V30 7216 C 667.871 -0.507402 1.95627 0
M  V30 7217 C 668.192 -1.65626 1.02922 0
M  V30 7218 O 667.462 -1.95693 0.0901136 0
M  V30 7219 H 666.042 -0.190436 0.722318 0
M  V30 7220 H 668.704 0.218257 1.93674 0
M  V30 7221 H 667.8 -0.885816 2.99265 0
M  V30 7222 N 668.101 -1.57061 -0.130224 0
M  V30 7223 C 669.349 -1.83893 -0.838313 0
M  V30 7224 C 669.67 -0.727046 -1.80939 0
M  V30 7225 O 668.94 0.249927 -1.94299 0
M  V30 7226 H 667.52 -0.67846 -0.312573 0
M  V30 7227 H 670.182 -1.94529 -0.120224 0
M  V30 7228 H 669.278 -2.79419 -1.39038 0
M  V30 7229 N 669.579 0.400081 -1.52437 0
M  V30 7230 C 670.99 0.97851 -1.59003 0
M  V30 7231 C 671.341 1.91293 -0.436068 0
M  V30 7232 O 670.466 2.1183 0.442365 0
M  V30 7233 C 671.061 1.78145 -2.88184 0
M  V30 7234 C 669.62 2.30976 -2.97199 0
M  V30 7235 C 668.767 1.11212 -2.54022 0
M  V30 7236 H 671.718 0.180002 -1.57676 0
M  V30 7237 H 671.739 2.63968 -2.74046 0
M  V30 7238 H 671.251 1.1011 -3.72152 0
M  V30 7239 H 669.352 3.02355 -2.17744 0
M  V30 7240 H 669.465 2.61221 -4.01622 0
M  V30 7241 H 667.829 1.46882 -2.08081 0
M  V30 7242 H 668.612 0.447307 -3.40373 0
M  V30 7243 N 671.057 1.43213 0.657864 0
M  V30 7244 C 671.967 1.50448 1.80007 0
M  V30 7245 C 672.983 0.39191 1.69529 0
M  V30 7246 O 674.159 0.645349 1.90781 0
M  V30 7247 C 671.224 1.42062 3.16258 0
M  V30 7248 C 670.285 2.63951 3.38568 0
M  V30 7249 C 669.518 2.55956 4.68318 0
M  V30 7250 O 669.741 1.60473 5.47361 0
M  V30 7251 O 668.675 3.46378 4.92245 0
M  V30 7252 H 672.501 2.4689 1.76858 0
M  V30 7253 H 670.086 1.25163 0.81576 0
M  V30 7254 H 671.968 1.3981 3.97531 0
M  V30 7255 H 670.643 0.487524 3.20008 0
M  V30 7256 H 669.55 2.71776 2.57077 0
M  V30 7257 H 670.883 3.56217 3.39662 0
M  V30 7258 N 672.536 -0.895792 1.29666 0
M  V30 7259 C 673.499 -1.98189 1.15124 0
M  V30 7260 C 674.499 -1.60572 0.0855717 0
M  V30 7261 O 675.689 -1.70991 0.332826 0
M  V30 7262 C 672.821 -3.32289 0.761372 0
M  V30 7263 H 674.014 -2.12518 2.11603 0
M  V30 7264 H 671.567 -1.0808 1.12908 0
M  V30 7265 H 672.302 -3.23662 -0.203393 0
M  V30 7266 H 672.087 -3.60958 1.53139 0
M  V30 7267 H 673.577 -4.1198 0.682792 0
M  V30 7268 N 674.014 -1.12206 -1.10668 0
M  V30 7269 C 675.242 -0.898635 -1.86366 0
M  V30 7270 C 675.657 0.551991 -1.80551 0
M  V30 7271 O 675.014 1.38152 -1.19249 0
M  V30 7272 C 675.065 -1.36199 -3.34861 0
M  V30 7273 O 674.786 -2.75576 -3.40573 0
M  V30 7274 C 676.287 -1.17515 -4.2744 0
M  V30 7275 H 673.507 -0.321281 -0.589084 0
M  V30 7276 H 676.051 -1.49142 -1.39918 0
M  V30 7277 H 674.206 -0.81249 -3.78784 0
M  V30 7278 H 674.62 -2.95851 -4.33096 0
M  V30 7279 H 676.094 -1.54827 -5.29842 0
M  V30 7280 H 676.571 -0.115486 -4.39048 0
M  V30 7281 H 677.177 -1.71203 -3.89319 0
M  V30 7282 N 675.492 1.28418 -0.913599 0
M  V30 7283 C 676.738 1.9527 -0.547484 0
M  V30 7284 C 677.071 1.71745 0.906486 0
M  V30 7285 O 676.346 1.03834 1.64465 0
M  V30 7286 C 676.629 3.49748 -0.857205 0
M  V30 7287 C 676.482 3.82675 -2.3639 0
M  V30 7288 C 677.801 4.3868 -0.353258 0
M  V30 7289 H 674.92 0.709236 -0.200381 0
M  V30 7290 H 677.562 1.51789 -1.14281 0
M  V30 7291 H 675.712 3.86915 -0.350548 0
M  V30 7292 H 677.384 3.55378 -2.94116 0
M  V30 7293 H 675.627 3.29724 -2.81894 0
M  V30 7294 H 676.298 4.90547 -2.53115 0
M  V30 7295 H 678.774 4.08584 -0.787288 0
M  V30 7296 H 677.65 5.45621 -0.599049 0
M  V30 7297 H 677.911 4.35753 0.746413 0
M  V30 7298 N 676.97 0.677563 1.42291 0
M  V30 7299 C 678.216 0.201272 2.01799 0
M  V30 7300 C 678.549 -1.19004 1.53465 0
M  V30 7301 O 677.824 -1.79953 0.738039 0
M  V30 7302 C 678.107 0.238968 3.59306 0
M  V30 7303 C 677.96 1.66594 4.17812 0
M  V30 7304 C 679.279 -0.411287 4.38174 0
M  V30 7305 H 676.398 0.0746114 0.733214 0
M  V30 7306 H 679.04 0.862872 1.69276 0
M  V30 7307 H 677.19 -0.324368 3.87144 0
M  V30 7308 H 678.862 2.28173 4.00917 0
M  V30 7309 H 677.105 2.20576 3.73536 0
M  V30 7310 H 677.776 1.64398 5.26951 0
M  V30 7311 H 680.252 0.0682804 4.16044 0
M  V30 7312 H 679.128 -0.354286 5.47755 0
M  V30 7313 H 679.389 -1.4893 4.1626 0
M  V30 7314 N 678.448 -1.51871 0.421078 0
M  V30 7315 C 679.673 -2.0684 -0.152371 0
M  V30 7316 C 680.098 -1.28802 -1.37083 0
M  V30 7317 O 679.456 -0.321482 -1.78427 0
M  V30 7318 C 679.504 -3.57532 -0.469368 0
M  V30 7319 O 678.608 -3.81818 -1.55848 0
M  V30 7320 H 677.949 -0.663939 -0.00898586 0
M  V30 7321 H 680.479 -1.95674 0.597724 0
M  V30 7322 H 680.489 -4.01515 -0.724553 0
M  V30 7323 H 679.164 -4.13761 0.421276 0
M  V30 7324 H 677.741 -3.49709 -1.29453 0
M  V30 7325 N 679.926 -0.151884 -1.56866 0
M  V30 7326 C 681.203 0.543328 -1.87902 0
M  V30 7327 C 681.583 1.82636 -1.05864 0
M  V30 7328 O 680.931 2.28028 -0.146868 0
M  V30 7329 C 681.141 0.804056 -3.39611 0
M  V30 7330 C 682.489 1.14267 -4.08935 0
M  V30 7331 O 683.513 0.893248 -3.44818 0
M  V30 7332 O 682.372 1.61229 -5.22176 0
M  V30 7333 H 679.466 0.277724 -0.778973 0
M  V30 7334 H 682.012 -0.188862 -1.68646 0
M  V30 7335 H 680.784 -0.103772 -3.91162 0
M  V30 7336 H 680.407 1.59025 -3.64413 0
M  V30 7337 N 681.404 1.57128 0.121893 0
M  V30 7338 C 682.314 2.03425 1.16857 0
M  V30 7339 C 683.33 0.954108 1.45509 0
M  V30 7340 O 684.506 1.26541 1.56682 0
M  V30 7341 C 681.571 2.42685 2.47599 0
M  V30 7342 C 680.632 3.64767 2.2637 0
M  V30 7343 C 679.865 4.02145 3.50878 0
M  V30 7344 O 680.088 3.39897 4.58068 0
M  V30 7345 O 679.022 4.95262 3.42051 0
M  V30 7346 H 682.848 2.92825 0.80544 0
M  V30 7347 H 680.433 1.45654 0.332477 0
M  V30 7348 H 682.315 2.68684 3.24634 0
M  V30 7349 H 680.99 1.56432 2.83392 0
M  V30 7350 H 679.897 3.43922 1.47203 0
M  V30 7351 H 681.23 4.51716 1.95482 0
M  V30 7352 N 682.882 -0.391992 1.52647 0
M  V30 7353 C 684.159 -1.15136 1.58123 0
M  V30 7354 C 684.539 -2.07786 0.372597 0
M  V30 7355 O 683.887 -2.19374 -0.639304 0
M  V30 7356 C 684.097 -1.91367 2.91856 0
M  V30 7357 C 685.445 -2.46833 3.45483 0
M  V30 7358 O 686.469 -2.01527 2.9371 0
M  V30 7359 O 685.328 -3.29587 4.3593 0
M  V30 7360 H 682.422 -0.526649 0.637629 0
M  V30 7361 H 684.968 -0.397386 1.64982 0
M  V30 7362 H 683.74 -1.23597 3.71268 0
M  V30 7363 H 683.363 -2.73732 2.88369 0
M  V30 7364 N 684.36 -1.4356 -0.65026 0
M  V30 7365 C 685.27 -1.514 -1.79207 0
M  V30 7366 C 686.286 -0.400895 -1.69319 0
M  V30 7367 O 687.462 -0.655458 -1.90436 0
M  V30 7368 C 684.527 -1.43737 -3.155 0
M  V30 7369 C 683.588 -2.65743 -3.37163 0
M  V30 7370 C 682.821 -2.58436 -4.66954 0
M  V30 7371 O 683.044 -1.63374 -5.46503 0
M  V30 7372 O 681.978 -3.48984 -4.90402 0
M  V30 7373 H 685.804 -2.47825 -1.75547 0
M  V30 7374 H 683.389 -1.25594 -0.809111 0
M  V30 7375 H 685.271 -1.41916 -3.96784 0
M  V30 7376 H 683.946 -0.504488 -3.19745 0
M  V30 7377 H 682.853 -2.73136 -2.55632 0
M  V30 7378 H 684.186 -3.58014 -3.37768 0
M  V30 7379 N 685.838 0.888903 -1.30139 0
M  V30 7380 C 686.801 1.97576 -1.16174 0
M  V30 7381 C 687.801 1.60525 -0.094086 0
M  V30 7382 O 688.991 1.70812 -0.341889 0
M  V30 7383 C 686.123 3.3188 -0.778983 0
M  V30 7384 H 687.316 2.11393 -2.12728 0
M  V30 7385 H 684.869 1.0748 -1.1348 0
M  V30 7386 H 685.604 3.23765 0.186225 0
M  V30 7387 H 685.389 3.60141 -1.55051 0
M  V30 7388 H 686.879 4.11612 -0.704631 0
M  V30 7389 N 687.317 1.12792 1.10072 0
M  V30 7390 C 688.28 0.802264 2.14701 0
M  V30 7391 C 689.28 -0.18515 1.59731 0
M  V30 7392 O 690.47 0.041109 1.74151 0
M  V30 7393 C 687.602 0.19285 3.40354 0
M  V30 7394 H 688.795 1.72932 2.45019 0
M  V30 7395 H 686.348 0.931662 1.25498 0
M  V30 7396 H 687.083 -0.743748 3.15656 0
M  V30 7397 H 686.868 0.903827 3.81541 0
M  V30 7398 H 688.358 -0.0183704 4.17596 0
M  V30 7399 N 688.795 -1.27931 0.920396 0
M  V30 7400 C 689.705 -2.30824 0.419212 0
M  V30 7401 C 690.721 -1.66767 -0.496461 0
M  V30 7402 O 691.897 -1.97763 -0.38104 0
M  V30 7403 C 688.962 -3.45158 -0.326601 0
M  V30 7404 C 688.023 -4.24754 0.623098 0
M  V30 7405 C 687.256 -5.33629 -0.0872172 0
M  V30 7406 O 687.479 -5.55204 -1.30784 0
M  V30 7407 O 686.413 -5.99091 0.580875 0
M  V30 7408 H 690.239 -2.75716 1.27337 0
M  V30 7409 H 687.824 -1.32747 0.685465 0
M  V30 7410 H 689.706 -4.14716 -0.747559 0
M  V30 7411 H 688.381 -3.02336 -1.15648 0
M  V30 7412 H 687.288 -3.57759 1.09359 0
M  V30 7413 H 688.621 -4.71272 1.41998 0
M  V30 7414 N 690.273 -0.685099 -1.4193 0
M  V30 7415 C 691.206 0.0371639 -2.2817 0
M  V30 7416 C 692.184 0.798436 -1.41647 0
M  V30 7417 O 693.368 0.791428 -1.71081 0
M  V30 7418 C 690.495 1.05993 -3.21688 0
M  V30 7419 C 689.541 0.393043 -4.24685 0
M  V30 7420 S 690.374 -0.856921 -5.28599 0
M  V30 7421 C 691.53 0.164508 -6.25684 0
M  V30 7422 H 691.763 -0.694305 -2.89079 0
M  V30 7423 H 689.296 -0.474999 -1.46912 0
M  V30 7424 H 691.254 1.64489 -3.76103 0
M  V30 7425 H 689.915 1.7639 -2.59895 0
M  V30 7426 H 689.108 1.16513 -4.90348 0
M  V30 7427 H 688.71 -0.118589 -3.73812 0
M  V30 7428 H 691.002 1.02106 -6.69762 0
M  V30 7429 H 691.945 -0.457917 -7.06618 0
M  V30 7430 H 692.353 0.514596 -5.6215 0
M  V30 7431 N 691.751 1.51645 -0.429126 0
M  V30 7432 C 692.661 2.31288 0.392809 0
M  V30 7433 C 693.677 1.39852 1.03525 0
M  V30 7434 O 694.853 1.72926 1.03241 0
M  V30 7435 C 691.918 3.13347 1.48372 0
M  V30 7436 C 690.979 4.20551 0.862268 0
M  V30 7437 C 690.212 4.98688 1.9012 0
M  V30 7438 O 690.435 4.77359 3.12225 0
M  V30 7439 O 689.369 5.83005 1.4963 0
M  V30 7440 H 693.195 3.02609 -0.257138 0
M  V30 7441 H 690.78 1.48163 -0.191851 0
M  V30 7442 H 692.662 3.64387 2.1166 0
M  V30 7443 H 691.337 2.44799 2.1179 0
M  V30 7444 H 690.244 3.73609 0.191568 0
M  V30 7445 H 691.577 4.91449 0.271704 0
M  V30 7446 N 693.229 0.160201 1.56784 0
M  V30 7447 C 694.506 -0.533355 1.88188 0
M  V30 7448 C 694.886 -1.82072 1.06831 0
M  V30 7449 O 694.234 -2.27946 0.158959 0
M  V30 7450 C 694.444 -0.786034 3.40033 0
M  V30 7451 C 695.792 -1.12097 4.09536 0
M  V30 7452 O 696.816 -0.874949 3.45287 0
M  V30 7453 O 695.675 -1.58457 5.23023 0
M  V30 7454 H 692.769 -0.273589 0.780434 0
M  V30 7455 H 695.315 0.197803 1.68543 0
M  V30 7456 H 694.087 0.124515 3.91102 0
M  V30 7457 H 693.71 -1.57091 3.65251 0
M  V30 7458 N 694.707 -1.5719 -0.113559 0
M  V30 7459 C 695.617 -2.04041 -1.15777 0
M  V30 7460 C 696.633 -0.961812 -1.45001 0
M  V30 7461 O 697.809 -1.2737 -1.56009 0
M  V30 7462 C 694.874 -2.43994 -2.46308 0
M  V30 7463 C 693.935 -3.65962 -2.24433 0
M  V30 7464 C 693.168 -4.04 -3.4874 0
M  V30 7465 O 693.391 -3.42321 -4.56259 0
M  V30 7466 O 692.325 -4.97069 -3.3942 0
M  V30 7467 H 696.151 -2.93248 -0.789899 0
M  V30 7468 H 693.736 -1.45828 -0.324748 0
M  V30 7469 H 695.618 -2.70401 -3.23204 0
M  V30 7470 H 694.293 -1.57932 -2.82558 0
M  V30 7471 H 693.2 -3.44697 -1.45377 0
M  V30 7472 H 694.533 -4.52746 -1.93084 0
M  V30 7473 N 696.185 0.383891 -1.52853 0
M  V30 7474 C 697.148 1.45197 -1.77343 0
M  V30 7475 C 698.148 1.47362 -0.643522 0
M  V30 7476 O 699.338 1.48443 -0.911613 0
M  V30 7477 C 696.47 2.8445 -1.87885 0
M  V30 7478 H 697.663 1.24764 -2.72716 0
M  V30 7479 H 695.216 0.615939 -1.43652 0
M  V30 7480 H 695.951 3.10222 -0.94515 0
M  V30 7481 H 695.736 2.8428 -2.70051 0
M  V30 7482 H 697.226 3.61832 -2.08488 0
M  V30 7483 N 697.663 1.43903 0.642637 0
M  V30 7484 C 698.909 1.46296 1.40447 0
M  V30 7485 C 699.242 0.0908361 1.93987 0
M  V30 7486 O 698.517 -0.889884 1.72949 0
M  V30 7487 C 698.8 2.51399 2.57819 0
M  V30 7488 C 698.653 3.97926 2.09702 0
M  V30 7489 C 699.972 2.53125 3.60022 0
M  V30 7490 H 697.091 0.532676 0.509338 0
M  V30 7491 H 699.733 1.75515 0.727635 0
M  V30 7492 H 697.883 2.26614 3.1556 0
M  V30 7493 H 699.555 4.33804 1.5688 0
M  V30 7494 H 697.798 4.10252 1.40982 0
M  V30 7495 H 698.469 4.67096 2.94152 0
M  V30 7496 H 700.945 2.75242 3.12059 0
M  V30 7497 H 699.821 3.28589 4.39682 0
M  V30 7498 H 700.082 1.56895 4.13324 0
M  V30 7499 N 699.141 -0.881989 1.30609 0
M  V30 7500 C 700.557 -1.16576 1.09005 0
M  V30 7501 C 700.757 -2.00961 -0.14727 0
M  V30 7502 O 699.813 -2.38117 -0.840036 0
M  V30 7503 C 701.126 -1.86954 2.35518 0
M  V30 7504 C 702.674 -1.99706 2.41011 0
M  V30 7505 C 703.149 -2.73497 3.67374 0
M  V30 7506 N 704.64 -2.8104 3.68199 0
M  V30 7507 C 705.375 -3.38718 4.62664 0
M  V30 7508 N 704.871 -3.97421 5.67475 0
M  V30 7509 N 706.664 -3.36561 4.50203 0
M  V30 7510 H 698.815 -0.319398 2.09985 0
M  V30 7511 H 701.078 -0.204058 0.925778 0
M  V30 7512 H 700.784 -1.32393 3.2583 0
M  V30 7513 H 700.658 -2.87317 2.44395 0
M  V30 7514 H 703.045 -2.53436 1.51176 0
M  V30 7515 H 703.126 -0.984218 2.36108 0
M  V30 7516 H 702.77 -2.20438 4.57569 0
M  V30 7517 H 702.7 -3.75163 3.6954 0
M  V30 7518 H 705.191 -2.39365 2.92426 0
M  V30 7519 H 705.504 -4.39507 6.35652 0
M  V30 7520 H 703.849 -3.95832 5.71264 0
M  V30 7521 H 707.04 -2.8993 3.67503 0
M  V30 7522 H 707.213 -3.81215 5.24003 0
M  V30 7523 N 700.619 -1.13374 -1.09472 0
M  V30 7524 C 701.844 -0.918711 -1.85942 0
M  V30 7525 C 702.269 0.527225 -1.8056 0
M  V30 7526 O 701.627 1.37408 -1.18274 0
M  V30 7527 C 701.675 -1.41056 -3.31867 0
M  V30 7528 O 700.779 -0.595496 -4.08078 0
M  V30 7529 H 700.12 -0.329297 -0.576593 0
M  V30 7530 H 702.65 -1.50829 -1.38245 0
M  V30 7531 H 702.66 -1.41398 -3.82715 0
M  V30 7532 H 701.335 -2.46335 -3.35099 0
M  V30 7533 H 699.912 -0.659911 -3.67014 0
M  V30 7534 N 702.098 1.27442 -0.927168 0
M  V30 7535 C 703.514 1.46754 -0.627329 0
M  V30 7536 C 703.714 1.83902 0.823549 0
M  V30 7537 O 702.77 1.95215 1.60148 0
M  V30 7538 C 704.083 2.56045 -1.57674 0
M  V30 7539 C 705.631 2.69906 -1.58491 0
M  V30 7540 C 706.106 3.82355 -2.52128 0
M  V30 7541 N 707.597 3.89728 -2.50332 0
M  V30 7542 C 708.332 4.76155 -3.19475 0
M  V30 7543 N 707.828 5.67073 -3.97995 0
M  V30 7544 N 709.621 4.6988 -3.08496 0
M  V30 7545 H 701.772 1.01613 -1.86517 0
M  V30 7546 H 704.035 0.507443 -0.800753 0
M  V30 7547 H 703.741 2.35542 -2.61176 0
M  V30 7548 H 703.615 3.53423 -1.31804 0
M  V30 7549 H 706.002 2.89792 -0.557208 0
M  V30 7550 H 706.083 1.73018 -1.8841 0
M  V30 7551 H 705.727 3.63224 -3.55008 0
M  V30 7552 H 705.657 4.7867 -2.19505 0
M  V30 7553 H 708.148 3.24717 -1.93306 0
M  V30 7554 H 708.461 6.2988 -4.4774 0
M  V30 7555 H 706.806 5.6687 -4.02098 0
M  V30 7556 H 709.997 3.97848 -2.46646 0
M  V30 7557 H 710.17 5.37017 -3.62652 0
M  V30 7558 N 703.576 0.692616 1.41565 0
M  V30 7559 C 704.822 0.222664 2.01574 0
M  V30 7560 C 705.155 -1.1737 1.54719 0
M  V30 7561 O 704.43 -1.79161 0.757084 0
M  V30 7562 C 704.713 0.277064 3.59033 0
M  V30 7563 C 704.566 1.71016 4.16021 0
M  V30 7564 C 705.885 -0.36479 4.38586 0
M  V30 7565 H 703.004 0.0823839 0.732381 0
M  V30 7566 H 705.646 0.880778 1.68352 0
M  V30 7567 H 703.796 -0.283288 3.87466 0
M  V30 7568 H 705.468 2.32413 3.98475 0
M  V30 7569 H 703.711 2.24525 3.71175 0
M  V30 7570 H 704.382 1.69978 5.25178 0
M  V30 7571 H 706.858 0.112404 4.15948 0
M  V30 7572 H 705.734 -0.296169 5.481 0
M  V30 7573 H 705.995 -1.44506 4.17816 0
M  V30 7574 N 705.054 -1.51416 0.437162 0
M  V30 7575 C 705.986 -2.255 -0.410171 0
M  V30 7576 C 706.999 -1.29511 -0.986444 0
M  V30 7577 O 708.188 -1.55266 -0.880614 0
M  V30 7578 C 705.288 -2.99511 -1.58575 0
M  V30 7579 C 704.461 -4.22595 -1.12839 0
M  V30 7580 C 703.52 -4.79187 -2.17407 0
M  V30 7581 O 702.546 -5.4103 -1.76849 0
M  V30 7582 N 703.748 -4.63204 -3.49889 0
M  V30 7583 H 706.513 -2.98856 0.224783 0
M  V30 7584 H 704.074 -1.59699 0.266041 0
M  V30 7585 H 706.066 -3.34258 -2.28152 0
M  V30 7586 H 704.636 -2.29167 -2.12606 0
M  V30 7587 H 703.856 -3.93344 -0.259695 0
M  V30 7588 H 705.144 -5.02468 -0.800196 0
M  V30 7589 H 704.542 -4.13945 -3.85573 0
M  V30 7590 H 703.099 -5.02313 -4.15361 0
M  V30 7591 N 706.532 -0.168513 -1.56696 0
M  V30 7592 C 707.482 0.7751 -2.14421 0
M  V30 7593 C 708.466 1.19476 -1.07769 0
M  V30 7594 O 709.658 1.15759 -1.33898 0
M  V30 7595 C 706.787 2.00549 -2.7863 0
M  V30 7596 C 705.873 1.60795 -3.92436 0
M  V30 7597 N 706.264 0.919812 -4.97366 0
M  V30 7598 C 704.562 1.89917 -4.03544 0
M  V30 7599 C 705.263 0.724485 -5.77171 0
M  V30 7600 N 704.239 1.26505 -5.28675 0
M  V30 7601 H 708.041 0.240349 -2.92916 0
M  V30 7602 H 705.555 0.0322675 -1.62368 0
M  V30 7603 H 707.552 2.6917 -3.1836 0
M  V30 7604 H 706.212 2.54522 -2.01615 0
M  V30 7605 H 707.223 0.578169 -5.14663 0
M  V30 7606 H 703.9 2.45587 -3.37629 0
M  V30 7607 H 705.29 0.180521 -6.71657 0
M  V30 7608 N 708.01 1.57248 0.105221 0
M  V30 7609 C 708.957 2.01338 1.12835 0
M  V30 7610 C 709.927 0.887897 1.40377 0
M  V30 7611 O 711.112 1.15315 1.5201 0
M  V30 7612 C 708.252 2.43432 2.44611 0
M  V30 7613 C 707.365 3.69457 2.23888 0
M  V30 7614 C 706.5 4.00473 3.48991 0
M  V30 7615 C 705.539 5.19638 3.23485 0
M  V30 7616 N 704.676 5.46457 4.40828 0
M  V30 7617 H 709.516 2.88527 0.745386 0
M  V30 7618 H 707.053 1.42714 0.356535 0
M  V30 7619 H 709.011 2.65879 3.21503 0
M  V30 7620 H 707.641 1.59266 2.80774 0
M  V30 7621 H 706.693 3.54545 1.37847 0
M  V30 7622 H 708.005 4.56497 2.01026 0
M  V30 7623 H 707.159 4.23642 4.34295 0
M  V30 7624 H 705.898 3.11935 3.74897 0
M  V30 7625 H 704.903 4.96299 2.36574 0
M  V30 7626 H 706.128 6.09766 2.98935 0
M  V30 7627 H 704.074 4.60876 4.66829 0
M  V30 7628 H 703.991 6.27849 4.2112 0
M  V30 7629 H 705.259 5.74155 5.27225 0
M  V30 7630 N 709.488 -0.375779 1.53054 0
M  V30 7631 C 710.899 -0.95309 1.6054 0
M  V30 7632 C 711.25 -1.90575 0.466446 0
M  V30 7633 O 710.375 -2.12507 -0.408609 0
M  V30 7634 C 710.97 -1.73537 2.90982 0
M  V30 7635 C 709.529 -2.26218 3.00836 0
M  V30 7636 C 708.676 -1.07157 2.55759 0
M  V30 7637 H 711.627 -0.154895 1.57942 0
M  V30 7638 H 711.648 -2.59574 2.78211 0
M  V30 7639 H 711.16 -1.04176 3.73857 0
M  V30 7640 H 709.261 -2.98852 2.22527 0
M  V30 7641 H 709.374 -2.54799 4.05727 0
M  V30 7642 H 707.738 -1.43553 2.10391 0
M  V30 7643 H 708.521 -0.393099 3.41042 0
M  V30 7644 N 710.966 -1.44241 -0.634997 0
M  V30 7645 C 711.913 -1.5081 -1.74714 0
M  V30 7646 C 712.883 -0.356147 -1.62237 0
M  V30 7647 O 714.068 -0.565848 -1.82216 0
M  V30 7648 C 711.208 -1.45458 -3.12947 0
M  V30 7649 C 710.321 -2.70998 -3.36428 0
M  V30 7650 C 709.456 -2.57507 -4.64611 0
M  V30 7651 C 708.495 -3.78229 -4.81258 0
M  V30 7652 N 707.632 -3.63438 -6.00714 0
M  V30 7653 H 712.472 -2.45832 -1.68436 0
M  V30 7654 H 710.009 -1.2201 -0.821706 0
M  V30 7655 H 711.967 -1.40347 -3.92885 0
M  V30 7656 H 710.597 -0.540058 -3.1825 0
M  V30 7657 H 709.649 -2.86312 -2.50458 0
M  V30 7658 H 710.961 -3.60619 -3.44609 0
M  V30 7659 H 710.115 -2.50207 -5.52703 0
M  V30 7660 H 708.854 -1.65441 -4.58782 0
M  V30 7661 H 707.859 -3.85918 -3.91596 0
M  V30 7662 H 709.084 -4.71327 -4.88904 0
M  V30 7663 H 707.03 -2.7412 -5.95982 0
M  V30 7664 H 706.947 -4.46672 -6.09934 0
M  V30 7665 H 708.215 -3.60022 -6.91378 0
M  V30 7666 N 712.444 0.87505 -1.31075 0
M  V30 7667 C 713.354 2.01441 -1.20244 0
M  V30 7668 C 714.37 1.73584 -0.120227 0
M  V30 7669 O 715.546 1.98559 -0.337063 0
M  V30 7670 C 712.611 3.34675 -0.905199 0
M  V30 7671 C 711.672 3.75889 -2.0738 0
M  V30 7672 C 710.905 5.02764 -1.79064 0
M  V30 7673 O 711.128 5.65795 -0.723318 0
M  V30 7674 O 710.062 5.40623 -2.64594 0
M  V30 7675 H 713.888 2.13509 -2.1598 0
M  V30 7676 H 711.473 1.00257 -1.10765 0
M  V30 7677 H 713.355 4.1458 -0.755057 0
M  V30 7678 H 712.03 3.23692 0.0221695 0
M  V30 7679 H 710.937 2.96645 -2.27931 0
M  V30 7680 H 712.27 3.91489 -2.98324 0
M  V30 7681 N 713.922 1.13953 1.08869 0
M  V30 7682 C 715.199 0.815768 1.77777 0
M  V30 7683 C 715.579 -0.691624 1.99449 0
M  V30 7684 O 714.927 -1.63085 1.60049 0
M  V30 7685 C 715.137 1.60916 3.09689 0
M  V30 7686 C 716.485 1.80549 3.84301 0
M  V30 7687 O 717.509 1.57562 3.19457 0
M  V30 7688 O 716.368 2.18946 5.00724 0
M  V30 7689 H 713.462 0.298445 0.771271 0
M  V30 7690 H 716.008 1.24446 1.15374 0
M  V30 7691 H 714.78 2.6333 2.89435 0
M  V30 7692 H 714.403 1.17578 3.79817 0
M  V30 7693 N 715.4 -1.26948 0.933913 0
M  V30 7694 C 716.347 -2.26635 0.436484 0
M  V30 7695 C 717.317 -1.58397 -0.499953 0
M  V30 7696 O 718.502 -1.86171 -0.417753 0
M  V30 7697 C 715.642 -3.43803 -0.298951 0
M  V30 7698 C 714.755 -4.26736 0.672316 0
M  V30 7699 C 713.89 -5.31134 -0.0835872 0
M  V30 7700 C 712.929 -6.05742 0.879979 0
M  V30 7701 N 712.066 -7.01926 0.156301 0
M  V30 7702 H 716.906 -2.68558 1.29154 0
M  V30 7703 H 714.443 -1.32052 0.648118 0
M  V30 7704 H 716.401 -4.10554 -0.741723 0
M  V30 7705 H 715.031 -3.02814 -1.1182 0
M  V30 7706 H 714.083 -3.59842 1.23361 0
M  V30 7707 H 715.395 -4.78502 1.40846 0
M  V30 7708 H 714.549 -6.03863 -0.585984 0
M  V30 7709 H 713.288 -4.80188 -0.852661 0
M  V30 7710 H 712.293 -5.31846 1.39357 0
M  V30 7711 H 713.518 -6.58777 1.64894 0
M  V30 7712 H 711.464 -6.53301 -0.594413 0
M  V30 7713 H 711.381 -7.51409 0.831906 0
M  V30 7714 H 712.649 -7.78821 -0.325239 0
M  V30 7715 N 716.879 -0.700114 -1.41195 0
M  V30 7716 C 717.809 -0.0521132 -2.33442 0
M  V30 7717 C 718.79 0.76228 -1.52063 0
M  V30 7718 O 719.975 0.714336 -1.80585 0
M  V30 7719 C 717.105 0.881693 -3.35922 0
M  V30 7720 C 716.059 0.174062 -4.27646 0
M  V30 7721 C 715.385 1.22254 -5.20536 0
M  V30 7722 C 716.685 -0.962396 -5.13357 0
M  V30 7723 H 718.379 -0.822574 -2.87879 0
M  V30 7724 H 715.925 -0.397011 -1.38419 0
M  V30 7725 H 717.878 1.34429 -3.99383 0
M  V30 7726 H 716.602 1.68387 -2.79845 0
M  V30 7727 H 715.261 -0.268551 -3.65615 0
M  V30 7728 H 714.909 2.01736 -4.60773 0
M  V30 7729 H 714.609 0.754038 -5.82742 0
M  V30 7730 H 716.133 1.68555 -5.86874 0
M  V30 7731 H 717.547 -0.579875 -5.7036 0
M  V30 7732 H 715.944 -1.35828 -5.84526 0
M  V30 7733 H 717.014 -1.80003 -4.50252 0
M  V30 7734 N 718.357 1.51182 -0.445186 0
M  V30 7735 C 719.773 1.59299 -0.0978954 0
M  V30 7736 C 719.973 1.4555 1.39346 0
M  V30 7737 O 719.029 1.30073 2.16419 0
M  V30 7738 C 720.342 2.94133 -0.625005 0
M  V30 7739 C 721.89 3.07463 -0.586137 0
M  V30 7740 C 722.365 4.44832 -1.09035 0
M  V30 7741 N 723.856 4.51173 -1.04867 0
M  V30 7742 C 724.591 5.55804 -1.40959 0
M  V30 7743 N 724.087 6.67816 -1.84375 0
M  V30 7744 N 725.88 5.46205 -1.32726 0
M  V30 7745 H 718.031 1.58363 -1.41544 0
M  V30 7746 H 720.294 0.746946 -0.58376 0
M  V30 7747 H 720 3.09589 -1.66876 0
M  V30 7748 H 719.874 3.77161 -0.0542262 0
M  V30 7749 H 722.261 2.9167 0.448646 0
M  V30 7750 H 722.342 2.26255 -1.19341 0
M  V30 7751 H 721.986 4.61372 -2.12364 0
M  V30 7752 H 721.916 5.24591 -0.459539 0
M  V30 7753 H 724.407 3.70783 -0.729932 0
M  V30 7754 H 724.72 7.43683 -2.10131 0
M  V30 7755 H 723.065 6.69003 -1.88308 0
M  V30 7756 H 726.256 4.57583 -0.986678 0
M  V30 7757 H 726.429 6.27634 -1.61182 0
M  V30 7758 N 719.835 0.176821 1.56605 0
M  V30 7759 C 720.765 -0.746841 2.21234 0
M  V30 7760 C 721.746 -1.23502 1.16967 0
M  V30 7761 O 722.931 -1.28718 1.45414 0
M  V30 7762 C 720.061 -1.97407 2.8574 0
M  V30 7763 C 719.015 -1.62153 3.96094 0
M  V30 7764 C 718.341 -2.92387 4.47676 0
M  V30 7765 C 719.641 -0.845353 5.15413 0
M  V30 7766 H 721.335 -0.208116 2.98676 0
M  V30 7767 H 718.881 -0.0986594 1.43662 0
M  V30 7768 H 720.834 -2.62531 3.2963 0
M  V30 7769 H 719.558 -2.53703 2.05676 0
M  V30 7770 H 718.217 -0.993964 3.52868 0
M  V30 7771 H 717.865 -3.46734 3.64396 0
M  V30 7772 H 717.565 -2.69551 5.22127 0
M  V30 7773 H 719.089 -3.5853 4.94255 0
M  V30 7774 H 720.503 -1.39929 5.55961 0
M  V30 7775 H 718.9 -0.715814 5.95815 0
M  V30 7776 H 719.97 0.157239 4.84645 0
M  V30 7777 N 721.313 -1.57302 -0.09688 0
M  V30 7778 C 722.276 -2.00976 -1.10188 0
M  V30 7779 C 723.276 -0.903009 -1.3305 0
M  V30 7780 O 724.466 -1.16853 -1.29194 0
M  V30 7781 C 721.598 -2.36893 -2.45142 0
M  V30 7782 H 722.791 -2.9098 -0.726003 0
M  V30 7783 H 720.344 -1.52515 -0.341872 0
M  V30 7784 H 721.079 -1.49837 -2.8761 0
M  V30 7785 H 720.864 -3.17632 -2.29897 0
M  V30 7786 H 722.354 -2.71345 -3.1743 0
M  V30 7787 N 722.791 0.367657 -1.53252 0
M  V30 7788 C 723.723 1.47032 -1.75824 0
M  V30 7789 C 724.736 1.49736 -0.63898 0
M  V30 7790 O 725.925 1.53253 -0.915193 0
M  V30 7791 C 723.025 2.85805 -1.82122 0
M  V30 7792 C 722.198 3.06822 -3.11736 0
M  V30 7793 C 721.257 4.25698 -3.09302 0
M  V30 7794 O 720.283 4.20972 -3.83107 0
M  V30 7795 N 721.485 5.33002 -2.29977 0
M  V30 7796 H 724.25 1.28048 -2.70968 0
M  V30 7797 H 721.811 0.557363 -1.52004 0
M  V30 7798 H 723.803 3.63465 -1.77975 0
M  V30 7799 H 722.373 2.98046 -0.942716 0
M  V30 7800 H 721.593 2.1684 -3.29202 0
M  V30 7801 H 722.881 3.17731 -3.97397 0
M  V30 7802 H 722.279 5.39703 -1.69521 0
M  V30 7803 H 720.836 6.09247 -2.3165 0
M  V30 7804 N 724.269 1.44576 0.627338 0
M  V30 7805 C 725.179 1.54232 1.76776 0
M  V30 7806 C 726.195 0.427782 1.6866 0
M  V30 7807 O 727.371 0.685671 1.89369 0
M  V30 7808 C 724.436 1.48738 3.13174 0
M  V30 7809 C 723.497 2.71074 3.32893 0
M  V30 7810 C 722.73 2.65832 4.62784 0
M  V30 7811 O 722.953 1.72048 5.43834 0
M  V30 7812 O 721.887 3.56742 4.84787 0
M  V30 7813 H 725.713 2.50586 1.71582 0
M  V30 7814 H 723.298 1.26865 0.789028 0
M  V30 7815 H 725.18 1.48211 3.94476 0
M  V30 7816 H 723.855 0.555292 3.18902 0
M  V30 7817 H 722.762 2.77168 2.51254 0
M  V30 7818 H 724.095 3.63342 3.32029 0
M  V30 7819 N 725.747 -0.868086 1.31537 0
M  V30 7820 C 726.677 -1.99131 1.21939 0
M  V30 7821 C 727.658 -1.69768 0.106166 0
M  V30 7822 O 728.843 -1.92006 0.291081 0
M  V30 7823 C 725.973 -3.34676 0.927879 0
M  V30 7824 C 724.927 -3.7835 2.00088 0
M  V30 7825 C 724.253 -5.11375 1.56203 0
M  V30 7826 C 725.553 -3.95256 3.41424 0
M  V30 7827 H 727.247 -2.07419 2.15911 0
M  V30 7828 H 724.793 -0.996569 1.03945 0
M  V30 7829 H 726.746 -4.12793 0.847327 0
M  V30 7830 H 725.47 -3.26565 -0.0475042 0
M  V30 7831 H 724.129 -3.02474 2.07135 0
M  V30 7832 H 723.777 -4.99709 0.57445 0
M  V30 7833 H 723.477 -5.41568 2.27985 0
M  V30 7834 H 725.001 -5.92001 1.49558 0
M  V30 7835 H 726.415 -4.63764 3.3704 0
M  V30 7836 H 724.812 -4.36849 4.1144 0
M  V30 7837 H 725.882 -2.98579 3.82072 0
M  V30 7838 N 727.225 -1.14528 -1.08264 0
M  V30 7839 C 728.45 -0.938381 -1.84957 0
M  V30 7840 C 728.875 0.508044 -1.81109 0
M  V30 7841 O 728.233 1.36146 -1.19724 0
M  V30 7842 C 728.281 -1.44568 -3.30352 0
M  V30 7843 O 727.385 -0.638745 -4.07423 0
M  V30 7844 H 726.726 -0.335394 -0.573068 0
M  V30 7845 H 729.256 -1.52287 -1.36637 0
M  V30 7846 H 729.266 -1.45449 -3.81194 0
M  V30 7847 H 727.941 -2.49876 -3.32468 0
M  V30 7848 H 726.518 -0.698801 -3.66294 0
M  V30 7849 N 728.703 1.26451 -0.940633 0
M  V30 7850 C 729.98 1.88947 -0.505811 0
M  V30 7851 C 730.36 1.85011 1.01657 0
M  V30 7852 O 729.708 1.30406 1.87634 0
M  V30 7853 C 729.918 3.32304 -1.06654 0
M  V30 7854 C 731.266 4.09153 -1.13486 0
M  V30 7855 O 732.29 3.41371 -1.01708 0
M  V30 7856 O 731.149 5.30369 -1.31797 0
M  V30 7857 H 728.243 0.810422 -0.164759 0
M  V30 7858 H 730.789 1.34625 -1.03316 0
M  V30 7859 H 729.561 3.29527 -2.11015 0
M  V30 7860 H 729.184 3.94164 -0.521603 0
M  V30 7861 N 730.181 0.707592 1.40822 0
M  V30 7862 C 731.114 -0.000859377 2.282 0
M  V30 7863 C 732.092 -0.7758 1.42899 0
M  V30 7864 O 733.276 -0.76411 1.72318 0
M  V30 7865 C 730.403 -1.00861 3.23334 0
M  V30 7866 C 729.449 -0.32543 4.25257 0
M  V30 7867 S 730.282 0.940908 5.27169 0
M  V30 7868 C 731.438 -0.0649459 6.25866 0
M  V30 7869 H 731.671 0.740207 2.87938 0
M  V30 7870 H 729.204 0.498311 1.46138 0
M  V30 7871 H 731.162 -1.58485 3.78672 0
M  V30 7872 H 729.823 -1.72233 2.62668 0
M  V30 7873 H 729.016 -1.08697 4.92139 0
M  V30 7874 H 728.618 0.178044 3.73576 0
M  V30 7875 H 730.91 -0.914377 6.71301 0
M  V30 7876 H 731.853 0.570276 7.058 0
M  V30 7877 H 732.261 -0.425098 5.62897 0
M  V30 7878 N 731.66 -1.50943 0.453197 0
M  V30 7879 C 732.906 -2.02512 -0.108082 0
M  V30 7880 C 733.239 -1.33574 -1.40967 0
M  V30 7881 O 732.514 -0.455671 -1.89087 0
M  V30 7882 C 732.797 -3.58759 -0.310453 0
M  V30 7883 C 732.65 -4.38293 1.0109 0
M  V30 7884 C 733.969 -4.26816 -1.07313 0
M  V30 7885 H 731.088 -0.73603 -0.0378064 0
M  V30 7886 H 733.73 -1.80433 0.595295 0
M  V30 7887 H 731.88 -3.77702 -0.909582 0
M  V30 7888 H 733.552 -4.30964 1.64523 0
M  V30 7889 H 731.795 -4.02745 1.61179 0
M  V30 7890 H 732.466 -5.45828 0.82315 0
M  V30 7891 H 734.942 -4.1224 -0.565473 0
M  V30 7892 H 733.818 -5.35989 -1.1835 0
M  V30 7893 H 734.079 -3.88757 -2.10525 0
M  V30 7894 N 733.138 -0.185124 -1.56509 0
M  V30 7895 C 734.387 0.456421 -1.96468 0
M  V30 7896 C 734.7 1.63448 -1.07444 0
M  V30 7897 O 735.906 2.34316 -1.37143 0
M  V30 7898 C 734.362 0.863404 -3.4939 0
M  V30 7899 C 733.97 -0.289815 -4.47062 0
M  V30 7900 C 735.714 1.47259 -3.98139 0
M  V30 7901 C 733.621 0.137571 -5.9124 0
M  V30 7902 H 732.551 0.17429 -0.733579 0
M  V30 7903 H 735.202 -0.275554 -1.81419 0
M  V30 7904 H 733.584 1.65176 -3.59907 0
M  V30 7905 H 734.758 -1.06728 -4.4827 0
M  V30 7906 H 733.073 -0.809851 -4.08449 0
M  V30 7907 H 735.67 1.80463 -5.03326 0
M  V30 7908 H 736.013 2.3755 -3.41871 0
M  V30 7909 H 736.546 0.748405 -3.90696 0
M  V30 7910 H 733.285 -0.730907 -6.51412 0
M  V30 7911 H 732.805 0.8801 -5.93308 0
M  V30 7912 H 734.484 0.576771 -6.44424 0
M  V30 7913 N 734.616 1.57351 0.0885366 0
M  V30 7914 C 735.846 1.90355 0.80303 0
M  V30 7915 C 736.254 0.777678 1.72478 0
M  V30 7916 O 735.597 -0.258908 1.81866 0
M  V30 7917 C 735.659 3.18674 1.66395 0
M  V30 7918 C 735.323 4.4778 0.913327 0
M  V30 7919 C 736.32 5.19345 0.240148 0
M  V30 7920 C 734.005 4.94434 0.885462 0
M  V30 7921 C 735.999 6.35803 -0.450854 0
M  V30 7922 C 733.686 6.10802 0.190679 0
M  V30 7923 C 734.684 6.81337 -0.476295 0
M  V30 7924 O 734.372 7.95488 -1.15992 0
M  V30 7925 H 734.104 0.634035 0.234469 0
M  V30 7926 H 736.658 2.05287 0.0681959 0
M  V30 7927 H 734.888 2.99906 2.44117 0
M  V30 7928 H 736.577 3.37458 2.2556 0
M  V30 7929 H 737.343 4.84339 0.253092 0
M  V30 7930 H 733.222 4.39417 1.39406 0
M  V30 7931 H 736.766 6.90795 -0.972019 0
M  V30 7932 H 732.663 6.45261 0.175603 0
M  V30 7933 H 733.431 8.11509 -1.06749 0
M  V30 7934 N 736.094 -0.359525 1.53444 0
M  V30 7935 C 737.334 -1.11014 1.71625 0
M  V30 7936 C 737.698 -1.86376 0.46132 0
M  V30 7937 O 738.899 -2.63724 0.519908 0
M  V30 7938 C 737.17 -2.03907 2.93524 0
M  V30 7939 S 738.729 -2.86408 3.3244 0
M  V30 7940 H 735.547 -0.375352 0.603847 0
M  V30 7941 H 738.149 -0.390604 1.91558 0
M  V30 7942 H 736.853 -1.47316 3.83048 0
M  V30 7943 H 736.384 -2.80324 2.76011 0
M  V30 7944 H 738.399 -4.06241 2.84926 0
M  V30 7945 N 737.572 -1.44907 -0.619662 0
M  V30 7946 C 738.519 -1.52654 -1.73105 0
M  V30 7947 C 739.489 -0.373334 -1.6185 0
M  V30 7948 O 740.674 -0.585143 -1.81606 0
M  V30 7949 C 737.814 -1.48769 -3.11387 0
M  V30 7950 C 736.927 -2.74551 -3.33535 0
M  V30 7951 C 736.062 -2.62421 -4.61854 0
M  V30 7952 C 735.101 -3.83312 -4.77219 0
M  V30 7953 N 734.238 -3.69789 -5.96826 0
M  V30 7954 H 739.078 -2.47605 -1.65819 0
M  V30 7955 H 736.615 -1.22875 -0.808719 0
M  V30 7956 H 738.573 -1.44507 -3.91374 0
M  V30 7957 H 737.203 -0.573783 -3.1766 0
M  V30 7958 H 736.255 -2.88953 -2.47408 0
M  V30 7959 H 737.567 -3.64253 -3.40765 0
M  V30 7960 H 736.721 -2.56056 -5.50019 0
M  V30 7961 H 735.46 -1.70298 -4.57001 0
M  V30 7962 H 734.465 -3.90049 -3.87481 0
M  V30 7963 H 735.69 -4.76486 -4.83878 0
M  V30 7964 H 733.636 -2.80426 -5.93041 0
M  V30 7965 H 733.553 -4.53116 -6.05163 0
M  V30 7966 H 734.821 -3.67335 -6.87521 0
M  V30 7967 N 739.05 0.861098 -1.31996 0
M  V30 7968 C 740.275 1.65264 -1.2531 0
M  V30 7969 C 740.7 1.87265 0.177007 0
M  V30 7970 O 740.058 1.4208 1.12619 0
M  V30 7971 C 740.106 2.99284 -2.0115 0
M  V30 7972 O 739.21 3.89508 -1.3549 0
M  V30 7973 H 738.551 0.50409 -0.432192 0
M  V30 7974 H 741.081 1.07297 -1.74208 0
M  V30 7975 H 741.091 3.49154 -2.11081 0
M  V30 7976 H 739.766 2.82591 -3.05148 0
M  V30 7977 H 738.343 3.47966 -1.34066 0
M  V30 7978 N 740.528 1.15101 1.07655 0
M  V30 7979 C 741.774 0.925343 1.80458 0
M  V30 7980 C 742.107 -0.546354 1.86356 0
M  V30 7981 O 741.382 -1.40496 1.34503 0
M  V30 7982 C 741.665 1.53646 3.25676 0
M  V30 7983 C 741.518 3.07854 3.27942 0
M  V30 7984 C 742.837 1.21968 4.22861 0
M  V30 7985 H 739.956 0.337592 0.655134 0
M  V30 7986 H 742.598 1.42217 1.25993 0
M  V30 7987 H 740.748 1.11395 3.72187 0
M  V30 7988 H 742.42 3.58989 2.89697 0
M  V30 7989 H 740.663 3.41904 2.66991 0
M  V30 7990 H 741.334 3.45725 4.30324 0
M  V30 7991 H 743.81 1.5851 3.84726 0
M  V30 7992 H 742.686 1.67349 5.22767 0
M  V30 7993 H 742.947 0.136207 4.4189 0
M  V30 7994 N 742.006 -1.2595 0.947325 0
M  V30 7995 C 742.956 -2.23859 0.432547 0
M  V30 7996 C 743.94 -1.53755 -0.474154 0
M  V30 7997 O 745.132 -1.74293 -0.308397 0
M  V30 7998 C 742.261 -3.42027 -0.295318 0
M  V30 7999 C 741.347 -4.19409 0.62903 0
M  V30 8000 N 741.738 -4.74284 1.7575 0
M  V30 8001 C 740.036 -4.43866 0.435805 0
M  V30 8002 C 740.737 -5.32821 2.33401 0
M  V30 8003 N 739.713 -5.18858 1.62135 0
M  V30 8004 H 743.515 -2.63886 1.29388 0
M  V30 8005 H 741.029 -1.41105 0.80393 0
M  V30 8006 H 743.026 -4.11297 -0.681188 0
M  V30 8007 H 741.686 -3.03526 -1.15334 0
M  V30 8008 H 742.697 -4.71641 2.13952 0
M  V30 8009 H 739.374 -4.15768 -0.37994 0
M  V30 8010 H 740.764 -5.86111 3.28517 0
M  V30 8011 N 743.484 -0.715051 -1.40445 0
M  V30 8012 C 744.731 -0.254328 -2.00897 0
M  V30 8013 C 745.059 1.15228 -1.56693 0
M  V30 8014 O 744.314 1.7958 -0.777786 0
M  V30 8015 C 744.613 -0.281791 -3.56287 0
M  V30 8016 C 744.279 -1.63862 -4.20071 0
M  V30 8017 C 742.941 -2.01003 -4.37208 0
M  V30 8018 C 745.293 -2.53039 -4.55654 0
M  V30 8019 C 742.621 -3.26869 -4.8721 0
M  V30 8020 C 744.973 -3.78256 -5.07055 0
M  V30 8021 C 743.637 -4.15515 -5.22401 0
M  V30 8022 H 742.907 -0.0930652 -0.735133 0
M  V30 8023 H 745.554 -0.917977 -1.68064 0
M  V30 8024 H 743.859 0.465428 -3.89026 0
M  V30 8025 H 745.556 0.0925158 -4.00893 0
M  V30 8026 H 742.146 -1.33979 -4.07121 0
M  V30 8027 H 746.33 -2.2562 -4.42051 0
M  V30 8028 H 741.586 -3.55706 -4.97276 0
M  V30 8029 H 745.76 -4.47528 -5.33565 0
M  V30 8030 H 743.387 -5.13114 -5.60909 0
M  V30 8031 N 744.962 1.50701 -0.461195 0
M  V30 8032 C 746.21 2.01867 0.0970051 0
M  V30 8033 C 746.531 1.34591 1.41104 0
M  V30 8034 O 745.801 0.488041 1.89723 0
M  V30 8035 H 744.381 0.74599 0.0388392 0
M  V30 8036 H 747.043 1.85129 -0.609357 0
M  V30 8037 H 746.139 3.11051 0.255688 0
M  V30 8038 N 746.441 0.193421 1.56409 0
M  V30 8039 C 747.689 -0.444908 1.97142 0
M  V30 8040 C 748.01 -1.62268 1.08139 0
M  V30 8041 O 747.28 -1.95307 0.152326 0
M  V30 8042 H 745.86 -0.16736 0.728011 0
M  V30 8043 H 748.522 0.279763 1.92882 0
M  V30 8044 H 747.618 -0.790159 3.01932 0
M  V30 8045 N 747.919 -1.57396 -0.0801906 0
M  V30 8046 C 749.166 -1.86836 -0.780927 0
M  V30 8047 C 749.494 -0.784012 -1.77999 0
M  V30 8048 O 748.749 0.220881 -1.94449 0
M  V30 8049 C 749.048 -3.22915 -1.53169 0
M  V30 8050 C 748.714 -4.45843 -0.67339 0
M  V30 8051 C 747.376 -4.79213 -0.436829 0
M  V30 8052 C 749.728 -5.21142 -0.0776786 0
M  V30 8053 C 747.056 -5.853 0.405062 0
M  V30 8054 C 749.408 -6.28119 0.751619 0
M  V30 8055 C 748.072 -6.59995 0.998131 0
M  V30 8056 H 747.342 -0.683682 -0.285761 0
M  V30 8057 H 749.989 -1.91454 -0.0419435 0
M  V30 8058 H 748.294 -3.14049 -2.34265 0
M  V30 8059 H 749.991 -3.42926 -2.07853 0
M  V30 8060 H 746.581 -4.19721 -0.867891 0
M  V30 8061 H 750.765 -4.95682 -0.247572 0
M  V30 8062 H 746.021 -6.084 0.60488 0
M  V30 8063 H 750.195 -6.8563 1.22 0
M  V30 8064 H 747.822 -7.42027 1.65227 0
M  V30 8065 N 749.397 0.351382 -1.53633 0
M  V30 8066 C 750.622 1.11718 -1.74739 0
M  V30 8067 C 751.047 1.81829 -0.481657 0
M  V30 8068 O 750.405 1.72264 0.565233 0
M  V30 8069 C 750.453 2.11234 -2.92254 0
M  V30 8070 O 749.557 3.186 -2.61855 0
M  V30 8071 H 748.898 0.323482 -0.579875 0
M  V30 8072 H 751.428 0.404167 -2.00568 0
M  V30 8073 H 751.438 2.54591 -3.18822 0
M  V30 8074 H 750.113 1.59599 -3.84058 0
M  V30 8075 H 748.69 2.80115 -2.4615 0
M  V30 8076 N 750.875 1.45233 0.611969 0
M  V30 8077 C 752.1 1.52767 1.40274 0
M  V30 8078 C 752.525 0.159701 1.87421 0
M  V30 8079 O 751.883 -0.854837 1.59882 0
M  V30 8080 C 751.931 2.51286 2.58626 0
M  V30 8081 O 751.035 2.02764 3.59111 0
M  V30 8082 H 750.376 0.515141 0.418958 0
M  V30 8083 H 752.906 1.90547 0.745188 0
M  V30 8084 H 752.916 2.69949 3.05927 0
M  V30 8085 H 751.591 3.50641 2.23659 0
M  V30 8086 H 750.168 1.93957 3.18489 0
M  V30 8087 N 752.353 -0.854086 1.3245 0
M  V30 8088 C 753.764 -1.42427 1.20712 0
M  V30 8089 C 754.115 -1.95371 -0.18013 0
M  V30 8090 O 753.24 -1.87587 -1.07889 0
M  V30 8091 C 753.835 -2.58897 2.18536 0
M  V30 8092 C 752.394 -3.11913 2.10683 0
M  V30 8093 C 751.541 -1.84661 2.06871 0
M  V30 8094 H 754.492 -0.661192 1.4427 0
M  V30 8095 H 754.513 -3.36074 1.78422 0
M  V30 8096 H 754.025 -2.20333 3.19492 0
M  V30 8097 H 752.126 -3.55059 1.12977 0
M  V30 8098 H 752.239 -3.73119 3.00532 0
M  V30 8099 H 750.603 -2.04285 1.52118 0
M  V30 8100 H 751.386 -1.48314 3.09609 0
M  V30 8101 N 753.831 -1.1567 -1.07043 0
M  V30 8102 C 755.079 -0.931673 -1.79344 0
M  V30 8103 C 755.4 0.542421 -1.87304 0
M  V30 8104 O 754.67 1.39418 -1.37621 0
M  V30 8105 H 753.25 -0.34171 -0.664262 0
M  V30 8106 H 755.912 -1.45795 -1.29344 0
M  V30 8107 H 755.008 -1.34379 -2.81689 0
M  V30 8108 N 755.309 1.25446 -0.953992 0
M  V30 8109 C 756.537 1.97215 -0.625595 0
M  V30 8110 C 756.952 1.70911 0.802168 0
M  V30 8111 O 756.309 0.984782 1.5365 0
M  V30 8112 C 756.36 3.50777 -0.873943 0
M  V30 8113 O 756.081 3.76173 -2.24556 0
M  V30 8114 C 757.582 4.39776 -0.557845 0
M  V30 8115 H 754.802 0.628652 -0.2346 0
M  V30 8116 H 757.346 1.59632 -1.27819 0
M  V30 8117 H 755.501 3.86474 -0.267765 0
M  V30 8118 H 755.915 4.70636 -2.31522 0
M  V30 8119 H 757.389 5.46431 -0.782157 0
M  V30 8120 H 757.866 4.36257 0.507573 0
M  V30 8121 H 758.472 4.09644 -1.14332 0
M  V30 8122 N 756.787 0.722489 1.40064 0
M  V30 8123 C 758.198 0.336507 1.83642 0
M  V30 8124 C 758.549 -1.13002 1.6039 0
M  V30 8125 O 757.674 -1.87036 1.08842 0
M  V30 8126 C 758.269 0.603985 3.33373 0
M  V30 8127 C 756.828 0.271637 3.75419 0
M  V30 8128 C 755.975 0.872898 2.63203 0
M  V30 8129 H 758.926 0.921108 1.29233 0
M  V30 8130 H 758.947 -0.128471 3.80283 0
M  V30 8131 H 758.459 1.67141 3.50265 0
M  V30 8132 H 756.56 -0.790455 3.64119 0
M  V30 8133 H 756.673 0.745457 4.73265 0
M  V30 8134 H 755.037 0.300431 2.52922 0
M  V30 8135 H 755.82 1.94473 2.82905 0
M  V30 8136 N 758.265 -1.50454 0.469181 0
M  V30 8137 C 759.513 -2.01916 -0.0862982 0
M  V30 8138 C 759.834 -1.35337 -1.40388 0
M  V30 8139 O 759.104 -0.498096 -1.89462 0
M  V30 8140 H 757.684 -0.746185 -0.0348825 0
M  V30 8141 H 760.346 -1.84804 0.619167 0
M  V30 8142 H 759.442 -3.11182 -0.239189 0
M  V30 8143 N 759.743 -0.201713 -1.56304 0
M  V30 8144 C 760.675 0.748466 -2.16635 0
M  V30 8145 C 761.688 1.172 -1.12996 0
M  V30 8146 O 762.877 1.10658 -1.40061 0
M  V30 8147 C 759.977 2.02296 -2.719 0
M  V30 8148 C 759.15 1.75818 -4.00508 0
M  V30 8149 C 758.209 2.87779 -4.40533 0
M  V30 8150 O 757.235 2.57101 -5.07826 0
M  V30 8151 N 758.437 4.16287 -4.04581 0
M  V30 8152 H 761.202 0.232505 -2.98797 0
M  V30 8153 H 758.763 -0.0199822 -1.61888 0
M  V30 8154 H 760.755 2.7635 -2.95657 0
M  V30 8155 H 759.325 2.44996 -1.94154 0
M  V30 8156 H 758.545 0.855095 -3.84814 0
M  V30 8157 H 759.833 1.55532 -4.84445 0
M  V30 8158 H 759.231 4.44061 -3.50466 0
M  V30 8159 H 757.788 4.86946 -4.33274 0
M  V30 8160 N 761.222 1.57436 0.0718424 0
M  V30 8161 C 762.185 2.02703 1.06977 0
M  V30 8162 C 763.185 0.924062 1.31597 0
M  V30 8163 O 764.375 1.18894 1.27318 0
M  V30 8164 C 761.507 2.40763 2.41342 0
M  V30 8165 H 762.7 2.92098 0.679619 0
M  V30 8166 H 760.253 1.5304 0.317565 0
M  V30 8167 H 760.988 1.54394 2.8519 0
M  V30 8168 H 760.773 3.21249 2.24814 0
M  V30 8169 H 762.263 2.76361 3.13073 0
M  V30 8170 N 762.7 -0.34323 1.53817 0
M  V30 8171 C 763.947 -1.08344 1.71079 0
M  V30 8172 C 764.275 -1.88633 0.474133 0
M  V30 8173 O 763.53 -1.87984 -0.544116 0
M  V30 8174 C 763.829 -2.05195 2.92626 0
M  V30 8175 C 763.495 -1.41215 4.28216 0
M  V30 8176 C 762.157 -1.23495 4.65083 0
M  V30 8177 C 764.509 -0.951273 5.12445 0
M  V30 8178 C 761.837 -0.583065 5.83796 0
M  V30 8179 C 764.189 -0.313292 6.31824 0
M  V30 8180 C 762.853 -0.123779 6.67385 0
M  V30 8181 H 762.123 -0.396458 0.626021 0
M  V30 8182 H 764.77 -0.362689 1.88034 0
M  V30 8183 H 763.075 -2.83653 2.70275 0
M  V30 8184 H 764.772 -2.62462 3.03175 0
M  V30 8185 H 761.362 -1.56005 3.992 0
M  V30 8186 H 765.546 -1.07602 4.84495 0
M  V30 8187 H 760.802 -0.424854 6.09922 0
M  V30 8188 H 764.976 0.0519179 6.96381 0
M  V30 8189 H 762.603 0.383398 7.59233 0
M  V30 8190 N 764.178 -1.45556 -0.604258 0
M  V30 8191 C 765.408 -1.53056 -1.38771 0
M  V30 8192 C 765.816 -0.163092 -1.88496 0
M  V30 8193 O 765.159 0.846157 -1.63052 0
M  V30 8194 C 765.221 -2.45656 -2.62476 0
M  V30 8195 C 764.885 -3.92328 -2.34367 0
M  V30 8196 C 765.882 -4.82137 -1.94525 0
M  V30 8197 C 763.567 -4.37275 -2.47177 0
M  V30 8198 C 765.561 -6.14901 -1.67856 0
M  V30 8199 C 763.248 -5.70079 -2.20122 0
M  V30 8200 C 764.246 -6.58711 -1.80524 0
M  V30 8201 O 763.934 -7.89053 -1.53788 0
M  V30 8202 H 763.666 -0.520721 -0.431075 0
M  V30 8203 H 766.22 -1.91464 -0.743693 0
M  V30 8204 H 764.45 -2.02225 -3.29609 0
M  V30 8205 H 766.139 -2.43802 -3.24523 0
M  V30 8206 H 766.905 -4.48675 -1.84162 0
M  V30 8207 H 762.784 -3.68527 -2.76964 0
M  V30 8208 H 766.328 -6.8404 -1.36874 0
M  V30 8209 H 762.225 -6.03095 -2.30102 0
M  V30 8210 H 762.993 -8.01113 -1.67812 0
M  V30 8211 N 765.656 0.84705 -1.32902 0
M  V30 8212 C 766.566 1.98845 -1.2449 0
M  V30 8213 C 767.582 1.7329 -0.15702 0
M  V30 8214 O 768.758 1.978 -0.379104 0
M  V30 8215 C 765.823 3.32679 -0.975985 0
M  V30 8216 C 764.884 3.71405 -2.15306 0
M  V30 8217 C 764.117 4.98853 -1.89688 0
M  V30 8218 O 764.34 5.64134 -0.843168 0
M  V30 8219 O 763.274 5.34889 -2.76002 0
M  V30 8220 H 767.1 2.0888 -2.2046 0
M  V30 8221 H 764.685 0.978852 -1.12867 0
M  V30 8222 H 766.567 4.12885 -0.842826 0
M  V30 8223 H 765.242 3.23667 -0.0464954 0
M  V30 8224 H 764.149 2.91743 -2.34172 0
M  V30 8225 H 765.482 3.85073 -3.06561 0
M  V30 8226 N 767.134 1.16236 1.06428 0
M  V30 8227 C 768.067 0.81119 2.13295 0
M  V30 8228 C 769.045 -0.216555 1.61151 0
M  V30 8229 O 770.229 -0.100949 1.88229 0
M  V30 8230 C 767.356 0.207901 3.38061 0
M  V30 8231 C 766.402 1.20904 4.09004 0
M  V30 8232 S 767.235 2.75513 4.59187 0
M  V30 8233 C 768.391 2.1663 5.87216 0
M  V30 8234 H 768.624 1.71632 2.42755 0
M  V30 8235 H 766.157 0.985693 1.18842 0
M  V30 8236 H 768.115 -0.133715 4.10282 0
M  V30 8237 H 766.776 -0.67497 3.06762 0
M  V30 8238 H 765.969 0.735326 4.98607 0
M  V30 8239 H 765.571 1.49567 3.42791 0
M  V30 8240 H 767.863 1.53413 6.59902 0
M  V30 8241 H 768.806 3.04437 6.39315 0
M  V30 8242 H 769.214 1.60565 5.41183 0
M  V30 8243 N 768.612 -1.24939 0.960631 0
M  V30 8244 C 769.575 -2.239 0.49006 0
M  V30 8245 C 770.575 -1.55497 -0.409535 0
M  V30 8246 O 771.765 -1.72978 -0.205984 0
M  V30 8247 C 768.897 -3.39654 -0.291193 0
M  V30 8248 H 770.09 -2.67044 1.36482 0
M  V30 8249 H 767.643 -1.37429 0.744505 0
M  V30 8250 H 768.378 -3.01939 -1.18336 0
M  V30 8251 H 768.163 -3.90496 0.354276 0
M  V30 8252 H 769.653 -4.13125 -0.609693 0
M  V30 8253 N 770.09 -0.729906 -1.39679 0
M  V30 8254 C 771.315 -0.284345 -2.05442 0
M  V30 8255 C 771.74 1.07056 -1.54663 0
M  V30 8256 O 771.098 1.67732 -0.688157 0
M  V30 8257 C 771.146 -0.290089 -3.59431 0
M  V30 8258 O 770.25 0.723978 -4.05995 0
M  V30 8259 H 769.591 -0.130311 -0.651088 0
M  V30 8260 H 772.121 -0.994403 -1.78809 0
M  V30 8261 H 772.131 -0.132712 -4.07784 0
M  V30 8262 H 770.806 -1.27877 -3.95753 0
M  V30 8263 H 769.383 0.533154 -3.69069 0
M  V30 8264 N 771.568 1.50203 -0.477153 0
M  V30 8265 C 772.815 2.02358 0.0757385 0
M  V30 8266 C 773.143 1.3587 1.39174 0
M  V30 8267 O 772.398 0.475415 1.89838 0
M  V30 8268 C 772.697 3.56127 0.301325 0
M  V30 8269 C 772.363 4.41126 -0.933725 0
M  V30 8270 C 771.025 4.64075 -1.27233 0
M  V30 8271 C 773.377 4.90737 -1.75576 0
M  V30 8272 C 770.705 5.33878 -2.43292 0
M  V30 8273 C 773.057 5.61816 -2.90768 0
M  V30 8274 C 771.721 5.83016 -3.25036 0
M  V30 8275 H 770.991 0.740482 0.0277147 0
M  V30 8276 H 773.638 1.80754 -0.632467 0
M  V30 8277 H 771.943 3.76279 1.09183 0
M  V30 8278 H 773.64 3.94053 0.743184 0
M  V30 8279 H 770.23 4.23489 -0.659935 0
M  V30 8280 H 774.414 4.72856 -1.50734 0
M  V30 8281 H 769.67 5.48499 -2.70109 0
M  V30 8282 H 773.844 5.99237 -3.54807 0
M  V30 8283 H 771.471 6.36881 -4.15074 0
M  V30 8284 N 773.046 0.209999 1.56195 0
M  V30 8285 C 774.271 -0.433064 2.02828 0
M  V30 8286 C 774.696 -1.5337 1.08901 0
M  V30 8287 O 774.054 -1.81144 0.0751132 0
M  V30 8288 C 774.102 -0.952635 3.47789 0
M  V30 8289 O 773.206 -2.0647 3.56993 0
M  V30 8290 H 772.547 -0.0994594 0.656509 0
M  V30 8291 H 775.077 0.32525 2.01998 0
M  V30 8292 H 775.087 -1.26542 3.8788 0
M  V30 8293 H 773.762 -0.147007 4.1564 0
M  V30 8294 H 772.339 -1.75942 3.28784 0
M  V30 8295 N 774.524 -1.57472 -0.0634922 0
M  V30 8296 C 775.434 -2.07621 -1.09227 0
M  V30 8297 C 776.45 -1.00746 -1.41867 0
M  V30 8298 O 777.626 -1.32269 -1.51878 0
M  V30 8299 C 774.691 -2.51707 -2.38421 0
M  V30 8300 C 773.752 -3.72917 -2.12676 0
M  V30 8301 C 772.985 -4.14891 -3.3571 0
M  V30 8302 O 773.208 -3.56663 -4.45137 0
M  V30 8303 O 772.142 -5.07616 -3.23434 0
M  V30 8304 H 775.968 -2.95612 -0.696205 0
M  V30 8305 H 773.553 -1.46787 -0.27819 0
M  V30 8306 H 775.435 -2.80547 -3.14438 0
M  V30 8307 H 774.11 -1.66842 -2.77391 0
M  V30 8308 H 773.017 -3.49148 -1.34337 0
M  V30 8309 H 774.35 -4.5866 -1.78583 0
M  V30 8310 N 776.003 0.335068 -1.53997 0
M  V30 8311 C 776.951 1.43206 -1.83289 0
M  V30 8312 C 777.945 1.54081 -0.703953 0
M  V30 8313 O 779.151 1.56603 -0.887432 0
M  V30 8314 H 775.526 0.477655 -0.580818 0
M  V30 8315 H 777.497 1.15719 -2.75049 0
M  V30 8316 C 776.246 2.79602 -2.06683 0
M  V30 8317 H 775.569 2.72004 -2.93008 0
M  V30 8318 H 777.009 3.55459 -2.31139 0
M  V30 8319 C 775.468 3.25873 -0.854883 0
M  V30 8320 O 775.998 4.01657 -0.0584648 0
M  V30 8321 N 774.204 2.82777 -0.669729 0
M  V30 8322 H 773.751 2.21269 -1.31901 0
M  V30 8323 H 773.709 3.1409 0.13969 0
M  V30 8324 N 777.481 1.45874 0.596531 0
M  V30 8325 C 778.897 1.30524 0.918459 0
M  V30 8326 C 779.097 0.266429 1.99731 0
M  V30 8327 O 778.153 -0.335809 2.50257 0
M  V30 8328 C 779.466 2.68747 1.3489 0
M  V30 8329 C 781.014 2.7673 1.46251 0
M  V30 8330 C 781.489 4.15504 1.92667 0
M  V30 8331 N 782.98 4.17853 1.99883 0
M  V30 8332 C 783.715 5.22109 2.37044 0
M  V30 8333 N 783.211 6.36704 2.73094 0
M  V30 8334 N 785.004 5.09471 2.37479 0
M  V30 8335 H 777.155 2.12081 -0.116368 0
M  V30 8336 H 779.418 0.947941 0.0106033 0
M  V30 8337 H 779.124 3.46006 0.630288 0
M  V30 8338 H 778.998 2.97942 2.31323 0
M  V30 8339 H 781.385 1.99768 2.17202 0
M  V30 8340 H 781.466 2.51236 0.481054 0
M  V30 8341 H 781.11 4.92956 1.223 0
M  V30 8342 H 781.04 4.38396 2.91747 0
M  V30 8343 H 783.531 3.35163 1.74568 0
M  V30 8344 H 783.844 7.12041 3.00362 0
M  V30 8345 H 782.189 6.40087 2.70764 0
M  V30 8346 H 785.38 4.18987 2.08728 0
M  V30 8347 H 785.553 5.90837 2.66112 0
M  V30 8348 N 778.959 -0.83999 1.33349 0
M  V30 8349 C 779.922 -1.93128 1.23426 0
M  V30 8350 C 780.922 -1.60065 0.153599 0
M  V30 8351 O 782.112 -1.69425 0.405049 0
M  V30 8352 C 779.244 -3.28761 0.901622 0
M  V30 8353 H 780.437 -2.03352 2.20427 0
M  V30 8354 H 777.99 -1.03194 1.17391 0
M  V30 8355 H 778.725 -3.24233 -0.0659337 0
M  V30 8356 H 778.51 -3.54138 1.68311 0
M  V30 8357 H 780 -4.08714 0.856913 0
M  V30 8358 N 780.437 -1.16799 -1.0581 0
M  V30 8359 C 781.367 -0.902241 -2.15364 0
M  V30 8360 C 782.348 0.153351 -1.69407 0
M  V30 8361 O 783.533 0.00442032 -1.94199 0
M  V30 8362 C 780.663 -0.407911 -3.44896 0
M  V30 8363 C 779.617 -1.40197 -4.04387 0
M  V30 8364 C 778.943 -0.765848 -5.29187 0
M  V30 8365 C 780.243 -2.77316 -4.42598 0
M  V30 8366 H 781.937 -1.81841 -2.37853 0
M  V30 8367 H 779.483 -0.875731 -1.14311 0
M  V30 8368 H 781.436 -0.20945 -4.20879 0
M  V30 8369 H 780.16 0.54378 -3.22041 0
M  V30 8370 H 778.819 -1.58707 -3.30466 0
M  V30 8371 H 778.467 0.192482 -5.02632 0
M  V30 8372 H 778.167 -1.42939 -5.69949 0
M  V30 8373 H 779.691 -0.577519 -6.07863 0
M  V30 8374 H 781.105 -2.62561 -5.09642 0
M  V30 8375 H 779.502 -3.4019 -4.94359 0
M  V30 8376 H 780.572 -3.32199 -3.53231 0
M  V30 8377 N 781.915 1.24427 -0.967243 0
M  V30 8378 C 783.331 1.44684 -0.6737 0
M  V30 8379 C 783.531 1.86429 0.764625 0
M  V30 8380 O 782.587 2.00211 1.53857 0
M  V30 8381 C 783.9 2.509 -1.6574 0
M  V30 8382 C 785.448 2.64728 -1.66998 0
M  V30 8383 C 785.923 3.7414 -2.64165 0
M  V30 8384 N 787.414 3.81567 -2.62604 0
M  V30 8385 C 788.149 4.6575 -3.34462 0
M  V30 8386 N 787.645 5.54124 -4.15835 0
M  V30 8387 N 789.438 4.59827 -3.23288 0
M  V30 8388 H 781.589 0.956276 -1.89655 0
M  V30 8389 H 783.852 0.48171 -0.816492 0
M  V30 8390 H 783.558 2.27113 -2.68538 0
M  V30 8391 H 783.432 3.4905 -1.42981 0
M  V30 8392 H 785.819 2.87872 -0.649121 0
M  V30 8393 H 785.9 1.66936 -1.93819 0
M  V30 8394 H 785.544 3.51745 -3.66384 0
M  V30 8395 H 785.474 4.71444 -2.34623 0
M  V30 8396 H 787.965 3.18403 -2.03539 0
M  V30 8397 H 788.278 6.15316 -4.67553 0
M  V30 8398 H 786.623 5.53791 -4.19929 0
M  V30 8399 H 789.814 3.898 -2.59179 0
M  V30 8400 H 789.987 5.25208 -3.79553 0
M  V30 8401 N 783.393 0.737304 1.3929 0
M  V30 8402 C 784.323 0.113988 2.33222 0
M  V30 8403 C 785.304 -0.721695 1.54031 0
M  V30 8404 O 786.489 -0.666206 1.82415 0
M  V30 8405 C 783.619 -0.792319 3.38141 0
M  V30 8406 C 782.573 -0.0606178 4.27957 0
M  V30 8407 C 781.899 -1.08409 5.23595 0
M  V30 8408 C 783.199 1.09817 5.10625 0
M  V30 8409 H 784.893 0.898611 2.85596 0
M  V30 8410 H 782.439 0.433571 1.37318 0
M  V30 8411 H 784.392 -1.23793 4.02807 0
M  V30 8412 H 783.116 -1.60908 2.84211 0
M  V30 8413 H 781.775 0.365393 3.64775 0
M  V30 8414 H 781.423 -1.89449 4.6596 0
M  V30 8415 H 781.123 -0.599269 5.84536 0
M  V30 8416 H 782.647 -1.52936 5.91137 0
M  V30 8417 H 784.061 0.730892 5.68622 0
M  V30 8418 H 782.458 1.51278 5.80719 0
M  V30 8419 H 783.528 1.91878 4.45321 0
M  V30 8420 N 784.871 -1.49948 0.485112 0
M  V30 8421 C 785.801 -2.31675 -0.291364 0
M  V30 8422 C 786.782 -1.39216 -0.977383 0
M  V30 8423 O 787.967 -1.68133 -0.971855 0
M  V30 8424 C 785.097 -3.19326 -1.36558 0
M  V30 8425 C 784.051 -4.2045 -0.800359 0
M  V30 8426 C 783.377 -4.96931 -1.97391 0
M  V30 8427 C 784.677 -5.21925 0.197867 0
M  V30 8428 H 786.371 -2.96839 0.390775 0
M  V30 8429 H 783.917 -1.42749 0.189375 0
M  V30 8430 H 785.87 -3.75304 -1.91638 0
M  V30 8431 H 784.594 -2.52074 -2.07668 0
M  V30 8432 H 783.253 -3.65594 -0.271428 0
M  V30 8433 H 782.901 -4.26141 -2.67232 0
M  V30 8434 H 782.601 -5.65344 -1.60187 0
M  V30 8435 H 784.125 -5.55749 -2.52935 0
M  V30 8436 H 785.539 -5.72691 -0.264239 0
M  V30 8437 H 783.936 -5.98138 0.484908 0
M  V30 8438 H 785.006 -4.71809 1.11912 0
M  V30 8439 N 786.349 -0.21828 -1.56081 0
M  V30 8440 C 787.281 0.725447 -2.17416 0
M  V30 8441 C 788.294 1.15995 -1.14233 0
M  V30 8442 O 789.483 1.09166 -1.41227 0
M  V30 8443 C 786.583 1.99401 -2.7403 0
M  V30 8444 C 785.756 1.7156 -4.02351 0
M  V30 8445 C 784.815 2.8309 -4.43561 0
M  V30 8446 O 783.841 2.51701 -5.10525 0
M  V30 8447 N 785.043 4.11972 -4.08973 0
M  V30 8448 H 787.808 0.200801 -2.99027 0
M  V30 8449 H 785.369 -0.0371514 -1.61857 0
M  V30 8450 H 787.361 2.73198 -2.98571 0
M  V30 8451 H 785.931 2.42923 -1.96742 0
M  V30 8452 H 785.151 0.814233 -3.85699 0
M  V30 8453 H 786.439 1.50385 -4.86068 0
M  V30 8454 H 785.837 4.40319 -3.55156 0
M  V30 8455 H 784.394 4.82323 -4.38415 0
M  V30 8456 N 787.827 1.57504 0.0551401 0
M  V30 8457 C 788.737 2.08198 1.08124 0
M  V30 8458 C 789.753 1.01496 1.41331 0
M  V30 8459 O 790.929 1.33073 1.51174 0
M  V30 8460 C 787.994 2.52968 2.37083 0
M  V30 8461 C 787.055 3.7404 2.10696 0
M  V30 8462 C 786.288 4.16665 3.33505 0
M  V30 8463 O 786.511 3.59019 4.4324 0
M  V30 8464 O 785.445 5.09324 3.20737 0
M  V30 8465 H 789.271 2.95977 0.680518 0
M  V30 8466 H 786.856 1.46933 0.270401 0
M  V30 8467 H 788.738 2.82211 3.12946 0
M  V30 8468 H 787.413 1.6831 2.76502 0
M  V30 8469 H 786.32 3.49855 1.32484 0
M  V30 8470 H 787.653 4.59601 1.76148 0
M  V30 8471 N 789.305 -0.326896 1.54172 0
M  V30 8472 C 790.53 -1.08924 1.76494 0
M  V30 8473 C 790.955 -1.81039 0.510523 0
M  V30 8474 O 790.313 -1.73141 -0.537756 0
M  V30 8475 C 790.361 -2.06558 2.95578 0
M  V30 8476 O 789.465 -3.14394 2.6689 0
M  V30 8477 H 788.806 -0.314216 0.584948 0
M  V30 8478 H 791.336 -0.372207 2.01186 0
M  V30 8479 H 791.346 -2.49487 3.22832 0
M  V30 8480 H 790.021 -1.53469 3.86549 0
M  V30 8481 H 788.598 -2.76164 2.50576 0
M  V30 8482 N 790.784 -1.46188 -0.588786 0
M  V30 8483 C 792.032 -1.50885 -1.34455 0
M  V30 8484 C 792.353 -0.159555 -1.94346 0
M  V30 8485 O 791.623 0.813239 -1.78222 0
M  V30 8486 H 790.203 -0.555707 -0.499198 0
M  V30 8487 H 792.865 -1.82277 -0.690014 0
M  V30 8488 H 791.961 -2.25816 -2.15438 0
M  V30 8489 N 792.262 0.832906 -1.33792 0
M  V30 8490 C 793.21 1.96455 -1.24532 0
M  V30 8491 C 794.204 1.68774 -0.145455 0
M  V30 8492 O 795.41 1.77314 -0.309797 0
M  V30 8493 H 791.785 0.645008 -0.386611 0
M  V30 8494 H 793.756 2.01389 -2.20193 0
M  V30 8495 C 792.505 3.32784 -1.00748 0
M  V30 8496 H 791.828 3.54626 -1.84609 0
M  V30 8497 H 793.268 4.12447 -0.98301 0
M  V30 8498 C 791.727 3.35654 0.289475 0
M  V30 8499 O 792.257 3.80281 1.29419 0
M  V30 8500 N 790.463 2.88843 0.3191 0
M  V30 8501 H 790.01 2.52719 -0.499069 0
M  V30 8502 H 789.968 2.91145 1.18667 0
M  V30 8503 N 793.74 1.17359 1.05189 0
M  V30 8504 C 794.988 0.960087 1.77839 0
M  V30 8505 C 795.309 -0.512554 1.88143 0
M  V30 8506 O 794.579 -1.3721 1.39822 0
M  V30 8507 H 793.159 0.352234 0.658741 0
M  V30 8508 H 795.821 1.47834 1.27008 0
M  V30 8509 H 794.917 1.38843 2.79516 0
M  V30 8510 N 795.218 -1.23913 0.973828 0
M  V30 8511 C 796.465 -1.92151 0.639079 0
M  V30 8512 C 796.793 -1.76064 -0.826545 0
M  V30 8513 O 796.048 -1.11126 -1.61088 0
M  V30 8514 C 796.347 -3.4406 0.967356 0
M  V30 8515 C 796.013 -3.80321 2.42212 0
M  V30 8516 C 794.675 -3.8993 2.81971 0
M  V30 8517 C 797.027 -3.97935 3.36596 0
M  V30 8518 C 794.355 -4.14575 4.15144 0
M  V30 8519 C 796.707 -4.24079 4.69404 0
M  V30 8520 C 795.371 -4.31908 5.08932 0
M  V30 8521 H 794.641 -0.70313 0.233856 0
M  V30 8522 H 797.288 -1.47072 1.22646 0
M  V30 8523 H 795.593 -3.90667 0.297807 0
M  V30 8524 H 797.29 -3.95077 0.686654 0
M  V30 8525 H 793.88 -3.73411 2.10385 0
M  V30 8526 H 798.064 -3.89908 3.07059 0
M  V30 8527 H 793.32 -4.18858 4.45385 0
M  V30 8528 H 797.494 -4.36652 5.42502 0
M  V30 8529 H 795.121 -4.50758 6.12145 0
M  V30 8530 N 796.696 -0.74468 -1.38897 0
M  V30 8531 C 797.942 -0.297324 -2.00609 0
M  V30 8532 C 798.275 1.11547 -1.58968 0
M  V30 8533 O 797.55 1.76227 -0.823057 0
M  V30 8534 C 797.833 -0.410125 -3.57757 0
M  V30 8535 C 797.686 -1.86338 -4.09387 0
M  V30 8536 C 799.005 0.20176 -4.39637 0
M  V30 8537 H 796.124 -0.109509 -0.728819 0
M  V30 8538 H 798.766 -0.942653 -1.64967 0
M  V30 8539 H 796.916 0.139287 -3.8825 0
M  V30 8540 H 798.588 -2.47042 -3.89574 0
M  V30 8541 H 796.831 -2.38146 -3.62586 0
M  V30 8542 H 797.502 -1.89352 -5.18507 0
M  V30 8543 H 799.978 -0.266703 -4.15244 0
M  V30 8544 H 798.854 0.0925415 -5.48822 0
M  V30 8545 H 799.115 1.289 -4.22891 0
M  V30 8546 N 798.174 1.49689 -0.493057 0
M  V30 8547 C 799.59 1.58907 -0.148526 0
M  V30 8548 C 799.79 1.4991 1.34645 0
M  V30 8549 O 798.846 1.36893 2.12171 0
M  V30 8550 C 800.159 2.91996 -0.718265 0
M  V30 8551 C 801.707 3.05443 -0.683658 0
M  V30 8552 C 802.182 4.41138 -1.23132 0
M  V30 8553 N 803.673 4.47608 -1.19167 0
M  V30 8554 C 804.408 5.51038 -1.5857 0
M  V30 8555 N 803.904 6.61612 -2.05528 0
M  V30 8556 N 805.697 5.41706 -1.50036 0
M  V30 8557 H 797.848 1.5378 -1.46511 0
M  V30 8558 H 800.111 0.727996 -0.607228 0
M  V30 8559 H 799.817 3.04123 -1.7664 0
M  V30 8560 H 799.691 3.76798 -0.17419 0
M  V30 8561 H 802.078 2.92949 0.355626 0
M  V30 8562 H 802.159 2.22344 -1.26479 0
M  V30 8563 H 801.803 4.54382 -2.26935 0
M  V30 8564 H 801.733 5.22864 -0.626201 0
M  V30 8565 H 804.224 3.68274 -0.847524 0
M  V30 8566 H 804.537 7.36622 -2.33685 0
M  V30 8567 H 802.882 6.62674 -2.09497 0
M  V30 8568 H 806.073 4.54212 -1.13176 0
M  V30 8569 H 806.246 6.22188 -1.81068 0
M  V30 8570 N 799.652 0.226554 1.55963 0
M  V30 8571 C 800.602 -0.694986 2.1715 0
M  V30 8572 C 801.586 -1.15394 1.12129 0
M  V30 8573 O 802.778 -1.1071 1.38102 0
M  V30 8574 C 799.907 -1.9007 2.85882 0
M  V30 8575 C 798.993 -1.46119 3.98133 0
M  V30 8576 N 799.384 -0.734584 5.00437 0
M  V30 8577 C 797.682 -1.74809 4.10314 0
M  V30 8578 C 798.383 -0.509773 5.79462 0
M  V30 8579 N 797.359 -1.06796 5.33006 0
M  V30 8580 H 801.161 -0.131469 2.93606 0
M  V30 8581 H 798.675 0.0280165 1.62376 0
M  V30 8582 H 800.672 -2.57169 3.28131 0
M  V30 8583 H 799.332 -2.46864 2.10923 0
M  V30 8584 H 800.343 -0.386757 5.16454 0
M  V30 8585 H 797.02 -2.32887 3.46511 0
M  V30 8586 H 798.41 0.0688847 6.71865 0
M  V30 8587 N 801.13 -1.57531 -0.0467866 0
M  V30 8588 C 802.078 -2.06455 -1.0714 0
M  V30 8589 C 803.072 -0.974744 -1.38546 0
M  V30 8590 O 804.278 -1.15974 -1.37659 0
M  V30 8591 H 800.653 -0.658607 -0.362962 0
M  V30 8592 H 802.624 -2.91613 -0.632813 0
M  V30 8593 C 801.373 -2.54481 -2.36927 0
M  V30 8594 H 800.696 -3.37946 -2.13617 0
M  V30 8595 H 802.136 -2.92442 -3.07007 0
M  V30 8596 C 800.595 -1.43836 -3.04652 0
M  V30 8597 O 801.125 -0.794531 -3.93764 0
M  V30 8598 N 799.331 -1.17727 -2.65686 0
M  V30 8599 H 798.878 -1.70265 -1.93307 0
M  V30 8600 H 798.836 -0.439051 -3.11319 0
M  V30 8601 N 802.608 0.318715 -1.54344 0
M  V30 8602 C 803.854 1.05765 -1.73037 0
M  V30 8603 C 804.187 1.87514 -0.505181 0
M  V30 8604 O 803.462 1.88021 0.497838 0
M  V30 8605 C 803.745 1.97836 -3.00887 0
M  V30 8606 C 803.598 1.19384 -4.33668 0
M  V30 8607 C 804.917 2.97285 -3.24514 0
M  V30 8608 H 802.036 0.383104 -0.629603 0
M  V30 8609 H 804.678 0.333864 -1.87044 0
M  V30 8610 H 802.828 2.59552 -2.89076 0
M  V30 8611 H 804.5 0.600906 -4.57369 0
M  V30 8612 H 802.743 0.496198 -4.30953 0
M  V30 8613 H 803.414 1.87014 -5.19355 0
M  V30 8614 H 805.89 2.45693 -3.35819 0
M  V30 8615 H 804.766 3.58887 -4.15321 0
M  V30 8616 H 805.027 3.70003 -2.41971 0
M  V30 8617 N 804.086 1.46499 0.581025 0
M  V30 8618 C 805.334 1.51596 1.33653 0
M  V30 8619 C 805.655 0.169859 1.94259 0
M  V30 8620 O 804.925 -0.803776 1.78651 0
M  V30 8621 H 803.505 0.558346 0.496244 0
M  V30 8622 H 806.167 1.8264 0.680338 0
M  V30 8623 H 805.263 2.26956 2.14237 0
M  V30 8624 N 805.565 -0.825799 1.34232 0
M  V30 8625 C 806.515 -1.92533 1.22128 0
M  V30 8626 C 807.499 -1.60444 0.121002 0
M  V30 8627 O 808.691 -1.73497 0.350385 0
M  V30 8628 C 805.82 -3.29134 0.975995 0
M  V30 8629 C 804.906 -3.6735 2.11931 0
M  V30 8630 N 805.297 -3.77154 3.37029 0
M  V30 8631 C 803.595 -3.97179 2.02891 0
M  V30 8632 C 804.296 -4.10552 4.12095 0
M  V30 8633 N 803.272 -4.23619 3.40658 0
M  V30 8634 H 807.074 -1.98287 2.16932 0
M  V30 8635 H 804.588 -1.01929 1.26429 0
M  V30 8636 H 806.585 -4.07717 0.870187 0
M  V30 8637 H 805.245 -3.24679 0.036606 0
M  V30 8638 H 806.256 -3.60723 3.71618 0
M  V30 8639 H 802.933 -4.00861 1.16692 0
M  V30 8640 H 804.323 -4.25365 5.2011 0
M  V30 8641 N 807.043 -1.17915 -1.04565 0
M  V30 8642 C 807.973 -0.925033 -2.14395 0
M  V30 8643 C 808.954 0.135375 -1.6956 0
M  V30 8644 O 810.139 -0.0161774 -1.94193 0
M  V30 8645 C 807.269 -0.444469 -3.44444 0
M  V30 8646 C 806.223 -1.44478 -4.02877 0
M  V30 8647 C 805.549 -0.821933 -5.28345 0
M  V30 8648 C 806.849 -2.81995 -4.39632 0
M  V30 8649 H 808.543 -1.84354 -2.35911 0
M  V30 8650 H 806.089 -0.887806 -1.13375 0
M  V30 8651 H 808.042 -0.254078 -4.20633 0
M  V30 8652 H 806.766 0.509592 -3.226 0
M  V30 8653 H 805.425 -1.62203 -3.28764 0
M  V30 8654 H 805.073 0.139161 -5.02807 0
M  V30 8655 H 804.773 -1.48976 -5.68401 0
M  V30 8656 H 806.297 -0.641959 -6.07216 0
M  V30 8657 H 807.711 -2.67952 -5.06828 0
M  V30 8658 H 806.108 -3.45414 -4.90723 0
M  V30 8659 H 807.178 -3.35927 -3.49687 0
M  V30 8660 N 808.521 1.23394 -0.980386 0
M  V30 8661 C 809.746 1.96384 -0.666935 0
M  V30 8662 C 810.171 1.72087 0.759456 0
M  V30 8663 O 809.529 0.992328 1.51732 0
M  V30 8664 C 809.577 3.47499 -0.963177 0
M  V30 8665 O 808.681 4.12363 -0.0552051 0
M  V30 8666 H 808.022 0.614797 -0.250839 0
M  V30 8667 H 810.552 1.56831 -1.31398 0
M  V30 8668 H 810.562 3.97953 -0.899877 0
M  V30 8669 H 809.237 3.6451 -2.00264 0
M  V30 8670 H 807.814 3.72499 -0.172914 0
M  V30 8671 N 809.999 0.752036 1.385 0
M  V30 8672 C 811.415 0.42946 1.53713 0
M  V30 8673 C 811.615 -1.0576 1.71514 0
M  V30 8674 O 810.671 -1.84366 1.72527 0
M  V30 8675 C 811.984 1.22735 2.74511 0
M  V30 8676 C 813.532 1.21727 2.8836 0
M  V30 8677 C 814.007 1.99809 4.12117 0
M  V30 8678 N 815.498 1.97062 4.19191 0
M  V30 8679 C 816.233 2.54274 5.13938 0
M  V30 8680 N 815.729 3.20193 6.14368 0
M  V30 8681 N 817.522 2.44212 5.06277 0
M  V30 8682 H 809.673 1.71581 1.25195 0
M  V30 8683 H 811.936 0.727293 0.60807 0
M  V30 8684 H 811.642 2.28032 2.67758 0
M  V30 8685 H 811.516 0.843186 3.67655 0
M  V30 8686 H 813.903 0.172367 2.94596 0
M  V30 8687 H 813.984 1.64094 1.96232 0
M  V30 8688 H 813.628 3.0431 4.06642 0
M  V30 8689 H 813.558 1.54837 5.03322 0
M  V30 8690 H 816.049 1.49054 3.47263 0
M  V30 8691 H 816.362 3.61272 6.83156 0
M  V30 8692 H 814.707 3.24287 6.14705 0
M  V30 8693 H 817.898 1.92343 4.26757 0
M  V30 8694 H 818.071 2.89096 5.79937 0
M  V30 8695 N 811.477 -1.49425 0.500989 0
M  V30 8696 C 812.726 -2.01649 -0.04538 0
M  V30 8697 C 813.039 -1.38572 -1.38047 0
M  V30 8698 O 814.245 -1.82124 -2.01353 0
M  V30 8699 C 812.701 -3.5966 -0.131337 0
M  V30 8700 C 812.309 -4.3171 1.19711 0
M  V30 8701 C 814.053 -4.19828 -0.628071 0
M  V30 8702 C 811.96 -5.81579 1.07332 0
M  V30 8703 H 810.89 -0.753715 -0.0207329 0
M  V30 8704 H 813.541 -1.71962 0.640407 0
M  V30 8705 H 811.923 -3.86063 -0.881574 0
M  V30 8706 H 813.097 -4.17008 1.96064 0
M  V30 8707 H 811.412 -3.83286 1.62729 0
M  V30 8708 H 814.009 -5.2958 -0.738198 0
M  V30 8709 H 814.352 -3.83194 -1.6269 0
M  V30 8710 H 814.885 -3.97746 0.0656314 0
M  V30 8711 H 811.624 -6.22738 2.04642 0
M  V30 8712 H 811.144 -5.98774 0.350679 0
M  V30 8713 H 812.823 -6.42614 0.752047 0
M  V30 8714 N 812.955 -0.234822 -1.55841 0
M  V30 8715 C 814.185 0.397168 -2.02746 0
M  V30 8716 C 814.593 1.52951 -1.11367 0
M  V30 8717 O 813.936 1.8332 -0.118133 0
M  V30 8718 C 813.998 0.977748 -3.45948 0
M  V30 8719 C 813.662 -0.0208193 -4.56995 0
M  V30 8720 C 814.659 -0.826015 -5.13296 0
M  V30 8721 C 812.344 -0.143416 -5.02095 0
M  V30 8722 C 814.338 -1.74038 -6.1318 0
M  V30 8723 C 812.025 -1.0613 -6.01814 0
M  V30 8724 C 813.023 -1.85832 -6.57233 0
M  V30 8725 O 812.711 -2.76075 -7.55008 0
M  V30 8726 H 812.443 0.0999802 -0.668566 0
M  V30 8727 H 814.997 -0.352673 -2.0235 0
M  V30 8728 H 813.227 1.77693 -3.43456 0
M  V30 8729 H 814.916 1.51854 -3.76424 0
M  V30 8730 H 815.682 -0.741822 -4.79293 0
M  V30 8731 H 811.561 0.466857 -4.5863 0
M  V30 8732 H 815.105 -2.36291 -6.56363 0
M  V30 8733 H 811.002 -1.14646 -6.35237 0
M  V30 8734 H 811.77 -2.703 -7.7258 0
M  V30 8735 N 814.433 1.57553 0.0384317 0
M  V30 8736 C 815.844 1.77258 0.586211 0
M  V30 8737 C 816.195 0.864706 1.76117 0
M  V30 8738 O 815.32 0.057141 2.16325 0
M  V30 8739 C 815.915 3.21453 1.07021 0
M  V30 8740 C 814.474 3.42387 1.56358 0
M  V30 8741 C 813.621 2.72801 0.497508 0
M  V30 8742 H 816.572 1.57585 -0.187796 0
M  V30 8743 H 816.593 3.27451 1.93794 0
M  V30 8744 H 816.105 3.87505 0.214851 0
M  V30 8745 H 814.206 2.81497 2.44111 0
M  V30 8746 H 814.319 4.50968 1.61754 0
M  V30 8747 H 812.683 2.36305 0.95038 0
M  V30 8748 H 813.466 3.41529 -0.348234 0
M  V30 8749 N 815.911 -0.310526 1.54511 0
M  V30 8750 C 816.874 -1.3657 1.84068 0
M  V30 8751 C 817.874 -1.44123 0.713097 0
M  V30 8752 O 819.064 -1.43924 0.981399 0
M  V30 8753 C 816.196 -2.75162 2.01243 0
M  V30 8754 H 817.389 -1.1161 2.78358 0
M  V30 8755 H 814.942 -0.546699 1.46427 0
M  V30 8756 H 815.677 -3.05359 1.09208 0
M  V30 8757 H 815.462 -2.71071 2.83307 0
M  V30 8758 H 816.952 -3.51473 2.25514 0
M  V30 8759 N 817.389 -1.46805 -0.573248 0
M  V30 8760 C 818.637 -1.52302 -1.32847 0
M  V30 8761 C 818.958 -0.180159 -1.94166 0
M  V30 8762 O 818.228 0.794291 -1.79075 0
M  V30 8763 H 816.808 -0.56097 -0.493276 0
M  V30 8764 H 819.47 -1.82998 -0.670642 0
M  V30 8765 H 818.566 -2.28089 -2.13031 0
M  V30 8766 N 818.867 0.818669 -1.34668 0
M  V30 8767 C 820.113 1.577 -1.28461 0
M  V30 8768 C 820.468 1.91867 0.143057 0
M  V30 8769 O 819.761 1.57545 1.09041 0
M  V30 8770 C 819.955 2.88245 -2.11304 0
M  V30 8771 C 819.784 2.66831 -3.61982 0
M  V30 8772 C 818.554 2.63346 -4.3125 0
M  V30 8773 C 820.752 2.38049 -4.55892 0
M  V30 8774 N 818.734 2.33522 -5.67751 0
M  V30 8775 C 820.105 2.17957 -5.80426 0
M  V30 8776 C 822.16 2.23812 -4.44761 0
M  V30 8777 C 820.863 1.8507 -6.95084 0
M  V30 8778 C 822.889 1.92321 -5.59255 0
M  V30 8779 C 822.251 1.73056 -6.82811 0
M  V30 8780 H 818.35 0.579284 -0.525314 0
M  V30 8781 H 820.934 0.959336 -1.69425 0
M  V30 8782 H 819.105 3.47927 -1.7263 0
M  V30 8783 H 820.837 3.53677 -1.96709 0
M  V30 8784 H 817.592 2.7757 -3.83734 0
M  V30 8785 H 818.016 2.21438 -6.39761 0
M  V30 8786 H 822.658 2.3741 -3.49852 0
M  V30 8787 H 820.376 1.7021 -7.89971 0
M  V30 8788 H 823.962 1.82031 -5.5259 0
M  V30 8789 H 822.842 1.49042 -7.69907 0
M  V30 8790 N 820.346 1.18468 1.03938 0
M  V30 8791 C 821.762 0.934635 1.29371 0
M  V30 8792 C 821.962 -0.399067 1.97509 0
M  V30 8793 O 821.018 -1.13309 2.25648 0
M  V30 8794 C 822.331 2.10111 2.15114 0
M  V30 8795 C 823.879 2.13955 2.28456 0
M  V30 8796 C 824.354 3.30024 3.17566 0
M  V30 8797 N 825.845 3.29893 3.25153 0
M  V30 8798 C 826.58 4.16346 3.94263 0
M  V30 8799 N 826.076 5.12934 4.65693 0
M  V30 8800 N 827.869 4.04256 3.90556 0
M  V30 8801 H 820.02 2.04294 0.581185 0
M  V30 8802 H 822.283 0.892727 0.318971 0
M  V30 8803 H 821.989 3.06572 1.72355 0
M  V30 8804 H 821.863 2.06283 3.15796 0
M  V30 8805 H 824.25 1.18072 2.7045 0
M  V30 8806 H 824.331 2.2184 1.2736 0
M  V30 8807 H 823.975 4.26181 2.76283 0
M  V30 8808 H 823.905 3.19376 4.18697 0
M  V30 8809 H 826.396 2.59969 2.74271 0
M  V30 8810 H 826.709 5.75271 5.16026 0
M  V30 8811 H 825.054 5.16893 4.64593 0
M  V30 8812 H 828.245 3.28083 3.33885 0
M  V30 8813 H 828.418 4.71848 4.44144 0
M  V30 8814 N 821.824 -1.22873 0.986916 0
M  V30 8815 C 823.052 -1.95487 0.677663 0
M  V30 8816 C 823.467 -1.72978 -0.756572 0
M  V30 8817 O 822.824 -1.02517 -1.50985 0
M  V30 8818 C 822.875 -3.48337 0.966638 0
M  V30 8819 O 822.596 -3.70087 2.34451 0
M  V30 8820 C 824.097 -4.38142 0.674248 0
M  V30 8821 H 821.317 -0.622211 0.251185 0
M  V30 8822 H 823.861 -1.56187 1.32007 0
M  V30 8823 H 822.016 -3.85628 0.370137 0
M  V30 8824 H 822.43 -4.64332 2.43918 0
M  V30 8825 H 823.904 -5.44165 0.926759 0
M  V30 8826 H 824.381 -4.3745 -0.391728 0
M  V30 8827 H 824.987 -4.06469 1.25152 0
M  V30 8828 N 823.302 -0.75937 -1.38099 0
M  V30 8829 C 824.579 -0.243371 -1.9408 0
M  V30 8830 C 824.959 1.25942 -1.69416 0
M  V30 8831 O 824.307 2.03667 -1.03595 0
M  V30 8832 C 824.517 -0.603328 -3.43745 0
M  V30 8833 C 825.865 -0.566195 -4.20808 0
M  V30 8834 O 826.889 -0.541969 -3.52053 0
M  V30 8835 O 825.748 -0.582261 -5.43389 0
M  V30 8836 H 822.842 -0.0526825 -0.82532 0
M  V30 8837 H 825.388 -0.839884 -1.47459 0
M  V30 8838 H 824.16 -1.64098 -3.55229 0
M  V30 8839 H 823.783 0.0208887 -3.97595 0
M  V30 8840 N 824.78 1.49157 -0.508906 0
M  V30 8841 C 826.005 2.07376 0.0315182 0
M  V30 8842 C 826.43 1.36575 1.2934 0
M  V30 8843 O 825.788 0.424963 1.76249 0
M  V30 8844 C 825.836 3.59661 0.260118 0
M  V30 8845 O 824.94 3.90255 1.33322 0
M  V30 8846 H 824.281 0.663334 -0.029739 0
M  V30 8847 H 826.811 1.91857 -0.710791 0
M  V30 8848 H 826.821 4.05056 0.489225 0
M  V30 8849 H 825.496 4.10601 -0.661794 0
M  V30 8850 H 824.073 3.56661 1.08844 0
M  V30 8851 N 826.258 0.243083 1.55714 0
M  V30 8852 C 827.483 -0.389944 2.03701 0
M  V30 8853 C 827.908 -1.51025 1.12129 0
M  V30 8854 O 827.266 -1.80944 0.11352 0
M  V30 8855 C 827.314 -0.878649 3.49731 0
M  V30 8856 O 826.418 -1.98851 3.61292 0
M  V30 8857 H 825.759 -0.0855115 0.658471 0
M  V30 8858 H 828.289 0.368023 2.01263 0
M  V30 8859 H 828.299 -1.18287 3.90477 0
M  V30 8860 H 826.974 -0.0588107 4.15858 0
M  V30 8861 H 825.551 -1.68928 3.32442 0
M  V30 8862 N 827.736 -1.57571 -0.0300757 0
M  V30 8863 C 828.684 -2.0758 -1.04944 0
M  V30 8864 C 829.678 -0.989384 -1.37505 0
M  V30 8865 O 830.884 -1.17427 -1.36422 0
M  V30 8866 H 827.259 -0.662419 -0.355956 0
M  V30 8867 H 829.23 -2.92268 -0.601848 0
M  V30 8868 C 827.979 -2.5698 -2.34215 0
M  V30 8869 H 827.302 -3.40193 -2.10021 0
M  V30 8870 H 828.742 -2.95682 -3.03888 0
M  V30 8871 C 827.201 -1.47059 -3.03109 0
M  V30 8872 O 827.731 -0.83625 -3.92899 0
M  V30 8873 N 825.937 -1.20538 -2.64422 0
M  V30 8874 H 825.484 -1.72305 -1.9149 0
M  V30 8875 H 825.442 -0.472045 -3.10836 0
M  V30 8876 N 829.214 0.302327 -1.54673 0
M  V30 8877 C 830.444 1.05516 -1.77623 0
M  V30 8878 C 830.852 1.81474 -0.535159 0
M  V30 8879 O 830.195 1.76635 0.504543 0
M  V30 8880 C 830.257 2.08305 -2.93001 0
M  V30 8881 C 829.921 1.51554 -4.31139 0
M  V30 8882 C 830.918 0.946261 -5.11216 0
M  V30 8883 C 828.603 1.55157 -4.77736 0
M  V30 8884 C 830.597 0.420559 -6.36011 0
M  V30 8885 C 828.284 1.022 -6.02494 0
M  V30 8886 C 829.282 0.457461 -6.81466 0
M  V30 8887 O 828.97 -0.064083 -8.03874 0
M  V30 8888 H 828.702 0.318756 -0.59613 0
M  V30 8889 H 831.256 0.347558 -2.02438 0
M  V30 8890 H 829.486 2.82742 -2.63807 0
M  V30 8891 H 831.175 2.69479 -3.03539 0
M  V30 8892 H 831.941 0.911338 -4.76361 0
M  V30 8893 H 827.82 1.98037 -4.16296 0
M  V30 8894 H 831.364 -0.0207298 -6.97597 0
M  V30 8895 H 827.261 1.05406 -6.36836 0
M  V30 8896 H 828.029 0.0493422 -8.18485 0
M  V30 8897 N 830.692 1.47107 0.565454 0
M  V30 8898 C 831.917 1.57153 1.35343 0
M  V30 8899 C 832.342 0.219247 1.86818 0
M  V30 8900 O 831.7 -0.803539 1.62521 0
M  V30 8901 C 831.748 2.59387 2.50501 0
M  V30 8902 O 830.852 2.14086 3.52478 0
M  V30 8903 H 830.193 0.528209 0.402357 0
M  V30 8904 H 832.723 1.92821 0.684189 0
M  V30 8905 H 832.733 2.79546 2.97184 0
M  V30 8906 H 831.408 3.57579 2.12391 0
M  V30 8907 H 829.985 2.03991 3.12157 0
M  V30 8908 N 832.17 -0.811516 1.35101 0
M  V30 8909 C 833.581 -1.38515 1.25182 0
M  V30 8910 C 833.932 -1.95846 -0.117883 0
M  V30 8911 O 833.057 -1.90925 -1.01866 0
M  V30 8912 C 833.652 -2.51813 2.26662 0
M  V30 8913 C 832.211 -3.05052 2.20499 0
M  V30 8914 C 831.358 -1.77987 2.12641 0
M  V30 8915 H 834.309 -0.614959 1.46301 0
M  V30 8916 H 834.33 -3.30228 1.89023 0
M  V30 8917 H 833.842 -2.10057 3.2634 0
M  V30 8918 H 831.943 -3.51285 1.24215 0
M  V30 8919 H 832.056 -3.63368 3.1225 0
M  V30 8920 H 830.42 -1.99342 1.5854 0
M  V30 8921 H 831.203 -1.38389 3.14171 0
M  V30 8922 N 833.648 -1.19017 -1.03309 0
M  V30 8923 C 834.894 -0.991681 -1.769 0
M  V30 8924 C 835.227 0.476813 -1.88255 0
M  V30 8925 O 834.502 1.35407 -1.39625 0
M  V30 8926 C 834.785 -1.65627 -3.19749 0
M  V30 8927 C 834.638 -3.19813 -3.1629 0
M  V30 8928 C 835.957 -1.37579 -4.18043 0
M  V30 8929 H 833.076 -0.361674 -0.642153 0
M  V30 8930 H 835.718 -1.46795 -1.20628 0
M  V30 8931 H 833.868 -1.25132 -3.67796 0
M  V30 8932 H 835.54 -3.69494 -2.76174 0
M  V30 8933 H 833.783 -3.51578 -2.54117 0
M  V30 8934 H 834.454 -3.61457 -4.17196 0
M  V30 8935 H 836.93 -1.72679 -3.78578 0
M  V30 8936 H 835.806 -1.86636 -5.16196 0
M  V30 8937 H 836.067 -0.300118 -4.4108 0
M  V30 8938 N 835.127 1.22348 -0.993418 0
M  V30 8939 C 836.037 2.27987 -0.553076 0
M  V30 8940 C 837.053 1.69378 0.398386 0
M  V30 8941 O 838.229 1.99648 0.26509 0
M  V30 8942 C 835.294 3.46475 0.124809 0
M  V30 8943 C 834.355 4.20399 -0.869682 0
M  V30 8944 C 833.588 5.33229 -0.224052 0
M  V30 8945 O 833.811 5.61885 0.981915 0
M  V30 8946 O 832.745 5.94685 -0.929174 0
M  V30 8947 H 836.571 2.67822 -1.43195 0
M  V30 8948 H 834.156 1.28525 -0.761694 0
M  V30 8949 H 836.038 4.18369 0.504496 0
M  V30 8950 H 834.713 3.08565 0.978243 0
M  V30 8951 H 833.62 3.50774 -1.30031 0
M  V30 8952 H 834.953 4.62191 -1.69233 0
M  V30 8953 N 836.605 0.766683 1.37694 0
M  V30 8954 C 837.538 0.0959288 2.27998 0
M  V30 8955 C 838.516 -0.714493 1.46061 0
M  V30 8956 O 839.7 -0.690337 1.75404 0
M  V30 8957 C 836.827 -0.87057 3.27321 0
M  V30 8958 C 835.873 -0.144771 4.26254 0
M  V30 8959 S 836.706 1.16365 5.22704 0
M  V30 8960 C 837.862 0.200564 6.25579 0
M  V30 8961 H 838.095 0.861666 2.84539 0
M  V30 8962 H 835.628 0.559845 1.43893 0
M  V30 8963 H 837.586 -1.42282 3.85053 0
M  V30 8964 H 836.247 -1.60938 2.69737 0
M  V30 8965 H 835.44 -0.877259 4.96307 0
M  V30 8966 H 835.042 0.33633 3.72485 0
M  V30 8967 H 837.334 -0.628833 6.74575 0
M  V30 8968 H 838.277 0.869117 7.02746 0
M  V30 8969 H 838.685 -0.185972 5.64194 0
M  V30 8970 N 838.083 -1.48885 0.516809 0
M  V30 8971 C 839.329 -2.03395 -0.0140225 0
M  V30 8972 C 839.684 -1.38808 -1.33229 0
M  V30 8973 O 838.977 -0.520104 -1.84406 0
M  V30 8974 C 839.171 -3.56801 -0.206798 0
M  V30 8975 C 839 -4.36259 1.09124 0
M  V30 8976 C 837.77 -4.77689 1.64745 0
M  V30 8977 C 839.968 -4.73881 1.99854 0
M  V30 8978 N 837.95 -5.41634 2.88975 0
M  V30 8979 C 839.321 -5.37707 3.08661 0
M  V30 8980 C 841.376 -4.55816 2.00341 0
M  V30 8981 C 840.079 -5.85379 4.18001 0
M  V30 8982 C 842.105 -5.04459 3.08666 0
M  V30 8983 C 841.467 -5.68299 4.16191 0
M  V30 8984 H 837.566 -0.781169 0.036042 0
M  V30 8985 H 840.15 -1.81867 0.695173 0
M  V30 8986 H 838.321 -3.78181 -0.885064 0
M  V30 8987 H 840.053 -3.9795 -0.736053 0
M  V30 8988 H 836.808 -4.58392 1.19054 0
M  V30 8989 H 837.232 -5.78181 3.52187 0
M  V30 8990 H 841.874 -4.05851 1.18511 0
M  V30 8991 H 839.592 -6.34356 5.00618 0
M  V30 8992 H 843.178 -4.92281 3.10082 0
M  V30 8993 H 842.058 -6.05257 4.98631 0
M  V30 8994 N 839.561 -0.251338 -1.55583 0
M  V30 8995 C 840.509 0.662534 -2.22965 0
M  V30 8996 C 841.503 1.17662 -1.21869 0
M  V30 8997 O 842.709 1.133 -1.39868 0
M  V30 8998 H 839.084 0.232151 -0.715269 0
M  V30 8999 H 841.055 0.0711252 -2.98315 0
M  V30 9000 C 839.804 1.84646 -2.94621 0
M  V30 9001 H 839.127 1.46003 -3.72187 0
M  V30 9002 H 840.567 2.46303 -3.45124 0
M  V30 9003 C 839.026 2.72034 -1.98744 0
M  V30 9004 O 839.556 3.71695 -1.52335 0
M  V30 9005 N 837.762 2.38695 -1.6575 0
M  V30 9006 H 837.309 1.57702 -2.03685 0
M  V30 9007 H 837.267 2.9744 -1.01867 0
M  V30 9008 N 841.039 1.57585 0.0217189 0
M  V30 9009 C 842.287 1.89231 0.709641 0
M  V30 9010 C 842.608 0.849964 1.75501 0
M  V30 9011 O 841.878 -0.115485 1.95559 0
M  V30 9012 H 840.458 0.69838 0.265092 0
M  V30 9013 H 843.12 1.94895 -0.0140688 0
M  V30 9014 H 842.216 2.88333 1.19459 0
M  V30 9015 N 842.517 -0.29412 1.54831 0
M  V30 9016 C 843.765 -1.02643 1.74094 0
M  V30 9017 C 844.086 -1.87563 0.533402 0
M  V30 9018 O 843.356 -1.9061 -0.452192 0
M  V30 9019 H 841.936 -0.381959 0.641963 0
M  V30 9020 H 844.598 -0.323444 1.92197 0
M  V30 9021 H 843.694 -1.67558 2.63307 0
M  V30 9022 N 843.995 -1.47404 -0.557645 0
M  V30 9023 C 845.235 -1.55585 -1.32562 0
M  V30 9024 C 845.599 -0.212926 -1.90816 0
M  V30 9025 O 846.8 -0.169574 -2.68265 0
M  V30 9026 C 845.071 -2.64249 -2.40639 0
M  V30 9027 S 846.63 -2.9201 -3.2753 0
M  V30 9028 H 843.448 -0.549409 -0.451298 0
M  V30 9029 H 846.05 -1.84782 -0.638438 0
M  V30 9030 H 844.754 -3.60421 -1.96277 0
M  V30 9031 H 844.285 -2.36866 -3.14099 0
M  V30 9032 H 846.3 -2.29191 -4.40098 0
M  V30 9033 N 845.473 0.80434 -1.35529 0
M  V30 9034 C 846.405 1.92445 -1.2449 0
M  V30 9035 C 847.418 1.61934 -0.167685 0
M  V30 9036 O 848.607 1.73461 -0.42115 0
M  V30 9037 C 845.707 3.26875 -0.894751 0
M  V30 9038 C 844.88 3.85275 -2.07079 0
M  V30 9039 C 843.939 4.98116 -1.69607 0
M  V30 9040 O 842.965 5.15424 -2.41509 0
M  V30 9041 N 844.167 5.77169 -0.621012 0
M  V30 9042 H 846.932 2.02441 -2.20993 0
M  V30 9043 H 844.493 0.981874 -1.28728 0
M  V30 9044 H 846.485 3.99837 -0.625511 0
M  V30 9045 H 845.055 3.12594 -0.0193306 0
M  V30 9046 H 844.275 3.0448 -2.5037 0
M  V30 9047 H 845.563 4.21024 -2.85685 0
M  V30 9048 H 844.961 5.65695 -0.0236679 0
M  V30 9049 H 843.518 6.50499 -0.411558 0
M  V30 9050 N 846.951 1.19563 1.02676 0
M  V30 9051 C 848.2 0.993864 1.75514 0
M  V30 9052 C 848.513 -0.475882 1.89723 0
M  V30 9053 O 849.719 -0.796525 2.59553 0
M  V30 9054 C 848.175 1.72937 3.15628 0
M  V30 9055 C 847.783 3.23937 3.09466 0
M  V30 9056 C 849.527 1.61092 3.92746 0
M  V30 9057 C 847.434 3.90067 4.44524 0
M  V30 9058 H 846.364 0.368244 0.657961 0
M  V30 9059 H 849.015 1.43081 1.14891 0
M  V30 9060 H 847.397 1.22025 3.76731 0
M  V30 9061 H 848.571 3.81983 2.57731 0
M  V30 9062 H 846.886 3.3608 2.45843 0
M  V30 9063 H 849.483 2.07848 4.92649 0
M  V30 9064 H 849.826 0.565415 4.12442 0
M  V30 9065 H 850.359 2.09361 3.3825 0
M  V30 9066 H 847.098 4.94725 4.30032 0
M  V30 9067 H 846.618 3.36809 4.96306 0
M  V30 9068 H 848.297 3.93736 5.13401 0
M  V30 9069 N 848.429 -1.21819 0.999893 0
M  V30 9070 C 849.675 -1.91035 0.680701 0
M  V30 9071 C 850.008 -1.77582 -0.786021 0
M  V30 9072 O 849.283 -1.14917 -1.56921 0
M  V30 9073 C 849.566 -3.43013 1.0961 0
M  V30 9074 C 849.419 -3.65481 2.6219 0
M  V30 9075 C 850.738 -4.35204 0.654616 0
M  V30 9076 H 847.857 -0.693748 0.248763 0
M  V30 9077 H 850.499 -1.43555 1.24466 0
M  V30 9078 H 848.649 -3.83581 0.616253 0
M  V30 9079 H 850.321 -3.34273 3.17899 0
M  V30 9080 H 848.564 -3.09522 3.03938 0
M  V30 9081 H 849.235 -4.71945 2.86307 0
M  V30 9082 H 851.711 -4.0219 1.06688 0
M  V30 9083 H 850.587 -5.40198 0.973492 0
M  V30 9084 H 850.848 -4.3986 -0.444458 0
M  V30 9085 N 849.908 -0.773975 -1.37286 0
M  V30 9086 C 850.871 -0.167974 -2.28584 0
M  V30 9087 C 851.871 0.625662 -1.48129 0
M  V30 9088 O 853.061 0.448924 -1.68316 0
M  V30 9089 C 850.193 0.769364 -3.32105 0
M  V30 9090 H 851.386 -0.972806 -2.83684 0
M  V30 9091 H 848.939 -0.542335 -1.46589 0
M  V30 9092 H 849.674 1.59912 -2.82132 0
M  V30 9093 H 849.459 0.202419 -3.91577 0
M  V30 9094 H 850.949 1.18872 -4.00324 0
M  V30 9095 N 851.386 1.48609 -0.524698 0
M  V30 9096 C 852.316 2.32366 0.229837 0
M  V30 9097 C 853.297 1.41759 0.940129 0
M  V30 9098 O 854.482 1.7065 0.926936 0
M  V30 9099 C 851.612 3.22835 1.28043 0
M  V30 9100 C 850.566 4.22424 0.688603 0
M  V30 9101 C 849.892 5.0199 1.84146 0
M  V30 9102 C 851.192 5.21217 -0.336176 0
M  V30 9103 H 852.886 2.95698 -0.469339 0
M  V30 9104 H 850.432 1.42197 -0.227156 0
M  V30 9105 H 852.385 3.80253 1.8162 0
M  V30 9106 H 851.109 2.57492 2.00912 0
M  V30 9107 H 849.768 3.66185 0.174402 0
M  V30 9108 H 849.416 4.33076 2.5584 0
M  V30 9109 H 849.116 5.69392 1.45142 0
M  V30 9110 H 850.64 5.62259 2.38111 0
M  V30 9111 H 852.054 5.7319 0.112307 0
M  V30 9112 H 850.451 5.96642 -0.643324 0
M  V30 9113 H 851.521 4.68676 -1.24381 0
M  V30 9114 N 852.864 0.259585 1.55447 0
M  V30 9115 C 853.812 -0.6507 2.23313 0
M  V30 9116 C 854.806 -1.17014 1.22491 0
M  V30 9117 O 856.012 -1.12557 1.40467 0
M  V30 9118 H 852.387 -0.228354 0.71649 0
M  V30 9119 H 854.358 -0.0553039 2.98349 0
M  V30 9120 C 853.107 -1.83081 2.95596 0
M  V30 9121 H 852.43 -1.44027 3.72956 0
M  V30 9122 H 853.87 -2.44469 3.46426 0
M  V30 9123 C 852.329 -2.70976 2.00184 0
M  V30 9124 O 852.859 -3.70882 1.54304 0
M  V30 9125 N 851.065 -2.37813 1.67014 0
M  V30 9126 H 850.612 -1.5662 2.04519 0
M  V30 9127 H 850.57 -2.96896 1.03443 0
M  V30 9128 N 854.342 -1.57594 -0.0133615 0
M  V30 9129 C 855.589 -1.8998 -0.70098 0
M  V30 9130 C 855.917 -0.858802 -1.74513 0
M  V30 9131 O 855.172 0.138209 -1.95211 0
M  V30 9132 C 855.471 -3.29121 -1.39336 0
M  V30 9133 C 855.137 -4.48298 -0.483687 0
M  V30 9134 C 853.799 -4.80635 -0.233186 0
M  V30 9135 C 856.151 -5.21003 0.143426 0
M  V30 9136 C 853.479 -5.83055 0.652943 0
M  V30 9137 C 855.831 -6.24366 1.01735 0
M  V30 9138 C 854.495 -6.55168 1.27716 0
M  V30 9139 H 853.765 -0.695187 -0.256507 0
M  V30 9140 H 856.412 -1.9146 0.0392965 0
M  V30 9141 H 854.717 -3.23703 -2.20735 0
M  V30 9142 H 856.414 -3.51433 -1.93121 0
M  V30 9143 H 853.004 -4.23024 -0.689092 0
M  V30 9144 H 857.188 -4.96286 -0.0371139 0
M  V30 9145 H 852.444 -6.05288 0.862379 0
M  V30 9146 H 856.618 -6.79839 1.5097 0
M  V30 9147 H 854.245 -7.34351 1.9655 0
M  V30 9148 N 855.82 0.285905 -1.54985 0
M  V30 9149 C 856.752 1.37505 -1.83371 0
M  V30 9150 C 857.765 1.46138 -0.717454 0
M  V30 9151 O 858.954 1.48186 -0.995142 0
M  V30 9152 C 856.054 2.7575 -1.97016 0
M  V30 9153 C 855.227 2.89866 -3.27561 0
M  V30 9154 C 854.286 4.08704 -3.31433 0
M  V30 9155 O 853.312 4.00073 -4.04883 0
M  V30 9156 N 854.514 5.20062 -2.57907 0
M  V30 9157 H 857.279 1.13505 -2.77375 0
M  V30 9158 H 854.84 0.476006 -1.54744 0
M  V30 9159 H 856.832 3.5352 -1.96991 0
M  V30 9160 H 855.402 2.9263 -1.09938 0
M  V30 9161 H 854.622 1.99085 -3.40234 0
M  V30 9162 H 855.91 2.96219 -4.13681 0
M  V30 9163 H 855.308 5.29958 -1.97891 0
M  V30 9164 H 853.865 5.96111 -2.63619 0
M  V30 9165 N 857.298 1.47698 0.54982 0
M  V30 9166 C 858.526 1.5833 1.33188 0
M  V30 9167 C 858.941 0.236193 1.87317 0
M  V30 9168 O 858.298 -0.77167 1.65383 0
M  V30 9169 C 858.349 2.61438 2.49664 0
M  V30 9170 O 858.07 3.9092 1.97771 0
M  V30 9171 C 859.571 2.82324 3.41772 0
M  V30 9172 H 856.791 0.53443 0.405741 0
M  V30 9173 H 859.335 1.93375 0.665309 0
M  V30 9174 H 857.49 2.29307 3.12245 0
M  V30 9175 H 857.904 4.47323 2.73866 0
M  V30 9176 H 859.378 3.58316 4.19897 0
M  V30 9177 H 859.855 1.90416 3.95776 0
M  V30 9178 H 860.461 3.15682 2.85 0
M  V30 9179 N 858.776 -0.797141 1.35954 0
M  V30 9180 C 860.187 -1.37179 1.26644 0
M  V30 9181 C 860.538 -1.9596 -0.0971046 0
M  V30 9182 O 859.663 -1.91994 -0.998355 0
M  V30 9183 C 860.258 -2.49395 2.2932 0
M  V30 9184 C 858.817 -3.02697 2.23722 0
M  V30 9185 C 857.964 -1.75721 2.14517 0
M  V30 9186 H 860.915 -0.599407 1.46945 0
M  V30 9187 H 860.936 -3.28204 1.92515 0
M  V30 9188 H 860.448 -2.06584 3.2855 0
M  V30 9189 H 858.549 -3.49948 1.27934 0
M  V30 9190 H 858.662 -3.60036 3.16087 0
M  V30 9191 H 857.026 -1.97649 1.60646 0
M  V30 9192 H 857.809 -1.35049 3.15621 0
M  V30 9193 N 860.254 -1.20106 -1.0204 0
M  V30 9194 C 861.502 -1.0069 -1.75231 0
M  V30 9195 C 861.823 0.462491 -1.89436 0
M  V30 9196 O 861.093 1.33455 -1.4341 0
M  V30 9197 H 859.673 -0.369576 -0.649171 0
M  V30 9198 H 862.335 -1.51149 -1.23044 0
M  V30 9199 H 861.431 -1.46205 -2.75736 0
M  V30 9200 N 861.732 1.21287 -1.00634 0
M  V30 9201 C 863.143 1.72136 -0.722914 0
M  V30 9202 C 863.494 1.8091 0.759338 0
M  V30 9203 O 862.619 1.46458 1.59308 0
M  V30 9204 C 863.214 3.12633 -1.30561 0
M  V30 9205 C 861.773 3.60833 -1.07127 0
M  V30 9206 C 860.92 2.38326 -1.4176 0
M  V30 9207 H 863.871 1.06445 -1.17708 0
M  V30 9208 H 863.892 3.74174 -0.690937 0
M  V30 9209 H 863.404 3.06215 -2.38441 0
M  V30 9210 H 861.505 3.72599 -0.00968671 0
M  V30 9211 H 861.618 4.46226 -1.74411 0
M  V30 9212 H 859.982 2.40575 -0.836412 0
M  V30 9213 H 860.765 2.34558 -2.50674 0
M  V30 9214 N 863.21 0.781244 1.36873 0
M  V30 9215 C 864.12 0.174981 2.33947 0
M  V30 9216 C 865.136 -0.668512 1.60645 0
M  V30 9217 O 866.312 -0.586213 1.9268 0
M  V30 9218 C 863.377 -0.686557 3.39834 0
M  V30 9219 C 862.438 0.174489 4.28945 0
M  V30 9220 C 861.671 -0.646024 5.29776 0
M  V30 9221 O 861.894 -1.88254 5.38439 0
M  V30 9222 O 860.828 -0.0502214 6.01879 0
M  V30 9223 H 864.654 0.977382 2.87543 0
M  V30 9224 H 862.239 0.542559 1.392 0
M  V30 9225 H 864.121 -1.1781 4.04597 0
M  V30 9226 H 862.796 -1.46699 2.8855 0
M  V30 9227 H 861.703 0.712604 3.6725 0
M  V30 9228 H 863.036 0.918232 4.83559 0
M  V30 9229 N 864.689 -1.48329 0.532571 0
M  V30 9230 C 865.622 -2.26524 -0.2761 0
M  V30 9231 C 866.6 -1.32498 -0.942496 0
M  V30 9232 O 867.784 -1.61844 -0.966376 0
M  V30 9233 C 864.911 -3.08808 -1.39124 0
M  V30 9234 C 863.957 -4.18227 -0.835984 0
M  V30 9235 S 864.79 -5.34669 0.298186 0
M  V30 9236 C 865.946 -6.20514 -0.81937 0
M  V30 9237 H 866.179 -2.94764 0.387502 0
M  V30 9238 H 863.712 -1.51081 0.318407 0
M  V30 9239 H 865.67 -3.56792 -2.03002 0
M  V30 9240 H 864.331 -2.39976 -2.02658 0
M  V30 9241 H 863.524 -4.75435 -1.67264 0
M  V30 9242 H 863.126 -3.72996 -0.27385 0
M  V30 9243 H 865.418 -6.55371 -1.7174 0
M  V30 9244 H 866.361 -7.07525 -0.285199 0
M  V30 9245 H 866.769 -5.5366 -1.10094 0
M  V30 9246 N 866.167 -0.267825 -1.55308 0
M  V30 9247 C 867.444 0.402449 -1.91415 0
M  V30 9248 C 867.824 1.7428 -1.1912 0
M  V30 9249 O 867.172 2.2631 -0.315609 0
M  V30 9250 C 867.382 0.549926 -3.4464 0
M  V30 9251 C 868.73 0.836188 -4.16285 0
M  V30 9252 O 869.754 0.635009 -3.50494 0
M  V30 9253 O 868.613 1.22051 -5.32697 0
M  V30 9254 H 865.707 0.219177 -0.797427 0
M  V30 9255 H 868.253 -0.313439 -1.6678 0
M  V30 9256 H 867.025 -0.393641 -3.89315 0
M  V30 9257 H 866.648 1.31556 -3.75205 0
M  V30 9258 N 867.645 1.57599 0.00500368 0
M  V30 9259 C 868.891 1.90631 0.691919 0
M  V30 9260 C 869.224 0.868443 1.737 0
M  V30 9261 O 868.499 -0.113482 1.94169 0
M  V30 9262 C 868.782 3.34255 1.33961 0
M  V30 9263 C 868.635 4.48755 0.306413 0
M  V30 9264 C 869.954 3.77211 2.26715 0
M  V30 9265 H 867.073 0.693279 0.250066 0
M  V30 9266 H 869.715 1.89946 -0.0452634 0
M  V30 9267 H 867.865 3.3497 1.96793 0
M  V30 9268 H 869.537 4.60176 -0.321841 0
M  V30 9269 H 867.78 4.32203 -0.371852 0
M  V30 9270 H 868.451 5.46193 0.798554 0
M  V30 9271 H 870.927 3.78017 1.73904 0
M  V30 9272 H 869.803 4.78466 2.69002 0
M  V30 9273 H 870.064 3.10801 3.14413 0
M  V30 9274 N 869.123 -0.277682 1.55134 0
M  V30 9275 C 870.353 -1.02677 1.79279 0
M  V30 9276 C 870.761 -1.80599 0.563962 0
M  V30 9277 O 870.104 -1.77416 -0.476378 0
M  V30 9278 C 870.166 -2.03617 2.96277 0
M  V30 9279 C 869.83 -1.44676 4.33495 0
M  V30 9280 C 870.827 -0.864811 5.12657 0
M  V30 9281 C 868.512 -1.47537 4.80144 0
M  V30 9282 C 870.506 -0.319322 6.366 0
M  V30 9283 C 868.193 -0.926016 6.04043 0
M  V30 9284 C 869.191 -0.348988 6.82108 0
M  V30 9285 O 868.879 0.191964 8.03671 0
M  V30 9286 H 868.611 -0.309232 0.601125 0
M  V30 9287 H 871.165 -0.315308 2.02965 0
M  V30 9288 H 869.395 -2.78509 2.68272 0
M  V30 9289 H 871.084 -2.64616 3.07788 0
M  V30 9290 H 871.85 -0.835438 4.7775 0
M  V30 9291 H 867.729 -1.91389 4.19394 0
M  V30 9292 H 871.273 0.131709 6.97476 0
M  V30 9293 H 867.17 -0.952613 6.38432 0
M  V30 9294 H 867.938 0.0808779 8.1846 0
M  V30 9295 N 870.601 -1.47988 -0.541979 0
M  V30 9296 C 871.533 -1.5769 -1.66332 0
M  V30 9297 C 872.546 -0.461994 -1.56107 0
M  V30 9298 O 873.735 -0.732306 -1.62787 0
M  V30 9299 C 870.835 -1.47939 -3.04905 0
M  V30 9300 C 870.008 -2.74263 -3.40733 0
M  V30 9301 C 869.067 -2.58133 -4.58534 0
M  V30 9302 O 868.093 -3.31991 -4.62354 0
M  V30 9303 N 869.295 -1.6696 -5.55972 0
M  V30 9304 H 872.06 -2.54389 -1.5845 0
M  V30 9305 H 869.621 -1.4456 -0.728979 0
M  V30 9306 H 871.613 -1.34861 -3.81569 0
M  V30 9307 H 870.183 -0.592626 -3.06931 0
M  V30 9308 H 869.403 -3.01992 -2.53366 0
M  V30 9309 H 870.691 -3.58094 -3.6145 0
M  V30 9310 H 870.089 -1.06134 -5.55655 0
M  V30 9311 H 868.646 -1.59826 -6.31901 0
M  V30 9312 N 872.079 0.78992 -1.36375 0
M  V30 9313 C 873.327 1.54472 -1.30319 0
M  V30 9314 C 873.648 1.94647 0.117338 0
M  V30 9315 O 872.918 1.64906 1.05748 0
M  V30 9316 H 871.498 0.572879 -0.479394 0
M  V30 9317 H 874.16 0.941245 -1.70665 0
M  V30 9318 H 873.256 2.45252 -1.93024 0
M  V30 9319 N 873.557 1.20646 1.01402 0
M  V30 9320 C 874.973 0.961866 1.27359 0
M  V30 9321 C 875.173 -0.357083 1.98311 0
M  V30 9322 O 874.229 -1.08498 2.28001 0
M  V30 9323 C 875.542 2.14627 2.10609 0
M  V30 9324 C 877.09 2.18753 2.23866 0
M  V30 9325 C 877.565 3.36686 3.10494 0
M  V30 9326 N 879.056 3.36716 3.18083 0
M  V30 9327 C 879.791 4.24615 3.85343 0
M  V30 9328 N 879.287 5.22697 4.54708 0
M  V30 9329 N 881.08 4.12449 3.81893 0
M  V30 9330 H 873.231 2.05481 0.537721 0
M  V30 9331 H 875.494 0.899292 0.299963 0
M  V30 9332 H 875.2 3.10159 1.65814 0
M  V30 9333 H 875.074 2.12935 3.11349 0
M  V30 9334 H 877.461 1.23782 2.67885 0
M  V30 9335 H 877.542 2.24492 1.22626 0
M  V30 9336 H 877.186 4.31945 2.67181 0
M  V30 9337 H 877.116 3.28185 4.11828 0
M  V30 9338 H 879.607 2.65728 2.68695 0
M  V30 9339 H 879.92 5.86087 5.03708 0
M  V30 9340 H 878.265 5.26631 4.53525 0
M  V30 9341 H 881.456 3.35091 3.26851 0
M  V30 9342 H 881.629 4.81162 4.34035 0
M  V30 9343 N 875.035 -1.20752 1.01276 0
M  V30 9344 C 876.282 -1.90021 0.699887 0
M  V30 9345 C 876.61 -1.78604 -0.770113 0
M  V30 9346 O 875.865 -1.16195 -1.57471 0
M  V30 9347 C 876.164 -3.40808 1.07633 0
M  V30 9348 C 875.83 -3.72423 2.54189 0
M  V30 9349 C 874.492 -3.80762 2.94234 0
M  V30 9350 C 876.844 -3.87025 3.49086 0
M  V30 9351 C 874.172 -4.01158 4.28123 0
M  V30 9352 C 876.524 -4.0893 4.82658 0
M  V30 9353 C 875.188 -4.15498 5.22415 0
M  V30 9354 H 874.458 -0.695335 0.256107 0
M  V30 9355 H 877.105 -1.43096 1.27263 0
M  V30 9356 H 875.41 -3.89521 0.421944 0
M  V30 9357 H 877.107 -3.92693 0.811997 0
M  V30 9358 H 873.697 -3.66529 2.22158 0
M  V30 9359 H 877.881 -3.79942 3.19309 0
M  V30 9360 H 873.137 -4.04476 4.58486 0
M  V30 9361 H 877.311 -4.19172 5.56119 0
M  V30 9362 H 874.938 -4.31055 6.26176 0
M  V30 9363 N 876.513 -0.788492 -1.36457 0
M  V30 9364 C 877.445 -0.144208 -2.28746 0
M  V30 9365 C 878.458 0.646009 -1.49434 0
M  V30 9366 O 879.647 0.481344 -1.71888 0
M  V30 9367 C 876.747 0.818869 -3.28858 0
M  V30 9368 C 875.92 0.0789055 -4.37329 0
M  V30 9369 C 874.979 0.957791 -5.1741 0
M  V30 9370 O 874.005 0.415378 -5.67682 0
M  V30 9371 N 875.207 2.28216 -5.33758 0
M  V30 9372 H 877.972 -0.936949 -2.84678 0
M  V30 9373 H 875.533 -0.642317 -1.48613 0
M  V30 9374 H 877.525 1.41065 -3.79319 0
M  V30 9375 H 876.095 1.51249 -2.73573 0
M  V30 9376 H 875.315 -0.693939 -3.88044 0
M  V30 9377 H 876.603 -0.431753 -5.06965 0
M  V30 9378 H 876.001 2.747 -4.94527 0
M  V30 9379 H 874.558 2.8236 -5.87466 0
M  V30 9380 N 877.991 1.48044 -0.54043 0
M  V30 9381 C 879.268 1.95523 0.0547302 0
M  V30 9382 C 879.648 1.48284 1.5025 0
M  V30 9383 O 878.996 0.714037 2.17057 0
M  V30 9384 C 879.206 3.48923 -0.0733393 0
M  V30 9385 C 880.554 4.24523 0.0806026 0
M  V30 9386 O 881.578 3.562 -5.58687e-05 0
M  V30 9387 O 880.437 5.45922 0.251216 0
M  V30 9388 H 877.531 0.823728 0.073493 0
M  V30 9389 H 880.077 1.5852 -0.605768 0
M  V30 9390 H 878.849 3.76059 -1.08144 0
M  V30 9391 H 878.472 3.92648 0.625536 0
M  V30 9392 N 879.47 0.276058 1.55163 0
M  V30 9393 C 880.418 -0.626978 2.2399 0
M  V30 9394 C 881.412 -1.15708 1.23725 0
M  V30 9395 O 882.618 -1.1106 1.41653 0
M  V30 9396 H 878.993 -0.220742 0.718872 0
M  V30 9397 H 880.964 -0.0236569 2.98391 0
M  V30 9398 C 879.713 -1.79935 2.97521 0
M  V30 9399 H 879.036 -1.40064 3.74463 0
M  V30 9400 H 880.476 -2.40781 3.48999 0
M  V30 9401 C 878.935 -2.68838 2.03046 0
M  V30 9402 O 879.465 -3.69224 1.58229 0
M  V30 9403 N 877.671 -2.36028 1.69527 0
M  V30 9404 H 877.218 -1.54442 2.06169 0
M  V30 9405 H 877.176 -2.95782 1.06586 0
M  V30 9406 N 880.948 -1.576 0.00335426 0
M  V30 9407 C 882.196 -1.90336 -0.679446 0
M  V30 9408 C 882.517 -0.877777 -1.74127 0
M  V30 9409 O 881.787 0.0843585 -1.95718 0
M  V30 9410 H 880.367 -0.702509 -0.253948 0
M  V30 9411 H 883.029 -1.94848 0.0450731 0
M  V30 9412 H 882.125 -2.90197 -1.14857 0
M  V30 9413 N 882.426 0.269451 -1.5528 0
M  V30 9414 C 883.389 1.31642 -1.87625 0
M  V30 9415 C 884.389 1.42182 -0.751058 0
M  V30 9416 O 885.579 1.41272 -1.01921 0
M  V30 9417 C 882.711 2.6973 -2.08467 0
M  V30 9418 H 883.904 1.0419 -2.81219 0
M  V30 9419 H 881.457 0.507685 -1.47825 0
M  V30 9420 H 882.192 3.02356 -1.17266 0
M  V30 9421 H 881.977 2.63465 -2.90394 0
M  V30 9422 H 883.467 3.4537 -2.34753 0
M  V30 9423 N 883.904 1.48273 0.534124 0
M  V30 9424 C 885.144 1.57674 1.3007 0
M  V30 9425 C 885.508 0.243256 1.90453 0
M  V30 9426 O 886.709 0.212231 2.67961 0
M  V30 9427 C 884.98 2.68044 2.36405 0
M  V30 9428 S 886.539 2.97183 3.22843 0
M  V30 9429 H 883.357 0.55652 0.442501 0
M  V30 9430 H 885.959 1.85774 0.60896 0
M  V30 9431 H 884.663 3.63498 1.90518 0
M  V30 9432 H 884.194 2.41833 3.10291 0
M  V30 9433 H 886.209 2.36164 4.36396 0
M  V30 9434 N 885.382 -0.782676 1.36792 0
M  V30 9435 C 886.63 -1.53778 1.31136 0
M  V30 9436 C 886.951 -1.94706 -0.107014 0
M  V30 9437 O 886.221 -1.65465 -1.04872 0
M  V30 9438 H 884.801 -0.570328 0.482426 0
M  V30 9439 H 887.463 -0.932181 1.71162 0
M  V30 9440 H 886.559 -2.44224 1.94321 0
M  V30 9441 N 886.86 -1.21182 -1.00761 0
M  V30 9442 C 888.09 -1.05182 -1.77821 0
M  V30 9443 C 888.498 0.401527 -1.8489 0
M  V30 9444 O 887.841 1.29042 -1.30743 0
M  V30 9445 C 887.903 -1.57066 -3.23374 0
M  V30 9446 C 887.567 -3.05491 -3.39889 0
M  V30 9447 C 888.564 -4.03065 -3.28381 0
M  V30 9448 C 886.249 -3.44641 -3.65415 0
M  V30 9449 C 888.243 -5.37778 -3.4216 0
M  V30 9450 C 885.93 -4.79507 -3.78836 0
M  V30 9451 C 886.928 -5.75884 -3.67214 0
M  V30 9452 O 886.616 -7.08304 -3.80212 0
M  V30 9453 H 886.348 -0.369983 -0.565763 0
M  V30 9454 H 888.902 -1.60914 -1.27655 0
M  V30 9455 H 887.132 -0.957273 -3.74664 0
M  V30 9456 H 888.821 -1.36949 -3.82099 0
M  V30 9457 H 889.587 -3.74163 -3.08588 0
M  V30 9458 H 885.466 -2.7016 -3.73544 0
M  V30 9459 H 889.01 -6.12987 -3.33005 0
M  V30 9460 H 884.907 -5.08096 -3.98132 0
M  V30 9461 H 885.675 -7.15677 -3.97175 0
M  V30 9462 N 888.338 1.20213 -1.01915 0
M  V30 9463 C 889.584 1.89928 -0.711007 0
M  V30 9464 C 889.917 1.7881 0.75767 0
M  V30 9465 O 889.192 1.17399 1.55073 0
M  V30 9466 C 889.475 3.41225 -1.15053 0
M  V30 9467 C 889.328 3.61264 -2.67971 0
M  V30 9468 C 890.647 4.34108 -0.72377 0
M  V30 9469 H 887.766 0.689702 -0.259768 0
M  V30 9470 H 890.408 1.41557 -1.26734 0
M  V30 9471 H 888.558 3.82552 -0.677199 0
M  V30 9472 H 890.23 3.29173 -3.23176 0
M  V30 9473 H 888.473 3.04647 -3.08824 0
M  V30 9474 H 889.144 4.67331 -2.93779 0
M  V30 9475 H 891.62 4.00442 -1.13073 0
M  V30 9476 H 890.496 5.38581 -1.05931 0
M  V30 9477 H 890.757 4.40512 0.374424 0
M  V30 9478 N 889.816 0.795718 1.36037 0
M  V30 9479 C 890.746 0.212803 2.32528 0
M  V30 9480 C 891.727 -0.655716 1.56953 0
M  V30 9481 O 892.912 -0.588238 1.85077 0
M  V30 9482 C 890.042 -0.648189 3.41198 0
M  V30 9483 C 888.996 0.120948 4.27829 0
M  V30 9484 C 888.322 -0.861044 5.27722 0
M  V30 9485 C 889.622 1.31375 5.05508 0
M  V30 9486 H 891.316 1.01893 2.81528 0
M  V30 9487 H 888.862 0.491422 1.35355 0
M  V30 9488 H 890.815 -1.06597 4.07695 0
M  V30 9489 H 889.539 -1.48709 2.9078 0
M  V30 9490 H 888.198 0.519777 3.62897 0
M  V30 9491 H 887.846 -1.69515 4.73575 0
M  V30 9492 H 887.546 -0.350808 5.86552 0
M  V30 9493 H 889.07 -1.27726 5.97092 0
M  V30 9494 H 890.484 0.971406 5.6501 0
M  V30 9495 H 888.881 1.75772 5.73781 0
M  V30 9496 H 889.951 2.10593 4.36782 0
M  V30 9497 N 891.294 -1.47756 0.548274 0
M  V30 9498 C 892.241 -2.29893 -0.204408 0
M  V30 9499 C 893.211 -1.38509 -0.916761 0
M  V30 9500 O 894.396 -1.67472 -0.91421 0
M  V30 9501 C 891.536 -3.22282 -1.23403 0
M  V30 9502 C 890.649 -4.28753 -0.528654 0
M  V30 9503 C 889.784 -5.08303 -1.54279 0
M  V30 9504 C 888.823 -6.06557 -0.821893 0
M  V30 9505 N 887.96 -6.79098 -1.78243 0
M  V30 9506 H 892.8 -2.93739 0.502163 0
M  V30 9507 H 890.337 -1.44793 0.259471 0
M  V30 9508 H 892.295 -3.74262 -1.84348 0
M  V30 9509 H 890.925 -2.6032 -1.90875 0
M  V30 9510 H 889.977 -3.79899 0.195132 0
M  V30 9511 H 891.289 -4.98787 0.0365066 0
M  V30 9512 H 890.443 -5.64388 -2.22602 0
M  V30 9513 H 889.182 -4.3815 -2.14186 0
M  V30 9514 H 888.187 -5.49659 -0.12469 0
M  V30 9515 H 889.412 -6.78715 -0.228685 0
M  V30 9516 H 887.358 -6.11682 -2.37025 0
M  V30 9517 H 887.275 -7.4527 -1.26919 0
M  V30 9518 H 888.543 -7.39762 -2.45709 0
M  V30 9519 N 892.772 -0.284283 -1.55015 0
M  V30 9520 C 894.183 0.211681 -1.85496 0
M  V30 9521 C 894.534 1.54735 -1.2063 0
M  V30 9522 O 893.659 2.10594 -0.497918 0
M  V30 9523 C 894.254 0.390864 -3.36538 0
M  V30 9524 C 892.813 0.831055 -3.67111 0
M  V30 9525 C 891.96 -0.0703581 -2.77211 0
M  V30 9526 H 894.911 -0.505803 -1.50424 0
M  V30 9527 H 894.932 1.22803 -3.60138 0
M  V30 9528 H 894.444 -0.581409 -3.8372 0
M  V30 9529 H 892.545 1.81447 -3.25434 0
M  V30 9530 H 892.658 0.662026 -4.74504 0
M  V30 9531 H 891.022 0.447528 -2.50737 0
M  V30 9532 H 891.805 -1.03868 -3.2721 0
M  V30 9533 N 894.251 1.57596 -0.0117121 0
M  V30 9534 C 895.214 2.08089 0.960816 0
M  V30 9535 C 896.214 0.992519 1.26514 0
M  V30 9536 O 897.404 1.25475 1.20837 0
M  V30 9537 C 894.536 2.53217 2.28241 0
M  V30 9538 H 895.729 2.9529 0.523829 0
M  V30 9539 H 893.282 1.54508 0.235995 0
M  V30 9540 H 894.017 1.69294 2.76604 0
M  V30 9541 H 893.802 3.32714 2.0747 0
M  V30 9542 H 895.292 2.92568 2.97983 0
M  V30 9543 N 895.729 -0.261212 1.5542 0
M  V30 9544 C 896.976 -0.99123 1.76581 0
M  V30 9545 C 897.304 -1.85854 0.573457 0
M  V30 9546 O 896.559 -1.90604 -0.443705 0
M  V30 9547 C 896.858 -1.89395 3.03091 0
M  V30 9548 C 896.524 -1.18318 4.351 0
M  V30 9549 C 895.186 -0.986688 4.70975 0
M  V30 9550 C 897.538 -0.678299 5.16767 0
M  V30 9551 C 894.866 -0.272788 5.86065 0
M  V30 9552 C 897.218 0.0220646 6.32596 0
M  V30 9553 C 895.882 0.230161 6.67103 0
M  V30 9554 H 895.152 -0.362717 0.646156 0
M  V30 9555 H 897.799 -0.262506 1.89692 0
M  V30 9556 H 896.104 -2.68927 2.8493 0
M  V30 9557 H 897.801 -2.46022 3.16661 0
M  V30 9558 H 894.391 -1.34625 4.06908 0
M  V30 9559 H 898.575 -0.817691 4.89518 0
M  V30 9560 H 893.831 -0.10095 6.11317 0
M  V30 9561 H 898.005 0.420981 6.95126 0
M  V30 9562 H 895.632 0.785312 7.56133 0
M  V30 9563 N 897.207 -1.48554 -0.526253 0
M  V30 9564 C 898.137 -1.66252 -1.63959 0
M  V30 9565 C 899.118 -0.511351 -1.62232 0
M  V30 9566 O 900.303 -0.744322 -1.7937 0
M  V30 9567 C 897.433 -1.70556 -3.02536 0
M  V30 9568 C 896.387 -2.8521 -3.19123 0
M  V30 9569 C 895.713 -2.74606 -4.58798 0
M  V30 9570 C 897.013 -4.26463 -3.0154 0
M  V30 9571 H 898.707 -2.59459 -1.49404 0
M  V30 9572 H 896.253 -1.24862 -0.717326 0
M  V30 9573 H 898.206 -1.81524 -3.80298 0
M  V30 9574 H 896.93 -0.739297 -3.18123 0
M  V30 9575 H 895.589 -2.73802 -2.43779 0
M  V30 9576 H 895.237 -1.75941 -4.71226 0
M  V30 9577 H 894.937 -3.51544 -4.70841 0
M  V30 9578 H 896.461 -2.87548 -5.38655 0
M  V30 9579 H 897.875 -4.38685 -3.69091 0
M  V30 9580 H 896.272 -5.04428 -3.25073 0
M  V30 9581 H 897.342 -4.42667 -1.97925 0
M  V30 9582 N 898.685 0.775411 -1.37205 0
M  V30 9583 C 900.101 1.07546 -1.17924 0
M  V30 9584 C 900.301 2.01496 -0.0128897 0
M  V30 9585 O 899.357 2.44039 0.64816 0
M  V30 9586 C 900.67 1.67647 -2.49629 0
M  V30 9587 C 902.218 1.79923 -2.56119 0
M  V30 9588 C 902.693 2.43438 -3.87946 0
M  V30 9589 N 904.184 2.50893 -3.89368 0
M  V30 9590 C 904.919 3.00881 -4.88117 0
M  V30 9591 N 904.415 3.5107 -5.97262 0
M  V30 9592 N 906.208 2.99722 -4.75524 0
M  V30 9593 H 898.359 0.151524 -2.11859 0
M  V30 9594 H 900.622 0.129845 -0.939066 0
M  V30 9595 H 900.328 1.06082 -3.3532 0
M  V30 9596 H 900.202 2.66988 -2.66453 0
M  V30 9597 H 902.589 2.40621 -1.70838 0
M  V30 9598 H 902.67 0.793482 -2.43182 0
M  V30 9599 H 902.314 1.8338 -4.73639 0
M  V30 9600 H 902.244 3.44611 -3.98184 0
M  V30 9601 H 904.735 2.1537 -3.10522 0
M  V30 9602 H 905.048 3.87604 -6.68568 0
M  V30 9603 H 903.393 3.49184 -6.00912 0
M  V30 9604 H 906.584 2.5981 -3.8938 0
M  V30 9605 H 906.757 3.38369 -5.52639 0
M  V30 9606 N 900.163 1.21714 1.00117 0
M  V30 9607 C 901.44 0.945391 1.71236 0
M  V30 9608 C 901.82 -0.541772 2.0403 0
M  V30 9609 O 901.168 -1.50763 1.71705 0
M  V30 9610 C 901.378 1.83444 2.96899 0
M  V30 9611 C 902.726 2.08558 3.69849 0
M  V30 9612 O 903.75 1.80824 3.06889 0
M  V30 9613 O 902.609 2.55485 4.83104 0
M  V30 9614 H 899.703 0.354834 0.747009 0
M  V30 9615 H 902.249 1.32661 1.05825 0
M  V30 9616 H 901.021 2.84075 2.69105 0
M  V30 9617 H 900.644 1.45428 3.70049 0
M  V30 9618 N 901.641 -1.19671 1.02551 0
M  V30 9619 C 903.052 -1.70964 0.750208 0
M  V30 9620 C 903.403 -1.82095 -0.730461 0
M  V30 9621 O 902.528 -1.48974 -1.56958 0
M  V30 9622 C 903.123 -3.10516 1.35518 0
M  V30 9623 C 901.682 -3.59083 1.12854 0
M  V30 9624 C 900.829 -2.36041 1.45534 0
M  V30 9625 H 903.78 -1.04559 1.19386 0
M  V30 9626 H 903.801 -3.73028 0.750378 0
M  V30 9627 H 903.313 -3.02383 2.43282 0
M  V30 9628 H 901.414 -3.72536 0.0689627 0
M  V30 9629 H 901.527 -4.43395 1.81488 0
M  V30 9630 H 899.891 -2.39214 0.87458 0
M  V30 9631 H 900.674 -2.3054 2.54374 0
M  V30 9632 N 903.119 -0.802921 -1.35613 0
M  V30 9633 C 904.067 -0.198783 -2.31749 0
M  V30 9634 C 905.061 0.649416 -1.56458 0
M  V30 9635 O 906.267 0.542989 -1.71615 0
M  V30 9636 H 902.642 -0.0455177 -0.750621 0
M  V30 9637 H 904.613 -1.02479 -2.80251 0
M  V30 9638 C 903.362 0.641066 -3.41739 0
M  V30 9639 H 902.685 -0.00226244 -3.998 0
M  V30 9640 H 904.125 1.03022 -4.11294 0
M  V30 9641 C 902.584 1.80505 -2.84464 0
M  V30 9642 O 903.114 2.90235 -2.77717 0
M  V30 9643 N 901.32 1.61542 -2.41563 0
M  V30 9644 H 900.867 0.722863 -2.4725 0
M  V30 9645 H 900.825 2.39581 -2.03589 0
M  V30 9646 N 904.597 1.47463 -0.556102 0
M  V30 9647 C 905.845 2.02075 -0.0315712 0
M  V30 9648 C 906.166 1.43292 1.32259 0
M  V30 9649 O 905.436 0.60771 1.86236 0
M  V30 9650 H 904.016 0.74695 -0.0086816 0
M  V30 9651 H 906.678 1.80879 -0.725859 0
M  V30 9652 H 905.774 3.12047 0.0573538 0
M  V30 9653 N 906.075 0.2925 1.54862 0
M  V30 9654 C 907.303 -0.322113 2.04377 0
M  V30 9655 C 907.718 -1.48164 1.17016 0
M  V30 9656 O 907.075 -1.81466 0.19395 0
M  V30 9657 C 907.126 -0.786506 3.5284 0
M  V30 9658 O 906.847 0.326863 4.36879 0
M  V30 9659 C 908.348 -1.46715 4.18318 0
M  V30 9660 H 905.568 -0.0712074 0.667211 0
M  V30 9661 H 908.112 0.429657 1.99935 0
M  V30 9662 H 906.267 -1.48832 3.5767 0
M  V30 9663 H 906.681 -0.0331558 5.2449 0
M  V30 9664 H 908.155 -1.74333 5.23748 0
M  V30 9665 H 908.632 -2.40443 3.67538 0
M  V30 9666 H 909.238 -0.808735 4.1754 0
M  V30 9667 N 907.553 -1.57587 0.0200696 0
M  V30 9668 C 908.8 -1.91424 -0.660525 0
M  V30 9669 C 909.128 -0.895626 -1.72652 0
M  V30 9670 O 908.383 0.096771 -1.95461 0
M  V30 9671 C 908.682 -3.32002 -1.32323 0
M  V30 9672 C 908.348 -4.49223 -0.388487 0
M  V30 9673 C 907.01 -4.81021 -0.131184 0
M  V30 9674 C 909.362 -5.20581 0.253906 0
M  V30 9675 C 906.69 -5.81539 0.776471 0
M  V30 9676 C 909.042 -6.22067 1.14956 0
M  V30 9677 C 907.706 -6.52311 1.41584 0
M  V30 9678 H 906.976 -0.700472 -0.241703 0
M  V30 9679 H 909.623 -1.91333 0.0798991 0
M  V30 9680 H 907.928 -3.28312 -2.13819 0
M  V30 9681 H 909.625 -3.5545 -1.85623 0
M  V30 9682 H 906.215 -4.24391 -0.599207 0
M  V30 9683 H 910.399 -4.96253 0.068164 0
M  V30 9684 H 905.655 -6.03322 0.990575 0
M  V30 9685 H 909.829 -6.76484 1.65357 0
M  V30 9686 H 907.456 -7.30017 2.12083 0
M  V30 9687 N 909.032 0.252966 -1.55557 0
M  V30 9688 C 909.98 1.33289 -1.90622 0
M  V30 9689 C 910.974 1.50133 -0.784638 0
M  V30 9690 O 912.18 1.51679 -0.969196 0
M  V30 9691 H 908.555 0.446196 -0.605321 0
M  V30 9692 H 910.526 1.00977 -2.80796 0
M  V30 9693 C 909.275 2.68254 -2.21213 0
M  V30 9694 H 908.598 2.5609 -3.07014 0
M  V30 9695 H 910.038 3.42707 -2.49656 0
M  V30 9696 C 908.497 3.20884 -1.02642 0
M  V30 9697 O 909.027 4.00783 -0.271292 0
M  V30 9698 N 907.233 2.7883 -0.818682 0
M  V30 9699 H 906.78 2.13966 -1.43444 0
M  V30 9700 H 906.738 3.14388 -0.0269989 0
M  V30 9701 N 910.51 1.48831 0.518367 0
M  V30 9702 C 911.921 1.50842 1.10016 0
M  V30 9703 C 912.272 0.284744 1.94123 0
M  V30 9704 O 911.397 -0.607088 2.0771 0
M  V30 9705 C 911.992 2.73329 2.00191 0
M  V30 9706 C 910.551 2.78175 2.53566 0
M  V30 9707 C 909.698 2.4452 1.30786 0
M  V30 9708 H 912.649 1.55779 0.303073 0
M  V30 9709 H 912.67 2.52506 2.84642 0
M  V30 9710 H 912.182 3.62374 1.3895 0
M  V30 9711 H 910.283 1.93368 3.18496 0
M  V30 9712 H 910.396 3.79905 2.91906 0
M  V30 9713 H 908.76 1.95924 1.62744 0
M  V30 9714 H 909.543 3.35819 0.712797 0
M  V30 9715 N 911.988 -0.768124 1.37614 0
M  V30 9716 C 913.404 -1.06919 1.18493 0
M  V30 9717 C 913.604 -2.01486 0.0235753 0
M  V30 9718 O 912.66 -2.4438 -0.635209 0
M  V30 9719 C 913.973 -1.66321 2.50515 0
M  V30 9720 C 915.521 -1.78562 2.57069 0
M  V30 9721 C 915.996 -2.41377 3.89231 0
M  V30 9722 N 917.487 -2.48824 3.90693 0
M  V30 9723 C 918.222 -2.98288 4.89706 0
M  V30 9724 N 917.718 -3.47897 5.99115 0
M  V30 9725 N 919.511 -2.97196 4.77107 0
M  V30 9726 H 911.662 -0.140286 2.11936 0
M  V30 9727 H 913.925 -0.124863 0.939741 0
M  V30 9728 H 913.631 -1.04303 3.35878 0
M  V30 9729 H 913.505 -2.65571 2.67866 0
M  V30 9730 H 915.892 -2.39712 1.72111 0
M  V30 9731 H 915.973 -0.780574 2.43599 0
M  V30 9732 H 915.617 -1.80866 4.74605 0
M  V30 9733 H 915.547 -3.42495 4.00006 0
M  V30 9734 H 918.038 -2.1372 3.1166 0
M  V30 9735 H 918.351 -3.84053 6.70614 0
M  V30 9736 H 916.696 -3.45993 6.02755 0
M  V30 9737 H 919.887 -2.57741 3.90752 0
M  V30 9738 H 920.06 -3.35434 5.54426 0
M  V30 9739 N 913.466 -1.22244 -0.994698 0
M  V30 9740 C 914.429 -0.992308 -2.06606 0
M  V30 9741 C 915.429 0.0405872 -1.60749 0
M  V30 9742 O 916.619 -0.197737 -1.73074 0
M  V30 9743 C 913.751 -0.498499 -3.37236 0
M  V30 9744 H 914.944 -1.9429 -2.28455 0
M  V30 9745 H 912.497 -1.04087 -1.166 0
M  V30 9746 H 913.232 0.456531 -3.21071 0
M  V30 9747 H 913.017 -1.24367 -3.71854 0
M  V30 9748 H 914.507 -0.35768 -4.16065 0
M  V30 9749 N 914.944 1.19125 -1.03184 0
M  V30 9750 C 915.874 2.24675 -0.635889 0
M  V30 9751 C 916.855 1.66321 0.356565 0
M  V30 9752 O 918.04 1.92728 0.238625 0
M  V30 9753 C 915.17 3.47298 0.011069 0
M  V30 9754 C 914.124 4.18345 -0.903979 0
M  V30 9755 C 913.45 5.34561 -0.12197 0
M  V30 9756 C 914.75 4.72816 -2.21907 0
M  V30 9757 H 916.444 2.5805 -1.51825 0
M  V30 9758 H 913.99 1.24039 -0.73146 0
M  V30 9759 H 915.943 4.20333 0.299729 0
M  V30 9760 H 914.667 3.13131 0.928245 0
M  V30 9761 H 913.326 3.47196 -1.17688 0
M  V30 9762 H 912.974 4.9664 0.797334 0
M  V30 9763 H 912.674 5.83029 -0.731498 0
M  V30 9764 H 914.198 6.10391 0.159881 0
M  V30 9765 H 915.612 5.3759 -1.99173 0
M  V30 9766 H 914.009 5.31782 -2.78078 0
M  V30 9767 H 915.079 3.9072 -2.87168 0
M  V30 9768 N 916.422 0.810101 1.35185 0
M  V30 9769 C 917.385 0.22852 2.28058 0
M  V30 9770 C 918.385 -0.586168 1.49735 0
M  V30 9771 O 919.575 -0.40414 1.69447 0
M  V30 9772 C 916.707 -0.681041 3.34028 0
M  V30 9773 H 917.9 1.04768 2.81005 0
M  V30 9774 H 915.453 0.58101 1.451 0
M  V30 9775 H 916.188 -1.52375 2.86273 0
M  V30 9776 H 915.973 -0.0985276 3.91976 0
M  V30 9777 H 917.463 -1.08217 4.03335 0
M  V30 9778 N 917.9 -1.47166 0.563914 0
M  V30 9779 C 918.832 -2.28165 -0.217583 0
M  V30 9780 C 919.845 -1.37405 -0.873134 0
M  V30 9781 O 921.034 -1.6217 -0.745857 0
M  V30 9782 C 918.134 -3.11873 -1.32621 0
M  V30 9783 C 917.307 -4.30637 -0.766177 0
M  V30 9784 C 916.366 -4.95889 -1.76014 0
M  V30 9785 O 915.392 -5.54071 -1.3036 0
M  V30 9786 N 916.594 -4.91191 -3.09373 0
M  V30 9787 H 919.359 -2.95876 0.477256 0
M  V30 9788 H 916.92 -1.5687 0.40043 0
M  V30 9789 H 918.912 -3.52392 -1.99003 0
M  V30 9790 H 917.482 -2.46361 -1.92419 0
M  V30 9791 H 916.702 -3.94129 0.0745998 0
M  V30 9792 H 917.99 -5.07442 -0.371472 0
M  V30 9793 H 917.388 -4.45133 -3.49104 0
M  V30 9794 H 915.945 -5.35708 -3.71295 0
M  V30 9795 N 919.378 -0.300708 -1.54705 0
M  V30 9796 C 920.626 0.308044 -1.99739 0
M  V30 9797 C 920.947 1.54433 -1.19061 0
M  V30 9798 O 920.217 1.93794 -0.286507 0
M  V30 9799 H 918.797 0.116811 -0.73781 0
M  V30 9800 H 921.459 -0.41197 -1.90496 0
M  V30 9801 H 920.555 0.580287 -3.06658 0
M  V30 9802 N 920.856 1.57574 -0.0284266 0
M  V30 9803 C 922.267 1.79585 0.510502 0
M  V30 9804 C 922.618 0.938625 1.72291 0
M  V30 9805 O 921.743 0.14884 2.15888 0
M  V30 9806 C 922.338 3.25703 0.932912 0
M  V30 9807 C 920.897 3.48711 1.41696 0
M  V30 9808 C 920.044 2.74665 0.381356 0
M  V30 9809 H 922.995 1.56647 -0.254464 0
M  V30 9810 H 923.016 3.35376 1.79731 0
M  V30 9811 H 922.528 3.88067 0.0503036 0
M  V30 9812 H 920.629 2.91597 2.31952 0
M  V30 9813 H 920.742 4.57423 1.42481 0
M  V30 9814 H 919.106 2.40123 0.8493 0
M  V30 9815 H 919.889 3.39745 -0.492775 0
M  V30 9816 N 922.334 -0.244713 1.55689 0
M  V30 9817 C 923.58 -0.969623 1.78801 0
M  V30 9818 C 923.935 -1.8288 0.597716 0
M  V30 9819 O 923.228 -1.87184 -0.408978 0
M  V30 9820 C 923.422 -1.8617 3.05083 0
M  V30 9821 C 923.251 -1.09036 4.36281 0
M  V30 9822 C 922.021 -0.794585 4.99013 0
M  V30 9823 C 924.219 -0.466883 5.12176 0
M  V30 9824 N 922.201 0.000579944 6.139 0
M  V30 9825 C 923.572 0.192755 6.197 0
M  V30 9826 C 925.627 -0.377571 4.96466 0
M  V30 9827 C 924.33 0.933132 7.13222 0
M  V30 9828 C 926.356 0.349281 5.90368 0
M  V30 9829 C 925.718 0.997549 6.97301 0
M  V30 9830 H 921.817 -0.335845 0.70621 0
M  V30 9831 H 924.401 -0.242559 1.93183 0
M  V30 9832 H 922.572 -2.56077 2.92026 0
M  V30 9833 H 924.304 -2.52234 3.16481 0
M  V30 9834 H 921.059 -1.10691 4.60483 0
M  V30 9835 H 921.483 0.38632 6.75897 0
M  V30 9836 H 926.125 -0.86443 4.13869 0
M  V30 9837 H 923.843 1.43159 7.95318 0
M  V30 9838 H 927.429 0.419082 5.80289 0
M  V30 9839 H 926.309 1.551 7.68709 0
M  V30 9840 N 923.813 -1.49104 -0.510467 0
M  V30 9841 C 925.059 -1.59322 -1.26444 0
M  V30 9842 C 925.414 -0.27219 -1.90465 0
M  V30 9843 O 924.707 0.726762 -1.77281 0
M  V30 9844 C 924.901 -2.68259 -2.36161 0
M  V30 9845 C 924.73 -4.10827 -1.82897 0
M  V30 9846 C 923.5 -4.77732 -1.64623 0
M  V30 9847 C 925.698 -4.96367 -1.34625 0
M  V30 9848 N 923.68 -6.04646 -1.06189 0
M  V30 9849 C 925.051 -6.13685 -0.882656 0
M  V30 9850 C 927.106 -4.8244 -1.2311 0
M  V30 9851 C 925.809 -7.18609 -0.315306 0
M  V30 9852 C 927.835 -5.87504 -0.677726 0
M  V30 9853 C 927.197 -7.04043 -0.224308 0
M  V30 9854 H 923.296 -0.637429 -0.453 0
M  V30 9855 H 925.88 -1.8607 -0.573237 0
M  V30 9856 H 924.051 -2.433 -3.02753 0
M  V30 9857 H 925.783 -2.68052 -3.032 0
M  V30 9858 H 922.538 -4.34377 -1.88716 0
M  V30 9859 H 922.962 -6.72383 -0.78927 0
M  V30 9860 H 927.604 -3.92663 -1.56766 0
M  V30 9861 H 925.322 -8.08093 0.0335425 0
M  V30 9862 H 928.908 -5.78785 -0.591535 0
M  V30 9863 H 927.788 -7.83952 0.197212 0
M  V30 9864 N 925.291 0.760815 -1.38019 0
M  V30 9865 C 926.254 1.85604 -1.34476 0
M  V30 9866 C 927.254 1.58897 -0.24666 0
M  V30 9867 O 928.444 1.66776 -0.50314 0
M  V30 9868 C 925.576 3.22945 -1.09176 0
M  V30 9869 H 926.769 1.90155 -2.31908 0
M  V30 9870 H 924.322 0.961746 -1.23208 0
M  V30 9871 H 925.057 3.24066 -0.123216 0
M  V30 9872 H 924.842 3.43723 -1.88672 0
M  V30 9873 H 926.332 4.03022 -1.09375 0
M  V30 9874 N 926.769 1.22769 0.988202 0
M  V30 9875 C 928.185 0.988665 1.2529 0
M  V30 9876 C 928.385 -0.314938 1.99024 0
M  V30 9877 O 927.441 -1.03637 2.30251 0
M  V30 9878 C 928.754 2.19046 2.06009 0
M  V30 9879 C 930.302 2.23452 2.19176 0
M  V30 9880 C 930.777 3.43196 3.03283 0
M  V30 9881 N 932.268 3.43387 3.10869 0
M  V30 9882 C 933.003 4.32693 3.7625 0
M  V30 9883 N 932.499 5.32224 4.43519 0
M  V30 9884 N 934.292 4.20457 3.73058 0
M  V30 9885 H 926.443 2.06575 0.494014 0
M  V30 9886 H 928.706 0.905452 0.28082 0
M  V30 9887 H 928.412 3.13607 1.59197 0
M  V30 9888 H 928.286 2.19492 3.06763 0
M  V30 9889 H 930.673 1.29436 2.65199 0
M  V30 9890 H 930.754 2.27042 1.17836 0
M  V30 9891 H 930.398 4.37515 2.57959 0
M  V30 9892 H 930.328 3.36847 4.04774 0
M  V30 9893 H 932.819 2.71368 2.62998 0
M  V30 9894 H 933.132 5.9664 4.91163 0
M  V30 9895 H 931.477 5.36133 4.42252 0
M  V30 9896 H 934.668 3.41949 3.19669 0
M  V30 9897 H 934.841 4.90261 4.23731 0
M  V30 9898 N 928.247 -1.18576 1.03814 0
M  V30 9899 C 929.194 -2.2212 0.626988 0
M  V30 9900 C 930.164 -1.62064 -0.363912 0
M  V30 9901 O 931.349 -1.89041 -0.258469 0
M  V30 9902 C 928.489 -3.45099 -0.00650133 0
M  V30 9903 C 927.602 -4.19503 1.03156 0
M  V30 9904 C 926.737 -5.29932 0.366852 0
M  V30 9905 C 925.776 -5.96104 1.39018 0
M  V30 9906 N 924.913 -6.98076 0.750625 0
M  V30 9907 H 929.753 -2.56646 1.51449 0
M  V30 9908 H 927.29 -1.26084 0.757702 0
M  V30 9909 H 929.248 -4.15363 -0.391108 0
M  V30 9910 H 927.878 -3.11201 -0.857536 0
M  V30 9911 H 926.93 -3.48092 1.53414 0
M  V30 9912 H 928.242 -4.64843 1.80893 0
M  V30 9913 H 927.396 -6.06657 -0.0720979 0
M  V30 9914 H 926.135 -4.85687 -0.442631 0
M  V30 9915 H 925.14 -5.18122 1.8393 0
M  V30 9916 H 926.365 -6.42432 2.20132 0
M  V30 9917 H 924.311 -6.55989 -0.0385981 0
M  V30 9918 H 924.228 -7.41655 1.46574 0
M  V30 9919 H 925.496 -7.78776 0.335986 0
M  V30 9920 N 929.725 -0.817259 -1.34754 0
M  V30 9921 C 931.141 -0.502309 -1.51489 0
M  V30 9922 C 931.341 0.974568 -1.76364 0
M  V30 9923 O 930.397 1.75924 -1.81127 0
M  V30 9924 C 931.71 -1.35693 -2.68343 0
M  V30 9925 C 933.258 -1.35347 -2.82224 0
M  V30 9926 C 933.733 -2.19244 -4.02114 0
M  V30 9927 N 935.224 -2.16837 -4.09311 0
M  V30 9928 C 935.959 -2.78505 -5.01221 0
M  V30 9929 N 935.455 -3.4914 -5.98392 0
M  V30 9930 N 937.248 -2.68089 -4.94049 0
M  V30 9931 H 929.399 -1.77359 -1.16866 0
M  V30 9932 H 931.662 -0.755476 -0.572678 0
M  V30 9933 H 931.368 -2.40548 -2.56573 0
M  V30 9934 H 931.242 -1.01764 -3.63213 0
M  V30 9935 H 933.629 -0.312727 -2.93438 0
M  V30 9936 H 933.71 -1.7327 -1.88179 0
M  V30 9937 H 933.354 -3.23365 -3.9166 0
M  V30 9938 H 933.284 -1.78675 -4.95361 0
M  V30 9939 H 935.775 -1.65452 -3.39756 0
M  V30 9940 H 936.088 -3.93455 -6.65141 0
M  V30 9941 H 934.433 -3.53246 -5.98533 0
M  V30 9942 H 937.624 -2.12485 -4.17094 0
M  V30 9943 H 937.797 -3.16436 -5.65484 0
M  V30 9944 N 931.203 1.46865 -0.571711 0
M  V30 9945 C 932.133 2.3298 0.155795 0
M  V30 9946 C 933.114 1.44678 0.894553 0
M  V30 9947 O 934.299 1.73513 0.872176 0
M  V30 9948 C 931.429 3.26745 1.17708 0
M  V30 9949 C 930.383 4.24401 0.553863 0
M  V30 9950 C 929.709 5.07595 1.68083 0
M  V30 9951 C 931.009 5.19884 -0.501827 0
M  V30 9952 H 932.703 2.94056 -0.563176 0
M  V30 9953 H 930.249 1.41402 -0.27228 0
M  V30 9954 H 932.202 3.85838 1.6943 0
M  V30 9955 H 930.926 2.63753 1.92618 0
M  V30 9956 H 929.585 3.66554 0.057815 0
M  V30 9957 H 929.233 4.40996 2.41933 0
M  V30 9958 H 928.933 5.73722 1.26953 0
M  V30 9959 H 930.457 5.6955 2.20103 0
M  V30 9960 H 931.871 5.73257 -0.0701057 0
M  V30 9961 H 930.268 5.94293 -0.832815 0
M  V30 9962 H 931.338 4.64482 -1.39229 0
M  V30 9963 N 932.681 0.308908 1.54543 0
M  V30 9964 C 933.629 -0.579326 2.2527 0
M  V30 9965 C 934.623 -1.13058 1.26152 0
M  V30 9966 O 935.829 -1.08031 1.43977 0
M  V30 9967 H 932.204 -0.205444 0.723392 0
M  V30 9968 H 934.175 0.0396415 2.98374 0
M  V30 9969 C 932.924 -1.73584 3.01271 0
M  V30 9970 H 932.247 -1.32089 3.77349 0
M  V30 9971 H 933.687 -2.33324 3.54028 0
M  V30 9972 C 932.146 -2.6447 2.08703 0
M  V30 9973 O 932.676 -3.65785 1.66025 0
M  V30 9974 N 930.882 -2.32379 1.74495 0
M  V30 9975 H 930.429 -1.50034 2.09398 0
M  V30 9976 H 930.387 -2.93454 1.12836 0
M  V30 9977 N 934.159 -1.57557 0.0367827 0
M  V30 9978 C 935.408 -1.91291 -0.639569 0
M  V30 9979 C 935.721 -0.915601 -1.72847 0
M  V30 9980 O 936.927 -1.14447 -2.46199 0
M  V30 9981 C 935.383 -3.39697 -1.18888 0
M  V30 9982 C 934.991 -4.47803 -0.132851 0
M  V30 9983 C 936.735 -3.82487 -1.8413 0
M  V30 9984 C 934.642 -5.87311 -0.694229 0
M  V30 9985 H 933.572 -0.713886 -0.242658 0
M  V30 9986 H 936.223 -1.83209 0.103332 0
M  V30 9987 H 934.605 -3.42736 -1.98363 0
M  V30 9988 H 935.779 -4.56334 0.640009 0
M  V30 9989 H 934.094 -4.14264 0.421264 0
M  V30 9990 H 936.691 -4.84076 -2.27101 0
M  V30 9991 H 937.034 -3.17959 -2.68716 0
M  V30 9992 H 937.567 -3.81903 -1.11332 0
M  V30 9993 H 934.306 -6.55401 0.113667 0
M  V30 9994 H 933.826 -5.82371 -1.4354 0
M  V30 9995 H 935.505 -6.36119 -1.1816 0
M  V30 9996 N 935.637 0.236453 -1.55816 0
M  V30 9997 C 937.053 0.585465 -1.48474 0
M  V30 9998 C 937.253 1.8785 -0.72902 0
M  V30 9999 O 936.309 2.51131 -0.262614 0
M  V30 10000 C 937.622 0.678506 -2.92945 0
M  V30 10001 C 939.17 0.770135 -3.03378 0
M  V30 10002 C 939.645 0.894649 -4.49177 0
M  V30 10003 N 941.136 0.959253 -4.53158 0
M  V30 10004 C 941.871 1.07505 -5.63232 0
M  V30 10005 N 941.367 1.15572 -6.83092 0
M  V30 10006 N 943.16 1.10902 -5.51051 0
M  V30 10007 H 935.311 -0.612241 -2.03385 0
M  V30 10008 H 937.574 -0.212796 -0.923808 0
M  V30 10009 H 937.28 -0.201757 -3.51121 0
M  V30 10010 H 937.154 1.54703 -3.44016 0
M  V30 10011 H 939.541 1.64085 -2.45276 0
M  V30 10012 H 939.622 -0.123753 -2.555 0
M  V30 10013 H 939.266 0.0284537 -5.07892 0
M  V30 10014 H 939.196 1.80373 -4.94745 0
M  V30 10015 H 941.687 0.907827 -3.66834 0
M  V30 10016 H 942 1.24343 -7.62731 0
M  V30 10017 H 940.345 1.12511 -6.85833 0
M  V30 10018 H 943.536 1.04255 -4.56343 0
M  V30 10019 H 943.709 1.19581 -6.36871 0
M  V30 10020 N 937.115 1.49373 0.502552 0
M  V30 10021 C 938.361 1.59016 1.25864 0
M  V30 10022 C 938.694 0.27532 1.92238 0
M  V30 10023 O 937.969 -0.720988 1.80643 0
M  V30 10024 C 938.252 2.74828 2.32683 0
M  V30 10025 C 938.105 4.16102 1.7082 0
M  V30 10026 C 939.424 2.86288 3.34256 0
M  V30 10027 H 936.543 0.578798 0.456248 0
M  V30 10028 H 939.185 1.81651 0.557032 0
M  V30 10029 H 937.335 2.5566 2.92524 0
M  V30 10030 H 939.007 4.46782 1.14818 0
M  V30 10031 H 937.25 4.21822 1.01238 0
M  V30 10032 H 937.921 4.93006 2.48292 0
M  V30 10033 H 940.397 3.03733 2.84404 0
M  V30 10034 H 939.273 3.69001 4.06362 0
M  V30 10035 H 939.534 1.95576 3.96488 0
M  V30 10036 N 938.594 -0.753485 1.38421 0
M  V30 10037 C 939.843 -1.50797 1.33952 0
M  V30 10038 C 940.156 -1.95482 -0.0678464 0
M  V30 10039 O 941.362 -2.7048 -0.235078 0
M  V30 10040 C 939.818 -2.72393 2.35224 0
M  V30 10041 C 939.426 -2.34733 3.81582 0
M  V30 10042 C 941.17 -3.50281 2.39798 0
M  V30 10043 C 939.077 -3.52939 4.7454 0
M  V30 10044 H 938.007 -0.566211 0.497916 0
M  V30 10045 H 940.658 -0.823659 1.63976 0
M  V30 10046 H 939.04 -3.42806 1.98243 0
M  V30 10047 H 940.214 -1.71985 4.27502 0
M  V30 10048 H 938.529 -1.69978 3.80127 0
M  V30 10049 H 941.126 -4.38172 3.06447 0
M  V30 10050 H 941.469 -3.91444 1.41695 0
M  V30 10051 H 942.002 -2.86881 2.75579 0
M  V30 10052 H 938.741 -3.16843 5.73839 0
M  V30 10053 H 938.261 -4.1473 4.33312 0
M  V30 10054 H 939.94 -4.19519 4.92557 0
M  V30 10055 N 940.072 -1.23292 -0.981677 0
M  V30 10056 C 941.297 -1.09176 -1.76339 0
M  V30 10057 C 941.722 0.352726 -1.84763 0
M  V30 10058 O 941.08 1.25509 -1.30832 0
M  V30 10059 C 941.128 -1.72046 -3.16911 0
M  V30 10060 O 940.232 -0.98174 -4.00544 0
M  V30 10061 H 939.573 -0.382755 -0.542581 0
M  V30 10062 H 942.103 -1.63319 -1.23239 0
M  V30 10063 H 942.113 -1.77232 -3.67495 0
M  V30 10064 H 940.788 -2.77154 -3.10095 0
M  V30 10065 H 939.365 -1.00672 -3.59054 0
M  V30 10066 N 941.55 1.18024 -1.04442 0
M  V30 10067 C 942.798 1.87727 -0.74854 0
M  V30 10068 C 943.119 1.80975 0.726156 0
M  V30 10069 O 942.389 1.23061 1.52423 0
M  V30 10070 H 940.969 0.694974 -0.273897 0
M  V30 10071 H 943.631 1.43213 -1.32197 0
M  V30 10072 H 942.727 2.93665 -1.05674 0
M  V30 10073 N 943.028 0.824394 1.34319 0
M  V30 10074 C 943.96 0.204805 2.28283 0
M  V30 10075 C 944.973 -0.606162 1.51094 0
M  V30 10076 O 946.162 -0.435602 1.73103 0
M  V30 10077 C 943.262 -0.73139 3.30914 0
M  V30 10078 C 942.435 0.0370723 4.37384 0
M  V30 10079 C 941.494 -0.820272 5.19767 0
M  V30 10080 O 940.52 -0.264721 5.68584 0
M  V30 10081 N 941.722 -2.13984 5.39621 0
M  V30 10082 H 944.487 1.0121 2.82093 0
M  V30 10083 H 942.048 0.681494 1.46858 0
M  V30 10084 H 944.04 -1.30958 3.82926 0
M  V30 10085 H 942.61 -1.43943 2.77487 0
M  V30 10086 H 941.83 0.796578 3.86068 0
M  V30 10087 H 943.118 0.566014 5.05642 0
M  V30 10088 H 942.516 -2.61492 5.01636 0
M  V30 10089 H 941.073 -2.66685 5.94746 0
M  V30 10090 N 944.506 -1.46559 0.579492 0
M  V30 10091 C 945.438 -2.28383 -0.19337 0
M  V30 10092 C 946.451 -1.38324 -0.858511 0
M  V30 10093 O 947.64 -1.62952 -0.728615 0
M  V30 10094 C 944.74 -3.13262 -1.29306 0
M  V30 10095 C 943.913 -4.31426 -0.720459 0
M  V30 10096 C 942.972 -4.97728 -1.70744 0
M  V30 10097 O 941.998 -5.55423 -1.24476 0
M  V30 10098 N 943.2 -4.94445 -3.04146 0
M  V30 10099 H 945.965 -2.95353 0.508611 0
M  V30 10100 H 943.526 -1.56436 0.417046 0
M  V30 10101 H 945.518 -3.54483 -1.95254 0
M  V30 10102 H 944.088 -2.48388 -1.89795 0
M  V30 10103 H 943.308 -3.94028 0.116398 0
M  V30 10104 H 944.596 -5.07808 -0.31763 0
M  V30 10105 H 943.994 -4.4881 -3.44363 0
M  V30 10106 H 942.551 -5.39616 -3.65592 0
M  V30 10107 N 945.984 -0.3171 -1.54377 0
M  V30 10108 C 946.914 0.544623 -2.2706 0
M  V30 10109 C 947.895 1.12469 -1.27611 0
M  V30 10110 O 949.08 1.15103 -1.56413 0
M  V30 10111 C 946.21 1.70879 -3.02353 0
M  V30 10112 C 945.164 1.25833 -4.09084 0
M  V30 10113 C 944.49 2.50894 -4.72182 0
M  V30 10114 C 945.79 0.377876 -5.20931 0
M  V30 10115 H 947.484 -0.0616372 -2.99337 0
M  V30 10116 H 945.03 -0.0310848 -1.43966 0
M  V30 10117 H 946.983 2.31787 -3.51927 0
M  V30 10118 H 945.707 2.34155 -2.27682 0
M  V30 10119 H 944.366 0.672228 -3.60384 0
M  V30 10120 H 944.014 3.12518 -3.94134 0
M  V30 10121 H 943.714 2.21447 -5.44275 0
M  V30 10122 H 945.238 3.12575 -5.24528 0
M  V30 10123 H 946.652 0.893056 -5.66302 0
M  V30 10124 H 945.049 0.176474 -5.9984 0
M  V30 10125 H 946.119 -0.592943 -4.81261 0
M  V30 10126 N 947.462 1.57535 -0.0451378 0
M  V30 10127 C 948.873 1.80116 0.491426 0
M  V30 10128 C 949.224 0.956846 1.71286 0
M  V30 10129 O 948.349 0.17173 2.15718 0
M  V30 10130 C 948.944 3.26674 0.898315 0
M  V30 10131 C 947.503 3.50194 1.37989 0
M  V30 10132 C 946.65 2.75054 0.352202 0
M  V30 10133 H 949.601 1.56368 -0.271065 0
M  V30 10134 H 949.622 3.37263 1.76164 0
M  V30 10135 H 949.134 3.88099 0.009141 0
M  V30 10136 H 947.235 2.94041 2.28846 0
M  V30 10137 H 947.348 4.58909 1.37622 0
M  V30 10138 H 945.712 2.4101 0.823784 0
M  V30 10139 H 946.495 3.39203 -0.528782 0
M  V30 10140 N 948.94 -0.228186 1.55939 0
M  V30 10141 C 949.887 -1.28274 1.91871 0
M  V30 10142 C 950.857 -1.46906 0.775103 0
M  V30 10143 O 952.042 -1.60583 1.03042 0
M  V30 10144 C 949.182 -2.62945 2.23504 0
M  V30 10145 C 948.295 -2.52166 3.50766 0
M  V30 10146 C 947.43 -3.79316 3.71878 0
M  V30 10147 C 946.469 -3.63231 4.92676 0
M  V30 10148 N 945.606 -4.82315 5.10212 0
M  V30 10149 H 950.446 -0.96931 2.81795 0
M  V30 10150 H 947.983 -0.467331 1.39479 0
M  V30 10151 H 949.941 -3.41359 2.39854 0
M  V30 10152 H 948.571 -2.92397 1.36762 0
M  V30 10153 H 947.623 -1.65221 3.42646 0
M  V30 10154 H 948.935 -2.36199 4.39331 0
M  V30 10155 H 948.089 -4.66173 3.88288 0
M  V30 10156 H 946.828 -3.982 2.81581 0
M  V30 10157 H 945.833 -2.74757 4.76223 0
M  V30 10158 H 947.058 -3.45823 5.84451 0
M  V30 10159 H 945.004 -5.01526 4.22856 0
M  V30 10160 H 944.921 -4.6905 5.92898 0
M  V30 10161 H 946.189 -5.70618 5.31051 0
M  V30 10162 N 950.418 -1.49637 -0.494624 0
M  V30 10163 C 951.664 -1.59681 -1.25019 0
M  V30 10164 C 951.997 -0.285511 -1.9209 0
M  V30 10165 O 951.272 0.711398 -1.81023 0
M  V30 10166 C 951.555 -2.76058 -2.31222 0
M  V30 10167 C 951.408 -4.17002 -1.68611 0
M  V30 10168 C 952.727 -2.88056 -3.32734 0
M  V30 10169 H 949.846 -0.581209 -0.453172 0
M  V30 10170 H 952.488 -1.81944 -0.547391 0
M  V30 10171 H 950.638 -2.57207 -2.91164 0
M  V30 10172 H 952.31 -4.47385 -1.12447 0
M  V30 10173 H 950.553 -4.22352 -0.989991 0
M  V30 10174 H 951.224 -4.94316 -2.45674 0
M  V30 10175 H 953.7 -3.05237 -2.82789 0
M  V30 10176 H 952.576 -3.71151 -4.04399 0
M  V30 10177 H 952.837 -1.97676 -3.95445 0
M  V30 10178 N 951.896 0.746133 -1.38819 0
M  V30 10179 C 952.844 1.88137 -1.36774 0
M  V30 10180 C 953.838 1.67508 -0.252495 0
M  V30 10181 O 955.044 1.74985 -0.421935 0
M  V30 10182 H 951.419 0.619116 -0.426849 0
M  V30 10183 H 953.39 1.86978 -2.32555 0
M  V30 10184 C 952.139 3.25703 -1.21708 0
M  V30 10185 H 951.462 3.42168 -2.06788 0
M  V30 10186 H 952.902 4.05361 -1.24332 0
M  V30 10187 C 951.361 3.36816 0.0754257 0
M  V30 10188 O 951.891 3.87742 1.04972 0
M  V30 10189 N 950.097 2.90287 0.134761 0
M  V30 10190 H 949.644 2.49034 -0.658779 0
M  V30 10191 H 949.602 2.98103 0.999109 0
M  V30 10192 N 953.375 1.23811 0.975125 0
M  V30 10193 C 954.322 1.02394 2.06843 0
M  V30 10194 C 955.292 -0.060337 1.6599 0
M  V30 10195 O 956.477 0.0928187 1.90574 0
M  V30 10196 C 953.617 0.626882 3.39359 0
M  V30 10197 C 952.73 1.78385 3.9345 0
M  V30 10198 C 951.865 1.33307 5.14201 0
M  V30 10199 C 950.904 2.46045 5.60471 0
M  V30 10200 N 950.041 2.01888 6.72448 0
M  V30 10201 H 954.881 1.95973 2.24496 0
M  V30 10202 H 952.418 0.976206 1.10039 0
M  V30 10203 H 954.376 0.377742 4.15486 0
M  V30 10204 H 953.006 -0.271907 3.21653 0
M  V30 10205 H 952.058 2.14685 3.14029 0
M  V30 10206 H 953.37 2.63122 4.23755 0
M  V30 10207 H 952.524 1.04237 5.97678 0
M  V30 10208 H 951.263 0.456143 4.85562 0
M  V30 10209 H 950.268 2.75884 4.75571 0
M  V30 10210 H 951.493 3.34283 5.91127 0
M  V30 10211 H 949.439 1.16583 6.45558 0
M  V30 10212 H 949.356 2.80182 7.02164 0
M  V30 10213 H 950.624 1.75937 7.59386 0
M  V30 10214 N 954.853 -1.17469 1.05066 0
M  V30 10215 C 955.801 -2.23495 0.644418 0
M  V30 10216 C 956.795 -1.66081 -0.333685 0
M  V30 10217 O 958.001 -1.78887 -0.199886 0
M  V30 10218 H 954.376 -0.727546 0.190214 0
M  V30 10219 H 956.347 -2.55058 1.5488 0
M  V30 10220 C 955.096 -3.47684 0.0338051 0
M  V30 10221 H 954.419 -3.92167 0.777513 0
M  V30 10222 H 955.859 -4.23464 -0.213086 0
M  V30 10223 C 954.318 -3.14067 -1.21915 0
M  V30 10224 O 954.848 -3.28728 -2.3087 0
M  V30 10225 N 953.054 -2.68304 -1.11631 0
M  V30 10226 H 952.601 -2.56574 -0.229673 0
M  V30 10227 H 952.559 -2.46184 -1.95553 0
M  V30 10228 N 956.331 -0.831506 -1.3388 0
M  V30 10229 C 957.278 -0.257449 -2.2936 0
M  V30 10230 C 958.248 0.622604 -1.5399 0
M  V30 10231 O 959.433 0.562432 -1.82322 0
M  V30 10232 C 956.573 0.567587 -3.404 0
M  V30 10233 C 955.686 -0.335666 -4.30694 0
M  V30 10234 C 954.821 0.499762 -5.28844 0
M  V30 10235 C 953.86 -0.402343 -6.10776 0
M  V30 10236 N 952.997 0.39452 -7.00991 0
M  V30 10237 H 957.837 -1.077 -2.77857 0
M  V30 10238 H 955.374 -0.542589 -1.36727 0
M  V30 10239 H 957.332 1.06133 -4.03474 0
M  V30 10240 H 955.962 1.35217 -2.93115 0
M  V30 10241 H 955.014 -0.94768 -3.68406 0
M  V30 10242 H 956.326 -1.02896 -4.88072 0
M  V30 10243 H 955.48 1.05763 -5.9741 0
M  V30 10244 H 954.219 1.22652 -4.72025 0
M  V30 10245 H 953.224 -0.972288 -5.41135 0
M  V30 10246 H 954.449 -1.12735 -6.69677 0
M  V30 10247 H 952.395 1.1048 -6.4663 0
M  V30 10248 H 952.312 -0.240209 -7.55618 0
M  V30 10249 H 953.58 0.934867 -7.73874 0
M  V30 10250 N 957.809 1.4625 -0.587256 0
M  V30 10251 C 958.757 2.32076 0.156108 0
M  V30 10252 C 959.751 1.44756 0.879887 0
M  V30 10253 O 960.957 1.61356 0.797759 0
M  V30 10254 H 957.332 0.748808 0.0692098 0
M  V30 10255 H 959.303 2.9258 -0.586497 0
M  V30 10256 C 958.052 3.28008 1.15352 0
M  V30 10257 H 957.375 3.9518 0.60601 0
M  V30 10258 H 958.815 3.90832 1.64396 0
M  V30 10259 C 957.274 2.53691 2.21681 0
M  V30 10260 O 957.804 2.30329 3.29107 0
M  V30 10261 N 956.01 2.14174 1.96412 0
M  V30 10262 H 955.557 2.33374 1.09061 0
M  V30 10263 H 955.515 1.6477 2.67765 0
M  V30 10264 N 959.287 0.325282 1.54207 0
M  V30 10265 C 960.512 -0.281418 2.05482 0
M  V30 10266 C 960.937 -1.44869 1.19977 0
M  V30 10267 O 960.295 -1.80088 0.209275 0
M  V30 10268 C 960.343 -0.692029 3.53897 0
M  V30 10269 O 959.447 -1.7942 3.71325 0
M  V30 10270 H 958.788 -0.0504872 0.662078 0
M  V30 10271 H 961.318 0.474191 1.99029 0
M  V30 10272 H 961.328 -0.974219 3.96198 0
M  V30 10273 H 960.003 0.161709 4.15586 0
M  V30 10274 H 958.58 -1.51069 3.40929 0
M  V30 10275 N 960.765 -1.57509 0.0534917 0
M  V30 10276 C 962.014 -1.91959 -0.619244 0
M  V30 10277 C 962.327 -0.933882 -1.71866 0
M  V30 10278 O 963.533 -1.17052 -2.44972 0
M  V30 10279 C 961.989 -3.40938 -1.15278 0
M  V30 10280 C 961.597 -4.47919 -0.085348 0
M  V30 10281 C 963.341 -3.84419 -1.80063 0
M  V30 10282 C 961.248 -5.88014 -0.631897 0
M  V30 10283 H 960.178 -0.71642 -0.235072 0
M  V30 10284 H 962.829 -1.83089 0.122758 0
M  V30 10285 H 961.211 -3.44821 -1.94717 0
M  V30 10286 H 962.385 -4.55629 0.688374 0
M  V30 10287 H 960.7 -4.13793 0.465178 0
M  V30 10288 H 963.297 -4.86457 -2.21954 0
M  V30 10289 H 963.64 -3.20791 -2.65328 0
M  V30 10290 H 964.173 -3.83062 -1.07275 0
M  V30 10291 H 960.912 -6.55244 0.183175 0
M  V30 10292 H 960.432 -5.83861 -1.37355 0
M  V30 10293 H 962.111 -6.37336 -1.11407 0
M  V30 10294 N 962.243 0.219913 -1.56058 0
M  V30 10295 C 963.489 0.945463 -1.79412 0
M  V30 10296 C 963.822 1.83922 -0.62341 0
M  V30 10297 O 963.097 1.90806 0.377256 0
M  V30 10298 C 963.38 1.783 -3.1286 0
M  V30 10299 C 963.233 0.915626 -4.40382 0
M  V30 10300 C 964.552 2.76045 -3.42764 0
M  V30 10301 H 961.671 0.342288 -0.652693 0
M  V30 10302 H 964.313 0.214235 -1.88788 0
M  V30 10303 H 962.463 2.40642 -3.04998 0
M  V30 10304 H 964.135 0.30882 -4.60265 0
M  V30 10305 H 962.378 0.221124 -4.33236 0
M  V30 10306 H 963.049 1.53607 -5.30197 0
M  V30 10307 H 965.525 2.23838 -3.50764 0
M  V30 10308 H 964.401 3.31748 -4.37304 0
M  V30 10309 H 964.662 3.53866 -2.65012 0
M  V30 10310 N 963.721 1.49897 0.486681 0
M  V30 10311 C 964.998 1.50614 1.24799 0
M  V30 10312 C 965.378 0.24193 2.09709 0
M  V30 10313 O 964.726 -0.775237 2.14947 0
M  V30 10314 C 964.936 2.79318 2.09243 0
M  V30 10315 C 966.284 3.29371 2.67955 0
M  V30 10316 O 967.308 2.80533 2.19499 0
M  V30 10317 O 966.167 4.14466 3.56202 0
M  V30 10318 H 963.261 0.603447 0.565491 0
M  V30 10319 H 965.807 1.62174 0.499778 0
M  V30 10320 H 964.579 3.62812 1.46572 0
M  V30 10321 H 964.202 2.70687 2.91229 0
M  V30 10322 N 965.199 -0.738761 1.39212 0
M  V30 10323 C 966.61 -1.31684 1.32348 0
M  V30 10324 C 966.961 -1.96195 -0.0139041 0
M  V30 10325 O 966.086 -1.96056 -0.916025 0
M  V30 10326 C 966.681 -2.39444 2.39691 0
M  V30 10327 C 965.24 -2.92935 2.36359 0
M  V30 10328 C 964.387 -1.66465 2.21776 0
M  V30 10329 H 967.338 -0.536543 1.49355 0
M  V30 10330 H 967.359 -3.19744 2.06262 0
M  V30 10331 H 966.871 -1.92463 3.37016 0
M  V30 10332 H 964.972 -3.44207 1.42662 0
M  V30 10333 H 965.085 -3.46306 3.31073 0
M  V30 10334 H 963.449 -1.90657 1.68884 0
M  V30 10335 H 964.232 -1.21541 3.21065 0
M  V30 10336 N 966.677 -1.24326 -0.968545 0
M  V30 10337 C 967.624 -1.0349 -2.06297 0
M  V30 10338 C 968.594 0.0515333 -1.6602 0
M  V30 10339 O 969.779 -0.102924 -1.90522 0
M  V30 10340 C 966.919 -0.64487 -3.39021 0
M  V30 10341 C 966.032 -1.80469 -3.92498 0
M  V30 10342 C 965.167 -1.36032 -5.13487 0
M  V30 10343 C 964.206 -2.49014 -5.59159 0
M  V30 10344 N 963.343 -2.05451 -6.71367 0
M  V30 10345 H 968.183 -1.97161 -2.23454 0
M  V30 10346 H 965.72 -0.982028 -1.0952 0
M  V30 10347 H 967.678 -0.399771 -4.1528 0
M  V30 10348 H 966.308 0.254845 -3.21792 0
M  V30 10349 H 965.36 -2.16348 -3.12886 0
M  V30 10350 H 966.672 -2.65365 -4.22354 0
M  V30 10351 H 965.826 -1.07405 -5.97117 0
M  V30 10352 H 964.565 -0.481887 -4.85313 0
M  V30 10353 H 963.57 -2.78402 -4.74102 0
M  V30 10354 H 964.795 -3.37413 -5.89346 0
M  V30 10355 H 962.741 -1.20004 -6.4493 0
M  V30 10356 H 962.658 -2.83901 -7.00668 0
M  V30 10357 H 963.926 -1.79962 -7.58442 0
M  V30 10358 N 968.156 1.1691 -1.05688 0
M  V30 10359 C 969.402 1.8757 -0.771071 0
M  V30 10360 C 969.735 1.8113 0.700399 0
M  V30 10361 O 969.01 1.22273 1.5126 0
M  V30 10362 C 969.293 3.37392 -1.25851 0
M  V30 10363 C 969.146 3.52556 -2.79329 0
M  V30 10364 C 970.465 4.31585 -0.861512 0
M  V30 10365 H 967.584 0.681089 -0.281579 0
M  V30 10366 H 970.226 1.37453 -1.31174 0
M  V30 10367 H 968.376 3.80204 -0.798563 0
M  V30 10368 H 970.048 3.18725 -3.33485 0
M  V30 10369 H 968.291 2.94668 -3.1836 0
M  V30 10370 H 968.962 4.57748 -3.08498 0
M  V30 10371 H 971.438 3.96642 -1.25756 0
M  V30 10372 H 970.314 5.34939 -1.23012 0
M  V30 10373 H 970.575 4.4148 0.234089 0
M  V30 10374 N 969.634 0.838594 1.33437 0
M  V30 10375 C 970.862 0.447644 2.01999 0
M  V30 10376 C 971.277 -0.951053 1.63096 0
M  V30 10377 O 970.634 -1.61802 0.844169 0
M  V30 10378 C 970.685 0.558378 3.57162 0
M  V30 10379 O 970.406 1.90196 3.94661 0
M  V30 10380 C 971.907 0.164348 4.42995 0
M  V30 10381 H 969.127 0.177736 0.647032 0
M  V30 10382 H 971.671 1.13109 1.70372 0
M  V30 10383 H 969.826 -0.0771563 3.87323 0
M  V30 10384 H 970.24 1.88729 4.89369 0
M  V30 10385 H 971.714 0.292876 5.51222 0
M  V30 10386 H 972.191 -0.893713 4.30011 0
M  V30 10387 H 972.797 0.774306 4.18192 0
M  V30 10388 N 971.112 -1.45937 0.595003 0
M  V30 10389 C 972.358 -2.0262 0.0854317 0
M  V30 10390 C 972.691 -1.46402 -1.27594 0
M  V30 10391 O 971.966 -0.633823 -1.83883 0
M  V30 10392 C 972.249 -3.60085 0.0329075 0
M  V30 10393 C 972.102 -4.26663 1.42405 0
M  V30 10394 C 973.421 -4.35101 -0.661426 0
M  V30 10395 H 970.54 -0.736282 0.0325196 0
M  V30 10396 H 973.182 -1.73938 0.764563 0
M  V30 10397 H 971.332 -3.84652 -0.545439 0
M  V30 10398 H 973.004 -4.13321 2.04851 0
M  V30 10399 H 971.247 -3.85549 1.98833 0
M  V30 10400 H 971.918 -5.35497 1.33965 0
M  V30 10401 H 974.394 -4.15753 -0.169977 0
M  V30 10402 H 973.27 -5.44829 -0.667243 0
M  V30 10403 H 973.531 -4.07053 -1.72513 0
M  V30 10404 N 972.59 -0.333456 -1.54032 0
M  V30 10405 C 973.5 0.536674 -2.28379 0
M  V30 10406 C 974.516 1.12068 -1.33104 0
M  V30 10407 O 975.692 1.13853 -1.66131 0
M  V30 10408 C 972.757 1.67677 -3.03456 0
M  V30 10409 C 971.818 1.12357 -4.14336 0
M  V30 10410 C 971.051 2.20933 -4.85823 0
M  V30 10411 O 971.274 3.41466 -4.569 0
M  V30 10412 O 970.208 1.85795 -5.72507 0
M  V30 10413 H 974.034 -0.0674003 -3.03625 0
M  V30 10414 H 971.619 -0.098823 -1.49073 0
M  V30 10415 H 973.501 2.34032 -3.50438 0
M  V30 10416 H 972.176 2.26684 -2.31076 0
M  V30 10417 H 971.083 0.424827 -3.7168 0
M  V30 10418 H 972.416 0.578497 -4.88789 0
M  V30 10419 N 974.068 1.57479 -0.061844 0
M  V30 10420 C 975.317 1.92285 0.609055 0
M  V30 10421 C 975.63 0.942983 1.71369 0
M  V30 10422 O 976.836 1.18349 2.44348 0
M  V30 10423 C 975.292 3.41545 1.13468 0
M  V30 10424 C 974.9 4.47958 0.0615926 0
M  V30 10425 C 976.644 3.85368 1.78022 0
M  V30 10426 C 974.551 5.88341 0.600705 0
M  V30 10427 H 973.481 0.717656 0.23127 0
M  V30 10428 H 976.132 1.83021 -0.132466 0
M  V30 10429 H 974.514 3.45848 1.92886 0
M  V30 10430 H 975.688 4.55258 -0.712527 0
M  V30 10431 H 974.003 4.13541 -0.487116 0
M  V30 10432 H 976.6 4.87627 2.19371 0
M  V30 10433 H 976.943 3.22193 2.63623 0
M  V30 10434 H 977.476 3.83626 1.05242 0
M  V30 10435 H 974.215 6.55138 -0.217922 0
M  V30 10436 H 973.735 5.84581 1.34257 0
M  V30 10437 H 975.414 6.37918 1.08025 0
M  V30 10438 N 975.546 -0.211634 1.56173 0
M  V30 10439 C 976.496 -1.26602 1.8962 0
M  V30 10440 C 977.48 -1.41808 0.760222 0
M  V30 10441 O 978.672 -1.44456 1.02281 0
M  V30 10442 C 975.801 -2.61438 2.22497 0
M  V30 10443 C 974.887 -2.50094 3.42511 0
M  V30 10444 N 975.278 -2.0841 4.60868 0
M  V30 10445 C 973.576 -2.81028 3.46322 0
M  V30 10446 C 974.277 -2.08557 5.43028 0
M  V30 10447 N 973.253 -2.49427 4.82998 0
M  V30 10448 H 977.055 -0.934806 2.78637 0
M  V30 10449 H 974.569 -0.420154 1.56871 0
M  V30 10450 H 976.566 -3.37577 2.44638 0
M  V30 10451 H 975.226 -2.95397 1.34798 0
M  V30 10452 H 976.237 -1.79382 4.85842 0
M  V30 10453 H 972.914 -3.19294 2.68994 0
M  V30 10454 H 974.304 -1.7837 6.47791 0
M  V30 10455 N 977.024 -1.50153 -0.478725 0
M  V30 10456 C 978.272 -1.60443 -1.22892 0
M  V30 10457 C 978.593 -0.303276 -1.92627 0
M  V30 10458 O 977.863 0.678798 -1.83764 0
M  V30 10459 H 976.443 -0.591205 -0.456602 0
M  V30 10460 H 979.105 -1.86893 -0.552905 0
M  V30 10461 H 978.201 -2.41175 -1.98094 0
M  V30 10462 N 978.502 0.731368 -1.39602 0
M  V30 10463 C 979.748 1.49321 -1.37227 0
M  V30 10464 C 980.081 1.94176 0.0306502 0
M  V30 10465 O 979.356 1.67046 0.996294 0
M  V30 10466 C 979.639 2.73035 -2.34784 0
M  V30 10467 C 979.492 2.34176 -3.84033 0
M  V30 10468 C 980.811 3.75146 -2.30116 0
M  V30 10469 H 977.93 0.541652 -0.499783 0
M  V30 10470 H 980.572 0.835968 -1.70621 0
M  V30 10471 H 978.722 3.29114 -2.06437 0
M  V30 10472 H 980.394 1.83701 -4.23145 0
M  V30 10473 H 978.637 1.66361 -4.00633 0
M  V30 10474 H 979.308 3.22786 -4.47787 0
M  V30 10475 H 981.784 3.28661 -2.55189 0
M  V30 10476 H 980.66 4.5937 -3.00451 0
M  V30 10477 H 980.921 4.22326 -1.30741 0
M  V30 10478 N 979.98 1.24838 0.961938 0
M  V30 10479 C 981.205 1.11967 1.7458 0
M  V30 10480 C 981.63 -0.323287 1.85301 0
M  V30 10481 O 980.988 -1.23412 1.32812 0
M  V30 10482 C 981.036 1.77066 3.14134 0
M  V30 10483 O 980.14 1.04534 3.98932 0
M  V30 10484 H 979.481 0.391338 0.536424 0
M  V30 10485 H 982.011 1.65259 1.20626 0
M  V30 10486 H 982.021 1.83056 3.64629 0
M  V30 10487 H 980.696 2.82052 3.05646 0
M  V30 10488 H 979.273 1.06372 3.57407 0
M  V30 10489 N 981.458 -1.16348 1.06306 0
M  V30 10490 C 982.874 -1.38873 0.786543 0
M  V30 10491 C 983.074 -1.91915 -0.614061 0
M  V30 10492 O 982.13 -2.11804 -1.3746 0
M  V30 10493 C 983.443 -2.36936 1.85154 0
M  V30 10494 C 984.991 -2.5062 1.87506 0
M  V30 10495 C 985.466 -3.51965 2.9306 0
M  V30 10496 N 986.957 -3.59492 2.92095 0
M  V30 10497 C 987.692 -4.37699 3.70415 0
M  V30 10498 N 987.188 -5.19327 4.58553 0
M  V30 10499 N 988.981 -4.32683 3.58806 0
M  V30 10500 H 981.132 -0.802542 1.96655 0
M  V30 10501 H 983.395 -0.415304 0.852189 0
M  V30 10502 H 983.101 -2.05056 2.85736 0
M  V30 10503 H 982.975 -3.36585 1.70267 0
M  V30 10504 H 985.362 -2.81804 0.875827 0
M  V30 10505 H 985.443 -1.51006 2.06472 0
M  V30 10506 H 985.087 -3.21518 3.93177 0
M  V30 10507 H 985.017 -4.51309 2.71344 0
M  V30 10508 H 987.508 -3.01222 2.28197 0
M  V30 10509 H 987.821 -5.76216 5.1497 0
M  V30 10510 H 986.166 -5.1867 4.62608 0
M  V30 10511 H 989.357 -3.67971 2.89335 0
M  V30 10512 H 989.53 -4.93386 4.20088 0
M  V30 10513 N 982.937 -0.845659 -1.3299 0
M  V30 10514 C 984.214 -0.366306 -1.92139 0
M  V30 10515 C 984.594 1.14912 -1.77083 0
M  V30 10516 O 983.942 1.96667 -1.16338 0
M  V30 10517 C 984.152 -0.820716 -3.39213 0
M  V30 10518 C 985.5 -0.832667 -4.16355 0
M  V30 10519 O 986.524 -0.764764 -3.47893 0
M  V30 10520 O 985.383 -0.926658 -5.38586 0
M  V30 10521 H 982.477 -0.105063 -0.820299 0
M  V30 10522 H 985.023 -0.931962 -1.41819 0
M  V30 10523 H 983.795 -1.86357 -3.44074 0
M  V30 10524 H 983.418 -0.232009 -3.96923 0
M  V30 10525 N 984.415 1.45619 -0.602734 0
M  V30 10526 C 985.661 2.02572 -0.0961759 0
M  V30 10527 C 985.994 1.47076 1.26815 0
M  V30 10528 O 985.269 0.643566 1.83544 0
M  V30 10529 C 985.552 3.60062 -0.0520032 0
M  V30 10530 C 985.405 4.25901 -1.44665 0
M  V30 10531 C 986.724 4.35446 0.638342 0
M  V30 10532 H 983.843 0.736099 -0.0364238 0
M  V30 10533 H 986.485 1.7353 -0.773776 0
M  V30 10534 H 984.635 3.84936 0.525032 0
M  V30 10535 H 986.307 4.12228 -2.0704 0
M  V30 10536 H 984.55 3.84489 -2.00874 0
M  V30 10537 H 985.221 5.34779 -1.36803 0
M  V30 10538 H 987.697 4.15837 0.147926 0
M  V30 10539 H 986.573 5.45176 0.63834 0
M  V30 10540 H 986.834 4.07962 1.70351 0
M  V30 10541 N 985.893 0.34162 1.53853 0
M  V30 10542 C 986.856 -0.503541 2.236 0
M  V30 10543 C 987.856 -1.02912 1.23554 0
M  V30 10544 O 989.046 -0.918678 1.48007 0
M  V30 10545 C 986.178 -1.70126 2.95415 0
M  V30 10546 H 987.371 0.106437 2.99711 0
M  V30 10547 H 984.924 0.0929408 1.56023 0
M  V30 10548 H 985.659 -2.34999 2.23486 0
M  V30 10549 H 985.444 -1.33161 3.68796 0
M  V30 10550 H 986.934 -2.30077 3.48503 0
M  V30 10551 N 987.371 -1.57444 0.0701946 0
M  V30 10552 C 988.596 -1.98171 -0.61181 0
M  V30 10553 C 989.021 -0.94823 -1.62451 0
M  V30 10554 O 988.379 0.0863553 -1.81094 0
M  V30 10555 C 988.427 -3.37934 -1.2583 0
M  V30 10556 O 987.531 -3.37207 -2.37414 0
M  V30 10557 H 986.872 -0.645056 -0.157477 0
M  V30 10558 H 989.402 -2.04091 0.144235 0
M  V30 10559 H 989.412 -3.75083 -1.60552 0
M  V30 10560 H 988.087 -4.12684 -0.516234 0
M  V30 10561 H 986.664 -3.11826 -2.04497 0
M  V30 10562 N 988.849 0.203349 -1.56283 0
M  V30 10563 C 990.265 0.55384 -1.49682 0
M  V30 10564 C 990.465 1.86261 -0.768701 0
M  V30 10565 O 989.521 2.50517 -0.315824 0
M  V30 10566 C 990.834 0.616216 -2.94318 0
M  V30 10567 C 992.382 0.705611 -3.04943 0
M  V30 10568 C 992.857 0.79917 -4.50974 0
M  V30 10569 N 994.348 0.862916 -4.55091 0
M  V30 10570 C 995.083 0.955334 -5.65386 0
M  V30 10571 N 994.579 1.01057 -6.8539 0
M  V30 10572 N 996.372 0.991884 -5.53279 0
M  V30 10573 H 988.523 -0.655244 -2.0204 0
M  V30 10574 H 990.786 -0.232344 -0.919087 0
M  V30 10575 H 990.492 -0.27619 -3.50614 0
M  V30 10576 H 990.366 1.47371 -3.4722 0
M  V30 10577 H 992.753 1.58845 -2.48701 0
M  V30 10578 H 992.834 -0.177921 -2.5518 0
M  V30 10579 H 992.478 -0.0792841 -5.07838 0
M  V30 10580 H 992.408 1.69838 -4.9846 0
M  V30 10581 H 994.899 0.829812 -3.68677 0
M  V30 10582 H 995.212 1.08137 -7.65197 0
M  V30 10583 H 993.557 0.979384 -6.88065 0
M  V30 10584 H 996.748 0.945514 -4.58451 0
M  V30 10585 H 996.921 1.06045 -6.39264 0
M  V30 10586 N 990.327 1.50405 0.470755 0
M  V30 10587 C 991.259 1.65447 1.58619 0
M  V30 10588 C 992.272 0.535949 1.53725 0
M  V30 10589 O 993.461 0.80914 1.59107 0
M  V30 10590 C 990.561 1.62318 2.975 0
M  V30 10591 C 989.734 2.90207 3.27259 0
M  V30 10592 C 988.793 2.79717 4.45696 0
M  V30 10593 O 987.819 3.53672 4.45987 0
M  V30 10594 N 989.021 1.93296 5.47373 0
M  V30 10595 H 991.786 2.61659 1.46132 0
M  V30 10596 H 989.347 1.47873 0.659178 0
M  V30 10597 H 991.339 1.52912 3.747 0
M  V30 10598 H 989.909 0.738392 3.03754 0
M  V30 10599 H 989.129 3.13737 2.38669 0
M  V30 10600 H 990.417 3.74931 3.43953 0
M  V30 10601 H 989.815 1.32524 5.49958 0
M  V30 10602 H 988.372 1.89793 6.23556 0
M  V30 10603 N 991.805 -0.723954 1.39988 0
M  V30 10604 C 993.033 -1.51313 1.4111 0
M  V30 10605 C 993.448 -1.88798 0.00853333 0
M  V30 10606 O 992.805 -1.54868 -0.965516 0
M  V30 10607 C 992.856 -2.79375 2.29416 0
M  V30 10608 O 992.577 -2.43478 3.64211 0
M  V30 10609 C 994.078 -3.7333 2.3904 0
M  V30 10610 H 991.298 -0.46724 0.481589 0
M  V30 10611 H 993.842 -0.893694 1.83938 0
M  V30 10612 H 991.997 -3.37624 1.89971 0
M  V30 10613 H 992.411 -3.25821 4.11024 0
M  V30 10614 H 993.885 -4.60051 3.05053 0
M  V30 10615 H 994.362 -4.15854 1.41289 0
M  V30 10616 H 994.968 -3.20996 2.79001 0
M  V30 10617 N 993.283 -1.25346 -0.955304 0
M  V30 10618 C 994.246 -1.05754 -2.03344 0
M  V30 10619 C 995.246 -0.0105743 -1.60797 0
M  V30 10620 O 996.436 -0.252699 -1.72357 0
M  V30 10621 C 993.568 -0.605536 -3.35479 0
M  V30 10622 H 994.761 -2.01459 -2.22158 0
M  V30 10623 H 992.314 -1.07744 -1.1323 0
M  V30 10624 H 993.049 0.354154 -3.2236 0
M  V30 10625 H 992.834 -1.36134 -3.67709 0
M  V30 10626 H 994.324 -0.489867 -4.14717 0
M  V30 10627 N 994.761 1.15782 -1.06922 0
M  V30 10628 C 996.007 1.86741 -0.790922 0
M  V30 10629 C 996.34 1.81863 0.681149 0
M  V30 10630 O 995.615 1.23871 1.49954 0
M  V30 10631 C 995.898 3.36038 -1.29422 0
M  V30 10632 C 995.751 3.49573 -2.83052 0
M  V30 10633 C 997.07 4.30647 -0.907239 0
M  V30 10634 H 994.189 0.678064 -0.288787 0
M  V30 10635 H 996.831 1.36054 -1.32624 0
M  V30 10636 H 994.981 3.79336 -0.838843 0
M  V30 10637 H 996.653 3.1517 -3.36847 0
M  V30 10638 H 994.896 2.91275 -3.21467 0
M  V30 10639 H 995.567 4.5445 -3.13335 0
M  V30 10640 H 998.043 3.95286 -1.29956 0
M  V30 10641 H 996.919 5.33604 -1.28679 0
M  V30 10642 H 997.18 4.41703 0.187251 0
M  V30 10643 N 996.239 0.8527 1.3254 0
M  V30 10644 C 997.488 0.45136 1.96585 0
M  V30 10645 C 997.801 -0.997773 1.68237 0
M  V30 10646 O 999.007 -1.50445 2.26006 0
M  V30 10647 C 997.463 0.75619 3.51866 0
M  V30 10648 C 997.071 2.22092 3.89075 0
M  V30 10649 C 998.815 0.422478 4.22392 0
M  V30 10650 C 996.722 2.46908 5.37392 0
M  V30 10651 H 995.652 0.165052 0.735713 0
M  V30 10652 H 998.303 1.04321 1.50962 0
M  V30 10653 H 996.685 0.0937988 3.95889 0
M  V30 10654 H 997.859 2.92494 3.56067 0
M  V30 10655 H 996.174 2.51896 3.31568 0
M  V30 10656 H 998.771 0.58533 5.31487 0
M  V30 10657 H 999.114 -0.635737 4.11417 0
M  V30 10658 H 999.647 1.04068 3.83946 0
M  V30 10659 H 996.386 3.51346 5.53386 0
M  V30 10660 H 995.906 1.81082 5.71812 0
M  V30 10661 H 997.585 2.30758 6.0445 0
M  V30 10662 N 997.718 -1.45297 0.610449 0
M  V30 10663 C 998.946 -2.0659 0.113211 0
M  V30 10664 C 999.361 -1.4546 -1.20361 0
M  V30 10665 O 998.718 -0.569823 -1.73376 0
M  V30 10666 C 998.769 -3.61488 -0.0298411 0
M  V30 10667 O 998.49 -4.20336 1.23488 0
M  V30 10668 C 999.991 -4.39772 -0.558202 0
M  V30 10669 H 997.211 -0.667322 0.0701555 0
M  V30 10670 H 999.755 -1.86497 0.838993 0
M  V30 10671 H 997.91 -3.80913 -0.705963 0
M  V30 10672 H 998.324 -5.13545 1.0664 0
M  V30 10673 H 999.798 -5.48648 -0.607375 0
M  V30 10674 H 1000.27 -4.09755 -1.58107 0
M  V30 10675 H 1000.88 -4.25217 0.0839704 0
M  V30 10676 N 999.196 -0.349774 -1.5367 0
M  V30 10677 C 1000.14 0.519396 -2.26727 0
M  V30 10678 C 1001.14 1.09673 -1.29105 0
M  V30 10679 O 1002.34 1.04176 -1.46791 0
M  V30 10680 H 998.719 0.186192 -0.728585 0
M  V30 10681 H 1000.69 -0.118736 -2.98164 0
M  V30 10682 C 999.439 1.65535 -3.05767 0
M  V30 10683 H 998.762 1.22038 -3.80719 0
M  V30 10684 H 1000.2 2.23856 -3.6009 0
M  V30 10685 C 998.661 2.58844 -2.15642 0
M  V30 10686 O 999.191 3.61254 -1.75665 0
M  V30 10687 N 997.397 2.27671 -1.80595 0
M  V30 10688 H 996.944 1.44429 -2.13302 0
M  V30 10689 H 996.902 2.90359 -1.20577 0
M  V30 10690 N 1000.67 1.57404 -0.0785433 0
M  V30 10691 C 1001.62 2.14316 0.903949 0
M  V30 10692 C 1002.62 1.08176 1.30362 0
M  V30 10693 O 1003.82 1.26546 1.28008 0
M  V30 10694 H 1000.2 0.685367 0.309477 0
M  V30 10695 H 1002.17 2.95719 0.399081 0
M  V30 10696 C 1000.92 2.72504 2.15956 0
M  V30 10697 H 1000.24 3.53853 1.86087 0
M  V30 10698 H 1001.68 3.15914 2.82798 0
M  V30 10699 C 1000.14 1.6759 2.92259 0
M  V30 10700 O 1000.67 1.10492 3.86205 0
M  V30 10701 N 998.875 1.38467 2.5549 0
M  V30 10702 H 998.422 1.85088 1.79166 0
M  V30 10703 H 998.38 0.685053 3.06846 0
M  V30 10704 N 1002.15 -0.195058 1.56388 0
M  V30 10705 C 1003.4 -0.913636 1.8027 0
M  V30 10706 C 1003.72 -1.83791 0.651606 0
M  V30 10707 O 1002.99 -1.931 -0.330057 0
M  V30 10708 H 1001.57 -0.34036 0.664954 0
M  V30 10709 H 1004.23 -0.200559 1.93865 0
M  V30 10710 H 1003.33 -1.50473 2.7343 0
M  V30 10711 N 1003.63 -1.50653 -0.462772 0
M  V30 10712 C 1004.88 -1.62057 -1.21424 0
M  V30 10713 C 1005.2 -0.324778 -1.91769 0
M  V30 10714 O 1004.46 0.689828 -1.83139 0
M  V30 10715 C 1004.76 -2.75637 -2.27507 0
M  V30 10716 C 1004.42 -4.15826 -1.74354 0
M  V30 10717 C 1003.09 -4.53969 -1.5958 0
M  V30 10718 C 1005.44 -5.03409 -1.35012 0
M  V30 10719 C 1002.77 -5.77427 -1.03899 0
M  V30 10720 C 1005.12 -6.27422 -0.807704 0
M  V30 10721 C 1003.78 -6.6436 -0.646657 0
M  V30 10722 H 1003.05 -0.59301 -0.44432 0
M  V30 10723 H 1005.7 -1.84612 -0.508999 0
M  V30 10724 H 1004 -2.47203 -3.0397 0
M  V30 10725 H 1005.7 -2.81663 -2.85424 0
M  V30 10726 H 1002.29 -3.85739 -1.86823 0
M  V30 10727 H 1006.48 -4.74567 -1.45258 0
M  V30 10728 H 1001.73 -6.04713 -0.901751 0
M  V30 10729 H 1005.91 -6.94644 -0.494234 0
M  V30 10730 H 1003.53 -7.59901 -0.213053 0
M  V30 10731 N 1005.11 0.71652 -1.4037 0
M  V30 10732 C 1006.06 1.85194 -1.40734 0
M  V30 10733 C 1007.05 1.66934 -0.287969 0
M  V30 10734 O 1008.26 1.74051 -0.458957 0
M  V30 10735 H 1004.63 0.609922 -0.439885 0
M  V30 10736 H 1006.6 1.82003 -2.36468 0
M  V30 10737 C 1005.35 3.23048 -1.28589 0
M  V30 10738 H 1004.67 3.37704 -2.13999 0
M  V30 10739 H 1006.11 4.02633 -1.32902 0
M  V30 10740 C 1004.57 3.369 0.00396512 0
M  V30 10741 O 1005.1 3.89881 0.967243 0
M  V30 10742 N 1003.31 2.90508 0.0731565 0
M  V30 10743 H 1002.86 2.4758 -0.711454 0
M  V30 10744 H 1002.81 3.00155 0.935652 0
M  V30 10745 N 1006.59 1.25851 0.948643 0
M  V30 10746 C 1008 1.09975 1.50872 0
M  V30 10747 C 1008.35 -0.322497 1.93531 0
M  V30 10748 O 1007.47 -1.21316 1.79197 0
M  V30 10749 C 1008.07 1.99021 2.74182 0
M  V30 10750 C 1006.63 1.87313 3.26483 0
M  V30 10751 C 1005.77 1.92815 1.99293 0
M  V30 10752 H 1008.73 1.3905 0.764908 0
M  V30 10753 H 1008.75 1.53372 3.4822 0
M  V30 10754 H 1008.26 3.02527 2.43103 0
M  V30 10755 H 1006.36 0.867136 3.62369 0
M  V30 10756 H 1006.47 2.72446 3.94094 0
M  V30 10757 H 1004.84 1.36774 2.1486 0
M  V30 10758 H 1005.62 2.97936 1.70554 0
M  V30 10759 N 1008.06 -1.15214 1.07534 0
M  V30 10760 C 1009.31 -1.86548 0.810651 0
M  V30 10761 C 1009.67 -1.80863 -0.656236 0
M  V30 10762 O 1008.96 -1.22216 -1.47559 0
M  V30 10763 C 1009.15 -3.34623 1.25547 0
M  V30 10764 C 1008.98 -3.54725 2.76406 0
M  V30 10765 C 1007.75 -3.70089 3.44038 0
M  V30 10766 C 1009.95 -3.52392 3.74599 0
M  V30 10767 N 1007.93 -3.78262 4.8352 0
M  V30 10768 C 1009.3 -3.66701 4.9993 0
M  V30 10769 C 1011.36 -3.35677 3.6773 0
M  V30 10770 C 1010.06 -3.66023 6.19209 0
M  V30 10771 C 1012.09 -3.36298 4.86475 0
M  V30 10772 C 1011.45 -3.51139 6.1064 0
M  V30 10773 H 1007.55 -0.699691 0.349223 0
M  V30 10774 H 1010.13 -1.3815 1.37196 0
M  V30 10775 H 1008.3 -3.81633 0.721837 0
M  V30 10776 H 1010.03 -3.93677 0.938126 0
M  V30 10777 H 1006.79 -3.70943 2.94446 0
M  V30 10778 H 1007.21 -3.86087 5.56117 0
M  V30 10779 H 1011.86 -3.2312 2.72678 0
M  V30 10780 H 1009.57 -3.77358 7.14581 0
M  V30 10781 H 1013.16 -3.2459 4.82838 0
M  V30 10782 H 1012.04 -3.51555 7.00984 0
M  V30 10783 N 1009.54 -0.859717 -1.32086 0
M  V30 10784 C 1010.79 -0.475565 -1.97762 0
M  V30 10785 C 1011.14 0.959348 -1.66776 0
M  V30 10786 O 1010.44 1.66484 -0.948343 0
M  V30 10787 C 1010.63 -0.657397 -3.51302 0
M  V30 10788 C 1010.46 -2.10843 -3.97209 0
M  V30 10789 C 1009.23 -2.74796 -4.24046 0
M  V30 10790 C 1011.43 -3.07959 -4.11905 0
M  V30 10791 N 1009.41 -4.10758 -4.56236 0
M  V30 10792 C 1010.78 -4.28922 -4.4769 0
M  V30 10793 C 1012.84 -3.04086 -3.94254 0
M  V30 10794 C 1011.54 -5.46518 -4.67665 0
M  V30 10795 C 1013.56 -4.20931 -4.15416 0
M  V30 10796 C 1012.93 -5.40654 -4.51522 0
M  V30 10797 H 1009.03 -0.222859 -0.749572 0
M  V30 10798 H 1011.61 -1.11217 -1.59809 0
M  V30 10799 H 1009.78 -0.0504597 -3.88367 0
M  V30 10800 H 1011.51 -0.242642 -4.03972 0
M  V30 10801 H 1008.27 -2.25805 -4.16304 0
M  V30 10802 H 1008.69 -4.80905 -4.76507 0
M  V30 10803 H 1013.33 -2.12641 -3.65436 0
M  V30 10804 H 1011.05 -6.3849 -4.95335 0
M  V30 10805 H 1014.64 -4.19376 -4.03255 0
M  V30 10806 H 1013.52 -6.29563 -4.67568 0
M  V30 10807 N 1011.02 1.44971 -0.618145 0
M  V30 10808 C 1012.3 1.95539 -0.0489895 0
M  V30 10809 C 1012.68 1.5604 1.42179 0
M  V30 10810 O 1012.03 0.82809 2.12967 0
M  V30 10811 C 1012.24 3.48044 -0.258193 0
M  V30 10812 C 1013.58 4.24354 -0.144541 0
M  V30 10813 O 1014.61 3.55699 -0.18887 0
M  V30 10814 O 1013.47 5.46486 -0.038519 0
M  V30 10815 H 1010.56 0.826466 0.0297256 0
M  V30 10816 H 1013.11 1.55086 -0.688944 0
M  V30 10817 H 1011.88 3.69798 -1.27926 0
M  V30 10818 H 1011.5 3.95412 0.416522 0
M  V30 10819 N 1012.5 0.357919 1.53482 0
M  V30 10820 C 1013.73 -0.23514 2.05559 0
M  V30 10821 C 1014.14 -1.43068 1.23195 0
M  V30 10822 O 1013.5 -1.80481 0.270741 0
M  V30 10823 C 1013.55 -0.636147 3.55859 0
M  V30 10824 O 1013.27 0.511864 4.35099 0
M  V30 10825 C 1014.77 -1.28841 4.24164 0
M  V30 10826 H 1011.99 -0.0428446 0.669631 0
M  V30 10827 H 1014.54 0.51407 1.97933 0
M  V30 10828 H 1012.69 -1.33528 3.63661 0
M  V30 10829 H 1013.1 0.189328 5.24158 0
M  V30 10830 H 1014.58 -1.51962 5.30671 0
M  V30 10831 H 1015.06 -2.24638 3.77405 0
M  V30 10832 H 1015.66 -0.630914 4.20594 0
M  V30 10833 N 1013.98 -1.5736 0.0868897 0
M  V30 10834 C 1014.89 -2.17087 -0.889402 0
M  V30 10835 C 1015.9 -1.13809 -1.31619 0
M  V30 10836 O 1017.08 -1.46143 -1.38579 0
M  V30 10837 C 1014.14 -2.73286 -2.13344 0
M  V30 10838 C 1013.2 -3.91491 -1.76164 0
M  V30 10839 C 1012.44 -4.45 -2.94637 0
M  V30 10840 O 1012.66 -3.97467 -4.09116 0
M  V30 10841 O 1011.59 -5.36133 -2.73579 0
M  V30 10842 H 1015.42 -3.00902 -0.411275 0
M  V30 10843 H 1013.01 -1.4877 -0.137015 0
M  V30 10844 H 1014.89 -3.0924 -2.86266 0
M  V30 10845 H 1013.56 -1.92521 -2.60225 0
M  V30 10846 H 1012.47 -3.60363 -1.00447 0
M  V30 10847 H 1013.8 -4.73593 -1.34053 0
M  V30 10848 N 1015.45 0.186762 -1.56489 0
M  V30 10849 C 1016.7 0.905852 -1.81109 0
M  V30 10850 C 1017.03 1.82906 -0.661477 0
M  V30 10851 O 1016.28 1.92504 0.35226 0
M  V30 10852 C 1016.58 1.74719 -3.11782 0
M  V30 10853 C 1016.25 0.974238 -4.40249 0
M  V30 10854 C 1014.91 0.760856 -4.75147 0
M  V30 10855 C 1017.26 0.430971 -5.19415 0
M  V30 10856 C 1014.59 -0.00714216 -5.867 0
M  V30 10857 C 1016.94 -0.323859 -6.3177 0
M  V30 10858 C 1015.61 -0.548183 -6.65245 0
M  V30 10859 H 1014.88 0.331475 -0.662726 0
M  V30 10860 H 1017.52 0.171703 -1.90729 0
M  V30 10861 H 1015.83 2.55027 -2.97437 0
M  V30 10862 H 1017.53 2.30634 -3.28038 0
M  V30 10863 H 1014.12 1.15057 -4.12868 0
M  V30 10864 H 1018.3 0.583205 -4.92861 0
M  V30 10865 H 1013.56 -0.190832 -6.11102 0
M  V30 10866 H 1017.73 -0.752155 -6.92326 0
M  V30 10867 H 1015.36 -1.14518 -7.51525 0
M  V30 10868 N 1016.93 1.50896 0.454776 0
M  V30 10869 C 1017.9 1.70377 1.53312 0
M  V30 10870 C 1018.9 0.57408 1.50203 0
M  V30 10871 O 1020.09 0.841374 1.52534 0
M  V30 10872 C 1017.22 1.74411 2.92905 0
M  V30 10873 H 1018.41 2.66599 1.37349 0
M  V30 10874 H 1015.96 1.40622 0.68228 0
M  V30 10875 H 1016.7 0.799408 3.14293 0
M  V30 10876 H 1016.48 2.56496 2.96568 0
M  V30 10877 H 1017.97 1.91382 3.71164 0
M  V30 10878 N 1018.41 -0.709066 1.40748 0
M  V30 10879 C 1019.66 -1.46901 1.39378 0
M  V30 10880 C 1019.99 -1.945 -0.0016993 0
M  V30 10881 O 1019.24 -1.68963 -0.987426 0
M  V30 10882 C 1019.54 -2.70543 2.33541 0
M  V30 10883 C 1019.21 -2.41674 3.80663 0
M  V30 10884 C 1017.87 -2.33511 4.20745 0
M  V30 10885 C 1020.22 -2.1759 4.73607 0
M  V30 10886 C 1017.55 -1.99342 5.51797 0
M  V30 10887 C 1019.9 -1.84933 6.04965 0
M  V30 10888 C 1018.56 -1.75256 6.44082 0
M  V30 10889 H 1017.83 -0.537549 0.510021 0
M  V30 10890 H 1020.48 -0.811635 1.7345 0
M  V30 10891 H 1018.79 -3.41149 1.92677 0
M  V30 10892 H 1020.48 -3.2865 2.29761 0
M  V30 10893 H 1017.07 -2.48917 3.4891 0
M  V30 10894 H 1021.26 -2.22849 4.43454 0
M  V30 10895 H 1016.51 -1.90392 5.81 0
M  V30 10896 H 1020.69 -1.65313 6.76494 0
M  V30 10897 H 1018.31 -1.48547 7.45545 0
M  V30 10898 N 1019.89 -1.26353 -0.941956 0
M  V30 10899 C 1020.8 -1.09618 -2.07415 0
M  V30 10900 C 1021.82 -0.0298963 -1.73974 0
M  V30 10901 O 1022.99 -0.233466 -2.00042 0
M  V30 10902 C 1020.06 -0.73013 -3.38925 0
M  V30 10903 C 1019.12 -1.87574 -3.86153 0
M  V30 10904 C 1018.35 -1.52706 -5.11387 0
M  V30 10905 O 1018.57 -0.428438 -5.68789 0
M  V30 10906 O 1017.51 -2.36154 -5.53638 0
M  V30 10907 H 1021.33 -2.04598 -2.2444 0
M  V30 10908 H 1018.92 -1.05407 -1.05876 0
M  V30 10909 H 1020.8 -0.538684 -4.17943 0
M  V30 10910 H 1019.48 0.190282 -3.2314 0
M  V30 10911 H 1018.38 -2.12214 -3.08084 0
M  V30 10912 H 1019.72 -2.77585 -4.06457 0
M  V30 10913 N 1021.37 1.14642 -1.08144 0
M  V30 10914 C 1022.61 1.85892 -0.810683 0
M  V30 10915 C 1022.95 1.82575 0.661821 0
M  V30 10916 O 1022.22 1.25454 1.48632 0
M  V30 10917 C 1022.5 3.34647 -1.32979 0
M  V30 10918 C 1022.36 3.46551 -2.86744 0
M  V30 10919 C 1023.68 4.29661 -0.952864 0
M  V30 10920 H 1020.8 0.674963 -0.295963 0
M  V30 10921 H 1023.44 1.3464 -1.3406 0
M  V30 10922 H 1021.59 3.78425 -0.87903 0
M  V30 10923 H 1023.26 3.11579 -3.40171 0
M  V30 10924 H 1021.5 2.87849 -3.24539 0
M  V30 10925 H 1022.17 4.51101 -3.18138 0
M  V30 10926 H 1024.65 3.93885 -1.34141 0
M  V30 10927 H 1023.53 5.32209 -1.34331 0
M  V30 10928 H 1023.79 4.41877 0.140392 0
M  V30 10929 N 1022.85 0.866709 1.31628 0
M  V30 10930 C 1024.09 0.476731 1.97117 0
M  V30 10931 C 1024.42 -0.967813 1.68366 0
M  V30 10932 O 1023.7 -1.68101 0.978377 0
M  V30 10933 C 1023.98 0.730561 3.52611 0
M  V30 10934 C 1023.84 2.2244 3.90948 0
M  V30 10935 C 1025.15 0.19488 4.39668 0
M  V30 10936 H 1022.27 0.174682 0.715999 0
M  V30 10937 H 1024.92 1.08735 1.5581 0
M  V30 10938 H 1023.07 0.210834 3.87927 0
M  V30 10939 H 1024.74 2.81113 3.6575 0
M  V30 10940 H 1022.98 2.69824 3.39673 0
M  V30 10941 H 1023.65 2.35266 4.99353 0
M  V30 10942 H 1026.13 0.639478 4.11157 0
M  V30 10943 H 1025 0.401958 5.47426 0
M  V30 10944 H 1025.26 -0.90302 4.32779 0
M  V30 10945 N 1024.32 -1.44642 0.625825 0
M  V30 10946 C 1025.57 -2.02393 0.128391 0
M  V30 10947 C 1025.9 -1.49075 -1.2446 0
M  V30 10948 O 1025.18 -0.672684 -1.82497 0
M  V30 10949 C 1025.46 -3.59934 0.109279 0
M  V30 10950 C 1025.31 -4.23546 1.51423 0
M  V30 10951 C 1026.63 -4.36406 -0.568985 0
M  V30 10952 H 1023.75 -0.735427 0.0481299 0
M  V30 10953 H 1026.39 -1.72277 0.801286 0
M  V30 10954 H 1024.54 -3.85722 -0.463726 0
M  V30 10955 H 1026.22 -4.08882 2.13572 0
M  V30 10956 H 1024.46 -3.81245 2.06966 0
M  V30 10957 H 1025.13 -5.32535 1.45294 0
M  V30 10958 H 1027.61 -4.1602 -0.0817516 0
M  V30 10959 H 1026.48 -5.46122 -0.551527 0
M  V30 10960 H 1026.74 -4.1062 -1.6384 0
M  V30 10961 N 1025.8 -0.366053 -1.5329 0
M  V30 10962 C 1027.21 0.113056 -1.86357 0
M  V30 10963 C 1027.56 1.48123 -1.28662 0
M  V30 10964 O 1026.69 2.07658 -0.608849 0
M  V30 10965 C 1027.28 0.211923 -3.38137 0
M  V30 10966 C 1025.84 0.635289 -3.71 0
M  V30 10967 C 1024.99 -0.217203 -2.76448 0
M  V30 10968 H 1027.94 -0.584829 -1.47531 0
M  V30 10969 H 1027.96 1.0354 -3.66142 0
M  V30 10970 H 1027.47 -0.783994 -3.80099 0
M  V30 10971 H 1025.57 1.63942 -3.34595 0
M  V30 10972 H 1025.69 0.409571 -4.77346 0
M  V30 10973 H 1024.05 0.313988 -2.52757 0
M  V30 10974 H 1024.83 -1.21067 -3.21244 0
M  V30 10975 N 1027.28 1.57312 -0.0952337 0
M  V30 10976 C 1028.56 1.85822 0.610715 0
M  V30 10977 C 1028.94 0.992114 1.86334 0
M  V30 10978 O 1028.28 0.0645669 2.28409 0
M  V30 10979 C 1028.49 3.36492 0.925967 0
M  V30 10980 C 1029.84 4.0455 1.28936 0
M  V30 10981 O 1030.87 3.41374 1.01698 0
M  V30 10982 O 1029.73 5.16024 1.79949 0
M  V30 10983 H 1026.82 0.768454 0.305626 0
M  V30 10984 H 1029.37 1.69217 -0.127941 0
M  V30 10985 H 1028.14 3.91282 0.0373127 0
M  V30 10986 H 1027.76 3.58443 1.7206 0
M  V30 10987 N 1028.76 -0.17846 1.56586 0
M  V30 10988 C 1029.69 -1.22342 1.98884 0
M  V30 10989 C 1030.67 -1.46564 0.86331 0
M  V30 10990 O 1031.85 -1.58019 1.12887 0
M  V30 10991 C 1028.98 -2.56396 2.34261 0
M  V30 10992 C 1027.94 -2.46756 3.49708 0
M  V30 10993 C 1027.26 -3.85235 3.70807 0
M  V30 10994 C 1028.56 -1.97838 4.83381 0
M  V30 10995 H 1030.26 -0.871848 2.86425 0
M  V30 10996 H 1027.8 -0.417948 1.37801 0
M  V30 10997 H 1029.76 -3.29695 2.62448 0
M  V30 10998 H 1028.48 -2.93327 1.43621 0
M  V30 10999 H 1027.14 -1.75912 3.21637 0
M  V30 11000 H 1026.79 -4.19547 2.7747 0
M  V30 11001 H 1026.49 -3.79655 4.48481 0
M  V30 11002 H 1028.01 -4.60131 4.01387 0
M  V30 11003 H 1029.43 -2.60906 5.10491 0
M  V30 11004 H 1027.82 -2.03223 5.64642 0
M  V30 11005 H 1028.89 -0.932339 4.75852 0
M  V30 11006 N 1030.24 -1.51135 -0.446768 0
M  V30 11007 C 1031.2 -1.71187 -1.52406 0
M  V30 11008 C 1032.2 -0.582037 -1.49897 0
M  V30 11009 O 1033.39 -0.849452 -1.52085 0
M  V30 11010 C 1030.52 -1.75962 -2.91976 0
M  V30 11011 H 1031.71 -2.67324 -1.35934 0
M  V30 11012 H 1029.27 -1.40982 -0.674813 0
M  V30 11013 H 1030 -0.816065 -3.13864 0
M  V30 11014 H 1029.79 -2.58065 -2.95203 0
M  V30 11015 H 1031.28 -1.93347 -3.70144 0
M  V30 11016 N 1031.71 0.701592 -1.41122 0
M  V30 11017 C 1032.64 1.82815 -1.45262 0
M  V30 11018 C 1033.62 1.67215 -0.311939 0
M  V30 11019 O 1034.81 1.87038 -0.522538 0
M  V30 11020 C 1031.94 3.20899 -1.32819 0
M  V30 11021 C 1030.89 3.51194 -2.44636 0
M  V30 11022 C 1030.22 4.8857 -2.17263 0
M  V30 11023 C 1031.52 3.50777 -3.86979 0
M  V30 11024 H 1033.21 1.79608 -2.39544 0
M  V30 11025 H 1030.76 0.862693 -1.15298 0
M  V30 11026 H 1032.71 3.99417 -1.34329 0
M  V30 11027 H 1031.44 3.24717 -0.350191 0
M  V30 11028 H 1030.1 2.75024 -2.42399 0
M  V30 11029 H 1029.74 4.89007 -1.17819 0
M  V30 11030 H 1029.44 5.09805 -2.92186 0
M  V30 11031 H 1030.97 5.69405 -2.20478 0
M  V30 11032 H 1032.38 4.19309 -3.90964 0
M  V30 11033 H 1030.78 3.83542 -4.61536 0
M  V30 11034 H 1031.85 2.49873 -4.15562 0
M  V30 11035 N 1033.19 1.2685 0.935242 0
M  V30 11036 C 1034.44 1.12132 1.67658 0
M  V30 11037 C 1034.75 -0.333839 1.9273 0
M  V30 11038 O 1035.96 -0.601801 2.64746 0
M  V30 11039 C 1034.42 1.95873 3.0193 0
M  V30 11040 C 1034.02 3.46 2.84584 0
M  V30 11041 C 1035.77 1.89781 3.79715 0
M  V30 11042 C 1033.67 4.21966 4.14365 0
M  V30 11043 H 1032.6 0.416035 0.628833 0
M  V30 11044 H 1035.26 1.51209 1.03962 0
M  V30 11045 H 1033.64 1.49633 3.66641 0
M  V30 11046 H 1034.81 4.00049 2.28687 0
M  V30 11047 H 1033.13 3.53391 2.20236 0
M  V30 11048 H 1035.72 2.43819 4.75875 0
M  V30 11049 H 1036.07 0.869797 4.07112 0
M  V30 11050 H 1036.6 2.33875 3.21788 0
M  V30 11051 H 1033.34 5.2526 3.9215 0
M  V30 11052 H 1032.86 3.72696 4.69955 0
M  V30 11053 H 1034.54 4.30734 4.82781 0
M  V30 11054 N 1034.67 -1.14067 1.0875 0
M  V30 11055 C 1036.09 -1.37173 0.815823 0
M  V30 11056 C 1036.29 -1.93175 -0.573215 0
M  V30 11057 O 1035.34 -2.14672 -1.32937 0
M  V30 11058 C 1036.66 -2.32955 1.90138 0
M  V30 11059 C 1038.2 -2.46586 1.9278 0
M  V30 11060 C 1038.68 -3.4567 3.0046 0
M  V30 11061 N 1040.17 -3.53216 2.99655 0
M  V30 11062 C 1040.9 -4.29743 3.79616 0
M  V30 11063 N 1040.4 -5.09484 4.69466 0
M  V30 11064 N 1042.19 -4.24975 3.67903 0
M  V30 11065 H 1034.34 -0.760648 1.98313 0
M  V30 11066 H 1036.61 -0.397135 0.860807 0
M  V30 11067 H 1036.31 -1.98949 2.90021 0
M  V30 11068 H 1036.19 -3.32897 1.77368 0
M  V30 11069 H 1038.57 -2.79882 0.935404 0
M  V30 11070 H 1038.66 -1.46593 2.09629 0
M  V30 11071 H 1038.3 -3.13106 3.99909 0
M  V30 11072 H 1038.23 -4.45452 2.80856 0
M  V30 11073 H 1040.72 -2.96314 2.34535 0
M  V30 11074 H 1041.03 -5.65163 5.27077 0
M  V30 11075 H 1039.38 -5.08741 4.73506 0
M  V30 11076 H 1042.57 -3.61751 2.97075 0
M  V30 11077 H 1042.74 -4.84364 4.30459 0
M  V30 11078 N 1036.15 -0.873678 -1.31166 0
M  V30 11079 C 1037.4 -0.486457 -1.9657 0
M  V30 11080 C 1037.72 0.962042 -1.69041 0
M  V30 11081 O 1036.98 1.69305 -0.981543 0
M  V30 11082 C 1037.28 -0.69462 -3.50585 0
M  V30 11083 C 1036.94 -2.11647 -3.98141 0
M  V30 11084 C 1035.61 -2.50531 -4.10838 0
M  V30 11085 C 1037.96 -3.0436 -4.23101 0
M  V30 11086 C 1035.29 -3.81361 -4.45848 0
M  V30 11087 C 1037.64 -4.34709 -4.59577 0
M  V30 11088 C 1036.3 -4.73502 -4.70481 0
M  V30 11089 H 1035.57 -0.178007 -0.719301 0
M  V30 11090 H 1038.22 -1.10737 -1.56235 0
M  V30 11091 H 1036.52 0.00940878 -3.91799 0
M  V30 11092 H 1038.22 -0.374782 -3.99245 0
M  V30 11093 H 1034.81 -1.8046 -3.88757 0
M  V30 11094 H 1038.99 -2.75544 -4.12782 0
M  V30 11095 H 1034.25 -4.11174 -4.52488 0
M  V30 11096 H 1038.42 -5.06596 -4.77842 0
M  V30 11097 H 1036.05 -5.74919 -4.97365 0
M  V30 11098 N 1037.63 1.44308 -0.633487 0
M  V30 11099 C 1038.56 2.33431 0.0568402 0
M  V30 11100 C 1039.54 1.48342 0.832386 0
M  V30 11101 O 1040.72 1.77056 0.797798 0
M  V30 11102 C 1037.85 3.31443 1.03743 0
M  V30 11103 C 1036.81 4.26368 0.373362 0
M  V30 11104 C 1036.13 5.14267 1.46403 0
M  V30 11105 C 1037.43 5.17287 -0.721876 0
M  V30 11106 H 1039.13 2.91402 -0.687388 0
M  V30 11107 H 1036.67 1.4012 -0.332009 0
M  V30 11108 H 1038.63 3.92677 1.52913 0
M  V30 11109 H 1037.35 2.71686 1.81258 0
M  V30 11110 H 1036.01 3.6647 -0.0977053 0
M  V30 11111 H 1035.66 4.50861 2.23011 0
M  V30 11112 H 1035.36 5.7859 1.02506 0
M  V30 11113 H 1036.88 5.78373 1.95748 0
M  V30 11114 H 1038.29 5.72444 -0.313181 0
M  V30 11115 H 1036.69 5.90226 -1.08413 0
M  V30 11116 H 1037.76 4.58159 -1.58804 0
M  V30 11117 N 1039.1 0.374177 1.53094 0
M  V30 11118 C 1040.35 -0.213131 2.01677 0
M  V30 11119 C 1040.68 -1.47715 1.26071 0
M  V30 11120 O 1039.96 -1.91199 0.356834 0
M  V30 11121 C 1040.24 -0.496392 3.56662 0
M  V30 11122 C 1040.09 0.781859 4.42953 0
M  V30 11123 C 1041.41 -1.29339 4.20666 0
M  V30 11124 H 1038.53 -0.0759885 0.733072 0
M  V30 11125 H 1041.17 0.500765 1.83282 0
M  V30 11126 H 1039.32 -1.10455 3.72467 0
M  V30 11127 H 1041 1.41914 4.38928 0
M  V30 11128 H 1039.24 1.40041 4.10574 0
M  V30 11129 H 1039.91 0.538508 5.49367 0
M  V30 11130 H 1042.39 -0.778848 4.08746 0
M  V30 11131 H 1041.26 -1.46033 5.29118 0
M  V30 11132 H 1041.52 -2.30435 3.77296 0
M  V30 11133 N 1040.58 -1.57259 0.103575 0
M  V30 11134 C 1041.49 -2.18018 -0.866327 0
M  V30 11135 C 1042.51 -1.15198 -1.30404 0
M  V30 11136 O 1043.68 -1.47605 -1.37021 0
M  V30 11137 C 1040.75 -2.75533 -2.10434 0
M  V30 11138 C 1039.81 -3.93337 -1.72002 0
M  V30 11139 C 1039.04 -4.481 -2.89901 0
M  V30 11140 O 1039.27 -4.01784 -4.04877 0
M  V30 11141 O 1038.2 -5.39004 -2.67877 0
M  V30 11142 H 1042.03 -3.01322 -0.379338 0
M  V30 11143 H 1039.61 -1.48907 -0.121228 0
M  V30 11144 H 1041.49 -3.12259 -2.8297 0
M  V30 11145 H 1040.17 -1.9527 -2.58169 0
M  V30 11146 H 1039.08 -3.61408 -0.966193 0
M  V30 11147 H 1040.41 -4.74989 -1.29022 0
M  V30 11148 N 1042.06 0.170153 -1.56679 0
M  V30 11149 C 1043.34 0.913938 -1.72935 0
M  V30 11150 C 1043.72 2.00342 -0.665293 0
M  V30 11151 O 1043.07 2.26252 0.319715 0
M  V30 11152 C 1043.28 1.47761 -3.16177 0
M  V30 11153 C 1044.62 1.95007 -3.7717 0
M  V30 11154 O 1045.65 1.57552 -3.19462 0
M  V30 11155 O 1044.51 2.64007 -4.78501 0
M  V30 11156 H 1041.6 0.43027 -0.706256 0
M  V30 11157 H 1044.15 0.157891 -1.68964 0
M  V30 11158 H 1042.92 0.69352 -3.85105 0
M  V30 11159 H 1042.54 2.2978 -3.24479 0
M  V30 11160 N 1043.54 1.5137 0.438746 0
M  V30 11161 C 1044.77 1.6753 1.20901 0
M  V30 11162 C 1045.18 0.371573 1.85515 0
M  V30 11163 O 1044.52 -0.659701 1.71446 0
M  V30 11164 C 1044.58 2.73305 2.33548 0
M  V30 11165 C 1044.25 4.15944 1.89313 0
M  V30 11166 C 1045.24 5.00769 1.39736 0
M  V30 11167 C 1042.93 4.62036 1.97047 0
M  V30 11168 C 1044.92 6.29747 0.984773 0
M  V30 11169 C 1042.61 5.91011 1.554 0
M  V30 11170 C 1043.61 6.74693 1.06197 0
M  V30 11171 O 1043.29 8.01256 0.651407 0
M  V30 11172 H 1043.03 0.565404 0.370532 0
M  V30 11173 H 1045.58 1.98543 0.526296 0
M  V30 11174 H 1043.81 2.37604 3.05092 0
M  V30 11175 H 1045.5 2.78359 2.95417 0
M  V30 11176 H 1046.27 4.66363 1.33156 0
M  V30 11177 H 1042.14 3.97025 2.34291 0
M  V30 11178 H 1045.69 6.95015 0.600029 0
M  V30 11179 H 1041.59 6.24932 1.6165 0
M  V30 11180 H 1042.35 8.148 0.777382 0
M  V30 11181 N 1045.02 -0.694098 1.41492 0
M  V30 11182 C 1046.29 -1.44875 1.31418 0
M  V30 11183 C 1046.67 -2.11022 -0.0575538 0
M  V30 11184 O 1046.02 -2.01799 -1.07188 0
M  V30 11185 C 1046.23 -2.46698 2.46863 0
M  V30 11186 C 1047.58 -3.11907 2.88095 0
M  V30 11187 O 1048.6 -2.57022 2.46613 0
M  V30 11188 O 1047.46 -4.11318 3.59833 0
M  V30 11189 H 1044.56 -0.645266 0.517263 0
M  V30 11190 H 1047.1 -0.724452 1.53459 0
M  V30 11191 H 1045.87 -1.96485 3.38392 0
M  V30 11192 H 1045.5 -3.26634 2.26706 0
M  V30 11193 N 1046.49 -1.27344 -0.928501 0
M  V30 11194 C 1047.46 -1.10043 -2.01055 0
M  V30 11195 C 1048.46 -0.0446793 -1.60738 0
M  V30 11196 O 1049.65 -0.289202 -1.71783 0
M  V30 11197 C 1046.78 -0.676559 -3.34119 0
M  V30 11198 H 1047.97 -2.06126 -2.17835 0
M  V30 11199 H 1045.53 -1.10121 -1.10919 0
M  V30 11200 H 1046.26 0.285697 -3.23039 0
M  V30 11201 H 1046.05 -1.43903 -3.64739 0
M  V30 11202 H 1047.54 -0.577725 -4.13584 0
M  V30 11203 N 1047.97 1.13488 -1.09353 0
M  V30 11204 C 1049.2 1.89133 -0.85108 0
M  V30 11205 C 1049.62 1.78542 0.591976 0
M  V30 11206 O 1048.98 1.13243 1.41583 0
M  V30 11207 C 1049.03 3.36736 -1.29001 0
M  V30 11208 O 1048.13 4.09959 -0.447993 0
M  V30 11209 H 1047.47 0.58809 -0.308296 0
M  V30 11210 H 1050 1.43593 -1.45747 0
M  V30 11211 H 1050.01 3.87564 -1.27508 0
M  V30 11212 H 1048.69 3.43762 -2.34095 0
M  V30 11213 H 1047.27 3.69155 -0.52717 0
M  V30 11214 N 1049.45 0.880621 1.30701 0
M  V30 11215 C 1050.68 0.510909 2.01009 0
M  V30 11216 C 1051.1 -0.892041 1.65603 0
M  V30 11217 O 1050.46 -1.59045 0.870309 0
M  V30 11218 C 1050.51 0.687759 3.53981 0
M  V30 11219 O 1049.61 -0.268275 4.11526 0
M  V30 11220 H 1048.95 0.201864 0.632572 0
M  V30 11221 H 1051.48 1.18697 1.6665 0
M  V30 11222 H 1051.49 0.585095 4.03783 0
M  V30 11223 H 1050.17 1.71068 3.79089 0
M  V30 11224 H 1048.74 -0.119673 3.72708 0
M  V30 11225 N 1050.93 -1.4397 0.641131 0
M  V30 11226 C 1051.88 -2.30728 -0.0577905 0
M  V30 11227 C 1052.85 -1.44059 -0.826819 0
M  V30 11228 O 1054.03 -1.72947 -0.805853 0
M  V30 11229 C 1051.17 -3.29478 -1.02657 0
M  V30 11230 C 1050.28 -4.31247 -0.254913 0
M  V30 11231 C 1049.42 -5.17085 -1.2164 0
M  V30 11232 C 1048.46 -6.10556 -0.434481 0
M  V30 11233 N 1047.6 -6.89059 -1.34694 0
M  V30 11234 H 1052.44 -2.8995 0.687953 0
M  V30 11235 H 1049.97 -1.4285 0.351029 0
M  V30 11236 H 1051.93 -3.85228 -1.60173 0
M  V30 11237 H 1050.56 -2.71932 -1.73933 0
M  V30 11238 H 1049.61 -3.77889 0.436338 0
M  V30 11239 H 1050.92 -4.97545 0.353642 0
M  V30 11240 H 1050.08 -5.77402 -1.86258 0
M  V30 11241 H 1048.82 -4.50885 -1.85888 0
M  V30 11242 H 1047.82 -5.49339 0.225125 0
M  V30 11243 H 1049.05 -6.78795 0.203415 0
M  V30 11244 H 1046.99 -6.25518 -1.97644 0
M  V30 11245 H 1046.91 -7.51833 -0.792657 0
M  V30 11246 H 1048.18 -7.5389 -1.98165 0
M  V30 11247 N 1052.41 -0.382291 -1.52893 0
M  V30 11248 C 1053.36 0.471187 -2.27778 0
M  V30 11249 C 1054.35 1.0691 -1.31402 0
M  V30 11250 O 1055.56 1.01038 -1.48967 0
M  V30 11251 H 1051.93 0.170696 -0.732371 0
M  V30 11252 H 1053.9 -0.181954 -2.97845 0
M  V30 11253 C 1052.65 1.59012 -3.09209 0
M  V30 11254 H 1051.97 1.13935 -3.83222 0
M  V30 11255 H 1053.41 2.16167 -3.64757 0
M  V30 11256 C 1051.87 2.54212 -2.21084 0
M  V30 11257 O 1052.4 3.57447 -1.83288 0
M  V30 11258 N 1050.61 2.23789 -1.85383 0
M  V30 11259 H 1050.16 1.39872 -2.16318 0
M  V30 11260 H 1050.11 2.87737 -1.26708 0
M  V30 11261 N 1053.89 1.57202 -0.111913 0
M  V30 11262 C 1055.16 1.86459 0.590972 0
M  V30 11263 C 1055.54 1.01182 1.85271 0
M  V30 11264 O 1054.89 0.0887891 2.28327 0
M  V30 11265 C 1055.1 3.37455 0.890225 0
M  V30 11266 C 1056.45 4.05895 1.24638 0
M  V30 11267 O 1057.47 3.42433 0.980713 0
M  V30 11268 O 1056.33 5.17903 1.74466 0
M  V30 11269 H 1053.43 0.771652 0.297459 0
M  V30 11270 H 1055.97 1.69072 -0.145882 0
M  V30 11271 H 1054.74 3.913 -0.00419012 0
M  V30 11272 H 1054.37 3.60248 1.68248 0
M  V30 11273 N 1055.36 -0.161842 1.56767 0
M  V30 11274 C 1056.61 -0.876925 1.82527 0
M  V30 11275 C 1056.94 -1.81831 0.690492 0
M  V30 11276 O 1056.19 -1.9304 -0.32159 0
M  V30 11277 C 1056.49 -1.69736 3.14522 0
M  V30 11278 C 1056.16 -0.904075 4.41743 0
M  V30 11279 C 1054.82 -0.685168 4.76297 0
M  V30 11280 C 1057.17 -0.348282 5.20035 0
M  V30 11281 C 1054.5 0.10048 5.86614 0
M  V30 11282 C 1056.85 0.424327 6.31175 0
M  V30 11283 C 1055.52 0.653948 6.64289 0
M  V30 11284 H 1054.79 -0.320889 0.667915 0
M  V30 11285 H 1057.43 -0.141338 1.90978 0
M  V30 11286 H 1055.74 -2.50262 3.01456 0
M  V30 11287 H 1057.44 -2.25386 3.31666 0
M  V30 11288 H 1054.03 -1.08474 4.14646 0
M  V30 11289 H 1058.21 -0.504721 4.93727 0
M  V30 11290 H 1053.47 0.288029 6.10721 0
M  V30 11291 H 1057.64 0.862203 6.91042 0
M  V30 11292 H 1055.27 1.26459 7.49608 0
M  V30 11293 N 1056.84 -1.516 -0.430713 0
M  V30 11294 C 1058.09 -1.63829 -1.17657 0
M  V30 11295 C 1058.4 -0.363605 -1.92191 0
M  V30 11296 O 1059.61 -0.365358 -2.6903 0
M  V30 11297 C 1058.07 -2.89357 -2.14011 0
M  V30 11298 C 1057.67 -4.23854 -1.45094 0
M  V30 11299 C 1059.42 -3.10944 -2.88988 0
M  V30 11300 C 1057.32 -5.40526 -2.3997 0
M  V30 11301 H 1056.25 -0.610221 -0.442884 0
M  V30 11302 H 1058.91 -1.78073 -0.442984 0
M  V30 11303 H 1057.29 -2.68762 -2.90832 0
M  V30 11304 H 1058.46 -4.54854 -0.737853 0
M  V30 11305 H 1056.78 -4.08197 -0.822429 0
M  V30 11306 H 1059.37 -3.95286 -3.60074 0
M  V30 11307 H 1059.72 -2.24291 -3.50712 0
M  V30 11308 H 1060.25 -3.3191 -2.19272 0
M  V30 11309 H 1056.99 -6.29459 -1.82925 0
M  V30 11310 H 1056.51 -5.13893 -3.09313 0
M  V30 11311 H 1058.19 -5.72741 -3.00959 0
M  V30 11312 N 1058.32 0.686584 -1.41858 0
M  V30 11313 C 1059.57 1.44379 -1.41418 0
M  V30 11314 C 1059.89 1.94981 -0.0273696 0
M  V30 11315 O 1059.16 1.72296 0.932248 0
M  V30 11316 H 1057.74 0.53574 -0.520568 0
M  V30 11317 H 1060.4 0.812056 -1.77177 0
M  V30 11318 H 1059.5 2.30258 -2.10684 0
M  V30 11319 N 1059.8 1.27835 0.921735 0
M  V30 11320 C 1060.73 1.06874 2.02758 0
M  V30 11321 C 1061.74 0.0229418 1.62784 0
M  V30 11322 O 1062.93 0.265145 1.7652 0
M  V30 11323 C 1060.03 0.60037 3.3354 0
M  V30 11324 C 1059.2 1.71979 4.02172 0
M  V30 11325 C 1058.26 1.24615 5.11231 0
M  V30 11326 O 1057.29 1.94692 5.34868 0
M  V30 11327 N 1058.49 0.105021 5.80405 0
M  V30 11328 H 1061.26 2.02105 2.213 0
M  V30 11329 H 1058.82 1.19481 1.09251 0
M  V30 11330 H 1060.81 0.267281 4.03816 0
M  V30 11331 H 1059.38 -0.258872 3.11526 0
M  V30 11332 H 1058.6 2.22287 3.25549 0
M  V30 11333 H 1059.89 2.47092 4.44773 0
M  V30 11334 H 1059.29 -0.479745 5.63662 0
M  V30 11335 H 1057.84 -0.168846 6.51581 0
M  V30 11336 N 1061.28 -1.12907 1.09954 0
M  V30 11337 C 1062.5 -1.88679 0.861099 0
M  V30 11338 C 1062.93 -1.78853 -0.582499 0
M  V30 11339 O 1062.28 -1.13992 -1.4098 0
M  V30 11340 C 1062.33 -3.36047 1.30785 0
M  V30 11341 O 1061.44 -4.09716 0.469728 0
M  V30 11342 H 1060.78 -0.586447 0.31141 0
M  V30 11343 H 1063.31 -1.42818 1.46507 0
M  V30 11344 H 1063.32 -3.86882 1.29562 0
M  V30 11345 H 1061.99 -3.42516 2.35914 0
M  V30 11346 H 1060.57 -3.6887 0.54674 0
M  V30 11347 N 1062.75 -0.88754 -1.30232 0
M  V30 11348 C 1063.98 -0.522306 -2.00199 0
M  V30 11349 C 1064.4 0.889866 -1.66514 0
M  V30 11350 O 1063.75 1.58558 -0.903639 0
M  V30 11351 C 1063.8 -0.690551 -3.54843 0
M  V30 11352 O 1063.53 -2.04713 -3.8733 0
M  V30 11353 C 1065.03 -0.328649 -4.4208 0
M  V30 11354 H 1062.25 -0.201628 -0.63999 0
M  V30 11355 H 1064.79 -1.19355 -1.66056 0
M  V30 11356 H 1062.95 -0.0666493 -3.87343 0
M  V30 11357 H 1063.36 -2.06762 -4.82027 0
M  V30 11358 H 1064.83 -0.497257 -5.49756 0
M  V30 11359 H 1065.31 0.733502 -4.33032 0
M  V30 11360 H 1065.92 -0.928982 -4.1503 0
M  V30 11361 N 1064.23 1.43628 -0.648757 0
M  V30 11362 C 1065.48 2.01083 -0.157692 0
M  V30 11363 C 1065.79 1.51756 1.23408 0
M  V30 11364 O 1067 2.01455 1.82012 0
M  V30 11365 C 1065.46 3.59157 -0.231118 0
M  V30 11366 C 1065.06 4.17478 -1.6253 0
M  V30 11367 C 1066.81 4.24016 0.202573 0
M  V30 11368 C 1064.72 5.67832 -1.6529 0
M  V30 11369 H 1063.65 0.751977 -0.0551897 0
M  V30 11370 H 1066.3 1.64648 -0.810139 0
M  V30 11371 H 1064.68 3.92972 0.488755 0
M  V30 11372 H 1065.85 3.9517 -2.37017 0
M  V30 11373 H 1064.17 3.64973 -2.00459 0
M  V30 11374 H 1066.76 5.34319 0.20174 0
M  V30 11375 H 1067.11 3.97616 1.23319 0
M  V30 11376 H 1067.64 3.95068 -0.465398 0
M  V30 11377 H 1064.38 5.98994 -2.66246 0
M  V30 11378 H 1063.9 5.92209 -0.951217 0
M  V30 11379 H 1065.58 6.3179 -1.39465 0
M  V30 11380 N 1065.71 0.390394 1.52688 0
M  V30 11381 C 1067.12 -0.083394 1.86514 0
M  V30 11382 C 1067.47 -1.46057 1.31003 0
M  V30 11383 O 1066.6 -2.06663 0.641809 0
M  V30 11384 C 1067.19 -0.158102 3.38431 0
M  V30 11385 C 1065.75 -0.576186 3.71964 0
M  V30 11386 C 1064.9 0.261156 2.76068 0
M  V30 11387 H 1067.85 0.608226 1.46582 0
M  V30 11388 H 1067.87 -0.977023 3.67742 0
M  V30 11389 H 1067.38 0.844365 3.78803 0
M  V30 11390 H 1065.48 -1.58598 3.37161 0
M  V30 11391 H 1065.6 -0.333577 4.77937 0
M  V30 11392 H 1063.96 -0.273737 2.53225 0
M  V30 11393 H 1064.74 1.26162 3.19277 0
M  V30 11394 N 1067.19 -1.57141 0.120249 0
M  V30 11395 C 1068.12 -2.18398 -0.826112 0
M  V30 11396 C 1069.1 -1.12439 -1.27638 0
M  V30 11397 O 1070.28 -1.40679 -1.33877 0
M  V30 11398 C 1067.41 -2.78438 -2.0758 0
M  V30 11399 C 1066.37 -3.89991 -1.76327 0
M  V30 11400 C 1065.69 -4.36844 -3.08336 0
M  V30 11401 C 1066.99 -5.12031 -1.03062 0
M  V30 11402 H 1068.69 -2.97731 -0.315656 0
M  V30 11403 H 1066.23 -1.43213 -0.150387 0
M  V30 11404 H 1068.19 -3.19951 -2.74243 0
M  V30 11405 H 1066.91 -1.96396 -2.60953 0
M  V30 11406 H 1065.57 -3.49055 -1.12053 0
M  V30 11407 H 1065.22 -3.51659 -3.59646 0
M  V30 11408 H 1064.92 -5.1207 -2.88199 0
M  V30 11409 H 1066.44 -4.81009 -3.76116 0
M  V30 11410 H 1067.86 -5.50555 -1.59881 0
M  V30 11411 H 1066.25 -5.92848 -0.930146 0
M  V30 11412 H 1067.32 -4.84897 -0.017582 0
M  V30 11413 N 1068.67 0.153526 -1.5685 0
M  V30 11414 C 1069.61 1.20896 -1.98713 0
M  V30 11415 C 1070.61 1.44839 -0.878529 0
M  V30 11416 O 1071.81 1.45208 -1.0637 0
M  V30 11417 H 1068.19 0.406797 -0.632472 0
M  V30 11418 H 1070.16 0.829145 -2.86649 0
M  V30 11419 C 1068.91 2.53642 -2.37825 0
M  V30 11420 H 1068.23 2.36047 -3.22679 0
M  V30 11421 H 1069.67 3.26136 -2.70946 0
M  V30 11422 C 1068.13 3.13706 -1.22841 0
M  V30 11423 O 1068.66 3.98246 -0.525626 0
M  V30 11424 N 1066.87 2.73059 -0.99435 0
M  V30 11425 H 1066.41 2.0441 -1.56761 0
M  V30 11426 H 1066.37 3.1358 -0.226883 0
M  V30 11427 N 1070.14 1.51827 0.422667 0
M  V30 11428 C 1071.37 1.69337 1.19748 0
M  V30 11429 C 1071.79 0.396312 1.83878 0
M  V30 11430 O 1071.15 -0.644976 1.6944 0
M  V30 11431 C 1071.2 2.82082 2.24637 0
M  V30 11432 O 1070.3 2.46708 3.30468 0
M  V30 11433 H 1069.65 0.564154 0.35018 0
M  V30 11434 H 1072.18 1.98465 0.497289 0
M  V30 11435 H 1072.19 3.06599 2.69186 0
M  V30 11436 H 1070.86 3.76195 1.77341 0
M  V30 11437 H 1069.44 2.32815 2.91293 0
M  V30 11438 N 1071.62 -0.679052 1.4222 0
M  V30 11439 C 1072.55 -1.80481 1.48152 0
M  V30 11440 C 1073.53 -1.66698 0.338502 0
M  V30 11441 O 1074.72 -1.86183 0.552228 0
M  V30 11442 C 1071.85 -3.18746 1.37908 0
M  V30 11443 C 1070.8 -3.47258 2.50192 0
M  V30 11444 C 1070.13 -4.85052 2.25008 0
M  V30 11445 C 1071.43 -3.44576 3.92511 0
M  V30 11446 H 1073.12 -1.75774 2.42371 0
M  V30 11447 H 1070.67 -0.844241 1.16656 0
M  V30 11448 H 1072.62 -3.97229 1.40666 0
M  V30 11449 H 1071.35 -3.24119 0.401806 0
M  V30 11450 H 1070 -2.71133 2.46744 0
M  V30 11451 H 1069.65 -4.8707 1.25584 0
M  V30 11452 H 1069.35 -5.05092 3.00259 0
M  V30 11453 H 1070.88 -5.65825 2.29508 0
M  V30 11454 H 1072.29 -4.13036 3.97585 0
M  V30 11455 H 1070.69 -3.76151 4.67579 0
M  V30 11456 H 1071.76 -2.4323 4.19484 0
M  V30 11457 N 1073.1 -1.28322 -0.914942 0
M  V30 11458 C 1074.05 -1.12146 -2.01722 0
M  V30 11459 C 1075.02 -0.0189279 -1.66089 0
M  V30 11460 O 1076.2 -0.183638 -1.89914 0
M  V30 11461 C 1073.34 -0.78808 -3.35981 0
M  V30 11462 C 1072.46 -1.96954 -3.84491 0
M  V30 11463 C 1071.59 -1.57688 -5.07255 0
M  V30 11464 C 1070.63 -2.72506 -5.48094 0
M  V30 11465 N 1069.77 -2.33741 -6.62049 0
M  V30 11466 H 1074.61 -2.06461 -2.1489 0
M  V30 11467 H 1072.14 -1.0276 -1.05256 0
M  V30 11468 H 1074.1 -0.575546 -4.13211 0
M  V30 11469 H 1072.73 0.118132 -3.22584 0
M  V30 11470 H 1071.78 -2.29423 -3.03429 0
M  V30 11471 H 1073.1 -2.8304 -4.10719 0
M  V30 11472 H 1072.25 -1.32634 -5.92025 0
M  V30 11473 H 1070.99 -0.687291 -4.82833 0
M  V30 11474 H 1069.99 -2.9826 -4.61867 0
M  V30 11475 H 1071.22 -3.62106 -5.74505 0
M  V30 11476 H 1069.16 -1.4725 -6.3926 0
M  V30 11477 H 1069.08 -3.13364 -6.87997 0
M  V30 11478 H 1070.35 -2.11968 -7.50127 0
M  V30 11479 N 1074.58 1.12322 -1.10551 0
M  V30 11480 C 1075.51 2.17819 -0.713263 0
M  V30 11481 C 1076.52 1.6086 0.250604 0
M  V30 11482 O 1077.71 1.78466 0.0348909 0
M  V30 11483 C 1074.81 3.38885 -0.0320325 0
M  V30 11484 C 1073.99 4.25332 -1.02038 0
M  V30 11485 C 1073.04 5.24895 -0.370412 0
M  V30 11486 O 1072.07 5.59958 -1.02157 0
M  V30 11487 N 1073.27 5.73934 0.870633 0
M  V30 11488 H 1076.04 2.52083 -1.62094 0
M  V30 11489 H 1073.6 1.27755 -0.994492 0
M  V30 11490 H 1075.59 4.02574 0.414285 0
M  V30 11491 H 1074.16 3.02762 0.778072 0
M  V30 11492 H 1073.38 3.5824 -1.64492 0
M  V30 11493 H 1074.67 4.79936 -1.68936 0
M  V30 11494 H 1074.07 5.47614 1.419 0
M  V30 11495 H 1072.62 6.39504 1.26008 0
M  V30 11496 N 1076.06 0.894434 1.2976 0
M  V30 11497 C 1077.3 0.516646 1.95385 0
M  V30 11498 C 1077.63 -0.939141 1.70895 0
M  V30 11499 O 1076.9 -1.66153 1.03778 0
M  V30 11500 H 1075.48 0.188072 0.722937 0
M  V30 11501 H 1078.14 1.13958 1.58113 0
M  V30 11502 H 1077.23 0.694819 3.04267 0
M  V30 11503 N 1077.53 -1.43282 0.656365 0
M  V30 11504 C 1078.76 -2.05826 0.178619 0
M  V30 11505 C 1079.17 -1.493 -1.16216 0
M  V30 11506 O 1078.52 -0.620163 -1.72915 0
M  V30 11507 C 1078.58 -3.59496 0.0164101 0
M  V30 11508 C 1078.24 -4.38621 1.28298 0
M  V30 11509 C 1079.24 -4.70477 2.21241 0
M  V30 11510 C 1076.92 -4.78577 1.52544 0
M  V30 11511 C 1078.92 -5.412 3.36721 0
M  V30 11512 C 1076.6 -5.49044 2.68316 0
M  V30 11513 C 1077.6 -5.80279 3.6023 0
M  V30 11514 O 1077.29 -6.49306 4.7398 0
M  V30 11515 H 1077.02 -0.670158 0.0886814 0
M  V30 11516 H 1079.58 -1.84722 0.89816 0
M  V30 11517 H 1077.81 -3.79188 -0.758532 0
M  V30 11518 H 1079.5 -4.03731 -0.419096 0
M  V30 11519 H 1080.26 -4.40125 2.03753 0
M  V30 11520 H 1076.14 -4.5367 0.818816 0
M  V30 11521 H 1079.68 -5.65497 4.08483 0
M  V30 11522 H 1075.58 -5.78813 2.85738 0
M  V30 11523 H 1076.35 -6.67789 4.73286 0
M  V30 11524 N 1079.01 -0.398486 -1.52479 0
M  V30 11525 C 1080.43 -0.0488635 -1.59525 0
M  V30 11526 C 1080.63 1.43756 -1.41197 0
M  V30 11527 O 1079.69 2.20317 -1.23357 0
M  V30 11528 C 1081 -0.534262 -2.95916 0
M  V30 11529 C 1082.55 -0.491314 -3.0912 0
M  V30 11530 C 1083.02 -0.953049 -4.47974 0
M  V30 11531 N 1084.51 -0.909434 -4.54184 0
M  V30 11532 C 1085.25 -1.23801 -5.59876 0
M  V30 11533 N 1084.74 -1.63752 -6.73169 0
M  V30 11534 N 1086.54 -1.15867 -5.50028 0
M  V30 11535 H 1078.69 -1.36608 -1.62641 0
M  V30 11536 H 1080.95 -0.560515 -0.764544 0
M  V30 11537 H 1080.66 -1.57277 -3.14574 0
M  V30 11538 H 1080.53 0.0617787 -3.77149 0
M  V30 11539 H 1082.92 0.538123 -2.90152 0
M  V30 11540 H 1083 -1.12327 -2.29818 0
M  V30 11541 H 1082.64 -1.98076 -4.67684 0
M  V30 11542 H 1082.57 -0.298007 -5.25756 0
M  V30 11543 H 1085.06 -0.615569 -3.72853 0
M  V30 11544 H 1085.38 -1.87163 -7.49793 0
M  V30 11545 H 1083.72 -1.67647 -6.74477 0
M  V30 11546 H 1086.91 -0.845502 -4.60401 0
M  V30 11547 H 1087.09 -1.41805 -6.32294 0
M  V30 11548 N 1080.49 1.57075 -0.12858 0
M  V30 11549 C 1081.44 2.12379 0.829418 0
M  V30 11550 C 1082.43 1.04694 1.2218 0
M  V30 11551 O 1083.62 1.30909 1.1913 0
M  V30 11552 C 1080.75 2.73436 2.07575 0
M  V30 11553 C 1079.83 3.88217 1.7073 0
M  V30 11554 N 1080.22 4.94864 1.04609 0
M  V30 11555 C 1078.52 3.9858 2.00125 0
M  V30 11556 C 1079.22 5.7514 0.871137 0
M  V30 11557 N 1078.2 5.25284 1.39918 0
M  V30 11558 H 1082 2.92209 0.314816 0
M  V30 11559 H 1079.51 1.62233 0.0735788 0
M  V30 11560 H 1081.51 3.11406 2.77185 0
M  V30 11561 H 1080.17 1.95073 2.5957 0
M  V30 11562 H 1081.18 5.13025 0.708961 0
M  V30 11563 H 1077.86 3.3127 2.541 0
M  V30 11564 H 1079.25 6.7098 0.351395 0
M  V30 11565 N 1081.97 -0.145205 1.5693 0
M  V30 11566 C 1083.22 -0.858786 1.83719 0
M  V30 11567 C 1083.55 -1.80738 0.710452 0
M  V30 11568 O 1082.82 -1.92389 -0.285791 0
M  V30 11569 C 1083.11 -1.6317 3.2101 0
M  V30 11570 C 1082.96 -0.704472 4.44249 0
M  V30 11571 C 1084.28 -2.59377 3.55544 0
M  V30 11572 H 1081.4 -0.310757 0.66828 0
M  V30 11573 H 1084.04 -0.123918 1.89595 0
M  V30 11574 H 1082.19 -2.25816 3.16132 0
M  V30 11575 H 1083.86 -0.08887 4.61214 0
M  V30 11576 H 1082.1 -0.0141693 4.33798 0
M  V30 11577 H 1082.78 -1.28135 5.36922 0
M  V30 11578 H 1085.25 -2.06848 3.61044 0
M  V30 11579 H 1084.13 -3.10506 4.52634 0
M  V30 11580 H 1084.39 -3.40819 2.81594 0
M  V30 11581 N 1083.45 -1.52049 -0.414609 0
M  V30 11582 C 1084.4 -1.7138 -1.50376 0
M  V30 11583 C 1085.38 -0.567692 -1.50553 0
M  V30 11584 O 1086.57 -0.824541 -1.56622 0
M  V30 11585 C 1083.7 -1.86291 -2.88358 0
M  V30 11586 C 1082.79 -3.06757 -2.9285 0
M  V30 11587 N 1083.18 -4.29557 -2.67048 0
M  V30 11588 C 1081.48 -3.06478 -3.24018 0
M  V30 11589 C 1082.18 -5.10988 -2.77968 0
M  V30 11590 N 1081.15 -4.46117 -3.10613 0
M  V30 11591 H 1084.96 -2.63972 -1.29213 0
M  V30 11592 H 1082.47 -1.50006 -0.622244 0
M  V30 11593 H 1084.47 -1.98256 -3.66743 0
M  V30 11594 H 1083.13 -0.948959 -3.10524 0
M  V30 11595 H 1084.14 -4.58122 -2.41546 0
M  V30 11596 H 1080.82 -2.24799 -3.51812 0
M  V30 11597 H 1082.21 -6.18806 -2.6178 0
M  V30 11598 N 1084.93 0.6715 -1.42579 0
M  V30 11599 C 1085.86 1.79693 -1.49107 0
M  V30 11600 C 1086.84 1.66516 -0.347338 0
M  V30 11601 O 1088.02 1.85887 -0.562094 0
M  V30 11602 C 1085.15 3.1801 -1.39596 0
M  V30 11603 C 1084.11 3.45926 -2.5203 0
M  V30 11604 C 1083.43 4.83852 -2.27577 0
M  V30 11605 C 1084.73 3.4249 -3.94333 0
M  V30 11606 H 1086.43 1.74486 -2.433 0
M  V30 11607 H 1083.97 0.838042 -1.17102 0
M  V30 11608 H 1085.92 3.96478 -1.42771 0
M  V30 11609 H 1084.65 3.23901 -0.418989 0
M  V30 11610 H 1083.31 2.6982 -2.48178 0
M  V30 11611 H 1082.96 4.86398 -1.28165 0
M  V30 11612 H 1082.66 5.03493 -3.02934 0
M  V30 11613 H 1084.18 5.646 -2.32506 0
M  V30 11614 H 1085.59 4.10922 -3.9977 0
M  V30 11615 H 1083.99 3.73666 -4.69568 0
M  V30 11616 H 1085.06 2.41002 -4.20768 0
M  V30 11617 N 1086.4 1.28806 0.908124 0
M  V30 11618 C 1087.34 1.07538 2.01273 0
M  V30 11619 C 1088.31 -0.0102454 1.62597 0
M  V30 11620 O 1089.5 0.138797 1.87988 0
M  V30 11621 C 1086.63 0.635337 3.32688 0
M  V30 11622 C 1085.67 1.71843 3.90349 0
M  V30 11623 S 1086.5 3.31571 4.20501 0
M  V30 11624 C 1087.66 2.89416 5.54968 0
M  V30 11625 H 1087.89 2.01058 2.19005 0
M  V30 11626 H 1085.43 1.12857 1.05369 0
M  V30 11627 H 1087.38 0.388159 4.08661 0
M  V30 11628 H 1086.05 -0.280122 3.12848 0
M  V30 11629 H 1085.24 1.36228 4.8524 0
M  V30 11630 H 1084.84 1.91869 3.21033 0
M  V30 11631 H 1087.13 2.35936 6.35091 0
M  V30 11632 H 1088.08 3.83126 5.955 0
M  V30 11633 H 1088.48 2.27962 5.16424 0
M  V30 11634 N 1087.88 -1.11734 1.11145 0
M  V30 11635 C 1089.11 -1.87755 0.881062 0
M  V30 11636 C 1089.53 -1.79461 -0.563496 0
M  V30 11637 O 1088.89 -1.15481 -1.39763 0
M  V30 11638 C 1088.94 -3.34641 1.34342 0
M  V30 11639 O 1088.04 -4.09195 0.513157 0
M  V30 11640 H 1087.38 -0.583111 0.317613 0
M  V30 11641 H 1089.91 -1.41256 1.48013 0
M  V30 11642 H 1089.92 -3.85486 1.33658 0
M  V30 11643 H 1088.6 -3.39994 2.39534 0
M  V30 11644 H 1087.17 -3.68269 0.585833 0
M  V30 11645 N 1089.36 -0.901303 -1.29284 0
M  V30 11646 C 1090.31 -0.378666 -2.27672 0
M  V30 11647 C 1091.28 0.540102 -1.57074 0
M  V30 11648 O 1092.46 0.464997 -1.85047 0
M  V30 11649 C 1089.6 0.38635 -3.42931 0
M  V30 11650 C 1088.71 -0.563496 -4.28309 0
M  V30 11651 C 1087.85 0.218731 -5.30749 0
M  V30 11652 C 1086.89 -0.725536 -6.07785 0
M  V30 11653 N 1086.03 0.0223854 -7.02096 0
M  V30 11654 H 1090.87 -1.22277 -2.71758 0
M  V30 11655 H 1088.4 -0.614302 -1.33659 0
M  V30 11656 H 1090.36 0.845967 -4.08533 0
M  V30 11657 H 1088.99 1.1949 -2.9987 0
M  V30 11658 H 1088.04 -1.14163 -3.62865 0
M  V30 11659 H 1089.35 -1.28623 -4.81931 0
M  V30 11660 H 1088.51 0.739473 -6.02177 0
M  V30 11661 H 1087.25 0.97459 -4.77863 0
M  V30 11662 H 1086.25 -1.25776 -5.3522 0
M  V30 11663 H 1087.48 -1.48075 -6.6276 0
M  V30 11664 H 1085.42 0.760482 -6.51577 0
M  V30 11665 H 1085.34 -0.640408 -7.53283 0
M  V30 11666 H 1086.61 0.523339 -7.77741 0
M  V30 11667 N 1090.84 1.42931 -0.663954 0
M  V30 11668 C 1091.79 2.32577 0.03287 0
M  V30 11669 C 1092.78 1.49217 0.801918 0
M  V30 11670 O 1093.99 1.65358 0.711106 0
M  V30 11671 H 1090.36 0.751424 0.0294198 0
M  V30 11672 H 1092.33 2.89059 -0.740763 0
M  V30 11673 C 1091.08 3.33661 0.978025 0
M  V30 11674 H 1090.4 3.97837 0.395681 0
M  V30 11675 H 1091.84 3.98997 1.43448 0
M  V30 11676 C 1090.3 2.65085 2.07922 0
M  V30 11677 O 1090.83 2.4745 3.16435 0
M  V30 11678 N 1089.04 2.24285 1.84783 0
M  V30 11679 H 1088.59 2.38827 0.965368 0
M  V30 11680 H 1088.54 1.78732 2.58655 0
M  V30 11681 N 1092.32 0.406567 1.52266 0
M  V30 11682 C 1093.56 -0.169717 2.01386 0
M  V30 11683 C 1093.88 -1.45864 1.29417 0
M  V30 11684 O 1093.15 -1.9136 0.419327 0
M  V30 11685 H 1091.73 -0.0657075 0.744105 0
M  V30 11686 H 1094.4 0.542221 1.87206 0
M  V30 11687 H 1093.49 -0.367659 3.09927 0
M  V30 11688 N 1093.79 -1.57004 0.136909 0
M  V30 11689 C 1095.07 -1.87375 -0.561233 0
M  V30 11690 C 1095.45 -1.04117 -1.83638 0
M  V30 11691 O 1094.8 -0.125103 -2.28157 0
M  V30 11692 C 1095.01 -3.38829 -0.836426 0
M  V30 11693 C 1096.36 -4.07826 -1.18164 0
M  V30 11694 O 1097.38 -3.4395 -0.92611 0
M  V30 11695 O 1096.24 -5.20614 -1.66204 0
M  V30 11696 H 1093.33 -0.776287 -0.285145 0
M  V30 11697 H 1095.88 -1.68818 0.172761 0
M  V30 11698 H 1094.65 -3.91244 0.066442 0
M  V30 11699 H 1094.28 -3.62879 -1.62496 0
M  V30 11700 N 1095.27 0.136881 -1.57004 0
M  V30 11701 C 1096.2 1.19402 -1.95642 0
M  V30 11702 C 1097.22 1.38635 -0.853478 0
M  V30 11703 O 1098.41 1.38027 -1.13185 0
M  V30 11704 C 1095.51 2.55716 -2.22402 0
M  V30 11705 C 1094.68 2.57325 -3.53698 0
M  V30 11706 C 1093.74 3.75253 -3.68879 0
M  V30 11707 O 1092.76 3.5966 -4.41173 0
M  V30 11708 N 1093.97 4.93112 -3.06302 0
M  V30 11709 H 1096.73 0.865504 -2.8693 0
M  V30 11710 H 1094.29 0.326346 -1.58577 0
M  V30 11711 H 1096.28 3.33135 -2.29789 0
M  V30 11712 H 1094.85 2.80819 -1.37329 0
M  V30 11713 H 1094.07 1.65749 -3.5766 0
M  V30 11714 H 1095.36 2.55441 -4.40031 0
M  V30 11715 H 1094.76 5.08684 -2.47502 0
M  V30 11716 H 1093.32 5.68271 -3.19236 0
M  V30 11717 N 1096.75 1.52266 0.40654 0
M  V30 11718 C 1097.7 1.72175 1.49465 0
M  V30 11719 C 1098.68 0.575668 1.50249 0
M  V30 11720 O 1099.88 0.832835 1.56182 0
M  V30 11721 C 1097.01 1.87818 2.87366 0
M  V30 11722 C 1096.09 3.08305 2.91219 0
M  V30 11723 N 1096.48 4.30967 2.64766 0
M  V30 11724 C 1094.78 3.08192 3.22388 0
M  V30 11725 C 1095.48 5.12455 2.75254 0
M  V30 11726 N 1094.46 4.47758 3.08242 0
M  V30 11727 H 1098.26 2.64653 1.27812 0
M  V30 11728 H 1095.77 1.50334 0.61428 0
M  V30 11729 H 1097.77 2.00198 3.65686 0
M  V30 11730 H 1096.43 0.965414 3.10016 0
M  V30 11731 H 1097.44 4.59397 2.39113 0
M  V30 11732 H 1094.12 2.26662 3.50615 0
M  V30 11733 H 1095.51 6.20186 2.58495 0
M  V30 11734 N 1098.23 -0.663929 1.42933 0
M  V30 11735 C 1099.64 -1.24484 1.39143 0
M  V30 11736 C 1099.99 -1.95993 0.0901142 0
M  V30 11737 O 1099.12 -2.00636 -0.810812 0
M  V30 11738 C 1099.71 -2.26402 2.52047 0
M  V30 11739 C 1098.27 -2.79995 2.51555 0
M  V30 11740 C 1097.42 -1.54475 2.30289 0
M  V30 11741 H 1100.37 -0.456619 1.51989 0
M  V30 11742 H 1100.39 -3.08361 2.22921 0
M  V30 11743 H 1099.9 -1.74328 3.46744 0
M  V30 11744 H 1098 -3.36161 1.60707 0
M  V30 11745 H 1098.11 -3.2827 3.48964 0
M  V30 11746 H 1096.48 -1.81437 1.78753 0
M  V30 11747 H 1097.26 -1.04351 3.27056 0
M  V30 11748 N 1099.71 -1.29285 -0.901281 0
M  V30 11749 C 1100.93 -1.20169 -1.69039 0
M  V30 11750 C 1101.36 0.234509 -1.86632 0
M  V30 11751 O 1100.71 1.16935 -1.38549 0
M  V30 11752 C 1100.76 -1.91852 -3.05328 0
M  V30 11753 O 1099.87 -1.23448 -3.9349 0
M  V30 11754 H 1099.21 -0.416486 -0.517141 0
M  V30 11755 H 1101.74 -1.70826 -1.12603 0
M  V30 11756 H 1101.75 -2.00244 -3.5548 0
M  V30 11757 H 1100.42 -2.96313 -2.91841 0
M  V30 11758 H 1099 -1.23303 -3.51924 0
M  V30 11759 N 1101.18 1.11143 -1.11736 0
M  V30 11760 C 1102.15 2.15456 -0.78174 0
M  V30 11761 C 1103.15 1.59547 0.200383 0
M  V30 11762 O 1104.34 1.74183 -0.0244893 0
M  V30 11763 C 1101.47 3.40523 -0.160364 0
M  V30 11764 H 1102.66 2.46658 -1.70586 0
M  V30 11765 H 1100.22 1.26381 -0.919644 0
M  V30 11766 H 1100.95 3.14932 0.773835 0
M  V30 11767 H 1100.74 3.82386 -0.867378 0
M  V30 11768 H 1102.23 4.17559 0.0582175 0
M  V30 11769 N 1102.66 0.908147 1.28804 0
M  V30 11770 C 1103.89 0.55409 1.99343 0
M  V30 11771 C 1104.31 -0.863262 1.67908 0
M  V30 11772 O 1103.66 -1.571 0.92875 0
M  V30 11773 C 1103.71 0.746916 3.537 0
M  V30 11774 O 1103.43 2.10849 3.84024 0
M  V30 11775 C 1104.94 0.398939 4.41501 0
M  V30 11776 H 1102.16 0.211784 0.636701 0
M  V30 11777 H 1104.7 1.21981 1.64137 0
M  V30 11778 H 1102.85 0.128264 3.87188 0
M  V30 11779 H 1103.27 2.14404 4.78676 0
M  V30 11780 H 1104.74 0.584656 5.48895 0
M  V30 11781 H 1105.22 -0.664517 4.34144 0
M  V30 11782 H 1105.83 0.994892 4.135 0
M  V30 11783 N 1104.14 -1.42577 0.671525 0
M  V30 11784 C 1105.07 -2.33499 0.00506984 0
M  V30 11785 C 1106.05 -1.50497 -0.792763 0
M  V30 11786 O 1107.24 -1.79109 -0.750574 0
M  V30 11787 C 1104.37 -3.34077 -0.949194 0
M  V30 11788 C 1103.32 -4.27208 -0.260187 0
M  V30 11789 C 1102.65 -5.17968 -1.32716 0
M  V30 11790 C 1103.95 -5.15192 0.858772 0
M  V30 11791 H 1105.64 -2.89477 0.764407 0
M  V30 11792 H 1103.19 -1.39191 0.369043 0
M  V30 11793 H 1105.14 -3.96594 -1.42448 0
M  V30 11794 H 1103.86 -2.76396 -1.73991 0
M  V30 11795 H 1102.52 -3.66082 0.194834 0
M  V30 11796 H 1102.17 -4.56615 -2.10979 0
M  V30 11797 H 1101.87 -5.81104 -0.871293 0
M  V30 11798 H 1103.39 -5.83359 -1.80345 0
M  V30 11799 H 1104.81 -5.71412 0.464844 0
M  V30 11800 H 1103.21 -5.87144 1.24023 0
M  V30 11801 H 1104.28 -4.53787 1.70895 0
M  V30 11802 N 1105.62 -0.414636 -1.52048 0
M  V30 11803 C 1106.87 0.159349 -2.01872 0
M  V30 11804 C 1107.19 1.44674 -1.29999 0
M  V30 11805 O 1106.45 1.91641 -0.396511 0
M  V30 11806 C 1106.75 0.448327 -3.54577 0
M  V30 11807 C 1106.41 -0.75052 -4.4461 0
M  V30 11808 C 1105.08 -1.07935 -4.68939 0
M  V30 11809 C 1107.43 -1.55134 -4.97577 0
M  V30 11810 C 1104.76 -2.21008 -5.43482 0
M  V30 11811 C 1107.11 -2.67288 -5.73358 0
M  V30 11812 C 1105.77 -3.00651 -5.95958 0
M  V30 11813 H 1105.04 0.05831 -0.738702 0
M  V30 11814 H 1107.69 -0.557184 -1.83215 0
M  V30 11815 H 1105.99 1.24649 -3.71443 0
M  V30 11816 H 1107.69 0.90549 -3.90643 0
M  V30 11817 H 1104.28 -0.484257 -4.25856 0
M  V30 11818 H 1108.46 -1.31052 -4.78685 0
M  V30 11819 H 1103.72 -2.47197 -5.59199 0
M  V30 11820 H 1107.89 -3.29725 -6.13396 0
M  V30 11821 H 1105.52 -3.88384 -6.535 0
M  V30 11822 N 1107.1 1.56929 -0.145233 0
M  V30 11823 C 1108.34 1.96358 0.50707 0
M  V30 11824 C 1108.68 1.03005 1.64632 0
M  V30 11825 O 1107.95 0.0721045 1.94366 0
M  V30 11826 C 1108.23 3.45502 1.01492 0
M  V30 11827 C 1108.09 4.49633 -0.122708 0
M  V30 11828 C 1109.41 3.97103 1.89729 0
M  V30 11829 H 1106.52 0.713958 0.182848 0
M  V30 11830 H 1109.17 1.8865 -0.226102 0
M  V30 11831 H 1107.32 3.52202 1.6397 0
M  V30 11832 H 1108.99 4.55013 -0.758988 0
M  V30 11833 H 1107.23 4.26691 -0.782109 0
M  V30 11834 H 1107.9 5.51318 0.27432 0
M  V30 11835 H 1110.38 3.92871 1.37082 0
M  V30 11836 H 1109.25 5.01927 2.22173 0
M  V30 11837 H 1109.52 3.39354 2.83357 0
M  V30 11838 N 1108.58 -0.128553 1.57075 0
M  V30 11839 C 1109.52 -1.15812 1.9964 0
M  V30 11840 C 1110.49 -1.41679 0.86696 0
M  V30 11841 O 1111.68 -1.53705 1.13046 0
M  V30 11842 C 1108.82 -2.48198 2.39774 0
M  V30 11843 C 1107.93 -2.29348 3.66092 0
M  V30 11844 C 1107.07 -3.54898 3.95248 0
M  V30 11845 C 1106.1 -3.31164 5.14779 0
M  V30 11846 N 1105.24 -4.48891 5.39853 0
M  V30 11847 H 1110.08 -0.788136 2.87389 0
M  V30 11848 H 1107.62 -0.377682 1.42169 0
M  V30 11849 H 1109.58 -3.25414 2.61077 0
M  V30 11850 H 1108.21 -2.83108 1.5508 0
M  V30 11851 H 1107.26 -1.43095 3.5246 0
M  V30 11852 H 1108.57 -2.07781 4.53463 0
M  V30 11853 H 1107.72 -4.40536 4.17148 0
M  V30 11854 H 1106.46 -3.79487 3.06335 0
M  V30 11855 H 1105.47 -2.43915 4.92733 0
M  V30 11856 H 1106.69 -3.07954 6.05261 0
M  V30 11857 H 1104.64 -4.73619 4.53895 0
M  V30 11858 H 1104.56 -4.30394 6.21528 0
M  V30 11859 H 1105.82 -5.35691 5.66265 0
M  V30 11860 N 1110.05 -1.5248 -0.398459 0
M  V30 11861 C 1111.3 -1.66287 -1.14155 0
M  V30 11862 C 1111.62 -0.40429 -1.91376 0
M  V30 11863 O 1112.82 -0.422341 -2.68195 0
M  V30 11864 C 1111.28 -2.93831 -2.07825 0
M  V30 11865 C 1110.89 -4.26836 -1.3607 0
M  V30 11866 C 1112.63 -3.17004 -2.82327 0
M  V30 11867 C 1110.54 -5.45495 -2.28451 0
M  V30 11868 H 1109.47 -0.619478 -0.42984 0
M  V30 11869 H 1112.12 -1.78972 -0.405112 0
M  V30 11870 H 1110.5 -2.7487 -2.85065 0
M  V30 11871 H 1111.67 -4.56317 -0.641205 0
M  V30 11872 H 1109.99 -4.0985 -0.735659 0
M  V30 11873 H 1112.59 -4.02834 -3.51609 0
M  V30 11874 H 1112.93 -2.3168 -3.45876 0
M  V30 11875 H 1113.46 -3.36487 -2.12183 0
M  V30 11876 H 1110.2 -6.33198 -1.69532 0
M  V30 11877 H 1109.72 -5.20338 -2.98343 0
M  V30 11878 H 1111.4 -5.78996 -2.88743 0
M  V30 11879 N 1111.53 0.65634 -1.43283 0
M  V30 11880 C 1112.76 1.44906 -1.48382 0
M  V30 11881 C 1113.18 1.87823 -0.101993 0
M  V30 11882 O 1112.54 1.57178 0.903597 0
M  V30 11883 C 1112.59 2.66231 -2.43215 0
M  V30 11884 O 1111.69 3.65176 -1.91625 0
M  V30 11885 H 1111.03 0.434601 -0.502014 0
M  V30 11886 H 1113.56 0.803429 -1.88165 0
M  V30 11887 H 1113.57 3.14083 -2.60414 0
M  V30 11888 H 1112.25 2.34336 -3.43598 0
M  V30 11889 H 1110.82 3.24302 -1.84072 0
M  V30 11890 N 1113.01 1.29761 0.894412 0
M  V30 11891 C 1113.94 1.17902 2.01547 0
M  V30 11892 C 1114.92 0.0719402 1.69948 0
M  V30 11893 O 1116.11 0.252338 1.92554 0
M  V30 11894 C 1113.24 0.860262 3.36477 0
M  V30 11895 C 1112.19 1.92424 3.82305 0
M  V30 11896 C 1111.52 1.45868 5.14419 0
M  V30 11897 C 1112.82 3.33391 4.02054 0
M  V30 11898 H 1114.51 2.11688 2.11727 0
M  V30 11899 H 1112.06 1.01916 1.01731 0
M  V30 11900 H 1114.01 0.763987 4.14417 0
M  V30 11901 H 1112.73 -0.113289 3.26403 0
M  V30 11902 H 1111.39 2.00999 3.06586 0
M  V30 11903 H 1111.04 0.473654 5.00765 0
M  V30 11904 H 1110.74 2.17028 5.46052 0
M  V30 11905 H 1112.26 1.37601 5.94894 0
M  V30 11906 H 1113.68 3.27628 4.7046 0
M  V30 11907 H 1112.07 4.02555 4.4505 0
M  V30 11908 H 1113.14 3.75978 3.06216 0
M  V30 11909 N 1114.49 -1.10549 1.12324 0
M  V30 11910 C 1115.42 -2.16657 0.747826 0
M  V30 11911 C 1116.43 -1.61238 -0.224981 0
M  V30 11912 O 1117.62 -1.78499 -0.00649408 0
M  V30 11913 C 1114.72 -3.38791 0.0859421 0
M  V30 11914 C 1113.89 -4.23655 1.08792 0
M  V30 11915 C 1112.95 -5.24239 0.453871 0
M  V30 11916 O 1111.98 -5.58262 1.11052 0
M  V30 11917 N 1113.18 -5.75246 -0.779215 0
M  V30 11918 H 1115.95 -2.49472 1.66084 0
M  V30 11919 H 1113.51 -1.26157 1.01469 0
M  V30 11920 H 1115.5 -4.03182 -0.350186 0
M  V30 11921 H 1114.07 -3.03961 -0.729807 0
M  V30 11922 H 1113.29 -3.55578 1.70171 0
M  V30 11923 H 1114.58 -4.77187 1.76549 0
M  V30 11924 H 1113.98 -5.49802 -1.3317 0
M  V30 11925 H 1112.53 -6.41428 -1.15818 0
M  V30 11926 N 1115.97 -0.914965 -1.28321 0
M  V30 11927 C 1117.24 -0.46764 -1.89928 0
M  V30 11928 C 1117.62 1.05364 -1.82925 0
M  V30 11929 O 1116.97 1.90223 -1.26599 0
M  V30 11930 C 1117.18 -0.999372 -3.34385 0
M  V30 11931 C 1118.53 -1.0522 -4.11356 0
M  V30 11932 O 1119.55 -0.9481 -3.4335 0
M  V30 11933 O 1118.41 -1.21085 -5.32917 0
M  V30 11934 H 1115.51 -0.148398 -0.813577 0
M  V30 11935 H 1118.05 -1.00583 -1.36679 0
M  V30 11936 H 1116.82 -2.04333 -3.33712 0
M  V30 11937 H 1116.45 -0.442083 -3.95135 0
M  V30 11938 O 1117.48 1.39244 -0.818128 0
M  V30 11939 H 1118.17 1.89556 -0.398508 0
M  V30 END ATOM
M  V30 BEGIN BOND
M  V30 END BOND
M  V30 END CTAB
M  END
$$$$
