drugbank_target|P12277 Creatine kinase B-type (DB00148; DB13191)
 OpenBabel12092119243D

  0  0  0     0  0            999 V3000
M  V30 BEGIN CTAB
M  V30 COUNTS 5932 5998 0 0 0
M  V30 BEGIN ATOM
M  V30 1 H -0.908 1.98254 -0.117106 0
M  V30 2 N 0 1.576 0 0
M  V30 3 C 0.933 2.03868 1.02534 0
M  V30 4 C 1.911 0.928543 1.3348 0
M  V30 5 O 3.095 1.19667 1.45644 0
M  V30 6 C 0.222 2.43627 2.35294 0
M  V30 7 C -0.732 3.65373 2.2001 0
M  V30 8 S 0.101 5.13292 1.52614 0
M  V30 9 C 1.257 5.56322 2.86805 0
M  V30 10 H 1.49 2.90518 0.631377 0
M  V30 11 H -0.977 1.52953 0.210867 0
M  V30 12 H 0.981 2.67203 3.11629 0
M  V30 13 H -0.358 1.57376 2.7183 0
M  V30 14 H -1.165 3.90944 3.18086 0
M  V30 15 H -1.563 3.418 1.51819 0
M  V30 16 H 0.729 5.58782 3.83104 0
M  V30 17 H 1.672 6.56266 2.65933 0
M  V30 18 H 2.08 4.83886 2.90714 0
M  V30 19 N 1.4781 -0.272755 1.55222 0
M  V30 20 C 2.8891 -0.84378 1.66545 0
M  V30 21 C 3.2401 -1.87035 0.592641 0
M  V30 22 O 2.3651 -2.14761 -0.265818 0
M  V30 23 C 2.9601 -1.53723 3.01918 0
M  V30 24 C 1.5191 -2.05628 3.15268 0
M  V30 25 C 0.6661 -0.898424 2.62343 0
M  V30 26 H 3.6171 -0.0490998 1.58624 0
M  V30 27 H 3.6381 -2.40421 2.94921 0
M  V30 28 H 3.1501 -0.78983 3.79978 0
M  V30 29 H 1.2511 -2.83329 2.41983 0
M  V30 30 H 1.3641 -2.27142 4.21833 0
M  V30 31 H -0.2719 -1.29186 2.19506 0
M  V30 32 H 0.5111 -0.164528 3.42906 0
M  V30 33 N 2.9562 -1.48159 -0.537278 0
M  V30 34 C 4.2032 -1.55804 -1.29349 0
M  V30 35 C 4.5312 -0.228802 -1.9315 0
M  V30 36 O 3.7862 0.780242 -1.79473 0
M  V30 37 C 4.0852 -2.63956 -2.40961 0
M  V30 38 C 3.7512 -4.0662 -1.94861 0
M  V30 39 C 2.4132 -4.45452 -1.82006 0
M  V30 40 C 4.7652 -4.96055 -1.59933 0
M  V30 41 C 2.0932 -5.71531 -1.32547 0
M  V30 42 C 4.4452 -6.22617 -1.11939 0
M  V30 43 C 3.1092 -6.60312 -0.976951 0
M  V30 44 H 2.3792 -0.570129 -0.473322 0
M  V30 45 H 5.0262 -1.81845 -0.600372 0
M  V30 46 H 3.3312 -2.31747 -3.15912 0
M  V30 47 H 5.0282 -2.67089 -2.99107 0
M  V30 48 H 1.6182 -3.75949 -2.05815 0
M  V30 49 H 5.8022 -4.66738 -1.68728 0
M  V30 50 H 1.0582 -5.99468 -1.202 0
M  V30 51 H 5.2322 -6.91318 -0.839811 0
M  V30 52 H 2.8592 -7.57895 -0.591501 0
M  V30 53 N 4.4343 0.785586 -1.36625 0
M  V30 54 C 5.6593 1.57963 -1.34397 0
M  V30 55 C 6.0843 1.87964 0.071526 0
M  V30 56 O 5.4423 1.48182 1.0446 0
M  V30 57 C 5.4903 2.87511 -2.17646 0
M  V30 58 O 4.5943 3.81281 -1.57158 0
M  V30 59 H 3.9353 0.479014 -0.459828 0
M  V30 60 H 6.4653 0.973411 -1.79961 0
M  V30 61 H 6.4753 3.36745 -2.30362 0
M  V30 62 H 5.1503 2.65002 -3.20541 0
M  V30 63 H 3.7273 3.39885 -1.53403 0
M  V30 64 N 5.9124 1.20967 1.01018 0
M  V30 65 C 6.8604 0.961223 2.1181 0
M  V30 66 C 7.8544 -0.0897034 1.69162 0
M  V30 67 O 9.0604 0.0612271 1.79896 0
M  V30 68 H 5.4354 0.29355 0.692338 0
M  V30 69 H 7.4064 1.90178 2.29946 0
M  V30 70 C 6.1554 0.536854 3.4353 0
M  V30 71 H 5.4784 1.33713 3.76777 0
M  V30 72 H 6.9184 0.402286 4.22087 0
M  V30 73 C 5.3774 -0.751574 3.2841 0
M  V30 74 O 5.9074 -1.80841 3.58691 0
M  V30 75 N 4.1134 -0.716079 2.81639 0
M  V30 76 H 3.6604 0.144236 2.57196 0
M  V30 77 H 3.6184 -1.57847 2.71904 0
M  V30 78 N 7.3905 -1.2043 1.01659 0
M  V30 79 C 8.6155 -1.94318 0.724942 0
M  V30 80 C 9.0405 -1.74266 -0.708034 0
M  V30 81 O 8.3985 -1.03694 -1.48719 0
M  V30 82 C 8.4465 -3.44486 1.06591 0
M  V30 83 O 7.5505 -4.12017 0.177599 0
M  V30 84 H 6.8915 -0.60708 0.26898 0
M  V30 85 H 9.4215 -1.52861 1.35995 0
M  V30 86 H 9.4315 -3.95106 1.01762 0
M  V30 87 H 8.1065 -3.58404 2.10997 0
M  V30 88 H 6.6835 -3.71821 0.283421 0
M  V30 89 N 8.8686 -0.792821 -1.36206 0
M  V30 90 C 9.8186 -0.166598 -2.27391 0
M  V30 91 C 10.8026 0.651479 -1.47121 0
M  V30 92 O 11.9946 0.510994 -1.69463 0
M  V30 93 C 9.1236 0.695033 -3.36191 0
M  V30 94 C 8.2096 -0.132019 -4.23894 0
M  V30 95 N 8.6006 -1.18822 -4.91645 0
M  V30 96 C 6.8986 0.0885952 -4.45912 0
M  V30 97 C 7.5996 -1.69198 -5.56549 0
M  V30 98 N 6.5756 -1.00065 -5.34311 0
M  V30 99 H 10.3776 -0.974947 -2.77258 0
M  V30 100 H 7.8916 -0.632616 -1.49572 0
M  V30 101 H 9.8886 1.1596 -4.00448 0
M  V30 102 H 8.5486 1.50189 -2.87877 0
M  V30 103 H 9.5596 -1.57069 -4.93507 0
M  V30 104 H 6.2366 0.865688 -4.08426 0
M  V30 105 H 7.6266 -2.57395 -6.20643 0
M  V30 106 N 10.3467 1.47872 -0.545128 0
M  V30 107 C 11.2947 2.31533 0.222512 0
M  V30 108 C 12.2887 1.42177 0.920985 0
M  V30 109 O 13.4947 1.59005 0.843645 0
M  V30 110 H 9.8697 0.746519 0.0906278 0
M  V30 111 H 11.8407 2.94139 -0.50246 0
M  V30 112 C 10.5897 3.2457 1.24699 0
M  V30 113 H 9.9127 3.93283 0.718944 0
M  V30 114 H 11.3527 3.85963 1.75523 0
M  V30 115 C 9.8117 2.47237 2.28856 0
M  V30 116 O 10.3417 2.20808 3.35569 0
M  V30 117 N 8.5477 2.08461 2.02466 0
M  V30 118 H 8.0947 2.30155 1.157 0
M  V30 119 H 8.0527 1.57033 2.72375 0
M  V30 120 N 11.8248 0.280983 1.55075 0
M  V30 121 C 12.7878 -0.590896 2.21452 0
M  V30 122 C 13.7878 -1.07682 1.19421 0
M  V30 123 O 14.9778 -0.97605 1.44288 0
M  V30 124 C 12.1098 -1.81587 2.88511 0
M  V30 125 H 13.3028 -0.0112554 2.99898 0
M  V30 126 H 10.8558 0.0316438 1.56268 0
M  V30 127 H 11.5908 -2.43587 2.14093 0
M  V30 128 H 11.3758 -1.4753 3.63287 0
M  V30 129 H 12.8658 -2.43575 3.39206 0
M  V30 130 N 13.3029 -1.57598 0.00835791 0
M  V30 131 C 14.2329 -2.1198 -0.979113 0
M  V30 132 C 15.2139 -1.03091 -1.35301 0
M  V30 133 O 16.3989 -1.30818 -1.43528 0
M  V30 134 C 13.5289 -2.62995 -2.26828 0
M  V30 135 C 12.4829 -3.76485 -2.03576 0
M  V30 136 C 11.8089 -4.13846 -3.38579 0
M  V30 137 C 13.1089 -5.0342 -1.39161 0
M  V30 138 H 14.8029 -2.94738 -0.526281 0
M  V30 139 H 12.3489 -1.41783 -0.251704 0
M  V30 140 H 14.3019 -2.99669 -2.96271 0
M  V30 141 H 13.0259 -1.7737 -2.7424 0
M  V30 142 H 11.6849 -3.40217 -1.36557 0
M  V30 143 H 11.3329 -3.25232 -3.83709 0
M  V30 144 H 11.0329 -4.90312 -3.23834 0
M  V30 145 H 12.5569 -4.53086 -4.09323 0
M  V30 146 H 13.9709 -5.37812 -1.98573 0
M  V30 147 H 12.3679 -5.84746 -1.34878 0
M  V30 148 H 13.4379 -4.83548 -0.361868 0
M  V30 149 N 14.781 0.264519 -1.55364 0
M  V30 150 C 15.728 1.32717 -1.88825 0
M  V30 151 C 16.698 1.48675 -0.740605 0
M  V30 152 O 17.883 1.62945 -0.992657 0
M  V30 153 C 15.023 2.68089 -2.17307 0
M  V30 154 C 14.136 2.60284 -3.44785 0
M  V30 155 C 13.271 3.87892 -3.62924 0
M  V30 156 C 12.31 3.74631 -4.84064 0
M  V30 157 N 11.447 4.94092 -4.98816 0
M  V30 158 H 16.287 1.03481 -2.79456 0
M  V30 159 H 13.824 0.499757 -1.3835 0
M  V30 160 H 15.782 3.46864 -2.31821 0
M  V30 161 H 14.412 2.95509 -1.299 0
M  V30 162 H 13.464 1.73173 -3.38697 0
M  V30 163 H 14.776 2.46388 -4.33698 0
M  V30 164 H 13.93 4.75109 -3.77302 0
M  V30 165 H 12.669 4.04664 -2.7221 0
M  V30 166 H 11.674 2.85797 -4.69681 0
M  V30 167 H 12.899 3.5937 -5.76221 0
M  V30 168 H 10.845 5.11259 -4.11036 0
M  V30 169 H 10.762 4.8276 -5.81789 0
M  V30 170 H 12.03 5.82857 -5.17588 0
M  V30 171 N 16.2591 1.48442 0.529413 0
M  V30 172 C 17.1891 1.65902 1.64313 0
M  V30 173 C 18.1701 0.507897 1.6234 0
M  V30 174 O 19.3551 0.740503 1.79528 0
M  V30 175 C 16.4851 1.69911 3.02898 0
M  V30 176 C 15.4391 2.8453 3.19729 0
M  V30 177 C 14.7651 2.73629 4.59381 0
M  V30 178 C 16.0651 4.25821 3.02447 0
M  V30 179 H 17.7591 2.5914 1.49955 0
M  V30 180 H 15.3051 1.24709 0.719982 0
M  V30 181 H 17.2581 1.80715 3.80684 0
M  V30 182 H 15.9821 0.732524 3.18279 0
M  V30 183 H 14.6411 2.73283 2.44361 0
M  V30 184 H 14.2891 1.74938 4.71599 0
M  V30 185 H 13.9891 3.50541 4.71588 0
M  V30 186 H 15.5131 2.86401 5.39265 0
M  V30 187 H 16.9271 4.37898 3.70024 0
M  V30 188 H 15.3241 5.03735 3.26146 0
M  V30 189 H 16.3941 4.42244 1.98867 0
M  V30 190 N 17.7372 -0.778329 1.37039 0
M  V30 191 C 19.1532 -1.07796 1.17695 0
M  V30 192 C 19.3532 -2.01498 0.00860115 0
M  V30 193 O 18.4092 -2.43901 -0.653352 0
M  V30 194 C 19.7222 -1.68178 2.49272 0
M  V30 195 C 21.2702 -1.80467 2.55735 0
M  V30 196 C 21.7452 -2.44263 3.87427 0
M  V30 197 N 23.2362 -2.51721 3.88833 0
M  V30 198 C 23.9712 -3.01919 4.87476 0
M  V30 199 N 23.4672 -3.5234 5.96513 0
M  V30 200 N 25.2602 -3.00733 4.74885 0
M  V30 201 H 17.4112 -0.156032 2.11826 0
M  V30 202 H 19.6742 -0.131844 0.938787 0
M  V30 203 H 19.3802 -1.06796 3.35093 0
M  V30 204 H 19.2542 -2.67554 2.65885 0
M  V30 205 H 21.6412 -2.40984 1.70325 0
M  V30 206 H 21.7222 -0.798656 2.43013 0
M  V30 207 H 21.3662 -1.84388 4.73248 0
M  V30 208 H 21.2962 -3.45458 3.9745 0
M  V30 209 H 23.7872 -2.1603 3.10063 0
M  V30 210 H 24.1002 -3.89027 6.67741 0
M  V30 211 H 22.4452 -3.50462 6.00168 0
M  V30 212 H 25.6362 -2.60638 3.88826 0
M  V30 213 H 25.8092 -3.39545 5.51918 0
M  V30 214 N 19.2153 -1.21501 -1.00376 0
M  V30 215 C 20.4623 -1.03299 -1.74171 0
M  V30 216 C 20.7903 0.433326 -1.89612 0
M  V30 217 O 20.0453 1.33779 -1.42834 0
M  V30 218 C 20.3443 -1.67673 -3.15627 0
M  V30 219 C 20.0103 -3.17533 -3.2013 0
M  V30 220 C 18.6723 -3.58427 -3.21067 0
M  V30 221 C 21.0243 -4.13504 -3.17275 0
M  V30 222 C 18.3523 -4.93794 -3.16835 0
M  V30 223 C 20.7043 -5.48834 -3.14585 0
M  V30 224 C 19.3683 -5.89123 -3.13831 0
M  V30 225 H 18.6383 -0.377999 -0.637336 0
M  V30 226 H 21.2853 -1.51111 -1.17634 0
M  V30 227 H 19.5903 -1.12158 -3.75404 0
M  V30 228 H 21.2873 -1.51091 -3.71446 0
M  V30 229 H 17.8773 -2.84965 -3.20145 0
M  V30 230 H 22.0613 -3.82936 -3.15711 0
M  V30 231 H 17.3173 -5.24255 -3.1459 0
M  V30 232 H 21.4913 -6.22934 -3.1133 0
M  V30 233 H 19.1183 -6.93984 -3.10307 0
M  V30 234 N 20.6934 1.19889 -1.02296 0
M  V30 235 C 22.1044 1.71124 -0.746568 0
M  V30 236 C 22.4554 1.81939 0.734335 0
M  V30 237 O 21.5804 1.48639 1.57275 0
M  V30 238 C 22.1754 3.10804 -1.34857 0
M  V30 239 C 20.7344 3.59323 -1.1209 0
M  V30 240 C 19.8814 2.3635 -1.45031 0
M  V30 241 H 22.8324 1.04813 -1.19163 0
M  V30 242 H 22.8534 3.73186 -0.742437 0
M  V30 243 H 22.3654 3.029 -2.42638 0
M  V30 244 H 20.4664 3.7255 -0.0610337 0
M  V30 245 H 20.5794 4.4378 -1.80544 0
M  V30 246 H 18.9434 2.39399 -0.869487 0
M  V30 247 H 19.7264 2.31081 -2.53883 0
M  V30 248 N 22.1715 0.800033 1.35784 0
M  V30 249 C 23.1345 0.211565 2.28221 0
M  V30 250 C 24.1345 -0.59728 1.49296 0
M  V30 251 O 25.3245 -0.416721 1.69142 0
M  V30 252 C 22.4565 -0.705846 3.33513 0
M  V30 253 H 23.6495 1.02677 2.81776 0
M  V30 254 H 21.2025 0.570211 1.45528 0
M  V30 255 H 21.9375 -1.54498 2.85133 0
M  V30 256 H 21.7225 -0.127655 3.91892 0
M  V30 257 H 23.2125 -1.11211 4.02519 0
M  V30 258 N 23.6496 -1.47581 0.552962 0
M  V30 259 C 24.5596 -2.33743 -0.200353 0
M  V30 260 C 25.5756 -1.47928 -0.916151 0
M  V30 261 O 26.7516 -1.80865 -0.885993 0
M  V30 262 C 23.8166 -3.24536 -1.21973 0
M  V30 263 C 22.8776 -4.26238 -0.511819 0
M  V30 264 C 22.1106 -5.12693 -1.48263 0
M  V30 265 O 22.3336 -5.01525 -2.71714 0
M  V30 266 O 21.2676 -5.93375 -1.00945 0
M  V30 267 H 25.0936 -2.9945 0.506304 0
M  V30 268 H 22.6786 -1.46071 0.313622 0
M  V30 269 H 24.5606 -3.80631 -1.80827 0
M  V30 270 H 23.2356 -2.61462 -1.90839 0
M  V30 271 H 22.1426 -3.73914 0.117799 0
M  V30 272 H 23.4756 -4.92014 0.135308 0
M  V30 273 N 25.1277 -0.289203 -1.54924 0
M  V30 274 C 26.4047 0.376032 -1.91951 0
M  V30 275 C 26.7847 1.72622 -1.21511 0
M  V30 276 O 26.1327 2.25853 -0.346767 0
M  V30 277 C 26.3427 0.502378 -3.45365 0
M  V30 278 C 27.6907 0.778741 -4.17398 0
M  V30 279 O 28.7147 0.586647 -3.51336 0
M  V30 280 O 27.5737 1.14698 -5.34328 0
M  V30 281 H 24.6677 0.208167 -0.800372 0
M  V30 282 H 27.2137 -0.336394 -1.66332 0
M  V30 283 H 25.9857 -0.447255 -3.88736 0
M  V30 284 H 25.6087 1.26373 -3.76982 0
M  V30 285 N 26.6058 1.57591 -0.0167156 0
M  V30 286 C 27.5158 2.1291 0.98521 0
M  V30 287 C 28.5318 1.07834 1.36557 0
M  V30 288 O 29.7078 1.39826 1.44951 0
M  V30 289 C 26.7728 2.63512 2.25305 0
M  V30 290 C 25.8338 3.83256 1.93426 0
M  V30 291 C 25.0668 4.31435 3.14165 0
M  V30 292 O 25.2898 3.78851 4.26413 0
M  V30 293 O 24.2238 5.23416 2.97186 0
M  V30 294 H 28.0498 2.98772 0.544888 0
M  V30 295 H 25.6348 1.48012 0.203141 0
M  V30 296 H 27.5168 2.96183 2.99756 0
M  V30 297 H 26.1918 1.8074 2.68542 0
M  V30 298 H 25.0988 3.55531 1.16398 0
M  V30 299 H 26.4318 4.67153 1.55013 0
M  V30 300 N 28.0839 -0.256276 1.55502 0
M  V30 301 C 29.3309 -0.985619 1.76895 0
M  V30 302 C 29.6589 -1.85671 0.579355 0
M  V30 303 O 28.9139 -1.90744 -0.437651 0
M  V30 304 C 29.2129 -1.88432 3.03691 0
M  V30 305 C 28.8789 -1.16936 4.35473 0
M  V30 306 C 27.5409 -0.97173 4.71286 0
M  V30 307 C 29.8929 -0.661889 5.1698 0
M  V30 308 C 27.2209 -0.254179 5.86149 0
M  V30 309 C 29.5729 0.042149 6.32586 0
M  V30 310 C 28.2369 0.25134 6.67027 0
M  V30 311 H 27.5069 -0.360663 0.647304 0
M  V30 312 H 30.1539 -0.256483 1.89775 0
M  V30 313 H 28.4589 -2.68021 2.85783 0
M  V30 314 H 30.1559 -2.45015 3.1744 0
M  V30 315 H 26.7459 -1.33332 4.07333 0
M  V30 316 H 30.9299 -0.802145 4.89775 0
M  V30 317 H 26.1859 -0.0815408 6.11346 0
M  V30 318 H 30.3599 0.443049 6.94989 0
M  V30 319 H 27.9869 0.809314 7.5588 0
M  V30 320 N 29.562 -1.4872 -0.521534 0
M  V30 321 C 30.973 -1.50607 -1.10337 0
M  V30 322 C 31.324 -0.280612 -1.94183 0
M  V30 323 O 30.449 0.611507 -2.0758 0
M  V30 324 C 31.044 -2.72903 -2.00772 0
M  V30 325 C 29.603 -2.77634 -2.54158 0
M  V30 326 C 28.75 -2.44241 -1.31307 0
M  V30 327 H 31.701 -1.55714 -0.306388 0
M  V30 328 H 31.722 -2.519 -2.85178 0
M  V30 329 H 31.234 -3.62077 -1.39721 0
M  V30 330 H 29.335 -1.92689 -3.18907 0
M  V30 331 H 29.448 -3.79283 -2.92714 0
M  V30 332 H 27.812 -1.95577 -1.63161 0
M  V30 333 H 28.595 -3.35666 -0.719943 0
M  V30 334 N 31.0401 0.771051 -1.3745 0
M  V30 335 C 32.3171 1.519 -1.23231 0
M  V30 336 C 32.6971 2.10383 0.173809 0
M  V30 337 O 32.0451 1.95583 1.18151 0
M  V30 338 C 32.2551 2.59933 -2.32886 0
M  V30 339 C 33.6031 3.27316 -2.70461 0
M  V30 340 O 34.6271 2.70228 -2.32068 0
M  V30 341 O 33.4861 4.30531 -3.36608 0
M  V30 342 H 30.5801 0.672803 -0.480901 0
M  V30 343 H 33.1261 0.807957 -1.49232 0
M  V30 344 H 31.8981 2.14842 -3.27045 0
M  V30 345 H 31.5211 3.38637 -2.08353 0
M  V30 346 N 32.5182 1.22032 0.997298 0
M  V30 347 C 33.4482 1.01065 2.10495 0
M  V30 348 C 34.4292 -0.0669542 1.69968 0
M  V30 349 O 35.6142 0.0943987 1.9397 0
M  V30 350 C 32.7442 0.582874 3.42374 0
M  V30 351 C 31.6982 1.60592 3.96729 0
M  V30 352 C 31.0242 1.03412 5.24605 0
M  V30 353 C 32.3242 2.99478 4.27914 0
M  V30 354 H 34.0182 1.93708 2.28292 0
M  V30 355 H 31.5642 0.932761 1.09707 0
M  V30 356 H 33.5172 0.423332 4.19268 0
M  V30 357 H 32.2412 -0.379213 3.24391 0
M  V30 358 H 30.9002 1.75316 3.21963 0
M  V30 359 H 30.5482 0.063518 5.0296 0
M  V30 360 H 30.2482 1.71754 5.61938 0
M  V30 361 H 31.7722 0.886066 6.04137 0
M  V30 362 H 33.1862 2.88153 4.95622 0
M  V30 363 H 31.5832 3.64903 4.76409 0
M  V30 364 H 32.6532 3.49742 3.3587 0
M  V30 365 N 33.9963 -1.19345 1.0293 0
M  V30 366 C 35.2213 -1.93538 0.745511 0
M  V30 367 C 35.6463 -1.75007 -0.689511 0
M  V30 368 O 35.0043 -1.05265 -1.47611 0
M  V30 369 C 35.0523 -3.43336 1.10239 0
M  V30 370 O 34.1563 -4.11806 0.221289 0
M  V30 371 H 33.4973 -0.604193 0.275404 0
M  V30 372 H 36.0273 -1.5141 1.37609 0
M  V30 373 H 36.0373 -3.94004 1.05947 0
M  V30 374 H 34.7123 -3.56146 2.14786 0
M  V30 375 H 33.2893 -3.715 0.322842 0
M  V30 376 N 35.4744 -0.807222 -1.35358 0
M  V30 377 C 36.4374 -0.223665 -2.28106 0
M  V30 378 C 37.4374 0.589354 -1.4961 0
M  V30 379 O 38.6274 0.407745 -1.69361 0
M  V30 380 C 35.7594 0.688149 -3.33882 0
M  V30 381 H 36.9524 -1.04169 -2.81227 0
M  V30 382 H 34.5054 -0.577921 -1.45223 0
M  V30 383 H 35.2404 1.52984 -2.85948 0
M  V30 384 H 35.0254 0.10687 -3.91954 0
M  V30 385 H 36.5154 1.09075 -4.03104 0
M  V30 386 N 36.9525 1.47285 -0.560781 0
M  V30 387 C 37.9025 2.27073 0.205384 0
M  V30 388 C 38.8865 1.34569 0.882044 0
M  V30 389 O 40.0785 1.58899 0.77976 0
M  V30 390 C 37.2075 3.20414 1.23247 0
M  V30 391 C 36.2935 4.20399 0.559041 0
M  V30 392 N 36.6845 5.04423 -0.372927 0
M  V30 393 C 34.9825 4.38536 0.812522 0
M  V30 394 C 35.6835 5.76655 -0.764446 0
M  V30 395 N 34.6595 5.43471 -0.11848 0
M  V30 396 H 38.4615 2.89422 -0.511117 0
M  V30 397 H 35.9755 1.57868 -0.380975 0
M  V30 398 H 37.9725 3.76262 1.79534 0
M  V30 399 H 36.6325 2.59623 1.95002 0
M  V30 400 H 37.6435 5.1248 -0.747287 0
M  V30 401 H 34.3205 3.88913 1.51832 0
M  V30 402 H 35.7105 6.54238 -1.53045 0
M  V30 403 N 38.4306 0.297415 1.54768 0
M  V30 404 C 39.3786 -0.596051 2.24833 0
M  V30 405 C 40.3726 -1.13992 1.25308 0
M  V30 406 O 41.5786 -1.09098 1.4317 0
M  V30 407 H 37.9536 -0.210814 0.721846 0
M  V30 408 H 39.9246 0.0174667 2.98395 0
M  V30 409 C 38.6736 -1.75818 2.99972 0
M  V30 410 H 37.9966 -1.3489 3.76357 0
M  V30 411 H 39.4366 -2.35949 3.52284 0
M  V30 412 C 37.8956 -2.66014 2.06732 0
M  V30 413 O 38.4256 -3.67009 1.63302 0
M  V30 414 N 36.6316 -2.33669 1.72763 0
M  V30 415 H 36.1786 -1.51586 2.08277 0
M  V30 416 H 36.1366 -2.94285 1.10652 0
M  V30 417 N 39.9087 -1.5758 0.0250728 0
M  V30 418 C 40.8567 -2.11125 -0.97617 0
M  V30 419 C 41.8507 -1.03689 -1.33959 0
M  V30 420 O 43.0567 -1.22128 -1.3223 0
M  V30 421 H 39.4317 -0.674468 -0.332561 0
M  V30 422 H 41.4027 -2.94194 -0.499223 0
M  V30 423 C 40.1517 -2.65017 -2.2508 0
M  V30 424 H 39.4747 -3.47333 -1.9799 0
M  V30 425 H 40.9147 -3.06133 -2.93357 0
M  V30 426 C 39.3737 -1.57574 -2.97779 0
M  V30 427 O 39.9037 -0.973203 -3.89733 0
M  V30 428 N 38.1097 -1.29716 -2.60043 0
M  V30 429 H 37.6567 -1.789 -1.85345 0
M  V30 430 H 37.6147 -0.58051 -3.08994 0
M  V30 431 N 41.3868 0.248026 -1.55636 0
M  V30 432 C 42.3368 1.30994 -1.86614 0
M  V30 433 C 43.3208 1.43543 -0.726918 0
M  V30 434 O 44.5128 1.46804 -0.988818 0
M  V30 435 C 41.6418 2.6656 -2.16335 0
M  V30 436 C 40.7278 2.58019 -3.36581 0
M  V30 437 N 41.1188 2.1911 -4.55878 0
M  V30 438 C 39.4168 2.89035 -3.39669 0
M  V30 439 C 40.1178 2.21174 -5.38012 0
M  V30 440 N 39.0938 2.60632 -4.77045 0
M  V30 441 H 42.8958 0.999583 -2.76379 0
M  V30 442 H 40.4098 0.456652 -1.55848 0
M  V30 443 H 42.4068 3.43194 -2.36692 0
M  V30 444 H 41.0668 2.98463 -1.27867 0
M  V30 445 H 42.0778 1.90672 -4.81523 0
M  V30 446 H 38.7548 3.25485 -2.61469 0
M  V30 447 H 40.1448 1.9344 -6.43452 0
M  V30 448 N 42.8649 1.48995 0.513639 0
M  V30 449 C 43.7979 1.59319 1.63379 0
M  V30 450 C 44.7759 0.442816 1.56454 0
M  V30 451 O 45.9599 0.656655 1.76693 0
M  V30 452 C 43.0869 1.5364 3.01848 0
M  V30 453 C 42.1329 2.7372 3.27078 0
M  V30 454 S 42.9659 4.35528 3.1157 0
M  V30 455 C 44.1219 4.32473 4.52458 0
M  V30 456 H 44.3549 2.54079 1.54374 0
M  V30 457 H 41.8879 1.3773 0.697849 0
M  V30 458 H 43.8459 1.51049 3.81699 0
M  V30 459 H 42.5069 0.601898 3.08279 0
M  V30 460 H 41.6999 2.6593 4.28132 0
M  V30 461 H 41.3019 2.73657 2.54927 0
M  V30 462 H 43.5939 4.03414 5.44301 0
M  V30 463 H 44.5369 5.33762 4.65299 0
M  V30 464 H 44.9449 3.62718 4.32546 0
M  V30 465 N 44.343 -0.763751 1.37857 0
M  V30 466 C 45.306 -1.85889 1.34081 0
M  V30 467 C 46.306 -1.58949 0.243277 0
M  V30 468 O 47.496 -1.66882 0.499589 0
M  V30 469 C 44.628 -3.23176 1.08489 0
M  V30 470 H 45.821 -1.90648 2.31502 0
M  V30 471 H 43.374 -0.964367 1.23003 0
M  V30 472 H 44.109 -3.24091 0.116318 0
M  V30 473 H 43.894 -3.44124 1.8794 0
M  V30 474 H 45.384 -4.03254 1.08517 0
M  V30 475 N 45.8211 -1.22559 -0.990812 0
M  V30 476 C 46.7681 -0.997519 -2.0813 0
M  V30 477 C 47.7381 0.0814702 -1.659 0
M  V30 478 O 48.9231 -0.0685424 -1.90677 0
M  V30 479 C 46.0631 -0.583615 -3.40129 0
M  V30 480 C 45.1761 -1.7336 -3.9569 0
M  V30 481 C 44.3111 -1.26748 -5.15857 0
M  V30 482 C 43.3501 -2.38888 -5.63559 0
M  V30 483 N 42.4871 -1.93308 -6.74964 0
M  V30 484 H 47.3271 -1.93099 -2.26973 0
M  V30 485 H 44.8641 -0.962114 -1.11273 0
M  V30 486 H 46.8221 -0.324801 -4.15934 0
M  V30 487 H 45.4521 0.312845 -3.2128 0
M  V30 488 H 44.5041 -2.10669 -3.16738 0
M  V30 489 H 45.8161 -2.57704 -4.27071 0
M  V30 490 H 44.9701 -0.966173 -5.98957 0
M  V30 491 H 43.7091 -0.394272 -4.86104 0
M  V30 492 H 42.7141 -2.69805 -4.79046 0
M  V30 493 H 43.9391 -3.26728 -5.95336 0
M  V30 494 H 41.8851 -1.08352 -6.4699 0
M  V30 495 H 41.8021 -2.71217 -7.05675 0
M  V30 496 H 43.0701 -1.66252 -7.61564 0
M  V30 497 N 47.2992 1.18797 -1.03562 0
M  V30 498 C 48.5452 1.8893 -0.737113 0
M  V30 499 C 48.8782 1.79837 0.732956 0
M  V30 500 O 48.1532 1.19525 1.5344 0
M  V30 501 C 48.4362 3.39607 -1.19745 0
M  V30 502 C 48.2892 3.57537 -2.72924 0
M  V30 503 C 49.6082 4.33069 -0.783526 0
M  V30 504 H 46.7272 0.686057 -0.269249 0
M  V30 505 H 49.3692 1.39797 -1.28673 0
M  V30 506 H 47.5192 3.81583 -0.729855 0
M  V30 507 H 49.1912 3.24688 -3.27682 0
M  V30 508 H 47.4342 3.00363 -3.12993 0
M  V30 509 H 48.1052 4.63238 -3.00191 0
M  V30 510 H 50.5812 3.98846 -1.18581 0
M  V30 511 H 49.4572 5.3707 -1.13343 0
M  V30 512 H 49.7182 4.40986 0.313681 0
M  V30 513 N 48.7773 0.814389 1.34928 0
M  V30 514 C 49.7073 0.244827 2.32213 0
M  V30 515 C 50.6883 -0.634024 1.57842 0
M  V30 516 O 51.8733 -0.562676 1.8587 0
M  V30 517 C 49.0033 -0.601106 3.42058 0
M  V30 518 C 47.9573 0.179896 4.27622 0
M  V30 519 C 47.2833 -0.788237 5.28858 0
M  V30 520 C 48.5833 1.38329 5.03649 0
M  V30 521 H 50.2773 1.05763 2.80097 0
M  V30 522 H 47.8233 0.510029 1.34665 0
M  V30 523 H 49.7763 -1.00968 4.09125 0
M  V30 524 H 48.5003 -1.44688 2.92802 0
M  V30 525 H 47.1593 0.569739 3.62146 0
M  V30 526 H 46.8073 -1.62973 4.75866 0
M  V30 527 H 46.5073 -0.269942 5.8698 0
M  V30 528 H 48.0313 -1.19485 5.98795 0
M  V30 529 H 49.4453 1.04918 5.63618 0
M  V30 530 H 47.8423 1.83662 5.71304 0
M  V30 531 H 48.9123 2.16592 4.33839 0
M  V30 532 N 50.2554 -1.46986 0.568584 0
M  V30 533 C 51.4834 -2.0683 0.0539956 0
M  V30 534 C 51.8984 -1.41953 -1.24478 0
M  V30 535 O 51.2554 -0.519933 -1.74937 0
M  V30 536 C 51.3064 -3.61254 -0.133362 0
M  V30 537 O 51.0274 -4.237 1.11399 0
M  V30 538 C 52.5284 -4.37992 -0.683927 0
M  V30 539 H 49.7484 -0.669058 0.0510141 0
M  V30 540 H 52.2924 -1.88824 0.785234 0
M  V30 541 H 50.4474 -3.78735 -0.81477 0
M  V30 542 H 50.8614 -5.16388 0.91888 0
M  V30 543 H 52.3354 -5.46684 -0.764263 0
M  V30 544 H 52.8124 -4.05058 -1.69778 0
M  V30 545 H 53.4184 -4.25283 -0.0378494 0
M  V30 546 N 51.7335 -0.305618 -1.54608 0
M  V30 547 C 53.1445 0.186098 -1.8577 0
M  V30 548 C 53.4955 1.53058 -1.22751 0
M  V30 549 O 52.6205 2.09888 -0.526893 0
M  V30 550 C 53.2155 0.344449 -3.37044 0
M  V30 551 C 51.7745 0.780384 -3.68221 0
M  V30 552 C 50.9215 -0.108554 -2.77087 0
M  V30 553 H 53.8725 -0.526485 -1.49712 0
M  V30 554 H 53.8935 1.17828 -3.61796 0
M  V30 555 H 53.4055 -0.634235 -3.82883 0
M  V30 556 H 51.5065 1.76945 -3.27904 0
M  V30 557 H 51.6195 0.596572 -4.75371 0
M  V30 558 H 49.9835 0.412931 -2.5133 0
M  V30 559 H 50.7665 -1.08368 -3.25747 0
M  V30 560 N 53.2116 1.57565 -0.0334293 0
M  V30 561 C 54.1216 2.13943 0.962572 0
M  V30 562 C 55.1376 1.09276 1.35406 0
M  V30 563 O 56.3136 1.41355 1.4346 0
M  V30 564 C 53.3786 2.65887 2.22497 0
M  V30 565 C 52.4396 3.85286 1.8935 0
M  V30 566 C 51.6726 4.34743 3.09571 0
M  V30 567 O 51.8956 3.83352 4.22371 0
M  V30 568 O 50.8296 5.26538 2.91618 0
M  V30 569 H 54.6556 2.99333 0.513169 0
M  V30 570 H 52.2406 1.4822 0.18743 0
M  V30 571 H 54.1226 2.99346 2.96598 0
M  V30 572 H 52.7976 1.83578 2.6661 0
M  V30 573 H 51.7046 3.56746 1.1262 0
M  V30 574 H 53.0376 4.68771 1.5005 0
M  V30 575 N 54.6897 -0.239769 1.55765 0
M  V30 576 C 55.6197 -1.30052 1.9393 0
M  V30 577 C 56.6007 -1.49839 0.805132 0
M  V30 578 O 57.7857 -1.62328 1.06599 0
M  V30 579 C 54.9157 -2.65391 2.2402 0
M  V30 580 C 53.8697 -2.60289 3.39755 0
M  V30 581 C 53.1957 -3.99489 3.55405 0
M  V30 582 C 54.4957 -2.16654 4.75246 0
M  V30 583 H 56.1897 -0.983573 2.82783 0
M  V30 584 H 53.7357 -0.471701 1.36055 0
M  V30 585 H 55.6887 -3.3974 2.49308 0
M  V30 586 H 54.4127 -2.98736 1.32 0
M  V30 587 H 53.0717 -1.88398 3.14487 0
M  V30 588 H 52.7197 -4.30112 2.60793 0
M  V30 589 H 52.4197 -3.96962 4.33238 0
M  V30 590 H 53.9437 -4.75528 3.83022 0
M  V30 591 H 55.3577 -2.80737 4.99859 0
M  V30 592 H 53.7547 -2.25223 5.56232 0
M  V30 593 H 54.8247 -1.11835 4.71827 0
M  V30 594 N 56.1678 -1.49265 -0.50573 0
M  V30 595 C 57.3978 -1.61979 -1.28243 0
M  V30 596 C 57.8058 -0.288576 -1.86986 0
M  V30 597 O 57.1488 0.735408 -1.68337 0
M  V30 598 C 57.2108 -2.62632 -2.45489 0
M  V30 599 C 56.8748 -4.071 -2.07651 0
M  V30 600 C 57.8718 -4.94049 -1.61901 0
M  V30 601 C 55.5568 -4.52801 -2.17431 0
M  V30 602 C 57.5508 -6.24736 -1.26428 0
M  V30 603 C 55.2378 -5.83503 -1.8157 0
M  V30 604 C 56.2358 -6.69294 -1.36142 0
M  V30 605 O 55.9238 -7.9756 -1.00764 0
M  V30 606 H 55.6558 -0.54834 -0.395347 0
M  V30 607 H 58.2098 -1.96002 -0.614204 0
M  V30 608 H 56.4398 -2.2378 -3.15372 0
M  V30 609 H 58.1288 -2.64925 -3.07522 0
M  V30 610 H 58.8948 -4.5997 -1.53795 0
M  V30 611 H 54.7738 -3.86196 -2.51742 0
M  V30 612 H 58.3178 -6.91652 -0.908992 0
M  V30 613 H 54.2148 -6.17112 -1.89324 0
M  V30 614 H 54.9828 -8.10529 -1.13952 0
M  V30 615 N 57.6459 0.756429 -1.3826 0
M  V30 616 C 58.6089 1.85176 -1.35065 0
M  V30 617 C 59.6089 1.58818 -0.251703 0
M  V30 618 O 60.7989 1.66615 -0.508433 0
M  V30 619 C 57.9309 3.22596 -1.10201 0
M  V30 620 H 59.1239 1.89417 -2.3251 0
M  V30 621 H 56.6769 0.95783 -1.23512 0
M  V30 622 H 57.4119 3.24025 -0.133504 0
M  V30 623 H 57.1969 3.43122 -1.89762 0
M  V30 624 H 58.6869 4.02673 -1.10654 0
M  V30 625 N 59.124 1.23083 0.984299 0
M  V30 626 C 60.034 1.02515 2.11016 0
M  V30 627 C 61.05 -0.0291702 1.73976 0
M  V30 628 O 62.226 0.165434 2.00719 0
M  V30 629 C 59.291 0.614673 3.41208 0
M  V30 630 C 58.352 1.74359 3.92297 0
M  V30 631 C 57.585 1.35261 5.16275 0
M  V30 632 O 57.808 0.235136 5.69915 0
M  V30 633 O 56.742 2.17227 5.61334 0
M  V30 634 H 60.568 1.96862 2.31255 0
M  V30 635 H 58.153 1.01753 1.09392 0
M  V30 636 H 60.035 0.396518 4.1953 0
M  V30 637 H 58.71 -0.299851 3.22308 0
M  V30 638 H 57.617 2.01635 3.1511 0
M  V30 639 H 58.95 2.63629 4.15645 0
M  V30 640 N 60.6021 -1.18246 1.0419 0
M  V30 641 C 61.5321 -2.24127 0.654914 0
M  V30 642 C 62.5131 -1.66617 -0.342451 0
M  V30 643 O 63.6981 -1.92924 -0.222277 0
M  V30 644 C 60.8281 -3.47295 0.0183757 0
M  V30 645 C 59.7821 -4.17563 0.939414 0
M  V30 646 C 59.1081 -5.34438 0.167286 0
M  V30 647 C 60.4081 -4.70917 2.25908 0
M  V30 648 H 62.1021 -2.56753 1.54007 0
M  V30 649 H 59.6481 -1.23414 0.74195 0
M  V30 650 H 61.6011 -4.20572 -0.264082 0
M  V30 651 H 60.3251 -3.13907 -0.901664 0
M  V30 652 H 58.9841 -3.46186 1.20628 0
M  V30 653 H 58.6321 -4.97298 -0.7552 0
M  V30 654 H 58.3321 -5.82388 0.780901 0
M  V30 655 H 59.8561 -6.10504 -0.108125 0
M  V30 656 H 61.2701 -5.35882 2.03724 0
M  V30 657 H 59.6671 -5.29406 2.82577 0
M  V30 658 H 60.7371 -3.88272 2.9047 0
M  V30 659 N 62.0802 -0.821533 -1.34494 0
M  V30 660 C 63.4962 -0.507117 -1.51329 0
M  V30 661 C 63.6962 0.968964 -1.76673 0
M  V30 662 O 62.7522 1.75348 -1.81685 0
M  V30 663 C 64.0652 -1.36544 -2.67911 0
M  V30 664 C 65.6132 -1.36242 -2.81793 0
M  V30 665 C 66.0882 -2.2052 -4.01416 0
M  V30 666 N 67.5792 -2.18136 -4.08621 0
M  V30 667 C 68.3142 -2.80095 -5.00334 0
M  V30 668 N 67.8102 -3.51039 -5.9728 0
M  V30 669 N 69.6032 -2.69656 -4.93196 0
M  V30 670 H 61.7542 -1.77729 -1.16302 0
M  V30 671 H 64.0172 -0.757291 -0.570276 0
M  V30 672 H 63.7232 -2.41361 -2.55808 0
M  V30 673 H 63.5972 -1.02917 -3.62888 0
M  V30 674 H 65.9842 -0.322041 -2.93338 0
M  V30 675 H 66.0652 -1.73866 -1.87628 0
M  V30 676 H 65.7092 -3.24607 -3.90631 0
M  V30 677 H 65.6392 -1.80247 -4.94791 0
M  V30 678 H 68.1302 -1.6653 -3.39229 0
M  V30 679 H 68.4432 -3.95565 -6.63889 0
M  V30 680 H 66.7882 -3.55145 -5.97409 0
M  V30 681 H 69.9792 -2.13808 -4.16418 0
M  V30 682 H 70.1522 -3.1823 -5.64476 0
M  V30 683 N 63.5583 1.46682 -0.576371 0
M  V30 684 C 64.5213 2.28707 0.150239 0
M  V30 685 C 65.5213 1.38035 0.824794 0
M  V30 686 O 66.7113 1.60476 0.677719 0
M  V30 687 C 63.8433 3.18248 1.22192 0
M  V30 688 H 65.0363 2.94423 -0.570521 0
M  V30 689 H 62.5893 1.52688 -0.334078 0
M  V30 690 H 63.3243 2.57265 1.97447 0
M  V30 691 H 63.1093 3.85 0.742812 0
M  V30 692 H 64.5993 3.80001 1.73172 0
M  V30 693 N 65.0364 0.313813 1.54444 0
M  V30 694 C 65.9834 -0.55655 2.23989 0
M  V30 695 C 66.9534 -1.11943 1.22711 0
M  V30 696 O 68.1384 -1.16158 1.51367 0
M  V30 697 C 65.2784 -1.71635 2.99392 0
M  V30 698 C 64.3914 -1.18364 4.15468 0
M  V30 699 C 63.5264 -2.30834 4.78424 0
M  V30 700 C 62.5654 -1.74762 5.86622 0
M  V30 701 N 61.7024 -2.80855 6.43479 0
M  V30 702 H 66.5424 0.0430893 2.97969 0
M  V30 703 H 64.0794 0.0330359 1.47063 0
M  V30 704 H 66.0374 -2.39868 3.41349 0
M  V30 705 H 64.6674 -2.28742 2.27765 0
M  V30 706 H 63.7194 -0.393163 3.78363 0
M  V30 707 H 65.0314 -0.733262 4.93381 0
M  V30 708 H 64.1854 -3.0699 5.23299 0
M  V30 709 H 62.9244 -2.79204 3.99871 0
M  V30 710 H 61.9294 -0.970995 5.41158 0
M  V30 711 H 63.1544 -1.2728 6.67066 0
M  V30 712 H 61.1004 -3.28535 5.67804 0
M  V30 713 H 61.0174 -2.40351 7.16776 0
M  V30 714 H 62.2854 -3.5687 6.93011 0
M  V30 715 N 66.5145 -1.57545 0.0417849 0
M  V30 716 C 67.7395 -1.97035 -0.647455 0
M  V30 717 C 68.1645 -0.918775 -1.64135 0
M  V30 718 O 67.5225 0.119006 -1.80909 0
M  V30 719 C 67.5705 -3.35609 -1.31905 0
M  V30 720 O 66.6745 -3.3287 -2.43457 0
M  V30 721 H 66.0155 -0.64211 -0.169086 0
M  V30 722 H 68.5455 -2.04318 0.107399 0
M  V30 723 H 68.5555 -3.72126 -1.67291 0
M  V30 724 H 67.2305 -4.11685 -0.590586 0
M  V30 725 H 65.8075 -3.08087 -2.10088 0
M  V30 726 N 67.9926 0.231505 -1.5589 0
M  V30 727 C 69.2206 0.974505 -1.82513 0
M  V30 728 C 69.6356 1.78344 -0.619591 0
M  V30 729 O 68.9926 1.77792 0.411848 0
M  V30 730 C 69.0436 1.90007 -3.07538 0
M  V30 731 O 68.7646 1.12385 -4.2344 0
M  V30 732 C 70.2656 2.75779 -3.47075 0
M  V30 733 H 67.4856 0.286065 -0.606966 0
M  V30 734 H 70.0296 0.249739 -2.02969 0
M  V30 735 H 68.1846 2.57891 -2.89086 0
M  V30 736 H 68.5986 1.75125 -4.944 0
M  V30 737 H 70.0726 3.36443 -4.37619 0
M  V30 738 H 70.5496 3.47672 -2.68367 0
M  V30 739 H 71.1556 2.13323 -3.67931 0
M  V30 740 N 69.4707 1.49531 0.497807 0
M  V30 741 C 70.8817 1.52344 1.07927 0
M  V30 742 C 71.2327 0.311469 1.93712 0
M  V30 743 O 70.3577 -0.578405 2.08527 0
M  V30 744 C 70.9527 2.76062 1.96405 0
M  V30 745 C 69.5117 2.81643 2.49709 0
M  V30 746 C 68.6587 2.46299 1.27404 0
M  V30 747 H 71.6097 1.56182 0.281576 0
M  V30 748 H 71.6307 2.56405 2.81135 0
M  V30 749 H 71.1427 3.64254 1.33943 0
M  V30 750 H 69.2437 1.97739 3.15801 0
M  V30 751 H 69.3567 3.83891 2.86643 0
M  V30 752 H 67.7207 1.98148 1.60029 0
M  V30 753 H 68.5037 3.36769 0.66645 0
M  V30 754 N 70.9488 -0.749086 1.3866 0
M  V30 755 C 72.1738 -1.54344 1.38538 0
M  V30 756 C 72.5988 -1.88088 -0.0216655 0
M  V30 757 O 71.9568 -1.50899 -1.00494 0
M  V30 758 C 72.0048 -2.8164 2.25192 0
M  V30 759 O 71.1088 -3.7698 1.67212 0
M  V30 760 H 70.4498 -0.466654 0.472367 0
M  V30 761 H 72.9798 -0.925355 1.82478 0
M  V30 762 H 72.9898 -3.30519 2.3921 0
M  V30 763 H 71.6648 -2.56411 3.27454 0
M  V30 764 H 70.2418 -3.35699 1.6236 0
M  V30 765 N 72.4269 -1.23603 -0.977757 0
M  V30 766 C 73.6749 -1.06759 -1.71601 0
M  V30 767 C 73.9959 0.395929 -1.90938 0
M  V30 768 O 73.2659 1.28356 -1.47992 0
M  V30 769 H 71.8459 -0.392062 -0.635843 0
M  V30 770 H 74.5079 -1.55362 -1.1768 0
M  V30 771 H 73.6039 -1.55763 -2.70452 0
M  V30 772 N 73.905 1.17692 -1.04816 0
M  V30 773 C 75.152 1.87859 -0.75599 0
M  V30 774 C 75.48 1.80812 0.716752 0
M  V30 775 O 74.735 1.20819 1.53952 0
M  V30 776 C 75.034 3.37462 -1.17703 0
M  V30 777 C 74.7 3.64713 -2.65133 0
M  V30 778 C 73.362 3.71859 -3.05408 0
M  V30 779 C 75.714 3.76492 -3.60421 0
M  V30 780 C 73.042 3.88271 -4.39843 0
M  V30 781 C 75.394 3.94421 -4.94585 0
M  V30 782 C 74.058 3.99806 -5.3452 0
M  V30 783 H 73.328 0.687425 -0.276636 0
M  V30 784 H 75.975 1.39255 -1.31455 0
M  V30 785 H 74.28 3.88097 -0.537395 0
M  V30 786 H 75.977 3.90109 -0.928218 0
M  V30 787 H 72.567 3.59772 -2.32942 0
M  V30 788 H 76.751 3.70295 -3.30447 0
M  V30 789 H 72.007 3.90687 -4.70291 0
M  V30 790 H 76.181 4.02477 -5.68318 0
M  V30 791 H 73.808 4.12276 -6.38696 0
M  V30 792 N 75.3831 0.828654 1.34056 0
M  V30 793 C 76.6111 0.43262 2.02326 0
M  V30 794 C 77.0261 -0.963147 1.62385 0
M  V30 795 O 76.3831 -1.62425 0.832121 0
M  V30 796 C 76.4341 0.53182 3.57567 0
M  V30 797 O 76.1551 1.87258 3.96063 0
M  V30 798 C 77.6561 0.131422 4.43105 0
M  V30 799 H 74.8761 0.172923 0.648335 0
M  V30 800 H 77.4201 1.1184 1.71208 0
M  V30 801 H 75.5751 -0.105938 3.87255 0
M  V30 802 H 75.9891 1.85087 4.90758 0
M  V30 803 H 77.4631 0.251904 5.51425 0
M  V30 804 H 77.9401 -0.925645 4.29335 0
M  V30 805 H 78.5461 0.743207 4.18756 0
M  V30 806 N 76.8612 -1.46375 0.584142 0
M  V30 807 C 77.7912 -2.33103 -0.136037 0
M  V30 808 C 78.7722 -1.45431 -0.882255 0
M  V30 809 O 79.9572 -1.74246 -0.857434 0
M  V30 810 C 77.0872 -3.27731 -1.14933 0
M  V30 811 C 76.0412 -4.24855 -0.517862 0
M  V30 812 C 75.3672 -5.09001 -1.63773 0
M  V30 813 C 76.6672 -5.19439 0.545886 0
M  V30 814 H 78.3612 -2.93568 0.588086 0
M  V30 815 H 75.9072 -1.41166 0.284259 0
M  V30 816 H 77.8602 -3.87261 -1.66153 0
M  V30 817 H 76.5842 -2.65377 -1.90375 0
M  V30 818 H 75.2432 -3.6659 -0.0267361 0
M  V30 819 H 74.8912 -4.43031 -2.38185 0
M  V30 820 H 74.5912 -5.74777 -1.22085 0
M  V30 821 H 76.1152 -5.71396 -2.15266 0
M  V30 822 H 77.5292 -5.73177 0.118704 0
M  V30 823 H 75.9262 -5.93566 0.88317 0
M  V30 824 H 76.9962 -4.63285 1.43162 0
M  V30 825 N 78.3393 -0.321999 -1.54275 0
M  V30 826 C 79.6163 0.335232 -1.92706 0
M  V30 827 C 79.9963 1.70006 -1.25145 0
M  V30 828 O 79.3443 2.25067 -0.394596 0
M  V30 829 C 79.5543 0.429008 -3.46353 0
M  V30 830 C 80.9023 0.690029 -4.18956 0
M  V30 831 O 81.9263 0.511992 -3.52501 0
M  V30 832 O 80.7853 1.03338 -5.36641 0
M  V30 833 H 77.8793 0.191143 -0.804608 0
M  V30 834 H 80.4253 -0.3716 -1.65581 0
M  V30 835 H 79.1973 -0.529611 -3.87699 0
M  V30 836 H 78.8203 1.18348 -3.79578 0
M  V30 837 N 79.8174 1.5752 -0.0501392 0
M  V30 838 C 81.0944 1.83996 0.663685 0
M  V30 839 C 81.4744 0.938339 1.89099 0
M  V30 840 O 80.8224 -0.00087759 2.285 0
M  V30 841 C 81.0324 3.33702 1.02196 0
M  V30 842 C 82.3804 4.00691 1.40469 0
M  V30 843 O 83.4044 3.38321 1.11433 0
M  V30 844 O 82.2634 5.10658 1.94654 0
M  V30 845 H 79.3574 0.759385 0.32751 0
M  V30 846 H 81.9034 1.69514 -0.0794238 0
M  V30 847 H 80.6754 3.91015 0.149364 0
M  V30 848 H 80.2984 3.53368 1.82255 0
M  V30 849 N 81.2955 -0.223234 1.56011 0
M  V30 850 C 82.5415 -0.949279 1.79211 0
M  V30 851 C 82.8745 -1.84054 0.619494 0
M  V30 852 O 82.1495 -1.90726 -0.381317 0
M  V30 853 C 82.4325 -1.78965 3.12479 0
M  V30 854 C 82.2855 -0.924997 4.40186 0
M  V30 855 C 83.6045 -2.76774 3.42175 0
M  V30 856 H 80.7235 -0.343676 0.651963 0
M  V30 857 H 83.3655 -0.218253 1.88742 0
M  V30 858 H 81.5155 -2.41291 3.04485 0
M  V30 859 H 83.1875 -0.318615 4.60198 0
M  V30 860 H 81.4305 -0.230344 4.33188 0
M  V30 861 H 82.1015 -1.54735 5.29869 0
M  V30 862 H 84.5775 -2.24584 3.50287 0
M  V30 863 H 83.4535 -3.32678 4.36597 0
M  V30 864 H 83.7145 -3.54429 2.64258 0
M  V30 865 N 82.7736 -1.49793 -0.48987 0
M  V30 866 C 84.0226 -1.59085 -1.23995 0
M  V30 867 C 84.3356 -0.287907 -1.9347 0
M  V30 868 O 85.5416 -0.259506 -2.70257 0
M  V30 869 C 83.9976 -2.80736 -2.252 0
M  V30 870 C 83.6056 -4.17833 -1.61614 0
M  V30 871 C 85.3496 -2.99364 -3.00967 0
M  V30 872 C 83.2566 -5.30693 -2.60996 0
M  V30 873 H 82.1866 -0.592372 -0.466488 0
M  V30 874 H 84.8376 -1.76197 -0.51252 0
M  V30 875 H 83.2196 -2.57142 -3.01154 0
M  V30 876 H 84.3936 -4.51608 -0.915774 0
M  V30 877 H 82.7086 -4.04656 -0.981977 0
M  V30 878 H 85.3056 -3.80851 -3.75308 0
M  V30 879 H 85.6486 -2.10356 -3.59244 0
M  V30 880 H 86.1816 -3.2305 -2.32128 0
M  V30 881 H 82.9206 -6.21796 -2.07485 0
M  V30 882 H 82.4406 -5.01359 -3.2924 0
M  V30 883 H 84.1196 -5.6049 -3.23202 0
M  V30 884 N 84.2517 0.741722 -1.39055 0
M  V30 885 C 85.1837 1.8657 -1.33133 0
M  V30 886 C 86.1967 1.61001 -0.241329 0
M  V30 887 O 87.3857 1.7136 -0.499784 0
M  V30 888 C 84.4857 3.22457 -1.04283 0
M  V30 889 C 83.6587 3.75435 -2.24427 0
M  V30 890 C 82.7177 4.89867 -1.92138 0
M  V30 891 O 81.7437 5.03879 -2.64754 0
M  V30 892 N 82.9457 5.73738 -0.88347 0
M  V30 893 H 85.7107 1.92156 -2.29991 0
M  V30 894 H 83.2717 0.922172 -1.3307 0
M  V30 895 H 85.2637 3.9657 -0.807128 0
M  V30 896 H 83.8337 3.12181 -0.161807 0
M  V30 897 H 83.0537 2.92751 -2.6399 0
M  V30 898 H 84.3417 4.07563 -3.04581 0
M  V30 899 H 83.7397 5.64999 -0.281517 0
M  V30 900 H 82.2967 6.47947 -0.707662 0
M  V30 901 N 85.7298 1.2412 0.971189 0
M  V30 902 C 86.9578 1.10575 1.74874 0
M  V30 903 C 87.3728 -0.342017 1.85676 0
M  V30 904 O 86.7298 -1.23617 1.34258 0
M  V30 905 C 86.7808 1.73579 3.171 0
M  V30 906 O 86.5018 3.12695 3.06844 0
M  V30 907 C 88.0028 1.65598 4.11208 0
M  V30 908 H 85.2228 0.386504 0.548503 0
M  V30 909 H 87.7668 1.64156 1.21955 0
M  V30 910 H 85.9218 1.24009 3.67016 0
M  V30 911 H 86.3358 3.43412 3.96445 0
M  V30 912 H 87.8098 2.1437 5.08674 0
M  V30 913 H 88.2868 0.616532 4.34851 0
M  V30 914 H 88.8928 2.14578 3.67201 0
M  V30 915 N 87.2079 -1.17134 1.05439 0
M  V30 916 C 88.4559 -1.87085 0.764429 0
M  V30 917 C 88.7769 -1.81584 -0.710787 0
M  V30 918 O 88.0469 -1.24349 -1.51374 0
M  V30 919 H 86.6269 -0.692627 0.279779 0
M  V30 920 H 89.2889 -1.42087 1.33406 0
M  V30 921 H 88.3849 -2.92759 1.0816 0
M  V30 922 N 88.686 -0.835752 -1.33615 0
M  V30 923 C 89.932 -0.430596 -1.98176 0
M  V30 924 C 90.265 1.00684 -1.66061 0
M  V30 925 O 89.54 1.70339 -0.938877 0
M  V30 926 C 89.823 -0.648065 -3.5422 0
M  V30 927 C 89.676 -2.13255 -3.96033 0
M  V30 928 C 90.995 -0.0922113 -4.40003 0
M  V30 929 H 88.114 -0.157924 -0.719881 0
M  V30 930 H 90.756 -1.05069 -1.58305 0
M  V30 931 H 88.906 -0.120237 -3.88314 0
M  V30 932 H 90.578 -2.725 -3.72211 0
M  V30 933 H 88.821 -2.61823 -3.45878 0
M  V30 934 H 89.492 -2.23547 -5.04708 0
M  V30 935 H 91.968 -0.543343 -4.12537 0
M  V30 936 H 90.844 -0.274083 -5.48215 0
M  V30 937 H 91.105 1.00378 -4.30554 0
M  V30 938 N 90.1641 1.46063 -0.591896 0
M  V30 939 C 91.4411 1.95595 -0.0137119 0
M  V30 940 C 91.8211 1.5345 1.4497 0
M  V30 941 O 91.1691 0.789543 2.14426 0
M  V30 942 C 91.3791 3.48453 -0.195373 0
M  V30 943 C 92.7271 4.24546 -0.0679765 0
M  V30 944 O 93.7511 3.55982 -0.124681 0
M  V30 945 O 92.6101 5.46467 0.0600579 0
M  V30 946 H 89.7041 0.825795 0.0446279 0
M  V30 947 H 92.2501 1.56303 -0.660859 0
M  V30 948 H 91.0221 3.72045 -1.21235 0
M  V30 949 H 90.6451 3.94597 0.487775 0
M  V30 950 N 91.6422 0.330177 1.54103 0
M  V30 951 C 92.5902 -0.548226 2.26047 0
M  V30 952 C 93.5842 -1.11309 1.27698 0
M  V30 953 O 94.7902 -1.06036 1.45452 0
M  V30 954 H 91.1652 -0.195456 0.726155 0
M  V30 955 H 93.1362 0.0807567 2.98291 0
M  V30 956 C 91.8852 -1.69415 3.03634 0
M  V30 957 H 91.2082 -1.26876 3.79134 0
M  V30 958 H 92.6482 -2.28423 3.5721 0
M  V30 959 C 91.1072 -2.61569 2.12328 0
M  V30 960 O 91.6372 -3.63462 1.7105 0
M  V30 961 N 89.8432 -2.29952 1.77681 0
M  V30 962 H 89.3902 -1.47134 2.11446 0
M  V30 963 H 89.3482 -2.91871 1.16869 0
M  V30 964 N 93.1203 -1.57491 0.0584922 0
M  V30 965 C 94.5313 -1.80526 -0.476138 0
M  V30 966 C 94.8823 -0.971334 -1.70469 0
M  V30 967 O 94.0073 -0.190012 -2.15564 0
M  V30 968 C 94.6023 -3.27424 -0.870587 0
M  V30 969 C 93.1613 -3.51351 -1.35015 0
M  V30 970 C 92.3083 -2.75343 -0.32887 0
M  V30 971 H 95.2593 -1.56133 0.284312 0
M  V30 972 H 95.2803 -3.38745 -1.73299 0
M  V30 973 H 94.7923 -3.88093 0.0237627 0
M  V30 974 H 92.8933 -2.95971 -2.26345 0
M  V30 975 H 93.0063 -4.60059 -1.33726 0
M  V30 976 H 91.3703 -2.417 -0.803321 0
M  V30 977 H 92.1533 -3.38743 0.557521 0
M  V30 978 N 94.5984 0.214957 -1.56127 0
M  V30 979 C 95.8464 0.936518 -1.79091 0
M  V30 980 C 96.1674 1.84606 -0.628148 0
M  V30 981 O 95.4374 1.92664 0.35462 0
M  V30 982 H 94.0174 0.3488 -0.660566 0
M  V30 983 H 96.6794 0.22523 -1.93594 0
M  V30 984 H 95.7754 1.53943 -2.71492 0
M  V30 985 N 96.0765 1.50051 0.48192 0
M  V30 986 C 97.0265 1.64512 1.5786 0
M  V30 987 C 98.0105 0.500073 1.52932 0
M  V30 988 O 99.2025 0.753964 1.60139 0
M  V30 989 C 96.3315 1.73263 2.9637 0
M  V30 990 C 95.4175 2.93409 3.06222 0
M  V30 991 N 95.8085 4.17236 2.85915 0
M  V30 992 C 94.1065 2.91742 3.37346 0
M  V30 993 C 94.8075 4.981 3.00451 0
M  V30 994 N 93.7835 4.3184 3.30174 0
M  V30 995 H 97.5855 2.57955 1.40842 0
M  V30 996 H 95.0995 1.47086 0.688439 0
M  V30 997 H 97.0965 1.81724 3.75209 0
M  V30 998 H 95.7565 0.809711 3.14442 0
M  V30 999 H 96.7675 4.46909 2.6171 0
M  V30 1000 H 93.4445 2.08907 3.61475 0
M  V30 1001 H 94.8345 6.06532 2.89082 0
M  V30 1002 N 97.5546 -0.734337 1.39446 0
M  V30 1003 C 98.9656 -1.31264 1.32766 0
M  V30 1004 C 99.3166 -1.96198 -0.00767497 0
M  V30 1005 O 98.4416 -1.96346 -0.909796 0
M  V30 1006 C 99.0366 -2.38682 2.4045 0
M  V30 1007 C 97.5956 -2.92184 2.37288 0
M  V30 1008 C 96.7426 -1.6576 2.22304 0
M  V30 1009 H 99.6936 -0.531799 1.49525 0
M  V30 1010 H 99.7146 -3.19087 2.07276 0
M  V30 1011 H 99.2266 -1.91392 3.37625 0
M  V30 1012 H 97.3276 -3.43752 1.43754 0
M  V30 1013 H 97.4406 -3.45253 3.3217 0
M  V30 1014 H 95.8046 -1.9012 1.69489 0
M  V30 1015 H 96.5876 -1.20521 3.21449 0
M  V30 1016 N 99.0327 -1.24633 -0.964593 0
M  V30 1017 C 100.263 -1.11339 -1.74032 0
M  V30 1018 C 100.671 0.336593 -1.86182 0
M  V30 1019 O 100.014 1.24389 -1.35178 0
M  V30 1020 C 100.076 -1.68284 -3.1768 0
M  V30 1021 C 99.7397 -3.17196 -3.28992 0
M  V30 1022 C 100.737 -4.14308 -3.14078 0
M  V30 1023 C 98.4217 -3.57215 -3.53133 0
M  V30 1024 C 100.416 -5.4942 -3.23135 0
M  V30 1025 C 98.1027 -4.92468 -3.61827 0
M  V30 1026 C 99.1007 -5.8838 -3.46841 0
M  V30 1027 O 98.7887 -7.21173 -3.55197 0
M  V30 1028 H 98.5207 -0.389551 -0.552472 0
M  V30 1029 H 101.075 -1.65282 -1.21946 0
M  V30 1030 H 99.3047 -1.08777 -3.71085 0
M  V30 1031 H 100.994 -1.50234 -3.77074 0
M  V30 1032 H 101.76 -3.84731 -2.95308 0
M  V30 1033 H 97.6387 -2.83063 -3.63863 0
M  V30 1034 H 101.183 -6.24263 -3.11355 0
M  V30 1035 H 97.0797 -5.21714 -3.80111 0
M  V30 1036 H 97.8477 -7.29135 -3.71892 0
M  V30 1037 N 100.511 1.16574 -1.06058 0
M  V30 1038 C 101.76 1.86385 -0.770944 0
M  V30 1039 C 102.073 1.82448 0.705129 0
M  V30 1040 O 103.279 2.47815 1.10905 0
M  V30 1041 C 101.735 3.34466 -1.32893 0
M  V30 1042 C 101.343 3.46883 -2.83507 0
M  V30 1043 C 103.087 4.09548 -1.11672 0
M  V30 1044 C 100.994 4.89036 -3.32562 0
M  V30 1045 H 99.9238 0.698181 -0.284709 0
M  V30 1046 H 102.575 1.31583 -1.27899 0
M  V30 1047 H 100.957 3.88859 -0.748662 0
M  V30 1048 H 102.131 3.02663 -3.47465 0
M  V30 1049 H 100.446 2.85232 -3.03368 0
M  V30 1050 H 103.043 5.14434 -1.45814 0
M  V30 1051 H 103.386 4.16264 -0.0549535 0
M  V30 1052 H 103.919 3.61387 -1.66265 0
M  V30 1053 H 100.658 4.87499 -4.38207 0
M  V30 1054 H 100.178 5.3389 -2.73351 0
M  V30 1055 H 101.857 5.57843 -3.2775 0
M  V30 1056 N 101.989 0.842826 1.3317 0
M  V30 1057 C 102.922 0.223862 2.27099 0
M  V30 1058 C 103.9 -0.631311 1.49844 0
M  V30 1059 O 105.084 -0.590708 1.79005 0
M  V30 1060 C 102.211 -0.685313 3.31694 0
M  V30 1061 C 101.257 0.094919 4.26394 0
M  V30 1062 S 102.09 1.45546 5.15341 0
M  V30 1063 C 103.246 0.551685 6.23464 0
M  V30 1064 H 103.479 1.02015 2.79249 0
M  V30 1065 H 101.012 0.639797 1.4052 0
M  V30 1066 H 102.97 -1.20426 3.92438 0
M  V30 1067 H 101.631 -1.4553 2.78352 0
M  V30 1068 H 100.824 -0.597059 5.00451 0
M  V30 1069 H 100.426 0.545054 3.70007 0
M  V30 1070 H 102.718 -0.248877 6.77043 0
M  V30 1071 H 103.661 1.26253 6.96754 0
M  V30 1072 H 104.069 0.131275 5.64347 0
M  V30 1073 N 103.467 -1.45747 0.599634 0
M  V30 1074 C 104.695 -2.06668 0.0978551 0
M  V30 1075 C 105.11 -1.44562 -1.21439 0
M  V30 1076 O 104.467 -0.556923 -1.73795 0
M  V30 1077 C 104.518 -3.61456 -0.0567044 0
M  V30 1078 O 104.239 -4.21242 1.20361 0
M  V30 1079 C 105.74 -4.39345 -0.590869 0
M  V30 1080 H 102.96 -0.667825 0.0651943 0
M  V30 1081 H 105.504 -1.87115 0.82511 0
M  V30 1082 H 103.659 -3.80378 -0.734251 0
M  V30 1083 H 104.073 -5.14323 1.02821 0
M  V30 1084 H 105.547 -5.48182 -0.648131 0
M  V30 1085 H 106.024 -4.08568 -1.61147 0
M  V30 1086 H 106.63 -4.25268 0.0523679 0
M  V30 1087 N 104.945 -0.338344 -1.53925 0
M  V30 1088 C 106.191 0.260143 -2.01125 0
M  V30 1089 C 106.524 1.50617 -1.22589 0
M  V30 1090 O 105.799 1.91979 -0.312113 0
M  V30 1091 C 106.082 0.579499 -3.55407 0
M  V30 1092 C 105.935 -0.678264 -4.44657 0
M  V30 1093 C 107.254 1.39122 -4.17532 0
M  V30 1094 H 104.373 0.0930772 -0.731099 0
M  V30 1095 H 107.015 -0.457852 -1.84401 0
M  V30 1096 H 105.165 1.19118 -3.69788 0
M  V30 1097 H 106.837 -1.31631 -4.42121 0
M  V30 1098 H 105.08 -1.3042 -4.13731 0
M  V30 1099 H 105.751 -0.410143 -5.50474 0
M  V30 1100 H 108.227 0.874035 -4.06817 0
M  V30 1101 H 107.103 1.58342 -5.25565 0
M  V30 1102 H 107.364 2.39178 -3.71815 0
M  V30 1103 N 106.423 1.57458 -0.0668435 0
M  V30 1104 C 107.671 1.92919 0.602214 0
M  V30 1105 C 107.992 0.947215 1.70449 0
M  V30 1106 O 107.262 -0.00544117 1.95899 0
M  V30 1107 H 105.842 0.71217 0.22544 0
M  V30 1108 H 108.504 1.94508 -0.123535 0
M  V30 1109 H 107.6 2.94589 1.03073 0
M  V30 1110 N 107.901 -0.206675 1.56239 0
M  V30 1111 C 109.141 -0.93574 1.81723 0
M  V30 1112 C 109.505 -1.80927 0.642609 0
M  V30 1113 O 110.706 -2.57323 0.777081 0
M  V30 1114 C 108.977 -1.74012 3.12177 0
M  V30 1115 S 110.536 -2.52279 3.59028 0
M  V30 1116 H 107.354 -0.314065 0.637875 0
M  V30 1117 H 109.956 -0.200071 1.94474 0
M  V30 1118 H 108.66 -1.0888 3.95693 0
M  V30 1119 H 108.191 -2.51782 3.02274 0
M  V30 1120 H 110.206 -3.76209 3.23545 0
M  V30 1121 N 109.379 -1.50304 -0.473955 0
M  V30 1122 C 110.625 -1.61389 -1.22806 0
M  V30 1123 C 110.958 -0.311955 -1.91678 0
M  V30 1124 O 110.233 0.686384 -1.81986 0
M  V30 1125 C 110.516 -2.79219 -2.27396 0
M  V30 1126 C 110.369 -4.19286 -1.62848 0
M  V30 1127 C 111.688 -2.92614 -3.28732 0
M  V30 1128 H 108.807 -0.587399 -0.445119 0
M  V30 1129 H 111.449 -1.82681 -0.522265 0
M  V30 1130 H 109.599 -2.61195 -2.87592 0
M  V30 1131 H 111.271 -4.48892 -1.06271 0
M  V30 1132 H 109.514 -4.23677 -0.931693 0
M  V30 1133 H 110.185 -4.97655 -2.38838 0
M  V30 1134 H 112.661 -3.09105 -2.78556 0
M  V30 1135 H 111.537 -3.76688 -3.99246 0
M  V30 1136 H 111.798 -2.03107 -3.92683 0
M  V30 1137 N 110.857 0.726932 -1.39834 0
M  V30 1138 C 111.82 1.82269 -1.38962 0
M  V30 1139 C 112.82 1.58248 -0.285334 0
M  V30 1140 O 114.01 1.65499 -0.54366 0
M  V30 1141 C 111.142 3.20186 -1.17019 0
M  V30 1142 H 112.335 1.84443 -2.36476 0
M  V30 1143 H 109.888 0.931416 -1.25516 0
M  V30 1144 H 110.623 3.23669 -0.202204 0
M  V30 1145 H 110.408 3.3902 -1.96998 0
M  V30 1146 H 111.898 4.00235 -1.1917 0
M  V30 1147 N 112.336 1.25143 0.95797 0
M  V30 1148 C 113.584 1.09476 1.69881 0
M  V30 1149 C 113.905 -0.365502 1.91544 0
M  V30 1150 O 113.175 -1.25985 1.50015 0
M  V30 1151 H 111.755 0.402128 0.629525 0
M  V30 1152 H 114.417 1.57214 1.15194 0
M  V30 1153 H 113.513 1.60046 2.6794 0
M  V30 1154 N 113.814 -1.1601 1.06675 0
M  V30 1155 C 115.091 -1.82679 0.699114 0
M  V30 1156 C 115.471 -1.94559 -0.819137 0
M  V30 1157 O 114.819 -1.49169 -1.73092 0
M  V30 1158 C 115.029 -3.19445 1.40555 0
M  V30 1159 C 116.377 -3.95171 1.55323 0
M  V30 1160 O 117.401 -3.28976 1.36577 0
M  V30 1161 O 116.26 -5.13833 1.86112 0
M  V30 1162 H 113.354 -0.788954 0.247951 0
M  V30 1163 H 115.9 -1.23179 1.16726 0
M  V30 1164 H 114.672 -3.05856 2.44065 0
M  V30 1165 H 114.295 -3.86625 0.927733 0
M  V30 1166 N 115.292 -0.849877 -1.32721 0
M  V30 1167 C 116.202 -0.293791 -2.32753 0
M  V30 1168 C 117.218 0.585906 -1.63839 0
M  V30 1169 O 118.394 0.487413 -1.95413 0
M  V30 1170 C 115.459 0.512752 -3.42887 0
M  V30 1171 C 114.52 -0.39252 -4.27502 0
M  V30 1172 C 113.753 0.375625 -5.32377 0
M  V30 1173 O 113.976 1.60613 -5.4732 0
M  V30 1174 O 112.91 -0.256094 -6.01355 0
M  V30 1175 H 116.736 -1.12242 -2.82197 0
M  V30 1176 H 114.321 -0.612685 -1.36259 0
M  V30 1177 H 116.203 0.970704 -4.10067 0
M  V30 1178 H 114.878 1.31826 -2.95641 0
M  V30 1179 H 113.785 -0.898547 -3.63149 0
M  V30 1180 H 115.118 -1.16309 -4.7826 0
M  V30 1181 N 116.77 1.45427 -0.607355 0
M  V30 1182 C 117.68 2.34325 0.113463 0
M  V30 1183 C 118.696 1.51226 0.860617 0
M  V30 1184 O 119.872 1.84029 0.818255 0
M  V30 1185 C 116.937 3.28839 1.09844 0
M  V30 1186 C 115.998 4.27844 0.353271 0
M  V30 1187 C 115.231 5.17842 1.29133 0
M  V30 1188 O 115.454 5.11264 2.52913 0
M  V30 1189 O 114.388 5.96713 0.788523 0
M  V30 1190 H 118.214 2.97364 -0.617094 0
M  V30 1191 H 115.799 1.44807 -0.367619 0
M  V30 1192 H 117.681 3.8708 1.66575 0
M  V30 1193 H 116.356 2.68365 1.81003 0
M  V30 1194 H 115.263 3.7322 -0.256494 0
M  V30 1195 H 116.596 4.91173 -0.317822 0
M  V30 1196 N 118.248 0.346503 1.53744 0
M  V30 1197 C 119.473 -0.253074 2.0585 0
M  V30 1198 C 119.898 -1.43202 1.21962 0
M  V30 1199 O 119.256 -1.79783 0.234073 0
M  V30 1200 C 119.304 -0.643193 3.54817 0
M  V30 1201 O 118.408 -1.74286 3.73762 0
M  V30 1202 H 117.749 -0.0413583 0.662711 0
M  V30 1203 H 120.279 0.501574 1.98357 0
M  V30 1204 H 120.289 -0.919526 3.97503 0
M  V30 1205 H 118.964 0.218966 4.15323 0
M  V30 1206 H 117.541 -1.46356 3.42979 0
M  V30 1207 N 119.726 -1.57421 0.075193 0
M  V30 1208 C 120.956 -1.97659 -0.601203 0
M  V30 1209 C 121.364 -0.952427 -1.63479 0
M  V30 1210 O 120.707 0.0688241 -1.83571 0
M  V30 1211 C 120.769 -3.34218 -1.32434 0
M  V30 1212 C 120.433 -4.5484 -0.443826 0
M  V30 1213 C 121.43 -5.19034 0.299969 0
M  V30 1214 C 119.115 -5.00952 -0.367709 0
M  V30 1215 C 121.109 -6.27695 1.10807 0
M  V30 1216 C 118.796 -6.09484 0.444058 0
M  V30 1217 C 119.794 -6.72719 1.18061 0
M  V30 1218 O 119.482 -7.79161 1.97898 0
M  V30 1219 H 119.214 -0.65494 -0.167422 0
M  V30 1220 H 121.768 -2.04886 0.145157 0
M  V30 1221 H 119.998 -3.23615 -2.11685 0
M  V30 1222 H 121.687 -3.59038 -1.89331 0
M  V30 1223 H 122.453 -4.84351 0.250776 0
M  V30 1224 H 118.332 -4.51509 -0.930638 0
M  V30 1225 H 121.876 -6.76982 1.68347 0
M  V30 1226 H 117.773 -6.43601 0.494803 0
M  V30 1227 H 118.541 -7.96055 1.90367 0
M  V30 1228 N 121.204 0.198386 -1.56346 0
M  V30 1229 C 122.114 1.2664 -1.97483 0
M  V30 1230 C 123.13 1.49989 -0.882002 0
M  V30 1231 O 124.306 1.62668 -1.18748 0
M  V30 1232 C 121.371 2.59141 -2.30319 0
M  V30 1233 C 120.432 2.43892 -3.53292 0
M  V30 1234 C 119.665 3.70074 -3.84553 0
M  V30 1235 O 119.888 4.74101 -3.1715 0
M  V30 1236 O 118.822 3.658 -4.7799 0
M  V30 1237 H 122.648 0.947304 -2.88548 0
M  V30 1238 H 120.233 0.403123 -1.43859 0
M  V30 1239 H 122.115 3.37352 -2.5253 0
M  V30 1240 H 120.79 2.90684 -1.42423 0
M  V30 1241 H 119.697 1.63803 -3.36332 0
M  V30 1242 H 121.03 2.17282 -4.41644 0
M  V30 1243 N 122.682 1.50554 0.465978 0
M  V30 1244 C 123.928 1.62038 1.21949 0
M  V30 1245 C 124.261 0.322116 1.9151 0
M  V30 1246 O 123.536 -0.676723 1.82348 0
M  V30 1247 C 123.819 2.80421 2.25912 0
M  V30 1248 C 123.672 4.20144 1.60622 0
M  V30 1249 C 124.991 2.94354 3.27176 0
M  V30 1250 H 122.11 0.589752 0.441998 0
M  V30 1251 H 124.752 1.82956 0.51257 0
M  V30 1252 H 122.902 2.62717 2.86203 0
M  V30 1253 H 124.574 4.49449 1.03889 0
M  V30 1254 H 122.817 4.24165 0.909211 0
M  V30 1255 H 123.488 4.98914 2.36196 0
M  V30 1256 H 125.964 3.10578 2.76913 0
M  V30 1257 H 124.84 3.788 3.97242 0
M  V30 1258 H 125.101 2.05186 3.916 0
M  V30 1259 N 124.16 -0.719506 1.40217 0
M  V30 1260 C 125.407 -1.47933 1.38283 0
M  V30 1261 C 125.735 -1.94493 -0.0161536 0
M  V30 1262 O 124.99 -1.68224 -0.999956 0
M  V30 1263 C 125.289 -2.72271 2.31524 0
M  V30 1264 C 124.955 -2.44496 3.78857 0
M  V30 1265 C 123.617 -2.36631 4.18998 0
M  V30 1266 C 125.969 -2.21104 4.71977 0
M  V30 1267 C 123.297 -2.03437 5.503 0
M  V30 1268 C 125.649 -1.89423 6.03574 0
M  V30 1269 C 124.313 -1.80038 6.42762 0
M  V30 1270 H 123.583 -0.541325 0.506012 0
M  V30 1271 H 126.23 -0.824502 1.72842 0
M  V30 1272 H 124.535 -3.42572 1.90137 0
M  V30 1273 H 126.232 -3.30348 2.27313 0
M  V30 1274 H 122.822 -2.51503 3.47051 0
M  V30 1275 H 127.006 -2.26139 4.41786 0
M  V30 1276 H 122.262 -1.94705 5.79569 0
M  V30 1277 H 126.436 -1.70336 6.75247 0
M  V30 1278 H 124.063 -1.54083 7.44421 0
M  V30 1279 N 125.638 -1.25649 -0.95132 0
M  V30 1280 C 126.585 -1.06323 -2.04851 0
M  V30 1281 C 127.555 0.0286491 -1.66075 0
M  V30 1282 O 128.74 -0.12917 -1.90362 0
M  V30 1283 C 125.88 -0.691529 -3.381 0
M  V30 1284 C 124.993 -1.85861 -3.89974 0
M  V30 1285 C 124.128 -1.43096 -5.11563 0
M  V30 1286 C 123.167 -2.56696 -5.55674 0
M  V30 1287 N 122.304 -2.14684 -6.68472 0
M  V30 1288 H 127.144 -2.00222 -2.20715 0
M  V30 1289 H 124.681 -0.997027 -1.08156 0
M  V30 1290 H 126.639 -0.456963 -4.1469 0
M  V30 1291 H 125.269 0.210474 -3.22113 0
M  V30 1292 H 124.321 -2.20639 -3.09875 0
M  V30 1293 H 125.633 -2.71161 -4.18657 0
M  V30 1294 H 124.787 -1.15624 -5.9558 0
M  V30 1295 H 123.526 -0.548722 -4.84603 0
M  V30 1296 H 122.531 -2.84909 -4.7022 0
M  V30 1297 H 123.756 -3.45503 -5.8464 0
M  V30 1298 H 121.702 -1.28881 -6.43215 0
M  V30 1299 H 121.619 -2.9353 -6.96689 0
M  V30 1300 H 122.887 -1.90397 -7.5589 0
M  V30 1301 N 127.117 1.15442 -1.07289 0
M  V30 1302 C 128.394 1.82306 -0.708792 0
M  V30 1303 C 128.774 1.94991 0.808807 0
M  V30 1304 O 128.122 1.50085 1.72298 0
M  V30 1305 C 128.332 3.18695 -1.42247 0
M  V30 1306 C 129.68 3.94341 -1.57417 0
M  V30 1307 O 130.704 3.28247 -1.38319 0
M  V30 1308 O 129.563 5.12839 -1.88834 0
M  V30 1309 H 126.657 0.787628 -0.252132 0
M  V30 1310 H 129.203 1.22559 -1.17377 0
M  V30 1311 H 127.975 3.04557 -2.45684 0
M  V30 1312 H 127.598 3.86128 -0.948223 0
M  V30 1313 N 128.595 0.856903 1.32268 0
M  V30 1314 C 129.525 0.31858 2.31316 0
M  V30 1315 C 130.506 -0.583487 1.59779 0
M  V30 1316 O 131.691 -0.503259 1.87566 0
M  V30 1317 C 128.821 -0.491979 3.43798 0
M  V30 1318 C 127.775 0.315849 4.26833 0
M  V30 1319 C 127.101 -0.619586 5.31098 0
M  V30 1320 C 128.401 1.54282 4.98993 0
M  V30 1321 H 130.095 1.14621 2.76591 0
M  V30 1322 H 127.641 0.552613 1.32974 0
M  V30 1323 H 129.594 -0.879012 4.1213 0
M  V30 1324 H 128.318 -1.35299 2.97257 0
M  V30 1325 H 126.977 0.684664 3.6015 0
M  V30 1326 H 126.625 -1.47751 4.8081 0
M  V30 1327 H 126.325 -0.0830621 5.87541 0
M  V30 1328 H 127.849 -1.00375 6.02293 0
M  V30 1329 H 129.263 1.22796 5.59995 0
M  V30 1330 H 127.66 2.01745 5.65172 0
M  V30 1331 H 128.73 2.30285 4.26728 0
M  V30 1332 N 130.073 -1.45103 0.615059 0
M  V30 1333 C 131.32 -2.02183 0.113179 0
M  V30 1334 C 131.648 -1.48249 -1.25906 0
M  V30 1335 O 130.903 -0.650265 -1.84581 0
M  V30 1336 C 131.202 -3.57386 0.0318797 0
M  V30 1337 C 130.868 -4.30505 1.34077 0
M  V30 1338 C 129.53 -4.50197 1.69929 0
M  V30 1339 C 131.882 -4.72238 2.20546 0
M  V30 1340 C 129.21 -5.08881 2.91988 0
M  V30 1341 C 131.562 -5.32272 3.41861 0
M  V30 1342 C 130.226 -5.50187 3.77956 0
M  V30 1343 H 129.496 -0.739842 0.0414151 0
M  V30 1344 H 132.143 -1.74073 0.798168 0
M  V30 1345 H 130.448 -3.84817 -0.736409 0
M  V30 1346 H 132.145 -3.99264 -0.372712 0
M  V30 1347 H 128.735 -4.15496 1.05173 0
M  V30 1348 H 132.919 -4.56751 1.94146 0
M  V30 1349 H 128.175 -5.20939 3.2005 0
M  V30 1350 H 132.349 -5.63563 4.09109 0
M  V30 1351 H 129.976 -5.95427 4.72622 0
M  V30 1352 N 131.551 -0.354651 -1.53558 0
M  V30 1353 C 132.828 0.294281 -1.93374 0
M  V30 1354 C 133.208 1.67313 -1.28723 0
M  V30 1355 O 132.556 2.24179 -0.442247 0
M  V30 1356 C 132.766 0.355445 -3.47185 0
M  V30 1357 C 134.114 0.601007 -4.20325 0
M  V30 1358 O 135.138 0.437106 -3.53508 0
M  V30 1359 O 133.997 0.919322 -5.38712 0
M  V30 1360 H 131.091 0.174033 -0.808481 0
M  V30 1361 H 133.637 -0.406638 -1.64756 0
M  V30 1362 H 132.409 -0.611729 -3.86489 0
M  V30 1363 H 132.032 1.1027 -3.82003 0
M  V30 1364 N 133.029 1.57378 -0.0835403 0
M  V30 1365 C 134.44 1.81261 0.447358 0
M  V30 1366 C 134.791 0.998331 1.68902 0
M  V30 1367 O 133.916 0.224282 2.15235 0
M  V30 1368 C 134.511 3.28767 0.818386 0
M  V30 1369 C 133.07 3.53455 1.29409 0
M  V30 1370 C 132.217 2.75831 0.285024 0
M  V30 1371 H 135.168 1.5566 -0.309115 0
M  V30 1372 H 135.189 3.41459 1.67887 0
M  V30 1373 H 134.701 3.88006 -0.0855019 0
M  V30 1374 H 132.802 2.99534 2.21608 0
M  V30 1375 H 132.915 4.62128 1.2639 0
M  V30 1376 H 131.279 2.42947 0.764767 0
M  V30 1377 H 132.062 3.37813 -0.611341 0
M  V30 1378 N 134.507 -0.190092 1.56449 0
M  V30 1379 C 135.756 -0.907912 1.80111 0
M  V30 1380 C 136.069 -1.84214 0.657619 0
M  V30 1381 O 137.275 -2.60094 0.778663 0
M  V30 1382 C 135.731 -1.66485 3.19078 0
M  V30 1383 C 135.339 -0.7752 4.41242 0
M  V30 1384 C 137.083 -2.37201 3.52045 0
M  V30 1385 C 134.99 -1.53129 5.71231 0
M  V30 1386 H 133.92 -0.34276 0.671589 0
M  V30 1387 H 136.571 -0.161109 1.82791 0
M  V30 1388 H 134.953 -2.45572 3.10661 0
M  V30 1389 H 136.127 -0.0226298 4.60794 0
M  V30 1390 H 134.442 -0.178627 4.16017 0
M  V30 1391 H 137.039 -2.94329 4.46402 0
M  V30 1392 H 137.382 -3.11632 2.76028 0
M  V30 1393 H 137.915 -1.65075 3.61932 0
M  V30 1394 H 134.654 -0.82967 6.50228 0
M  V30 1395 H 134.174 -2.25767 5.55688 0
M  V30 1396 H 135.853 -2.08377 6.12526 0
M  V30 1397 N 135.985 -1.50799 -0.457987 0
M  V30 1398 C 137.234 -1.6168 -1.20593 0
M  V30 1399 C 137.547 -0.32888 -1.92815 0
M  V30 1400 O 138.753 -0.316773 -2.69646 0
M  V30 1401 C 137.209 -2.8545 -2.19195 0
M  V30 1402 C 136.817 -4.21168 -1.52715 0
M  V30 1403 C 138.561 -3.05681 -2.94549 0
M  V30 1404 C 136.468 -5.3611 -2.4968 0
M  V30 1405 H 135.398 -0.602134 -0.453818 0
M  V30 1406 H 138.049 -1.77245 -0.475031 0
M  V30 1407 H 136.431 -2.63472 -2.95632 0
M  V30 1408 H 137.605 -4.53449 -0.819775 0
M  V30 1409 H 135.92 -4.06648 -0.895922 0
M  V30 1410 H 138.517 -3.88727 -3.67145 0
M  V30 1411 H 138.86 -2.17929 -3.54701 0
M  V30 1412 H 139.393 -3.27901 -2.25223 0
M  V30 1413 H 136.132 -6.26057 -1.94249 0
M  V30 1414 H 135.652 -5.0823 -3.18532 0
M  V30 1415 H 137.331 -5.6722 -3.11241 0
M  V30 1416 N 137.463 0.71206 -1.40597 0
M  V30 1417 C 138.373 1.8562 -1.43466 0
M  V30 1418 C 139.389 1.70902 -0.326902 0
M  V30 1419 O 140.565 1.93105 -0.572043 0
M  V30 1420 C 137.63 3.21451 -1.29884 0
M  V30 1421 C 136.691 3.48398 -2.50833 0
M  V30 1422 C 135.924 4.77749 -2.3789 0
M  V30 1423 O 136.147 5.53089 -1.39459 0
M  V30 1424 O 135.081 5.05111 -3.27333 0
M  V30 1425 H 138.907 1.86155 -2.39958 0
M  V30 1426 H 136.492 0.86295 -1.21957 0
M  V30 1427 H 138.374 4.02579 -1.24531 0
M  V30 1428 H 137.049 3.21636 -0.364997 0
M  V30 1429 H 135.956 2.67265 -2.61763 0
M  V30 1430 H 137.289 3.53014 -3.4299 0
M  V30 1431 N 138.941 1.26152 0.944643 0
M  V30 1432 C 140.218 1.02247 1.66748 0
M  V30 1433 C 140.598 -0.448202 2.06287 0
M  V30 1434 O 139.946 -1.42779 1.78399 0
M  V30 1435 C 140.156 1.96788 2.88228 0
M  V30 1436 C 141.504 2.25201 3.59958 0
M  V30 1437 O 142.528 1.94626 2.98327 0
M  V30 1438 O 141.387 2.77242 4.70956 0
M  V30 1439 H 138.481 0.388517 0.730057 0
M  V30 1440 H 141.027 1.37348 0.99668 0
M  V30 1441 H 139.799 2.96047 2.55875 0
M  V30 1442 H 139.422 1.62145 3.63035 0
M  V30 1443 N 140.419 -1.14872 1.07899 0
M  V30 1444 C 141.835 -1.37776 0.805606 0
M  V30 1445 C 142.035 -1.92743 -0.587555 0
M  V30 1446 O 141.091 -2.13678 -1.34528 0
M  V30 1447 C 142.404 -2.34361 1.88402 0
M  V30 1448 C 143.952 -2.48012 1.90942 0
M  V30 1449 C 144.427 -3.47893 2.97883 0
M  V30 1450 N 145.918 -3.55433 2.97021 0
M  V30 1451 C 146.653 -4.32553 3.76412 0
M  V30 1452 N 146.149 -5.12959 4.65666 0
M  V30 1453 N 147.942 -4.27697 3.64735 0
M  V30 1454 H 140.093 -0.775365 1.97742 0
M  V30 1455 H 142.356 -0.403521 0.857831 0
M  V30 1456 H 142.062 -2.01098 2.88535 0
M  V30 1457 H 141.936 -3.34206 1.74889 0
M  V30 1458 H 144.323 -2.8057 0.914579 0
M  V30 1459 H 144.404 -1.48147 2.08534 0
M  V30 1460 H 144.048 -3.16069 3.97571 0
M  V30 1461 H 143.978 -4.47527 2.77538 0
M  V30 1462 H 146.469 -2.98048 2.32326 0
M  V30 1463 H 146.782 -5.69065 5.22862 0
M  V30 1464 H 145.127 -5.12245 4.69712 0
M  V30 1465 H 148.318 -3.63949 2.94378 0
M  V30 1466 H 148.491 -4.8755 4.26848 0
M  V30 1467 N 141.898 -0.863906 -1.31812 0
M  V30 1468 C 142.848 -0.286898 -2.26188 0
M  V30 1469 C 143.832 0.572577 -1.50367 0
M  V30 1470 O 145.024 0.420447 -1.71934 0
M  V30 1471 C 142.153 0.515849 -3.39402 0
M  V30 1472 C 141.239 -0.356531 -4.22599 0
M  V30 1473 N 141.63 -1.44716 -4.84656 0
M  V30 1474 C 139.928 -0.147898 -4.45755 0
M  V30 1475 C 140.629 -1.98462 -5.46798 0
M  V30 1476 N 139.605 -1.28247 -5.28255 0
M  V30 1477 H 143.407 -1.12055 -2.717 0
M  V30 1478 H 140.921 -0.711012 -1.46008 0
M  V30 1479 H 142.918 0.945701 -4.06032 0
M  V30 1480 H 141.578 1.34718 -2.95434 0
M  V30 1481 H 142.589 -1.83008 -4.84488 0
M  V30 1482 H 139.266 0.647973 -4.12441 0
M  V30 1483 H 140.656 -2.89932 -6.06126 0
M  V30 1484 N 143.376 1.44774 -0.622745 0
M  V30 1485 C 144.624 2.01721 -0.123655 0
M  V30 1486 C 144.945 1.49172 1.25589 0
M  V30 1487 O 144.215 0.691974 1.83272 0
M  V30 1488 H 142.795 0.745777 -0.0427225 0
M  V30 1489 H 145.457 1.77382 -0.807559 0
M  V30 1490 H 144.553 3.11984 -0.0849534 0
M  V30 1491 N 144.854 0.36279 1.53368 0
M  V30 1492 C 146.102 -0.227326 2.00817 0
M  V30 1493 C 146.423 -1.49511 1.25186 0
M  V30 1494 O 145.693 -1.92482 0.364348 0
M  V30 1495 H 144.273 -0.0869923 0.741917 0
M  V30 1496 H 146.935 0.488381 1.88682 0
M  V30 1497 H 146.031 -0.456273 3.08747 0
M  V30 1498 N 146.332 -1.57332 0.0918853 0
M  V30 1499 C 147.562 -1.98286 -0.580205 0
M  V30 1500 C 147.97 -0.969713 -1.6246 0
M  V30 1501 O 147.313 0.0493501 -1.83634 0
M  V30 1502 C 147.375 -3.35603 -1.28882 0
M  V30 1503 C 147.039 -4.55285 -0.395559 0
M  V30 1504 C 148.036 -5.18687 0.355002 0
M  V30 1505 C 145.721 -5.01314 -0.314556 0
M  V30 1506 C 147.715 -6.26484 1.17458 0
M  V30 1507 C 145.402 -6.08979 0.508677 0
M  V30 1508 C 146.4 -6.71429 1.2519 0
M  V30 1509 O 146.088 -7.77018 2.06151 0
M  V30 1510 H 145.82 -0.656678 -0.160466 0
M  V30 1511 H 148.374 -2.04721 0.16688 0
M  V30 1512 H 146.604 -3.25842 -2.08241 0
M  V30 1513 H 148.293 -3.61026 -1.85512 0
M  V30 1514 H 149.059 -4.84058 0.302134 0
M  V30 1515 H 144.938 -4.5247 -0.882697 0
M  V30 1516 H 148.482 -6.75159 1.75518 0
M  V30 1517 H 144.379 -6.4304 0.563037 0
M  V30 1518 H 145.147 -7.93991 1.98799 0
M  V30 1519 N 147.81 0.181792 -1.56548 0
M  V30 1520 C 148.757 1.22521 -1.95595 0
M  V30 1521 C 149.727 1.4454 -0.818373 0
M  V30 1522 O 150.912 1.57454 -1.07763 0
M  V30 1523 C 148.052 2.56193 -2.31212 0
M  V30 1524 C 147.165 2.41641 -3.58097 0
M  V30 1525 C 146.3 3.68108 -3.82975 0
M  V30 1526 C 145.339 3.48445 -5.03242 0
M  V30 1527 N 144.476 4.66956 -5.24306 0
M  V30 1528 H 149.316 0.885226 -2.84548 0
M  V30 1529 H 146.853 0.425718 -1.40805 0
M  V30 1530 H 148.811 3.34088 -2.49882 0
M  V30 1531 H 147.441 2.88208 -1.45382 0
M  V30 1532 H 146.493 1.54976 -3.474 0
M  V30 1533 H 147.805 2.23052 -4.46149 0
M  V30 1534 H 146.959 4.54441 -4.01956 0
M  V30 1535 H 145.698 3.89666 -2.93278 0
M  V30 1536 H 144.703 2.60499 -4.8417 0
M  V30 1537 H 145.928 3.2832 -5.9446 0
M  V30 1538 H 143.874 4.88752 -4.37559 0
M  V30 1539 H 143.791 4.51242 -6.06561 0
M  V30 1540 H 145.059 5.54602 -5.47756 0
M  V30 1541 N 149.288 1.51039 0.449983 0
M  V30 1542 C 150.699 1.557 1.03026 0
M  V30 1543 C 151.05 0.372939 1.92623 0
M  V30 1544 O 150.175 -0.511771 2.10261 0
M  V30 1545 C 150.77 2.82171 1.87523 0
M  V30 1546 C 149.329 2.89444 2.40622 0
M  V30 1547 C 148.476 2.50228 1.19504 0
M  V30 1548 H 151.427 1.56999 0.231745 0
M  V30 1549 H 151.448 2.65219 2.72835 0
M  V30 1550 H 150.96 3.68331 1.22286 0
M  V30 1551 H 149.061 2.07685 3.0935 0
M  V30 1552 H 149.174 3.92816 2.74285 0
M  V30 1553 H 147.538 2.03139 1.53644 0
M  V30 1554 H 148.321 3.38719 0.558972 0
M  V30 1555 N 150.766 -0.704594 1.40972 0
M  V30 1556 C 151.991 -1.49858 1.43378 0
M  V30 1557 C 152.416 -1.88061 0.038184 0
M  V30 1558 O 151.774 -1.5402 -0.956425 0
M  V30 1559 C 151.822 -2.74333 2.34038 0
M  V30 1560 O 150.926 -3.7147 1.7912 0
M  V30 1561 H 150.267 -0.45139 0.486974 0
M  V30 1562 H 152.797 -0.866832 1.8533 0
M  V30 1563 H 152.807 -3.22741 2.49604 0
M  V30 1564 H 151.482 -2.45863 3.35446 0
M  V30 1565 H 150.059 -3.30363 1.72958 0
M  V30 1566 N 152.244 -1.26651 -0.937939 0
M  V30 1567 C 153.521 -1.0313 -1.66204 0
M  V30 1568 C 153.901 0.437256 -2.06522 0
M  V30 1569 O 153.249 1.41831 -1.79154 0
M  V30 1570 C 153.459 -1.98314 -2.87181 0
M  V30 1571 C 154.807 -2.27107 -3.58758 0
M  V30 1572 O 155.831 -1.96205 -2.97291 0
M  V30 1573 O 154.69 -2.79736 -4.69479 0
M  V30 1574 H 151.784 -0.392384 -0.727986 0
M  V30 1575 H 154.33 -1.37874 -0.989382 0
M  V30 1576 H 153.102 -2.97399 -2.54302 0
M  V30 1577 H 152.725 -1.64068 -3.6217 0
M  V30 1578 N 153.722 1.14298 -1.08507 0
M  V30 1579 C 154.632 2.23027 -0.727753 0
M  V30 1580 C 155.648 1.71952 0.26619 0
M  V30 1581 O 156.824 2.011 0.109882 0
M  V30 1582 C 153.889 3.46403 -0.143541 0
M  V30 1583 C 152.95 4.12413 -1.19223 0
M  V30 1584 C 152.183 5.29899 -0.635798 0
M  V30 1585 O 152.406 5.67796 0.544393 0
M  V30 1586 O 151.34 5.85717 -1.38634 0
M  V30 1587 H 155.166 2.55945 -1.63481 0
M  V30 1588 H 152.751 1.22248 -0.858817 0
M  V30 1589 H 154.633 4.21018 0.179404 0
M  V30 1590 H 153.308 3.15206 0.736659 0
M  V30 1591 H 152.215 3.39667 -1.56772 0
M  V30 1592 H 153.548 4.47718 -2.04474 0
M  V30 1593 N 155.201 0.870884 1.31352 0
M  V30 1594 C 156.151 0.298889 2.26032 0
M  V30 1595 C 157.135 -0.564595 1.50669 0
M  V30 1596 O 158.327 -0.411323 1.72154 0
M  V30 1597 C 155.456 -0.497842 3.39671 0
M  V30 1598 C 154.542 0.378937 4.22404 0
M  V30 1599 N 154.933 1.47284 4.83881 0
M  V30 1600 C 153.231 0.171535 4.4567 0
M  V30 1601 C 153.932 2.01359 5.45738 0
M  V30 1602 N 152.908 1.31047 5.27568 0
M  V30 1603 H 156.71 1.13494 2.71102 0
M  V30 1604 H 154.224 0.718745 1.45629 0
M  V30 1605 H 156.221 -0.924155 4.06528 0
M  V30 1606 H 154.881 -1.33149 2.96144 0
M  V30 1607 H 155.892 1.85575 4.8351 0
M  V30 1608 H 152.569 -0.626091 4.12779 0
M  V30 1609 H 153.959 2.93143 6.0458 0
M  V30 1610 N 156.679 -1.44442 0.630414 0
M  V30 1611 C 157.626 -2.30678 -0.0749355 0
M  V30 1612 C 158.596 -1.4344 -0.837502 0
M  V30 1613 O 159.781 -1.72343 -0.818684 0
M  V30 1614 C 156.921 -3.28706 -1.05103 0
M  V30 1615 C 156.034 -4.31046 -0.286954 0
M  V30 1616 C 155.169 -5.16167 -1.2548 0
M  V30 1617 C 154.208 -6.10216 -0.479843 0
M  V30 1618 N 153.345 -6.88039 -1.39811 0
M  V30 1619 H 158.185 -2.90454 0.666386 0
M  V30 1620 H 155.722 -1.43107 0.340404 0
M  V30 1621 H 157.68 -3.84027 -1.63031 0
M  V30 1622 H 156.31 -2.70632 -1.75949 0
M  V30 1623 H 155.362 -3.78203 0.408243 0
M  V30 1624 H 156.674 -4.97794 0.316657 0
M  V30 1625 H 155.828 -5.76002 -1.90544 0
M  V30 1626 H 154.567 -4.49491 -1.89233 0
M  V30 1627 H 153.572 -5.49491 0.184295 0
M  V30 1628 H 154.797 -6.78928 0.152965 0
M  V30 1629 H 152.743 -6.24032 -2.02287 0
M  V30 1630 H 152.66 -7.51223 -0.848508 0
M  V30 1631 H 153.928 -7.52397 -2.03762 0
M  V30 1632 N 158.157 -0.370918 -1.53173 0
M  V30 1633 C 159.385 0.217704 -2.05751 0
M  V30 1634 C 159.8 1.42018 -1.24404 0
M  V30 1635 O 159.157 1.80245 -0.286033 0
M  V30 1636 C 159.208 0.605954 -3.56385 0
M  V30 1637 O 158.929 -0.548734 -4.3465 0
M  V30 1638 C 160.43 1.2524 -4.25241 0
M  V30 1639 H 157.65 0.0371659 -0.66997 0
M  V30 1640 H 160.194 -0.530832 -1.9749 0
M  V30 1641 H 158.349 1.3044 -3.6478 0
M  V30 1642 H 158.763 -0.23376 -5.23979 0
M  V30 1643 H 160.237 1.47458 -5.3194 0
M  V30 1644 H 160.714 2.2143 -3.79296 0
M  V30 1645 H 161.32 0.595233 -4.21114 0
M  V30 1646 N 159.635 1.57281 -0.100228 0
M  V30 1647 C 160.912 1.86014 0.604812 0
M  V30 1648 C 161.292 0.998025 1.86018 0
M  V30 1649 O 160.64 0.0718184 2.28387 0
M  V30 1650 C 160.85 3.36784 0.915278 0
M  V30 1651 C 162.198 4.04957 1.27651 0
M  V30 1652 O 163.222 3.41695 1.00613 0
M  V30 1653 O 162.081 5.16593 1.7831 0
M  V30 1654 H 159.175 0.76942 0.303185 0
M  V30 1655 H 161.721 1.69176 -0.133313 0
M  V30 1656 H 160.493 3.91292 0.0248896 0
M  V30 1657 H 160.116 3.58987 1.70921 0
M  V30 1658 N 161.113 -0.173488 1.56642 0
M  V30 1659 C 162.043 -1.2171 1.99271 0
M  V30 1660 C 163.024 -1.46289 0.867959 0
M  V30 1661 O 164.209 -1.5766 1.13388 0
M  V30 1662 C 161.339 -2.55651 2.35074 0
M  V30 1663 C 160.293 -2.45645 3.50489 0
M  V30 1664 C 159.619 -3.84056 3.72028 0
M  V30 1665 C 160.919 -1.96302 4.84007 0
M  V30 1666 H 162.613 -0.86275 2.867 0
M  V30 1667 H 160.159 -0.413571 1.37933 0
M  V30 1668 H 162.112 -3.2886 2.63494 0
M  V30 1669 H 160.836 -2.92869 1.44552 0
M  V30 1670 H 159.495 -1.7489 3.22194 0
M  V30 1671 H 159.143 -4.18664 2.788 0
M  V30 1672 H 158.843 -3.7823 4.49684 0
M  V30 1673 H 160.367 -4.58854 4.02846 0
M  V30 1674 H 161.781 -2.59284 5.11317 0
M  V30 1675 H 160.178 -2.01429 5.65284 0
M  V30 1676 H 161.248 -0.917226 4.76146 0
M  V30 1677 N 162.591 -1.51276 -0.441967 0
M  V30 1678 C 163.539 -1.72823 -1.55676 0
M  V30 1679 C 164.533 -0.59445 -1.58627 0
M  V30 1680 O 165.739 -0.775715 -1.62427 0
M  V30 1681 H 162.114 -0.545983 -0.517113 0
M  V30 1682 H 164.085 -2.6628 -1.34675 0
M  V30 1683 C 162.834 -1.86619 -2.93375 0
M  V30 1684 H 162.157 -2.73264 -2.91834 0
M  V30 1685 H 163.597 -2.05709 -3.70756 0
M  V30 1686 C 162.056 -0.624842 -3.31055 0
M  V30 1687 O 162.586 0.222636 -4.01083 0
M  V30 1688 N 160.792 -0.470288 -2.86769 0
M  V30 1689 H 160.339 -1.161 -2.29953 0
M  V30 1690 H 160.297 0.359051 -3.12343 0
M  V30 1691 N 164.069 0.697108 -1.41344 0
M  V30 1692 C 165.48 1.27697 -1.36199 0
M  V30 1693 C 165.831 1.9615 -0.0443463 0
M  V30 1694 O 164.956 1.98689 0.857419 0
M  V30 1695 C 165.551 2.32223 -2.46694 0
M  V30 1696 C 164.11 2.8579 -2.44952 0
M  V30 1697 C 163.257 1.59807 -2.26621 0
M  V30 1698 H 166.208 0.491968 -1.50882 0
M  V30 1699 H 166.229 3.1348 -2.15664 0
M  V30 1700 H 165.741 1.82373 -3.42581 0
M  V30 1701 H 163.842 3.3982 -1.52817 0
M  V30 1702 H 163.955 3.36325 -3.41207 0
M  V30 1703 H 162.319 1.8556 -1.7447 0
M  V30 1704 H 163.102 1.11956 -3.24532 0
M  V30 1705 N 165.547 1.27147 0.931209 0
M  V30 1706 C 166.824 1.0401 1.65654 0
M  V30 1707 C 167.204 -0.426297 2.06751 0
M  V30 1708 O 166.552 -1.40879 1.79904 0
M  V30 1709 C 166.762 1.99834 2.86125 0
M  V30 1710 C 168.11 2.29007 3.57549 0
M  V30 1711 O 169.134 1.97779 2.96246 0
M  V30 1712 O 167.993 2.82222 4.67989 0
M  V30 1713 H 165.087 0.396239 0.725895 0
M  V30 1714 H 167.633 1.38397 0.982056 0
M  V30 1715 H 166.405 2.98744 2.52721 0
M  V30 1716 H 166.028 1.65987 3.61295 0
M  V30 1717 N 167.025 -1.13721 1.09112 0
M  V30 1718 C 167.973 -2.21103 0.722219 0
M  V30 1719 C 168.967 -1.67147 -0.275374 0
M  V30 1720 O 170.173 -1.79477 -0.137176 0
M  V30 1721 H 166.548 -0.720445 0.215553 0
M  V30 1722 H 168.519 -2.49483 1.63709 0
M  V30 1723 C 167.268 -3.47352 0.15543 0
M  V30 1724 H 166.591 -3.89206 0.914246 0
M  V30 1725 H 168.031 -4.2395 -0.0647967 0
M  V30 1726 C 166.49 -3.1814 -1.10852 0
M  V30 1727 O 167.02 -3.36604 -2.19227 0
M  V30 1728 N 165.226 -2.72045 -1.02176 0
M  V30 1729 H 164.773 -2.57221 -0.139764 0
M  V30 1730 H 164.731 -2.52875 -1.8682 0
M  V30 1731 N 168.503 -0.877838 -1.30888 0
M  V30 1732 C 169.433 -0.35534 -2.3078 0
M  V30 1733 C 170.414 0.557994 -1.60687 0
M  V30 1734 O 171.599 0.473355 -1.88343 0
M  V30 1735 C 168.729 0.437221 -3.44537 0
M  V30 1736 C 167.683 -0.383715 -4.26276 0
M  V30 1737 C 167.009 0.535014 -5.32017 0
M  V30 1738 C 168.309 -1.62201 -4.96476 0
M  V30 1739 H 170.003 -1.19007 -2.74732 0
M  V30 1740 H 167.549 -0.573698 -1.32078 0
M  V30 1741 H 169.502 0.813334 -4.13477 0
M  V30 1742 H 168.226 1.30553 -2.99372 0
M  V30 1743 H 166.885 -0.741874 -3.59015 0
M  V30 1744 H 166.533 1.40083 -4.831 0
M  V30 1745 H 166.233 -0.0104211 -5.87599 0
M  V30 1746 H 167.757 0.907799 -6.03814 0
M  V30 1747 H 169.171 -1.31689 -5.5797 0
M  V30 1748 H 167.568 -2.10711 -5.61891 0
M  V30 1749 H 168.638 -2.37044 -4.23011 0
M  V30 1750 N 169.982 1.44106 -0.638065 0
M  V30 1751 C 170.914 2.28976 0.101205 0
M  V30 1752 C 171.927 1.4167 0.802088 0
M  V30 1753 O 173.116 1.65755 0.662375 0
M  V30 1754 C 170.216 3.18217 1.16581 0
M  V30 1755 C 169.389 4.33978 0.546066 0
M  V30 1756 C 168.448 5.04202 1.50554 0
M  V30 1757 O 167.474 5.59986 1.01999 0
M  V30 1758 N 168.676 5.06296 2.8398 0
M  V30 1759 H 171.441 2.93064 -0.627186 0
M  V30 1760 H 169.002 1.54629 -0.479731 0
M  V30 1761 H 170.994 3.62061 1.80815 0
M  V30 1762 H 169.564 2.55833 1.79634 0
M  V30 1763 H 168.784 3.93239 -0.275046 0
M  V30 1764 H 170.072 5.08675 0.112793 0
M  V30 1765 H 169.47 4.62319 3.26002 0
M  V30 1766 H 168.027 5.53907 3.43556 0
M  V30 1767 N 171.46 0.379036 1.52974 0
M  V30 1768 C 172.708 -0.206014 2.01047 0
M  V30 1769 C 173.029 -1.48175 1.26765 0
M  V30 1770 O 172.299 -1.92085 0.384743 0
M  V30 1771 H 170.879 -0.0791184 0.742798 0
M  V30 1772 H 173.541 0.508366 1.88153 0
M  V30 1773 H 172.637 -0.423501 3.09213 0
M  V30 1774 N 172.938 -1.57226 0.108567 0
M  V30 1775 C 174.186 -1.94448 -0.550853 0
M  V30 1776 C 174.507 -0.992074 -1.67878 0
M  V30 1777 O 173.777 -0.0465 -1.95845 0
M  V30 1778 H 172.357 -0.717897 -0.206479 0
M  V30 1779 H 175.019 -1.94112 0.175062 0
M  V30 1780 H 174.115 -2.97218 -0.952259 0
M  V30 1781 N 174.416 0.165178 -1.56732 0
M  V30 1782 C 175.693 0.908443 -1.73224 0
M  V30 1783 C 176.073 2.0013 -0.67165 0
M  V30 1784 O 175.421 2.26353 0.31253 0
M  V30 1785 C 175.631 1.46756 -3.16644 0
M  V30 1786 C 176.979 1.93809 -3.77787 0
M  V30 1787 O 178.003 1.56537 -3.1996 0
M  V30 1788 O 176.862 2.62486 -4.79336 0
M  V30 1789 H 173.956 0.428025 -0.707618 0
M  V30 1790 H 176.502 0.152526 -1.69013 0
M  V30 1791 H 175.274 0.68129 -3.85323 0
M  V30 1792 H 174.897 2.28749 -3.25207 0
M  V30 1793 N 175.894 1.51508 0.433938 0
M  V30 1794 C 177.171 1.54888 1.19453 0
M  V30 1795 C 177.551 0.315154 2.08734 0
M  V30 1796 O 176.899 -0.699558 2.17528 0
M  V30 1797 C 177.109 2.86467 1.99342 0
M  V30 1798 C 178.457 3.38545 2.56267 0
M  V30 1799 O 179.481 2.88041 2.0955 0
M  V30 1800 O 178.34 4.26675 3.41483 0
M  V30 1801 H 175.434 0.622863 0.544032 0
M  V30 1802 H 177.98 1.63823 0.442732 0
M  V30 1803 H 176.752 3.67718 1.33788 0
M  V30 1804 H 176.375 2.8071 2.8158 0
M  V30 1805 N 177.372 -0.689602 1.41712 0
M  V30 1806 C 178.302 -1.81577 1.46806 0
M  V30 1807 C 179.283 -1.66945 0.326105 0
M  V30 1808 O 180.468 -1.86588 0.538377 0
M  V30 1809 C 177.598 -3.19762 1.35535 0
M  V30 1810 C 176.552 -3.49107 2.47605 0
M  V30 1811 C 175.878 -4.86711 2.21397 0
M  V30 1812 C 177.178 -3.47483 3.89939 0
M  V30 1813 H 178.872 -1.7757 2.41058 0
M  V30 1814 H 176.418 -0.852887 1.16025 0
M  V30 1815 H 178.371 -3.98263 1.3771 0
M  V30 1816 H 177.095 -3.24409 0.377708 0
M  V30 1817 H 175.754 -2.72959 2.44722 0
M  V30 1818 H 175.402 -4.8799 1.21961 0
M  V30 1819 H 175.102 -5.0731 2.96497 0
M  V30 1820 H 176.626 -5.67515 2.25297 0
M  V30 1821 H 178.04 -4.1598 3.94505 0
M  V30 1822 H 176.437 -3.79615 4.64771 0
M  V30 1823 H 177.507 -2.46341 4.17665 0
M  V30 1824 N 178.85 -1.27639 -0.924453 0
M  V30 1825 C 180.127 -1.04887 -1.651 0
M  V30 1826 C 180.507 0.415327 -2.06974 0
M  V30 1827 O 179.855 1.39923 -1.80648 0
M  V30 1828 C 180.065 -2.01348 -2.85061 0
M  V30 1829 C 181.413 -2.30899 -3.56329 0
M  V30 1830 O 182.437 -1.99348 -2.95193 0
M  V30 1831 O 181.296 -2.84699 -4.66485 0
M  V30 1832 H 178.39 -0.400083 -0.723784 0
M  V30 1833 H 180.936 -1.38916 -0.974703 0
M  V30 1834 H 179.708 -3.0008 -2.51133 0
M  V30 1835 H 179.331 -1.679 -3.6041 0
M  V30 1836 N 180.328 1.1314 -1.09713 0
M  V30 1837 C 181.739 1.66029 -0.853885 0
M  V30 1838 C 182.09 1.86241 0.617142 0
M  V30 1839 O 181.215 1.5834 1.47503 0
M  V30 1840 C 181.81 3.01599 -1.5435 0
M  V30 1841 C 180.369 3.51467 -1.34714 0
M  V30 1842 C 179.516 2.26648 -1.59769 0
M  V30 1843 H 182.467 0.970226 -1.25588 0
M  V30 1844 H 182.488 3.67709 -0.978267 0
M  V30 1845 H 182 2.86856 -2.6141 0
M  V30 1846 H 180.101 3.71408 -0.297838 0
M  V30 1847 H 180.214 4.314 -2.08401 0
M  V30 1848 H 178.578 2.33385 -1.01998 0
M  V30 1849 H 179.361 2.14467 -2.68065 0
M  V30 1850 N 181.806 0.884767 1.30421 0
M  V30 1851 C 182.754 0.340869 2.30089 0
M  V30 1852 C 183.748 -0.55201 1.60154 0
M  V30 1853 O 184.954 -0.436467 1.74628 0
M  V30 1854 H 181.329 0.0915739 0.746404 0
M  V30 1855 H 183.3 1.19513 2.73421 0
M  V30 1856 C 182.049 -0.429779 3.45034 0
M  V30 1857 H 181.372 0.248024 3.9903 0
M  V30 1858 H 182.812 -0.775445 4.16849 0
M  V30 1859 C 181.271 -1.62677 2.95022 0
M  V30 1860 O 181.801 -2.72614 2.95033 0
M  V30 1861 N 180.007 -1.46387 2.51036 0
M  V30 1862 H 179.554 -0.569506 2.51226 0
M  V30 1863 H 179.512 -2.26612 2.17932 0
M  V30 1864 N 183.284 -1.43765 0.645699 0
M  V30 1865 C 184.514 -2.05953 0.163318 0
M  V30 1866 C 184.922 -1.48432 -1.17322 0
M  V30 1867 O 184.265 -0.607295 -1.73371 0
M  V30 1868 C 184.327 -3.59499 -0.0103065 0
M  V30 1869 C 183.991 -4.39563 1.25035 0
M  V30 1870 C 184.988 -4.72108 2.17739 0
M  V30 1871 C 182.673 -4.79697 1.48983 0
M  V30 1872 C 184.667 -5.43688 3.3269 0
M  V30 1873 C 182.354 -5.51023 2.64229 0
M  V30 1874 C 183.352 -5.8294 3.55908 0
M  V30 1875 O 183.04 -6.5281 4.69142 0
M  V30 1876 H 182.772 -0.670798 0.0836986 0
M  V30 1877 H 185.326 -1.85384 0.884407 0
M  V30 1878 H 183.556 -3.78613 -0.78669 0
M  V30 1879 H 185.245 -4.03408 -0.449087 0
M  V30 1880 H 186.011 -4.41627 2.00476 0
M  V30 1881 H 181.89 -4.54266 0.785078 0
M  V30 1882 H 185.434 -5.68517 4.04269 0
M  V30 1883 H 181.331 -5.8092 2.81429 0
M  V30 1884 H 182.099 -6.71288 4.6831 0
M  V30 1885 N 184.763 -0.387143 -1.52771 0
M  V30 1886 C 186.009 0.196025 -2.0185 0
M  V30 1887 C 186.342 1.46641 -1.27319 0
M  V30 1888 O 185.617 1.90889 -0.373032 0
M  V30 1889 C 185.9 0.466136 -3.5707 0
M  V30 1890 C 185.753 -0.819385 -4.42274 0
M  V30 1891 C 187.072 1.25768 -4.21747 0
M  V30 1892 H 184.191 0.0697708 -0.73369 0
M  V30 1893 H 186.833 -0.516286 -1.82851 0
M  V30 1894 H 184.983 1.07293 -3.7339 0
M  V30 1895 H 186.655 -1.4563 -4.37709 0
M  V30 1896 H 184.898 -1.43517 -4.09372 0
M  V30 1897 H 185.569 -0.585065 -5.48891 0
M  V30 1898 H 188.045 0.744167 -4.09391 0
M  V30 1899 H 186.921 1.41541 -5.30337 0
M  V30 1900 H 187.182 2.27228 -3.79236 0
M  V30 1901 N 186.241 1.57166 -0.116904 0
M  V30 1902 C 187.171 2.18222 0.830759 0
M  V30 1903 C 188.152 1.12167 1.27877 0
M  V30 1904 O 189.337 1.40394 1.34176 0
M  V30 1905 C 186.467 2.77996 2.08172 0
M  V30 1906 C 185.421 3.89614 1.77157 0
M  V30 1907 C 184.747 4.36187 3.09265 0
M  V30 1908 C 186.047 5.1181 1.04151 0
M  V30 1909 H 187.741 2.97664 0.321992 0
M  V30 1910 H 185.287 1.4318 0.153434 0
M  V30 1911 H 187.24 3.19366 2.74924 0
M  V30 1912 H 185.964 1.9584 2.6137 0
M  V30 1913 H 184.623 3.48816 1.12796 0
M  V30 1914 H 184.271 3.50893 3.60393 0
M  V30 1915 H 183.971 5.11455 2.89288 0
M  V30 1916 H 185.495 4.80207 3.77139 0
M  V30 1917 H 186.909 5.50214 1.61052 0
M  V30 1918 H 185.306 5.92648 0.942762 0
M  V30 1919 H 186.376 4.84892 0.0279022 0
M  V30 1920 N 187.719 -0.156864 1.56817 0
M  V30 1921 C 188.944 -0.890331 1.87318 0
M  V30 1922 C 189.369 -1.74394 0.704855 0
M  V30 1923 O 188.727 -1.77972 -0.345786 0
M  V30 1924 C 188.775 -1.73102 3.16336 0
M  V30 1925 O 187.879 -2.83422 2.99576 0
M  V30 1926 H 187.22 -0.24857 0.615718 0
M  V30 1927 H 189.75 -0.150649 2.04045 0
M  V30 1928 H 189.76 -2.12803 3.48107 0
M  V30 1929 H 188.435 -1.10412 4.00976 0
M  V30 1930 H 187.012 -2.47199 2.7919 0
M  V30 1931 N 189.197 -1.51736 -0.425897 0
M  V30 1932 C 190.422 -1.69082 -1.20108 0
M  V30 1933 C 190.847 -0.392398 -1.83962 0
M  V30 1934 O 190.205 0.64858 -1.69302 0
M  V30 1935 C 190.253 -2.81604 -2.25237 0
M  V30 1936 O 189.357 -2.46004 -3.30992 0
M  V30 1937 H 188.698 -0.563408 -0.35138 0
M  V30 1938 H 191.228 -1.98358 -0.501512 0
M  V30 1939 H 191.238 -3.06025 -2.69838 0
M  V30 1940 H 189.913 -3.75817 -1.78142 0
M  V30 1941 H 188.49 -2.32195 -2.91787 0
M  V30 1942 N 190.675 0.682077 -1.42076 0
M  V30 1943 C 192.091 0.994324 -1.24841 0
M  V30 1944 C 192.291 2.0096 -0.147389 0
M  V30 1945 O 191.347 2.47822 0.483782 0
M  V30 1946 C 192.66 1.50607 -2.60265 0
M  V30 1947 C 194.208 1.62421 -2.6756 0
M  V30 1948 C 194.683 2.16994 -4.03333 0
M  V30 1949 N 196.174 2.24337 -4.0525 0
M  V30 1950 C 196.909 2.67621 -5.07116 0
M  V30 1951 N 196.405 3.1041 -6.19368 0
M  V30 1952 N 198.198 2.67305 -4.94474 0
M  V30 1953 H 190.349 0.00973908 -2.12398 0
M  V30 1954 H 192.612 0.0668593 -0.945639 0
M  V30 1955 H 192.318 0.834583 -3.41654 0
M  V30 1956 H 192.192 2.48602 -2.83684 0
M  V30 1957 H 194.579 2.28678 -1.86521 0
M  V30 1958 H 194.66 0.629352 -2.47937 0
M  V30 1959 H 194.304 1.51349 -4.84826 0
M  V30 1960 H 194.234 3.17258 -4.20304 0
M  V30 1961 H 196.725 1.94158 -3.24209 0
M  V30 1962 H 197.038 3.42103 -6.92954 0
M  V30 1963 H 195.383 3.08286 -6.22884 0
M  V30 1964 H 198.574 2.33233 -4.05857 0
M  V30 1965 H 198.747 3.00718 -5.73997 0
M  V30 1966 N 192.153 1.28127 0.917671 0
M  V30 1967 C 193.399 1.15223 1.66888 0
M  V30 1968 C 193.732 -0.299293 1.9188 0
M  V30 1969 O 193.007 -1.21805 1.51637 0
M  V30 1970 C 193.29 1.94706 3.02922 0
M  V30 1971 C 193.143 3.47898 2.85109 0
M  V30 1972 C 194.462 1.75939 4.03402 0
M  V30 1973 H 191.581 0.419946 0.605652 0
M  V30 1974 H 194.223 1.57398 1.06423 0
M  V30 1975 H 192.373 1.58864 3.54534 0
M  V30 1976 H 194.045 3.93624 2.40537 0
M  V30 1977 H 192.288 3.7373 2.20246 0
M  V30 1978 H 192.959 3.98765 3.81694 0
M  V30 1979 H 195.435 2.07209 3.60837 0
M  V30 1980 H 194.311 2.33931 4.96556 0
M  V30 1981 H 194.572 0.709877 4.36364 0
M  V30 1982 N 193.631 -1.12557 1.10312 0
M  V30 1983 C 195.047 -1.36036 0.834649 0
M  V30 1984 C 195.247 -1.93946 -0.546539 0
M  V30 1985 O 194.303 -2.16484 -1.29966 0
M  V30 1986 C 195.616 -2.30312 1.9333 0
M  V30 1987 C 197.164 -2.43906 1.9616 0
M  V30 1988 C 197.639 -3.41496 3.05195 0
M  V30 1989 N 199.13 -3.49053 3.04494 0
M  V30 1990 C 199.865 -4.24471 3.85502 0
M  V30 1991 N 199.361 -5.02966 4.76442 0
M  V30 1992 N 201.154 -4.19864 3.73725 0
M  V30 1993 H 193.305 -0.733246 1.99342 0
M  V30 1994 H 195.568 -0.385234 0.866198 0
M  V30 1995 H 195.274 -1.94933 2.92735 0
M  V30 1996 H 195.148 -3.30421 1.81939 0
M  V30 1997 H 197.535 -2.78567 0.973886 0
M  V30 1998 H 197.616 -1.4369 2.11629 0
M  V30 1999 H 197.26 -3.07565 4.04186 0
M  V30 2000 H 197.19 -4.41539 2.86968 0
M  V30 2001 H 199.681 -2.93053 2.38596 0
M  V30 2002 H 199.994 -5.57846 5.34815 0
M  V30 2003 H 198.339 -5.02167 4.80472 0
M  V30 2004 H 201.53 -3.57623 3.02032 0
M  V30 2005 H 201.703 -4.78386 4.37093 0
M  V30 2006 N 195.109 -0.891671 -1.2995 0
M  V30 2007 C 196.337 -0.52866 -2.00032 0
M  V30 2008 C 196.752 0.884574 -1.66795 0
M  V30 2009 O 196.109 1.5827 -0.908669 0
M  V30 2010 C 196.16 -0.701814 -3.54622 0
M  V30 2011 O 195.881 -2.05942 -3.86678 0
M  V30 2012 C 197.382 -0.342683 -4.41973 0
M  V30 2013 H 194.602 -0.203659 -0.639347 0
M  V30 2014 H 197.146 -1.19881 -1.65677 0
M  V30 2015 H 195.301 -0.0789468 -3.8732 0
M  V30 2016 H 195.715 -2.08291 -4.81368 0
M  V30 2017 H 197.189 -0.514709 -5.49595 0
M  V30 2018 H 197.666 0.71975 -4.33262 0
M  V30 2019 H 198.272 -0.942154 -4.14733 0
M  V30 2020 N 196.587 1.43421 -0.653314 0
M  V30 2021 C 197.835 2.01414 -0.166415 0
M  V30 2022 C 198.156 1.51803 1.22397 0
M  V30 2023 O 197.426 0.730693 1.81763 0
M  V30 2024 H 196.006 0.744703 -0.0585319 0
M  V30 2025 H 198.668 1.75629 -0.845003 0
M  V30 2026 H 197.764 3.11734 -0.151111 0
M  V30 2027 N 198.065 0.39524 1.52563 0
M  V30 2028 C 199.481 0.0454682 1.59535 0
M  V30 2029 C 199.681 -1.44056 1.4089 0
M  V30 2030 O 198.737 -2.20579 1.22888 0
M  V30 2031 C 200.05 0.527963 2.96029 0
M  V30 2032 C 201.598 0.484733 3.09224 0
M  V30 2033 C 202.073 0.943512 4.48176 0
M  V30 2034 N 203.564 0.899765 4.54377 0
M  V30 2035 C 204.299 1.22609 5.60138 0
M  V30 2036 N 203.795 1.62319 6.73516 0
M  V30 2037 N 205.588 1.14696 5.50274 0
M  V30 2038 H 197.739 1.36261 1.62931 0
M  V30 2039 H 200.002 0.558887 0.765735 0
M  V30 2040 H 199.708 1.56607 3.14908 0
M  V30 2041 H 199.582 -0.0698056 3.77135 0
M  V30 2042 H 201.969 -0.544298 2.90037 0
M  V30 2043 H 202.05 1.11838 2.30056 0
M  V30 2044 H 201.694 1.9708 4.68104 0
M  V30 2045 H 201.624 0.286817 5.25818 0
M  V30 2046 H 204.115 0.607632 3.72983 0
M  V30 2047 H 204.428 1.85567 7.5019 0
M  V30 2048 H 202.773 1.66211 6.74833 0
M  V30 2049 H 205.964 0.835701 4.6058 0
M  V30 2050 H 206.137 1.40459 6.32594 0
M  V30 2051 N 199.544 -1.57102 0.125237 0
M  V30 2052 C 200.769 -2.0019 -0.542101 0
M  V30 2053 C 201.194 -1.00449 -1.59034 0
M  V30 2054 O 200.552 0.0229423 -1.81285 0
M  V30 2055 C 200.6 -3.42129 -1.13929 0
M  V30 2056 O 199.704 -3.45307 -2.2547 0
M  V30 2057 H 199.045 -0.650171 -0.134812 0
M  V30 2058 H 201.575 -2.03461 0.215553 0
M  V30 2059 H 201.585 -3.80471 -1.4733 0
M  V30 2060 H 200.26 -4.14237 -0.371531 0
M  V30 2061 H 198.837 -3.1879 -1.93462 0
M  V30 2062 N 201.022 0.148545 -1.56898 0
M  V30 2063 C 202.271 0.85984 -1.82454 0
M  V30 2064 C 202.584 1.82406 -0.706229 0
M  V30 2065 O 203.79 2.57938 -0.847349 0
M  V30 2066 C 202.246 1.57967 -3.2338 0
M  V30 2067 C 201.854 0.65794 -4.43142 0
M  V30 2068 C 203.598 2.27784 -3.58211 0
M  V30 2069 C 201.505 1.3793 -5.75091 0
M  V30 2070 H 200.435 0.324834 -0.68044 0
M  V30 2071 H 203.086 0.112588 -1.83154 0
M  V30 2072 H 201.468 2.37249 -3.17063 0
M  V30 2073 H 202.642 -0.0995497 -4.60692 0
M  V30 2074 H 200.957 0.0682643 -4.16344 0
M  V30 2075 H 203.554 2.8239 -4.54048 0
M  V30 2076 H 203.897 3.04204 -2.84193 0
M  V30 2077 H 204.43 1.55421 -3.66182 0
M  V30 2078 H 201.169 0.656982 -6.52199 0
M  V30 2079 H 200.689 2.10954 -5.61479 0
M  V30 2080 H 202.368 1.92063 -6.17835 0
M  V30 2081 N 202.5 1.5196 0.417844 0
M  V30 2082 C 203.916 1.40569 0.755816 0
M  V30 2083 C 204.116 0.503316 1.95113 0
M  V30 2084 O 203.172 -0.0341925 2.52477 0
M  V30 2085 C 204.485 2.82947 1.01791 0
M  V30 2086 C 206.033 2.92231 1.12116 0
M  V30 2087 C 206.508 4.35559 1.41608 0
M  V30 2088 N 207.999 4.38753 1.48491 0
M  V30 2089 C 208.734 5.46705 1.7292 0
M  V30 2090 N 208.23 6.64788 1.95011 0
M  V30 2091 N 210.023 5.34209 1.74863 0
M  V30 2092 H 202.174 2.09168 -0.369098 0
M  V30 2093 H 204.437 0.942409 -0.102809 0
M  V30 2094 H 204.143 3.5106 0.212081 0
M  V30 2095 H 204.017 3.23462 1.94042 0
M  V30 2096 H 206.404 2.24304 1.9176 0
M  V30 2097 H 206.485 2.55185 0.177225 0
M  V30 2098 H 206.129 5.04042 0.624848 0
M  V30 2099 H 206.059 4.70133 2.37239 0
M  V30 2100 H 208.55 3.5363 1.33244 0
M  V30 2101 H 208.863 7.42845 2.13076 0
M  V30 2102 H 207.208 6.67869 1.92293 0
M  V30 2103 H 210.399 4.40937 1.57137 0
M  V30 2104 H 210.572 6.18415 1.93563 0
M  V30 2105 N 203.978 -0.674533 1.42435 0
M  V30 2106 C 205.226 -1.43175 1.42637 0
M  V30 2107 C 205.547 -1.94951 0.0438992 0
M  V30 2108 O 204.817 -1.7308 -0.917607 0
M  V30 2109 H 203.397 -0.531307 0.525092 0
M  V30 2110 H 206.059 -0.797006 1.77859 0
M  V30 2111 H 205.155 -2.28463 2.12629 0
M  V30 2112 N 205.456 -1.28612 -0.910864 0
M  V30 2113 C 206.703 -1.15934 -1.66029 0
M  V30 2114 C 207.031 0.291483 -1.92303 0
M  V30 2115 O 206.286 1.22816 -1.52364 0
M  V30 2116 C 206.585 -1.90624 -3.0232 0
M  V30 2117 C 206.251 -3.40405 -2.95695 0
M  V30 2118 C 204.913 -3.81255 -2.93595 0
M  V30 2119 C 207.265 -4.359 -2.85728 0
M  V30 2120 C 204.593 -5.15936 -2.79334 0
M  V30 2121 C 206.945 -5.70657 -2.73007 0
M  V30 2122 C 205.609 -6.10779 -2.69267 0
M  V30 2123 H 204.879 -0.424234 -0.607541 0
M  V30 2124 H 207.526 -1.5942 -1.06101 0
M  V30 2125 H 205.831 -1.39696 -3.6605 0
M  V30 2126 H 207.528 -1.78228 -3.59215 0
M  V30 2127 H 204.118 -3.07927 -2.98125 0
M  V30 2128 H 208.302 -4.053 -2.86436 0
M  V30 2129 H 203.558 -5.46146 -2.74835 0
M  V30 2130 H 207.732 -6.44311 -2.64264 0
M  V30 2131 H 205.359 -7.1509 -2.57974 0
M  V30 2132 N 206.934 1.1197 -1.10907 0
M  V30 2133 C 208.174 1.85224 -0.864378 0
M  V30 2134 C 208.538 1.82411 0.599178 0
M  V30 2135 O 209.739 2.51057 0.960416 0
M  V30 2136 C 208.01 3.2868 -1.40371 0
M  V30 2137 S 209.569 4.1925 -1.29518 0
M  V30 2138 H 206.387 0.63878 -0.312219 0
M  V30 2139 H 208.989 1.3485 -1.41548 0
M  V30 2140 H 207.693 3.28289 -2.46281 0
M  V30 2141 H 207.224 3.84121 -0.849402 0
M  V30 2142 H 209.239 4.95539 -0.256059 0
M  V30 2143 N 208.412 0.89855 1.29475 0
M  V30 2144 C 209.342 0.39201 2.30186 0
M  V30 2145 C 210.323 -0.532359 1.61555 0
M  V30 2146 O 211.508 -0.443331 1.89072 0
M  V30 2147 C 208.638 -0.382353 3.45189 0
M  V30 2148 C 207.592 0.451483 4.25612 0
M  V30 2149 C 206.918 -0.450307 5.328 0
M  V30 2150 C 208.218 1.70079 4.93832 0
M  V30 2151 H 209.912 1.23362 2.72804 0
M  V30 2152 H 207.458 0.594638 1.31149 0
M  V30 2153 H 209.411 -0.747451 4.14718 0
M  V30 2154 H 208.135 -1.25774 3.01411 0
M  V30 2155 H 206.794 0.798897 3.57789 0
M  V30 2156 H 206.442 -1.32379 4.85268 0
M  V30 2157 H 206.142 0.103902 5.87508 0
M  V30 2158 H 207.666 -0.811623 6.05182 0
M  V30 2159 H 209.08 1.40549 5.55805 0
M  V30 2160 H 207.477 2.19623 5.58467 0
M  V30 2161 H 208.547 2.43744 4.19186 0
M  V30 2162 N 209.89 -1.43072 0.660911 0
M  V30 2163 C 211.301 -1.84932 0.256348 0
M  V30 2164 C 211.652 -1.55325 -1.19868 0
M  V30 2165 O 210.777 -1.00607 -1.91591 0
M  V30 2166 C 211.372 -3.35684 0.458475 0
M  V30 2167 C 209.931 -3.76245 0.108161 0
M  V30 2168 C 209.078 -2.66749 0.757641 0
M  V30 2169 H 212.029 -1.33116 0.864051 0
M  V30 2170 H 212.05 -3.79365 -0.293683 0
M  V30 2171 H 211.562 -3.572 1.51755 0
M  V30 2172 H 209.663 -3.60338 -0.948014 0
M  V30 2173 H 209.776 -4.76058 0.538992 0
M  V30 2174 H 208.14 -2.53989 0.190185 0
M  V30 2175 H 208.923 -2.91092 1.81989 0
M  V30 2176 N 211.368 -0.403325 -1.52352 0
M  V30 2177 C 212.779 0.0675782 -1.86578 0
M  V30 2178 C 213.13 1.44941 -1.32236 0
M  V30 2179 O 212.255 2.06112 -0.659307 0
M  V30 2180 C 212.85 0.129404 -3.38553 0
M  V30 2181 C 211.409 0.544629 -3.72439 0
M  V30 2182 C 210.556 -0.284551 -2.75836 0
M  V30 2183 H 213.507 -0.620631 -1.46061 0
M  V30 2184 H 213.528 0.94581 -3.68558 0
M  V30 2185 H 213.04 -0.87645 -3.78074 0
M  V30 2186 H 211.141 1.55734 -3.38493 0
M  V30 2187 H 211.254 0.293046 -4.78203 0
M  V30 2188 H 209.618 0.252258 -2.53448 0
M  V30 2189 H 210.401 -1.28865 -3.18196 0
M  V30 2190 N 212.846 1.57033 -0.133567 0
M  V30 2191 C 213.796 2.12641 0.822671 0
M  V30 2192 C 214.78 1.05081 1.21847 0
M  V30 2193 O 215.972 1.31287 1.18713 0
M  V30 2194 C 213.101 2.74094 2.06706 0
M  V30 2195 C 212.187 3.88757 1.69497 0
M  V30 2196 N 212.578 4.95194 1.03037 0
M  V30 2197 C 210.876 3.99213 1.98859 0
M  V30 2198 C 211.577 5.75414 0.852873 0
M  V30 2199 N 210.553 5.25726 1.3825 0
M  V30 2200 H 214.355 2.92308 0.305537 0
M  V30 2201 H 211.869 1.62256 0.0684276 0
M  V30 2202 H 213.866 3.12285 2.76195 0
M  V30 2203 H 212.526 1.95896 2.5895 0
M  V30 2204 H 213.537 5.13247 0.692669 0
M  V30 2205 H 210.214 3.32075 2.53047 0
M  V30 2206 H 211.604 6.71089 0.330091 0
M  V30 2207 N 214.325 -0.140222 1.56975 0
M  V30 2208 C 215.565 -0.857823 1.85528 0
M  V30 2209 C 215.929 -1.78039 0.718768 0
M  V30 2210 O 217.13 -2.53795 0.885521 0
M  V30 2211 C 215.401 -1.60615 3.19277 0
M  V30 2212 S 216.96 -2.36824 3.69405 0
M  V30 2213 H 213.778 -0.286727 0.650622 0
M  V30 2214 H 216.38 -0.117408 1.95147 0
M  V30 2215 H 215.084 -0.919994 3.99955 0
M  V30 2216 H 214.615 -2.38735 3.12681 0
M  V30 2217 H 216.63 -3.62148 3.3921 0
M  V30 2218 N 215.803 -1.52179 -0.40978 0
M  V30 2219 C 217.028 -1.70347 -1.18308 0
M  V30 2220 C 217.453 -0.411887 -1.83535 0
M  V30 2221 O 216.811 0.630587 -1.6998 0
M  V30 2222 C 216.859 -2.83977 -2.22238 0
M  V30 2223 O 215.963 -2.495 -3.28365 0
M  V30 2224 H 215.304 -0.567103 -0.345384 0
M  V30 2225 H 217.834 -1.98879 -0.480445 0
M  V30 2226 H 217.844 -3.0887 -2.66577 0
M  V30 2227 H 216.519 -3.77685 -1.74146 0
M  V30 2228 H 215.096 -2.35277 -2.89308 0
M  V30 2229 N 217.281 0.66697 -1.42791 0
M  V30 2230 C 218.697 0.981027 -1.25889 0
M  V30 2231 C 218.897 2.00793 -0.168695 0
M  V30 2232 O 217.953 2.48321 0.45747 0
M  V30 2233 C 219.266 1.47838 -2.61848 0
M  V30 2234 C 220.814 1.59575 -2.69267 0
M  V30 2235 C 221.289 2.12704 -4.05612 0
M  V30 2236 N 222.78 2.20026 -4.07606 0
M  V30 2237 C 223.515 2.62227 -5.09926 0
M  V30 2238 N 223.011 3.03824 -6.22626 0
M  V30 2239 N 224.804 2.62045 -4.97281 0
M  V30 2240 H 216.955 -0.0127891 -2.12396 0
M  V30 2241 H 219.218 0.0568258 -0.946295 0
M  V30 2242 H 218.924 0.798299 -3.4252 0
M  V30 2243 H 218.798 2.45579 -2.86305 0
M  V30 2244 H 221.185 2.26687 -1.88936 0
M  V30 2245 H 221.266 0.60302 -2.48591 0
M  V30 2246 H 220.91 1.46198 -4.86404 0
M  V30 2247 H 220.84 3.12782 -4.23645 0
M  V30 2248 H 223.331 1.90708 -3.2625 0
M  V30 2249 H 223.644 3.34734 -6.96544 0
M  V30 2250 H 221.989 3.01662 -6.26119 0
M  V30 2251 H 225.18 2.28916 -4.08308 0
M  V30 2252 H 225.353 2.94613 -5.77154 0
M  V30 2253 N 218.759 1.29093 0.90403 0
M  V30 2254 C 220.007 1.16583 1.65085 0
M  V30 2255 C 220.328 -0.283933 1.92922 0
M  V30 2256 O 219.598 -1.19509 1.55224 0
M  V30 2257 H 218.178 0.428467 0.611903 0
M  V30 2258 H 220.84 1.61959 1.08422 0
M  V30 2259 H 219.936 1.71266 2.6091 0
M  V30 2260 N 220.237 -1.11381 1.11499 0
M  V30 2261 C 221.147 -2.21019 0.786628 0
M  V30 2262 C 222.163 -1.72597 -0.220507 0
M  V30 2263 O 223.339 -2.01321 -0.0565251 0
M  V30 2264 C 220.404 -3.459 0.235333 0
M  V30 2265 C 219.465 -4.09107 1.30115 0
M  V30 2266 C 218.698 -5.28027 0.776068 0
M  V30 2267 O 218.921 -5.6904 -0.393661 0
M  V30 2268 O 217.855 -5.81835 1.54114 0
M  V30 2269 H 221.681 -2.51521 1.70209 0
M  V30 2270 H 219.266 -1.19928 0.890928 0
M  V30 2271 H 221.148 -4.21346 -0.067715 0
M  V30 2272 H 219.823 -3.17049 -0.652828 0
M  V30 2273 H 218.73 -3.35391 1.65722 0
M  V30 2274 H 220.063 -4.42139 2.16273 0
M  V30 2275 N 221.715 -0.905404 -1.28997 0
M  V30 2276 C 223.131 -0.60233 -1.47798 0
M  V30 2277 C 223.331 0.854645 -1.82478 0
M  V30 2278 O 222.387 1.63439 -1.92468 0
M  V30 2279 C 223.7 -1.53306 -2.58685 0
M  V30 2280 C 225.248 -1.53887 -2.72558 0
M  V30 2281 C 225.723 -2.45602 -3.86579 0
M  V30 2282 N 227.214 -2.43681 -3.93921 0
M  V30 2283 C 227.949 -3.11347 -4.81509 0
M  V30 2284 N 227.445 -3.88313 -5.73746 0
M  V30 2285 N 229.238 -3.00476 -4.75048 0
M  V30 2286 H 221.389 -1.84765 -1.04764 0
M  V30 2287 H 223.652 -0.792025 -0.520961 0
M  V30 2288 H 223.358 -2.57141 -2.39941 0
M  V30 2289 H 223.232 -1.25787 -3.55609 0
M  V30 2290 H 225.619 -0.507941 -2.90696 0
M  V30 2291 H 225.7 -1.85447 -1.76191 0
M  V30 2292 H 225.344 -3.48792 -3.69197 0
M  V30 2293 H 225.274 -2.11349 -4.82327 0
M  V30 2294 H 227.765 -1.87767 -3.27951 0
M  V30 2295 H 228.078 -4.36985 -6.37389 0
M  V30 2296 H 226.423 -3.92419 -5.73614 0
M  V30 2297 H 229.614 -2.39858 -4.01977 0
M  V30 2298 H 229.787 -3.53485 -5.43095 0
M  V30 2299 N 223.193 1.4272 -0.668489 0
M  V30 2300 C 224.609 1.55992 -0.33745 0
M  V30 2301 C 224.809 1.64933 1.15756 0
M  V30 2302 O 223.865 1.61278 1.94282 0
M  V30 2303 C 225.178 2.81314 -1.06222 0
M  V30 2304 C 226.726 2.95078 -1.04394 0
M  V30 2305 C 227.201 4.23252 -1.74991 0
M  V30 2306 N 228.692 4.3015 -1.71829 0
M  V30 2307 C 229.427 5.28127 -2.23315 0
M  V30 2308 N 228.923 6.32293 -2.83156 0
M  V30 2309 N 230.716 5.19882 -2.13726 0
M  V30 2310 H 222.867 1.3516 -1.63846 0
M  V30 2311 H 225.13 0.650174 -0.689912 0
M  V30 2312 H 224.836 2.80823 -2.11734 0
M  V30 2313 H 224.71 3.72012 -0.62344 0
M  V30 2314 H 227.097 2.951 0.0028244 0
M  V30 2315 H 227.178 2.05627 -1.52155 0
M  V30 2316 H 226.822 4.2399 -2.79633 0
M  V30 2317 H 226.752 5.11626 -1.24685 0
M  V30 2318 H 229.243 3.55499 -1.28175 0
M  V30 2319 H 229.556 7.03398 -3.20079 0
M  V30 2320 H 227.901 6.32873 -2.87223 0
M  V30 2321 H 231.092 4.37423 -1.66669 0
M  V30 2322 H 231.265 5.96077 -2.54158 0
M  V30 2323 N 224.671 0.411399 1.52136 0
M  V30 2324 C 225.634 -0.401089 2.25663 0
M  V30 2325 C 226.634 -0.971732 1.28117 0
M  V30 2326 O 227.824 -0.850254 1.52041 0
M  V30 2327 C 224.956 -1.56483 3.02863 0
M  V30 2328 H 226.149 0.24295 2.98914 0
M  V30 2329 H 223.702 0.163968 1.55438 0
M  V30 2330 H 224.437 -2.24567 2.33967 0
M  V30 2331 H 224.222 -1.16211 3.74483 0
M  V30 2332 H 225.712 -2.13951 3.58629 0
M  V30 2333 N 226.149 -1.5696 0.141893 0
M  V30 2334 C 227.398 -1.95135 -0.510427 0
M  V30 2335 C 227.711 -1.02896 -1.66348 0
M  V30 2336 O 228.917 -1.30629 -2.38009 0
M  V30 2337 C 227.373 -3.46876 -0.959427 0
M  V30 2338 C 226.981 -4.47691 0.166419 0
M  V30 2339 C 228.725 -3.93927 -1.58183 0
M  V30 2340 C 226.632 -5.90636 -0.300565 0
M  V30 2341 H 225.562 -0.728494 -0.194454 0
M  V30 2342 H 228.213 -1.8211 0.22542 0
M  V30 2343 H 226.595 -3.55215 -1.75038 0
M  V30 2344 H 227.769 -4.51043 0.94325 0
M  V30 2345 H 226.084 -4.10527 0.696905 0
M  V30 2346 H 228.681 -4.98158 -1.94275 0
M  V30 2347 H 229.024 -3.3519 -2.46888 0
M  V30 2348 H 229.557 -3.88484 -0.855863 0
M  V30 2349 H 226.296 -6.5318 0.550989 0
M  V30 2350 H 225.816 -5.90655 -1.04338 0
M  V30 2351 H 227.495 -6.42588 -0.754265 0
M  V30 2352 N 227.627 0.131896 -1.57047 0
M  V30 2353 C 228.537 1.1815 -2.02676 0
M  V30 2354 C 229.553 1.46113 -0.944824 0
M  V30 2355 O 230.729 1.57485 -1.25541 0
M  V30 2356 C 227.794 2.49139 -2.41103 0
M  V30 2357 C 226.855 2.28688 -3.63318 0
M  V30 2358 C 226.088 3.53431 -3.99903 0
M  V30 2359 O 226.311 4.60223 -3.36973 0
M  V30 2360 O 225.245 3.45198 -4.93074 0
M  V30 2361 H 229.071 0.824069 -2.92306 0
M  V30 2362 H 226.656 0.341745 -1.45439 0
M  V30 2363 H 228.538 3.26338 -2.66611 0
M  V30 2364 H 227.213 2.84382 -1.54624 0
M  V30 2365 H 226.12 1.4939 -3.42977 0
M  V30 2366 H 227.453 1.98355 -4.50462 0
M  V30 2367 N 229.106 1.52395 0.401703 0
M  V30 2368 C 230.053 1.76268 1.48991 0
M  V30 2369 C 231.023 0.605386 1.54675 0
M  V30 2370 O 232.208 0.843742 1.7113 0
M  V30 2371 C 229.348 1.92592 2.86361 0
M  V30 2372 C 228.461 3.20259 2.89928 0
M  V30 2373 C 227.596 3.26972 4.18644 0
M  V30 2374 C 226.635 4.48812 4.16214 0
M  V30 2375 N 225.772 4.52877 5.36514 0
M  V30 2376 H 230.612 2.6914 1.27935 0
M  V30 2377 H 228.149 1.33355 0.620871 0
M  V30 2378 H 230.107 2.0004 3.66115 0
M  V30 2379 H 228.737 1.03093 3.05895 0
M  V30 2380 H 227.789 3.21945 2.02621 0
M  V30 2381 H 229.101 4.10056 2.83999 0
M  V30 2382 H 228.255 3.33533 5.06794 0
M  V30 2383 H 226.994 2.35126 4.27278 0
M  V30 2384 H 225.999 4.4239 3.26453 0
M  V30 2385 H 227.224 5.41961 4.09213 0
M  V30 2386 H 225.17 3.63917 5.45802 0
M  V30 2387 H 225.087 5.36529 5.32609 0
M  V30 2388 H 226.355 4.63676 6.26597 0
M  V30 2389 N 230.584 -0.659388 1.43143 0
M  V30 2390 C 231.514 -1.78422 1.50625 0
M  V30 2391 C 232.495 -1.66216 0.361443 0
M  V30 2392 O 233.68 -1.85404 0.577834 0
M  V30 2393 C 230.81 -3.16815 1.42287 0
M  V30 2394 C 229.764 -3.43777 2.54954 0
M  V30 2395 C 229.09 -4.81905 2.31671 0
M  V30 2396 C 230.39 -3.39134 3.97222 0
M  V30 2397 H 232.084 -1.72417 2.44771 0
M  V30 2398 H 229.63 -0.828084 1.17808 0
M  V30 2399 H 231.583 -3.95253 1.46127 0
M  V30 2400 H 230.307 -3.23534 0.446435 0
M  V30 2401 H 228.966 -2.67707 2.50457 0
M  V30 2402 H 228.614 -4.85294 1.32284 0
M  V30 2403 H 228.314 -5.00906 3.07192 0
M  V30 2404 H 229.838 -5.62609 2.37284 0
M  V30 2405 H 231.252 -4.07518 4.03239 0
M  V30 2406 H 229.649 -3.69671 4.72719 0
M  V30 2407 H 230.719 -2.37426 4.22797 0
M  V30 2408 N 232.062 -1.29571 -0.897171 0
M  V30 2409 C 233.025 -1.14913 -1.98312 0
M  V30 2410 C 234.025 -0.0838629 -1.60581 0
M  V30 2411 O 235.215 -0.331006 -1.71026 0
M  V30 2412 C 232.347 -0.757835 -3.3237 0
M  V30 2413 H 233.54 -2.11377 -2.12743 0
M  V30 2414 H 231.093 -1.12793 -1.08201 0
M  V30 2415 H 231.828 0.206837 -3.2364 0
M  V30 2416 H 231.613 -1.52755 -3.61121 0
M  V30 2417 H 233.103 -0.678408 -4.12053 0
M  V30 2418 N 233.54 1.10788 -1.12088 0
M  V30 2419 C 234.786 1.82942 -0.875226 0
M  V30 2420 C 235.119 1.84779 0.597538 0
M  V30 2421 O 234.394 1.30578 1.44152 0
M  V30 2422 C 234.677 3.29789 -1.44606 0
M  V30 2423 C 234.53 3.36307 -2.98693 0
M  V30 2424 C 235.849 4.26064 -1.10261 0
M  V30 2425 H 232.968 0.664195 -0.319397 0
M  V30 2426 H 235.61 1.29867 -1.38689 0
M  V30 2427 H 233.76 3.75118 -1.01089 0
M  V30 2428 H 235.432 2.99487 -3.50864 0
M  V30 2429 H 233.675 2.76318 -3.34411 0
M  V30 2430 H 234.346 4.39694 -3.33726 0
M  V30 2431 H 236.822 3.88951 -1.4784 0
M  V30 2432 H 235.698 5.27183 -1.52869 0
M  V30 2433 H 235.959 4.42098 -0.0142953 0
M  V30 2434 N 235.018 0.912232 1.28515 0
M  V30 2435 C 235.928 0.404506 2.31086 0
M  V30 2436 C 236.944 -0.50707 1.66448 0
M  V30 2437 O 238.12 -0.393624 1.97516 0
M  V30 2438 C 235.185 -0.348572 3.44943 0
M  V30 2439 C 234.246 0.59604 4.25142 0
M  V30 2440 C 233.479 -0.121194 5.33562 0
M  V30 2441 O 233.702 -1.34317 5.5436 0
M  V30 2442 O 232.636 0.542716 5.99448 0
M  V30 2443 H 236.462 1.25579 2.76521 0
M  V30 2444 H 234.047 0.676998 1.33181 0
M  V30 2445 H 235.929 -0.77395 4.14232 0
M  V30 2446 H 234.604 -1.17571 3.01594 0
M  V30 2447 H 233.511 1.07079 3.58448 0
M  V30 2448 H 234.844 1.38995 4.72167 0
M  V30 2449 N 236.496 -1.42363 0.676048 0
M  V30 2450 C 237.459 -2.29199 0.00766941 0
M  V30 2451 C 238.459 -1.43389 -0.727745 0
M  V30 2452 O 239.649 -1.64764 -0.56556 0
M  V30 2453 C 236.781 -3.2591 -0.999785 0
M  V30 2454 H 237.974 -2.89794 0.771988 0
M  V30 2455 H 235.527 -1.50024 0.438468 0
M  V30 2456 H 236.262 -2.70256 -1.79255 0
M  V30 2457 H 236.047 -3.89202 -0.475829 0
M  V30 2458 H 237.537 -3.91028 -1.46583 0
M  V30 2459 N 237.974 -0.419461 -1.51915 0
M  V30 2460 C 238.904 0.391813 -2.30189 0
M  V30 2461 C 239.885 1.03699 -1.34836 0
M  V30 2462 O 241.07 1.04403 -1.63748 0
M  V30 2463 C 238.2 1.50312 -3.13087 0
M  V30 2464 C 237.154 0.9824 -4.16573 0
M  V30 2465 C 236.48 2.18809 -4.8788 0
M  V30 2466 C 237.78 0.0292356 -5.22292 0
M  V30 2467 H 239.474 -0.26135 -2.98257 0
M  V30 2468 H 237.02 -0.127134 -1.43438 0
M  V30 2469 H 238.973 2.07773 -3.66617 0
M  V30 2470 H 237.697 2.18431 -2.42807 0
M  V30 2471 H 236.356 0.430119 -3.64068 0
M  V30 2472 H 236.004 2.85507 -4.14119 0
M  V30 2473 H 235.704 1.84615 -5.57845 0
M  V30 2474 H 237.228 2.76858 -5.44226 0
M  V30 2475 H 238.642 0.512976 -5.71 0
M  V30 2476 H 237.039 -0.2244 -5.9968 0
M  V30 2477 H 238.109 -0.912931 -4.76228 0
M  V30 2478 N 239.452 1.56882 -0.150215 0
M  V30 2479 C 240.677 2.01027 0.510184 0
M  V30 2480 C 241.102 1.02966 1.57415 0
M  V30 2481 O 240.46 0.00590158 1.81299 0
M  V30 2482 C 240.508 3.43899 1.08472 0
M  V30 2483 O 239.612 3.4885 2.19948 0
M  V30 2484 H 238.953 0.652233 0.124451 0
M  V30 2485 H 241.483 2.03093 -0.247894 0
M  V30 2486 H 241.493 3.82766 1.41259 0
M  V30 2487 H 240.168 4.14776 0.305582 0
M  V30 2488 H 238.745 3.21827 1.88366 0
M  V30 2489 N 240.93 -0.123565 1.57115 0
M  V30 2490 C 242.155 -0.850398 1.89164 0
M  V30 2491 C 242.58 -1.7286 0.741688 0
M  V30 2492 O 241.938 -1.78665 -0.307958 0
M  V30 2493 C 241.986 -1.66353 3.19936 0
M  V30 2494 O 241.09 -2.77004 3.0552 0
M  V30 2495 H 240.431 -0.235454 0.620852 0
M  V30 2496 H 242.961 -0.107335 2.04318 0
M  V30 2497 H 242.971 -2.05372 3.52543 0
M  V30 2498 H 241.646 -1.01881 4.03228 0
M  V30 2499 H 240.223 -2.41221 2.84371 0
M  V30 2500 N 242.408 -1.52605 -0.393616 0
M  V30 2501 C 243.338 -1.80022 -1.48709 0
M  V30 2502 C 244.319 -0.651995 -1.57108 0
M  V30 2503 O 245.504 -0.89913 -1.72132 0
M  V30 2504 C 242.634 -1.96492 -2.86371 0
M  V30 2505 C 241.588 -3.12161 -2.92813 0
M  V30 2506 C 240.914 -3.13877 -4.3288 0
M  V30 2507 C 242.214 -4.51322 -2.6288 0
M  V30 2508 H 243.908 -2.71589 -1.26015 0
M  V30 2509 H 241.454 -1.30684 -0.604778 0
M  V30 2510 H 243.407 -2.14255 -3.62867 0
M  V30 2511 H 242.131 -1.01611 -3.10391 0
M  V30 2512 H 240.79 -2.94173 -2.18764 0
M  V30 2513 H 240.438 -2.16687 -4.53933 0
M  V30 2514 H 240.138 -3.91576 -4.38112 0
M  V30 2515 H 241.662 -3.33789 -5.1129 0
M  V30 2516 H 243.076 -4.69435 -3.29096 0
M  V30 2517 H 241.473 -5.31053 -2.79468 0
M  V30 2518 H 242.543 -4.58353 -1.58242 0
M  V30 2519 N 243.887 0.651787 -1.4349 0
M  V30 2520 C 245.164 1.40909 -1.35661 0
M  V30 2521 C 245.544 2.11099 -0.00511733 0
M  V30 2522 O 244.892 2.04892 1.0115 0
M  V30 2523 C 245.102 2.3926 -2.54078 0
M  V30 2524 C 246.45 3.03217 -2.97228 0
M  V30 2525 O 247.474 2.49588 -2.54135 0
M  V30 2526 O 246.333 4.00455 -3.71885 0
M  V30 2527 H 243.427 0.629625 -0.536191 0
M  V30 2528 H 245.973 0.678575 -1.55542 0
M  V30 2529 H 244.745 1.86352 -3.44076 0
M  V30 2530 H 244.368 3.1976 -2.36303 0
M  V30 2531 N 245.365 1.30045 0.890287 0
M  V30 2532 C 246.613 1.18327 1.63839 0
M  V30 2533 C 246.934 -0.263455 1.93212 0
M  V30 2534 O 246.204 -1.17856 1.56482 0
M  V30 2535 H 244.784 0.434933 0.607324 0
M  V30 2536 H 247.446 1.631 1.06698 0
M  V30 2537 H 246.542 1.74024 2.59079 0
M  V30 2538 N 246.843 -1.10192 1.12674 0
M  V30 2539 C 248.12 -1.78717 0.794965 0
M  V30 2540 C 248.5 -1.98628 -0.714853 0
M  V30 2541 O 247.848 -1.58135 -1.64941 0
M  V30 2542 C 248.058 -3.11546 1.5729 0
M  V30 2543 C 249.406 -3.86382 1.76052 0
M  V30 2544 O 250.43 -3.21274 1.53823 0
M  V30 2545 O 249.289 -5.03246 2.13087 0
M  V30 2546 H 246.383 -0.774702 0.289423 0
M  V30 2547 H 248.929 -1.16819 1.23091 0
M  V30 2548 H 247.701 -2.92489 2.59935 0
M  V30 2549 H 247.324 -3.81164 1.13137 0
M  V30 2550 N 248.321 -0.919034 -1.28029 0
M  V30 2551 C 249.251 -0.428581 -2.29533 0
M  V30 2552 C 250.232 0.50659 -1.62381 0
M  V30 2553 O 251.417 0.413195 -1.89753 0
M  V30 2554 C 248.547 0.327388 -3.45753 0
M  V30 2555 C 247.501 -0.519137 -4.2484 0
M  V30 2556 C 246.827 0.365486 -5.33449 0
M  V30 2557 C 248.127 -1.77914 -4.91064 0
M  V30 2558 H 249.821 -1.27687 -2.70807 0
M  V30 2559 H 247.367 -0.615428 -1.30186 0
M  V30 2560 H 249.32 0.681378 -4.15855 0
M  V30 2561 H 248.044 1.20963 -3.03374 0
M  V30 2562 H 246.703 -0.855717 -3.56473 0
M  V30 2563 H 246.351 1.24642 -4.87312 0
M  V30 2564 H 246.051 -0.197356 -5.87268 0
M  V30 2565 H 247.575 0.715241 -6.06396 0
M  V30 2566 H 248.989 -1.49374 -5.53498 0
M  V30 2567 H 247.386 -2.2848 -5.54903 0
M  V30 2568 H 248.456 -2.50382 -4.15255 0
M  V30 2569 N 249.799 1.42003 -0.683588 0
M  V30 2570 C 250.762 2.29191 -0.0198243 0
M  V30 2571 C 251.762 1.43773 0.72013 0
M  V30 2572 O 252.952 1.65061 0.556815 0
M  V30 2573 C 250.084 3.26435 0.982487 0
M  V30 2574 H 251.277 2.8938 -0.787345 0
M  V30 2575 H 248.83 1.49789 -0.446418 0
M  V30 2576 H 249.565 2.71203 1.77819 0
M  V30 2577 H 249.35 3.89449 0.455182 0
M  V30 2578 H 250.84 3.918 1.44508 0
M  V30 2579 N 251.277 0.427512 1.51691 0
M  V30 2580 C 252.525 -0.141948 2.01601 0
M  V30 2581 C 252.846 -1.44067 1.31414 0
M  V30 2582 O 252.116 -1.90763 0.445658 0
M  V30 2583 H 250.696 -0.0554468 0.744939 0
M  V30 2584 H 253.358 0.567968 1.86441 0
M  V30 2585 H 252.454 -0.324913 3.10404 0
M  V30 2586 N 252.755 -1.56801 0.158532 0
M  V30 2587 C 254.171 -1.5837 -0.197774 0
M  V30 2588 C 254.371 -1.17334 -1.63814 0
M  V30 2589 O 253.427 -0.878988 -2.36707 0
M  V30 2590 C 254.74 -3.00615 0.0714459 0
M  V30 2591 C 256.288 -3.12999 0.00864533 0
M  V30 2592 C 256.763 -4.57313 0.250685 0
M  V30 2593 N 258.254 -4.62777 0.198014 0
M  V30 2594 C 258.989 -5.72271 0.359642 0
M  V30 2595 N 258.485 -6.90371 0.579625 0
M  V30 2596 N 260.278 -5.61318 0.296438 0
M  V30 2597 H 252.429 -1.81765 1.09887 0
M  V30 2598 H 254.692 -0.841849 0.435884 0
M  V30 2599 H 254.398 -3.35068 1.06874 0
M  V30 2600 H 254.272 -3.71683 -0.642757 0
M  V30 2601 H 256.659 -2.7838 -0.979217 0
M  V30 2602 H 256.74 -2.44393 0.755359 0
M  V30 2603 H 256.384 -4.92639 1.2357 0
M  V30 2604 H 256.314 -5.24061 -0.516489 0
M  V30 2605 H 258.805 -3.77885 0.0331115 0
M  V30 2606 H 259.118 -7.69689 0.69275 0
M  V30 2607 H 257.463 -6.92264 0.616087 0
M  V30 2608 H 260.654 -4.67932 0.125258 0
M  V30 2609 H 260.827 -6.46599 0.425831 0
M  V30 2610 N 254.233 0.115231 -1.57178 0
M  V30 2611 C 255.463 0.835224 -1.88964 0
M  V30 2612 C 255.871 1.73774 -0.74829 0
M  V30 2613 O 255.214 1.81401 0.289739 0
M  V30 2614 C 255.276 1.7178 -3.15804 0
M  V30 2615 C 254.94 0.989198 -4.46166 0
M  V30 2616 C 255.937 0.328263 -5.18863 0
M  V30 2617 C 253.622 0.969256 -4.9286 0
M  V30 2618 C 255.616 -0.342873 -6.36477 0
M  V30 2619 C 253.303 0.294324 -6.10391 0
M  V30 2620 C 254.301 -0.360582 -6.82048 0
M  V30 2621 O 253.989 -1.02474 -7.97342 0
M  V30 2622 H 253.721 0.245197 -0.629964 0
M  V30 2623 H 256.275 0.10303 -2.05141 0
M  V30 2624 H 254.505 2.49173 -2.95719 0
M  V30 2625 H 256.194 2.31255 -3.33581 0
M  V30 2626 H 256.96 0.335263 -4.8384 0
M  V30 2627 H 252.839 1.46844 -4.36987 0
M  V30 2628 H 256.383 -0.854629 -6.92345 0
M  V30 2629 H 252.28 0.285099 -6.4487 0
M  V30 2630 H 253.048 -0.929594 -8.13204 0
M  V30 2631 N 255.711 1.52812 0.385517 0
M  V30 2632 C 256.941 1.71658 1.14966 0
M  V30 2633 C 257.349 0.436253 1.84102 0
M  V30 2634 O 256.692 -0.599313 1.73649 0
M  V30 2635 C 256.754 2.81309 2.23843 0
M  V30 2636 C 256.418 4.22313 1.74644 0
M  V30 2637 C 257.415 5.05352 1.22129 0
M  V30 2638 C 255.1 4.68648 1.80761 0
M  V30 2639 C 257.094 6.32807 0.763838 0
M  V30 2640 C 254.781 5.96086 1.34627 0
M  V30 2641 C 255.779 6.77996 0.825264 0
M  V30 2642 O 255.467 8.03045 0.370669 0
M  V30 2643 H 255.199 0.578022 0.350523 0
M  V30 2644 H 257.753 2.00263 0.456509 0
M  V30 2645 H 255.983 2.48133 2.96592 0
M  V30 2646 H 257.672 2.88524 2.85497 0
M  V30 2647 H 258.438 4.70736 1.16758 0
M  V30 2648 H 254.317 4.04979 2.20256 0
M  V30 2649 H 257.861 6.96689 0.356494 0
M  V30 2650 H 253.758 6.30205 1.39686 0
M  V30 2651 H 254.526 8.17021 0.491829 0
M  V30 2652 N 257.189 -0.644168 1.43834 0
M  V30 2653 C 258.152 -1.73857 1.49353 0
M  V30 2654 C 259.152 -1.56315 0.377112 0
M  V30 2655 O 260.342 -1.62048 0.639226 0
M  V30 2656 C 257.474 -3.12819 1.35488 0
M  V30 2657 H 258.667 -1.70342 2.46827 0
M  V30 2658 H 256.22 -0.856652 1.30733 0
M  V30 2659 H 256.955 -3.2194 0.390569 0
M  V30 2660 H 256.74 -3.26958 2.16428 0
M  V30 2661 H 258.23 -3.92606 1.42302 0
M  V30 2662 N 258.668 -1.30515 -0.883378 0
M  V30 2663 C 259.598 -1.19607 -2.00541 0
M  V30 2664 C 260.579 -0.086346 -1.69881 0
M  V30 2665 O 261.764 -0.268654 -1.92333 0
M  V30 2666 C 258.894 -0.888758 -3.35736 0
M  V30 2667 C 257.848 -1.95659 -3.8066 0
M  V30 2668 C 257.174 -1.50224 -5.13164 0
M  V30 2669 C 258.474 -3.36788 -3.99213 0
M  V30 2670 H 260.168 -2.13476 -2.09925 0
M  V30 2671 H 257.714 -1.02775 -1.00863 0
M  V30 2672 H 259.667 -0.799094 -4.13754 0
M  V30 2673 H 258.391 0.0856125 -3.26488 0
M  V30 2674 H 257.05 -2.03591 -3.04871 0
M  V30 2675 H 256.698 -0.516092 -5.00345 0
M  V30 2676 H 256.398 -2.2165 -5.44192 0
M  V30 2677 H 257.922 -1.42639 -5.93706 0
M  V30 2678 H 259.336 -3.31605 -4.67665 0
M  V30 2679 H 257.733 -4.06314 -4.41621 0
M  V30 2680 H 258.803 -3.78561 -3.03017 0
M  V30 2681 N 260.146 1.09593 -1.13257 0
M  V30 2682 C 261.093 2.1618 -0.808381 0
M  V30 2683 C 262.063 1.64517 0.228754 0
M  V30 2684 O 263.248 1.9053 0.101381 0
M  V30 2685 C 260.388 3.43973 -0.278675 0
M  V30 2686 C 259.501 4.09545 -1.37466 0
M  V30 2687 C 258.636 5.25088 -0.803479 0
M  V30 2688 C 257.675 5.82579 -1.87799 0
M  V30 2689 N 256.812 6.89486 -1.32488 0
M  V30 2690 H 261.652 2.43254 -1.72138 0
M  V30 2691 H 259.189 1.19392 -0.859294 0
M  V30 2692 H 261.147 4.17174 0.0465583 0
M  V30 2693 H 259.777 3.17223 0.597459 0
M  V30 2694 H 258.829 3.34226 -1.81652 0
M  V30 2695 H 260.141 4.48307 -2.18684 0
M  V30 2696 H 259.295 6.05178 -0.429427 0
M  V30 2697 H 258.034 4.87684 0.0397956 0
M  V30 2698 H 257.039 5.01152 -2.26113 0
M  V30 2699 H 258.264 6.22045 -2.72463 0
M  V30 2700 H 256.21 6.54064 -0.503575 0
M  V30 2701 H 256.127 7.27007 -2.07355 0
M  V30 2702 H 257.395 7.73336 -0.978336 0
M  V30 2703 N 261.624 0.925811 1.2754 0
M  V30 2704 C 262.849 0.580924 1.99098 0
M  V30 2705 C 263.274 -0.833555 1.68622 0
M  V30 2706 O 262.632 -1.55903 0.925422 0
M  V30 2707 C 262.68 0.811186 3.51358 0
M  V30 2708 O 261.784 -0.124129 4.12213 0
M  V30 2709 H 261.125 0.223873 0.625122 0
M  V30 2710 H 263.655 1.24455 1.62395 0
M  V30 2711 H 263.665 0.72601 4.01489 0
M  V30 2712 H 262.34 1.84227 3.72872 0
M  V30 2713 H 260.917 0.0108006 3.72898 0
M  V30 2714 N 263.102 -1.41638 0.69111 0
M  V30 2715 C 264.035 -2.28183 -0.0274913 0
M  V30 2716 C 265.013 -1.41984 -0.792424 0
M  V30 2717 O 266.197 -1.71415 -0.784169 0
M  V30 2718 C 263.324 -3.22135 -1.04628 0
M  V30 2719 C 262.37 -4.24848 -0.375037 0
M  V30 2720 S 263.203 -5.28231 0.879321 0
M  V30 2721 C 264.359 -6.25748 -0.137983 0
M  V30 2722 H 264.592 -2.88782 0.706553 0
M  V30 2723 H 262.125 -1.46709 0.481222 0
M  V30 2724 H 264.083 -3.76797 -1.62894 0
M  V30 2725 H 262.744 -2.6064 -1.75287 0
M  V30 2726 H 261.937 -4.90837 -1.14433 0
M  V30 2727 H 261.539 -3.73758 0.134434 0
M  V30 2728 H 263.831 -6.70188 -0.992659 0
M  V30 2729 H 264.774 -7.06417 0.487867 0
M  V30 2730 H 265.182 -5.62363 -0.490762 0
M  V30 2731 N 264.58 -0.43555 -1.51462 0
M  V30 2732 C 265.808 0.130242 -2.0649 0
M  V30 2733 C 266.223 1.36614 -1.30315 0
M  V30 2734 O 265.58 1.78869 -0.362223 0
M  V30 2735 C 265.631 0.454253 -3.58635 0
M  V30 2736 O 265.352 -0.73259 -4.31931 0
M  V30 2737 C 266.853 1.07091 -4.3017 0
M  V30 2738 H 264.073 0.00871669 -0.670943 0
M  V30 2739 H 266.617 -0.614117 -1.95061 0
M  V30 2740 H 264.772 1.14851 -3.69984 0
M  V30 2741 H 265.186 -0.455787 -5.22516 0
M  V30 2742 H 266.66 1.24764 -5.37716 0
M  V30 2743 H 267.137 2.05144 -3.88346 0
M  V30 2744 H 267.743 0.416089 -4.2326 0
M  V30 2745 N 266.058 1.56714 -0.166846 0
M  V30 2746 C 266.968 2.21331 0.777791 0
M  V30 2747 C 267.984 1.20358 1.25658 0
M  V30 2748 O 269.16 1.53005 1.30964 0
M  V30 2749 C 266.225 2.83787 1.99163 0
M  V30 2750 C 265.286 3.99947 1.56016 0
M  V30 2751 C 264.519 4.59415 2.71613 0
M  V30 2752 O 264.742 4.17769 3.88362 0
M  V30 2753 O 263.676 5.49359 2.45945 0
M  V30 2754 H 267.502 3.02605 0.257636 0
M  V30 2755 H 265.087 1.49275 0.0611393 0
M  V30 2756 H 266.969 3.23405 2.70161 0
M  V30 2757 H 265.644 2.05513 2.50092 0
M  V30 2758 H 264.551 3.65007 0.819809 0
M  V30 2759 H 265.884 4.79801 1.09782 0
M  V30 2760 N 267.536 -0.106894 1.57237 0
M  V30 2761 C 268.499 -1.11466 2.0027 0
M  V30 2762 C 269.499 -1.33623 0.894519 0
M  V30 2763 O 270.689 -1.29935 1.16028 0
M  V30 2764 C 267.821 -2.46646 2.35327 0
M  V30 2765 H 269.014 -0.744516 2.90512 0
M  V30 2766 H 266.567 -0.351576 1.52295 0
M  V30 2767 H 267.302 -2.88558 1.48003 0
M  V30 2768 H 267.087 -2.31915 3.16161 0
M  V30 2769 H 268.577 -3.19151 2.69318 0
M  V30 2770 N 269.014 -1.53014 -0.377408 0
M  V30 2771 C 269.924 -1.81557 -1.48574 0
M  V30 2772 C 270.94 -0.703102 -1.59162 0
M  V30 2773 O 272.116 -0.99192 -1.75279 0
M  V30 2774 C 269.181 -1.9889 -2.83978 0
M  V30 2775 C 268.242 -3.22801 -2.83016 0
M  V30 2776 C 267.475 -3.39298 -4.11962 0
M  V30 2777 O 267.698 -2.60345 -5.0752 0
M  V30 2778 O 266.632 -4.32604 -4.18494 0
M  V30 2779 H 270.458 -2.75695 -1.27382 0
M  V30 2780 H 268.043 -1.38248 -0.566373 0
M  V30 2781 H 269.925 -2.11931 -3.6423 0
M  V30 2782 H 268.6 -1.07942 -3.05172 0
M  V30 2783 H 267.507 -3.15193 -2.01505 0
M  V30 2784 H 268.84 -4.13632 -2.66775 0
M  V30 2785 N 270.492 0.636531 -1.44174 0
M  V30 2786 C 271.424 1.7618 -1.46606 0
M  V30 2787 C 272.437 1.58768 -0.360091 0
M  V30 2788 O 273.626 1.67181 -0.625518 0
M  V30 2789 C 270.726 3.13833 -1.27915 0
M  V30 2790 C 269.899 3.57753 -2.51658 0
M  V30 2791 C 268.958 4.74265 -2.27945 0
M  V30 2792 O 267.984 4.82852 -3.01401 0
M  V30 2793 N 269.186 5.65604 -1.30662 0
M  V30 2794 H 271.951 1.74567 -2.43612 0
M  V30 2795 H 269.512 0.820924 -1.39544 0
M  V30 2796 H 271.504 3.8949 -1.09907 0
M  V30 2797 H 270.074 3.10121 -0.39293 0
M  V30 2798 H 269.294 2.72362 -2.84978 0
M  V30 2799 H 270.582 3.83847 -3.33974 0
M  V30 2800 H 269.98 5.61354 -0.699844 0
M  V30 2801 H 268.537 6.40913 -1.18634 0
M  V30 2802 N 271.97 1.30982 0.876444 0
M  V30 2803 C 272.902 1.13902 1.98894 0
M  V30 2804 C 273.915 0.0798815 1.62604 0
M  V30 2805 O 275.104 0.326743 1.75484 0
M  V30 2806 C 272.204 0.716699 3.31235 0
M  V30 2807 C 271.377 1.85945 3.95908 0
M  V30 2808 C 270.436 1.42426 5.06558 0
M  V30 2809 O 269.462 2.13287 5.27729 0
M  V30 2810 N 270.664 0.308025 5.79682 0
M  V30 2811 H 273.429 2.09724 2.14094 0
M  V30 2812 H 270.99 1.2323 1.05004 0
M  V30 2813 H 272.982 0.408403 4.02634 0
M  V30 2814 H 271.552 -0.149719 3.12241 0
M  V30 2815 H 270.772 2.33541 3.17573 0
M  V30 2816 H 272.06 2.62503 4.35855 0
M  V30 2817 H 271.458 -0.282241 5.64995 0
M  V30 2818 H 270.015 0.0592282 6.51773 0
M  V30 2819 N 273.449 -1.08991 1.13837 0
M  V30 2820 C 274.381 -2.15606 0.777612 0
M  V30 2821 C 275.394 -1.61533 -0.202739 0
M  V30 2822 O 276.583 -1.78491 0.0181055 0
M  V30 2823 C 273.683 -3.3864 0.132623 0
M  V30 2824 C 272.856 -4.22115 1.1462 0
M  V30 2825 C 271.915 -5.23564 0.526074 0
M  V30 2826 O 270.941 -5.56678 1.18735 0
M  V30 2827 N 272.143 -5.76266 -0.699866 0
M  V30 2828 H 274.908 -2.47159 1.69506 0
M  V30 2829 H 272.469 -1.24747 1.03198 0
M  V30 2830 H 274.461 -4.03626 -0.29459 0
M  V30 2831 H 273.031 -3.04938 -0.687849 0
M  V30 2832 H 272.251 -3.53199 1.75055 0
M  V30 2833 H 273.539 -4.74709 1.83109 0
M  V30 2834 H 272.937 -5.51585 -1.25581 0
M  V30 2835 H 271.494 -6.42963 -1.06968 0
M  V30 2836 N 274.927 -0.932562 -1.27047 0
M  V30 2837 C 275.857 -0.452902 -2.29066 0
M  V30 2838 C 276.838 0.489338 -1.62909 0
M  V30 2839 O 278.023 0.393046 -1.90181 0
M  V30 2840 C 275.153 0.290698 -3.46081 0
M  V30 2841 C 274.107 -0.564168 -4.24265 0
M  V30 2842 C 273.433 0.308886 -5.33807 0
M  V30 2843 C 274.733 -1.83112 -4.89149 0
M  V30 2844 H 276.427 -1.30552 -2.69437 0
M  V30 2845 H 273.973 -0.629201 -1.29526 0
M  V30 2846 H 275.926 0.637233 -4.16554 0
M  V30 2847 H 274.65 1.17738 -3.0464 0
M  V30 2848 H 273.309 -0.893477 -3.55545 0
M  V30 2849 H 272.957 1.19467 -4.88607 0
M  V30 2850 H 272.657 -0.259633 -5.87026 0
M  V30 2851 H 274.181 0.650884 -6.07121 0
M  V30 2852 H 275.595 -1.55236 -5.51883 0
M  V30 2853 H 273.992 -2.34353 -5.52448 0
M  V30 2854 H 275.062 -2.54772 -4.12576 0
M  V30 2855 N 276.405 1.4127 -0.698611 0
M  V30 2856 C 277.654 2.00408 -0.227949 0
M  V30 2857 C 277.967 1.55981 1.18023 0
M  V30 2858 O 279.173 2.07699 1.74852 0
M  V30 2859 C 277.629 3.58129 -0.356636 0
M  V30 2860 C 277.237 4.11536 -1.77037 0
M  V30 2861 C 278.981 4.24466 0.0540969 0
M  V30 2862 C 276.888 5.61701 -1.85055 0
M  V30 2863 H 275.818 0.749586 -0.0814657 0
M  V30 2864 H 278.469 1.61713 -0.867249 0
M  V30 2865 H 276.851 3.94442 0.350965 0
M  V30 2866 H 278.025 3.86636 -2.50698 0
M  V30 2867 H 276.34 3.57736 -2.13105 0
M  V30 2868 H 278.937 5.34698 0.0146723 0
M  V30 2869 H 279.28 4.01687 1.09332 0
M  V30 2870 H 279.813 3.93198 -0.603337 0
M  V30 2871 H 276.552 5.89312 -2.8704 0
M  V30 2872 H 276.072 5.88519 -1.15783 0
M  V30 2873 H 277.751 6.26524 -1.61484 0
M  V30 2874 N 277.883 0.443576 1.51229 0
M  V30 2875 C 279.16 -0.181038 1.9476 0
M  V30 2876 C 279.54 -1.59523 1.38259 0
M  V30 2877 O 278.888 -2.2122 0.572198 0
M  V30 2878 C 279.098 -0.152422 3.48667 0
M  V30 2879 C 280.446 -0.354923 4.23114 0
M  V30 2880 O 281.47 -0.230257 3.55455 0
M  V30 2881 O 280.329 -0.603674 5.43156 0
M  V30 2882 H 277.423 -0.1266 0.817252 0
M  V30 2883 H 279.969 0.502004 1.62105 0
M  V30 2884 H 278.741 0.836022 3.82265 0
M  V30 2885 H 278.364 -0.878107 3.87782 0
M  V30 2886 N 279.361 -1.56624 0.175154 0
M  V30 2887 C 280.638 -1.88688 -0.515373 0
M  V30 2888 C 281.018 -1.08564 -1.81044 0
M  V30 2889 O 280.366 -0.180703 -2.27784 0
M  V30 2890 C 280.576 -3.40768 -0.753552 0
M  V30 2891 C 281.924 -4.10587 -1.08184 0
M  V30 2892 O 282.948 -3.46106 -0.841961 0
M  V30 2893 O 281.807 -5.24512 -1.53459 0
M  V30 2894 H 278.901 -0.78301 -0.26613 0
M  V30 2895 H 281.447 -1.68347 0.213877 0
M  V30 2896 H 280.219 -3.90965 0.161829 0
M  V30 2897 H 279.842 -3.66733 -1.53598 0
M  V30 2898 N 280.839 0.0985539 -1.57292 0
M  V30 2899 C 281.789 1.1261 -1.9825 0
M  V30 2900 C 282.773 1.35961 -0.860426 0
M  V30 2901 O 283.965 1.36711 -1.12424 0
M  V30 2902 C 281.094 2.44727 -2.40757 0
M  V30 2903 C 280.18 2.24764 -3.59642 0
M  V30 2904 N 280.571 1.74661 -4.74687 0
M  V30 2905 C 278.869 2.55344 -3.65672 0
M  V30 2906 C 279.57 1.68887 -5.56644 0
M  V30 2907 N 278.546 2.13976 -4.99715 0
M  V30 2908 H 282.348 0.731604 -2.84648 0
M  V30 2909 H 279.862 0.306029 -1.59491 0
M  V30 2910 H 281.859 3.19072 -2.68326 0
M  V30 2911 H 280.519 2.84917 -1.55733 0
M  V30 2912 H 281.53 1.43908 -4.97505 0
M  V30 2913 H 278.207 2.99081 -2.91302 0
M  V30 2914 H 279.597 1.3123 -6.5896 0
M  V30 2915 N 282.317 1.53212 0.369288 0
M  V30 2916 C 283.564 1.69215 1.11232 0
M  V30 2917 C 283.892 0.442048 1.8941 0
M  V30 2918 O 283.147 -0.575944 1.87033 0
M  V30 2919 C 283.446 2.89101 2.10132 0
M  V30 2920 C 283.112 4.25758 1.48463 0
M  V30 2921 C 281.774 4.6292 1.31372 0
M  V30 2922 C 284.126 5.10757 1.03811 0
M  V30 2923 C 281.454 5.82722 0.68207 0
M  V30 2924 C 283.806 6.31201 0.420487 0
M  V30 2925 C 282.47 6.67079 0.237038 0
M  V30 2926 H 281.74 0.619201 0.407027 0
M  V30 2927 H 284.387 1.87391 0.394552 0
M  V30 2928 H 282.692 2.65421 2.88199 0
M  V30 2929 H 284.389 2.98676 2.6757 0
M  V30 2930 H 280.979 3.96494 1.62758 0
M  V30 2931 H 285.163 4.82599 1.1581 0
M  V30 2932 H 280.419 6.09113 0.528316 0
M  V30 2933 H 284.593 6.96368 0.0662874 0
M  V30 2934 H 282.22 7.59774 -0.254477 0
M  V30 2935 N 283.795 -0.628877 1.44509 0
M  V30 2936 C 284.725 -1.75187 1.54376 0
M  V30 2937 C 285.706 -1.65411 0.396618 0
M  V30 2938 O 286.891 -1.84137 0.617031 0
M  V30 2939 C 284.021 -3.13725 1.48976 0
M  V30 2940 C 282.975 -3.38291 2.62189 0
M  V30 2941 C 282.301 -4.76883 2.41841 0
M  V30 2942 C 283.601 -3.30632 4.04326 0
M  V30 2943 H 285.295 -1.67187 2.48373 0
M  V30 2944 H 282.841 -0.802909 1.19538 0
M  V30 2945 H 284.794 -3.92064 1.54478 0
M  V30 2946 H 283.518 -3.22515 0.514961 0
M  V30 2947 H 282.177 -2.62334 2.56079 0
M  V30 2948 H 281.825 -4.82378 1.42548 0
M  V30 2949 H 281.525 -4.94278 3.17747 0
M  V30 2950 H 283.049 -5.57449 2.49165 0
M  V30 2951 H 284.463 -3.98873 4.11793 0
M  V30 2952 H 282.86 -3.59561 4.80454 0
M  V30 2953 H 283.93 -2.28404 4.27738 0
M  V30 2954 N 285.273 -1.31445 -0.869486 0
M  V30 2955 C 286.52 -1.21158 -1.62256 0
M  V30 2956 C 286.848 0.230155 -1.93133 0
M  V30 2957 O 286.103 1.17906 -1.56194 0
M  V30 2958 C 286.402 -2.00145 -2.96102 0
M  V30 2959 C 286.068 -3.4964 -2.84715 0
M  V30 2960 C 284.73 -3.90403 -2.81317 0
M  V30 2961 C 287.082 -4.44769 -2.71716 0
M  V30 2962 C 284.41 -5.24561 -2.62778 0
M  V30 2963 C 286.762 -5.79054 -2.54714 0
M  V30 2964 C 285.426 -6.19037 -2.49699 0
M  V30 2965 H 284.696 -0.443348 -0.593737 0
M  V30 2966 H 287.343 -1.62715 -1.00976 0
M  V30 2967 H 285.648 -1.5127 -3.6142 0
M  V30 2968 H 287.345 -1.89566 -3.53363 0
M  V30 2969 H 283.935 -3.17256 -2.88178 0
M  V30 2970 H 288.119 -4.14208 -2.73397 0
M  V30 2971 H 283.375 -5.54613 -2.57321 0
M  V30 2972 H 287.549 -6.52393 -2.43632 0
M  V30 2973 H 285.176 -7.22935 -2.35093 0
M  V30 2974 N 286.751 1.08385 -1.14413 0
M  V30 2975 C 288.028 1.77429 -0.823297 0
M  V30 2976 C 288.408 1.9974 0.683163 0
M  V30 2977 O 287.756 1.60739 1.62405 0
M  V30 2978 C 287.966 3.09004 -1.62227 0
M  V30 2979 C 289.314 3.83532 -1.82177 0
M  V30 2980 O 290.338 3.18786 -1.58915 0
M  V30 2981 O 289.197 4.99792 -2.21067 0
M  V30 2982 H 286.291 0.769999 -0.301712 0
M  V30 2983 H 288.837 1.14846 -1.24934 0
M  V30 2984 H 287.609 2.88316 -2.64555 0
M  V30 2985 H 287.232 3.79316 -1.19187 0
M  V30 2986 N 288.23 0.939286 1.26551 0
M  V30 2987 C 289.177 0.446088 2.26448 0
M  V30 2988 C 290.147 -0.493234 1.58608 0
M  V30 2989 O 291.332 -0.409857 1.86346 0
M  V30 2990 C 288.472 -0.284375 3.43926 0
M  V30 2991 C 287.585 0.690399 4.26448 0
M  V30 2992 C 286.72 -0.0610712 5.31165 0
M  V30 2993 C 285.759 0.905649 6.05363 0
M  V30 2994 N 284.896 0.186055 7.01853 0
M  V30 2995 H 289.736 1.30291 2.68008 0
M  V30 2996 H 287.273 0.65371 1.31776 0
M  V30 2997 H 289.231 -0.724313 4.10864 0
M  V30 2998 H 287.861 -1.10535 3.03285 0
M  V30 2999 H 286.913 1.24885 3.59316 0
M  V30 3000 H 288.225 1.42873 4.779 0
M  V30 3001 H 287.379 -0.56038 6.04106 0
M  V30 3002 H 286.118 -0.832297 4.80546 0
M  V30 3003 H 285.123 1.4161 5.3125 0
M  V30 3004 H 286.348 1.67685 6.58072 0
M  V30 3005 H 284.294 -0.566714 6.53548 0
M  V30 3006 H 284.211 0.863752 7.51049 0
M  V30 3007 H 285.479 -0.292221 7.78952 0
M  V30 3008 N 289.708 -1.40897 0.706093 0
M  V30 3009 C 291.119 -1.84023 0.315052 0
M  V30 3010 C 291.47 -1.5906 -1.14866 0
M  V30 3011 O 290.595 -1.06651 -1.88293 0
M  V30 3012 C 291.19 -3.34055 0.565038 0
M  V30 3013 C 289.749 -3.7571 0.227806 0
M  V30 3014 C 288.896 -2.64204 0.842122 0
M  V30 3015 H 291.847 -1.303 0.905963 0
M  V30 3016 H 291.868 -3.80107 -0.172843 0
M  V30 3017 H 291.38 -3.52192 1.63042 0
M  V30 3018 H 289.481 -3.63172 -0.832895 0
M  V30 3019 H 289.594 -4.74103 0.690174 0
M  V30 3020 H 287.958 -2.53255 0.270893 0
M  V30 3021 H 288.741 -2.85155 1.91158 0
M  V30 3022 N 291.186 -0.45159 -1.50991 0
M  V30 3023 C 292.432 0.110237 -2.025 0
M  V30 3024 C 292.765 1.41109 -1.33424 0
M  V30 3025 O 292.04 1.89135 -0.453659 0
M  V30 3026 C 292.323 0.314271 -3.58726 0
M  V30 3027 C 292.176 -1.00623 -4.38401 0
M  V30 3028 C 293.495 1.07767 -4.26702 0
M  V30 3029 H 290.614 0.0385897 -0.735989 0
M  V30 3030 H 293.256 -0.593374 -1.80497 0
M  V30 3031 H 291.406 0.913601 -3.77605 0
M  V30 3032 H 293.078 -1.64064 -4.31139 0
M  V30 3033 H 291.321 -1.6075 -4.02917 0
M  V30 3034 H 291.992 -0.817341 -5.45915 0
M  V30 3035 H 294.468 0.56986 -4.12179 0
M  V30 3036 H 293.344 1.18921 -5.35863 0
M  V30 3037 H 293.605 2.10939 -3.88532 0
M  V30 3038 N 292.664 1.56529 -0.183458 0
M  V30 3039 C 293.889 2.02064 0.467428 0
M  V30 3040 C 294.314 1.06282 1.55196 0
M  V30 3041 O 293.672 0.0443565 1.81246 0
M  V30 3042 C 293.72 3.46122 1.01153 0
M  V30 3043 O 292.824 3.53437 2.12499 0
M  V30 3044 H 292.165 0.654726 0.110588 0
M  V30 3045 H 294.695 2.02521 -0.290917 0
M  V30 3046 H 294.705 3.85676 1.33108 0
M  V30 3047 H 293.38 4.15331 0.217533 0
M  V30 3048 H 291.957 3.2575 1.81497 0
M  V30 3049 N 294.142 -0.090211 1.57342 0
M  V30 3050 C 295.553 -0.644173 1.75235 0
M  V30 3051 C 295.904 -1.78865 0.806335 0
M  V30 3052 O 295.029 -2.16395 -0.0140128 0
M  V30 3053 C 295.624 -1.17532 3.1776 0
M  V30 3054 C 294.183 -1.67531 3.37061 0
M  V30 3055 C 293.33 -0.58693 2.71017 0
M  V30 3056 H 296.281 0.135884 1.58117 0
M  V30 3057 H 296.302 -2.04455 3.20902 0
M  V30 3058 H 295.814 -0.342138 3.86589 0
M  V30 3059 H 293.915 -2.53234 2.73319 0
M  V30 3060 H 294.028 -1.76493 4.45406 0
M  V30 3061 H 292.392 -1.02756 2.33052 0
M  V30 3062 H 293.175 0.235758 3.4249 0
M  V30 3063 N 295.62 -1.53406 -0.361157 0
M  V30 3064 C 296.55 -1.83136 -1.44857 0
M  V30 3065 C 297.531 -0.685174 -1.5569 0
M  V30 3066 O 298.716 -0.93544 -1.70186 0
M  V30 3067 C 295.846 -2.02522 -2.82138 0
M  V30 3068 C 294.8 -3.18302 -2.86126 0
M  V30 3069 C 294.126 -3.22989 -4.26125 0
M  V30 3070 C 295.426 -4.56796 -2.53248 0
M  V30 3071 H 297.12 -2.74201 -1.20226 0
M  V30 3072 H 294.666 -1.31938 -0.576922 0
M  V30 3073 H 296.619 -2.21904 -3.58241 0
M  V30 3074 H 295.343 -1.08172 -3.08166 0
M  V30 3075 H 294.002 -2.98747 -2.12475 0
M  V30 3076 H 293.65 -2.26267 -4.49235 0
M  V30 3077 H 293.35 -4.00781 -4.29708 0
M  V30 3078 H 294.874 -3.44559 -5.04094 0
M  V30 3079 H 296.288 -4.7631 -3.19064 0
M  V30 3080 H 294.685 -5.36862 -2.68141 0
M  V30 3081 H 295.755 -4.61606 -1.48484 0
M  V30 3082 N 297.098 0.621204 -1.44841 0
M  V30 3083 C 298.028 1.74366 -1.55303 0
M  V30 3084 C 299.009 1.65199 -0.405385 0
M  V30 3085 O 300.194 1.83807 -0.626787 0
M  V30 3086 C 297.324 3.12931 -1.50637 0
M  V30 3087 C 296.278 3.36896 -2.63979 0
M  V30 3088 C 295.604 4.75594 -2.44366 0
M  V30 3089 C 296.904 3.28483 -4.06074 0
M  V30 3090 H 298.598 1.65867 -2.49256 0
M  V30 3091 H 296.144 0.796558 -1.19962 0
M  V30 3092 H 298.097 3.9124 -1.56555 0
M  V30 3093 H 296.821 3.22237 -0.532057 0
M  V30 3094 H 295.48 2.60972 -2.57467 0
M  V30 3095 H 295.128 4.81616 -1.45105 0
M  V30 3096 H 294.828 4.92586 -3.20364 0
M  V30 3097 H 296.352 5.5612 -2.52117 0
M  V30 3098 H 297.766 3.96684 -4.13902 0
M  V30 3099 H 296.163 3.57008 -4.82354 0
M  V30 3100 H 297.233 2.26133 -4.28943 0
M  V30 3101 N 298.576 1.31904 0.862503 0
M  V30 3102 C 299.506 1.22782 1.98612 0
M  V30 3103 C 300.487 0.113362 1.69722 0
M  V30 3104 O 301.672 0.299218 1.91881 0
M  V30 3105 C 298.802 0.942058 3.34279 0
M  V30 3106 C 297.756 2.0169 3.77499 0
M  V30 3107 C 297.082 1.58369 5.10709 0
M  V30 3108 C 298.382 3.43096 3.93805 0
M  V30 3109 H 300.076 2.16788 2.06502 0
M  V30 3110 H 297.622 1.04366 0.992154 0
M  V30 3111 H 299.575 0.864818 4.1243 0
M  V30 3112 H 298.299 -0.0336603 3.26583 0
M  V30 3113 H 296.958 2.08416 3.01593 0
M  V30 3114 H 296.606 0.595628 4.99461 0
M  V30 3115 H 296.306 2.30279 5.40597 0
M  V30 3116 H 297.83 1.52067 5.91361 0
M  V30 3117 H 299.244 3.39003 4.62331 0
M  V30 3118 H 297.641 4.13288 4.35101 0
M  V30 3119 H 298.711 3.83334 2.96957 0
M  V30 3120 N 300.054 -1.07777 1.14986 0
M  V30 3121 C 301.017 -2.13041 0.845358 0
M  V30 3122 C 302.017 -1.60071 -0.152931 0
M  V30 3123 O 303.207 -1.74033 0.0761879 0
M  V30 3124 C 300.339 -3.39896 0.261383 0
M  V30 3125 H 301.532 -2.41485 1.77834 0
M  V30 3126 H 299.085 -1.23595 0.956757 0
M  V30 3127 H 299.82 -3.17091 -0.68 0
M  V30 3128 H 299.605 -3.79642 0.980514 0
M  V30 3129 H 301.095 -4.17548 0.0657687 0
M  V30 3130 N 301.532 -0.945985 -1.26051 0
M  V30 3131 C 302.757 -0.612525 -1.98149 0
M  V30 3132 C 303.182 0.806623 -1.69927 0
M  V30 3133 O 302.54 1.54411 -0.950108 0
M  V30 3134 C 302.588 -0.866981 -3.50023 0
M  V30 3135 O 301.692 0.0585333 -4.12358 0
M  V30 3136 H 301.033 -0.23379 -0.621481 0
M  V30 3137 H 303.563 -1.27023 -1.60395 0
M  V30 3138 H 303.573 -0.789792 -4.00283 0
M  V30 3139 H 302.248 -1.90135 -3.69894 0
M  V30 3140 H 300.825 -0.0701241 -3.72834 0
M  V30 3141 N 303.011 1.40521 -0.713556 0
M  V30 3142 C 304.259 2.00527 -0.251692 0
M  V30 3143 C 304.58 1.56857 1.15848 0
M  V30 3144 O 303.85 0.807127 1.785 0
M  V30 3145 H 302.43 0.741551 -0.0900646 0
M  V30 3146 H 305.092 1.71887 -0.918733 0
M  V30 3147 H 304.188 3.10813 -0.283192 0
M  V30 3148 N 304.489 0.459591 1.5075 0
M  V30 3149 C 305.422 -0.386257 2.24907 0
M  V30 3150 C 306.4 -1.006 1.27744 0
M  V30 3151 O 307.584 -1.04416 1.56938 0
M  V30 3152 C 304.711 -1.54021 3.01654 0
M  V30 3153 C 303.757 -1.03898 4.13651 0
M  V30 3154 S 304.59 0.0370501 5.35487 0
M  V30 3155 C 305.746 -1.12105 6.15779 0
M  V30 3156 H 305.979 0.243272 2.96303 0
M  V30 3157 H 303.512 0.244339 1.52454 0
M  V30 3158 H 305.47 -2.20163 3.46466 0
M  V30 3159 H 304.131 -2.14121 2.29806 0
M  V30 3160 H 303.324 -1.90254 4.66711 0
M  V30 3161 H 302.926 -0.45545 3.71216 0
M  V30 3162 H 305.218 -2.03501 6.46215 0
M  V30 3163 H 306.161 -0.62995 7.05292 0
M  V30 3164 H 306.569 -1.36967 5.47631 0
M  V30 3165 N 305.967 -1.56429 0.191757 0
M  V30 3166 C 306.93 -2.17707 -0.716688 0
M  V30 3167 C 307.93 -1.13061 -1.14341 0
M  V30 3168 O 309.12 -1.38464 -1.05704 0
M  V30 3169 C 306.252 -2.77644 -1.97804 0
M  V30 3170 H 307.445 -2.99342 -0.1829 0
M  V30 3171 H 304.998 -1.56193 -0.0578566 0
M  V30 3172 H 305.733 -1.99799 -2.55443 0
M  V30 3173 H 305.518 -3.54246 -1.68083 0
M  V30 3174 H 307.008 -3.24708 -2.62592 0
M  V30 3175 N 307.445 0.0818655 -1.57387 0
M  V30 3176 C 308.861 0.436412 -1.53517 0
M  V30 3177 C 309.061 1.79758 -0.910459 0
M  V30 3178 O 308.117 2.47324 -0.508636 0
M  V30 3179 C 309.43 0.386734 -2.98203 0
M  V30 3180 C 310.978 0.467644 -3.09487 0
M  V30 3181 C 311.453 0.447978 -4.55804 0
M  V30 3182 N 312.944 0.508348 -4.60402 0
M  V30 3183 C 313.679 0.515184 -5.71081 0
M  V30 3184 N 313.175 0.477435 -6.91153 0
M  V30 3185 N 314.968 0.560988 -5.59294 0
M  V30 3186 H 307.119 -0.809546 -1.96367 0
M  V30 3187 H 309.382 -0.302733 -0.898363 0
M  V30 3188 H 309.088 -0.546539 -3.47427 0
M  V30 3189 H 308.962 1.20075 -3.57578 0
M  V30 3190 H 311.349 1.39134 -2.60242 0
M  V30 3191 H 311.43 -0.374753 -2.5304 0
M  V30 3192 H 311.074 -0.471826 -5.05704 0
M  V30 3193 H 311.004 1.30777 -5.10103 0
M  V30 3194 H 313.495 0.54218 -3.7399 0
M  V30 3195 H 313.808 0.486299 -7.71268 0
M  V30 3196 H 312.153 0.444278 -6.93579 0
M  V30 3197 H 315.344 0.5881 -4.64391 0
M  V30 3198 H 315.517 0.562846 -6.45551 0
M  V30 3199 N 308.923 1.53595 0.353017 0
M  V30 3200 C 310.2 1.61002 1.11075 0
M  V30 3201 C 310.58 0.425356 2.0677 0
M  V30 3202 O 309.928 -0.583267 2.2093 0
M  V30 3203 C 310.138 2.96631 1.83877 0
M  V30 3204 C 311.486 3.51653 2.37961 0
M  V30 3205 O 312.51 2.98743 1.93987 0
M  V30 3206 O 311.369 4.44177 3.18386 0
M  V30 3207 H 308.463 0.650825 0.510251 0
M  V30 3208 H 311.009 1.6594 0.35527 0
M  V30 3209 H 309.781 3.74293 1.14108 0
M  V30 3210 H 309.404 2.95242 2.66304 0
M  V30 3211 N 310.401 -0.613514 1.45168 0
M  V30 3212 C 311.647 -1.37279 1.50087 0
M  V30 3213 C 312.002 -1.91902 0.138294 0
M  V30 3214 O 311.295 -1.71764 -0.84899 0
M  V30 3215 C 311.489 -2.54347 2.51083 0
M  V30 3216 C 311.318 -2.11186 3.97027 0
M  V30 3217 C 310.088 -1.97636 4.65046 0
M  V30 3218 C 312.286 -1.69016 4.85735 0
M  V30 3219 N 310.268 -1.48224 5.95737 0
M  V30 3220 C 311.639 -1.30976 6.06008 0
M  V30 3221 C 313.694 -1.56555 4.72647 0
M  V30 3222 C 312.397 -0.817197 7.14643 0
M  V30 3223 C 314.423 -1.08702 5.81324 0
M  V30 3224 C 313.785 -0.716233 7.00749 0
M  V30 3225 H 309.884 -0.496478 0.60418 0
M  V30 3226 H 312.468 -0.701988 1.81605 0
M  V30 3227 H 310.639 -3.19031 2.21527 0
M  V30 3228 H 312.371 -3.21208 2.46187 0
M  V30 3229 H 309.126 -2.18638 4.20112 0
M  V30 3230 H 309.55 -1.25767 6.65216 0
M  V30 3231 H 314.192 -1.83849 3.80736 0
M  V30 3232 H 311.91 -0.531797 8.06348 0
M  V30 3233 H 315.496 -0.994943 5.7323 0
M  V30 3234 H 314.376 -0.351642 7.83411 0
M  V30 3235 N 311.879 -1.3236 -0.855495 0
M  V30 3236 C 313.29 -1.2056 -1.42556 0
M  V30 3237 C 313.641 0.182209 -1.95352 0
M  V30 3238 O 312.766 1.08088 -1.87472 0
M  V30 3239 C 313.361 -2.1826 -2.59129 0
M  V30 3240 C 311.92 -2.10351 -3.12137 0
M  V30 3241 C 311.067 -2.06674 -1.84882 0
M  V30 3242 H 314.018 -1.442 -0.662727 0
M  V30 3243 H 314.039 -1.78064 -3.36264 0
M  V30 3244 H 313.551 -3.19257 -2.20673 0
M  V30 3245 H 311.652 -1.12599 -3.55179 0
M  V30 3246 H 311.765 -3.00135 -3.73438 0
M  V30 3247 H 310.129 -1.51901 -2.04446 0
M  V30 3248 H 310.912 -3.09451 -1.48643 0
M  V30 3249 N 313.357 1.07166 -1.15556 0
M  V30 3250 C 314.634 1.76546 -0.842069 0
M  V30 3251 C 315.014 2.00453 0.661939 0
M  V30 3252 O 314.362 1.62452 1.60691 0
M  V30 3253 C 314.572 3.07266 -1.65495 0
M  V30 3254 C 315.92 3.81578 -1.86234 0
M  V30 3255 O 316.944 3.17083 -1.62287 0
M  V30 3256 O 315.803 4.97419 -2.26355 0
M  V30 3257 H 312.897 0.766756 -0.309862 0
M  V30 3258 H 315.443 1.13514 -1.26145 0
M  V30 3259 H 314.215 2.85494 -2.67598 0
M  V30 3260 H 313.838 3.7803 -1.23203 0
M  V30 3261 N 314.835 0.952656 1.25548 0
M  V30 3262 C 315.798 0.475794 2.24207 0
M  V30 3263 C 316.798 -0.419428 1.55234 0
M  V30 3264 O 317.988 -0.216994 1.72843 0
M  V30 3265 C 315.12 -0.312814 3.39462 0
M  V30 3266 H 316.313 1.34779 2.67908 0
M  V30 3267 H 313.866 0.735739 1.37901 0
M  V30 3268 H 314.601 -1.20257 3.01179 0
M  V30 3269 H 314.386 0.329404 3.90714 0
M  V30 3270 H 315.876 -0.635986 4.12729 0
M  V30 3271 N 316.313 -1.40141 0.720998 0
M  V30 3272 C 317.729 -1.54632 0.395113 0
M  V30 3273 C 317.929 -1.69115 -1.09555 0
M  V30 3274 O 316.985 -1.68377 -1.88163 0
M  V30 3275 C 318.298 -2.77177 1.1659 0
M  V30 3276 C 319.846 -2.91 1.15274 0
M  V30 3277 C 320.321 -4.16465 1.90579 0
M  V30 3278 N 321.812 -4.23476 1.87675 0
M  V30 3279 C 322.547 -5.19475 2.42762 0
M  V30 3280 N 322.043 -6.21348 3.06428 0
M  V30 3281 N 323.836 -5.11592 2.32874 0
M  V30 3282 H 315.987 -1.28986 1.68749 0
M  V30 3283 H 318.25 -0.62412 0.713567 0
M  V30 3284 H 317.956 -2.72771 2.22011 0
M  V30 3285 H 317.83 -3.69442 0.76108 0
M  V30 3286 H 320.217 -2.94907 0.106702 0
M  V30 3287 H 320.298 -1.99838 1.59682 0
M  V30 3288 H 319.942 -4.1332 2.95176 0
M  V30 3289 H 319.872 -5.06646 1.43587 0
M  V30 3290 H 322.363 -3.50497 1.41281 0
M  V30 3291 H 322.676 -6.91034 3.45965 0
M  V30 3292 H 321.021 -6.21777 3.10514 0
M  V30 3293 H 324.212 -4.30936 1.82789 0
M  V30 3294 H 324.385 -5.86233 2.76106 0
M  V30 3295 N 317.792 -0.46758 -1.50504 0
M  V30 3296 C 319.04 0.0884469 -2.01906 0
M  V30 3297 C 319.361 1.40532 -1.35188 0
M  V30 3298 O 318.631 1.89515 -0.496079 0
M  V30 3299 H 317.211 0.0356765 -0.746148 0
M  V30 3300 H 319.873 -0.6172 -1.84869 0
M  V30 3301 H 318.969 0.2425 -3.11156 0
M  V30 3302 N 319.27 1.56325 -0.20005 0
M  V30 3303 C 320.519 1.96895 0.437652 0
M  V30 3304 C 320.832 1.08999 1.62415 0
M  V30 3305 O 322.038 1.39372 2.32997 0
M  V30 3306 C 320.494 3.50198 0.830025 0
M  V30 3307 C 320.102 4.46765 -0.332461 0
M  V30 3308 C 321.846 3.99526 1.43453 0
M  V30 3309 C 319.753 5.91344 0.0811468 0
M  V30 3310 H 318.683 0.735209 0.167282 0
M  V30 3311 H 321.334 1.81148 -0.292853 0
M  V30 3312 H 319.716 3.61467 1.61734 0
M  V30 3313 H 320.89 4.47231 -1.11 0
M  V30 3314 H 319.205 4.07657 -0.848789 0
M  V30 3315 H 321.802 5.05025 1.75652 0
M  V30 3316 H 322.145 3.44122 2.34277 0
M  V30 3317 H 322.678 3.91393 0.71109 0
M  V30 3318 H 319.417 6.50685 -0.793033 0
M  V30 3319 H 318.937 5.94121 0.823445 0
M  V30 3320 H 320.616 6.44945 0.515252 0
M  V30 3321 N 320.748 -0.0735177 1.57428 0
M  V30 3322 C 321.994 -0.768909 1.88307 0
M  V30 3323 C 322.349 -1.75273 0.793535 0
M  V30 3324 O 321.642 -1.90527 -0.202466 0
M  V30 3325 C 321.836 -1.51799 3.23561 0
M  V30 3326 C 321.665 -0.608217 4.45568 0
M  V30 3327 C 320.435 -0.245808 5.04702 0
M  V30 3328 C 322.633 0.0942904 5.14214 0
M  V30 3329 N 320.615 0.66987 6.10234 0
M  V30 3330 C 321.986 0.867222 6.13905 0
M  V30 3331 C 324.041 0.165943 4.97623 0
M  V30 3332 C 322.744 1.70515 6.98797 0
M  V30 3333 C 324.77 0.990837 5.83041 0
M  V30 3334 C 324.132 1.75182 6.82269 0
M  V30 3335 H 320.231 -0.25685 0.738615 0
M  V30 3336 H 322.815 -0.030499 1.94676 0
M  V30 3337 H 320.986 -2.22713 3.18203 0
M  V30 3338 H 322.718 -2.16226 3.42094 0
M  V30 3339 H 319.473 -0.598284 4.69806 0
M  V30 3340 H 319.897 1.1209 6.67656 0
M  V30 3341 H 324.539 -0.408064 4.20826 0
M  V30 3342 H 322.257 2.29013 7.7497 0
M  V30 3343 H 325.843 1.04923 5.72261 0
M  V30 3344 H 324.723 2.37983 7.47217 0
M  V30 3345 N 322.226 -1.5378 -0.344866 0
M  V30 3346 C 323.176 -1.78057 -1.42407 0
M  V30 3347 C 324.16 -0.635732 -1.47808 0
M  V30 3348 O 325.352 -0.89508 -1.527 0
M  V30 3349 C 322.481 -1.99242 -2.79566 0
M  V30 3350 C 321.567 -3.19787 -2.78562 0
M  V30 3351 N 321.958 -4.41284 -2.47189 0
M  V30 3352 C 320.256 -3.2093 -3.0971 0
M  V30 3353 C 320.957 -5.23128 -2.54385 0
M  V30 3354 N 319.933 -4.59813 -2.89953 0
M  V30 3355 H 323.735 -2.69588 -1.17046 0
M  V30 3356 H 321.249 -1.52687 -0.553217 0
M  V30 3357 H 323.246 -2.14768 -3.57324 0
M  V30 3358 H 321.906 -1.08953 -3.05875 0
M  V30 3359 H 322.917 -4.68657 -2.20411 0
M  V30 3360 H 319.594 -2.40603 -3.41199 0
M  V30 3361 H 320.984 -6.30096 -2.333 0
M  V30 3362 N 323.704 0.605807 -1.45491 0
M  V30 3363 C 324.652 1.73754 -1.54636 0
M  V30 3364 C 325.646 1.64207 -0.416219 0
M  V30 3365 O 326.852 1.69979 -0.592199 0
M  V30 3366 H 323.227 0.574073 -0.485741 0
M  V30 3367 H 325.198 1.63169 -2.49837 0
M  V30 3368 C 323.947 3.12135 -1.53189 0
M  V30 3369 H 323.27 3.20141 -2.39478 0
M  V30 3370 H 324.71 3.91147 -1.63645 0
M  V30 3371 C 323.169 3.35921 -0.256616 0
M  V30 3372 O 323.699 3.96194 0.662798 0
M  V30 3373 N 321.905 2.90204 -0.151751 0
M  V30 3374 H 321.452 2.41336 -0.90081 0
M  V30 3375 H 321.41 3.06492 0.700699 0
M  V30 3376 N 325.182 1.32811 0.848464 0
M  V30 3377 C 326.459 1.14334 1.58704 0
M  V30 3378 C 326.839 -0.293948 2.09043 0
M  V30 3379 O 326.187 -1.29153 1.88499 0
M  V30 3380 C 326.397 2.17626 2.72837 0
M  V30 3381 C 327.745 2.51282 3.42261 0
M  V30 3382 O 328.769 2.16219 2.83068 0
M  V30 3383 O 327.628 3.11413 4.49093 0
M  V30 3384 H 324.722 0.441601 0.699226 0
M  V30 3385 H 327.268 1.44362 0.892053 0
M  V30 3386 H 326.04 3.14211 2.3321 0
M  V30 3387 H 325.663 1.88628 3.50008 0
M  V30 3388 N 326.66 -1.06551 1.16123 0
M  V30 3389 C 327.608 -2.16063 0.861371 0
M  V30 3390 C 328.602 -1.6856 -0.168517 0
M  V30 3391 O 329.808 -1.79986 -0.0227579 0
M  V30 3392 H 326.183 -0.705278 0.260934 0
M  V30 3393 H 328.154 -2.38567 1.79244 0
M  V30 3394 C 326.903 -3.45661 0.376018 0
M  V30 3395 H 326.226 -3.82604 1.15992 0
M  V30 3396 H 327.666 -4.23504 0.204951 0
M  V30 3397 C 326.125 -3.24546 -0.903954 0
M  V30 3398 O 326.655 -3.49865 -1.97377 0
M  V30 3399 N 324.861 -2.77992 -0.846679 0
M  V30 3400 H 324.408 -2.57589 0.0241017 0
M  V30 3401 H 324.366 -2.64244 -1.70359 0
M  V30 3402 N 328.138 -0.959301 -1.25041 0
M  V30 3403 C 329.085 -0.482057 -2.2571 0
M  V30 3404 C 330.055 0.467939 -1.59372 0
M  V30 3405 O 331.24 0.380159 -1.86974 0
M  V30 3406 C 328.38 0.229623 -3.44335 0
M  V30 3407 C 327.493 -0.758156 -4.25295 0
M  V30 3408 C 326.628 -0.0234403 -5.31195 0
M  V30 3409 C 325.667 -1.00184 -6.03846 0
M  V30 3410 N 324.804 -0.29769 -7.01469 0
M  V30 3411 H 329.644 -1.34538 -2.65901 0
M  V30 3412 H 327.181 -0.674592 -1.3072 0
M  V30 3413 H 329.139 0.658856 -4.11965 0
M  V30 3414 H 327.769 1.05696 -3.05005 0
M  V30 3415 H 326.821 -1.30586 -3.57284 0
M  V30 3416 H 328.133 -1.50458 -4.75567 0
M  V30 3417 H 327.287 0.464201 -6.04922 0
M  V30 3418 H 326.026 0.755741 -4.81809 0
M  V30 3419 H 325.031 -1.50044 -5.2893 0
M  V30 3420 H 326.256 -1.78133 -6.55321 0
M  V30 3421 H 324.202 0.462668 -6.54366 0
M  V30 3422 H 324.119 -0.983128 -7.4958 0
M  V30 3423 H 325.387 0.16826 -7.79318 0
M  V30 3424 N 329.616 1.39756 -0.72842 0
M  V30 3425 C 330.844 2.04948 -0.283528 0
M  V30 3426 C 331.259 1.54908 1.0793 0
M  V30 3427 O 330.616 0.711135 1.68075 0
M  V30 3428 C 330.667 3.60498 -0.268957 0
M  V30 3429 O 330.388 4.08695 -1.57798 0
M  V30 3430 C 331.889 4.4288 0.192912 0
M  V30 3431 H 329.109 0.659243 -0.125056 0
M  V30 3432 H 331.653 1.78927 -0.990226 0
M  V30 3433 H 329.808 3.85444 0.388801 0
M  V30 3434 H 330.222 5.02977 -1.48709 0
M  V30 3435 H 331.696 5.51791 0.151952 0
M  V30 3436 H 332.173 4.21418 1.23708 0
M  V30 3437 H 332.779 4.23069 -0.435039 0
M  V30 3438 N 331.094 0.475555 1.50254 0
M  V30 3439 C 332.341 -0.0778919 2.0235 0
M  V30 3440 C 332.669 -1.39319 1.35722 0
M  V30 3441 O 331.924 -1.89888 0.473395 0
M  V30 3442 C 332.223 -0.305114 3.56095 0
M  V30 3443 C 331.889 0.92903 4.41225 0
M  V30 3444 C 330.551 1.26739 4.6421 0
M  V30 3445 C 332.903 1.75054 4.90923 0
M  V30 3446 C 330.231 2.42724 5.34137 0
M  V30 3447 C 332.583 2.9017 5.62125 0
M  V30 3448 C 331.247 3.24416 5.83362 0
M  V30 3449 H 330.517 -0.0285027 0.740452 0
M  V30 3450 H 333.164 0.630543 1.80821 0
M  V30 3451 H 331.469 -1.09584 3.76163 0
M  V30 3452 H 333.166 -0.747377 3.93974 0
M  V30 3453 H 329.756 0.655428 4.23559 0
M  V30 3454 H 333.94 1.50231 4.73016 0
M  V30 3455 H 329.196 2.69525 5.48786 0
M  V30 3456 H 333.37 3.54169 5.99614 0
M  V30 3457 H 330.997 4.14396 6.37323 0
M  V30 3458 N 332.573 -1.56217 0.208337 0
M  V30 3459 C 333.503 -2.22694 -0.702116 0
M  V30 3460 C 334.484 -1.19432 -1.2112 0
M  V30 3461 O 335.669 -1.47978 -1.25762 0
M  V30 3462 C 332.799 -2.8966 -1.9161 0
M  V30 3463 C 331.753 -3.9928 -1.5414 0
M  V30 3464 C 331.079 -4.53476 -2.83308 0
M  V30 3465 C 332.379 -5.17012 -0.741339 0
M  V30 3466 H 334.073 -2.99034 -0.147898 0
M  V30 3467 H 331.619 -1.43831 -0.0696951 0
M  V30 3468 H 333.572 -3.34852 -2.55836 0
M  V30 3469 H 332.296 -2.10746 -2.49507 0
M  V30 3470 H 330.955 -3.54799 -0.922668 0
M  V30 3471 H 330.603 -3.71308 -3.39322 0
M  V30 3472 H 330.303 -5.27451 -2.58976 0
M  V30 3473 H 331.827 -5.01378 -3.485 0
M  V30 3474 H 333.241 -5.58667 -1.28699 0
M  V30 3475 H 331.638 -5.97137 -0.595627 0
M  V30 3476 H 332.708 -4.8423 0.254851 0
M  V30 3477 N 334.051 0.0651679 -1.57465 0
M  V30 3478 C 335.297 0.764193 -1.87851 0
M  V30 3479 C 335.63 1.76889 -0.801495 0
M  V30 3480 O 334.905 1.93594 0.187528 0
M  V30 3481 C 335.188 1.46625 -3.28897 0
M  V30 3482 C 335.041 0.477515 -4.47258 0
M  V30 3483 C 336.36 2.4095 -3.68281 0
M  V30 3484 H 333.479 0.276351 -0.683227 0
M  V30 3485 H 336.121 0.0272868 -1.8998 0
M  V30 3486 H 334.271 2.09438 -3.27212 0
M  V30 3487 H 335.943 -0.145922 -4.61069 0
M  V30 3488 H 334.186 -0.206576 -4.33308 0
M  V30 3489 H 334.857 1.0065 -5.42746 0
M  V30 3490 H 337.333 1.88209 -3.71102 0
M  V30 3491 H 336.209 2.87072 -4.67847 0
M  V30 3492 H 336.47 3.26049 -2.98571 0
M  V30 3493 N 335.529 1.53961 0.336706 0
M  V30 3494 C 336.775 1.7273 1.07406 0
M  V30 3495 C 337.13 0.488095 1.86106 0
M  V30 3496 O 336.423 -0.519379 1.84426 0
M  V30 3497 C 336.617 2.93493 2.03953 0
M  V30 3498 C 336.446 4.29039 1.34744 0
M  V30 3499 C 335.216 4.93416 1.08942 0
M  V30 3500 C 337.414 5.08501 0.770115 0
M  V30 3501 N 335.396 6.12821 0.363864 0
M  V30 3502 C 336.767 6.19752 0.175472 0
M  V30 3503 C 338.822 4.93349 0.671633 0
M  V30 3504 C 337.525 7.17503 -0.508081 0
M  V30 3505 C 339.551 5.914 0.0018076 0
M  V30 3506 C 338.913 7.01993 -0.581835 0
M  V30 3507 H 335.012 0.685026 0.377177 0
M  V30 3508 H 337.596 1.91403 0.356815 0
M  V30 3509 H 335.767 2.76308 2.72962 0
M  V30 3510 H 337.499 3.00949 2.70577 0
M  V30 3511 H 334.254 4.53099 1.37833 0
M  V30 3512 H 334.678 6.76998 0.0156092 0
M  V30 3513 H 339.32 4.08007 1.1086 0
M  V30 3514 H 337.038 8.02414 -0.956918 0
M  V30 3515 H 340.624 5.81753 -0.0738538 0
M  V30 3516 H 339.504 7.76561 -1.09192 0
M  V30 3517 N 337.007 -0.598083 1.45811 0
M  V30 3518 C 338.253 -1.35882 1.50545 0
M  V30 3519 C 338.586 -1.93616 0.150445 0
M  V30 3520 O 337.861 -1.75604 -0.83628 0
M  V30 3521 C 338.144 -2.49966 2.59208 0
M  V30 3522 C 337.997 -1.97367 4.04186 0
M  V30 3523 C 339.316 -3.52068 2.64076 0
M  V30 3524 H 336.435 -0.492717 0.548087 0
M  V30 3525 H 339.077 -0.673319 1.77669 0
M  V30 3526 H 337.227 -3.08443 2.3621 0
M  V30 3527 H 338.899 -1.43466 4.38423 0
M  V30 3528 H 337.142 -1.283 4.14393 0
M  V30 3529 H 337.813 -2.79649 4.75921 0
M  V30 3530 H 340.289 -3.03448 2.84708 0
M  V30 3531 H 339.165 -4.2937 3.41954 0
M  V30 3532 H 339.426 -4.08304 1.69531 0
M  V30 3533 N 338.485 -1.33259 -0.841409 0
M  V30 3534 C 339.433 -1.23279 -1.97244 0
M  V30 3535 C 340.427 -0.134706 -1.68864 0
M  V30 3536 O 341.633 -0.298501 -1.77508 0
M  V30 3537 H 338.008 -0.382497 -0.647457 0
M  V30 3538 H 339.979 -2.18906 -2.02787 0
M  V30 3539 C 338.728 -0.986268 -3.33419 0
M  V30 3540 H 338.051 -1.82347 -3.55794 0
M  V30 3541 H 339.491 -0.956728 -4.13065 0
M  V30 3542 C 337.95 0.310842 -3.35463 0
M  V30 3543 O 338.48 1.31838 -3.79449 0
M  V30 3544 N 336.686 0.337485 -2.88634 0
M  V30 3545 H 336.233 -0.482967 -2.53032 0
M  V30 3546 H 336.191 1.20518 -2.90384 0
M  V30 3547 N 339.963 1.05934 -1.16686 0
M  V30 3548 C 340.873 2.17014 -0.891183 0
M  V30 3549 C 341.889 1.73453 0.137907 0
M  V30 3550 O 343.065 2.01361 -0.039592 0
M  V30 3551 C 340.13 3.44384 -0.400099 0
M  V30 3552 C 339.191 4.02433 -1.49486 0
M  V30 3553 C 338.424 5.23723 -1.02711 0
M  V30 3554 O 338.647 5.7027 0.121716 0
M  V30 3555 O 337.581 5.7382 -1.81699 0
M  V30 3556 H 341.407 2.43113 -1.82015 0
M  V30 3557 H 338.992 1.15541 -0.947132 0
M  V30 3558 H 340.874 4.21189 -0.133392 0
M  V30 3559 H 339.549 3.19802 0.500817 0
M  V30 3560 H 338.456 3.27102 -1.81535 0
M  V30 3561 H 339.789 4.31317 -2.37121 0
M  V30 3562 N 341.441 0.965919 1.2453 0
M  V30 3563 C 342.351 0.502154 2.29163 0
M  V30 3564 C 343.367 -0.436017 1.68448 0
M  V30 3565 O 344.543 -0.309497 1.99008 0
M  V30 3566 C 341.608 -0.201956 3.46111 0
M  V30 3567 C 340.669 0.775821 4.22232 0
M  V30 3568 C 339.902 0.105217 5.33596 0
M  V30 3569 O 340.125 -1.10683 5.59558 0
M  V30 3570 O 339.059 0.796475 5.96607 0
M  V30 3571 H 342.885 1.37194 2.70946 0
M  V30 3572 H 340.47 0.732875 1.30189 0
M  V30 3573 H 342.352 -0.597564 4.17142 0
M  V30 3574 H 341.027 -1.04673 3.06309 0
M  V30 3575 H 339.934 1.22185 3.53584 0
M  V30 3576 H 341.267 1.58896 4.65846 0
M  V30 3577 N 342.919 -1.39368 0.735821 0
M  V30 3578 C 344.196 -1.94465 0.210395 0
M  V30 3579 C 344.576 -1.67254 -1.28799 0
M  V30 3580 O 343.924 -1.00123 -2.05396 0
M  V30 3581 C 344.134 -3.4472 0.544897 0
M  V30 3582 C 345.482 -4.21708 0.494689 0
M  V30 3583 O 346.506 -3.52922 0.482136 0
M  V30 3584 O 345.365 -5.44299 0.489947 0
M  V30 3585 H 342.459 -0.826096 0.0386666 0
M  V30 3586 H 345.005 -1.48863 0.814735 0
M  V30 3587 H 343.777 -3.57963 1.58045 0
M  V30 3588 H 343.4 -3.97502 -0.08837 0
M  V30 3589 N 344.397 -0.483516 -1.5 0
M  V30 3590 C 345.347 0.32306 -2.257 0
M  V30 3591 C 346.331 0.950755 -1.29805 0
M  V30 3592 O 347.523 0.861247 -1.54634 0
M  V30 3593 C 344.652 1.39724 -3.13579 0
M  V30 3594 C 343.738 0.776663 -4.16928 0
M  V30 3595 N 344.129 -0.1104 -5.0568 0
M  V30 3596 C 342.427 1.03922 -4.33724 0
M  V30 3597 C 343.128 -0.46387 -5.79848 0
M  V30 3598 N 342.104 0.163987 -5.43353 0
M  V30 3599 H 345.906 -0.360086 -2.91686 0
M  V30 3600 H 343.42 -0.298456 -1.59634 0
M  V30 3601 H 345.417 1.98837 -3.66428 0
M  V30 3602 H 344.077 2.08225 -2.49143 0
M  V30 3603 H 345.088 -0.480069 -5.1567 0
M  V30 3604 H 341.765 1.71829 -3.80501 0
M  V30 3605 H 343.155 -1.18854 -6.61304 0
M  V30 3606 N 345.875 1.56104 -0.216619 0
M  V30 3607 C 346.805 2.23063 0.690296 0
M  V30 3608 C 347.786 1.20072 1.20485 0
M  V30 3609 O 348.971 1.48643 1.24976 0
M  V30 3610 C 346.101 2.90672 1.90072 0
M  V30 3611 C 345.055 4.00092 1.5202 0
M  V30 3612 C 344.381 4.54972 2.80899 0
M  V30 3613 C 345.681 5.17398 0.71391 0
M  V30 3614 H 347.375 2.99109 0.132038 0
M  V30 3615 H 344.921 1.43866 0.0620664 0
M  V30 3616 H 346.874 3.36204 2.54057 0
M  V30 3617 H 345.598 2.12066 2.48386 0
M  V30 3618 H 344.257 3.55283 0.903839 0
M  V30 3619 H 343.905 3.73102 3.37348 0
M  V30 3620 H 343.605 5.28817 2.56176 0
M  V30 3621 H 345.129 5.0322 3.45836 0
M  V30 3622 H 346.543 5.59342 1.25735 0
M  V30 3623 H 344.94 5.97444 0.563951 0
M  V30 3624 H 346.01 4.84088 -0.280527 0
M  V30 3625 N 347.353 -0.0568162 1.57498 0
M  V30 3626 C 348.769 -0.411933 1.54192 0
M  V30 3627 C 348.969 -1.78287 0.938942 0
M  V30 3628 O 348.025 -2.46483 0.547919 0
M  V30 3629 C 349.338 -0.339244 2.9878 0
M  V30 3630 C 350.886 -0.418348 3.10192 0
M  V30 3631 C 351.361 -0.375407 4.56459 0
M  V30 3632 N 352.852 -0.435038 4.61153 0
M  V30 3633 C 353.587 -0.424265 5.71828 0
M  V30 3634 N 353.083 -0.367418 6.91825 0
M  V30 3635 N 354.876 -0.471938 5.60115 0
M  V30 3636 H 347.027 0.840684 1.95055 0
M  V30 3637 H 349.29 0.316987 0.893433 0
M  V30 3638 H 348.996 0.601742 3.46514 0
M  V30 3639 H 348.87 -1.14371 3.59443 0
M  V30 3640 H 351.257 -1.34976 2.62422 0
M  V30 3641 H 351.338 0.414962 2.52412 0
M  V30 3642 H 350.982 0.552219 5.04889 0
M  V30 3643 H 350.912 -1.22645 5.12119 0
M  V30 3644 H 353.403 -0.482612 3.74806 0
M  V30 3645 H 353.716 -0.363535 7.71944 0
M  V30 3646 H 352.061 -0.333879 6.94198 0
M  V30 3647 H 355.252 -0.514145 4.65268 0
M  V30 3648 H 355.425 -0.460073 6.46365 0
M  V30 3649 N 348.832 -1.54138 -0.328536 0
M  V30 3650 C 350.078 -1.7236 -1.06865 0
M  V30 3651 C 350.411 -0.493231 -1.87832 0
M  V30 3652 O 349.686 0.5098 -1.877 0
M  V30 3653 C 349.969 -2.99621 -1.99747 0
M  V30 3654 C 349.822 -4.32899 -1.22143 0
M  V30 3655 C 351.141 -3.22615 -2.99345 0
M  V30 3656 H 348.26 -0.627151 -0.387105 0
M  V30 3657 H 350.902 -1.86827 -0.345767 0
M  V30 3658 H 349.052 -2.87418 -2.61387 0
M  V30 3659 H 350.724 -4.56978 -0.630017 0
M  V30 3660 H 348.967 -4.30628 -0.523628 0
M  V30 3661 H 349.638 -5.18154 -1.90318 0
M  V30 3662 H 352.114 -3.34248 -2.47826 0
M  V30 3663 H 350.99 -4.13027 -3.61524 0
M  V30 3664 H 351.251 -2.3961 -3.71536 0
M  V30 3665 N 350.31 0.590341 -1.46126 0
M  V30 3666 C 351.559 1.34499 -1.50309 0
M  V30 3667 C 351.872 1.94977 -0.156021 0
M  V30 3668 O 353.078 2.71395 -0.0756037 0
M  V30 3669 C 351.534 2.43723 -2.64815 0
M  V30 3670 C 351.142 1.89582 -4.0591 0
M  V30 3671 C 352.886 3.20579 -2.78262 0
M  V30 3672 C 350.793 2.9639 -5.11769 0
M  V30 3673 H 349.723 0.505593 -0.559368 0
M  V30 3674 H 352.374 0.630848 -1.72315 0
M  V30 3675 H 350.756 3.17902 -2.36124 0
M  V30 3676 H 351.93 1.21997 -4.44357 0
M  V30 3677 H 350.245 1.25418 -3.97063 0
M  V30 3678 H 352.842 4.00276 -3.54519 0
M  V30 3679 H 353.185 3.72684 -1.85505 0
M  V30 3680 H 353.718 2.53505 -3.06562 0
M  V30 3681 H 350.457 2.49181 -6.06291 0
M  V30 3682 H 349.977 3.62487 -4.77873 0
M  V30 3683 H 351.656 3.60474 -5.37278 0
M  V30 3684 N 351.788 1.33704 0.83433 0
M  V30 3685 C 353.013 1.28615 1.62705 0
M  V30 3686 C 353.438 -0.139242 1.87584 0
M  V30 3687 O 352.796 -1.09734 1.4432 0
M  V30 3688 C 352.844 2.07139 2.95171 0
M  V30 3689 O 351.948 1.4331 3.86699 0
M  V30 3690 H 351.289 0.44226 0.49528 0
M  V30 3691 H 353.819 1.76335 1.03766 0
M  V30 3692 H 353.829 2.18073 3.44831 0
M  V30 3693 H 352.504 3.10779 2.76386 0
M  V30 3694 H 351.081 1.4105 3.45195 0
M  V30 3695 N 353.266 -1.05314 1.17247 0
M  V30 3696 C 354.199 -2.12512 0.831507 0
M  V30 3697 C 355.177 -1.61351 -0.201168 0
M  V30 3698 O 356.361 -1.88317 -0.0829831 0
M  V30 3699 C 353.488 -3.37848 0.24015 0
M  V30 3700 C 352.534 -4.07832 1.24801 0
M  V30 3701 S 353.367 -4.56537 2.79882 0
M  V30 3702 C 354.523 -5.85122 2.22223 0
M  V30 3703 H 354.756 -2.41106 1.7394 0
M  V30 3704 H 352.289 -1.17896 0.996988 0
M  V30 3705 H 354.247 -4.10391 -0.0945588 0
M  V30 3706 H 352.908 -3.07392 -0.645668 0
M  V30 3707 H 352.101 -4.97883 0.78287 0
M  V30 3708 H 351.703 -3.41348 1.52831 0
M  V30 3709 H 353.995 -6.58408 1.59703 0
M  V30 3710 H 354.938 -6.36381 3.10523 0
M  V30 3711 H 355.346 -5.39626 1.65722 0
M  V30 3712 N 354.744 -0.972509 -1.24016 0
M  V30 3713 C 355.676 -0.464375 -2.24446 0
M  V30 3714 C 356.689 0.4295 -1.57032 0
M  V30 3715 O 357.878 0.234902 -1.76948 0
M  V30 3716 C 354.978 0.348385 -3.37105 0
M  V30 3717 C 354.151 -0.53673 -4.34094 0
M  V30 3718 C 353.21 0.220838 -5.25736 0
M  V30 3719 O 352.236 -0.386867 -5.67884 0
M  V30 3720 N 353.438 1.50907 -5.60542 0
M  V30 3721 H 356.203 -1.32788 -2.68677 0
M  V30 3722 H 353.764 -0.844877 -1.38107 0
M  V30 3723 H 355.756 0.863341 -3.95384 0
M  V30 3724 H 354.326 1.11285 -2.92121 0
M  V30 3725 H 353.546 -1.23261 -3.74433 0
M  V30 3726 H 354.834 -1.14022 -4.95859 0
M  V30 3727 H 354.232 2.02444 -5.28236 0
M  V30 3728 H 352.789 1.96962 -6.21329 0
M  V30 3729 N 356.222 1.38976 -0.743202 0
M  V30 3730 C 357.169 2.30544 -0.10861 0
M  V30 3731 C 358.139 1.49642 0.720869 0
M  V30 3732 O 359.324 1.78304 0.679142 0
M  V30 3733 C 356.464 3.36018 0.786496 0
M  V30 3734 C 355.577 4.31963 -0.0564849 0
M  V30 3735 C 354.712 5.24506 0.840657 0
M  V30 3736 C 353.751 6.121 -0.00658363 0
M  V30 3737 N 352.888 6.96973 0.846943 0
M  V30 3738 H 357.728 2.8424 -0.895088 0
M  V30 3739 H 355.265 1.3995 -0.453048 0
M  V30 3740 H 357.223 3.95768 1.31999 0
M  V30 3741 H 355.853 2.83758 1.53887 0
M  V30 3742 H 354.905 3.73763 -0.707492 0
M  V30 3743 H 356.217 4.93703 -0.711229 0
M  V30 3744 H 355.371 5.89322 1.4417 0
M  V30 3745 H 354.11 4.63107 1.52916 0
M  V30 3746 H 353.115 5.46289 -0.620366 0
M  V30 3747 H 354.34 6.75565 -0.691992 0
M  V30 3748 H 352.286 6.38133 1.52059 0
M  V30 3749 H 352.203 7.5559 0.248864 0
M  V30 3750 H 353.471 7.6621 1.43328 0
M  V30 3751 N 357.7 0.491464 1.49741 0
M  V30 3752 C 358.948 -0.0563141 2.02022 0
M  V30 3753 C 359.269 -1.38363 1.37407 0
M  V30 3754 O 358.539 -1.88702 0.526166 0
M  V30 3755 H 357.119 -0.0238014 0.746621 0
M  V30 3756 H 359.781 0.646533 1.83864 0
M  V30 3757 H 358.877 -0.192967 3.11503 0
M  V30 3758 N 359.178 -1.55987 0.224894 0
M  V30 3759 C 360.426 -1.97998 -0.405099 0
M  V30 3760 C 360.747 -1.11387 -1.60056 0
M  V30 3761 O 360.017 -0.191645 -1.9496 0
M  V30 3762 H 358.597 -0.731235 -0.152658 0
M  V30 3763 H 361.259 -1.92279 0.318567 0
M  V30 3764 H 360.355 -3.03463 -0.729167 0
M  V30 3765 N 360.656 0.0484629 -1.57525 0
M  V30 3766 C 361.604 1.07359 -2.06341 0
M  V30 3767 C 362.598 1.3865 -0.973269 0
M  V30 3768 O 363.804 1.37783 -1.15827 0
M  V30 3769 H 360.179 0.363662 -0.65822 0
M  V30 3770 H 362.15 0.635916 -2.91545 0
M  V30 3771 C 360.899 2.37198 -2.54229 0
M  V30 3772 H 360.222 2.13977 -3.37719 0
M  V30 3773 H 361.662 3.07319 -2.92115 0
M  V30 3774 C 360.121 3.04805 -1.43511 0
M  V30 3775 O 360.651 3.93848 -0.79034 0
M  V30 3776 N 358.857 2.65811 -1.17444 0
M  V30 3777 H 358.404 1.93488 -1.70059 0
M  V30 3778 H 358.362 3.11366 -0.435737 0
M  V30 3779 N 362.134 1.5431 0.320358 0
M  V30 3780 C 363.067 1.78769 1.41834 0
M  V30 3781 C 364.045 0.63783 1.49568 0
M  V30 3782 O 365.229 0.875628 1.66928 0
M  V30 3783 C 362.356 1.90712 2.79905 0
M  V30 3784 C 361.402 3.13023 2.89687 0
M  V30 3785 S 362.235 4.71554 2.53766 0
M  V30 3786 C 363.391 4.86408 3.93902 0
M  V30 3787 H 363.624 2.71619 1.20874 0
M  V30 3788 H 361.157 1.45474 0.517377 0
M  V30 3789 H 363.115 1.98279 3.59438 0
M  V30 3790 H 361.776 0.988343 2.98145 0
M  V30 3791 H 360.969 3.18124 3.90913 0
M  V30 3792 H 360.571 3.03803 2.18128 0
M  V30 3793 H 362.863 4.69241 4.88691 0
M  V30 3794 H 363.806 5.88508 3.93782 0
M  V30 3795 H 364.214 4.14689 3.83005 0
M  V30 3796 N 363.613 -0.582584 1.46437 0
M  V30 3797 C 364.56 -1.69164 1.5701 0
M  V30 3798 C 365.53 -1.60847 0.414403 0
M  V30 3799 O 366.715 -1.80058 0.631171 0
M  V30 3800 C 363.855 -3.075 1.56646 0
M  V30 3801 C 362.968 -3.2644 2.82951 0
M  V30 3802 C 362.103 -4.55026 2.7409 0
M  V30 3803 C 361.142 -4.6731 3.95333 0
M  V30 3804 N 360.279 -5.87221 3.84858 0
M  V30 3805 H 365.119 -1.59464 2.51744 0
M  V30 3806 H 362.656 -0.777186 1.24893 0
M  V30 3807 H 364.614 -3.8757 1.5442 0
M  V30 3808 H 363.244 -3.16096 0.654439 0
M  V30 3809 H 362.296 -2.39974 2.95155 0
M  V30 3810 H 363.608 -3.31385 3.72808 0
M  V30 3811 H 362.762 -5.43324 2.6997 0
M  V30 3812 H 361.501 -4.52519 1.81873 0
M  V30 3813 H 360.506 -3.77429 3.99784 0
M  V30 3814 H 361.731 -4.71595 4.88646 0
M  V30 3815 H 359.677 -5.85712 2.95427 0
M  V30 3816 H 359.594 -5.93435 4.6837 0
M  V30 3817 H 360.862 -6.7795 3.84713 0
M  V30 3818 N 365.091 -1.34144 -0.827227 0
M  V30 3819 C 366.001 -1.27428 -1.96975 0
M  V30 3820 C 367.017 -0.182728 -1.73038 0
M  V30 3821 O 368.193 -0.408426 -1.97215 0
M  V30 3822 C 365.258 -1.02526 -3.31194 0
M  V30 3823 C 364.319 -2.20796 -3.68168 0
M  V30 3824 C 363.552 -1.97073 -4.95982 0
M  V30 3825 O 363.775 -0.926822 -5.6282 0
M  V30 3826 O 362.709 -2.83912 -5.30733 0
M  V30 3827 H 366.535 -2.23537 -2.05584 0
M  V30 3828 H 364.12 -1.14307 -0.961989 0
M  V30 3829 H 366.002 -0.904026 -4.11589 0
M  V30 3830 H 364.677 -0.0945389 -3.23562 0
M  V30 3831 H 363.584 -2.38477 -2.88235 0
M  V30 3832 H 364.917 -3.12243 -3.8048 0
M  V30 3833 N 366.569 1.04691 -1.17803 0
M  V30 3834 C 367.815 1.78045 -0.970969 0
M  V30 3835 C 368.148 1.87686 0.498751 0
M  V30 3836 O 367.423 1.38035 1.37027 0
M  V30 3837 C 367.706 3.2166 -1.61884 0
M  V30 3838 C 367.559 3.20001 -3.161 0
M  V30 3839 C 368.878 4.1962 -1.3269 0
M  V30 3840 H 365.997 0.64633 -0.354155 0
M  V30 3841 H 368.639 1.22333 -1.45378 0
M  V30 3842 H 366.789 3.69232 -1.20831 0
M  V30 3843 H 368.461 2.80467 -3.66246 0
M  V30 3844 H 366.704 2.58203 -3.48588 0
M  V30 3845 H 367.375 4.21386 -3.56564 0
M  V30 3846 H 369.851 3.80567 -1.68249 0
M  V30 3847 H 368.727 5.18339 -1.80599 0
M  V30 3848 H 368.988 4.414 -0.248622 0
M  V30 3849 N 368.047 0.979072 1.23499 0
M  V30 3850 C 369.294 0.647219 1.91878 0
M  V30 3851 C 369.622 -0.819074 1.76413 0
M  V30 3852 O 368.877 -1.60616 1.11808 0
M  V30 3853 C 369.176 0.981932 3.43646 0
M  V30 3854 C 368.842 2.43822 3.79291 0
M  V30 3855 C 367.504 2.83622 3.88731 0
M  V30 3856 C 369.856 3.3828 3.96505 0
M  V30 3857 C 367.184 4.16897 4.12812 0
M  V30 3858 C 369.536 4.71197 4.22085 0
M  V30 3859 C 368.2 5.10758 4.29747 0
M  V30 3860 H 367.47 0.236834 0.702133 0
M  V30 3861 H 370.117 1.23268 1.46551 0
M  V30 3862 H 368.422 0.314365 3.90537 0
M  V30 3863 H 370.119 0.703395 3.94783 0
M  V30 3864 H 366.709 2.11966 3.72516 0
M  V30 3865 H 370.893 3.0871 3.88603 0
M  V30 3866 H 366.149 4.47157 4.16966 0
M  V30 3867 H 370.323 5.44348 4.34348 0
M  V30 3868 H 367.95 6.1405 4.48159 0
M  V30 3869 N 369.525 -1.3858 0.750561 0
M  V30 3870 C 370.753 -2.04471 0.316098 0
M  V30 3871 C 371.168 -1.56606 -1.05452 0
M  V30 3872 O 370.525 -0.737784 -1.66922 0
M  V30 3873 C 370.576 -3.60025 0.326275 0
M  V30 3874 O 370.297 -4.06133 1.6428 0
M  V30 3875 C 371.798 -4.43131 -0.122429 0
M  V30 3876 H 369.018 -0.65717 0.135528 0
M  V30 3877 H 371.562 -1.77329 1.01857 0
M  V30 3878 H 369.717 -3.86014 -0.327431 0
M  V30 3879 H 370.131 -5.00547 1.56693 0
M  V30 3880 H 371.605 -5.51963 -0.0641473 0
M  V30 3881 H 372.082 -4.23333 -1.16988 0
M  V30 3882 H 372.688 -4.22323 0.50229 0
M  V30 3883 N 371.003 -0.499398 -1.49478 0
M  V30 3884 C 372.419 -0.155261 -1.58843 0
M  V30 3885 C 372.619 1.34008 -1.50479 0
M  V30 3886 O 371.675 2.11589 -1.37791 0
M  V30 3887 C 372.988 -0.730636 -2.91689 0
M  V30 3888 C 374.536 -0.696599 -3.0515 0
M  V30 3889 C 375.011 -1.25001 -4.40612 0
M  V30 3890 N 376.502 -1.21064 -4.47099 0
M  V30 3891 C 377.237 -1.60905 -5.50361 0
M  V30 3892 N 376.733 -2.08331 -6.60735 0
M  V30 3893 N 378.526 -1.52331 -5.41065 0
M  V30 3894 H 370.677 -1.47162 -1.53158 0
M  V30 3895 H 372.94 -0.610309 -0.725415 0
M  V30 3896 H 372.646 -1.77928 -3.03372 0
M  V30 3897 H 372.52 -0.190161 -3.7672 0
M  V30 3898 H 374.907 0.343204 -2.93097 0
M  V30 3899 H 374.988 -1.2742 -2.21806 0
M  V30 3900 H 374.632 -2.28859 -4.53416 0
M  V30 3901 H 374.562 -0.64836 -5.22593 0
M  V30 3902 H 377.053 -0.863128 -3.67911 0
M  V30 3903 H 377.366 -2.36805 -7.35624 0
M  V30 3904 H 375.711 -2.12304 -6.6178 0
M  V30 3905 H 378.902 -1.151 -4.53729 0
M  V30 3906 H 379.075 -1.83704 -6.21415 0
M  V30 3907 N 372.481 1.55866 -0.233164 0
M  V30 3908 C 373.728 1.98603 0.395374 0
M  V30 3909 C 374.056 1.12105 1.58942 0
M  V30 3910 O 373.311 0.168656 1.94972 0
M  V30 3911 C 373.61 3.46856 0.861724 0
M  V30 3912 C 373.276 4.50348 -0.223066 0
M  V30 3913 C 371.938 4.78371 -0.521038 0
M  V30 3914 C 374.29 5.12355 -0.956124 0
M  V30 3915 C 371.618 5.6568 -1.55638 0
M  V30 3916 C 373.97 6.00786 -1.98089 0
M  V30 3917 C 372.634 6.27148 -2.28565 0
M  V30 3918 H 371.904 0.726739 0.144677 0
M  V30 3919 H 374.551 1.88491 -0.338114 0
M  V30 3920 H 372.856 3.5423 1.67418 0
M  V30 3921 H 374.553 3.77302 1.35809 0
M  V30 3922 H 371.143 4.28596 0.0193234 0
M  V30 3923 H 375.327 4.90765 -0.739166 0
M  V30 3924 H 370.583 5.84365 -1.798 0
M  V30 3925 H 374.757 6.4788 -2.55391 0
M  V30 3926 H 372.384 6.94597 -3.08932 0
M  V30 3927 N 373.959 -0.0401083 1.57549 0
M  V30 3928 C 375.199 -0.738098 1.90608 0
M  V30 3929 C 375.563 -1.73107 0.830539 0
M  V30 3930 O 376.764 -2.4765 1.04513 0
M  V30 3931 C 375.035 -1.39985 3.28845 0
M  V30 3932 S 376.594 -2.12852 3.83718 0
M  V30 3933 H 373.412 -0.24477 0.667539 0
M  V30 3934 H 376.014 0.00693599 1.95499 0
M  V30 3935 H 374.718 -0.663775 4.04997 0
M  V30 3936 H 374.249 -2.18366 3.2723 0
M  V30 3937 H 376.264 -3.39842 3.61555 0
M  V30 3938 N 375.437 -1.54477 -0.31217 0
M  V30 3939 C 376.665 -1.77205 -1.068 0
M  V30 3940 C 377.08 -0.526114 -1.81321 0
M  V30 3941 O 376.437 0.503647 -1.75413 0
M  V30 3942 C 376.488 -2.97253 -2.05725 0
M  V30 3943 O 376.209 -4.1703 -1.34228 0
M  V30 3944 C 377.71 -3.32281 -2.93435 0
M  V30 3945 H 374.93 -0.591287 -0.317208 0
M  V30 3946 H 377.474 -2.01398 -0.354834 0
M  V30 3947 H 375.629 -2.753 -2.72559 0
M  V30 3948 H 376.043 -4.84636 -2.00571 0
M  V30 3949 H 377.517 -4.19551 -3.58721 0
M  V30 3950 H 377.994 -2.49945 -3.61143 0
M  V30 3951 H 378.6 -3.56353 -2.32147 0
M  V30 3952 N 376.915 0.57481 -1.46744 0
M  V30 3953 C 378.163 1.33009 -1.52161 0
M  V30 3954 C 378.484 1.94185 -0.178092 0
M  V30 3955 O 377.754 1.7899 0.796196 0
M  V30 3956 H 376.334 0.493873 -0.560445 0
M  V30 3957 H 378.996 0.672589 -1.82927 0
M  V30 3958 H 378.092 2.13273 -2.27862 0
M  V30 3959 N 378.394 1.34581 0.820102 0
M  V30 3960 C 379.324 1.29038 1.94606 0
M  V30 3961 C 380.305 0.1673 1.69275 0
M  V30 3962 O 381.49 0.360112 1.90832 0
M  V30 3963 C 378.62 1.04793 3.31113 0
M  V30 3964 C 377.574 2.13597 3.70891 0
M  V30 3965 C 376.9 1.74537 5.05412 0
M  V30 3966 C 378.2 3.55451 3.8269 0
M  V30 3967 H 379.894 2.23248 1.99501 0
M  V30 3968 H 377.44 1.0747 0.958449 0
M  V30 3969 H 379.393 0.995592 4.0947 0
M  V30 3970 H 378.117 0.0702565 3.26524 0
M  V30 3971 H 376.776 2.17905 2.9481 0
M  V30 3972 H 376.424 0.754226 4.97313 0
M  V30 3973 H 376.124 2.47361 5.32997 0
M  V30 3974 H 377.648 1.70803 5.86224 0
M  V30 3975 H 379.062 3.5354 4.51312 0
M  V30 3976 H 377.459 4.26922 4.21732 0
M  V30 3977 H 378.529 3.92587 2.84611 0
M  V30 3978 N 379.872 -1.04064 1.18357 0
M  V30 3979 C 381.1 -1.80916 1.00384 0
M  V30 3980 C 381.515 -1.83414 -0.447738 0
M  V30 3981 O 380.872 -1.26962 -1.31099 0
M  V30 3982 C 380.923 -3.26516 1.55144 0
M  V30 3983 O 380.644 -3.2424 2.94618 0
M  V30 3984 C 382.145 -4.20013 1.41789 0
M  V30 3985 H 379.365 -0.569728 0.354474 0
M  V30 3986 H 381.909 -1.31151 1.56906 0
M  V30 3987 H 380.064 -3.73512 1.02798 0
M  V30 3988 H 380.478 -4.15452 3.20156 0
M  V30 3989 H 381.952 -5.20111 1.84901 0
M  V30 3990 H 382.429 -4.37667 0.36661 0
M  V30 3991 H 383.035 -3.78881 1.93207 0
M  V30 3992 N 381.35 -0.985608 -1.22978 0
M  V30 3993 C 382.282 -0.488154 -2.23941 0
M  V30 3994 C 383.295 0.41282 -1.57479 0
M  V30 3995 O 384.484 0.216121 -1.77187 0
M  V30 3996 C 381.584 0.312611 -3.37455 0
M  V30 3997 C 380.757 -0.582741 -4.33501 0
M  V30 3998 C 379.816 0.165064 -5.25941 0
M  V30 3999 O 378.842 -0.447077 -5.67442 0
M  V30 4000 N 380.044 1.44953 -5.62111 0
M  V30 4001 H 382.809 -1.3563 -2.67254 0
M  V30 4002 H 380.37 -0.859477 -1.37203 0
M  V30 4003 H 382.362 0.821357 -3.96277 0
M  V30 4004 H 380.932 1.0818 -2.93285 0
M  V30 4005 H 380.152 -1.27225 -3.73105 0
M  V30 4006 H 381.44 -1.19275 -4.94622 0
M  V30 4007 H 380.838 1.9683 -5.30353 0
M  V30 4008 H 379.395 1.90361 -6.23383 0
M  V30 4009 N 382.828 1.3818 -0.7579 0
M  V30 4010 C 384.077 1.99261 -0.312744 0
M  V30 4011 C 384.39 1.60846 1.11301 0
M  V30 4012 O 385.596 2.14929 1.65885 0
M  V30 4013 C 384.052 3.56294 -0.50821 0
M  V30 4014 C 383.66 4.03657 -1.94333 0
M  V30 4015 C 385.404 4.24313 -0.125982 0
M  V30 4016 C 383.311 5.53347 -2.08712 0
M  V30 4017 H 382.241 0.745456 -0.113185 0
M  V30 4018 H 384.892 1.57889 -0.935056 0
M  V30 4019 H 383.274 3.95575 0.183353 0
M  V30 4020 H 384.448 3.75655 -2.66871 0
M  V30 4021 H 382.763 3.48376 -2.28086 0
M  V30 4022 H 385.36 5.34279 -0.212125 0
M  V30 4023 H 385.703 4.05962 0.921964 0
M  V30 4024 H 386.236 3.90285 -0.769563 0
M  V30 4025 H 382.975 5.76607 -3.11777 0
M  V30 4026 H 382.495 5.83078 -1.4064 0
M  V30 4027 H 384.174 6.19111 -1.87912 0
M  V30 4028 N 384.306 0.507319 1.49211 0
M  V30 4029 C 385.216 -0.272136 2.33016 0
M  V30 4030 C 386.232 -0.961206 1.45041 0
M  V30 4031 O 387.408 -0.941191 1.78055 0
M  V30 4032 C 384.473 -1.31895 3.20631 0
M  V30 4033 C 383.534 -0.642648 4.24463 0
M  V30 4034 C 382.767 -1.63959 5.07891 0
M  V30 4035 O 382.99 -2.87007 4.92933 0
M  V30 4036 O 381.924 -1.19143 5.8999 0
M  V30 4037 H 385.75 0.413982 3.00865 0
M  V30 4038 H 383.335 0.268556 1.46966 0
M  V30 4039 H 385.217 -1.92446 3.7489 0
M  V30 4040 H 383.892 -1.98788 2.5547 0
M  V30 4041 H 382.799 0.00276252 3.741 0
M  V30 4042 H 384.132 -0.0160534 4.92197 0
M  V30 4043 N 385.784 -1.5574 0.241426 0
M  V30 4044 C 387.012 -2.03208 -0.389134 0
M  V30 4045 C 387.427 -1.12082 -1.51931 0
M  V30 4046 O 386.784 -0.134183 -1.82006 0
M  V30 4047 C 386.835 -3.50064 -0.902087 0
M  V30 4048 O 386.556 -4.37717 0.18305 0
M  V30 4049 C 388.057 -4.13268 -1.60389 0
M  V30 4050 H 385.277 -0.664509 -0.0931053 0
M  V30 4051 H 387.821 -2.0124 0.36369 0
M  V30 4052 H 385.976 -3.52583 -1.60511 0
M  V30 4053 H 386.39 -5.24097 -0.205579 0
M  V30 4054 H 387.864 -5.17733 -1.91458 0
M  V30 4055 H 388.341 -3.59434 -2.52397 0
M  V30 4056 H 388.947 -4.14655 -0.945576 0
M  V30 4057 N 387.262 0.0317525 -1.57568 0
M  V30 4058 C 388.192 1.03274 -2.0942 0
M  V30 4059 C 389.173 1.3788 -0.996143 0
M  V30 4060 O 390.358 1.46811 -1.27122 0
M  V30 4061 C 387.488 2.33448 -2.57137 0
M  V30 4062 C 386.442 2.13091 -3.71182 0
M  V30 4063 C 385.768 3.49001 -4.05095 0
M  V30 4064 C 387.068 1.51928 -4.99715 0
M  V30 4065 H 388.762 0.60112 -2.93303 0
M  V30 4066 H 386.308 0.287705 -1.41097 0
M  V30 4067 H 388.261 3.03802 -2.92032 0
M  V30 4068 H 386.985 2.78665 -1.70333 0
M  V30 4069 H 385.644 1.45171 -3.36632 0
M  V30 4070 H 385.292 3.91862 -3.15362 0
M  V30 4071 H 384.992 3.36207 -4.81911 0
M  V30 4072 H 386.516 4.20721 -4.42522 0
M  V30 4073 H 387.93 2.12196 -5.32584 0
M  V30 4074 H 386.327 1.49716 -5.81124 0
M  V30 4075 H 387.397 0.484811 -4.8247 0
M  V30 4076 N 388.74 1.54641 0.303973 0
M  V30 4077 C 389.987 1.7378 1.03955 0
M  V30 4078 C 390.315 0.521986 1.87365 0
M  V30 4079 O 389.57 -0.496099 1.89308 0
M  V30 4080 C 389.869 2.97753 1.97681 0
M  V30 4081 C 389.535 4.31671 1.30271 0
M  V30 4082 C 388.197 4.68075 1.11619 0
M  V30 4083 C 390.549 5.147 0.82055 0
M  V30 4084 C 387.877 5.8509 0.434304 0
M  V30 4085 C 390.229 6.32416 0.152395 0
M  V30 4086 C 388.893 6.67484 -0.0461067 0
M  V30 4087 H 388.163 0.635908 0.380398 0
M  V30 4088 H 390.81 1.88896 0.314718 0
M  V30 4089 H 389.115 2.77406 2.76682 0
M  V30 4090 H 390.812 3.09756 2.54661 0
M  V30 4091 H 387.402 4.03041 1.45795 0
M  V30 4092 H 391.586 4.87077 0.952374 0
M  V30 4093 H 386.842 6.10806 0.269495 0
M  V30 4094 H 391.016 6.96023 -0.229126 0
M  V30 4095 H 388.643 7.58011 -0.576494 0
M  V30 4096 N 390.218 -0.567019 1.47046 0
M  V30 4097 C 391.165 -1.67489 1.58796 0
M  V30 4098 C 392.135 -1.60399 0.43144 0
M  V30 4099 O 393.32 -1.79378 0.650233 0
M  V30 4100 C 390.46 -3.05821 1.59899 0
M  V30 4101 C 389.573 -3.2342 2.86397 0
M  V30 4102 C 388.708 -4.52093 2.789 0
M  V30 4103 C 387.747 -4.6309 4.00267 0
M  V30 4104 N 386.884 -5.83106 3.91064 0
M  V30 4105 H 391.724 -1.56785 2.53422 0
M  V30 4106 H 389.261 -0.763896 1.2571 0
M  V30 4107 H 391.219 -3.8591 1.58522 0
M  V30 4108 H 389.849 -3.15384 0.687929 0
M  V30 4109 H 388.901 -2.3683 2.97684 0
M  V30 4110 H 390.213 -3.27412 3.76301 0
M  V30 4111 H 389.367 -5.4043 2.75718 0
M  V30 4112 H 388.106 -4.50565 1.86662 0
M  V30 4113 H 387.111 -3.73168 4.03765 0
M  V30 4114 H 388.336 -4.66386 4.93621 0
M  V30 4115 H 386.282 -5.82546 3.01623 0
M  V30 4116 H 386.199 -5.88434 4.74638 0
M  V30 4117 H 387.467 -6.73831 3.91882 0
M  V30 4118 N 391.696 -1.35014 -0.812953 0
M  V30 4119 C 392.921 -1.31187 -1.60639 0
M  V30 4120 C 393.346 0.109382 -1.87782 0
M  V30 4121 O 392.704 1.07424 -1.46047 0
M  V30 4122 C 392.752 -2.11809 -2.91838 0
M  V30 4123 O 391.856 -1.49444 -3.8437 0
M  V30 4124 H 391.197 -0.450084 -0.488181 0
M  V30 4125 H 393.727 -1.77963 -1.00947 0
M  V30 4126 H 393.737 -2.23531 -3.41318 0
M  V30 4127 H 392.412 -3.15137 -2.71407 0
M  V30 4128 H 390.989 -1.46524 -3.42907 0
M  V30 4129 N 393.175 1.03435 -1.18907 0
M  V30 4130 C 394.122 2.11591 -0.921837 0
M  V30 4131 C 395.092 1.65499 0.141226 0
M  V30 4132 O 396.277 1.908 0.000242829 0
M  V30 4133 C 393.417 3.42012 -0.460616 0
M  V30 4134 C 392.53 4.01682 -1.58982 0
M  V30 4135 C 391.665 5.20091 -1.08069 0
M  V30 4136 C 390.704 5.71805 -2.18416 0
M  V30 4137 N 389.841 6.81494 -1.68849 0
M  V30 4138 H 394.681 2.33787 -1.8479 0
M  V30 4139 H 392.218 1.1467 -0.921373 0
M  V30 4140 H 394.176 4.16834 -0.174642 0
M  V30 4141 H 392.806 3.19944 0.428467 0
M  V30 4142 H 391.858 3.24127 -1.99113 0
M  V30 4143 H 393.17 4.36084 -2.4214 0
M  V30 4144 H 392.324 6.02051 -0.749615 0
M  V30 4145 H 391.063 4.87209 -0.218771 0
M  V30 4146 H 390.068 4.88461 -2.5236 0
M  V30 4147 H 391.293 6.06728 -3.05054 0
M  V30 4148 H 389.239 6.50475 -0.849572 0
M  V30 4149 H 389.156 7.14994 -2.45601 0
M  V30 4150 H 390.424 7.67063 -1.38689 0
M  V30 4151 N 394.653 0.992116 1.22453 0
M  V30 4152 C 395.93 0.583508 1.86694 0
M  V30 4153 C 396.31 -0.9392 1.89056 0
M  V30 4154 O 395.658 -1.82081 1.38053 0
M  V30 4155 C 395.868 1.20304 3.2761 0
M  V30 4156 C 397.216 1.30308 4.0411 0
M  V30 4157 O 398.24 1.15737 3.36873 0
M  V30 4158 O 397.099 1.53615 5.24466 0
M  V30 4159 H 394.193 0.198129 0.802916 0
M  V30 4160 H 396.739 1.08794 1.30238 0
M  V30 4161 H 395.511 2.24461 3.2052 0
M  V30 4162 H 395.134 0.684144 3.9167 0
M  V30 4163 N 396.131 -1.37776 0.765217 0
M  V30 4164 C 397.361 -2.03828 0.337277 0
M  V30 4165 C 397.769 -1.57841 -1.04321 0
M  V30 4166 O 397.112 -0.752043 -1.67601 0
M  V30 4167 C 397.174 -3.58292 0.294407 0
M  V30 4168 C 396.838 -4.27384 1.61838 0
M  V30 4169 C 397.835 -4.51956 2.56967 0
M  V30 4170 C 395.52 -4.65345 1.89102 0
M  V30 4171 C 397.514 -5.13536 3.77571 0
M  V30 4172 C 395.201 -5.26647 3.09978 0
M  V30 4173 C 396.199 -5.50679 4.04032 0
M  V30 4174 O 395.887 -6.10702 5.2278 0
M  V30 4175 H 395.619 -0.661292 0.140248 0
M  V30 4176 H 398.173 -1.77222 1.03834 0
M  V30 4177 H 396.403 -3.83918 -0.462983 0
M  V30 4178 H 398.092 -4.05763 -0.105581 0
M  V30 4179 H 398.858 -4.23048 2.37183 0
M  V30 4180 H 394.737 -4.45978 1.16725 0
M  V30 4181 H 398.281 -5.3221 4.50997 0
M  V30 4182 H 394.178 -5.54979 3.29649 0
M  V30 4183 H 394.946 -6.29183 5.23517 0
M  V30 4184 N 397.609 -0.515225 -1.4894 0
M  V30 4185 C 398.519 0.259774 -2.33157 0
M  V30 4186 C 399.535 0.953501 -1.45548 0
M  V30 4187 O 400.711 0.931735 -1.78552 0
M  V30 4188 C 397.776 1.30193 -3.21326 0
M  V30 4189 C 396.837 0.620129 -4.24797 0
M  V30 4190 C 396.07 1.61263 -5.08753 0
M  V30 4191 O 396.293 2.84389 -4.94448 0
M  V30 4192 O 395.227 1.16013 -5.90614 0
M  V30 4193 H 399.053 -0.429932 -3.00641 0
M  V30 4194 H 396.638 -0.276346 -1.46822 0
M  V30 4195 H 398.52 1.90455 -3.75905 0
M  V30 4196 H 397.195 1.97431 -2.56521 0
M  V30 4197 H 396.102 -0.0226019 -3.74093 0
M  V30 4198 H 397.435 -0.0100493 -4.92199 0
M  V30 4199 N 399.087 1.5561 -0.249682 0
M  V30 4200 C 400.334 1.99011 0.374287 0
M  V30 4201 C 400.662 1.13785 1.57744 0
M  V30 4202 O 399.917 0.189326 1.94782 0
M  V30 4203 C 400.216 3.4775 0.824887 0
M  V30 4204 C 399.882 4.50086 -0.270819 0
M  V30 4205 C 398.544 4.77791 -0.571746 0
M  V30 4206 C 400.896 5.11312 -1.01041 0
M  V30 4207 C 398.224 5.63997 -1.61629 0
M  V30 4208 C 400.576 5.98651 -2.0445 0
M  V30 4209 C 399.24 6.24688 -2.35204 0
M  V30 4210 H 398.51 0.728233 0.136961 0
M  V30 4211 H 401.157 1.88122 -0.358087 0
M  V30 4212 H 399.462 3.55985 1.63651 0
M  V30 4213 H 401.159 3.78721 1.31799 0
M  V30 4214 H 397.749 4.28592 -0.026136 0
M  V30 4215 H 401.933 4.89953 -0.791177 0
M  V30 4216 H 397.189 5.82425 -1.85988 0
M  V30 4217 H 401.363 6.45135 -2.62248 0
M  V30 4218 H 398.99 6.91281 -3.16282 0
M  V30 4219 N 400.565 -0.0233959 1.57583 0
M  V30 4220 C 401.498 -1.05549 2.02323 0
M  V30 4221 C 402.476 -1.34843 0.908626 0
M  V30 4222 O 403.66 -1.47404 1.17491 0
M  V30 4223 C 400.787 -2.38885 2.40108 0
M  V30 4224 C 399.833 -2.2541 3.62067 0
M  V30 4225 S 400.666 -1.60217 5.1097 0
M  V30 4226 C 401.822 -2.95032 5.52003 0
M  V30 4227 H 402.055 -0.674435 2.89549 0
M  V30 4228 H 399.588 -0.23355 1.52623 0
M  V30 4229 H 401.546 -3.15562 2.62547 0
M  V30 4230 H 400.207 -2.74137 1.53323 0
M  V30 4231 H 399.4 -3.23854 3.86179 0
M  V30 4232 H 399.002 -1.56876 3.39508 0
M  V30 4233 H 401.294 -3.91357 5.53033 0
M  V30 4234 H 402.237 -2.75646 6.52246 0
M  V30 4235 H 402.645 -2.97865 4.79517 0
M  V30 4236 N 402.043 -1.548 -0.295768 0
M  V30 4237 C 403.289 -1.75517 -1.02789 0
M  V30 4238 C 403.644 -0.537266 -1.84746 0
M  V30 4239 O 402.937 0.470299 -1.85738 0
M  V30 4240 C 403.131 -2.98797 -1.961 0
M  V30 4241 C 402.96 -4.3246 -1.23321 0
M  V30 4242 C 401.73 -4.96131 -0.95822 0
M  V30 4243 C 403.928 -5.10365 -0.635024 0
M  V30 4244 N 401.91 -6.1357 -0.201257 0
M  V30 4245 C 403.281 -6.19999 -0.0110937 0
M  V30 4246 C 405.336 -4.94957 -0.540594 0
M  V30 4247 C 404.039 -7.15904 0.698136 0
M  V30 4248 C 406.065 -5.91197 0.154992 0
M  V30 4249 C 405.427 -7.00203 0.767752 0
M  V30 4250 H 401.526 -0.694786 -0.358882 0
M  V30 4251 H 404.11 -1.92281 -0.305943 0
M  V30 4252 H 402.281 -2.83448 -2.6554 0
M  V30 4253 H 404.013 -3.08017 -2.62502 0
M  V30 4254 H 400.768 -4.56595 -1.25771 0
M  V30 4255 H 401.192 -6.76802 0.16389 0
M  V30 4256 H 405.834 -4.10803 -1.00003 0
M  V30 4257 H 403.552 -7.99595 1.16933 0
M  V30 4258 H 407.138 -5.81353 0.228069 0
M  V30 4259 H 406.018 -7.73393 1.29743 0
M  V30 4260 N 403.521 0.559213 -1.47345 0
M  V30 4261 C 404.469 1.68747 -1.60085 0
M  V30 4262 C 405.463 1.628 -0.46825 0
M  V30 4263 O 406.669 1.68009 -0.645977 0
M  V30 4264 H 403.044 0.558329 -0.503759 0
M  V30 4265 H 405.015 1.55138 -2.54902 0
M  V30 4266 C 403.764 3.07103 -1.63042 0
M  V30 4267 H 403.087 3.12361 -2.49541 0
M  V30 4268 H 404.527 3.85743 -1.76006 0
M  V30 4269 C 402.986 3.34935 -0.363357 0
M  V30 4270 O 403.516 3.98102 0.536416 0
M  V30 4271 N 401.722 2.89574 -0.244 0
M  V30 4272 H 401.269 2.38348 -0.977133 0
M  V30 4273 H 401.227 3.08566 0.602836 0
M  V30 4274 N 404.999 1.35443 0.805782 0
M  V30 4275 C 406.41 1.25768 1.37983 0
M  V30 4276 C 406.761 -0.10958 1.95894 0
M  V30 4277 O 405.886 -1.01056 1.91355 0
M  V30 4278 C 406.481 2.27727 2.5085 0
M  V30 4279 C 405.04 2.2179 3.04115 0
M  V30 4280 C 404.187 2.13393 1.77084 0
M  V30 4281 H 407.138 1.4656 0.608752 0
M  V30 4282 H 407.159 1.90422 3.29424 0
M  V30 4283 H 406.671 3.27227 2.08671 0
M  V30 4284 H 404.772 1.25703 3.50756 0
M  V30 4285 H 404.885 3.13788 3.62042 0
M  V30 4286 H 403.249 1.59384 1.98668 0
M  V30 4287 H 404.032 3.14755 1.37056 0
M  V30 4288 N 406.477 -1.02803 1.19454 0
M  V30 4289 C 407.427 -2.0945 0.900827 0
M  V30 4290 C 408.411 -1.60335 -0.134715 0
M  V30 4291 O 409.603 -1.76857 0.0710924 0
M  V30 4292 C 406.732 -3.4044 0.442229 0
M  V30 4293 C 405.818 -3.96286 1.51056 0
M  V30 4294 N 406.209 -4.25785 2.73021 0
M  V30 4295 C 404.507 -4.24307 1.37404 0
M  V30 4296 C 405.208 -4.70654 3.41848 0
M  V30 4297 N 404.184 -4.72238 2.69243 0
M  V30 4298 H 407.986 -2.3015 1.82779 0
M  V30 4299 H 405.5 -1.20672 1.08683 0
M  V30 4300 H 407.497 -4.16354 0.21326 0
M  V30 4301 H 406.157 -3.21159 -0.478238 0
M  V30 4302 H 407.168 -4.15041 3.09776 0
M  V30 4303 H 403.845 -4.14285 0.517103 0
M  V30 4304 H 405.235 -5.02392 4.46152 0
M  V30 4305 N 407.956 -0.998596 -1.21925 0
M  V30 4306 C 408.886 -0.573688 -2.26343 0
M  V30 4307 C 409.867 0.402296 -1.65274 0
M  V30 4308 O 411.052 0.291683 -1.91997 0
M  V30 4309 C 408.182 0.106839 -3.47136 0
M  V30 4310 C 407.136 -0.788269 -4.20678 0
M  V30 4311 C 406.462 0.0254927 -5.34694 0
M  V30 4312 C 407.762 -2.08784 -4.78755 0
M  V30 4313 H 409.456 -1.44651 -2.62138 0
M  V30 4314 H 407.002 -0.696975 -1.26009 0
M  V30 4315 H 408.955 0.415531 -4.19346 0
M  V30 4316 H 407.679 1.01424 -3.10452 0
M  V30 4317 H 406.338 -1.08069 -3.50309 0
M  V30 4318 H 405.986 0.933989 -4.94253 0
M  V30 4319 H 405.686 -0.570437 -5.84825 0
M  V30 4320 H 407.21 0.328147 -6.09718 0
M  V30 4321 H 408.624 -1.84272 -5.42878 0
M  V30 4322 H 407.021 -2.63307 -5.39249 0
M  V30 4323 H 408.091 -2.76284 -3.98491 0
M  V30 4324 N 409.434 1.37368 -0.772513 0
M  V30 4325 C 410.682 1.99279 -0.336516 0
M  V30 4326 C 411.003 1.6163 1.09091 0
M  V30 4327 O 410.273 0.882109 1.74916 0
M  V30 4328 H 408.853 0.737063 -0.121435 0
M  V30 4329 H 411.515 1.67836 -0.990809 0
M  V30 4330 H 410.611 3.09332 -0.414763 0
M  V30 4331 N 410.912 0.523116 1.48665 0
M  V30 4332 C 412.142 -0.00961724 2.06598 0
M  V30 4333 C 412.55 -1.29333 1.38093 0
M  V30 4334 O 411.893 -1.77846 0.46007 0
M  V30 4335 C 411.955 -0.311135 3.58151 0
M  V30 4336 C 411.619 0.878092 4.48485 0
M  V30 4337 C 412.616 1.77464 4.88674 0
M  V30 4338 C 410.301 1.08315 4.90483 0
M  V30 4339 C 412.295 2.86021 5.69623 0
M  V30 4340 C 409.982 2.17187 5.71203 0
M  V30 4341 C 410.98 3.05873 6.10681 0
M  V30 4342 O 410.668 4.12862 6.89783 0
M  V30 4343 H 410.4 0.0272658 0.67545 0
M  V30 4344 H 412.954 0.726156 1.92136 0
M  V30 4345 H 411.184 -1.10079 3.70701 0
M  V30 4346 H 412.873 -0.785125 3.98234 0
M  V30 4347 H 413.639 1.62813 4.56855 0
M  V30 4348 H 409.518 0.402149 4.59243 0
M  V30 4349 H 413.062 3.55272 6.00356 0
M  V30 4350 H 408.959 2.31824 6.02435 0
M  V30 4351 H 409.727 4.10487 7.08126 0
M  V30 4352 N 412.39 -1.55475 0.257931 0
M  V30 4353 C 413.639 -1.98383 -0.364275 0
M  V30 4354 C 413.952 -1.14952 -1.58258 0
M  V30 4355 O 415.158 -1.47924 -2.27664 0
M  V30 4356 C 413.614 -3.53037 -0.699479 0
M  V30 4357 C 413.222 -4.45223 0.498046 0
M  V30 4358 C 414.966 -4.04575 -1.28526 0
M  V30 4359 C 412.873 -5.91238 0.138383 0
M  V30 4360 H 411.803 -0.740911 -0.13988 0
M  V30 4361 H 414.454 -1.79936 0.359883 0
M  V30 4362 H 412.836 -3.6722 -1.48207 0
M  V30 4363 H 414.01 -4.42803 1.27522 0
M  V30 4364 H 412.325 -4.04226 0.999503 0
M  V30 4365 H 414.922 -5.11196 -1.56788 0
M  V30 4366 H 415.265 -3.5258 -2.21344 0
M  V30 4367 H 415.798 -3.93762 -0.565337 0
M  V30 4368 H 412.537 -6.47294 1.03398 0
M  V30 4369 H 412.057 -5.96768 -0.602374 0
M  V30 4370 H 413.736 -6.46413 -0.27553 0
M  V30 4371 N 413.868 0.0150385 -1.57593 0
M  V30 4372 C 414.798 1.01047 -2.10503 0
M  V30 4373 C 415.779 1.36816 -1.01071 0
M  V30 4374 O 416.964 1.45455 -1.28672 0
M  V30 4375 C 414.094 2.30708 -2.59598 0
M  V30 4376 C 413.048 2.09142 -3.73421 0
M  V30 4377 C 412.374 3.44685 -4.08774 0
M  V30 4378 C 413.674 1.46619 -5.01298 0
M  V30 4379 H 415.368 0.569978 -2.93925 0
M  V30 4380 H 412.914 0.272724 -1.41394 0
M  V30 4381 H 414.867 3.00687 -2.95238 0
M  V30 4382 H 413.591 2.76843 -1.73279 0
M  V30 4383 H 412.25 1.41592 -3.38153 0
M  V30 4384 H 411.898 3.88495 -3.195 0
M  V30 4385 H 411.598 3.31077 -4.8545 0
M  V30 4386 H 413.122 4.16004 -4.4696 0
M  V30 4387 H 414.536 2.06535 -5.34805 0
M  V30 4388 H 412.933 1.43544 -5.82679 0
M  V30 4389 H 414.003 0.433611 -4.82957 0
M  V30 4390 N 415.346 1.54954 0.287554 0
M  V30 4391 C 416.574 1.78881 1.03967 0
M  V30 4392 C 416.989 0.554894 1.80462 0
M  V30 4393 O 416.346 -0.475676 1.76192 0
M  V30 4394 C 416.397 3.00488 2.0097 0
M  V30 4395 O 416.118 4.19113 1.27577 0
M  V30 4396 C 417.619 3.36907 2.88112 0
M  V30 4397 H 414.839 0.596259 0.307761 0
M  V30 4398 H 417.383 2.01937 0.322749 0
M  V30 4399 H 415.538 2.79601 2.68145 0
M  V30 4400 H 415.952 4.87765 1.92835 0
M  V30 4401 H 417.426 4.25205 3.52001 0
M  V30 4402 H 417.903 2.55659 3.57121 0
M  V30 4403 H 418.509 3.60001 2.26449 0
M  V30 4404 N 416.824 -0.551391 1.4764 0
M  V30 4405 C 418.064 -1.31901 1.56145 0
M  V30 4406 C 418.428 -1.90724 0.221013 0
M  V30 4407 O 419.629 -2.6819 0.180945 0
M  V30 4408 C 417.9 -2.39517 2.65267 0
M  V30 4409 S 419.459 -3.26289 2.93395 0
M  V30 4410 H 416.277 -0.448965 0.551318 0
M  V30 4411 H 418.879 -0.630599 1.85051 0
M  V30 4412 H 417.583 -1.94747 3.6125 0
M  V30 4413 H 417.114 -3.13092 2.38195 0
M  V30 4414 H 419.129 -4.39122 2.31055 0
M  V30 4415 N 418.302 -1.35869 -0.798587 0
M  V30 4416 C 419.713 -1.26498 -1.37314 0
M  V30 4417 C 420.064 0.0991899 -1.95949 0
M  V30 4418 O 419.189 1.0004 -1.91888 0
M  V30 4419 C 419.784 -2.29054 -2.49639 0
M  V30 4420 C 418.343 -2.234 -3.02935 0
M  V30 4421 C 417.49 -2.14329 -1.75949 0
M  V30 4422 H 420.441 -1.46881 -0.600971 0
M  V30 4423 H 420.462 -1.92166 -3.28409 0
M  V30 4424 H 419.974 -3.2833 -2.06933 0
M  V30 4425 H 418.075 -1.27562 -3.50084 0
M  V30 4426 H 418.188 -3.15703 -3.60372 0
M  V30 4427 H 416.552 -1.60435 -1.9782 0
M  V30 4428 H 417.335 -3.15477 -1.35384 0
M  V30 4429 N 419.78 1.02168 -1.19998 0
M  V30 4430 C 421.005 1.79833 -1.03319 0
M  V30 4431 C 421.43 1.83504 0.413281 0
M  V30 4432 O 420.788 1.26635 1.29743 0
M  V30 4433 C 420.836 3.22396 -1.61533 0
M  V30 4434 O 419.94 4.03555 -0.849519 0
M  V30 4435 H 419.281 0.554872 -0.364709 0
M  V30 4436 H 421.811 1.28542 -1.59179 0
M  V30 4437 H 421.821 3.73124 -1.65054 0
M  V30 4438 H 420.496 3.19039 -2.66809 0
M  V30 4439 H 419.073 3.62169 -0.888129 0
M  V30 4440 N 421.258 1.00505 1.21394 0
M  V30 4441 C 422.206 0.558623 2.25792 0
M  V30 4442 C 423.2 -0.396848 1.64686 0
M  V30 4443 O 424.406 -0.268035 1.77993 0
M  V30 4444 H 420.781 0.1623 0.734277 0
M  V30 4445 H 422.752 1.4503 2.60785 0
M  V30 4446 C 421.501 -0.0989574 3.47559 0
M  V30 4447 H 420.824 0.627225 3.94849 0
M  V30 4448 H 422.264 -0.3746 4.22342 0
M  V30 4449 C 420.723 -1.33817 3.09184 0
M  V30 4450 O 421.253 -2.43252 3.19674 0
M  V30 4451 N 419.459 -1.21793 2.63846 0
M  V30 4452 H 419.006 -0.32746 2.5551 0
M  V30 4453 H 418.964 -2.04809 2.38539 0
M  V30 4454 N 422.737 -1.36956 0.779787 0
M  V30 4455 C 423.667 -2.32761 0.185651 0
M  V30 4456 C 424.648 -1.56177 -0.673989 0
M  V30 4457 O 425.833 -1.84378 -0.609797 0
M  V30 4458 C 422.963 -3.40418 -0.687964 0
M  V30 4459 C 421.917 -4.27941 0.0710102 0
M  V30 4460 C 421.243 -5.26681 -0.922573 0
M  V30 4461 C 422.543 -5.07006 1.25467 0
M  V30 4462 H 424.237 -2.82698 0.986008 0
M  V30 4463 H 421.783 -1.3592 0.475592 0
M  V30 4464 H 423.736 -4.06423 -1.11348 0
M  V30 4465 H 422.46 -2.89025 -1.52093 0
M  V30 4466 H 421.119 -3.63478 0.47739 0
M  V30 4467 H 420.767 -4.71565 -1.7503 0
M  V30 4468 H 420.467 -5.86103 -0.419237 0
M  V30 4469 H 421.991 -5.9556 -1.34686 0
M  V30 4470 H 423.405 -5.66105 0.905401 0
M  V30 4471 H 421.802 -5.75793 1.69063 0
M  V30 4472 H 422.872 -4.3921 2.05481 0
M  V30 4473 N 424.215 -0.530993 -1.48385 0
M  V30 4474 C 425.463 0.00273189 -2.021 0
M  V30 4475 C 425.784 1.34672 -1.41027 0
M  V30 4476 O 425.054 1.8724 -0.576012 0
M  V30 4477 H 423.634 0.00399774 -0.746989 0
M  V30 4478 H 426.296 -0.695054 -1.82085 0
M  V30 4479 H 425.392 0.11031 -3.11905 0
M  V30 4480 N 425.693 1.55336 -0.266172 0
M  V30 4481 C 426.921 2.03801 0.356756 0
M  V30 4482 C 427.336 1.14485 1.50129 0
M  V30 4483 O 426.693 0.163121 1.8177 0
M  V30 4484 C 426.744 3.51455 0.846281 0
M  V30 4485 O 426.465 4.37371 -0.252663 0
M  V30 4486 C 427.966 4.15767 1.53794 0
M  V30 4487 H 425.186 0.665906 0.0825218 0
M  V30 4488 H 427.73 2.00636 -0.39566 0
M  V30 4489 H 425.885 3.55092 1.54881 0
M  V30 4490 H 426.299 5.24358 0.122173 0
M  V30 4491 H 427.773 5.20714 1.83198 0
M  V30 4492 H 428.25 3.63404 2.46646 0
M  V30 4493 H 428.856 4.16107 0.879488 0
M  V30 4494 N 427.171 -0.0066808 1.57599 0
M  V30 4495 C 428.419 -0.691552 1.899 0
M  V30 4496 C 428.74 -1.74682 0.866672 0
M  V30 4497 O 428.01 -1.95661 -0.0968189 0
M  V30 4498 H 426.59 -0.258416 0.700878 0
M  V30 4499 H 429.252 0.0326655 1.94873 0
M  V30 4500 H 428.348 -1.16702 2.8946 0
M  V30 4501 N 428.649 -1.55105 -0.279332 0
M  V30 4502 C 429.579 -1.90557 -1.34945 0
M  V30 4503 C 430.56 -0.766738 -1.51839 0
M  V30 4504 O 431.745 -1.02434 -1.64988 0
M  V30 4505 C 428.875 -2.17193 -2.71006 0
M  V30 4506 C 427.829 -3.33021 -2.68851 0
M  V30 4507 C 427.155 -3.45123 -4.08405 0
M  V30 4508 C 428.455 -4.69578 -2.28678 0
M  V30 4509 H 430.149 -2.80188 -1.05522 0
M  V30 4510 H 427.695 -1.34811 -0.506173 0
M  V30 4511 H 429.648 -2.40581 -3.45975 0
M  V30 4512 H 428.372 -1.24355 -3.01999 0
M  V30 4513 H 427.031 -3.0959 -1.9634 0
M  V30 4514 H 426.679 -2.49762 -4.3661 0
M  V30 4515 H 426.379 -4.22995 -4.07859 0
M  V30 4516 H 427.903 -3.70796 -4.85121 0
M  V30 4517 H 429.317 -4.92553 -2.93368 0
M  V30 4518 H 427.714 -5.5032 -2.39306 0
M  V30 4519 H 428.784 -4.68828 -1.23807 0
M  V30 4520 N 430.127 0.543554 -1.4793 0
M  V30 4521 C 431.543 0.870806 -1.3375 0
M  V30 4522 C 431.743 1.9864 -0.338261 0
M  V30 4523 O 430.799 2.51305 0.245371 0
M  V30 4524 C 432.112 1.25114 -2.73435 0
M  V30 4525 C 433.66 1.3618 -2.81823 0
M  V30 4526 C 434.135 1.77563 -4.22179 0
M  V30 4527 N 435.626 1.8469 -4.24787 0
M  V30 4528 C 436.361 2.18067 -5.30315 0
M  V30 4529 N 435.857 2.49963 -6.46135 0
M  V30 4530 N 437.65 2.18958 -5.17701 0
M  V30 4531 H 429.801 -0.19275 -2.11524 0
M  V30 4532 H 432.064 -0.0235777 -0.947707 0
M  V30 4533 H 431.77 0.50514 -3.48053 0
M  V30 4534 H 431.644 2.20431 -3.06088 0
M  V30 4535 H 434.031 2.09859 -2.07468 0
M  V30 4536 H 434.112 0.390169 -2.52807 0
M  V30 4537 H 433.756 1.04449 -4.97044 0
M  V30 4538 H 433.686 2.75753 -4.48629 0
M  V30 4539 H 436.177 1.62372 -3.41239 0
M  V30 4540 H 436.49 2.74497 -7.22406 0
M  V30 4541 H 434.835 2.47513 -6.49432 0
M  V30 4542 H 438.026 1.93488 -4.2624 0
M  V30 4543 H 438.199 2.44639 -6.00047 0
M  V30 4544 N 431.605 1.3629 0.791371 0
M  V30 4545 C 432.568 1.30309 1.88553 0
M  V30 4546 C 433.568 0.211204 1.59407 0
M  V30 4547 O 434.758 0.465865 1.67855 0
M  V30 4548 C 431.89 1.01956 3.25297 0
M  V30 4549 H 433.083 2.27614 1.95273 0
M  V30 4550 H 430.636 1.21035 0.988953 0
M  V30 4551 H 431.371 0.050998 3.2426 0
M  V30 4552 H 431.156 1.80968 3.4784 0
M  V30 4553 H 432.646 1.0037 4.05359 0
M  V30 4554 N 433.083 -1.0153 1.20538 0
M  V30 4555 C 434.331 -1.74803 1.01432 0
M  V30 4556 C 434.652 -1.8963 -0.454456 0
M  V30 4557 O 433.922 -1.43975 -1.32846 0
M  V30 4558 H 432.502 -0.647598 0.372324 0
M  V30 4559 H 435.164 -1.22402 1.5167 0
M  V30 4560 H 434.26 -2.75114 1.47373 0
M  V30 4561 N 434.561 -1.01147 -1.20859 0
M  V30 4562 C 435.807 -0.698899 -1.90377 0
M  V30 4563 C 436.14 0.76904 -1.78324 0
M  V30 4564 O 435.415 1.55817 -1.16409 0
M  V30 4565 C 435.698 -1.12878 -3.41951 0
M  V30 4566 C 435.551 -2.65665 -3.62963 0
M  V30 4567 C 436.87 -0.696114 -4.3456 0
M  V30 4568 H 433.989 -0.255372 -0.691342 0
M  V30 4569 H 436.631 -1.25831 -1.42361 0
M  V30 4570 H 434.781 -0.652827 -3.82976 0
M  V30 4571 H 436.453 -3.21074 -3.31224 0
M  V30 4572 H 434.696 -3.06878 -3.06608 0
M  V30 4573 H 435.367 -2.90797 -4.69192 0
M  V30 4574 H 437.843 -1.10521 -4.01154 0
M  V30 4575 H 436.719 -1.025 -5.39245 0
M  V30 4576 H 436.98 0.402465 -4.40264 0
M  V30 4577 N 436.039 1.36541 -0.78704 0
M  V30 4578 C 436.989 2.27459 -0.156957 0
M  V30 4579 C 437.973 1.46843 0.657709 0
M  V30 4580 O 439.165 1.69245 0.518173 0
M  V30 4581 C 436.294 3.35893 0.709278 0
M  V30 4582 C 435.38 4.23947 -0.114049 0
M  V30 4583 N 435.771 4.92145 -1.16736 0
M  V30 4584 C 434.069 4.4587 0.107497 0
M  V30 4585 C 434.77 5.57261 -1.66837 0
M  V30 4586 N 433.746 5.3473 -0.977992 0
M  V30 4587 H 437.548 2.77669 -0.963185 0
M  V30 4588 H 435.062 1.49839 -0.62627 0
M  V30 4589 H 437.059 3.99953 1.17656 0
M  V30 4590 H 435.719 2.87238 1.51408 0
M  V30 4591 H 436.73 4.94169 -1.54976 0
M  V30 4592 H 433.407 4.08056 0.882994 0
M  V30 4593 H 434.797 6.21728 -2.54762 0
M  V30 4594 N 437.518 0.538854 1.48102 0
M  V30 4595 C 438.767 0.0059532 2.01699 0
M  V30 4596 C 439.08 -1.34476 1.42041 0
M  V30 4597 O 440.286 -1.96653 1.87189 0
M  V30 4598 C 438.742 -0.0397627 3.59878 0
M  V30 4599 C 438.35 1.30659 4.28523 0
M  V30 4600 C 440.094 -0.521024 4.2129 0
M  V30 4601 C 438.001 1.22098 5.78659 0
M  V30 4602 H 436.931 -0.00154456 0.753998 0
M  V30 4603 H 439.582 0.683963 1.70277 0
M  V30 4604 H 437.964 -0.783037 3.88181 0
M  V30 4605 H 439.138 2.06613 4.11883 0
M  V30 4606 H 437.453 1.7243 3.79021 0
M  V30 4607 H 440.05 -0.603184 5.31287 0
M  V30 4608 H 440.393 -1.52885 3.8721 0
M  V30 4609 H 440.926 0.166834 3.9745 0
M  V30 4610 H 437.665 2.20424 6.17328 0
M  V30 4611 H 437.185 0.50295 5.97688 0
M  V30 4612 H 438.864 0.915345 6.40492 0
M  V30 4613 N 438.996 -1.55193 0.274407 0
M  V30 4614 C 439.943 -2.225 -0.613374 0
M  V30 4615 C 440.913 -1.19823 -1.15029 0
M  V30 4616 O 442.098 -1.48362 -1.19973 0
M  V30 4617 C 439.238 -2.94927 -1.79199 0
M  V30 4618 C 438.351 -4.12322 -1.28899 0
M  V30 4619 C 437.486 -4.72394 -2.42934 0
M  V30 4620 C 436.525 -5.81984 -1.89634 0
M  V30 4621 N 435.662 -6.36123 -2.9714 0
M  V30 4622 H 440.502 -2.97982 -0.032756 0
M  V30 4623 H 438.039 -1.47099 -0.00440146 0
M  V30 4624 H 439.997 -3.35134 -2.48478 0
M  V30 4625 H 438.627 -2.2187 -2.34465 0
M  V30 4626 H 437.679 -3.7724 -0.489327 0
M  V30 4627 H 438.991 -4.91355 -0.858587 0
M  V30 4628 H 438.145 -5.15317 -3.20208 0
M  V30 4629 H 436.884 -3.92636 -2.8929 0
M  V30 4630 H 435.889 -5.38511 -1.1084 0
M  V30 4631 H 437.114 -6.6361 -1.44215 0
M  V30 4632 H 435.06 -5.59259 -3.42878 0
M  V30 4633 H 434.977 -7.10427 -2.58515 0
M  V30 4634 H 436.245 -6.83704 -3.74391 0
M  V30 4635 N 440.474 -0.00167713 -1.576 0
M  V30 4636 C 441.404 0.988091 -2.11563 0
M  V30 4637 C 442.385 1.35736 -1.02517 0
M  V30 4638 O 443.57 1.44082 -1.30208 0
M  V30 4639 C 440.7 2.27941 -2.62031 0
M  V30 4640 C 439.654 2.0517 -3.75619 0
M  V30 4641 C 438.98 3.4033 -4.12407 0
M  V30 4642 C 440.28 1.41294 -5.02825 0
M  V30 4643 H 441.974 0.538771 -2.94513 0
M  V30 4644 H 439.52 0.257712 -1.41675 0
M  V30 4645 H 441.473 2.97539 -2.9841 0
M  V30 4646 H 440.197 2.74989 -1.76205 0
M  V30 4647 H 438.856 1.37998 -3.39635 0
M  V30 4648 H 438.504 3.85085 -3.23603 0
M  V30 4649 H 438.204 3.25909 -4.88935 0
M  V30 4650 H 439.728 4.1124 -4.51347 0
M  V30 4651 H 441.142 2.00851 -5.36965 0
M  V30 4652 H 439.539 1.37356 -5.84169 0
M  V30 4653 H 440.609 0.382362 -4.8339 0
M  V30 4654 N 441.952 1.55251 0.271103 0
M  V30 4655 C 443.363 1.66635 0.842007 0
M  V30 4656 C 443.714 0.594631 1.86972 0
M  V30 4657 O 442.839 -0.263532 2.14789 0
M  V30 4658 C 443.434 3.02082 1.53401 0
M  V30 4659 C 441.993 3.15487 2.05293 0
M  V30 4660 C 441.14 2.62438 0.895631 0
M  V30 4661 H 444.091 1.58629 0.0474117 0
M  V30 4662 H 444.112 2.95176 2.40107 0
M  V30 4663 H 443.624 3.80062 0.785786 0
M  V30 4664 H 441.725 2.42284 2.83071 0
M  V30 4665 H 441.838 4.22075 2.26693 0
M  V30 4666 H 440.202 2.19644 1.28953 0
M  V30 4667 H 440.985 3.42923 0.160878 0
M  V30 4668 N 443.43 -0.535701 1.48216 0
M  V30 4669 C 444.378 -1.66179 1.62749 0
M  V30 4670 C 445.372 -1.62034 0.49409 0
M  V30 4671 O 446.578 -1.6696 0.672624 0
M  V30 4672 H 442.953 -0.550244 0.512578 0
M  V30 4673 H 444.924 -1.51063 2.57337 0
M  V30 4674 C 443.673 -3.04471 1.67907 0
M  V30 4675 H 442.996 -3.08351 2.54479 0
M  V30 4676 H 444.436 -3.82894 1.82121 0
M  V30 4677 C 442.895 -3.34314 0.416596 0
M  V30 4678 O 443.425 -3.98905 -0.473014 0
M  V30 4679 N 441.631 -2.89149 0.290038 0
M  V30 4680 H 441.178 -2.36764 1.01493 0
M  V30 4681 H 441.136 -3.09486 -0.55367 0
M  V30 4682 N 444.908 -1.36708 -0.784132 0
M  V30 4683 C 445.838 -1.34153 -1.91116 0
M  V30 4684 C 446.819 -0.212121 -1.68772 0
M  V30 4685 O 448.004 -0.410581 -1.8981 0
M  V30 4686 C 445.134 -1.13535 -3.28218 0
M  V30 4687 C 444.088 -2.23356 -3.65097 0
M  V30 4688 C 443.414 -1.87875 -5.00607 0
M  V30 4689 C 444.714 -3.65473 -3.73131 0
M  V30 4690 H 446.408 -2.28459 -1.93512 0
M  V30 4691 H 443.954 -1.09973 -0.929618 0
M  V30 4692 H 445.907 -1.10381 -4.06687 0
M  V30 4693 H 444.631 -0.156804 -3.26223 0
M  V30 4694 H 443.29 -2.25645 -2.88929 0
M  V30 4695 H 442.938 -0.885814 -4.95139 0
M  V30 4696 H 442.638 -2.61406 -5.26252 0
M  V30 4697 H 444.162 -1.86286 -5.81489 0
M  V30 4698 H 445.576 -3.65382 -4.41779 0
M  V30 4699 H 443.973 -4.37953 -4.10265 0
M  V30 4700 H 445.043 -3.99995 -2.74102 0
M  V30 4701 N 446.386 1.0089 -1.21074 0
M  V30 4702 C 447.634 1.74262 -1.02358 0
M  V30 4703 C 447.955 1.89869 0.444393 0
M  V30 4704 O 447.225 1.44677 1.32081 0
M  V30 4705 H 445.805 0.645615 -0.375754 0
M  V30 4706 H 448.467 1.21596 -1.52317 0
M  V30 4707 H 447.563 2.74328 -1.4883 0
M  V30 4708 N 447.864 1.01787 1.20321 0
M  V30 4709 C 448.811 0.589197 2.23153 0
M  V30 4710 C 449.781 -0.391367 1.61423 0
M  V30 4711 O 450.966 -0.290518 1.88575 0
M  V30 4712 C 448.106 -0.0650747 3.45039 0
M  V30 4713 C 447.219 0.960207 4.21194 0
M  V30 4714 C 446.354 0.276854 5.30478 0
M  V30 4715 C 445.393 1.2888 5.98378 0
M  V30 4716 N 444.53 0.632031 6.99249 0
M  V30 4717 H 449.37 1.47071 2.59179 0
M  V30 4718 H 446.907 0.736192 1.27352 0
M  V30 4719 H 448.865 -0.461552 4.14639 0
M  V30 4720 H 447.495 -0.910233 3.09701 0
M  V30 4721 H 446.547 1.47484 3.50646 0
M  V30 4722 H 447.859 1.72977 4.67847 0
M  V30 4723 H 447.013 -0.175056 6.06447 0
M  V30 4724 H 445.752 -0.525004 4.84866 0
M  V30 4725 H 444.757 1.75109 5.21169 0
M  V30 4726 H 445.982 2.09196 6.46076 0
M  V30 4727 H 443.928 -0.149935 6.55829 0
M  V30 4728 H 443.845 1.33964 7.44036 0
M  V30 4729 H 445.113 0.203755 7.79234 0
M  V30 4730 N 449.342 -1.36122 0.79427 0
M  V30 4731 C 450.292 -2.27373 0.169017 0
M  V30 4732 C 451.276 -1.4719 -0.649913 0
M  V30 4733 O 452.468 -1.69518 -0.50919 0
M  V30 4734 C 449.597 -3.36264 -0.691455 0
M  V30 4735 C 448.683 -4.2388 0.13653 0
M  V30 4736 N 449.074 -4.91519 1.19345 0
M  V30 4737 C 447.372 -4.45921 -0.0838499 0
M  V30 4738 C 448.073 -5.56369 1.6979 0
M  V30 4739 N 447.049 -5.34204 1.00634 0
M  V30 4740 H 450.851 -2.77154 0.977897 0
M  V30 4741 H 448.365 -1.49504 0.634208 0
M  V30 4742 H 450.362 -4.00572 -1.15534 0
M  V30 4743 H 449.022 -2.88037 -1.49883 0
M  V30 4744 H 450.033 -4.9334 1.57594 0
M  V30 4745 H 446.71 -4.08518 -0.861341 0
M  V30 4746 H 448.1 -6.20368 2.58055 0
M  V30 4747 N 450.82 -0.546701 -1.47814 0
M  V30 4748 C 451.73 0.21026 -2.33656 0
M  V30 4749 C 452.746 0.922413 -1.47538 0
M  V30 4750 O 453.922 0.893652 -1.80488 0
M  V30 4751 C 450.987 1.23348 -3.24016 0
M  V30 4752 C 450.048 0.529883 -4.26017 0
M  V30 4753 C 449.281 1.50435 -5.12059 0
M  V30 4754 O 449.504 2.73837 -5.00369 0
M  V30 4755 O 448.438 1.03459 -5.92942 0
M  V30 4756 H 452.264 -0.493605 -2.99662 0
M  V30 4757 H 449.849 -0.307427 -1.46203 0
M  V30 4758 H 451.731 1.82438 -3.79861 0
M  V30 4759 H 450.406 1.91945 -2.60651 0
M  V30 4760 H 449.313 -0.101948 -3.73961 0
M  V30 4761 H 450.646 -0.11445 -4.92067 0
M  V30 4762 N 452.299 1.55045 -0.282633 0
M  V30 4763 C 453.246 2.22822 0.601566 0
M  V30 4764 C 454.216 1.20431 1.14392 0
M  V30 4765 O 455.401 1.48996 1.19184 0
M  V30 4766 C 452.541 2.95873 1.77632 0
M  V30 4767 C 451.654 4.12999 1.26711 0
M  V30 4768 C 450.789 4.73676 2.40426 0
M  V30 4769 C 449.828 5.82981 1.86545 0
M  V30 4770 N 448.965 6.3769 2.93762 0
M  V30 4771 H 453.805 2.97995 0.0169528 0
M  V30 4772 H 451.342 1.471 -0.00339964 0
M  V30 4773 H 453.3 3.36447 2.46697 0
M  V30 4774 H 451.93 2.2311 2.33285 0
M  V30 4775 H 450.982 3.77494 0.469314 0
M  V30 4776 H 452.294 4.91803 0.832518 0
M  V30 4777 H 451.448 5.17008 3.17471 0
M  V30 4778 H 450.187 3.94164 2.87203 0
M  V30 4779 H 449.192 5.39092 1.07983 0
M  V30 4780 H 450.417 6.64366 1.40694 0
M  V30 4781 H 448.363 5.61069 3.39908 0
M  V30 4782 H 448.28 7.11788 2.54744 0
M  V30 4783 H 449.548 6.8568 3.7076 0
M  V30 4784 N 453.777 0.010035 1.57597 0
M  V30 4785 C 455.024 -0.6727 1.91 0
M  V30 4786 C 455.352 -1.73219 0.884614 0
M  V30 4787 O 454.607 -1.95395 -0.109215 0
M  V30 4788 C 454.906 -1.34434 3.31153 0
M  V30 4789 C 454.572 -0.417083 4.48967 0
M  V30 4790 C 453.234 -0.161809 4.80928 0
M  V30 4791 C 455.586 0.220753 5.20732 0
M  V30 4792 C 452.914 0.739426 5.82022 0
M  V30 4793 C 455.266 1.10993 6.22787 0
M  V30 4794 C 453.93 1.37428 6.532 0
M  V30 4795 H 453.2 -0.246158 0.698918 0
M  V30 4796 H 455.847 0.0677145 1.9138 0
M  V30 4797 H 454.152 -2.15905 3.26944 0
M  V30 4798 H 455.849 -1.87883 3.54261 0
M  V30 4799 H 452.439 -0.626217 4.24001 0
M  V30 4800 H 456.623 0.0365643 4.96287 0
M  V30 4801 H 451.879 0.952139 6.03941 0
M  V30 4802 H 456.053 1.61046 6.77523 0
M  V30 4803 H 453.68 2.0743 7.31353 0
M  V30 4804 N 455.255 -1.55392 -0.262866 0
M  V30 4805 C 456.48 -1.80847 -1.01533 0
M  V30 4806 C 456.905 -0.584946 -1.78774 0
M  V30 4807 O 456.263 0.465701 -1.75217 0
M  V30 4808 C 456.311 -3.03866 -1.94159 0
M  V30 4809 O 455.415 -2.79662 -3.03089 0
M  V30 4810 H 454.756 -0.597441 -0.289759 0
M  V30 4811 H 457.286 -2.02553 -0.288698 0
M  V30 4812 H 457.296 -3.32872 -2.35924 0
M  V30 4813 H 455.971 -3.92564 -1.37354 0
M  V30 4814 H 454.548 -2.61781 -2.65566 0
M  V30 4815 N 456.733 0.527833 -1.48498 0
M  V30 4816 C 457.643 1.65907 -1.65867 0
M  V30 4817 C 458.659 1.6537 -0.541192 0
M  V30 4818 O 459.835 1.84282 -0.812534 0
M  V30 4819 C 456.9 3.02364 -1.69637 0
M  V30 4820 C 455.961 3.1374 -2.93028 0
M  V30 4821 C 455.194 4.43688 -2.96609 0
M  V30 4822 O 455.417 5.30913 -2.08538 0
M  V30 4823 O 454.351 4.59475 -3.88802 0
M  V30 4824 H 458.177 1.5419 -2.61647 0
M  V30 4825 H 455.762 0.701163 -1.31924 0
M  V30 4826 H 457.644 3.83515 -1.74625 0
M  V30 4827 H 456.319 3.14401 -0.770312 0
M  V30 4828 H 455.226 2.31877 -2.93571 0
M  V30 4829 H 456.559 3.06621 -3.85026 0
M  V30 4830 N 458.211 1.37122 0.776871 0
M  V30 4831 C 459.457 1.32243 1.53752 0
M  V30 4832 C 459.79 -0.0944745 1.9397 0
M  V30 4833 O 459.065 -1.05068 1.6368 0
M  V30 4834 C 459.348 2.25681 2.80607 0
M  V30 4835 C 459.201 3.76127 2.46676 0
M  V30 4836 C 460.52 2.17657 3.82509 0
M  V30 4837 H 457.639 0.481704 0.557791 0
M  V30 4838 H 460.281 1.6778 0.891612 0
M  V30 4839 H 458.431 1.95505 3.35723 0
M  V30 4840 H 460.103 4.16877 1.97513 0
M  V30 4841 H 458.346 3.94946 1.79443 0
M  V30 4842 H 459.017 4.36933 3.37333 0
M  V30 4843 H 461.493 2.44245 3.36873 0
M  V30 4844 H 460.369 2.85185 4.69 0
M  V30 4845 H 460.63 1.16785 4.26396 0
M  V30 4846 N 459.689 -1.00246 1.21608 0
M  V30 4847 C 460.619 -2.10921 1.00172 0
M  V30 4848 C 461.6 -1.69938 -0.0741587 0
M  V30 4849 O 462.785 -1.94009 0.0861753 0
M  V30 4850 C 459.915 -3.42618 0.568355 0
M  V30 4851 C 458.869 -3.97407 1.58909 0
M  V30 4852 C 458.195 -5.25038 1.01187 0
M  V30 4853 C 459.495 -4.2918 2.97661 0
M  V30 4854 H 461.189 -2.29112 1.92739 0
M  V30 4855 H 458.735 -1.10101 0.928102 0
M  V30 4856 H 460.688 -4.19444 0.405555 0
M  V30 4857 H 459.412 -3.24227 -0.392961 0
M  V30 4858 H 458.071 -3.22703 1.73949 0
M  V30 4859 H 457.719 -5.02982 0.0421965 0
M  V30 4860 H 457.419 -5.62661 1.6937 0
M  V30 4861 H 458.943 -6.04507 0.860448 0
M  V30 4862 H 460.357 -4.96839 2.86049 0
M  V30 4863 H 458.754 -4.77952 3.6288 0
M  V30 4864 H 459.824 -3.3735 3.48315 0
M  V30 4865 N 461.167 -1.02423 -1.1978 0
M  V30 4866 C 462.114 -0.601023 -2.22837 0
M  V30 4867 C 463.084 0.382801 -1.61629 0
M  V30 4868 O 464.269 0.280514 -1.88727 0
M  V30 4869 C 461.409 0.0467755 -3.45068 0
M  V30 4870 C 460.522 -0.98253 -4.20678 0
M  V30 4871 C 459.657 -0.304982 -5.30324 0
M  V30 4872 C 458.696 -1.32052 -5.97686 0
M  V30 4873 N 457.833 -0.669105 -6.98904 0
M  V30 4874 H 462.673 -1.48444 -2.58396 0
M  V30 4875 H 460.21 -0.742936 -1.2696 0
M  V30 4876 H 462.168 0.439556 -4.14878 0
M  V30 4877 H 460.798 0.893796 -3.10179 0
M  V30 4878 H 459.85 -1.49341 -3.49859 0
M  V30 4879 H 461.162 -1.75455 -4.66923 0
M  V30 4880 H 460.316 0.142893 -6.06532 0
M  V30 4881 H 459.055 0.499283 -4.85138 0
M  V30 4882 H 458.06 -1.7787 -5.20233 0
M  V30 4883 H 459.285 -2.1262 -6.44957 0
M  V30 4884 H 457.231 0.115152 -6.55899 0
M  V30 4885 H 457.148 -1.37908 -7.43315 0
M  V30 4886 H 458.416 -0.245076 -7.79115 0
M  V30 4887 N 462.645 1.35699 -0.801477 0
M  V30 4888 C 464.061 1.52065 -0.484596 0
M  V30 4889 C 464.261 1.75215 0.995084 0
M  V30 4890 O 463.317 1.79061 1.78026 0
M  V30 4891 C 464.63 2.69908 -1.32552 0
M  V30 4892 C 466.178 2.83784 -1.32044 0
M  V30 4893 C 466.653 4.04646 -2.14536 0
M  V30 4894 N 468.144 4.11814 -2.12046 0
M  V30 4895 C 468.879 5.04437 -2.72636 0
M  V30 4896 N 468.375 6.02426 -3.42133 0
M  V30 4897 N 470.168 4.97144 -2.62305 0
M  V30 4898 H 462.319 1.18928 -1.75983 0
M  V30 4899 H 464.582 0.581455 -0.748741 0
M  V30 4900 H 464.288 2.59363 -2.37537 0
M  V30 4901 H 464.162 3.64376 -0.975181 0
M  V30 4902 H 466.549 2.93783 -0.27846 0
M  V30 4903 H 466.63 1.90188 -1.71062 0
M  V30 4904 H 466.274 3.95407 -3.18772 0
M  V30 4905 H 466.204 4.97413 -1.72882 0
M  V30 4906 H 468.695 3.41664 -1.61476 0
M  V30 4907 H 469.008 6.69688 -3.85666 0
M  V30 4908 H 467.353 6.02615 -3.46237 0
M  V30 4909 H 470.544 4.19546 -2.07603 0
M  V30 4910 H 470.717 5.69138 -3.09815 0
M  V30 4911 N 464.123 0.554532 1.47522 0
M  V30 4912 C 465.053 -0.182974 2.32782 0
M  V30 4913 C 466.034 -0.911377 1.43624 0
M  V30 4914 O 467.219 -0.892366 1.72483 0
M  V30 4915 C 464.349 -1.21513 3.25349 0
M  V30 4916 C 463.303 -0.603355 4.23726 0
M  V30 4917 C 462.629 -1.73995 5.05598 0
M  V30 4918 C 463.929 0.441121 5.20434 0
M  V30 4919 H 465.623 0.52882 2.94693 0
M  V30 4920 H 463.169 0.255759 1.41711 0
M  V30 4921 H 465.122 -1.73922 3.83835 0
M  V30 4922 H 463.846 -1.95683 2.61487 0
M  V30 4923 H 462.505 -0.10059 3.66462 0
M  V30 4924 H 462.153 -2.47063 4.38143 0
M  V30 4925 H 461.853 -1.3364 5.72201 0
M  V30 4926 H 463.377 -2.26735 5.66942 0
M  V30 4927 H 464.791 0.00319931 5.733 0
M  V30 4928 H 463.188 0.763402 5.95224 0
M  V30 4929 H 464.258 1.33799 4.66075 0
M  V30 4930 N 465.601 -1.54893 0.290851 0
M  V30 4931 C 467.017 -1.59476 -0.0628432 0
M  V30 4932 C 467.217 -1.30795 -1.5328 0
M  V30 4933 O 466.273 -1.07644 -2.28406 0
M  V30 4934 C 467.586 -2.98928 0.325962 0
M  V30 4935 C 469.134 -3.11799 0.273882 0
M  V30 4936 C 469.609 -4.53544 0.637359 0
M  V30 4937 N 471.1 -4.59433 0.589507 0
M  V30 4938 C 471.835 -5.67164 0.84335 0
M  V30 4939 N 471.331 -6.82975 1.16263 0
M  V30 4940 N 473.124 -5.56786 0.771091 0
M  V30 4941 H 465.275 -1.71798 1.24896 0
M  V30 4942 H 467.538 -0.801879 0.505663 0
M  V30 4943 H 467.244 -3.24805 1.34887 0
M  V30 4944 H 467.118 -3.75793 -0.325441 0
M  V30 4945 H 469.505 -2.85677 -0.739765 0
M  V30 4946 H 469.586 -2.37112 0.959766 0
M  V30 4947 H 469.23 -4.80394 1.64877 0
M  V30 4948 H 469.16 -5.26553 -0.0704866 0
M  V30 4949 H 471.651 -3.76245 0.353252 0
M  V30 4950 H 471.964 -7.61048 1.34257 0
M  V30 4951 H 470.309 -6.84552 1.20057 0
M  V30 4952 H 473.5 -4.65187 0.521383 0
M  V30 4953 H 473.673 -6.40664 0.972295 0
M  V30 4954 N 467.08 -0.0183926 -1.57589 0
M  V30 4955 C 468.01 0.965596 -2.12599 0
M  V30 4956 C 468.991 1.34641 -1.0395 0
M  V30 4957 O 470.176 1.42693 -1.31729 0
M  V30 4958 C 467.306 2.25149 -2.64434 0
M  V30 4959 C 466.26 2.01175 -3.77773 0
M  V30 4960 C 465.586 3.35937 -4.15994 0
M  V30 4961 C 466.886 1.35953 -5.04296 0
M  V30 4962 H 468.58 0.507504 -2.95067 0
M  V30 4963 H 466.126 0.242671 -1.41941 0
M  V30 4964 H 468.079 2.94357 -3.01549 0
M  V30 4965 H 466.803 2.73105 -1.79112 0
M  V30 4966 H 465.462 1.34388 -3.4108 0
M  V30 4967 H 465.11 3.81631 -3.27669 0
M  V30 4968 H 464.81 3.20705 -4.92364 0
M  V30 4969 H 466.334 4.0643 -4.55683 0
M  V30 4970 H 467.748 1.95144 -5.39065 0
M  V30 4971 H 466.145 1.31152 -5.85593 0
M  V30 4972 H 467.215 0.331071 -4.83768 0
M  V30 4973 N 468.558 1.5553 0.254621 0
M  V30 4974 C 469.49 1.86104 1.33783 0
M  V30 4975 C 470.503 0.746752 1.44663 0
M  V30 4976 O 471.692 1.0248 1.46151 0
M  V30 4977 C 468.792 2.02532 2.71724 0
M  V30 4978 C 467.965 3.33335 2.83208 0
M  V30 4979 C 467.024 3.396 4.01943 0
M  V30 4980 O 466.05 4.12862 3.91834 0
M  V30 4981 N 467.252 2.68332 5.1476 0
M  V30 4982 H 470.017 2.79605 1.07893 0
M  V30 4983 H 467.578 1.55672 0.444732 0
M  V30 4984 H 469.57 2.04074 3.4948 0
M  V30 4985 H 468.14 1.15811 2.90356 0
M  V30 4986 H 467.36 3.44176 1.92189 0
M  V30 4987 H 468.648 4.19565 2.87824 0
M  V30 4988 H 468.046 2.08528 5.25864 0
M  V30 4989 H 466.603 2.75575 5.90679 0
M  V30 4990 N 470.036 -0.519951 1.48776 0
M  V30 4991 C 470.983 -1.62352 1.64044 0
M  V30 4992 C 471.953 -1.58945 0.482251 0
M  V30 4993 O 473.138 -1.77219 0.706971 0
M  V30 4994 C 470.278 -3.00579 1.69547 0
M  V30 4995 C 469.391 -3.14145 2.96541 0
M  V30 4996 C 468.526 -4.42991 2.93142 0
M  V30 4997 C 467.565 -4.50122 4.14797 0
M  V30 4998 N 466.702 -5.7037 4.09418 0
M  V30 4999 H 471.542 -1.48643 2.58281 0
M  V30 5000 H 469.079 -0.723516 1.28077 0
M  V30 5001 H 471.037 -3.80671 1.70719 0
M  V30 5002 H 469.667 -3.13036 0.787918 0
M  V30 5003 H 468.719 -2.27239 3.05068 0
M  V30 5004 H 470.031 -3.15275 3.86527 0
M  V30 5005 H 469.185 -5.31385 2.92772 0
M  V30 5006 H 467.924 -4.44398 2.00902 0
M  V30 5007 H 466.929 -3.60133 4.15433 0
M  V30 5008 H 468.154 -4.50445 5.08208 0
M  V30 5009 H 466.1 -5.72655 3.20004 0
M  V30 5010 H 466.017 -5.73036 4.93119 0
M  V30 5011 H 467.285 -6.61023 4.13121 0
M  V30 5012 N 471.514 -1.37532 -0.769588 0
M  V30 5013 C 472.93 -1.18379 -1.07045 0
M  V30 5014 C 473.13 -0.0214312 -2.01489 0
M  V30 5015 O 472.186 0.637809 -2.44312 0
M  V30 5016 C 473.499 -2.50338 -1.66588 0
M  V30 5017 C 475.047 -2.56879 -1.78835 0
M  V30 5018 C 475.522 -3.88974 -2.41792 0
M  V30 5019 N 477.013 -3.90428 -2.4924 0
M  V30 5020 C 477.748 -4.89388 -2.98809 0
M  V30 5021 N 477.244 -5.98745 -3.48535 0
M  V30 5022 N 479.037 -4.76791 -2.97703 0
M  V30 5023 H 471.188 -2.11921 -0.142541 0
M  V30 5024 H 473.451 -0.939608 -0.125863 0
M  V30 5025 H 473.157 -3.35767 -1.0466 0
M  V30 5026 H 473.031 -2.67583 -2.65856 0
M  V30 5027 H 475.418 -1.71856 -2.39895 0
M  V30 5028 H 475.499 -2.43516 -0.783166 0
M  V30 5029 H 475.143 -4.74412 -1.81371 0
M  V30 5030 H 475.073 -3.99641 -3.4292 0
M  V30 5031 H 477.564 -3.11433 -2.14052 0
M  V30 5032 H 477.877 -6.70205 -3.84767 0
M  V30 5033 H 476.222 -6.02387 -3.46634 0
M  V30 5034 H 479.413 -3.90478 -2.58157 0
M  V30 5035 H 479.586 -5.54069 -3.36024 0
M  V30 5036 N 472.992 0.995999 -1.22138 0
M  V30 5037 C 474.24 1.73167 -1.042 0
M  V30 5038 C 474.561 1.90329 0.42423 0
M  V30 5039 O 473.831 1.4607 1.30539 0
M  V30 5040 H 472.411 0.641593 -0.38258 0
M  V30 5041 H 475.073 1.19974 -1.53598 0
M  V30 5042 H 474.169 2.72734 -1.51731 0
M  V30 5043 N 474.47 1.03057 1.19235 0
M  V30 5044 C 475.698 0.747697 1.92917 0
M  V30 5045 C 476.113 -0.69372 1.75593 0
M  V30 5046 O 475.47 -1.47191 1.07894 0
M  V30 5047 C 475.521 1.09159 3.44625 0
M  V30 5048 O 475.242 2.47641 3.61394 0
M  V30 5049 C 476.743 0.831763 4.35427 0
M  V30 5050 H 473.963 0.273453 0.612751 0
M  V30 5051 H 476.507 1.37552 1.51327 0
M  V30 5052 H 474.662 0.508919 3.84043 0
M  V30 5053 H 475.076 2.60499 4.55237 0
M  V30 5054 H 476.55 1.12233 5.4047 0
M  V30 5055 H 477.027 -0.233769 4.38577 0
M  V30 5056 H 477.633 1.39725 4.01693 0
M  V30 5057 N 475.948 -1.35272 0.808662 0
M  V30 5058 C 477.196 -1.98316 0.389233 0
M  V30 5059 C 477.517 -1.64465 -1.04767 0
M  V30 5060 O 476.787 -0.928175 -1.72516 0
M  V30 5061 H 475.367 -0.733585 0.140935 0
M  V30 5062 H 478.029 -1.6515 1.03496 0
M  V30 5063 H 477.125 -3.08123 0.496631 0
M  V30 5064 N 477.426 -0.562348 -1.47226 0
M  V30 5065 C 478.674 -0.0401371 -2.0206 0
M  V30 5066 C 478.995 1.3165 -1.43852 0
M  V30 5067 O 478.265 1.85976 -0.615599 0
M  V30 5068 H 476.845 -0.0118479 -0.746906 0
M  V30 5069 H 479.507 -0.73352 -1.8057 0
M  V30 5070 H 478.603 0.0441254 -3.12069 0
M  V30 5071 N 478.904 1.54736 -0.299062 0
M  V30 5072 C 480.15 2.00397 0.311244 0
M  V30 5073 C 480.483 1.18716 1.53688 0
M  V30 5074 O 479.758 0.263154 1.92712 0
M  V30 5075 C 480.041 3.53817 0.669761 0
M  V30 5076 C 479.894 4.46239 -0.564882 0
M  V30 5077 C 481.213 4.13856 1.49702 0
M  V30 5078 H 478.332 0.728493 0.111653 0
M  V30 5079 H 480.974 1.85506 -0.410774 0
M  V30 5080 H 479.124 3.66637 1.28491 0
M  V30 5081 H 480.796 4.45328 -1.20337 0
M  V30 5082 H 479.039 4.16916 -1.19849 0
M  V30 5083 H 479.71 5.5134 -0.269918 0
M  V30 5084 H 482.186 4.04461 0.977284 0
M  V30 5085 H 481.062 5.21365 1.71666 0
M  V30 5086 H 481.323 3.65608 2.48563 0
M  V30 5087 N 480.382 0.0267497 1.57577 0
M  V30 5088 C 481.659 -0.690926 1.82991 0
M  V30 5089 C 482.039 -1.90471 0.910164 0
M  V30 5090 O 481.387 -2.28474 -0.0347985 0
M  V30 5091 C 481.597 -1.07139 3.32148 0
M  V30 5092 C 482.945 -1.46402 3.98562 0
M  V30 5093 O 483.969 -1.16443 3.36629 0
M  V30 5094 O 482.828 -2.02214 5.07712 0
M  V30 5095 H 479.922 -0.338747 0.75444 0
M  V30 5096 H 482.468 0.0542506 1.69613 0
M  V30 5097 H 481.24 -0.207394 3.9075 0
M  V30 5098 H 480.863 -1.87481 3.50623 0
M  V30 5099 N 481.861 -1.55662 -0.24637 0
M  V30 5100 C 483.089 -1.81575 -0.991876 0
M  V30 5101 C 483.504 -0.602545 -1.78927 0
M  V30 5102 O 482.861 0.428795 -1.77391 0
M  V30 5103 C 482.912 -3.05711 -1.92933 0
M  V30 5104 O 482.633 -4.22348 -1.1642 0
M  V30 5105 C 484.134 -3.44428 -2.79078 0
M  V30 5106 H 481.354 -0.604209 -0.291844 0
M  V30 5107 H 483.898 -2.02722 -0.269095 0
M  V30 5108 H 482.053 -2.86612 -2.60638 0
M  V30 5109 H 482.467 -4.92706 -1.79835 0
M  V30 5110 H 483.941 -4.34388 -3.40603 0
M  V30 5111 H 484.418 -2.65037 -3.50217 0
M  V30 5112 H 485.024 -3.65879 -2.16824 0
M  V30 5113 N 483.339 0.512053 -1.4905 0
M  V30 5114 C 484.302 1.59704 -1.64399 0
M  V30 5115 C 485.302 1.52285 -0.516317 0
M  V30 5116 O 486.492 1.55635 -0.782527 0
M  V30 5117 C 483.624 2.9935 -1.63102 0
M  V30 5118 H 484.817 1.47428 -2.61161 0
M  V30 5119 H 482.37 0.735469 -1.37915 0
M  V30 5120 H 483.105 3.17116 -0.678836 0
M  V30 5121 H 482.89 3.06144 -2.44986 0
M  V30 5122 H 484.38 3.782 -1.77072 0
M  V30 5123 N 484.817 1.37938 0.762283 0
M  V30 5124 C 485.78 1.34279 1.85747 0
M  V30 5125 C 486.78 0.244969 1.58923 0
M  V30 5126 O 487.97 0.501365 1.66829 0
M  V30 5127 C 485.102 1.08833 3.23061 0
M  V30 5128 H 486.295 2.31705 1.90401 0
M  V30 5129 H 483.848 1.23105 0.963057 0
M  V30 5130 H 484.583 0.119767 3.24079 0
M  V30 5131 H 484.368 1.88306 3.43923 0
M  V30 5132 H 485.858 1.08946 4.03138 0
M  V30 5133 N 486.295 -0.989507 1.22664 0
M  V30 5134 C 487.541 -1.7321 1.05481 0
M  V30 5135 C 487.874 -1.89852 -0.408635 0
M  V30 5136 O 487.149 -1.44416 -1.30285 0
M  V30 5137 C 487.432 -3.1357 1.77047 0
M  V30 5138 C 487.285 -3.04555 3.31008 0
M  V30 5139 C 488.604 -4.12812 1.5256 0
M  V30 5140 H 485.723 -0.628697 0.384589 0
M  V30 5141 H 488.365 -1.15258 1.51049 0
M  V30 5142 H 486.515 -3.63046 1.3831 0
M  V30 5143 H 488.187 -2.62674 3.7921 0
M  V30 5144 H 486.43 -2.41278 3.6051 0
M  V30 5145 H 487.101 -4.03894 3.76263 0
M  V30 5146 H 489.577 -3.72106 1.86215 0
M  V30 5147 H 488.453 -5.09132 2.05124 0
M  V30 5148 H 488.714 -4.39711 0.458936 0
M  V30 5149 N 487.773 -1.03688 -1.18687 0
M  V30 5150 C 489.021 -0.736572 -1.88199 0
M  V30 5151 C 489.342 0.737665 -1.80509 0
M  V30 5152 O 488.612 1.53204 -1.22088 0
M  V30 5153 H 487.192 -0.269466 -0.696704 0
M  V30 5154 H 489.854 -1.31282 -1.44052 0
M  V30 5155 H 488.95 -1.03802 -2.94332 0
M  V30 5156 N 489.251 1.34841 -0.815825 0
M  V30 5157 C 490.499 1.98107 -0.399744 0
M  V30 5158 C 490.82 1.65019 1.03894 0
M  V30 5159 O 490.09 0.937311 1.72021 0
M  V30 5160 H 488.67 0.732827 -0.144823 0
M  V30 5161 H 491.332 1.64599 -1.0437 0
M  V30 5162 H 490.428 3.07856 -0.512965 0
M  V30 5163 N 490.729 0.570148 1.46925 0
M  V30 5164 C 491.975 0.0510284 2.02736 0
M  V30 5165 C 492.308 -1.3006 1.44215 0
M  V30 5166 O 491.583 -1.84932 0.602521 0
M  V30 5167 C 491.866 -0.028215 3.60089 0
M  V30 5168 C 491.719 1.35142 4.29018 0
M  V30 5169 C 493.038 -0.735181 4.33916 0
M  V30 5170 H 490.157 0.0200178 0.736728 0
M  V30 5171 H 492.799 0.73493 1.75211 0
M  V30 5172 H 490.949 -0.610648 3.83671 0
M  V30 5173 H 492.621 1.97806 4.16738 0
M  V30 5174 H 490.864 1.9226 3.88868 0
M  V30 5175 H 491.535 1.24857 5.37694 0
M  V30 5176 H 494.011 -0.240519 4.15404 0
M  V30 5177 H 492.887 -0.759622 5.43618 0
M  V30 5178 H 493.148 -1.79397 4.04066 0
M  V30 5179 N 492.207 -1.54576 0.307264 0
M  V30 5180 C 493.454 -2.00263 -0.300167 0
M  V30 5181 C 493.782 -1.19561 -1.53413 0
M  V30 5182 O 493.037 -0.261487 -1.93945 0
M  V30 5183 C 493.336 -3.50572 -0.695253 0
M  V30 5184 C 493.002 -4.48771 0.437679 0
M  V30 5185 C 491.664 -4.7534 0.748681 0
M  V30 5186 C 494.016 -5.0721 1.19949 0
M  V30 5187 C 491.344 -5.5761 1.8245 0
M  V30 5188 C 493.696 -5.90651 2.26527 0
M  V30 5189 C 492.36 -6.15528 2.58227 0
M  V30 5190 H 491.63 -0.732814 -0.109839 0
M  V30 5191 H 494.277 -1.86664 0.427661 0
M  V30 5192 H 492.582 -3.61814 -1.50326 0
M  V30 5193 H 494.279 -3.83352 -1.17653 0
M  V30 5194 H 490.869 -4.282 0.185187 0
M  V30 5195 H 495.053 -4.86679 0.972474 0
M  V30 5196 H 490.309 -5.75121 2.07476 0
M  V30 5197 H 494.483 -6.34957 2.86011 0
M  V30 5198 H 492.11 -6.79066 3.4172 0
M  V30 5199 N 493.685 -0.035106 -1.57561 0
M  V30 5200 C 494.962 0.681212 -1.83354 0
M  V30 5201 C 495.342 1.89986 -0.920252 0
M  V30 5202 O 494.69 2.28489 0.0226815 0
M  V30 5203 C 494.9 1.05376 -3.32712 0
M  V30 5204 C 496.248 1.44286 -3.99333 0
M  V30 5205 O 497.272 1.14656 -3.37242 0
M  V30 5206 O 496.131 1.99518 -5.08778 0
M  V30 5207 H 493.225 0.334741 -0.756226 0
M  V30 5208 H 495.771 -0.0632448 -1.69582 0
M  V30 5209 H 494.543 0.186668 -3.90854 0
M  V30 5210 H 494.166 1.85619 -3.51613 0
M  V30 5211 N 495.163 1.55791 0.238111 0
M  V30 5212 C 496.409 1.78297 0.966337 0
M  V30 5213 C 496.742 0.601903 1.84637 0
M  V30 5214 O 496.017 -0.399499 1.90353 0
M  V30 5215 C 496.3 3.10758 1.81939 0
M  V30 5216 C 496.153 4.39283 0.966958 0
M  V30 5217 C 497.472 3.39519 2.80027 0
M  V30 5218 H 494.591 0.648654 0.349882 0
M  V30 5219 H 497.233 1.88525 0.236253 0
M  V30 5220 H 495.383 3.02168 2.44185 0
M  V30 5221 H 497.055 4.59873 0.362514 0
M  V30 5222 H 495.298 4.32948 0.271669 0
M  V30 5223 H 495.969 5.28368 1.59784 0
M  V30 5224 H 498.445 3.48128 2.27917 0
M  V30 5225 H 497.321 4.33402 3.36829 0
M  V30 5226 H 497.582 2.60864 3.56934 0
M  V30 5227 N 496.642 -0.504142 1.49319 0
M  V30 5228 C 497.867 -1.28729 1.62615 0
M  V30 5229 C 498.292 -1.85752 0.296309 0
M  V30 5230 O 497.65 -1.65704 -0.735649 0
M  V30 5231 C 497.698 -2.39561 2.69524 0
M  V30 5232 O 496.802 -3.43324 2.28478 0
M  V30 5233 H 496.143 -0.380172 0.544395 0
M  V30 5234 H 498.673 -0.603872 1.95485 0
M  V30 5235 H 498.683 -2.8537 2.91595 0
M  V30 5236 H 497.358 -1.97423 3.66056 0
M  V30 5237 H 495.935 -3.03455 2.16725 0
M  V30 5238 N 498.12 -1.38341 -0.754957 0
M  V30 5239 C 499.068 -1.35573 -1.89005 0
M  V30 5240 C 500.062 -0.241824 -1.67665 0
M  V30 5241 O 501.268 -0.410785 -1.7525 0
M  V30 5242 H 497.643 -0.422898 -0.621821 0
M  V30 5243 H 499.614 -2.31359 -1.88455 0
M  V30 5244 C 498.363 -1.19631 -3.26471 0
M  V30 5245 H 497.686 -2.04605 -3.43477 0
M  V30 5246 H 499.126 -1.21748 -4.06144 0
M  V30 5247 C 497.585 0.0968705 -3.36761 0
M  V30 5248 O 498.115 1.07439 -3.87066 0
M  V30 5249 N 496.321 0.153242 -2.90196 0
M  V30 5250 H 495.868 -0.642908 -2.49448 0
M  V30 5251 H 495.826 1.01807 -2.9746 0
M  V30 5252 N 499.598 0.982988 -1.23187 0
M  V30 5253 C 500.561 2.05649 -1.01198 0
M  V30 5254 C 501.561 1.6078 0.0252464 0
M  V30 5255 O 502.751 1.72878 -0.214243 0
M  V30 5256 C 499.883 3.36744 -0.530656 0
M  V30 5257 H 501.076 2.2659 -1.96461 0
M  V30 5258 H 498.629 1.15602 -1.05195 0
M  V30 5259 H 499.364 3.21492 0.425873 0
M  V30 5260 H 499.149 3.7065 -1.2791 0
M  V30 5261 H 500.639 4.15705 -0.397366 0
M  V30 5262 N 501.076 1.04316 1.18135 0
M  V30 5263 C 502.353 0.662166 1.84051 0
M  V30 5264 C 502.733 -0.858169 1.9287 0
M  V30 5265 O 502.081 -1.76062 1.45652 0
M  V30 5266 C 502.291 1.3409 3.22212 0
M  V30 5267 C 503.639 1.4733 3.9822 0
M  V30 5268 O 504.663 1.29921 3.31661 0
M  V30 5269 O 503.522 1.75722 5.17479 0
M  V30 5270 H 500.616 0.232005 0.79379 0
M  V30 5271 H 503.162 1.1422 1.25506 0
M  V30 5272 H 501.934 2.37853 3.10711 0
M  V30 5273 H 501.557 0.849649 3.88416 0
M  V30 5274 N 502.554 -1.34406 0.822964 0
M  V30 5275 C 503.97 -1.51275 0.508727 0
M  V30 5276 C 504.17 -1.76776 -0.967083 0
M  V30 5277 O 503.226 -1.81871 -1.75155 0
M  V30 5278 C 504.539 -2.67765 1.36829 0
M  V30 5279 C 506.087 -2.81647 1.36542 0
M  V30 5280 C 506.562 -4.01181 2.20947 0
M  V30 5281 N 508.053 -4.08388 2.18571 0
M  V30 5282 C 508.788 -5.00036 2.80627 0
M  V30 5283 N 508.284 -5.96906 3.51674 0
M  V30 5284 N 510.077 -4.92908 2.70181 0
M  V30 5285 H 502.228 -1.16113 1.77852 0
M  V30 5286 H 504.491 -0.56947 0.757897 0
M  V30 5287 H 504.197 -2.55551 2.41633 0
M  V30 5288 H 504.071 -3.62779 1.03303 0
M  V30 5289 H 506.458 -2.93303 0.325163 0
M  V30 5290 H 506.539 -1.87443 1.74066 0
M  V30 5291 H 506.183 -3.90286 3.25022 0
M  V30 5292 H 506.113 -4.94599 1.80774 0
M  V30 5293 H 508.604 -3.39051 1.66891 0
M  V30 5294 H 508.917 -6.63468 3.96271 0
M  V30 5295 H 507.262 -5.9703 3.5578 0
M  V30 5296 H 510.453 -4.1619 2.14251 0
M  V30 5297 H 510.626 -5.64137 3.18831 0
M  V30 5298 N 504.032 -0.577932 -1.46621 0
M  V30 5299 C 504.962 0.145917 -2.33044 0
M  V30 5300 C 505.943 0.888412 -1.45056 0
M  V30 5301 O 507.128 0.864812 -1.73881 0
M  V30 5302 C 504.258 1.16322 -3.27241 0
M  V30 5303 C 503.212 0.535868 -4.24632 0
M  V30 5304 C 502.538 1.65929 -5.08303 0
M  V30 5305 C 503.838 -0.523861 -5.19666 0
M  V30 5306 H 505.532 -0.575636 -2.93814 0
M  V30 5307 H 503.078 -0.278272 -1.41286 0
M  V30 5308 H 505.031 1.67793 -3.86553 0
M  V30 5309 H 503.755 1.91498 -2.64567 0
M  V30 5310 H 502.414 0.0422759 -3.66576 0
M  V30 5311 H 502.062 2.40061 -4.42018 0
M  V30 5312 H 501.762 1.2452 -5.74255 0
M  V30 5313 H 503.286 2.17686 -5.70478 0
M  V30 5314 H 504.7 -0.0944059 -5.73222 0
M  V30 5315 H 503.097 -0.858 -5.93935 0
M  V30 5316 H 504.167 -1.41197 -4.63887 0
M  V30 5317 N 505.51 1.54411 -0.315457 0
M  V30 5318 C 506.758 2.00023 0.288971 0
M  V30 5319 C 507.079 1.20529 1.5329 0
M  V30 5320 O 506.349 0.304986 1.93511 0
M  V30 5321 H 504.929 0.738891 0.109766 0
M  V30 5322 H 507.591 1.90094 -0.430129 0
M  V30 5323 H 506.687 3.07198 0.550999 0
M  V30 5324 N 506.988 0.0434614 1.5754 0
M  V30 5325 C 508.235 -0.632035 1.92384 0
M  V30 5326 C 508.563 -1.71304 0.921157 0
M  V30 5327 O 507.818 -1.95583 -0.067744 0
M  V30 5328 C 508.117 -1.2738 3.3393 0
M  V30 5329 C 507.783 -0.321757 4.49751 0
M  V30 5330 C 506.445 -0.0597611 4.81163 0
M  V30 5331 C 508.797 0.331158 5.20147 0
M  V30 5332 C 506.125 0.862715 5.80322 0
M  V30 5333 C 508.477 1.24178 6.20292 0
M  V30 5334 C 507.141 1.51252 6.50138 0
M  V30 5335 H 506.411 -0.231278 0.703983 0
M  V30 5336 H 509.058 0.108294 1.91194 0
M  V30 5337 H 507.363 -2.08921 3.3145 0
M  V30 5338 H 509.06 -1.80326 3.58167 0
M  V30 5339 H 505.65 -0.53614 4.25233 0
M  V30 5340 H 509.834 0.141826 4.96097 0
M  V30 5341 H 505.09 1.08003 6.01785 0
M  V30 5342 H 509.264 1.75381 6.73954 0
M  V30 5343 H 506.891 2.22897 7.26788 0
M  V30 5344 N 508.466 -1.55915 -0.229846 0
M  V30 5345 C 509.691 -1.8296 -0.976743 0
M  V30 5346 C 510.116 -0.622735 -1.77493 0
M  V30 5347 O 509.474 0.428431 -1.76165 0
M  V30 5348 C 509.522 -3.07916 -1.8767 0
M  V30 5349 O 508.626 -2.86028 -2.97088 0
M  V30 5350 H 507.967 -0.603453 -0.277021 0
M  V30 5351 H 510.497 -2.0312 -0.245669 0
M  V30 5352 H 510.507 -3.37802 -2.2881 0
M  V30 5353 H 509.182 -3.95389 -1.28996 0
M  V30 5354 H 507.759 -2.67355 -2.59954 0
M  V30 5355 N 509.944 0.496216 -1.49584 0
M  V30 5356 C 510.854 1.62352 -1.69349 0
M  V30 5357 C 511.87 1.64184 -0.576147 0
M  V30 5358 O 513.046 1.82517 -0.85144 0
M  V30 5359 C 510.111 2.98698 -1.76013 0
M  V30 5360 C 509.172 3.07454 -2.99617 0
M  V30 5361 C 508.405 4.37296 -3.05953 0
M  V30 5362 O 508.628 5.2637 -2.19752 0
M  V30 5363 O 507.562 4.51124 -3.9846 0
M  V30 5364 H 511.388 1.48606 -2.64859 0
M  V30 5365 H 508.973 0.673022 -1.33382 0
M  V30 5366 H 510.855 3.79725 -1.82721 0
M  V30 5367 H 509.53 3.12696 -0.836828 0
M  V30 5368 H 508.437 2.25597 -2.98424 0
M  V30 5369 H 509.77 2.98385 -3.91443 0
M  V30 5370 N 511.423 1.38739 0.74761 0
M  V30 5371 C 512.669 1.35475 1.50912 0
M  V30 5372 C 513.002 -0.0533093 1.94127 0
M  V30 5373 O 512.277 -1.01572 1.65871 0
M  V30 5374 C 512.56 2.31582 2.75757 0
M  V30 5375 C 512.413 3.81274 2.38642 0
M  V30 5376 C 513.732 2.25722 3.77806 0
M  V30 5377 H 510.851 0.493427 0.547447 0
M  V30 5378 H 513.493 1.69634 0.855823 0
M  V30 5379 H 511.643 2.02582 3.31501 0
M  V30 5380 H 513.315 4.20972 1.88626 0
M  V30 5381 H 511.558 3.98664 1.71025 0
M  V30 5382 H 512.229 4.4399 3.27989 0
M  V30 5383 H 514.705 2.51336 3.31616 0
M  V30 5384 H 513.581 2.95069 4.62845 0
M  V30 5385 H 513.842 1.25803 4.23823 0
M  V30 5386 N 512.901 -0.976442 1.23707 0
M  V30 5387 C 513.811 -2.10359 1.03856 0
M  V30 5388 C 514.827 -1.73991 -0.0180919 0
M  V30 5389 O 516.003 -2.0061 0.178211 0
M  V30 5390 C 513.068 -3.40809 0.636387 0
M  V30 5391 C 512.129 -3.91179 1.76854 0
M  V30 5392 C 511.362 -5.15404 1.38546 0
M  V30 5393 O 511.585 -5.69754 0.27142 0
M  V30 5394 O 510.519 -5.5994 2.20797 0
M  V30 5395 H 514.345 -2.29997 1.98331 0
M  V30 5396 H 511.93 -1.08742 1.02448 0
M  V30 5397 H 513.812 -4.19269 0.423223 0
M  V30 5398 H 512.487 -3.22493 -0.279322 0
M  V30 5399 H 511.394 -3.13819 2.03638 0
M  V30 5400 H 512.727 -4.13958 2.6627 0
M  V30 5401 N 514.379 -1.04941 -1.1758 0
M  V30 5402 C 515.309 -0.669172 -2.23706 0
M  V30 5403 C 516.29 0.331835 -1.66832 0
M  V30 5404 O 517.475 0.209988 -1.93061 0
M  V30 5405 C 514.605 -0.0404889 -3.47276 0
M  V30 5406 C 513.559 -0.965983 -4.16957 0
M  V30 5407 C 512.885 -0.201312 -5.34321 0
M  V30 5408 C 514.185 -2.28902 -4.69469 0
M  V30 5409 H 515.879 -1.55639 -2.55767 0
M  V30 5410 H 513.425 -0.749793 -1.22939 0
M  V30 5411 H 515.378 0.237298 -4.20731 0
M  V30 5412 H 514.102 0.881658 -3.14475 0
M  V30 5413 H 512.761 -1.22829 -3.45411 0
M  V30 5414 H 512.409 0.723519 -4.97769 0
M  V30 5415 H 512.109 -0.817968 -5.81879 0
M  V30 5416 H 513.633 0.0692499 -6.10561 0
M  V30 5417 H 515.047 -2.07132 -5.34574 0
M  V30 5418 H 513.444 -2.85942 -5.27596 0
M  V30 5419 H 514.514 -2.92937 -3.86414 0
M  V30 5420 N 515.857 1.33968 -0.830081 0
M  V30 5421 C 517.103 1.98357 -0.422191 0
M  V30 5422 C 517.436 1.65633 1.01387 0
M  V30 5423 O 516.711 0.931648 1.70735 0
M  V30 5424 C 516.994 3.54492 -0.633043 0
M  V30 5425 C 516.847 3.96934 -2.11574 0
M  V30 5426 C 518.166 4.40039 -0.0735584 0
M  V30 5427 H 515.285 0.720544 -0.154871 0
M  V30 5428 H 517.927 1.58749 -1.04397 0
M  V30 5429 H 516.077 3.88361 -0.103775 0
M  V30 5430 H 517.749 3.73363 -2.7092 0
M  V30 5431 H 515.992 3.46984 -2.60354 0
M  V30 5432 H 516.663 5.05651 -2.21406 0
M  V30 5433 H 519.139 4.12764 -0.52585 0
M  V30 5434 H 518.015 5.48327 -0.250841 0
M  V30 5435 H 518.276 4.30124 1.02202 0
M  V30 5436 N 517.335 0.585699 1.46312 0
M  V30 5437 C 518.267 -0.183687 2.28463 0
M  V30 5438 C 519.28 -0.85264 1.38686 0
M  V30 5439 O 520.469 -0.721701 1.6326 0
M  V30 5440 C 517.569 -1.27977 3.13808 0
M  V30 5441 C 516.742 -0.702164 4.31727 0
M  V30 5442 C 515.801 -1.68633 4.98447 0
M  V30 5443 O 514.827 -1.22121 5.55945 0
M  V30 5444 N 516.029 -3.02047 4.95729 0
M  V30 5445 H 518.794 0.521127 2.95134 0
M  V30 5446 H 516.355 0.423673 1.56258 0
M  V30 5447 H 518.347 -1.9375 3.55307 0
M  V30 5448 H 516.917 -1.8874 2.4919 0
M  V30 5449 H 516.137 0.1331 3.93975 0
M  V30 5450 H 517.425 -0.296101 5.07938 0
M  V30 5451 H 516.823 -3.42457 4.50266 0
M  V30 5452 H 515.38 -3.63301 5.41161 0
M  V30 5453 N 518.813 -1.54241 0.323641 0
M  V30 5454 C 519.746 -2.20579 -0.584833 0
M  V30 5455 C 520.724 -1.18286 -1.11567 0
M  V30 5456 O 521.908 -1.47025 -1.17966 0
M  V30 5457 C 519.035 -2.86754 -1.80249 0
M  V30 5458 C 518.081 -4.02767 -1.4029 0
M  V30 5459 S 518.914 -5.33693 -0.439539 0
M  V30 5460 C 520.07 -6.03362 -1.66448 0
M  V30 5461 H 520.303 -2.97292 -0.0213238 0
M  V30 5462 H 517.836 -1.54024 0.107726 0
M  V30 5463 H 519.794 -3.25503 -2.50116 0
M  V30 5464 H 518.455 -2.09844 -2.33719 0
M  V30 5465 H 517.648 -4.47933 -2.31024 0
M  V30 5466 H 517.25 -3.65692 -0.783928 0
M  V30 5467 H 519.542 -6.25546 -2.6019 0
M  V30 5468 H 520.485 -6.9689 -1.25498 0
M  V30 5469 H 520.893 -5.33273 -1.85149 0
M  V30 5470 N 520.291 -0.0518155 -1.57515 0
M  V30 5471 C 521.537 0.622745 -1.93002 0
M  V30 5472 C 521.87 1.70456 -0.930499 0
M  V30 5473 O 521.145 1.94452 0.0434086 0
M  V30 5474 C 521.428 1.21824 -3.38867 0
M  V30 5475 C 521.281 0.144434 -4.49568 0
M  V30 5476 C 522.6 2.12968 -3.8514 0
M  V30 5477 H 519.719 0.22491 -0.701844 0
M  V30 5478 H 522.361 -0.113711 -1.89659 0
M  V30 5479 H 520.511 1.8459 -3.41846 0
M  V30 5480 H 522.183 -0.48753 -4.58717 0
M  V30 5481 H 520.426 -0.527424 -4.30582 0
M  V30 5482 H 521.097 0.601127 -5.48717 0
M  V30 5483 H 523.573 1.60163 -3.8404 0
M  V30 5484 H 522.449 2.51578 -4.87852 0
M  V30 5485 H 522.71 3.03004 -3.21934 0
M  V30 5486 N 521.769 1.56035 0.221574 0
M  V30 5487 C 523.015 1.79312 0.947372 0
M  V30 5488 C 523.348 0.621453 1.83988 0
M  V30 5489 O 522.623 -0.379287 1.90766 0
M  V30 5490 C 522.906 3.1267 1.78633 0
M  V30 5491 C 522.759 4.40284 0.920312 0
M  V30 5492 C 524.078 3.4247 2.7641 0
M  V30 5493 H 521.197 0.652328 0.342982 0
M  V30 5494 H 523.839 1.88765 0.216244 0
M  V30 5495 H 521.989 3.04741 2.40967 0
M  V30 5496 H 523.661 4.60232 0.313718 0
M  V30 5497 H 521.904 4.33212 0.225734 0
M  V30 5498 H 522.575 5.30033 1.54171 0
M  V30 5499 H 525.051 3.50526 2.24211 0
M  V30 5500 H 523.927 4.3695 3.32213 0
M  V30 5501 H 524.188 2.64635 3.54148 0
M  V30 5502 N 523.247 -0.488276 1.49845 0
M  V30 5503 C 524.524 -1.24959 1.50481 0
M  V30 5504 C 524.904 -2.09735 0.239698 0
M  V30 5505 O 524.252 -2.14865 -0.777524 0
M  V30 5506 C 524.462 -2.0954 2.79095 0
M  V30 5507 C 525.81 -2.68305 3.29086 0
M  V30 5508 O 526.834 -2.19797 2.80299 0
M  V30 5509 O 525.693 -3.56643 4.14087 0
M  V30 5510 H 522.787 -0.566133 0.602845 0
M  V30 5511 H 525.333 -0.501504 1.6212 0
M  V30 5512 H 524.105 -1.46958 3.62656 0
M  V30 5513 H 523.728 -2.91517 2.70377 0
M  V30 5514 N 524.725 -1.39134 -0.740242 0
M  V30 5515 C 525.973 -1.35803 -1.49673 0
M  V30 5516 C 526.294 0.0470897 -1.94943 0
M  V30 5517 O 525.564 0.997347 -1.68611 0
M  V30 5518 H 524.144 -0.499736 -0.555224 0
M  V30 5519 H 526.806 -1.73947 -0.879107 0
M  V30 5520 H 525.902 -2.0174 -2.38133 0
M  V30 5521 N 526.204 0.969867 -1.24223 0
M  V30 5522 C 527.45 1.7151 -1.08223 0
M  V30 5523 C 527.783 1.90478 0.37838 0
M  V30 5524 O 527.058 1.4647 1.27971 0
M  V30 5525 C 527.341 3.10714 -1.82013 0
M  V30 5526 C 527.194 2.9925 -3.35811 0
M  V30 5527 C 528.513 4.10332 -1.59108 0
M  V30 5528 H 525.632 0.622499 -0.394543 0
M  V30 5529 H 528.274 1.1284 -1.52863 0
M  V30 5530 H 526.424 3.608 -1.44068 0
M  V30 5531 H 528.096 2.56608 -3.83341 0
M  V30 5532 H 526.339 2.35512 -3.64303 0
M  V30 5533 H 527.01 3.97857 -3.82641 0
M  V30 5534 H 529.486 3.69097 -1.92111 0
M  V30 5535 H 528.362 5.05804 -2.13198 0
M  V30 5536 H 528.623 4.38926 -0.528832 0
M  V30 5537 N 527.682 1.05563 1.17022 0
M  V30 5538 C 528.629 0.659893 2.21165 0
M  V30 5539 C 529.599 -0.339813 1.62587 0
M  V30 5540 O 530.784 -0.230378 1.89404 0
M  V30 5541 C 527.924 0.0447297 3.45071 0
M  V30 5542 C 527.037 1.09372 4.17926 0
M  V30 5543 C 526.172 0.445481 5.29329 0
M  V30 5544 C 525.211 1.47852 5.93975 0
M  V30 5545 N 524.348 0.854172 6.96885 0
M  V30 5546 H 529.188 1.55243 2.54369 0
M  V30 5547 H 526.725 0.776336 1.24946 0
M  V30 5548 H 528.683 -0.329404 4.15898 0
M  V30 5549 H 527.313 -0.811244 3.1244 0
M  V30 5550 H 526.365 1.58564 3.45777 0
M  V30 5551 H 527.677 1.87773 4.62107 0
M  V30 5552 H 526.831 0.0179688 6.06697 0
M  V30 5553 H 525.57 -0.370481 4.86291 0
M  V30 5554 H 524.575 1.91601 5.15334 0
M  V30 5555 H 525.8 2.29645 6.39093 0
M  V30 5556 H 523.746 0.0587882 6.55974 0
M  V30 5557 H 523.663 1.57567 7.39397 0
M  V30 5558 H 524.931 0.451559 7.78191 0
M  V30 5559 N 529.16 -1.33526 0.837174 0
M  V30 5560 C 530.09 -2.31764 0.284206 0
M  V30 5561 C 531.071 -1.58896 -0.607142 0
M  V30 5562 O 532.256 -1.86798 -0.531047 0
M  V30 5563 C 529.386 -3.43029 -0.542962 0
M  V30 5564 C 528.34 -4.27255 0.252451 0
M  V30 5565 C 527.666 -5.3012 -0.69836 0
M  V30 5566 C 528.966 -5.01229 1.46858 0
M  V30 5567 H 530.66 -2.78262 1.10502 0
M  V30 5568 H 528.206 -1.3378 0.532812 0
M  V30 5569 H 530.159 -4.1078 -0.940096 0
M  V30 5570 H 528.883 -2.95216 -1.39697 0
M  V30 5571 H 527.542 -3.61127 0.631124 0
M  V30 5572 H 527.19 -4.78564 -1.54872 0
M  V30 5573 H 526.89 -5.87353 -0.170274 0
M  V30 5574 H 528.414 -6.00737 -1.09305 0
M  V30 5575 H 529.828 -5.61756 1.14469 0
M  V30 5576 H 528.225 -5.68104 1.93333 0
M  V30 5577 H 529.295 -4.301 2.23924 0
M  V30 5578 N 530.638 -0.59345 -1.46 0
M  V30 5579 C 531.568 0.121192 -2.33185 0
M  V30 5580 C 532.549 0.872977 -1.4599 0
M  V30 5581 O 533.734 0.846321 -1.74789 0
M  V30 5582 C 530.864 1.12844 -3.28456 0
M  V30 5583 C 529.818 0.4908 -4.25177 0
M  V30 5584 C 529.144 1.60529 -5.10034 0
M  V30 5585 C 530.444 -0.578949 -5.19081 0
M  V30 5586 H 532.138 -0.606767 -2.93187 0
M  V30 5587 H 529.684 -0.293242 -1.40983 0
M  V30 5588 H 531.637 1.63684 -3.88311 0
M  V30 5589 H 530.361 1.88681 -2.66584 0
M  V30 5590 H 529.02 0.00339328 -3.666 0
M  V30 5591 H 528.668 2.35359 -4.44539 0
M  V30 5592 H 528.368 1.18422 -5.75543 0
M  V30 5593 H 529.892 2.11623 -5.72755 0
M  V30 5594 H 531.306 -0.155199 -5.7309 0
M  V30 5595 H 529.703 -0.920947 -5.92991 0
M  V30 5596 H 530.773 -1.46109 -4.62364 0
M  V30 5597 N 532.116 1.54067 -0.331816 0
M  V30 5598 C 533.365 1.99895 0.269209 0
M  V30 5599 C 533.678 1.22371 1.52593 0
M  V30 5600 O 534.884 1.58618 2.20347 0
M  V30 5601 C 533.34 3.55972 0.530244 0
M  V30 5602 C 532.948 4.4234 -0.709901 0
M  V30 5603 C 534.692 4.10247 1.09077 0
M  V30 5604 C 532.599 5.89905 -0.420312 0
M  V30 5605 H 531.529 0.746741 0.104371 0
M  V30 5606 H 534.18 1.78014 -0.445324 0
M  V30 5607 H 532.562 3.73873 1.30518 0
M  V30 5608 H 533.736 4.36215 -1.48504 0
M  V30 5609 H 532.051 3.98997 -1.19123 0
M  V30 5610 H 534.648 5.18095 1.32219 0
M  V30 5611 H 534.991 3.62739 2.0427 0
M  V30 5612 H 535.524 3.96011 0.376824 0
M  V30 5613 H 532.263 6.41623 -1.34164 0
M  V30 5614 H 531.783 5.98962 0.316962 0
M  V30 5615 H 533.462 6.46991 -0.0331956 0
M  V30 5616 N 533.594 0.0601682 1.57485 0
M  V30 5617 C 534.504 -0.926121 2.15546 0
M  V30 5618 C 535.52 -1.33532 1.11558 0
M  V30 5619 O 536.696 -1.4104 1.4377 0
M  V30 5620 C 533.761 -2.17952 2.69625 0
M  V30 5621 C 532.822 -1.82783 3.88444 0
M  V30 5622 C 532.055 -3.02148 4.39935 0
M  V30 5623 O 532.278 -4.15803 3.90466 0
M  V30 5624 O 531.212 -2.82639 5.31412 0
M  V30 5625 H 535.038 -0.462289 3.00161 0
M  V30 5626 H 532.623 -0.162246 1.48516 0
M  V30 5627 H 534.505 -2.91474 3.04337 0
M  V30 5628 H 533.18 -2.63456 1.88077 0
M  V30 5629 H 532.087 -1.06549 3.58606 0
M  V30 5630 H 533.42 -1.42072 4.7125 0
M  V30 5631 N 535.072 -1.5615 -0.213296 0
M  V30 5632 C 536.005 -1.88115 -1.29182 0
M  V30 5633 C 536.983 -0.739348 -1.44819 0
M  V30 5634 O 538.167 -0.988541 -1.605 0
M  V30 5635 C 535.294 -2.09541 -2.66102 0
M  V30 5636 C 534.34 -3.32236 -2.67436 0
M  V30 5637 S 535.173 -4.87915 -2.20679 0
M  V30 5638 C 536.329 -5.12387 -3.59458 0
M  V30 5639 H 536.562 -2.793 -1.01876 0
M  V30 5640 H 534.095 -1.48692 -0.415934 0
M  V30 5641 H 536.053 -2.22568 -3.44925 0
M  V30 5642 H 534.714 -1.19138 -2.90628 0
M  V30 5643 H 533.907 -3.44297 -3.6807 0
M  V30 5644 H 533.509 -3.18108 -1.96681 0
M  V30 5645 H 535.801 -5.01791 -4.55205 0
M  V30 5646 H 536.744 -6.14236 -3.52306 0
M  V30 5647 H 537.152 -4.40089 -3.53528 0
M  V30 5648 N 536.55 0.480323 -1.50102 0
M  V30 5649 C 537.46 1.60547 -1.71061 0
M  V30 5650 C 538.476 1.63564 -0.593529 0
M  V30 5651 O 539.652 1.81604 -0.870751 0
M  V30 5652 C 536.717 2.96814 -1.79171 0
M  V30 5653 C 535.778 3.04259 -3.02861 0
M  V30 5654 C 535.011 4.34027 -3.10574 0
M  V30 5655 O 535.234 5.24009 -2.25323 0
M  V30 5656 O 534.168 4.46873 -4.03223 0
M  V30 5657 H 537.994 1.45788 -2.6642 0
M  V30 5658 H 535.579 0.658838 -1.34088 0
M  V30 5659 H 537.461 3.77765 -1.86738 0
M  V30 5660 H 536.136 3.11791 -0.869947 0
M  V30 5661 H 535.043 2.22419 -3.008 0
M  V30 5662 H 536.376 2.94216 -3.94586 0
M  V30 5663 N 538.028 1.39524 0.732853 0
M  V30 5664 C 538.96 1.34318 1.85718 0
M  V30 5665 C 539.973 0.251576 1.60844 0
M  V30 5666 O 541.162 0.510685 1.71039 0
M  V30 5667 C 538.262 1.06334 3.21786 0
M  V30 5668 C 537.435 2.26813 3.73998 0
M  V30 5669 C 536.494 1.95253 4.88634 0
M  V30 5670 O 535.52 2.67957 5.02183 0
M  V30 5671 N 536.722 0.919984 5.73164 0
M  V30 5672 H 539.487 2.3121 1.90688 0
M  V30 5673 H 537.048 1.33654 0.91368 0
M  V30 5674 H 539.04 0.832363 3.96048 0
M  V30 5675 H 537.61 0.181682 3.12072 0
M  V30 5676 H 536.83 2.65849 2.91064 0
M  V30 5677 H 538.118 3.0717 4.05616 0
M  V30 5678 H 537.516 0.317487 5.64808 0
M  V30 5679 H 536.073 0.748905 6.47483 0
M  V30 5680 N 539.506 -0.963266 1.24736 0
M  V30 5681 C 540.922 -1.23273 1.01371 0
M  V30 5682 C 541.122 -1.99618 -0.274776 0
M  V30 5683 O 540.178 -2.32293 -0.989769 0
M  V30 5684 C 541.491 -2.01554 2.23152 0
M  V30 5685 C 543.039 -2.14629 2.27823 0
M  V30 5686 C 543.514 -2.96307 3.49237 0
M  V30 5687 N 545.005 -3.03887 3.49581 0
M  V30 5688 C 545.74 -3.67456 4.40186 0
M  V30 5689 N 545.236 -4.32706 5.41052 0
M  V30 5690 N 547.029 -3.64511 4.27888 0
M  V30 5691 H 539.18 -0.452294 2.07528 0
M  V30 5692 H 541.443 -0.262521 0.910926 0
M  V30 5693 H 541.149 -1.52847 3.1675 0
M  V30 5694 H 541.023 -3.02278 2.25628 0
M  V30 5695 H 543.41 -2.62537 1.34753 0
M  V30 5696 H 543.491 -1.13238 2.2937 0
M  V30 5697 H 543.135 -2.49091 4.42624 0
M  V30 5698 H 543.065 -3.97905 3.44933 0
M  V30 5699 H 545.556 -2.57477 2.76611 0
M  V30 5700 H 545.869 -4.79042 6.06415 0
M  V30 5701 H 544.214 -4.31361 5.44934 0
M  V30 5702 H 547.405 -3.12715 3.4832 0
M  V30 5703 H 547.578 -4.13768 4.98698 0
M  V30 5704 N 540.985 -1.06182 -1.16461 0
M  V30 5705 C 541.915 -0.692861 -2.22984 0
M  V30 5706 C 542.896 0.314122 -1.67174 0
M  V30 5707 O 544.081 0.189499 -1.93273 0
M  V30 5708 C 541.211 -0.07732 -3.47214 0
M  V30 5709 C 540.165 -1.01015 -4.15909 0
M  V30 5710 C 539.491 -0.257973 -5.34077 0
M  V30 5711 C 540.791 -2.33868 -4.67015 0
M  V30 5712 H 542.485 -1.58343 -2.54102 0
M  V30 5713 H 540.031 -0.76279 -1.22137 0
M  V30 5714 H 541.984 0.19266 -4.20959 0
M  V30 5715 H 540.708 0.848254 -3.15392 0
M  V30 5716 H 539.367 -1.26486 -3.44088 0
M  V30 5717 H 539.015 0.670684 -4.98509 0
M  V30 5718 H 538.715 -0.879638 -5.80979 0
M  V30 5719 H 540.239 0.00448788 -6.106 0
M  V30 5720 H 541.653 -2.1279 -5.32347 0
M  V30 5721 H 540.05 -2.91522 -5.24533 0
M  V30 5722 H 541.12 -2.97019 -3.83286 0
M  V30 5723 N 542.463 1.3308 -0.844243 0
M  V30 5724 C 543.373 2.32876 -0.283922 0
M  V30 5725 C 544.389 1.63589 0.592846 0
M  V30 5726 O 545.565 1.95205 0.495693 0
M  V30 5727 C 542.63 3.42667 0.527283 0
M  V30 5728 C 541.691 4.27664 -0.374394 0
M  V30 5729 C 540.924 5.32212 0.39819 0
M  V30 5730 O 541.147 5.46635 1.62932 0
M  V30 5731 O 540.081 6.01458 -0.2306 0
M  V30 5732 H 543.907 2.82671 -1.11045 0
M  V30 5733 H 541.492 1.36518 -0.606903 0
M  V30 5734 H 543.374 4.09652 0.988078 0
M  V30 5735 H 542.049 2.95079 1.33078 0
M  V30 5736 H 540.956 3.63526 -0.883144 0
M  V30 5737 H 542.289 4.78749 -1.1428 0
M  V30 5738 N 543.941 0.601185 1.45683 0
M  V30 5739 C 544.873 -0.159446 2.28645 0
M  V30 5740 C 545.886 -0.837882 1.39583 0
M  V30 5741 O 547.075 -0.704344 1.64016 0
M  V30 5742 C 544.175 -1.24641 3.15147 0
M  V30 5743 C 543.348 -0.656334 4.32448 0
M  V30 5744 C 542.407 -1.63337 5.00208 0
M  V30 5745 O 541.433 -1.16217 5.57209 0
M  V30 5746 N 542.635 -2.96773 4.98905 0
M  V30 5747 H 545.4 0.5524 2.94565 0
M  V30 5748 H 542.961 0.440223 1.558 0
M  V30 5749 H 544.953 -1.8997 3.57342 0
M  V30 5750 H 543.523 -1.86087 2.51178 0
M  V30 5751 H 542.743 0.174879 3.93812 0
M  V30 5752 H 544.031 -0.242211 5.08223 0
M  V30 5753 H 543.429 -3.37662 4.53873 0
M  V30 5754 H 541.986 -3.57541 5.44984 0
M  V30 5755 N 545.419 -1.53889 0.339982 0
M  V30 5756 C 546.667 -2.00458 -0.257112 0
M  V30 5757 C 546.988 -1.22953 -1.51353 0
M  V30 5758 O 546.258 -0.335734 -1.93002 0
M  V30 5759 H 544.838 -0.740544 -0.0979965 0
M  V30 5760 H 547.5 -1.89386 0.460317 0
M  V30 5761 H 546.596 -3.08035 -0.502057 0
M  V30 5762 N 546.897 -0.0685191 -1.57451 0
M  V30 5763 C 547.829 0.929372 -2.09512 0
M  V30 5764 C 548.842 1.26354 -1.02657 0
M  V30 5765 O 550.031 1.2213 -1.30179 0
M  V30 5766 C 547.131 2.24612 -2.53777 0
M  V30 5767 C 546.304 2.09128 -3.84167 0
M  V30 5768 C 545.363 3.24079 -4.14559 0
M  V30 5769 O 544.389 2.99215 -4.8421 0
M  V30 5770 N 545.591 4.49077 -3.67845 0
M  V30 5771 H 548.356 0.484901 -2.95751 0
M  V30 5772 H 545.917 0.11729 -1.61475 0
M  V30 5773 H 547.909 3.00412 -2.71172 0
M  V30 5774 H 546.479 2.60569 -1.72692 0
M  V30 5775 H 545.699 1.17815 -3.76182 0
M  V30 5776 H 546.987 1.9603 -4.69521 0
M  V30 5777 H 546.385 4.72165 -3.11571 0
M  V30 5778 H 544.942 5.21915 -3.90446 0
M  V30 5779 N 548.375 1.56261 0.205012 0
M  V30 5780 C 549.338 1.92908 1.23771 0
M  V30 5781 C 550.338 0.809208 1.38955 0
M  V30 5782 O 551.528 1.07676 1.36936 0
M  V30 5783 C 548.66 2.19442 2.60879 0
M  V30 5784 H 549.853 2.85287 0.924728 0
M  V30 5785 H 547.406 1.49798 0.446125 0
M  V30 5786 H 548.141 1.29668 2.97248 0
M  V30 5787 H 547.926 3.0104 2.51232 0
M  V30 5788 H 549.416 2.48833 3.35368 0
M  V30 5789 N 549.853 -0.472356 1.50355 0
M  V30 5790 C 551.102 -1.2213 1.60522 0
M  V30 5791 C 551.415 -1.9312 0.310466 0
M  V30 5792 O 552.621 -2.69936 0.291029 0
M  V30 5793 C 551.077 -2.21909 2.83345 0
M  V30 5794 C 550.685 -1.56727 4.19691 0
M  V30 5795 C 552.429 -2.97453 3.02856 0
M  V30 5796 C 550.336 -2.54785 5.33703 0
M  V30 5797 H 549.266 -0.459543 0.597776 0
M  V30 5798 H 551.917 -0.491922 1.76783 0
M  V30 5799 H 550.299 -2.98133 2.60639 0
M  V30 5800 H 551.473 -0.863007 4.52646 0
M  V30 5801 H 549.788 -0.934685 4.05774 0
M  V30 5802 H 552.385 -3.70838 3.85205 0
M  V30 5803 H 552.728 -3.56764 2.14534 0
M  V30 5804 H 553.261 -2.28342 3.25737 0
M  V30 5805 H 550 -2.00214 6.24175 0
M  V30 5806 H 549.52 -3.23367 5.05167 0
M  V30 5807 H 551.199 -3.16639 5.64224 0
M  V30 5808 N 551.331 -1.39911 -0.725443 0
M  V30 5809 C 552.608 -1.28158 -1.47766 0
M  V30 5810 C 552.988 0.104545 -2.10841 0
M  V30 5811 O 552.336 1.11657 -1.99361 0
M  V30 5812 C 552.546 -2.41306 -2.52135 0
M  V30 5813 C 553.894 -2.81076 -3.18247 0
M  V30 5814 O 554.918 -2.40827 -2.62452 0
M  V30 5815 O 553.777 -3.50581 -4.19231 0
M  V30 5816 H 550.871 -0.502761 -0.656628 0
M  V30 5817 H 553.417 -1.51808 -0.758456 0
M  V30 5818 H 552.189 -3.33932 -2.03974 0
M  V30 5819 H 551.812 -2.19374 -3.31603 0
M  V30 5820 N 552.809 0.956637 -1.25245 0
M  V30 5821 C 554.086 1.67716 -1.00651 0
M  V30 5822 C 554.466 2.0585 0.467866 0
M  V30 5823 O 553.814 1.77029 1.44475 0
M  V30 5824 C 554.024 2.90093 -1.94028 0
M  V30 5825 C 555.372 3.6209 -2.21756 0
M  V30 5826 O 556.396 3.00171 -1.9177 0
M  V30 5827 O 555.255 4.7358 -2.72735 0
M  V30 5828 H 552.349 0.733731 -0.381533 0
M  V30 5829 H 554.895 1.00974 -1.3639 0
M  V30 5830 H 553.667 2.58689 -2.93591 0
M  V30 5831 H 553.29 3.64566 -1.58674 0
M  V30 5832 N 554.287 1.06798 1.15896 0
M  V30 5833 C 555.217 0.704677 2.22613 0
M  V30 5834 C 556.198 -0.305252 1.67339 0
M  V30 5835 O 557.383 -0.179247 1.93371 0
M  V30 5836 C 554.513 0.0957325 3.47168 0
M  V30 5837 C 553.467 1.0322 4.15367 0
M  V30 5838 C 552.793 0.286293 5.33933 0
M  V30 5839 C 554.093 2.36341 4.65768 0
M  V30 5840 H 555.787 1.59688 2.53259 0
M  V30 5841 H 553.333 0.769257 1.21731 0
M  V30 5842 H 555.286 -0.170333 4.21056 0
M  V30 5843 H 554.01 -0.831516 3.15838 0
M  V30 5844 H 552.669 1.28309 3.43413 0
M  V30 5845 H 552.317 -0.644237 4.98857 0
M  V30 5846 H 552.017 0.910436 5.80504 0
M  V30 5847 H 553.541 0.0278938 6.10594 0
M  V30 5848 H 554.955 2.1561 5.31211 0
M  V30 5849 H 553.352 2.94299 5.2298 0
M  V30 5850 H 554.422 2.99047 3.81705 0
M  V30 5851 N 555.766 -1.3263 0.851289 0
M  V30 5852 C 556.699 -2.26952 0.238318 0
M  V30 5853 C 557.677 -1.50243 -0.621757 0
M  V30 5854 O 558.861 -1.79378 -0.579298 0
M  V30 5855 C 555.988 -3.32124 -0.664178 0
M  V30 5856 C 555.034 -4.26325 0.122067 0
M  V30 5857 S 555.867 -5.14404 1.48824 0
M  V30 5858 C 557.023 -6.231 0.591372 0
M  V30 5859 H 557.256 -2.78594 1.03791 0
M  V30 5860 H 554.789 -1.4011 0.648731 0
M  V30 5861 H 556.747 -3.93197 -1.17924 0
M  V30 5862 H 555.408 -2.79273 -1.43755 0
M  V30 5863 H 554.601 -5.00821 -0.565181 0
M  V30 5864 H 554.203 -3.69652 0.568602 0
M  V30 5865 H 556.495 -6.77187 -0.205762 0
M  V30 5866 H 557.438 -6.95936 1.30687 0
M  V30 5867 H 557.846 -5.64252 0.167206 0
M  V30 5868 N 557.244 -0.608902 -1.45362 0
M  V30 5869 C 558.655 -0.189511 -1.85736 0
M  V30 5870 C 559.006 1.2539 -1.50903 0
M  V30 5871 O 558.131 1.95094 -0.936347 0
M  V30 5872 C 558.726 -0.33716 -3.37118 0
M  V30 5873 C 557.285 0.0275487 -3.7639 0
M  V30 5874 C 556.432 -0.660983 -2.69307 0
M  V30 5875 H 559.383 -0.815499 -1.36144 0
M  V30 5876 H 559.404 0.430257 -3.7806 0
M  V30 5877 H 558.916 -1.38779 -3.62439 0
M  V30 5878 H 557.017 1.0773 -3.56686 0
M  V30 5879 H 557.13 -0.367018 -4.77692 0
M  V30 5880 H 555.494 -0.0984958 -2.54509 0
M  V30 5881 H 556.277 -1.71377 -2.97464 0
M  V30 5882 N 558.722 1.53707 -0.348139 0
M  V30 5883 C 559.685 2.23812 0.494058 0
M  V30 5884 C 560.685 1.23989 1.02388 0
M  V30 5885 O 561.875 1.48395 0.912396 0
M  V30 5886 C 559.007 2.96133 1.68872 0
M  V30 5887 H 560.2 2.99663 -0.119141 0
M  V30 5888 H 557.753 1.55983 -0.0995539 0
M  V30 5889 H 558.488 2.24481 2.34049 0
M  V30 5890 H 558.273 3.69357 1.31596 0
M  V30 5891 H 559.763 3.49475 2.28597 0
M  V30 5892 N 560.2 0.0768682 1.57412 0
M  V30 5893 C 561.132 -0.918248 2.10002 0
M  V30 5894 C 562.145 -1.25808 1.03325 0
M  V30 5895 O 563.334 -1.21438 1.30824 0
M  V30 5896 C 560.434 -2.23263 2.54964 0
M  V30 5897 C 559.607 -2.07088 3.8527 0
M  V30 5898 C 558.666 -3.21876 4.16272 0
M  V30 5899 O 557.692 -2.96643 4.8579 0
M  V30 5900 N 558.894 -4.4712 3.70221 0
M  V30 5901 H 561.659 -0.469209 2.96004 0
M  V30 5902 H 559.22 -0.108725 1.61535 0
M  V30 5903 H 561.212 -2.9897 2.72762 0
M  V30 5904 H 559.782 -2.59649 1.74072 0
M  V30 5905 H 559.002 -1.15818 3.76802 0
M  V30 5906 H 560.29 -1.93537 4.70554 0
M  V30 5907 H 559.688 -4.70506 3.1407 0
M  V30 5908 H 558.245 -5.19837 3.93209 0
M  V30 5909 N 561.678 -1.56367 -0.196722 0
M  V30 5910 C 562.625 -1.94417 -1.24382 0
M  V30 5911 C 563.595 -0.804543 -1.45315 0
M  V30 5912 O 564.78 -1.06256 -1.58475 0
M  V30 5913 C 561.92 -2.28757 -2.58388 0
M  V30 5914 C 561.033 -3.55775 -2.45047 0
M  V30 5915 C 560.168 -3.79445 -3.71746 0
M  V30 5916 C 559.207 -4.99894 -3.53231 0
M  V30 5917 N 558.344 -5.19826 -4.71938 0
M  V30 5918 H 563.184 -2.83691 -0.912338 0
M  V30 5919 H 560.721 -1.40392 -0.439135 0
M  V30 5920 H 562.679 -2.46682 -3.36457 0
M  V30 5921 H 561.309 -1.42625 -2.89582 0
M  V30 5922 H 560.361 -3.45905 -1.58284 0
M  V30 5923 H 561.673 -4.44 -2.27299 0
M  V30 5924 H 560.827 -3.97601 -4.58256 0
M  V30 5925 H 559.566 -2.89546 -3.92446 0
M  V30 5926 H 558.571 -4.81662 -2.65107 0
M  V30 5927 H 559.796 -5.913 -3.33978 0
M  V30 5928 H 557.742 -4.32875 -4.92905 0
M  V30 5929 H 557.659 -6.02228 -4.57009 0
M  V30 5930 H 558.927 -5.42439 -5.59803 0
M  V30 5931 O 563.195 0.341958 -1.57838 0
M  V30 5932 H 563.886 0.991482 -1.66401 0
M  V30 END ATOM
M  V30 BEGIN BOND
M  V30 END BOND
M  V30 END CTAB
M  END
$$$$
