drugbank_target|P40925 Malate dehydrogenase, cytoplasmic (DB00157; DB03461; DB11638)
 OpenBabel12092119353D

  0  0  0     0  0            999 V3000
M  V30 BEGIN CTAB
M  V30 COUNTS 5182 5225 0 0 0
M  V30 BEGIN ATOM
M  V30 1 H -0.908 1.98254 -0.117106 0
M  V30 2 N 0 1.576 0 0
M  V30 3 C 0.933 2.03868 1.02534 0
M  V30 4 C 1.911 0.928543 1.3348 0
M  V30 5 O 3.095 1.19667 1.45644 0
M  V30 6 C 0.222 2.43627 2.35294 0
M  V30 7 C -0.732 3.65373 2.2001 0
M  V30 8 S 0.101 5.13292 1.52614 0
M  V30 9 C 1.257 5.56322 2.86805 0
M  V30 10 H 1.49 2.90518 0.631377 0
M  V30 11 H -0.977 1.52953 0.210867 0
M  V30 12 H 0.981 2.67203 3.11629 0
M  V30 13 H -0.358 1.57376 2.7183 0
M  V30 14 H -1.165 3.90944 3.18086 0
M  V30 15 H -1.563 3.418 1.51819 0
M  V30 16 H 0.729 5.58782 3.83104 0
M  V30 17 H 1.672 6.56266 2.65933 0
M  V30 18 H 2.08 4.83886 2.90714 0
M  V30 19 N 1.4781 -0.272755 1.55222 0
M  V30 20 C 2.7031 -1.02683 1.80197 0
M  V30 21 C 3.1281 -1.79142 0.573551 0
M  V30 22 O 2.4861 -1.74917 -0.476849 0
M  V30 23 C 2.5341 -1.9609 3.02624 0
M  V30 24 O 1.6381 -3.04863 2.77727 0
M  V30 25 H 0.9791 -0.293557 0.595584 0
M  V30 26 H 3.5091 -0.30159 2.02365 0
M  V30 27 H 3.5191 -2.38039 3.31363 0
M  V30 28 H 2.1941 -1.39851 3.91682 0
M  V30 29 H 0.7711 -2.67228 2.60084 0
M  V30 30 N 2.9562 -1.48159 -0.537278 0
M  V30 31 C 3.8662 -1.64807 -1.6696 0
M  V30 32 C 4.8822 -0.530651 -1.65711 0
M  V30 33 O 6.0582 -0.800784 -1.84796 0
M  V30 34 C 3.1232 -1.67708 -3.03438 0
M  V30 35 C 2.1842 -2.91025 -3.156 0
M  V30 36 C 1.4172 -2.93778 -4.45567 0
M  V30 37 O 1.6402 -2.05153 -5.3223 0
M  V30 38 O 0.5742 -3.85868 -4.61941 0
M  V30 39 H 4.4002 -2.6066 -1.55853 0
M  V30 40 H 1.9852 -1.31475 -0.709549 0
M  V30 41 H 3.8672 -1.7218 -3.84619 0
M  V30 42 H 2.5422 -0.750278 -3.14885 0
M  V30 43 H 1.4492 -2.92089 -2.33741 0
M  V30 44 H 2.7822 -3.83065 -3.09066 0
M  V30 45 N 4.4343 0.785586 -1.36625 0
M  V30 46 C 5.8453 1.36101 -1.27803 0
M  V30 47 C 6.1963 1.96035 0.0804875 0
M  V30 48 O 5.3213 1.92834 0.982042 0
M  V30 49 C 5.9163 2.47442 -2.31426 0
M  V30 50 C 4.4753 3.00789 -2.26281 0
M  V30 51 C 3.6223 1.73896 -2.15999 0
M  V30 52 H 6.5733 0.586928 -1.47448 0
M  V30 53 H 6.5943 3.2656 -1.95291 0
M  V30 54 H 6.1063 2.03791 -3.30289 0
M  V30 55 H 4.2073 3.48851 -1.30896 0
M  V30 56 H 4.3203 3.57343 -3.19128 0
M  V30 57 H 2.6843 1.9628 -1.62316 0
M  V30 58 H 3.4673 1.32368 -3.16755 0
M  V30 59 N 5.9124 1.20967 1.01018 0
M  V30 60 C 7.1614 1.01796 1.74128 0
M  V30 61 C 7.4744 -0.449691 1.90361 0
M  V30 62 O 8.6804 -0.76068 2.60626 0
M  V30 63 C 7.1364 1.7727 3.13215 0
M  V30 64 C 6.7444 3.28171 3.04972 0
M  V30 65 C 8.4884 1.66489 3.90489 0
M  V30 66 C 6.3954 3.96156 4.39107 0
M  V30 67 H 5.3254 0.377276 0.652824 0
M  V30 68 H 7.9764 1.44651 1.12909 0
M  V30 69 H 6.3584 1.27205 3.75013 0
M  V30 70 H 7.5324 3.85499 2.52443 0
M  V30 71 H 5.8474 3.39437 2.41188 0
M  V30 72 H 8.4444 2.14617 4.89738 0
M  V30 73 H 8.7874 0.6222 4.11624 0
M  V30 74 H 9.3204 2.14003 3.35332 0
M  V30 75 H 6.0594 5.00604 4.23174 0
M  V30 76 H 5.5794 3.43617 4.91617 0
M  V30 77 H 7.2584 4.00774 5.07926 0
M  V30 78 N 7.3905 -1.2043 1.01659 0
M  V30 79 C 8.8065 -1.41852 0.731442 0
M  V30 80 C 9.0065 -1.89358 -0.688898 0
M  V30 81 O 8.0625 -2.06247 -1.45666 0
M  V30 82 C 9.3755 -2.44019 1.75714 0
M  V30 83 C 10.9235 -2.57785 1.77527 0
M  V30 84 C 11.3985 -3.63194 2.79023 0
M  V30 85 N 12.8895 -3.70678 2.77763 0
M  V30 86 C 13.6245 -4.51897 3.52954 0
M  V30 87 N 13.1205 -5.36921 4.37821 0
M  V30 88 N 14.9135 -4.4643 3.41551 0
M  V30 89 H 7.0645 -0.879093 1.93354 0
M  V30 90 H 9.3275 -0.448425 0.835236 0
M  V30 91 H 9.0335 -2.1611 2.77469 0
M  V30 92 H 8.9075 -3.43007 1.56927 0
M  V30 93 H 11.2945 -2.85023 0.764569 0
M  V30 94 H 11.3755 -1.58992 2.00387 0
M  V30 95 H 11.0195 -3.36699 3.80258 0
M  V30 96 H 10.9495 -4.61609 2.53425 0
M  V30 97 H 13.4405 -3.09944 2.16201 0
M  V30 98 H 13.7535 -5.95981 4.91962 0
M  V30 99 H 12.0985 -5.36424 4.41899 0
M  V30 100 H 15.2895 -3.79042 2.74672 0
M  V30 101 H 15.4625 -5.09491 4.00404 0
M  V30 102 N 8.8686 -0.792821 -1.36206 0
M  V30 103 C 10.1146 -0.36733 -1.99446 0
M  V30 104 C 10.4476 1.05917 -1.62774 0
M  V30 105 O 9.7226 1.7324 -0.88421 0
M  V30 106 C 10.0056 -0.535044 -3.56103 0
M  V30 107 C 9.8586 -2.00548 -4.02617 0
M  V30 108 C 11.1776 0.0478191 -4.40074 0
M  V30 109 H 8.2966 -0.134941 -0.724541 0
M  V30 110 H 10.9386 -0.999794 -1.61568 0
M  V30 111 H 9.0886 0.00336329 -3.885 0
M  V30 112 H 10.7606 -2.60521 -3.80692 0
M  V30 113 H 9.0036 -2.50686 -3.54032 0
M  V30 114 H 9.6746 -2.07377 -5.11565 0
M  V30 115 H 12.1506 -0.411822 -4.14057 0
M  V30 116 H 11.0266 -0.0995336 -5.4881 0
M  V30 117 H 11.2876 1.14025 -4.27142 0
M  V30 118 N 10.3467 1.47872 -0.545128 0
M  V30 119 C 11.2767 2.32661 0.197793 0
M  V30 120 C 12.2577 1.43041 0.920504 0
M  V30 121 O 13.4427 1.71912 0.90333 0
M  V30 122 C 10.5727 3.24569 1.23582 0
M  V30 123 C 9.5267 4.23333 0.630323 0
M  V30 124 C 8.8527 5.0448 1.77211 0
M  V30 125 C 10.1527 5.20704 -0.407974 0
M  V30 126 H 11.8467 2.95024 -0.510045 0
M  V30 127 H 9.3927 1.4187 -0.246731 0
M  V30 128 H 11.3457 3.8272 1.76362 0
M  V30 129 H 10.0697 2.60236 1.97344 0
M  V30 130 H 8.7287 3.6639 0.123922 0
M  V30 131 H 8.3767 4.36561 2.49847 0
M  V30 132 H 8.0767 5.71339 1.37281 0
M  V30 133 H 9.6007 5.65487 2.3034 0
M  V30 134 H 11.0147 5.7329 0.033305 0
M  V30 135 H 9.4117 5.95699 -0.725486 0
M  V30 136 H 10.4817 4.66917 -1.30828 0
M  V30 137 N 11.8248 0.280983 1.55075 0
M  V30 138 C 13.0708 -0.33461 2.00021 0
M  V30 139 C 13.4038 -1.55063 1.16915 0
M  V30 140 O 12.6788 -1.93006 0.240646 0
M  V30 141 C 12.9618 -0.711007 3.53011 0
M  V30 142 C 12.8148 0.512766 4.46868 0
M  V30 143 C 14.1338 -1.54522 4.12081 0
M  V30 144 H 11.2528 -0.120147 0.727141 0
M  V30 145 H 13.8948 0.389097 1.85973 0
M  V30 146 H 12.0448 -1.32761 3.65112 0
M  V30 147 H 13.7168 1.15131 4.46702 0
M  V30 148 H 11.9598 1.14975 4.18286 0
M  V30 149 H 12.6308 0.205556 5.51617 0
M  V30 150 H 15.1068 -1.02442 4.03293 0
M  V30 151 H 13.9828 -1.77739 5.19327 0
M  V30 152 H 14.2438 -2.52813 3.62682 0
M  V30 153 N 13.3029 -1.57598 0.00835791 0
M  V30 154 C 14.5309 -1.95214 -0.68549 0
M  V30 155 C 14.9459 -0.883706 -1.66841 0
M  V30 156 O 14.3029 0.136565 -1.81988 0
M  V30 157 C 14.3539 -3.32865 -1.41007 0
M  V30 158 O 14.0749 -4.35609 -0.466552 0
M  V30 159 C 15.5759 -3.84991 -2.19765 0
M  V30 160 H 12.7959 -0.643422 -0.190392 0
M  V30 161 H 15.3399 -2.04406 0.0619607 0
M  V30 162 H 13.4949 -3.24956 -2.10908 0
M  V30 163 H 13.9089 -5.15288 -0.978699 0
M  V30 164 H 15.3829 -4.8371 -2.65948 0
M  V30 165 H 15.8599 -3.18137 -3.02796 0
M  V30 166 H 16.4659 -3.96103 -1.54864 0
M  V30 167 N 14.781 0.264519 -1.55364 0
M  V30 168 C 16.029 0.993021 -1.76021 0
M  V30 169 C 16.35 1.86511 -0.569099 0
M  V30 170 O 15.62 1.91438 0.415735 0
M  V30 171 H 14.2 0.369639 -0.649135 0
M  V30 172 H 16.862 0.286707 -1.9278 0
M  V30 173 H 15.958 1.62502 -2.66457 0
M  V30 174 N 16.2591 1.48442 0.529413 0
M  V30 175 C 17.2221 1.62524 1.61612 0
M  V30 176 C 18.2221 0.498509 1.52877 0
M  V30 177 O 19.4121 0.76431 1.56537 0
M  V30 178 C 16.5441 1.59597 3.01233 0
M  V30 179 H 17.7371 2.59423 1.50465 0
M  V30 180 H 15.2901 1.37047 0.751514 0
M  V30 181 H 16.0251 0.641781 3.17886 0
M  V30 182 H 15.8101 2.41397 3.08982 0
M  V30 183 H 17.3001 1.72646 3.80241 0
M  V30 184 N 17.7372 -0.778329 1.37039 0
M  V30 185 C 18.7002 -1.87301 1.32102 0
M  V30 186 C 19.7002 -1.59198 0.226405 0
M  V30 187 O 20.8902 -1.67403 0.481861 0
M  V30 188 C 18.0222 -3.24309 1.05055 0
M  V30 189 H 19.2152 -1.93093 2.29467 0
M  V30 190 H 16.7682 -0.977358 1.21973 0
M  V30 191 H 17.5032 -3.24196 0.0819373 0
M  V30 192 H 17.2882 -3.46098 1.84279 0
M  V30 193 H 18.7782 -4.04382 1.04234 0
M  V30 194 N 19.2153 -1.21501 -1.00376 0
M  V30 195 C 20.4633 -1.03095 -1.73827 0
M  V30 196 C 20.7843 0.436341 -1.90055 0
M  V30 197 O 20.0543 1.31466 -1.45236 0
M  V30 198 H 18.6343 -0.378487 -0.644016 0
M  V30 199 H 21.2963 -1.52831 -1.20949 0
M  V30 200 H 20.3923 -1.49991 -2.73695 0
M  V30 201 N 20.6934 1.19889 -1.02296 0
M  V30 202 C 21.6254 2.22334 -0.556787 0
M  V30 203 C 22.6384 1.58674 0.364199 0
M  V30 204 O 23.8274 1.77768 0.161533 0
M  V30 205 C 20.9274 3.38257 0.208694 0
M  V30 206 C 20.1004 4.31504 -0.71577 0
M  V30 207 C 19.1594 5.262 0.00325597 0
M  V30 208 O 18.1854 5.65798 -0.621357 0
M  V30 209 N 19.3874 5.66303 1.27599 0
M  V30 210 H 22.1524 2.62957 -1.43784 0
M  V30 211 H 19.7134 1.34495 -0.901261 0
M  V30 212 H 21.7054 3.98616 0.699111 0
M  V30 213 H 20.2754 2.96472 0.991102 0
M  V30 214 H 19.4954 3.69016 -1.38638 0
M  V30 215 H 20.7834 4.9072 -1.34428 0
M  V30 216 H 20.1814 5.36155 1.80429 0
M  V30 217 H 18.7384 6.28942 1.71102 0
M  V30 218 N 22.1715 0.800033 1.35784 0
M  V30 219 C 23.4205 0.37387 1.98205 0
M  V30 220 C 23.7335 -1.06302 1.64193 0
M  V30 221 O 24.9395 -1.59198 2.19928 0
M  V30 222 C 23.3955 0.617532 3.54562 0
M  V30 223 C 23.0035 2.06654 3.9749 0
M  V30 224 C 24.7475 0.256401 4.23725 0
M  V30 225 C 22.6545 2.2563 5.46667 0
M  V30 226 H 21.5845 0.136055 0.741623 0
M  V30 227 H 24.2355 0.983166 1.54939 0
M  V30 228 H 22.6175 -0.0616248 3.95952 0
M  V30 229 H 23.7915 2.78296 3.67271 0
M  V30 230 H 22.1065 2.38691 3.41197 0
M  V30 231 H 24.7035 0.376318 5.33374 0
M  V30 232 H 25.0465 -0.796692 4.08606 0
M  V30 233 H 25.5795 0.889214 3.87734 0
M  V30 234 H 22.3185 3.2936 5.66747 0
M  V30 235 H 21.8385 1.58504 5.78478 0
M  V30 236 H 23.5175 2.06861 6.1304 0
M  V30 237 N 23.6496 -1.47581 0.552962 0
M  V30 238 C 24.6126 -2.28439 -0.186605 0
M  V30 239 C 25.6126 -1.36706 -0.84665 0
M  V30 240 O 26.8026 -1.59378 -0.703164 0
M  V30 241 C 23.9346 -3.16264 -1.2724 0
M  V30 242 H 25.1276 -2.95294 0.523609 0
M  V30 243 H 22.6806 -1.532 0.309745 0
M  V30 244 H 23.4156 -2.54091 -2.01514 0
M  V30 245 H 23.2006 -3.83769 -0.803968 0
M  V30 246 H 24.6906 -3.77198 -1.79196 0
M  V30 247 N 25.1277 -0.289203 -1.54924 0
M  V30 248 C 26.3577 0.325989 -2.04012 0
M  V30 249 C 26.7657 1.48961 -1.1665 0
M  V30 250 O 26.1087 1.82794 -0.1822 0
M  V30 251 C 26.1707 0.856112 -3.49158 0
M  V30 252 C 25.8347 -0.180697 -4.56643 0
M  V30 253 C 26.8317 -1.0051 -5.10092 0
M  V30 254 C 24.5167 -0.318998 -5.01286 0
M  V30 255 C 26.5107 -1.95385 -6.06715 0
M  V30 256 C 24.1977 -1.27121 -5.97732 0
M  V30 257 C 25.1957 -2.08713 -6.50329 0
M  V30 258 O 24.8837 -3.02322 -7.44887 0
M  V30 259 H 24.6157 0.0765276 -0.671654 0
M  V30 260 H 27.1697 -0.423254 -2.00992 0
M  V30 261 H 25.3997 1.65567 -3.49463 0
M  V30 262 H 27.0887 1.38591 -3.81507 0
M  V30 263 H 27.8547 -0.90906 -4.76404 0
M  V30 264 H 23.7337 0.306108 -4.59983 0
M  V30 265 H 27.2777 -2.59111 -6.47694 0
M  V30 266 H 23.1747 -1.36801 -6.30837 0
M  V30 267 H 23.9427 -2.97165 -7.6265 0
M  V30 268 N 26.6058 1.57591 -0.0167156 0
M  V30 269 C 27.8308 1.9598 0.67872 0
M  V30 270 C 28.2558 0.892546 1.65575 0
M  V30 271 O 27.6138 -0.147772 1.80697 0
M  V30 272 C 27.6618 3.33468 1.37227 0
M  V30 273 O 26.7658 3.28954 2.48722 0
M  V30 274 H 26.1068 0.639339 0.17928 0
M  V30 275 H 28.6368 2.04463 -0.0748802 0
M  V30 276 H 28.6468 3.69417 1.7319 0
M  V30 277 H 27.3218 4.10694 0.656007 0
M  V30 278 H 25.8988 3.04705 2.14963 0
M  V30 279 N 28.0839 -0.256276 1.55502 0
M  V30 280 C 29.0139 -1.32102 1.92539 0
M  V30 281 C 29.9949 -1.50684 0.789194 0
M  V30 282 O 31.1799 -1.63449 1.04872 0
M  V30 283 C 28.3099 -2.67752 2.21192 0
M  V30 284 C 27.2639 -2.63878 3.36975 0
M  V30 285 C 26.5899 -4.03236 3.51147 0
M  V30 286 C 27.8899 -2.21682 4.72921 0
M  V30 287 H 29.5839 -1.01351 2.81724 0
M  V30 288 H 27.1299 -0.486105 1.35547 0
M  V30 289 H 29.0829 -3.42365 2.45691 0
M  V30 290 H 27.8069 -3.0012 1.28824 0
M  V30 291 H 26.4659 -1.91722 3.12471 0
M  V30 292 H 26.1139 -4.32854 2.56216 0
M  V30 293 H 25.8139 -4.01535 4.29003 0
M  V30 294 H 27.3379 -4.79563 3.77957 0
M  V30 295 H 28.7519 -2.86023 4.96854 0
M  V30 296 H 27.1489 -2.3111 5.53812 0
M  V30 297 H 28.2189 -1.16833 4.70615 0
M  V30 298 N 29.562 -1.4872 -0.521534 0
M  V30 299 C 30.492 -1.66771 -1.63431 0
M  V30 300 C 31.473 -0.516499 -1.62069 0
M  V30 301 O 32.658 -0.750013 -1.79132 0
M  V30 302 C 29.788 -1.71515 -3.01993 0
M  V30 303 C 28.742 -2.86222 -3.18216 0
M  V30 304 C 28.068 -2.76061 -4.57924 0
M  V30 305 C 29.368 -4.27419 -3.00184 0
M  V30 306 H 31.062 -2.59932 -1.48579 0
M  V30 307 H 28.608 -1.25089 -0.713358 0
M  V30 308 H 30.561 -1.82731 -3.7972 0
M  V30 309 H 29.285 -0.749393 -3.17886 0
M  V30 310 H 27.944 -2.74575 -2.42908 0
M  V30 311 H 27.592 -1.77437 -4.70665 0
M  V30 312 H 27.292 -3.53037 -4.69722 0
M  V30 313 H 28.816 -2.89256 -5.37739 0
M  V30 314 H 30.23 -4.39855 -3.67697 0
M  V30 315 H 28.627 -5.05458 -3.2347 0
M  V30 316 H 29.697 -4.43293 -1.96518 0
M  V30 317 N 31.0401 0.771051 -1.3745 0
M  V30 318 C 32.2701 1.55789 -1.35696 0
M  V30 319 C 32.6781 1.89107 0.0594523 0
M  V30 320 O 32.0211 1.51984 1.03183 0
M  V30 321 C 32.0831 2.89515 -2.13123 0
M  V30 322 C 31.7471 2.78829 -3.62082 0
M  V30 323 C 32.7441 2.49812 -4.5595 0
M  V30 324 C 30.4291 2.9683 -4.05213 0
M  V30 325 C 32.4231 2.38923 -5.90927 0
M  V30 326 C 30.1101 2.85562 -5.40276 0
M  V30 327 C 31.1081 2.56649 -6.32946 0
M  V30 328 O 30.7961 2.45408 -7.65526 0
M  V30 329 H 30.5281 0.489257 -0.466481 0
M  V30 330 H 33.0821 0.963446 -1.81403 0
M  V30 331 H 31.3121 3.51081 -1.62107 0
M  V30 332 H 33.0011 3.50915 -2.03994 0
M  V30 333 H 33.7671 2.3559 -4.23937 0
M  V30 334 H 29.6461 3.18335 -3.33442 0
M  V30 335 H 33.1901 2.16277 -6.63227 0
M  V30 336 H 29.0871 2.99351 -5.71891 0
M  V30 337 H 29.8551 2.60753 -7.75855 0
M  V30 338 N 32.5182 1.22032 0.997298 0
M  V30 339 C 33.7432 1.06921 1.77715 0
M  V30 340 C 34.1682 -0.376226 1.84299 0
M  V30 341 O 33.5262 -1.27165 1.29223 0
M  V30 342 C 33.5742 1.67996 3.19076 0
M  V30 343 O 32.6782 0.930653 4.01762 0
M  V30 344 H 32.0192 0.375814 0.547412 0
M  V30 345 H 34.5492 1.61737 1.25309 0
M  V30 346 H 34.5592 1.72538 3.69723 0
M  V30 347 H 33.2342 2.73182 3.13599 0
M  V30 348 H 31.8112 0.960917 3.60307 0
M  V30 349 N 33.9963 -1.19345 1.0293 0
M  V30 350 C 35.2453 -1.88363 0.721256 0
M  V30 351 C 35.5583 -1.80514 -0.753254 0
M  V30 352 O 36.7643 -2.44788 -1.17436 0
M  V30 353 C 35.2203 -3.37872 1.23978 0
M  V30 354 C 34.8283 -3.54278 2.74211 0
M  V30 355 C 36.5723 -4.12365 1.00775 0
M  V30 356 C 34.4793 -4.97682 3.19479 0
M  V30 357 H 33.4093 -0.705484 0.266098 0
M  V30 358 H 36.0603 -1.34928 1.24365 0
M  V30 359 H 34.4423 -3.90707 0.6453 0
M  V30 360 H 35.6163 -3.11769 3.39318 0
M  V30 361 H 33.9313 -2.93174 2.95699 0
M  V30 362 H 36.5283 -5.18119 1.32123 0
M  V30 363 H 36.8713 -4.16263 -0.0554308 0
M  V30 364 H 37.4043 -3.65668 1.56625 0
M  V30 365 H 34.1433 -4.98945 4.25128 0
M  V30 366 H 33.6633 -5.4095 2.591 0
M  V30 367 H 35.3423 -5.66337 3.12845 0
M  V30 368 N 35.4744 -0.807222 -1.35358 0
M  V30 369 C 36.7224 -0.387122 -1.98358 0
M  V30 370 C 37.0434 1.04942 -1.64354 0
M  V30 371 O 36.3134 1.72615 -0.926339 0
M  V30 372 H 34.8934 -0.140154 -0.733734 0
M  V30 373 H 37.5554 -1.0332 -1.6526 0
M  V30 374 H 36.6514 -0.493352 -3.08176 0
M  V30 375 N 36.9525 1.47285 -0.560781 0
M  V30 376 C 37.9005 2.31756 0.197942 0
M  V30 377 C 38.8945 1.43146 0.905854 0
M  V30 378 O 40.1005 1.59891 0.826733 0
M  V30 379 H 36.4755 0.747438 0.0827049 0
M  V30 380 H 38.4465 2.9359 -0.533629 0
M  V30 381 C 37.1955 3.25874 1.21249 0
M  V30 382 H 36.5185 3.94023 0.67719 0
M  V30 383 H 37.9585 3.87803 1.71419 0
M  V30 384 C 36.4175 2.49651 2.26221 0
M  V30 385 O 36.9475 2.24355 3.33208 0
M  V30 386 N 35.1535 2.10597 2.00243 0
M  V30 387 H 34.7005 2.31369 1.13252 0
M  V30 388 H 34.6585 1.59913 2.70694 0
M  V30 389 N 38.4306 0.297415 1.54768 0
M  V30 390 C 39.6786 -0.312295 1.99673 0
M  V30 391 C 39.9996 -1.54686 1.18732 0
M  V30 392 O 39.2696 -1.93854 0.282382 0
M  V30 393 H 37.8496 -0.118381 0.73756 0
M  V30 394 H 40.5116 0.407915 1.90583 0
M  V30 395 H 39.6076 -0.586813 3.06534 0
M  V30 396 N 39.9087 -1.5758 0.0250728 0
M  V30 397 C 41.1337 -1.96337 -0.668317 0
M  V30 398 C 41.5587 -0.901314 -1.651 0
M  V30 399 O 40.9167 0.138187 -1.80773 0
M  V30 400 C 40.9647 -3.34191 -1.35457 0
M  V30 401 O 40.0687 -3.30269 -2.46974 0
M  V30 402 H 39.4097 -0.640281 -0.175887 0
M  V30 403 H 41.9397 -2.0442 0.0857224 0
M  V30 404 H 41.9497 -3.70331 -1.71228 0
M  V30 405 H 40.6247 -4.11036 -0.634218 0
M  V30 406 H 39.2017 -3.05841 -2.13344 0
M  V30 407 N 41.3868 0.248026 -1.55636 0
M  V30 408 C 42.6328 0.97767 -1.77678 0
M  V30 409 C 42.9658 1.85016 -0.590135 0
M  V30 410 O 42.2408 1.90095 0.411611 0
M  V30 411 C 42.5238 1.83914 -3.09593 0
M  V30 412 C 42.3768 0.99491 -4.38659 0
M  V30 413 C 43.6958 2.82183 -3.37729 0
M  V30 414 H 40.8148 0.354005 -0.646413 0
M  V30 415 H 43.4568 0.248253 -1.88371 0
M  V30 416 H 41.6068 2.46104 -3.00608 0
M  V30 417 H 43.2788 0.391789 -4.59633 0
M  V30 418 H 41.5218 0.299231 -4.32767 0
M  V30 419 H 42.1928 1.63145 -5.2734 0
M  V30 420 H 44.6688 2.30129 -3.4667 0
M  V30 421 H 43.5448 3.39582 -4.31249 0
M  V30 422 H 43.8058 3.58588 -2.58586 0
M  V30 423 N 42.8649 1.48995 0.513639 0
M  V30 424 C 44.1119 1.57843 1.26854 0
M  V30 425 C 44.4399 0.259501 1.92761 0
M  V30 426 O 43.6949 -0.75159 1.80692 0
M  V30 427 C 43.9939 2.67756 2.36731 0
M  V30 428 C 43.6599 4.09669 1.88368 0
M  V30 429 C 42.3219 4.48291 1.74896 0
M  V30 430 C 44.6739 4.98537 1.52021 0
M  V30 431 C 42.0019 5.73568 1.23438 0
M  V30 432 C 44.3539 6.24319 1.0202 0
M  V30 433 C 43.0179 6.61783 0.871778 0
M  V30 434 H 42.2879 0.577587 0.464192 0
M  V30 435 H 44.9349 1.82778 0.571366 0
M  V30 436 H 43.2399 2.36743 3.12185 0
M  V30 437 H 44.9369 2.71813 2.9482 0
M  V30 438 H 41.5269 3.79176 1.99808 0
M  V30 439 H 45.7109 4.69363 1.61281 0
M  V30 440 H 40.9669 6.01304 1.10648 0
M  V30 441 H 45.1409 6.92566 0.729722 0
M  V30 442 H 42.7679 7.5874 0.470852 0
M  V30 443 N 44.343 -0.763751 1.37857 0
M  V30 444 C 45.591 -1.51957 1.33243 0
M  V30 445 C 45.912 -1.94835 -0.0801709 0
M  V30 446 O 45.182 -1.66894 -1.02582 0
M  V30 447 H 43.762 -0.563626 0.49024 0
M  V30 448 H 46.424 -0.908504 1.7243 0
M  V30 449 H 45.52 -2.41523 1.97669 0
M  V30 450 N 45.8211 -1.22559 -0.990812 0
M  V30 451 C 46.7681 -0.997519 -2.0813 0
M  V30 452 C 47.7381 0.0814702 -1.659 0
M  V30 453 O 48.9231 -0.0685424 -1.90677 0
M  V30 454 C 46.0631 -0.583615 -3.40129 0
M  V30 455 C 45.1761 -1.7336 -3.9569 0
M  V30 456 C 44.3111 -1.26748 -5.15857 0
M  V30 457 C 43.3501 -2.38888 -5.63559 0
M  V30 458 N 42.4871 -1.93308 -6.74964 0
M  V30 459 H 47.3271 -1.93099 -2.26973 0
M  V30 460 H 44.8641 -0.962114 -1.11273 0
M  V30 461 H 46.8221 -0.324801 -4.15934 0
M  V30 462 H 45.4521 0.312845 -3.2128 0
M  V30 463 H 44.5041 -2.10669 -3.16738 0
M  V30 464 H 45.8161 -2.57704 -4.27071 0
M  V30 465 H 44.9701 -0.966173 -5.98957 0
M  V30 466 H 43.7091 -0.394272 -4.86104 0
M  V30 467 H 42.7141 -2.69805 -4.79046 0
M  V30 468 H 43.9391 -3.26728 -5.95336 0
M  V30 469 H 41.8851 -1.08352 -6.4699 0
M  V30 470 H 41.8021 -2.71217 -7.05675 0
M  V30 471 H 43.0701 -1.66252 -7.61564 0
M  V30 472 N 47.2992 1.18797 -1.03562 0
M  V30 473 C 48.5762 1.84469 -0.650434 0
M  V30 474 C 48.9562 1.92319 0.870433 0
M  V30 475 O 48.3042 1.44528 1.76986 0
M  V30 476 C 48.5142 3.2306 -1.32036 0
M  V30 477 C 49.8622 3.9915 -1.44792 0
M  V30 478 O 50.8862 3.32481 -1.27806 0
M  V30 479 O 49.7452 5.18587 -1.72423 0
M  V30 480 H 46.8392 0.795251 -0.226946 0
M  V30 481 H 49.3852 1.26231 -1.13419 0
M  V30 482 H 48.1572 3.1222 -2.3587 0
M  V30 483 H 47.7802 3.88949 -0.8249 0
M  V30 484 N 48.7773 0.814389 1.34928 0
M  V30 485 C 49.7093 0.187834 2.28429 0
M  V30 486 C 50.7223 -0.617374 1.5064 0
M  V30 487 O 51.9113 -0.448454 1.72775 0
M  V30 488 C 49.0113 -0.755962 3.30361 0
M  V30 489 C 48.1843 0.00456686 4.374 0
M  V30 490 C 47.2433 -0.858876 5.19143 0
M  V30 491 O 46.2693 -0.306968 5.68372 0
M  V30 492 N 47.4713 -2.17988 5.38016 0
M  V30 493 H 50.2363 0.991105 2.82838 0
M  V30 494 H 47.7973 0.670561 1.4736 0
M  V30 495 H 49.7893 -1.338 3.81942 0
M  V30 496 H 48.3593 -1.46001 2.7641 0
M  V30 497 H 47.5793 0.767865 3.86649 0
M  V30 498 H 48.8673 0.528422 5.06049 0
M  V30 499 H 48.2653 -2.65212 4.99679 0
M  V30 500 H 46.8223 -2.71098 5.92747 0
M  V30 501 N 50.2554 -1.46986 0.568584 0
M  V30 502 C 51.6664 -1.86188 0.138219 0
M  V30 503 C 52.0174 -1.47388 -1.29504 0
M  V30 504 O 51.1424 -0.88219 -1.97602 0
M  V30 505 C 51.7374 -3.3792 0.244065 0
M  V30 506 C 50.2964 -3.76171 -0.131335 0
M  V30 507 C 49.4434 -2.71027 0.586465 0
M  V30 508 H 52.3944 -1.38342 0.777645 0
M  V30 509 H 52.4154 -3.76729 -0.534351 0
M  V30 510 H 51.9274 -3.66128 1.28731 0
M  V30 511 H 50.0284 -3.5358 -1.17526 0
M  V30 512 H 50.1414 -4.78523 0.235146 0
M  V30 513 H 48.5054 -2.54684 0.0282722 0
M  V30 514 H 49.2884 -3.02077 1.63109 0
M  V30 515 N 51.7335 -0.305618 -1.54608 0
M  V30 516 C 52.9825 0.303098 -1.9941 0
M  V30 517 C 53.2955 1.54648 -1.19764 0
M  V30 518 O 54.5015 2.23007 -1.54855 0
M  V30 519 C 52.9575 0.590588 -3.55021 0
M  V30 520 C 52.5655 -0.634719 -4.43481 0
M  V30 521 C 54.3095 1.16025 -4.08336 0
M  V30 522 C 52.2165 -0.320126 -5.90533 0
M  V30 523 H 51.1465 0.117031 -0.744862 0
M  V30 524 H 53.7975 -0.415045 -1.78745 0
M  V30 525 H 52.1795 1.36845 -3.71604 0
M  V30 526 H 53.3535 -1.41079 -4.38672 0
M  V30 527 H 51.6685 -1.12333 -4.00962 0
M  V30 528 H 54.2655 1.40994 -5.15776 0
M  V30 529 H 54.6085 2.10397 -3.5922 0
M  V30 530 H 55.1415 0.443985 -3.95315 0
M  V30 531 H 51.8805 -1.23254 -6.43808 0
M  V30 532 H 51.4005 0.418579 -5.98338 0
M  V30 533 H 53.0795 0.0766241 -6.46955 0
M  V30 534 N 53.2116 1.57565 -0.0334293 0
M  V30 535 C 54.4606 1.91155 0.643639 0
M  V30 536 C 54.7736 0.91192 1.73042 0
M  V30 537 O 55.9796 1.13923 2.46442 0
M  V30 538 C 54.4356 3.39443 1.1961 0
M  V30 539 C 54.0436 4.47774 0.142381 0
M  V30 540 C 55.7876 3.82094 1.84944 0
M  V30 541 C 53.6946 5.87162 0.706727 0
M  V30 542 H 52.6246 0.713368 0.244176 0
M  V30 543 H 55.2756 1.8323 -0.0994323 0
M  V30 544 H 53.6576 3.42313 1.99092 0
M  V30 545 H 54.8316 4.56469 -0.630296 0
M  V30 546 H 53.1466 4.14352 -0.412446 0
M  V30 547 H 55.7436 4.83591 2.2813 0
M  V30 548 H 56.0866 3.17386 2.69392 0
M  V30 549 H 56.6196 3.81665 1.12145 0
M  V30 550 H 53.3586 6.55424 -0.0997178 0
M  V30 551 H 52.8786 5.82064 1.44779 0
M  V30 552 H 54.5576 6.35866 1.19514 0
M  V30 553 N 54.6897 -0.239769 1.55765 0
M  V30 554 C 55.6197 -1.30052 1.9393 0
M  V30 555 C 56.6007 -1.49839 0.805132 0
M  V30 556 O 57.7857 -1.62328 1.06599 0
M  V30 557 C 54.9157 -2.65391 2.2402 0
M  V30 558 C 53.8697 -2.60289 3.39755 0
M  V30 559 C 53.1957 -3.99489 3.55405 0
M  V30 560 C 54.4957 -2.16654 4.75246 0
M  V30 561 H 56.1897 -0.983573 2.82783 0
M  V30 562 H 53.7357 -0.471701 1.36055 0
M  V30 563 H 55.6887 -3.3974 2.49308 0
M  V30 564 H 54.4127 -2.98736 1.32 0
M  V30 565 H 53.0717 -1.88398 3.14487 0
M  V30 566 H 52.7197 -4.30112 2.60793 0
M  V30 567 H 52.4197 -3.96962 4.33238 0
M  V30 568 H 53.9437 -4.75528 3.83022 0
M  V30 569 H 55.3577 -2.80737 4.99859 0
M  V30 570 H 53.7547 -2.25223 5.56232 0
M  V30 571 H 54.8247 -1.11835 4.71827 0
M  V30 572 N 56.1678 -1.49265 -0.50573 0
M  V30 573 C 57.4138 -1.58748 -1.26202 0
M  V30 574 C 57.7468 -0.271227 -1.92297 0
M  V30 575 O 57.0218 0.724831 -1.80489 0
M  V30 576 C 57.3048 -2.74332 -2.33268 0
M  V30 577 C 57.1578 -4.15737 -1.71705 0
M  V30 578 C 58.4768 -2.85576 -3.34865 0
M  V30 579 H 55.5958 -0.577826 -0.457478 0
M  V30 580 H 58.2378 -1.81532 -0.560897 0
M  V30 581 H 56.3878 -2.55036 -2.93068 0
M  V30 582 H 58.0598 -4.46537 -1.15769 0
M  V30 583 H 56.3028 -4.21605 -1.02135 0
M  V30 584 H 56.9738 -4.92477 -2.49341 0
M  V30 585 H 59.4498 -3.03127 -2.8505 0
M  V30 586 H 58.3258 -3.68135 -4.07146 0
M  V30 587 H 58.5868 -1.94732 -3.96903 0
M  V30 588 N 57.6459 0.756429 -1.3826 0
M  V30 589 C 58.5759 1.88374 -1.37976 0
M  V30 590 C 59.5569 1.68311 -0.246082 0
M  V30 591 O 60.7419 1.88944 -0.44874 0
M  V30 592 C 57.8719 3.25864 -1.20125 0
M  V30 593 C 56.8259 3.60523 -2.30666 0
M  V30 594 C 56.1519 4.9672 -1.97923 0
M  V30 595 C 57.4519 3.65692 -3.72916 0
M  V30 596 H 59.1459 1.88869 -2.32312 0
M  V30 597 H 56.6919 0.907272 -1.11824 0
M  V30 598 H 58.6449 4.0438 -1.18552 0
M  V30 599 H 57.3689 3.25841 -0.222498 0
M  V30 600 H 56.0279 2.84324 -2.3142 0
M  V30 601 H 55.6759 4.93253 -0.985393 0
M  V30 602 H 55.3759 5.20878 -2.71955 0
M  V30 603 H 56.8999 5.77618 -1.97964 0
M  V30 604 H 58.3139 4.34328 -3.74208 0
M  V30 605 H 56.7109 4.01358 -4.4613 0
M  V30 606 H 57.7809 2.65987 -4.05436 0
M  V30 607 N 59.124 1.23083 0.984299 0
M  V30 608 C 60.054 1.03292 2.09411 0
M  V30 609 C 61.035 -0.048923 1.7003 0
M  V30 610 O 62.22 0.114967 1.93859 0
M  V30 611 C 59.35 0.619155 3.41736 0
M  V30 612 C 58.304 1.64791 3.95004 0
M  V30 613 C 57.63 1.0897 5.23478 0
M  V30 614 C 58.93 3.03999 4.24714 0
M  V30 615 H 60.624 1.96119 2.26225 0
M  V30 616 H 58.17 0.944344 1.08711 0
M  V30 617 H 60.123 0.467777 4.18796 0
M  V30 618 H 58.847 -0.344786 3.24775 0
M  V30 619 H 57.506 1.78721 3.20085 0
M  V30 620 H 57.154 0.11686 5.02864 0
M  V30 621 H 56.854 1.77704 5.60085 0
M  V30 622 H 58.378 0.950093 6.03163 0
M  V30 623 H 59.792 2.93393 4.92538 0
M  V30 624 H 58.189 3.69936 4.72512 0
M  V30 625 H 59.259 3.53285 3.32142 0
M  V30 626 N 60.6021 -1.18246 1.0419 0
M  V30 627 C 61.8791 -1.84121 0.660208 0
M  V30 628 C 62.2591 -1.92778 -0.860221 0
M  V30 629 O 61.6071 -1.45464 -1.76217 0
M  V30 630 C 61.8171 -3.22355 1.33747 0
M  V30 631 C 63.1651 -3.98376 1.46906 0
M  V30 632 O 64.1891 -3.31799 1.29568 0
M  V30 633 O 63.0481 -5.17665 1.75171 0
M  V30 634 H 60.1421 -0.794036 0.231161 0
M  V30 635 H 62.6881 -1.25628 1.14087 0
M  V30 636 H 61.4601 -3.10964 2.37522 0
M  V30 637 H 61.0831 -3.88506 0.845515 0
M  V30 638 N 62.0802 -0.821533 -1.34494 0
M  V30 639 C 63.3292 -0.405355 -1.97585 0
M  V30 640 C 63.6422 1.03677 -1.65863 0
M  V30 641 O 64.8482 1.55679 -2.22433 0
M  V30 642 C 63.3042 -0.673861 -3.53535 0
M  V30 643 C 62.9122 -2.12951 -3.94152 0
M  V30 644 C 64.6562 -0.32378 -4.23263 0
M  V30 645 C 62.5632 -2.34298 -5.43009 0
M  V30 646 H 61.4932 -0.147836 -0.739365 0
M  V30 647 H 64.1442 -1.00769 -1.53355 0
M  V30 648 H 62.5262 -0.00137554 -3.96 0
M  V30 649 H 63.7002 -2.84104 -3.62797 0
M  V30 650 H 62.0152 -2.44089 -3.37356 0
M  V30 651 H 64.6122 -0.461126 -5.32708 0
M  V30 652 H 64.9552 0.731586 -4.09821 0
M  V30 653 H 65.4882 -0.950786 -3.8627 0
M  V30 654 H 62.2272 -3.38335 -5.61435 0
M  V30 655 H 61.7472 -1.67687 -5.75883 0
M  V30 656 H 63.4262 -2.16588 -6.09671 0
M  V30 657 N 63.5583 1.46682 -0.576371 0
M  V30 658 C 64.7863 2.06798 -0.0649635 0
M  V30 659 C 65.2013 1.42612 1.23723 0
M  V30 660 O 64.5583 0.529203 1.74659 0
M  V30 661 C 64.6093 3.6132 0.114202 0
M  V30 662 O 64.3303 4.23104 -1.13644 0
M  V30 663 C 65.8313 4.38349 0.66069 0
M  V30 664 H 63.0513 0.668778 -0.0545616 0
M  V30 665 H 65.5953 1.88404 -0.795237 0
M  V30 666 H 63.7503 3.79162 0.794673 0
M  V30 667 H 64.1643 5.15894 -0.946253 0
M  V30 668 H 65.6383 5.47081 0.73526 0
M  V30 669 H 66.1153 4.05953 1.67627 0
M  V30 670 H 66.7213 4.25297 0.0152951 0
M  V30 671 N 65.0364 0.313813 1.54444 0
M  V30 672 C 66.4474 -0.176243 1.85866 0
M  V30 673 C 66.7984 -1.52405 1.23561 0
M  V30 674 O 65.9234 -2.09605 0.538016 0
M  V30 675 C 66.5184 -0.32657 3.37222 0
M  V30 676 C 65.0774 -0.760846 3.6863 0
M  V30 677 C 64.2244 0.123247 2.77026 0
M  V30 678 H 67.1754 0.534418 1.49431 0
M  V30 679 H 67.1964 -1.15908 3.62416 0
M  V30 680 H 66.7084 0.654531 3.82541 0
M  V30 681 H 64.8094 -1.75204 3.28838 0
M  V30 682 H 64.9224 -0.571353 4.75681 0
M  V30 683 H 63.2864 -0.399597 2.51546 0
M  V30 684 H 64.0694 1.10094 3.25168 0
M  V30 685 N 66.5145 -1.57545 0.0417849 0
M  V30 686 C 67.4475 -2.06514 -0.970928 0
M  V30 687 C 68.4255 -0.963607 -1.30971 0
M  V30 688 O 69.6095 -1.23486 -1.4242 0
M  V30 689 C 66.7365 -2.4978 -2.28752 0
M  V30 690 C 65.7825 -3.71078 -2.10246 0
M  V30 691 S 66.6155 -5.17158 -1.38952 0
M  V30 692 C 67.7715 -5.6373 -2.71954 0
M  V30 693 H 68.0045 -2.9209 -0.554129 0
M  V30 694 H 65.5375 -1.53459 -0.17024 0
M  V30 695 H 67.4955 -2.75371 -3.04435 0
M  V30 696 H 66.1565 -1.64527 -2.67562 0
M  V30 697 H 65.3495 -3.9924 -3.07609 0
M  V30 698 H 64.9515 -3.45705 -1.42704 0
M  V30 699 H 67.2435 -5.68743 -3.68154 0
M  V30 700 H 68.1865 -6.63086 -2.4844 0
M  V30 701 H 68.5945 -4.91424 -2.77782 0
M  V30 702 N 67.9926 0.231505 -1.5589 0
M  V30 703 C 68.9256 1.31369 -1.86595 0
M  V30 704 C 69.9036 1.45671 -0.722397 0
M  V30 705 O 71.0876 1.61642 -0.969743 0
M  V30 706 C 68.2146 2.68529 -2.06421 0
M  V30 707 C 67.2606 2.71295 -3.29092 0
M  V30 708 S 68.0936 2.26358 -4.85306 0
M  V30 709 C 69.2496 3.65414 -5.08157 0
M  V30 710 H 69.4826 1.05128 -2.78092 0
M  V30 711 H 67.0156 0.433259 -1.48197 0
M  V30 712 H 68.9736 3.47499 -2.18528 0
M  V30 713 H 67.6346 2.91999 -1.15738 0
M  V30 714 H 66.8276 3.72063 -3.39978 0
M  V30 715 H 66.4296 2.0038 -3.15791 0
M  V30 716 H 68.7216 4.6103 -4.96445 0
M  V30 717 H 69.6646 3.5945 -6.10083 0
M  V30 718 H 70.0726 3.5864 -4.35933 0
M  V30 719 N 69.4707 1.49531 0.497807 0
M  V30 720 C 70.7187 1.58865 1.24926 0
M  V30 721 C 71.0397 0.278721 1.92998 0
M  V30 722 O 70.3097 -0.702144 1.82885 0
M  V30 723 H 68.8897 0.585343 0.464094 0
M  V30 724 H 71.5517 1.86174 0.57666 0
M  V30 725 H 70.6477 2.38633 2.01149 0
M  V30 726 N 70.9488 -0.749086 1.3866 0
M  V30 727 C 72.1948 -1.51056 1.35314 0
M  V30 728 C 72.5278 -1.94121 -0.0553751 0
M  V30 729 O 71.8028 -1.65763 -1.01749 0
M  V30 730 C 72.0858 -2.76003 2.31288 0
M  V30 731 C 71.9388 -2.39047 3.8102 0
M  V30 732 C 73.2578 -3.78046 2.2532 0
M  V30 733 H 70.3768 -0.547972 0.492844 0
M  V30 734 H 73.0188 -0.857628 1.69543 0
M  V30 735 H 71.1688 -3.31716 2.02229 0
M  V30 736 H 72.8408 -1.89074 4.20771 0
M  V30 737 H 71.0838 -1.71449 3.98482 0
M  V30 738 H 71.7548 -3.28462 4.4364 0
M  V30 739 H 74.2308 -3.31884 2.50983 0
M  V30 740 H 73.1068 -4.63159 2.94576 0
M  V30 741 H 73.3678 -4.23957 1.25352 0
M  V30 742 N 72.4269 -1.23603 -0.977757 0
M  V30 743 C 73.3569 -1.04401 -2.0886 0
M  V30 744 C 74.3379 0.0399052 -1.70053 0
M  V30 745 O 75.5229 -0.125246 -1.93796 0
M  V30 746 C 72.6529 -0.637269 -3.41403 0
M  V30 747 C 71.6069 -1.66883 -3.94124 0
M  V30 748 C 70.9329 -1.11745 -5.22893 0
M  V30 749 C 72.2329 -3.06247 -4.23096 0
M  V30 750 H 73.9269 -1.97316 -2.25182 0
M  V30 751 H 71.4729 -0.950096 -1.08209 0
M  V30 752 H 73.4259 -0.48998 -4.18542 0
M  V30 753 H 72.1499 0.327557 -3.24953 0
M  V30 754 H 70.8089 -1.80416 -3.19133 0
M  V30 755 H 70.4569 -0.143527 -5.02795 0
M  V30 756 H 70.1569 -1.80672 -5.59134 0
M  V30 757 H 71.6809 -0.982067 -6.02651 0
M  V30 758 H 73.0949 -2.96001 -4.90975 0
M  V30 759 H 71.4919 -3.72436 -4.70544 0
M  V30 760 H 72.5619 -3.55041 -3.30263 0
M  V30 761 N 73.905 1.17692 -1.04816 0
M  V30 762 C 75.182 1.83768 -0.669963 0
M  V30 763 C 75.562 1.93232 0.849986 0
M  V30 764 O 74.91 1.46397 1.75443 0
M  V30 765 C 75.12 3.21641 -1.35455 0
M  V30 766 C 76.468 3.97592 -1.49017 0
M  V30 767 O 77.492 3.31107 -1.31326 0
M  V30 768 O 76.351 5.16729 -1.77914 0
M  V30 769 H 73.445 0.792799 -0.235368 0
M  V30 770 H 75.991 1.25021 -1.14751 0
M  V30 771 H 74.763 3.097 -2.39168 0
M  V30 772 H 74.386 3.88052 -0.866107 0
M  V30 773 N 75.3831 0.828654 1.34056 0
M  V30 774 C 76.6311 0.41863 1.97717 0
M  V30 775 C 76.9521 -1.02314 1.66002 0
M  V30 776 O 76.2221 -1.71119 0.953683 0
M  V30 777 H 74.8021 0.151809 0.731412 0
M  V30 778 H 77.4641 1.05936 1.63596 0
M  V30 779 H 76.5601 0.542318 3.07352 0
M  V30 780 N 76.8612 -1.46375 0.584142 0
M  V30 781 C 78.1072 -2.02678 0.0703716 0
M  V30 782 C 78.4402 -1.4545 -1.28678 0
M  V30 783 O 77.7152 -0.62014 -1.84349 0
M  V30 784 C 77.9982 -3.60099 0.00614674 0
M  V30 785 C 77.8512 -4.27709 1.3923 0
M  V30 786 C 79.1702 -4.34598 -0.693742 0
M  V30 787 H 76.2892 -0.736504 0.027047 0
M  V30 788 H 78.9312 -1.74501 0.751615 0
M  V30 789 H 77.0812 -3.84236 -0.574009 0
M  V30 790 H 78.7532 -4.14832 2.01773 0
M  V30 791 H 76.9962 -3.87016 1.95962 0
M  V30 792 H 77.6672 -5.36478 1.29982 0
M  V30 793 H 80.1432 -4.15615 -0.200869 0
M  V30 794 H 79.0192 -5.44318 -0.707714 0
M  V30 795 H 79.2802 -4.05759 -1.75533 0
M  V30 796 N 78.3393 -0.321999 -1.54275 0
M  V30 797 C 79.2693 0.537411 -2.27231 0
M  V30 798 C 80.2503 1.12064 -1.27968 0
M  V30 799 O 81.4353 1.14606 -1.56777 0
M  V30 800 C 78.5653 1.69919 -3.02894 0
M  V30 801 C 77.5193 1.24534 -4.09482 0
M  V30 802 C 76.8453 2.49394 -4.72977 0
M  V30 803 C 78.1453 0.361335 -5.21049 0
M  V30 804 H 79.8393 -0.0711406 -2.99315 0
M  V30 805 H 77.3853 -0.0356555 -1.43956 0
M  V30 806 H 79.3383 2.30668 -3.52662 0
M  V30 807 H 78.0623 2.33431 -2.28424 0
M  V30 808 H 76.7213 0.660782 -3.60596 0
M  V30 809 H 76.3693 3.11265 -3.95124 0
M  V30 810 H 76.0693 2.19718 -5.44975 0
M  V30 811 H 77.5933 3.10908 -5.25517 0
M  V30 812 H 79.0073 0.875072 -5.66582 0
M  V30 813 H 77.4043 0.157428 -5.99893 0
M  V30 814 H 78.4743 -0.60822 -4.8107 0
M  V30 815 N 79.8174 1.5752 -0.0501392 0
M  V30 816 C 80.7504 2.07026 0.959962 0
M  V30 817 C 81.7284 0.970539 1.30458 0
M  V30 818 O 82.9124 1.2424 1.41763 0
M  V30 819 C 80.0394 2.5099 2.27424 0
M  V30 820 C 79.0854 3.72188 2.08275 0
M  V30 821 S 79.9184 5.17888 1.36207 0
M  V30 822 C 81.0744 5.65165 2.6896 0
M  V30 823 H 81.3074 2.9238 0.538631 0
M  V30 824 H 78.8404 1.53547 0.162099 0
M  V30 825 H 80.7984 2.76982 3.02971 0
M  V30 826 H 79.4594 1.65944 2.66686 0
M  V30 827 H 78.6524 4.00866 3.05487 0
M  V30 828 H 78.2544 3.46457 1.40868 0
M  V30 829 H 80.5464 5.70687 3.65133 0
M  V30 830 H 81.4894 6.64394 2.4492 0
M  V30 831 H 81.8974 4.9289 2.75172 0
M  V30 832 N 81.2955 -0.223234 1.56011 0
M  V30 833 C 82.2055 -1.29766 1.95443 0
M  V30 834 C 83.2215 -1.51373 0.858028 0
M  V30 835 O 84.3975 -1.64536 1.16146 0
M  V30 836 C 81.4625 -2.62772 2.26167 0
M  V30 837 C 80.5235 -2.49482 3.49367 0
M  V30 838 C 79.7565 -3.76145 3.78616 0
M  V30 839 O 79.9795 -4.79087 3.09568 0
M  V30 840 O 78.9135 -3.73358 4.72109 0
M  V30 841 H 82.7395 -0.99309 2.87004 0
M  V30 842 H 80.3245 -0.425958 1.43199 0
M  V30 843 H 82.2065 -3.41327 2.47131 0
M  V30 844 H 80.8815 -2.92913 1.37781 0
M  V30 845 H 79.7885 -1.69133 3.33684 0
M  V30 846 H 81.1215 -2.2428 4.38131 0
M  V30 847 N 82.7736 -1.49793 -0.48987 0
M  V30 848 C 83.7036 -1.70201 -1.59856 0
M  V30 849 C 84.6846 -0.55076 -1.60937 0
M  V30 850 O 85.8696 -0.787841 -1.77501 0
M  V30 851 C 82.9996 -1.77882 -2.98287 0
M  V30 852 C 81.9536 -2.92907 -3.12073 0
M  V30 853 C 81.2796 -2.85712 -4.51965 0
M  V30 854 C 82.5796 -4.3369 -2.91051 0
M  V30 855 H 84.2736 -2.63025 -1.43032 0
M  V30 856 H 81.8196 -1.26574 -0.686664 0
M  V30 857 H 83.7726 -1.90744 -3.75759 0
M  V30 858 H 82.4966 -0.816653 -3.16225 0
M  V30 859 H 81.1556 -2.79665 -2.37029 0
M  V30 860 H 80.8036 -1.8738 -4.66795 0
M  V30 861 H 80.5036 -3.62921 -4.62128 0
M  V30 862 H 82.0276 -3.00598 -5.31482 0
M  V30 863 H 83.4416 -4.47555 -3.58284 0
M  V30 864 H 81.8386 -5.12205 -3.12675 0
M  V30 865 H 82.9086 -4.47362 -1.87071 0
M  V30 866 N 84.2517 0.741722 -1.39055 0
M  V30 867 C 85.1837 1.8657 -1.33133 0
M  V30 868 C 86.1967 1.61001 -0.241329 0
M  V30 869 O 87.3857 1.7136 -0.499784 0
M  V30 870 C 84.4857 3.22457 -1.04283 0
M  V30 871 C 83.6587 3.75435 -2.24427 0
M  V30 872 C 82.7177 4.89867 -1.92138 0
M  V30 873 O 81.7437 5.03879 -2.64754 0
M  V30 874 N 82.9457 5.73738 -0.88347 0
M  V30 875 H 85.7107 1.92156 -2.29991 0
M  V30 876 H 83.2717 0.922172 -1.3307 0
M  V30 877 H 85.2637 3.9657 -0.807128 0
M  V30 878 H 83.8337 3.12181 -0.161807 0
M  V30 879 H 83.0537 2.92751 -2.6399 0
M  V30 880 H 84.3417 4.07563 -3.04581 0
M  V30 881 H 83.7397 5.64999 -0.281517 0
M  V30 882 H 82.2967 6.47947 -0.707662 0
M  V30 883 N 85.7298 1.2412 0.971189 0
M  V30 884 C 87.0068 0.986867 1.6888 0
M  V30 885 C 87.3868 -0.491857 2.0529 0
M  V30 886 O 86.7348 -1.46531 1.75331 0
M  V30 887 C 86.9448 1.9063 2.92338 0
M  V30 888 C 88.2928 2.17515 3.64654 0
M  V30 889 O 89.3168 1.88254 3.02388 0
M  V30 890 O 88.1758 2.6719 4.7673 0
M  V30 891 H 85.2698 0.372944 0.738134 0
M  V30 892 H 87.8158 1.35203 1.02559 0
M  V30 893 H 86.5878 2.90552 2.62097 0
M  V30 894 H 86.2108 1.54408 3.66393 0
M  V30 895 N 87.2079 -1.17134 1.05439 0
M  V30 896 C 88.4479 -1.89137 0.77502 0
M  V30 897 C 88.8119 -1.79345 -0.685526 0
M  V30 898 O 90.0129 -2.46188 -1.0791 0
M  V30 899 C 88.2839 -3.35003 1.2453 0
M  V30 900 S 89.8429 -4.24952 1.09367 0
M  V30 901 H 86.6609 -0.652949 0.281387 0
M  V30 902 H 89.2629 -1.4145 1.34953 0
M  V30 903 H 87.9669 -3.39666 2.30338 0
M  V30 904 H 87.4979 -3.87736 0.665166 0
M  V30 905 H 89.5129 -4.96196 0.0193397 0
M  V30 906 N 88.686 -0.835752 -1.33615 0
M  V30 907 C 89.649 -0.272 -2.2758 0
M  V30 908 C 90.649 0.557487 -1.50827 0
M  V30 909 O 91.839 0.37173 -1.70188 0
M  V30 910 C 88.971 0.617173 -3.35267 0
M  V30 911 H 90.164 -1.10111 -2.78954 0
M  V30 912 H 87.717 -0.608594 -1.43965 0
M  V30 913 H 88.452 1.46884 -2.89129 0
M  V30 914 H 88.237 0.0237066 -3.92093 0
M  V30 915 H 89.727 1.005 -4.05326 0
M  V30 916 N 90.1641 1.46063 -0.591896 0
M  V30 917 C 91.0941 2.33172 0.123673 0
M  V30 918 C 92.0751 1.45897 0.87453 0
M  V30 919 O 93.2601 1.74698 0.848181 0
M  V30 920 C 90.3901 3.28336 1.13194 0
M  V30 921 C 89.3441 4.25124 0.495324 0
M  V30 922 C 88.6701 5.09863 1.61071 0
M  V30 923 C 89.9701 5.19143 -0.573425 0
M  V30 924 H 91.6641 2.93252 -0.603646 0
M  V30 925 H 89.2101 1.41014 -0.291741 0
M  V30 926 H 91.1631 3.88137 1.64097 0
M  V30 927 H 89.8871 2.66383 1.88965 0
M  V30 928 H 88.5461 3.66599 0.00729452 0
M  V30 929 H 88.1941 4.44288 2.35832 0
M  V30 930 H 87.8941 5.75417 1.19035 0
M  V30 931 H 89.4181 5.72529 2.12233 0
M  V30 932 H 90.8321 5.73106 -0.1491 0
M  V30 933 H 89.2291 5.93089 -0.914636 0
M  V30 934 H 90.2991 4.62519 -1.45617 0
M  V30 935 N 91.6422 0.330177 1.54103 0
M  V30 936 C 93.0532 -0.15652 1.86043 0
M  V30 937 C 93.4042 -1.51086 1.2517 0
M  V30 938 O 92.5292 -2.09023 0.560217 0
M  V30 939 C 93.1242 -0.290784 3.3755 0
M  V30 940 C 91.6832 -0.721705 3.69416 0
M  V30 941 C 90.8302 0.152622 2.7688 0
M  V30 942 H 93.7812 0.550237 1.48856 0
M  V30 943 H 93.8022 -1.12058 3.63625 0
M  V30 944 H 93.3142 0.695068 3.81825 0
M  V30 945 H 91.4152 -1.71706 3.30678 0
M  V30 946 H 91.5282 -0.520869 4.7626 0
M  V30 947 H 89.8922 -0.372894 2.51956 0
M  V30 948 H 90.6752 1.13536 3.23982 0
M  V30 949 N 93.1203 -1.57491 0.0584922 0
M  V30 950 C 94.0503 -2.14988 -0.911178 0
M  V30 951 C 95.0313 -1.07343 -1.31952 0
M  V30 952 O 96.2163 -1.35318 -1.39294 0
M  V30 953 C 93.3463 -2.70078 -2.18347 0
M  V30 954 C 92.3003 -3.82771 -1.91495 0
M  V30 955 C 91.6263 -4.24408 -3.25241 0
M  V30 956 C 92.9263 -5.07592 -1.23075 0
M  V30 957 H 94.6203 -2.96263 -0.432246 0
M  V30 958 H 92.1663 -1.42512 -0.206469 0
M  V30 959 H 94.1193 -3.08943 -2.86587 0
M  V30 960 H 92.8433 -1.86005 -2.68458 0
M  V30 961 H 91.5023 -3.44389 -1.25664 0
M  V30 962 H 91.1503 -3.37275 -3.73168 0
M  V30 963 H 90.8503 -5.00366 -3.08071 0
M  V30 964 H 92.3743 -4.65879 -3.94701 0
M  V30 965 H 93.7883 -5.43857 -1.81362 0
M  V30 966 H 92.1853 -5.88741 -1.16207 0
M  V30 967 H 93.2553 -4.84454 -0.207847 0
M  V30 968 N 94.5984 0.214957 -1.56127 0
M  V30 969 C 95.5284 1.2695 -1.95974 0
M  V30 970 C 96.5094 1.48539 -0.828868 0
M  V30 971 O 97.6944 1.60611 -1.09168 0
M  V30 972 C 94.8244 2.61794 -2.28214 0
M  V30 973 C 93.7784 2.54851 -3.43853 0
M  V30 974 C 93.1044 3.93785 -3.61715 0
M  V30 975 C 94.4044 2.09065 -4.78632 0
M  V30 976 H 96.0984 0.93846 -2.84312 0
M  V30 977 H 93.6444 0.449996 -1.36788 0
M  V30 978 H 95.5974 3.35731 -2.54682 0
M  V30 979 H 94.3214 2.96599 -1.36736 0
M  V30 980 H 92.9804 1.8337 -3.17444 0
M  V30 981 H 92.6284 4.25908 -2.67602 0
M  V30 982 H 92.3284 3.90019 -4.39498 0
M  V30 983 H 93.8524 4.69374 -3.90539 0
M  V30 984 H 95.2664 2.7275 -5.04262 0
M  V30 985 H 93.6634 2.16346 -5.59745 0
M  V30 986 H 94.7334 1.04315 -4.73547 0
M  V30 987 N 96.0765 1.50051 0.48192 0
M  V30 988 C 97.0235 1.68122 1.58125 0
M  V30 989 C 97.9935 0.522545 1.57666 0
M  V30 990 O 99.1785 0.751844 1.75362 0
M  V30 991 C 96.3185 1.77142 2.96167 0
M  V30 992 C 95.4315 3.0444 3.06497 0
M  V30 993 C 94.5665 3.04321 4.35387 0
M  V30 994 C 93.6055 4.26118 4.3942 0
M  V30 995 N 92.7425 4.238 5.59766 0
M  V30 996 H 97.5825 2.6198 1.42022 0
M  V30 997 H 95.1195 1.29877 0.690687 0
M  V30 998 H 97.0775 1.80352 3.76203 0
M  V30 999 H 95.7075 0.867329 3.1093 0
M  V30 1000 H 94.7595 3.10752 2.19402 0
M  V30 1001 H 96.0715 3.94426 3.05336 0
M  V30 1002 H 95.2255 3.062 5.23762 0
M  V30 1003 H 93.9645 2.12147 4.39141 0
M  V30 1004 H 92.9695 4.24463 3.49444 0
M  V30 1005 H 94.1945 5.19507 4.37366 0
M  V30 1006 H 92.1405 3.34474 5.64326 0
M  V30 1007 H 92.0575 5.07542 5.60301 0
M  V30 1008 H 93.3255 4.2981 6.50295 0
M  V30 1009 N 97.5546 -0.734337 1.39446 0
M  V30 1010 C 98.8316 -1.48579 1.27215 0
M  V30 1011 C 99.2116 -2.1077 -0.117968 0
M  V30 1012 O 98.5596 -1.98646 -1.12924 0
M  V30 1013 C 98.7696 -2.53667 2.39696 0
M  V30 1014 C 100.118 -3.20031 2.79044 0
M  V30 1015 O 101.142 -2.6398 2.39151 0
M  V30 1016 O 100.001 -4.21455 3.47905 0
M  V30 1017 H 97.0946 -0.659816 0.49857 0
M  V30 1018 H 99.6406 -0.768106 1.51322 0
M  V30 1019 H 98.4126 -2.06096 3.32626 0
M  V30 1020 H 98.0356 -3.32994 2.17258 0
M  V30 1021 N 99.0327 -1.24633 -0.964593 0
M  V30 1022 C 100.279 -1.08949 -1.71049 0
M  V30 1023 C 100.612 0.370302 -1.90637 0
M  V30 1024 O 99.8867 1.27349 -1.47011 0
M  V30 1025 C 100.17 -1.83329 -3.0994 0
M  V30 1026 C 100.023 -3.37077 -2.97824 0
M  V30 1027 C 101.342 -1.60846 -4.09654 0
M  V30 1028 H 98.4607 -0.397178 -0.620821 0
M  V30 1029 H 101.103 -1.5334 -1.12191 0
M  V30 1030 H 99.2527 -1.45597 -3.60186 0
M  V30 1031 H 100.925 -3.84425 -2.5498 0
M  V30 1032 H 99.1677 -3.65298 -2.33965 0
M  V30 1033 H 99.8387 -3.84324 -3.96231 0
M  V30 1034 H 102.315 -1.93674 -3.68279 0
M  V30 1035 H 101.191 -2.1534 -5.04896 0
M  V30 1036 H 101.452 -0.547434 -4.38698 0
M  V30 1037 N 100.511 1.16574 -1.06058 0
M  V30 1038 C 101.76 1.86385 -0.770944 0
M  V30 1039 C 102.073 1.82448 0.705129 0
M  V30 1040 O 103.279 2.47815 1.10905 0
M  V30 1041 C 101.735 3.34466 -1.32893 0
M  V30 1042 C 101.343 3.46883 -2.83507 0
M  V30 1043 C 103.087 4.09548 -1.11672 0
M  V30 1044 C 100.994 4.89036 -3.32562 0
M  V30 1045 H 99.9238 0.698181 -0.284709 0
M  V30 1046 H 102.575 1.31583 -1.27899 0
M  V30 1047 H 100.957 3.88859 -0.748662 0
M  V30 1048 H 102.131 3.02663 -3.47465 0
M  V30 1049 H 100.446 2.85232 -3.03368 0
M  V30 1050 H 103.043 5.14434 -1.45814 0
M  V30 1051 H 103.386 4.16264 -0.0549535 0
M  V30 1052 H 103.919 3.61387 -1.66265 0
M  V30 1053 H 100.658 4.87499 -4.38207 0
M  V30 1054 H 100.178 5.3389 -2.73351 0
M  V30 1055 H 101.857 5.57843 -3.2775 0
M  V30 1056 N 101.989 0.842826 1.3317 0
M  V30 1057 C 102.952 0.284065 2.27433 0
M  V30 1058 C 103.952 -0.54948 1.5112 0
M  V30 1059 O 105.142 -0.362699 1.70382 0
M  V30 1060 C 102.274 -0.599384 3.35589 0
M  V30 1061 H 103.467 1.11589 2.78366 0
M  V30 1062 H 101.02 0.616221 1.4364 0
M  V30 1063 H 101.755 -1.45349 2.89904 0
M  V30 1064 H 101.54 -0.00291266 3.921 0
M  V30 1065 H 103.03 -0.983488 4.05854 0
M  V30 1066 N 103.467 -1.45747 0.599634 0
M  V30 1067 C 104.695 -2.06668 0.0978551 0
M  V30 1068 C 105.11 -1.44562 -1.21439 0
M  V30 1069 O 104.467 -0.556923 -1.73795 0
M  V30 1070 C 104.518 -3.61456 -0.0567044 0
M  V30 1071 O 104.239 -4.21242 1.20361 0
M  V30 1072 C 105.74 -4.39345 -0.590869 0
M  V30 1073 H 102.96 -0.667825 0.0651943 0
M  V30 1074 H 105.504 -1.87115 0.82511 0
M  V30 1075 H 103.659 -3.80378 -0.734251 0
M  V30 1076 H 104.073 -5.14323 1.02821 0
M  V30 1077 H 105.547 -5.48182 -0.648131 0
M  V30 1078 H 106.024 -4.08568 -1.61147 0
M  V30 1079 H 106.63 -4.25268 0.0523679 0
M  V30 1080 N 104.945 -0.338344 -1.53925 0
M  V30 1081 C 106.222 0.314774 -1.93051 0
M  V30 1082 C 106.602 1.68669 -1.26941 0
M  V30 1083 O 105.95 2.24636 -0.418445 0
M  V30 1084 C 106.16 0.392249 -3.46789 0
M  V30 1085 C 107.508 0.645554 -4.19664 0
M  V30 1086 O 108.532 0.474575 -3.53024 0
M  V30 1087 O 107.391 0.976408 -5.37707 0
M  V30 1088 H 104.485 0.182598 -0.80659 0
M  V30 1089 H 107.031 -0.389141 -1.65178 0
M  V30 1090 H 105.803 -0.570702 -3.87116 0
M  V30 1091 H 105.426 1.14316 -3.80812 0
M  V30 1092 N 106.423 1.57458 -0.0668435 0
M  V30 1093 C 107.37 2.12439 0.902122 0
M  V30 1094 C 108.34 1.03565 1.2986 0
M  V30 1095 O 109.525 1.312 1.38532 0
M  V30 1096 C 106.665 2.6865 2.16614 0
M  V30 1097 C 105.778 3.91663 1.82274 0
M  V30 1098 C 104.913 4.36134 3.0325 0
M  V30 1099 C 103.952 5.51808 2.64904 0
M  V30 1100 N 103.089 5.9126 3.78624 0
M  V30 1101 H 107.929 2.94934 0.426382 0
M  V30 1102 H 105.466 1.4575 0.198819 0
M  V30 1103 H 107.424 2.99346 2.90599 0
M  V30 1104 H 106.054 1.88928 2.61737 0
M  V30 1105 H 105.106 3.6746 0.983719 0
M  V30 1106 H 106.418 4.75693 1.50059 0
M  V30 1107 H 105.572 4.68465 3.85519 0
M  V30 1108 H 104.311 3.50948 3.38655 0
M  V30 1109 H 103.316 5.19133 1.81055 0
M  V30 1110 H 104.541 6.38722 2.30675 0
M  V30 1111 H 102.487 5.09024 4.138 0
M  V30 1112 H 102.404 6.70018 3.5016 0
M  V30 1113 H 103.672 6.28212 4.61486 0
M  V30 1114 N 107.901 -0.206675 1.56239 0
M  V30 1115 C 108.811 -1.27686 1.96808 0
M  V30 1116 C 109.827 -1.50455 0.874035 0
M  V30 1117 O 111.003 -1.63295 1.17884 0
M  V30 1118 C 108.068 -2.60358 2.28942 0
M  V30 1119 C 107.129 -2.45762 3.51994 0
M  V30 1120 C 106.362 -3.72108 3.82585 0
M  V30 1121 O 106.585 -4.75776 3.14631 0
M  V30 1122 O 105.519 -3.6833 4.76043 0
M  V30 1123 H 109.345 -0.962593 2.88041 0
M  V30 1124 H 106.93 -0.410746 1.43643 0
M  V30 1125 H 108.812 -3.38687 2.50737 0
M  V30 1126 H 107.487 -2.91435 1.4088 0
M  V30 1127 H 106.394 -1.65584 3.35459 0
M  V30 1128 H 107.727 -2.19621 4.40486 0
M  V30 1129 N 109.379 -1.50304 -0.473955 0
M  V30 1130 C 110.656 -1.51667 -1.23518 0
M  V30 1131 C 111.036 -0.259701 -2.09496 0
M  V30 1132 O 110.384 0.756986 -2.15597 0
M  V30 1133 C 110.594 -2.81082 -2.06868 0
M  V30 1134 C 111.942 -3.31631 -2.65153 0
M  V30 1135 O 112.966 -2.82384 -2.17113 0
M  V30 1136 O 111.825 -4.17471 -3.52675 0
M  V30 1137 H 108.919 -0.60822 -0.560355 0
M  V30 1138 H 111.465 -1.62592 -0.486011 0
M  V30 1139 H 110.237 -3.64041 -1.4349 0
M  V30 1140 H 109.86 -2.73146 -2.88924 0
M  V30 1141 N 110.857 0.726932 -1.39834 0
M  V30 1142 C 112.103 1.48884 -1.377 0
M  V30 1143 C 112.436 1.94185 0.0244852 0
M  V30 1144 O 111.711 1.67361 0.990986 0
M  V30 1145 C 111.994 2.72288 -2.3565 0
M  V30 1146 C 111.847 2.32956 -3.84775 0
M  V30 1147 C 113.166 3.74414 -2.31306 0
M  V30 1148 H 110.285 0.540062 -0.5015 0
M  V30 1149 H 112.927 0.830547 -1.70886 0
M  V30 1150 H 111.077 3.28457 -2.07481 0
M  V30 1151 H 112.749 1.82356 -4.23726 0
M  V30 1152 H 110.992 1.65088 -4.01159 0
M  V30 1153 H 111.663 3.21362 -4.4881 0
M  V30 1154 H 114.139 3.27849 -2.56231 0
M  V30 1155 H 113.015 4.58414 -3.01907 0
M  V30 1156 H 113.276 4.21909 -1.32081 0
M  V30 1157 N 112.336 1.25143 0.95797 0
M  V30 1158 C 113.299 1.05321 2.03569 0
M  V30 1159 C 114.299 0.007152 1.60798 0
M  V30 1160 O 115.489 0.24903 1.72411 0
M  V30 1161 C 112.621 0.598394 3.35607 0
M  V30 1162 H 113.814 2.00986 2.22586 0
M  V30 1163 H 111.367 1.07502 1.13459 0
M  V30 1164 H 112.102 -0.361014 3.22284 0
M  V30 1165 H 111.887 1.35351 3.67998 0
M  V30 1166 H 113.377 0.48104 4.1482 0
M  V30 1167 N 113.814 -1.1601 1.06675 0
M  V30 1168 C 115.061 -1.86633 0.785781 0
M  V30 1169 C 115.389 -1.81929 -0.687896 0
M  V30 1170 O 114.644 -1.23253 -1.52011 0
M  V30 1171 C 114.943 -3.35547 1.23057 0
M  V30 1172 C 114.609 -3.60448 2.70902 0
M  V30 1173 C 113.271 -3.66954 3.11285 0
M  V30 1174 C 115.623 -3.7071 3.66365 0
M  V30 1175 C 112.951 -3.81225 4.45965 0
M  V30 1176 C 115.303 -3.86503 5.00797 0
M  V30 1177 C 113.967 -3.91252 5.40813 0
M  V30 1178 H 113.237 -0.682937 0.287538 0
M  V30 1179 H 115.884 -1.37146 1.33654 0
M  V30 1180 H 114.189 -3.87193 0.59907 0
M  V30 1181 H 115.886 -3.88583 0.990163 0
M  V30 1182 H 112.476 -3.56021 2.38636 0
M  V30 1183 H 116.66 -3.64991 3.36296 0
M  V30 1184 H 111.916 -3.83155 4.76447 0
M  V30 1185 H 116.09 -3.93385 5.74649 0
M  V30 1186 H 113.717 -4.02062 6.45174 0
M  V30 1187 N 115.292 -0.849877 -1.32721 0
M  V30 1188 C 116.239 -0.289033 -2.28983 0
M  V30 1189 C 117.209 0.601324 -1.54833 0
M  V30 1190 O 118.394 0.537253 -1.8308 0
M  V30 1191 C 115.534 0.520623 -3.4115 0
M  V30 1192 C 114.647 -0.394989 -4.3019 0
M  V30 1193 C 113.782 0.426834 -5.29482 0
M  V30 1194 C 112.821 -0.486476 -6.10164 0
M  V30 1195 N 111.958 0.297879 -7.01468 0
M  V30 1196 H 116.798 -1.11519 -2.76347 0
M  V30 1197 H 114.335 -0.56138 -1.35967 0
M  V30 1198 H 116.293 1.00563 -4.04899 0
M  V30 1199 H 114.923 1.31165 -2.9495 0
M  V30 1200 H 113.975 -0.99836 -3.67065 0
M  V30 1201 H 115.287 -1.09612 -4.86607 0
M  V30 1202 H 114.441 0.975205 -5.98811 0
M  V30 1203 H 113.18 1.16136 -4.73671 0
M  V30 1204 H 112.185 -1.04677 -5.39743 0
M  V30 1205 H 113.41 -1.21953 -6.6806 0
M  V30 1206 H 111.356 1.01558 -6.48091 0
M  V30 1207 H 111.273 -0.344318 -7.55216 0
M  V30 1208 H 112.541 0.828131 -7.75089 0
M  V30 1209 N 116.77 1.45427 -0.607355 0
M  V30 1210 C 118.047 1.9557 -0.0344566 0
M  V30 1211 C 118.427 1.54979 1.43334 0
M  V30 1212 O 117.775 0.812241 2.13576 0
M  V30 1213 C 117.985 3.48226 -0.232321 0
M  V30 1214 C 119.333 4.2445 -0.113001 0
M  V30 1215 O 120.357 3.55829 -0.162431 0
M  V30 1216 O 119.216 5.465 0.00209442 0
M  V30 1217 H 116.31 0.826222 0.0358667 0
M  V30 1218 H 118.856 1.55594 -0.6774 0
M  V30 1219 H 117.628 3.70739 -1.25174 0
M  V30 1220 H 117.251 3.95092 0.445896 0
M  V30 1221 N 118.248 0.346503 1.53744 0
M  V30 1222 C 119.178 -0.501193 2.28058 0
M  V30 1223 C 120.159 -1.10014 1.29734 0
M  V30 1224 O 121.344 -1.12097 1.58581 0
M  V30 1225 C 118.474 -1.65078 3.05559 0
M  V30 1226 C 117.428 -1.18003 4.11411 0
M  V30 1227 C 116.754 -2.41837 4.76884 0
M  V30 1228 C 118.054 -0.278394 5.21558 0
M  V30 1229 H 119.748 0.11875 2.99164 0
M  V30 1230 H 117.294 0.0585531 1.43881 0
M  V30 1231 H 119.247 -2.25028 3.56287 0
M  V30 1232 H 117.971 -2.29767 2.32109 0
M  V30 1233 H 116.63 -0.603331 3.61601 0
M  V30 1234 H 116.278 -3.0494 4.00026 0
M  V30 1235 H 115.978 -2.1102 5.48402 0
M  V30 1236 H 117.502 -3.02508 5.30397 0
M  V30 1237 H 118.916 -0.784823 5.67903 0
M  V30 1238 H 117.313 -0.0619707 6.00068 0
M  V30 1239 H 118.383 0.684677 4.80042 0
M  V30 1240 N 119.726 -1.57421 0.075193 0
M  V30 1241 C 121.003 -1.85029 -0.634329 0
M  V30 1242 C 121.383 -0.968305 -1.87582 0
M  V30 1243 O 120.731 -0.0354749 -2.28472 0
M  V30 1244 C 120.941 -3.35286 -0.968742 0
M  V30 1245 C 122.289 -4.02875 -1.34077 0
M  V30 1246 O 123.313 -3.40051 -1.06037 0
M  V30 1247 O 122.172 -5.13691 -1.86506 0
M  V30 1248 H 119.266 -0.7645 -0.315387 0
M  V30 1249 H 121.812 -1.69366 0.106382 0
M  V30 1250 H 120.584 -3.91203 -0.0871376 0
M  V30 1251 H 120.207 -3.56223 -1.7661 0
M  V30 1252 N 121.204 0.198386 -1.56346 0
M  V30 1253 C 122.45 0.920648 -1.80698 0
M  V30 1254 C 122.783 1.83045 -0.648697 0
M  V30 1255 O 122.058 1.91308 0.350925 0
M  V30 1256 C 122.341 1.73971 -3.15287 0
M  V30 1257 C 122.194 0.85485 -4.41602 0
M  V30 1258 C 123.513 2.71296 -3.46535 0
M  V30 1259 H 120.632 0.333261 -0.657348 0
M  V30 1260 H 123.274 0.188198 -1.89066 0
M  V30 1261 H 121.424 2.36416 -3.08285 0
M  V30 1262 H 123.096 0.245362 -4.60647 0
M  V30 1263 H 121.339 0.161398 -4.335 0
M  V30 1264 H 122.01 1.46286 -5.32264 0
M  V30 1265 H 124.486 2.18983 -3.53816 0
M  V30 1266 H 123.362 3.2569 -4.41834 0
M  V30 1267 H 123.623 3.5018 -2.69864 0
M  V30 1268 N 122.682 1.50554 0.465978 0
M  V30 1269 C 123.645 1.69233 1.54574 0
M  V30 1270 C 124.645 0.562901 1.50626 0
M  V30 1271 O 125.835 0.830016 1.53155 0
M  V30 1272 C 122.967 1.7223 2.94193 0
M  V30 1273 H 124.16 2.65571 1.39327 0
M  V30 1274 H 121.713 1.40111 0.692711 0
M  V30 1275 H 122.448 0.77603 3.14878 0
M  V30 1276 H 122.233 2.54285 2.98466 0
M  V30 1277 H 123.723 1.88618 3.72576 0
M  V30 1278 N 124.16 -0.719506 1.40217 0
M  V30 1279 C 125.409 -1.47486 1.37589 0
M  V30 1280 C 125.722 -1.9559 -0.0201568 0
M  V30 1281 O 126.928 -2.70973 -0.169049 0
M  V30 1282 C 125.384 -2.66575 2.41796 0
M  V30 1283 C 124.992 -2.25358 3.87192 0
M  V30 1284 C 126.736 -3.4433 2.48269 0
M  V30 1285 C 124.643 -3.41262 4.83005 0
M  V30 1286 H 123.573 -0.553901 0.511576 0
M  V30 1287 H 126.224 -0.783427 1.65936 0
M  V30 1288 H 124.606 -3.3787 2.06543 0
M  V30 1289 H 125.78 -1.61509 4.31569 0
M  V30 1290 H 124.095 -1.60657 3.84159 0
M  V30 1291 H 126.692 -4.30569 3.17041 0
M  V30 1292 H 127.035 -3.87872 1.51198 0
M  V30 1293 H 127.568 -2.80076 2.82493 0
M  V30 1294 H 124.307 -3.02755 5.81394 0
M  V30 1295 H 123.827 -4.0404 4.43297 0
M  V30 1296 H 125.506 -4.07383 5.02641 0
M  V30 1297 N 125.638 -1.25649 -0.95132 0
M  V30 1298 C 126.568 -1.08808 -2.06599 0
M  V30 1299 C 127.549 0.00382547 -1.701 0
M  V30 1300 O 128.734 -0.166325 -1.93486 0
M  V30 1301 C 125.864 -0.709542 -3.39975 0
M  V30 1302 C 124.818 -1.75206 -3.90496 0
M  V30 1303 C 124.144 -1.22811 -5.20405 0
M  V30 1304 C 125.444 -3.15153 -4.16504 0
M  V30 1305 H 127.138 -2.02048 -2.20946 0
M  V30 1306 H 124.684 -0.972835 -1.06169 0
M  V30 1307 H 126.637 -0.578649 -4.17408 0
M  V30 1308 H 125.361 0.258556 -3.25575 0
M  V30 1309 H 124.02 -1.87145 -3.15234 0
M  V30 1310 H 123.668 -0.250145 -5.02378 0
M  V30 1311 H 123.368 -1.92492 -5.55176 0
M  V30 1312 H 124.892 -1.10968 -6.00432 0
M  V30 1313 H 126.306 -3.06349 -4.84586 0
M  V30 1314 H 124.703 -3.82333 -4.62538 0
M  V30 1315 H 125.773 -3.61966 -3.22658 0
M  V30 1316 N 127.117 1.15442 -1.07289 0
M  V30 1317 C 128.363 1.86489 -0.796846 0
M  V30 1318 C 128.696 1.82078 0.675371 0
M  V30 1319 O 127.971 1.24346 1.4956 0
M  V30 1320 C 128.254 3.35626 -1.30489 0
M  V30 1321 C 128.107 3.48673 -2.84161 0
M  V30 1322 C 129.426 4.30357 -0.920907 0
M  V30 1323 H 126.545 0.677144 -0.290939 0
M  V30 1324 H 129.187 1.35633 -1.33056 0
M  V30 1325 H 127.337 3.79068 -0.850883 0
M  V30 1326 H 129.009 3.14099 -3.37846 0
M  V30 1327 H 127.252 2.90253 -3.22391 0
M  V30 1328 H 127.923 4.53453 -3.14777 0
M  V30 1329 H 130.399 3.94871 -1.3121 0
M  V30 1330 H 129.275 5.33193 -1.30372 0
M  V30 1331 H 129.536 4.4176 0.173226 0
M  V30 1332 N 128.595 0.856903 1.32268 0
M  V30 1333 C 129.843 0.460474 1.96784 0
M  V30 1334 C 130.164 -0.987701 1.68135 0
M  V30 1335 O 129.434 -1.69058 0.989765 0
M  V30 1336 H 128.014 0.167289 0.728027 0
M  V30 1337 H 130.676 1.09383 1.61312 0
M  V30 1338 H 129.772 0.60739 3.06133 0
M  V30 1339 N 130.073 -1.45103 0.615059 0
M  V30 1340 C 131.298 -2.07064 0.117988 0
M  V30 1341 C 131.723 -1.4554 -1.19163 0
M  V30 1342 O 131.081 -0.550855 -1.72729 0
M  V30 1343 C 131.129 -3.606 -0.000288387 0
M  V30 1344 O 130.233 -3.98847 -1.04856 0
M  V30 1345 H 129.574 -0.659467 0.0774581 0
M  V30 1346 H 132.104 -1.86236 0.847186 0
M  V30 1347 H 132.114 -4.07529 -0.196091 0
M  V30 1348 H 130.789 -4.04765 0.955932 0
M  V30 1349 H 129.366 -3.63577 -0.828619 0
M  V30 1350 N 131.551 -0.354651 -1.53558 0
M  V30 1351 C 132.484 0.540273 -2.21712 0
M  V30 1352 C 133.462 1.09161 -1.2051 0
M  V30 1353 O 134.646 1.14979 -1.49372 0
M  V30 1354 C 131.773 1.74435 -2.90328 0
M  V30 1355 C 130.819 1.32146 -4.05512 0
M  V30 1356 S 131.652 0.331924 -5.3447 0
M  V30 1357 C 132.808 1.54258 -6.06593 0
M  V30 1358 H 133.041 -0.0385776 -2.97275 0
M  V30 1359 H 130.574 -0.138736 -1.53775 0
M  V30 1360 H 132.532 2.43507 -3.30476 0
M  V30 1361 H 131.193 2.29444 -2.1451 0
M  V30 1362 H 130.386 2.21952 -4.52497 0
M  V30 1363 H 129.988 0.710091 -3.67197 0
M  V30 1364 H 132.28 2.47534 -6.30661 0
M  V30 1365 H 133.223 1.11431 -6.99277 0
M  V30 1366 H 133.631 1.74367 -5.36895 0
M  V30 1367 N 133.029 1.57378 -0.0835403 0
M  V30 1368 C 134.44 1.81261 0.447358 0
M  V30 1369 C 134.791 0.998331 1.68902 0
M  V30 1370 O 133.916 0.224282 2.15235 0
M  V30 1371 C 134.511 3.28767 0.818386 0
M  V30 1372 C 133.07 3.53455 1.29409 0
M  V30 1373 C 132.217 2.75831 0.285024 0
M  V30 1374 H 135.168 1.5566 -0.309115 0
M  V30 1375 H 135.189 3.41459 1.67887 0
M  V30 1376 H 134.701 3.88006 -0.0855019 0
M  V30 1377 H 132.802 2.99534 2.21608 0
M  V30 1378 H 132.915 4.62128 1.2639 0
M  V30 1379 H 131.279 2.42947 0.764767 0
M  V30 1380 H 132.062 3.37813 -0.611341 0
M  V30 1381 N 134.507 -0.190092 1.56449 0
M  V30 1382 C 135.923 -0.54113 1.50146 0
M  V30 1383 C 136.123 -1.85603 0.784465 0
M  V30 1384 O 135.179 -2.5024 0.337051 0
M  V30 1385 C 136.492 -0.591241 2.9483 0
M  V30 1386 C 138.04 -0.679732 3.0553 0
M  V30 1387 C 138.515 -0.760908 4.51635 0
M  V30 1388 N 140.006 -0.824302 4.55806 0
M  V30 1389 C 140.741 -0.907365 5.66175 0
M  V30 1390 N 140.237 -0.952422 6.86222 0
M  V30 1391 N 142.03 -0.94494 5.541 0
M  V30 1392 H 134.181 0.67235 2.01478 0
M  V30 1393 H 136.444 0.240127 0.917084 0
M  V30 1394 H 136.15 0.305905 3.50367 0
M  V30 1395 H 136.024 -1.44422 3.48457 0
M  V30 1396 H 138.411 -1.56731 2.50039 0
M  V30 1397 H 138.492 0.199549 2.5502 0
M  V30 1398 H 138.136 0.122336 5.07753 0
M  V30 1399 H 138.066 -1.65606 4.99882 0
M  V30 1400 H 140.557 -0.798526 3.69367 0
M  V30 1401 H 140.87 -1.01645 7.66086 0
M  V30 1402 H 139.215 -0.921014 6.8887 0
M  V30 1403 H 142.406 -0.906612 4.59236 0
M  V30 1404 H 142.579 -1.00622 6.4014 0
M  V30 1405 N 135.985 -1.50799 -0.457987 0
M  V30 1406 C 137.401 -1.38515 -0.792819 0
M  V30 1407 C 137.601 -0.451409 -1.96379 0
M  V30 1408 O 136.657 0.10112 -2.52297 0
M  V30 1409 C 137.97 -2.80149 -1.09258 0
M  V30 1410 C 139.518 -2.89156 -1.19825 0
M  V30 1411 C 139.993 -4.31651 -1.53106 0
M  V30 1412 N 141.484 -4.34662 -1.60072 0
M  V30 1413 C 142.219 -5.41928 -1.87354 0
M  V30 1414 N 141.715 -6.59384 -2.12568 0
M  V30 1415 N 143.508 -5.29385 -1.88965 0
M  V30 1416 H 135.659 -2.10073 0.313511 0
M  V30 1417 H 137.922 -0.944803 0.0777862 0
M  V30 1418 H 137.628 -3.50374 -0.305084 0
M  V30 1419 H 137.502 -3.18204 -2.02549 0
M  V30 1420 H 139.889 -2.19141 -1.97639 0
M  V30 1421 H 139.97 -2.54626 -0.244821 0
M  V30 1422 H 139.614 -5.02208 -0.758266 0
M  V30 1423 H 139.544 -4.63678 -2.49621 0
M  V30 1424 H 142.035 -3.49973 -1.42573 0
M  V30 1425 H 142.348 -7.36934 -2.32696 0
M  V30 1426 H 140.693 -6.62535 -2.09933 0
M  V30 1427 H 143.884 -4.36616 -1.68772 0
M  V30 1428 H 144.057 -6.13066 -2.09891 0
M  V30 1429 N 137.463 0.71206 -1.40597 0
M  V30 1430 C 138.373 1.8562 -1.43466 0
M  V30 1431 C 139.389 1.70902 -0.326902 0
M  V30 1432 O 140.565 1.93105 -0.572043 0
M  V30 1433 C 137.63 3.21451 -1.29884 0
M  V30 1434 C 136.691 3.48398 -2.50833 0
M  V30 1435 C 135.924 4.77749 -2.3789 0
M  V30 1436 O 136.147 5.53089 -1.39459 0
M  V30 1437 O 135.081 5.05111 -3.27333 0
M  V30 1438 H 138.907 1.86155 -2.39958 0
M  V30 1439 H 136.492 0.86295 -1.21957 0
M  V30 1440 H 138.374 4.02579 -1.24531 0
M  V30 1441 H 137.049 3.21636 -0.364997 0
M  V30 1442 H 135.956 2.67265 -2.61763 0
M  V30 1443 H 137.289 3.53014 -3.4299 0
M  V30 1444 N 138.941 1.26152 0.944643 0
M  V30 1445 C 140.189 1.11271 1.6871 0
M  V30 1446 C 140.51 -0.345166 1.91921 0
M  V30 1447 O 139.78 -1.24387 1.51343 0
M  V30 1448 H 138.36 0.408783 0.625224 0
M  V30 1449 H 141.022 1.58427 1.1352 0
M  V30 1450 H 140.118 1.62879 2.66227 0
M  V30 1451 N 140.419 -1.14872 1.07899 0
M  V30 1452 C 141.352 -2.18794 0.64841 0
M  V30 1453 C 142.33 -1.59065 -0.337189 0
M  V30 1454 O 143.514 -1.86936 -0.242284 0
M  V30 1455 C 140.641 -3.38667 -0.0470417 0
M  V30 1456 C 139.687 -4.16942 0.897884 0
M  V30 1457 S 140.52 -4.78615 2.40183 0
M  V30 1458 C 141.676 -6.0185 1.71834 0
M  V30 1459 H 141.909 -2.5498 1.52881 0
M  V30 1460 H 139.442 -1.25922 0.893484 0
M  V30 1461 H 141.4 -4.08113 -0.442027 0
M  V30 1462 H 140.061 -3.00814 -0.903861 0
M  V30 1463 H 139.254 -5.02726 0.358096 0
M  V30 1464 H 138.856 -3.53073 1.23352 0
M  V30 1465 H 141.148 -6.69574 1.03328 0
M  V30 1466 H 142.091 -6.60408 2.55473 0
M  V30 1467 H 142.499 -5.5173 1.19392 0
M  V30 1468 N 141.898 -0.863906 -1.31812 0
M  V30 1469 C 142.808 -0.318461 -2.32428 0
M  V30 1470 C 143.824 0.568496 -1.64451 0
M  V30 1471 O 145 0.46666 -1.95919 0
M  V30 1472 C 142.065 0.476355 -3.43412 0
M  V30 1473 C 141.126 -0.43784 -4.27061 0
M  V30 1474 C 140.359 0.319138 -5.32745 0
M  V30 1475 O 140.582 1.54799 -5.48993 0
M  V30 1476 O 139.516 -0.319861 -6.01049 0
M  V30 1477 H 143.342 -1.15229 -2.80991 0
M  V30 1478 H 140.927 -0.627103 -1.35602 0
M  V30 1479 H 142.809 0.927156 -4.11074 0
M  V30 1480 H 141.484 1.28683 -2.97022 0
M  V30 1481 H 140.391 -0.937013 -3.62175 0
M  V30 1482 H 141.724 -1.21375 -4.77 0
M  V30 1483 N 143.376 1.44774 -0.622745 0
M  V30 1484 C 144.792 1.56986 -0.287652 0
M  V30 1485 C 144.992 1.61167 1.20944 0
M  V30 1486 O 144.048 1.55015 1.99315 0
M  V30 1487 C 145.361 2.84551 -0.972188 0
M  V30 1488 C 146.909 2.9825 -0.949536 0
M  V30 1489 C 147.384 4.28605 -1.61437 0
M  V30 1490 N 148.875 4.35399 -1.58057 0
M  V30 1491 C 149.61 5.34964 -2.064 0
M  V30 1492 N 149.106 6.40981 -2.62897 0
M  V30 1493 N 150.899 5.26419 -1.97078 0
M  V30 1494 H 143.05 1.40304 -1.59463 0
M  V30 1495 H 145.313 0.671794 -0.668878 0
M  V30 1496 H 145.019 2.87417 -2.02693 0
M  V30 1497 H 144.893 3.73807 -0.504771 0
M  V30 1498 H 147.28 2.94941 0.0967067 0
M  V30 1499 H 147.361 2.10364 -1.45536 0
M  V30 1500 H 147.005 4.32672 -2.66002 0
M  V30 1501 H 146.935 5.15334 -1.08344 0
M  V30 1502 H 149.426 3.59397 -1.16801 0
M  V30 1503 H 149.739 7.13225 -2.97539 0
M  V30 1504 H 148.084 6.4169 -2.66943 0
M  V30 1505 H 151.275 4.42504 -1.52669 0
M  V30 1506 H 151.448 6.03861 -2.35066 0
M  V30 1507 N 144.854 0.36279 1.53368 0
M  V30 1508 C 145.801 -0.485008 2.25646 0
M  V30 1509 C 146.771 -1.07982 1.2621 0
M  V30 1510 O 147.956 -1.11284 1.54986 0
M  V30 1511 C 145.096 -1.62023 3.04701 0
M  V30 1512 C 144.209 -1.05086 4.19024 0
M  V30 1513 C 143.344 -2.15496 4.85525 0
M  V30 1514 C 142.383 -1.5601 5.91884 0
M  V30 1515 N 141.52 -2.60241 6.52088 0
M  V30 1516 H 146.36 0.137864 2.97681 0
M  V30 1517 H 143.897 0.0798061 1.46883 0
M  V30 1518 H 145.855 -2.28887 3.48807 0
M  V30 1519 H 144.485 -2.2138 2.34927 0
M  V30 1520 H 143.537 -0.27259 3.79422 0
M  V30 1521 H 144.849 -0.575926 4.95464 0
M  V30 1522 H 144.003 -2.90186 5.32801 0
M  V30 1523 H 142.742 -2.66341 4.08551 0
M  V30 1524 H 141.747 -0.798338 5.43973 0
M  V30 1525 H 142.972 -1.05994 6.70777 0
M  V30 1526 H 140.918 -3.10304 5.77968 0
M  V30 1527 H 140.835 -2.17426 7.24059 0
M  V30 1528 H 142.103 -3.34641 7.04014 0
M  V30 1529 N 146.332 -1.57332 0.0918853 0
M  V30 1530 C 147.609 -1.85691 -0.614668 0
M  V30 1531 C 147.989 -0.988146 -1.86545 0
M  V30 1532 O 147.337 -0.0597055 -2.28422 0
M  V30 1533 C 147.547 -3.36294 -0.933126 0
M  V30 1534 C 148.895 -4.04275 -1.29796 0
M  V30 1535 O 149.919 -3.41157 -1.02424 0
M  V30 1536 O 148.778 -5.1564 -1.81047 0
M  V30 1537 H 145.872 -0.767802 -0.307261 0
M  V30 1538 H 148.418 -1.69244 0.12434 0
M  V30 1539 H 147.19 -3.91273 -0.0456404 0
M  V30 1540 H 146.813 -3.58076 -1.72822 0
M  V30 1541 N 147.81 0.181792 -1.56548 0
M  V30 1542 C 148.74 1.22765 -1.98623 0
M  V30 1543 C 149.721 1.46747 -0.860189 0
M  V30 1544 O 150.906 1.58259 -1.12551 0
M  V30 1545 C 148.036 2.56894 -2.33715 0
M  V30 1546 C 146.99 2.475 -3.49182 0
M  V30 1547 C 146.316 3.86023 -3.69986 0
M  V30 1548 C 147.616 1.98866 -4.82959 0
M  V30 1549 H 149.31 0.877942 -2.86239 0
M  V30 1550 H 146.856 0.42088 -1.37712 0
M  V30 1551 H 148.809 3.30253 -2.61746 0
M  V30 1552 H 147.533 2.93632 -1.42997 0
M  V30 1553 H 146.192 1.76596 -3.21262 0
M  V30 1554 H 145.84 4.20136 -2.76576 0
M  V30 1555 H 145.54 3.80609 -4.47672 0
M  V30 1556 H 147.064 4.60984 -4.00407 0
M  V30 1557 H 148.478 2.61992 -5.09934 0
M  V30 1558 H 146.875 2.04424 -5.64208 0
M  V30 1559 H 147.945 0.942465 -4.75653 0
M  V30 1560 N 149.288 1.51039 0.449983 0
M  V30 1561 C 150.218 1.74379 1.55288 0
M  V30 1562 C 151.199 0.593236 1.5942 0
M  V30 1563 O 152.384 0.834625 1.7535 0
M  V30 1564 C 149.514 1.85728 2.93466 0
M  V30 1565 C 148.468 3.01078 3.04197 0
M  V30 1566 C 147.794 2.97595 4.44231 0
M  V30 1567 C 149.094 4.41254 2.7945 0
M  V30 1568 H 150.788 2.66725 1.36008 0
M  V30 1569 H 148.334 1.2835 0.652864 0
M  V30 1570 H 150.287 2.0064 3.70569 0
M  V30 1571 H 149.011 0.900207 3.13949 0
M  V30 1572 H 147.67 2.85851 2.29531 0
M  V30 1573 H 147.318 1.99691 4.61663 0
M  V30 1574 H 147.018 3.75046 4.52343 0
M  V30 1575 H 148.542 3.14583 5.23326 0
M  V30 1576 H 149.956 4.56897 3.46292 0
M  V30 1577 H 148.353 5.20315 2.98985 0
M  V30 1578 H 149.423 4.52164 1.75144 0
M  V30 1579 N 150.766 -0.704594 1.40972 0
M  V30 1580 C 151.713 -1.81862 1.42109 0
M  V30 1581 C 152.683 -1.63781 0.276593 0
M  V30 1582 O 153.868 -1.84759 0.4763 0
M  V30 1583 C 151.008 -3.19669 1.30022 0
M  V30 1584 C 150.121 -3.49246 2.54267 0
M  V30 1585 C 149.256 -4.76618 2.3454 0
M  V30 1586 C 148.295 -4.99133 3.54306 0
M  V30 1587 N 147.432 -6.17726 3.33706 0
M  V30 1588 H 152.272 -1.80226 2.37324 0
M  V30 1589 H 149.809 -0.880238 1.17857 0
M  V30 1590 H 151.767 -3.99263 1.21018 0
M  V30 1591 H 150.397 -3.20506 0.384192 0
M  V30 1592 H 149.449 -2.64125 2.73756 0
M  V30 1593 H 150.761 -3.61788 3.43381 0
M  V30 1594 H 149.915 -5.64249 2.22952 0
M  V30 1595 H 148.654 -4.66305 1.42867 0
M  V30 1596 H 147.659 -4.09953 3.66359 0
M  V30 1597 H 148.884 -5.11311 4.4692 0
M  V30 1598 H 146.83 -6.08642 2.44725 0
M  V30 1599 H 146.747 -6.30995 4.16391 0
M  V30 1600 H 148.015 -7.08115 3.25873 0
M  V30 1601 N 152.244 -1.26651 -0.937939 0
M  V30 1602 C 153.207 -1.08546 -2.01867 0
M  V30 1603 C 154.207 -0.0327327 -1.60767 0
M  V30 1604 O 155.397 -0.276427 -1.71993 0
M  V30 1605 C 152.529 -0.651711 -3.34613 0
M  V30 1606 H 153.722 -2.04502 -2.1936 0
M  V30 1607 H 151.275 -1.09294 -1.11734 0
M  V30 1608 H 152.01 0.309696 -3.22818 0
M  V30 1609 H 151.795 -1.41189 -3.65798 0
M  V30 1610 H 153.285 -0.546973 -4.14002 0
M  V30 1611 N 153.722 1.14298 -1.08507 0
M  V30 1612 C 154.67 2.21483 -0.710483 0
M  V30 1613 C 155.664 1.66998 0.284234 0
M  V30 1614 O 156.87 1.79401 0.146692 0
M  V30 1615 H 153.245 0.721578 -0.211729 0
M  V30 1616 H 155.216 2.50348 -1.62384 0
M  V30 1617 C 153.965 3.4743 -0.137007 0
M  V30 1618 H 153.288 3.89686 -0.893592 0
M  V30 1619 H 154.728 4.2391 0.0872789 0
M  V30 1620 C 153.187 3.17548 1.12538 0
M  V30 1621 O 153.717 3.35437 2.21009 0
M  V30 1622 N 151.923 2.71499 1.03617 0
M  V30 1623 H 151.47 2.57143 0.153403 0
M  V30 1624 H 151.428 2.51881 1.88158 0
M  V30 1625 N 155.201 0.870884 1.31352 0
M  V30 1626 C 156.447 0.482987 1.96965 0
M  V30 1627 C 156.78 -0.962462 1.68672 0
M  V30 1628 O 156.055 -1.6779 0.98371 0
M  V30 1629 C 156.338 0.741752 3.52378 0
M  V30 1630 C 156.191 2.2368 3.9024 0
M  V30 1631 C 157.51 0.208838 4.39604 0
M  V30 1632 H 154.629 0.176955 0.715441 0
M  V30 1633 H 157.271 1.09229 1.55464 0
M  V30 1634 H 155.421 0.223149 3.87859 0
M  V30 1635 H 157.093 2.82273 3.64856 0
M  V30 1636 H 155.336 2.70901 3.38814 0
M  V30 1637 H 156.007 2.3685 4.98604 0
M  V30 1638 H 158.483 0.652529 4.10952 0
M  V30 1639 H 157.359 0.419336 5.47296 0
M  V30 1640 H 157.62 -0.889275 4.33064 0
M  V30 1641 N 156.679 -1.44442 0.630414 0
M  V30 1642 C 157.626 -2.30678 -0.0749355 0
M  V30 1643 C 158.596 -1.4344 -0.837502 0
M  V30 1644 O 159.781 -1.72343 -0.818684 0
M  V30 1645 C 156.921 -3.28706 -1.05103 0
M  V30 1646 C 156.034 -4.31046 -0.286954 0
M  V30 1647 C 155.169 -5.16167 -1.2548 0
M  V30 1648 C 154.208 -6.10216 -0.479843 0
M  V30 1649 N 153.345 -6.88039 -1.39811 0
M  V30 1650 H 158.185 -2.90454 0.666386 0
M  V30 1651 H 155.722 -1.43107 0.340404 0
M  V30 1652 H 157.68 -3.84027 -1.63031 0
M  V30 1653 H 156.31 -2.70632 -1.75949 0
M  V30 1654 H 155.362 -3.78203 0.408243 0
M  V30 1655 H 156.674 -4.97794 0.316657 0
M  V30 1656 H 155.828 -5.76002 -1.90544 0
M  V30 1657 H 154.567 -4.49491 -1.89233 0
M  V30 1658 H 153.572 -5.49491 0.184295 0
M  V30 1659 H 154.797 -6.78928 0.152965 0
M  V30 1660 H 152.743 -6.24032 -2.02287 0
M  V30 1661 H 152.66 -7.51223 -0.848508 0
M  V30 1662 H 153.928 -7.52397 -2.03762 0
M  V30 1663 N 158.157 -0.370918 -1.53173 0
M  V30 1664 C 159.406 0.218249 -2.00516 0
M  V30 1665 C 159.719 1.49429 -1.26215 0
M  V30 1666 O 160.925 2.16239 -1.64174 0
M  V30 1667 C 159.381 0.43948 -3.57207 0
M  V30 1668 C 158.989 -0.822244 -4.4039 0
M  V30 1669 C 160.733 0.986012 -4.1289 0
M  V30 1670 C 158.64 -0.570304 -5.88644 0
M  V30 1671 H 157.57 0.0853333 -0.749156 0
M  V30 1672 H 160.221 -0.490483 -1.76823 0
M  V30 1673 H 158.603 1.20961 -3.77074 0
M  V30 1674 H 159.777 -1.59557 -4.32294 0
M  V30 1675 H 158.092 -1.29238 -3.95836 0
M  V30 1676 H 160.689 1.18991 -5.21292 0
M  V30 1677 H 161.032 1.94972 -3.6782 0
M  V30 1678 H 161.565 0.27592 -3.96842 0
M  V30 1679 H 158.304 -1.50449 -6.38001 0
M  V30 1680 H 157.824 0.164427 -5.99575 0
M  V30 1681 H 159.503 -0.19784 -6.46697 0
M  V30 1682 N 159.635 1.57281 -0.100228 0
M  V30 1683 C 160.882 1.94537 0.562268 0
M  V30 1684 C 161.21 0.982315 1.67871 0
M  V30 1685 O 160.465 0.00280936 1.957 0
M  V30 1686 C 160.764 3.38305 1.15259 0
M  V30 1687 C 160.43 4.50618 0.159409 0
M  V30 1688 C 159.092 4.81066 -0.113741 0
M  V30 1689 C 161.444 5.18615 -0.518461 0
M  V30 1690 C 158.772 5.76835 -1.07137 0
M  V30 1691 C 161.124 6.15412 -1.46459 0
M  V30 1692 C 159.788 6.44262 -1.74592 0
M  V30 1693 H 159.058 0.711863 0.205748 0
M  V30 1694 H 161.705 1.90679 -0.17715 0
M  V30 1695 H 160.01 3.38766 1.96836 0
M  V30 1696 H 161.707 3.64435 1.67297 0
M  V30 1697 H 158.297 4.2689 0.382491 0
M  V30 1698 H 162.481 4.95264 -0.320581 0
M  V30 1699 H 157.737 5.975 -1.29628 0
M  V30 1700 H 161.911 6.67194 -1.99564 0
M  V30 1701 H 159.538 7.1828 -2.48953 0
M  V30 1702 N 161.113 -0.173488 1.56642 0
M  V30 1703 C 162.06 -1.21482 1.96242 0
M  V30 1704 C 163.03 -1.44104 0.826027 0
M  V30 1705 O 164.215 -1.5688 1.08597 0
M  V30 1706 C 161.355 -2.54964 2.32567 0
M  V30 1707 C 160.468 -2.39739 3.59373 0
M  V30 1708 C 159.603 -3.66072 3.84921 0
M  V30 1709 C 158.642 -3.45771 5.05083 0
M  V30 1710 N 157.779 -4.64169 5.26775 0
M  V30 1711 H 162.619 -0.870123 2.85014 0
M  V30 1712 H 160.156 -0.418245 1.41029 0
M  V30 1713 H 162.114 -3.32758 2.5165 0
M  V30 1714 H 160.744 -2.87433 1.46908 0
M  V30 1715 H 159.796 -1.53131 3.48217 0
M  V30 1716 H 161.108 -2.20683 4.47326 0
M  V30 1717 H 160.262 -4.52303 4.0436 0
M  V30 1718 H 159.001 -3.88105 2.9534 0
M  V30 1719 H 158.006 -2.57927 4.85545 0
M  V30 1720 H 159.231 -3.25163 5.96193 0
M  V30 1721 H 157.177 -4.86425 4.40144 0
M  V30 1722 H 157.094 -4.48019 6.08946 0
M  V30 1723 H 158.362 -5.51689 5.5069 0
M  V30 1724 N 162.591 -1.51276 -0.441967 0
M  V30 1725 C 163.816 -1.67799 -1.21895 0
M  V30 1726 C 164.241 -0.372864 -1.84367 0
M  V30 1727 O 163.599 0.666501 -1.68604 0
M  V30 1728 C 163.647 -2.79199 -2.28211 0
M  V30 1729 O 162.751 -2.42479 -3.33583 0
M  V30 1730 H 162.092 -0.559649 -0.357336 0
M  V30 1731 H 164.622 -1.97815 -0.522522 0
M  V30 1732 H 164.632 -3.03146 -2.73069 0
M  V30 1733 H 163.307 -3.73906 -1.82118 0
M  V30 1734 H 161.884 -2.29087 -2.94234 0
M  V30 1735 N 164.069 0.697108 -1.41344 0
M  V30 1736 C 165.001 1.8224 -1.39001 0
M  V30 1737 C 166.014 1.60152 -0.292428 0
M  V30 1738 O 167.203 1.69684 -0.554048 0
M  V30 1739 C 164.303 3.18976 -1.14489 0
M  V30 1740 C 163.476 3.68105 -2.36258 0
M  V30 1741 C 162.535 4.83506 -2.07625 0
M  V30 1742 O 161.561 4.95201 -2.8065 0
M  V30 1743 N 162.763 5.70637 -1.06555 0
M  V30 1744 H 165.528 1.84742 -2.35988 0
M  V30 1745 H 163.089 0.87937 -1.35936 0
M  V30 1746 H 165.081 3.93801 -0.932885 0
M  V30 1747 H 163.651 3.11508 -0.261043 0
M  V30 1748 H 162.871 2.84204 -2.7317 0
M  V30 1749 H 164.159 3.97667 -3.17393 0
M  V30 1750 H 163.557 5.63817 -0.461125 0
M  V30 1751 H 162.114 6.45368 -0.913444 0
M  V30 1752 N 165.547 1.27147 0.931209 0
M  V30 1753 C 166.795 1.13055 1.6752 0
M  V30 1754 C 167.116 -0.324791 1.92276 0
M  V30 1755 O 166.386 -1.22775 1.52654 0
M  V30 1756 H 164.966 0.415391 0.620854 0
M  V30 1757 H 167.628 1.59623 1.11833 0
M  V30 1758 H 166.724 1.65694 2.64485 0
M  V30 1759 N 167.025 -1.13721 1.09112 0
M  V30 1760 C 167.988 -2.17222 0.731241 0
M  V30 1761 C 168.988 -1.59035 -0.237566 0
M  V30 1762 O 170.178 -1.74192 -0.0161704 0
M  V30 1763 C 167.31 -3.40804 0.0808443 0
M  V30 1764 H 168.503 -2.50573 1.64783 0
M  V30 1765 H 166.056 -1.28493 0.889897 0
M  V30 1766 H 166.791 -3.1304 -0.847127 0
M  V30 1767 H 166.576 -3.84306 0.777896 0
M  V30 1768 H 168.066 -4.1731 -0.155657 0
M  V30 1769 N 168.503 -0.877838 -1.30888 0
M  V30 1770 C 169.466 -0.344265 -2.266 0
M  V30 1771 C 170.466 0.50922 -1.52524 0
M  V30 1772 O 171.656 0.317398 -1.71284 0
M  V30 1773 C 168.788 0.510198 -3.37061 0
M  V30 1774 H 169.981 -1.1893 -2.7531 0
M  V30 1775 H 167.534 -0.654088 -1.41956 0
M  V30 1776 H 168.269 1.37612 -2.93655 0
M  V30 1777 H 168.054 -0.101047 -3.9197 0
M  V30 1778 H 169.544 0.875537 -4.08319 0
M  V30 1779 N 169.982 1.44106 -0.638065 0
M  V30 1780 C 170.912 2.33448 0.0494287 0
M  V30 1781 C 171.893 1.48606 0.827672 0
M  V30 1782 O 173.078 1.77308 0.792173 0
M  V30 1783 C 170.208 3.31771 1.02691 0
M  V30 1784 C 169.162 4.26485 0.359823 0
M  V30 1785 C 168.488 5.14729 1.44769 0
M  V30 1786 C 169.788 5.17056 -0.738296 0
M  V30 1787 H 171.482 2.91183 -0.696636 0
M  V30 1788 H 169.028 1.40014 -0.336456 0
M  V30 1789 H 170.981 3.93161 1.51666 0
M  V30 1790 H 169.705 2.7226 1.80395 0
M  V30 1791 H 168.364 3.66437 -0.10934 0
M  V30 1792 H 168.012 4.51566 2.21578 0
M  V30 1793 H 167.712 5.78913 1.00668 0
M  V30 1794 H 169.236 5.78991 1.93911 0
M  V30 1795 H 170.65 5.72342 -0.331354 0
M  V30 1796 H 169.047 5.89879 -1.10286 0
M  V30 1797 H 170.117 4.57652 -1.60258 0
M  V30 1798 N 171.46 0.379036 1.52974 0
M  V30 1799 C 172.737 -0.263479 1.93817 0
M  V30 1800 C 173.117 -1.65244 1.31368 0
M  V30 1801 O 172.465 -2.23448 0.477856 0
M  V30 1802 C 172.675 -0.300166 3.47707 0
M  V30 1803 C 174.023 -0.534061 4.21228 0
M  V30 1804 O 175.047 -0.38081 3.54159 0
M  V30 1805 O 173.906 -0.833501 5.40106 0
M  V30 1806 H 171 -0.161149 0.811147 0
M  V30 1807 H 173.546 0.432798 1.64088 0
M  V30 1808 H 172.318 0.673138 3.85467 0
M  V30 1809 H 171.941 -1.04179 3.83709 0
M  V30 1810 N 172.938 -1.57226 0.108567 0
M  V30 1811 C 173.885 -2.14756 -0.845481 0
M  V30 1812 C 174.855 -1.06971 -1.27068 0
M  V30 1813 O 176.04 -1.34827 -1.35005 0
M  V30 1814 C 173.18 -2.74298 -2.09415 0
M  V30 1815 C 172.293 -3.96358 -1.71826 0
M  V30 1816 C 171.428 -4.44021 -2.9158 0
M  V30 1817 C 170.467 -5.58637 -2.50181 0
M  V30 1818 N 169.604 -6.01091 -3.62814 0
M  V30 1819 H 174.444 -2.95961 -0.348035 0
M  V30 1820 H 171.981 -1.46226 -0.160106 0
M  V30 1821 H 173.939 -3.06945 -2.82561 0
M  V30 1822 H 172.569 -1.95801 -2.56636 0
M  V30 1823 H 171.621 -3.69939 -0.885947 0
M  V30 1824 H 172.933 -4.79504 -1.37394 0
M  V30 1825 H 172.087 -4.78522 -3.72963 0
M  V30 1826 H 170.826 -3.59803 -3.29231 0
M  V30 1827 H 169.831 -5.23751 -1.67228 0
M  V30 1828 H 171.056 -6.44613 -2.13659 0
M  V30 1829 H 169.002 -5.19817 -4.00158 0
M  V30 1830 H 168.919 -6.79066 -3.32273 0
M  V30 1831 H 170.187 -6.40227 -4.44668 0
M  V30 1832 N 174.416 0.165178 -1.56732 0
M  V30 1833 C 175.646 0.894919 -1.86212 0
M  V30 1834 C 176.054 1.76066 -0.692627 0
M  V30 1835 O 175.397 1.80387 0.347303 0
M  V30 1836 C 175.459 1.8174 -3.10179 0
M  V30 1837 C 175.123 1.13064 -4.42793 0
M  V30 1838 C 176.12 0.493169 -5.17556 0
M  V30 1839 C 173.805 1.12556 -4.89527 0
M  V30 1840 C 175.799 -0.140209 -6.37246 0
M  V30 1841 C 173.486 0.488366 -6.09145 0
M  V30 1842 C 174.484 -0.143411 -6.82849 0
M  V30 1843 O 174.172 -0.77055 -8.00199 0
M  V30 1844 H 173.904 0.265114 -0.621844 0
M  V30 1845 H 176.458 0.168242 -2.0471 0
M  V30 1846 H 174.688 2.58455 -2.87642 0
M  V30 1847 H 176.377 2.4175 -3.26055 0
M  V30 1848 H 177.143 0.489023 -4.82528 0
M  V30 1849 H 173.022 1.60672 -4.32094 0
M  V30 1850 H 176.566 -0.633932 -6.94714 0
M  V30 1851 H 172.463 0.490116 -6.43637 0
M  V30 1852 H 173.231 -0.670408 -8.1575 0
M  V30 1853 N 175.894 1.51508 0.433938 0
M  V30 1854 C 176.857 1.72473 1.50949 0
M  V30 1855 C 177.857 0.594725 1.49398 0
M  V30 1856 O 179.047 0.862315 1.5136 0
M  V30 1857 C 176.179 1.78431 2.90474 0
M  V30 1858 H 177.372 2.68467 1.33662 0
M  V30 1859 H 174.925 1.41549 0.662836 0
M  V30 1860 H 175.66 0.842645 3.13161 0
M  V30 1861 H 175.445 2.60558 2.93005 0
M  V30 1862 H 176.935 1.96479 3.68491 0
M  V30 1863 N 177.372 -0.689602 1.41712 0
M  V30 1864 C 178.319 -1.80345 1.44029 0
M  V30 1865 C 179.289 -1.63478 0.293948 0
M  V30 1866 O 180.474 -1.84244 0.495869 0
M  V30 1867 C 177.614 -3.18272 1.33405 0
M  V30 1868 C 176.727 -3.46529 2.57956 0
M  V30 1869 C 175.862 -4.74103 2.39582 0
M  V30 1870 C 174.901 -4.95347 3.5958 0
M  V30 1871 N 174.038 -6.14151 3.40239 0
M  V30 1872 H 178.878 -1.77698 2.39222 0
M  V30 1873 H 176.415 -0.867688 1.18784 0
M  V30 1874 H 178.373 -3.97956 1.25246 0
M  V30 1875 H 177.003 -3.2008 0.418164 0
M  V30 1876 H 176.055 -2.61207 2.76542 0
M  V30 1877 H 177.367 -3.58126 3.47199 0
M  V30 1878 H 176.521 -5.61853 2.28924 0
M  V30 1879 H 175.26 -4.64763 1.47805 0
M  V30 1880 H 174.265 -4.06044 3.70686 0
M  V30 1881 H 175.49 -5.06542 4.52318 0
M  V30 1882 H 173.436 -6.06013 2.51167 0
M  V30 1883 H 173.353 -6.26543 4.23061 0
M  V30 1884 H 174.621 -7.04619 3.33365 0
M  V30 1885 N 178.85 -1.27639 -0.924453 0
M  V30 1886 C 179.797 -1.10644 -2.0255 0
M  V30 1887 C 180.767 -0.00658438 -1.66099 0
M  V30 1888 O 181.952 -0.16952 -1.90045 0
M  V30 1889 C 179.092 -0.76309 -3.36557 0
M  V30 1890 C 178.205 -1.94091 -3.85944 0
M  V30 1891 C 177.34 -1.53914 -5.08413 0
M  V30 1892 C 176.379 -2.68425 -5.50104 0
M  V30 1893 N 175.516 -2.28815 -6.63768 0
M  V30 1894 H 180.356 -2.04858 -2.16419 0
M  V30 1895 H 177.893 -1.01974 -1.06017 0
M  V30 1896 H 179.851 -0.544822 -4.13627 0
M  V30 1897 H 178.481 0.142102 -3.22487 0
M  V30 1898 H 177.533 -2.27162 -3.05125 0
M  V30 1899 H 178.845 -2.7998 -4.12811 0
M  V30 1900 H 177.999 -1.28231 -5.92994 0
M  V30 1901 H 176.738 -0.651391 -4.8333 0
M  V30 1902 H 175.743 -2.94819 -4.64071 0
M  V30 1903 H 176.968 -3.57826 -5.7718 0
M  V30 1904 H 174.914 -1.42495 -6.40337 0
M  V30 1905 H 174.831 -3.08242 -6.90306 0
M  V30 1906 H 176.099 -2.06387 -7.51681 0
M  V30 1907 N 180.328 1.1314 -1.09713 0
M  V30 1908 C 181.553 1.88862 -0.857081 0
M  V30 1909 C 181.978 1.78729 0.586304 0
M  V30 1910 O 181.336 1.13692 1.41222 0
M  V30 1911 C 181.384 3.36325 -1.30069 0
M  V30 1912 O 180.488 4.09815 -0.461007 0
M  V30 1913 H 179.829 0.587108 -0.310162 0
M  V30 1914 H 182.359 1.43129 -1.46203 0
M  V30 1915 H 182.369 3.87157 -1.28738 0
M  V30 1916 H 181.044 3.43017 -2.35185 0
M  V30 1917 H 179.621 3.68986 -0.538888 0
M  V30 1918 N 181.806 0.884767 1.30421 0
M  V30 1919 C 183.052 0.503851 1.96441 0
M  V30 1920 C 183.385 -0.944518 1.69684 0
M  V30 1921 O 182.66 -1.66737 1.00145 0
M  V30 1922 C 182.943 0.779085 3.51571 0
M  V30 1923 C 182.796 2.27807 3.87846 0
M  V30 1924 C 184.115 0.255452 4.39358 0
M  V30 1925 H 181.234 0.184533 0.713524 0
M  V30 1926 H 183.876 1.10872 1.54297 0
M  V30 1927 H 182.026 0.264274 3.876 0
M  V30 1928 H 183.698 2.86127 3.61841 0
M  V30 1929 H 181.941 2.74479 3.35922 0
M  V30 1930 H 182.612 2.42125 4.96064 0
M  V30 1931 H 185.088 0.696079 4.10236 0
M  V30 1932 H 183.964 0.477361 5.4682 0
M  V30 1933 H 184.225 -0.843293 4.33983 0
M  V30 1934 N 183.284 -1.43765 0.645699 0
M  V30 1935 C 184.231 -2.30745 -0.0504648 0
M  V30 1936 C 185.201 -1.4432 -0.822241 0
M  V30 1937 O 186.386 -1.73202 -0.800358 0
M  V30 1938 C 183.526 -3.29802 -1.0161 0
M  V30 1939 C 182.639 -4.31326 -0.241219 0
M  V30 1940 C 181.774 -5.17469 -1.19998 0
M  V30 1941 C 180.813 -6.10691 -0.415094 0
M  V30 1942 N 179.95 -6.89483 -1.32506 0
M  V30 1943 H 184.79 -2.8973 0.697155 0
M  V30 1944 H 182.327 -1.42738 0.355563 0
M  V30 1945 H 184.285 -3.85734 -1.58949 0
M  V30 1946 H 182.915 -2.72483 -1.73069 0
M  V30 1947 H 181.967 -3.77749 0.448334 0
M  V30 1948 H 183.279 -4.9743 0.369437 0
M  V30 1949 H 182.433 -5.7799 -1.84424 0
M  V30 1950 H 181.172 -4.51473 -1.84455 0
M  V30 1951 H 180.177 -5.49265 0.242565 0
M  V30 1952 H 181.402 -6.78727 0.224966 0
M  V30 1953 H 179.348 -6.26142 -1.95657 0
M  V30 1954 H 179.265 -7.52081 -0.768783 0
M  V30 1955 H 180.533 -7.54516 -1.9577 0
M  V30 1956 N 184.763 -0.387143 -1.52771 0
M  V30 1957 C 186.009 0.196025 -2.0185 0
M  V30 1958 C 186.342 1.46641 -1.27319 0
M  V30 1959 O 185.617 1.90889 -0.373032 0
M  V30 1960 C 185.9 0.466136 -3.5707 0
M  V30 1961 C 185.753 -0.819385 -4.42274 0
M  V30 1962 C 187.072 1.25768 -4.21747 0
M  V30 1963 H 184.191 0.0697708 -0.73369 0
M  V30 1964 H 186.833 -0.516286 -1.82851 0
M  V30 1965 H 184.983 1.07293 -3.7339 0
M  V30 1966 H 186.655 -1.4563 -4.37709 0
M  V30 1967 H 184.898 -1.43517 -4.09372 0
M  V30 1968 H 185.569 -0.585065 -5.48891 0
M  V30 1969 H 188.045 0.744167 -4.09391 0
M  V30 1970 H 186.921 1.41541 -5.30337 0
M  V30 1971 H 187.182 2.27228 -3.79236 0
M  V30 1972 N 186.241 1.57166 -0.116904 0
M  V30 1973 C 187.49 1.94298 0.541407 0
M  V30 1974 C 187.803 1.00236 1.67964 0
M  V30 1975 O 189.009 1.26826 2.40057 0
M  V30 1976 C 187.465 3.45306 1.01449 0
M  V30 1977 C 187.073 4.47899 -0.0951738 0
M  V30 1978 C 188.817 3.91361 1.6443 0
M  V30 1979 C 186.724 5.90083 0.394491 0
M  V30 1980 H 185.654 0.725308 0.206019 0
M  V30 1981 H 188.305 1.82446 -0.196419 0
M  V30 1982 H 186.687 3.52385 1.80667 0
M  V30 1983 H 187.861 4.52486 -0.871374 0
M  V30 1984 H 186.176 4.11583 -0.631505 0
M  V30 1985 H 188.773 4.95004 2.02176 0
M  V30 1986 H 189.116 3.3122 2.52189 0
M  V30 1987 H 189.649 3.87073 0.917559 0
M  V30 1988 H 186.388 6.53974 -0.447004 0
M  V30 1989 H 185.908 5.88921 1.13722 0
M  V30 1990 H 187.587 6.41307 0.856399 0
M  V30 1991 N 187.719 -0.156864 1.56817 0
M  V30 1992 C 188.965 -0.872416 1.83076 0
M  V30 1993 C 189.298 -1.81261 0.697001 0
M  V30 1994 O 188.573 -1.92171 -0.30008 0
M  V30 1995 C 188.856 -1.65551 3.19789 0
M  V30 1996 C 188.709 -0.737467 4.43713 0
M  V30 1997 C 190.028 -2.62012 3.53606 0
M  V30 1998 H 187.147 -0.315715 0.665953 0
M  V30 1999 H 189.789 -0.138004 1.89498 0
M  V30 2000 H 187.939 -2.28159 3.14445 0
M  V30 2001 H 189.611 -0.123143 4.61136 0
M  V30 2002 H 187.854 -0.0464067 4.33775 0
M  V30 2003 H 188.525 -1.32122 5.35955 0
M  V30 2004 H 191.001 -2.09525 3.59497 0
M  V30 2005 H 189.877 -3.13861 4.50314 0
M  V30 2006 H 190.138 -3.42902 2.79053 0
M  V30 2007 N 189.197 -1.51736 -0.425897 0
M  V30 2008 C 190.443 -1.65214 -1.1761 0
M  V30 2009 C 190.776 -0.372778 -1.90589 0
M  V30 2010 O 190.051 0.628139 -1.84078 0
M  V30 2011 C 190.334 -2.86312 -2.18398 0
M  V30 2012 C 190.187 -4.24254 -1.49426 0
M  V30 2013 C 191.506 -3.02925 -3.19256 0
M  V30 2014 H 188.625 -0.601263 -0.426206 0
M  V30 2015 H 191.267 -1.8425 -0.463882 0
M  V30 2016 H 189.417 -2.70213 -2.79137 0
M  V30 2017 H 191.089 -4.52046 -0.919362 0
M  V30 2018 H 189.332 -4.26426 -0.796432 0
M  V30 2019 H 190.003 -5.05001 -2.22885 0
M  V30 2020 H 192.479 -3.1781 -2.68581 0
M  V30 2021 H 191.355 -3.89199 -3.8706 0
M  V30 2022 H 191.616 -2.15497 -3.86023 0
M  V30 2023 N 190.675 0.682077 -1.42076 0
M  V30 2024 C 191.923 1.4393 -1.41876 0
M  V30 2025 C 192.244 1.94971 -0.0335599 0
M  V30 2026 O 191.514 1.72591 0.926773 0
M  V30 2027 H 190.094 0.534085 -0.522267 0
M  V30 2028 H 192.756 0.806427 -1.77434 0
M  V30 2029 H 191.852 2.29588 -2.11414 0
M  V30 2030 N 192.153 1.28127 0.917671 0
M  V30 2031 C 193.101 1.11569 2.04096 0
M  V30 2032 C 194.095 0.0360242 1.69362 0
M  V30 2033 O 195.301 0.194501 1.78946 0
M  V30 2034 H 191.676 0.344097 0.668656 0
M  V30 2035 H 193.647 2.06711 2.15205 0
M  V30 2036 C 192.396 0.790197 3.38602 0
M  V30 2037 H 191.719 1.61293 3.6582 0
M  V30 2038 H 193.159 0.714271 4.1794 0
M  V30 2039 C 191.618 -0.505897 3.3308 0
M  V30 2040 O 192.148 -1.53736 3.71117 0
M  V30 2041 N 190.354 -0.505193 2.86175 0
M  V30 2042 H 189.901 0.334621 2.55417 0
M  V30 2043 H 189.859 -1.37243 2.82863 0
M  V30 2044 N 193.631 -1.12557 1.10312 0
M  V30 2045 C 195.042 -1.65574 0.862678 0
M  V30 2046 C 195.393 -1.86566 -0.607256 0
M  V30 2047 O 194.518 -1.59121 -1.46662 0
M  V30 2048 C 195.113 -3.00776 1.55947 0
M  V30 2049 C 193.672 -3.50748 1.36576 0
M  V30 2050 C 192.819 -2.25797 1.60968 0
M  V30 2051 H 195.77 -0.963552 1.26101 0
M  V30 2052 H 195.791 -3.67185 0.997753 0
M  V30 2053 H 195.303 -2.85465 2.62928 0
M  V30 2054 H 193.404 -3.71245 0.317531 0
M  V30 2055 H 193.517 -4.30289 2.10686 0
M  V30 2056 H 191.881 -2.32841 1.03234 0
M  V30 2057 H 192.664 -2.13043 2.69198 0
M  V30 2058 N 195.109 -0.891671 -1.2995 0
M  V30 2059 C 196.072 -0.36828 -2.26222 0
M  V30 2060 C 197.072 0.493014 -1.53056 0
M  V30 2061 O 198.262 0.299213 -1.71611 0
M  V30 2062 C 195.394 0.47442 -3.37583 0
M  V30 2063 H 196.587 -1.21844 -2.74033 0
M  V30 2064 H 194.14 -0.669107 -1.41254 0
M  V30 2065 H 194.875 1.34489 -2.95099 0
M  V30 2066 H 194.66 -0.142615 -3.91841 0
M  V30 2067 H 196.15 0.83218 -4.09224 0
M  V30 2068 N 196.587 1.43421 -0.653314 0
M  V30 2069 C 197.535 2.32546 0.0501531 0
M  V30 2070 C 198.529 1.48617 0.812985 0
M  V30 2071 O 199.735 1.64825 0.723375 0
M  V30 2072 H 196.11 0.751185 0.0350032 0
M  V30 2073 H 198.081 2.89602 -0.719261 0
M  V30 2074 C 196.83 3.32925 1.00279 0
M  V30 2075 H 196.153 3.97532 0.425236 0
M  V30 2076 H 197.593 3.9792 1.46409 0
M  V30 2077 C 196.052 2.63532 2.09886 0
M  V30 2078 O 196.582 2.45092 3.18265 0
M  V30 2079 N 194.788 2.22905 1.86445 0
M  V30 2080 H 194.335 2.38103 0.98309 0
M  V30 2081 H 194.293 1.76805 2.59976 0
M  V30 2082 N 198.065 0.39524 1.52563 0
M  V30 2083 C 199.293 -0.184943 2.06072 0
M  V30 2084 C 199.708 -1.40021 1.26647 0
M  V30 2085 O 199.065 -1.79767 0.314672 0
M  V30 2086 C 199.116 -0.549179 3.57304 0
M  V30 2087 O 198.837 0.617813 4.33722 0
M  V30 2088 C 200.338 -1.18459 4.2718 0
M  V30 2089 H 197.558 -0.0265025 0.670476 0
M  V30 2090 H 200.102 0.562184 1.96621 0
M  V30 2091 H 198.257 -1.2462 3.66809 0
M  V30 2092 H 198.671 0.317091 5.23541 0
M  V30 2093 H 200.145 -1.38976 5.34219 0
M  V30 2094 H 200.622 -2.15368 3.82771 0
M  V30 2095 H 201.228 -0.528163 4.22008 0
M  V30 2096 N 199.544 -1.57102 0.125237 0
M  V30 2097 C 200.492 -2.16905 -0.839927 0
M  V30 2098 C 201.486 -1.11998 -1.27094 0
M  V30 2099 O 202.692 -1.3029 -1.24195 0
M  V30 2100 H 199.067 -0.694252 -0.288995 0
M  V30 2101 H 201.038 -2.96774 -0.311115 0
M  V30 2102 C 199.787 -2.78795 -2.07771 0
M  V30 2103 H 199.11 -3.59221 -1.755 0
M  V30 2104 H 200.55 -3.2417 -2.73295 0
M  V30 2105 C 199.009 -1.76193 -2.87155 0
M  V30 2106 O 199.539 -1.21909 -3.82755 0
M  V30 2107 N 197.745 -1.45991 -2.51267 0
M  V30 2108 H 197.292 -1.90325 -1.73592 0
M  V30 2109 H 197.25 -0.775844 -3.04677 0
M  V30 2110 N 201.022 0.148545 -1.56898 0
M  V30 2111 C 202.262 0.86765 -1.85071 0
M  V30 2112 C 202.626 1.78417 -0.709317 0
M  V30 2113 O 203.827 2.54261 -0.872049 0
M  V30 2114 C 202.098 1.62306 -3.1842 0
M  V30 2115 S 203.657 2.3878 -3.68143 0
M  V30 2116 H 200.475 0.290174 -0.649092 0
M  V30 2117 H 203.077 0.127755 -1.95082 0
M  V30 2118 H 201.781 0.941192 -3.99462 0
M  V30 2119 H 201.312 2.4039 -3.1141 0
M  V30 2120 H 203.327 3.63942 -3.37285 0
M  V30 2121 N 202.5 1.5196 0.417844 0
M  V30 2122 C 203.43 1.77634 1.51554 0
M  V30 2123 C 204.411 0.626918 1.58126 0
M  V30 2124 O 205.596 0.871632 1.7354 0
M  V30 2125 C 202.726 1.91911 2.8946 0
M  V30 2126 C 201.68 3.07463 2.97743 0
M  V30 2127 C 201.006 3.06951 4.37819 0
M  V30 2128 C 202.306 4.47082 2.70027 0
M  V30 2129 H 204 2.6955 1.3032 0
M  V30 2130 H 201.546 1.29706 0.625492 0
M  V30 2131 H 203.499 2.08455 3.6623 0
M  V30 2132 H 202.223 0.966598 3.11969 0
M  V30 2133 H 200.882 2.90656 2.23416 0
M  V30 2134 H 200.53 2.09438 4.57323 0
M  V30 2135 H 200.23 3.84556 4.44286 0
M  V30 2136 H 201.754 3.25613 5.16535 0
M  V30 2137 H 203.168 4.6414 3.36522 0
M  V30 2138 H 201.565 5.2654 2.87881 0
M  V30 2139 H 202.635 4.55777 1.65514 0
M  V30 2140 N 203.978 -0.674533 1.42435 0
M  V30 2141 C 205.206 -1.46283 1.46317 0
M  V30 2142 C 205.621 -1.88653 0.0745836 0
M  V30 2143 O 204.978 -1.58151 -0.91074 0
M  V30 2144 C 205.029 -2.71178 2.3905 0
M  V30 2145 O 204.75 -2.30586 3.72507 0
M  V30 2146 C 206.251 -3.64738 2.51955 0
M  V30 2147 H 203.471 -0.450104 0.497642 0
M  V30 2148 H 206.015 -0.828792 1.86953 0
M  V30 2149 H 204.17 -3.3077 2.01667 0
M  V30 2150 H 204.584 -3.11241 4.22172 0
M  V30 2151 H 206.058 -4.49096 3.20962 0
M  V30 2152 H 206.535 -4.10656 1.55752 0
M  V30 2153 H 207.141 -3.11038 2.90061 0
M  V30 2154 N 205.456 -1.28612 -0.910864 0
M  V30 2155 C 206.419 -1.12803 -1.9952 0
M  V30 2156 C 207.419 -0.0668264 -1.60661 0
M  V30 2157 O 208.609 -0.312847 -1.71368 0
M  V30 2158 C 205.741 -0.72254 -3.33155 0
M  V30 2159 H 206.934 -2.09109 -2.14973 0
M  V30 2160 H 204.487 -1.11639 -1.09391 0
M  V30 2161 H 205.222 0.241152 -3.23402 0
M  V30 2162 H 205.007 -1.48916 -3.62721 0
M  V30 2163 H 206.497 -0.634666 -4.12749 0
M  V30 2164 N 206.934 1.1197 -1.10907 0
M  V30 2165 C 208.159 1.87942 -0.877064 0
M  V30 2166 C 208.584 1.79341 0.567314 0
M  V30 2167 O 207.942 1.15184 1.40009 0
M  V30 2168 C 207.99 3.34926 -1.33629 0
M  V30 2169 O 207.094 4.09303 -0.504447 0
M  V30 2170 H 206.435 0.583785 -0.316371 0
M  V30 2171 H 208.965 1.4157 -1.47712 0
M  V30 2172 H 208.975 3.8577 -1.32837 0
M  V30 2173 H 207.65 3.40504 -2.3881 0
M  V30 2174 H 206.227 3.68393 -0.577993 0
M  V30 2175 N 208.412 0.89855 1.29475 0
M  V30 2176 C 209.359 0.373819 2.27753 0
M  V30 2177 C 210.329 -0.543444 1.56958 0
M  V30 2178 O 211.514 -0.468934 1.84948 0
M  V30 2179 C 208.654 -0.393648 3.42848 0
M  V30 2180 C 207.767 0.554379 4.28428 0
M  V30 2181 C 206.902 -0.230026 5.30702 0
M  V30 2182 C 205.941 0.712599 6.07938 0
M  V30 2183 N 205.078 -0.0373283 7.0209 0
M  V30 2184 H 209.918 1.21699 2.72017 0
M  V30 2185 H 207.455 0.611456 1.33789 0
M  V30 2186 H 209.413 -0.85466 4.08352 0
M  V30 2187 H 208.043 -1.20128 2.99615 0
M  V30 2188 H 207.095 1.13391 3.63107 0
M  V30 2189 H 208.407 1.27597 4.82204 0
M  V30 2190 H 207.561 -0.752288 6.02018 0
M  V30 2191 H 206.3 -0.984758 4.77654 0
M  V30 2192 H 205.305 1.24637 5.35486 0
M  V30 2193 H 206.53 1.46664 6.63074 0
M  V30 2194 H 204.476 -0.774348 6.51414 0
M  V30 2195 H 204.393 0.624374 7.53417 0
M  V30 2196 H 205.661 -0.539891 7.77628 0
M  V30 2197 N 209.89 -1.43072 0.660911 0
M  V30 2198 C 211.115 -2.06584 0.183805 0
M  V30 2199 C 211.54 -1.49257 -1.14472 0
M  V30 2200 O 210.898 -0.605528 -1.70889 0
M  V30 2201 C 210.946 -3.60418 0.114434 0
M  V30 2202 O 210.05 -4.01981 -0.921137 0
M  V30 2203 H 209.391 -0.656669 0.0983994 0
M  V30 2204 H 211.921 -1.83447 0.906006 0
M  V30 2205 H 211.931 -4.07946 -0.0663394 0
M  V30 2206 H 210.606 -4.01519 1.08422 0
M  V30 2207 H 209.183 -3.66029 -0.71253 0
M  V30 2208 N 211.368 -0.403325 -1.52352 0
M  V30 2209 C 212.331 0.413051 -2.25447 0
M  V30 2210 C 213.331 0.978513 -1.276 0
M  V30 2211 O 214.521 0.858305 -1.51587 0
M  V30 2212 C 211.653 1.58087 -3.02029 0
M  V30 2213 H 212.846 -0.227094 -2.99039 0
M  V30 2214 H 210.399 -0.155722 -1.55522 0
M  V30 2215 H 211.134 2.25804 -2.32772 0
M  V30 2216 H 210.919 1.18195 -3.73861 0
M  V30 2217 H 212.409 2.1585 -3.57489 0
M  V30 2218 N 212.846 1.57033 -0.133567 0
M  V30 2219 C 214.257 1.82593 0.389464 0
M  V30 2220 C 214.608 1.05156 1.6564 0
M  V30 2221 O 213.733 0.292644 2.14412 0
M  V30 2222 C 214.328 3.31204 0.713377 0
M  V30 2223 C 212.887 3.57393 1.18098 0
M  V30 2224 C 212.034 2.76598 0.197126 0
M  V30 2225 H 214.985 1.54598 -0.358481 0
M  V30 2226 H 215.006 3.46627 1.56939 0
M  V30 2227 H 214.518 3.87537 -0.2089 0
M  V30 2228 H 212.619 3.06433 2.11966 0
M  V30 2229 H 212.732 4.65915 1.11624 0
M  V30 2230 H 211.096 2.45257 0.687088 0
M  V30 2231 H 211.879 3.35697 -0.718504 0
M  V30 2232 N 214.325 -0.140222 1.56975 0
M  V30 2233 C 215.55 -0.870414 1.88251 0
M  V30 2234 C 215.975 -1.73637 0.723312 0
M  V30 2235 O 215.333 -1.78329 -0.32689 0
M  V30 2236 C 215.381 -1.69737 3.18154 0
M  V30 2237 O 214.485 -2.80229 3.02565 0
M  V30 2238 H 213.826 -0.242025 0.61832 0
M  V30 2239 H 216.356 -0.128999 2.04193 0
M  V30 2240 H 216.366 -2.09099 3.50345 0
M  V30 2241 H 215.041 -1.06152 4.02125 0
M  V30 2242 H 213.618 -2.44224 2.81796 0
M  V30 2243 N 215.803 -1.52179 -0.40978 0
M  V30 2244 C 217.052 -1.65434 -1.15388 0
M  V30 2245 C 217.365 -0.390056 -1.91671 0
M  V30 2246 O 218.571 -0.402399 -2.68501 0
M  V30 2247 C 217.027 -2.92279 -2.10003 0
M  V30 2248 C 216.635 -4.25813 -1.39239 0
M  V30 2249 C 218.379 -3.14897 -2.84675 0
M  V30 2250 C 216.286 -5.43782 -2.32498 0
M  V30 2251 H 215.216 -0.616267 -0.434432 0
M  V30 2252 H 217.867 -1.78666 -0.418401 0
M  V30 2253 H 216.249 -2.72744 -2.871 0
M  V30 2254 H 217.423 -4.55828 -0.675099 0
M  V30 2255 H 215.738 -4.09292 -0.766097 0
M  V30 2256 H 218.335 -4.0021 -3.54593 0
M  V30 2257 H 218.678 -2.29103 -3.47588 0
M  V30 2258 H 219.211 -3.34901 -2.14677 0
M  V30 2259 H 215.95 -6.3192 -1.74233 0
M  V30 2260 H 215.47 -5.18106 -3.02201 0
M  V30 2261 H 217.149 -5.76834 -2.93038 0
M  V30 2262 N 217.281 0.66697 -1.42791 0
M  V30 2263 C 218.692 1.2478 -1.38877 0
M  V30 2264 C 219.043 1.96012 -0.0859426 0
M  V30 2265 O 218.168 2.00463 0.815081 0
M  V30 2266 C 218.763 2.26938 -2.51564 0
M  V30 2267 C 217.322 2.80529 -2.50959 0
M  V30 2268 C 216.469 1.54965 -2.29959 0
M  V30 2269 H 219.42 0.459853 -1.51892 0
M  V30 2270 H 219.441 3.08834 -2.22265 0
M  V30 2271 H 218.953 1.75065 -3.46372 0
M  V30 2272 H 217.054 3.36502 -1.59991 0
M  V30 2273 H 217.167 3.29012 -3.48265 0
M  V30 2274 H 215.531 1.81817 -1.78366 0
M  V30 2275 H 216.314 1.05047 -3.26833 0
M  V30 2276 N 218.759 1.29093 0.90403 0
M  V30 2277 C 219.706 1.13853 2.00764 0
M  V30 2278 C 220.676 0.0330084 1.66067 0
M  V30 2279 O 221.861 0.199733 1.89752 0
M  V30 2280 C 219.001 0.816537 3.35301 0
M  V30 2281 C 218.114 2.00206 3.82807 0
M  V30 2282 C 217.249 1.61983 5.059 0
M  V30 2283 C 216.288 2.77143 5.45764 0
M  V30 2284 N 215.425 2.39346 6.60044 0
M  V30 2285 H 220.265 2.08276 2.13132 0
M  V30 2286 H 217.802 1.03648 1.04381 0
M  V30 2287 H 219.76 0.610557 4.12708 0
M  V30 2288 H 218.39 -0.090779 3.22672 0
M  V30 2289 H 217.442 2.31988 3.01473 0
M  V30 2290 H 218.754 2.86512 4.08304 0
M  V30 2291 H 217.908 1.37649 5.90879 0
M  V30 2292 H 216.647 0.728202 4.82233 0
M  V30 2293 H 215.652 3.02165 4.59322 0
M  V30 2294 H 216.877 3.66964 5.71414 0
M  V30 2295 H 214.823 1.52665 6.37989 0
M  V30 2296 H 214.74 3.19185 6.85315 0
M  V30 2297 H 216.008 2.1832 7.48303 0
M  V30 2298 N 220.237 -1.11381 1.11499 0
M  V30 2299 C 221.147 -2.21019 0.786628 0
M  V30 2300 C 222.163 -1.72597 -0.220507 0
M  V30 2301 O 223.339 -2.01321 -0.0565251 0
M  V30 2302 C 220.404 -3.459 0.235333 0
M  V30 2303 C 219.465 -4.09107 1.30115 0
M  V30 2304 C 218.698 -5.28027 0.776068 0
M  V30 2305 O 218.921 -5.6904 -0.393661 0
M  V30 2306 O 217.855 -5.81835 1.54114 0
M  V30 2307 H 221.681 -2.51521 1.70209 0
M  V30 2308 H 219.266 -1.19928 0.890928 0
M  V30 2309 H 221.148 -4.21346 -0.067715 0
M  V30 2310 H 219.823 -3.17049 -0.652828 0
M  V30 2311 H 218.73 -3.35391 1.65722 0
M  V30 2312 H 220.063 -4.42139 2.16273 0
M  V30 2313 N 221.715 -0.905404 -1.28997 0
M  V30 2314 C 222.663 -0.377431 -2.29517 0
M  V30 2315 C 223.657 0.526461 -1.61012 0
M  V30 2316 O 224.863 0.40863 -1.753 0
M  V30 2317 H 221.238 -0.103437 -0.744852 0
M  V30 2318 H 223.209 -1.23848 -2.71485 0
M  V30 2319 C 221.958 0.374833 -3.45674 0
M  V30 2320 H 221.281 -0.311474 -3.98585 0
M  V30 2321 H 222.721 0.70903 -4.1803 0
M  V30 2322 C 221.18 1.57963 -2.97572 0
M  V30 2323 O 221.71 2.67886 -2.99333 0
M  V30 2324 N 219.916 1.42375 -2.53333 0
M  V30 2325 H 219.463 0.529466 -2.521 0
M  V30 2326 H 219.421 2.23117 -2.21509 0
M  V30 2327 N 223.193 1.4272 -0.668489 0
M  V30 2328 C 224.44 2.01624 -0.18814 0
M  V30 2329 C 224.768 1.5282 1.20317 0
M  V30 2330 O 224.023 0.718323 1.8204 0
M  V30 2331 C 224.322 3.57021 -0.164499 0
M  V30 2332 C 223.988 4.25232 -1.49962 0
M  V30 2333 C 222.65 4.4358 -1.8652 0
M  V30 2334 C 225.002 4.63727 -2.37921 0
M  V30 2335 C 222.33 4.97694 -3.10674 0
M  V30 2336 C 224.682 5.19218 -3.6138 0
M  V30 2337 C 223.346 5.3578 -3.98115 0
M  V30 2338 H 222.616 0.737795 -0.0688454 0
M  V30 2339 H 225.263 1.70991 -0.862225 0
M  V30 2340 H 223.568 3.87285 0.593079 0
M  V30 2341 H 225.265 4.00372 0.224271 0
M  V30 2342 H 221.855 4.11306 -1.20522 0
M  V30 2343 H 226.039 4.4923 -2.10964 0
M  V30 2344 H 221.295 5.08702 -3.39164 0
M  V30 2345 H 225.469 5.4799 -4.29743 0
M  V30 2346 H 223.096 5.77475 -4.94395 0
M  V30 2347 N 224.671 0.411399 1.52136 0
M  V30 2348 C 225.896 -0.165538 2.06738 0
M  V30 2349 C 226.321 -1.379 1.27926 0
M  V30 2350 O 225.679 -1.78628 0.310114 0
M  V30 2351 C 225.727 -0.492124 3.57226 0
M  V30 2352 O 224.831 -1.58276 3.80818 0
M  V30 2353 H 224.172 -0.0132132 0.663869 0
M  V30 2354 H 226.702 0.585253 1.96051 0
M  V30 2355 H 226.712 -0.750104 4.01045 0
M  V30 2356 H 225.387 0.394922 4.14021 0
M  V30 2357 H 223.964 -1.31677 3.48877 0
M  V30 2358 N 226.149 -1.5696 0.141893 0
M  V30 2359 C 227.389 -1.9785 -0.513304 0
M  V30 2360 C 227.753 -1.02467 -1.62371 0
M  V30 2361 O 228.954 -1.32382 -2.33941 0
M  V30 2362 C 227.225 -3.42797 -1.01118 0
M  V30 2363 S 228.784 -4.05709 -1.67169 0
M  V30 2364 H 225.602 -0.691318 -0.166135 0
M  V30 2365 H 228.204 -1.94114 0.232398 0
M  V30 2366 H 226.908 -4.0995 -0.192179 0
M  V30 2367 H 226.439 -3.50235 -1.79162 0
M  V30 2368 H 228.454 -3.98342 -2.95868 0
M  V30 2369 N 227.627 0.131896 -1.57047 0
M  V30 2370 C 228.557 1.16384 -2.02428 0
M  V30 2371 C 229.538 1.43936 -0.90644 0
M  V30 2372 O 230.723 1.54599 -1.17528 0
M  V30 2373 C 227.853 2.49328 -2.4177 0
M  V30 2374 C 226.807 2.36266 -3.56879 0
M  V30 2375 C 226.133 3.74057 -3.8208 0
M  V30 2376 C 227.433 1.834 -4.89042 0
M  V30 2377 H 229.127 0.786433 -2.88887 0
M  V30 2378 H 226.673 0.376855 -1.38981 0
M  V30 2379 H 228.626 3.21759 -2.7212 0
M  V30 2380 H 227.35 2.88934 -1.52266 0
M  V30 2381 H 226.009 1.66286 -3.26718 0
M  V30 2382 H 225.657 4.11125 -2.89803 0
M  V30 2383 H 225.357 3.66174 -4.59554 0
M  V30 2384 H 226.881 4.48012 -4.1487 0
M  V30 2385 H 228.295 2.45636 -5.18011 0
M  V30 2386 H 226.692 1.8637 -5.70426 0
M  V30 2387 H 227.762 0.790662 -4.7841 0
M  V30 2388 N 229.106 1.52395 0.401703 0
M  V30 2389 C 230.334 1.70676 1.16949 0
M  V30 2390 C 230.749 0.419503 1.8408 0
M  V30 2391 O 230.106 -0.605061 1.72178 0
M  V30 2392 C 230.157 2.84753 2.22706 0
M  V30 2393 O 229.878 4.08495 1.58314 0
M  V30 2394 C 231.379 3.14608 3.12309 0
M  V30 2395 H 228.599 0.571787 0.351142 0
M  V30 2396 H 231.143 1.98987 0.471652 0
M  V30 2397 H 229.298 2.58941 2.88147 0
M  V30 2398 H 229.712 4.72117 2.28485 0
M  V30 2399 H 231.186 3.97923 3.82572 0
M  V30 2400 H 231.663 2.28464 3.75101 0
M  V30 2401 H 232.269 3.42212 2.52529 0
M  V30 2402 N 230.584 -0.659388 1.43143 0
M  V30 2403 C 232 -0.974337 1.26407 0
M  V30 2404 C 232.2 -2.007 0.179341 0
M  V30 2405 O 231.256 -2.4856 -0.444295 0
M  V30 2406 C 232.569 -1.46447 2.62628 0
M  V30 2407 C 234.117 -1.58144 2.7011 0
M  V30 2408 C 234.592 -2.1055 4.06734 0
M  V30 2409 N 236.083 -2.17861 4.08767 0
M  V30 2410 C 236.818 -2.59519 5.1131 0
M  V30 2411 N 236.314 -3.00518 6.24228 0
M  V30 2412 N 238.107 -2.59404 4.98664 0
M  V30 2413 H 230.258 0.0240528 2.12386 0
M  V30 2414 H 232.521 -0.0518065 0.946583 0
M  V30 2415 H 232.227 -0.780123 3.42939 0
M  V30 2416 H 232.101 -2.44058 2.87603 0
M  V30 2417 H 234.488 -2.25682 1.90136 0
M  V30 2418 H 234.569 -0.589828 2.48907 0
M  V30 2419 H 234.213 -1.43616 4.87172 0
M  V30 2420 H 234.143 -3.10531 4.25298 0
M  V30 2421 H 236.634 -1.88975 3.27257 0
M  V30 2422 H 236.947 -3.31036 6.98309 0
M  V30 2423 H 235.292 -2.98337 6.2771 0
M  V30 2424 H 238.483 -2.26747 4.09516 0
M  V30 2425 H 238.656 -2.91548 5.78709 0
M  V30 2426 N 232.062 -1.29571 -0.897171 0
M  V30 2427 C 232.992 -1.17473 -2.01798 0
M  V30 2428 C 233.973 -0.068323 -1.69963 0
M  V30 2429 O 235.158 -0.248239 -1.92607 0
M  V30 2430 C 232.288 -0.853099 -3.36659 0
M  V30 2431 C 231.242 -1.9161 -3.82713 0
M  V30 2432 C 230.568 -1.44773 -5.14728 0
M  V30 2433 C 231.868 -3.32535 -4.02763 0
M  V30 2434 H 233.562 -2.11237 -2.12177 0
M  V30 2435 H 231.108 -1.01699 -1.01948 0
M  V30 2436 H 233.061 -0.755165 -4.14578 0
M  V30 2437 H 231.785 0.120236 -3.26379 0
M  V30 2438 H 230.444 -2.00346 -3.07013 0
M  V30 2439 H 230.092 -0.462995 -5.00865 0
M  V30 2440 H 229.792 -2.15865 -5.46513 0
M  V30 2441 H 231.316 -1.36334 -5.95185 0
M  V30 2442 H 232.73 -3.26626 -4.71156 0
M  V30 2443 H 231.127 -4.01607 -4.45905 0
M  V30 2444 H 232.197 -3.75326 -3.07016 0
M  V30 2445 N 233.54 1.10788 -1.12088 0
M  V30 2446 C 234.817 1.79136 -0.785476 0
M  V30 2447 C 235.197 1.98246 0.725377 0
M  V30 2448 O 234.545 1.57258 1.65778 0
M  V30 2449 C 234.755 3.12375 -1.55636 0
M  V30 2450 C 236.103 3.8731 -1.74001 0
M  V30 2451 O 237.127 3.22085 -1.52117 0
M  V30 2452 O 235.986 5.04369 -2.10415 0
M  V30 2453 H 233.08 0.776226 -0.285311 0
M  V30 2454 H 235.626 1.1747 -1.2247 0
M  V30 2455 H 234.398 2.93863 -2.5838 0
M  V30 2456 H 234.021 3.81758 -1.11114 0
M  V30 2457 N 235.018 0.912232 1.28515 0
M  V30 2458 C 235.968 0.370649 2.24967 0
M  V30 2459 C 236.952 -0.516375 1.52389 0
M  V30 2460 O 238.144 -0.356345 1.73376 0
M  V30 2461 C 235.273 -0.389526 3.41083 0
M  V30 2462 C 234.359 0.51313 4.20984 0
M  V30 2463 N 234.75 1.62604 4.78951 0
M  V30 2464 C 233.048 0.313235 4.44899 0
M  V30 2465 C 233.749 2.18619 5.39055 0
M  V30 2466 N 232.725 1.47765 5.23132 0
M  V30 2467 H 236.527 1.22061 2.67354 0
M  V30 2468 H 234.041 0.764712 1.43269 0
M  V30 2469 H 236.038 -0.794353 4.09262 0
M  V30 2470 H 234.698 -1.2366 3.0023 0
M  V30 2471 H 235.709 2.00864 4.77362 0
M  V30 2472 H 232.386 -0.494452 4.14562 0
M  V30 2473 H 233.776 3.12228 5.94948 0
M  V30 2474 N 236.496 -1.42363 0.676048 0
M  V30 2475 C 237.444 -2.32596 -0.0131507 0
M  V30 2476 C 238.438 -1.49891 -0.789238 0
M  V30 2477 O 239.644 -1.65955 -0.697061 0
M  V30 2478 H 236.019 -0.751647 -0.0230481 0
M  V30 2479 H 237.99 -2.88421 0.765243 0
M  V30 2480 C 236.739 -3.34479 -0.949702 0
M  V30 2481 H 236.062 -3.98158 -0.361938 0
M  V30 2482 H 237.502 -4.00199 -1.4006 0
M  V30 2483 C 235.961 -2.66838 -2.05667 0
M  V30 2484 O 236.491 -2.50124 -3.14326 0
M  V30 2485 N 234.697 -2.25843 -1.82875 0
M  V30 2486 H 234.244 -2.39637 -0.945085 0
M  V30 2487 H 234.202 -1.80918 -2.5713 0
M  V30 2488 N 237.974 -0.419461 -1.51915 0
M  V30 2489 C 239.39 -0.0708431 -1.59443 0
M  V30 2490 C 239.59 1.41796 -1.43164 0
M  V30 2491 O 238.646 2.18596 -1.26381 0
M  V30 2492 C 239.959 -0.574991 -2.95151 0
M  V30 2493 C 241.507 -0.533867 -3.08413 0
M  V30 2494 C 241.982 -1.01469 -4.46618 0
M  V30 2495 N 243.473 -0.971939 -4.52888 0
M  V30 2496 C 244.208 -1.31505 -5.58116 0
M  V30 2497 N 243.704 -1.73014 -6.70849 0
M  V30 2498 N 245.497 -1.23436 -5.48379 0
M  V30 2499 H 237.648 -1.38836 -1.60743 0
M  V30 2500 H 239.911 -0.570998 -0.756747 0
M  V30 2501 H 239.617 -1.61597 -3.12377 0
M  V30 2502 H 239.491 0.00979777 -3.77199 0
M  V30 2503 H 241.878 0.498086 -2.90866 0
M  V30 2504 H 241.959 -1.15484 -2.28248 0
M  V30 2505 H 241.603 -2.04502 -4.6491 0
M  V30 2506 H 241.533 -0.370433 -5.25295 0
M  V30 2507 H 244.024 -0.666893 -3.71969 0
M  V30 2508 H 244.337 -1.97479 -7.47143 0
M  V30 2509 H 242.682 -1.76926 -6.72103 0
M  V30 2510 H 245.873 -0.908869 -4.59192 0
M  V30 2511 H 246.046 -1.50506 -6.30279 0
M  V30 2512 N 239.452 1.56882 -0.150215 0
M  V30 2513 C 240.415 2.1573 0.774157 0
M  V30 2514 C 241.415 1.0999 1.17298 0
M  V30 2515 O 242.605 1.35613 1.09338 0
M  V30 2516 C 239.737 2.72302 2.05096 0
M  V30 2517 H 240.93 2.98752 0.262201 0
M  V30 2518 H 238.483 1.55985 0.099248 0
M  V30 2519 H 239.218 1.92956 2.6065 0
M  V30 2520 H 239.003 3.49665 1.77416 0
M  V30 2521 H 240.493 3.17632 2.71109 0
M  V30 2522 N 240.93 -0.123565 1.57115 0
M  V30 2523 C 241.877 -1.15177 2.00007 0
M  V30 2524 C 242.847 -1.41403 0.871454 0
M  V30 2525 O 244.032 -1.53346 1.13533 0
M  V30 2526 C 241.172 -2.47436 2.40561 0
M  V30 2527 C 240.285 -2.28184 3.66819 0
M  V30 2528 C 239.42 -3.53641 3.96373 0
M  V30 2529 C 238.459 -3.29528 5.15827 0
M  V30 2530 N 237.596 -4.47175 5.41275 0
M  V30 2531 H 242.436 -0.779008 2.87638 0
M  V30 2532 H 239.973 -0.373166 1.42288 0
M  V30 2533 H 241.931 -3.24584 2.62109 0
M  V30 2534 H 240.561 -2.82614 1.55978 0
M  V30 2535 H 239.613 -1.41976 3.52912 0
M  V30 2536 H 240.925 -2.0634 4.5412 0
M  V30 2537 H 240.079 -4.39209 4.18545 0
M  V30 2538 H 238.818 -3.78512 3.07538 0
M  V30 2539 H 237.823 -2.42349 4.93505 0
M  V30 2540 H 239.048 -3.06031 6.06236 0
M  V30 2541 H 236.994 -4.72175 4.55397 0
M  V30 2542 H 236.911 -4.28419 6.22891 0
M  V30 2543 H 238.179 -5.3389 5.67963 0
M  V30 2544 N 242.408 -1.52605 -0.393616 0
M  V30 2545 C 243.371 -1.76415 -1.46323 0
M  V30 2546 C 244.371 -0.634126 -1.47768 0
M  V30 2547 O 245.561 -0.902142 -1.4902 0
M  V30 2548 C 242.693 -1.8607 -2.85641 0
M  V30 2549 H 243.886 -2.71916 -1.26498 0
M  V30 2550 H 241.439 -1.43257 -0.625073 0
M  V30 2551 H 242.174 -0.925378 -3.10817 0
M  V30 2552 H 241.959 -2.68235 -2.85993 0
M  V30 2553 H 243.449 -2.06179 -3.63153 0
M  V30 2554 N 243.887 0.651787 -1.4349 0
M  V30 2555 C 244.819 1.77725 -1.44729 0
M  V30 2556 C 245.832 1.59141 -0.343231 0
M  V30 2557 O 247.021 1.67835 -0.607751 0
M  V30 2558 C 244.121 3.15172 -1.24579 0
M  V30 2559 C 243.294 3.60402 -2.47849 0
M  V30 2560 C 242.353 4.76656 -2.22902 0
M  V30 2561 O 241.379 4.86022 -2.96263 0
M  V30 2562 N 242.581 5.66958 -1.24656 0
M  V30 2563 H 245.346 1.77141 -2.41746 0
M  V30 2564 H 242.907 0.835678 -1.38665 0
M  V30 2565 H 244.899 3.90634 -1.0577 0
M  V30 2566 H 243.469 3.1052 -0.360015 0
M  V30 2567 H 242.689 2.75369 -2.82073 0
M  V30 2568 H 243.977 3.87368 -3.29884 0
M  V30 2569 H 243.375 5.62065 -0.640265 0
M  V30 2570 H 241.932 6.42135 -1.1183 0
M  V30 2571 N 245.365 1.30045 0.890287 0
M  V30 2572 C 246.614 1.17929 1.63633 0
M  V30 2573 C 246.927 -0.266204 1.9378 0
M  V30 2574 O 248.133 -0.508804 2.6669 0
M  V30 2575 C 246.589 2.06317 2.94892 0
M  V30 2576 C 246.197 3.55745 2.72305 0
M  V30 2577 C 247.941 2.0295 3.72843 0
M  V30 2578 C 245.848 4.36205 3.99348 0
M  V30 2579 H 244.778 0.437782 0.613892 0
M  V30 2580 H 247.429 1.54754 0.986075 0
M  V30 2581 H 245.811 1.6237 3.61182 0
M  V30 2582 H 246.985 4.07805 2.1455 0
M  V30 2583 H 245.3 3.6088 2.07737 0
M  V30 2584 H 247.897 2.60319 4.67053 0
M  V30 2585 H 248.24 1.0117 4.0382 0
M  V30 2586 H 248.773 2.4499 3.13408 0
M  V30 2587 H 245.512 5.38659 3.73533 0
M  V30 2588 H 245.032 3.8891 4.56628 0
M  V30 2589 H 246.711 4.47362 4.67415 0
M  V30 2590 N 246.843 -1.10192 1.12674 0
M  V30 2591 C 247.806 -2.14786 0.799979 0
M  V30 2592 C 248.806 -1.59711 -0.18685 0
M  V30 2593 O 249.996 -1.74156 0.0392558 0
M  V30 2594 C 247.128 -3.40374 0.189228 0
M  V30 2595 H 248.321 -2.45203 1.72671 0
M  V30 2596 H 245.874 -1.25597 0.930326 0
M  V30 2597 H 246.609 -3.15577 -0.747107 0
M  V30 2598 H 246.394 -3.81637 0.899766 0
M  V30 2599 H 247.884 -4.17594 -0.0228143 0
M  V30 2600 N 248.321 -0.919034 -1.28029 0
M  V30 2601 C 249.251 -0.428581 -2.29533 0
M  V30 2602 C 250.232 0.50659 -1.62381 0
M  V30 2603 O 251.417 0.413195 -1.89753 0
M  V30 2604 C 248.547 0.327388 -3.45753 0
M  V30 2605 C 247.501 -0.519137 -4.2484 0
M  V30 2606 C 246.827 0.365486 -5.33449 0
M  V30 2607 C 248.127 -1.77914 -4.91064 0
M  V30 2608 H 249.821 -1.27687 -2.70807 0
M  V30 2609 H 247.367 -0.615428 -1.30186 0
M  V30 2610 H 249.32 0.681378 -4.15855 0
M  V30 2611 H 248.044 1.20963 -3.03374 0
M  V30 2612 H 246.703 -0.855717 -3.56473 0
M  V30 2613 H 246.351 1.24642 -4.87312 0
M  V30 2614 H 246.051 -0.197356 -5.87268 0
M  V30 2615 H 247.575 0.715241 -6.06396 0
M  V30 2616 H 248.989 -1.49374 -5.53498 0
M  V30 2617 H 247.386 -2.2848 -5.54903 0
M  V30 2618 H 248.456 -2.50382 -4.15255 0
M  V30 2619 N 249.799 1.42003 -0.683588 0
M  V30 2620 C 250.746 2.30798 -0.0107309 0
M  V30 2621 C 251.716 1.4645 0.783688 0
M  V30 2622 O 252.901 1.75263 0.754156 0
M  V30 2623 C 250.041 3.3238 0.928306 0
M  V30 2624 C 249.154 4.31814 0.126776 0
M  V30 2625 C 248.289 5.20468 1.06236 0
M  V30 2626 C 247.328 6.11577 0.253035 0
M  V30 2627 N 246.465 6.92754 1.14179 0
M  V30 2628 H 251.305 2.8778 -0.773727 0
M  V30 2629 H 248.842 1.41745 -0.393283 0
M  V30 2630 H 250.8 3.89813 1.48666 0
M  V30 2631 H 249.43 2.76976 1.65783 0
M  V30 2632 H 248.482 3.76427 -0.54833 0
M  V30 2633 H 249.794 4.96276 -0.501192 0
M  V30 2634 H 248.948 5.82677 1.69035 0
M  V30 2635 H 247.687 4.56204 1.7242 0
M  V30 2636 H 246.692 5.48428 -0.388108 0
M  V30 2637 H 247.917 6.77892 -0.404839 0
M  V30 2638 H 245.863 6.3111 1.78987 0
M  V30 2639 H 245.78 7.53855 0.569111 0
M  V30 2640 H 247.048 7.59441 1.75697 0
M  V30 2641 N 251.277 0.427512 1.51691 0
M  V30 2642 C 252.207 -0.3796 2.30394 0
M  V30 2643 C 253.188 -1.02982 1.35384 0
M  V30 2644 O 254.373 -1.03534 1.643 0
M  V30 2645 C 251.503 -1.48649 3.1388 0
M  V30 2646 C 250.457 -0.960294 4.17088 0
M  V30 2647 C 249.783 -2.16219 4.89033 0
M  V30 2648 C 251.083 -0.00153679 5.223 0
M  V30 2649 H 252.777 0.277164 2.98114 0
M  V30 2650 H 250.323 0.134739 1.43368 0
M  V30 2651 H 252.276 -2.05826 3.67714 0
M  V30 2652 H 251 -2.1714 2.43962 0
M  V30 2653 H 249.659 -0.410806 3.64291 0
M  V30 2654 H 249.307 -2.83307 4.15628 0
M  V30 2655 H 249.007 -1.81654 5.58816 0
M  V30 2656 H 250.531 -2.73968 5.45687 0
M  V30 2657 H 251.945 -0.482687 5.71264 0
M  V30 2658 H 250.342 0.256199 5.99553 0
M  V30 2659 H 251.412 0.938174 4.75738 0
M  V30 2660 N 252.755 -1.56801 0.158532 0
M  V30 2661 C 254.003 -1.96102 -0.488712 0
M  V30 2662 C 254.324 -1.04498 -1.64636 0
M  V30 2663 O 253.594 -0.108783 -1.95598 0
M  V30 2664 H 252.174 -0.724102 -0.183535 0
M  V30 2665 H 254.836 -1.93457 0.236728 0
M  V30 2666 H 253.932 -3.00097 -0.857219 0
M  V30 2667 N 254.233 0.115231 -1.57178 0
M  V30 2668 C 255.479 0.82357 -1.85325 0
M  V30 2669 C 255.812 1.79349 -0.744814 0
M  V30 2670 O 255.087 1.92899 0.249024 0
M  V30 2671 C 255.37 1.57014 -3.24066 0
M  V30 2672 C 255.223 0.619565 -4.45513 0
M  V30 2673 C 256.542 2.52545 -3.60429 0
M  V30 2674 H 253.661 0.297948 -0.674089 0
M  V30 2675 H 256.303 0.0877138 -1.89797 0
M  V30 2676 H 254.453 2.19742 -3.20383 0
M  V30 2677 H 256.125 0.000837639 -4.613 0
M  V30 2678 H 254.368 -0.0686174 -4.33746 0
M  V30 2679 H 255.039 1.17866 -5.3927 0
M  V30 2680 H 257.515 1.9992 -3.64926 0
M  V30 2681 H 256.391 3.01811 -4.58477 0
M  V30 2682 H 256.652 3.35383 -2.88047 0
M  V30 2683 N 255.711 1.52812 0.385517 0
M  V30 2684 C 256.939 1.71907 1.15133 0
M  V30 2685 C 257.354 0.439004 1.83625 0
M  V30 2686 O 256.711 -0.586765 1.7281 0
M  V30 2687 C 256.762 2.87099 2.19673 0
M  V30 2688 O 256.483 4.10151 1.53973 0
M  V30 2689 C 257.984 3.17902 3.08955 0
M  V30 2690 H 255.204 0.575479 0.345057 0
M  V30 2691 H 257.748 1.99476 0.45052 0
M  V30 2692 H 255.903 2.61982 2.85384 0
M  V30 2693 H 256.317 4.74514 2.23465 0
M  V30 2694 H 257.791 4.01959 3.7833 0
M  V30 2695 H 258.268 2.3243 3.72657 0
M  V30 2696 H 258.874 3.44871 2.48885 0
M  V30 2697 N 257.189 -0.644168 1.43834 0
M  V30 2698 C 258.152 -1.73857 1.49353 0
M  V30 2699 C 259.152 -1.56315 0.377112 0
M  V30 2700 O 260.342 -1.62048 0.639226 0
M  V30 2701 C 257.474 -3.12819 1.35488 0
M  V30 2702 H 258.667 -1.70342 2.46827 0
M  V30 2703 H 256.22 -0.856652 1.30733 0
M  V30 2704 H 256.955 -3.2194 0.390569 0
M  V30 2705 H 256.74 -3.26958 2.16428 0
M  V30 2706 H 258.23 -3.92606 1.42302 0
M  V30 2707 N 258.668 -1.30515 -0.883378 0
M  V30 2708 C 259.616 -1.16941 -2.01066 0
M  V30 2709 C 260.61 -0.0809148 -1.69207 0
M  V30 2710 O 261.816 -0.241877 -1.78367 0
M  V30 2711 H 258.191 -0.361705 -0.659298 0
M  V30 2712 H 260.162 -2.12344 -2.09649 0
M  V30 2713 C 258.911 -0.879694 -3.36388 0
M  V30 2714 H 258.234 -1.70936 -3.61415 0
M  V30 2715 H 259.674 -0.82483 -4.159 0
M  V30 2716 C 258.133 0.417409 -3.34304 0
M  V30 2717 O 258.663 1.43843 -3.75063 0
M  V30 2718 N 256.869 0.429141 -2.87414 0
M  V30 2719 H 256.416 -0.402222 -2.5444 0
M  V30 2720 H 256.374 1.29696 -2.86403 0
M  V30 2721 N 260.146 1.09593 -1.13257 0
M  V30 2722 C 261.423 1.78293 -0.804432 0
M  V30 2723 C 261.803 1.99004 0.70431 0
M  V30 2724 O 261.151 1.59007 1.641 0
M  V30 2725 C 261.361 3.10707 -1.5894 0
M  V30 2726 C 262.709 3.85443 -1.78099 0
M  V30 2727 O 263.733 3.20454 -1.55525 0
M  V30 2728 O 262.592 5.02108 -2.15753 0
M  V30 2729 H 259.686 0.773156 -0.293528 0
M  V30 2730 H 262.232 1.16164 -1.23709 0
M  V30 2731 H 261.004 2.91106 -2.61482 0
M  V30 2732 H 260.627 3.80558 -1.15157 0
M  V30 2733 N 261.624 0.925811 1.2754 0
M  V30 2734 C 262.87 0.566092 1.94739 0
M  V30 2735 C 263.203 -0.890057 1.72603 0
M  V30 2736 O 262.478 -1.63467 1.05399 0
M  V30 2737 C 262.761 0.89054 3.48915 0
M  V30 2738 C 262.614 2.4003 3.80402 0
M  V30 2739 C 263.933 0.395101 4.38323 0
M  V30 2740 H 261.052 0.20714 0.707292 0
M  V30 2741 H 263.694 1.15725 1.50691 0
M  V30 2742 H 261.844 0.387452 3.86563 0
M  V30 2743 H 263.516 2.97494 3.52555 0
M  V30 2744 H 261.759 2.85028 3.2702 0
M  V30 2745 H 262.43 2.57785 4.8811 0
M  V30 2746 H 264.906 0.826241 4.07814 0
M  V30 2747 H 263.782 0.651086 5.45025 0
M  V30 2748 H 264.043 -0.704798 4.36446 0
M  V30 2749 N 263.102 -1.41638 0.69111 0
M  V30 2750 C 264.049 -2.30789 0.0229705 0
M  V30 2751 C 265.019 -1.46863 -0.775911 0
M  V30 2752 O 266.204 -1.75661 -0.74485 0
M  V30 2753 C 263.344 -3.32868 -0.910666 0
M  V30 2754 C 262.457 -4.31875 -0.103874 0
M  V30 2755 C 261.592 -5.21024 -1.03475 0
M  V30 2756 C 260.631 -6.11702 -0.220598 0
M  V30 2757 N 259.768 -6.93349 -1.10504 0
M  V30 2758 H 264.608 -2.87366 0.788978 0
M  V30 2759 H 262.145 -1.41535 0.400794 0
M  V30 2760 H 264.103 -3.90596 -1.46597 0
M  V30 2761 H 262.733 -2.77851 -1.64312 0
M  V30 2762 H 261.785 -3.76131 0.568285 0
M  V30 2763 H 263.097 -4.96003 0.527504 0
M  V30 2764 H 262.251 -5.83565 -1.65943 0
M  V30 2765 H 260.99 -4.57112 -1.69999 0
M  V30 2766 H 259.995 -5.48215 0.417187 0
M  V30 2767 H 261.22 -6.77668 0.440784 0
M  V30 2768 H 259.166 -6.3205 -1.75638 0
M  V30 2769 H 259.083 -7.54146 -0.529125 0
M  V30 2770 H 260.351 -7.60362 -1.71667 0
M  V30 2771 N 264.58 -0.43555 -1.51462 0
M  V30 2772 C 265.528 0.391205 -2.29287 0
M  V30 2773 C 266.522 1.02247 -1.35062 0
M  V30 2774 O 267.728 0.957646 -1.52411 0
M  V30 2775 H 264.103 0.144968 -0.737895 0
M  V30 2776 H 266.074 -0.286051 -2.97026 0
M  V30 2777 C 264.823 1.48096 -3.14583 0
M  V30 2778 H 264.146 1.00457 -3.86973 0
M  V30 2779 H 265.586 2.03273 -3.72097 0
M  V30 2780 C 264.045 2.46321 -2.29843 0
M  V30 2781 O 264.575 3.50815 -1.95682 0
M  V30 2782 N 262.781 2.17166 -1.931 0
M  V30 2783 H 262.328 1.32218 -2.21079 0
M  V30 2784 H 262.286 2.83127 -1.36698 0
M  V30 2785 N 266.058 1.56714 -0.166846 0
M  V30 2786 C 267.304 1.97039 0.479962 0
M  V30 2787 C 267.637 1.05264 1.63197 0
M  V30 2788 O 266.912 0.0988833 1.94248 0
M  V30 2789 C 267.195 3.46867 0.967212 0
M  V30 2790 C 267.048 4.49421 -0.18466 0
M  V30 2791 C 268.367 3.9968 1.84238 0
M  V30 2792 H 265.486 0.71641 0.172992 0
M  V30 2793 H 268.128 1.8832 -0.252079 0
M  V30 2794 H 266.278 3.54428 1.59101 0
M  V30 2795 H 267.95 4.53924 -0.821621 0
M  V30 2796 H 266.193 4.25573 -0.840837 0
M  V30 2797 H 266.864 5.51644 0.198317 0
M  V30 2798 H 269.34 3.94723 1.31655 0
M  V30 2799 H 268.216 5.04941 2.15234 0
M  V30 2800 H 268.477 3.43226 2.78654 0
M  V30 2801 N 267.536 -0.106894 1.57237 0
M  V30 2802 C 268.785 -0.811163 1.8467 0
M  V30 2803 C 269.098 -1.80469 0.754342 0
M  V30 2804 O 270.304 -2.55601 0.915439 0
M  V30 2805 C 268.76 -1.49337 3.27454 0
M  V30 2806 C 268.368 -0.540217 4.44731 0
M  V30 2807 C 270.112 -2.18206 3.64124 0
M  V30 2808 C 268.019 -1.22634 5.78545 0
M  V30 2809 H 266.949 -0.306679 0.688813 0
M  V30 2810 H 269.6 -0.0639887 1.83388 0
M  V30 2811 H 267.982 -2.2876 3.23241 0
M  V30 2812 H 269.156 0.221659 4.60267 0
M  V30 2813 H 267.471 0.042146 4.16379 0
M  V30 2814 H 270.068 -2.70253 4.61376 0
M  V30 2815 H 270.411 -2.96562 2.92158 0
M  V30 2816 H 270.944 -1.45658 3.70174 0
M  V30 2817 H 267.683 -0.483832 6.53712 0
M  V30 2818 H 267.203 -1.95993 5.66874 0
M  V30 2819 H 268.882 -1.75615 6.2271 0
M  V30 2820 N 269.014 -1.53014 -0.377408 0
M  V30 2821 C 270.263 -1.67845 -1.11853 0
M  V30 2822 C 270.576 -0.430625 -1.90801 0
M  V30 2823 O 271.782 -0.459261 -2.67587 0
M  V30 2824 C 270.238 -2.96668 -2.03756 0
M  V30 2825 C 269.846 -4.28671 -1.30175 0
M  V30 2826 C 271.59 -3.20865 -2.77932 0
M  V30 2827 C 269.497 -5.48591 -2.20911 0
M  V30 2828 H 268.427 -0.625343 -0.421263 0
M  V30 2829 H 271.078 -1.79514 -0.380409 0
M  V30 2830 H 269.46 -2.78773 -2.8125 0
M  V30 2831 H 270.634 -4.57157 -0.578259 0
M  V30 2832 H 268.949 -4.10825 -0.679108 0
M  V30 2833 H 271.546 -4.07642 -3.46024 0
M  V30 2834 H 271.889 -2.36424 -3.4265 0
M  V30 2835 H 272.422 -3.39379 -2.07525 0
M  V30 2836 H 269.161 -6.35474 -1.6079 0
M  V30 2837 H 268.681 -5.244 -2.91144 0
M  V30 2838 H 270.36 -5.8292 -2.80736 0
M  V30 2839 N 270.492 0.636531 -1.44174 0
M  V30 2840 C 271.738 1.39649 -1.47884 0
M  V30 2841 C 272.093 1.92098 -0.107747 0
M  V30 2842 O 271.386 1.70391 0.876208 0
M  V30 2843 C 271.58 2.58309 -2.47005 0
M  V30 2844 C 271.409 2.17476 -3.93617 0
M  V30 2845 C 270.179 2.0501 -4.61843 0
M  V30 2846 C 272.377 1.76722 -4.82984 0
M  V30 2847 N 270.359 1.57683 -5.93304 0
M  V30 2848 C 271.73 1.40601 -6.03847 0
M  V30 2849 C 273.785 1.64054 -4.70096 0
M  V30 2850 C 272.488 0.930787 -7.13252 0
M  V30 2851 C 274.514 1.17937 -5.79521 0
M  V30 2852 C 273.876 0.827625 -6.99521 0
M  V30 2853 H 269.975 0.506027 -0.596205 0
M  V30 2854 H 272.559 0.730791 -1.80465 0
M  V30 2855 H 270.73 3.22514 -2.16423 0
M  V30 2856 H 272.462 3.25083 -2.41045 0
M  V30 2857 H 269.217 2.25294 -4.16581 0
M  V30 2858 H 269.641 1.36334 -6.63131 0
M  V30 2859 H 274.283 1.89882 -3.77762 0
M  V30 2860 H 272.001 0.660012 -8.054 0
M  V30 2861 H 275.587 1.08601 -5.71574 0
M  V30 2862 H 274.467 0.476231 -7.82753 0
M  V30 2863 N 271.97 1.30982 0.876444 0
M  V30 2864 C 273.218 1.20058 1.62575 0
M  V30 2865 C 273.539 -0.242947 1.93481 0
M  V30 2866 O 272.809 -1.1619 1.57724 0
M  V30 2867 H 271.389 0.44135 0.602677 0
M  V30 2868 H 274.051 1.64222 1.04962 0
M  V30 2869 H 273.147 1.76762 2.57219 0
M  V30 2870 N 273.449 -1.08991 1.13837 0
M  V30 2871 C 274.397 -2.17841 0.815347 0
M  V30 2872 C 275.391 -1.68164 -0.204233 0
M  V30 2873 O 276.597 -1.79897 -0.0609304 0
M  V30 2874 H 272.972 -0.710654 0.245915 0
M  V30 2875 H 274.943 -2.42315 1.74143 0
M  V30 2876 C 273.692 -3.46381 0.302614 0
M  V30 2877 H 273.015 -3.84979 1.0785 0
M  V30 2878 H 274.455 -4.23844 0.115074 0
M  V30 2879 C 272.914 -3.22556 -0.972591 0
M  V30 2880 O 273.444 -3.45599 -2.04754 0
M  V30 2881 N 271.65 -2.76134 -0.905455 0
M  V30 2882 H 271.197 -2.57582 -0.0305421 0
M  V30 2883 H 271.155 -2.60571 -1.75926 0
M  V30 2884 N 274.927 -0.932562 -1.27047 0
M  V30 2885 C 275.877 -0.406392 -2.24349 0
M  V30 2886 C 276.861 0.492066 -1.53191 0
M  V30 2887 O 278.053 0.328717 -1.73921 0
M  V30 2888 C 275.182 0.335214 -3.41659 0
M  V30 2889 C 274.268 -0.58004 -4.20115 0
M  V30 2890 N 274.659 -1.70203 -4.76303 0
M  V30 2891 C 272.957 -0.383974 -4.44344 0
M  V30 2892 C 273.658 -2.27167 -5.35509 0
M  V30 2893 N 272.634 -1.56068 -5.20715 0
M  V30 2894 H 276.436 -1.26299 -2.65378 0
M  V30 2895 H 273.95 -0.787408 -1.42034 0
M  V30 2896 H 275.947 0.729142 -4.10474 0
M  V30 2897 H 274.607 1.18868 -3.0216 0
M  V30 2898 H 275.618 -2.08433 -4.74106 0
M  V30 2899 H 272.295 0.428436 -4.15296 0
M  V30 2900 H 273.685 -3.21654 -5.89905 0
M  V30 2901 N 276.405 1.4127 -0.698611 0
M  V30 2902 C 277.63 2.06024 -0.238512 0
M  V30 2903 C 278.055 1.5224 1.10475 0
M  V30 2904 O 277.413 0.650623 1.69223 0
M  V30 2905 C 277.461 3.59988 -0.209952 0
M  V30 2906 O 276.565 4.04282 0.814235 0
M  V30 2907 H 275.906 0.653829 -0.115775 0
M  V30 2908 H 278.436 1.8098 -0.954326 0
M  V30 2909 H 278.446 4.07979 -0.0418436 0
M  V30 2910 H 277.121 3.98503 -1.1903 0
M  V30 2911 H 275.698 3.6779 0.615234 0
M  V30 2912 N 277.883 0.443576 1.51229 0
M  V30 2913 C 279.108 -0.121648 2.07043 0
M  V30 2914 C 279.533 -1.35156 1.30823 0
M  V30 2915 O 278.891 -1.7793 0.347934 0
M  V30 2916 C 278.939 -0.41624 3.5819 0
M  V30 2917 O 278.043 -1.50163 3.8409 0
M  V30 2918 H 277.384 0.000871367 0.663999 0
M  V30 2919 H 279.914 0.626706 1.94765 0
M  V30 2920 H 279.924 -0.664867 4.02546 0
M  V30 2921 H 278.599 0.482653 4.1309 0
M  V30 2922 H 277.176 -1.24248 3.51592 0
M  V30 2923 N 279.361 -1.56624 0.175154 0
M  V30 2924 C 280.589 -2.01374 -0.474971 0
M  V30 2925 C 281.004 -1.05537 -1.56548 0
M  V30 2926 O 280.361 -0.0568668 -1.82411 0
M  V30 2927 C 280.412 -3.45923 -1.04975 0
M  V30 2928 O 280.133 -4.381 -0.00276605 0
M  V30 2929 C 281.634 -4.06093 -1.77773 0
M  V30 2930 H 278.854 -0.659962 -0.121206 0
M  V30 2931 H 281.398 -2.02601 0.27801 0
M  V30 2932 H 279.553 -3.45458 -1.75321 0
M  V30 2933 H 279.967 -5.22753 -0.427681 0
M  V30 2934 H 281.441 -5.09147 -2.13245 0
M  V30 2935 H 281.918 -3.48405 -2.67414 0
M  V30 2936 H 282.524 -4.10272 -1.12059 0
M  V30 2937 N 280.839 0.0985539 -1.57292 0
M  V30 2938 C 281.771 1.14595 -1.98496 0
M  V30 2939 C 282.784 1.36512 -0.887031 0
M  V30 2940 O 283.973 1.35225 -1.16518 0
M  V30 2941 C 281.073 2.50216 -2.28572 0
M  V30 2942 C 280.246 2.48624 -3.59868 0
M  V30 2943 C 279.305 3.66146 -3.7792 0
M  V30 2944 O 278.331 3.48795 -4.49812 0
M  V30 2945 N 279.533 4.85496 -3.18235 0
M  V30 2946 H 282.298 0.795277 -2.88956 0
M  V30 2947 H 279.859 0.287579 -1.59325 0
M  V30 2948 H 281.851 3.27432 -2.37845 0
M  V30 2949 H 280.421 2.77387 -1.44136 0
M  V30 2950 H 279.641 1.56978 -3.61596 0
M  V30 2951 H 280.929 2.44635 -4.46129 0
M  V30 2952 H 280.327 5.02497 -2.59833 0
M  V30 2953 H 278.884 5.60317 -3.32999 0
M  V30 2954 N 282.317 1.53212 0.369288 0
M  V30 2955 C 283.547 1.72868 1.13139 0
M  V30 2956 C 283.955 0.455754 1.83629 0
M  V30 2957 O 283.298 -0.580861 1.74275 0
M  V30 2958 C 283.36 2.83667 2.20847 0
M  V30 2959 C 283.024 4.24142 1.70155 0
M  V30 2960 C 284.021 5.06619 1.16763 0
M  V30 2961 C 281.706 4.70539 1.7578 0
M  V30 2962 C 283.7 6.33581 0.696678 0
M  V30 2963 C 281.387 5.97481 1.28297 0
M  V30 2964 C 282.385 6.78833 0.753307 0
M  V30 2965 O 282.073 8.03393 0.285475 0
M  V30 2966 H 281.805 0.581707 0.344373 0
M  V30 2967 H 284.359 2.00736 0.435243 0
M  V30 2968 H 282.589 2.51265 2.93944 0
M  V30 2969 H 284.278 2.91536 2.82421 0
M  V30 2970 H 285.044 4.71948 1.11758 0
M  V30 2971 H 280.923 4.07293 2.15949 0
M  V30 2972 H 284.467 6.97027 0.282581 0
M  V30 2973 H 280.364 6.31651 1.32994 0
M  V30 2974 H 281.132 8.17497 0.405145 0
M  V30 2975 N 283.795 -0.628877 1.44509 0
M  V30 2976 C 285.206 -1.21054 1.42137 0
M  V30 2977 C 285.557 -1.95715 0.137881 0
M  V30 2978 O 284.682 -2.02554 -0.761645 0
M  V30 2979 C 285.277 -2.20189 2.57493 0
M  V30 2980 C 283.836 -2.73777 2.58308 0
M  V30 2981 C 282.983 -1.48813 2.33987 0
M  V30 2982 H 285.934 -0.41942 1.53057 0
M  V30 2983 H 285.955 -3.02833 2.30375 0
M  V30 2984 H 285.467 -1.6582 3.50892 0
M  V30 2985 H 283.568 -3.32142 1.68856 0
M  V30 2986 H 283.681 -3.19662 3.56865 0
M  V30 2987 H 282.045 -1.77024 1.83124 0
M  V30 2988 H 282.828 -0.963442 3.29504 0
M  V30 2989 N 285.273 -1.31445 -0.869486 0
M  V30 2990 C 286.55 -1.11795 -1.60503 0
M  V30 2991 C 286.93 0.327168 -2.08549 0
M  V30 2992 O 286.278 1.32135 -1.8642 0
M  V30 2993 C 286.488 -2.13258 -2.76265 0
M  V30 2994 C 287.836 -2.45805 -3.46215 0
M  V30 2995 O 288.86 -2.11688 -2.86473 0
M  V30 2996 O 287.719 -3.04228 -4.5399 0
M  V30 2997 H 284.813 -0.430421 -0.706163 0
M  V30 2998 H 287.359 -1.42925 -0.914907 0
M  V30 2999 H 286.131 -3.10461 -2.3818 0
M  V30 3000 H 285.754 -1.83035 -3.52964 0
M  V30 3001 N 286.751 1.08385 -1.14413 0
M  V30 3002 C 287.997 1.81044 -0.913834 0
M  V30 3003 C 288.33 1.86004 0.558209 0
M  V30 3004 O 287.605 1.33606 1.4135 0
M  V30 3005 C 287.888 3.26648 -1.51569 0
M  V30 3006 C 287.741 3.29895 -3.0576 0
M  V30 3007 C 289.06 4.23629 -1.19273 0
M  V30 3008 H 286.179 0.65727 -0.333414 0
M  V30 3009 H 288.821 1.26896 -1.41412 0
M  V30 3010 H 286.971 3.72889 -1.09023 0
M  V30 3011 H 288.643 2.91977 -3.57137 0
M  V30 3012 H 286.886 2.69163 -3.40197 0
M  V30 3013 H 287.557 4.32516 -3.42977 0
M  V30 3014 H 290.033 3.85727 -1.56057 0
M  V30 3015 H 288.909 5.23822 -1.64017 0
M  V30 3016 H 289.17 4.41968 -0.108068 0
M  V30 3017 N 288.23 0.939286 1.26551 0
M  V30 3018 C 289.178 0.43815 2.28436 0
M  V30 3019 C 290.172 -0.483587 1.62351 0
M  V30 3020 O 291.378 -0.362009 1.76322 0
M  V30 3021 H 287.753 0.123149 0.741848 0
M  V30 3022 H 289.724 1.31002 2.68106 0
M  V30 3023 C 288.473 -0.283052 3.46546 0
M  V30 3024 H 287.796 0.417043 3.97619 0
M  V30 3025 H 289.236 -0.597948 4.19763 0
M  V30 3026 C 287.695 -1.50018 3.01656 0
M  V30 3027 O 288.225 -2.59855 3.0633 0
M  V30 3028 N 286.431 -1.35608 2.57019 0
M  V30 3029 H 285.978 -0.46244 2.53415 0
M  V30 3030 H 285.936 -2.17165 2.27347 0
M  V30 3031 N 289.708 -1.40897 0.706093 0
M  V30 3032 C 290.658 -2.27987 0.0240746 0
M  V30 3033 C 291.642 -1.42759 -0.742204 0
M  V30 3034 O 292.834 -1.65936 -0.615966 0
M  V30 3035 C 289.963 -3.31186 -0.903907 0
M  V30 3036 C 289.049 -4.2389 -0.133318 0
M  V30 3037 N 289.44 -4.98113 0.878444 0
M  V30 3038 C 287.738 -4.44485 -0.367269 0
M  V30 3039 C 288.439 -5.6604 1.34064 0
M  V30 3040 N 287.415 -5.39522 0.664565 0
M  V30 3041 H 291.217 -2.82812 0.799658 0
M  V30 3042 H 288.731 -1.53235 0.537845 0
M  V30 3043 H 290.728 -3.92413 -1.40775 0
M  V30 3044 H 289.388 -2.77922 -1.67897 0
M  V30 3045 H 290.399 -5.02364 1.25901 0
M  V30 3046 H 287.076 -4.02213 -1.1194 0
M  V30 3047 H 288.466 -6.35524 2.1808 0
M  V30 3048 N 291.186 -0.45159 -1.50991 0
M  V30 3049 C 292.149 0.341117 -2.26647 0
M  V30 3050 C 293.149 0.937422 -1.30649 0
M  V30 3051 O 294.339 0.809644 -1.54241 0
M  V30 3052 C 291.471 1.48398 -3.06905 0
M  V30 3053 H 292.664 -0.322117 -2.98165 0
M  V30 3054 H 290.217 -0.205122 -1.54948 0
M  V30 3055 H 290.952 2.18284 -2.39838 0
M  V30 3056 H 290.737 1.06241 -3.77432 0
M  V30 3057 H 292.227 2.04367 -3.64176 0
M  V30 3058 N 292.664 1.56529 -0.183458 0
M  V30 3059 C 293.611 2.18546 0.742055 0
M  V30 3060 C 294.581 1.12912 1.2182 0
M  V30 3061 O 295.766 1.41115 1.28418 0
M  V30 3062 C 292.906 2.83977 1.96089 0
M  V30 3063 C 292.019 4.04105 1.52719 0
M  V30 3064 C 291.154 4.57427 2.70063 0
M  V30 3065 C 290.193 5.69938 2.23243 0
M  V30 3066 N 289.33 6.17717 3.33722 0
M  V30 3067 H 294.17 2.97284 0.206432 0
M  V30 3068 H 291.707 1.46823 0.0901571 0
M  V30 3069 H 293.665 3.20077 2.67594 0
M  V30 3070 H 292.295 2.07822 2.47002 0
M  V30 3071 H 291.347 3.73745 0.708436 0
M  V30 3072 H 292.659 4.85513 1.1436 0
M  V30 3073 H 291.813 4.95772 3.49708 0
M  V30 3074 H 290.552 3.75101 3.11689 0
M  V30 3075 H 289.557 5.31133 1.42048 0
M  V30 3076 H 290.782 6.54073 1.82661 0
M  V30 3077 H 288.728 5.38317 3.74902 0
M  V30 3078 H 288.645 6.94146 2.99495 0
M  V30 3079 H 289.913 6.60713 4.13616 0
M  V30 3080 N 294.142 -0.090211 1.57342 0
M  V30 3081 C 295.388 -0.793982 1.86611 0
M  V30 3082 C 295.721 -1.78142 0.773252 0
M  V30 3083 O 294.996 -1.93271 -0.218304 0
M  V30 3084 C 295.279 -1.51839 3.26523 0
M  V30 3085 C 295.132 -0.548609 4.46442 0
M  V30 3086 C 296.451 -2.46779 3.64401 0
M  V30 3087 H 293.57 -0.287186 0.678744 0
M  V30 3088 H 296.212 -0.0575076 1.89913 0
M  V30 3089 H 294.362 -2.14617 3.23839 0
M  V30 3090 H 296.034 0.0725513 4.61243 0
M  V30 3091 H 294.277 0.137614 4.33582 0
M  V30 3092 H 294.948 -1.09271 5.41076 0
M  V30 3093 H 297.424 -1.94089 3.68061 0
M  V30 3094 H 296.3 -2.94479 4.63221 0
M  V30 3095 H 296.561 -3.30758 2.93346 0
M  V30 3096 N 295.62 -1.53406 -0.361157 0
M  V30 3097 C 296.567 -1.80156 -1.44265 0
M  V30 3098 C 297.537 -0.646183 -1.53015 0
M  V30 3099 O 298.722 -0.888818 -1.68833 0
M  V30 3100 C 295.862 -2.00116 -2.81154 0
M  V30 3101 C 294.975 -3.27833 -2.81335 0
M  V30 3102 C 294.11 -3.37957 -4.09828 0
M  V30 3103 C 293.149 -4.59689 -4.04168 0
M  V30 3104 N 292.286 -4.66942 -5.24318 0
M  V30 3105 H 297.126 -2.72438 -1.20754 0
M  V30 3106 H 294.663 -1.34954 -0.585296 0
M  V30 3107 H 296.621 -2.09677 -3.60682 0
M  V30 3108 H 295.251 -1.11167 -3.03054 0
M  V30 3109 H 294.303 -3.27204 -1.94014 0
M  V30 3110 H 295.615 -4.17442 -2.73027 0
M  V30 3111 H 294.769 -3.46853 -4.97773 0
M  V30 3112 H 293.508 -2.46372 -4.20894 0
M  V30 3113 H 292.513 -4.50889 -3.14609 0
M  V30 3114 H 293.738 -5.5262 -3.947 0
M  V30 3115 H 291.684 -3.7826 -5.35962 0
M  V30 3116 H 291.601 -5.50462 -5.18197 0
M  V30 3117 H 292.869 -4.80127 -6.14084 0
M  V30 3118 N 297.098 0.621204 -1.44841 0
M  V30 3119 C 298.028 1.74366 -1.55303 0
M  V30 3120 C 299.009 1.65199 -0.405385 0
M  V30 3121 O 300.194 1.83807 -0.626787 0
M  V30 3122 C 297.324 3.12931 -1.50637 0
M  V30 3123 C 296.278 3.36896 -2.63979 0
M  V30 3124 C 295.604 4.75594 -2.44366 0
M  V30 3125 C 296.904 3.28483 -4.06074 0
M  V30 3126 H 298.598 1.65867 -2.49256 0
M  V30 3127 H 296.144 0.796558 -1.19962 0
M  V30 3128 H 298.097 3.9124 -1.56555 0
M  V30 3129 H 296.821 3.22237 -0.532057 0
M  V30 3130 H 295.48 2.60972 -2.57467 0
M  V30 3131 H 295.128 4.81616 -1.45105 0
M  V30 3132 H 294.828 4.92586 -3.20364 0
M  V30 3133 H 296.352 5.5612 -2.52117 0
M  V30 3134 H 297.766 3.96684 -4.13902 0
M  V30 3135 H 296.163 3.57008 -4.82354 0
M  V30 3136 H 297.233 2.26133 -4.28943 0
M  V30 3137 N 298.576 1.31904 0.862503 0
M  V30 3138 C 299.508 1.16005 1.97675 0
M  V30 3139 C 300.521 0.0971234 1.6251 0
M  V30 3140 O 301.71 0.345337 1.75128 0
M  V30 3141 C 298.81 0.751791 3.30456 0
M  V30 3142 C 297.983 1.90133 3.93914 0
M  V30 3143 C 297.042 1.4779 5.05019 0
M  V30 3144 O 296.068 2.18872 5.25437 0
M  V30 3145 N 297.27 0.369491 5.79323 0
M  V30 3146 H 300.035 2.11982 2.11857 0
M  V30 3147 H 297.596 1.24337 1.03691 0
M  V30 3148 H 299.588 0.451084 4.02178 0
M  V30 3149 H 298.158 -0.116593 3.12382 0
M  V30 3150 H 297.378 2.36896 3.15078 0
M  V30 3151 H 298.666 2.67111 4.33047 0
M  V30 3152 H 298.064 -0.222299 5.65263 0
M  V30 3153 H 296.621 0.128354 6.51674 0
M  V30 3154 N 300.054 -1.07777 1.14986 0
M  V30 3155 C 301.302 -1.79934 0.920235 0
M  V30 3156 C 301.623 -1.86955 -0.554336 0
M  V30 3157 O 300.893 -1.36731 -1.40291 0
M  V30 3158 H 299.473 -0.666424 0.337473 0
M  V30 3159 H 302.135 -1.3027 1.44968 0
M  V30 3160 H 301.231 -2.82539 1.32583 0
M  V30 3161 N 301.532 -0.945985 -1.26051 0
M  V30 3162 C 302.479 -0.45809 -2.26208 0
M  V30 3163 C 303.449 0.484816 -1.58867 0
M  V30 3164 O 304.634 0.399969 -1.86561 0
M  V30 3165 C 301.774 0.266131 -3.44072 0
M  V30 3166 C 300.887 -0.713005 -4.26075 0
M  V30 3167 C 300.022 0.0329013 -5.3119 0
M  V30 3168 C 299.061 -0.93774 -6.04874 0
M  V30 3169 N 298.198 -0.223274 -7.01745 0
M  V30 3170 H 303.038 -1.3171 -2.67313 0
M  V30 3171 H 300.575 -0.66069 -1.31428 0
M  V30 3172 H 302.533 0.702514 -4.11243 0
M  V30 3173 H 301.163 1.08925 -3.03867 0
M  V30 3174 H 300.215 -1.26789 -3.58648 0
M  V30 3175 H 301.527 -1.45406 -4.77136 0
M  V30 3176 H 300.681 0.528335 -6.04395 0
M  V30 3177 H 299.42 0.806801 -4.8098 0
M  V30 3178 H 298.425 -1.44425 -5.30492 0
M  V30 3179 H 299.65 -1.71172 -6.57173 0
M  V30 3180 H 297.596 0.532046 -6.53839 0
M  V30 3181 H 297.513 -0.90357 -7.50581 0
M  V30 3182 H 298.781 0.250907 -7.79096 0
M  V30 3183 N 303.011 1.40521 -0.713556 0
M  V30 3184 C 303.921 2.34522 -0.0606667 0
M  V30 3185 C 304.937 1.57193 0.74607 0
M  V30 3186 O 306.113 1.89591 0.679493 0
M  V30 3187 C 303.178 3.36081 0.851491 0
M  V30 3188 C 302.239 4.29286 0.0349339 0
M  V30 3189 C 301.472 5.25994 0.903649 0
M  V30 3190 O 301.695 5.28616 2.14292 0
M  V30 3191 O 300.629 6.00918 0.343723 0
M  V30 3192 H 304.455 2.91968 -0.835972 0
M  V30 3193 H 302.04 1.41681 -0.47402 0
M  V30 3194 H 303.922 3.98369 1.37404 0
M  V30 3195 H 302.597 2.81052 1.60598 0
M  V30 3196 H 301.504 3.70289 -0.532633 0
M  V30 3197 H 302.837 4.87462 -0.681287 0
M  V30 3198 N 304.489 0.459591 1.5075 0
M  V30 3199 C 305.735 -0.0994966 2.02556 0
M  V30 3200 C 306.068 -1.40399 1.3417 0
M  V30 3201 O 305.343 -1.88892 0.463683 0
M  V30 3202 C 305.626 -0.295242 3.58888 0
M  V30 3203 C 305.479 1.02947 4.37861 0
M  V30 3204 C 306.798 -1.05502 4.27267 0
M  V30 3205 H 303.917 -0.034686 0.736183 0
M  V30 3206 H 306.559 0.602938 1.8018 0
M  V30 3207 H 304.709 -0.893563 3.78084 0
M  V30 3208 H 306.381 1.66348 4.30263 0
M  V30 3209 H 304.624 1.62885 4.02058 0
M  V30 3210 H 305.295 0.846281 5.45474 0
M  V30 3211 H 307.771 -0.547993 4.12476 0
M  V30 3212 H 306.647 -1.16077 5.36486 0
M  V30 3213 H 306.908 -2.08875 3.89645 0
M  V30 3214 N 305.967 -1.56429 0.191757 0
M  V30 3215 C 307.215 -1.97095 -0.447006 0
M  V30 3216 C 307.536 -1.07967 -1.62383 0
M  V30 3217 O 306.806 -0.150248 -1.95323 0
M  V30 3218 H 305.386 -0.727832 -0.168135 0
M  V30 3219 H 308.048 -1.92911 0.27771 0
M  V30 3220 H 307.144 -3.01848 -0.793371 0
M  V30 3221 N 307.445 0.0818655 -1.57387 0
M  V30 3222 C 308.691 0.784074 -1.8703 0
M  V30 3223 C 309.024 1.77729 -0.782689 0
M  V30 3224 O 308.299 1.93384 0.208051 0
M  V30 3225 C 308.582 1.50105 -3.27323 0
M  V30 3226 C 308.435 0.524925 -4.46727 0
M  V30 3227 C 309.754 2.44843 -3.65705 0
M  V30 3228 H 306.873 0.283582 -0.680257 0
M  V30 3229 H 309.515 0.0474352 -1.89941 0
M  V30 3230 H 307.665 2.12897 -3.24972 0
M  V30 3231 H 309.337 -0.0970111 -4.61198 0
M  V30 3232 H 307.58 -0.160606 -4.33503 0
M  V30 3233 H 308.251 1.064 -5.41648 0
M  V30 3234 H 310.727 1.92135 -3.69085 0
M  V30 3235 H 309.603 2.92018 -4.64776 0
M  V30 3236 H 309.864 3.29197 -2.95096 0
M  V30 3237 N 308.923 1.53595 0.353017 0
M  V30 3238 C 310.153 1.74058 1.11299 0
M  V30 3239 C 310.561 0.475205 1.83135 0
M  V30 3240 O 309.904 -0.562344 1.74881 0
M  V30 3241 C 309.966 2.85994 2.17825 0
M  V30 3242 C 309.63 4.25923 1.65647 0
M  V30 3243 C 310.627 5.07829 1.11383 0
M  V30 3244 C 308.312 4.72377 1.7078 0
M  V30 3245 C 310.306 6.34285 0.629439 0
M  V30 3246 C 307.993 5.98808 1.21953 0
M  V30 3247 C 308.991 6.79594 0.681265 0
M  V30 3248 O 308.679 8.03651 0.200248 0
M  V30 3249 H 308.411 0.585327 0.338183 0
M  V30 3250 H 310.965 2.01186 0.413927 0
M  V30 3251 H 309.195 2.54368 2.91262 0
M  V30 3252 H 310.884 2.94515 2.79313 0
M  V30 3253 H 311.65 4.73107 1.06746 0
M  V30 3254 H 307.529 4.0956 2.11617 0
M  V30 3255 H 311.073 6.97288 0.208636 0
M  V30 3256 H 306.97 6.33026 1.26287 0
M  V30 3257 H 307.738 8.1788 0.318416 0
M  V30 3258 N 310.401 -0.613514 1.45168 0
M  V30 3259 C 311.311 -1.75296 1.55912 0
M  V30 3260 C 312.327 -1.68244 0.443856 0
M  V30 3261 O 313.503 -1.88706 0.70371 0
M  V30 3262 C 310.568 -3.1174 1.5172 0
M  V30 3263 C 309.629 -3.30291 2.74238 0
M  V30 3264 C 308.862 -4.60226 2.70236 0
M  V30 3265 O 309.085 -5.42168 1.77229 0
M  V30 3266 O 308.019 -4.81361 3.61352 0
M  V30 3267 H 311.845 -1.69183 2.52212 0
M  V30 3268 H 309.43 -0.776886 1.27612 0
M  V30 3269 H 311.312 -3.93044 1.51968 0
M  V30 3270 H 309.987 -3.18357 0.585697 0
M  V30 3271 H 308.894 -2.48598 2.79553 0
M  V30 3272 H 310.227 -3.28547 3.66494 0
M  V30 3273 N 311.879 -1.3236 -0.855495 0
M  V30 3274 C 312.842 -1.21164 -1.94556 0
M  V30 3275 C 313.842 -0.134908 -1.60233 0
M  V30 3276 O 315.032 -0.385249 -1.69887 0
M  V30 3277 C 312.164 -0.863192 -3.29791 0
M  V30 3278 H 313.357 -2.18038 -2.05911 0
M  V30 3279 H 310.91 -1.16179 -1.04557 0
M  V30 3280 H 311.645 0.103769 -3.24134 0
M  V30 3281 H 311.43 -1.64166 -3.56078 0
M  V30 3282 H 312.92 -0.809156 -4.09686 0
M  V30 3283 N 313.357 1.07166 -1.15556 0
M  V30 3284 C 314.287 2.16403 -0.877046 0
M  V30 3285 C 315.268 1.69217 0.173111 0
M  V30 3286 O 316.453 1.94181 0.027084 0
M  V30 3287 C 313.583 3.45349 -0.367632 0
M  V30 3288 C 312.537 4.05995 -1.35468 0
M  V30 3289 C 311.863 5.30045 -0.704038 0
M  V30 3290 C 313.163 4.45804 -2.72132 0
M  V30 3291 H 314.857 2.39959 -1.79053 0
M  V30 3292 H 312.403 1.15325 -0.862331 0
M  V30 3293 H 314.356 4.21095 -0.160317 0
M  V30 3294 H 313.08 3.21385 0.581326 0
M  V30 3295 H 311.739 3.32296 -1.54839 0
M  V30 3296 H 311.387 5.02373 0.251128 0
M  V30 3297 H 311.087 5.71579 -1.36277 0
M  V30 3298 H 312.611 6.08495 -0.50654 0
M  V30 3299 H 314.025 5.12671 -2.56595 0
M  V30 3300 H 312.422 4.98296 -3.34397 0
M  V30 3301 H 313.492 3.57083 -3.28054 0
M  V30 3302 N 314.835 0.952656 1.25548 0
M  V30 3303 C 315.782 0.47008 2.25962 0
M  V30 3304 C 316.752 -0.476384 1.59122 0
M  V30 3305 O 317.937 -0.39007 1.8677 0
M  V30 3306 C 315.077 -0.247881 3.44209 0
M  V30 3307 C 314.19 0.735591 4.25691 0
M  V30 3308 C 313.325 -0.0047306 5.312 0
M  V30 3309 C 312.364 0.969805 6.04368 0
M  V30 3310 N 311.501 0.260486 7.01617 0
M  V30 3311 H 316.341 1.33126 2.66611 0
M  V30 3312 H 313.878 0.66765 1.31076 0
M  V30 3313 H 315.836 -0.680695 4.1161 0
M  V30 3314 H 314.466 -1.07312 3.0444 0
M  V30 3315 H 313.518 1.28689 3.57971 0
M  V30 3316 H 314.83 1.47934 4.76358 0
M  V30 3317 H 313.984 -0.496275 6.04667 0
M  V30 3318 H 312.723 -0.781282 4.81401 0
M  V30 3319 H 311.728 1.47237 5.29718 0
M  V30 3320 H 312.953 1.74655 6.56256 0
M  V30 3321 H 310.899 -0.497364 6.54112 0
M  V30 3322 H 310.816 0.943362 7.50091 0
M  V30 3323 H 312.084 -0.209587 7.79218 0
M  V30 3324 N 316.313 -1.40141 0.720998 0
M  V30 3325 C 317.59 -1.94677 0.189757 0
M  V30 3326 C 317.97 -1.65879 -1.30566 0
M  V30 3327 O 317.318 -0.979391 -2.06447 0
M  V30 3328 C 317.528 -3.45279 0.508304 0
M  V30 3329 C 318.876 -4.22209 0.449934 0
M  V30 3330 O 319.9 -3.53413 0.444677 0
M  V30 3331 O 318.759 -5.44788 0.432189 0
M  V30 3332 H 315.853 -0.826459 0.0299026 0
M  V30 3333 H 318.399 -1.49719 0.7989 0
M  V30 3334 H 317.171 -3.59619 1.54239 0
M  V30 3335 H 316.794 -3.97386 -0.130525 0
M  V30 3336 N 317.792 -0.46758 -1.50504 0
M  V30 3337 C 319.069 0.15003 -1.95024 0
M  V30 3338 C 319.449 1.57304 -1.40779 0
M  V30 3339 O 318.797 2.20281 -0.607319 0
M  V30 3340 C 319.007 0.0969324 -3.48865 0
M  V30 3341 C 320.355 0.287565 -4.23625 0
M  V30 3342 O 321.379 0.173678 -3.55776 0
M  V30 3343 O 320.238 0.517186 -5.44047 0
M  V30 3344 H 317.332 0.113582 -0.819163 0
M  V30 3345 H 319.878 -0.52773 -1.61286 0
M  V30 3346 H 318.65 -0.896732 -3.80886 0
M  V30 3347 H 318.273 0.816303 -3.8913 0
M  V30 3348 N 319.27 1.56325 -0.20005 0
M  V30 3349 C 320.495 2.02548 0.44597 0
M  V30 3350 C 320.92 1.07922 1.5406 0
M  V30 3351 O 320.278 0.0635775 1.81188 0
M  V30 3352 C 320.326 3.47175 0.974761 0
M  V30 3353 O 319.43 3.55671 2.08739 0
M  V30 3354 H 318.771 0.655862 0.103638 0
M  V30 3355 H 321.301 2.02201 -0.312381 0
M  V30 3356 H 321.311 3.87067 1.2901 0
M  V30 3357 H 319.986 4.15538 0.17347 0
M  V30 3358 H 318.563 3.27657 1.78032 0
M  V30 3359 N 320.748 -0.0735177 1.57428 0
M  V30 3360 C 321.994 -0.768909 1.88307 0
M  V30 3361 C 322.349 -1.75273 0.793535 0
M  V30 3362 O 321.642 -1.90527 -0.202466 0
M  V30 3363 C 321.836 -1.51799 3.23561 0
M  V30 3364 C 321.665 -0.608217 4.45568 0
M  V30 3365 C 320.435 -0.245808 5.04702 0
M  V30 3366 C 322.633 0.0942904 5.14214 0
M  V30 3367 N 320.615 0.66987 6.10234 0
M  V30 3368 C 321.986 0.867222 6.13905 0
M  V30 3369 C 324.041 0.165943 4.97623 0
M  V30 3370 C 322.744 1.70515 6.98797 0
M  V30 3371 C 324.77 0.990837 5.83041 0
M  V30 3372 C 324.132 1.75182 6.82269 0
M  V30 3373 H 320.231 -0.25685 0.738615 0
M  V30 3374 H 322.815 -0.030499 1.94676 0
M  V30 3375 H 320.986 -2.22713 3.18203 0
M  V30 3376 H 322.718 -2.16226 3.42094 0
M  V30 3377 H 319.473 -0.598284 4.69806 0
M  V30 3378 H 319.897 1.1209 6.67656 0
M  V30 3379 H 324.539 -0.408064 4.20826 0
M  V30 3380 H 322.257 2.29013 7.7497 0
M  V30 3381 H 325.843 1.04923 5.72261 0
M  V30 3382 H 324.723 2.37983 7.47217 0
M  V30 3383 N 322.226 -1.5378 -0.344866 0
M  V30 3384 C 323.156 -1.84662 -1.42906 0
M  V30 3385 C 324.137 -0.701648 -1.54955 0
M  V30 3386 O 325.322 -0.953438 -1.69184 0
M  V30 3387 C 322.452 -2.05503 -2.79974 0
M  V30 3388 C 321.406 -3.21318 -2.82734 0
M  V30 3389 C 320.732 -3.2749 -4.22675 0
M  V30 3390 C 322.032 -4.59456 -2.48389 0
M  V30 3391 H 323.726 -2.75461 -1.17311 0
M  V30 3392 H 321.272 -1.32542 -0.562896 0
M  V30 3393 H 323.225 -2.25691 -3.55867 0
M  V30 3394 H 321.949 -1.11434 -3.07002 0
M  V30 3395 H 320.608 -3.00984 -2.09294 0
M  V30 3396 H 320.256 -2.31019 -4.4681 0
M  V30 3397 H 319.956 -4.05316 -4.25433 0
M  V30 3398 H 321.48 -3.49887 -5.00412 0
M  V30 3399 H 322.894 -4.79667 -3.13995 0
M  V30 3400 H 321.291 -5.39675 -2.62432 0
M  V30 3401 H 322.361 -4.63155 -1.4358 0
M  V30 3402 N 323.704 0.605807 -1.45491 0
M  V30 3403 C 324.651 1.7164 -1.54299 0
M  V30 3404 C 325.621 1.61486 -0.388761 0
M  V30 3405 O 326.806 1.81039 -0.602445 0
M  V30 3406 C 323.946 3.09953 -1.51734 0
M  V30 3407 C 323.059 3.309 -2.77721 0
M  V30 3408 C 322.194 4.59329 -2.66816 0
M  V30 3409 C 321.233 4.7354 -3.87848 0
M  V30 3410 N 320.37 5.9327 -3.75467 0
M  V30 3411 H 325.21 1.63449 -2.49176 0
M  V30 3412 H 322.747 0.796957 -1.23641 0
M  V30 3413 H 324.705 3.89977 -1.48235 0
M  V30 3414 H 323.335 3.17098 -0.604068 0
M  V30 3415 H 322.387 2.44639 -2.913 0
M  V30 3416 H 323.699 3.37274 -3.67488 0
M  V30 3417 H 322.853 5.4755 -2.61292 0
M  V30 3418 H 321.592 4.55355 -1.74651 0
M  V30 3419 H 320.597 3.83741 -3.93729 0
M  V30 3420 H 321.822 4.79309 -4.81082 0
M  V30 3421 H 319.768 5.90338 -2.86072 0
M  V30 3422 H 319.685 6.00811 -4.5887 0
M  V30 3423 H 320.953 6.83984 -3.73879 0
M  V30 3424 N 325.182 1.32811 0.848464 0
M  V30 3425 C 326.43 1.23479 1.59991 0
M  V30 3426 C 326.751 -0.201853 1.93952 0
M  V30 3427 O 326.021 -1.12818 1.60153 0
M  V30 3428 H 324.601 0.454034 0.593179 0
M  V30 3429 H 327.263 1.66412 1.01455 0
M  V30 3430 H 326.359 1.82178 2.53412 0
M  V30 3431 N 326.66 -1.06551 1.16123 0
M  V30 3432 C 327.57 -2.17484 0.879662 0
M  V30 3433 C 328.586 -1.73377 -0.147104 0
M  V30 3434 O 329.762 -2.01379 0.0289128 0
M  V30 3435 C 326.827 -3.44591 0.381829 0
M  V30 3436 C 325.888 -4.0322 1.4735 0
M  V30 3437 C 325.121 -5.24261 0.999324 0
M  V30 3438 O 325.344 -5.70198 -0.151957 0
M  V30 3439 O 324.278 -5.74775 1.78653 0
M  V30 3440 H 328.104 -2.44075 1.80724 0
M  V30 3441 H 325.689 -1.16042 0.940992 0
M  V30 3442 H 327.571 -4.21254 0.111053 0
M  V30 3443 H 326.246 -3.19532 -0.51777 0
M  V30 3444 H 325.153 -3.2806 1.79798 0
M  V30 3445 H 326.486 -4.32568 2.34831 0
M  V30 3446 N 328.138 -0.959301 -1.25041 0
M  V30 3447 C 329.385 -0.616611 -1.92884 0
M  V30 3448 C 329.713 0.847036 -1.75087 0
M  V30 3449 O 328.968 1.62374 -1.09239 0
M  V30 3450 C 329.267 -0.927136 -3.45165 0
M  V30 3451 C 328.933 -2.37757 -3.83122 0
M  V30 3452 C 327.595 -2.77402 -3.93194 0
M  V30 3453 C 329.947 -3.31929 -4.01836 0
M  V30 3454 C 327.275 -4.10277 -4.19392 0
M  V30 3455 C 329.627 -4.64423 -4.29528 0
M  V30 3456 C 328.291 -5.03857 -4.37818 0
M  V30 3457 H 327.561 -0.225634 -0.705812 0
M  V30 3458 H 330.208 -1.20921 -1.48493 0
M  V30 3459 H 328.513 -0.252195 -3.90987 0
M  V30 3460 H 330.21 -0.6405 -3.95852 0
M  V30 3461 H 326.8 -2.06013 -3.75841 0
M  V30 3462 H 330.984 -3.02488 -3.93465 0
M  V30 3463 H 326.24 -4.40467 -4.24027 0
M  V30 3464 H 330.414 -5.37369 -4.42953 0
M  V30 3465 H 328.041 -6.06843 -4.57871 0
M  V30 3466 N 329.616 1.39756 -0.72842 0
M  V30 3467 C 330.862 2.00942 -0.273892 0
M  V30 3468 C 331.195 1.57656 1.13394 0
M  V30 3469 O 330.47 0.802434 1.77176 0
M  V30 3470 C 330.753 3.58211 -0.368346 0
M  V30 3471 C 330.606 4.11534 -1.81548 0
M  V30 3472 C 331.925 4.39372 0.253054 0
M  V30 3473 H 329.044 0.730047 -0.100996 0
M  V30 3474 H 331.686 1.66056 -0.923337 0
M  V30 3475 H 329.836 3.88061 0.184588 0
M  V30 3476 H 331.508 3.92431 -2.42478 0
M  V30 3477 H 329.751 3.65341 -2.33898 0
M  V30 3478 H 330.422 5.20682 -1.83288 0
M  V30 3479 H 332.898 4.15527 -0.218224 0
M  V30 3480 H 331.774 5.48677 0.156585 0
M  V30 3481 H 332.035 4.21358 1.33826 0
M  V30 3482 N 331.094 0.475555 1.50254 0
M  V30 3483 C 332.322 -0.0754493 2.06762 0
M  V30 3484 C 332.737 -1.33111 1.33891 0
M  V30 3485 O 332.094 -1.77846 0.40952 0
M  V30 3486 C 332.145 -0.359008 3.59713 0
M  V30 3487 O 331.866 0.846851 4.29837 0
M  V30 3488 C 333.367 -0.956484 4.32858 0
M  V30 3489 H 330.587 0.00907525 0.670939 0
M  V30 3490 H 333.131 0.665618 1.93364 0
M  V30 3491 H 331.286 -1.05001 3.72899 0
M  V30 3492 H 331.7 0.594162 5.21124 0
M  V30 3493 H 333.174 -1.10463 5.40834 0
M  V30 3494 H 333.651 -1.94775 3.93649 0
M  V30 3495 H 334.257 -0.303723 4.24214 0
M  V30 3496 N 332.573 -1.56217 0.208337 0
M  V30 3497 C 333.801 -2.02337 -0.43215 0
M  V30 3498 C 334.216 -1.08834 -1.54275 0
M  V30 3499 O 333.573 -0.0955462 -1.8225 0
M  V30 3500 C 333.624 -3.48072 -0.976138 0
M  V30 3501 O 333.345 -4.38007 0.0901621 0
M  V30 3502 C 334.846 -4.09773 -1.69119 0
M  V30 3503 H 332.066 -0.662385 -0.10718 0
M  V30 3504 H 334.61 -2.01966 0.320923 0
M  V30 3505 H 332.765 -3.49099 -1.67954 0
M  V30 3506 H 333.179 -5.23543 -0.316701 0
M  V30 3507 H 334.653 -5.13556 -2.02397 0
M  V30 3508 H 335.13 -3.53999 -2.59964 0
M  V30 3509 H 335.736 -4.12556 -1.03332 0
M  V30 3510 N 334.051 0.0651679 -1.57465 0
M  V30 3511 C 335.297 0.764193 -1.87851 0
M  V30 3512 C 335.63 1.76889 -0.801495 0
M  V30 3513 O 334.905 1.93594 0.187528 0
M  V30 3514 C 335.188 1.46625 -3.28897 0
M  V30 3515 C 335.041 0.477515 -4.47258 0
M  V30 3516 C 336.36 2.4095 -3.68281 0
M  V30 3517 H 333.479 0.276351 -0.683227 0
M  V30 3518 H 336.121 0.0272868 -1.8998 0
M  V30 3519 H 334.271 2.09438 -3.27212 0
M  V30 3520 H 335.943 -0.145922 -4.61069 0
M  V30 3521 H 334.186 -0.206576 -4.33308 0
M  V30 3522 H 334.857 1.0065 -5.42746 0
M  V30 3523 H 337.333 1.88209 -3.71102 0
M  V30 3524 H 336.209 2.87072 -4.67847 0
M  V30 3525 H 336.47 3.26049 -2.98571 0
M  V30 3526 N 335.529 1.53961 0.336706 0
M  V30 3527 C 336.461 1.78751 1.4346 0
M  V30 3528 C 337.474 0.669019 1.48418 0
M  V30 3529 O 338.663 0.945884 1.51378 0
M  V30 3530 C 335.763 1.87844 2.82078 0
M  V30 3531 C 334.936 3.17854 3.00479 0
M  V30 3532 C 333.995 3.17816 4.19379 0
M  V30 3533 O 333.021 3.91511 4.13168 0
M  V30 3534 N 334.223 2.40669 5.2826 0
M  V30 3535 H 336.988 2.73493 1.22563 0
M  V30 3536 H 334.549 1.53096 0.526625 0
M  V30 3537 H 336.541 1.85261 3.59806 0
M  V30 3538 H 335.111 1.00257 2.96086 0
M  V30 3539 H 334.331 3.33504 2.10163 0
M  V30 3540 H 335.619 4.03718 3.0966 0
M  V30 3541 H 335.017 1.8036 5.36178 0
M  V30 3542 H 333.574 2.43877 6.04456 0
M  V30 3543 N 337.007 -0.598083 1.45811 0
M  V30 3544 C 337.939 -1.72231 1.51225 0
M  V30 3545 C 338.952 -1.57757 0.402059 0
M  V30 3546 O 340.141 -1.65464 0.669624 0
M  V30 3547 C 337.241 -3.10331 1.3619 0
M  V30 3548 C 336.414 -3.50955 2.61054 0
M  V30 3549 C 335.473 -4.68055 2.40439 0
M  V30 3550 O 334.499 -4.74691 3.14097 0
M  V30 3551 N 335.701 -5.61941 1.45612 0
M  V30 3552 H 338.466 -1.68046 2.48154 0
M  V30 3553 H 336.027 -0.783637 1.41671 0
M  V30 3554 H 338.019 -3.86439 1.20195 0
M  V30 3555 H 336.589 -3.0897 0.475015 0
M  V30 3556 H 335.809 -2.64711 2.92099 0
M  V30 3557 H 337.097 -3.74858 3.44034 0
M  V30 3558 H 336.495 -5.59301 0.848431 0
M  V30 3559 H 335.052 -6.37542 1.35585 0
M  V30 3560 N 338.485 -1.33259 -0.841409 0
M  V30 3561 C 339.901 -1.12538 -1.13169 0
M  V30 3562 C 340.101 0.0854037 -2.01319 0
M  V30 3563 O 339.157 0.766417 -2.40587 0
M  V30 3564 C 340.47 -2.41156 -1.79623 0
M  V30 3565 C 342.018 -2.47038 -1.922 0
M  V30 3566 C 342.493 -3.7561 -2.6207 0
M  V30 3567 N 343.984 -3.76667 -2.69585 0
M  V30 3568 C 344.719 -4.72861 -3.2433 0
M  V30 3569 N 344.215 -5.79428 -3.79783 0
M  V30 3570 N 346.008 -4.6034 -3.22558 0
M  V30 3571 H 338.159 -2.10868 -0.254676 0
M  V30 3572 H 340.422 -0.931615 -0.175493 0
M  V30 3573 H 340.128 -3.29747 -1.22311 0
M  V30 3574 H 340.002 -2.53114 -2.79666 0
M  V30 3575 H 342.389 -1.58898 -2.48667 0
M  V30 3576 H 342.47 -2.39022 -0.911148 0
M  V30 3577 H 342.114 -4.64131 -2.06263 0
M  V30 3578 H 342.044 -3.80902 -3.63622 0
M  V30 3579 H 344.535 -2.99648 -2.30259 0
M  V30 3580 H 344.848 -6.48867 -4.19752 0
M  V30 3581 H 343.193 -5.83166 -3.78078 0
M  V30 3582 H 346.384 -3.76244 -2.78492 0
M  V30 3583 H 346.557 -5.35478 -3.64921 0
M  V30 3584 N 339.963 1.05934 -1.16686 0
M  V30 3585 C 341.211 1.78447 -0.948744 0
M  V30 3586 C 341.532 1.87813 0.524523 0
M  V30 3587 O 340.802 1.38945 1.38098 0
M  V30 3588 H 339.382 0.660971 -0.348033 0
M  V30 3589 H 342.044 1.27947 -1.47022 0
M  V30 3590 H 341.14 2.80394 -1.37061 0
M  V30 3591 N 341.441 0.965919 1.2453 0
M  V30 3592 C 342.404 0.499547 2.2369 0
M  V30 3593 C 343.404 -0.40294 1.5567 0
M  V30 3594 O 344.594 -0.19865 1.73064 0
M  V30 3595 C 341.726 -0.276792 3.39774 0
M  V30 3596 H 342.919 1.37613 2.66463 0
M  V30 3597 H 340.472 0.750324 1.37112 0
M  V30 3598 H 341.207 -1.17055 3.02438 0
M  V30 3599 H 340.992 0.370826 3.90343 0
M  V30 3600 H 342.482 -0.592175 4.1338 0
M  V30 3601 N 342.919 -1.39368 0.735821 0
M  V30 3602 C 343.882 -2.2896 0.104874 0
M  V30 3603 C 344.882 -1.46347 -0.666274 0
M  V30 3604 O 346.072 -1.67014 -0.49517 0
M  V30 3605 C 343.204 -3.29857 -0.860656 0
M  V30 3606 H 344.397 -2.86259 0.894205 0
M  V30 3607 H 341.95 -1.48029 0.501704 0
M  V30 3608 H 342.685 -2.77615 -1.67631 0
M  V30 3609 H 342.47 -3.9087 -0.310327 0
M  V30 3610 H 343.96 -3.96893 -1.29867 0
M  V30 3611 N 344.397 -0.483516 -1.5 0
M  V30 3612 C 345.643 0.0672592 -2.02688 0
M  V30 3613 C 345.976 1.38247 -1.36387 0
M  V30 3614 O 345.251 1.88131 -0.493675 0
M  V30 3615 C 345.534 0.238109 -3.59312 0
M  V30 3616 C 345.387 -1.099 -4.36168 0
M  V30 3617 C 346.706 0.986916 -4.28892 0
M  V30 3618 H 343.825 0.0229696 -0.736642 0
M  V30 3619 H 346.467 -0.631527 -1.79197 0
M  V30 3620 H 344.617 0.8333 -3.79458 0
M  V30 3621 H 346.289 -1.73172 -4.27562 0
M  V30 3622 H 344.532 -1.69261 -3.99416 0
M  V30 3623 H 345.203 -0.932954 -5.44059 0
M  V30 3624 H 347.679 0.482302 -4.13295 0
M  V30 3625 H 346.555 1.07527 -5.38265 0
M  V30 3626 H 346.816 2.0265 -3.92919 0
M  V30 3627 N 345.875 1.56104 -0.216619 0
M  V30 3628 C 347.124 1.97348 0.416744 0
M  V30 3629 C 347.437 1.10715 1.6125 0
M  V30 3630 O 348.643 1.41836 2.31506 0
M  V30 3631 C 347.099 3.51059 0.792835 0
M  V30 3632 C 346.707 4.46387 -0.379828 0
M  V30 3633 C 348.451 4.01026 1.39208 0
M  V30 3634 C 346.358 5.91397 0.0184223 0
M  V30 3635 H 345.288 0.736942 0.159475 0
M  V30 3636 H 347.939 1.80827 -0.31205 0
M  V30 3637 H 346.321 3.63162 1.57891 0
M  V30 3638 H 347.495 4.46029 -1.15737 0
M  V30 3639 H 345.81 4.06734 -0.891979 0
M  V30 3640 H 348.407 5.0686 1.70286 0
M  V30 3641 H 348.75 3.46587 2.30614 0
M  V30 3642 H 349.283 3.92125 0.669537 0
M  V30 3643 H 346.022 6.49807 -0.862002 0
M  V30 3644 H 345.542 5.94961 0.760384 0
M  V30 3645 H 347.221 6.45455 0.446818 0
M  V30 3646 N 347.353 -0.0568162 1.57498 0
M  V30 3647 C 348.3 -1.06591 2.04712 0
M  V30 3648 C 349.27 -1.3758 0.930644 0
M  V30 3649 O 350.455 -1.48392 1.19935 0
M  V30 3650 C 347.595 -2.3701 2.50839 0
M  V30 3651 C 346.708 -2.12421 3.76167 0
M  V30 3652 C 345.843 -3.36511 4.11015 0
M  V30 3653 C 344.882 -3.07353 5.2934 0
M  V30 3654 N 344.019 -4.23816 5.59754 0
M  V30 3655 H 348.859 -0.65631 2.90683 0
M  V30 3656 H 346.396 -0.312481 1.43743 0
M  V30 3657 H 348.354 -3.13175 2.7564 0
M  V30 3658 H 346.984 -2.75744 1.67825 0
M  V30 3659 H 346.036 -1.2688 3.58616 0
M  V30 3660 H 347.348 -1.86894 4.62463 0
M  V30 3661 H 346.502 -4.21062 4.36797 0
M  V30 3662 H 345.241 -3.65128 3.23315 0
M  V30 3663 H 344.246 -2.212 5.03339 0
M  V30 3664 H 345.471 -2.80043 6.1867 0
M  V30 3665 H 343.417 -4.52436 4.75014 0
M  V30 3666 H 343.334 -4.01614 6.40501 0
M  V30 3667 H 344.602 -5.0932 5.90096 0
M  V30 3668 N 348.832 -1.54138 -0.328536 0
M  V30 3669 C 349.795 -1.82462 -1.38709 0
M  V30 3670 C 350.795 -0.696229 -1.44946 0
M  V30 3671 O 351.985 -0.964535 -1.4506 0
M  V30 3672 C 349.117 -1.98018 -2.77492 0
M  V30 3673 H 350.31 -2.77037 -1.14851 0
M  V30 3674 H 347.863 -1.45779 -0.563751 0
M  V30 3675 H 348.598 -1.05637 -3.06613 0
M  V30 3676 H 348.383 -2.80124 -2.74359 0
M  V30 3677 H 349.873 -2.21396 -3.54081 0
M  V30 3678 N 350.31 0.590341 -1.46126 0
M  V30 3679 C 351.726 0.912917 -1.30912 0
M  V30 3680 C 351.926 1.99616 -0.274893 0
M  V30 3681 O 350.982 2.50397 0.325197 0
M  V30 3682 C 352.295 1.3375 -2.69317 0
M  V30 3683 C 353.843 1.45077 -2.77348 0
M  V30 3684 C 354.318 1.90904 -4.16317 0
M  V30 3685 N 355.809 1.9811 -4.18696 0
M  V30 3686 C 356.544 2.34828 -5.23109 0
M  V30 3687 N 356.04 2.70393 -6.37856 0
M  V30 3688 N 357.833 2.35317 -5.10473 0
M  V30 3689 H 349.984 -0.125358 -2.1203 0
M  V30 3690 H 352.247 0.00658481 -0.947977 0
M  V30 3691 H 351.953 0.615614 -3.4627 0
M  V30 3692 H 351.827 2.30058 -2.9892 0
M  V30 3693 H 354.214 2.16353 -2.00687 0
M  V30 3694 H 354.295 0.4704 -2.51438 0
M  V30 3695 H 353.939 1.20209 -4.9347 0
M  V30 3696 H 353.869 2.89886 -4.39629 0
M  V30 3697 H 356.36 1.73146 -3.359 0
M  V30 3698 H 356.673 2.97341 -7.13308 0
M  V30 3699 H 355.018 2.68048 -6.41229 0
M  V30 3700 H 358.209 2.0695 -4.19868 0
M  V30 3701 H 358.382 2.63605 -5.9196 0
M  V30 3702 N 351.788 1.33704 0.83433 0
M  V30 3703 C 352.735 1.24335 1.94447 0
M  V30 3704 C 353.705 0.120991 1.65659 0
M  V30 3705 O 354.89 0.300035 1.88426 0
M  V30 3706 C 352.03 0.993124 3.30501 0
M  V30 3707 C 351.143 2.20217 3.71657 0
M  V30 3708 C 350.278 1.88572 4.96602 0
M  V30 3709 C 349.317 3.05683 5.30306 0
M  V30 3710 N 348.454 2.73997 6.46429 0
M  V30 3711 H 353.294 2.1928 2.01792 0
M  V30 3712 H 350.831 1.09035 0.987404 0
M  V30 3713 H 352.789 0.828467 4.08892 0
M  V30 3714 H 351.419 0.0803902 3.227 0
M  V30 3715 H 350.471 2.47642 2.88752 0
M  V30 3716 H 351.783 3.07752 3.92543 0
M  V30 3717 H 350.937 1.68776 5.82752 0
M  V30 3718 H 349.676 0.982799 4.77695 0
M  V30 3719 H 348.681 3.26088 4.42659 0
M  V30 3720 H 349.906 3.96737 5.51159 0
M  V30 3721 H 347.852 1.86268 6.28999 0
M  V30 3722 H 347.769 3.55064 6.67432 0
M  V30 3723 H 349.037 2.57679 7.35678 0
M  V30 3724 N 353.266 -1.05314 1.17247 0
M  V30 3725 C 354.196 -2.1498 0.911362 0
M  V30 3726 C 355.177 -1.69471 -0.146169 0
M  V30 3727 O 356.362 -1.942 0.003812 0
M  V30 3728 C 353.492 -3.4472 0.422528 0
M  V30 3729 C 352.446 -4.03789 1.4191 0
M  V30 3730 C 351.772 -5.28858 0.788274 0
M  V30 3731 C 353.072 -4.41418 2.7919 0
M  V30 3732 H 354.766 -2.3708 1.82848 0
M  V30 3733 H 352.312 -1.13938 0.880569 0
M  V30 3734 H 354.265 -4.20787 0.227289 0
M  V30 3735 H 352.989 -3.22269 -0.530123 0
M  V30 3736 H 351.648 -3.2979 1.60106 0
M  V30 3737 H 351.296 -5.02709 -0.171173 0
M  V30 3738 H 350.996 -5.69338 1.45353 0
M  V30 3739 H 352.52 -6.07612 0.603282 0
M  V30 3740 H 353.934 -5.08524 2.64719 0
M  V30 3741 H 352.331 -4.92913 3.42282 0
M  V30 3742 H 353.401 -3.51819 3.33693 0
M  V30 3743 N 354.744 -0.972509 -1.24016 0
M  V30 3744 C 355.969 -0.654417 -1.96805 0
M  V30 3745 C 356.394 0.770398 -1.716 0
M  V30 3746 O 355.752 1.52361 -0.982647 0
M  V30 3747 C 355.8 -0.941031 -3.48105 0
M  V30 3748 O 354.904 -0.0289472 -4.1239 0
M  V30 3749 H 354.245 -0.24692 -0.616382 0
M  V30 3750 H 356.775 -1.30396 -1.57664 0
M  V30 3751 H 356.785 -0.87452 -3.98517 0
M  V30 3752 H 355.46 -1.97939 -3.65777 0
M  V30 3753 H 354.037 -0.149192 -3.72601 0
M  V30 3754 N 356.222 1.38976 -0.743202 0
M  V30 3755 C 357.447 2.05161 -0.303936 0
M  V30 3756 C 357.872 1.55677 1.05576 0
M  V30 3757 O 357.23 0.704131 1.67068 0
M  V30 3758 C 357.278 3.59138 -0.324373 0
M  V30 3759 O 356.382 4.06668 0.685204 0
M  V30 3760 H 355.723 0.649815 -0.136518 0
M  V30 3761 H 358.253 1.77852 -1.01142 0
M  V30 3762 H 358.263 4.07639 -0.171618 0
M  V30 3763 H 356.938 3.94515 -1.31647 0
M  V30 3764 H 355.515 3.69561 0.497913 0
M  V30 3765 N 357.7 0.491464 1.49741 0
M  V30 3766 C 358.663 -0.280906 2.27472 0
M  V30 3767 C 359.663 -0.902454 1.33088 0
M  V30 3768 O 360.853 -0.768465 1.56334 0
M  V30 3769 C 357.985 -1.40209 3.10732 0
M  V30 3770 H 359.178 0.401056 2.97206 0
M  V30 3771 H 356.731 0.246131 1.5435 0
M  V30 3772 H 357.466 -2.11849 2.45541 0
M  V30 3773 H 357.251 -0.961969 3.80117 0
M  V30 3774 H 358.741 -1.9464 3.69466 0
M  V30 3775 N 359.178 -1.55987 0.224894 0
M  V30 3776 C 360.111 -2.16413 -0.723929 0
M  V30 3777 C 361.089 -1.10952 -1.18863 0
M  V30 3778 O 362.273 -1.39225 -1.27077 0
M  V30 3779 C 359.4 -2.74711 -1.98121 0
M  V30 3780 C 358.446 -3.9303 -1.6562 0
M  V30 3781 S 359.279 -5.29817 -0.778058 0
M  V30 3782 C 360.435 -5.91555 -2.04483 0
M  V30 3783 H 360.668 -2.96555 -0.210347 0
M  V30 3784 H 358.201 -1.54397 0.00955457 0
M  V30 3785 H 360.159 -3.08938 -2.70311 0
M  V30 3786 H 358.82 -1.94555 -2.46591 0
M  V30 3787 H 358.013 -4.32334 -2.59043 0
M  V30 3788 H 357.615 -3.59966 -1.01491 0
M  V30 3789 H 359.907 -6.07732 -2.99446 0
M  V30 3790 H 360.85 -6.87498 -1.69563 0
M  V30 3791 H 361.258 -5.20419 -2.18688 0
M  V30 3792 N 360.656 0.0484629 -1.57525 0
M  V30 3793 C 361.881 0.759177 -1.93006 0
M  V30 3794 C 362.306 1.69125 -0.823317 0
M  V30 3795 O 361.664 1.79931 0.222364 0
M  V30 3796 C 361.712 1.50899 -3.27509 0
M  V30 3797 O 360.816 2.62112 -3.18388 0
M  V30 3798 H 360.157 0.205564 -0.631379 0
M  V30 3799 H 362.687 0.00972959 -2.04598 0
M  V30 3800 H 362.697 1.88317 -3.6194 0
M  V30 3801 H 361.372 0.825269 -4.0763 0
M  V30 3802 H 359.949 2.27379 -2.95556 0
M  V30 3803 N 362.134 1.5431 0.320358 0
M  V30 3804 C 363.097 1.83195 1.3774 0
M  V30 3805 C 364.097 0.703906 1.44575 0
M  V30 3806 O 365.287 0.972214 1.44546 0
M  V30 3807 C 362.419 1.99487 2.76438 0
M  V30 3808 H 363.612 2.77642 1.1338 0
M  V30 3809 H 361.165 1.46076 0.556012 0
M  V30 3810 H 361.9 1.07262 3.06048 0
M  V30 3811 H 361.685 2.81575 2.7287 0
M  V30 3812 H 363.175 2.23271 3.52902 0
M  V30 3813 N 363.613 -0.582584 1.46437 0
M  V30 3814 C 364.576 -1.67366 1.56592 0
M  V30 3815 C 365.576 -1.54575 0.443072 0
M  V30 3816 O 366.766 -1.59191 0.707381 0
M  V30 3817 C 363.898 -3.06791 1.48634 0
M  V30 3818 H 365.091 -1.5972 2.5383 0
M  V30 3819 H 362.644 -0.800432 1.34249 0
M  V30 3820 H 363.379 -3.19993 0.526763 0
M  V30 3821 H 363.164 -3.17484 2.30101 0
M  V30 3822 H 364.654 -3.86218 1.58826 0
M  V30 3823 N 365.091 -1.34144 -0.827227 0
M  V30 3824 C 366.038 -1.25364 -1.93785 0
M  V30 3825 C 367.008 -0.129774 -1.65592 0
M  V30 3826 O 368.193 -0.310024 -1.88264 0
M  V30 3827 C 365.333 -1.01064 -3.2997 0
M  V30 3828 C 364.446 -2.22185 -3.70484 0
M  V30 3829 C 363.581 -1.91203 -4.95595 0
M  V30 3830 C 362.62 -3.08491 -5.28677 0
M  V30 3831 N 361.757 -2.77421 -6.44967 0
M  V30 3832 H 366.597 -2.20347 -2.00627 0
M  V30 3833 H 364.134 -1.09558 -0.981608 0
M  V30 3834 H 366.092 -0.850139 -4.08446 0
M  V30 3835 H 364.722 -0.0975026 -3.22653 0
M  V30 3836 H 363.774 -2.4917 -2.87434 0
M  V30 3837 H 365.086 -3.0983 -3.90905 0
M  V30 3838 H 364.24 -1.71864 -5.81848 0
M  V30 3839 H 362.979 -1.00812 -4.77167 0
M  V30 3840 H 361.984 -3.28431 -4.40923 0
M  V30 3841 H 363.209 -3.99655 -5.49047 0
M  V30 3842 H 361.155 -1.89601 -6.28003 0
M  V30 3843 H 361.072 -3.58598 -6.6554 0
M  V30 3844 H 362.34 -2.61577 -7.34301 0
M  V30 3845 N 366.569 1.04691 -1.17803 0
M  V30 3846 C 367.532 2.10724 -0.901545 0
M  V30 3847 C 368.532 1.6042 0.110437 0
M  V30 3848 O 369.722 1.7377 -0.122303 0
M  V30 3849 C 366.854 3.39084 -0.351409 0
M  V30 3850 H 368.047 2.36686 -1.84174 0
M  V30 3851 H 365.6 1.21015 -0.98919 0
M  V30 3852 H 366.335 3.18782 0.59569 0
M  V30 3853 H 366.12 3.76909 -1.08083 0
M  V30 3854 H 367.61 4.17227 -0.176451 0
M  V30 3855 N 368.047 0.979072 1.23499 0
M  V30 3856 C 369.296 0.642751 1.91185 0
M  V30 3857 C 369.609 -0.827253 1.77245 0
M  V30 3858 O 370.815 -1.27458 2.39722 0
M  V30 3859 C 369.271 1.09901 3.42709 0
M  V30 3860 C 368.879 2.59327 3.65313 0
M  V30 3861 C 370.623 0.836371 4.16179 0
M  V30 3862 C 368.53 2.98627 5.10467 0
M  V30 3863 H 367.46 0.236698 0.715884 0
M  V30 3864 H 370.111 1.1868 1.39955 0
M  V30 3865 H 368.493 0.48319 3.93041 0
M  V30 3866 H 369.667 3.26136 3.25533 0
M  V30 3867 H 367.982 2.83323 3.05151 0
M  V30 3868 H 370.579 1.10586 5.23139 0
M  V30 3869 H 370.922 -0.227509 4.15678 0
M  V30 3870 H 371.455 1.41371 3.71832 0
M  V30 3871 H 368.194 4.04133 5.16098 0
M  V30 3872 H 367.714 2.3651 5.51201 0
M  V30 3873 H 369.393 2.89159 5.78788 0
M  V30 3874 N 369.525 -1.3858 0.750561 0
M  V30 3875 C 370.765 -2.02032 0.310258 0
M  V30 3876 C 371.129 -1.58288 -1.08668 0
M  V30 3877 O 372.33 -2.14049 -1.62593 0
M  V30 3878 C 370.601 -3.54856 0.425647 0
M  V30 3879 S 372.16 -4.38748 0.0674797 0
M  V30 3880 H 368.978 -0.700705 0.120554 0
M  V30 3881 H 371.58 -1.69134 0.980512 0
M  V30 3882 H 370.284 -3.84182 1.44335 0
M  V30 3883 H 369.815 -3.92527 -0.261894 0
M  V30 3884 H 371.83 -4.82835 -1.14388 0
M  V30 3885 N 371.003 -0.499398 -1.49478 0
M  V30 3886 C 372.28 0.108629 -1.95298 0
M  V30 3887 C 372.66 1.54282 -1.44084 0
M  V30 3888 O 372.008 2.18944 -0.653908 0
M  V30 3889 C 372.218 0.0229111 -3.48992 0
M  V30 3890 C 373.566 0.197643 -4.2414 0
M  V30 3891 O 374.59 0.0981735 -3.56065 0
M  V30 3892 O 373.449 0.401669 -5.45022 0
M  V30 3893 H 370.543 0.096181 -0.821388 0
M  V30 3894 H 373.089 -0.561822 -1.6013 0
M  V30 3895 H 371.861 -0.977321 -3.78899 0
M  V30 3896 H 371.484 0.733579 -3.90774 0
M  V30 3897 N 372.481 1.55866 -0.233164 0
M  V30 3898 C 373.431 2.17442 0.685774 0
M  V30 3899 C 374.415 1.12617 1.14918 0
M  V30 3900 O 375.607 1.3857 1.10124 0
M  V30 3901 C 372.736 2.86685 1.88856 0
M  V30 3902 C 371.822 3.98749 1.4443 0
M  V30 3903 N 372.213 5.00744 0.713364 0
M  V30 3904 C 370.511 4.11052 1.73068 0
M  V30 3905 C 371.212 5.79673 0.485205 0
M  V30 3906 N 370.188 5.33454 1.04536 0
M  V30 3907 H 373.99 2.93659 0.119022 0
M  V30 3908 H 371.504 1.62362 -0.0348995 0
M  V30 3909 H 373.501 3.29218 2.55776 0
M  V30 3910 H 372.161 2.11967 2.45967 0
M  V30 3911 H 373.172 5.16613 0.364861 0
M  V30 3912 H 369.849 3.47495 2.31416 0
M  V30 3913 H 371.239 6.71829 -0.097365 0
M  V30 3914 N 373.959 -0.0401083 1.57549 0
M  V30 3915 C 375.205 -0.734211 1.89043 0
M  V30 3916 C 375.538 -1.75591 0.829535 0
M  V30 3917 O 374.813 -1.93868 -0.156706 0
M  V30 3918 C 375.096 -1.41374 3.31188 0
M  V30 3919 C 374.949 -0.406299 4.47961 0
M  V30 3920 C 376.268 -2.35061 3.72068 0
M  V30 3921 H 373.387 -0.265447 0.687537 0
M  V30 3922 H 376.029 0.00294087 1.9 0
M  V30 3923 H 374.179 -2.04206 3.30503 0
M  V30 3924 H 375.851 0.219255 4.60779 0
M  V30 3925 H 374.094 0.275485 4.32924 0
M  V30 3926 H 374.765 -0.920022 5.44279 0
M  V30 3927 H 377.241 -1.82282 3.74049 0
M  V30 3928 H 376.117 -2.79593 4.72355 0
M  V30 3929 H 376.378 -3.21258 3.0372 0
M  V30 3930 N 375.437 -1.54477 -0.31217 0
M  V30 3931 C 376.853 -1.45442 -0.657185 0
M  V30 3932 C 377.053 -0.63653 -1.91182 0
M  V30 3933 O 376.109 -0.139815 -2.52113 0
M  V30 3934 C 377.422 -2.89287 -0.82058 0
M  V30 3935 C 378.97 -2.9926 -0.917188 0
M  V30 3936 C 379.445 -4.44279 -1.11267 0
M  V30 3937 N 380.936 -4.4794 -1.17914 0
M  V30 3938 C 381.671 -5.57318 -1.34848 0
M  V30 3939 N 381.167 -6.76642 -1.48752 0
M  V30 3940 N 382.96 -5.44986 -1.37647 0
M  V30 3941 H 375.111 -2.06129 0.512313 0
M  V30 3942 H 377.374 -0.933088 0.167485 0
M  V30 3943 H 377.08 -3.51687 0.0302604 0
M  V30 3944 H 376.954 -3.36061 -1.71298 0
M  V30 3945 H 379.341 -2.36981 -1.75852 0
M  V30 3946 H 379.422 -2.558 -0.00101257 0
M  V30 3947 H 379.066 -5.07149 -0.27614 0
M  V30 3948 H 378.996 -4.85359 -2.04289 0
M  V30 3949 H 381.487 -3.61969 -1.08567 0
M  V30 3950 H 381.8 -7.55758 -1.61397 0
M  V30 3951 H 380.145 -6.79529 -1.45828 0
M  V30 3952 H 383.336 -4.50715 -1.26388 0
M  V30 3953 H 383.509 -6.3028 -1.50501 0
M  V30 3954 N 376.915 0.57481 -1.46744 0
M  V30 3955 C 378.192 1.3352 -1.4294 0
M  V30 3956 C 378.572 2.10775 -0.117009 0
M  V30 3957 O 377.92 2.09966 0.901474 0
M  V30 3958 C 378.13 2.25456 -2.66403 0
M  V30 3959 C 379.478 2.87035 -3.12883 0
M  V30 3960 O 380.502 2.35766 -2.67007 0
M  V30 3961 O 379.361 3.80179 -3.92589 0
M  V30 3962 H 376.455 0.600318 -0.568812 0
M  V30 3963 H 379.001 0.595171 -1.58921 0
M  V30 3964 H 377.773 1.67851 -3.53471 0
M  V30 3965 H 377.396 3.06785 -2.52921 0
M  V30 3966 N 378.394 1.34581 0.820102 0
M  V30 3967 C 379.643 1.26437 1.57151 0
M  V30 3968 C 379.956 -0.163111 1.94919 0
M  V30 3969 O 381.162 -0.366722 2.69012 0
M  V30 3970 C 379.618 2.21658 2.83541 0
M  V30 3971 C 379.226 3.69679 2.53065 0
M  V30 3972 C 380.97 2.22428 3.61561 0
M  V30 3973 C 378.877 4.56761 3.75664 0
M  V30 3974 H 377.807 0.469707 0.589823 0
M  V30 3975 H 380.458 1.59763 0.902656 0
M  V30 3976 H 378.84 1.81287 3.52067 0
M  V30 3977 H 380.014 4.18605 1.92631 0
M  V30 3978 H 378.329 3.71384 1.88316 0
M  V30 3979 H 380.926 2.8471 4.52597 0
M  V30 3980 H 381.269 1.22434 3.97889 0
M  V30 3981 H 381.802 2.61259 2.99981 0
M  V30 3982 H 378.541 5.57702 3.44454 0
M  V30 3983 H 378.061 4.12568 4.35371 0
M  V30 3984 H 379.74 4.71509 4.43044 0
M  V30 3985 N 379.872 -1.04064 1.18357 0
M  V30 3986 C 381.118 -1.77658 0.990412 0
M  V30 3987 C 381.473 -1.86446 -0.474944 0
M  V30 3988 O 380.766 -1.36153 -1.34807 0
M  V30 3989 C 380.96 -3.20634 1.57888 0
M  V30 3990 C 380.789 -3.25782 3.09994 0
M  V30 3991 C 379.559 -3.34411 3.7881 0
M  V30 3992 C 381.757 -3.13791 4.0748 0
M  V30 3993 N 379.739 -3.28809 5.18418 0
M  V30 3994 C 381.11 -3.15689 5.33611 0
M  V30 3995 C 383.165 -2.97833 3.98998 0
M  V30 3996 C 381.868 -3.03268 6.52243 0
M  V30 3997 C 383.894 -2.86759 5.17227 0
M  V30 3998 C 383.256 -2.893 6.4225 0
M  V30 3999 H 379.355 -0.661901 0.416427 0
M  V30 4000 H 381.939 -1.23968 1.50133 0
M  V30 4001 H 380.11 -3.7267 1.09414 0
M  V30 4002 H 381.842 -3.82525 1.32124 0
M  V30 4003 H 378.597 -3.40144 3.29543 0
M  V30 4004 H 379.021 -3.29448 5.91433 0
M  V30 4005 H 383.663 -2.94698 3.03171 0
M  V30 4006 H 381.381 -3.05156 7.48268 0
M  V30 4007 H 384.967 -2.75465 5.12455 0
M  V30 4008 H 383.847 -2.80818 7.32196 0
M  V30 4009 N 381.35 -0.985608 -1.22978 0
M  V30 4010 C 382.597 -0.657386 -1.91532 0
M  V30 4011 C 382.925 0.809707 -1.76845 0
M  V30 4012 O 382.18 1.60021 -1.12658 0
M  V30 4013 C 382.479 -1.00014 -3.43121 0
M  V30 4014 C 382.145 -2.4583 -3.77993 0
M  V30 4015 C 380.807 -2.85679 -3.87222 0
M  V30 4016 C 383.159 -3.40378 -3.94705 0
M  V30 4017 C 380.487 -4.19081 -4.10595 0
M  V30 4018 C 382.839 -4.73429 -4.1958 0
M  V30 4019 C 381.503 -5.1303 -4.27032 0
M  V30 4020 H 380.773 -0.240555 -0.700867 0
M  V30 4021 H 383.42 -1.24044 -1.45895 0
M  V30 4022 H 381.725 -0.335072 -3.90365 0
M  V30 4023 H 383.422 -0.724322 -3.94404 0
M  V30 4024 H 380.012 -2.13939 -3.71387 0
M  V30 4025 H 384.196 -3.10766 -3.8696 0
M  V30 4026 H 379.452 -4.49362 -4.14589 0
M  V30 4027 H 383.626 -5.46644 -4.31455 0
M  V30 4028 H 381.253 -6.16418 -4.44896 0
M  V30 4029 N 382.828 1.3818 -0.7579 0
M  V30 4030 C 384.076 1.99624 -0.315361 0
M  V30 4031 C 384.397 1.60464 1.10799 0
M  V30 4032 O 383.667 0.863507 1.75842 0
M  V30 4033 H 382.247 0.73831 -0.113611 0
M  V30 4034 H 384.909 1.68878 -0.972952 0
M  V30 4035 H 384.005 3.09754 -0.381931 0
M  V30 4036 N 384.306 0.507319 1.49211 0
M  V30 4037 C 385.534 -0.0315749 2.06876 0
M  V30 4038 C 385.949 -1.30241 1.36685 0
M  V30 4039 O 385.306 -1.76937 0.447152 0
M  V30 4040 C 385.357 -0.282627 3.60393 0
M  V30 4041 O 385.078 0.937835 4.27944 0
M  V30 4042 C 386.579 -0.864453 4.3479 0
M  V30 4043 H 383.799 0.0233048 0.670595 0
M  V30 4044 H 386.343 0.706484 1.91909 0
M  V30 4045 H 384.498 -0.97068 3.75042 0
M  V30 4046 H 384.912 0.704567 5.19746 0
M  V30 4047 H 386.386 -0.989664 5.43056 0
M  V30 4048 H 386.863 -1.86382 3.97692 0
M  V30 4049 H 387.469 -0.213672 4.24763 0
M  V30 4050 N 385.784 -1.5574 0.241426 0
M  V30 4051 C 387.195 -1.84842 -0.262755 0
M  V30 4052 C 387.546 -1.16317 -1.58003 0
M  V30 4053 O 386.671 -0.439653 -2.11887 0
M  V30 4054 C 387.266 -3.35332 -0.483523 0
M  V30 4055 C 385.825 -3.6468 -0.931977 0
M  V30 4056 C 384.972 -2.77299 -0.0061151 0
M  V30 4057 H 387.923 -1.51761 0.464129 0
M  V30 4058 H 387.944 -3.56615 -1.32688 0
M  V30 4059 H 387.456 -3.85178 0.47537 0
M  V30 4060 H 385.557 -3.20307 -1.90353 0
M  V30 4061 H 385.67 -4.72498 -0.792628 0
M  V30 4062 H 384.034 -2.49408 -0.516503 0
M  V30 4063 H 384.817 -3.2995 0.948052 0
M  V30 4064 N 387.262 0.0317525 -1.57568 0
M  V30 4065 C 388.172 1.05021 -2.0978 0
M  V30 4066 C 389.188 1.39809 -1.03583 0
M  V30 4067 O 390.364 1.49182 -1.35302 0
M  V30 4068 C 387.429 2.33301 -2.56459 0
M  V30 4069 C 386.49 2.0512 -3.77127 0
M  V30 4070 C 385.723 3.27283 -4.2157 0
M  V30 4071 O 385.946 4.37861 -3.65559 0
M  V30 4072 O 384.88 3.13141 -5.14029 0
M  V30 4073 H 388.706 0.636505 -2.96955 0
M  V30 4074 H 386.291 0.248559 -1.47318 0
M  V30 4075 H 388.173 3.08722 -2.86825 0
M  V30 4076 H 386.848 2.73973 -1.72397 0
M  V30 4077 H 385.755 1.27276 -3.51784 0
M  V30 4078 H 387.088 1.69305 -4.62165 0
M  V30 4079 N 388.74 1.54641 0.303973 0
M  V30 4080 C 389.988 1.73437 1.0375 0
M  V30 4081 C 390.309 0.521449 1.87899 0
M  V30 4082 O 389.579 -0.46432 1.90318 0
M  V30 4083 H 388.159 0.639518 0.386039 0
M  V30 4084 H 390.821 1.91988 0.335675 0
M  V30 4085 H 389.917 2.62235 1.69231 0
M  V30 4086 N 390.218 -0.567019 1.47046 0
M  V30 4087 C 391.128 -1.70247 1.6141 0
M  V30 4088 C 392.144 -1.66746 0.497157 0
M  V30 4089 O 393.32 -1.86371 0.763389 0
M  V30 4090 C 390.385 -3.06756 1.61561 0
M  V30 4091 C 389.446 -3.21399 2.84607 0
M  V30 4092 C 388.679 -4.51396 2.84741 0
M  V30 4093 O 388.902 -5.36255 1.94388 0
M  V30 4094 O 387.836 -4.69621 3.76483 0
M  V30 4095 H 391.662 -1.61073 2.57467 0
M  V30 4096 H 389.247 -0.735894 1.30019 0
M  V30 4097 H 391.129 -3.8801 1.64396 0
M  V30 4098 H 389.804 -3.16333 0.686684 0
M  V30 4099 H 388.711 -2.39579 2.8732 0
M  V30 4100 H 390.044 -3.16721 3.76761 0
M  V30 4101 N 391.696 -1.35014 -0.812953 0
M  V30 4102 C 392.943 -1.27931 -1.56971 0
M  V30 4103 C 393.271 0.148034 -1.93936 0
M  V30 4104 O 392.526 1.11175 -1.61054 0
M  V30 4105 C 392.825 -2.12524 -2.87347 0
M  V30 4106 C 392.491 -3.61401 -2.6963 0
M  V30 4107 C 391.153 -4.01983 -2.64506 0
M  V30 4108 C 393.505 -4.55894 -2.52607 0
M  V30 4109 C 390.833 -5.35235 -2.40293 0
M  V30 4110 C 393.185 -5.89336 -2.29925 0
M  V30 4111 C 391.849 -6.2907 -2.23219 0
M  V30 4112 H 391.119 -0.468131 -0.574399 0
M  V30 4113 H 393.766 -1.66851 -0.939836 0
M  V30 4114 H 392.071 -1.66463 -3.54679 0
M  V30 4115 H 393.768 -2.04383 -3.45005 0
M  V30 4116 H 390.358 -3.29193 -2.74463 0
M  V30 4117 H 394.542 -4.25431 -2.55583 0
M  V30 4118 H 389.798 -5.65028 -2.33566 0
M  V30 4119 H 393.972 -6.62139 -2.15743 0
M  V30 4120 H 391.599 -7.32256 -2.04219 0
M  V30 4121 N 393.175 1.03435 -1.18907 0
M  V30 4122 C 394.421 1.77005 -0.989798 0
M  V30 4123 C 394.754 1.88205 0.478816 0
M  V30 4124 O 394.029 1.39481 1.35556 0
M  V30 4125 C 394.312 3.19925 -1.65287 0
M  V30 4126 C 394.165 3.1663 -3.19477 0
M  V30 4127 C 395.484 4.18189 -1.37134 0
M  V30 4128 H 392.603 0.642538 -0.360991 0
M  V30 4129 H 395.245 1.20784 -1.46667 0
M  V30 4130 H 393.395 3.67929 -1.24741 0
M  V30 4131 H 395.067 2.76567 -3.692 0
M  V30 4132 H 393.31 2.54491 -3.51307 0
M  V30 4133 H 393.981 4.1758 -3.61013 0
M  V30 4134 H 396.457 3.78761 -1.72276 0
M  V30 4135 H 395.333 5.16394 -1.86087 0
M  V30 4136 H 395.594 4.41112 -0.295424 0
M  V30 4137 N 394.653 0.992116 1.22453 0
M  V30 4138 C 395.878 0.685644 1.95739 0
M  V30 4139 C 396.303 -0.743 1.72804 0
M  V30 4140 O 395.661 -1.50778 1.00676 0
M  V30 4141 C 395.709 0.996293 3.46564 0
M  V30 4142 O 394.813 0.0945512 4.12292 0
M  V30 4143 H 394.154 0.256694 0.612376 0
M  V30 4144 H 396.684 1.32888 1.5557 0
M  V30 4145 H 396.694 0.93781 3.97076 0
M  V30 4146 H 395.369 2.03733 3.62582 0
M  V30 4147 H 393.946 0.208451 3.72317 0
M  V30 4148 N 396.131 -1.37776 0.765217 0
M  V30 4149 C 397.064 -2.28008 0.0935025 0
M  V30 4150 C 398.042 -1.45985 -0.716047 0
M  V30 4151 O 399.226 -1.75331 -0.692203 0
M  V30 4152 C 396.353 -3.27228 -0.874052 0
M  V30 4153 C 395.399 -4.26239 -0.149307 0
M  V30 4154 S 396.232 -5.22827 1.15809 0
M  V30 4155 C 397.388 -6.256 0.193906 0
M  V30 4156 H 397.621 -2.84631 0.858637 0
M  V30 4157 H 395.154 -1.43952 0.558313 0
M  V30 4158 H 397.112 -3.84902 -1.42691 0
M  V30 4159 H 395.773 -2.69565 -1.61225 0
M  V30 4160 H 394.966 -4.96213 -0.88254 0
M  V30 4161 H 394.568 -3.7252 0.332366 0
M  V30 4162 H 396.86 -6.74508 -0.636011 0
M  V30 4163 H 397.803 -7.02838 0.861638 0
M  V30 4164 H 398.211 -5.64173 -0.191975 0
M  V30 4165 N 397.609 -0.515225 -1.4894 0
M  V30 4166 C 398.857 0.0241671 -2.02086 0
M  V30 4167 C 399.178 1.3616 -1.3959 0
M  V30 4168 O 398.448 1.87841 -0.556121 0
M  V30 4169 H 397.028 0.0119203 -0.746905 0
M  V30 4170 H 399.69 -0.675702 -1.82812 0
M  V30 4171 H 398.786 0.143385 -3.1177 0
M  V30 4172 N 399.087 1.5561 -0.249682 0
M  V30 4173 C 400.333 1.99306 0.374841 0
M  V30 4174 C 400.666 1.13767 1.57387 0
M  V30 4175 O 399.941 0.201711 1.93451 0
M  V30 4176 C 400.224 3.51507 0.781986 0
M  V30 4177 C 400.077 4.4781 -0.422629 0
M  V30 4178 C 401.396 4.08884 1.62793 0
M  V30 4179 H 398.515 0.724572 0.134773 0
M  V30 4180 H 401.157 1.86719 -0.351549 0
M  V30 4181 H 399.307 3.62363 1.4009 0
M  V30 4182 H 400.979 4.48931 -1.06108 0
M  V30 4183 H 399.222 4.20518 -1.06524 0
M  V30 4184 H 399.893 5.51919 -0.0943766 0
M  V30 4185 H 402.369 4.01147 1.10547 0
M  V30 4186 H 401.245 5.1564 1.88166 0
M  V30 4187 H 401.506 3.57515 2.60068 0
M  V30 4188 N 400.565 -0.0233959 1.57583 0
M  V30 4189 C 401.814 -0.712133 1.8871 0
M  V30 4190 C 402.127 -1.76217 0.848944 0
M  V30 4191 O 403.333 -2.50389 1.04964 0
M  V30 4192 C 401.789 -1.3177 3.3491 0
M  V30 4193 C 401.397 -0.303715 4.46969 0
M  V30 4194 C 403.141 -1.98598 3.75179 0
M  V30 4195 C 401.048 -0.917945 5.84233 0
M  V30 4196 H 399.978 -0.269735 0.704101 0
M  V30 4197 H 402.629 0.0333114 1.8347 0
M  V30 4198 H 401.011 -2.11304 3.34913 0
M  V30 4199 H 402.185 0.465325 4.58445 0
M  V30 4200 H 400.5 0.2628 4.1557 0
M  V30 4201 H 403.097 -2.45416 4.75053 0
M  V30 4202 H 403.44 -2.80659 3.07468 0
M  V30 4203 H 403.973 -1.25831 3.77374 0
M  V30 4204 H 400.712 -0.136633 6.55358 0
M  V30 4205 H 400.232 -1.65669 5.76467 0
M  V30 4206 H 401.911 -1.4236 6.31144 0
M  V30 4207 N 402.043 -1.548 -0.295768 0
M  V30 4208 C 403.268 -1.78653 -1.05346 0
M  V30 4209 C 403.693 -0.546894 -1.79974 0
M  V30 4210 O 403.051 0.502763 -1.7419 0
M  V30 4211 C 403.099 -2.99679 -2.00561 0
M  V30 4212 O 402.203 -2.7317 -3.08953 0
M  V30 4213 H 401.544 -0.59116 -0.302367 0
M  V30 4214 H 404.074 -2.01895 -0.331598 0
M  V30 4215 H 404.084 -3.27793 -2.42932 0
M  V30 4216 H 402.759 -3.89562 -1.4565 0
M  V30 4217 H 401.336 -2.56089 -2.71059 0
M  V30 4218 N 403.521 0.559213 -1.47345 0
M  V30 4219 C 404.798 1.31997 -1.44348 0
M  V30 4220 C 405.178 2.1064 -0.139358 0
M  V30 4221 O 404.526 2.1091 0.879153 0
M  V30 4222 C 404.736 2.22618 -2.68779 0
M  V30 4223 C 406.084 2.83701 -3.1591 0
M  V30 4224 O 407.108 2.32921 -2.69493 0
M  V30 4225 O 405.967 3.75993 -3.966 0
M  V30 4226 H 403.061 0.594251 -0.575147 0
M  V30 4227 H 405.607 0.578282 -1.59543 0
M  V30 4228 H 404.379 1.64093 -3.55231 0
M  V30 4229 H 404.002 3.04085 -2.5616 0
M  V30 4230 N 404.999 1.35443 0.805782 0
M  V30 4231 C 406.247 1.28507 1.55982 0
M  V30 4232 C 406.568 -0.140046 1.94496 0
M  V30 4233 O 405.838 -1.07666 1.63661 0
M  V30 4234 H 404.418 0.472676 0.578434 0
M  V30 4235 H 407.08 1.69555 0.961098 0
M  V30 4236 H 406.176 1.90148 2.47488 0
M  V30 4237 N 406.477 -1.02803 1.19454 0
M  V30 4238 C 407.425 -2.13213 0.929673 0
M  V30 4239 C 408.419 -1.69011 -0.114806 0
M  V30 4240 O 409.625 -1.79967 0.0345147 0
M  V30 4241 H 406 -0.69662 0.28324 0
M  V30 4242 H 407.971 -2.32744 1.86743 0
M  V30 4243 C 406.72 -3.4429 0.485797 0
M  V30 4244 H 406.043 -3.7872 1.28105 0
M  V30 4245 H 407.483 -4.22638 0.339582 0
M  V30 4246 C 405.942 -3.27258 -0.800244 0
M  V30 4247 O 406.472 -3.55967 -1.86146 0
M  V30 4248 N 404.678 -2.80545 -0.75781 0
M  V30 4249 H 404.225 -2.57382 0.106039 0
M  V30 4250 H 404.183 -2.6953 -1.61867 0
M  V30 4251 N 407.956 -0.998596 -1.21925 0
M  V30 4252 C 409.181 -0.696015 -1.95372 0
M  V30 4253 C 409.606 0.733826 -1.73195 0
M  V30 4254 O 408.964 1.50242 -1.01474 0
M  V30 4255 C 409.012 -1.01466 -3.4603 0
M  V30 4256 O 408.116 -0.116415 -4.12236 0
M  V30 4257 H 407.457 -0.259938 -0.611006 0
M  V30 4258 H 409.987 -1.33711 -1.54863 0
M  V30 4259 H 409.997 -0.958855 -3.96573 0
M  V30 4260 H 408.672 -2.05653 -3.61497 0
M  V30 4261 H 407.249 -0.228193 -3.72201 0
M  V30 4262 N 409.434 1.37368 -0.772513 0
M  V30 4263 C 410.664 2.03647 -0.348082 0
M  V30 4264 C 411.072 1.58392 1.03482 0
M  V30 4265 O 410.415 0.760921 1.672 0
M  V30 4266 C 410.477 3.58131 -0.313404 0
M  V30 4267 C 410.141 4.2652 -1.64102 0
M  V30 4268 C 411.138 4.50587 -2.5936 0
M  V30 4269 C 408.823 4.64335 -1.91567 0
M  V30 4270 C 410.817 5.11526 -3.80289 0
M  V30 4271 C 408.504 5.24996 -3.12766 0
M  V30 4272 C 409.502 5.48529 -4.06946 0
M  V30 4273 O 409.19 6.07921 -5.26011 0
M  V30 4274 H 408.922 0.660538 -0.143753 0
M  V30 4275 H 411.476 1.76669 -1.04772 0
M  V30 4276 H 409.706 3.84159 0.442617 0
M  V30 4277 H 411.395 4.05813 0.0840613 0
M  V30 4278 H 412.161 4.21784 -2.39423 0
M  V30 4279 H 408.04 4.45353 -1.19088 0
M  V30 4280 H 411.584 5.29811 -4.53813 0
M  V30 4281 H 407.481 5.53223 -3.32588 0
M  V30 4282 H 408.249 6.26398 -5.26847 0
M  V30 4283 N 410.912 0.523116 1.48665 0
M  V30 4284 C 412.16 -0.0134497 2.02096 0
M  V30 4285 C 412.481 -1.35418 1.40311 0
M  V30 4286 O 411.751 -1.87543 0.566074 0
M  V30 4287 H 410.331 -0.00795915 0.746958 0
M  V30 4288 H 412.993 0.685388 1.82451 0
M  V30 4289 H 412.089 -0.126849 3.11842 0
M  V30 4290 N 412.39 -1.55475 0.257931 0
M  V30 4291 C 413.636 -1.99502 -0.364266 0
M  V30 4292 C 413.969 -1.146 -1.56782 0
M  V30 4293 O 413.244 -0.211968 -1.93342 0
M  V30 4294 C 413.527 -3.51917 -0.763333 0
M  V30 4295 C 413.38 -4.4758 0.446371 0
M  V30 4296 C 414.699 -4.09742 -1.60623 0
M  V30 4297 H 411.818 -0.725277 -0.130929 0
M  V30 4298 H 414.46 -1.8653 0.361446 0
M  V30 4299 H 412.61 -3.63101 -1.38166 0
M  V30 4300 H 414.282 -4.48362 1.08487 0
M  V30 4301 H 412.525 -4.19947 1.08753 0
M  V30 4302 H 413.196 -5.51862 0.123645 0
M  V30 4303 H 415.672 -4.01727 -1.08418 0
M  V30 4304 H 414.548 -5.16631 -1.85429 0
M  V30 4305 H 414.809 -3.58889 -2.58169 0
M  V30 4306 N 413.868 0.0150385 -1.57593 0
M  V30 4307 C 415.279 0.559832 -1.78109 0
M  V30 4308 C 415.63 1.74814 -0.890756 0
M  V30 4309 O 414.755 2.16216 -0.0892482 0
M  V30 4310 C 415.35 1.02238 -3.23006 0
M  V30 4311 C 413.909 1.51258 -3.44671 0
M  V30 4312 C 413.056 0.456955 -2.73509 0
M  V30 4313 H 416.007 -0.211169 -1.57289 0
M  V30 4314 H 416.028 1.88912 -3.30292 0
M  V30 4315 H 415.54 0.157302 -3.87781 0
M  V30 4316 H 413.641 2.39905 -2.8509 0
M  V30 4317 H 413.754 1.55042 -4.5332 0
M  V30 4318 H 412.118 0.915196 -2.37689 0
M  V30 4319 H 412.901 -0.398896 -3.40975 0
M  V30 4320 N 415.346 1.54954 0.287554 0
M  V30 4321 C 416.623 1.65569 1.04146 0
M  V30 4322 C 417.003 0.512672 2.0478 0
M  V30 4323 O 416.351 -0.489038 2.23205 0
M  V30 4324 C 416.561 3.04163 1.71131 0
M  V30 4325 C 417.909 3.61429 2.22832 0
M  V30 4326 O 418.933 3.06702 1.81141 0
M  V30 4327 O 417.792 4.57281 2.9926 0
M  V30 4328 H 414.886 0.671881 0.482188 0
M  V30 4329 H 417.432 1.67297 0.28457 0
M  V30 4330 H 416.204 3.78796 0.981303 0
M  V30 4331 H 415.827 3.06271 2.53543 0
M  V30 4332 N 416.824 -0.551391 1.4764 0
M  V30 4333 C 418.101 -1.31229 1.45046 0
M  V30 4334 C 418.481 -2.10563 0.150527 0
M  V30 4335 O 417.829 -2.11374 -0.867956 0
M  V30 4336 C 418.039 -2.21189 2.69956 0
M  V30 4337 C 419.387 -2.82021 3.1741 0
M  V30 4338 O 420.411 -2.31488 2.70724 0
M  V30 4339 O 419.27 -3.73885 3.98588 0
M  V30 4340 H 416.364 -0.591193 0.578291 0
M  V30 4341 H 418.91 -0.569813 1.59847 0
M  V30 4342 H 417.682 -1.62207 3.56096 0
M  V30 4343 H 417.305 -3.02722 2.57769 0
M  V30 4344 N 418.302 -1.35869 -0.798587 0
M  V30 4345 C 419.232 -1.32118 -1.92528 0
M  V30 4346 C 420.213 -0.194209 -1.68988 0
M  V30 4347 O 421.398 -0.390426 -1.90235 0
M  V30 4348 C 418.528 -1.10047 -3.29404 0
M  V30 4349 C 417.482 -2.19471 -3.67446 0
M  V30 4350 C 416.808 -1.82555 -5.02571 0
M  V30 4351 C 418.108 -3.61495 -3.76987 0
M  V30 4352 H 419.802 -2.26394 -1.95924 0
M  V30 4353 H 417.348 -1.08981 -0.94123 0
M  V30 4354 H 419.301 -1.06061 -4.07835 0
M  V30 4355 H 418.025 -0.122195 -3.26371 0
M  V30 4356 H 416.684 -2.22568 -2.91306 0
M  V30 4357 H 416.332 -0.833249 -4.9605 0
M  V30 4358 H 416.032 -2.5581 -5.28995 0
M  V30 4359 H 417.556 -1.80108 -5.83432 0
M  V30 4360 H 418.97 -3.60676 -4.4563 0
M  V30 4361 H 417.367 -4.33577 -4.14887 0
M  V30 4362 H 418.437 -3.97065 -2.78329 0
M  V30 4363 N 419.78 1.02168 -1.19998 0
M  V30 4364 C 420.71 2.12488 -0.96804 0
M  V30 4365 C 421.691 1.69799 0.101185 0
M  V30 4366 O 422.876 1.94121 -0.0552993 0
M  V30 4367 C 420.006 3.43479 -0.513776 0
M  V30 4368 C 418.96 3.99884 -1.52566 0
M  V30 4369 C 418.286 5.26582 -0.928214 0
M  V30 4370 C 419.586 4.33861 -2.90795 0
M  V30 4371 H 421.28 2.32149 -1.89069 0
M  V30 4372 H 418.826 1.11564 -0.910468 0
M  V30 4373 H 420.779 4.20036 -0.338774 0
M  V30 4374 H 419.503 3.23561 0.444493 0
M  V30 4375 H 418.162 3.25429 -1.68794 0
M  V30 4376 H 417.81 5.02986 0.0378289 0
M  V30 4377 H 417.51 5.65284 -1.60397 0
M  V30 4378 H 419.034 6.05799 -0.764167 0
M  V30 4379 H 420.448 5.01327 -2.78109 0
M  V30 4380 H 418.845 4.83664 -3.55231 0
M  V30 4381 H 419.915 3.42848 -3.42904 0
M  V30 4382 N 421.258 1.00505 1.21394 0
M  V30 4383 C 422.488 0.705584 1.94178 0
M  V30 4384 C 422.896 -0.735846 1.74304 0
M  V30 4385 O 422.239 -1.50954 1.04683 0
M  V30 4386 C 422.301 0.94689 3.46806 0
M  V30 4387 C 421.965 2.37517 3.90429 0
M  V30 4388 C 422.962 3.35539 3.97127 0
M  V30 4389 C 420.647 2.71284 4.22742 0
M  V30 4390 C 422.641 4.65395 4.3553 0
M  V30 4391 C 420.328 4.01356 4.60822 0
M  V30 4392 C 421.326 4.98223 4.67186 0
M  V30 4393 O 421.014 6.25969 5.04399 0
M  V30 4394 H 420.746 0.259216 0.624326 0
M  V30 4395 H 423.3 1.34592 1.55159 0
M  V30 4396 H 421.53 0.249386 3.85895 0
M  V30 4397 H 423.219 0.640804 4.0081 0
M  V30 4398 H 423.985 3.10786 3.7234 0
M  V30 4399 H 419.864 1.96581 4.16985 0
M  V30 4400 H 423.408 5.41002 4.40412 0
M  V30 4401 H 419.305 4.25893 4.85063 0
M  V30 4402 H 420.073 6.30085 5.22431 0
M  V30 4403 N 422.737 -1.36956 0.779787 0
M  V30 4404 C 423.962 -2.04283 0.358224 0
M  V30 4405 C 424.387 -1.58422 -1.01411 0
M  V30 4406 O 423.745 -0.748179 -1.65142 0
M  V30 4407 C 423.793 -3.58152 0.419479 0
M  V30 4408 O 422.897 -4.08342 -0.577142 0
M  V30 4409 H 422.238 -0.645967 0.153698 0
M  V30 4410 H 424.768 -1.75108 1.05822 0
M  V30 4411 H 424.778 -4.07041 0.279636 0
M  V30 4412 H 423.453 -3.90886 1.42061 0
M  V30 4413 H 422.03 -3.70751 -0.399755 0
M  V30 4414 N 424.215 -0.530993 -1.48385 0
M  V30 4415 C 425.462 0.0027373 -2.025 0
M  V30 4416 C 425.79 1.34186 -1.40799 0
M  V30 4417 O 425.045 1.88 -0.543544 0
M  V30 4418 C 425.344 0.172742 -3.56982 0
M  V30 4419 C 425.01 -1.09215 -4.37473 0
M  V30 4420 C 423.672 -1.43881 -4.59186 0
M  V30 4421 C 426.024 -1.93153 -4.84088 0
M  V30 4422 C 423.352 -2.62381 -5.2476 0
M  V30 4423 C 425.704 -3.10833 -5.50968 0
M  V30 4424 C 424.368 -3.45843 -5.70919 0
M  V30 4425 H 423.638 0.00100165 -0.740999 0
M  V30 4426 H 426.285 -0.697219 -1.78357 0
M  V30 4427 H 424.59 0.955473 -3.79971 0
M  V30 4428 H 426.287 0.600642 -3.96476 0
M  V30 4429 H 422.877 -0.812177 -4.20834 0
M  V30 4430 H 427.061 -1.67683 -4.67115 0
M  V30 4431 H 422.317 -2.89707 -5.38405 0
M  V30 4432 H 426.491 -3.7618 -5.86056 0
M  V30 4433 H 424.118 -4.37764 -6.21503 0
M  V30 4434 N 425.693 1.55336 -0.266172 0
M  V30 4435 C 427.104 1.85236 0.233315 0
M  V30 4436 C 427.455 1.18816 1.56132 0
M  V30 4437 O 426.58 0.473307 2.11161 0
M  V30 4438 C 427.175 3.36059 0.430113 0
M  V30 4439 C 425.734 3.66116 0.873842 0
M  V30 4440 C 424.881 2.77274 -0.0380016 0
M  V30 4441 H 427.832 1.51004 -0.488214 0
M  V30 4442 H 427.853 3.58681 1.26998 0
M  V30 4443 H 427.365 3.84373 -0.536588 0
M  V30 4444 H 425.466 3.23295 1.85233 0
M  V30 4445 H 425.579 4.73699 0.717358 0
M  V30 4446 H 423.943 2.50198 0.476759 0
M  V30 4447 H 424.726 3.284 -1.00042 0
M  V30 4448 N 427.171 -0.0066808 1.57599 0
M  V30 4449 C 428.417 -0.693947 1.90558 0
M  V30 4450 C 428.75 -1.73792 0.866594 0
M  V30 4451 O 428.025 -1.94156 -0.115548 0
M  V30 4452 C 428.308 -1.34317 3.34112 0
M  V30 4453 C 428.161 -0.311189 4.48722 0
M  V30 4454 C 429.48 -2.27116 3.7697 0
M  V30 4455 H 426.599 -0.250803 0.693013 0
M  V30 4456 H 429.241 0.043242 1.89951 0
M  V30 4457 H 427.391 -1.9715 3.3476 0
M  V30 4458 H 429.063 0.316944 4.6021 0
M  V30 4459 H 427.306 0.367253 4.32243 0
M  V30 4460 H 427.977 -0.804366 5.46108 0
M  V30 4461 H 430.453 -1.74306 3.77831 0
M  V30 4462 H 429.329 -2.69511 4.78179 0
M  V30 4463 H 429.59 -3.14743 3.10466 0
M  V30 4464 N 428.649 -1.55105 -0.279332 0
M  V30 4465 C 429.895 -1.75672 -1.01327 0
M  V30 4466 C 430.228 -0.552739 -1.86168 0
M  V30 4467 O 429.503 0.449827 -1.89227 0
M  V30 4468 C 429.786 -3.05825 -1.90114 0
M  V30 4469 C 429.639 -4.36565 -1.08309 0
M  V30 4470 C 430.958 -3.31975 -2.8893 0
M  V30 4471 H 428.077 -0.639149 -0.366957 0
M  V30 4472 H 430.719 -1.87833 -0.286154 0
M  V30 4473 H 428.869 -2.95588 -2.52111 0
M  V30 4474 H 430.541 -4.58751 -0.484314 0
M  V30 4475 H 428.784 -4.32076 -0.386362 0
M  V30 4476 H 429.455 -5.23946 -1.73737 0
M  V30 4477 H 431.931 -3.41963 -2.37067 0
M  V30 4478 H 430.807 -4.2432 -3.48201 0
M  V30 4479 H 431.068 -2.51309 -3.63725 0
M  V30 4480 N 430.127 0.543554 -1.4793 0
M  V30 4481 C 431.376 1.29649 -1.54512 0
M  V30 4482 C 431.689 1.94382 -0.217973 0
M  V30 4483 O 432.895 2.71017 -0.161908 0
M  V30 4484 C 431.351 2.35175 -2.72435 0
M  V30 4485 C 430.959 1.76572 -4.11736 0
M  V30 4486 C 432.703 3.11564 -2.8832 0
M  V30 4487 C 430.61 2.79958 -5.20939 0
M  V30 4488 H 429.54 0.487541 -0.57517 0
M  V30 4489 H 432.191 0.575708 -1.74235 0
M  V30 4490 H 430.573 3.10229 -2.46118 0
M  V30 4491 H 431.747 1.07799 -4.48013 0
M  V30 4492 H 430.062 1.12722 -4.00852 0
M  V30 4493 H 432.659 3.88794 -3.67074 0
M  V30 4494 H 433.002 3.66594 -1.97268 0
M  V30 4495 H 433.535 2.43623 -3.14472 0
M  V30 4496 H 430.274 2.29766 -6.13912 0
M  V30 4497 H 429.794 3.47101 -4.89164 0
M  V30 4498 H 431.473 3.43198 -5.48474 0
M  V30 4499 N 431.605 1.3629 0.791371 0
M  V30 4500 C 432.552 1.30458 1.90393 0
M  V30 4501 C 433.522 0.173632 1.6519 0
M  V30 4502 O 434.707 0.35983 1.87376 0
M  V30 4503 C 431.847 1.09777 3.27174 0
M  V30 4504 C 430.96 2.31929 3.64462 0
M  V30 4505 C 430.095 2.04276 4.90352 0
M  V30 4506 C 429.134 3.224 5.20312 0
M  V30 4507 N 428.271 2.94424 6.37385 0
M  V30 4508 H 433.111 2.25589 1.94714 0
M  V30 4509 H 430.648 1.12122 0.952216 0
M  V30 4510 H 432.606 0.958133 4.06049 0
M  V30 4511 H 431.236 0.183014 3.22281 0
M  V30 4512 H 430.288 2.56703 2.80727 0
M  V30 4513 H 431.6 3.20085 3.82553 0
M  V30 4514 H 430.754 1.87231 5.77087 0
M  V30 4515 H 429.493 1.13428 4.74326 0
M  V30 4516 H 428.498 3.40005 4.32061 0
M  V30 4517 H 429.723 4.14071 5.38258 0
M  V30 4518 H 427.669 2.06185 6.22755 0
M  V30 4519 H 427.586 3.76118 6.55798 0
M  V30 4520 H 428.854 2.80953 7.27108 0
M  V30 4521 N 433.083 -1.0153 1.20538 0
M  V30 4522 C 434.031 -2.12215 0.952235 0
M  V30 4523 C 435.025 -1.69123 -0.0968735 0
M  V30 4524 O 436.231 -1.7992 0.0536006 0
M  V30 4525 H 432.606 -0.693576 0.290613 0
M  V30 4526 H 434.577 -2.3075 1.89201 0
M  V30 4527 C 433.326 -3.43755 0.522287 0
M  V30 4528 H 432.649 -3.7734 1.32115 0
M  V30 4529 H 434.089 -4.22254 0.384389 0
M  V30 4530 C 432.548 -3.28088 -0.765489 0
M  V30 4531 O 433.078 -3.57921 -1.8236 0
M  V30 4532 N 431.284 -2.81333 -0.728011 0
M  V30 4533 H 430.831 -2.57255 0.133332 0
M  V30 4534 H 430.789 -2.71232 -1.58999 0
M  V30 4535 N 434.561 -1.01147 -1.20859 0
M  V30 4536 C 435.508 -0.577354 -2.23462 0
M  V30 4537 C 436.478 0.399922 -1.61214 0
M  V30 4538 O 437.663 0.300515 -1.88419 0
M  V30 4539 C 434.803 0.083372 -3.44999 0
M  V30 4540 C 433.916 -0.937856 -4.21697 0
M  V30 4541 C 433.051 -0.248717 -5.30617 0
M  V30 4542 C 432.09 -1.25705 -5.99053 0
M  V30 4543 N 431.227 -0.594939 -6.99575 0
M  V30 4544 H 436.067 -1.45695 -2.59956 0
M  V30 4545 H 433.604 -0.729428 -1.27741 0
M  V30 4546 H 435.562 0.483535 -4.14388 0
M  V30 4547 H 434.192 0.926645 -3.09214 0
M  V30 4548 H 433.244 -1.45622 -3.51423 0
M  V30 4549 H 434.556 -1.70493 -4.68757 0
M  V30 4550 H 433.71 0.207215 -6.06346 0
M  V30 4551 H 432.449 0.55071 -4.84581 0
M  V30 4552 H 431.454 -1.72343 -5.2209 0
M  V30 4553 H 432.679 -2.05767 -6.47176 0
M  V30 4554 H 430.625 0.184713 -6.5574 0
M  V30 4555 H 430.542 -1.30017 -7.44736 0
M  V30 4556 H 431.81 -0.162427 -7.79331 0
M  V30 4557 N 436.039 1.36541 -0.78704 0
M  V30 4558 C 437.267 2.03561 -0.370199 0
M  V30 4559 C 437.682 1.59347 1.01263 0
M  V30 4560 O 437.039 0.781781 1.64907 0
M  V30 4561 C 437.09 3.59033 -0.421614 0
M  V30 4562 O 436.811 4.01634 -1.7499 0
M  V30 4563 C 438.312 4.433 0.00489763 0
M  V30 4564 H 435.532 0.653346 -0.152904 0
M  V30 4565 H 438.076 1.74566 -1.06522 0
M  V30 4566 H 436.231 3.86746 0.224971 0
M  V30 4567 H 436.645 4.96217 -1.69909 0
M  V30 4568 H 438.119 5.51939 -0.0822184 0
M  V30 4569 H 438.596 4.26285 1.05723 0
M  V30 4570 H 439.202 4.20843 -0.614085 0
M  V30 4571 N 437.518 0.538854 1.48102 0
M  V30 4572 C 438.764 0.0161732 2.03394 0
M  V30 4573 C 439.119 -1.31154 1.40771 0
M  V30 4574 O 438.412 -1.83613 0.547421 0
M  V30 4575 C 438.606 -0.153808 3.57069 0
M  V30 4576 C 438.435 1.15588 4.34591 0
M  V30 4577 C 437.205 1.71818 4.75191 0
M  V30 4578 C 439.403 2.06867 4.70861 0
M  V30 4579 N 437.385 2.96983 5.37284 0
M  V30 4580 C 438.756 3.16609 5.33066 0
M  V30 4581 C 440.811 2.07085 4.52791 0
M  V30 4582 C 439.514 4.26645 5.79109 0
M  V30 4583 C 441.54 3.16121 4.99821 0
M  V30 4584 C 440.902 4.24582 5.62058 0
M  V30 4585 H 437.001 0.0476346 0.780548 0
M  V30 4586 H 439.585 0.722094 1.80815 0
M  V30 4587 H 437.756 -0.828825 3.79454 0
M  V30 4588 H 439.488 -0.676896 3.98999 0
M  V30 4589 H 436.243 1.25845 4.56574 0
M  V30 4590 H 436.667 3.60732 5.72889 0
M  V30 4591 H 441.309 1.24522 4.04047 0
M  V30 4592 H 439.027 5.0998 6.26854 0
M  V30 4593 H 442.613 3.17355 4.87624 0
M  V30 4594 H 441.493 5.07562 5.97788 0
M  V30 4595 N 438.996 -1.55193 0.274407 0
M  V30 4596 C 439.943 -2.225 -0.613374 0
M  V30 4597 C 440.913 -1.19823 -1.15029 0
M  V30 4598 O 442.098 -1.48362 -1.19973 0
M  V30 4599 C 439.238 -2.94927 -1.79199 0
M  V30 4600 C 438.351 -4.12322 -1.28899 0
M  V30 4601 C 437.486 -4.72394 -2.42934 0
M  V30 4602 C 436.525 -5.81984 -1.89634 0
M  V30 4603 N 435.662 -6.36123 -2.9714 0
M  V30 4604 H 440.502 -2.97982 -0.032756 0
M  V30 4605 H 438.039 -1.47099 -0.00440146 0
M  V30 4606 H 439.997 -3.35134 -2.48478 0
M  V30 4607 H 438.627 -2.2187 -2.34465 0
M  V30 4608 H 437.679 -3.7724 -0.489327 0
M  V30 4609 H 438.991 -4.91355 -0.858587 0
M  V30 4610 H 438.145 -5.15317 -3.20208 0
M  V30 4611 H 436.884 -3.92636 -2.8929 0
M  V30 4612 H 435.889 -5.38511 -1.1084 0
M  V30 4613 H 437.114 -6.6361 -1.44215 0
M  V30 4614 H 435.06 -5.59259 -3.42878 0
M  V30 4615 H 434.977 -7.10427 -2.58515 0
M  V30 4616 H 436.245 -6.83704 -3.74391 0
M  V30 4617 N 440.474 -0.00167713 -1.576 0
M  V30 4618 C 441.721 0.68282 -1.90641 0
M  V30 4619 C 442.049 1.73686 -0.875415 0
M  V30 4620 O 441.304 1.95334 0.119575 0
M  V30 4621 C 441.603 1.36189 -3.30435 0
M  V30 4622 C 441.269 0.440887 -4.48739 0
M  V30 4623 C 439.931 0.187312 -4.80835 0
M  V30 4624 C 442.283 -0.193134 -5.20842 0
M  V30 4625 C 439.611 -0.70855 -5.82406 0
M  V30 4626 C 441.963 -1.07688 -6.23367 0
M  V30 4627 C 440.627 -1.33962 -6.53919 0
M  V30 4628 H 439.897 0.249862 -0.697603 0
M  V30 4629 H 442.544 -0.0575642 -1.91413 0
M  V30 4630 H 440.849 2.17636 -3.25794 0
M  V30 4631 H 442.546 1.89759 -3.5326 0
M  V30 4632 H 439.136 0.648694 -4.23663 0
M  V30 4633 H 443.32 -0.0102445 -4.96299 0
M  V30 4634 H 438.576 -0.920097 -6.04437 0
M  V30 4635 H 442.75 -1.57451 -6.78367 0
M  V30 4636 H 440.377 -2.03549 -7.32442 0
M  V30 4637 N 441.952 1.55251 0.271103 0
M  V30 4638 C 443.198 1.76207 1.00394 0
M  V30 4639 C 443.531 0.562604 1.85872 0
M  V30 4640 O 442.806 -0.439785 1.89463 0
M  V30 4641 C 443.089 3.06828 1.8849 0
M  V30 4642 C 442.942 4.37134 1.05992 0
M  V30 4643 C 444.261 3.33503 2.87165 0
M  V30 4644 H 441.38 0.641086 0.363562 0
M  V30 4645 H 444.022 1.87982 0.276189 0
M  V30 4646 H 442.172 2.96921 2.5054 0
M  V30 4647 H 443.844 4.59001 0.459978 0
M  V30 4648 H 442.087 4.32275 0.363443 0
M  V30 4649 H 442.758 5.2486 1.70955 0
M  V30 4650 H 445.234 3.43215 2.3525 0
M  V30 4651 H 444.11 4.2616 3.45946 0
M  V30 4652 H 444.371 2.53235 3.62387 0
M  V30 4653 N 443.43 -0.535701 1.48216 0
M  V30 4654 C 444.34 -1.66785 1.64985 0
M  V30 4655 C 445.356 -1.65654 0.532414 0
M  V30 4656 O 446.532 -1.8471 0.80275 0
M  V30 4657 C 443.597 -3.0326 1.68031 0
M  V30 4658 C 442.658 -3.1529 2.9136 0
M  V30 4659 C 441.891 -4.45255 2.94252 0
M  V30 4660 O 442.114 -5.32011 2.05719 0
M  V30 4661 O 441.048 -4.6153 3.86359 0
M  V30 4662 H 444.874 -1.55576 2.60825 0
M  V30 4663 H 442.459 -0.70815 1.31551 0
M  V30 4664 H 444.341 -3.84436 1.72589 0
M  V30 4665 H 443.016 -3.14805 0.753628 0
M  V30 4666 H 441.923 -2.3343 2.92337 0
M  V30 4667 H 443.256 -3.08658 3.83394 0
M  V30 4668 N 444.908 -1.36708 -0.784132 0
M  V30 4669 C 446.156 -1.30972 -1.53918 0
M  V30 4670 C 446.477 0.109086 -1.94695 0
M  V30 4671 O 445.747 1.05048 -1.65353 0
M  V30 4672 H 444.327 -0.481819 -0.570841 0
M  V30 4673 H 446.989 -1.71063 -0.934002 0
M  V30 4674 H 446.085 -1.94061 -2.44431 0
M  V30 4675 N 446.386 1.0089 -1.21074 0
M  V30 4676 C 447.316 2.1145 -0.990523 0
M  V30 4677 C 448.297 1.69897 0.0831699 0
M  V30 4678 O 449.482 1.94052 -0.0758853 0
M  V30 4679 C 446.612 3.42914 -0.550177 0
M  V30 4680 C 445.566 3.98244 -1.56799 0
M  V30 4681 C 444.892 5.25568 -0.984013 0
M  V30 4682 C 446.192 4.30752 -2.95381 0
M  V30 4683 H 447.886 2.3013 -1.91521 0
M  V30 4684 H 445.432 1.10592 -0.92225 0
M  V30 4685 H 447.385 4.19653 -0.383305 0
M  V30 4686 H 446.109 3.24014 0.41015 0
M  V30 4687 H 444.768 3.23621 -1.72236 0
M  V30 4688 H 444.416 5.02998 -0.0155216 0
M  V30 4689 H 444.116 5.63551 -1.66384 0
M  V30 4690 H 445.64 6.04955 -0.828378 0
M  V30 4691 H 447.054 4.98349 -2.8341 0
M  V30 4692 H 445.451 4.79869 -3.60341 0
M  V30 4693 H 446.521 3.39192 -3.46521 0
M  V30 4694 N 447.864 1.01787 1.20321 0
M  V30 4695 C 449.275 0.739307 1.71438 0
M  V30 4696 C 449.626 -0.742041 1.81627 0
M  V30 4697 O 448.751 -1.57903 1.47971 0
M  V30 4698 C 449.346 1.33538 3.11373 0
M  V30 4699 C 447.905 1.10566 3.59795 0
M  V30 4700 C 447.052 1.44028 2.36962 0
M  V30 4701 H 450.003 1.18718 1.05317 0
M  V30 4702 H 450.024 0.726611 3.73498 0
M  V30 4703 H 449.536 2.41352 3.03926 0
M  V30 4704 H 447.637 0.0452405 3.72573 0
M  V30 4705 H 447.75 1.78661 4.44542 0
M  V30 4706 H 446.114 0.85933 2.39766 0
M  V30 4707 H 446.897 2.52901 2.32155 0
M  V30 4708 N 449.342 -1.36122 0.79427 0
M  V30 4709 C 450.591 -1.98361 0.365464 0
M  V30 4710 C 450.904 -1.6374 -1.06997 0
M  V30 4711 O 452.11 -2.19251 -1.60129 0
M  V30 4712 C 450.566 -3.54821 0.602496 0
M  V30 4713 C 450.174 -3.98362 2.04967 0
M  V30 4714 C 451.918 -4.2383 0.238437 0
M  V30 4715 C 449.825 -5.47619 2.2331 0
M  V30 4716 H 448.755 -0.742193 0.13291 0
M  V30 4717 H 451.406 -1.55354 0.976589 0
M  V30 4718 H 449.788 -3.95922 -0.078409 0
M  V30 4719 H 450.962 -3.68447 2.76737 0
M  V30 4720 H 449.277 -3.42206 2.37243 0
M  V30 4721 H 451.874 -5.33529 0.353705 0
M  V30 4722 H 452.217 -4.08264 -0.814006 0
M  V30 4723 H 452.75 -3.88108 0.872769 0
M  V30 4724 H 449.489 -5.68138 3.26955 0
M  V30 4725 H 449.009 -5.79145 1.5605 0
M  V30 4726 H 450.688 -6.13911 2.0426 0
M  V30 4727 N 450.82 -0.546701 -1.47814 0
M  V30 4728 C 451.768 0.220048 -2.31557 0
M  V30 4729 C 452.762 0.919472 -1.42275 0
M  V30 4730 O 453.968 0.841953 -1.59095 0
M  V30 4731 H 450.343 0.0898334 -0.746615 0
M  V30 4732 H 452.314 -0.505589 -2.94086 0
M  V30 4733 C 451.063 1.24353 -3.24702 0
M  V30 4734 H 450.386 0.714758 -3.93359 0
M  V30 4735 H 451.826 1.75112 -3.8615 0
M  V30 4736 C 450.285 2.28593 -2.47481 0
M  V30 4737 O 450.815 3.35334 -2.21165 0
M  V30 4738 N 449.021 2.02244 -2.08676 0
M  V30 4739 H 448.568 1.15455 -2.30278 0
M  V30 4740 H 448.526 2.72207 -1.57323 0
M  V30 4741 N 452.299 1.55045 -0.282633 0
M  V30 4742 C 453.576 1.9179 0.384166 0
M  V30 4743 C 453.956 1.20778 1.73136 0
M  V30 4744 O 453.304 0.33719 2.25998 0
M  V30 4745 C 453.514 3.45149 0.517014 0
M  V30 4746 C 454.862 4.17064 0.796427 0
M  V30 4747 O 455.886 3.51084 0.601535 0
M  V30 4748 O 454.745 5.33837 1.16962 0
M  V30 4749 H 451.839 0.799483 0.211558 0
M  V30 4750 H 454.385 1.66474 -0.32934 0
M  V30 4751 H 453.157 3.88922 -0.430772 0
M  V30 4752 H 452.78 3.76443 1.2797 0
M  V30 4753 N 453.777 0.010035 1.57597 0
M  V30 4754 C 455.024 -0.6727 1.91 0
M  V30 4755 C 455.352 -1.73219 0.884614 0
M  V30 4756 O 454.607 -1.95395 -0.109215 0
M  V30 4757 C 454.906 -1.34434 3.31153 0
M  V30 4758 C 454.572 -0.417083 4.48967 0
M  V30 4759 C 453.234 -0.161809 4.80928 0
M  V30 4760 C 455.586 0.220753 5.20732 0
M  V30 4761 C 452.914 0.739426 5.82022 0
M  V30 4762 C 455.266 1.10993 6.22787 0
M  V30 4763 C 453.93 1.37428 6.532 0
M  V30 4764 H 453.2 -0.246158 0.698918 0
M  V30 4765 H 455.847 0.0677145 1.9138 0
M  V30 4766 H 454.152 -2.15905 3.26944 0
M  V30 4767 H 455.849 -1.87883 3.54261 0
M  V30 4768 H 452.439 -0.626217 4.24001 0
M  V30 4769 H 456.623 0.0365643 4.96287 0
M  V30 4770 H 451.879 0.952139 6.03941 0
M  V30 4771 H 456.053 1.61046 6.77523 0
M  V30 4772 H 453.68 2.0743 7.31353 0
M  V30 4773 N 455.255 -1.55392 -0.262866 0
M  V30 4774 C 456.48 -1.80847 -1.01533 0
M  V30 4775 C 456.905 -0.584946 -1.78774 0
M  V30 4776 O 456.263 0.465701 -1.75217 0
M  V30 4777 C 456.311 -3.03866 -1.94159 0
M  V30 4778 O 455.415 -2.79662 -3.03089 0
M  V30 4779 H 454.756 -0.597441 -0.289759 0
M  V30 4780 H 457.286 -2.02553 -0.288698 0
M  V30 4781 H 457.296 -3.32872 -2.35924 0
M  V30 4782 H 455.971 -3.92564 -1.37354 0
M  V30 4783 H 454.548 -2.61781 -2.65566 0
M  V30 4784 N 456.733 0.527833 -1.48498 0
M  V30 4785 C 458.149 0.856571 -1.34666 0
M  V30 4786 C 458.349 1.98271 -0.35931 0
M  V30 4787 O 457.405 2.51551 0.218703 0
M  V30 4788 C 458.718 1.22207 -2.74747 0
M  V30 4789 C 460.266 1.33183 -2.83251 0
M  V30 4790 C 460.741 1.73075 -4.24039 0
M  V30 4791 N 462.232 1.80174 -4.26722 0
M  V30 4792 C 462.967 2.1243 -5.32598 0
M  V30 4793 N 462.463 2.43096 -6.4875 0
M  V30 4794 N 464.256 2.13454 -5.19994 0
M  V30 4795 H 456.407 -0.215174 -2.11307 0
M  V30 4796 H 458.67 -0.0336281 -0.947403 0
M  V30 4797 H 458.376 0.468195 -3.4857 0
M  V30 4798 H 458.25 2.17173 -3.08409 0
M  V30 4799 H 460.637 2.07647 -2.09683 0
M  V30 4800 H 460.718 0.363333 -2.53206 0
M  V30 4801 H 460.362 0.991712 -4.98124 0
M  V30 4802 H 460.292 2.70979 -4.51529 0
M  V30 4803 H 462.783 1.58744 -3.42942 0
M  V30 4804 H 463.096 2.6682 -7.25277 0
M  V30 4805 H 461.441 2.40611 -6.52021 0
M  V30 4806 H 464.632 1.88956 -4.28268 0
M  V30 4807 H 464.805 2.38261 -6.02608 0
M  V30 4808 N 458.211 1.37122 0.776871 0
M  V30 4809 C 459.121 1.34651 1.9211 0
M  V30 4810 C 460.137 0.246824 1.7224 0
M  V30 4811 O 461.313 0.48134 1.95563 0
M  V30 4812 C 458.378 1.14748 3.2716 0
M  V30 4813 C 457.439 2.34308 3.5972 0
M  V30 4814 C 456.672 2.15345 4.88326 0
M  V30 4815 O 456.895 1.13507 5.58992 0
M  V30 4816 O 455.829 3.03414 5.1983 0
M  V30 4817 H 459.655 2.31013 1.97146 0
M  V30 4818 H 457.24 1.17799 0.918901 0
M  V30 4819 H 459.122 1.05616 4.0795 0
M  V30 4820 H 457.797 0.214562 3.22988 0
M  V30 4821 H 456.704 2.49011 2.79185 0
M  V30 4822 H 458.037 3.26149 3.68629 0
M  V30 4823 N 459.689 -1.00246 1.21608 0
M  V30 4824 C 460.636 -2.09073 0.977613 0
M  V30 4825 C 461.606 -1.65815 -0.097297 0
M  V30 4826 O 462.791 -1.90734 0.0503445 0
M  V30 4827 C 459.931 -3.40671 0.551133 0
M  V30 4828 C 459.044 -3.97326 1.69576 0
M  V30 4829 C 458.179 -5.17043 1.2182 0
M  V30 4830 C 457.218 -5.65813 2.335 0
M  V30 4831 N 456.355 -6.76778 1.86859 0
M  V30 4832 H 461.195 -2.28806 1.90924 0
M  V30 4833 H 458.732 -1.12186 0.951452 0
M  V30 4834 H 460.69 -4.16225 0.285097 0
M  V30 4835 H 459.32 -3.20967 -0.343489 0
M  V30 4836 H 458.372 -3.18734 2.07637 0
M  V30 4837 H 459.684 -4.29511 2.53617 0
M  V30 4838 H 458.838 -5.99852 0.908975 0
M  V30 4839 H 457.577 -4.86458 0.347869 0
M  V30 4840 H 456.582 -4.81599 2.65222 0
M  V30 4841 H 457.807 -5.98427 3.21033 0
M  V30 4842 H 455.753 -6.47994 1.02174 0
M  V30 4843 H 455.67 -7.08231 2.64471 0
M  V30 4844 H 456.938 -7.63116 1.58978 0
M  V30 4845 N 461.167 -1.02423 -1.1978 0
M  V30 4846 C 462.1 -0.545641 -2.21581 0
M  V30 4847 C 463.078 0.411024 -1.57319 0
M  V30 4848 O 464.262 0.329223 -1.85603 0
M  V30 4849 C 461.389 0.204973 -3.38079 0
M  V30 4850 C 460.435 -0.70241 -4.20676 0
M  V30 4851 S 461.268 -2.17595 -4.89298 0
M  V30 4852 C 462.424 -1.43572 -6.09211 0
M  V30 4853 H 462.657 -1.4082 -2.61834 0
M  V30 4854 H 460.19 -0.833771 -1.29952 0
M  V30 4855 H 462.148 0.631924 -4.05607 0
M  V30 4856 H 460.809 1.0432 -2.9627 0
M  V30 4857 H 460.002 -0.123193 -5.03849 0
M  V30 4858 H 459.604 -1.06747 -3.58442 0
M  V30 4859 H 461.896 -0.719806 -6.73665 0
M  V30 4860 H 462.839 -2.24388 -6.71607 0
M  V30 4861 H 463.247 -0.935252 -5.56699 0
M  V30 4862 N 462.645 1.35699 -0.801477 0
M  V30 4863 C 463.922 1.9324 -0.302937 0
M  V30 4864 C 464.302 1.73209 1.20672 0
M  V30 4865 O 463.65 1.09809 2.00385 0
M  V30 4866 C 463.86 3.41728 -0.708747 0
M  V30 4867 C 465.208 4.18868 -0.695328 0
M  V30 4868 O 466.232 3.5022 -0.649971 0
M  V30 4869 O 465.091 5.41342 -0.749081 0
M  V30 4870 H 462.185 0.82331 -0.0780367 0
M  V30 4871 H 464.731 1.44806 -0.884832 0
M  V30 4872 H 463.503 3.50015 -1.74944 0
M  V30 4873 H 463.126 3.97471 -0.101384 0
M  V30 4874 N 464.123 0.554532 1.47522 0
M  V30 4875 C 465.053 -0.182974 2.32782 0
M  V30 4876 C 466.034 -0.911377 1.43624 0
M  V30 4877 O 467.219 -0.892366 1.72483 0
M  V30 4878 C 464.349 -1.21513 3.25349 0
M  V30 4879 C 463.303 -0.603355 4.23726 0
M  V30 4880 C 462.629 -1.73995 5.05598 0
M  V30 4881 C 463.929 0.441121 5.20434 0
M  V30 4882 H 465.623 0.52882 2.94693 0
M  V30 4883 H 463.169 0.255759 1.41711 0
M  V30 4884 H 465.122 -1.73922 3.83835 0
M  V30 4885 H 463.846 -1.95683 2.61487 0
M  V30 4886 H 462.505 -0.10059 3.66462 0
M  V30 4887 H 462.153 -2.47063 4.38143 0
M  V30 4888 H 461.853 -1.3364 5.72201 0
M  V30 4889 H 463.377 -2.26735 5.66942 0
M  V30 4890 H 464.791 0.00319931 5.733 0
M  V30 4891 H 463.188 0.763402 5.95224 0
M  V30 4892 H 464.258 1.33799 4.66075 0
M  V30 4893 N 465.601 -1.54893 0.290851 0
M  V30 4894 C 466.829 -2.04343 -0.324288 0
M  V30 4895 C 467.244 -1.16859 -1.48289 0
M  V30 4896 O 466.601 -0.192018 -1.81487 0
M  V30 4897 C 466.652 -3.52756 -0.79026 0
M  V30 4898 O 466.373 -4.36913 0.322213 0
M  V30 4899 C 467.874 -4.18161 -1.4716 0
M  V30 4900 H 465.094 -0.667135 -0.0719173 0
M  V30 4901 H 467.638 -1.99981 0.427529 0
M  V30 4902 H 465.793 -3.57511 -1.49213 0
M  V30 4903 H 466.207 -5.24486 -0.0387372 0
M  V30 4904 H 467.681 -5.23562 -1.7489 0
M  V30 4905 H 468.158 -3.67282 -2.40834 0
M  V30 4906 H 468.764 -4.17454 -0.813178 0
M  V30 4907 N 467.08 -0.0183926 -1.57589 0
M  V30 4908 C 468.043 0.951986 -2.08494 0
M  V30 4909 C 469.043 1.26092 -0.997874 0
M  V30 4910 O 470.233 1.20304 -1.25987 0
M  V30 4911 C 467.365 2.27165 -2.54182 0
M  V30 4912 H 468.558 0.511307 -2.95509 0
M  V30 4913 H 466.111 0.229444 -1.54607 0
M  V30 4914 H 466.846 2.75884 -1.70465 0
M  V30 4915 H 466.631 2.06057 -3.33591 0
M  V30 4916 H 468.121 2.9674 -2.93828 0
M  V30 4917 N 468.558 1.5553 0.254621 0
M  V30 4918 C 469.505 1.89666 1.31512 0
M  V30 4919 C 470.475 0.750057 1.482 0
M  V30 4920 O 471.66 1.00301 1.62309 0
M  V30 4921 C 468.8 2.19009 2.667 0
M  V30 4922 C 467.913 3.46435 2.58083 0
M  V30 4923 C 467.048 3.65386 3.85573 0
M  V30 4924 C 466.087 4.8644 3.71541 0
M  V30 4925 N 465.224 5.01952 4.90906 0
M  V30 4926 H 470.064 2.80109 1.017 0
M  V30 4927 H 467.601 1.38666 0.490938 0
M  V30 4928 H 469.559 2.34025 3.45381 0
M  V30 4929 H 468.189 1.31779 2.94676 0
M  V30 4930 H 467.241 3.39792 1.71013 0
M  V30 4931 H 468.553 4.35258 2.43622 0
M  V30 4932 H 467.707 3.80319 4.72697 0
M  V30 4933 H 466.446 2.74781 4.02922 0
M  V30 4934 H 465.451 4.71491 2.82801 0
M  V30 4935 H 466.676 5.78497 3.55694 0
M  V30 4936 H 464.622 4.14283 5.08631 0
M  V30 4937 H 464.539 5.84851 4.79046 0
M  V30 4938 H 465.807 5.21289 5.7955 0
M  V30 4939 N 470.036 -0.519951 1.48776 0
M  V30 4940 C 470.946 -1.65025 1.66745 0
M  V30 4941 C 471.962 -1.6508 0.549954 0
M  V30 4942 O 473.138 -1.83848 0.822295 0
M  V30 4943 C 470.203 -3.0146 1.71238 0
M  V30 4944 C 469.264 -3.12182 2.94688 0
M  V30 4945 C 468.497 -4.42109 2.98958 0
M  V30 4946 O 468.72 -5.29799 2.1135 0
M  V30 4947 O 467.654 -4.57406 3.91233 0
M  V30 4948 H 471.48 -1.52801 2.62461 0
M  V30 4949 H 469.065 -0.694157 1.32294 0
M  V30 4950 H 470.947 -3.82584 1.76657 0
M  V30 4951 H 469.622 -3.13988 0.786975 0
M  V30 4952 H 468.529 -2.30316 2.94797 0
M  V30 4953 H 469.862 -3.04574 3.86646 0
M  V30 4954 N 471.514 -1.37532 -0.769588 0
M  V30 4955 C 472.444 -1.36172 -1.89682 0
M  V30 4956 C 473.425 -0.23001 -1.68538 0
M  V30 4957 O 474.61 -0.43069 -1.89364 0
M  V30 4958 C 471.74 -1.1701 -3.26995 0
M  V30 4959 C 470.694 -2.27216 -3.62708 0
M  V30 4960 C 470.02 -1.93174 -4.98586 0
M  V30 4961 C 471.32 -3.6941 -3.69234 0
M  V30 4962 H 473.014 -2.30499 -1.91078 0
M  V30 4963 H 470.56 -1.10953 -0.917902 0
M  V30 4964 H 472.513 -1.14688 -4.05493 0
M  V30 4965 H 471.237 -0.191395 -3.26039 0
M  V30 4966 H 469.896 -2.28697 -2.86519 0
M  V30 4967 H 469.544 -0.938281 -4.94171 0
M  V30 4968 H 469.244 -2.66973 -5.23449 0
M  V30 4969 H 470.768 -1.92443 -5.79481 0
M  V30 4970 H 472.182 -3.70047 -4.37879 0
M  V30 4971 H 470.579 -4.4228 -4.05597 0
M  V30 4972 H 471.649 -4.0288 -2.69844 0
M  V30 4973 N 472.992 0.995999 -1.22138 0
M  V30 4974 C 474.22 1.77066 -1.07029 0
M  V30 4975 C 474.635 1.8495 0.379357 0
M  V30 4976 O 473.992 1.3174 1.26297 0
M  V30 4977 C 474.043 3.20533 -1.67155 0
M  V30 4978 O 473.764 3.13082 -3.06449 0
M  V30 4979 C 475.265 4.14461 -1.5728 0
M  V30 4980 H 472.485 0.556179 -0.375374 0
M  V30 4981 H 475.029 1.25238 -1.61666 0
M  V30 4982 H 473.184 3.6944 -1.16589 0
M  V30 4983 H 473.598 4.03283 -3.35355 0
M  V30 4984 H 475.072 5.1289 -2.04078 0
M  V30 4985 H 475.549 4.36005 -0.528795 0
M  V30 4986 H 476.155 3.71449 -2.07136 0
M  V30 4987 N 474.47 1.03057 1.19235 0
M  V30 4988 C 475.38 0.622922 2.26179 0
M  V30 4989 C 476.396 -0.346113 1.70523 0
M  V30 4990 O 477.572 -0.203572 2.00369 0
M  V30 4991 C 474.637 -0.0182063 3.46695 0
M  V30 4992 C 473.698 0.998546 4.17526 0
M  V30 4993 C 472.931 0.387917 5.32288 0
M  V30 4994 O 473.154 -0.808668 5.64639 0
M  V30 4995 O 472.088 1.1116 5.91546 0
M  V30 4996 H 475.914 1.51363 2.63292 0
M  V30 4997 H 473.499 0.800856 1.26122 0
M  V30 4998 H 475.381 -0.375606 4.19723 0
M  V30 4999 H 474.056 -0.882895 3.11427 0
M  V30 5000 H 472.963 1.40756 3.4661 0
M  V30 5001 H 474.296 1.83366 4.56769 0
M  V30 5002 N 475.948 -1.35272 0.808662 0
M  V30 5003 C 476.858 -2.33546 0.222079 0
M  V30 5004 C 477.874 -1.6196 -0.636011 0
M  V30 5005 O 479.05 -1.93822 -0.547274 0
M  V30 5006 C 476.115 -3.41148 -0.61795 0
M  V30 5007 C 475.176 -4.28507 0.260875 0
M  V30 5008 C 474.409 -5.3097 -0.539156 0
M  V30 5009 O 474.632 -5.42123 -1.77367 0
M  V30 5010 O 473.566 -6.01858 0.0710526 0
M  V30 5011 H 477.392 -2.85515 1.03512 0
M  V30 5012 H 474.977 -1.38079 0.570495 0
M  V30 5013 H 476.859 -4.06889 -1.09634 0
M  V30 5014 H 475.534 -2.91447 -1.40855 0
M  V30 5015 H 474.441 -3.6574 0.786451 0
M  V30 5016 H 475.774 -4.81611 1.01547 0
M  V30 5017 N 477.426 -0.562348 -1.47226 0
M  V30 5018 C 478.373 0.182461 -2.30078 0
M  V30 5019 C 479.343 0.903503 -1.39377 0
M  V30 5020 O 480.528 0.898188 -1.68337 0
M  V30 5021 C 477.668 1.20322 -3.23445 0
M  V30 5022 C 476.781 0.487717 -4.29238 0
M  V30 5023 C 475.916 1.49422 -5.09752 0
M  V30 5024 C 474.955 0.763976 -6.07314 0
M  V30 5025 N 474.092 1.71755 -6.80768 0
M  V30 5026 H 478.932 -0.530169 -2.93246 0
M  V30 5027 H 476.469 -0.273276 -1.44539 0
M  V30 5028 H 478.427 1.80768 -3.76004 0
M  V30 5029 H 477.057 1.88382 -2.6213 0
M  V30 5030 H 476.109 -0.231374 -3.79696 0
M  V30 5031 H 477.421 -0.0841003 -4.98729 0
M  V30 5032 H 476.575 2.17206 -5.66486 0
M  V30 5033 H 475.314 2.09995 -4.40174 0
M  V30 5034 H 474.319 0.0722344 -5.49753 0
M  V30 5035 H 475.544 0.16391 -6.78902 0
M  V30 5036 H 473.49 2.31177 -6.13916 0
M  V30 5037 H 473.407 1.19802 -7.46447 0
M  V30 5038 H 474.675 2.38638 -7.42073 0
M  V30 5039 N 478.904 1.54736 -0.299062 0
M  V30 5040 C 479.814 2.27127 0.587413 0
M  V30 5041 C 480.83 1.30575 1.15005 0
M  V30 5042 O 482.006 1.63554 1.17525 0
M  V30 5043 C 479.071 2.99645 1.74395 0
M  V30 5044 C 478.132 4.11731 1.21559 0
M  V30 5045 C 477.365 4.80781 2.317 0
M  V30 5046 O 477.588 4.4918 3.51558 0
M  V30 5047 O 476.522 5.68226 1.98501 0
M  V30 5048 H 480.348 3.037 0.000250109 0
M  V30 5049 H 477.933 1.49256 -0.0655919 0
M  V30 5050 H 479.815 3.45138 2.4178 0
M  V30 5051 H 478.49 2.25969 2.31775 0
M  V30 5052 H 477.397 3.70641 0.507514 0
M  V30 5053 H 478.73 4.87379 0.687233 0
M  V30 5054 N 480.382 0.0267497 1.57577 0
M  V30 5055 C 481.607 -0.666227 1.96408 0
M  V30 5056 C 482.032 -1.65004 0.903071 0
M  V30 5057 O 481.39 -1.80787 -0.136263 0
M  V30 5058 C 481.438 -1.35101 3.34335 0
M  V30 5059 O 480.542 -2.46623 3.30531 0
M  V30 5060 H 479.883 -0.175206 0.640468 0
M  V30 5061 H 482.413 0.0878977 2.04411 0
M  V30 5062 H 482.423 -1.70834 3.70513 0
M  V30 5063 H 481.098 -0.629844 4.11103 0
M  V30 5064 H 479.675 -2.13019 3.06068 0
M  V30 5065 N 481.861 -1.55662 -0.24637 0
M  V30 5066 C 482.824 -1.89558 -1.28842 0
M  V30 5067 C 483.824 -0.772082 -1.41052 0
M  V30 5068 O 485.014 -1.04007 -1.39743 0
M  V30 5069 C 482.146 -2.12449 -2.66605 0
M  V30 5070 H 483.339 -2.82735 -1.00004 0
M  V30 5071 H 480.892 -1.48562 -0.485684 0
M  V30 5072 H 481.627 -1.21742 -3.00582 0
M  V30 5073 H 481.412 -2.94273 -2.59125 0
M  V30 5074 H 482.902 -2.39854 -3.41847 0
M  V30 5075 N 483.339 0.512053 -1.4905 0
M  V30 5076 C 484.586 1.26686 -1.57978 0
M  V30 5077 C 484.914 1.92733 -0.261553 0
M  V30 5078 O 484.169 1.80772 0.749667 0
M  V30 5079 C 484.468 2.36446 -2.68008 0
M  V30 5080 C 484.134 1.87932 -4.09869 0
M  V30 5081 C 482.796 1.74419 -4.48477 0
M  V30 5082 C 485.148 1.5149 -4.98698 0
M  V30 5083 C 482.476 1.22827 -5.73699 0
M  V30 5084 C 484.828 1.01355 -6.24428 0
M  V30 5085 C 483.492 0.864735 -6.61875 0
M  V30 5086 H 482.762 0.463577 -0.578081 0
M  V30 5087 H 485.409 0.569421 -1.82838 0
M  V30 5088 H 483.714 3.11933 -2.37076 0
M  V30 5089 H 485.411 2.9453 -2.72127 0
M  V30 5090 H 482.001 1.99405 -3.79389 0
M  V30 5091 H 486.185 1.60782 -4.69535 0
M  V30 5092 H 481.441 1.10008 -6.01422 0
M  V30 5093 H 485.615 0.722351 -6.92644 0
M  V30 5094 H 483.242 0.462777 -7.5879 0
M  V30 5095 N 484.817 1.37938 0.762283 0
M  V30 5096 C 485.727 1.36681 1.90671 0
M  V30 5097 C 486.743 0.265078 1.71969 0
M  V30 5098 O 487.919 0.502055 1.95042 0
M  V30 5099 C 484.984 1.18211 3.25925 0
M  V30 5100 C 484.045 2.3811 3.57214 0
M  V30 5101 C 483.278 2.20512 4.86014 0
M  V30 5102 O 483.501 1.19429 5.57757 0
M  V30 5103 O 482.435 3.08911 5.16583 0
M  V30 5104 H 486.261 2.33091 1.94685 0
M  V30 5105 H 483.846 1.18767 0.906356 0
M  V30 5106 H 485.728 1.09937 4.06807 0
M  V30 5107 H 484.403 0.248807 3.22742 0
M  V30 5108 H 483.31 2.51958 2.76529 0
M  V30 5109 H 484.643 3.30041 3.65149 0
M  V30 5110 N 486.295 -0.989507 1.22664 0
M  V30 5111 C 487.542 -1.72953 1.05325 0
M  V30 5112 C 487.87 -1.90104 -0.411168 0
M  V30 5113 O 487.125 -1.44386 -1.32103 0
M  V30 5114 C 487.424 -3.13649 1.71345 0
M  V30 5115 C 487.09 -3.16403 3.21248 0
M  V30 5116 C 485.752 -3.16862 3.62149 0
M  V30 5117 C 488.104 -3.12428 4.17179 0
M  V30 5118 C 485.432 -3.11051 4.97458 0
M  V30 5119 C 487.784 -3.08159 5.52468 0
M  V30 5120 C 486.448 -3.06935 5.92746 0
M  V30 5121 H 485.718 -0.632881 0.385412 0
M  V30 5122 H 488.365 -1.15863 1.52473 0
M  V30 5123 H 486.67 -3.74069 1.16532 0
M  V30 5124 H 488.367 -3.69658 1.55416 0
M  V30 5125 H 484.957 -3.16798 2.88682 0
M  V30 5126 H 489.141 -3.11221 3.86595 0
M  V30 5127 H 484.397 -3.0845 5.27891 0
M  V30 5128 H 488.571 -3.04039 6.26525 0
M  V30 5129 H 486.198 -3.02186 6.97558 0
M  V30 5130 N 487.773 -1.03688 -1.18687 0
M  V30 5131 C 488.703 -0.645407 -2.24403 0
M  V30 5132 C 489.684 0.349511 -1.66471 0
M  V30 5133 O 490.869 0.230453 -1.92828 0
M  V30 5134 C 487.999 -0.00365337 -3.473 0
M  V30 5135 C 486.953 -0.921705 -4.17958 0
M  V30 5136 C 486.279 -0.144629 -5.34504 0
M  V30 5137 C 487.579 -2.23909 -4.71871 0
M  V30 5138 H 489.273 -1.52917 -2.57404 0
M  V30 5139 H 486.819 -0.736711 -1.23728 0
M  V30 5140 H 488.772 0.281908 -4.20456 0
M  V30 5141 H 487.496 0.914963 -3.13522 0
M  V30 5142 H 486.155 -1.19159 -3.46694 0
M  V30 5143 H 485.803 0.776274 -4.96974 0
M  V30 5144 H 485.503 -0.756206 -5.82714 0
M  V30 5145 H 487.027 0.134004 -6.10453 0
M  V30 5146 H 488.441 -2.0145 -5.36741 0
M  V30 5147 H 486.838 -2.8033 -5.30599 0
M  V30 5148 H 487.908 -2.88822 -3.895 0
M  V30 5149 N 489.251 1.34841 -0.815825 0
M  V30 5150 C 490.476 2.03261 -0.41226 0
M  V30 5151 C 490.901 1.61055 0.971751 0
M  V30 5152 O 490.259 0.7917 1.63101 0
M  V30 5153 C 490.307 3.56914 -0.514289 0
M  V30 5154 O 489.411 4.09728 0.468675 0
M  V30 5155 H 488.752 0.641664 -0.170771 0
M  V30 5156 H 491.282 1.72241 -1.10427 0
M  V30 5157 H 491.292 4.06156 -0.387457 0
M  V30 5158 H 489.967 3.86982 -1.52375 0
M  V30 5159 H 488.544 3.71681 0.301316 0
M  V30 5160 N 490.729 0.570148 1.46925 0
M  V30 5161 C 491.954 0.0542592 2.07329 0
M  V30 5162 C 492.379 -1.23582 1.41806 0
M  V30 5163 O 491.737 -1.74341 0.497479 0
M  V30 5164 C 491.785 -0.111175 3.60429 0
M  V30 5165 O 490.889 -1.17071 3.95434 0
M  V30 5166 H 490.23 0.0571425 0.661537 0
M  V30 5167 H 492.76 0.789516 1.88753 0
M  V30 5168 H 492.77 -0.321315 4.06733 0
M  V30 5169 H 491.445 0.831012 4.07513 0
M  V30 5170 H 490.022 -0.940029 3.60857 0
M  V30 5171 N 492.207 -1.54576 0.307264 0
M  V30 5172 C 493.17 -2.22423 -0.553224 0
M  V30 5173 C 494.17 -1.21231 -1.05639 0
M  V30 5174 O 495.36 -1.45923 -0.951419 0
M  V30 5175 C 492.492 -2.91552 -1.76664 0
M  V30 5176 H 493.685 -2.99874 0.0396484 0
M  V30 5177 H 491.238 -1.56192 0.0581629 0
M  V30 5178 H 491.973 -2.18196 -2.39918 0
M  V30 5179 H 491.758 -3.65738 -1.41343 0
M  V30 5180 H 493.248 -3.43292 -2.37783 0
M  V30 5181 O 493.724 -0.174109 -1.60559 0
M  V30 5182 H 494.415 0.415114 -1.892 0
M  V30 END ATOM
M  V30 BEGIN BOND
M  V30 END BOND
M  V30 END CTAB
M  END
$$$$
